drugbank_target|P12821 Angiotensin-converting enzyme (DB00178; DB00492; DB00519; DB00542; DB00584; DB00616; DB00691; DB00722; DB00790; DB00881; DB00886; DB01180; DB01197; DB01340; DB01348; DB02032; DB03740; DB08836; DB09477; DB13166; DB15565)
 OpenBabel12092119273D

  0  0  0     0  0            999 V3000
M  V30 BEGIN CTAB
M  V30 COUNTS 20823 21143 0 0 0
M  V30 BEGIN ATOM
M  V30 1 H -0.908 1.98254 -0.117106 0
M  V30 2 N 0 1.576 0 0
M  V30 3 C 0.933 2.03868 1.02534 0
M  V30 4 C 1.911 0.928543 1.3348 0
M  V30 5 O 3.095 1.19667 1.45644 0
M  V30 6 C 0.222 2.43627 2.35294 0
M  V30 7 C -0.732 3.65373 2.2001 0
M  V30 8 S 0.101 5.13292 1.52614 0
M  V30 9 C 1.257 5.56322 2.86805 0
M  V30 10 H 1.49 2.90518 0.631377 0
M  V30 11 H -0.977 1.52953 0.210867 0
M  V30 12 H 0.981 2.67203 3.11629 0
M  V30 13 H -0.358 1.57376 2.7183 0
M  V30 14 H -1.165 3.90944 3.18086 0
M  V30 15 H -1.563 3.418 1.51819 0
M  V30 16 H 0.729 5.58782 3.83104 0
M  V30 17 H 1.672 6.56266 2.65933 0
M  V30 18 H 2.08 4.83886 2.90714 0
M  V30 19 N 1.4781 -0.272755 1.55222 0
M  V30 20 C 2.7261 -1.00234 1.75492 0
M  V30 21 C 3.0471 -1.8681 0.5592 0
M  V30 22 O 2.3171 -1.91215 -0.425882 0
M  V30 23 H 0.8971 -0.373076 0.647166 0
M  V30 24 H 3.5591 -0.296926 1.92625 0
M  V30 25 H 2.6551 -1.63913 2.65592 0
M  V30 26 N 2.9562 -1.48159 -0.537278 0
M  V30 27 C 3.9192 -1.61665 -1.62472 0
M  V30 28 C 4.9192 -0.490395 -1.5314 0
M  V30 29 O 6.1092 -0.755998 -1.5694 0
M  V30 30 C 3.2412 -1.57997 -3.02076 0
M  V30 31 H 4.4342 -2.58621 -1.51839 0
M  V30 32 H 1.9872 -1.36647 -0.758771 0
M  V30 33 H 2.7222 -0.624913 -3.18222 0
M  V30 34 H 2.5072 -2.39755 -3.10258 0
M  V30 35 H 3.9972 -1.70627 -3.81151 0
M  V30 36 N 4.4343 0.785586 -1.36625 0
M  V30 37 C 5.3973 1.87999 -1.31107 0
M  V30 38 C 6.3973 1.59316 -0.217959 0
M  V30 39 O 7.5873 1.67656 -0.472977 0
M  V30 40 C 4.7193 3.24861 -1.03334 0
M  V30 41 H 5.9123 1.94307 -2.2844 0
M  V30 42 H 3.4653 0.983813 -1.21453 0
M  V30 43 H 4.2003 3.24235 -0.0647432 0
M  V30 44 H 3.9853 3.4707 -1.82441 0
M  V30 45 H 5.4753 4.04929 -1.02088 0
M  V30 46 N 5.9124 1.20967 1.01018 0
M  V30 47 C 7.1374 1.0503 1.78839 0
M  V30 48 C 7.5624 -0.395752 1.8389 0
M  V30 49 O 6.9204 -1.28529 1.27867 0
M  V30 50 C 6.9684 1.64602 3.2084 0
M  V30 51 O 6.0724 0.887988 4.02726 0
M  V30 52 H 5.4134 0.369987 0.551367 0
M  V30 53 H 7.9434 1.60399 1.27018 0
M  V30 54 H 7.9534 1.68607 3.71532 0
M  V30 55 H 6.6284 2.69841 3.16479 0
M  V30 56 H 5.2054 0.922648 3.61305 0
M  V30 57 N 7.3905 -1.2043 1.01659 0
M  V30 58 C 8.6385 -1.89423 0.704522 0
M  V30 59 C 8.9595 -1.79231 -0.768197 0
M  V30 60 O 8.2295 -1.1947 -1.55254 0
M  V30 61 H 6.8095 -0.701178 0.257602 0
M  V30 62 H 9.4715 -1.4626 1.28818 0
M  V30 63 H 8.5675 -2.96052 0.987916 0
M  V30 64 N 8.8686 -0.792821 -1.36206 0
M  V30 65 C 10.2846 -0.474903 -1.52371 0
M  V30 66 C 10.4846 1.00622 -1.74578 0
M  V30 67 O 9.5406 1.79162 -1.77924 0
M  V30 68 C 10.8536 -1.3083 -2.70747 0
M  V30 69 C 12.4016 -1.30234 -2.84619 0
M  V30 70 C 12.8766 -2.11956 -4.06004 0
M  V30 71 N 14.3676 -2.09419 -4.13156 0
M  V30 72 C 15.1026 -2.69419 -5.06163 0
M  V30 73 N 14.5986 -3.3829 -6.04592 0
M  V30 74 N 16.3916 -2.59134 -4.98804 0
M  V30 75 H 8.5426 -1.75222 -1.20046 0
M  V30 76 H 10.8056 -0.745024 -0.586211 0
M  V30 77 H 10.5116 -2.35881 -2.6087 0
M  V30 78 H 10.3856 -0.95196 -3.6499 0
M  V30 79 H 12.7726 -0.259748 -2.93955 0
M  V30 80 H 12.8536 -1.69847 -1.91274 0
M  V30 81 H 12.4976 -3.16248 -3.97429 0
M  V30 82 H 12.4276 -1.69711 -4.98503 0
M  V30 83 H 14.9186 -1.59297 -3.42685 0
M  V30 84 H 15.2316 -3.81394 -6.7213 0
M  V30 85 H 13.5766 -3.42393 -6.04807 0
M  V30 86 H 16.7676 -2.04927 -4.20859 0
M  V30 87 H 16.9406 -3.06185 -5.711 0
M  V30 88 N 10.3467 1.47872 -0.545128 0
M  V30 89 C 11.7627 1.5829 -0.204032 0
M  V30 90 C 11.9627 1.54529 1.29317 0
M  V30 91 O 11.0187 1.44232 2.07252 0
M  V30 92 C 12.3317 2.89304 -0.819987 0
M  V30 93 C 13.8797 3.02864 -0.790105 0
M  V30 94 C 14.3547 4.3656 -1.38491 0
M  V30 95 N 15.8457 4.43165 -1.34755 0
M  V30 96 C 16.5807 5.45153 -1.77753 0
M  V30 97 N 16.0767 6.54016 -2.2855 0
M  V30 98 N 17.8697 5.36125 -1.68897 0
M  V30 99 H 10.0207 1.4856 -1.51802 0
M  V30 100 H 12.2837 0.706305 -0.632327 0
M  V30 101 H 11.9897 2.97757 -1.87173 0
M  V30 102 H 11.8637 3.75957 -0.305915 0
M  V30 103 H 14.2507 2.94014 0.252913 0
M  V30 104 H 14.3317 2.17782 -1.34181 0
M  V30 105 H 13.9757 4.46164 -2.42693 0
M  V30 106 H 13.9057 5.20353 -0.808754 0
M  V30 107 H 16.3967 3.65083 -0.975855 0
M  V30 108 H 16.7097 7.27994 -2.59314 0
M  V30 109 H 15.0547 6.54938 -2.32553 0
M  V30 110 H 18.2457 4.49975 -1.28998 0
M  V30 111 H 18.4187 6.15472 -2.02726 0
M  V30 112 N 11.8248 0.280983 1.55075 0
M  V30 113 C 13.0728 -0.333455 1.9933 0
M  V30 114 C 13.3938 -1.55937 1.17085 0
M  V30 115 O 12.6638 -1.94143 0.261805 0
M  V30 116 H 11.2438 -0.126197 0.736263 0
M  V30 117 H 13.9058 0.387678 1.91005 0
M  V30 118 H 13.0018 -0.619292 3.05894 0
M  V30 119 N 13.3029 -1.57598 0.00835791 0
M  V30 120 C 14.7139 -1.7892 -0.53333 0
M  V30 121 C 15.0649 -0.916609 -1.73473 0
M  V30 122 O 14.1899 -0.121336 -2.1606 0
M  V30 123 C 14.7849 -3.24488 -0.974313 0
M  V30 124 C 13.3439 -3.46878 -1.46125 0
M  V30 125 C 12.4909 -2.74157 -0.416302 0
M  V30 126 H 15.4419 -1.56958 0.234495 0
M  V30 127 H 15.4629 -3.3306 -1.83988 0
M  V30 128 H 14.9749 -3.87972 -0.099718 0
M  V30 129 H 13.0759 -2.8862 -2.35646 0
M  V30 130 H 13.1889 -4.55572 -1.48295 0
M  V30 131 H 11.5529 -2.39022 -0.87981 0
M  V30 132 H 12.3359 -3.40345 0.44947 0
M  V30 133 N 14.781 0.264519 -1.55364 0
M  V30 134 C 16.029 0.993021 -1.76021 0
M  V30 135 C 16.35 1.86511 -0.569099 0
M  V30 136 O 15.62 1.91438 0.415735 0
M  V30 137 H 14.2 0.369639 -0.649135 0
M  V30 138 H 16.862 0.286707 -1.9278 0
M  V30 139 H 15.958 1.62502 -2.66457 0
M  V30 140 N 16.2591 1.48442 0.529413 0
M  V30 141 C 17.1891 1.65902 1.64313 0
M  V30 142 C 18.1701 0.507897 1.6234 0
M  V30 143 O 19.3551 0.740503 1.79528 0
M  V30 144 C 16.4851 1.69911 3.02898 0
M  V30 145 C 15.4391 2.8453 3.19729 0
M  V30 146 C 14.7651 2.73629 4.59381 0
M  V30 147 C 16.0651 4.25821 3.02447 0
M  V30 148 H 17.7591 2.5914 1.49955 0
M  V30 149 H 15.3051 1.24709 0.719982 0
M  V30 150 H 17.2581 1.80715 3.80684 0
M  V30 151 H 15.9821 0.732524 3.18279 0
M  V30 152 H 14.6411 2.73283 2.44361 0
M  V30 153 H 14.2891 1.74938 4.71599 0
M  V30 154 H 13.9891 3.50541 4.71588 0
M  V30 155 H 15.5131 2.86401 5.39265 0
M  V30 156 H 16.9271 4.37898 3.70024 0
M  V30 157 H 15.3241 5.03735 3.26146 0
M  V30 158 H 16.3941 4.42244 1.98867 0
M  V30 159 N 17.7372 -0.778329 1.37039 0
M  V30 160 C 18.6672 -1.90546 1.34962 0
M  V30 161 C 19.6482 -1.68681 0.219274 0
M  V30 162 O 20.8332 -1.89634 0.418624 0
M  V30 163 C 17.9632 -3.27734 1.14925 0
M  V30 164 C 16.9172 -3.64147 2.24902 0
M  V30 165 C 16.2432 -4.99806 1.89996 0
M  V30 166 C 17.5432 -3.71579 3.67051 0
M  V30 167 H 19.2372 -1.92541 2.29277 0
M  V30 168 H 16.7832 -0.924948 1.10366 0
M  V30 169 H 18.7362 -4.06215 1.12104 0
M  V30 170 H 17.4602 -3.26154 0.170631 0
M  V30 171 H 16.1192 -2.8797 2.26868 0
M  V30 172 H 15.7672 -4.94759 0.906796 0
M  V30 173 H 15.4672 -5.25139 2.63634 0
M  V30 174 H 16.9912 -5.80694 1.88749 0
M  V30 175 H 18.4052 -4.40227 3.67251 0
M  V30 176 H 16.8022 -4.08405 4.39688 0
M  V30 177 H 17.8722 -2.72404 4.01154 0
M  V30 178 N 19.2153 -1.21501 -1.00376 0
M  V30 179 C 20.1453 -0.999478 -2.11028 0
M  V30 180 C 21.1263 0.0759671 -1.6993 0
M  V30 181 O 22.3113 -0.0841106 -1.94018 0
M  V30 182 C 19.4413 -0.564709 -3.42678 0
M  V30 183 C 18.3953 -1.58486 -3.97576 0
M  V30 184 C 17.7213 -1.00628 -5.25146 0
M  V30 185 C 19.0213 -2.97204 -4.29496 0
M  V30 186 H 20.7153 -1.92495 -2.29317 0
M  V30 187 H 18.2613 -0.92693 -1.102 0
M  V30 188 H 20.2143 -0.401091 -4.19487 0
M  V30 189 H 18.9383 0.396411 -3.24185 0
M  V30 190 H 17.5973 -1.73606 -3.22888 0
M  V30 191 H 17.2453 -0.0368439 -5.02987 0
M  V30 192 H 16.9453 -1.68771 -5.62841 0
M  V30 193 H 18.4693 -0.854015 -6.04598 0
M  V30 194 H 19.8833 -2.8552 -4.97143 0
M  V30 195 H 18.2803 -3.62372 -4.78338 0
M  V30 196 H 19.3503 -3.47956 -3.3772 0
M  V30 197 N 20.6934 1.19889 -1.02296 0
M  V30 198 C 22.1044 1.71124 -0.746568 0
M  V30 199 C 22.4554 1.81939 0.734335 0
M  V30 200 O 21.5804 1.48639 1.57275 0
M  V30 201 C 22.1754 3.10804 -1.34857 0
M  V30 202 C 20.7344 3.59323 -1.1209 0
M  V30 203 C 19.8814 2.3635 -1.45031 0
M  V30 204 H 22.8324 1.04813 -1.19163 0
M  V30 205 H 22.8534 3.73186 -0.742437 0
M  V30 206 H 22.3654 3.029 -2.42638 0
M  V30 207 H 20.4664 3.7255 -0.0610337 0
M  V30 208 H 20.5794 4.4378 -1.80544 0
M  V30 209 H 18.9434 2.39399 -0.869487 0
M  V30 210 H 19.7264 2.31081 -2.53883 0
M  V30 211 N 22.1715 0.800033 1.35784 0
M  V30 212 C 23.1015 0.220184 2.3246 0
M  V30 213 C 24.0825 -0.65073 1.57161 0
M  V30 214 O 25.2675 -0.582359 1.85263 0
M  V30 215 C 22.3975 -0.637353 3.41402 0
M  V30 216 C 21.3515 0.134531 4.27789 0
M  V30 217 C 20.6775 -0.844285 5.27992 0
M  V30 218 C 21.9775 1.32979 5.05088 0
M  V30 219 H 23.6715 1.02787 2.81203 0
M  V30 220 H 21.2175 0.495717 1.35199 0
M  V30 221 H 23.1705 -1.05302 4.08031 0
M  V30 222 H 21.8945 -1.47785 2.91251 0
M  V30 223 H 20.5535 0.531296 3.6273 0
M  V30 224 H 20.2015 -1.68011 4.74111 0
M  V30 225 H 19.9015 -0.332184 5.8666 0
M  V30 226 H 21.4255 -1.2583 5.97494 0
M  V30 227 H 22.8395 0.98934 5.64699 0
M  V30 228 H 21.2365 1.77593 5.7322 0
M  V30 229 H 22.3065 2.11978 4.36111 0
M  V30 230 N 23.6496 -1.47581 0.552962 0
M  V30 231 C 25.0606 -1.86324 0.118463 0
M  V30 232 C 25.4116 -1.46006 -1.3106 0
M  V30 233 O 24.5366 -0.861182 -1.98526 0
M  V30 234 C 25.1316 -3.3816 0.20821 0
M  V30 235 C 23.6906 -3.7601 -0.171226 0
M  V30 236 C 22.8376 -2.71634 0.557686 0
M  V30 237 H 25.7886 -1.39159 0.762928 0
M  V30 238 H 25.8096 -3.76141 -0.574278 0
M  V30 239 H 25.3216 -3.67473 1.24841 0
M  V30 240 H 23.4226 -3.52313 -1.21269 0
M  V30 241 H 23.5356 -4.78745 0.184379 0
M  V30 242 H 21.8996 -2.547 0.00125792 0
M  V30 243 H 22.6826 -3.0379 1.59896 0
M  V30 244 N 25.1277 -0.289203 -1.54924 0
M  V30 245 C 26.0577 0.58549 -2.2604 0
M  V30 246 C 27.0387 1.14753 -1.25562 0
M  V30 247 O 28.2237 1.17906 -1.54311 0
M  V30 248 C 25.3537 1.76305 -2.99222 0
M  V30 249 C 24.3077 1.33191 -4.06748 0
M  V30 250 C 23.6337 2.5937 -4.6758 0
M  V30 251 C 24.9337 0.471775 -5.20165 0
M  V30 252 H 26.6277 -0.00763532 -2.99399 0
M  V30 253 H 24.1737 -0.00511229 -1.43999 0
M  V30 254 H 26.1267 2.38097 -3.47689 0
M  V30 255 H 24.8507 2.38223 -2.23422 0
M  V30 256 H 23.5097 0.737121 -3.59113 0
M  V30 257 H 23.1577 3.19576 -3.88433 0
M  V30 258 H 22.8577 2.31228 -5.40192 0
M  V30 259 H 24.3817 3.21985 -5.18804 0
M  V30 260 H 25.7957 0.995056 -5.64599 0
M  V30 261 H 24.1927 0.284639 -5.99425 0
M  V30 262 H 25.2627 -0.506041 -4.82252 0
M  V30 263 N 26.6058 1.57591 -0.0167156 0
M  V30 264 C 27.5358 2.12496 0.967858 0
M  V30 265 C 28.5168 1.03807 1.34752 0
M  V30 266 O 29.7018 1.31577 1.42833 0
M  V30 267 C 26.8318 2.64194 2.25431 0
M  V30 268 C 25.7858 3.77559 2.01576 0
M  V30 269 C 25.1118 4.15636 3.36379 0
M  V30 270 C 26.4118 5.04151 1.36489 0
M  V30 271 H 28.1058 2.95013 0.510643 0
M  V30 272 H 25.6518 1.41915 0.244181 0
M  V30 273 H 27.6048 3.01236 2.94678 0
M  V30 274 H 26.3288 1.78821 2.73296 0
M  V30 275 H 24.9878 3.40937 1.34751 0
M  V30 276 H 24.6358 3.27263 3.81979 0
M  V30 277 H 24.3358 4.92022 3.21229 0
M  V30 278 H 25.8598 4.5525 4.06915 0
M  V30 279 H 27.2738 5.38857 1.95718 0
M  V30 280 H 25.6708 5.85453 1.31776 0
M  V30 281 H 26.7408 4.83733 0.336219 0
M  V30 282 N 28.0839 -0.256276 1.55502 0
M  V30 283 C 29.0139 -1.32102 1.92539 0
M  V30 284 C 29.9949 -1.50684 0.789194 0
M  V30 285 O 31.1799 -1.63449 1.04872 0
M  V30 286 C 28.3099 -2.67752 2.21192 0
M  V30 287 C 27.2639 -2.63878 3.36975 0
M  V30 288 C 26.5899 -4.03236 3.51147 0
M  V30 289 C 27.8899 -2.21682 4.72921 0
M  V30 290 H 29.5839 -1.01351 2.81724 0
M  V30 291 H 27.1299 -0.486105 1.35547 0
M  V30 292 H 29.0829 -3.42365 2.45691 0
M  V30 293 H 27.8069 -3.0012 1.28824 0
M  V30 294 H 26.4659 -1.91722 3.12471 0
M  V30 295 H 26.1139 -4.32854 2.56216 0
M  V30 296 H 25.8139 -4.01535 4.29003 0
M  V30 297 H 27.3379 -4.79563 3.77957 0
M  V30 298 H 28.7519 -2.86023 4.96854 0
M  V30 299 H 27.1489 -2.3111 5.53812 0
M  V30 300 H 28.2189 -1.16833 4.70615 0
M  V30 301 N 29.562 -1.4872 -0.521534 0
M  V30 302 C 30.492 -1.66771 -1.63431 0
M  V30 303 C 31.473 -0.516499 -1.62069 0
M  V30 304 O 32.658 -0.750013 -1.79132 0
M  V30 305 C 29.788 -1.71515 -3.01993 0
M  V30 306 C 28.742 -2.86222 -3.18216 0
M  V30 307 C 28.068 -2.76061 -4.57924 0
M  V30 308 C 29.368 -4.27419 -3.00184 0
M  V30 309 H 31.062 -2.59932 -1.48579 0
M  V30 310 H 28.608 -1.25089 -0.713358 0
M  V30 311 H 30.561 -1.82731 -3.7972 0
M  V30 312 H 29.285 -0.749393 -3.17886 0
M  V30 313 H 27.944 -2.74575 -2.42908 0
M  V30 314 H 27.592 -1.77437 -4.70665 0
M  V30 315 H 27.292 -3.53037 -4.69722 0
M  V30 316 H 28.816 -2.89256 -5.37739 0
M  V30 317 H 30.23 -4.39855 -3.67697 0
M  V30 318 H 28.627 -5.05458 -3.2347 0
M  V30 319 H 29.697 -4.43293 -1.96518 0
M  V30 320 N 31.0401 0.771051 -1.3745 0
M  V30 321 C 31.9701 1.89827 -1.3597 0
M  V30 322 C 32.9511 1.68562 -0.228216 0
M  V30 323 O 34.1361 1.8941 -0.428675 0
M  V30 324 C 31.2661 3.2712 -1.16662 0
M  V30 325 C 30.2201 3.6295 -2.2683 0
M  V30 326 C 29.5461 4.98791 -1.92644 0
M  V30 327 C 30.8461 3.69627 -3.69017 0
M  V30 328 H 32.5401 1.91323 -2.30295 0
M  V30 329 H 30.0861 0.919082 -1.10855 0
M  V30 330 H 32.0391 4.05615 -1.14256 0
M  V30 331 H 30.7631 3.26059 -0.187926 0
M  V30 332 H 29.4221 2.86763 -2.28392 0
M  V30 333 H 29.0701 4.94271 -0.933021 0
M  V30 334 H 28.7701 5.23733 -2.66416 0
M  V30 335 H 30.2941 5.79685 -1.91826 0
M  V30 336 H 31.7081 4.38273 -3.69581 0
M  V30 337 H 30.1051 4.06067 -4.41848 0
M  V30 338 H 31.1751 2.70273 -4.02592 0
M  V30 339 N 32.5182 1.22032 0.997298 0
M  V30 340 C 33.9292 1.0397 1.55071 0
M  V30 341 C 34.2802 -0.398192 1.92117 0
M  V30 342 O 33.4052 -1.28254 1.74298 0
M  V30 343 C 34.0002 1.88109 2.81781 0
M  V30 344 C 32.5592 1.74357 3.33581 0
M  V30 345 C 31.7062 1.84846 2.06706 0
M  V30 346 H 34.6572 1.35941 0.818883 0
M  V30 347 H 34.6782 1.39589 3.53971 0
M  V30 348 H 34.1902 2.92754 2.54787 0
M  V30 349 H 32.2912 0.72427 3.65493 0
M  V30 350 H 32.4042 2.56772 4.04481 0
M  V30 351 H 30.7682 1.28238 2.20062 0
M  V30 352 H 31.5512 2.91014 1.82114 0
M  V30 353 N 33.9963 -1.19345 1.0293 0
M  V30 354 C 35.4073 -1.70725 0.755633 0
M  V30 355 C 35.7583 -1.82326 -0.724676 0
M  V30 356 O 34.8833 -1.49471 -1.56484 0
M  V30 357 C 35.4783 -3.10084 1.36503 0
M  V30 358 C 34.0373 -3.58723 1.13994 0
M  V30 359 C 33.1843 -2.35577 1.46283 0
M  V30 360 H 36.1353 -1.0418 1.19718 0
M  V30 361 H 36.1563 -3.72787 0.762217 0
M  V30 362 H 35.6683 -3.01609 2.44241 0
M  V30 363 H 33.7693 -3.72512 0.0807901 0
M  V30 364 H 33.8823 -4.42816 1.82894 0
M  V30 365 H 32.2463 -2.38935 0.88217 0
M  V30 366 H 33.0293 -2.29731 2.55105 0
M  V30 367 N 35.4744 -0.807222 -1.35358 0
M  V30 368 C 36.4064 -0.175717 -2.28525 0
M  V30 369 C 37.4194 0.625354 -1.5031 0
M  V30 370 O 38.6084 0.457611 -1.72535 0
M  V30 371 C 35.7084 0.773471 -3.29956 0
M  V30 372 C 34.8814 0.0186296 -4.37396 0
M  V30 373 C 33.9404 0.886395 -5.18681 0
M  V30 374 O 32.9664 0.337106 -5.68201 0
M  V30 375 N 34.1684 2.20839 -5.36852 0
M  V30 376 H 36.9334 -0.976091 -2.83359 0
M  V30 377 H 34.4944 -0.662737 -1.47714 0
M  V30 378 H 36.4864 1.35824 -3.81227 0
M  V30 379 H 35.0564 1.47465 -2.75632 0
M  V30 380 H 34.2764 -0.747349 -3.87051 0
M  V30 381 H 35.5644 -0.501577 -5.06322 0
M  V30 382 H 34.9624 2.67858 -4.98265 0
M  V30 383 H 33.5194 2.74237 -5.91301 0
M  V30 384 N 36.9525 1.47285 -0.560781 0
M  V30 385 C 38.3635 1.86258 -0.128343 0
M  V30 386 C 38.7145 1.46699 1.30284 0
M  V30 387 O 37.8395 0.871698 1.98067 0
M  V30 388 C 38.4345 3.38044 -0.22614 0
M  V30 389 C 36.9935 3.76096 0.151283 0
M  V30 390 C 36.1405 2.71335 -0.572084 0
M  V30 391 H 39.0915 1.38752 -0.770297 0
M  V30 392 H 39.1125 3.76441 0.554322 0
M  V30 393 H 38.6245 3.66806 -1.26788 0
M  V30 394 H 36.7255 3.52951 1.19399 0
M  V30 395 H 36.8385 4.78641 -0.209765 0
M  V30 396 H 35.2025 2.54696 -0.0147653 0
M  V30 397 H 35.9855 3.02938 -1.61504 0
M  V30 398 N 38.4306 0.297415 1.54768 0
M  V30 399 C 39.3936 -0.567375 2.22066 0
M  V30 400 C 40.3936 -1.06409 1.20556 0
M  V30 401 O 41.5836 -0.960691 1.45315 0
M  V30 402 C 38.7156 -1.78517 2.90421 0
M  V30 403 H 39.9086 0.0205534 2.99893 0
M  V30 404 H 37.4616 0.0482163 1.56226 0
M  V30 405 H 38.1966 -2.41303 2.16664 0
M  V30 406 H 37.9816 -1.43669 3.64831 0
M  V30 407 H 39.4716 -2.39964 3.41771 0
M  V30 408 N 39.9087 -1.5758 0.0250728 0
M  V30 409 C 40.8387 -2.13007 -0.956575 0
M  V30 410 C 41.8197 -1.0452 -1.342 0
M  V30 411 O 43.0047 -1.32332 -1.42133 0
M  V30 412 C 40.1347 -2.65386 -2.24026 0
M  V30 413 C 39.0887 -3.78623 -1.99571 0
M  V30 414 C 38.4147 -4.17414 -3.3417 0
M  V30 415 C 39.7147 -5.04867 -1.33814 0
M  V30 416 H 41.4087 -2.9528 -0.494991 0
M  V30 417 H 38.9547 -1.42042 -0.236651 0
M  V30 418 H 40.9077 -3.02794 -2.93076 0
M  V30 419 H 39.6317 -1.80268 -2.72343 0
M  V30 420 H 38.2907 -3.41646 -1.32941 0
M  V30 421 H 37.9387 -3.29284 -3.80238 0
M  V30 422 H 37.6387 -4.93719 -3.18615 0
M  V30 423 H 39.1627 -4.57402 -4.04495 0
M  V30 424 H 40.5767 -5.39888 -1.92857 0
M  V30 425 H 38.9737 -5.86144 -1.28669 0
M  V30 426 H 40.0437 -4.83904 -0.310561 0
M  V30 427 N 41.3868 0.248026 -1.55636 0
M  V30 428 C 42.3498 1.29044 -1.89421 0
M  V30 429 C 43.3498 1.41134 -0.770581 0
M  V30 430 O 44.5398 1.39854 -1.03858 0
M  V30 431 C 41.6718 2.66831 -2.12165 0
M  V30 432 H 42.8648 1.00305 -2.82629 0
M  V30 433 H 40.4178 0.487265 -1.48511 0
M  V30 434 H 41.1528 3.00711 -1.21422 0
M  V30 435 H 40.9378 2.59438 -2.93997 0
M  V30 436 H 42.4278 3.42103 -2.3949 0
M  V30 437 N 42.8649 1.48995 0.513639 0
M  V30 438 C 43.7949 1.67636 1.62544 0
M  V30 439 C 44.7759 0.525087 1.61793 0
M  V30 440 O 45.9609 0.759502 1.78732 0
M  V30 441 C 43.0909 1.73114 3.01079 0
M  V30 442 C 42.0449 2.87905 3.16693 0
M  V30 443 C 41.3709 2.78486 4.56453 0
M  V30 444 C 42.6709 4.29005 2.97913 0
M  V30 445 H 44.3649 2.60716 1.47198 0
M  V30 446 H 41.9109 1.25465 0.706714 0
M  V30 447 H 43.8639 1.84742 3.78746 0
M  V30 448 H 42.5879 0.766241 3.17484 0
M  V30 449 H 41.2469 2.75859 2.41448 0
M  V30 450 H 40.8949 1.7993 4.69717 0
M  V30 451 H 40.5949 3.55523 4.67843 0
M  V30 452 H 42.1189 2.92104 5.36197 0
M  V30 453 H 43.5329 4.41798 3.65359 0
M  V30 454 H 41.9299 5.07166 3.20785 0
M  V30 455 H 42.9999 4.44329 1.94165 0
M  V30 456 N 44.343 -0.763751 1.37857 0
M  V30 457 C 45.62 -1.51244 1.24035 0
M  V30 458 C 46 -2.10472 -0.162649 0
M  V30 459 O 45.348 -1.96206 -1.17112 0
M  V30 460 C 45.558 -2.58694 2.34261 0
M  V30 461 C 46.906 -3.25878 2.72193 0
M  V30 462 O 47.93 -2.68993 2.33497 0
M  V30 463 O 46.789 -4.2874 3.38887 0
M  V30 464 H 43.883 -0.670243 0.484462 0
M  V30 465 H 46.429 -0.800031 1.49658 0
M  V30 466 H 45.201 -2.13105 3.2818 0
M  V30 467 H 44.824 -3.37527 2.10146 0
M  V30 468 N 45.8211 -1.22559 -0.990812 0
M  V30 469 C 47.2321 -1.04791 -1.54518 0
M  V30 470 C 47.5831 0.387998 -1.92325 0
M  V30 471 O 46.7081 1.27328 -1.74976 0
M  V30 472 C 47.3031 -1.896 -2.80779 0
M  V30 473 C 45.8621 -1.76124 -3.32652 0
M  V30 474 C 45.0091 -1.8594 -2.05722 0
M  V30 475 H 47.9601 -1.36374 -0.811662 0
M  V30 476 H 47.9811 -1.41464 -3.53225 0
M  V30 477 H 47.4931 -2.94101 -2.53231 0
M  V30 478 H 45.5941 -0.743643 -3.65104 0
M  V30 479 H 45.7071 -2.58913 -4.03114 0
M  V30 480 H 44.0711 -1.29403 -2.19379 0
M  V30 481 H 44.8541 -2.91976 -1.80568 0
M  V30 482 N 47.2992 1.18797 -1.03562 0
M  V30 483 C 48.5472 1.88278 -0.734569 0
M  V30 484 C 48.8682 1.8043 0.739586 0
M  V30 485 O 48.1382 1.21925 1.53333 0
M  V30 486 H 46.7182 0.696991 -0.268725 0
M  V30 487 H 49.3802 1.44192 -1.31129 0
M  V30 488 H 48.4762 2.94443 -1.03489 0
M  V30 489 N 48.7773 0.814389 1.34928 0
M  V30 490 C 49.7073 0.244827 2.32213 0
M  V30 491 C 50.6883 -0.634024 1.57842 0
M  V30 492 O 51.8733 -0.562676 1.8587 0
M  V30 493 C 49.0033 -0.601106 3.42058 0
M  V30 494 C 47.9573 0.179896 4.27622 0
M  V30 495 C 47.2833 -0.788237 5.28858 0
M  V30 496 C 48.5833 1.38329 5.03649 0
M  V30 497 H 50.2773 1.05763 2.80097 0
M  V30 498 H 47.8233 0.510029 1.34665 0
M  V30 499 H 49.7763 -1.00968 4.09125 0
M  V30 500 H 48.5003 -1.44688 2.92802 0
M  V30 501 H 47.1593 0.569739 3.62146 0
M  V30 502 H 46.8073 -1.62973 4.75866 0
M  V30 503 H 46.5073 -0.269942 5.8698 0
M  V30 504 H 48.0313 -1.19485 5.98795 0
M  V30 505 H 49.4453 1.04918 5.63618 0
M  V30 506 H 47.8423 1.83662 5.71304 0
M  V30 507 H 48.9123 2.16592 4.33839 0
M  V30 508 N 50.2554 -1.46986 0.568584 0
M  V30 509 C 51.1874 -2.28233 -0.210337 0
M  V30 510 C 52.2004 -1.37682 -0.868767 0
M  V30 511 O 53.3894 -1.62406 -0.740705 0
M  V30 512 C 50.4894 -3.12293 -1.3163 0
M  V30 513 C 49.6624 -4.30878 -0.7525 0
M  V30 514 C 48.7214 -4.96445 -1.74439 0
M  V30 515 O 47.7474 -5.54482 -1.286 0
M  V30 516 N 48.9494 -4.92171 -3.07812 0
M  V30 517 H 51.7144 -2.95723 0.486648 0
M  V30 518 H 49.2754 -1.56742 0.405409 0
M  V30 519 H 51.2674 -3.53022 -1.97883 0
M  V30 520 H 49.8374 -2.46971 -1.91636 0
M  V30 521 H 49.0574 -3.94104 0.0871128 0
M  V30 522 H 50.3454 -5.07558 -0.35536 0
M  V30 523 H 49.7434 -4.46239 -3.47688 0
M  V30 524 H 48.3004 -5.36884 -3.69592 0
M  V30 525 N 51.7335 -0.305618 -1.54608 0
M  V30 526 C 53.1445 0.186098 -1.8577 0
M  V30 527 C 53.4955 1.53058 -1.22751 0
M  V30 528 O 52.6205 2.09888 -0.526893 0
M  V30 529 C 53.2155 0.344449 -3.37044 0
M  V30 530 C 51.7745 0.780384 -3.68221 0
M  V30 531 C 50.9215 -0.108554 -2.77087 0
M  V30 532 H 53.8725 -0.526485 -1.49712 0
M  V30 533 H 53.8935 1.17828 -3.61796 0
M  V30 534 H 53.4055 -0.634235 -3.82883 0
M  V30 535 H 51.5065 1.76945 -3.27904 0
M  V30 536 H 51.6195 0.596572 -4.75371 0
M  V30 537 H 49.9835 0.412931 -2.5133 0
M  V30 538 H 50.7665 -1.08368 -3.25747 0
M  V30 539 N 53.2116 1.57565 -0.0334293 0
M  V30 540 C 54.4596 1.91598 0.642999 0
M  V30 541 C 54.7806 0.910847 1.7242 0
M  V30 542 O 54.0506 -0.0469931 1.95844 0
M  V30 543 H 52.6306 0.707228 0.240496 0
M  V30 544 H 55.2926 1.94726 -0.0822488 0
M  V30 545 H 54.3886 2.92336 1.09298 0
M  V30 546 N 54.6897 -0.239769 1.55765 0
M  V30 547 C 55.6377 -1.31668 1.91745 0
M  V30 548 C 56.6317 -1.49462 0.797338 0
M  V30 549 O 57.8377 -1.50852 0.982021 0
M  V30 550 H 54.2127 -0.441048 0.609082 0
M  V30 551 H 56.1837 -0.985923 2.81642 0
M  V30 552 C 54.9327 -2.66368 2.2348 0
M  V30 553 H 54.2557 -2.53478 3.09175 0
M  V30 554 H 55.6957 -3.40578 2.52553 0
M  V30 555 C 54.1547 -3.20002 1.05359 0
M  V30 556 O 54.6847 -4.00538 0.305261 0
M  V30 557 N 52.8907 -2.78126 0.842292 0
M  V30 558 H 52.4377 -2.12742 1.45253 0
M  V30 559 H 52.3957 -3.14354 0.053652 0
M  V30 560 N 56.1678 -1.49265 -0.50573 0
M  V30 561 C 57.4148 -1.58513 -1.26015 0
M  V30 562 C 57.7428 -0.26972 -1.92621 0
M  V30 563 O 56.9978 0.741997 -1.81088 0
M  V30 564 C 57.2968 -2.69008 -2.35308 0
M  V30 565 C 56.9628 -4.10662 -1.86192 0
M  V30 566 C 55.6248 -4.49212 -1.72516 0
M  V30 567 C 57.9768 -4.99336 -1.49375 0
M  V30 568 C 55.3048 -5.74214 -1.20394 0
M  V30 569 C 57.6568 -6.24852 -0.987072 0
M  V30 570 C 56.3208 -6.62236 -0.836669 0
M  V30 571 H 55.5908 -0.580041 -0.461122 0
M  V30 572 H 58.2378 -1.83078 -0.561665 0
M  V30 573 H 56.5428 -2.38396 -3.10926 0
M  V30 574 H 58.2398 -2.73373 -2.93374 0
M  V30 575 H 54.8298 -3.8023 -1.97795 0
M  V30 576 H 59.0138 -4.70212 -1.5879 0
M  V30 577 H 54.2698 -6.01883 -1.07458 0
M  V30 578 H 58.4438 -6.92944 -0.692983 0
M  V30 579 H 56.0708 -7.58979 -0.430607 0
M  V30 580 N 57.6459 0.756429 -1.3826 0
M  V30 581 C 58.8709 1.55077 -1.37717 0
M  V30 582 C 59.2959 1.88073 0.03164 0
M  V30 583 O 58.6539 1.50364 1.01293 0
M  V30 584 C 58.7019 2.8283 -2.23695 0
M  V30 585 O 57.8059 3.77862 -1.6521 0
M  V30 586 H 57.1469 0.469152 -0.469885 0
M  V30 587 H 59.6769 0.935019 -1.81985 0
M  V30 588 H 59.6869 3.31783 -2.37453 0
M  V30 589 H 58.3619 2.58144 -3.2609 0
M  V30 590 H 56.9389 3.36555 -1.60578 0
M  V30 591 N 59.124 1.23083 0.984299 0
M  V30 592 C 60.087 1.00979 2.05757 0
M  V30 593 C 61.087 -0.0269573 1.60777 0
M  V30 594 O 62.277 0.212403 1.729 0
M  V30 595 C 59.409 0.527072 3.36801 0
M  V30 596 H 60.602 1.9622 2.26799 0
M  V30 597 H 58.155 1.05072 1.15714 0
M  V30 598 H 58.89 -0.429294 3.21446 0
M  V30 599 H 58.675 1.27515 3.70786 0
M  V30 600 H 60.165 0.392942 4.15747 0
M  V30 601 N 60.6021 -1.18246 1.0419 0
M  V30 602 C 61.8791 -1.84121 0.660208 0
M  V30 603 C 62.2591 -1.92778 -0.860221 0
M  V30 604 O 61.6071 -1.45464 -1.76217 0
M  V30 605 C 61.8171 -3.22355 1.33747 0
M  V30 606 C 63.1651 -3.98376 1.46906 0
M  V30 607 O 64.1891 -3.31799 1.29568 0
M  V30 608 O 63.0481 -5.17665 1.75171 0
M  V30 609 H 60.1421 -0.794036 0.231161 0
M  V30 610 H 62.6881 -1.25628 1.14087 0
M  V30 611 H 61.4601 -3.10964 2.37522 0
M  V30 612 H 61.0831 -3.88506 0.845515 0
M  V30 613 N 62.0802 -0.821533 -1.34494 0
M  V30 614 C 62.9902 -0.244355 -2.33324 0
M  V30 615 C 64.0062 0.620527 -1.62559 0
M  V30 616 O 65.1822 0.528754 -1.94335 0
M  V30 617 C 62.2472 0.585368 -3.41723 0
M  V30 618 C 61.3082 -0.301752 -4.28238 0
M  V30 619 C 60.5412 0.488466 -5.3146 0
M  V30 620 O 60.7642 1.72186 -5.4379 0
M  V30 621 O 59.6982 -0.12848 -6.01763 0
M  V30 622 H 63.5242 -1.06231 -2.84515 0
M  V30 623 H 61.1092 -0.583645 -1.37528 0
M  V30 624 H 62.9912 1.05747 -4.07916 0
M  V30 625 H 61.6662 1.38068 -2.92778 0
M  V30 626 H 60.5732 -0.821315 -3.64973 0
M  V30 627 H 61.9062 -1.06138 -4.8062 0
M  V30 628 N 63.5583 1.46682 -0.576371 0
M  V30 629 C 64.5213 2.28707 0.150239 0
M  V30 630 C 65.5213 1.38035 0.824794 0
M  V30 631 O 66.7113 1.60476 0.677719 0
M  V30 632 C 63.8433 3.18248 1.22192 0
M  V30 633 H 65.0363 2.94423 -0.570521 0
M  V30 634 H 62.5893 1.52688 -0.334078 0
M  V30 635 H 63.3243 2.57265 1.97447 0
M  V30 636 H 63.1093 3.85 0.742812 0
M  V30 637 H 64.5993 3.80001 1.73172 0
M  V30 638 N 65.0364 0.313813 1.54444 0
M  V30 639 C 66.2844 -0.291099 1.99993 0
M  V30 640 C 66.6054 -1.53418 1.20366 0
M  V30 641 O 65.8754 -1.93544 0.302927 0
M  V30 642 H 64.4554 -0.110552 0.738774 0
M  V30 643 H 67.1174 0.428106 1.9014 0
M  V30 644 H 66.2134 -0.554268 3.07139 0
M  V30 645 N 66.5145 -1.57545 0.0417849 0
M  V30 646 C 67.4775 -2.09885 -0.92093 0
M  V30 647 C 68.4775 -1.01648 -1.24596 0
M  V30 648 O 69.6675 -1.27759 -1.1842 0
M  V30 649 C 66.7995 -2.57527 -2.23367 0
M  V30 650 H 67.9925 -2.96236 -0.467382 0
M  V30 651 H 65.5455 -1.5493 -0.206467 0
M  V30 652 H 66.2805 -1.74542 -2.73323 0
M  V30 653 H 66.0655 -3.36613 -2.01083 0
M  V30 654 H 67.5555 -2.98201 -2.92346 0
M  V30 655 N 67.9926 0.231505 -1.5589 0
M  V30 656 C 68.9246 1.31006 -1.8807 0
M  V30 657 C 69.9376 1.43539 -0.768145 0
M  V30 658 O 71.1266 1.44614 -1.04638 0
M  V30 659 C 68.2266 2.68688 -2.06543 0
M  V30 660 C 67.3996 2.78228 -3.37502 0
M  V30 661 C 66.4586 3.96857 -3.4553 0
M  V30 662 O 65.4846 3.85662 -4.18633 0
M  V30 663 N 66.6866 5.1072 -2.75944 0
M  V30 664 H 69.4516 1.03731 -2.81176 0
M  V30 665 H 67.0126 0.421573 -1.56315 0
M  V30 666 H 69.0046 3.46412 -2.09239 0
M  V30 667 H 67.5746 2.88605 -1.20109 0
M  V30 668 H 66.7946 1.87059 -3.46991 0
M  V30 669 H 68.0826 2.81564 -4.23791 0
M  V30 670 H 67.4806 5.2271 -2.16311 0
M  V30 671 H 66.0376 5.86523 -2.84314 0
M  V30 672 N 69.4707 1.49531 0.497807 0
M  V30 673 C 70.4007 1.6935 1.60757 0
M  V30 674 C 71.3817 0.542218 1.61227 0
M  V30 675 O 72.5667 0.778417 1.77917 0
M  V30 676 C 69.6967 1.76298 2.99226 0
M  V30 677 C 68.6507 2.91248 3.13622 0
M  V30 678 C 67.9767 2.83312 4.53474 0
M  V30 679 C 69.2767 4.3214 2.93346 0
M  V30 680 H 70.9707 2.62263 1.44425 0
M  V30 681 H 68.5167 1.26208 0.693367 0
M  V30 682 H 70.4697 1.88749 3.76765 0
M  V30 683 H 69.1937 0.799871 3.16654 0
M  V30 684 H 67.8527 2.78404 2.38509 0
M  V30 685 H 67.5007 1.84902 4.67782 0
M  V30 686 H 67.2007 3.60465 4.64046 0
M  V30 687 H 68.7247 2.97775 5.33069 0
M  V30 688 H 70.1387 4.45649 3.60652 0
M  V30 689 H 68.5357 5.1054 3.15387 0
M  V30 690 H 69.6057 4.46363 1.89441 0
M  V30 691 N 70.9488 -0.749086 1.3866 0
M  V30 692 C 72.1958 -1.50833 1.35114 0
M  V30 693 C 72.5238 -1.94415 -0.0574049 0
M  V30 694 O 71.7788 -1.66065 -1.03541 0
M  V30 695 C 72.0778 -2.7712 2.25697 0
M  V30 696 C 71.7438 -2.52477 3.73585 0
M  V30 697 C 70.4058 -2.45466 4.13884 0
M  V30 698 C 72.7578 -2.31066 4.67181 0
M  V30 699 C 70.0858 -2.15064 5.45861 0
M  V30 700 C 72.4378 -2.02183 5.9942 0
M  V30 701 C 71.1018 -1.93631 6.38798 0
M  V30 702 H 70.3718 -0.551936 0.494416 0
M  V30 703 H 73.0188 -0.860979 1.71054 0
M  V30 704 H 71.3238 -3.46528 1.82827 0
M  V30 705 H 73.0208 -3.35096 2.20254 0
M  V30 706 H 69.6108 -2.58807 3.41638 0
M  V30 707 H 73.7948 -2.35459 4.3689 0
M  V30 708 H 69.0508 -2.06954 5.75308 0
M  V30 709 H 73.2248 -1.8462 6.71482 0
M  V30 710 H 70.8518 -1.69839 7.40985 0
M  V30 711 N 72.4269 -1.23603 -0.977757 0
M  V30 712 C 73.3899 -1.02069 -2.05218 0
M  V30 713 C 74.3899 0.0184305 -1.60789 0
M  V30 714 O 75.5799 -0.221569 -1.72785 0
M  V30 715 C 72.7119 -0.544926 -3.36517 0
M  V30 716 H 73.9049 -1.9742 -2.25755 0
M  V30 717 H 71.4579 -1.05684 -1.15155 0
M  V30 718 H 72.1929 0.412241 -3.21669 0
M  V30 719 H 71.9779 -1.2948 -3.70105 0
M  V30 720 H 73.4679 -0.414985 -4.15533 0
M  V30 721 N 73.905 1.17692 -1.04816 0
M  V30 722 C 74.837 2.21103 -0.603822 0
M  V30 723 C 75.85 1.59411 0.33046 0
M  V30 724 O 77.039 1.7807 0.12379 0
M  V30 725 C 74.139 3.38623 0.136898 0
M  V30 726 C 73.312 4.29888 -0.807137 0
M  V30 727 C 72.371 5.26088 -0.10836 0
M  V30 728 O 71.397 5.64353 -0.741232 0
M  V30 729 N 72.599 5.68882 1.15558 0
M  V30 730 H 75.364 2.59848 -1.49329 0
M  V30 731 H 72.925 1.32553 -0.929587 0
M  V30 732 H 74.917 4.00009 0.614401 0
M  V30 733 H 73.487 2.98508 0.927993 0
M  V30 734 H 72.707 3.65993 -1.46434 0
M  V30 735 H 73.995 4.87759 -1.44807 0
M  V30 736 H 73.393 5.39861 1.69015 0
M  V30 737 H 71.95 6.32429 1.57722 0
M  V30 738 N 75.3831 0.828654 1.34056 0
M  V30 739 C 76.6081 0.431637 2.02859 0
M  V30 740 C 77.0331 -0.956339 1.61975 0
M  V30 741 O 76.3911 -1.62338 0.807228 0
M  V30 742 C 76.4391 0.548323 3.56407 0
M  V30 743 O 75.5431 -0.429556 4.10157 0
M  V30 744 H 74.8841 0.176886 0.640006 0
M  V30 745 H 77.4141 1.12066 1.71179 0
M  V30 746 H 77.4241 0.426196 4.05768 0
M  V30 747 H 76.0991 1.5606 3.8551 0
M  V30 748 H 74.6761 -0.265836 3.71951 0
M  V30 749 N 76.8612 -1.46375 0.584142 0
M  V30 750 C 78.0912 -2.06461 0.0758195 0
M  V30 751 C 78.4992 -1.43322 -1.23512 0
M  V30 752 O 77.8422 -0.533216 -1.75791 0
M  V30 753 C 77.9042 -3.59131 -0.162773 0
M  V30 754 C 77.5682 -4.4447 1.06279 0
M  V30 755 C 78.5652 -4.80918 1.97519 0
M  V30 756 C 76.2502 -4.85584 1.28504 0
M  V30 757 C 78.2442 -5.57309 3.09331 0
M  V30 758 C 75.9312 -5.61734 2.4062 0
M  V30 759 C 76.9292 -5.9751 3.30863 0
M  V30 760 O 76.6172 -6.72121 4.41032 0
M  V30 761 H 76.3492 -0.673745 0.0551725 0
M  V30 762 H 78.9032 -1.88969 0.804984 0
M  V30 763 H 77.1332 -3.74936 -0.946565 0
M  V30 764 H 78.8222 -4.0114 -0.619782 0
M  V30 765 H 79.5882 -4.49732 1.81565 0
M  V30 766 H 75.4672 -4.57187 0.591702 0
M  V30 767 H 79.0112 -5.85152 3.79793 0
M  V30 768 H 74.9082 -5.92334 2.56537 0
M  V30 769 H 75.6762 -6.90547 4.39417 0
M  V30 770 N 78.3393 -0.321999 -1.54275 0
M  V30 771 C 79.2873 0.560206 -2.25753 0
M  V30 772 C 80.2813 1.11984 -1.27106 0
M  V30 773 O 81.4873 1.06806 -1.44888 0
M  V30 774 H 77.8623 0.199304 -0.725108 0
M  V30 775 H 79.8333 -0.0649365 -2.98329 0
M  V30 776 C 78.5823 1.71023 -3.02731 0
M  V30 777 H 77.9053 1.28885 -3.78456 0
M  V30 778 H 79.3453 2.30314 -3.55993 0
M  V30 779 C 77.8043 2.62692 -2.10938 0
M  V30 780 O 78.3343 3.64364 -1.6912 0
M  V30 781 N 76.5403 2.30891 -1.76459 0
M  V30 782 H 76.0873 1.48253 -2.10663 0
M  V30 783 H 76.0453 2.92487 -1.1532 0
M  V30 784 N 79.8174 1.5752 -0.0501392 0
M  V30 785 C 81.0424 1.97376 0.636997 0
M  V30 786 C 81.4674 0.927466 1.63645 0
M  V30 787 O 80.8254 -0.10941 1.8097 0
M  V30 788 C 80.8734 3.36304 1.30123 0
M  V30 789 O 79.9774 3.34156 2.41689 0
M  V30 790 H 79.3184 0.642998 0.165679 0
M  V30 791 H 81.8484 2.04258 -0.118233 0
M  V30 792 H 81.8584 3.73008 1.65315 0
M  V30 793 H 80.5334 4.11993 0.568746 0
M  V30 794 H 79.1104 3.09196 2.08451 0
M  V30 795 N 81.2955 -0.223234 1.56011 0
M  V30 796 C 82.5205 -0.968978 1.83373 0
M  V30 797 C 82.9455 -1.77227 0.630254 0
M  V30 798 O 82.3035 -1.76345 -0.420959 0
M  V30 799 C 82.3515 -1.86363 3.08709 0
M  V30 800 O 81.4555 -2.95873 2.87285 0
M  V30 801 H 80.7965 -0.274461 0.604622 0
M  V30 802 H 83.3265 -0.237056 2.03222 0
M  V30 803 H 83.3365 -2.27376 3.38768 0
M  V30 804 H 82.0115 -1.27319 3.95933 0
M  V30 805 H 80.5885 -2.58818 2.68454 0
M  V30 806 N 82.7736 -1.49793 -0.48987 0
M  V30 807 C 83.7366 -1.66752 -1.57246 0
M  V30 808 C 84.7366 -0.538867 -1.51502 0
M  V30 809 O 85.9266 -0.805545 -1.54456 0
M  V30 810 C 83.0586 -1.67528 -2.96896 0
M  V30 811 H 84.2516 -2.63321 -1.43534 0
M  V30 812 H 81.8046 -1.38992 -0.714914 0
M  V30 813 H 82.5396 -0.725837 -3.16073 0
M  V30 814 H 82.3246 -2.49504 -3.02473 0
M  V30 815 H 83.8146 -1.82667 -3.7553 0
M  V30 816 N 84.2517 0.741722 -1.39055 0
M  V30 817 C 85.1617 1.88621 -1.39496 0
M  V30 818 C 86.1777 1.71557 -0.290578 0
M  V30 819 O 87.3537 1.94275 -0.530954 0
M  V30 820 C 84.4187 3.24134 -1.23037 0
M  V30 821 C 83.4797 3.5364 -2.43387 0
M  V30 822 C 82.7127 4.82687 -2.27703 0
M  V30 823 O 82.9357 5.55922 -1.27696 0
M  V30 824 O 81.8697 5.1194 -3.16545 0
M  V30 825 H 85.6957 1.91203 -2.35956 0
M  V30 826 H 83.2807 0.888625 -1.20099 0
M  V30 827 H 85.1627 4.0513 -1.15964 0
M  V30 828 H 83.8377 3.22337 -0.296691 0
M  V30 829 H 82.7447 2.72758 -2.56035 0
M  V30 830 H 84.0777 3.60209 -3.35425 0
M  V30 831 N 85.7298 1.2412 0.971189 0
M  V30 832 C 86.6618 0.988349 2.06795 0
M  V30 833 C 87.6748 -0.0409541 1.62748 0
M  V30 834 O 88.8638 0.195673 1.77424 0
M  V30 835 C 85.9638 0.469023 3.35639 0
M  V30 836 C 85.1368 1.56065 4.08611 0
M  V30 837 C 84.1958 1.04458 5.15728 0
M  V30 838 O 83.2218 1.73553 5.42096 0
M  V30 839 N 84.4238 -0.122817 5.8037 0
M  V30 840 H 87.1888 1.93265 2.29061 0
M  V30 841 H 84.7498 1.15102 1.13856 0
M  V30 842 H 86.7418 0.108613 4.04554 0
M  V30 843 H 85.3118 -0.380919 3.1027 0
M  V30 844 H 84.5318 2.09341 3.34021 0
M  V30 845 H 85.8198 2.29449 4.54126 0
M  V30 846 H 85.2178 -0.700563 5.61345 0
M  V30 847 H 83.7748 -0.424404 6.50417 0
M  V30 848 N 87.2079 -1.17134 1.05439 0
M  V30 849 C 88.4539 -1.87733 0.767077 0
M  V30 850 C 88.7869 -1.8098 -0.704253 0
M  V30 851 O 88.0619 -1.21951 -1.5152 0
M  V30 852 C 88.3449 -3.37659 1.25133 0
M  V30 853 C 88.1979 -3.53149 2.78578 0
M  V30 854 C 89.5169 -4.31768 0.852324 0
M  V30 855 H 86.6359 -0.681687 0.280129 0
M  V30 856 H 89.2779 -1.37732 1.30881 0
M  V30 857 H 87.4279 -3.80373 0.790469 0
M  V30 858 H 89.0999 -3.19434 3.32806 0
M  V30 859 H 87.3429 -2.95345 3.17732 0
M  V30 860 H 88.0139 -4.58403 3.07523 0
M  V30 861 H 90.4899 -3.96909 1.24911 0
M  V30 862 H 89.3659 -5.35199 1.21873 0
M  V30 863 H 89.6269 -4.41429 -0.243485 0
M  V30 864 N 88.686 -0.835752 -1.33615 0
M  V30 865 C 89.616 -0.281739 -2.31794 0
M  V30 866 C 90.597 0.608833 -1.58831 0
M  V30 867 O 91.782 0.533035 -1.86741 0
M  V30 868 C 88.912 0.546612 -3.42971 0
M  V30 869 C 87.866 -0.247904 -4.27281 0
M  V30 870 C 87.192 0.704001 -5.30045 0
M  V30 871 C 88.492 -1.46324 -5.01385 0
M  V30 872 H 90.186 -1.10206 -2.78379 0
M  V30 873 H 87.732 -0.531388 -1.33837 0
M  V30 874 H 89.685 0.944467 -4.1068 0
M  V30 875 H 88.409 1.40011 -2.95067 0
M  V30 876 H 87.068 -0.627281 -3.61194 0
M  V30 877 H 86.716 1.55381 -4.78399 0
M  V30 878 H 86.416 0.176524 -5.87335 0
M  V30 879 H 87.94 1.09944 -6.0062 0
M  V30 880 H 89.354 -1.13871 -5.61877 0
M  V30 881 H 87.751 -1.92728 -5.6831 0
M  V30 882 H 88.821 -2.23467 -4.30338 0
M  V30 883 N 90.1641 1.46063 -0.591896 0
M  V30 884 C 91.4111 2.02338 -0.0809991 0
M  V30 885 C 91.7391 1.46228 1.28249 0
M  V30 886 O 90.9941 0.620818 1.85592 0
M  V30 887 C 91.2931 3.57391 0.0249813 0
M  V30 888 C 90.9591 4.32583 -1.27211 0
M  V30 889 C 89.6211 4.52844 -1.62745 0
M  V30 890 C 91.9731 4.75687 -2.13005 0
M  V30 891 C 89.3011 5.13462 -2.83855 0
M  V30 892 C 91.6531 5.37644 -3.3335 0
M  V30 893 C 90.3171 5.5613 -3.69155 0
M  V30 894 H 89.5871 0.740407 -0.0296397 0
M  V30 895 H 92.2341 1.75321 -0.770374 0
M  V30 896 H 90.5391 3.83597 0.797537 0
M  V30 897 H 92.2361 3.98621 0.436184 0
M  V30 898 H 88.8261 4.17116 -0.985499 0
M  V30 899 H 93.0101 4.59782 -1.86855 0
M  V30 900 H 88.2661 5.25965 -3.11722 0
M  V30 901 H 92.4401 5.7 -4.00092 0
M  V30 902 H 90.0671 6.0287 -4.63089 0
M  V30 903 N 91.6422 0.330177 1.54103 0
M  V30 904 C 92.5742 -0.566902 2.22079 0
M  V30 905 C 93.5872 -1.07462 1.22294 0
M  V30 906 O 94.7762 -0.987065 1.48726 0
M  V30 907 C 91.8762 -1.79138 2.87685 0
M  V30 908 C 91.0492 -1.42123 4.13666 0
M  V30 909 C 90.1082 -2.50394 4.62806 0
M  V30 910 O 89.1342 -2.14261 5.27334 0
M  V30 911 N 90.3362 -3.81433 4.37595 0
M  V30 912 H 93.1012 0.0151844 2.99696 0
M  V30 913 H 90.6622 0.153681 1.61169 0
M  V30 914 H 92.6542 -2.50975 3.1748 0
M  V30 915 H 91.2242 -2.28115 2.13734 0
M  V30 916 H 90.4442 -0.534201 3.90564 0
M  V30 917 H 91.7322 -1.14971 4.9564 0
M  V30 918 H 91.1302 -4.13584 3.8596 0
M  V30 919 H 89.6872 -4.4948 4.72029 0
M  V30 920 N 93.1203 -1.57491 0.0584922 0
M  V30 921 C 94.3453 -1.97711 -0.62652 0
M  V30 922 C 94.7703 -0.936132 -1.63151 0
M  V30 923 O 94.1283 0.099811 -1.81025 0
M  V30 924 C 94.1763 -3.36989 -1.28338 0
M  V30 925 O 93.2803 -3.35433 -2.39913 0
M  V30 926 H 92.6213 -0.643868 -0.162266 0
M  V30 927 H 95.1513 -2.04193 0.129064 0
M  V30 928 H 95.1613 -3.73879 -1.63335 0
M  V30 929 H 93.8363 -4.12289 -0.546889 0
M  V30 930 H 92.4133 -3.10298 -2.06809 0
M  V30 931 N 94.5984 0.214957 -1.56127 0
M  V30 932 C 95.8444 0.939762 -1.79712 0
M  V30 933 C 96.1774 1.83723 -0.629247 0
M  V30 934 O 95.4524 1.90925 0.371197 0
M  V30 935 C 95.7354 1.77306 -3.13424 0
M  V30 936 C 95.5884 0.90164 -4.40671 0
M  V30 937 C 96.9074 2.74956 -3.43638 0
M  V30 938 H 94.0264 0.340214 -0.653776 0
M  V30 939 H 96.6684 0.20824 -1.88855 0
M  V30 940 H 94.8184 2.39673 -3.0576 0
M  V30 941 H 96.4904 0.294206 -4.60361 0
M  V30 942 H 94.7334 0.207368 -4.33304 0
M  V30 943 H 95.4044 1.51923 -5.30682 0
M  V30 944 H 97.8804 2.22724 -3.51473 0
M  V30 945 H 96.7564 3.30358 -4.38355 0
M  V30 946 H 97.0174 3.53023 -2.66134 0
M  V30 947 N 96.0765 1.50051 0.48192 0
M  V30 948 C 97.0395 1.67584 1.5636 0
M  V30 949 C 98.0395 0.546894 1.51214 0
M  V30 950 O 99.2295 0.813725 1.54026 0
M  V30 951 C 96.3615 1.691 2.96003 0
M  V30 952 H 97.5545 2.64078 1.42136 0
M  V30 953 H 95.1075 1.39369 0.707533 0
M  V30 954 H 95.8425 0.742589 3.15684 0
M  V30 955 H 95.6275 2.51105 3.01146 0
M  V30 956 H 97.1175 1.84656 3.74556 0
M  V30 957 N 97.5546 -0.734337 1.39446 0
M  V30 958 C 98.5176 -1.83004 1.37994 0
M  V30 959 C 99.5176 -1.58397 0.276938 0
M  V30 960 O 100.708 -1.65785 0.534875 0
M  V30 961 C 97.8396 -3.20802 1.1532 0
M  V30 962 H 99.0326 -1.85694 2.35494 0
M  V30 963 H 96.5856 -0.938059 1.25021 0
M  V30 964 H 97.3206 -3.23772 0.185036 0
M  V30 965 H 97.1056 -3.4006 1.95197 0
M  V30 966 H 98.5956 -4.00862 1.17046 0
M  V30 967 N 99.0327 -1.24633 -0.964593 0
M  V30 968 C 100.258 -1.11596 -1.74818 0
M  V30 969 C 100.683 0.32723 -1.85232 0
M  V30 970 O 100.041 1.23695 -1.32549 0
M  V30 971 C 100.089 -1.76397 -3.1451 0
M  V30 972 O 99.1927 -1.03685 -3.99153 0
M  V30 973 H 98.5337 -0.390196 -0.537255 0
M  V30 974 H 101.064 -1.65002 -1.20977 0
M  V30 975 H 101.074 -1.8228 -3.65018 0
M  V30 976 H 99.7487 -2.81401 -3.06246 0
M  V30 977 H 98.3257 -1.05611 -3.57632 0
M  V30 978 N 100.511 1.16574 -1.06058 0
M  V30 979 C 101.757 1.87565 -0.78683 0
M  V30 980 C 102.112 1.80012 0.679214 0
M  V30 981 O 101.405 1.20327 1.49104 0
M  V30 982 C 101.599 3.36195 -1.21275 0
M  V30 983 C 101.428 3.58216 -2.71866 0
M  V30 984 C 100.198 3.7444 -3.39298 0
M  V30 985 C 102.396 3.57134 -3.70081 0
M  V30 986 N 100.378 3.84389 -4.78663 0
M  V30 987 C 101.749 3.73038 -4.9522 0
M  V30 988 C 103.804 3.40332 -3.63426 0
M  V30 989 C 102.507 3.73879 -6.14497 0
M  V30 990 C 104.533 3.42466 -4.82153 0
M  V30 991 C 103.895 3.58887 -6.06118 0
M  V30 992 H 99.9938 0.704081 -0.340284 0
M  V30 993 H 102.578 1.39885 -1.35426 0
M  V30 994 H 100.749 3.82522 -0.673179 0
M  V30 995 H 102.481 3.94839 -0.887917 0
M  V30 996 H 99.2358 3.74662 -2.89699 0
M  V30 997 H 99.6598 3.93138 -5.51155 0
M  V30 998 H 104.302 3.26566 -2.68541 0
M  V30 999 H 102.02 3.86427 -7.09718 0
M  V30 1000 H 105.606 3.30712 -4.78666 0
M  V30 1001 H 104.486 3.60454 -6.9645 0
M  V30 1002 N 101.989 0.842826 1.3317 0
M  V30 1003 C 102.952 0.284065 2.27433 0
M  V30 1004 C 103.952 -0.54948 1.5112 0
M  V30 1005 O 105.142 -0.362699 1.70382 0
M  V30 1006 C 102.274 -0.599384 3.35589 0
M  V30 1007 H 103.467 1.11589 2.78366 0
M  V30 1008 H 101.02 0.616221 1.4364 0
M  V30 1009 H 101.755 -1.45349 2.89904 0
M  V30 1010 H 101.54 -0.00291266 3.921 0
M  V30 1011 H 103.03 -0.983488 4.05854 0
M  V30 1012 N 103.467 -1.45747 0.599634 0
M  V30 1013 C 104.417 -2.27538 -0.145107 0
M  V30 1014 C 105.401 -1.3686 -0.846055 0
M  V30 1015 O 106.593 -1.6091 -0.737357 0
M  V30 1016 C 103.722 -3.23569 -1.14708 0
M  V30 1017 C 102.808 -4.21734 -0.447383 0
M  V30 1018 N 103.199 -5.03257 0.506535 0
M  V30 1019 C 101.497 -4.40536 -0.695966 0
M  V30 1020 C 102.198 -5.74426 0.917068 0
M  V30 1021 N 101.174 -5.42966 0.26253 0
M  V30 1022 H 104.976 -2.87965 0.587672 0
M  V30 1023 H 102.49 -1.56803 0.422697 0
M  V30 1024 H 104.487 -3.8089 -1.69495 0
M  V30 1025 H 103.147 -2.64702 -1.8805 0
M  V30 1026 H 104.158 -5.10319 0.882899 0
M  V30 1027 H 100.835 -3.92802 -1.41467 0
M  V30 1028 H 102.225 -6.4995 1.70338 0
M  V30 1029 N 104.945 -0.338344 -1.53925 0
M  V30 1030 C 106.222 0.314774 -1.93051 0
M  V30 1031 C 106.602 1.68669 -1.26941 0
M  V30 1032 O 105.95 2.24636 -0.418445 0
M  V30 1033 C 106.16 0.392249 -3.46789 0
M  V30 1034 C 107.508 0.645554 -4.19664 0
M  V30 1035 O 108.532 0.474575 -3.53024 0
M  V30 1036 O 107.391 0.976408 -5.37707 0
M  V30 1037 H 104.485 0.182598 -0.80659 0
M  V30 1038 H 107.031 -0.389141 -1.65178 0
M  V30 1039 H 105.803 -0.570702 -3.87116 0
M  V30 1040 H 105.426 1.14316 -3.80812 0
M  V30 1041 N 106.423 1.57458 -0.0668435 0
M  V30 1042 C 107.651 1.97624 0.612565 0
M  V30 1043 C 108.066 0.94502 1.63447 0
M  V30 1044 O 107.423 -0.0689276 1.8237 0
M  V30 1045 C 107.474 3.37869 1.28555 0
M  V30 1046 O 107.195 4.3704 0.304557 0
M  V30 1047 C 108.696 3.92882 2.05325 0
M  V30 1048 H 105.916 0.650045 0.166381 0
M  V30 1049 H 108.46 2.04035 -0.137782 0
M  V30 1050 H 106.615 3.3256 1.98702 0
M  V30 1051 H 107.029 5.18565 0.786779 0
M  V30 1052 H 108.503 4.93247 2.47812 0
M  V30 1053 H 108.98 3.29156 2.9078 0
M  V30 1054 H 109.586 4.01577 1.40056 0
M  V30 1055 N 107.901 -0.206675 1.56239 0
M  V30 1056 C 108.849 -1.27571 1.94495 0
M  V30 1057 C 109.843 -1.47737 0.828862 0
M  V30 1058 O 111.049 -1.48735 1.0138 0
M  V30 1059 H 107.424 -0.428029 0.6183 0
M  V30 1060 H 109.395 -0.925961 2.8367 0
M  V30 1061 C 108.144 -2.61568 2.29079 0
M  V30 1062 H 107.467 -2.46863 3.14482 0
M  V30 1063 H 108.907 -3.35144 2.5972 0
M  V30 1064 C 107.366 -3.17695 1.12123 0
M  V30 1065 O 107.896 -3.99801 0.390153 0
M  V30 1066 N 106.102 -2.76276 0.901097 0
M  V30 1067 H 105.649 -2.09613 1.49733 0
M  V30 1068 H 105.607 -3.1417 0.120319 0
M  V30 1069 N 109.379 -1.50304 -0.473955 0
M  V30 1070 C 110.628 -1.60392 -1.22301 0
M  V30 1071 C 110.941 -0.308411 -1.93153 0
M  V30 1072 O 112.147 -0.288156 -2.69966 0
M  V30 1073 C 110.603 -2.83109 -2.2221 0
M  V30 1074 C 110.211 -4.19524 -1.57173 0
M  V30 1075 C 111.955 -3.0254 -2.97775 0
M  V30 1076 C 109.862 -5.33431 -2.55353 0
M  V30 1077 H 108.792 -0.597286 -0.460179 0
M  V30 1078 H 111.443 -1.76731 -0.493803 0
M  V30 1079 H 109.825 -2.60322 -2.9841 0
M  V30 1080 H 110.999 -4.52554 -0.867824 0
M  V30 1081 H 109.314 -4.05674 -0.939002 0
M  V30 1082 H 111.911 -3.84811 -3.71248 0
M  V30 1083 H 112.254 -2.14154 -3.56992 0
M  V30 1084 H 112.787 -3.25494 -2.28688 0
M  V30 1085 H 109.526 -6.23962 -2.00878 0
M  V30 1086 H 109.046 -5.04823 -3.23904 0
M  V30 1087 H 110.725 -5.63887 -3.17239 0
M  V30 1088 N 110.857 0.726932 -1.39834 0
M  V30 1089 C 112.085 1.51613 -1.40787 0
M  V30 1090 C 112.5 1.88799 -0.00451505 0
M  V30 1091 O 111.857 1.54662 0.968809 0
M  V30 1092 C 111.908 2.79863 -2.28821 0
M  V30 1093 O 111.629 2.44253 -3.63692 0
M  V30 1094 C 113.13 3.73837 -2.38245 0
M  V30 1095 H 110.35 0.468264 -0.480593 0
M  V30 1096 H 112.894 0.897607 -1.83748 0
M  V30 1097 H 111.049 3.38027 -1.89252 0
M  V30 1098 H 111.463 3.26695 -4.1033 0
M  V30 1099 H 112.937 4.60699 -3.04073 0
M  V30 1100 H 113.414 4.16153 -1.40403 0
M  V30 1101 H 114.02 3.21589 -2.78317 0
M  V30 1102 N 112.336 1.25143 0.95797 0
M  V30 1103 C 113.299 1.05321 2.03569 0
M  V30 1104 C 114.299 0.007152 1.60798 0
M  V30 1105 O 115.489 0.24903 1.72411 0
M  V30 1106 C 112.621 0.598394 3.35607 0
M  V30 1107 H 113.814 2.00986 2.22586 0
M  V30 1108 H 111.367 1.07502 1.13459 0
M  V30 1109 H 112.102 -0.361014 3.22284 0
M  V30 1110 H 111.887 1.35351 3.67998 0
M  V30 1111 H 113.377 0.48104 4.1482 0
M  V30 1112 N 113.814 -1.1601 1.06675 0
M  V30 1113 C 114.724 -2.24156 0.692179 0
M  V30 1114 C 115.74 -1.71507 -0.293513 0
M  V30 1115 O 116.916 -2.009 -0.141861 0
M  V30 1116 C 113.981 -3.46587 0.0884131 0
M  V30 1117 C 113.042 -4.14257 1.12646 0
M  V30 1118 C 112.275 -5.30844 0.551416 0
M  V30 1119 O 112.498 -5.66858 -0.634656 0
M  V30 1120 O 111.432 -5.87848 1.29298 0
M  V30 1121 H 115.258 -2.58513 1.59388 0
M  V30 1122 H 112.843 -1.23599 0.83926 0
M  V30 1123 H 114.725 -4.20679 -0.246361 0
M  V30 1124 H 113.4 -3.13994 -0.786712 0
M  V30 1125 H 112.307 -3.42118 1.51348 0
M  V30 1126 H 113.64 -4.50914 1.97325 0
M  V30 1127 N 115.292 -0.849877 -1.32721 0
M  V30 1128 C 116.24 -0.279745 -2.30912 0
M  V30 1129 C 117.234 0.594278 -1.58634 0
M  V30 1130 O 118.44 0.482613 -1.73409 0
M  V30 1131 H 114.815 -0.0717521 -0.748569 0
M  V30 1132 H 116.786 -1.12222 -2.76494 0
M  V30 1133 C 115.535 0.521108 -3.43773 0
M  V30 1134 H 114.858 -0.142141 -3.99547 0
M  V30 1135 H 116.298 0.885693 -4.14646 0
M  V30 1136 C 114.757 1.70442 -2.90605 0
M  V30 1137 O 115.287 2.8034 -2.87702 0
M  V30 1138 N 113.493 1.52991 -2.47067 0
M  V30 1139 H 113.04 0.635914 -2.49628 0
M  V30 1140 H 112.998 2.32311 -2.11847 0
M  V30 1141 N 116.77 1.45427 -0.607355 0
M  V30 1142 C 117.733 2.28974 0.101693 0
M  V30 1143 C 118.733 1.39754 0.795329 0
M  V30 1144 O 119.923 1.61878 0.643527 0
M  V30 1145 C 117.055 3.20768 1.15414 0
M  V30 1146 H 118.248 2.93147 -0.632844 0
M  V30 1147 H 115.801 1.51945 -0.366391 0
M  V30 1148 H 116.536 2.61395 1.91945 0
M  V30 1149 H 116.321 3.86489 0.66098 0
M  V30 1150 H 117.811 3.83589 1.65073 0
M  V30 1151 N 118.248 0.346503 1.53744 0
M  V30 1152 C 119.664 -0.00530975 1.59599 0
M  V30 1153 C 119.864 -1.48465 1.36236 0
M  V30 1154 O 118.92 -2.24376 1.15808 0
M  V30 1155 C 120.233 0.433516 2.97559 0
M  V30 1156 C 121.781 0.386111 3.10609 0
M  V30 1157 C 122.256 0.800451 4.50951 0
M  V30 1158 N 123.747 0.754753 4.5701 0
M  V30 1159 C 124.482 1.04727 5.63755 0
M  V30 1160 N 123.978 1.4081 6.7834 0
M  V30 1161 N 125.771 0.971316 5.53644 0
M  V30 1162 H 117.922 1.31009 1.67184 0
M  V30 1163 H 120.185 0.534242 0.783128 0
M  V30 1164 H 119.891 1.46509 3.19731 0
M  V30 1165 H 119.765 -0.189753 3.76722 0
M  V30 1166 H 122.152 -0.636295 2.88158 0
M  V30 1167 H 122.233 1.04462 2.33498 0
M  V30 1168 H 121.877 1.82088 4.74137 0
M  V30 1169 H 121.807 0.119386 5.26465 0
M  V30 1170 H 124.298 0.488662 3.74727 0
M  V30 1171 H 124.611 1.61607 7.55714 0
M  V30 1172 H 122.956 1.44657 6.79779 0
M  V30 1173 H 126.147 0.688748 4.63005 0
M  V30 1174 H 126.32 1.20263 6.36742 0
M  V30 1175 N 119.726 -1.57421 0.075193 0
M  V30 1176 C 121.142 -1.57099 -0.281444 0
M  V30 1177 C 121.342 -1.08486 -1.69803 0
M  V30 1178 O 120.398 -0.752279 -2.41033 0
M  V30 1179 C 121.711 -3.00571 -0.0880041 0
M  V30 1180 C 123.259 -3.12605 -0.157281 0
M  V30 1181 C 123.734 -4.57999 0.0079207 0
M  V30 1182 N 125.225 -4.63176 -0.0475725 0
M  V30 1183 C 125.96 -5.73373 0.0557876 0
M  V30 1184 N 125.456 -6.92473 0.21286 0
M  V30 1185 N 127.249 -5.621 -0.00152098 0
M  V30 1186 H 119.4 -1.87335 1.00098 0
M  V30 1187 H 121.663 -0.86377 0.390646 0
M  V30 1188 H 121.369 -3.40262 0.889629 0
M  V30 1189 H 121.243 -3.67754 -0.838875 0
M  V30 1190 H 123.63 -2.72798 -1.1254 0
M  V30 1191 H 123.711 -2.48053 0.62475 0
M  V30 1192 H 123.355 -4.98496 0.972824 0
M  V30 1193 H 123.285 -5.20586 -0.793556 0
M  V30 1194 H 125.776 -3.7753 -0.167244 0
M  V30 1195 H 126.089 -7.72279 0.283781 0
M  V30 1196 H 124.434 -6.94556 0.248267 0
M  V30 1197 H 127.625 -4.67938 -0.122958 0
M  V30 1198 H 127.798 -6.47948 0.0824844 0
M  V30 1199 N 121.204 0.198386 -1.56346 0
M  V30 1200 C 122.136 1.26987 -1.90806 0
M  V30 1201 C 123.149 1.41877 -0.798419 0
M  V30 1202 O 124.338 1.42362 -1.07682 0
M  V30 1203 C 121.438 2.64246 -2.12196 0
M  V30 1204 C 120.611 2.71007 -3.43328 0
M  V30 1205 C 119.67 3.89439 -3.5387 0
M  V30 1206 O 118.696 3.76695 -4.26719 0
M  V30 1207 N 119.898 5.04752 -2.86715 0
M  V30 1208 H 122.663 0.977433 -2.83313 0
M  V30 1209 H 120.224 0.388322 -1.57174 0
M  V30 1210 H 122.216 3.41896 -2.1654 0
M  V30 1211 H 120.786 2.85992 -1.26204 0
M  V30 1212 H 120.006 1.79657 -3.50881 0
M  V30 1213 H 121.294 2.72512 -4.29668 0
M  V30 1214 H 120.692 5.18004 -2.2735 0
M  V30 1215 H 119.249 5.8036 -2.96691 0
M  V30 1216 N 122.682 1.50554 0.465978 0
M  V30 1217 C 123.592 1.72585 1.58907 0
M  V30 1218 C 124.608 0.60911 1.6299 0
M  V30 1219 O 125.784 0.88804 1.80765 0
M  V30 1220 C 122.849 1.81995 2.95091 0
M  V30 1221 C 121.91 3.05751 3.01355 0
M  V30 1222 C 121.143 3.14702 4.31043 0
M  V30 1223 O 121.366 2.30313 5.21835 0
M  V30 1224 O 120.3 4.07468 4.43005 0
M  V30 1225 H 124.126 2.67799 1.43239 0
M  V30 1226 H 121.711 1.34711 0.646013 0
M  V30 1227 H 123.593 1.90335 3.75966 0
M  V30 1228 H 122.268 0.899659 3.10947 0
M  V30 1229 H 121.175 3.02908 2.19539 0
M  V30 1230 H 122.508 3.97375 2.90437 0
M  V30 1231 N 124.16 -0.719506 1.40217 0
M  V30 1232 C 125.07 -1.86378 1.42479 0
M  V30 1233 C 126.086 -1.71073 0.317834 0
M  V30 1234 O 127.262 -1.93406 0.561794 0
M  V30 1235 C 124.327 -3.22136 1.28178 0
M  V30 1236 C 123.388 -3.49723 2.48982 0
M  V30 1237 C 122.621 -4.79004 2.35353 0
M  V30 1238 O 122.844 -5.53821 1.36524 0
M  V30 1239 O 121.778 -5.06839 3.2465 0
M  V30 1240 H 125.604 -1.87425 2.38968 0
M  V30 1241 H 123.189 -0.869405 1.21498 0
M  V30 1242 H 125.071 -4.03234 1.22395 0
M  V30 1243 H 123.746 -3.21825 0.347934 0
M  V30 1244 H 122.653 -2.6865 2.60342 0
M  V30 1245 H 123.986 -3.54828 3.41113 0
M  V30 1246 N 125.638 -1.25649 -0.95132 0
M  V30 1247 C 126.601 -1.06399 -2.03007 0
M  V30 1248 C 127.601 -0.0156794 -1.60792 0
M  V30 1249 O 128.791 -0.25817 -1.72276 0
M  V30 1250 C 125.923 -0.616184 -3.35285 0
M  V30 1251 H 127.116 -2.02164 -2.21517 0
M  V30 1252 H 124.669 -1.08103 -1.12887 0
M  V30 1253 H 125.404 0.343917 -3.22471 0
M  V30 1254 H 125.189 -1.37301 -3.67275 0
M  V30 1255 H 126.679 -0.503032 -4.14559 0
M  V30 1256 N 127.117 1.15442 -1.07289 0
M  V30 1257 C 128.08 2.18358 -0.696591 0
M  V30 1258 C 129.08 1.58637 0.262837 0
M  V30 1259 O 130.27 1.74145 0.0438809 0
M  V30 1260 C 127.402 3.4089 -0.0266151 0
M  V30 1261 H 128.595 2.53162 -1.60776 0
M  V30 1262 H 126.148 1.29893 -0.869342 0
M  V30 1263 H 126.883 3.11653 0.896822 0
M  V30 1264 H 126.668 3.85495 -0.716657 0
M  V30 1265 H 128.158 4.17009 0.222028 0
M  V30 1266 N 128.595 0.856903 1.32268 0
M  V30 1267 C 129.525 0.31858 2.31316 0
M  V30 1268 C 130.506 -0.583487 1.59779 0
M  V30 1269 O 131.691 -0.503259 1.87566 0
M  V30 1270 C 128.821 -0.491979 3.43798 0
M  V30 1271 C 127.775 0.315849 4.26833 0
M  V30 1272 C 127.101 -0.619586 5.31098 0
M  V30 1273 C 128.401 1.54282 4.98993 0
M  V30 1274 H 130.095 1.14621 2.76591 0
M  V30 1275 H 127.641 0.552613 1.32974 0
M  V30 1276 H 129.594 -0.879012 4.1213 0
M  V30 1277 H 128.318 -1.35299 2.97257 0
M  V30 1278 H 126.977 0.684664 3.6015 0
M  V30 1279 H 126.625 -1.47751 4.8081 0
M  V30 1280 H 126.325 -0.0830621 5.87541 0
M  V30 1281 H 127.849 -1.00375 6.02293 0
M  V30 1282 H 129.263 1.22796 5.59995 0
M  V30 1283 H 127.66 2.01745 5.65172 0
M  V30 1284 H 128.73 2.30285 4.26728 0
M  V30 1285 N 130.073 -1.45103 0.615059 0
M  V30 1286 C 131.003 -2.33339 -0.0865619 0
M  V30 1287 C 131.984 -1.4727 -0.851209 0
M  V30 1288 O 133.169 -1.76026 -0.820281 0
M  V30 1289 C 130.299 -3.30095 -1.07956 0
M  V30 1290 C 129.253 -4.25858 -0.427628 0
M  V30 1291 C 128.579 -5.12361 -1.5294 0
M  V30 1292 C 129.879 -5.18165 0.655944 0
M  V30 1293 H 131.573 -2.92254 0.650224 0
M  V30 1294 H 129.119 -1.40532 0.314138 0
M  V30 1295 H 131.072 -3.90698 -1.57901 0
M  V30 1296 H 129.796 -2.69355 -1.84703 0
M  V30 1297 H 128.455 -3.66564 0.0510292 0
M  V30 1298 H 128.103 -4.47984 -2.28734 0
M  V30 1299 H 127.803 -5.77238 -1.09865 0
M  V30 1300 H 129.327 -5.75833 -2.03098 0
M  V30 1301 H 130.741 -5.72796 0.240257 0
M  V30 1302 H 129.138 -5.91559 1.00888 0
M  V30 1303 H 130.208 -4.60144 1.52957 0
M  V30 1304 N 131.551 -0.354651 -1.53558 0
M  V30 1305 C 132.776 0.242153 -2.05981 0
M  V30 1306 C 133.201 1.42553 -1.2272 0
M  V30 1307 O 132.559 1.79656 -0.243604 0
M  V30 1308 C 132.607 0.624367 -3.55154 0
M  V30 1309 O 131.711 1.72301 -3.74681 0
M  V30 1310 H 131.052 0.0378432 -0.662921 0
M  V30 1311 H 133.582 -0.512087 -1.98088 0
M  V30 1312 H 133.592 0.898433 -3.97985 0
M  V30 1313 H 132.267 -0.240989 -4.15201 0
M  V30 1314 H 130.844 1.44535 -3.4375 0
M  V30 1315 N 133.029 1.57378 -0.0835403 0
M  V30 1316 C 133.961 2.10389 0.909338 0
M  V30 1317 C 134.974 1.03858 1.25369 0
M  V30 1318 O 136.163 1.31338 1.20882 0
M  V30 1319 C 133.263 2.55908 2.2218 0
M  V30 1320 C 132.436 3.86145 2.05453 0
M  V30 1321 C 131.495 4.17633 3.20108 0
M  V30 1322 O 130.521 4.87043 2.94581 0
M  V30 1323 N 131.723 3.72113 4.45547 0
M  V30 1324 H 134.488 2.962 0.456657 0
M  V30 1325 H 132.049 1.61579 0.101877 0
M  V30 1326 H 134.041 2.74027 2.97811 0
M  V30 1327 H 132.611 1.75171 2.58909 0
M  V30 1328 H 131.831 3.7729 1.1422 0
M  V30 1329 H 133.119 4.7137 1.91541 0
M  V30 1330 H 132.517 3.16062 4.69171 0
M  V30 1331 H 131.074 3.95409 5.18165 0
M  V30 1332 N 134.507 -0.190092 1.56449 0
M  V30 1333 C 135.417 -1.25591 1.98152 0
M  V30 1334 C 136.433 -1.49519 0.889944 0
M  V30 1335 O 137.609 -1.62036 1.19609 0
M  V30 1336 C 134.674 -2.57916 2.3169 0
M  V30 1337 C 133.735 -2.42015 3.5458 0
M  V30 1338 C 132.968 -3.6803 3.8651 0
M  V30 1339 O 133.191 -4.72413 3.1966 0
M  V30 1340 O 132.125 -3.6326 4.79923 0
M  V30 1341 H 135.951 -0.931988 2.89046 0
M  V30 1342 H 133.536 -0.395488 1.4407 0
M  V30 1343 H 135.418 -3.36008 2.54316 0
M  V30 1344 H 134.093 -2.89925 1.43963 0
M  V30 1345 H 133 -1.62017 3.37196 0
M  V30 1346 H 134.333 -2.14937 4.4279 0
M  V30 1347 N 135.985 -1.50799 -0.457987 0
M  V30 1348 C 137.232 -1.62442 -1.20908 0
M  V30 1349 C 137.56 -0.330865 -1.91665 0
M  V30 1350 O 136.815 0.68401 -1.83357 0
M  V30 1351 C 137.114 -2.76358 -2.2663 0
M  V30 1352 C 136.78 -4.16378 -1.73033 0
M  V30 1353 C 135.442 -4.54473 -1.58138 0
M  V30 1354 C 137.794 -5.03836 -1.33413 0
M  V30 1355 C 135.122 -5.77754 -1.02065 0
M  V30 1356 C 137.474 -6.27676 -0.78778 0
M  V30 1357 C 136.138 -6.64562 -0.625561 0
M  V30 1358 H 135.408 -0.594417 -0.442435 0
M  V30 1359 H 138.055 -1.84772 -0.503136 0
M  V30 1360 H 136.36 -2.48167 -3.03184 0
M  V30 1361 H 138.057 -2.82568 -2.84528 0
M  V30 1362 H 134.647 -3.86331 -1.85598 0
M  V30 1363 H 138.831 -4.75026 -1.4375 0
M  V30 1364 H 134.087 -6.04997 -0.882547 0
M  V30 1365 H 138.261 -6.94797 -0.472177 0
M  V30 1366 H 135.888 -7.59965 -0.188926 0
M  V30 1367 N 137.463 0.71206 -1.40597 0
M  V30 1368 C 138.426 1.80785 -1.40888 0
M  V30 1369 C 139.426 1.57937 -0.302103 0
M  V30 1370 O 140.616 1.64913 -0.561182 0
M  V30 1371 C 137.748 3.18927 -1.20409 0
M  V30 1372 H 138.941 1.81924 -2.38419 0
M  V30 1373 H 136.494 0.91805 -1.26497 0
M  V30 1374 H 137.229 3.23436 -0.236522 0
M  V30 1375 H 137.014 3.36911 -2.00582 0
M  V30 1376 H 138.504 3.98949 -1.23408 0
M  V30 1377 N 138.941 1.26152 0.944643 0
M  V30 1378 C 139.851 1.09176 2.07648 0
M  V30 1379 C 140.867 0.0261935 1.7398 0
M  V30 1380 O 142.043 0.229208 2.00091 0
M  V30 1381 C 139.108 0.722915 3.39079 0
M  V30 1382 C 138.169 1.86752 3.86552 0
M  V30 1383 C 137.402 1.51617 5.11711 0
M  V30 1384 O 137.625 0.416331 5.68879 0
M  V30 1385 O 136.559 2.34975 5.54139 0
M  V30 1386 H 140.385 2.0412 2.24875 0
M  V30 1387 H 137.97 1.05182 1.061 0
M  V30 1388 H 139.852 0.529787 4.18056 0
M  V30 1389 H 138.527 -0.197159 3.23099 0
M  V30 1390 H 137.434 2.11558 3.08535 0
M  V30 1391 H 138.767 2.76719 4.07047 0
M  V30 1392 N 140.419 -1.14872 1.07899 0
M  V30 1393 C 141.382 -2.17986 0.708161 0
M  V30 1394 C 142.382 -1.58775 -0.25442 0
M  V30 1395 O 143.572 -1.74166 -0.034645 0
M  V30 1396 C 140.704 -3.40871 0.0446929 0
M  V30 1397 H 141.897 -2.52306 1.62116 0
M  V30 1398 H 139.45 -1.2943 0.876218 0
M  V30 1399 H 140.185 -3.12124 -0.880281 0
M  V30 1400 H 139.97 -3.8511 0.737091 0
M  V30 1401 H 141.46 -4.17121 -0.19991 0
M  V30 1402 N 141.898 -0.863906 -1.31812 0
M  V30 1403 C 143.144 -0.481841 -1.9761 0
M  V30 1404 C 143.499 0.954048 -1.6708 0
M  V30 1405 O 142.792 1.66182 -0.953624 0
M  V30 1406 C 142.986 -0.668547 -3.51091 0
M  V30 1407 C 142.815 -2.12103 -3.96538 0
M  V30 1408 C 141.585 -2.76141 -4.23171 0
M  V30 1409 C 143.783 -3.09265 -4.10925 0
M  V30 1410 N 141.765 -4.12205 -4.54929 0
M  V30 1411 C 143.136 -4.30341 -4.46326 0
M  V30 1412 C 145.191 -3.05337 -3.93286 0
M  V30 1413 C 143.894 -5.48 -4.65928 0
M  V30 1414 C 145.92 -4.22248 -4.14078 0
M  V30 1415 C 145.282 -5.42085 -4.49804 0
M  V30 1416 H 141.381 -0.225238 -0.74886 0
M  V30 1417 H 143.965 -1.11723 -1.59455 0
M  V30 1418 H 142.136 -0.0627898 -3.88349 0
M  V30 1419 H 143.868 -0.255467 -4.03893 0
M  V30 1420 H 140.623 -2.27125 -4.15585 0
M  V30 1421 H 141.047 -4.82416 -4.74978 0
M  V30 1422 H 145.689 -2.138 -3.64759 0
M  V30 1423 H 143.407 -6.40059 -4.93305 0
M  V30 1424 H 146.993 -4.20654 -4.01922 0
M  V30 1425 H 145.873 -6.31044 -4.65567 0
M  V30 1426 N 143.376 1.44774 -0.622745 0
M  V30 1427 C 144.624 2.01721 -0.123655 0
M  V30 1428 C 144.945 1.49172 1.25589 0
M  V30 1429 O 144.215 0.691974 1.83272 0
M  V30 1430 H 142.795 0.745777 -0.0427225 0
M  V30 1431 H 145.457 1.77382 -0.807559 0
M  V30 1432 H 144.553 3.11984 -0.0849534 0
M  V30 1433 N 144.854 0.36279 1.53368 0
M  V30 1434 C 145.786 -0.519668 2.23231 0
M  V30 1435 C 146.799 -1.04844 1.24546 0
M  V30 1436 O 147.988 -0.955296 1.50786 0
M  V30 1437 C 145.088 -1.72995 2.9142 0
M  V30 1438 C 144.261 -1.33316 4.16588 0
M  V30 1439 C 143.32 -2.40521 4.68013 0
M  V30 1440 O 142.346 -2.03027 5.3176 0
M  V30 1441 N 143.548 -3.72065 4.45587 0
M  V30 1442 H 146.313 0.078751 2.99597 0
M  V30 1443 H 143.874 0.187833 1.60807 0
M  V30 1444 H 145.866 -2.44184 3.22733 0
M  V30 1445 H 144.436 -2.2353 2.18525 0
M  V30 1446 H 143.656 -0.451236 3.91609 0
M  V30 1447 H 144.944 -1.04432 4.97967 0
M  V30 1448 H 144.342 -4.05304 3.94646 0
M  V30 1449 H 142.899 -4.39366 4.81457 0
M  V30 1450 N 146.332 -1.57332 0.0918853 0
M  V30 1451 C 147.279 -2.13847 -0.868211 0
M  V30 1452 C 148.249 -1.05618 -1.28196 0
M  V30 1453 O 149.434 -1.33387 -1.36427 0
M  V30 1454 C 146.574 -2.72062 -2.12312 0
M  V30 1455 C 145.687 -3.94514 -1.7602 0
M  V30 1456 C 144.822 -4.40903 -2.96273 0
M  V30 1457 C 143.861 -5.55953 -2.56092 0
M  V30 1458 N 142.998 -5.97209 -3.69169 0
M  V30 1459 H 147.838 -2.95575 -0.379406 0
M  V30 1460 H 145.375 -1.46048 -0.175606 0
M  V30 1461 H 147.333 -3.03931 -2.858 0
M  V30 1462 H 145.963 -1.93068 -2.58698 0
M  V30 1463 H 145.015 -3.68979 -0.925135 0
M  V30 1464 H 146.327 -4.7802 -1.42472 0
M  V30 1465 H 145.481 -4.74539 -3.78018 0
M  V30 1466 H 144.22 -3.56291 -3.33029 0
M  V30 1467 H 143.225 -5.21948 -1.72773 0
M  V30 1468 H 144.45 -6.42311 -2.20484 0
M  V30 1469 H 142.396 -5.15543 -4.05649 0
M  V30 1470 H 142.313 -6.75504 -3.39456 0
M  V30 1471 H 143.581 -6.35475 -4.51434 0
M  V30 1472 N 147.81 0.181792 -1.56548 0
M  V30 1473 C 148.773 1.20894 -1.94724 0
M  V30 1474 C 149.773 1.37738 -0.829747 0
M  V30 1475 O 150.963 1.35323 -1.09697 0
M  V30 1476 C 148.095 2.57593 -2.23291 0
M  V30 1477 H 149.288 0.882275 -2.86629 0
M  V30 1478 H 146.841 0.423838 -1.50444 0
M  V30 1479 H 147.576 2.95291 -1.34067 0
M  V30 1480 H 147.361 2.46735 -3.04736 0
M  V30 1481 H 148.851 3.31637 -2.53785 0
M  V30 1482 N 149.288 1.51039 0.449983 0
M  V30 1483 C 150.235 1.71439 1.54523 0
M  V30 1484 C 151.205 0.555871 1.56522 0
M  V30 1485 O 152.39 0.788871 1.73728 0
M  V30 1486 C 149.53 1.83384 2.92343 0
M  V30 1487 C 148.643 3.10873 2.9997 0
M  V30 1488 C 147.778 3.13488 4.28834 0
M  V30 1489 C 146.817 4.35343 4.30282 0
M  V30 1490 N 145.954 4.35579 5.5065 0
M  V30 1491 H 150.794 2.64934 1.36433 0
M  V30 1492 H 148.331 1.31312 0.662982 0
M  V30 1493 H 150.289 1.88291 3.72293 0
M  V30 1494 H 148.919 0.933086 3.0902 0
M  V30 1495 H 147.971 3.15336 2.12761 0
M  V30 1496 H 149.283 4.00814 2.96901 0
M  V30 1497 H 148.437 3.17241 5.17149 0
M  V30 1498 H 147.176 2.21414 4.34543 0
M  V30 1499 H 146.181 4.3178 3.40362 0
M  V30 1500 H 147.406 5.28668 4.26248 0
M  V30 1501 H 145.352 3.46369 5.57104 0
M  V30 1502 H 145.269 5.19313 5.49409 0
M  V30 1503 H 146.537 4.43507 6.41032 0
M  V30 1504 N 150.766 -0.704594 1.40972 0
M  V30 1505 C 151.676 -1.84856 1.44448 0
M  V30 1506 C 152.692 -1.70726 0.335961 0
M  V30 1507 O 153.868 -1.92799 0.582276 0
M  V30 1508 C 150.933 -3.20758 1.31587 0
M  V30 1509 C 149.994 -3.47063 2.52677 0
M  V30 1510 C 149.227 -4.76481 2.4042 0
M  V30 1511 O 149.45 -5.52341 1.42391 0
M  V30 1512 O 148.384 -5.03367 3.30007 0
M  V30 1513 H 152.21 -1.8488 2.40942 0
M  V30 1514 H 149.795 -0.85647 1.22413 0
M  V30 1515 H 151.677 -4.01913 1.26665 0
M  V30 1516 H 150.352 -3.21438 0.382049 0
M  V30 1517 H 149.259 -2.65873 2.63177 0
M  V30 1518 H 150.592 -3.5119 3.44858 0
M  V30 1519 N 152.244 -1.26651 -0.937939 0
M  V30 1520 C 153.174 -1.10993 -2.05433 0
M  V30 1521 C 154.155 -0.0142161 -1.70094 0
M  V30 1522 O 155.34 -0.186837 -1.93299 0
M  V30 1523 C 152.47 -0.745561 -3.39203 0
M  V30 1524 C 151.424 -1.79337 -3.88616 0
M  V30 1525 C 150.75 -1.28324 -5.19073 0
M  V30 1526 C 152.05 -3.19553 -4.13138 0
M  V30 1527 H 153.744 -2.0438 -2.1879 0
M  V30 1528 H 151.29 -0.984041 -1.05131 0
M  V30 1529 H 153.243 -0.622888 -4.16771 0
M  V30 1530 H 151.967 0.22401 -3.25831 0
M  V30 1531 H 150.626 -1.90477 -3.13231 0
M  V30 1532 H 150.274 -0.303414 -5.02084 0
M  V30 1533 H 149.974 -1.98369 -5.53103 0
M  V30 1534 H 151.498 -1.1733 -5.99221 0
M  V30 1535 H 152.912 -3.11471 -4.81309 0
M  V30 1536 H 151.309 -3.87218 -4.58457 0
M  V30 1537 H 152.379 -3.65368 -3.18801 0
M  V30 1538 N 153.722 1.14298 -1.08507 0
M  V30 1539 C 154.952 1.88945 -0.835663 0
M  V30 1540 C 155.36 1.78894 0.615928 0
M  V30 1541 O 154.703 1.1468 1.43506 0
M  V30 1542 C 154.765 3.39585 -1.17994 0
M  V30 1543 C 154.429 3.7342 -2.63451 0
M  V30 1544 C 155.426 3.73454 -3.61702 0
M  V30 1545 C 153.111 4.03368 -2.99332 0
M  V30 1546 C 155.105 4.02961 -4.93864 0
M  V30 1547 C 152.792 4.32538 -4.31687 0
M  V30 1548 C 153.79 4.32318 -5.28763 0
M  V30 1549 O 153.478 4.6078 -6.58739 0
M  V30 1550 H 153.21 0.605307 -0.300965 0
M  V30 1551 H 155.764 1.45673 -1.44806 0
M  V30 1552 H 153.994 3.83315 -0.51055 0
M  V30 1553 H 155.683 3.9554 -0.911182 0
M  V30 1554 H 156.449 3.50403 -3.35325 0
M  V30 1555 H 152.328 4.02692 -2.24411 0
M  V30 1556 H 155.872 4.02704 -5.69627 0
M  V30 1557 H 151.769 4.55059 -4.57812 0
M  V30 1558 H 152.537 4.78492 -6.64069 0
M  V30 1559 N 155.201 0.870884 1.31352 0
M  V30 1560 C 156.111 0.330783 2.32256 0
M  V30 1561 C 157.127 -0.559767 1.6475 0
M  V30 1562 O 158.303 -0.456263 1.96164 0
M  V30 1563 C 155.368 -0.458137 3.4366 0
M  V30 1564 C 154.429 0.460482 4.26823 0
M  V30 1565 C 153.662 -0.290881 5.32907 0
M  V30 1566 O 153.885 -1.51885 5.49806 0
M  V30 1567 O 152.819 0.351732 6.00871 0
M  V30 1568 H 156.645 1.16718 2.80376 0
M  V30 1569 H 154.23 0.634285 1.35267 0
M  V30 1570 H 156.112 -0.905343 4.1156 0
M  V30 1571 H 154.787 -1.27106 2.97701 0
M  V30 1572 H 153.694 0.956207 3.61673 0
M  V30 1573 H 155.027 1.23903 4.7635 0
M  V30 1574 N 156.679 -1.44442 0.630414 0
M  V30 1575 C 158.09 -1.85434 0.217063 0
M  V30 1576 C 158.441 -1.52748 -1.23136 0
M  V30 1577 O 157.566 -0.965205 -1.93682 0
M  V30 1578 C 158.161 -3.36581 0.387168 0
M  V30 1579 C 156.72 -3.76389 0.0283297 0
M  V30 1580 C 155.867 -2.68296 0.700889 0
M  V30 1581 H 158.818 -1.34919 0.83562 0
M  V30 1582 H 158.839 -3.78657 -0.374086 0
M  V30 1583 H 158.351 -3.60339 1.44144 0
M  V30 1584 H 156.452 -3.58246 -1.02423 0
M  V30 1585 H 156.565 -4.77095 0.437892 0
M  V30 1586 H 154.929 -2.54335 0.136267 0
M  V30 1587 H 155.712 -2.94887 1.75774 0
M  V30 1588 N 158.157 -0.370918 -1.53173 0
M  V30 1589 C 159.406 0.218249 -2.00516 0
M  V30 1590 C 159.719 1.49429 -1.26215 0
M  V30 1591 O 160.925 2.16239 -1.64174 0
M  V30 1592 C 159.381 0.43948 -3.57207 0
M  V30 1593 C 158.989 -0.822244 -4.4039 0
M  V30 1594 C 160.733 0.986012 -4.1289 0
M  V30 1595 C 158.64 -0.570304 -5.88644 0
M  V30 1596 H 157.57 0.0853333 -0.749156 0
M  V30 1597 H 160.221 -0.490483 -1.76823 0
M  V30 1598 H 158.603 1.20961 -3.77074 0
M  V30 1599 H 159.777 -1.59557 -4.32294 0
M  V30 1600 H 158.092 -1.29238 -3.95836 0
M  V30 1601 H 160.689 1.18991 -5.21292 0
M  V30 1602 H 161.032 1.94972 -3.6782 0
M  V30 1603 H 161.565 0.27592 -3.96842 0
M  V30 1604 H 158.304 -1.50449 -6.38001 0
M  V30 1605 H 157.824 0.164427 -5.99575 0
M  V30 1606 H 159.503 -0.19784 -6.46697 0
M  V30 1607 N 159.635 1.57281 -0.100228 0
M  V30 1608 C 160.881 1.95626 0.556946 0
M  V30 1609 C 161.236 0.981655 1.65473 0
M  V30 1610 O 160.529 0.00849847 1.91598 0
M  V30 1611 C 160.723 3.38305 1.15259 0
M  V30 1612 C 160.552 4.49555 0.114035 0
M  V30 1613 C 159.322 5.0434 -0.311266 0
M  V30 1614 C 161.52 5.10051 -0.659768 0
M  V30 1615 N 159.502 5.99152 -1.33755 0
M  V30 1616 C 160.873 6.00628 -1.53774 0
M  V30 1617 C 162.928 4.92772 -0.712723 0
M  V30 1618 C 161.631 6.7578 -2.46403 0
M  V30 1619 C 163.657 5.6859 -1.62663 0
M  V30 1620 C 163.019 6.58838 -2.49222 0
M  V30 1621 H 159.118 0.7624 0.173982 0
M  V30 1622 H 161.702 1.93829 -0.183988 0
M  V30 1623 H 159.873 3.40786 1.86332 0
M  V30 1624 H 161.605 3.63817 1.77254 0
M  V30 1625 H 158.36 4.73537 0.0774812 0
M  V30 1626 H 158.784 6.5126 -1.84905 0
M  V30 1627 H 163.426 4.22761 -0.0576648 0
M  V30 1628 H 161.144 7.4505 -3.12931 0
M  V30 1629 H 164.73 5.57233 -1.67281 0
M  V30 1630 H 163.61 7.16479 -3.18791 0
M  V30 1631 N 161.113 -0.173488 1.56642 0
M  V30 1632 C 162.045 -1.23935 1.92802 0
M  V30 1633 C 163.058 -1.40589 0.820889 0
M  V30 1634 O 164.247 -1.40631 1.09933 0
M  V30 1635 C 161.347 -2.60837 2.16373 0
M  V30 1636 C 160.52 -2.6551 3.47596 0
M  V30 1637 C 159.579 -3.8376 3.60021 0
M  V30 1638 O 158.605 -3.69859 4.32658 0
M  V30 1639 N 159.807 -5.00127 2.94709 0
M  V30 1640 H 162.572 -0.932236 2.84832 0
M  V30 1641 H 160.133 -0.363268 1.57772 0
M  V30 1642 H 162.125 -3.38407 2.21952 0
M  V30 1643 H 160.695 -2.83948 1.30738 0
M  V30 1644 H 159.915 -1.74052 3.53694 0
M  V30 1645 H 161.203 -2.65641 4.33949 0
M  V30 1646 H 160.601 -5.14322 2.35563 0
M  V30 1647 H 159.158 -5.75567 3.05886 0
M  V30 1648 N 162.591 -1.51276 -0.441967 0
M  V30 1649 C 163.539 -1.72823 -1.55676 0
M  V30 1650 C 164.533 -0.59445 -1.58627 0
M  V30 1651 O 165.739 -0.775715 -1.62427 0
M  V30 1652 H 162.114 -0.545983 -0.517113 0
M  V30 1653 H 164.085 -2.6628 -1.34675 0
M  V30 1654 C 162.834 -1.86619 -2.93375 0
M  V30 1655 H 162.157 -2.73264 -2.91834 0
M  V30 1656 H 163.597 -2.05709 -3.70756 0
M  V30 1657 C 162.056 -0.624842 -3.31055 0
M  V30 1658 O 162.586 0.222636 -4.01083 0
M  V30 1659 N 160.792 -0.470288 -2.86769 0
M  V30 1660 H 160.339 -1.161 -2.29953 0
M  V30 1661 H 160.297 0.359051 -3.12343 0
M  V30 1662 N 164.069 0.697108 -1.41344 0
M  V30 1663 C 165.316 1.45714 -1.40619 0
M  V30 1664 C 165.644 1.94494 -0.0147907 0
M  V30 1665 O 164.899 1.69794 0.973066 0
M  V30 1666 C 165.198 2.68553 -2.35826 0
M  V30 1667 C 164.864 2.38438 -3.82698 0
M  V30 1668 C 163.526 2.29936 -4.22709 0
M  V30 1669 C 165.878 2.13567 -4.75435 0
M  V30 1670 C 163.206 1.94656 -5.53467 0
M  V30 1671 C 165.558 1.79797 -6.06511 0
M  V30 1672 C 164.222 1.69789 -6.45545 0
M  V30 1673 H 163.492 0.533206 -0.51456 0
M  V30 1674 H 166.139 0.796901 -1.74131 0
M  V30 1675 H 164.444 3.39503 -1.95563 0
M  V30 1676 H 166.141 3.2669 -2.32539 0
M  V30 1677 H 162.731 2.4595 -3.51008 0
M  V30 1678 H 166.915 2.19082 -4.45328 0
M  V30 1679 H 162.171 1.8546 -5.82593 0
M  V30 1680 H 166.345 1.59572 -6.77872 0
M  V30 1681 H 163.972 1.4222 -7.46778 0
M  V30 1682 N 165.547 1.27147 0.931209 0
M  V30 1683 C 166.775 1.16082 1.71267 0
M  V30 1684 C 167.19 -0.282772 1.8667 0
M  V30 1685 O 166.547 -1.19283 1.38122 0
M  V30 1686 C 166.598 1.8358 3.11417 0
M  V30 1687 O 166.319 3.22299 2.96741 0
M  V30 1688 C 167.82 1.78597 4.05732 0
M  V30 1689 H 165.04 0.403758 0.535929 0
M  V30 1690 H 167.584 1.67953 1.16671 0
M  V30 1691 H 165.739 1.35623 3.62885 0
M  V30 1692 H 166.153 3.55851 3.85319 0
M  V30 1693 H 167.627 2.30444 5.01597 0
M  V30 1694 H 168.104 0.754564 4.3267 0
M  V30 1695 H 168.71 2.26152 3.60188 0
M  V30 1696 N 167.025 -1.13721 1.09112 0
M  V30 1697 C 168.302 -1.81155 0.737706 0
M  V30 1698 C 168.682 -1.96253 -0.777683 0
M  V30 1699 O 168.03 -1.52807 -1.69889 0
M  V30 1700 C 168.24 -3.16392 1.47299 0
M  V30 1701 C 169.588 -3.91787 1.63671 0
M  V30 1702 O 170.612 -3.26005 1.43524 0
M  V30 1703 O 169.471 -5.0977 1.96969 0
M  V30 1704 H 166.565 -0.783518 0.26463 0
M  V30 1705 H 169.111 -1.20676 1.19312 0
M  V30 1706 H 167.883 -3.0061 2.50498 0
M  V30 1707 H 167.506 -3.8457 1.00953 0
M  V30 1708 N 168.503 -0.877838 -1.30888 0
M  V30 1709 C 169.914 -0.544193 -1.78593 0
M  V30 1710 C 170.265 0.939301 -1.72254 0
M  V30 1711 O 169.39 1.7337 -1.29505 0
M  V30 1712 C 169.985 -0.98105 -3.24285 0
M  V30 1713 C 168.544 -0.698935 -3.69854 0
M  V30 1714 C 167.691 -1.168 -2.51502 0
M  V30 1715 H 170.642 -1.06278 -1.17859 0
M  V30 1716 H 170.663 -0.307009 -3.79259 0
M  V30 1717 H 170.175 -2.06079 -3.28866 0
M  V30 1718 H 168.276 0.369112 -3.70767 0
M  V30 1719 H 168.389 -1.28148 -4.61644 0
M  V30 1720 H 166.753 -0.587535 -2.47831 0
M  V30 1721 H 167.536 -2.25533 -2.58824 0
M  V30 1722 N 169.982 1.44106 -0.638065 0
M  V30 1723 C 170.914 2.28976 0.101205 0
M  V30 1724 C 171.927 1.4167 0.802088 0
M  V30 1725 O 173.116 1.65755 0.662375 0
M  V30 1726 C 170.216 3.18217 1.16581 0
M  V30 1727 C 169.389 4.33978 0.546066 0
M  V30 1728 C 168.448 5.04202 1.50554 0
M  V30 1729 O 167.474 5.59986 1.01999 0
M  V30 1730 N 168.676 5.06296 2.8398 0
M  V30 1731 H 171.441 2.93064 -0.627186 0
M  V30 1732 H 169.002 1.54629 -0.479731 0
M  V30 1733 H 170.994 3.62061 1.80815 0
M  V30 1734 H 169.564 2.55833 1.79634 0
M  V30 1735 H 168.784 3.93239 -0.275046 0
M  V30 1736 H 170.072 5.08675 0.112793 0
M  V30 1737 H 169.47 4.62319 3.26002 0
M  V30 1738 H 168.027 5.53907 3.43556 0
M  V30 1739 N 171.46 0.379036 1.52974 0
M  V30 1740 C 172.39 -0.452706 2.29069 0
M  V30 1741 C 173.371 -1.07237 1.32039 0
M  V30 1742 O 174.556 -1.08708 1.60923 0
M  V30 1743 C 171.686 -1.5856 3.08992 0
M  V30 1744 C 170.64 -1.0925 4.13822 0
M  V30 1745 C 169.966 -2.31668 4.81907 0
M  V30 1746 C 171.266 -0.167702 5.22031 0
M  V30 1747 H 172.96 0.182181 2.98845 0
M  V30 1748 H 170.506 0.0890592 1.43724 0
M  V30 1749 H 172.459 -2.1742 3.6098 0
M  V30 1750 H 171.183 -2.24792 2.36931 0
M  V30 1751 H 169.842 -0.526494 3.628 0
M  V30 1752 H 169.49 -2.96386 4.06404 0
M  V30 1753 H 169.19 -1.9934 5.52754 0
M  V30 1754 H 170.714 -2.91189 5.36695 0
M  V30 1755 H 172.128 -0.664186 5.6944 0
M  V30 1756 H 170.525 0.0653265 6.00064 0
M  V30 1757 H 171.595 0.786347 4.78482 0
M  V30 1758 N 172.938 -1.57226 0.108567 0
M  V30 1759 C 174.354 -1.5766 -0.248058 0
M  V30 1760 C 174.554 -1.12063 -1.67464 0
M  V30 1761 O 173.61 -0.803236 -2.39383 0
M  V30 1762 C 174.923 -3.0069 -0.0242287 0
M  V30 1763 C 176.471 -3.12868 -0.0909372 0
M  V30 1764 C 176.946 -4.57879 0.105067 0
M  V30 1765 N 178.437 -4.63172 0.0506846 0
M  V30 1766 C 179.172 -5.73126 0.177396 0
M  V30 1767 N 178.668 -6.91866 0.359696 0
M  V30 1768 N 180.461 -5.61977 0.117709 0
M  V30 1769 H 172.612 -1.85169 1.04049 0
M  V30 1770 H 174.875 -0.85529 0.40888 0
M  V30 1771 H 174.581 -3.38299 0.961604 0
M  V30 1772 H 174.455 -3.6945 -0.76068 0
M  V30 1773 H 176.842 -2.75124 -1.06729 0
M  V30 1774 H 176.923 -2.46672 0.677225 0
M  V30 1775 H 176.567 -4.96321 1.07834 0
M  V30 1776 H 176.497 -5.22153 -0.682954 0
M  V30 1777 H 178.988 -3.778 -0.0871266 0
M  V30 1778 H 179.301 -7.71503 0.447529 0
M  V30 1779 H 177.646 -6.93874 0.395536 0
M  V30 1780 H 180.837 -4.68094 -0.0236741 0
M  V30 1781 H 181.01 -6.47627 0.219905 0
M  V30 1782 N 174.416 0.165178 -1.56732 0
M  V30 1783 C 175.832 0.517174 -1.50988 0
M  V30 1784 C 176.032 1.84331 -0.813894 0
M  V30 1785 O 175.088 2.49672 -0.37682 0
M  V30 1786 C 176.401 0.544261 -2.95733 0
M  V30 1787 C 177.949 0.631039 -3.06573 0
M  V30 1788 C 178.424 0.68896 -4.52788 0
M  V30 1789 N 179.915 0.751683 -4.5706 0
M  V30 1790 C 180.65 0.817177 -5.67547 0
M  V30 1791 N 180.146 0.843129 -6.8765 0
M  V30 1792 N 181.939 0.856668 -5.55534 0
M  V30 1793 H 174.09 -0.704318 -2.00382 0
M  V30 1794 H 176.353 -0.254687 -0.913148 0
M  V30 1795 H 176.059 -0.361607 -3.49836 0
M  V30 1796 H 175.933 1.3886 -3.5071 0
M  V30 1797 H 178.32 1.52733 -2.52501 0
M  V30 1798 H 178.401 -0.240095 -2.54671 0
M  V30 1799 H 178.045 -0.2031 -5.07494 0
M  V30 1800 H 177.975 1.57633 -5.02454 0
M  V30 1801 H 180.466 0.739661 -3.70591 0
M  V30 1802 H 180.779 0.894448 -7.67606 0
M  V30 1803 H 179.124 0.811304 -6.90248 0
M  V30 1804 H 182.315 0.833437 -4.60621 0
M  V30 1805 H 182.488 0.904247 -6.4166 0
M  V30 1806 N 175.894 1.51508 0.433938 0
M  V30 1807 C 177.143 1.63578 1.18005 0
M  V30 1808 C 177.456 0.359514 1.92268 0
M  V30 1809 O 178.662 0.359632 2.69108 0
M  V30 1810 C 177.118 2.88901 2.14626 0
M  V30 1811 C 176.726 4.23544 1.45995 0
M  V30 1812 C 178.47 3.10328 2.89649 0
M  V30 1813 C 176.377 5.40014 2.4112 0
M  V30 1814 H 175.307 0.609277 0.444182 0
M  V30 1815 H 177.958 1.77978 0.446773 0
M  V30 1816 H 176.34 2.68142 2.91403 0
M  V30 1817 H 177.514 4.54696 0.747532 0
M  V30 1818 H 175.829 4.08021 0.831115 0
M  V30 1819 H 178.426 3.94518 3.60915 0
M  V30 1820 H 178.769 2.23544 3.51189 0
M  V30 1821 H 179.302 3.31443 2.19978 0
M  V30 1822 H 176.041 6.29068 1.84264 0
M  V30 1823 H 175.561 5.13233 3.10406 0
M  V30 1824 H 177.24 5.72099 3.02177 0
M  V30 1825 N 177.372 -0.689602 1.41712 0
M  V30 1826 C 178.621 -1.44534 1.40686 0
M  V30 1827 C 178.934 -1.95588 0.0213352 0
M  V30 1828 O 180.14 -2.71271 -0.111534 0
M  V30 1829 C 178.596 -2.61387 2.47396 0
M  V30 1830 C 178.204 -2.17094 3.91885 0
M  V30 1831 C 179.948 -3.38986 2.55517 0
M  V30 1832 C 177.855 -3.3094 4.90135 0
M  V30 1833 H 176.785 -0.542925 0.52321 0
M  V30 1834 H 179.436 -0.748054 1.6756 0
M  V30 1835 H 177.818 -3.33412 2.13664 0
M  V30 1836 H 178.992 -1.52318 4.34897 0
M  V30 1837 H 177.307 -1.52473 3.8748 0
M  V30 1838 H 179.904 -4.23747 3.26102 0
M  V30 1839 H 180.247 -3.84578 1.59391 0
M  V30 1840 H 180.78 -2.74021 2.8837 0
M  V30 1841 H 177.519 -2.90355 5.87685 0
M  V30 1842 H 177.039 -3.94546 4.51767 0
M  V30 1843 H 178.718 -3.9663 5.11169 0
M  V30 1844 N 178.85 -1.27639 -0.924453 0
M  V30 1845 C 180.098 -1.13941 -1.66918 0
M  V30 1846 C 180.419 0.314589 -1.92446 0
M  V30 1847 O 179.689 1.21964 -1.53303 0
M  V30 1848 H 178.269 -0.418678 -0.618642 0
M  V30 1849 H 180.931 -1.60213 -1.10985 0
M  V30 1850 H 180.027 -1.67094 -2.63602 0
M  V30 1851 N 180.328 1.1314 -1.09713 0
M  V30 1852 C 181.291 2.16831 -0.742751 0
M  V30 1853 C 182.291 1.59159 0.229129 0
M  V30 1854 O 183.481 1.74199 0.00693237 0
M  V30 1855 C 180.613 3.40756 -0.0989168 0
M  V30 1856 H 181.806 2.49695 -1.66109 0
M  V30 1857 H 179.359 1.2802 -0.896699 0
M  V30 1858 H 180.094 3.13485 0.830514 0
M  V30 1859 H 179.879 3.83888 -0.798265 0
M  V30 1860 H 181.369 4.17386 0.133524 0
M  V30 1861 N 181.806 0.884767 1.30421 0
M  V30 1862 C 183.052 0.503851 1.96441 0
M  V30 1863 C 183.385 -0.944518 1.69684 0
M  V30 1864 O 182.66 -1.66737 1.00145 0
M  V30 1865 C 182.943 0.779085 3.51571 0
M  V30 1866 C 182.796 2.27807 3.87846 0
M  V30 1867 C 184.115 0.255452 4.39358 0
M  V30 1868 H 181.234 0.184533 0.713524 0
M  V30 1869 H 183.876 1.10872 1.54297 0
M  V30 1870 H 182.026 0.264274 3.876 0
M  V30 1871 H 183.698 2.86127 3.61841 0
M  V30 1872 H 181.941 2.74479 3.35922 0
M  V30 1873 H 182.612 2.42125 4.96064 0
M  V30 1874 H 185.088 0.696079 4.10236 0
M  V30 1875 H 183.964 0.477361 5.4682 0
M  V30 1876 H 184.225 -0.843293 4.33983 0
M  V30 1877 N 183.284 -1.43765 0.645699 0
M  V30 1878 C 184.7 -1.56509 0.312591 0
M  V30 1879 C 184.9 -1.6307 -1.18365 0
M  V30 1880 O 183.956 -1.58167 -1.96824 0
M  V30 1881 C 185.269 -2.82968 1.01733 0
M  V30 1882 C 186.817 -2.96701 0.996865 0
M  V30 1883 C 187.292 -4.25982 1.68236 0
M  V30 1884 N 188.783 -4.32829 1.64964 0
M  V30 1885 C 189.518 -5.31613 2.14885 0
M  V30 1886 N 189.014 -6.36718 2.73061 0
M  V30 1887 N 190.807 -5.23217 2.05428 0
M  V30 1888 H 182.958 -1.3775 1.61675 0
M  V30 1889 H 185.221 -0.661067 0.679481 0
M  V30 1890 H 184.927 -2.84156 2.0724 0
M  V30 1891 H 184.801 -3.72957 0.564177 0
M  V30 1892 H 187.188 -2.95058 -0.0497719 0
M  V30 1893 H 187.269 -2.08022 1.48865 0
M  V30 1894 H 186.913 -4.28386 2.72852 0
M  V30 1895 H 186.843 -5.13545 1.16529 0
M  V30 1896 H 189.334 -3.57493 1.22503 0
M  V30 1897 H 189.647 -7.08401 3.08848 0
M  V30 1898 H 187.992 -6.37362 2.77118 0
M  V30 1899 H 191.183 -4.40019 1.59689 0
M  V30 1900 H 191.356 -6.00045 2.44643 0
M  V30 1901 N 184.763 -0.387143 -1.52771 0
M  V30 1902 C 185.991 0.195869 -2.05971 0
M  V30 1903 C 186.406 1.40691 -1.25903 0
M  V30 1904 O 185.763 1.79931 -0.305134 0
M  V30 1905 C 185.814 0.56812 -3.57008 0
M  V30 1906 O 185.535 -0.594803 -4.34043 0
M  V30 1907 C 187.036 1.20723 -4.26545 0
M  V30 1908 H 184.256 0.0300578 -0.670326 0
M  V30 1909 H 186.8 -0.551749 -1.96916 0
M  V30 1910 H 184.955 1.26564 -3.66143 0
M  V30 1911 H 185.369 -0.289322 -5.23701 0
M  V30 1912 H 186.843 1.41807 -5.33474 0
M  V30 1913 H 187.32 2.17395 -3.81623 0
M  V30 1914 H 187.926 0.550535 -4.21722 0
M  V30 1915 N 186.241 1.57166 -0.116904 0
M  V30 1916 C 187.171 2.18222 0.830759 0
M  V30 1917 C 188.152 1.12167 1.27877 0
M  V30 1918 O 189.337 1.40394 1.34176 0
M  V30 1919 C 186.467 2.77996 2.08172 0
M  V30 1920 C 185.421 3.89614 1.77157 0
M  V30 1921 C 184.747 4.36187 3.09265 0
M  V30 1922 C 186.047 5.1181 1.04151 0
M  V30 1923 H 187.741 2.97664 0.321992 0
M  V30 1924 H 185.287 1.4318 0.153434 0
M  V30 1925 H 187.24 3.19366 2.74924 0
M  V30 1926 H 185.964 1.9584 2.6137 0
M  V30 1927 H 184.623 3.48816 1.12796 0
M  V30 1928 H 184.271 3.50893 3.60393 0
M  V30 1929 H 183.971 5.11455 2.89288 0
M  V30 1930 H 185.495 4.80207 3.77139 0
M  V30 1931 H 186.909 5.50214 1.61052 0
M  V30 1932 H 185.306 5.92648 0.942762 0
M  V30 1933 H 186.376 4.84892 0.0279022 0
M  V30 1934 N 187.719 -0.156864 1.56817 0
M  V30 1935 C 188.967 -0.869404 1.82444 0
M  V30 1936 C 189.288 -1.82147 0.69623 0
M  V30 1937 O 188.558 -1.93847 -0.28287 0
M  V30 1938 H 187.138 -0.324043 0.673056 0
M  V30 1939 H 189.8 -0.153224 1.94297 0
M  V30 1940 H 188.896 -1.43761 2.77019 0
M  V30 1941 N 189.197 -1.51736 -0.425897 0
M  V30 1942 C 190.422 -1.69082 -1.20108 0
M  V30 1943 C 190.847 -0.392398 -1.83962 0
M  V30 1944 O 190.205 0.64858 -1.69302 0
M  V30 1945 C 190.253 -2.81604 -2.25237 0
M  V30 1946 O 189.357 -2.46004 -3.30992 0
M  V30 1947 H 188.698 -0.563408 -0.35138 0
M  V30 1948 H 191.228 -1.98358 -0.501512 0
M  V30 1949 H 191.238 -3.06025 -2.69838 0
M  V30 1950 H 189.913 -3.75817 -1.78142 0
M  V30 1951 H 188.49 -2.32195 -2.91787 0
M  V30 1952 N 190.675 0.682077 -1.42076 0
M  V30 1953 C 191.638 1.77756 -1.44691 0
M  V30 1954 C 192.638 1.5726 -0.335535 0
M  V30 1955 O 193.828 1.63686 -0.596037 0
M  V30 1956 C 190.96 3.16301 -1.27146 0
M  V30 1957 H 192.153 1.76826 -2.42224 0
M  V30 1958 H 189.706 0.891012 -1.28416 0
M  V30 1959 H 190.441 3.22862 -0.305075 0
M  V30 1960 H 190.226 3.32581 -2.07683 0
M  V30 1961 H 191.716 3.96241 -1.31843 0
M  V30 1962 N 192.153 1.28127 0.917671 0
M  V30 1963 C 193.101 1.11569 2.04096 0
M  V30 1964 C 194.095 0.0360242 1.69362 0
M  V30 1965 O 195.301 0.194501 1.78946 0
M  V30 1966 H 191.676 0.344097 0.668656 0
M  V30 1967 H 193.647 2.06711 2.15205 0
M  V30 1968 C 192.396 0.790197 3.38602 0
M  V30 1969 H 191.719 1.61293 3.6582 0
M  V30 1970 H 193.159 0.714271 4.1794 0
M  V30 1971 C 191.618 -0.505897 3.3308 0
M  V30 1972 O 192.148 -1.53736 3.71117 0
M  V30 1973 N 190.354 -0.505193 2.86175 0
M  V30 1974 H 189.901 0.334621 2.55417 0
M  V30 1975 H 189.859 -1.37243 2.82863 0
M  V30 1976 N 193.631 -1.12557 1.10312 0
M  V30 1977 C 194.561 -2.20341 0.772798 0
M  V30 1978 C 195.542 -1.68198 -0.25365 0
M  V30 1979 O 196.727 -1.93831 -0.119699 0
M  V30 1980 C 193.857 -3.46709 0.202443 0
M  V30 1981 C 192.811 -4.11996 1.15943 0
M  V30 1982 C 192.137 -5.328 0.450345 0
M  V30 1983 C 193.437 -4.5828 2.50552 0
M  V30 1984 H 195.131 -2.48229 1.674 0
M  V30 1985 H 192.677 -1.19308 0.806326 0
M  V30 1986 H 194.63 -4.2138 -0.0407752 0
M  V30 1987 H 193.354 -3.18245 -0.734001 0
M  V30 1988 H 192.013 -3.39305 1.38808 0
M  V30 1989 H 191.661 -5.00602 -0.490531 0
M  V30 1990 H 191.361 -5.7743 1.08851 0
M  V30 1991 H 192.885 -6.10219 0.215642 0
M  V30 1992 H 194.299 -5.2433 2.31843 0
M  V30 1993 H 192.696 -5.13683 3.10242 0
M  V30 1994 H 193.766 -3.72329 3.10643 0
M  V30 1995 N 195.109 -0.891671 -1.2995 0
M  V30 1996 C 196.52 -0.563104 -1.78006 0
M  V30 1997 C 196.871 0.920978 -1.73241 0
M  V30 1998 O 195.996 1.71987 -1.31337 0
M  V30 1999 C 196.591 -1.01539 -3.23226 0
M  V30 2000 C 195.15 -0.738124 -3.69092 0
M  V30 2001 C 194.297 -1.19461 -2.50249 0
M  V30 2002 H 197.248 -1.07522 -1.16725 0
M  V30 2003 H 197.269 -0.347217 -3.78912 0
M  V30 2004 H 196.781 -2.09555 -3.26662 0
M  V30 2005 H 194.882 0.329766 -3.71138 0
M  V30 2006 H 194.995 -1.33037 -4.60259 0
M  V30 2007 H 193.359 -0.613787 -2.47194 0
M  V30 2008 H 194.142 -2.28265 -2.56417 0
M  V30 2009 N 196.587 1.43421 -0.653314 0
M  V30 2010 C 197.517 2.33487 0.0246656 0
M  V30 2011 C 198.498 1.49475 0.811863 0
M  V30 2012 O 199.683 1.78139 0.773322 0
M  V30 2013 C 196.813 3.32841 0.99166 0
M  V30 2014 C 195.767 4.26842 0.314568 0
M  V30 2015 C 195.093 5.16236 1.39302 0
M  V30 2016 C 196.393 5.16243 -0.793095 0
M  V30 2017 H 198.087 2.90427 -0.727481 0
M  V30 2018 H 195.633 1.39649 -0.351287 0
M  V30 2019 H 197.586 3.94747 1.47487 0
M  V30 2020 H 196.31 2.74158 1.77497 0
M  V30 2021 H 194.969 3.663 -0.148199 0
M  V30 2022 H 194.617 4.53891 2.16776 0
M  V30 2023 H 194.317 5.79948 0.945223 0
M  V30 2024 H 195.841 5.81015 1.87759 0
M  V30 2025 H 197.255 5.71958 -0.392039 0
M  V30 2026 H 195.652 5.88676 -1.16536 0
M  V30 2027 H 196.722 4.55927 -1.65103 0
M  V30 2028 N 198.065 0.39524 1.52563 0
M  V30 2029 C 199.028 -0.425001 2.25225 0
M  V30 2030 C 200.028 -0.985266 1.27079 0
M  V30 2031 O 201.218 -0.866332 1.5113 0
M  V30 2032 C 198.35 -1.59686 3.01186 0
M  V30 2033 H 199.543 0.211233 2.99155 0
M  V30 2034 H 197.096 0.147472 1.55603 0
M  V30 2035 H 197.831 -2.27035 2.31572 0
M  V30 2036 H 197.616 -1.20176 3.73229 0
M  V30 2037 H 199.106 -2.17743 3.5634 0
M  V30 2038 N 199.544 -1.57102 0.125237 0
M  V30 2039 C 200.491 -2.15641 -0.822655 0
M  V30 2040 C 201.461 -1.08313 -1.25927 0
M  V30 2041 O 202.646 -1.36251 -1.33567 0
M  V30 2042 C 199.786 -2.76504 -2.06494 0
M  V30 2043 C 198.899 -3.98158 -1.67612 0
M  V30 2044 C 198.034 -4.47088 -2.86854 0
M  V30 2045 C 197.073 -5.6126 -2.44242 0
M  V30 2046 N 196.21 -6.04905 -3.56419 0
M  V30 2047 H 201.05 -2.96313 -0.316625 0
M  V30 2048 H 198.587 -1.46388 -0.144588 0
M  V30 2049 H 200.545 -3.09925 -2.79289 0
M  V30 2050 H 199.175 -1.98512 -2.54545 0
M  V30 2051 H 198.227 -3.70858 -0.846661 0
M  V30 2052 H 199.539 -4.80934 -1.32301 0
M  V30 2053 H 198.693 -4.82451 -3.67867 0
M  V30 2054 H 197.432 -3.63275 -3.25396 0
M  V30 2055 H 196.437 -5.25495 -1.61663 0
M  V30 2056 H 197.662 -6.46843 -2.0681 0
M  V30 2057 H 195.608 -5.24032 -3.94623 0
M  V30 2058 H 195.525 -6.82552 -3.25051 0
M  V30 2059 H 196.793 -6.44907 -4.37853 0
M  V30 2060 N 201.022 0.148545 -1.56898 0
M  V30 2061 C 202.438 0.501131 -1.51528 0
M  V30 2062 C 202.638 1.83458 -0.833399 0
M  V30 2063 O 201.694 2.49259 -0.40328 0
M  V30 2064 C 203.007 0.512864 -2.96294 0
M  V30 2065 C 204.555 0.598487 -3.07225 0
M  V30 2066 C 205.03 0.640897 -4.53494 0
M  V30 2067 N 206.521 0.703163 -4.57832 0
M  V30 2068 C 207.256 0.756935 -5.68382 0
M  V30 2069 N 206.752 0.770147 -6.88506 0
M  V30 2070 N 208.545 0.797698 -5.56411 0
M  V30 2071 H 200.696 -0.725532 -1.99624 0
M  V30 2072 H 202.959 -0.264358 -0.910395 0
M  V30 2073 H 202.665 -0.398691 -3.49433 0
M  V30 2074 H 202.539 1.35133 -3.52163 0
M  V30 2075 H 204.926 1.50046 -2.54106 0
M  V30 2076 H 205.007 -0.267093 -2.54402 0
M  V30 2077 H 204.651 -0.256915 -5.0725 0
M  V30 2078 H 204.581 1.52295 -5.04097 0
M  V30 2079 H 207.072 0.700314 -3.71354 0
M  V30 2080 H 207.385 0.812983 -7.68512 0
M  V30 2081 H 205.73 0.738049 -6.9107 0
M  V30 2082 H 208.921 0.784535 -4.61479 0
M  V30 2083 H 209.094 0.83614 -6.42583 0
M  V30 2084 N 202.5 1.5196 0.417844 0
M  V30 2085 C 203.432 1.70895 1.52733 0
M  V30 2086 C 204.445 0.589405 1.51756 0
M  V30 2087 O 205.634 0.864312 1.56179 0
M  V30 2088 C 202.734 1.72627 2.91639 0
M  V30 2089 C 201.907 3.01479 3.16905 0
M  V30 2090 C 200.966 2.95139 4.35637 0
M  V30 2091 O 199.992 3.69059 4.3334 0
M  V30 2092 N 201.194 2.12328 5.40275 0
M  V30 2093 H 203.959 2.66612 1.36888 0
M  V30 2094 H 201.52 1.50089 0.607037 0
M  V30 2095 H 203.512 1.65928 3.6912 0
M  V30 2096 H 202.082 0.844216 3.00985 0
M  V30 2097 H 201.302 3.21895 2.27546 0
M  V30 2098 H 202.59 3.86736 3.30625 0
M  V30 2099 H 201.988 1.51685 5.44985 0
M  V30 2100 H 200.545 2.11494 6.16534 0
M  V30 2101 N 203.978 -0.674533 1.42435 0
M  V30 2102 C 204.91 -1.80005 1.41883 0
M  V30 2103 C 205.923 -1.59667 0.31787 0
M  V30 2104 O 207.112 -1.68781 0.580973 0
M  V30 2105 C 204.212 -3.17114 1.19549 0
M  V30 2106 C 203.385 -3.64299 2.42084 0
M  V30 2107 C 202.444 -4.80142 2.15291 0
M  V30 2108 O 201.47 -4.90673 2.88493 0
M  V30 2109 N 202.672 -5.68869 1.1562 0
M  V30 2110 H 205.437 -1.80964 2.38898 0
M  V30 2111 H 202.998 -0.857633 1.37318 0
M  V30 2112 H 204.99 -3.92267 0.995417 0
M  V30 2113 H 203.56 -3.11053 0.310569 0
M  V30 2114 H 202.78 -2.79822 2.77657 0
M  V30 2115 H 204.068 -3.92567 3.23679 0
M  V30 2116 H 203.466 -5.63012 0.550765 0
M  V30 2117 H 202.023 -6.43833 1.016 0
M  V30 2118 N 205.456 -1.28612 -0.910864 0
M  V30 2119 C 206.686 -1.1862 -1.69153 0
M  V30 2120 C 207.094 0.257324 -1.87442 0
M  V30 2121 O 206.437 1.18543 -1.40332 0
M  V30 2122 C 206.499 -1.81606 -3.10257 0
M  V30 2123 C 206.163 -3.30864 -3.15243 0
M  V30 2124 C 207.16 -4.27256 -2.96223 0
M  V30 2125 C 204.845 -3.71871 -3.37664 0
M  V30 2126 C 206.839 -5.62631 -2.99541 0
M  V30 2127 C 204.526 -5.07371 -3.40614 0
M  V30 2128 C 205.524 -6.02561 -3.21573 0
M  V30 2129 O 205.212 -7.35589 -3.2429 0
M  V30 2130 H 204.944 -0.412633 -0.535453 0
M  V30 2131 H 207.498 -1.70306 -1.14827 0
M  V30 2132 H 205.728 -1.24418 -3.66138 0
M  V30 2133 H 207.417 -1.66092 -3.70362 0
M  V30 2134 H 208.183 -3.9691 -2.78725 0
M  V30 2135 H 204.062 -2.98241 -3.5153 0
M  V30 2136 H 207.606 -6.36907 -2.84597 0
M  V30 2137 H 203.503 -5.37366 -3.57642 0
M  V30 2138 H 204.271 -7.44252 -3.40633 0
M  V30 2139 N 206.934 1.1197 -1.10907 0
M  V30 2140 C 207.882 2.19927 -0.757303 0
M  V30 2141 C 208.876 1.67564 0.248747 0
M  V30 2142 O 210.082 1.79672 0.108605 0
M  V30 2143 H 206.457 0.716925 -0.226987 0
M  V30 2144 H 208.428 2.46847 -1.67658 0
M  V30 2145 C 207.177 3.47061 -0.210671 0
M  V30 2146 H 206.5 3.87703 -0.976049 0
M  V30 2147 H 207.94 4.24 -0.0026584 0
M  V30 2148 C 206.399 3.19864 1.05777 0
M  V30 2149 O 206.929 3.40049 2.13845 0
M  V30 2150 N 205.135 2.73636 0.978349 0
M  V30 2151 H 204.682 2.5741 0.0988246 0
M  V30 2152 H 204.64 2.55815 1.82773 0
M  V30 2153 N 208.412 0.89855 1.29475 0
M  V30 2154 C 209.375 0.380272 2.26023 0
M  V30 2155 C 210.375 -0.484891 1.53315 0
M  V30 2156 O 211.565 -0.290108 1.71767 0
M  V30 2157 C 208.697 -0.45651 3.3783 0
M  V30 2158 H 209.89 1.23295 2.73383 0
M  V30 2159 H 207.443 0.676589 1.40897 0
M  V30 2160 H 208.178 -1.32922 2.95808 0
M  V30 2161 H 207.963 0.163393 3.91759 0
M  V30 2162 H 209.453 -0.810466 4.0966 0
M  V30 2163 N 209.89 -1.43072 0.660911 0
M  V30 2164 C 210.82 -2.33497 -0.0122829 0
M  V30 2165 C 211.801 -1.49903 -0.803925 0
M  V30 2166 O 212.986 -1.78546 -0.763864 0
M  V30 2167 C 210.116 -3.33363 -0.973994 0
M  V30 2168 C 209.07 -4.27003 -0.291928 0
M  V30 2169 C 208.396 -5.16967 -1.36562 0
M  V30 2170 C 209.696 -5.15816 0.820462 0
M  V30 2171 H 211.39 -2.90038 0.742873 0
M  V30 2172 H 208.936 -1.39461 0.358688 0
M  V30 2173 H 210.889 -3.95524 -1.45392 0
M  V30 2174 H 209.613 -2.75095 -1.7604 0
M  V30 2175 H 208.272 -3.66217 0.167623 0
M  V30 2176 H 207.92 -4.55034 -2.14366 0
M  V30 2177 H 207.62 -5.80441 -0.914454 0
M  V30 2178 H 209.144 -5.82003 -1.84675 0
M  V30 2179 H 210.558 -5.71742 0.422366 0
M  V30 2180 H 208.955 -5.8805 1.19656 0
M  V30 2181 H 210.025 -4.55045 1.67518 0
M  V30 2182 N 211.368 -0.403325 -1.52352 0
M  V30 2183 C 212.298 0.416205 -2.29761 0
M  V30 2184 C 213.279 1.05123 -1.33728 0
M  V30 2185 O 214.464 1.06134 -1.62632 0
M  V30 2186 C 211.594 1.53624 -3.11475 0
M  V30 2187 C 210.548 1.02653 -4.15507 0
M  V30 2188 C 209.874 2.23971 -4.85532 0
M  V30 2189 C 211.174 0.08463 -5.22231 0
M  V30 2190 H 212.868 -0.229701 -2.98518 0
M  V30 2191 H 210.414 -0.111913 -1.43564 0
M  V30 2192 H 212.367 2.1165 -3.64393 0
M  V30 2193 H 211.091 2.20994 -2.40477 0
M  V30 2194 H 209.75 0.46871 -3.63591 0
M  V30 2195 H 209.398 2.89883 -4.11068 0
M  V30 2196 H 209.098 1.90521 -5.55856 0
M  V30 2197 H 210.622 2.82614 -5.41259 0
M  V30 2198 H 212.036 0.573509 -5.70424 0
M  V30 2199 H 210.433 -0.160783 -5.99885 0
M  V30 2200 H 211.503 -0.86237 -4.7717 0
M  V30 2201 N 212.846 1.57033 -0.133567 0
M  V30 2202 C 214.071 2.00475 0.531477 0
M  V30 2203 C 214.496 1.01291 1.58499 0
M  V30 2204 O 213.854 -0.0133279 1.81295 0
M  V30 2205 C 213.902 3.42729 1.12113 0
M  V30 2206 O 213.006 3.46498 2.23636 0
M  V30 2207 H 212.347 0.650876 0.131362 0
M  V30 2208 H 214.877 2.03344 -0.22634 0
M  V30 2209 H 214.887 3.81246 1.4531 0
M  V30 2210 H 213.562 4.14428 0.349557 0
M  V30 2211 H 212.139 3.19811 1.91769 0
M  V30 2212 N 214.325 -0.140222 1.56975 0
M  V30 2213 C 215.273 -1.19207 1.99731 0
M  V30 2214 C 216.267 -1.44089 0.890777 0
M  V30 2215 O 217.473 -1.44301 1.07597 0
M  V30 2216 H 213.848 -0.40142 0.635898 0
M  V30 2217 H 215.819 -0.804813 2.87342 0
M  V30 2218 C 214.568 -2.51617 2.39967 0
M  V30 2219 H 213.891 -2.33303 3.24669 0
M  V30 2220 H 215.331 -3.23827 2.73701 0
M  V30 2221 C 213.79 -3.12654 1.25496 0
M  V30 2222 O 214.32 -3.97786 0.559371 0
M  V30 2223 N 212.526 -2.72206 1.01746 0
M  V30 2224 H 212.073 -2.03074 1.58489 0
M  V30 2225 H 212.031 -3.13377 0.253461 0
M  V30 2226 N 215.803 -1.52179 -0.40978 0
M  V30 2227 C 216.736 -1.70196 -1.52015 0
M  V30 2228 C 217.714 -0.549542 -1.53032 0
M  V30 2229 O 218.898 -0.776815 -1.71749 0
M  V30 2230 C 216.025 -1.74069 -2.90547 0
M  V30 2231 C 215.071 -2.95601 -3.07445 0
M  V30 2232 S 215.904 -4.55956 -2.80827 0
M  V30 2233 C 217.06 -4.62614 -4.21591 0
M  V30 2234 H 217.293 -2.64109 -1.36504 0
M  V30 2235 H 214.826 -1.4221 -0.601312 0
M  V30 2236 H 216.784 -1.76985 -3.70387 0
M  V30 2237 H 215.445 -0.812835 -3.034 0
M  V30 2238 H 214.638 -2.94791 -4.08796 0
M  V30 2239 H 214.24 -2.90569 -2.35469 0
M  V30 2240 H 216.532 -4.39951 -5.15218 0
M  V30 2241 H 217.475 -5.64548 -4.27424 0
M  V30 2242 H 217.883 -3.91654 -4.06531 0
M  V30 2243 N 217.281 0.66697 -1.42791 0
M  V30 2244 C 218.506 1.46004 -1.47301 0
M  V30 2245 C 218.931 1.87894 -0.0880317 0
M  V30 2246 O 218.289 1.56502 0.915253 0
M  V30 2247 C 218.337 2.68031 -2.41229 0
M  V30 2248 O 217.441 3.6659 -1.88906 0
M  V30 2249 H 216.782 0.43832 -0.49877 0
M  V30 2250 H 219.312 0.817391 -1.87563 0
M  V30 2251 H 219.322 3.1601 -2.58073 0
M  V30 2252 H 217.997 2.36883 -3.41847 0
M  V30 2253 H 216.574 3.25661 -1.81656 0
M  V30 2254 N 218.759 1.29093 0.90403 0
M  V30 2255 C 220.175 1.07011 1.1841 0
M  V30 2256 C 220.375 -0.181358 2.00682 0
M  V30 2257 O 219.431 -0.880331 2.36657 0
M  V30 2258 C 220.744 2.32311 1.90924 0
M  V30 2259 C 222.292 2.37587 2.03768 0
M  V30 2260 C 222.767 3.62679 2.79693 0
M  V30 2261 N 224.258 3.63376 2.87249 0
M  V30 2262 C 224.993 4.56848 3.46522 0
M  V30 2263 N 224.489 5.60648 4.06996 0
M  V30 2264 N 226.282 4.44426 3.44154 0
M  V30 2265 H 218.433 2.09412 0.354993 0
M  V30 2266 H 220.696 0.922181 0.219742 0
M  V30 2267 H 220.402 3.23536 1.37905 0
M  V30 2268 H 220.276 2.39483 2.91424 0
M  V30 2269 H 222.663 1.46853 2.55965 0
M  V30 2270 H 222.744 2.34403 1.02415 0
M  V30 2271 H 222.388 4.53762 2.28173 0
M  V30 2272 H 222.318 3.63119 3.81381 0
M  V30 2273 H 224.809 2.88321 2.44293 0
M  V30 2274 H 225.122 6.28101 4.50232 0
M  V30 2275 H 223.467 5.64463 4.05471 0
M  V30 2276 H 226.658 3.62529 2.96126 0
M  V30 2277 H 226.831 5.17457 3.90054 0
M  V30 2278 N 220.237 -1.11381 1.11499 0
M  V30 2279 C 221.486 -1.82494 0.858993 0
M  V30 2280 C 221.799 -1.85605 -0.617278 0
M  V30 2281 O 223.005 -2.52824 -0.989552 0
M  V30 2282 C 221.461 -3.27745 1.48699 0
M  V30 2283 C 221.069 -3.32961 2.99735 0
M  V30 2284 C 222.813 -4.03754 1.31085 0
M  V30 2285 C 220.72 -4.72612 3.55516 0
M  V30 2286 H 219.65 -0.683802 0.317696 0
M  V30 2287 H 222.301 -1.25331 1.34031 0
M  V30 2288 H 220.683 -3.84844 0.933339 0
M  V30 2289 H 221.857 -2.85741 3.61509 0
M  V30 2290 H 220.172 -2.70433 3.16631 0
M  V30 2291 H 222.769 -5.06891 1.70192 0
M  V30 2292 H 223.112 -4.15527 0.253496 0
M  V30 2293 H 223.645 -3.53043 1.83318 0
M  V30 2294 H 220.384 -4.66036 4.60967 0
M  V30 2295 H 219.904 -5.2024 2.98513 0
M  V30 2296 H 221.583 -5.4157 3.53992 0
M  V30 2297 N 221.715 -0.905404 -1.28997 0
M  V30 2298 C 222.945 -0.549049 -1.99171 0
M  V30 2299 C 223.353 0.87203 -1.67906 0
M  V30 2300 O 222.696 1.58796 -0.923561 0
M  V30 2301 C 222.758 -0.668306 -3.53234 0
M  V30 2302 C 222.422 -2.0574 -4.08069 0
M  V30 2303 C 223.419 -3.0292 -4.22534 0
M  V30 2304 C 221.104 -2.36833 -4.42962 0
M  V30 2305 C 223.098 -4.29314 -4.71135 0
M  V30 2306 C 220.785 -3.63467 -4.91258 0
M  V30 2307 C 221.783 -4.59522 -5.053 0
M  V30 2308 O 221.471 -5.83907 -5.52546 0
M  V30 2309 H 221.203 -0.208784 -0.64295 0
M  V30 2310 H 223.757 -1.21836 -1.65363 0
M  V30 2311 H 221.987 0.0580547 -3.86656 0
M  V30 2312 H 223.676 -0.320273 -4.04634 0
M  V30 2313 H 224.442 -2.80216 -3.95859 0
M  V30 2314 H 220.321 -1.62824 -4.31288 0
M  V30 2315 H 223.865 -5.04293 -4.8201 0
M  V30 2316 H 219.762 -3.86 -5.17372 0
M  V30 2317 H 220.53 -5.86578 -5.70849 0
M  V30 2318 N 223.193 1.4272 -0.668489 0
M  V30 2319 C 224.418 2.06484 -0.194758 0
M  V30 2320 C 224.843 1.49862 1.13679 0
M  V30 2321 O 224.201 0.614582 1.70565 0
M  V30 2322 C 224.249 3.60353 -0.133546 0
M  V30 2323 O 223.353 4.02464 0.899806 0
M  V30 2324 H 222.694 0.656137 -0.10188 0
M  V30 2325 H 225.224 1.82964 -0.915722 0
M  V30 2326 H 225.234 4.07976 0.0447041 0
M  V30 2327 H 223.909 4.00938 -1.1055 0
M  V30 2328 H 222.486 3.66402 0.693109 0
M  V30 2329 N 224.671 0.411399 1.52136 0
M  V30 2330 C 225.899 -0.163076 2.06256 0
M  V30 2331 C 226.314 -1.3867 1.28125 0
M  V30 2332 O 225.671 -1.79423 0.333721 0
M  V30 2333 C 225.722 -0.511252 3.57867 0
M  V30 2334 O 225.443 0.66378 4.33042 0
M  V30 2335 C 226.944 -1.13921 4.28412 0
M  V30 2336 H 224.164 -0.0193897 0.67072 0
M  V30 2337 H 226.708 0.583007 1.96013 0
M  V30 2338 H 224.863 -1.20723 3.6811 0
M  V30 2339 H 225.277 0.372601 5.23175 0
M  V30 2340 H 226.751 -1.33302 5.35663 0
M  V30 2341 H 227.228 -2.11296 3.85033 0
M  V30 2342 H 227.834 -0.483373 4.22544 0
M  V30 2343 N 226.149 -1.5696 0.141893 0
M  V30 2344 C 227.112 -2.15316 -0.785587 0
M  V30 2345 C 228.112 -1.09366 -1.1788 0
M  V30 2346 O 229.302 -1.35031 -1.10056 0
M  V30 2347 C 226.434 -2.71211 -2.06537 0
M  V30 2348 H 227.627 -2.98608 -0.278041 0
M  V30 2349 H 225.18 -1.5593 -0.107519 0
M  V30 2350 H 225.915 -1.91571 -2.6167 0
M  V30 2351 H 225.7 -3.4872 -1.79268 0
M  V30 2352 H 227.19 -3.16189 -2.72789 0
M  V30 2353 N 227.627 0.131896 -1.57047 0
M  V30 2354 C 228.574 1.16236 -1.99393 0
M  V30 2355 C 229.544 1.41863 -0.863943 0
M  V30 2356 O 230.729 1.53946 -1.12718 0
M  V30 2357 C 227.869 2.48708 -2.39245 0
M  V30 2358 C 226.982 2.30127 -3.65603 0
M  V30 2359 C 226.117 3.55738 -3.94492 0
M  V30 2360 C 225.156 3.32259 -5.14073 0
M  V30 2361 N 224.293 4.50039 -5.38896 0
M  V30 2362 H 229.133 0.794251 -2.87221 0
M  V30 2363 H 226.67 0.380707 -1.42088 0
M  V30 2364 H 228.628 3.25969 -2.60384 0
M  V30 2365 H 227.258 2.83437 -1.54478 0
M  V30 2366 H 226.31 1.43845 -3.52154 0
M  V30 2367 H 227.622 2.08746 -4.5302 0
M  V30 2368 H 226.776 4.41423 -4.1621 0
M  V30 2369 H 225.515 3.80138 -3.05526 0
M  V30 2370 H 224.52 2.44963 -4.92212 0
M  V30 2371 H 225.745 3.09242 -6.04604 0
M  V30 2372 H 223.691 4.74584 -4.52886 0
M  V30 2373 H 223.608 4.31716 -6.2061 0
M  V30 2374 H 224.876 5.36895 -5.65123 0
M  V30 2375 N 229.106 1.52395 0.401703 0
M  V30 2376 C 230.352 1.67065 1.14966 0
M  V30 2377 C 230.685 0.403052 1.89971 0
M  V30 2378 O 229.96 -0.598774 1.85054 0
M  V30 2379 C 230.243 2.8975 2.13815 0
M  V30 2380 C 230.096 4.26578 1.42658 0
M  V30 2381 C 231.415 3.07965 3.14397 0
M  V30 2382 H 228.534 0.607968 0.416587 0
M  V30 2383 H 231.176 1.84965 0.434511 0
M  V30 2384 H 229.326 2.74619 2.74803 0
M  V30 2385 H 230.998 4.53451 0.847329 0
M  V30 2386 H 229.241 4.27639 0.72849 0
M  V30 2387 H 229.912 5.08483 2.14823 0
M  V30 2388 H 232.388 3.22043 2.63491 0
M  V30 2389 H 231.264 3.95308 3.80819 0
M  V30 2390 H 231.525 2.21611 3.82545 0
M  V30 2391 N 230.584 -0.659388 1.43143 0
M  V30 2392 C 231.824 -1.43121 1.45931 0
M  V30 2393 C 232.188 -1.91838 0.0789298 0
M  V30 2394 O 233.389 -2.68794 -0.018491 0
M  V30 2395 C 231.66 -2.58534 2.46769 0
M  V30 2396 S 233.219 -3.47154 2.68384 0
M  V30 2397 H 230.037 -0.488624 0.516496 0
M  V30 2398 H 232.639 -0.766128 1.79863 0
M  V30 2399 H 231.343 -2.21007 3.45809 0
M  V30 2400 H 230.874 -3.29898 2.14315 0
M  V30 2401 H 232.889 -4.55051 1.97845 0
M  V30 2402 N 232.062 -1.29571 -0.897171 0
M  V30 2403 C 232.992 -1.17473 -2.01798 0
M  V30 2404 C 233.973 -0.068323 -1.69963 0
M  V30 2405 O 235.158 -0.248239 -1.92607 0
M  V30 2406 C 232.288 -0.853099 -3.36659 0
M  V30 2407 C 231.242 -1.9161 -3.82713 0
M  V30 2408 C 230.568 -1.44773 -5.14728 0
M  V30 2409 C 231.868 -3.32535 -4.02763 0
M  V30 2410 H 233.562 -2.11237 -2.12177 0
M  V30 2411 H 231.108 -1.01699 -1.01948 0
M  V30 2412 H 233.061 -0.755165 -4.14578 0
M  V30 2413 H 231.785 0.120236 -3.26379 0
M  V30 2414 H 230.444 -2.00346 -3.07013 0
M  V30 2415 H 230.092 -0.462995 -5.00865 0
M  V30 2416 H 229.792 -2.15865 -5.46513 0
M  V30 2417 H 231.316 -1.36334 -5.95185 0
M  V30 2418 H 232.73 -3.26626 -4.71156 0
M  V30 2419 H 231.127 -4.01607 -4.45905 0
M  V30 2420 H 232.197 -3.75326 -3.07016 0
M  V30 2421 N 233.54 1.10788 -1.12088 0
M  V30 2422 C 234.951 1.64181 -0.88891 0
M  V30 2423 C 235.302 1.87508 0.577498 0
M  V30 2424 O 234.427 1.61434 1.44112 0
M  V30 2425 C 235.022 2.98257 -1.60712 0
M  V30 2426 C 233.581 3.4853 -1.42139 0
M  V30 2427 C 232.728 2.23208 -1.6454 0
M  V30 2428 H 235.679 0.943368 -1.27618 0
M  V30 2429 H 235.7 3.65552 -1.05604 0
M  V30 2430 H 235.212 2.81246 -2.67436 0
M  V30 2431 H 233.313 3.70692 -0.376552 0
M  V30 2432 H 233.426 4.26882 -2.17505 0
M  V30 2433 H 231.79 2.31169 -1.06925 0
M  V30 2434 H 232.573 2.08733 -2.72554 0
M  V30 2435 N 235.018 0.912232 1.28515 0
M  V30 2436 C 235.966 0.389597 2.29314 0
M  V30 2437 C 236.96 -0.517915 1.61289 0
M  V30 2438 O 238.166 -0.399328 1.75515 0
M  V30 2439 H 234.541 0.107386 0.744293 0
M  V30 2440 H 236.512 1.25286 2.70825 0
M  V30 2441 C 235.261 -0.356496 3.45868 0
M  V30 2442 H 234.584 0.332608 3.98414 0
M  V30 2443 H 236.024 -0.686851 4.184 0
M  V30 2444 C 234.483 -1.56383 2.98406 0
M  V30 2445 O 235.013 -2.66294 3.00749 0
M  V30 2446 N 233.219 -1.41029 2.54085 0
M  V30 2447 H 232.766 -0.516089 2.52377 0
M  V30 2448 H 232.724 -2.21939 2.22689 0
M  V30 2449 N 236.496 -1.42363 0.676048 0
M  V30 2450 C 237.443 -2.308 -0.00150904 0
M  V30 2451 C 238.413 -1.46032 -0.791444 0
M  V30 2452 O 239.598 -1.74861 -0.76344 0
M  V30 2453 C 236.738 -3.31883 -0.945919 0
M  V30 2454 C 235.851 -4.31741 -0.149675 0
M  V30 2455 C 234.986 -5.19898 -1.08995 0
M  V30 2456 C 234.025 -6.11434 -0.285465 0
M  V30 2457 N 233.162 -6.92138 -1.17851 0
M  V30 2458 H 238.002 -2.88187 0.758455 0
M  V30 2459 H 235.539 -1.41952 0.38576 0
M  V30 2460 H 237.497 -3.89019 -1.50731 0
M  V30 2461 H 236.127 -2.76093 -1.6725 0
M  V30 2462 H 235.179 -3.76713 0.528359 0
M  V30 2463 H 236.491 -4.96534 0.474866 0
M  V30 2464 H 235.645 -5.81772 -1.72123 0
M  V30 2465 H 234.384 -4.55284 -1.74837 0
M  V30 2466 H 233.389 -5.48627 0.359018 0
M  V30 2467 H 234.614 -6.78097 0.368883 0
M  V30 2468 H 232.56 -6.30152 -1.82332 0
M  V30 2469 H 232.477 -7.53542 -0.609082 0
M  V30 2470 H 233.745 -7.58499 -1.79722 0
M  V30 2471 N 237.974 -0.419461 -1.51915 0
M  V30 2472 C 239.202 0.152136 -2.0634 0
M  V30 2473 C 239.617 1.37988 -1.28859 0
M  V30 2474 O 238.974 1.79243 -0.343232 0
M  V30 2475 C 239.025 0.492266 -3.58133 0
M  V30 2476 O 238.746 -0.686736 -4.32684 0
M  V30 2477 C 240.247 1.11648 -4.2901 0
M  V30 2478 H 237.467 0.0158325 -0.670813 0
M  V30 2479 H 240.011 -0.593394 -1.95702 0
M  V30 2480 H 238.166 1.18769 -3.68745 0
M  V30 2481 H 238.58 -0.400341 -5.2297 0
M  V30 2482 H 240.054 1.3046 -5.36362 0
M  V30 2483 H 240.531 2.09251 -3.86148 0
M  V30 2484 H 241.137 0.460958 -4.22795 0
M  V30 2485 N 239.452 1.56882 -0.150215 0
M  V30 2486 C 240.415 2.1573 0.774157 0
M  V30 2487 C 241.415 1.0999 1.17298 0
M  V30 2488 O 242.605 1.35613 1.09338 0
M  V30 2489 C 239.737 2.72302 2.05096 0
M  V30 2490 H 240.93 2.98752 0.262201 0
M  V30 2491 H 238.483 1.55985 0.099248 0
M  V30 2492 H 239.218 1.92956 2.6065 0
M  V30 2493 H 239.003 3.49665 1.77416 0
M  V30 2494 H 240.493 3.17632 2.71109 0
M  V30 2495 N 240.93 -0.123565 1.57115 0
M  V30 2496 C 242.158 -0.846461 1.88793 0
M  V30 2497 C 242.573 -1.73652 0.740976 0
M  V30 2498 O 241.93 -1.80207 -0.288393 0
M  V30 2499 C 241.981 -1.6837 3.19897 0
M  V30 2500 O 241.702 -0.829477 4.30176 0
M  V30 2501 C 243.203 -2.51214 3.65248 0
M  V30 2502 H 240.423 -0.243573 0.625231 0
M  V30 2503 H 242.967 -0.109324 2.04208 0
M  V30 2504 H 241.122 -2.37364 3.06165 0
M  V30 2505 H 241.536 -1.40651 5.0529 0
M  V30 2506 H 243.01 -3.05497 4.59756 0
M  V30 2507 H 243.487 -3.28359 2.9168 0
M  V30 2508 H 244.093 -1.8747 3.81752 0
M  V30 2509 N 242.408 -1.52605 -0.393616 0
M  V30 2510 C 243.648 -1.6911 -1.1481 0
M  V30 2511 C 244.012 -0.41969 -1.87357 0
M  V30 2512 O 245.213 -0.461034 -2.64817 0
M  V30 2513 C 243.484 -2.88909 -2.10395 0
M  V30 2514 S 245.043 -3.25977 -2.93742 0
M  V30 2515 H 241.861 -0.595337 -0.38871 0
M  V30 2516 H 244.463 -1.90641 -0.433178 0
M  V30 2517 H 243.167 -3.79672 -1.55812 0
M  V30 2518 H 242.698 -2.69698 -2.86403 0
M  V30 2519 H 244.713 -2.75806 -4.12487 0
M  V30 2520 N 243.887 0.651787 -1.4349 0
M  V30 2521 C 245.133 1.4121 -1.46395 0
M  V30 2522 C 245.488 1.92202 -0.087366 0
M  V30 2523 O 244.781 1.69452 0.894231 0
M  V30 2524 C 244.975 2.60914 -2.44251 0
M  V30 2525 C 244.804 2.21639 -3.91288 0
M  V30 2526 C 243.574 2.09897 -4.59643 0
M  V30 2527 C 245.772 1.81835 -4.81083 0
M  V30 2528 N 243.754 1.63967 -5.91598 0
M  V30 2529 C 245.125 1.46998 -6.02322 0
M  V30 2530 C 247.18 1.69031 -4.6833 0
M  V30 2531 C 245.883 1.00638 -7.12225 0
M  V30 2532 C 247.909 1.24077 -5.78238 0
M  V30 2533 C 247.271 0.901772 -6.98604 0
M  V30 2534 H 243.37 0.512322 -0.590805 0
M  V30 2535 H 245.954 0.74989 -1.7968 0
M  V30 2536 H 244.125 3.24792 -2.1299 0
M  V30 2537 H 245.857 3.27622 -2.37584 0
M  V30 2538 H 242.612 2.297 -4.14168 0
M  V30 2539 H 243.036 1.43359 -6.61647 0
M  V30 2540 H 247.678 1.93878 -3.75727 0
M  V30 2541 H 245.396 0.745399 -8.04655 0
M  V30 2542 H 248.982 1.14657 -5.7039 0
M  V30 2543 H 247.862 0.559226 -7.82203 0
M  V30 2544 N 245.365 1.30045 0.890287 0
M  V30 2545 C 246.59 1.21598 1.68014 0
M  V30 2546 C 247.015 -0.218678 1.86825 0
M  V30 2547 O 246.373 -1.15756 1.39536 0
M  V30 2548 C 246.421 1.94434 3.03691 0
M  V30 2549 O 245.525 1.2678 3.92429 0
M  V30 2550 H 244.866 0.420856 0.513592 0
M  V30 2551 H 247.396 1.71775 1.11151 0
M  V30 2552 H 247.406 2.03251 3.5377 0
M  V30 2553 H 246.081 2.98777 2.89318 0
M  V30 2554 H 244.658 1.26282 3.50866 0
M  V30 2555 N 246.843 -1.10192 1.12674 0
M  V30 2556 C 247.773 -2.18652 0.819362 0
M  V30 2557 C 248.754 -1.68698 -0.217915 0
M  V30 2558 O 249.939 -1.94041 -0.0785581 0
M  V30 2559 C 247.069 -3.46202 0.27594 0
M  V30 2560 C 246.023 -4.09444 1.24656 0
M  V30 2561 C 245.349 -5.31725 0.563258 0
M  V30 2562 C 246.649 -4.52863 2.60217 0
M  V30 2563 H 248.343 -2.44622 1.72628 0
M  V30 2564 H 245.889 -1.17571 0.831451 0
M  V30 2565 H 247.842 -4.21372 0.0486149 0
M  V30 2566 H 246.566 -3.1973 -0.666331 0
M  V30 2567 H 245.225 -3.36284 1.45974 0
M  V30 2568 H 244.873 -5.0153 -0.384235 0
M  V30 2569 H 244.573 -5.74991 1.21075 0
M  V30 2570 H 246.097 -6.09624 0.34503 0
M  V30 2571 H 247.511 -5.19294 2.42913 0
M  V30 2572 H 245.908 -5.06986 3.21068 0
M  V30 2573 H 246.978 -3.65656 3.18471 0
M  V30 2574 N 248.321 -0.919034 -1.28029 0
M  V30 2575 C 249.598 -0.473668 -1.89778 0
M  V30 2576 C 249.978 1.04783 -1.83259 0
M  V30 2577 O 249.326 1.8982 -1.27202 0
M  V30 2578 C 249.536 -1.00998 -3.34066 0
M  V30 2579 C 250.884 -1.06525 -4.1102 0
M  V30 2580 O 251.908 -0.958996 -3.43048 0
M  V30 2581 O 250.767 -1.22776 -5.3253 0
M  V30 2582 H 247.861 -0.15098 -0.813101 0
M  V30 2583 H 250.407 -1.01016 -1.36359 0
M  V30 2584 H 249.179 -2.05392 -3.33061 0
M  V30 2585 H 248.802 -0.454626 -3.94992 0
M  V30 2586 N 249.799 1.42003 -0.683588 0
M  V30 2587 C 251.21 1.84501 -0.285736 0
M  V30 2588 C 251.561 1.57213 1.17382 0
M  V30 2589 O 250.686 1.03642 1.89966 0
M  V30 2590 C 251.281 3.34912 -0.511821 0
M  V30 2591 C 249.84 3.76025 -0.168005 0
M  V30 2592 C 248.987 2.6551 -0.799983 0
M  V30 2593 H 251.938 1.31724 -0.885119 0
M  V30 2594 H 251.959 3.79784 0.233292 0
M  V30 2595 H 251.471 3.54741 -1.57418 0
M  V30 2596 H 249.572 3.61801 0.890567 0
M  V30 2597 H 249.685 4.75141 -0.614661 0
M  V30 2598 H 248.049 2.53654 -0.230568 0
M  V30 2599 H 248.832 2.8816 -1.86597 0
M  V30 2600 N 251.277 0.427512 1.51691 0
M  V30 2601 C 252.554 -0.201684 1.94557 0
M  V30 2602 C 252.934 -1.60981 1.36559 0
M  V30 2603 O 252.282 -2.21814 0.548702 0
M  V30 2604 C 252.492 -0.189394 3.48486 0
M  V30 2605 C 253.84 -0.39978 4.22714 0
M  V30 2606 O 254.864 -0.267945 3.55191 0
M  V30 2607 O 253.723 -0.661249 5.42485 0
M  V30 2608 H 250.817 -0.135261 0.815864 0
M  V30 2609 H 253.363 0.484782 1.62628 0
M  V30 2610 H 252.135 0.795431 3.8313 0
M  V30 2611 H 251.758 -0.919187 3.86829 0
M  V30 2612 N 252.755 -1.56801 0.158532 0
M  V30 2613 C 253.685 -2.20347 -0.772609 0
M  V30 2614 C 254.666 -1.15518 -1.24859 0
M  V30 2615 O 255.851 -1.43902 -1.30406 0
M  V30 2616 C 252.981 -2.83417 -2.00729 0
M  V30 2617 C 251.935 -3.94174 -1.66765 0
M  V30 2618 C 251.261 -4.44233 -2.97592 0
M  V30 2619 C 252.561 -5.14392 -0.905447 0
M  V30 2620 H 254.255 -2.98413 -0.242959 0
M  V30 2621 H 251.801 -1.43537 -0.115419 0
M  V30 2622 H 253.754 -3.26543 -2.6636 0
M  V30 2623 H 252.478 -2.02701 -2.56086 0
M  V30 2624 H 251.137 -3.51684 -1.03508 0
M  V30 2625 H 250.785 -3.60325 -3.50963 0
M  V30 2626 H 250.485 -5.18945 -2.75626 0
M  V30 2627 H 252.009 -4.90037 -3.64274 0
M  V30 2628 H 253.423 -5.5429 -1.46408 0
M  V30 2629 H 251.82 -5.9494 -0.7853 0
M  V30 2630 H 252.89 -4.84795 0.100668 0
M  V30 2631 N 254.233 0.115231 -1.57178 0
M  V30 2632 C 255.461 0.836437 -1.89239 0
M  V30 2633 C 255.876 1.73256 -0.750175 0
M  V30 2634 O 255.233 1.80357 0.278832 0
M  V30 2635 C 255.284 1.66671 -3.20785 0
M  V30 2636 O 255.005 0.806652 -4.3061 0
M  V30 2637 C 256.506 2.49274 -3.66575 0
M  V30 2638 H 253.726 0.240253 -0.626514 0
M  V30 2639 H 256.27 0.0984932 -2.04263 0
M  V30 2640 H 254.425 2.35737 -3.0742 0
M  V30 2641 H 254.839 1.37969 -5.06028 0
M  V30 2642 H 256.313 3.03055 -4.6137 0
M  V30 2643 H 256.79 3.26807 -2.93417 0
M  V30 2644 H 257.396 1.85443 -3.82741 0
M  V30 2645 N 255.711 1.52812 0.385517 0
M  V30 2646 C 256.659 1.78482 1.49155 0
M  V30 2647 C 257.653 0.652914 1.56312 0
M  V30 2648 O 258.859 0.835464 1.59436 0
M  V30 2649 H 255.234 0.5648 0.496493 0
M  V30 2650 H 257.205 2.71095 1.24699 0
M  V30 2651 C 255.954 1.97378 2.86247 0
M  V30 2652 H 255.277 2.83907 2.81491 0
M  V30 2653 H 256.717 2.19327 3.62866 0
M  V30 2654 C 255.176 0.74728 3.28508 0
M  V30 2655 O 255.706 -0.0736232 4.01633 0
M  V30 2656 N 253.912 0.576396 2.84826 0
M  V30 2657 H 253.459 1.24555 2.25486 0
M  V30 2658 H 253.417 -0.24288 3.1346 0
M  V30 2659 N 257.189 -0.644168 1.43834 0
M  V30 2660 C 258.438 -1.39985 1.45214 0
M  V30 2661 C 258.751 -1.95421 0.0835494 0
M  V30 2662 O 259.957 -2.71488 -0.0251748 0
M  V30 2663 C 258.413 -2.53384 2.55587 0
M  V30 2664 C 258.021 -2.04517 3.98594 0
M  V30 2665 C 259.765 -3.30685 2.66172 0
M  V30 2666 C 257.672 -3.1518 5.00416 0
M  V30 2667 H 256.602 -0.526005 0.540218 0
M  V30 2668 H 259.253 -0.694367 1.69855 0
M  V30 2669 H 257.635 -3.26446 2.24163 0
M  V30 2670 H 258.809 -1.38405 4.39523 0
M  V30 2671 H 257.124 -1.40068 3.92135 0
M  V30 2672 H 259.721 -4.13158 3.39418 0
M  V30 2673 H 260.064 -3.79312 1.71546 0
M  V30 2674 H 260.597 -2.64708 2.96942 0
M  V30 2675 H 257.336 -2.71511 5.96625 0
M  V30 2676 H 256.856 -3.79974 4.64091 0
M  V30 2677 H 258.535 -3.80166 5.23529 0
M  V30 2678 N 258.668 -1.30515 -0.883378 0
M  V30 2679 C 259.598 -1.19607 -2.00541 0
M  V30 2680 C 260.579 -0.086346 -1.69881 0
M  V30 2681 O 261.764 -0.268654 -1.92333 0
M  V30 2682 C 258.894 -0.888758 -3.35736 0
M  V30 2683 C 257.848 -1.95659 -3.8066 0
M  V30 2684 C 257.174 -1.50224 -5.13164 0
M  V30 2685 C 258.474 -3.36788 -3.99213 0
M  V30 2686 H 260.168 -2.13476 -2.09925 0
M  V30 2687 H 257.714 -1.02775 -1.00863 0
M  V30 2688 H 259.667 -0.799094 -4.13754 0
M  V30 2689 H 258.391 0.0856125 -3.26488 0
M  V30 2690 H 257.05 -2.03591 -3.04871 0
M  V30 2691 H 256.698 -0.516092 -5.00345 0
M  V30 2692 H 256.398 -2.2165 -5.44192 0
M  V30 2693 H 257.922 -1.42639 -5.93706 0
M  V30 2694 H 259.336 -3.31605 -4.67665 0
M  V30 2695 H 257.733 -4.06314 -4.41621 0
M  V30 2696 H 258.803 -3.78561 -3.03017 0
M  V30 2697 N 260.146 1.09593 -1.13257 0
M  V30 2698 C 261.109 2.14359 -0.811358 0
M  V30 2699 C 262.109 1.59808 0.178377 0
M  V30 2700 O 263.299 1.74132 -0.0484911 0
M  V30 2701 C 260.431 3.40269 -0.207276 0
M  V30 2702 H 261.624 2.44284 -1.73969 0
M  V30 2703 H 259.177 1.25102 -0.936973 0
M  V30 2704 H 259.912 3.15969 0.73036 0
M  V30 2705 H 259.697 3.81154 -0.919992 0
M  V30 2706 H 261.187 4.176 0.000667944 0
M  V30 2707 N 261.624 0.925811 1.2754 0
M  V30 2708 C 262.849 0.580924 1.99098 0
M  V30 2709 C 263.274 -0.833555 1.68622 0
M  V30 2710 O 262.632 -1.55903 0.925422 0
M  V30 2711 C 262.68 0.811186 3.51358 0
M  V30 2712 O 261.784 -0.124129 4.12213 0
M  V30 2713 H 261.125 0.223873 0.625122 0
M  V30 2714 H 263.655 1.24455 1.62395 0
M  V30 2715 H 263.665 0.72601 4.01489 0
M  V30 2716 H 262.34 1.84227 3.72872 0
M  V30 2717 H 260.917 0.0108006 3.72898 0
M  V30 2718 N 263.102 -1.41638 0.69111 0
M  V30 2719 C 264.327 -2.06148 0.227583 0
M  V30 2720 C 264.752 -1.51652 -1.11281 0
M  V30 2721 O 264.11 -0.64164 -1.69566 0
M  V30 2722 C 264.158 -3.60095 0.190858 0
M  V30 2723 O 263.262 -4.03845 -0.835664 0
M  V30 2724 H 262.603 -0.654434 0.112306 0
M  V30 2725 H 265.133 -1.81484 0.944714 0
M  V30 2726 H 265.143 -4.07995 0.020207 0
M  V30 2727 H 263.818 -3.99129 1.16915 0
M  V30 2728 H 262.395 -3.67458 -0.63473 0
M  V30 2729 N 264.58 -0.43555 -1.51462 0
M  V30 2730 C 265.996 -0.0877501 -1.59359 0
M  V30 2731 C 266.196 1.4027 -1.4466 0
M  V30 2732 O 265.252 2.17243 -1.28693 0
M  V30 2733 C 266.565 -0.606264 -2.94525 0
M  V30 2734 C 268.113 -0.566548 -3.0783 0
M  V30 2735 C 268.588 -1.06201 -4.45517 0
M  V30 2736 N 270.079 -1.01992 -4.51832 0
M  V30 2737 C 270.814 -1.37417 -5.5669 0
M  V30 2738 N 270.31 -1.80119 -6.68976 0
M  V30 2739 N 272.103 -1.29245 -5.47039 0
M  V30 2740 H 264.254 -1.40533 -1.59261 0
M  V30 2741 H 266.517 -0.578992 -0.750648 0
M  V30 2742 H 266.223 -1.64901 -3.10645 0
M  V30 2743 H 266.097 -0.0302097 -3.77188 0
M  V30 2744 H 268.484 0.467208 -2.91378 0
M  V30 2745 H 268.565 -1.17898 -2.2701 0
M  V30 2746 H 268.209 -2.09422 -4.62715 0
M  V30 2747 H 268.139 -0.426127 -5.24873 0
M  V30 2748 H 270.63 -0.706308 -3.71241 0
M  V30 2749 H 270.943 -2.05392 -7.45006 0
M  V30 2750 H 269.288 -1.84044 -6.70189 0
M  V30 2751 H 272.479 -0.957522 -4.58202 0
M  V30 2752 H 272.652 -1.57182 -6.28648 0
M  V30 2753 N 266.058 1.56714 -0.166846 0
M  V30 2754 C 267.283 2.01557 0.488833 0
M  V30 2755 C 267.708 1.0463 1.56314 0
M  V30 2756 O 267.066 0.0251304 1.81283 0
M  V30 2757 C 267.114 3.4503 1.04818 0
M  V30 2758 O 266.218 3.51163 2.16236 0
M  V30 2759 H 265.559 0.653516 0.117526 0
M  V30 2760 H 268.089 2.02818 -0.269421 0
M  V30 2761 H 268.099 3.84243 1.37191 0
M  V30 2762 H 266.774 4.15077 0.261572 0
M  V30 2763 H 265.351 3.23807 1.84942 0
M  V30 2764 N 267.536 -0.106894 1.57237 0
M  V30 2765 C 268.766 -0.825191 1.89405 0
M  V30 2766 C 269.174 -1.73374 0.757496 0
M  V30 2767 O 268.517 -1.81552 -0.280115 0
M  V30 2768 C 268.579 -1.70102 3.1671 0
M  V30 2769 C 268.243 -0.965523 4.46684 0
M  V30 2770 C 269.24 -0.300741 5.19029 0
M  V30 2771 C 266.925 -0.943105 4.93367 0
M  V30 2772 C 268.919 0.376622 6.36286 0
M  V30 2773 C 266.606 -0.261949 6.10538 0
M  V30 2774 C 267.604 0.396748 6.81847 0
M  V30 2775 O 267.292 1.06701 7.96787 0
M  V30 2776 H 267.024 -0.241852 0.631255 0
M  V30 2777 H 269.578 -0.0921491 2.05193 0
M  V30 2778 H 267.808 -2.47601 2.97036 0
M  V30 2779 H 269.497 -2.29483 3.34802 0
M  V30 2780 H 270.263 -0.309599 4.84011 0
M  V30 2781 H 266.142 -1.44524 4.3776 0
M  V30 2782 H 269.686 0.891334 6.91882 0
M  V30 2783 H 265.583 -0.250896 6.45012 0
M  V30 2784 H 266.351 0.972707 8.127 0
M  V30 2785 N 269.014 -1.53014 -0.377408 0
M  V30 2786 C 269.977 -1.77957 -1.44444 0
M  V30 2787 C 270.977 -0.649763 -1.47087 0
M  V30 2788 O 272.167 -0.917897 -1.48055 0
M  V30 2789 C 269.299 -1.89089 -2.83651 0
M  V30 2790 H 270.492 -2.73243 -1.23606 0
M  V30 2791 H 268.045 -1.43912 -0.609844 0
M  V30 2792 H 268.78 -0.958293 -3.09818 0
M  V30 2793 H 268.565 -2.71254 -2.83132 0
M  V30 2794 H 270.055 -2.1002 -3.60945 0
M  V30 2795 N 270.492 0.636531 -1.44174 0
M  V30 2796 C 271.425 1.76139 -1.45087 0
M  V30 2797 C 272.403 1.59611 -0.310326 0
M  V30 2798 O 273.587 1.81568 -0.506477 0
M  V30 2799 C 270.714 3.13648 -1.27839 0
M  V30 2800 C 269.76 3.48838 -2.45386 0
M  V30 2801 S 270.593 3.46927 -4.07924 0
M  V30 2802 C 271.749 4.87064 -3.9309 0
M  V30 2803 H 271.982 1.75096 -2.40268 0
M  V30 2804 H 269.515 0.810666 -1.31406 0
M  V30 2805 H 271.473 3.93002 -1.18575 0
M  V30 2806 H 270.134 3.12235 -0.341787 0
M  V30 2807 H 269.327 4.48886 -2.29167 0
M  V30 2808 H 268.929 2.76935 -2.51362 0
M  V30 2809 H 271.221 5.76153 -3.56446 0
M  V30 2810 H 272.164 5.08337 -4.92949 0
M  V30 2811 H 272.572 4.61384 -3.25246 0
M  V30 2812 N 271.97 1.30982 0.876444 0
M  V30 2813 C 272.9 1.20668 1.99903 0
M  V30 2814 C 273.881 0.095354 1.69833 0
M  V30 2815 O 275.066 0.27885 1.92188 0
M  V30 2816 C 272.196 0.90655 3.3526 0
M  V30 2817 C 271.15 1.97675 3.79617 0
M  V30 2818 C 270.476 1.52943 5.1236 0
M  V30 2819 C 271.776 3.389 3.97422 0
M  V30 2820 H 273.47 2.14586 2.0879 0
M  V30 2821 H 271.016 1.03308 1.00317 0
M  V30 2822 H 272.969 0.821025 4.13324 0
M  V30 2823 H 271.693 -0.0682969 3.26529 0
M  V30 2824 H 270.352 2.05205 3.03787 0
M  V30 2825 H 270 0.54262 5.00065 0
M  V30 2826 H 269.7 2.24532 5.43009 0
M  V30 2827 H 271.224 1.45786 5.92941 0
M  V30 2828 H 272.638 3.34081 4.659 0
M  V30 2829 H 271.035 4.0865 4.3946 0
M  V30 2830 H 272.105 3.80163 3.01006 0
M  V30 2831 N 273.449 -1.08991 1.13837 0
M  V30 2832 C 274.379 -2.17771 0.842507 0
M  V30 2833 C 275.36 -1.6892 -0.20001 0
M  V30 2834 O 276.545 -1.94113 -0.0579731 0
M  V30 2835 C 273.675 -3.4589 0.312644 0
M  V30 2836 C 272.629 -4.08099 1.28992 0
M  V30 2837 C 271.955 -5.31098 0.619623 0
M  V30 2838 C 273.255 -4.50077 2.65005 0
M  V30 2839 H 274.949 -2.42777 1.75213 0
M  V30 2840 H 272.495 -1.16682 0.843875 0
M  V30 2841 H 274.448 -4.21297 0.0933043 0
M  V30 2842 H 273.172 -3.20419 -0.632382 0
M  V30 2843 H 271.831 -3.34717 1.49533 0
M  V30 2844 H 271.479 -5.0191 -0.33102 0
M  V30 2845 H 271.179 -5.73674 1.27167 0
M  V30 2846 H 272.703 -6.09224 0.409669 0
M  V30 2847 H 274.117 -5.16688 2.48407 0
M  V30 2848 H 272.514 -5.03553 3.26427 0
M  V30 2849 H 273.584 -3.62257 3.22332 0
M  V30 2850 N 274.927 -0.932562 -1.27047 0
M  V30 2851 C 276.174 -0.575559 -1.94148 0
M  V30 2852 C 276.502 0.883984 -1.73251 0
M  V30 2853 O 275.757 1.64655 -1.0577 0
M  V30 2854 C 276.056 -0.853713 -3.47054 0
M  V30 2855 C 275.722 -2.29577 -3.88079 0
M  V30 2856 C 274.384 -2.68999 -3.9899 0
M  V30 2857 C 276.736 -3.23331 -4.08787 0
M  V30 2858 C 274.064 -4.01289 -4.28 0
M  V30 2859 C 276.416 -4.55207 -4.39282 0
M  V30 2860 C 275.08 -4.94457 -4.48407 0
M  V30 2861 H 274.35 -0.210612 -0.710439 0
M  V30 2862 H 276.997 -1.17744 -1.51025 0
M  V30 2863 H 275.302 -0.169204 -3.91434 0
M  V30 2864 H 276.999 -0.55639 -3.97121 0
M  V30 2865 H 273.589 -1.97994 -3.80127 0
M  V30 2866 H 277.773 -2.94074 -3.99793 0
M  V30 2867 H 273.029 -4.31374 -4.33275 0
M  V30 2868 H 277.203 -5.27852 -4.54252 0
M  V30 2869 H 274.83 -5.96994 -4.7064 0
M  V30 2870 N 276.405 1.4127 -0.698611 0
M  V30 2871 C 277.368 2.29158 -0.044132 0
M  V30 2872 C 278.368 1.44529 0.704841 0
M  V30 2873 O 279.558 1.65643 0.539276 0
M  V30 2874 C 276.69 3.27459 0.947809 0
M  V30 2875 H 277.883 2.88529 -0.817994 0
M  V30 2876 H 275.436 1.49307 -0.46228 0
M  V30 2877 H 276.171 2.73073 1.74933 0
M  V30 2878 H 275.956 3.8991 0.41385 0
M  V30 2879 H 277.446 3.93311 1.40344 0
M  V30 2880 N 277.883 0.443576 1.51229 0
M  V30 2881 C 279.129 -0.11321 2.03085 0
M  V30 2882 C 279.484 -1.39841 1.32145 0
M  V30 2883 O 278.777 -1.86723 0.429542 0
M  V30 2884 C 278.971 -0.380579 3.55368 0
M  V30 2885 C 278.8 0.877157 4.41062 0
M  V30 2886 C 277.57 1.4125 4.85156 0
M  V30 2887 C 279.768 1.76503 4.83064 0
M  V30 2888 N 277.75 2.62213 5.55083 0
M  V30 2889 C 279.121 2.82067 5.52122 0
M  V30 2890 C 281.176 1.7787 4.65045 0
M  V30 2891 C 279.879 3.88952 6.05069 0
M  V30 2892 C 281.905 2.83694 5.18914 0
M  V30 2893 C 281.267 3.87978 5.87922 0
M  V30 2894 H 277.366 -0.00210178 0.781997 0
M  V30 2895 H 279.95 0.605641 1.85041 0
M  V30 2896 H 278.121 -1.06847 3.73414 0
M  V30 2897 H 279.853 -0.929274 3.93887 0
M  V30 2898 H 276.608 0.965542 4.63653 0
M  V30 2899 H 277.032 3.23568 5.9467 0
M  V30 2900 H 281.674 0.985744 4.11148 0
M  V30 2901 H 279.392 4.69082 6.58018 0
M  V30 2902 H 282.978 2.85702 5.06819 0
M  V30 2903 H 281.858 4.68517 6.28857 0
M  V30 2904 N 279.361 -1.56624 0.175154 0
M  V30 2905 C 280.271 -2.21741 -0.766042 0
M  V30 2906 C 281.287 -1.21023 -1.25018 0
M  V30 2907 O 282.463 -1.53697 -1.3015 0
M  V30 2908 C 279.528 -2.84839 -1.97655 0
M  V30 2909 C 278.589 -4.00769 -1.53892 0
M  V30 2910 C 277.822 -4.60849 -2.69173 0
M  V30 2911 O 278.045 -4.19823 -3.86141 0
M  V30 2912 O 276.979 -5.50655 -2.43028 0
M  V30 2913 H 280.805 -3.02738 -0.241585 0
M  V30 2914 H 278.39 -1.49305 -0.053222 0
M  V30 2915 H 280.272 -3.24834 -2.68442 0
M  V30 2916 H 278.947 -2.06836 -2.48999 0
M  V30 2917 H 277.854 -3.65436 -0.80044 0
M  V30 2918 H 279.187 -4.80376 -1.07236 0
M  V30 2919 N 280.839 0.0985539 -1.57292 0
M  V30 2920 C 282.087 0.801092 -1.85545 0
M  V30 2921 C 282.408 1.79438 -0.763353 0
M  V30 2922 O 281.678 1.94763 0.21073 0
M  V30 2923 H 280.258 0.29884 -0.684619 0
M  V30 2924 H 282.92 0.0810064 -1.94732 0
M  V30 2925 H 282.016 1.3338 -2.82163 0
M  V30 2926 N 282.317 1.53212 0.369288 0
M  V30 2927 C 283.563 1.70413 1.11046 0
M  V30 2928 C 283.918 0.448509 1.87099 0
M  V30 2929 O 283.211 -0.558382 1.83283 0
M  V30 2930 C 283.405 2.89101 2.10132 0
M  V30 2931 C 283.234 4.26084 1.43814 0
M  V30 2932 C 282.004 4.90994 1.19384 0
M  V30 2933 C 284.202 5.06754 0.877802 0
M  V30 2934 N 282.184 6.11911 0.49377 0
M  V30 2935 C 283.555 6.1924 0.306891 0
M  V30 2936 C 285.61 4.91814 0.776129 0
M  V30 2937 C 284.313 7.1842 -0.355774 0
M  V30 2938 C 286.339 5.91263 0.127252 0
M  V30 2939 C 285.701 7.03069 -0.432801 0
M  V30 2940 H 281.8 0.676872 0.391623 0
M  V30 2941 H 284.384 1.90603 0.397334 0
M  V30 2942 H 282.555 2.70456 2.78761 0
M  V30 2943 H 284.287 2.95142 2.76899 0
M  V30 2944 H 281.042 4.50074 1.47413 0
M  V30 2945 H 281.466 6.76813 0.159207 0
M  V30 2946 H 286.108 4.05564 1.19489 0
M  V30 2947 H 283.826 8.04264 -0.786499 0
M  V30 2948 H 287.412 5.81779 0.0495613 0
M  V30 2949 H 286.292 7.78702 -0.926958 0
M  V30 2950 N 283.795 -0.628877 1.44509 0
M  V30 2951 C 284.745 -1.7345 1.47983 0
M  V30 2952 C 285.729 -1.5715 0.345373 0
M  V30 2953 O 286.921 -1.66848 0.590829 0
M  V30 2954 C 284.05 -3.12143 1.42904 0
M  V30 2955 C 283.136 -3.33906 2.61472 0
M  V30 2956 N 283.527 -3.26024 3.86706 0
M  V30 2957 C 281.825 -3.64709 2.56716 0
M  V30 2958 C 282.526 -3.48536 4.65722 0
M  V30 2959 N 281.502 -3.71517 3.96832 0
M  V30 2960 H 285.304 -1.65818 2.42655 0
M  V30 2961 H 282.818 -0.831419 1.39503 0
M  V30 2962 H 284.815 -3.91433 1.43476 0
M  V30 2963 H 283.475 -3.2094 0.492717 0
M  V30 2964 H 284.486 -3.04893 4.18641 0
M  V30 2965 H 281.163 -3.80473 1.71891 0
M  V30 2966 H 282.553 -3.48016 5.74747 0
M  V30 2967 N 285.273 -1.31445 -0.869486 0
M  V30 2968 C 286.221 -1.19067 -1.99814 0
M  V30 2969 C 287.215 -0.0988569 -1.69111 0
M  V30 2970 O 288.421 -0.260781 -1.78101 0
M  V30 2971 H 284.796 -0.368677 -0.655425 0
M  V30 2972 H 286.767 -2.14555 -2.07385 0
M  V30 2973 C 285.516 -0.915323 -3.35436 0
M  V30 2974 H 284.839 -1.74759 -3.59582 0
M  V30 2975 H 286.279 -0.868895 -4.15001 0
M  V30 2976 C 284.738 0.381928 -3.34728 0
M  V30 2977 O 285.268 1.39857 -3.76567 0
M  V30 2978 N 283.474 0.398633 -2.87853 0
M  V30 2979 H 283.021 -0.429186 -2.54 0
M  V30 2980 H 282.979 1.26651 -2.87762 0
M  V30 2981 N 286.751 1.08385 -1.14413 0
M  V30 2982 C 287.714 2.13486 -0.834048 0
M  V30 2983 C 288.714 1.59988 0.161418 0
M  V30 2984 O 289.904 1.74071 -0.0669575 0
M  V30 2985 C 287.036 3.4003 -0.243354 0
M  V30 2986 H 288.229 2.42425 -1.7655 0
M  V30 2987 H 285.782 1.24101 -0.950189 0
M  V30 2988 H 286.517 3.16726 0.696807 0
M  V30 2989 H 286.302 3.80157 -0.960367 0
M  V30 2990 H 287.792 4.17577 -0.0436242 0
M  V30 2991 N 288.23 0.939286 1.26551 0
M  V30 2992 C 289.193 0.451987 2.24699 0
M  V30 2993 C 290.193 -0.435869 1.5478 0
M  V30 2994 O 291.383 -0.235314 1.72603 0
M  V30 2995 C 288.515 -0.348801 3.39111 0
M  V30 2996 H 289.708 1.3193 2.69322 0
M  V30 2997 H 287.261 0.721072 1.38673 0
M  V30 2998 H 287.996 -1.23444 2.99887 0
M  V30 2999 H 287.781 0.287945 3.91041 0
M  V30 3000 H 289.271 -0.679726 4.12031 0
M  V30 3001 N 289.708 -1.40897 0.706093 0
M  V30 3002 C 290.956 -2.00657 0.241054 0
M  V30 3003 C 291.277 -1.56241 -1.16678 0
M  V30 3004 O 290.547 -0.79765 -1.78926 0
M  V30 3005 H 289.127 -0.742018 0.0861308 0
M  V30 3006 H 291.789 -1.72372 0.909604 0
M  V30 3007 H 290.885 -3.10958 0.266705 0
M  V30 3008 N 291.186 -0.45159 -1.50991 0
M  V30 3009 C 292.435 0.111653 -2.01391 0
M  V30 3010 C 292.748 1.42529 -1.33959 0
M  V30 3011 O 293.954 2.07232 -1.75405 0
M  V30 3012 C 292.41 0.249514 -3.59034 0
M  V30 3013 C 292.018 -1.05453 -4.35412 0
M  V30 3014 C 293.762 0.765762 -4.17536 0
M  V30 3015 C 291.669 -0.881529 -5.84793 0
M  V30 3016 H 290.599 0.0455022 -0.752626 0
M  V30 3017 H 293.25 -0.583524 -1.73975 0
M  V30 3018 H 291.632 1.00803 -3.82955 0
M  V30 3019 H 292.806 -1.82248 -4.23229 0
M  V30 3020 H 291.121 -1.50039 -3.88429 0
M  V30 3021 H 293.718 0.911913 -5.26866 0
M  V30 3022 H 294.061 1.75201 -3.77638 0
M  V30 3023 H 294.594 0.0651744 -3.97747 0
M  V30 3024 H 291.333 -1.84057 -6.29129 0
M  V30 3025 H 290.853 -0.153625 -5.99603 0
M  V30 3026 H 292.532 -0.540363 -6.4474 0
M  V30 3027 N 292.664 1.56529 -0.183458 0
M  V30 3028 C 294.075 1.83739 0.331177 0
M  V30 3029 C 294.426 1.10373 1.62211 0
M  V30 3030 O 293.551 0.36071 2.13373 0
M  V30 3031 C 294.146 3.33306 0.607646 0
M  V30 3032 C 292.705 3.60969 1.06668 0
M  V30 3033 C 291.852 2.77086 0.109029 0
M  V30 3034 H 294.803 1.53379 -0.407484 0
M  V30 3035 H 294.824 3.51444 1.45832 0
M  V30 3036 H 294.336 3.86677 -0.332086 0
M  V30 3037 H 292.437 3.13021 2.0211 0
M  V30 3038 H 292.55 4.69231 0.967447 0
M  V30 3039 H 290.914 2.47319 0.608714 0
M  V30 3040 H 291.697 3.33241 -0.82494 0
M  V30 3041 N 294.142 -0.090211 1.57342 0
M  V30 3042 C 295.072 -1.10976 2.05443 0
M  V30 3043 C 296.053 -1.41482 0.944284 0
M  V30 3044 O 297.238 -1.51428 1.21586 0
M  V30 3045 C 294.368 -2.42831 2.48295 0
M  V30 3046 C 293.322 -2.26721 3.63018 0
M  V30 3047 C 292.648 -3.63796 3.91863 0
M  V30 3048 C 293.948 -1.7037 4.93732 0
M  V30 3049 H 295.642 -0.709564 2.9087 0
M  V30 3050 H 293.188 -0.339874 1.39932 0
M  V30 3051 H 295.141 -3.14431 2.80555 0
M  V30 3052 H 293.865 -2.84795 1.59873 0
M  V30 3053 H 292.524 -1.57565 3.31012 0
M  V30 3054 H 292.172 -4.03297 3.00601 0
M  V30 3055 H 291.872 -3.53861 4.69101 0
M  V30 3056 H 293.396 -4.36855 4.26603 0
M  V30 3057 H 294.81 -2.31816 5.24342 0
M  V30 3058 H 293.207 -1.71181 5.75167 0
M  V30 3059 H 294.277 -0.663542 4.80339 0
M  V30 3060 N 295.62 -1.53406 -0.361157 0
M  V30 3061 C 296.567 -1.80156 -1.44265 0
M  V30 3062 C 297.537 -0.646183 -1.53015 0
M  V30 3063 O 298.722 -0.888818 -1.68833 0
M  V30 3064 C 295.862 -2.00116 -2.81154 0
M  V30 3065 C 294.975 -3.27833 -2.81335 0
M  V30 3066 C 294.11 -3.37957 -4.09828 0
M  V30 3067 C 293.149 -4.59689 -4.04168 0
M  V30 3068 N 292.286 -4.66942 -5.24318 0
M  V30 3069 H 297.126 -2.72438 -1.20754 0
M  V30 3070 H 294.663 -1.34954 -0.585296 0
M  V30 3071 H 296.621 -2.09677 -3.60682 0
M  V30 3072 H 295.251 -1.11167 -3.03054 0
M  V30 3073 H 294.303 -3.27204 -1.94014 0
M  V30 3074 H 295.615 -4.17442 -2.73027 0
M  V30 3075 H 294.769 -3.46853 -4.97773 0
M  V30 3076 H 293.508 -2.46372 -4.20894 0
M  V30 3077 H 292.513 -4.50889 -3.14609 0
M  V30 3078 H 293.738 -5.5262 -3.947 0
M  V30 3079 H 291.684 -3.7826 -5.35962 0
M  V30 3080 H 291.601 -5.50462 -5.18197 0
M  V30 3081 H 292.869 -4.80127 -6.14084 0
M  V30 3082 N 297.098 0.621204 -1.44841 0
M  V30 3083 C 298.509 1.20298 -1.42777 0
M  V30 3084 C 298.86 1.95639 -0.148259 0
M  V30 3085 O 297.985 2.02955 0.750892 0
M  V30 3086 C 298.58 2.1882 -2.58657 0
M  V30 3087 C 297.139 2.72403 -2.59756 0
M  V30 3088 C 296.286 1.4757 -2.34773 0
M  V30 3089 H 299.237 0.411297 -1.53278 0
M  V30 3090 H 299.258 3.01607 -2.31977 0
M  V30 3091 H 298.77 1.63957 -3.51766 0
M  V30 3092 H 296.871 3.31242 -1.70615 0
M  V30 3093 H 296.984 3.17765 -3.58556 0
M  V30 3094 H 295.348 1.76051 -1.8406 0
M  V30 3095 H 296.131 0.945954 -3.3001 0
M  V30 3096 N 298.576 1.31904 0.862503 0
M  V30 3097 C 299.506 1.22782 1.98612 0
M  V30 3098 C 300.487 0.113362 1.69722 0
M  V30 3099 O 301.672 0.299218 1.91881 0
M  V30 3100 C 298.802 0.942058 3.34279 0
M  V30 3101 C 297.756 2.0169 3.77499 0
M  V30 3102 C 297.082 1.58369 5.10709 0
M  V30 3103 C 298.382 3.43096 3.93805 0
M  V30 3104 H 300.076 2.16788 2.06502 0
M  V30 3105 H 297.622 1.04366 0.992154 0
M  V30 3106 H 299.575 0.864818 4.1243 0
M  V30 3107 H 298.299 -0.0336603 3.26583 0
M  V30 3108 H 296.958 2.08416 3.01593 0
M  V30 3109 H 296.606 0.595628 4.99461 0
M  V30 3110 H 296.306 2.30279 5.40597 0
M  V30 3111 H 297.83 1.52067 5.91361 0
M  V30 3112 H 299.244 3.39003 4.62331 0
M  V30 3113 H 297.641 4.13288 4.35101 0
M  V30 3114 H 298.711 3.83334 2.96957 0
M  V30 3115 N 300.054 -1.07777 1.14986 0
M  V30 3116 C 301.284 -1.83752 0.944402 0
M  V30 3117 C 301.692 -1.8218 -0.51058 0
M  V30 3118 O 301.035 -1.22852 -1.36576 0
M  V30 3119 C 301.097 -3.32128 1.37592 0
M  V30 3120 C 300.761 -3.57425 2.84775 0
M  V30 3121 C 301.758 -3.5173 3.8286 0
M  V30 3122 C 299.443 -3.8523 3.2234 0
M  V30 3123 C 301.437 -3.73482 5.16517 0
M  V30 3124 C 299.124 -4.06634 4.56171 0
M  V30 3125 C 300.122 -4.00754 5.53069 0
M  V30 3126 O 299.81 -4.2159 6.84483 0
M  V30 3127 H 299.542 -0.58673 0.335744 0
M  V30 3128 H 302.096 -1.36982 1.53052 0
M  V30 3129 H 300.326 -3.79686 0.733165 0
M  V30 3130 H 302.015 -3.89555 1.14024 0
M  V30 3131 H 302.781 -3.30256 3.55184 0
M  V30 3132 H 298.66 -3.88923 2.47508 0
M  V30 3133 H 302.204 -3.68808 5.92137 0
M  V30 3134 H 298.101 -4.27593 4.83564 0
M  V30 3135 H 298.869 -4.38961 6.90837 0
M  V30 3136 N 301.532 -0.945985 -1.26051 0
M  V30 3137 C 302.442 -0.465633 -2.29933 0
M  V30 3138 C 303.458 0.462761 -1.67733 0
M  V30 3139 O 304.634 0.341118 -1.9849 0
M  V30 3140 C 301.699 0.256994 -3.45746 0
M  V30 3141 C 300.76 -0.708549 -4.23412 0
M  V30 3142 C 299.993 -0.0203135 -5.33696 0
M  V30 3143 O 300.216 1.19571 -5.57726 0
M  V30 3144 O 299.15 -0.701459 -5.97799 0
M  V30 3145 H 302.976 -1.32866 -2.73094 0
M  V30 3146 H 300.561 -0.712071 -1.31339 0
M  V30 3147 H 302.443 0.663852 -4.16138 0
M  V30 3148 H 301.118 1.09533 -3.04605 0
M  V30 3149 H 300.025 -1.16545 -3.55483 0
M  V30 3150 H 301.358 -1.51465 -4.68315 0
M  V30 3151 N 303.011 1.40521 -0.713556 0
M  V30 3152 C 304.288 1.94775 -0.17943 0
M  V30 3153 C 304.668 1.65184 1.31444 0
M  V30 3154 O 304.016 0.968429 2.06963 0
M  V30 3155 C 304.226 3.45543 -0.489986 0
M  V30 3156 C 305.574 4.22442 -0.427536 0
M  V30 3157 O 306.598 3.53644 -0.425929 0
M  V30 3158 O 305.457 5.4501 -0.403292 0
M  V30 3159 H 302.551 0.826606 -0.0255192 0
M  V30 3160 H 305.097 1.5014 -0.790949 0
M  V30 3161 H 303.869 3.60432 -1.5233 0
M  V30 3162 H 303.492 3.97311 0.151598 0
M  V30 3163 N 304.489 0.459591 1.5075 0
M  V30 3164 C 305.736 -0.0993495 2.02256 0
M  V30 3165 C 306.064 -1.40751 1.34237 0
M  V30 3166 O 305.319 -1.90379 0.453228 0
M  V30 3167 C 305.618 -0.342866 3.55752 0
M  V30 3168 C 305.284 0.88218 4.42186 0
M  V30 3169 C 303.946 1.21808 4.65528 0
M  V30 3170 C 306.298 1.69837 4.92752 0
M  V30 3171 C 303.626 2.37045 5.36681 0
M  V30 3172 C 305.978 2.84192 5.65171 0
M  V30 3173 C 304.642 3.1821 5.8677 0
M  V30 3174 H 303.912 -0.0363545 0.740108 0
M  V30 3175 H 306.559 0.611329 1.8148 0
M  V30 3176 H 304.864 -1.13567 3.7498 0
M  V30 3177 H 306.561 -0.789121 3.93159 0
M  V30 3178 H 303.151 0.610467 4.2423 0
M  V30 3179 H 307.335 1.45205 4.74583 0
M  V30 3180 H 302.591 2.63689 5.51614 0
M  V30 3181 H 306.765 3.4779 6.03337 0
M  V30 3182 H 304.392 4.07613 6.41682 0
M  V30 3183 N 305.967 -1.56429 0.191757 0
M  V30 3184 C 307.195 -2.01867 -0.453586 0
M  V30 3185 C 307.61 -1.07191 -1.5542 0
M  V30 3186 O 306.967 -0.0762108 -1.82341 0
M  V30 3187 C 307.018 -3.47017 -1.013 0
M  V30 3188 O 306.739 -4.38078 0.0437005 0
M  V30 3189 C 308.24 -4.07956 -1.73456 0
M  V30 3190 H 305.46 -0.661211 -0.114199 0
M  V30 3191 H 308.004 -2.02295 0.299483 0
M  V30 3192 H 306.159 -3.47298 -1.71647 0
M  V30 3193 H 306.573 -5.23178 -0.372212 0
M  V30 3194 H 308.047 -5.1138 -2.07833 0
M  V30 3195 H 308.524 -3.51222 -2.63704 0
M  V30 3196 H 309.13 -4.11437 -1.07702 0
M  V30 3197 N 307.445 0.0818655 -1.57387 0
M  V30 3198 C 308.408 1.08265 -2.02018 0
M  V30 3199 C 309.408 1.32183 -0.915664 0
M  V30 3200 O 310.598 1.28073 -1.18081 0
M  V30 3201 C 307.73 2.42871 -2.39221 0
M  V30 3202 H 308.923 0.698204 -2.91659 0
M  V30 3203 H 306.476 0.327303 -1.52835 0
M  V30 3204 H 307.211 2.86167 -1.52575 0
M  V30 3205 H 306.996 2.26855 -3.19811 0
M  V30 3206 H 308.486 3.14826 -2.74362 0
M  V30 3207 N 308.923 1.53595 0.353017 0
M  V30 3208 C 309.853 1.83902 1.43883 0
M  V30 3209 C 310.834 0.693421 1.55324 0
M  V30 3210 O 312.019 0.944452 1.69687 0
M  V30 3211 C 309.149 2.04016 2.8106 0
M  V30 3212 C 308.103 3.19814 2.84434 0
M  V30 3213 C 307.429 3.25244 4.24406 0
M  V30 3214 C 308.729 4.58133 2.50822 0
M  V30 3215 H 310.423 2.74835 1.1877 0
M  V30 3216 H 307.969 1.32242 0.569917 0
M  V30 3217 H 309.922 2.238 3.57059 0
M  V30 3218 H 308.646 1.09804 3.07588 0
M  V30 3219 H 307.305 2.9987 2.10887 0
M  V30 3220 H 306.953 2.28646 4.48029 0
M  V30 3221 H 306.653 4.03054 4.27576 0
M  V30 3222 H 308.177 3.47228 5.0226 0
M  V30 3223 H 309.591 4.77995 3.16534 0
M  V30 3224 H 307.988 5.38276 2.6529 0
M  V30 3225 H 309.058 4.62387 1.46034 0
M  V30 3226 N 310.401 -0.613514 1.45168 0
M  V30 3227 C 311.626 -1.40437 1.52618 0
M  V30 3228 C 312.051 -1.87438 0.157707 0
M  V30 3229 O 311.409 -1.59791 -0.856537 0
M  V30 3230 C 311.457 -2.58894 2.51011 0
M  V30 3231 O 310.561 -3.59326 2.02382 0
M  V30 3232 H 309.902 -0.419506 0.514695 0
M  V30 3233 H 312.432 -0.747215 1.90467 0
M  V30 3234 H 312.442 -3.06214 2.69624 0
M  V30 3235 H 311.117 -2.24032 3.50403 0
M  V30 3236 H 309.694 -3.18695 1.93618 0
M  V30 3237 N 311.879 -1.3236 -0.855495 0
M  V30 3238 C 312.827 -1.2118 -1.9854 0
M  V30 3239 C 313.821 -0.116788 -1.68997 0
M  V30 3240 O 315.027 -0.279657 -1.77814 0
M  V30 3241 H 311.402 -0.375608 -0.651477 0
M  V30 3242 H 313.373 -2.16743 -2.05098 0
M  V30 3243 C 312.122 -0.950849 -3.34446 0
M  V30 3244 H 311.445 -1.78563 -3.57708 0
M  V30 3245 H 312.885 -0.912863 -4.14057 0
M  V30 3246 C 311.344 0.346404 -3.35114 0
M  V30 3247 O 311.874 1.35855 -3.7803 0
M  V30 3248 N 310.08 0.36808 -2.88259 0
M  V30 3249 H 309.627 -0.456102 -2.5353 0
M  V30 3250 H 309.585 1.23591 -2.89089 0
M  V30 3251 N 313.357 1.07166 -1.15556 0
M  V30 3252 C 314.267 2.17947 -0.868116 0
M  V30 3253 C 315.283 1.73297 0.156297 0
M  V30 3254 O 316.459 2.01392 -0.0182327 0
M  V30 3255 C 313.524 3.44789 -0.36355 0
M  V30 3256 C 312.585 4.03996 -1.45209 0
M  V30 3257 C 311.818 5.24783 -0.971508 0
M  V30 3258 O 312.041 5.70109 0.182194 0
M  V30 3259 O 310.975 5.75715 -1.75603 0
M  V30 3260 H 314.801 2.4503 -1.79427 0
M  V30 3261 H 312.386 1.16539 -0.934824 0
M  V30 3262 H 314.268 4.21307 -0.0887113 0
M  V30 3263 H 312.943 3.19253 0.534708 0
M  V30 3264 H 311.85 3.29009 -1.78056 0
M  V30 3265 H 313.183 4.33808 -2.32533 0
M  V30 3266 N 314.835 0.952656 1.25548 0
M  V30 3267 C 315.798 0.475794 2.24207 0
M  V30 3268 C 316.798 -0.419428 1.55234 0
M  V30 3269 O 317.988 -0.216994 1.72843 0
M  V30 3270 C 315.12 -0.312814 3.39462 0
M  V30 3271 H 316.313 1.34779 2.67908 0
M  V30 3272 H 313.866 0.735739 1.37901 0
M  V30 3273 H 314.601 -1.20257 3.01179 0
M  V30 3274 H 314.386 0.329404 3.90714 0
M  V30 3275 H 315.876 -0.635986 4.12729 0
M  V30 3276 N 316.313 -1.40141 0.720998 0
M  V30 3277 C 317.543 -2.04798 0.27226 0
M  V30 3278 C 317.951 -1.54442 -1.09289 0
M  V30 3279 O 317.294 -0.698342 -1.69908 0
M  V30 3280 C 317.356 -3.59048 0.18027 0
M  V30 3281 C 317.02 -4.32317 1.48159 0
M  V30 3282 C 318.017 -4.59902 2.42458 0
M  V30 3283 C 315.702 -4.71125 1.74202 0
M  V30 3284 C 317.696 -5.25288 3.61042 0
M  V30 3285 C 315.383 -5.36242 2.93066 0
M  V30 3286 C 316.381 -5.63254 3.86308 0
M  V30 3287 O 316.069 -6.27024 5.03086 0
M  V30 3288 H 315.801 -0.665419 0.119139 0
M  V30 3289 H 318.355 -1.80436 0.981432 0
M  V30 3290 H 316.585 -3.82251 -0.58489 0
M  V30 3291 H 318.274 -4.05221 -0.234618 0
M  V30 3292 H 319.04 -4.30379 2.23604 0
M  V30 3293 H 314.919 -4.49466 1.02477 0
M  V30 3294 H 318.463 -5.46289 4.33837 0
M  V30 3295 H 314.36 -5.65185 3.11826 0
M  V30 3296 H 315.128 -6.4552 5.03235 0
M  V30 3297 N 317.792 -0.46758 -1.50504 0
M  V30 3298 C 318.739 0.328413 -2.28452 0
M  V30 3299 C 319.709 0.990313 -1.33349 0
M  V30 3300 O 320.894 1.00343 -1.62284 0
M  V30 3301 C 318.034 1.40648 -3.15138 0
M  V30 3302 C 317.147 0.759709 -4.25267 0
M  V30 3303 C 316.282 1.81537 -4.99217 0
M  V30 3304 C 315.321 1.14866 -6.01226 0
M  V30 3305 N 314.458 2.14702 -6.68467 0
M  V30 3306 H 319.298 -0.342603 -2.96024 0
M  V30 3307 H 316.835 -0.180801 -1.45985 0
M  V30 3308 H 318.793 2.04315 -3.63746 0
M  V30 3309 H 317.423 2.04671 -2.49619 0
M  V30 3310 H 316.475 0.0105671 -3.80399 0
M  V30 3311 H 317.787 0.233243 -4.98254 0
M  V30 3312 H 316.941 2.52793 -5.51526 0
M  V30 3313 H 315.68 2.37564 -4.25928 0
M  V30 3314 H 314.685 0.42171 -5.4818 0
M  V30 3315 H 315.91 0.595334 -6.76485 0
M  V30 3316 H 313.856 2.69752 -5.97972 0
M  V30 3317 H 313.773 1.6703 -7.37317 0
M  V30 3318 H 315.041 2.85348 -7.25394 0
M  V30 3319 N 319.27 1.56325 -0.20005 0
M  V30 3320 C 320.202 2.16555 0.750771 0
M  V30 3321 C 321.215 1.12871 1.1732 0
M  V30 3322 O 322.404 1.39943 1.10807 0
M  V30 3323 C 319.504 2.71684 2.02586 0
M  V30 3324 C 318.677 4.00321 1.76244 0
M  V30 3325 C 317.736 4.40227 2.88248 0
M  V30 3326 O 316.762 5.07552 2.57642 0
M  V30 3327 N 317.964 4.04138 4.16717 0
M  V30 3328 H 320.729 2.98772 0.235685 0
M  V30 3329 H 318.29 1.6189 -0.0182594 0
M  V30 3330 H 320.282 2.95363 2.76664 0
M  V30 3331 H 318.852 1.93893 2.45202 0
M  V30 3332 H 318.072 3.84723 0.85919 0
M  V30 3333 H 319.36 4.84279 1.56048 0
M  V30 3334 H 318.758 3.49993 4.44434 0
M  V30 3335 H 317.315 4.32756 4.87407 0
M  V30 3336 N 320.748 -0.0735177 1.57428 0
M  V30 3337 C 322.025 -0.805903 1.78226 0
M  V30 3338 C 322.405 -1.95874 0.787189 0
M  V30 3339 O 321.753 -2.2779 -0.180029 0
M  V30 3340 C 321.963 -1.28045 3.24662 0
M  V30 3341 C 323.311 -1.71453 3.88444 0
M  V30 3342 O 324.335 -1.37616 3.28543 0
M  V30 3343 O 323.194 -2.34093 4.93825 0
M  V30 3344 H 320.288 -0.386041 0.73137 0
M  V30 3345 H 322.834 -0.0537269 1.69615 0
M  V30 3346 H 321.606 -0.455476 3.8864 0
M  V30 3347 H 321.229 -2.094 3.37991 0
M  V30 3348 N 322.226 -1.5378 -0.344866 0
M  V30 3349 C 323.474 -1.70625 -1.08311 0
M  V30 3350 C 323.795 -0.471447 -1.89215 0
M  V30 3351 O 323.065 0.514616 -1.8902 0
M  V30 3352 H 321.645 -0.629058 -0.402859 0
M  V30 3353 H 324.307 -1.9103 -0.386459 0
M  V30 3354 H 323.403 -2.57656 -1.76124 0
M  V30 3355 N 323.704 0.605807 -1.45491 0
M  V30 3356 C 324.951 1.36476 -1.49601 0
M  V30 3357 C 325.279 1.94007 -0.138452 0
M  V30 3358 O 324.534 1.75638 0.863114 0
M  V30 3359 C 324.833 2.53012 -2.52428 0
M  V30 3360 C 324.499 2.13617 -3.97087 0
M  V30 3361 C 323.161 2.02587 -4.36477 0
M  V30 3362 C 325.513 1.82899 -4.88055 0
M  V30 3363 C 322.841 1.59064 -5.64726 0
M  V30 3364 C 325.193 1.40861 -6.16718 0
M  V30 3365 C 323.857 1.28391 -6.55036 0
M  V30 3366 H 323.127 0.499402 -0.547429 0
M  V30 3367 H 325.774 0.684546 -1.78847 0
M  V30 3368 H 324.079 3.26379 -2.16758 0
M  V30 3369 H 325.776 3.1124 -2.52845 0
M  V30 3370 H 322.366 2.23129 -3.65939 0
M  V30 3371 H 326.55 1.90317 -4.58359 0
M  V30 3372 H 321.806 1.48034 -5.93208 0
M  V30 3373 H 325.98 1.16138 -6.86648 0
M  V30 3374 H 323.607 0.944403 -7.54311 0
M  V30 3375 N 325.182 1.32811 0.848464 0
M  V30 3376 C 326.41 1.26739 1.63538 0
M  V30 3377 C 326.825 -0.163484 1.88091 0
M  V30 3378 O 326.182 -1.10258 1.45429 0
M  V30 3379 C 326.233 2.03013 2.99112 0
M  V30 3380 O 325.954 3.40518 2.75643 0
M  V30 3381 C 327.455 2.04038 3.93552 0
M  V30 3382 H 324.675 0.437024 0.509167 0
M  V30 3383 H 327.219 1.75033 1.05753 0
M  V30 3384 H 325.374 1.58426 3.53525 0
M  V30 3385 H 325.788 3.79635 3.61908 0
M  V30 3386 H 327.262 2.61877 4.85926 0
M  V30 3387 H 327.739 1.0282 4.26995 0
M  V30 3388 H 328.345 2.486 3.45077 0
M  V30 3389 N 326.66 -1.06551 1.16123 0
M  V30 3390 C 327.937 -1.76097 0.85142 0
M  V30 3391 C 328.317 -2.00802 -0.6513 0
M  V30 3392 O 327.665 -1.63302 -1.59827 0
M  V30 3393 C 327.875 -3.06384 1.67122 0
M  V30 3394 C 329.223 -3.80585 1.88255 0
M  V30 3395 O 330.247 -3.16218 1.63966 0
M  V30 3396 O 329.106 -4.96212 2.2899 0
M  V30 3397 H 326.2 -0.765102 0.313923 0
M  V30 3398 H 328.746 -1.12844 1.26745 0
M  V30 3399 H 327.518 -2.84071 2.69108 0
M  V30 3400 H 327.141 -3.77371 1.25206 0
M  V30 3401 N 328.138 -0.959301 -1.25041 0
M  V30 3402 C 329.366 -0.633949 -1.96948 0
M  V30 3403 C 329.781 0.794916 -1.7125 0
M  V30 3404 O 329.138 1.53231 -0.991287 0
M  V30 3405 C 329.189 -0.888805 -3.50403 0
M  V30 3406 O 328.91 -2.26149 -3.75218 0
M  V30 3407 C 330.411 -0.576482 -4.39536 0
M  V30 3408 H 327.631 -0.237263 -0.627652 0
M  V30 3409 H 330.175 -1.28495 -1.59089 0
M  V30 3410 H 328.33 -0.284145 -3.86357 0
M  V30 3411 H 328.744 -2.33514 -4.6965 0
M  V30 3412 H 330.218 -0.805314 -5.46094 0
M  V30 3413 H 330.695 0.489075 -4.36468 0
M  V30 3414 H 331.301 -1.16067 -4.09156 0
M  V30 3415 N 329.616 1.39756 -0.72842 0
M  V30 3416 C 330.864 2.00248 -0.272946 0
M  V30 3417 C 331.185 1.58077 1.14178 0
M  V30 3418 O 330.455 0.826014 1.77634 0
M  V30 3419 H 329.035 0.740554 -0.0979247 0
M  V30 3420 H 331.697 1.70903 -0.936912 0
M  V30 3421 H 330.793 3.10495 -0.316142 0
M  V30 3422 N 331.094 0.475555 1.50254 0
M  V30 3423 C 332.057 -0.305016 2.27161 0
M  V30 3424 C 333.057 -0.916519 1.32123 0
M  V30 3425 O 334.247 -0.785003 1.5551 0
M  V30 3426 C 331.379 -1.43496 3.09227 0
M  V30 3427 H 332.572 0.369511 2.97615 0
M  V30 3428 H 330.125 0.229747 1.54602 0
M  V30 3429 H 330.86 -2.14441 2.43281 0
M  V30 3430 H 330.645 -1.00223 3.79075 0
M  V30 3431 H 332.135 -1.98548 3.67381 0
M  V30 3432 N 332.573 -1.56217 0.208337 0
M  V30 3433 C 333.803 -2.02043 -0.431523 0
M  V30 3434 C 334.211 -1.08755 -1.54819 0
M  V30 3435 O 333.554 -0.0870009 -1.83494 0
M  V30 3436 C 333.616 -3.44239 -1.03633 0
M  V30 3437 C 333.28 -4.56965 -0.0567502 0
M  V30 3438 C 334.277 -5.14624 0.738773 0
M  V30 3439 C 331.962 -5.02266 0.0581736 0
M  V30 3440 C 333.956 -6.16045 1.63605 0
M  V30 3441 C 331.643 -6.03528 0.959001 0
M  V30 3442 C 332.641 -6.60293 1.7465 0
M  V30 3443 O 332.329 -7.59586 2.6322 0
M  V30 3444 H 332.061 -0.666772 -0.111313 0
M  V30 3445 H 334.615 -2.02919 0.318277 0
M  V30 3446 H 332.845 -3.40391 -1.83497 0
M  V30 3447 H 334.534 -3.73793 -1.58221 0
M  V30 3448 H 335.3 -4.80483 0.660364 0
M  V30 3449 H 331.179 -4.57771 -0.544633 0
M  V30 3450 H 334.723 -6.60279 2.25116 0
M  V30 3451 H 330.62 -6.37092 1.03848 0
M  V30 3452 H 331.388 -7.77057 2.57148 0
M  V30 3453 N 334.051 0.0651679 -1.57465 0
M  V30 3454 C 335.297 0.758912 -1.88712 0
M  V30 3455 C 335.652 1.7485 -0.802819 0
M  V30 3456 O 334.945 1.90632 0.192359 0
M  V30 3457 C 335.139 1.50081 -3.24362 0
M  V30 3458 C 334.968 0.584579 -4.45884 0
M  V30 3459 C 333.738 0.219039 -5.04825 0
M  V30 3460 C 335.936 -0.121559 -5.14156 0
M  V30 3461 N 333.918 -0.702222 -6.09871 0
M  V30 3462 C 335.289 -0.899767 -6.13436 0
M  V30 3463 C 337.344 -0.192331 -4.97528 0
M  V30 3464 C 336.047 -1.74218 -6.97883 0
M  V30 3465 C 338.073 -1.02174 -5.82507 0
M  V30 3466 C 337.435 -1.78798 -6.8133 0
M  V30 3467 H 333.534 0.25293 -0.739967 0
M  V30 3468 H 336.118 0.0201744 -1.9469 0
M  V30 3469 H 334.289 2.21023 -3.1938 0
M  V30 3470 H 336.021 2.14409 -3.43236 0
M  V30 3471 H 332.776 0.57336 -4.70117 0
M  V30 3472 H 333.2 -1.15629 -6.67052 0
M  V30 3473 H 337.842 0.385741 -4.21037 0
M  V30 3474 H 335.56 -2.3312 -7.73745 0
M  V30 3475 H 339.146 -1.07957 -5.71696 0
M  V30 3476 H 338.026 -2.41942 -7.45945 0
M  V30 3477 N 335.529 1.53961 0.336706 0
M  V30 3478 C 336.945 1.44378 0.680241 0
M  V30 3479 C 337.145 0.606034 1.9217 0
M  V30 3480 O 336.201 0.099688 2.52303 0
M  V30 3481 C 337.514 2.87945 0.8665 0
M  V30 3482 C 339.062 2.97763 0.964682 0
M  V30 3483 C 339.537 4.42453 1.18321 0
M  V30 3484 N 341.028 4.46008 1.25025 0
M  V30 3485 C 341.763 5.55102 1.43697 0
M  V30 3486 N 341.259 6.7419 1.59498 0
M  V30 3487 N 343.052 5.42727 1.463 0
M  V30 3488 H 335.203 2.06918 -0.479455 0
M  V30 3489 H 337.466 0.935634 -0.152619 0
M  V30 3490 H 337.172 3.51691 0.0256937 0
M  V30 3491 H 337.046 3.33293 1.76623 0
M  V30 3492 H 339.433 2.34153 1.796 0
M  V30 3493 H 339.514 2.55766 0.041708 0
M  V30 3494 H 339.158 5.06645 0.356788 0
M  V30 3495 H 339.088 4.82048 2.11985 0
M  V30 3496 H 341.579 3.60196 1.14312 0
M  V30 3497 H 341.892 7.53095 1.734 0
M  V30 3498 H 340.237 6.77123 1.56621 0
M  V30 3499 H 343.428 4.48647 1.33543 0
M  V30 3500 H 343.601 6.27806 1.6051 0
M  V30 3501 N 337.007 -0.598083 1.45811 0
M  V30 3502 C 338.232 -1.3881 1.54099 0
M  V30 3503 C 338.657 -1.8726 0.177578 0
M  V30 3504 O 338.015 -1.6069 -0.839541 0
M  V30 3505 C 338.063 -2.56217 2.53743 0
M  V30 3506 O 337.167 -3.5716 2.06182 0
M  V30 3507 H 336.508 -0.414024 0.519115 0
M  V30 3508 H 339.038 -0.726971 1.91249 0
M  V30 3509 H 339.048 -3.03337 2.72856 0
M  V30 3510 H 337.723 -2.20303 3.5276 0
M  V30 3511 H 336.3 -3.16624 1.96987 0
M  V30 3512 N 338.485 -1.33259 -0.841409 0
M  V30 3513 C 339.731 -1.25766 -1.59857 0
M  V30 3514 C 340.086 0.175602 -1.91597 0
M  V30 3515 O 339.379 1.117 -1.55672 0
M  V30 3516 C 339.573 -2.06381 -2.9179 0
M  V30 3517 C 339.402 -3.57401 -2.72937 0
M  V30 3518 C 338.172 -4.26718 -2.70628 0
M  V30 3519 C 340.37 -4.51786 -2.45753 0
M  V30 3520 N 338.352 -5.63705 -2.43125 0
M  V30 3521 C 339.723 -5.76643 -2.27777 0
M  V30 3522 C 341.778 -4.40898 -2.31329 0
M  V30 3523 C 340.481 -6.91842 -1.96841 0
M  V30 3524 C 342.507 -5.55911 -2.01786 0
M  V30 3525 C 341.869 -6.79776 -1.8462 0
M  V30 3526 H 337.968 -0.515406 -0.588117 0
M  V30 3527 H 340.552 -1.67772 -0.987955 0
M  V30 3528 H 338.723 -1.667 -3.50807 0
M  V30 3529 H 340.455 -1.90678 -3.56965 0
M  V30 3530 H 337.21 -3.78968 -2.84043 0
M  V30 3531 H 337.634 -6.35911 -2.32265 0
M  V30 3532 H 342.276 -3.45772 -2.43314 0
M  V30 3533 H 339.994 -7.86968 -1.83594 0
M  V30 3534 H 343.58 -5.49421 -1.91384 0
M  V30 3535 H 342.46 -7.67266 -1.62088 0
M  V30 3536 N 339.963 1.05934 -1.16686 0
M  V30 3537 C 341.193 1.82226 -0.973515 0
M  V30 3538 C 341.601 1.8297 0.481532 0
M  V30 3539 O 340.944 1.25009 1.34604 0
M  V30 3540 C 341.006 3.29897 -1.42858 0
M  V30 3541 C 340.67 3.52849 -2.90425 0
M  V30 3542 C 341.667 3.45595 -3.88407 0
M  V30 3543 C 339.352 3.80053 -3.28428 0
M  V30 3544 C 341.346 3.65217 -5.22394 0
M  V30 3545 C 339.033 3.99325 -4.62583 0
M  V30 3546 C 340.031 3.91905 -5.59374 0
M  V30 3547 O 339.719 4.10647 -6.91104 0
M  V30 3548 H 339.451 0.581314 -0.345036 0
M  V30 3549 H 342.005 1.3453 -1.55212 0
M  V30 3550 H 340.235 3.78472 -0.793477 0
M  V30 3551 H 341.924 3.87692 -1.20207 0
M  V30 3552 H 342.69 3.24564 -3.60393 0
M  V30 3553 H 338.569 3.84936 -2.53664 0
M  V30 3554 H 342.113 3.59341 -5.9793 0
M  V30 3555 H 338.01 4.19846 -4.90306 0
M  V30 3556 H 338.778 4.27915 -6.97733 0
M  V30 3557 N 341.441 0.965919 1.2453 0
M  V30 3558 C 342.389 0.486506 2.27455 0
M  V30 3559 C 343.383 -0.449041 1.6334 0
M  V30 3560 O 344.589 -0.324527 1.7705 0
M  V30 3561 H 340.964 0.138857 0.739069 0
M  V30 3562 H 342.935 1.3666 2.65267 0
M  V30 3563 C 341.684 -0.209481 3.47068 0
M  V30 3564 H 341.007 0.50129 3.96645 0
M  V30 3565 H 342.447 -0.508775 4.20936 0
M  V30 3566 C 340.906 -1.43586 3.0477 0
M  V30 3567 O 341.436 -2.53299 3.11773 0
M  V30 3568 N 339.642 -1.30126 2.59838 0
M  V30 3569 H 339.189 -0.408583 2.54339 0
M  V30 3570 H 339.147 -2.12294 2.31902 0
M  V30 3571 N 342.919 -1.39368 0.735821 0
M  V30 3572 C 344.144 -2.05319 0.293052 0
M  V30 3573 C 344.569 -1.55115 -1.064 0
M  V30 3574 O 343.927 -0.695261 -1.67439 0
M  V30 3575 C 343.975 -3.59305 0.305323 0
M  V30 3576 O 343.079 -4.06299 -0.706761 0
M  V30 3577 H 342.42 -0.650529 0.13307 0
M  V30 3578 H 344.95 -1.78386 1.00197 0
M  V30 3579 H 344.96 -4.07724 0.149997 0
M  V30 3580 H 343.635 -3.95207 1.29553 0
M  V30 3581 H 342.212 -3.69292 -0.517504 0
M  V30 3582 N 344.397 -0.483516 -1.5 0
M  V30 3583 C 345.808 -0.0314176 -1.86674 0
M  V30 3584 C 346.159 1.37728 -1.39733 0
M  V30 3585 O 345.284 2.02327 -0.767635 0
M  V30 3586 C 345.879 -0.0502376 -3.38763 0
M  V30 3587 C 344.438 0.346442 -3.74802 0
M  V30 3588 C 343.585 -0.430366 -2.7394 0
M  V30 3589 H 346.536 -0.697182 -1.42566 0
M  V30 3590 H 346.557 0.749116 -3.73053 0
M  V30 3591 H 346.069 -1.07563 -3.72897 0
M  V30 3592 H 344.17 1.37572 -3.46273 0
M  V30 3593 H 344.283 0.0391486 -4.79084 0
M  V30 3594 H 342.647 0.117557 -2.54429 0
M  V30 3595 H 343.43 -1.4555 -3.10918 0
M  V30 3596 N 345.875 1.56104 -0.216619 0
M  V30 3597 C 347.103 2.02563 0.421413 0
M  V30 3598 C 347.518 1.0965 1.53695 0
M  V30 3599 O 346.875 0.10521 1.82196 0
M  V30 3600 C 346.926 3.48584 0.957665 0
M  V30 3601 O 346.647 4.37953 -0.113389 0
M  V30 3602 C 348.148 4.10664 1.66943 0
M  V30 3603 H 345.368 0.662944 0.103665 0
M  V30 3604 H 347.912 2.01793 -0.331629 0
M  V30 3605 H 346.067 3.49985 1.661 0
M  V30 3606 H 346.481 5.23704 0.288932 0
M  V30 3607 H 347.955 5.14622 1.99671 0
M  V30 3608 H 348.432 3.55373 2.58083 0
M  V30 3609 H 349.038 4.13098 1.01142 0
M  V30 3610 N 347.353 -0.0568162 1.57498 0
M  V30 3611 C 348.6 -0.753104 1.87975 0
M  V30 3612 C 348.928 -1.76815 0.81035 0
M  V30 3613 O 348.183 -1.94756 -0.19199 0
M  V30 3614 C 348.482 -1.48359 3.25153 0
M  V30 3615 C 348.148 -0.60713 4.46794 0
M  V30 3616 C 346.81 -0.365642 4.79809 0
M  V30 3617 C 349.162 -0.000305978 5.212 0
M  V30 3618 C 346.49 0.491905 5.84634 0
M  V30 3619 C 348.842 0.844781 6.26934 0
M  V30 3620 C 347.506 1.096 6.58441 0
M  V30 3621 H 346.776 -0.27558 0.687849 0
M  V30 3622 H 349.423 -0.0135173 1.91495 0
M  V30 3623 H 347.728 -2.29577 3.17492 0
M  V30 3624 H 349.425 -2.02739 3.45974 0
M  V30 3625 H 346.015 -0.805487 4.20963 0
M  V30 3626 H 350.199 -0.173961 4.95995 0
M  V30 3627 H 345.455 0.695131 6.07436 0
M  V30 3628 H 349.629 1.32165 6.83744 0
M  V30 3629 H 347.256 1.76224 7.39492 0
M  V30 3630 N 348.832 -1.54138 -0.328536 0
M  V30 3631 C 349.742 -1.86192 -1.42723 0
M  V30 3632 C 350.758 -0.753382 -1.56844 0
M  V30 3633 O 351.934 -1.04718 -1.72035 0
M  V30 3634 C 348.999 -2.07824 -2.77507 0
M  V30 3635 C 348.06 -3.31641 -2.72603 0
M  V30 3636 C 347.293 -3.52232 -4.00959 0
M  V30 3637 O 347.516 -2.7636 -4.9898 0
M  V30 3638 O 346.45 -4.45699 -4.0452 0
M  V30 3639 H 350.276 -2.79608 -1.18547 0
M  V30 3640 H 347.861 -1.3998 -0.522104 0
M  V30 3641 H 349.743 -2.23411 -3.57303 0
M  V30 3642 H 348.418 -1.17596 -3.01584 0
M  V30 3643 H 347.325 -3.21444 -1.91376 0
M  V30 3644 H 348.658 -4.2191 -2.53481 0
M  V30 3645 N 350.31 0.590341 -1.46126 0
M  V30 3646 C 351.587 1.35029 -1.41515 0
M  V30 3647 C 351.967 2.10888 -0.0946472 0
M  V30 3648 O 351.315 2.08998 0.923693 0
M  V30 3649 C 351.525 2.28269 -2.63997 0
M  V30 3650 C 352.873 2.90338 -3.09821 0
M  V30 3651 O 353.897 2.38585 -2.64492 0
M  V30 3652 O 352.756 3.84321 -3.88535 0
M  V30 3653 H 349.85 0.606317 -0.562413 0
M  V30 3654 H 352.396 0.611994 -1.58281 0
M  V30 3655 H 351.168 1.71591 -3.51671 0
M  V30 3656 H 350.791 3.0945 -2.49652 0
M  V30 3657 N 351.788 1.33704 0.83433 0
M  V30 3658 C 353.065 1.16011 1.57483 0
M  V30 3659 C 353.445 -0.27176 2.09343 0
M  V30 3660 O 352.793 -1.27146 1.89858 0
M  V30 3661 C 353.003 2.20507 2.70514 0
M  V30 3662 C 354.351 2.54898 3.39577 0
M  V30 3663 O 355.375 2.19209 2.80759 0
M  V30 3664 O 354.234 3.16158 4.45765 0
M  V30 3665 H 351.328 0.448992 0.694503 0
M  V30 3666 H 353.874 1.453 0.876691 0
M  V30 3667 H 352.646 3.16667 2.29865 0
M  V30 3668 H 352.269 1.92329 3.47987 0
M  V30 3669 N 353.266 -1.05314 1.17247 0
M  V30 3670 C 354.196 -2.1498 0.911362 0
M  V30 3671 C 355.177 -1.69471 -0.146169 0
M  V30 3672 O 356.362 -1.942 0.003812 0
M  V30 3673 C 353.492 -3.4472 0.422528 0
M  V30 3674 C 352.446 -4.03789 1.4191 0
M  V30 3675 C 351.772 -5.28858 0.788274 0
M  V30 3676 C 353.072 -4.41418 2.7919 0
M  V30 3677 H 354.766 -2.3708 1.82848 0
M  V30 3678 H 352.312 -1.13938 0.880569 0
M  V30 3679 H 354.265 -4.20787 0.227289 0
M  V30 3680 H 352.989 -3.22269 -0.530123 0
M  V30 3681 H 351.648 -3.2979 1.60106 0
M  V30 3682 H 351.296 -5.02709 -0.171173 0
M  V30 3683 H 350.996 -5.69338 1.45353 0
M  V30 3684 H 352.52 -6.07612 0.603282 0
M  V30 3685 H 353.934 -5.08524 2.64719 0
M  V30 3686 H 352.331 -4.92913 3.42282 0
M  V30 3687 H 353.401 -3.51819 3.33693 0
M  V30 3688 N 354.744 -0.972509 -1.24016 0
M  V30 3689 C 355.654 -0.5143 -2.28893 0
M  V30 3690 C 356.67 0.427078 -1.68677 0
M  V30 3691 O 357.846 0.298939 -1.99169 0
M  V30 3692 C 354.911 0.183598 -3.46214 0
M  V30 3693 C 353.972 -0.798202 -4.21814 0
M  V30 3694 C 353.205 -0.133514 -5.33533 0
M  V30 3695 O 353.428 1.07714 -5.60137 0
M  V30 3696 O 352.362 -0.828103 -5.96176 0
M  V30 3697 H 356.188 -1.38629 -2.70214 0
M  V30 3698 H 353.773 -0.739769 -1.29799 0
M  V30 3699 H 355.655 0.575433 -4.17453 0
M  V30 3700 H 354.33 1.03048 -3.0686 0
M  V30 3701 H 353.237 -1.24059 -3.52931 0
M  V30 3702 H 354.57 -1.61364 -4.64997 0
M  V30 3703 N 356.222 1.38976 -0.743202 0
M  V30 3704 C 357.172 2.27843 -0.084513 0
M  V30 3705 C 358.156 1.44677 0.704094 0
M  V30 3706 O 359.348 1.67511 0.571755 0
M  V30 3707 C 356.477 3.33466 0.815781 0
M  V30 3708 C 355.563 4.24095 0.0208844 0
M  V30 3709 N 355.954 4.95609 -1.0102 0
M  V30 3710 C 354.252 4.45303 0.249293 0
M  V30 3711 C 354.953 5.62287 -1.49024 0
M  V30 3712 N 353.929 5.37571 -0.807377 0
M  V30 3713 H 357.731 2.80593 -0.87436 0
M  V30 3714 H 355.245 1.51755 -0.578283 0
M  V30 3715 H 357.242 3.96008 1.30321 0
M  V30 3716 H 355.902 2.82276 1.6047 0
M  V30 3717 H 356.913 4.98849 -1.39176 0
M  V30 3718 H 353.59 4.0504 1.01237 0
M  V30 3719 H 354.98 6.29519 -2.34853 0
M  V30 3720 N 357.7 0.491464 1.49741 0
M  V30 3721 C 358.63 -0.28154 2.31796 0
M  V30 3722 C 359.611 -0.971473 1.3963 0
M  V30 3723 O 360.796 -0.964719 1.68543 0
M  V30 3724 C 357.926 -1.35203 3.19902 0
M  V30 3725 C 356.88 -0.782529 4.20786 0
M  V30 3726 C 356.206 -1.95283 4.97764 0
M  V30 3727 C 357.506 0.21999 5.21837 0
M  V30 3728 H 359.2 0.403355 2.96671 0
M  V30 3729 H 356.746 0.195425 1.42668 0
M  V30 3730 H 358.699 -1.90045 3.76113 0
M  V30 3731 H 357.423 -2.06598 2.52953 0
M  V30 3732 H 356.082 -0.255928 3.65706 0
M  V30 3733 H 355.73 -2.65423 4.2727 0
M  V30 3734 H 355.43 -1.57789 5.66018 0
M  V30 3735 H 356.954 -2.50577 5.56816 0
M  V30 3736 H 358.368 -0.23996 5.72798 0
M  V30 3737 H 356.765 0.51026 5.97927 0
M  V30 3738 H 357.835 1.13911 4.7133 0
M  V30 3739 N 359.178 -1.55987 0.224894 0
M  V30 3740 C 360.408 -2.02489 -0.41007 0
M  V30 3741 C 360.816 -1.10391 -1.53657 0
M  V30 3742 O 360.159 -0.106458 -1.83391 0
M  V30 3743 C 360.221 -3.45319 -0.999757 0
M  V30 3744 C 359.885 -4.56999 -0.00827976 0
M  V30 3745 C 360.882 -5.13812 0.793314 0
M  V30 3746 C 358.567 -5.02176 0.111442 0
M  V30 3747 C 360.561 -6.14276 1.7013 0
M  V30 3748 C 358.248 -6.02477 1.02296 0
M  V30 3749 C 359.246 -6.58403 1.81643 0
M  V30 3750 O 358.934 -7.56751 2.71262 0
M  V30 3751 H 358.666 -0.667915 -0.104235 0
M  V30 3752 H 361.22 -2.0257 0.339782 0
M  V30 3753 H 359.45 -3.42318 -1.79876 0
M  V30 3754 H 361.139 -3.7545 -1.54248 0
M  V30 3755 H 361.905 -4.79756 0.711288 0
M  V30 3756 H 357.784 -4.58323 -0.49605 0
M  V30 3757 H 361.328 -6.57854 2.32107 0
M  V30 3758 H 357.225 -6.35954 1.10599 0
M  V30 3759 H 357.993 -7.74286 2.65375 0
M  V30 3760 N 360.656 0.0484629 -1.57525 0
M  V30 3761 C 361.588 1.08222 -2.02041 0
M  V30 3762 C 362.601 1.33621 -0.930012 0
M  V30 3763 O 363.79 1.3145 -1.20761 0
M  V30 3764 C 360.89 2.42818 -2.36416 0
M  V30 3765 C 360.063 2.37049 -3.67596 0
M  V30 3766 C 359.122 3.53937 -3.89378 0
M  V30 3767 O 358.148 3.34308 -4.60681 0
M  V30 3768 N 359.35 4.75126 -3.3352 0
M  V30 3769 H 362.115 0.702946 -2.9134 0
M  V30 3770 H 359.676 0.236745 -1.6016 0
M  V30 3771 H 361.668 3.197 -2.48141 0
M  V30 3772 H 360.238 2.72661 -1.52888 0
M  V30 3773 H 359.458 1.45395 -3.66407 0
M  V30 3774 H 360.746 2.30318 -4.53686 0
M  V30 3775 H 360.144 4.93976 -2.75688 0
M  V30 3776 H 358.701 5.49439 -3.50656 0
M  V30 3777 N 362.134 1.5431 0.320358 0
M  V30 3778 C 363.066 1.80262 1.41556 0
M  V30 3779 C 364.079 0.684723 1.477 0
M  V30 3780 O 365.268 0.961886 1.50366 0
M  V30 3781 C 362.368 1.90825 2.8007 0
M  V30 3782 C 361.541 3.21023 2.97091 0
M  V30 3783 C 360.6 3.22247 4.15985 0
M  V30 3784 O 359.626 3.95871 4.08992 0
M  V30 3785 N 360.828 2.46258 5.25678 0
M  V30 3786 H 363.593 2.74778 1.19655 0
M  V30 3787 H 361.154 1.53646 0.510358 0
M  V30 3788 H 363.146 1.89067 3.57821 0
M  V30 3789 H 361.716 1.03392 2.95006 0
M  V30 3790 H 360.936 3.35715 2.06614 0
M  V30 3791 H 362.224 4.0698 3.05361 0
M  V30 3792 H 361.622 1.86037 5.34235 0
M  V30 3793 H 360.179 2.50275 6.01835 0
M  V30 3794 N 363.613 -0.582584 1.46437 0
M  V30 3795 C 364.543 -1.70187 1.59871 0
M  V30 3796 C 365.524 -1.64066 0.449042 0
M  V30 3797 O 366.709 -1.82081 0.6753 0
M  V30 3798 C 363.839 -3.08827 1.58881 0
M  V30 3799 C 362.793 -3.29779 2.72819 0
M  V30 3800 C 362.119 -4.68947 2.5689 0
M  V30 3801 C 363.419 -3.17601 4.1464 0
M  V30 3802 H 365.113 -1.592 2.53566 0
M  V30 3803 H 362.659 -0.764472 1.22032 0
M  V30 3804 H 364.612 -3.86951 1.66873 0
M  V30 3805 H 363.336 -3.20713 0.617306 0
M  V30 3806 H 361.995 -2.54054 2.64296 0
M  V30 3807 H 361.643 -4.77599 1.57823 0
M  V30 3808 H 361.343 -4.83919 3.33312 0
M  V30 3809 H 362.867 -5.4924 2.66773 0
M  V30 3810 H 364.281 -3.8557 4.24274 0
M  V30 3811 H 362.678 -3.44094 4.9165 0
M  V30 3812 H 363.748 -2.14681 4.34788 0
M  V30 3813 N 365.091 -1.34144 -0.827227 0
M  V30 3814 C 366.001 -1.27428 -1.96975 0
M  V30 3815 C 367.017 -0.182728 -1.73038 0
M  V30 3816 O 368.193 -0.408426 -1.97215 0
M  V30 3817 C 365.258 -1.02526 -3.31194 0
M  V30 3818 C 364.319 -2.20796 -3.68168 0
M  V30 3819 C 363.552 -1.97073 -4.95982 0
M  V30 3820 O 363.775 -0.926822 -5.6282 0
M  V30 3821 O 362.709 -2.83912 -5.30733 0
M  V30 3822 H 366.535 -2.23537 -2.05584 0
M  V30 3823 H 364.12 -1.14307 -0.961989 0
M  V30 3824 H 366.002 -0.904026 -4.11589 0
M  V30 3825 H 364.677 -0.0945389 -3.23562 0
M  V30 3826 H 363.584 -2.38477 -2.88235 0
M  V30 3827 H 364.917 -3.12243 -3.8048 0
M  V30 3828 N 366.569 1.04691 -1.17803 0
M  V30 3829 C 367.98 1.59238 -0.974689 0
M  V30 3830 C 368.331 1.90306 0.477292 0
M  V30 3831 O 367.456 1.68846 1.35352 0
M  V30 3832 C 368.051 2.89318 -1.76296 0
M  V30 3833 C 366.61 3.40506 -1.60414 0
M  V30 3834 C 365.757 2.14172 -1.76141 0
M  V30 3835 H 368.708 0.874395 -1.32439 0
M  V30 3836 H 368.729 3.5944 -1.24833 0
M  V30 3837 H 368.241 2.66675 -2.81968 0
M  V30 3838 H 366.342 3.68175 -0.572519 0
M  V30 3839 H 366.455 4.14753 -2.39827 0
M  V30 3840 H 364.819 2.25176 -1.19028 0
M  V30 3841 H 365.602 1.93992 -2.83235 0
M  V30 3842 N 368.047 0.979072 1.23499 0
M  V30 3843 C 368.977 0.537606 2.27227 0
M  V30 3844 C 369.958 -0.428539 1.64613 0
M  V30 3845 O 371.143 -0.322191 1.91509 0
M  V30 3846 C 368.273 -0.162052 3.46922 0
M  V30 3847 C 367.227 0.721242 4.21879 0
M  V30 3848 C 366.553 -0.110555 5.34586 0
M  V30 3849 C 367.853 2.01141 4.82016 0
M  V30 3850 H 369.547 1.40462 2.64406 0
M  V30 3851 H 367.093 0.67684 1.27102 0
M  V30 3852 H 369.046 -0.482192 4.18632 0
M  V30 3853 H 367.77 -1.06351 3.08799 0
M  V30 3854 H 366.429 1.02482 3.51984 0
M  V30 3855 H 366.077 -1.0125 4.92704 0
M  V30 3856 H 365.777 0.477325 5.85658 0
M  V30 3857 H 367.301 -0.425107 6.09118 0
M  V30 3858 H 368.715 1.75612 5.45741 0
M  V30 3859 H 367.112 2.54695 5.43369 0
M  V30 3860 H 368.182 2.69909 4.02836 0
M  V30 3861 N 369.525 -1.3858 0.750561 0
M  V30 3862 C 370.755 -2.04175 0.31564 0
M  V30 3863 C 371.163 -1.56726 -1.05989 0
M  V30 3864 O 370.506 -0.734225 -1.68389 0
M  V30 3865 C 370.568 -3.58585 0.256389 0
M  V30 3866 C 370.232 -4.29077 1.57296 0
M  V30 3867 C 371.229 -4.54656 2.52159 0
M  V30 3868 C 368.914 -4.67324 1.84156 0
M  V30 3869 C 370.908 -5.17512 3.72103 0
M  V30 3870 C 368.595 -5.29905 3.04374 0
M  V30 3871 C 369.593 -5.54933 3.98168 0
M  V30 3872 O 369.281 -6.16212 5.16273 0
M  V30 3873 H 369.013 -0.662742 0.133226 0
M  V30 3874 H 371.567 -1.78313 1.01948 0
M  V30 3875 H 369.797 -3.83406 -0.503677 0
M  V30 3876 H 371.486 -4.05628 -0.148612 0
M  V30 3877 H 372.252 -4.25539 2.32683 0
M  V30 3878 H 368.131 -4.47191 1.11988 0
M  V30 3879 H 371.675 -5.36963 4.45327 0
M  V30 3880 H 367.572 -5.58444 3.23745 0
M  V30 3881 H 368.34 -6.34701 5.16815 0
M  V30 3882 N 371.003 -0.499398 -1.49478 0
M  V30 3883 C 371.933 0.269244 -2.31943 0
M  V30 3884 C 372.914 0.964054 -1.40143 0
M  V30 3885 O 374.099 0.955767 -1.69052 0
M  V30 3886 C 371.229 1.33504 -3.20615 0
M  V30 3887 C 370.183 0.760202 -4.21195 0
M  V30 3888 C 369.509 1.9264 -4.98792 0
M  V30 3889 C 370.809 -0.247661 -5.21712 0
M  V30 3890 H 372.503 -0.419082 -2.96452 0
M  V30 3891 H 370.049 -0.202988 -1.42562 0
M  V30 3892 H 372.002 1.88048 -3.77115 0
M  V30 3893 H 370.726 2.05253 -2.54045 0
M  V30 3894 H 369.385 0.23653 -3.65836 0
M  V30 3895 H 369.033 2.63154 -4.28671 0
M  V30 3896 H 368.733 1.54785 -5.66847 0
M  V30 3897 H 370.257 2.4762 -5.58137 0
M  V30 3898 H 371.671 0.209579 -5.72917 0
M  V30 3899 H 370.068 -0.541962 -5.97648 0
M  V30 3900 H 371.138 -1.16409 -4.7072 0
M  V30 3901 N 372.481 1.55866 -0.233164 0
M  V30 3902 C 373.429 2.22176 0.68851 0
M  V30 3903 C 374.423 1.20487 1.19076 0
M  V30 3904 O 375.629 1.38536 1.14925 0
M  V30 3905 H 372.004 0.712511 0.240483 0
M  V30 3906 H 373.975 2.98212 0.105935 0
M  V30 3907 C 372.724 2.92446 1.88071 0
M  V30 3908 H 372.047 3.70458 1.50337 0
M  V30 3909 H 373.487 3.42226 2.50314 0
M  V30 3910 C 371.946 1.95555 2.74335 0
M  V30 3911 O 372.476 1.47986 3.73447 0
M  V30 3912 N 370.682 1.62953 2.40613 0
M  V30 3913 H 370.229 2.01831 1.60069 0
M  V30 3914 H 370.187 0.983886 2.98609 0
M  V30 3915 N 373.959 -0.0401083 1.57549 0
M  V30 3916 C 374.889 -1.04384 2.08869 0
M  V30 3917 C 375.87 -1.38407 0.988817 0
M  V30 3918 O 377.055 -1.47483 1.26342 0
M  V30 3919 C 374.185 -2.34808 2.55895 0
M  V30 3920 C 373.139 -2.15057 3.70047 0
M  V30 3921 C 372.465 -3.51145 4.03239 0
M  V30 3922 C 373.765 -1.54576 4.98902 0
M  V30 3923 H 375.459 -0.616666 2.92981 0
M  V30 3924 H 373.005 -0.295184 1.40942 0
M  V30 3925 H 374.958 -3.05346 2.90417 0
M  V30 3926 H 373.682 -2.79565 1.68853 0
M  V30 3927 H 372.341 -1.46954 3.35857 0
M  V30 3928 H 371.989 -3.93529 3.13279 0
M  V30 3929 H 371.689 -3.38758 4.80122 0
M  V30 3930 H 373.213 -4.23062 4.40285 0
M  V30 3931 H 374.627 -2.15017 5.31451 0
M  V30 3932 H 373.024 -1.52796 5.80322 0
M  V30 3933 H 374.094 -0.51039 4.82206 0
M  V30 3934 N 375.437 -1.54477 -0.31217 0
M  V30 3935 C 376.387 -1.81037 -1.38598 0
M  V30 3936 C 377.371 -0.666941 -1.46426 0
M  V30 3937 O 378.563 -0.927269 -1.50767 0
M  V30 3938 C 375.692 -2.05127 -2.75277 0
M  V30 3939 C 374.778 -3.25624 -2.71716 0
M  V30 3940 N 375.169 -4.46428 -2.37773 0
M  V30 3941 C 373.467 -3.27427 -3.02833 0
M  V30 3942 C 374.168 -5.28406 -2.43232 0
M  V30 3943 N 373.144 -4.6586 -2.80135 0
M  V30 3944 H 376.946 -2.7201 -1.11301 0
M  V30 3945 H 374.46 -1.53826 -0.520705 0
M  V30 3946 H 376.457 -2.22299 -3.52688 0
M  V30 3947 H 375.117 -1.15416 -3.03495 0
M  V30 3948 H 376.128 -4.73227 -2.1042 0
M  V30 3949 H 372.805 -2.47786 -3.36018 0
M  V30 3950 H 374.195 -6.34903 -2.19882 0
M  V30 3951 N 376.915 0.57481 -1.46744 0
M  V30 3952 C 377.878 1.66533 -1.57478 0
M  V30 3953 C 378.878 1.54338 -0.451263 0
M  V30 3954 O 380.068 1.58814 -0.715813 0
M  V30 3955 C 377.2 3.05999 -1.50259 0
M  V30 3956 H 378.393 1.58372 -2.54673 0
M  V30 3957 H 375.946 0.793301 -1.34672 0
M  V30 3958 H 376.681 3.19709 -0.543725 0
M  V30 3959 H 376.466 3.16259 -2.31781 0
M  V30 3960 H 377.956 3.8537 -1.60872 0
M  V30 3961 N 378.394 1.34581 0.820102 0
M  V30 3962 C 379.641 1.27096 1.57648 0
M  V30 3963 C 379.969 -0.158317 1.93855 0
M  V30 3964 O 379.224 -1.12028 1.60463 0
M  V30 3965 C 379.523 2.10997 2.8847 0
M  V30 3966 C 379.189 3.59966 2.71543 0
M  V30 3967 C 377.851 4.00575 2.66634 0
M  V30 3968 C 380.203 4.54548 2.55021 0
M  V30 3969 C 377.531 5.33953 2.43128 0
M  V30 3970 C 379.883 5.88109 2.33047 0
M  V30 3971 C 378.547 6.27878 2.26552 0
M  V30 3972 H 377.817 0.465078 0.576874 0
M  V30 3973 H 380.464 1.6635 0.948671 0
M  V30 3974 H 378.769 1.6458 3.55557 0
M  V30 3975 H 380.466 2.0255 3.46084 0
M  V30 3976 H 377.056 3.27733 2.76205 0
M  V30 3977 H 381.24 4.24069 2.57835 0
M  V30 3978 H 376.496 5.63781 2.3656 0
M  V30 3979 H 380.67 6.60985 2.19251 0
M  V30 3980 H 378.297 7.31162 2.081 0
M  V30 3981 N 379.872 -1.04064 1.18357 0
M  V30 3982 C 381.118 -1.77528 0.980397 0
M  V30 3983 C 381.451 -1.87948 -0.48879 0
M  V30 3984 O 380.726 -1.3876 -1.36293 0
M  V30 3985 C 381.009 -3.20797 1.63588 0
M  V30 3986 C 380.862 -3.1832 3.17793 0
M  V30 3987 C 382.181 -4.18911 1.34914 0
M  V30 3988 H 379.3 -0.644443 0.357578 0
M  V30 3989 H 381.942 -1.2156 1.46024 0
M  V30 3990 H 380.092 -3.68586 1.22788 0
M  V30 3991 H 381.764 -2.78521 3.67728 0
M  V30 3992 H 380.007 -2.56351 3.49952 0
M  V30 3993 H 380.678 -4.19489 3.58794 0
M  V30 3994 H 383.154 -3.7967 1.70265 0
M  V30 3995 H 382.03 -5.17374 1.83346 0
M  V30 3996 H 382.291 -4.41262 0.272027 0
M  V30 3997 N 381.35 -0.985608 -1.22978 0
M  V30 3998 C 382.766 -0.695104 -1.43668 0
M  V30 3999 C 382.966 0.736866 -1.87543 0
M  V30 4000 O 382.022 1.50868 -2.02473 0
M  V30 4001 C 383.335 -1.69447 -2.48412 0
M  V30 4002 C 384.883 -1.70909 -2.62219 0
M  V30 4003 C 385.358 -2.6969 -3.70178 0
M  V30 4004 N 386.849 -2.6824 -3.77626 0
M  V30 4005 C 387.584 -3.41339 -4.60733 0
M  V30 4006 N 387.08 -4.24015 -5.4789 0
M  V30 4007 N 388.873 -3.30079 -4.54977 0
M  V30 4008 H 381.024 -1.91054 -0.928016 0
M  V30 4009 H 383.287 -0.823553 -0.469536 0
M  V30 4010 H 382.993 -2.7188 -2.23102 0
M  V30 4011 H 382.867 -1.48147 -3.46889 0
M  V30 4012 H 385.254 -0.691785 -2.86877 0
M  V30 4013 H 385.335 -1.96276 -1.6404 0
M  V30 4014 H 384.979 -3.71566 -3.46268 0
M  V30 4015 H 384.909 -2.41595 -4.67909 0
M  V30 4016 H 387.4 -2.08243 -3.15346 0
M  V30 4017 H 387.713 -4.76636 -6.08308 0
M  V30 4018 H 386.058 -4.28104 -5.47496 0
M  V30 4019 H 389.249 -2.64937 -3.85909 0
M  V30 4020 H 389.422 -3.87308 -5.19516 0
M  V30 4021 N 382.828 1.3818 -0.7579 0
M  V30 4022 C 384.244 1.5353 -0.435972 0
M  V30 4023 C 384.444 1.71961 1.05032 0
M  V30 4024 O 383.5 1.73307 1.83633 0
M  V30 4025 C 384.813 2.73989 -1.23898 0
M  V30 4026 C 386.361 2.87841 -1.22949 0
M  V30 4027 C 386.836 4.11266 -2.01554 0
M  V30 4028 N 388.327 4.18352 -1.98837 0
M  V30 4029 C 389.062 5.12856 -2.5645 0
M  V30 4030 N 388.558 6.13005 -3.22794 0
M  V30 4031 N 390.351 5.05238 -2.46356 0
M  V30 4032 H 382.502 1.24467 -1.7211 0
M  V30 4033 H 384.765 0.604982 -0.729864 0
M  V30 4034 H 384.471 2.66789 -2.29165 0
M  V30 4035 H 384.345 3.67294 -0.858764 0
M  V30 4036 H 386.732 2.9452 -0.184854 0
M  V30 4037 H 386.813 1.95534 -1.64924 0
M  V30 4038 H 386.457 4.05349 -3.06031 0
M  V30 4039 H 386.387 5.02661 -1.5697 0
M  V30 4040 H 388.878 3.46628 -1.50524 0
M  V30 4041 H 389.191 6.81619 -3.64165 0
M  V30 4042 H 387.536 6.13325 -3.2689 0
M  V30 4043 H 390.727 4.25938 -1.9415 0
M  V30 4044 H 390.9 5.78707 -2.91552 0
M  V30 4045 N 384.306 0.507319 1.49211 0
M  V30 4046 C 385.269 -0.256763 2.27757 0
M  V30 4047 C 386.269 -0.888287 1.34038 0
M  V30 4048 O 387.459 -0.751841 1.5714 0
M  V30 4049 C 384.591 -1.36905 3.12202 0
M  V30 4050 H 385.784 0.432557 2.96764 0
M  V30 4051 H 383.337 0.262488 1.5408 0
M  V30 4052 H 384.072 -2.09233 2.47775 0
M  V30 4053 H 383.857 -0.921599 3.81115 0
M  V30 4054 H 385.347 -1.9071 3.7151 0
M  V30 4055 N 385.784 -1.5574 0.241426 0
M  V30 4056 C 386.714 -2.24133 -0.654722 0
M  V30 4057 C 387.695 -1.21974 -1.1856 0
M  V30 4058 O 388.88 -1.50612 -1.22595 0
M  V30 4059 C 386.01 -2.93659 -1.85423 0
M  V30 4060 C 384.964 -4.0246 -1.45636 0
M  V30 4061 C 384.29 -4.59383 -2.73626 0
M  V30 4062 C 385.59 -5.18468 -0.631506 0
M  V30 4063 H 387.284 -2.99281 -0.0844353 0
M  V30 4064 H 384.83 -1.43947 -0.0391707 0
M  V30 4065 H 386.783 -3.40203 -2.48676 0
M  V30 4066 H 385.507 -2.15991 -2.44981 0
M  V30 4067 H 384.166 -3.56676 -0.847202 0
M  V30 4068 H 383.814 -3.78422 -3.3137 0
M  V30 4069 H 383.514 -5.32826 -2.4773 0
M  V30 4070 H 385.038 -5.08658 -3.37786 0
M  V30 4071 H 386.452 -5.61272 -1.1682 0
M  V30 4072 H 384.849 -5.98266 -0.468831 0
M  V30 4073 H 385.919 -4.8358 0.357506 0
M  V30 4074 N 387.262 0.0317525 -1.57568 0
M  V30 4075 C 388.212 1.04101 -2.02847 0
M  V30 4076 C 389.196 1.3219 -0.917317 0
M  V30 4077 O 390.388 1.31819 -1.18121 0
M  V30 4078 C 387.517 2.34295 -2.5092 0
M  V30 4079 C 386.603 2.09308 -3.68851 0
M  V30 4080 N 386.994 1.5437 -4.81667 0
M  V30 4081 C 385.292 2.39604 -3.76172 0
M  V30 4082 C 385.993 1.45126 -5.63306 0
M  V30 4083 N 384.969 1.92589 -5.08341 0
M  V30 4084 H 388.771 0.610217 -2.87495 0
M  V30 4085 H 386.285 0.238108 -1.60645 0
M  V30 4086 H 388.282 3.07404 -2.81617 0
M  V30 4087 H 386.942 2.78055 -1.67677 0
M  V30 4088 H 387.953 1.22678 -5.03161 0
M  V30 4089 H 384.63 2.86457 -3.03724 0
M  V30 4090 H 386.02 1.03163 -6.63933 0
M  V30 4091 N 388.74 1.54641 0.303973 0
M  V30 4092 C 390.156 1.45788 0.649463 0
M  V30 4093 C 390.356 0.64666 1.90842 0
M  V30 4094 O 389.412 0.153183 2.52035 0
M  V30 4095 C 390.725 2.89718 0.805227 0
M  V30 4096 C 392.273 2.99742 0.901305 0
M  V30 4097 C 392.748 4.44863 1.08909 0
M  V30 4098 N 394.239 4.48559 1.15536 0
M  V30 4099 C 394.974 5.58026 1.3189 0
M  V30 4100 N 394.47 6.77422 1.45161 0
M  V30 4101 N 396.263 5.45708 1.34755 0
M  V30 4102 H 388.414 2.05854 -0.523237 0
M  V30 4103 H 390.677 0.932186 -0.172431 0
M  V30 4104 H 390.383 3.51666 -0.0489108 0
M  V30 4105 H 390.257 3.36964 1.69513 0
M  V30 4106 H 392.644 2.3791 1.74593 0
M  V30 4107 H 392.725 2.55797 -0.0125531 0
M  V30 4108 H 392.369 5.07288 0.249241 0
M  V30 4109 H 392.299 4.86436 2.01713 0
M  V30 4110 H 394.79 3.6254 1.06646 0
M  V30 4111 H 395.103 7.56604 1.57387 0
M  V30 4112 H 393.448 6.80292 1.42223 0
M  V30 4113 H 396.639 4.51378 1.23996 0
M  V30 4114 H 396.812 6.3107 1.47157 0
M  V30 4115 N 390.218 -0.567019 1.47046 0
M  V30 4116 C 391.634 -0.891975 1.32348 0
M  V30 4117 C 391.834 -1.99154 0.306616 0
M  V30 4118 O 390.89 -2.50883 -0.28532 0
M  V30 4119 C 392.203 -1.29449 2.7141 0
M  V30 4120 C 393.751 -1.40646 2.79621 0
M  V30 4121 C 394.226 -1.84257 4.19301 0
M  V30 4122 N 395.717 -1.91424 4.21795 0
M  V30 4123 C 396.452 -2.26476 5.26779 0
M  V30 4124 N 395.948 -2.60211 6.42077 0
M  V30 4125 N 397.741 -2.27166 5.14152 0
M  V30 4126 H 389.892 0.159074 2.11803 0
M  V30 4127 H 392.155 0.00849752 0.947962 0
M  V30 4128 H 391.861 -0.560448 3.47206 0
M  V30 4129 H 391.735 -2.25273 3.02542 0
M  V30 4130 H 394.122 -2.13133 2.04104 0
M  V30 4131 H 394.203 -0.430339 2.52154 0
M  V30 4132 H 393.847 -1.12343 4.95319 0
M  V30 4133 H 393.777 -2.82855 4.44185 0
M  V30 4134 H 396.268 -1.6778 3.38612 0
M  V30 4135 H 396.581 -2.85956 7.17948 0
M  V30 4136 H 394.926 -2.57813 6.45413 0
M  V30 4137 H 398.117 -2.00244 4.23107 0
M  V30 4138 H 398.29 -2.54154 5.96079 0
M  V30 4139 N 391.696 -1.35014 -0.812953 0
M  V30 4140 C 392.926 -1.30841 -1.59888 0
M  V30 4141 C 393.334 0.117576 -1.88834 0
M  V30 4142 O 392.677 1.07807 -1.48739 0
M  V30 4143 C 392.739 -2.0412 -2.95931 0
M  V30 4144 C 392.403 -3.53336 -2.89832 0
M  V30 4145 C 393.4 -4.48052 -2.63714 0
M  V30 4146 C 391.085 -3.95894 -3.0915 0
M  V30 4147 C 393.079 -5.833 -2.56982 0
M  V30 4148 C 390.766 -5.31239 -3.0204 0
M  V30 4149 C 391.764 -6.24754 -2.75991 0
M  V30 4150 O 391.452 -7.57617 -2.68833 0
M  V30 4151 H 391.184 -0.451215 -0.50337 0
M  V30 4152 H 393.738 -1.78354 -1.01877 0
M  V30 4153 H 391.968 -1.51235 -3.559 0
M  V30 4154 H 393.657 -1.93107 -3.57022 0
M  V30 4155 H 394.423 -4.16492 -2.48515 0
M  V30 4156 H 390.302 -3.23495 -3.28438 0
M  V30 4157 H 393.846 -6.56263 -2.36569 0
M  V30 4158 H 389.743 -5.62415 -3.16796 0
M  V30 4159 H 390.511 -7.67469 -2.84487 0
M  V30 4160 N 393.175 1.03435 -1.18907 0
M  V30 4161 C 394.423 1.76394 -0.986382 0
M  V30 4162 C 394.744 1.88883 0.484567 0
M  V30 4163 O 394.014 1.41843 1.3512 0
M  V30 4164 H 392.594 0.65344 -0.361975 0
M  V30 4165 H 395.256 1.248 -1.49703 0
M  V30 4166 H 394.352 2.77424 -1.42978 0
M  V30 4167 N 394.653 0.992116 1.22453 0
M  V30 4168 C 395.93 0.583508 1.86694 0
M  V30 4169 C 396.31 -0.9392 1.89056 0
M  V30 4170 O 395.658 -1.82081 1.38053 0
M  V30 4171 C 395.868 1.20304 3.2761 0
M  V30 4172 C 397.216 1.30308 4.0411 0
M  V30 4173 O 398.24 1.15737 3.36873 0
M  V30 4174 O 397.099 1.53615 5.24466 0
M  V30 4175 H 394.193 0.198129 0.802916 0
M  V30 4176 H 396.739 1.08794 1.30238 0
M  V30 4177 H 395.511 2.24461 3.2052 0
M  V30 4178 H 395.134 0.684144 3.9167 0
M  V30 4179 N 396.131 -1.37776 0.765217 0
M  V30 4180 C 397.547 -1.53297 0.444108 0
M  V30 4181 C 397.747 -1.72515 -1.04119 0
M  V30 4182 O 396.803 -1.74278 -1.82711 0
M  V30 4183 C 398.116 -2.73328 1.25349 0
M  V30 4184 C 399.664 -2.87185 1.24473 0
M  V30 4185 C 400.139 -4.10191 2.03733 0
M  V30 4186 N 401.63 -4.17291 2.01053 0
M  V30 4187 C 402.365 -5.11488 2.59166 0
M  V30 4188 N 401.861 -6.11285 3.26041 0
M  V30 4189 N 403.654 -5.03924 2.49032 0
M  V30 4190 H 395.805 -1.23552 1.72768 0
M  V30 4191 H 398.068 -0.601103 0.733062 0
M  V30 4192 H 397.774 -2.6557 2.30577 0
M  V30 4193 H 397.648 -3.66834 0.87823 0
M  V30 4194 H 400.035 -2.94418 0.20047 0
M  V30 4195 H 400.116 -1.94657 1.65959 0
M  V30 4196 H 399.76 -4.0372 3.08176 0
M  V30 4197 H 399.69 -5.01821 1.59633 0
M  V30 4198 H 402.181 -3.45825 1.5236 0
M  V30 4199 H 402.494 -6.79678 3.67774 0
M  V30 4200 H 400.839 -6.11583 3.30138 0
M  V30 4201 H 404.03 -4.24902 1.96407 0
M  V30 4202 H 404.203 -5.77152 2.94617 0
M  V30 4203 N 397.609 -0.515225 -1.4894 0
M  V30 4204 C 398.839 0.0205735 -2.0659 0
M  V30 4205 C 399.247 1.30064 -1.37405 0
M  V30 4206 O 398.59 1.78087 -0.450632 0
M  V30 4207 C 398.652 0.330124 -3.57981 0
M  V30 4208 C 398.316 -0.854295 -4.48944 0
M  V30 4209 C 399.313 -1.7487 -4.89609 0
M  V30 4210 C 396.998 -1.05712 -4.9105 0
M  V30 4211 C 398.992 -2.82996 -5.71132 0
M  V30 4212 C 396.679 -2.14154 -5.72347 0
M  V30 4213 C 397.677 -3.0263 -6.12294 0
M  V30 4214 O 397.365 -4.09198 -6.91962 0
M  V30 4215 H 397.097 -0.0236833 -0.675585 0
M  V30 4216 H 399.651 -0.715956 -1.92518 0
M  V30 4217 H 397.881 1.12044 -3.70112 0
M  V30 4218 H 399.57 0.806233 -3.97812 0
M  V30 4219 H 400.336 -1.60388 -4.57712 0
M  V30 4220 H 396.215 -0.377788 -4.59449 0
M  V30 4221 H 399.759 -3.52083 -6.02232 0
M  V30 4222 H 395.656 -2.28626 -6.03656 0
M  V30 4223 H 396.424 -4.06726 -7.10293 0
M  V30 4224 N 399.087 1.5561 -0.249682 0
M  V30 4225 C 400.336 1.98187 0.37479 0
M  V30 4226 C 400.649 1.14111 1.58865 0
M  V30 4227 O 401.855 1.46714 2.28445 0
M  V30 4228 C 400.311 3.52661 0.718192 0
M  V30 4229 C 399.919 4.45481 -0.474428 0
M  V30 4230 C 401.663 4.03888 1.3067 0
M  V30 4231 C 399.57 5.91303 -0.107026 0
M  V30 4232 H 398.5 0.740159 0.143808 0
M  V30 4233 H 401.151 1.80125 -0.350336 0
M  V30 4234 H 399.533 3.66429 1.50152 0
M  V30 4235 H 400.707 4.43473 -1.25172 0
M  V30 4236 H 399.022 4.04751 -0.978052 0
M  V30 4237 H 401.619 5.10358 1.59496 0
M  V30 4238 H 401.962 3.51401 2.23211 0
M  V30 4239 H 402.495 3.93457 0.586211 0
M  V30 4240 H 399.234 6.47833 -0.999642 0
M  V30 4241 H 398.754 5.9644 0.634013 0
M  V30 4242 H 400.433 6.46258 0.309807 0
M  V30 4243 N 400.565 -0.0233959 1.57583 0
M  V30 4244 C 401.513 -1.04063 2.08023 0
M  V30 4245 C 402.507 -1.37084 0.995204 0
M  V30 4246 O 403.713 -1.35923 1.18004 0
M  V30 4247 H 400.088 -0.353144 0.663922 0
M  V30 4248 H 402.059 -0.589453 2.9252 0
M  V30 4249 C 400.808 -2.33123 2.57971 0
M  V30 4250 H 400.131 -2.08577 3.4108 0
M  V30 4251 H 401.571 -3.02632 2.96967 0
M  V30 4252 C 400.03 -3.02483 1.48342 0
M  V30 4253 O 400.56 -3.92541 0.852898 0
M  V30 4254 N 398.766 -2.63909 1.21658 0
M  V30 4255 H 398.313 -1.90758 1.73116 0
M  V30 4256 H 398.271 -3.10633 0.485218 0
M  V30 4257 N 402.043 -1.548 -0.295768 0
M  V30 4258 C 402.973 -1.89115 -1.36959 0
M  V30 4259 C 403.954 -0.75059 -1.52644 0
M  V30 4260 O 405.139 -1.00678 -1.66065 0
M  V30 4261 C 402.269 -2.14307 -2.73295 0
M  V30 4262 C 401.223 -3.30151 -2.72368 0
M  V30 4263 C 400.549 -3.40772 -4.12042 0
M  V30 4264 C 401.849 -4.67126 -2.33646 0
M  V30 4265 H 403.543 -2.79053 -1.08488 0
M  V30 4266 H 401.089 -1.34266 -0.520443 0
M  V30 4267 H 403.042 -2.36898 -3.48507 0
M  V30 4268 H 401.766 -1.21145 -3.03301 0
M  V30 4269 H 400.425 -3.0749 -1.99613 0
M  V30 4270 H 400.073 -2.45117 -4.39234 0
M  V30 4271 H 399.773 -4.18645 -4.12322 0
M  V30 4272 H 401.297 -3.6563 -4.89027 0
M  V30 4273 H 402.711 -4.89414 -2.98575 0
M  V30 4274 H 401.108 -5.47751 -2.45129 0
M  V30 4275 H 402.178 -4.67489 -1.28772 0
M  V30 4276 N 403.521 0.559213 -1.47345 0
M  V30 4277 C 404.937 0.884943 -1.32819 0
M  V30 4278 C 405.137 1.98988 -0.317173 0
M  V30 4279 O 404.193 2.51031 0.272011 0
M  V30 4280 C 405.506 1.28007 -2.72093 0
M  V30 4281 C 407.054 1.39161 -2.80363 0
M  V30 4282 C 407.529 1.82031 -4.20272 0
M  V30 4283 N 409.02 1.89185 -4.22804 0
M  V30 4284 C 409.755 2.2368 -5.27973 0
M  V30 4285 N 409.251 2.56802 -6.43447 0
M  V30 4286 N 411.044 2.24436 -5.15349 0
M  V30 4287 H 403.195 -0.170304 -2.11716 0
M  V30 4288 H 405.458 -0.0135247 -0.947904 0
M  V30 4289 H 405.164 0.542027 -3.47498 0
M  V30 4290 H 405.038 2.23665 -3.03733 0
M  V30 4291 H 407.425 2.12048 -2.05231 0
M  V30 4292 H 407.506 0.41696 -2.52379 0
M  V30 4293 H 407.15 1.09715 -4.95908 0
M  V30 4294 H 407.08 2.80495 -4.45679 0
M  V30 4295 H 409.571 1.65982 -3.39497 0
M  V30 4296 H 409.884 2.82144 -7.19454 0
M  V30 4297 H 408.229 2.54387 -6.46771 0
M  V30 4298 H 411.42 1.97998 -4.24163 0
M  V30 4299 H 411.593 2.50989 -5.97418 0
M  V30 4300 N 404.999 1.35443 0.805782 0
M  V30 4301 C 406.247 1.28507 1.55982 0
M  V30 4302 C 406.568 -0.140046 1.94496 0
M  V30 4303 O 405.838 -1.07666 1.63661 0
M  V30 4304 H 404.418 0.472676 0.578434 0
M  V30 4305 H 407.08 1.69555 0.961098 0
M  V30 4306 H 406.176 1.90148 2.47488 0
M  V30 4307 N 406.477 -1.02803 1.19454 0
M  V30 4308 C 407.888 -1.57667 0.999899 0
M  V30 4309 C 408.239 -1.91041 -0.446956 0
M  V30 4310 O 407.364 -1.70978 -1.32648 0
M  V30 4311 C 407.959 -2.86477 1.80877 0
M  V30 4312 C 406.518 -3.37911 1.65811 0
M  V30 4313 C 405.665 -2.11343 1.79526 0
M  V30 4314 H 408.616 -0.853214 1.33813 0
M  V30 4315 H 408.637 -3.57408 1.30536 0
M  V30 4316 H 408.149 -2.62155 2.86175 0
M  V30 4317 H 406.25 -3.67218 0.63102 0
M  V30 4318 H 406.363 -4.10885 2.46395 0
M  V30 4319 H 404.727 -2.23254 1.22596 0
M  V30 4320 H 405.51 -1.89461 2.86285 0
M  V30 4321 N 407.956 -0.998596 -1.21925 0
M  V30 4322 C 409.205 -0.673085 -1.90138 0
M  V30 4323 C 409.518 0.79895 -1.78539 0
M  V30 4324 O 410.724 1.23628 -2.4172 0
M  V30 4325 C 409.18 -1.15339 -3.40918 0
M  V30 4326 C 408.788 -2.65106 -3.61141 0
M  V30 4327 C 410.532 -0.902476 -4.14796 0
M  V30 4328 C 408.439 -3.0671 -5.05651 0
M  V30 4329 H 407.369 -0.248057 -0.712028 0
M  V30 4330 H 410.02 -1.20891 -1.38049 0
M  V30 4331 H 408.402 -0.545658 -3.92223 0
M  V30 4332 H 409.576 -3.31274 -3.20304 0
M  V30 4333 H 407.891 -2.88142 -3.00605 0
M  V30 4334 H 410.488 -1.18895 -5.21314 0
M  V30 4335 H 410.831 0.161349 -4.15987 0
M  V30 4336 H 411.364 -1.47269 -3.69536 0
M  V30 4337 H 408.103 -4.12292 -5.09603 0
M  V30 4338 H 407.623 -2.45249 -5.47369 0
M  V30 4339 H 409.302 -2.9833 -5.74115 0
M  V30 4340 N 409.434 1.37368 -0.772513 0
M  V30 4341 C 410.845 1.8231 -0.402493 0
M  V30 4342 C 411.196 1.6436 1.07146 0
M  V30 4343 O 410.321 1.15514 1.82991 0
M  V30 4344 C 410.916 3.30979 -0.723776 0
M  V30 4345 C 409.475 3.74195 -0.406802 0
M  V30 4346 C 408.622 2.59885 -0.967218 0
M  V30 4347 H 411.573 1.25829 -0.967099 0
M  V30 4348 H 411.594 3.80499 -0.00870832 0
M  V30 4349 H 411.106 3.44011 -1.7966 0
M  V30 4350 H 409.207 3.66732 0.658673 0
M  V30 4351 H 409.32 4.7027 -0.915588 0
M  V30 4352 H 407.684 2.51674 -0.391416 0
M  V30 4353 H 408.467 2.7571 -2.04546 0
M  V30 4354 N 410.912 0.523116 1.48665 0
M  V30 4355 C 411.875 -0.232592 2.28017 0
M  V30 4356 C 412.875 -0.874021 1.34972 0
M  V30 4357 O 414.065 -0.735132 1.57929 0
M  V30 4358 C 411.197 -1.33586 3.13636 0
M  V30 4359 H 412.39 0.464008 2.96289 0
M  V30 4360 H 409.943 0.278816 1.53793 0
M  V30 4361 H 410.678 -2.06593 2.4998 0
M  V30 4362 H 410.463 -0.881125 3.82071 0
M  V30 4363 H 411.953 -1.86759 3.73511 0
M  V30 4364 N 412.39 -1.55475 0.257931 0
M  V30 4365 C 413.34 -2.18506 -0.651094 0
M  V30 4366 C 414.324 -1.14431 -1.13112 0
M  V30 4367 O 415.516 -1.40305 -1.07905 0
M  V30 4368 C 412.645 -2.89653 -1.84272 0
M  V30 4369 C 411.731 -4.00996 -1.38068 0
M  V30 4370 N 412.122 -5.01816 -0.633609 0
M  V30 4371 C 410.42 -4.13753 -1.66506 0
M  V30 4372 C 411.121 -5.80371 -0.392922 0
M  V30 4373 N 410.097 -5.3505 -0.960359 0
M  V30 4374 H 413.899 -2.93811 -0.0722883 0
M  V30 4375 H 411.413 -1.62286 0.0607256 0
M  V30 4376 H 413.41 -3.33245 -2.50506 0
M  V30 4377 H 412.07 -2.15854 -2.42564 0
M  V30 4378 H 413.081 -5.17128 -0.282626 0
M  V30 4379 H 409.758 -3.51133 -2.25858 0
M  V30 4380 H 411.148 -6.7159 0.204235 0
M  V30 4381 N 413.868 0.0150385 -1.57593 0
M  V30 4382 C 414.798 1.01047 -2.10503 0
M  V30 4383 C 415.779 1.36816 -1.01071 0
M  V30 4384 O 416.964 1.45455 -1.28672 0
M  V30 4385 C 414.094 2.30708 -2.59598 0
M  V30 4386 C 413.048 2.09142 -3.73421 0
M  V30 4387 C 412.374 3.44685 -4.08774 0
M  V30 4388 C 413.674 1.46619 -5.01298 0
M  V30 4389 H 415.368 0.569978 -2.93925 0
M  V30 4390 H 412.914 0.272724 -1.41394 0
M  V30 4391 H 414.867 3.00687 -2.95238 0
M  V30 4392 H 413.591 2.76843 -1.73279 0
M  V30 4393 H 412.25 1.41592 -3.38153 0
M  V30 4394 H 411.898 3.88495 -3.195 0
M  V30 4395 H 411.598 3.31077 -4.8545 0
M  V30 4396 H 413.122 4.16004 -4.4696 0
M  V30 4397 H 414.536 2.06535 -5.34805 0
M  V30 4398 H 412.933 1.43544 -5.82679 0
M  V30 4399 H 414.003 0.433611 -4.82957 0
M  V30 4400 N 415.346 1.54954 0.287554 0
M  V30 4401 C 416.276 1.89839 1.35954 0
M  V30 4402 C 417.257 0.758675 1.52244 0
M  V30 4403 O 418.442 1.01557 1.65529 0
M  V30 4404 C 415.572 2.15753 2.72154 0
M  V30 4405 C 414.526 3.3159 2.70614 0
M  V30 4406 C 413.852 3.42952 4.10229 0
M  V30 4407 C 415.152 4.68359 2.31165 0
M  V30 4408 H 416.846 2.79625 1.07007 0
M  V30 4409 H 414.392 1.3454 0.513316 0
M  V30 4410 H 416.345 2.38743 3.47246 0
M  V30 4411 H 415.069 1.22752 3.02654 0
M  V30 4412 H 413.728 3.08545 1.97979 0
M  V30 4413 H 413.376 2.47443 4.37928 0
M  V30 4414 H 413.076 4.20826 4.10097 0
M  V30 4415 H 414.6 3.68218 4.87081 0
M  V30 4416 H 416.014 4.9099 2.95976 0
M  V30 4417 H 414.411 5.49044 2.42221 0
M  V30 4418 H 415.481 4.68165 1.26291 0
M  V30 4419 N 416.824 -0.551391 1.4764 0
M  V30 4420 C 418.072 -1.30572 1.54258 0
M  V30 4421 C 418.393 -1.93877 0.208963 0
M  V30 4422 O 417.663 -1.80234 -0.767619 0
M  V30 4423 H 416.243 -0.484894 0.568231 0
M  V30 4424 H 418.905 -0.643402 1.83974 0
M  V30 4425 H 418.001 -2.09621 2.31226 0
M  V30 4426 N 418.302 -1.35869 -0.798587 0
M  V30 4427 C 419.579 -1.20145 -1.54352 0
M  V30 4428 C 419.959 0.216161 -2.0999 0
M  V30 4429 O 419.307 1.22068 -1.93162 0
M  V30 4430 C 419.517 -2.27602 -2.64572 0
M  V30 4431 C 420.865 -2.63811 -3.32699 0
M  V30 4432 O 421.889 -2.26576 -2.74849 0
M  V30 4433 O 420.748 -3.27866 -4.37226 0
M  V30 4434 H 417.842 -0.467248 -0.682355 0
M  V30 4435 H 420.388 -1.47574 -0.837859 0
M  V30 4436 H 419.16 -3.2265 -2.21388 0
M  V30 4437 H 418.783 -2.01488 -3.42766 0
M  V30 4438 N 419.78 1.02168 -1.19998 0
M  V30 4439 C 420.713 2.10232 -0.887558 0
M  V30 4440 C 421.691 1.61827 0.158317 0
M  V30 4441 O 422.875 1.88471 0.0330249 0
M  V30 4442 C 420.002 3.37092 -0.32964 0
M  V30 4443 C 419.048 4.0438 -1.3557 0
M  V30 4444 S 419.881 4.48956 -2.91888 0
M  V30 4445 C 421.037 5.79024 -2.37658 0
M  V30 4446 H 421.27 2.36409 -1.80272 0
M  V30 4447 H 418.803 1.15211 -1.0279 0
M  V30 4448 H 420.761 4.10498 -0.0142824 0
M  V30 4449 H 419.422 3.08996 0.563941 0
M  V30 4450 H 418.615 4.95632 -0.9146 0
M  V30 4451 H 418.217 3.37176 -1.61828 0
M  V30 4452 H 420.509 6.53942 -1.77103 0
M  V30 4453 H 421.452 6.27924 -3.27287 0
M  V30 4454 H 421.86 5.35043 -1.79971 0
M  V30 4455 N 421.258 1.00505 1.21394 0
M  V30 4456 C 422.504 0.698477 1.91031 0
M  V30 4457 C 422.859 -0.762448 1.76648 0
M  V30 4458 O 422.152 -1.54554 1.13241 0
M  V30 4459 C 422.346 1.0546 3.41486 0
M  V30 4460 C 422.175 2.5486 3.70508 0
M  V30 4461 C 420.945 3.21461 3.8986 0
M  V30 4462 C 423.143 3.53019 3.74008 0
M  V30 4463 N 421.125 4.60211 4.06299 0
M  V30 4464 C 422.496 4.77279 3.95733 0
M  V30 4465 C 424.551 3.47154 3.56915 0
M  V30 4466 C 423.254 5.96388 4.02137 0
M  V30 4467 C 425.28 4.65652 3.64585 0
M  V30 4468 C 424.642 5.88717 3.86771 0
M  V30 4469 H 420.741 0.30707 0.719189 0
M  V30 4470 H 423.325 1.28753 1.46051 0
M  V30 4471 H 421.496 0.494007 3.85246 0
M  V30 4472 H 423.228 0.702765 3.98552 0
M  V30 4473 H 419.983 2.71906 3.87768 0
M  V30 4474 H 420.407 5.32216 4.1842 0
M  V30 4475 H 425.049 2.53015 3.38738 0
M  V30 4476 H 422.767 6.90919 4.19114 0
M  V30 4477 H 426.353 4.62717 3.52681 0
M  V30 4478 H 425.233 6.78877 3.92549 0
M  V30 4479 N 422.737 -1.36956 0.779787 0
M  V30 4480 C 423.7 -2.2851 0.177662 0
M  V30 4481 C 424.7 -1.48393 -0.619377 0
M  V30 4482 O 425.89 -1.68505 -0.441785 0
M  V30 4483 C 423.022 -3.32428 -0.755279 0
M  V30 4484 H 424.215 -2.83269 0.984823 0
M  V30 4485 H 421.768 -1.46358 0.548544 0
M  V30 4486 H 422.503 -2.82808 -1.58714 0
M  V30 4487 H 422.288 -3.91659 -0.185817 0
M  V30 4488 H 423.778 -4.00824 -1.17174 0
M  V30 4489 N 424.215 -0.530993 -1.48385 0
M  V30 4490 C 425.147 0.268353 -2.27624 0
M  V30 4491 C 426.16 0.903525 -1.35426 0
M  V30 4492 O 427.349 0.781796 -1.60469 0
M  V30 4493 C 424.449 1.39535 -3.08842 0
M  V30 4494 C 423.622 0.861913 -4.28824 0
M  V30 4495 C 422.681 1.87016 -4.91845 0
M  V30 4496 O 421.707 1.4267 -5.5103 0
M  V30 4497 N 422.909 3.20238 -4.84178 0
M  V30 4498 H 425.674 -0.41123 -2.96865 0
M  V30 4499 H 423.235 -0.365387 -1.57723 0
M  V30 4500 H 425.227 2.06803 -3.47871 0
M  V30 4501 H 423.797 1.97859 -2.42014 0
M  V30 4502 H 423.017 0.0132126 -3.94198 0
M  V30 4503 H 424.305 0.484415 -5.06489 0
M  V30 4504 H 423.703 3.58932 -4.37246 0
M  V30 4505 H 422.26 3.83136 -5.27305 0
M  V30 4506 N 425.693 1.55336 -0.266172 0
M  V30 4507 C 426.918 2.04258 0.359661 0
M  V30 4508 C 427.343 1.14359 1.49344 0
M  V30 4509 O 426.701 0.140369 1.80756 0
M  V30 4510 C 426.749 3.50997 0.826635 0
M  V30 4511 O 425.853 3.64204 1.93466 0
M  V30 4512 H 425.194 0.659668 0.075727 0
M  V30 4513 H 427.724 2.00694 -0.39786 0
M  V30 4514 H 427.734 3.9219 1.12477 0
M  V30 4515 H 426.409 4.159 -0.00293032 0
M  V30 4516 H 424.986 3.34913 1.63974 0
M  V30 4517 N 427.171 -0.0066808 1.57599 0
M  V30 4518 C 428.417 -0.68835 1.91398 0
M  V30 4519 C 428.772 -1.7175 0.86716 0
M  V30 4520 O 428.065 -1.91215 -0.121475 0
M  V30 4521 C 428.259 -1.37939 3.29708 0
M  V30 4522 C 428.088 -0.418689 4.47747 0
M  V30 4523 C 426.858 -0.031526 5.0529 0
M  V30 4524 C 429.056 0.312301 5.13351 0
M  V30 4525 N 427.038 0.928088 6.06844 0
M  V30 4526 C 428.409 1.12682 6.09674 0
M  V30 4527 C 430.464 0.376853 4.96472 0
M  V30 4528 C 429.167 2 6.90936 0
M  V30 4529 C 431.193 1.23723 5.78314 0
M  V30 4530 C 430.555 2.03962 6.74225 0
M  V30 4531 H 426.654 -0.225292 0.748844 0
M  V30 4532 H 429.238 0.0520973 1.9463 0
M  V30 4533 H 427.409 -2.09017 3.27363 0
M  V30 4534 H 429.141 -2.01522 3.50957 0
M  V30 4535 H 425.896 -0.398485 4.71921 0
M  V30 4536 H 426.32 1.40307 6.62301 0
M  V30 4537 H 430.962 -0.22921 4.22178 0
M  V30 4538 H 428.68 2.61676 7.64559 0
M  V30 4539 H 432.266 1.291 5.67296 0
M  V30 4540 H 431.146 2.69461 7.36451 0
M  V30 4541 N 428.649 -1.55105 -0.279332 0
M  V30 4542 C 429.559 -1.90638 -1.36727 0
M  V30 4543 C 430.575 -0.802899 -1.54368 0
M  V30 4544 O 431.751 -1.10138 -1.68616 0
M  V30 4545 C 428.816 -2.16547 -2.70755 0
M  V30 4546 C 427.877 -3.40146 -2.61915 0
M  V30 4547 C 427.11 -3.6481 -3.8955 0
M  V30 4548 O 427.333 -2.92095 -4.89935 0
M  V30 4549 O 426.267 -4.58343 -3.90135 0
M  V30 4550 H 430.093 -2.83237 -1.09591 0
M  V30 4551 H 427.678 -1.4157 -0.477306 0
M  V30 4552 H 429.56 -2.34665 -3.50014 0
M  V30 4553 H 428.235 -1.27131 -2.9769 0
M  V30 4554 H 427.142 -3.2737 -1.81052 0
M  V30 4555 H 428.475 -4.29761 -2.3993 0
M  V30 4556 N 430.127 0.543554 -1.4793 0
M  V30 4557 C 431.075 1.67039 -1.61866 0
M  V30 4558 C 432.069 1.62294 -0.48549 0
M  V30 4559 O 433.275 1.67315 -0.66376 0
M  V30 4560 H 429.65 0.552954 -0.509652 0
M  V30 4561 H 431.621 1.52426 -2.56533 0
M  V30 4562 C 430.37 3.05357 -1.6629 0
M  V30 4563 H 429.693 3.09696 -2.5284 0
M  V30 4564 H 431.133 3.83855 -1.80088 0
M  V30 4565 C 429.592 3.34531 -0.398861 0
M  V30 4566 O 430.122 3.98649 0.494162 0
M  V30 4567 N 428.328 2.89299 -0.2747 0
M  V30 4568 H 427.875 2.37298 -1.00236 0
M  V30 4569 H 427.833 3.09188 0.570075 0
M  V30 4570 N 431.605 1.3629 0.791371 0
M  V30 4571 C 432.854 1.29742 1.54434 0
M  V30 4572 C 433.167 -0.121729 1.95221 0
M  V30 4573 O 434.373 -0.309579 2.69729 0
M  V30 4574 C 432.829 2.27623 2.78776 0
M  V30 4575 C 432.437 3.74963 2.45166 0
M  V30 4576 C 434.181 2.30047 3.56761 0
M  V30 4577 C 432.088 4.64626 3.65891 0
M  V30 4578 H 431.018 0.482113 0.579727 0
M  V30 4579 H 433.669 1.61642 0.868565 0
M  V30 4580 H 432.051 1.88714 3.48142 0
M  V30 4581 H 433.225 4.22596 1.83709 0
M  V30 4582 H 431.54 3.75295 1.80396 0
M  V30 4583 H 434.137 2.94247 4.46456 0
M  V30 4584 H 434.48 1.30846 3.95203 0
M  V30 4585 H 435.013 2.67563 2.94372 0
M  V30 4586 H 431.752 5.64883 3.32547 0
M  V30 4587 H 431.272 4.2171 4.26521 0
M  V30 4588 H 432.951 4.80801 4.32943 0
M  V30 4589 N 433.083 -1.0153 1.20538 0
M  V30 4590 C 434.313 -1.78487 1.04048 0
M  V30 4591 C 434.721 -1.84631 -0.413292 0
M  V30 4592 O 434.064 -1.29919 -1.29872 0
M  V30 4593 C 434.126 -3.24367 1.55003 0
M  V30 4594 C 433.79 -3.41827 3.0332 0
M  V30 4595 C 434.787 -3.30941 4.00966 0
M  V30 4596 C 432.472 -3.67602 3.42307 0
M  V30 4597 C 434.466 -3.45577 5.35589 0
M  V30 4598 C 432.153 -3.81881 4.77085 0
M  V30 4599 C 433.151 -3.70874 5.73534 0
M  V30 4600 O 432.839 -3.84714 7.05868 0
M  V30 4601 H 432.571 -0.568108 0.366373 0
M  V30 4602 H 435.125 -1.28677 1.60098 0
M  V30 4603 H 433.355 -3.75266 0.933397 0
M  V30 4604 H 435.044 -3.82963 1.34514 0
M  V30 4605 H 435.81 -3.10964 3.72191 0
M  V30 4606 H 431.689 -3.75256 2.67776 0
M  V30 4607 H 435.233 -3.36902 6.10854 0
M  V30 4608 H 431.13 -4.01359 5.0555 0
M  V30 4609 H 431.898 -4.01724 7.13134 0
M  V30 4610 N 434.561 -1.01147 -1.20859 0
M  V30 4611 C 435.838 -0.613136 -1.85742 0
M  V30 4612 C 436.218 0.909004 -1.90526 0
M  V30 4613 O 435.566 1.79862 -1.40932 0
M  V30 4614 C 435.776 -1.255 -3.25654 0
M  V30 4615 C 437.124 -1.3672 -4.01986 0
M  V30 4616 O 438.148 -1.21082 -3.34989 0
M  V30 4617 O 437.007 -1.6194 -5.21956 0
M  V30 4618 H 434.101 -0.210878 -0.799662 0
M  V30 4619 H 436.647 -1.10853 -1.2849 0
M  V30 4620 H 435.419 -2.29532 -3.16908 0
M  V30 4621 H 435.042 -0.746369 -3.90532 0
M  V30 4622 N 436.039 1.36541 -0.78704 0
M  V30 4623 C 436.972 2.27831 -0.129765 0
M  V30 4624 C 437.95 1.47105 0.692732 0
M  V30 4625 O 439.134 1.7641 0.664222 0
M  V30 4626 C 436.261 3.28577 0.821883 0
M  V30 4627 C 435.307 4.26422 0.0814771 0
M  V30 4628 S 436.14 5.20919 -1.24112 0
M  V30 4629 C 437.296 6.25212 -0.293409 0
M  V30 4630 H 437.529 2.83229 -0.903811 0
M  V30 4631 H 435.062 1.43046 -0.581144 0
M  V30 4632 H 437.02 3.87123 1.3655 0
M  V30 4633 H 435.681 2.72096 1.56916 0
M  V30 4634 H 434.874 4.97554 0.803485 0
M  V30 4635 H 434.476 3.71944 -0.391589 0
M  V30 4636 H 436.768 6.75435 0.528622 0
M  V30 4637 H 437.711 7.01378 -0.973344 0
M  V30 4638 H 438.119 5.64407 0.102196 0
M  V30 4639 N 437.518 0.538854 1.48102 0
M  V30 4640 C 438.764 0.00801365 2.02798 0
M  V30 4641 C 439.097 -1.3309 1.41424 0
M  V30 4642 O 438.372 -1.86169 0.563158 0
M  V30 4643 C 438.655 -0.104589 3.59948 0
M  V30 4644 C 438.508 1.26012 4.31788 0
M  V30 4645 C 439.827 -0.827055 4.32259 0
M  V30 4646 H 436.946 0.00438624 0.736987 0
M  V30 4647 H 439.588 0.6976 1.7673 0
M  V30 4648 H 437.738 -0.691893 3.82289 0
M  V30 4649 H 439.41 1.88922 4.2084 0
M  V30 4650 H 437.653 1.83968 3.92859 0
M  V30 4651 H 438.324 1.13424 5.40221 0
M  V30 4652 H 440.8 -0.328578 4.14801 0
M  V30 4653 H 439.676 -0.87476 5.41885 0
M  V30 4654 H 439.937 -1.87927 4.0017 0
M  V30 4655 N 438.996 -1.55193 0.274407 0
M  V30 4656 C 440.242 -1.99877 -0.343086 0
M  V30 4657 C 440.575 -1.16256 -1.55558 0
M  V30 4658 O 439.85 -0.232462 -1.93106 0
M  V30 4659 C 440.133 -3.52706 -0.725965 0
M  V30 4660 C 439.986 -4.47081 0.493818 0
M  V30 4661 C 441.305 -4.11422 -1.56268 0
M  V30 4662 H 438.424 -0.726625 -0.123229 0
M  V30 4663 H 441.066 -1.86136 0.38121 0
M  V30 4664 H 439.216 -3.64546 -1.34307 0
M  V30 4665 H 440.888 -4.47186 1.13237 0
M  V30 4666 H 439.131 -4.1877 1.13201 0
M  V30 4667 H 439.802 -5.51699 0.18217 0
M  V30 4668 H 442.278 -4.02855 -1.04151 0
M  V30 4669 H 441.154 -5.18568 -1.79939 0
M  V30 4670 H 441.415 -3.61607 -2.54348 0
M  V30 4671 N 440.474 -0.00167713 -1.576 0
M  V30 4672 C 441.885 0.54091 -1.78693 0
M  V30 4673 C 442.236 1.7386 -0.909247 0
M  V30 4674 O 441.361 2.16109 -0.112176 0
M  V30 4675 C 441.956 0.98806 -3.24072 0
M  V30 4676 C 440.515 1.47594 -3.46256 0
M  V30 4677 C 439.662 0.42792 -2.73978 0
M  V30 4678 H 442.613 -0.22784 -1.57056 0
M  V30 4679 H 442.634 1.85398 -3.32277 0
M  V30 4680 H 442.146 0.116164 -3.87926 0
M  V30 4681 H 440.247 2.36868 -2.87618 0
M  V30 4682 H 440.36 1.50225 -4.54939 0
M  V30 4683 H 438.724 0.889934 -2.38647 0
M  V30 4684 H 439.507 -0.435038 -3.40532 0
M  V30 4685 N 441.952 1.55251 0.271103 0
M  V30 4686 C 443.199 1.75946 1.00245 0
M  V30 4687 C 443.527 0.561611 1.86215 0
M  V30 4688 O 442.782 -0.455832 1.90317 0
M  V30 4689 C 443.081 3.01879 1.91321 0
M  V30 4690 C 442.747 4.34337 1.21086 0
M  V30 4691 C 441.409 4.70338 1.01666 0
M  V30 4692 C 443.761 5.16325 0.71119 0
M  V30 4693 C 441.089 5.8588 0.310099 0
M  V30 4694 C 443.441 6.32597 0.0182157 0
M  V30 4695 C 442.105 6.67236 -0.18768 0
M  V30 4696 H 441.375 0.643833 0.366824 0
M  V30 4697 H 444.022 1.89521 0.27458 0
M  V30 4698 H 442.327 2.83212 2.70736 0
M  V30 4699 H 444.024 3.15088 2.48033 0
M  V30 4700 H 440.614 4.06043 1.37213 0
M  V30 4701 H 444.798 4.88987 0.848844 0
M  V30 4702 H 440.054 6.1124 0.139873 0
M  V30 4703 H 444.228 6.9538 -0.376711 0
M  V30 4704 H 441.855 7.56618 -0.73715 0
M  V30 4705 N 443.43 -0.535701 1.48216 0
M  V30 4706 C 444.841 -1.11769 1.49548 0
M  V30 4707 C 445.192 -1.94442 0.26207 0
M  V30 4708 O 444.317 -2.06987 -0.631287 0
M  V30 4709 C 444.912 -2.03367 2.70975 0
M  V30 4710 C 443.471 -2.56795 2.75196 0
M  V30 4711 C 442.618 -1.33631 2.42977 0
M  V30 4712 H 445.569 -0.321232 1.55415 0
M  V30 4713 H 445.59 -2.87569 2.49167 0
M  V30 4714 H 445.102 -1.43169 3.60727 0
M  V30 4715 H 443.203 -3.20731 1.89638 0
M  V30 4716 H 443.316 -2.9632 3.76472 0
M  V30 4717 H 441.68 -1.6502 1.94012 0
M  V30 4718 H 442.463 -0.75194 3.34964 0
M  V30 4719 N 444.908 -1.36708 -0.784132 0
M  V30 4720 C 446.185 -1.21776 -1.53069 0
M  V30 4721 C 446.565 0.193876 -2.10208 0
M  V30 4722 O 445.913 1.20012 -1.94446 0
M  V30 4723 C 446.123 -2.30395 -2.62143 0
M  V30 4724 C 447.471 -2.67325 -3.29882 0
M  V30 4725 O 448.495 -2.29478 -2.7243 0
M  V30 4726 O 447.354 -3.32485 -4.33724 0
M  V30 4727 H 444.448 -0.474459 -0.677361 0
M  V30 4728 H 446.994 -1.48454 -0.82216 0
M  V30 4729 H 445.766 -3.2498 -2.17953 0
M  V30 4730 H 445.389 -2.05112 -3.40609 0
M  V30 4731 N 446.386 1.0089 -1.21074 0
M  V30 4732 C 447.333 2.09588 -0.966512 0
M  V30 4733 C 448.303 1.65761 0.106089 0
M  V30 4734 O 449.488 1.90758 -0.0402287 0
M  V30 4735 C 446.628 3.40958 -0.533058 0
M  V30 4736 C 445.741 3.9822 -1.67467 0
M  V30 4737 C 444.876 5.17682 -1.19076 0
M  V30 4738 C 443.915 5.67043 -2.30496 0
M  V30 4739 N 443.052 6.77759 -1.83267 0
M  V30 4740 H 447.892 2.29815 -1.89708 0
M  V30 4741 H 445.429 1.12689 -0.945489 0
M  V30 4742 H 447.387 4.1637 -0.263019 0
M  V30 4743 H 446.017 3.20781 0.360505 0
M  V30 4744 H 445.069 3.1983 -2.05944 0
M  V30 4745 H 446.381 4.3085 -2.51336 0
M  V30 4746 H 445.535 6.00326 -0.877151 0
M  V30 4747 H 444.274 4.86635 -0.322066 0
M  V30 4748 H 443.279 4.82999 -2.62664 0
M  V30 4749 H 444.504 6.00121 -3.17855 0
M  V30 4750 H 442.45 6.48527 -0.987356 0
M  V30 4751 H 442.367 7.09624 -2.60711 0
M  V30 4752 H 443.635 7.63949 -1.54928 0
M  V30 4753 N 447.864 1.01787 1.20321 0
M  V30 4754 C 449.275 0.739307 1.71438 0
M  V30 4755 C 449.626 -0.742041 1.81627 0
M  V30 4756 O 448.751 -1.57903 1.47971 0
M  V30 4757 C 449.346 1.33538 3.11373 0
M  V30 4758 C 447.905 1.10566 3.59795 0
M  V30 4759 C 447.052 1.44028 2.36962 0
M  V30 4760 H 450.003 1.18718 1.05317 0
M  V30 4761 H 450.024 0.726611 3.73498 0
M  V30 4762 H 449.536 2.41352 3.03926 0
M  V30 4763 H 447.637 0.0452405 3.72573 0
M  V30 4764 H 447.75 1.78661 4.44542 0
M  V30 4765 H 446.114 0.85933 2.39766 0
M  V30 4766 H 446.897 2.52901 2.32155 0
M  V30 4767 N 449.342 -1.36122 0.79427 0
M  V30 4768 C 450.29 -2.31871 0.184023 0
M  V30 4769 C 451.284 -1.56041 -0.659365 0
M  V30 4770 O 452.49 -1.71266 -0.553906 0
M  V30 4771 H 448.865 -0.750896 0.0407373 0
M  V30 4772 H 450.836 -2.80898 1.00693 0
M  V30 4773 C 449.585 -3.41324 -0.662813 0
M  V30 4774 H 448.908 -3.99793 -0.0231944 0
M  V30 4775 H 450.348 -4.10629 -1.05639 0
M  V30 4776 C 448.807 -2.83308 -1.82313 0
M  V30 4777 O 449.337 -2.75863 -2.91997 0
M  V30 4778 N 447.543 -2.40529 -1.63077 0
M  V30 4779 H 447.09 -2.46785 -0.738591 0
M  V30 4780 H 447.048 -2.02059 -2.40872 0
M  V30 4781 N 450.82 -0.546701 -1.47814 0
M  V30 4782 C 451.75 0.195317 -2.32682 0
M  V30 4783 C 452.731 0.918981 -1.43139 0
M  V30 4784 O 453.916 0.901501 -1.72008 0
M  V30 4785 C 451.046 1.23237 -3.247 0
M  V30 4786 C 450 0.625818 -4.234 0
M  V30 4787 C 449.326 1.76674 -5.04669 0
M  V30 4788 C 450.626 -0.413515 -5.2066 0
M  V30 4789 H 452.32 -0.513184 -2.94969 0
M  V30 4790 H 449.866 -0.248241 -1.41844 0
M  V30 4791 H 451.819 1.75955 -3.82907 0
M  V30 4792 H 450.543 1.97067 -2.60446 0
M  V30 4793 H 449.202 0.120023 -3.66403 0
M  V30 4794 H 448.85 2.49383 -4.36826 0
M  V30 4795 H 448.55 1.36673 -5.71484 0
M  V30 4796 H 450.074 2.29738 -5.65732 0
M  V30 4797 H 451.488 0.0272042 -5.73294 0
M  V30 4798 H 449.885 -0.731825 -5.95621 0
M  V30 4799 H 450.955 -1.31325 -4.66778 0
M  V30 4800 N 452.299 1.55045 -0.282633 0
M  V30 4801 C 453.576 1.9179 0.384166 0
M  V30 4802 C 453.956 1.20778 1.73136 0
M  V30 4803 O 453.304 0.33719 2.25998 0
M  V30 4804 C 453.514 3.45149 0.517014 0
M  V30 4805 C 454.862 4.17064 0.796427 0
M  V30 4806 O 455.886 3.51084 0.601535 0
M  V30 4807 O 454.745 5.33837 1.16962 0
M  V30 4808 H 451.839 0.799483 0.211558 0
M  V30 4809 H 454.385 1.66474 -0.32934 0
M  V30 4810 H 453.157 3.88922 -0.430772 0
M  V30 4811 H 452.78 3.76443 1.2797 0
M  V30 4812 N 453.777 0.010035 1.57597 0
M  V30 4813 C 455.023 -0.673697 1.91283 0
M  V30 4814 C 455.356 -1.72863 0.884979 0
M  V30 4815 O 454.631 -1.94268 -0.0949487 0
M  V30 4816 C 454.914 -1.30766 3.35518 0
M  V30 4817 C 454.767 -0.263578 4.49027 0
M  V30 4818 C 456.086 -2.23105 3.79358 0
M  V30 4819 H 453.205 -0.243439 0.695634 0
M  V30 4820 H 455.847 0.0633864 1.89894 0
M  V30 4821 H 453.997 -1.93588 3.36832 0
M  V30 4822 H 455.669 0.365738 4.59848 0
M  V30 4823 H 453.912 0.413077 4.31829 0
M  V30 4824 H 454.583 -0.746398 5.4693 0
M  V30 4825 H 457.059 -1.70289 3.79659 0
M  V30 4826 H 455.935 -2.64424 4.81011 0
M  V30 4827 H 456.196 -3.11433 3.13787 0
M  V30 4828 N 455.255 -1.55392 -0.262866 0
M  V30 4829 C 456.483 -1.80513 -1.01108 0
M  V30 4830 C 456.898 -0.583533 -1.79556 0
M  V30 4831 O 456.255 0.447585 -1.76926 0
M  V30 4832 C 456.306 -3.03648 -1.96164 0
M  V30 4833 O 456.027 -4.2109 -1.20893 0
M  V30 4834 C 457.528 -3.41448 -2.82715 0
M  V30 4835 H 454.748 -0.601079 -0.298236 0
M  V30 4836 H 457.292 -2.02425 -0.290582 0
M  V30 4837 H 455.447 -2.83832 -2.63663 0
M  V30 4838 H 455.861 -4.90771 -1.85051 0
M  V30 4839 H 457.335 -4.30751 -3.45192 0
M  V30 4840 H 457.812 -2.61308 -3.53008 0
M  V30 4841 H 458.418 -3.63559 -2.20693 0
M  V30 4842 N 456.733 0.527833 -1.48498 0
M  V30 4843 C 457.958 1.313 -1.60546 0
M  V30 4844 C 458.383 1.86199 -0.26672 0
M  V30 4845 O 457.741 1.64513 0.761918 0
M  V30 4846 C 457.789 2.43818 -2.65678 0
M  V30 4847 O 456.893 3.46916 -2.22987 0
M  V30 4848 H 456.234 0.388784 -0.538277 0
M  V30 4849 H 458.764 0.634896 -1.945 0
M  V30 4850 H 458.774 2.89973 -2.87018 0
M  V30 4851 H 457.449 2.03222 -3.62869 0
M  V30 4852 H 456.026 3.06864 -2.11869 0
M  V30 4853 N 458.211 1.37122 0.776871 0
M  V30 4854 C 459.439 1.3523 1.5659 0
M  V30 4855 C 459.854 -0.0635518 1.88693 0
M  V30 4856 O 459.211 -1.02394 1.51069 0
M  V30 4857 C 459.262 2.18583 2.8793 0
M  V30 4858 O 458.983 3.5465 2.57206 0
M  V30 4859 C 460.484 2.24612 3.82183 0
M  V30 4860 H 457.704 0.4634 0.485285 0
M  V30 4861 H 460.248 1.80392 0.963266 0
M  V30 4862 H 458.403 1.76943 3.4463 0
M  V30 4863 H 458.817 3.98286 3.41275 0
M  V30 4864 H 460.291 2.87267 4.71361 0
M  V30 4865 H 460.768 1.25309 4.20944 0
M  V30 4866 H 461.374 2.66543 3.31414 0
M  V30 4867 N 459.689 -1.00246 1.21608 0
M  V30 4868 C 460.622 -2.08794 0.920892 0
M  V30 4869 C 461.6 -1.62059 -0.132552 0
M  V30 4870 O 462.784 -1.885 -0.0030366 0
M  V30 4871 C 459.911 -3.36525 0.383226 0
M  V30 4872 C 458.957 -4.02172 1.41987 0
M  V30 4873 S 459.79 -4.44256 2.98994 0
M  V30 4874 C 460.946 -5.7517 2.4684 0
M  V30 4875 H 461.179 -2.33511 1.8401 0
M  V30 4876 H 458.712 -1.13562 1.04609 0
M  V30 4877 H 460.67 -4.10423 0.0795871 0
M  V30 4878 H 459.331 -3.09854 -0.514711 0
M  V30 4879 H 458.524 -4.94114 0.993335 0
M  V30 4880 H 458.126 -3.34559 1.67171 0
M  V30 4881 H 460.418 -6.51042 1.87484 0
M  V30 4882 H 461.361 -6.22638 3.37235 0
M  V30 4883 H 461.769 -5.32112 1.88461 0
M  V30 4884 N 461.167 -1.02423 -1.1978 0
M  V30 4885 C 462.097 -0.62157 -2.25075 0
M  V30 4886 C 463.078 0.367148 -1.6609 0
M  V30 4887 O 464.263 0.250892 -1.92573 0
M  V30 4888 C 461.393 0.0331826 -3.47284 0
M  V30 4889 C 460.347 -0.877323 -4.18912 0
M  V30 4890 C 459.673 -0.0879296 -5.34628 0
M  V30 4891 C 460.973 -2.18892 -4.74219 0
M  V30 4892 H 462.667 -1.50179 -2.59011 0
M  V30 4893 H 460.213 -0.723547 -1.24502 0
M  V30 4894 H 462.166 0.326488 -4.20133 0
M  V30 4895 H 460.89 0.948164 -3.12534 0
M  V30 4896 H 459.549 -1.15475 -3.47938 0
M  V30 4897 H 459.197 0.828941 -4.96123 0
M  V30 4898 H 458.897 -0.694359 -5.83483 0
M  V30 4899 H 460.421 0.198743 -6.10276 0
M  V30 4900 H 461.835 -1.95746 -5.38847 0
M  V30 4901 H 460.232 -2.74686 -5.33542 0
M  V30 4902 H 461.302 -2.84674 -3.92541 0
M  V30 4903 N 462.645 1.35699 -0.801477 0
M  V30 4904 C 463.577 2.28598 -0.166028 0
M  V30 4905 C 464.59 1.50044 0.631721 0
M  V30 4906 O 465.779 1.72339 0.464921 0
M  V30 4907 C 462.879 3.29625 0.787451 0
M  V30 4908 C 462.052 4.37384 0.037171 0
M  V30 4909 C 461.111 5.183 0.908375 0
M  V30 4910 O 460.137 5.68053 0.361189 0
M  V30 4911 N 461.339 5.35912 2.23112 0
M  V30 4912 H 464.104 2.83771 -0.964071 0
M  V30 4913 H 461.665 1.47994 -0.656469 0
M  V30 4914 H 463.657 3.80648 1.37439 0
M  V30 4915 H 462.227 2.75004 1.48632 0
M  V30 4916 H 461.447 3.87364 -0.730935 0
M  V30 4917 H 462.735 5.0653 -0.480109 0
M  V30 4918 H 462.133 4.97125 2.69968 0
M  V30 4919 H 460.69 5.90133 2.76741 0
M  V30 4920 N 464.123 0.554532 1.47522 0
M  V30 4921 C 465.055 -0.232106 2.28022 0
M  V30 4922 C 466.068 -0.881865 1.36847 0
M  V30 4923 O 467.257 -0.756168 1.61692 0
M  V30 4924 C 464.357 -1.34604 3.11022 0
M  V30 4925 C 463.53 -0.793582 4.30141 0
M  V30 4926 C 462.589 -1.79168 4.94758 0
M  V30 4927 O 461.615 -1.33886 5.5323 0
M  V30 4928 N 462.817 -3.12495 4.89211 0
M  V30 4929 H 465.582 0.458407 2.96173 0
M  V30 4930 H 463.143 0.390433 1.57122 0
M  V30 4931 H 465.135 -2.01243 3.51118 0
M  V30 4932 H 463.705 -1.93983 2.45131 0
M  V30 4933 H 462.925 0.0495025 3.94169 0
M  V30 4934 H 464.213 -0.403776 5.07195 0
M  V30 4935 H 463.611 -3.51931 4.42901 0
M  V30 4936 H 462.168 -3.74698 5.33333 0
M  V30 4937 N 465.601 -1.54893 0.290851 0
M  V30 4938 C 466.849 -1.99538 -0.320756 0
M  V30 4939 C 467.17 -1.18075 -1.55188 0
M  V30 4940 O 466.44 -0.274162 -1.93972 0
M  V30 4941 H 465.02 -0.737052 -0.121507 0
M  V30 4942 H 467.682 -1.90755 0.399832 0
M  V30 4943 H 466.778 -3.06282 -0.599802 0
M  V30 4944 N 467.08 -0.0183926 -1.57589 0
M  V30 4945 C 468.326 0.657813 -1.92469 0
M  V30 4946 C 468.681 1.70349 -0.894375 0
M  V30 4947 O 467.974 1.91384 0.0910389 0
M  V30 4948 C 468.168 1.32676 -3.31861 0
M  V30 4949 C 467.997 0.347403 -4.48356 0
M  V30 4950 C 466.767 -0.0488653 -5.05276 0
M  V30 4951 C 468.965 -0.393931 -5.12789 0
M  V30 4952 N 466.947 -1.02451 -6.05291 0
M  V30 4953 C 468.318 -1.22367 -6.07804 0
M  V30 4954 C 470.373 -0.455789 -4.95809 0
M  V30 4955 C 469.076 -2.10966 -6.87667 0
M  V30 4956 C 471.102 -1.32908 -5.76272 0
M  V30 4957 C 470.464 -2.14662 -6.70894 0
M  V30 4958 H 466.563 0.21335 -0.752334 0
M  V30 4959 H 469.147 -0.0830547 -1.94523 0
M  V30 4960 H 467.318 2.03782 -3.30647 0
M  V30 4961 H 469.05 1.95913 -3.54119 0
M  V30 4962 H 465.805 0.323356 -4.72495 0
M  V30 4963 H 466.229 -1.50826 -6.59985 0
M  V30 4964 H 470.871 0.162017 -4.22489 0
M  V30 4965 H 468.589 -2.73807 -7.603 0
M  V30 4966 H 472.175 -1.38109 -5.6517 0
M  V30 4967 H 471.055 -2.81143 -7.32071 0
M  V30 4968 N 468.558 1.5553 0.254621 0
M  V30 4969 C 469.506 1.9048 1.33492 0
M  V30 4970 C 470.5 0.78304 1.50216 0
M  V30 4971 O 471.706 0.967582 1.51782 0
M  V30 4972 H 468.081 0.604846 0.44684 0
M  V30 4973 H 470.052 2.80688 1.01275 0
M  V30 4974 C 468.801 2.20928 2.68489 0
M  V30 4975 H 468.124 3.06742 2.56417 0
M  V30 4976 H 469.564 2.49291 3.42972 0
M  V30 4977 C 468.023 1.023 3.20993 0
M  V30 4978 O 468.553 0.267027 4.00811 0
M  V30 4979 N 466.759 0.815714 2.78917 0
M  V30 4980 H 466.306 1.43217 2.14119 0
M  V30 4981 H 466.264 0.0236532 3.14391 0
M  V30 4982 N 470.036 -0.519951 1.48776 0
M  V30 4983 C 470.999 -1.60574 1.6355 0
M  V30 4984 C 471.999 -1.52557 0.508234 0
M  V30 4985 O 473.189 -1.56047 0.774262 0
M  V30 4986 C 470.321 -3.00211 1.61512 0
M  V30 4987 H 471.514 -1.4881 2.60376 0
M  V30 4988 H 469.067 -0.742772 1.37523 0
M  V30 4989 H 469.802 -3.17471 0.662009 0
M  V30 4990 H 469.587 -3.07439 2.43359 0
M  V30 4991 H 471.077 -3.79134 1.75064 0
M  V30 4992 N 471.514 -1.37532 -0.769588 0
M  V30 4993 C 472.742 -1.36059 -1.55871 0
M  V30 4994 C 473.157 0.053544 -1.88724 0
M  V30 4995 O 472.514 1.01591 -1.5161 0
M  V30 4996 C 472.565 -2.20107 -2.86767 0
M  V30 4997 O 472.286 -3.56009 -2.55321 0
M  V30 4998 C 473.787 -2.26636 -3.80987 0
M  V30 4999 H 471.007 -0.465967 -0.482821 0
M  V30 5000 H 473.551 -1.80901 -0.953686 0
M  V30 5001 H 471.706 -1.78768 -3.43687 0
M  V30 5002 H 472.12 -4.0009 -3.39158 0
M  V30 5003 H 473.594 -2.89763 -4.69831 0
M  V30 5004 H 474.071 -1.2754 -4.20274 0
M  V30 5005 H 474.677 -2.68296 -3.29996 0
M  V30 5006 N 472.992 0.995999 -1.22138 0
M  V30 5007 C 473.942 2.06988 -0.956042 0
M  V30 5008 C 474.926 1.60636 0.0921576 0
M  V30 5009 O 476.118 1.76607 -0.117958 0
M  V30 5010 C 473.247 3.39148 -0.532335 0
M  V30 5011 C 472.333 3.92142 -1.61509 0
M  V30 5012 N 472.724 4.18397 -2.84214 0
M  V30 5013 C 471.022 4.20514 -1.48606 0
M  V30 5014 C 471.723 4.61425 -3.54206 0
M  V30 5015 N 470.699 4.64934 -2.81669 0
M  V30 5016 H 474.501 2.25223 -1.88816 0
M  V30 5017 H 472.015 1.17748 -1.11845 0
M  V30 5018 H 474.012 4.15642 -0.323574 0
M  V30 5019 H 472.672 3.22314 0.392921 0
M  V30 5020 H 473.683 4.06682 -3.20671 0
M  V30 5021 H 470.36 4.12769 -0.626762 0
M  V30 5022 H 471.75 4.90387 -4.59315 0
M  V30 5023 N 474.47 1.03057 1.19235 0
M  V30 5024 C 475.403 0.557384 2.21288 0
M  V30 5025 C 476.381 -0.402675 1.57535 0
M  V30 5026 O 477.565 -0.319376 1.85775 0
M  V30 5027 C 474.692 -0.187041 3.38183 0
M  V30 5028 C 473.738 0.72471 4.20298 0
M  V30 5029 S 474.571 2.20187 4.88137 0
M  V30 5030 C 475.727 1.46801 6.08441 0
M  V30 5031 H 475.96 1.42207 2.61083 0
M  V30 5032 H 473.493 0.840651 1.29508 0
M  V30 5033 H 475.451 -0.610405 4.05936 0
M  V30 5034 H 474.112 -1.02748 2.96819 0
M  V30 5035 H 473.305 0.149911 5.03777 0
M  V30 5036 H 472.907 1.08647 3.57871 0
M  V30 5037 H 475.199 0.755522 6.73274 0
M  V30 5038 H 476.142 2.27946 6.70407 0
M  V30 5039 H 476.55 0.964762 5.56195 0
M  V30 5040 N 475.948 -1.35272 0.808662 0
M  V30 5041 C 477.195 -1.98709 0.390003 0
M  V30 5042 C 477.523 -1.64148 -1.04335 0
M  V30 5043 O 476.778 -0.897797 -1.73891 0
M  V30 5044 C 477.077 -3.53556 0.522798 0
M  V30 5045 C 476.743 -4.0799 1.91977 0
M  V30 5046 C 475.405 -4.22568 2.30195 0
M  V30 5047 C 477.757 -4.37442 2.83361 0
M  V30 5048 C 475.085 -4.63918 3.59162 0
M  V30 5049 C 477.437 -4.80232 4.11776 0
M  V30 5050 C 476.101 -4.93016 4.49991 0
M  V30 5051 H 475.371 -0.727127 0.142712 0
M  V30 5052 H 478.018 -1.6145 1.02985 0
M  V30 5053 H 476.323 -3.91287 -0.200494 0
M  V30 5054 H 478.02 -4.00598 0.179608 0
M  V30 5055 H 474.61 -3.97096 1.61284 0
M  V30 5056 H 478.794 -4.25731 2.55083 0
M  V30 5057 H 474.05 -4.72005 3.88615 0
M  V30 5058 H 478.224 -5.01982 4.82687 0
M  V30 5059 H 475.851 -5.24814 5.49976 0
M  V30 5060 N 477.426 -0.562348 -1.47226 0
M  V30 5061 C 478.842 -0.222492 -1.58042 0
M  V30 5062 C 479.042 1.27505 -1.56028 0
M  V30 5063 O 478.098 2.05555 -1.46641 0
M  V30 5064 C 479.411 -0.853694 -2.88327 0
M  V30 5065 C 480.959 -0.825397 -3.01921 0
M  V30 5066 C 481.434 -1.43576 -4.34914 0
M  V30 5067 N 482.925 -1.39918 -4.41562 0
M  V30 5068 C 483.66 -1.84103 -5.43041 0
M  V30 5069 N 483.156 -2.36167 -6.51304 0
M  V30 5070 N 484.949 -1.75142 -5.34118 0
M  V30 5071 H 477.1 -1.53525 -1.46778 0
M  V30 5072 H 479.363 -0.640527 -0.698877 0
M  V30 5073 H 479.069 -1.90635 -2.95552 0
M  V30 5074 H 478.943 -0.34977 -3.75575 0
M  V30 5075 H 481.33 0.218583 -2.94289 0
M  V30 5076 H 481.411 -1.36713 -2.16202 0
M  V30 5077 H 481.055 -2.47884 -4.43301 0
M  V30 5078 H 480.985 -0.869427 -5.19373 0
M  V30 5079 H 483.476 -1.0184 -3.63919 0
M  V30 5080 H 483.789 -2.67793 -7.24919 0
M  V30 5081 H 482.134 -2.40181 -6.52179 0
M  V30 5082 H 485.325 -1.34241 -4.48439 0
M  V30 5083 H 485.498 -2.09895 -6.13065 0
M  V30 5084 N 478.904 1.54736 -0.299062 0
M  V30 5085 C 480.15 2.00397 0.311244 0
M  V30 5086 C 480.483 1.18716 1.53688 0
M  V30 5087 O 479.758 0.263154 1.92712 0
M  V30 5088 C 480.041 3.53817 0.669761 0
M  V30 5089 C 479.894 4.46239 -0.564882 0
M  V30 5090 C 481.213 4.13856 1.49702 0
M  V30 5091 H 478.332 0.728493 0.111653 0
M  V30 5092 H 480.974 1.85506 -0.410774 0
M  V30 5093 H 479.124 3.66637 1.28491 0
M  V30 5094 H 480.796 4.45328 -1.20337 0
M  V30 5095 H 479.039 4.16916 -1.19849 0
M  V30 5096 H 479.71 5.5134 -0.269918 0
M  V30 5097 H 482.186 4.04461 0.977284 0
M  V30 5098 H 481.062 5.21365 1.71666 0
M  V30 5099 H 481.323 3.65608 2.48563 0
M  V30 5100 N 480.382 0.0267497 1.57577 0
M  V30 5101 C 481.345 -0.940916 2.08996 0
M  V30 5102 C 482.345 -1.25561 1.00455 0
M  V30 5103 O 483.535 -1.19634 1.26623 0
M  V30 5104 C 480.667 -2.25814 2.55384 0
M  V30 5105 H 481.86 -0.495628 2.95776 0
M  V30 5106 H 479.413 -0.221241 1.54726 0
M  V30 5107 H 480.148 -2.74976 1.71926 0
M  V30 5108 H 479.933 -2.04285 3.34679 0
M  V30 5109 H 481.423 -2.95178 2.95398 0
M  V30 5110 N 481.861 -1.55662 -0.24637 0
M  V30 5111 C 482.771 -1.93495 -1.32653 0
M  V30 5112 C 483.787 -0.835462 -1.5263 0
M  V30 5113 O 484.963 -1.1369 -1.66242 0
M  V30 5114 C 482.028 -2.22242 -2.66101 0
M  V30 5115 C 481.089 -3.45625 -2.54641 0
M  V30 5116 C 480.322 -3.72991 -3.81724 0
M  V30 5117 O 480.545 -3.02421 -4.8363 0
M  V30 5118 O 479.479 -4.66515 -3.80325 0
M  V30 5119 H 483.305 -2.85498 -1.03559 0
M  V30 5120 H 480.89 -1.42551 -0.44717 0
M  V30 5121 H 482.772 -2.42037 -3.44958 0
M  V30 5122 H 481.447 -1.33417 -2.94926 0
M  V30 5123 H 480.354 -3.31136 -1.74067 0
M  V30 5124 H 481.687 -4.34754 -2.3076 0
M  V30 5125 N 483.339 0.512053 -1.4905 0
M  V30 5126 C 484.249 1.64139 -1.67617 0
M  V30 5127 C 485.265 1.64786 -0.558701 0
M  V30 5128 O 486.441 1.8341 -0.832034 0
M  V30 5129 C 483.506 3.00548 -1.72835 0
M  V30 5130 C 482.567 3.10615 -2.96339 0
M  V30 5131 C 481.8 4.40517 -3.01298 0
M  V30 5132 O 482.023 5.28671 -2.14157 0
M  V30 5133 O 480.957 4.55325 -3.93653 0
M  V30 5134 H 484.783 1.51407 -2.63267 0
M  V30 5135 H 482.368 0.687131 -1.32661 0
M  V30 5136 H 484.25 3.81641 -1.78683 0
M  V30 5137 H 482.925 3.13566 -0.803616 0
M  V30 5138 H 481.832 2.2875 -2.96014 0
M  V30 5139 H 483.165 3.0252 -3.88256 0
M  V30 5140 N 484.817 1.37938 0.762283 0
M  V30 5141 C 486.064 1.33668 1.52115 0
M  V30 5142 C 486.392 -0.0759538 1.94352 0
M  V30 5143 O 485.647 -1.05121 1.6507 0
M  V30 5144 C 485.946 2.23042 2.79261 0
M  V30 5145 C 485.612 3.71159 2.56031 0
M  V30 5146 C 484.274 4.11523 2.49404 0
M  V30 5147 C 486.626 4.64955 2.35513 0
M  V30 5148 C 483.954 5.43784 2.20263 0
M  V30 5149 C 486.306 5.97464 2.07894 0
M  V30 5150 C 484.97 6.36922 1.99718 0
M  V30 5151 H 484.24 0.489127 0.556629 0
M  V30 5152 H 486.887 1.70224 0.877262 0
M  V30 5153 H 485.192 1.79512 3.48256 0
M  V30 5154 H 486.889 2.17047 3.37182 0
M  V30 5155 H 483.479 3.39153 2.62056 0
M  V30 5156 H 487.663 4.34623 2.39617 0
M  V30 5157 H 482.919 5.73307 2.12435 0
M  V30 5158 H 487.093 6.6969 1.91019 0
M  V30 5159 H 484.72 7.39331 1.76902 0
M  V30 5160 N 486.295 -0.989507 1.22664 0
M  V30 5161 C 487.542 -1.72953 1.05325 0
M  V30 5162 C 487.87 -1.90104 -0.411168 0
M  V30 5163 O 487.125 -1.44386 -1.32103 0
M  V30 5164 C 487.424 -3.13649 1.71345 0
M  V30 5165 C 487.09 -3.16403 3.21248 0
M  V30 5166 C 485.752 -3.16862 3.62149 0
M  V30 5167 C 488.104 -3.12428 4.17179 0
M  V30 5168 C 485.432 -3.11051 4.97458 0
M  V30 5169 C 487.784 -3.08159 5.52468 0
M  V30 5170 C 486.448 -3.06935 5.92746 0
M  V30 5171 H 485.718 -0.632881 0.385412 0
M  V30 5172 H 488.365 -1.15863 1.52473 0
M  V30 5173 H 486.67 -3.74069 1.16532 0
M  V30 5174 H 488.367 -3.69658 1.55416 0
M  V30 5175 H 484.957 -3.16798 2.88682 0
M  V30 5176 H 489.141 -3.11221 3.86595 0
M  V30 5177 H 484.397 -3.0845 5.27891 0
M  V30 5178 H 488.571 -3.04039 6.26525 0
M  V30 5179 H 486.198 -3.02186 6.97558 0
M  V30 5180 N 487.773 -1.03688 -1.18687 0
M  V30 5181 C 489.001 -0.757918 -1.92518 0
M  V30 5182 C 489.416 0.684398 -1.75959 0
M  V30 5183 O 488.773 1.46617 -1.08673 0
M  V30 5184 C 488.824 -1.10985 -3.44042 0
M  V30 5185 O 488.545 -2.49554 -3.60076 0
M  V30 5186 C 490.046 -0.854844 -4.3498 0
M  V30 5187 H 487.266 -0.276699 -0.611293 0
M  V30 5188 H 489.81 -1.38352 -1.50595 0
M  V30 5189 H 487.965 -0.529279 -3.83767 0
M  V30 5190 H 488.379 -2.6291 -4.53849 0
M  V30 5191 H 489.853 -1.15098 -5.39867 0
M  V30 5192 H 490.33 0.210507 -4.38695 0
M  V30 5193 H 490.936 -1.41853 -4.00946 0
M  V30 5194 N 489.251 1.34841 -0.815825 0
M  V30 5195 C 490.476 2.03261 -0.41226 0
M  V30 5196 C 490.901 1.61055 0.971751 0
M  V30 5197 O 490.259 0.7917 1.63101 0
M  V30 5198 C 490.307 3.56914 -0.514289 0
M  V30 5199 O 489.411 4.09728 0.468675 0
M  V30 5200 H 488.752 0.641664 -0.170771 0
M  V30 5201 H 491.282 1.72241 -1.10427 0
M  V30 5202 H 491.292 4.06156 -0.387457 0
M  V30 5203 H 489.967 3.86982 -1.52375 0
M  V30 5204 H 488.544 3.71681 0.301316 0
M  V30 5205 N 490.729 0.570148 1.46925 0
M  V30 5206 C 491.659 -0.158274 2.32963 0
M  V30 5207 C 492.64 -0.896093 1.44583 0
M  V30 5208 O 493.825 -0.874022 1.7342 0
M  V30 5209 C 490.955 -1.18055 3.26619 0
M  V30 5210 C 489.909 -0.558379 4.24342 0
M  V30 5211 C 489.235 -1.68623 5.07415 0
M  V30 5212 C 490.535 0.496295 5.19937 0
M  V30 5213 H 492.229 0.560046 2.94115 0
M  V30 5214 H 489.775 0.270775 1.41431 0
M  V30 5215 H 491.728 -1.69841 3.85658 0
M  V30 5216 H 490.452 -1.92899 2.63548 0
M  V30 5217 H 489.111 -0.0617157 3.66548 0
M  V30 5218 H 488.759 -2.42402 4.40738 0
M  V30 5219 H 488.459 -1.27564 5.73586 0
M  V30 5220 H 489.983 -2.20709 5.69315 0
M  V30 5221 H 491.397 0.0640052 5.73264 0
M  V30 5222 H 489.794 0.82649 5.94381 0
M  V30 5223 H 490.864 1.38735 4.6463 0
M  V30 5224 N 492.207 -1.54576 0.307264 0
M  V30 5225 C 493.117 -2.27435 -0.57536 0
M  V30 5226 C 494.133 -1.31183 -1.14311 0
M  V30 5227 O 495.309 -1.64175 -1.16656 0
M  V30 5228 C 492.374 -3.00566 -1.72803 0
M  V30 5229 C 491.435 -4.12369 -1.19373 0
M  V30 5230 C 490.668 -4.82003 -2.29147 0
M  V30 5231 O 490.891 -4.51038 -3.49171 0
M  V30 5232 O 489.825 -5.69271 -1.95485 0
M  V30 5233 H 493.651 -3.03696 0.0158558 0
M  V30 5234 H 491.236 -1.49219 0.0735064 0
M  V30 5235 H 493.118 -3.46416 -2.39946 0
M  V30 5236 H 491.793 -2.27195 -2.30574 0
M  V30 5237 H 490.7 -3.70905 -0.487851 0
M  V30 5238 H 492.033 -4.87736 -0.661376 0
M  V30 5239 N 493.685 -0.035106 -1.57561 0
M  V30 5240 C 494.615 0.942993 -2.13612 0
M  V30 5241 C 495.596 1.33531 -1.05373 0
M  V30 5242 O 496.781 1.41287 -1.33235 0
M  V30 5243 C 493.911 2.22332 -2.66807 0
M  V30 5244 C 492.865 1.97156 -3.79886 0
M  V30 5245 C 492.191 3.31506 -4.19533 0
M  V30 5246 C 493.491 1.30596 -5.05709 0
M  V30 5247 H 495.185 0.476179 -2.95589 0
M  V30 5248 H 492.731 0.227602 -1.4219 0
M  V30 5249 H 494.684 2.91142 -3.04654 0
M  V30 5250 H 493.408 2.7119 -1.81999 0
M  V30 5251 H 492.067 1.30763 -3.42486 0
M  V30 5252 H 491.715 3.78134 -3.31698 0
M  V30 5253 H 491.415 3.15465 -4.95738 0
M  V30 5254 H 492.939 4.01574 -4.59968 0
M  V30 5255 H 494.353 1.89416 -5.41105 0
M  V30 5256 H 492.75 1.24934 -5.86951 0
M  V30 5257 H 493.82 0.279742 -4.84092 0
M  V30 5258 N 495.163 1.55791 0.238111 0
M  V30 5259 C 496.388 1.8244 0.986432 0
M  V30 5260 C 496.813 0.613314 1.7782 0
M  V30 5261 O 496.171 -0.437767 1.75935 0
M  V30 5262 C 496.219 3.06917 1.893 0
M  V30 5263 O 495.323 2.84449 2.98601 0
M  V30 5264 H 494.664 0.601975 0.280218 0
M  V30 5265 H 497.194 2.02987 0.256437 0
M  V30 5266 H 497.204 3.36583 2.30598 0
M  V30 5267 H 495.879 3.947 1.31091 0
M  V30 5268 H 494.456 2.65972 2.61368 0
M  V30 5269 N 496.642 -0.504142 1.49319 0
M  V30 5270 C 498.053 -1.08572 1.51885 0
M  V30 5271 C 498.404 -1.93842 0.303255 0
M  V30 5272 O 497.529 -2.0828 -0.58724 0
M  V30 5273 C 498.124 -1.97574 2.75227 0
M  V30 5274 C 496.683 -2.509 2.80581 0
M  V30 5275 C 495.83 -1.28447 2.45757 0
M  V30 5276 H 498.781 -0.288194 1.56061 0
M  V30 5277 H 498.802 -2.82219 2.55211 0
M  V30 5278 H 498.314 -1.35486 3.63683 0
M  V30 5279 H 496.415 -3.16636 1.96398 0
M  V30 5280 H 496.528 -2.88268 3.82673 0
M  V30 5281 H 494.892 -1.60868 1.97468 0
M  V30 5282 H 495.675 -0.68072 3.36483 0
M  V30 5283 N 498.12 -1.38341 -0.754957 0
M  V30 5284 C 499.053 -1.29837 -1.87663 0
M  V30 5285 C 500.031 -0.175659 -1.61648 0
M  V30 5286 O 501.215 -0.352745 -1.8517 0
M  V30 5287 C 498.342 -1.01141 -3.23246 0
M  V30 5288 C 497.388 -2.15331 -3.6815 0
M  V30 5289 S 498.221 -3.77459 -3.79849 0
M  V30 5290 C 499.377 -3.50948 -5.18253 0
M  V30 5291 H 499.61 -2.24771 -1.9459 0
M  V30 5292 H 497.143 -1.24161 -0.917796 0
M  V30 5293 H 499.101 -0.852687 -4.01546 0
M  V30 5294 H 497.762 -0.0792784 -3.14 0
M  V30 5295 H 496.955 -1.90795 -4.6649 0
M  V30 5296 H 496.557 -2.27304 -2.97 0
M  V30 5297 H 498.849 -3.06977 -6.03963 0
M  V30 5298 H 499.792 -4.48677 -5.47809 0
M  V30 5299 H 500.2 -2.85492 -4.86985 0
M  V30 5300 N 499.598 0.982988 -1.23187 0
M  V30 5301 C 501.009 1.53847 -1.05773 0
M  V30 5302 C 501.36 1.92568 0.375744 0
M  V30 5303 O 500.485 1.75783 1.26211 0
M  V30 5304 C 501.08 2.79567 -1.91384 0
M  V30 5305 C 499.639 3.31524 -1.78238 0
M  V30 5306 C 498.786 2.04534 -1.87246 0
M  V30 5307 H 501.737 0.802962 -1.36888 0
M  V30 5308 H 501.758 3.52317 -1.43711 0
M  V30 5309 H 501.27 2.51353 -2.95708 0
M  V30 5310 H 499.371 3.64623 -0.766875 0
M  V30 5311 H 499.484 4.01457 -2.61475 0
M  V30 5312 H 497.848 2.1855 -1.30797 0
M  V30 5313 H 498.631 1.78706 -2.9312 0
M  V30 5314 N 501.076 1.04316 1.18135 0
M  V30 5315 C 502.487 0.775505 1.69832 0
M  V30 5316 C 502.838 -0.703348 1.8316 0
M  V30 5317 O 501.963 -1.54729 1.51287 0
M  V30 5318 C 502.558 1.40112 3.0847 0
M  V30 5319 C 501.117 1.18172 3.57368 0
M  V30 5320 C 500.264 1.49022 2.33854 0
M  V30 5321 H 503.215 1.20925 1.02775 0
M  V30 5322 H 503.236 0.805672 3.71873 0
M  V30 5323 H 502.748 2.47744 2.98738 0
M  V30 5324 H 500.849 0.124258 3.72393 0
M  V30 5325 H 500.962 1.8805 4.40652 0
M  V30 5326 H 499.326 0.909995 2.37889 0
M  V30 5327 H 500.109 2.57768 2.26738 0
M  V30 5328 N 502.554 -1.34406 0.822964 0
M  V30 5329 C 503.464 -2.33298 0.246838 0
M  V30 5330 C 504.48 -1.62625 -0.618797 0
M  V30 5331 O 505.656 -1.94391 -0.526685 0
M  V30 5332 C 502.721 -3.41785 -0.581731 0
M  V30 5333 C 501.782 -4.28206 0.306309 0
M  V30 5334 C 501.015 -5.31512 -0.48281 0
M  V30 5335 O 501.238 -5.43973 -1.71607 0
M  V30 5336 O 500.172 -6.01749 0.134884 0
M  V30 5337 H 503.998 -2.84401 1.06534 0
M  V30 5338 H 501.583 -1.37466 0.585108 0
M  V30 5339 H 503.465 -4.08028 -1.05313 0
M  V30 5340 H 502.14 -2.92925 -1.37756 0
M  V30 5341 H 501.047 -3.64885 0.825199 0
M  V30 5342 H 502.38 -4.80507 1.06649 0
M  V30 5343 N 504.032 -0.577932 -1.46621 0
M  V30 5344 C 505.279 -0.0616879 -2.02406 0
M  V30 5345 C 505.607 1.29638 -1.44997 0
M  V30 5346 O 504.862 1.86176 -0.60308 0
M  V30 5347 C 505.161 0.0590832 -3.57351 0
M  V30 5348 C 504.827 -1.23077 -4.33777 0
M  V30 5349 C 503.489 -1.58416 -4.54376 0
M  V30 5350 C 505.841 -2.08457 -4.77698 0
M  V30 5351 C 503.169 -2.78943 -5.16147 0
M  V30 5352 C 505.521 -3.28204 -5.408 0
M  V30 5353 C 504.185 -3.63832 -5.59627 0
M  V30 5354 H 503.455 -0.0225732 -0.740656 0
M  V30 5355 H 506.102 -0.753609 -1.76048 0
M  V30 5356 H 504.407 0.834104 -3.82818 0
M  V30 5357 H 506.104 0.474202 -3.98186 0
M  V30 5358 H 502.694 -0.945652 -4.18038 0
M  V30 5359 H 506.878 -1.82459 -4.61544 0
M  V30 5360 H 502.134 -3.06689 -5.28916 0
M  V30 5361 H 506.308 -3.94634 -5.73792 0
M  V30 5362 H 503.935 -4.57315 -6.07262 0
M  V30 5363 N 505.51 1.54411 -0.315457 0
M  V30 5364 C 506.756 2.01425 0.282775 0
M  V30 5365 C 507.111 1.19978 1.5041 0
M  V30 5366 O 506.404 0.271766 1.89663 0
M  V30 5367 C 506.598 3.50936 0.676652 0
M  V30 5368 C 506.427 4.46856 -0.504954 0
M  V30 5369 C 505.197 4.95275 -1.00152 0
M  V30 5370 C 507.395 4.96141 -1.35456 0
M  V30 5371 N 505.377 5.75081 -2.14838 0
M  V30 5372 C 506.748 5.73791 -2.3487 0
M  V30 5373 C 508.803 4.78299 -1.38327 0
M  V30 5374 C 507.506 6.35498 -3.36949 0
M  V30 5375 C 509.532 5.40836 -2.39271 0
M  V30 5376 C 508.894 6.1833 -3.37413 0
M  V30 5377 H 504.993 0.779078 0.0675398 0
M  V30 5378 H 507.577 1.8946 -0.448656 0
M  V30 5379 H 505.748 3.63162 1.37723 0
M  V30 5380 H 507.48 3.84728 1.25566 0
M  V30 5381 H 504.235 4.70107 -0.574123 0
M  V30 5382 H 504.659 6.19664 -2.72665 0
M  V30 5383 H 509.301 4.17956 -0.638196 0
M  V30 5384 H 507.019 6.94967 -4.12367 0
M  V30 5385 H 510.605 5.28952 -2.42284 0
M  V30 5386 H 509.485 6.65861 -4.14244 0
M  V30 5387 N 506.988 0.0434614 1.5754 0
M  V30 5388 C 507.898 -0.94893 2.14552 0
M  V30 5389 C 508.914 -1.34707 1.10136 0
M  V30 5390 O 510.09 -1.42557 1.42266 0
M  V30 5391 C 507.155 -2.208 2.67298 0
M  V30 5392 C 506.216 -1.86893 3.86484 0
M  V30 5393 C 505.449 -3.06797 4.36705 0
M  V30 5394 O 505.672 -4.19921 3.86034 0
M  V30 5395 O 504.606 -2.8826 5.28384 0
M  V30 5396 H 508.432 -0.494099 2.99654 0
M  V30 5397 H 506.017 -0.177989 1.48336 0
M  V30 5398 H 507.899 -2.94686 3.01228 0
M  V30 5399 H 506.574 -2.65436 1.85272 0
M  V30 5400 H 505.481 -1.10347 3.57455 0
M  V30 5401 H 506.814 -1.47062 4.69716 0
M  V30 5402 N 508.466 -1.55915 -0.229846 0
M  V30 5403 C 509.714 -1.7819 -0.953565 0
M  V30 5404 C 510.035 -0.610504 -1.85197 0
M  V30 5405 O 509.305 0.372988 -1.92316 0
M  V30 5406 H 507.885 -0.657208 -0.355087 0
M  V30 5407 H 510.547 -1.9337 -0.243693 0
M  V30 5408 H 509.643 -2.70011 -1.56527 0
M  V30 5409 N 509.944 0.496216 -1.49584 0
M  V30 5410 C 511.169 1.27865 -1.63295 0
M  V30 5411 C 511.594 1.85592 -0.306156 0
M  V30 5412 O 510.952 1.66092 0.726851 0
M  V30 5413 C 511 2.38128 -2.7079 0
M  V30 5414 O 510.104 3.42108 -2.30296 0
M  V30 5415 H 509.445 0.377279 -0.546403 0
M  V30 5416 H 511.975 0.593497 -1.95803 0
M  V30 5417 H 511.985 2.8382 -2.93104 0
M  V30 5418 H 510.66 1.95479 -3.67098 0
M  V30 5419 H 509.237 3.02301 -2.18331 0
M  V30 5420 N 511.423 1.38739 0.74761 0
M  V30 5421 C 512.356 1.3083 1.86972 0
M  V30 5422 C 513.334 0.184229 1.61553 0
M  V30 5423 O 514.518 0.36256 1.8498 0
M  V30 5424 C 511.645 1.02854 3.22705 0
M  V30 5425 C 510.691 2.17281 3.67003 0
M  V30 5426 S 511.524 3.79468 3.77842 0
M  V30 5427 C 512.68 3.53692 5.16385 0
M  V30 5428 H 512.913 2.258 1.93395 0
M  V30 5429 H 510.446 1.24646 0.911199 0
M  V30 5430 H 512.404 0.87397 4.01089 0
M  V30 5431 H 511.065 0.0959295 3.13953 0
M  V30 5432 H 510.258 1.93267 4.65472 0
M  V30 5433 H 509.86 2.28876 2.9579 0
M  V30 5434 H 512.152 3.10176 6.02327 0
M  V30 5435 H 513.095 4.51576 5.45422 0
M  V30 5436 H 513.503 2.8807 4.85464 0
M  V30 5437 N 512.901 -0.976442 1.23707 0
M  V30 5438 C 513.831 -2.08749 1.04624 0
M  V30 5439 C 514.812 -1.70057 -0.0380956 0
M  V30 5440 O 515.997 -1.93782 0.127308 0
M  V30 5441 C 513.127 -3.41335 0.640902 0
M  V30 5442 C 512.081 -3.93947 1.67302 0
M  V30 5443 C 511.407 -5.22774 1.12301 0
M  V30 5444 C 512.707 -4.22769 3.06697 0
M  V30 5445 H 514.401 -2.24972 1.97555 0
M  V30 5446 H 511.947 -1.08108 0.951247 0
M  V30 5447 H 513.9 -4.18489 0.494434 0
M  V30 5448 H 512.624 -3.24988 -0.324099 0
M  V30 5449 H 511.283 -3.18941 1.80755 0
M  V30 5450 H 510.931 -5.0278 0.148877 0
M  V30 5451 H 510.631 -5.58942 1.81267 0
M  V30 5452 H 512.155 -6.02546 0.988479 0
M  V30 5453 H 513.569 -4.90659 2.96524 0
M  V30 5454 H 511.966 -4.70147 3.72937 0
M  V30 5455 H 513.036 -3.29885 3.55392 0
M  V30 5456 N 514.379 -1.04941 -1.1758 0
M  V30 5457 C 515.289 -0.658826 -2.25159 0
M  V30 5458 C 516.305 0.318941 -1.71052 0
M  V30 5459 O 517.481 0.171669 -2.00667 0
M  V30 5460 C 514.546 -0.0369522 -3.4668 0
M  V30 5461 C 513.607 -1.06484 -4.15884 0
M  V30 5462 C 512.84 -0.472551 -5.31604 0
M  V30 5463 O 513.063 0.718736 -5.65854 0
M  V30 5464 O 511.997 -1.20557 -5.89703 0
M  V30 5465 H 515.823 -1.55533 -2.60851 0
M  V30 5466 H 513.408 -0.820819 -1.24832 0
M  V30 5467 H 515.29 0.308784 -4.20267 0
M  V30 5468 H 513.965 0.833238 -3.12792 0
M  V30 5469 H 512.872 -1.46253 -3.44327 0
M  V30 5470 H 514.205 -1.9061 -4.53794 0
M  V30 5471 N 515.857 1.33968 -0.830081 0
M  V30 5472 C 516.804 2.29387 -0.255008 0
M  V30 5473 C 517.774 1.53923 0.624243 0
M  V30 5474 O 518.959 1.82262 0.564372 0
M  V30 5475 C 516.099 3.4034 0.571209 0
M  V30 5476 C 515.212 4.30729 -0.331083 0
M  V30 5477 C 514.347 5.2879 0.505389 0
M  V30 5478 C 513.386 6.10819 -0.395843 0
M  V30 5479 N 512.523 7.00948 0.401979 0
M  V30 5480 H 517.363 2.77972 -1.07404 0
M  V30 5481 H 514.9 1.36785 -0.541133 0
M  V30 5482 H 516.858 4.03361 1.06562 0
M  V30 5483 H 515.488 2.9297 1.35529 0
M  V30 5484 H 514.54 3.68507 -0.943759 0
M  V30 5485 H 515.852 4.88181 -1.02377 0
M  V30 5486 H 515.006 5.97297 1.06399 0
M  V30 5487 H 513.745 4.71894 1.23155 0
M  V30 5488 H 512.75 5.41238 -0.966529 0
M  V30 5489 H 513.975 6.69797 -1.12023 0
M  V30 5490 H 511.921 6.46512 1.11168 0
M  V30 5491 H 511.838 7.55643 -0.232167 0
M  V30 5492 H 513.106 7.73774 0.943102 0
M  V30 5493 N 517.335 0.585699 1.46312 0
M  V30 5494 C 518.746 0.159938 1.86014 0
M  V30 5495 C 519.097 -1.27775 1.48889 0
M  V30 5496 O 518.222 -1.96559 0.90519 0
M  V30 5497 C 518.817 0.283485 3.37612 0
M  V30 5498 C 517.376 -0.0874256 3.76298 0
M  V30 5499 C 516.523 0.618055 2.70325 0
M  V30 5500 H 519.474 0.793737 1.37425 0
M  V30 5501 H 519.495 -0.490348 3.77327 0
M  V30 5502 H 519.007 1.32995 3.64601 0
M  V30 5503 H 517.108 -1.13391 3.54927 0
M  V30 5504 H 517.221 0.290975 4.78216 0
M  V30 5505 H 515.585 0.057993 2.54634 0
M  V30 5506 H 516.368 1.66623 3.00153 0
M  V30 5507 N 518.813 -1.54241 0.323641 0
M  V30 5508 C 519.776 -2.22997 -0.529602 0
M  V30 5509 C 520.776 -1.22345 -1.04347 0
M  V30 5510 O 521.966 -1.46924 -0.935889 0
M  V30 5511 C 519.098 -2.93409 -1.73562 0
M  V30 5512 H 520.291 -2.99815 0.0714518 0
M  V30 5513 H 517.844 -1.56121 0.0747258 0
M  V30 5514 H 518.579 -2.20729 -2.37591 0
M  V30 5515 H 518.364 -3.67217 -1.37456 0
M  V30 5516 H 519.854 -3.45794 -2.34128 0
M  V30 5517 N 520.291 -0.0518155 -1.57515 0
M  V30 5518 C 521.568 0.661727 -1.84067 0
M  V30 5519 C 521.948 1.88999 -0.940351 0
M  V30 5520 O 521.296 2.285 -0.00155404 0
M  V30 5521 C 521.506 1.01841 -3.3381 0
M  V30 5522 C 522.854 1.40043 -4.00841 0
M  V30 5523 O 523.878 1.11073 -3.38439 0
M  V30 5524 O 522.737 1.94111 -5.10865 0
M  V30 5525 H 519.831 0.326702 -0.759733 0
M  V30 5526 H 522.377 -0.0812277 -1.69505 0
M  V30 5527 H 521.149 0.145202 -3.91031 0
M  V30 5528 H 520.772 1.81879 -3.53562 0
M  V30 5529 N 521.769 1.56035 0.221574 0
M  V30 5530 C 523.017 1.78693 0.944102 0
M  V30 5531 C 523.338 0.620317 1.8487 0
M  V30 5532 O 522.608 -0.362784 1.92512 0
M  V30 5533 H 521.188 0.659082 0.351597 0
M  V30 5534 H 523.85 1.93497 0.233435 0
M  V30 5535 H 522.946 2.70837 1.55093 0
M  V30 5536 N 523.247 -0.488276 1.49845 0
M  V30 5537 C 524.663 -0.820566 1.3689 0
M  V30 5538 C 524.863 -1.97248 0.411752 0
M  V30 5539 O 523.919 -2.52042 -0.151931 0
M  V30 5540 C 525.232 -1.1488 2.77891 0
M  V30 5541 C 526.78 -1.25626 2.86683 0
M  V30 5542 C 527.255 -1.61772 4.28479 0
M  V30 5543 N 528.746 -1.68797 4.31349 0
M  V30 5544 C 529.481 -1.98235 5.38043 0
M  V30 5545 N 528.977 -2.2581 6.54967 0
M  V30 5546 N 530.77 -1.99593 5.2547 0
M  V30 5547 H 522.921 0.271123 2.10662 0
M  V30 5548 H 525.184 0.058735 0.946179 0
M  V30 5549 H 524.89 -0.375614 3.49688 0
M  V30 5550 H 524.764 -2.08919 3.14058 0
M  V30 5551 H 527.151 -2.02014 2.15114 0
M  V30 5552 H 527.232 -0.296072 2.54081 0
M  V30 5553 H 526.876 -0.859295 5.00578 0
M  V30 5554 H 526.806 -2.58912 4.58554 0
M  V30 5555 H 529.297 -1.49595 3.4703 0
M  V30 5556 H 529.61 -2.47497 7.32096 0
M  V30 5557 H 527.955 -2.23239 6.58171 0
M  V30 5558 H 531.146 -1.77535 4.33127 0
M  V30 5559 H 531.319 -2.222 6.08713 0
M  V30 5560 N 524.725 -1.39134 -0.740242 0
M  V30 5561 C 525.635 -1.39697 -1.88473 0
M  V30 5562 C 526.651 -0.292403 -1.71526 0
M  V30 5563 O 527.827 -0.533021 -1.94219 0
M  V30 5564 C 524.892 -1.23382 -3.24003 0
M  V30 5565 C 523.953 -2.43763 -3.53381 0
M  V30 5566 C 523.186 -2.28216 -4.82445 0
M  V30 5567 O 523.409 -1.28288 -5.55786 0
M  V30 5568 O 522.343 -3.1709 -5.11603 0
M  V30 5569 H 526.169 -2.36159 -1.90952 0
M  V30 5570 H 523.754 -1.20194 -0.887346 0
M  V30 5571 H 525.636 -1.16395 -4.05006 0
M  V30 5572 H 524.311 -0.300121 -3.22306 0
M  V30 5573 H 523.218 -2.56325 -2.72485 0
M  V30 5574 H 524.551 -3.35808 -3.59852 0
M  V30 5575 N 526.204 0.969867 -1.24223 0
M  V30 5576 C 527.45 1.7151 -1.08223 0
M  V30 5577 C 527.783 1.90478 0.37838 0
M  V30 5578 O 527.058 1.4647 1.27971 0
M  V30 5579 C 527.341 3.10714 -1.82013 0
M  V30 5580 C 527.194 2.9925 -3.35811 0
M  V30 5581 C 528.513 4.10332 -1.59108 0
M  V30 5582 H 525.632 0.622499 -0.394543 0
M  V30 5583 H 528.274 1.1284 -1.52863 0
M  V30 5584 H 526.424 3.608 -1.44068 0
M  V30 5585 H 528.096 2.56608 -3.83341 0
M  V30 5586 H 526.339 2.35512 -3.64303 0
M  V30 5587 H 527.01 3.97857 -3.82641 0
M  V30 5588 H 529.486 3.69097 -1.92111 0
M  V30 5589 H 528.362 5.05804 -2.13198 0
M  V30 5590 H 528.623 4.38926 -0.528832 0
M  V30 5591 N 527.682 1.05563 1.17022 0
M  V30 5592 C 528.928 0.769074 1.87652 0
M  V30 5593 C 529.261 -0.702326 1.81055 0
M  V30 5594 O 528.536 -1.5139 1.22112 0
M  V30 5595 C 528.819 1.25492 3.37526 0
M  V30 5596 C 528.672 2.78953 3.52853 0
M  V30 5597 C 529.991 0.856919 4.31677 0
M  V30 5598 H 527.11 0.280854 0.681388 0
M  V30 5599 H 529.752 1.31027 1.37593 0
M  V30 5600 H 527.902 0.794516 3.80289 0
M  V30 5601 H 529.574 3.33146 3.19079 0
M  V30 5602 H 527.817 3.18046 2.95007 0
M  V30 5603 H 528.488 3.08011 4.58076 0
M  V30 5604 H 530.964 1.25334 3.96775 0
M  V30 5605 H 529.84 1.22443 5.35069 0
M  V30 5606 H 530.101 -0.238787 4.41455 0
M  V30 5607 N 529.16 -1.33526 0.837174 0
M  V30 5608 C 530.4 -1.99649 0.438115 0
M  V30 5609 C 530.764 -1.64879 -0.983816 0
M  V30 5610 O 531.965 -2.23956 -1.48651 0
M  V30 5611 C 530.236 -3.51431 0.650461 0
M  V30 5612 S 531.795 -4.37431 0.346371 0
M  V30 5613 H 528.613 -0.69162 0.164872 0
M  V30 5614 H 531.215 -1.62556 1.08609 0
M  V30 5615 H 529.919 -3.74225 1.68475 0
M  V30 5616 H 529.45 -3.93398 -0.0117309 0
M  V30 5617 H 531.465 -4.89132 -0.834504 0
M  V30 5618 N 530.638 -0.59345 -1.46 0
M  V30 5619 C 531.588 0.154751 -2.27474 0
M  V30 5620 C 532.572 0.851849 -1.365 0
M  V30 5621 O 533.764 0.744171 -1.60596 0
M  V30 5622 C 530.893 1.16079 -3.2308 0
M  V30 5623 C 529.979 0.465256 -4.2154 0
M  V30 5624 N 530.37 -0.485197 -5.03467 0
M  V30 5625 C 528.668 0.714634 -4.40237 0
M  V30 5626 C 529.369 -0.892709 -5.74809 0
M  V30 5627 N 528.345 -0.239511 -5.43072 0
M  V30 5628 H 532.147 -0.57546 -2.88211 0
M  V30 5629 H 529.661 -0.416046 -1.5698 0
M  V30 5630 H 531.658 1.71108 -3.80168 0
M  V30 5631 H 530.318 1.89171 -2.63903 0
M  V30 5632 H 531.329 -0.861258 -5.10689 0
M  V30 5633 H 528.006 1.43131 -3.92199 0
M  V30 5634 H 529.396 -1.67581 -6.50666 0
M  V30 5635 N 532.116 1.54067 -0.331816 0
M  V30 5636 C 533.079 2.23275 0.517768 0
M  V30 5637 C 534.079 1.22897 1.03697 0
M  V30 5638 O 535.269 1.47419 0.928084 0
M  V30 5639 C 532.401 2.94326 1.72004 0
M  V30 5640 H 533.594 2.99773 -0.0873507 0
M  V30 5641 H 531.147 1.56079 -0.0830042 0
M  V30 5642 H 531.882 2.21986 2.36417 0
M  V30 5643 H 531.667 3.67941 1.35507 0
M  V30 5644 H 533.157 3.47031 2.32291 0
M  V30 5645 N 533.594 0.0601682 1.57485 0
M  V30 5646 C 534.819 -0.624416 1.97777 0
M  V30 5647 C 535.244 -1.63051 0.937867 0
M  V30 5648 O 534.602 -1.81036 -0.0978845 0
M  V30 5649 C 534.65 -1.27979 3.37126 0
M  V30 5650 O 533.754 -2.39556 3.35688 0
M  V30 5651 H 533.095 -0.161581 0.64404 0
M  V30 5652 H 535.625 0.131237 2.04179 0
M  V30 5653 H 535.635 -1.62937 3.74053 0
M  V30 5654 H 534.31 -0.542501 4.12347 0
M  V30 5655 H 532.887 -2.06478 3.10517 0
M  V30 5656 N 535.072 -1.5615 -0.213296 0
M  V30 5657 C 536.035 -1.92249 -1.24792 0
M  V30 5658 C 537.035 -0.801828 -1.39382 0
M  V30 5659 O 538.225 -1.06948 -1.37506 0
M  V30 5660 C 535.357 -2.18056 -2.62039 0
M  V30 5661 H 536.55 -2.84793 -0.939845 0
M  V30 5662 H 534.103 -1.49559 -0.454062 0
M  V30 5663 H 534.838 -1.2809 -2.97932 0
M  V30 5664 H 534.623 -2.99703 -2.52825 0
M  V30 5665 H 536.113 -2.47051 -3.36683 0
M  V30 5666 N 536.55 0.480323 -1.50102 0
M  V30 5667 C 537.796 1.23208 -1.61837 0
M  V30 5668 C 538.151 1.89878 -0.310509 0
M  V30 5669 O 537.444 1.7871 0.690897 0
M  V30 5670 C 537.638 2.30708 -2.72963 0
M  V30 5671 C 537.467 1.74583 -4.14428 0
M  V30 5672 C 536.237 1.54964 -4.80951 0
M  V30 5673 C 538.435 1.24597 -4.98979 0
M  V30 5674 N 536.417 0.939855 -6.06663 0
M  V30 5675 C 537.788 0.758834 -6.15339 0
M  V30 5676 C 539.843 1.13365 -4.84822 0
M  V30 5677 C 538.546 0.17046 -7.19098 0
M  V30 5678 C 540.572 0.559221 -5.8875 0
M  V30 5679 C 539.934 0.082415 -7.04352 0
M  V30 5680 H 536.033 0.440065 -0.646426 0
M  V30 5681 H 538.617 0.535632 -1.87187 0
M  V30 5682 H 536.788 2.9779 -2.4935 0
M  V30 5683 H 538.52 2.97738 -2.74106 0
M  V30 5684 H 535.275 1.79926 -4.38091 0
M  V30 5685 H 535.699 0.653641 -6.73837 0
M  V30 5686 H 540.341 1.48823 -3.95742 0
M  V30 5687 H 538.059 -0.196347 -8.07861 0
M  V30 5688 H 541.645 0.474804 -5.79859 0
M  V30 5689 H 540.525 -0.355119 -7.83396 0
M  V30 5690 N 538.028 1.39524 0.732853 0
M  V30 5691 C 539.305 1.27373 1.48444 0
M  V30 5692 C 539.685 -0.115725 2.10783 0
M  V30 5693 O 539.033 -1.12713 1.98766 0
M  V30 5694 C 539.243 2.39966 2.53412 0
M  V30 5695 C 540.591 2.79384 3.19733 0
M  V30 5696 O 541.615 2.39431 2.63725 0
M  V30 5697 O 540.474 3.48353 4.21085 0
M  V30 5698 H 537.568 0.499272 0.659285 0
M  V30 5699 H 540.114 1.51403 0.766496 0
M  V30 5700 H 538.886 3.32845 2.05742 0
M  V30 5701 H 538.509 2.17612 3.32762 0
M  V30 5702 N 539.506 -0.963266 1.24736 0
M  V30 5703 C 540.753 -1.7068 1.0897 0
M  V30 5704 C 541.081 -1.90934 -0.370751 0
M  V30 5705 O 540.336 -1.47155 -1.29011 0
M  V30 5706 C 540.635 -3.09944 1.7796 0
M  V30 5707 C 540.301 -3.09518 3.27887 0
M  V30 5708 C 538.963 -3.09109 3.68789 0
M  V30 5709 C 541.315 -3.03509 4.23712 0
M  V30 5710 C 538.643 -3.00429 5.03944 0
M  V30 5711 C 540.995 -2.96371 5.5888 0
M  V30 5712 C 539.659 -2.94293 5.99123 0
M  V30 5713 H 538.929 -0.624564 0.398749 0
M  V30 5714 H 541.576 -1.12603 1.54896 0
M  V30 5715 H 539.881 -3.71513 1.2444 0
M  V30 5716 H 541.578 -3.66278 1.63222 0
M  V30 5717 H 538.168 -3.10603 2.95337 0
M  V30 5718 H 542.352 -3.0295 3.93109 0
M  V30 5719 H 537.608 -2.97183 5.34314 0
M  V30 5720 H 541.782 -2.90681 6.32833 0
M  V30 5721 H 539.409 -2.87322 7.03811 0
M  V30 5722 N 540.985 -1.06182 -1.16461 0
M  V30 5723 C 542.215 -0.797425 -1.9059 0
M  V30 5724 C 542.623 0.651845 -1.77616 0
M  V30 5725 O 541.966 1.45788 -1.11766 0
M  V30 5726 C 542.028 -1.11128 -3.41893 0
M  V30 5727 C 541.692 -2.55874 -3.78652 0
M  V30 5728 C 542.689 -3.54104 -3.80665 0
M  V30 5729 C 540.374 -2.91144 -4.09317 0
M  V30 5730 C 542.368 -4.85645 -4.12829 0
M  V30 5731 C 540.055 -4.22885 -4.41148 0
M  V30 5732 C 541.053 -5.19945 -4.42883 0
M  V30 5733 O 540.741 -6.49322 -4.73959 0
M  V30 5734 H 540.473 -0.288709 -0.611247 0
M  V30 5735 H 543.027 -1.41841 -1.4856 0
M  V30 5736 H 541.257 -0.433217 -3.84266 0
M  V30 5737 H 542.946 -0.831306 -3.97296 0
M  V30 5738 H 543.712 -3.28197 -3.57088 0
M  V30 5739 H 539.591 -2.16252 -4.07131 0
M  V30 5740 H 543.135 -5.61398 -4.14099 0
M  V30 5741 H 539.032 -4.48551 -4.6419 0
M  V30 5742 H 539.8 -6.54294 -4.91774 0
M  V30 5743 N 542.463 1.3308 -0.844243 0
M  V30 5744 C 543.411 2.31028 -0.269954 0
M  V30 5745 C 544.405 1.58381 0.600997 0
M  V30 5746 O 545.611 1.73203 0.48996 0
M  V30 5747 H 541.986 0.748866 -0.0685782 0
M  V30 5748 H 543.957 2.76967 -1.11049 0
M  V30 5749 C 542.706 3.43549 0.535676 0
M  V30 5750 H 542.029 3.99604 -0.125202 0
M  V30 5751 H 543.469 4.14267 0.903262 0
M  V30 5752 C 541.928 2.8988 1.71672 0
M  V30 5753 O 542.458 2.86511 2.81557 0
M  V30 5754 N 540.664 2.46416 1.54037 0
M  V30 5755 H 540.211 2.49356 0.64649 0
M  V30 5756 H 540.169 2.1086 2.33207 0
M  V30 5757 N 543.941 0.601185 1.45683 0
M  V30 5758 C 545.357 0.264315 1.57396 0
M  V30 5759 C 545.557 -1.23324 1.59353 0
M  V30 5760 O 544.613 -2.01594 1.52039 0
M  V30 5761 C 545.926 0.929839 2.85962 0
M  V30 5762 C 547.474 0.905156 2.99626 0
M  V30 5763 C 547.949 1.55057 4.30954 0
M  V30 5764 N 549.44 1.51576 4.37697 0
M  V30 5765 C 550.175 1.98436 5.37969 0
M  V30 5766 N 549.671 2.53352 6.44813 0
M  V30 5767 N 551.464 1.89242 5.29286 0
M  V30 5768 H 543.615 1.57363 1.42656 0
M  V30 5769 H 545.878 0.658831 0.681649 0
M  V30 5770 H 545.584 1.98404 2.90394 0
M  V30 5771 H 545.458 0.449224 3.74515 0
M  V30 5772 H 547.845 -0.14048 2.94765 0
M  V30 5773 H 547.926 1.42397 2.12501 0
M  V30 5774 H 547.57 2.5955 4.36573 0
M  V30 5775 H 547.5 1.00682 5.16886 0
M  V30 5776 H 549.991 1.11452 3.61091 0
M  V30 5777 H 550.304 2.86918 7.17564 0
M  V30 5778 H 548.649 2.57388 6.45582 0
M  V30 5779 H 551.84 1.46083 4.44722 0
M  V30 5780 H 552.013 2.26075 6.07284 0
M  V30 5781 N 545.419 -1.53889 0.339982 0
M  V30 5782 C 546.366 -2.24902 -0.518452 0
M  V30 5783 C 547.336 -1.24593 -1.09844 0
M  V30 5784 O 548.521 -1.53317 -1.13572 0
M  V30 5785 C 545.661 -3.02262 -1.66529 0
M  V30 5786 C 544.774 -4.17418 -1.11295 0
M  V30 5787 C 543.909 -4.82273 -2.2268 0
M  V30 5788 C 542.948 -5.89503 -1.6478 0
M  V30 5789 N 542.085 -6.48153 -2.69893 0
M  V30 5790 H 546.925 -2.97853 0.0936579 0
M  V30 5791 H 544.462 -1.46986 0.0579924 0
M  V30 5792 H 546.42 -3.45371 -2.3404 0
M  V30 5793 H 545.05 -2.31614 -2.24844 0
M  V30 5794 H 544.102 -3.78976 -0.328886 0
M  V30 5795 H 545.414 -4.94554 -0.649414 0
M  V30 5796 H 544.568 -5.28435 -2.98063 0
M  V30 5797 H 543.307 -4.04552 -2.72376 0
M  V30 5798 H 542.312 -5.42728 -0.879004 0
M  V30 5799 H 543.537 -6.6913 -1.1594 0
M  V30 5800 H 541.483 -5.73298 -3.1885 0
M  V30 5801 H 541.4 -7.20752 -2.28151 0
M  V30 5802 H 542.668 -6.98968 -3.45056 0
M  V30 5803 N 546.897 -0.0685191 -1.57451 0
M  V30 5804 C 548.174 0.642167 -1.84758 0
M  V30 5805 C 548.554 1.87991 -0.960344 0
M  V30 5806 O 547.902 2.28485 -0.0257894 0
M  V30 5807 C 548.112 0.982946 -3.34872 0
M  V30 5808 C 549.46 1.35784 -4.02303 0
M  V30 5809 O 550.484 1.07477 -3.39598 0
M  V30 5810 O 549.343 1.88681 -5.12895 0
M  V30 5811 H 546.437 0.318625 -0.763156 0
M  V30 5812 H 548.983 -0.0992015 -1.6941 0
M  V30 5813 H 547.755 0.10372 -3.91163 0
M  V30 5814 H 547.378 1.78119 -3.55471 0
M  V30 5815 N 548.375 1.56261 0.205012 0
M  V30 5816 C 549.622 1.8004 0.926927 0
M  V30 5817 C 549.95 0.640086 1.83666 0
M  V30 5818 O 549.205 -0.374702 1.92079 0
M  V30 5819 C 549.504 3.09722 1.78345 0
M  V30 5820 C 549.17 4.39082 1.02555 0
M  V30 5821 C 547.832 4.74226 0.816256 0
M  V30 5822 C 550.184 5.18877 0.491559 0
M  V30 5823 C 547.512 5.86668 0.0613287 0
M  V30 5824 C 549.864 6.32105 -0.250107 0
M  V30 5825 C 548.528 6.6584 -0.470508 0
M  V30 5826 H 547.798 0.658812 0.339187 0
M  V30 5827 H 550.445 1.90515 0.19395 0
M  V30 5828 H 548.75 2.9444 2.5848 0
M  V30 5829 H 550.447 3.25324 2.34446 0
M  V30 5830 H 547.037 4.11497 1.19868 0
M  V30 5831 H 551.221 4.92147 0.640684 0
M  V30 5832 H 546.477 6.11283 -0.119501 0
M  V30 5833 H 550.651 6.93157 -0.671307 0
M  V30 5834 H 548.278 7.5281 -1.05739 0
M  V30 5835 N 549.853 -0.472356 1.50355 0
M  V30 5836 C 551.269 -0.806001 1.37753 0
M  V30 5837 C 551.469 -1.968 0.432649 0
M  V30 5838 O 550.525 -2.52189 -0.12519 0
M  V30 5839 C 551.838 -1.11926 2.79093 0
M  V30 5840 C 553.386 -1.22579 2.87999 0
M  V30 5841 C 553.861 -1.57218 4.3017 0
M  V30 5842 N 555.352 -1.64212 4.33115 0
M  V30 5843 C 556.087 -1.92517 5.40116 0
M  V30 5844 N 555.583 -2.1885 6.57325 0
M  V30 5845 N 557.376 -1.94008 5.27558 0
M  V30 5846 H 549.527 0.293451 2.10363 0
M  V30 5847 H 551.79 0.0687672 0.945503 0
M  V30 5848 H 551.496 -0.338504 3.50067 0
M  V30 5849 H 551.37 -2.05577 3.16256 0
M  V30 5850 H 553.757 -1.99722 2.17245 0
M  V30 5851 H 553.838 -0.269107 2.54381 0
M  V30 5852 H 553.482 -0.806154 5.01461 0
M  V30 5853 H 553.412 -2.54034 4.61275 0
M  V30 5854 H 555.903 -1.45906 3.48597 0
M  V30 5855 H 556.216 -2.39718 7.3468 0
M  V30 5856 H 554.561 -2.16245 6.60502 0
M  V30 5857 H 557.752 -1.72931 4.34986 0
M  V30 5858 H 557.925 -2.15731 6.11035 0
M  V30 5859 N 551.331 -1.39911 -0.725443 0
M  V30 5860 C 552.58 -1.36963 -1.48068 0
M  V30 5861 C 552.893 0.0284478 -1.95579 0
M  V30 5862 O 554.099 0.180535 -2.70899 0
M  V30 5863 C 552.555 -2.40664 -2.67598 0
M  V30 5864 C 552.163 -3.86234 -2.26997 0
M  V30 5865 C 553.907 -2.46807 -3.45379 0
M  V30 5866 C 551.814 -4.81554 -3.43307 0
M  V30 5867 H 550.744 -0.509223 -0.556065 0
M  V30 5868 H 553.395 -1.65602 -0.790454 0
M  V30 5869 H 551.777 -2.05109 -3.38742 0
M  V30 5870 H 552.951 -4.3088 -1.63337 0
M  V30 5871 H 551.266 -3.83475 -1.62284 0
M  V30 5872 H 553.863 -3.15213 -4.31909 0
M  V30 5873 H 554.206 -1.49552 -3.8851 0
M  V30 5874 H 554.739 -2.81303 -2.81271 0
M  V30 5875 H 551.478 -5.80106 -3.05217 0
M  V30 5876 H 550.998 -4.4158 -4.05915 0
M  V30 5877 H 552.677 -5.0091 -4.0951 0
M  V30 5878 N 552.809 0.956637 -1.25245 0
M  V30 5879 C 553.756 2.053 -1.05454 0
M  V30 5880 C 554.726 1.66062 0.0356889 0
M  V30 5881 O 555.911 1.90415 -0.121099 0
M  V30 5882 C 553.051 3.38391 -0.677191 0
M  V30 5883 C 552.164 3.90758 -1.84206 0
M  V30 5884 C 551.299 5.12165 -1.40926 0
M  V30 5885 C 550.338 5.56757 -2.54338 0
M  V30 5886 N 549.475 6.69376 -2.11848 0
M  V30 5887 H 554.315 2.21562 -1.99284 0
M  V30 5888 H 551.852 1.08578 -0.992434 0
M  V30 5889 H 553.81 4.1488 -0.43938 0
M  V30 5890 H 552.44 3.22021 0.224127 0
M  V30 5891 H 551.492 3.10808 -2.19323 0
M  V30 5892 H 552.804 4.19802 -2.69383 0
M  V30 5893 H 551.958 5.96065 -1.13098 0
M  V30 5894 H 550.697 4.84832 -0.528175 0
M  V30 5895 H 549.702 4.71423 -2.82913 0
M  V30 5896 H 550.927 5.861 -3.43022 0
M  V30 5897 H 548.873 6.43756 -1.26153 0
M  V30 5898 H 548.79 6.97927 -2.90574 0
M  V30 5899 H 550.058 7.5669 -1.87191 0
M  V30 5900 N 554.287 1.06798 1.15896 0
M  V30 5901 C 555.219 0.641263 2.20046 0
M  V30 5902 C 556.232 -0.303355 1.59949 0
M  V30 5903 O 557.421 -0.0935478 1.78255 0
M  V30 5904 C 554.521 -0.0794029 3.38807 0
M  V30 5905 C 553.694 0.879986 4.28457 0
M  V30 5906 C 552.753 0.197638 5.25829 0
M  V30 5907 O 551.779 0.836913 5.63014 0
M  V30 5908 N 552.981 -1.05886 5.70761 0
M  V30 5909 H 555.746 1.53718 2.57276 0
M  V30 5910 H 553.307 0.951951 1.30956 0
M  V30 5911 H 555.299 -0.546418 4.00994 0
M  V30 5912 H 553.869 -0.877193 3.0004 0
M  V30 5913 H 553.089 1.52625 3.63454 0
M  V30 5914 H 554.377 1.53065 4.8523 0
M  V30 5915 H 553.775 -1.59828 5.42652 0
M  V30 5916 H 552.332 -1.46965 6.35015 0
M  V30 5917 N 555.766 -1.3263 0.851289 0
M  V30 5918 C 557.006 -1.99174 0.459266 0
M  V30 5919 C 557.37 -1.65913 -0.966273 0
M  V30 5920 O 558.571 -2.2552 -1.46267 0
M  V30 5921 C 556.842 -3.50721 0.687698 0
M  V30 5922 S 558.401 -4.37039 0.392746 0
M  V30 5923 H 555.219 -0.689832 0.172199 0
M  V30 5924 H 557.821 -1.61395 1.10327 0
M  V30 5925 H 556.525 -3.72417 1.72435 0
M  V30 5926 H 556.056 -3.93389 0.0299949 0
M  V30 5927 H 558.071 -4.8999 -0.782578 0
M  V30 5928 N 557.244 -0.608902 -1.45362 0
M  V30 5929 C 558.472 -0.111013 -2.06602 0
M  V30 5930 C 558.887 1.20516 -1.45332 0
M  V30 5931 O 558.244 1.73437 -0.567978 0
M  V30 5932 C 558.295 0.033688 -3.61484 0
M  V30 5933 O 558.016 -1.23041 -4.20467 0
M  V30 5934 C 559.517 0.562882 -4.39712 0
M  V30 5935 H 556.737 -0.0694453 -0.667397 0
M  V30 5936 H 559.281 -0.837008 -1.86586 0
M  V30 5937 H 557.436 0.710016 -3.80838 0
M  V30 5938 H 557.85 -1.06094 -5.13658 0
M  V30 5939 H 559.324 0.613213 -5.48583 0
M  V30 5940 H 559.801 1.58543 -4.09586 0
M  V30 5941 H 560.407 -0.0794454 -4.25226 0
M  V30 5942 N 558.722 1.53707 -0.348139 0
M  V30 5943 C 560.138 1.596 0.00361134 0
M  V30 5944 C 560.338 1.36394 1.4832 0
M  V30 5945 O 559.394 1.16046 2.24253 0
M  V30 5946 C 560.707 2.97512 -0.436682 0
M  V30 5947 C 562.255 3.10568 -0.389416 0
M  V30 5948 C 562.73 4.50866 -0.805249 0
M  V30 5949 N 564.221 4.56929 -0.759616 0
M  V30 5950 C 564.956 5.63643 -1.05327 0
M  V30 5951 N 564.452 6.78189 -1.41531 0
M  V30 5952 N 566.245 5.5354 -0.977207 0
M  V30 5953 H 558.396 1.67044 -1.31187 0
M  V30 5954 H 560.659 0.782559 -0.535075 0
M  V30 5955 H 560.365 3.19575 -1.46849 0
M  V30 5956 H 560.239 3.76742 0.185744 0
M  V30 5957 H 562.626 2.88226 0.633228 0
M  V30 5958 H 562.707 2.33387 -1.04711 0
M  V30 5959 H 562.351 4.73943 -1.82593 0
M  V30 5960 H 562.281 5.26452 -0.124989 0
M  V30 5961 H 564.772 3.74675 -0.49265 0
M  V30 5962 H 565.085 7.55541 -1.62411 0
M  V30 5963 H 563.43 6.79624 -1.45381 0
M  V30 5964 H 566.621 4.62932 -0.693675 0
M  V30 5965 H 566.794 6.36614 -1.2094 0
M  V30 5966 N 560.2 0.0768682 1.57412 0
M  V30 5967 C 561.446 -0.591961 1.93968 0
M  V30 5968 C 561.779 -1.68954 0.9575 0
M  V30 5969 O 561.054 -1.94496 -0.0124675 0
M  V30 5970 C 561.337 -1.16418 3.40762 0
M  V30 5971 C 561.19 -0.0728933 4.49741 0
M  V30 5972 C 562.509 -2.06814 3.88479 0
M  V30 5973 H 559.628 -0.213716 0.705333 0
M  V30 5974 H 562.27 0.14387 1.89455 0
M  V30 5975 H 560.42 -1.79128 3.4474 0
M  V30 5976 H 562.092 0.560446 4.57883 0
M  V30 5977 H 560.335 0.595859 4.29688 0
M  V30 5978 H 561.006 -0.513755 5.49604 0
M  V30 5979 H 563.482 -1.54033 3.8654 0
M  V30 5980 H 562.358 -2.43785 4.91793 0
M  V30 5981 H 562.619 -2.97844 3.26713 0
M  V30 5982 N 561.678 -1.56367 -0.196722 0
M  V30 5983 C 562.906 -1.84639 -0.933608 0
M  V30 5984 C 563.321 -0.659164 -1.76919 0
M  V30 5985 O 562.678 0.372142 -1.78665 0
M  V30 5986 C 562.729 -3.11694 -1.83109 0
M  V30 5987 O 562.45 -4.25838 -1.02924 0
M  V30 5988 C 563.951 -3.53132 -2.67979 0
M  V30 5989 H 561.171 -0.613188 -0.272473 0
M  V30 5990 H 563.715 -2.03475 -0.204465 0
M  V30 5991 H 561.87 -2.94759 -2.51387 0
M  V30 5992 H 562.284 -4.98178 -1.64069 0
M  V30 5993 H 563.758 -4.45005 -3.26611 0
M  V30 5994 H 564.235 -2.76045 -3.41608 0
M  V30 5995 H 564.841 -3.72592 -2.05074 0
M  V30 5996 N 563.156 0.464375 -1.50603 0
M  V30 5997 C 564.089 1.58052 -1.64605 0
M  V30 5998 C 565.067 1.54914 -0.494016 0
M  V30 5999 O 566.251 1.74438 -0.714393 0
M  V30 6000 C 563.378 2.96634 -1.63481 0
M  V30 6001 C 562.424 3.17901 -2.84325 0
M  V30 6002 S 563.257 2.97083 -4.45536 0
M  V30 6003 C 564.413 4.37994 -4.47115 0
M  V30 6004 H 564.646 1.45937 -2.59017 0
M  V30 6005 H 562.179 0.652189 -1.39949 0
M  V30 6006 H 564.137 3.76527 -1.63517 0
M  V30 6007 H 562.798 3.06134 -0.702928 0
M  V30 6008 H 561.991 4.19158 -2.79862 0
M  V30 6009 H 561.593 2.45792 -2.81891 0
M  V30 6010 H 563.885 5.30743 -4.21091 0
M  V30 6011 H 564.828 4.47499 -5.48772 0
M  V30 6012 H 565.236 4.20386 -3.76743 0
M  V30 6013 N 564.634 1.40294 0.718013 0
M  V30 6014 C 565.911 1.2894 1.47084 0
M  V30 6015 C 566.291 -0.0933625 2.10893 0
M  V30 6016 O 565.639 -1.10598 1.99951 0
M  V30 6017 C 565.849 2.4264 2.50852 0
M  V30 6018 C 567.197 2.8276 3.16752 0
M  V30 6019 O 568.221 2.42215 2.61171 0
M  V30 6020 O 567.08 3.528 4.17366 0
M  V30 6021 H 564.174 0.506236 0.653952 0
M  V30 6022 H 566.72 1.52208 0.750394 0
M  V30 6023 H 565.492 3.35009 2.022 0
M  V30 6024 H 565.115 2.21129 3.30435 0
M  V30 6025 N 566.112 -0.949982 1.2575 0
M  V30 6026 C 567.044 -2.05088 1.02331 0
M  V30 6027 C 568.057 -1.62795 -0.0133247 0
M  V30 6028 O 569.246 -1.77067 0.225759 0
M  V30 6029 C 566.346 -3.34794 0.525924 0
M  V30 6030 C 565.519 -4.05903 1.62978 0
M  V30 6031 C 564.578 -5.1388 1.13196 0
M  V30 6032 O 563.604 -5.39072 1.82729 0
M  V30 6033 N 564.806 -5.80495 -0.0242926 0
M  V30 6034 H 567.571 -2.25747 1.97125 0
M  V30 6035 H 565.132 -1.11886 1.17018 0
M  V30 6036 H 567.124 -4.04312 0.177263 0
M  V30 6037 H 565.694 -3.10872 -0.328202 0
M  V30 6038 H 564.914 -3.3042 2.1498 0
M  V30 6039 H 566.202 -4.50166 2.37124 0
M  V30 6040 H 565.6 -5.62454 -0.605184 0
M  V30 6041 H 564.157 -6.51043 -0.313947 0
M  V30 6042 N 567.59 -1.07411 -1.15328 0
M  V30 6043 C 568.52 -0.716472 -2.22236 0
M  V30 6044 C 569.501 0.296373 -1.67498 0
M  V30 6045 O 570.686 0.168989 -1.93463 0
M  V30 6046 C 567.816 -0.114142 -3.47112 0
M  V30 6047 C 566.77 -1.05421 -4.14814 0
M  V30 6048 C 566.096 -0.314604 -5.33774 0
M  V30 6049 C 567.396 -2.38808 -4.64508 0
M  V30 6050 H 569.09 -1.61029 -2.52408 0
M  V30 6051 H 566.636 -0.775702 -1.21321 0
M  V30 6052 H 568.589 0.148001 -4.2114 0
M  V30 6053 H 567.313 0.814755 -3.16274 0
M  V30 6054 H 565.972 -1.30128 -3.42728 0
M  V30 6055 H 565.62 0.617772 -4.99192 0
M  V30 6056 H 565.32 -0.941209 -5.80013 0
M  V30 6057 H 566.844 -0.0602747 -6.1057 0
M  V30 6058 H 568.258 -2.18424 -5.3006 0
M  V30 6059 H 566.655 -2.97069 -5.21412 0
M  V30 6060 H 567.725 -3.01067 -3.80114 0
M  V30 6061 N 569.068 1.32177 -0.85831 0
M  V30 6062 C 570.293 2.01847 -0.476718 0
M  V30 6063 C 570.718 1.64065 0.920021 0
M  V30 6064 O 570.076 0.843189 1.60499 0
M  V30 6065 C 570.124 3.55097 -0.627578 0
M  V30 6066 O 569.228 4.11012 0.338086 0
M  V30 6067 H 568.569 0.635907 -0.191099 0
M  V30 6068 H 571.099 1.68641 -1.15851 0
M  V30 6069 H 571.109 4.04718 -0.516476 0
M  V30 6070 H 569.784 3.81938 -1.64609 0
M  V30 6071 H 568.361 3.72451 0.182917 0
M  V30 6072 N 570.547 0.616602 1.45037 0
M  V30 6073 C 571.775 0.121968 2.0654 0
M  V30 6074 C 572.19 -1.19743 1.45969 0
M  V30 6075 O 571.547 -1.73133 0.577168 0
M  V30 6076 C 571.598 -0.0145171 3.61497 0
M  V30 6077 O 571.319 1.25269 4.19809 0
M  V30 6078 C 572.82 -0.539555 4.40004 0
M  V30 6079 H 570.04 0.0729837 0.667019 0
M  V30 6080 H 572.584 0.846891 1.8614 0
M  V30 6081 H 570.739 -0.689809 3.81209 0
M  V30 6082 H 571.153 1.08816 5.13088 0
M  V30 6083 H 572.627 -0.584112 5.48901 0
M  V30 6084 H 573.104 -1.56368 4.10421 0
M  V30 6085 H 573.71 0.101995 4.25178 0
M  V30 6086 N 572.025 -1.5352 0.356285 0
M  V30 6087 C 573.271 -2.01414 -0.236653 0
M  V30 6088 C 573.604 -1.24339 -1.49176 0
M  V30 6089 O 572.879 -0.334496 -1.91602 0
M  V30 6090 C 573.162 -3.56059 -0.537982 0
M  V30 6091 C 573.015 -4.43835 0.730112 0
M  V30 6092 C 574.334 -4.19127 -1.34239 0
M  V30 6093 H 571.453 -0.732135 -0.0845386 0
M  V30 6094 H 574.095 -1.83854 0.479341 0
M  V30 6095 H 572.245 -3.71153 -1.14795 0
M  V30 6096 H 573.917 -4.40555 1.36782 0
M  V30 6097 H 572.16 -4.1218 1.3524 0
M  V30 6098 H 572.831 -5.49958 0.474358 0
M  V30 6099 H 575.307 -4.07809 -0.826498 0
M  V30 6100 H 574.183 -5.27378 -1.52198 0
M  V30 6101 H 574.444 -3.74581 -2.34822 0
M  V30 6102 N 573.503 -0.0852151 -1.57369 0
M  V30 6103 C 574.453 0.88767 -2.10011 0
M  V30 6104 C 575.437 1.25021 -1.01285 0
M  V30 6105 O 576.629 1.22694 -1.27574 0
M  V30 6106 C 573.758 2.15037 -2.67608 0
M  V30 6107 C 572.844 1.81371 -3.83361 0
M  V30 6108 N 573.235 1.18216 -4.91791 0
M  V30 6109 C 571.533 2.11041 -3.92909 0
M  V30 6110 C 572.234 1.02941 -5.72519 0
M  V30 6111 N 571.21 1.54351 -5.21226 0
M  V30 6112 H 575.012 0.395279 -2.9123 0
M  V30 6113 H 572.526 0.11829 -1.61969 0
M  V30 6114 H 574.523 2.85667 -3.03644 0
M  V30 6115 H 573.183 2.64851 -1.8784 0
M  V30 6116 H 574.194 0.850168 -5.10874 0
M  V30 6117 H 570.871 2.63138 -3.24136 0
M  V30 6118 H 572.261 0.536298 -6.69756 0
M  V30 6119 N 574.981 1.5647 0.188427 0
M  V30 6120 C 575.931 1.91479 1.23774 0
M  V30 6121 C 576.915 0.78119 1.40664 0
M  V30 6122 O 578.107 1.04414 1.42922 0
M  V30 6123 C 575.236 2.26354 2.58106 0
M  V30 6124 C 574.322 3.46186 2.44981 0
M  V30 6125 N 574.713 4.63911 2.01546 0
M  V30 6126 C 573.011 3.50456 2.75856 0
M  V30 6127 C 573.712 5.46064 2.00472 0
M  V30 6128 N 572.688 4.86648 2.42229 0
M  V30 6129 H 576.49 2.79994 0.893339 0
M  V30 6130 H 574.004 1.57477 0.39682 0
M  V30 6131 H 576.001 2.49622 3.33908 0
M  V30 6132 H 574.661 1.39168 2.93364 0
M  V30 6133 H 575.672 4.88451 1.7215 0
M  V30 6134 H 572.349 2.73704 3.15265 0
M  V30 6135 H 573.739 6.50368 1.68734 0
M  V30 6136 N 576.459 -0.456382 1.50847 0
M  V30 6137 C 577.369 -1.57805 1.73594 0
M  V30 6138 C 578.385 -1.62599 0.619476 0
M  V30 6139 O 579.561 -1.80195 0.899532 0
M  V30 6140 C 576.626 -2.93926 1.8387 0
M  V30 6141 C 575.687 -2.99402 3.07663 0
M  V30 6142 C 574.92 -4.29031 3.1744 0
M  V30 6143 O 575.143 -5.20358 2.33631 0
M  V30 6144 O 574.077 -4.40401 4.10281 0
M  V30 6145 H 577.903 -1.41531 2.68705 0
M  V30 6146 H 575.488 -0.637422 1.3512 0
M  V30 6147 H 577.37 -3.74747 1.92725 0
M  V30 6148 H 576.045 -3.10368 0.91944 0
M  V30 6149 H 574.952 -2.17606 3.043 0
M  V30 6150 H 576.285 -2.87901 3.99216 0
M  V30 6151 N 577.937 -1.40673 -0.710563 0
M  V30 6152 C 578.87 -1.35742 -1.83438 0
M  V30 6153 C 579.848 -0.226997 -1.61008 0
M  V30 6154 O 581.032 -0.411477 -1.83954 0
M  V30 6155 C 578.159 -1.11374 -3.19865 0
M  V30 6156 C 577.205 -2.26935 -3.61113 0
M  V30 6157 S 578.038 -3.89352 -3.67648 0
M  V30 6158 C 579.194 -3.67258 -5.06826 0
M  V30 6159 H 579.427 -2.30848 -1.87341 0
M  V30 6160 H 576.96 -1.27018 -0.877831 0
M  V30 6161 H 578.918 -0.980004 -3.9863 0
M  V30 6162 H 577.579 -0.179135 -3.13589 0
M  V30 6163 H 576.772 -2.0554 -4.60184 0
M  V30 6164 H 576.374 -2.36638 -2.89618 0
M  V30 6165 H 578.666 -3.26036 -5.93891 0
M  V30 6166 H 579.609 -4.65878 -5.33257 0
M  V30 6167 H 580.017 -3.0084 -4.77656 0
M  V30 6168 N 579.415 0.9433 -1.26252 0
M  V30 6169 C 580.663 1.68592 -1.11451 0
M  V30 6170 C 580.984 1.91957 0.343123 0
M  V30 6171 O 580.254 1.51475 1.24226 0
M  V30 6172 H 578.834 0.624789 -0.409448 0
M  V30 6173 H 581.496 1.13351 -1.58548 0
M  V30 6174 H 580.592 2.66054 -1.63162 0
M  V30 6175 N 580.893 1.08022 1.14757 0
M  V30 6176 C 581.843 0.676345 2.17737 0
M  V30 6177 C 582.827 -0.302018 1.5804 0
M  V30 6178 O 584.019 -0.11466 1.76628 0
M  V30 6179 C 581.148 0.082984 3.432 0
M  V30 6180 C 580.234 1.0869 4.09936 0
M  V30 6181 N 580.625 2.26891 4.52055 0
M  V30 6182 C 578.923 0.921768 4.36371 0
M  V30 6183 C 579.624 2.90636 5.0389 0
M  V30 6184 N 578.6 2.18266 4.97856 0
M  V30 6185 H 582.402 1.5765 2.4804 0
M  V30 6186 H 579.916 0.954374 1.31398 0
M  V30 6187 H 581.913 -0.224289 4.16296 0
M  V30 6188 H 580.573 -0.812206 3.14378 0
M  V30 6189 H 581.584 2.6457 4.45223 0
M  V30 6190 H 578.261 0.0800499 4.17423 0
M  V30 6191 H 579.651 3.9104 5.46386 0
M  V30 6192 N 582.371 -1.3172 0.865308 0
M  V30 6193 C 583.62 -1.96145 0.470098 0
M  V30 6194 C 583.933 -1.69182 -0.981674 0
M  V30 6195 O 585.139 -2.27431 -1.48281 0
M  V30 6196 C 583.595 -3.51129 0.789732 0
M  V30 6197 C 583.203 -3.86938 2.25795 0
M  V30 6198 C 584.947 -4.2197 0.462765 0
M  V30 6199 C 582.854 -5.35012 2.52024 0
M  V30 6200 H 581.784 -0.734105 0.172065 0
M  V30 6201 H 584.435 -1.49959 1.05757 0
M  V30 6202 H 582.817 -3.95781 0.131571 0
M  V30 6203 H 583.991 -3.5326 2.95879 0
M  V30 6204 H 582.306 -3.29149 2.55049 0
M  V30 6205 H 584.903 -5.30904 0.636019 0
M  V30 6206 H 585.246 -4.12005 -0.59645 0
M  V30 6207 H 585.779 -3.82936 1.07727 0
M  V30 6208 H 582.518 -5.50008 3.56611 0
M  V30 6209 H 582.038 -5.70058 1.8653 0
M  V30 6210 H 583.717 -6.0222 2.36515 0
M  V30 6211 N 583.85 -0.624285 -1.44708 0
M  V30 6212 C 584.782 0.12305 -2.28869 0
M  V30 6213 C 585.795 0.81557 -1.40898 0
M  V30 6214 O 586.984 0.678162 -1.65116 0
M  V30 6215 C 584.084 1.19612 -3.1709 0
M  V30 6216 C 583.257 0.587452 -4.33437 0
M  V30 6217 C 582.316 1.55358 -5.02743 0
M  V30 6218 O 581.341 1.07338 -5.58988 0
M  V30 6219 N 582.543 2.88798 -5.03563 0
M  V30 6220 H 585.308 -0.599193 -2.93649 0
M  V30 6221 H 582.87 -0.464954 -1.5508 0
M  V30 6222 H 584.861 1.84261 -3.60319 0
M  V30 6223 H 583.432 1.82067 -2.54107 0
M  V30 6224 H 582.652 -0.237509 -3.93484 0
M  V30 6225 H 583.94 0.161326 -5.08544 0
M  V30 6226 H 583.338 3.30399 -4.59188 0
M  V30 6227 H 581.894 3.48826 -5.50603 0
M  V30 6228 N 585.328 1.53329 -0.364422 0
M  V30 6229 C 586.558 2.05359 0.226096 0
M  V30 6230 C 586.966 1.23777 1.43094 0
M  V30 6231 O 586.309 0.271139 1.81688 0
M  V30 6232 C 586.371 3.52918 0.684794 0
M  V30 6233 C 586.035 4.55218 -0.403206 0
M  V30 6234 C 587.032 5.04583 -1.2527 0
M  V30 6235 C 584.717 4.99134 -0.563117 0
M  V30 6236 C 586.711 5.96463 -2.24745 0
M  V30 6237 C 584.398 5.9082 -1.56124 0
M  V30 6238 C 585.396 6.39375 -2.40184 0
M  V30 6239 O 585.084 7.29255 -3.38293 0
M  V30 6240 H 584.816 0.674588 0.0436772 0
M  V30 6241 H 587.37 1.98688 -0.520782 0
M  V30 6242 H 585.6 3.57122 1.48326 0
M  V30 6243 H 587.289 3.87812 1.19818 0
M  V30 6244 H 588.055 4.71403 -1.14034 0
M  V30 6245 H 583.934 4.60928 0.0813909 0
M  V30 6246 H 587.478 6.34285 -2.90393 0
M  V30 6247 H 583.375 6.23414 -1.67407 0
M  V30 6248 H 584.143 7.47249 -3.34009 0
M  V30 6249 N 586.806 0.0935595 1.57322 0
M  V30 6250 C 588.036 -0.578095 1.98347 0
M  V30 6251 C 588.444 -1.62357 0.971441 0
M  V30 6252 O 587.787 -1.83639 -0.0473959 0
M  V30 6253 C 587.849 -1.28525 3.3574 0
M  V30 6254 C 587.513 -0.390714 4.55327 0
M  V30 6255 C 588.51 0.360522 5.18648 0
M  V30 6256 C 586.195 -0.309221 5.01347 0
M  V30 6257 C 588.189 1.18125 6.26359 0
M  V30 6258 C 585.876 0.515157 6.08925 0
M  V30 6259 C 586.874 1.25904 6.71295 0
M  V30 6260 O 586.562 2.06978 7.76798 0
M  V30 6261 H 586.294 -0.159767 0.656849 0
M  V30 6262 H 588.848 0.169058 2.04703 0
M  V30 6263 H 587.078 -2.07894 3.26063 0
M  V30 6264 H 588.767 -1.85128 3.61223 0
M  V30 6265 H 589.533 0.307285 4.84026 0
M  V30 6266 H 585.412 -0.877881 4.52564 0
M  V30 6267 H 588.956 1.76236 6.74971 0
M  V30 6268 H 584.853 0.56988 6.42979 0
M  V30 6269 H 585.621 1.99644 7.93779 0
M  V30 6270 N 588.284 -1.56567 -0.180126 0
M  V30 6271 C 589.214 -1.98753 -1.22553 0
M  V30 6272 C 590.195 -0.86175 -1.46656 0
M  V30 6273 O 591.38 -1.12719 -1.58139 0
M  V30 6274 C 588.51 -2.33988 -2.56645 0
M  V30 6275 C 587.464 -3.49445 -2.47128 0
M  V30 6276 C 586.79 -3.70397 -3.8563 0
M  V30 6277 C 588.09 -4.83171 -1.98352 0
M  V30 6278 H 589.784 -2.86332 -0.874896 0
M  V30 6279 H 587.33 -1.37757 -0.419414 0
M  V30 6280 H 589.283 -2.62097 -3.29974 0
M  V30 6281 H 588.007 -1.43309 -2.93479 0
M  V30 6282 H 586.666 -3.2145 -1.76254 0
M  V30 6283 H 586.314 -2.77023 -4.19842 0
M  V30 6284 H 586.014 -4.48077 -3.80132 0
M  V30 6285 H 587.538 -4.00897 -4.60558 0
M  V30 6286 H 588.952 -5.10213 -2.61449 0
M  V30 6287 H 587.349 -5.64425 -2.03823 0
M  V30 6288 H 588.419 -4.75753 -0.937402 0
M  V30 6289 N 589.762 0.448376 -1.51087 0
M  V30 6290 C 590.694 1.56146 -1.67783 0
M  V30 6291 C 591.707 1.52913 -0.55871 0
M  V30 6292 O 592.896 1.57889 -0.83267 0
M  V30 6293 C 589.996 2.95057 -1.66716 0
M  V30 6294 C 589.169 3.22915 -2.95033 0
M  V30 6295 C 588.228 4.41495 -2.86302 0
M  V30 6296 O 587.254 4.40688 -3.60254 0
M  V30 6297 N 588.456 5.44443 -2.014 0
M  V30 6298 H 591.221 1.42232 -2.638 0
M  V30 6299 H 588.782 0.637153 -1.48835 0
M  V30 6300 H 590.774 3.72388 -1.58458 0
M  V30 6301 H 589.344 3.02624 -0.783403 0
M  V30 6302 H 588.564 2.33985 -3.17245 0
M  V30 6303 H 589.852 3.38349 -3.79996 0
M  V30 6304 H 589.25 5.4793 -1.40674 0
M  V30 6305 H 587.807 6.2067 -1.99029 0
M  V30 6306 N 591.24 1.41047 0.703093 0
M  V30 6307 C 592.47 1.43133 1.48985 0
M  V30 6308 C 592.878 0.0328537 1.89171 0
M  V30 6309 O 592.221 -0.956469 1.56835 0
M  V30 6310 C 592.283 2.26991 2.78775 0
M  V30 6311 C 591.947 3.7525 2.60837 0
M  V30 6312 C 592.944 4.67591 2.27276 0
M  V30 6313 C 590.629 4.19208 2.76712 0
M  V30 6314 C 592.623 6.01877 2.09817 0
M  V30 6315 C 590.31 5.53561 2.5887 0
M  V30 6316 C 591.308 6.4471 2.25472 0
M  V30 6317 O 590.996 7.76584 2.07778 0
M  V30 6318 H 590.728 0.489788 0.465922 0
M  V30 6319 H 593.282 1.85886 0.873822 0
M  V30 6320 H 591.512 1.79038 3.42757 0
M  V30 6321 H 593.201 2.20867 3.40547 0
M  V30 6322 H 593.967 4.34923 2.14633 0
M  V30 6323 H 589.846 3.48572 3.01693 0
M  V30 6324 H 593.39 6.72986 1.83671 0
M  V30 6325 H 589.287 5.85811 2.71102 0
M  V30 6326 H 590.055 7.87649 2.22601 0
M  V30 6327 N 592.718 -0.936591 1.26751 0
M  V30 6328 C 593.665 -2.03597 1.08706 0
M  V30 6329 C 594.635 -1.66097 -0.00926542 0
M  V30 6330 O 595.82 -1.90199 0.151377 0
M  V30 6331 C 592.96 -3.3727 0.73094 0
M  V30 6332 C 592.073 -3.87778 1.90399 0
M  V30 6333 C 591.208 -5.09859 1.49056 0
M  V30 6334 C 590.247 -5.5264 2.63164 0
M  V30 6335 N 589.384 -6.65921 2.22471 0
M  V30 6336 H 594.224 -2.18364 2.02784 0
M  V30 6337 H 591.761 -1.06985 1.00958 0
M  V30 6338 H 593.719 -4.14128 0.505328 0
M  V30 6339 H 592.349 -3.22337 -0.172868 0
M  V30 6340 H 591.401 -3.07279 2.2424 0
M  V30 6341 H 592.713 -4.15464 2.76028 0
M  V30 6342 H 591.867 -5.9419 1.22567 0
M  V30 6343 H 590.606 -4.8393 0.60524 0
M  V30 6344 H 589.611 -4.66863 2.90377 0
M  V30 6345 H 590.836 -5.80568 3.52303 0
M  V30 6346 H 588.782 -6.41667 1.36379 0
M  V30 6347 H 588.699 -6.93216 3.01641 0
M  V30 6348 H 589.967 -7.53616 1.99205 0
M  V30 6349 N 594.196 -1.08629 -1.14182 0
M  V30 6350 C 595.473 -0.73002 -1.81466 0
M  V30 6351 C 595.853 0.785996 -1.95922 0
M  V30 6352 O 595.201 1.70535 -1.52086 0
M  V30 6353 C 595.411 -1.45957 -3.17014 0
M  V30 6354 C 596.759 -1.62008 -3.92477 0
M  V30 6355 O 597.783 -1.42141 -3.26611 0
M  V30 6356 O 596.642 -1.94806 -5.106 0
M  V30 6357 H 593.736 -0.261307 -0.784632 0
M  V30 6358 H 596.282 -1.188 -1.2118 0
M  V30 6359 H 595.054 -2.49221 -3.01669 0
M  V30 6360 H 594.677 -0.993222 -3.84995 0
M  V30 6361 N 595.674 1.31259 -0.872281 0
M  V30 6362 C 596.604 2.30929 -0.345554 0
M  V30 6363 C 597.585 1.60449 0.5648 0
M  V30 6364 O 598.77 1.8814 0.481335 0
M  V30 6365 C 595.9 3.44348 0.451823 0
M  V30 6366 C 594.854 4.26435 -0.365641 0
M  V30 6367 C 594.18 5.31785 0.557562 0
M  V30 6368 C 595.48 4.97159 -1.60095 0
M  V30 6369 H 597.174 2.75234 -1.17841 0
M  V30 6370 H 594.72 1.3232 -0.568094 0
M  V30 6371 H 596.673 4.13128 0.830854 0
M  V30 6372 H 595.397 2.98816 1.31821 0
M  V30 6373 H 594.056 3.59326 -0.726649 0
M  V30 6374 H 593.704 4.82502 1.4213 0
M  V30 6375 H 593.404 5.87598 0.0144878 0
M  V30 6376 H 594.928 6.03424 0.933387 0
M  V30 6377 H 596.342 5.58523 -1.29323 0
M  V30 6378 H 594.739 5.62779 -2.08327 0
M  V30 6379 H 595.809 4.24012 -2.35249 0
M  V30 6380 N 597.152 0.631951 1.44375 0
M  V30 6381 C 598.563 0.219036 1.85411 0
M  V30 6382 C 598.914 -1.22974 1.52879 0
M  V30 6383 O 598.039 -1.93579 0.967266 0
M  V30 6384 C 598.634 0.39075 3.36539 0
M  V30 6385 C 597.193 0.0323351 3.76386 0
M  V30 6386 C 596.34 0.703744 2.68221 0
M  V30 6387 H 599.291 0.837056 1.3483 0
M  V30 6388 H 599.312 -0.370056 3.78696 0
M  V30 6389 H 598.824 1.44527 3.60185 0
M  V30 6390 H 596.925 -1.02042 3.58355 0
M  V30 6391 H 597.038 0.442969 4.77048 0
M  V30 6392 H 595.402 0.138974 2.54321 0
M  V30 6393 H 596.185 1.76088 2.947 0
M  V30 6394 N 598.631 -1.53133 0.372548 0
M  V30 6395 C 599.877 -2.01654 -0.215277 0
M  V30 6396 C 600.21 -1.25914 -1.47849 0
M  V30 6397 O 599.485 -0.3548 -1.91237 0
M  V30 6398 C 599.768 -3.56609 -0.500187 0
M  V30 6399 C 599.621 -4.43036 0.777145 0
M  V30 6400 C 600.94 -4.20528 -1.29786 0
M  V30 6401 H 598.059 -0.732991 -0.0767686 0
M  V30 6402 H 600.701 -1.83335 0.498814 0
M  V30 6403 H 598.851 -3.7235 -1.10852 0
M  V30 6404 H 600.523 -4.39079 1.41447 0
M  V30 6405 H 598.766 -4.10723 1.39604 0
M  V30 6406 H 599.437 -5.49424 0.532662 0
M  V30 6407 H 601.913 -4.08663 -0.783198 0
M  V30 6408 H 600.789 -5.28962 -1.46596 0
M  V30 6409 H 601.05 -3.77051 -2.30836 0
M  V30 6410 N 600.109 -0.101901 -1.5727 0
M  V30 6411 C 601.334 0.571759 -1.99363 0
M  V30 6412 C 601.759 1.60507 -0.980768 0
M  V30 6413 O 601.117 1.81231 0.0498517 0
M  V30 6414 C 601.165 1.18996 -3.404 0
M  V30 6415 O 600.269 2.30572 -3.41922 0
M  V30 6416 H 599.61 0.144449 -0.648098 0
M  V30 6417 H 602.14 -0.185325 -2.03759 0
M  V30 6418 H 602.15 1.52962 -3.78241 0
M  V30 6419 H 600.825 0.432984 -4.1364 0
M  V30 6420 H 599.402 1.98173 -3.15883 0
M  V30 6421 N 601.587 1.56661 0.17182 0
M  V30 6422 C 602.517 1.99401 1.21498 0
M  V30 6423 C 603.498 0.869516 1.46197 0
M  V30 6424 O 604.683 1.13556 1.57539 0
M  V30 6425 C 601.813 2.35346 2.55401 0
M  V30 6426 C 600.767 3.5075 2.45272 0
M  V30 6427 C 600.093 3.72437 3.8366 0
M  V30 6428 C 601.393 4.84216 1.95787 0
M  V30 6429 H 603.087 2.86792 0.859699 0
M  V30 6430 H 600.633 1.37977 0.412103 0
M  V30 6431 H 602.586 2.63843 3.2858 0
M  V30 6432 H 601.31 1.44864 2.92715 0
M  V30 6433 H 599.969 3.2238 1.74547 0
M  V30 6434 H 599.617 2.79246 4.18367 0
M  V30 6435 H 599.317 4.50087 3.77751 0
M  V30 6436 H 600.841 4.03334 4.58426 0
M  V30 6437 H 602.255 5.11592 2.5874 0
M  V30 6438 H 600.652 5.65498 2.00827 0
M  V30 6439 H 601.722 4.76243 0.912159 0
M  V30 6440 N 603.065 -0.440357 1.51323 0
M  V30 6441 C 604.481 -0.7766 1.39431 0
M  V30 6442 C 604.681 -1.95838 0.474296 0
M  V30 6443 O 603.737 -2.52398 -0.0716692 0
M  V30 6444 C 605.05 -1.05981 2.81405 0
M  V30 6445 C 606.598 -1.16442 2.90534 0
M  V30 6446 C 607.073 -1.48058 4.33408 0
M  V30 6447 N 608.564 -1.54988 4.36501 0
M  V30 6448 C 609.299 -1.81017 5.44078 0
M  V30 6449 N 608.795 -2.04858 6.61819 0
M  V30 6450 N 610.588 -1.82774 5.31554 0
M  V30 6451 H 602.739 0.338006 2.09693 0
M  V30 6452 H 605.002 0.0888072 0.943831 0
M  V30 6453 H 604.708 -0.264173 3.50706 0
M  V30 6454 H 604.582 -1.98822 3.20546 0
M  V30 6455 H 606.969 -1.95068 2.21432 0
M  V30 6456 H 607.05 -0.215088 2.54894 0
M  V30 6457 H 606.694 -0.699605 5.03059 0
M  V30 6458 H 606.624 -2.44192 4.66559 0
M  V30 6459 H 609.115 -1.38479 3.51613 0
M  V30 6460 H 609.428 -2.2408 7.396 0
M  V30 6461 H 607.773 -2.02187 6.6494 0
M  V30 6462 H 610.964 -1.63665 4.38556 0
M  V30 6463 H 611.137 -2.02722 6.15474 0
M  V30 6464 N 604.543 -1.41418 -0.695603 0
M  V30 6465 C 605.959 -1.23887 -1.00619 0
M  V30 6466 C 606.159 -0.128206 -2.01092 0
M  V30 6467 O 605.215 0.507408 -2.47349 0
M  V30 6468 C 606.528 -2.58816 -1.53083 0
M  V30 6469 C 608.076 -2.65998 -1.64967 0
M  V30 6470 C 608.551 -4.01244 -2.20833 0
M  V30 6471 N 610.042 -4.0309 -2.28194 0
M  V30 6472 C 610.777 -5.04539 -2.72448 0
M  V30 6473 N 610.273 -6.16378 -3.16306 0
M  V30 6474 N 612.066 -4.91901 -2.72011 0
M  V30 6475 H 604.217 -2.12379 -0.0300061 0
M  V30 6476 H 606.48 -0.944958 -0.0758797 0
M  V30 6477 H 606.186 -3.40842 -0.867147 0
M  V30 6478 H 606.06 -2.81299 -2.51298 0
M  V30 6479 H 608.447 -1.84331 -2.30448 0
M  V30 6480 H 608.528 -2.47325 -0.652982 0
M  V30 6481 H 608.172 -4.83359 -1.55968 0
M  V30 6482 H 608.102 -4.17257 -3.21254 0
M  V30 6483 H 610.593 -3.22341 -1.97242 0
M  V30 6484 H 610.906 -6.89658 -3.487 0
M  V30 6485 H 609.251 -6.19914 -3.14215 0
M  V30 6486 H 612.442 -4.03613 -2.37095 0
M  V30 6487 H 612.615 -5.71102 -3.06181 0
M  V30 6488 N 606.021 0.929856 -1.27246 0
M  V30 6489 C 607.269 1.674 -1.13233 0
M  V30 6490 C 607.59 1.92311 0.322744 0
M  V30 6491 O 606.86 1.52784 1.22612 0
M  V30 6492 H 605.44 0.620411 -0.416052 0
M  V30 6493 H 608.102 1.11663 -1.59741 0
M  V30 6494 H 607.198 2.64308 -1.65975 0
M  V30 6495 N 607.499 1.09233 1.13605 0
M  V30 6496 C 608.462 0.733553 2.17144 0
M  V30 6497 C 609.462 -0.235873 1.59061 0
M  V30 6498 O 610.652 -0.0143167 1.74194 0
M  V30 6499 C 607.784 0.084471 3.40795 0
M  V30 6500 H 608.977 1.65049 2.50397 0
M  V30 6501 H 606.53 0.891264 1.28399 0
M  V30 6502 H 607.265 -0.843795 3.1313 0
M  V30 6503 H 607.05 0.781985 3.84223 0
M  V30 6504 H 608.54 -0.151216 4.17326 0
M  V30 6505 N 608.977 -1.30795 0.87923 0
M  V30 6506 C 609.925 -2.30231 0.331112 0
M  V30 6507 C 610.919 -1.59918 -0.558794 0
M  V30 6508 O 612.125 -1.74441 -0.443866 0
M  V30 6509 H 608.5 -0.746785 0.088409 0
M  V30 6510 H 610.471 -2.73925 1.18353 0
M  V30 6511 C 609.22 -3.44848 -0.444401 0
M  V30 6512 H 608.543 -3.99131 0.231106 0
M  V30 6513 H 609.983 -4.16516 -0.793109 0
M  V30 6514 C 608.442 -2.94329 -1.63926 0
M  V30 6515 O 608.972 -2.93875 -2.73862 0
M  V30 6516 N 607.178 -2.50413 -1.4745 0
M  V30 6517 H 606.725 -2.50982 -0.58015 0
M  V30 6518 H 606.683 -2.16969 -2.27534 0
M  V30 6519 N 610.455 -0.639598 -1.44038 0
M  V30 6520 C 611.866 -0.228866 -1.85292 0
M  V30 6521 C 612.217 1.22161 -1.53529 0
M  V30 6522 O 611.342 1.93064 -0.977518 0
M  V30 6523 C 611.937 -0.408592 -3.36327 0
M  V30 6524 C 610.496 -0.0522953 -3.76364 0
M  V30 6525 C 609.643 -0.717959 -2.67844 0
M  V30 6526 H 612.594 -0.844194 -1.34384 0
M  V30 6527 H 612.615 0.349968 -3.78887 0
M  V30 6528 H 612.127 -1.46435 -3.59414 0
M  V30 6529 H 610.228 1.0014 -3.58891 0
M  V30 6530 H 610.341 -0.468261 -4.76806 0
M  V30 6531 H 608.705 -0.152459 -2.54243 0
M  V30 6532 H 609.488 -1.77648 -2.93762 0
M  V30 6533 N 611.933 1.52934 -0.380664 0
M  V30 6534 C 613.181 2.01069 0.203874 0
M  V30 6535 C 613.502 1.26922 1.4804 0
M  V30 6536 O 612.772 0.386787 1.92044 0
M  V30 6537 H 611.352 0.742882 0.0783279 0
M  V30 6538 H 614.014 1.88099 -0.510368 0
M  V30 6539 H 613.11 3.09258 0.42021 0
M  V30 6540 N 613.412 0.11024 1.57214 0
M  V30 6541 C 614.659 -0.54987 1.94891 0
M  V30 6542 C 614.987 -1.67243 0.992984 0
M  V30 6543 O 614.242 -1.95694 0.0152703 0
M  V30 6544 C 614.541 -1.13102 3.39032 0
M  V30 6545 C 614.207 -0.130713 4.5071 0
M  V30 6546 C 612.869 0.14437 4.80983 0
M  V30 6547 C 615.221 0.551472 5.18274 0
M  V30 6548 C 612.549 1.10807 5.76141 0
M  V30 6549 C 614.901 1.50375 6.14467 0
M  V30 6550 C 613.565 1.78691 6.43138 0
M  V30 6551 H 612.835 -0.201212 0.713158 0
M  V30 6552 H 615.482 0.189288 1.90562 0
M  V30 6553 H 613.787 -1.94675 3.40013 0
M  V30 6554 H 615.484 -1.64973 3.65493 0
M  V30 6555 H 612.074 -0.355301 4.27125 0
M  V30 6556 H 616.258 0.35211 4.95049 0
M  V30 6557 H 611.514 1.3343 5.96663 0
M  V30 6558 H 615.688 2.03808 6.65909 0
M  V30 6559 H 613.315 2.53522 7.1668 0
M  V30 6560 N 614.89 -1.56749 -0.16351 0
M  V30 6561 C 615.84 -1.93424 -1.20712 0
M  V30 6562 C 616.824 -0.803469 -1.39403 0
M  V30 6563 O 618.016 -1.06675 -1.41243 0
M  V30 6564 C 615.145 -2.30431 -2.54473 0
M  V30 6565 C 614.231 -3.5004 -2.39443 0
M  V30 6566 N 614.622 -4.67058 -1.9414 0
M  V30 6567 C 612.92 -3.548 -2.70246 0
M  V30 6568 C 613.621 -5.49184 -1.9176 0
M  V30 6569 N 612.597 -4.9044 -2.34457 0
M  V30 6570 H 616.399 -2.8138 -0.848681 0
M  V30 6571 H 613.913 -1.58089 -0.371717 0
M  V30 6572 H 615.91 -2.54903 -3.29894 0
M  V30 6573 H 614.57 -1.43818 -2.91112 0
M  V30 6574 H 615.581 -4.91128 -1.64357 0
M  V30 6575 H 612.258 -2.78685 -3.10871 0
M  V30 6576 H 613.648 -6.5297 -1.58366 0
M  V30 6577 N 616.368 0.432326 -1.51554 0
M  V30 6578 C 617.278 1.55023 -1.76082 0
M  V30 6579 C 618.294 1.61593 -0.645265 0
M  V30 6580 O 619.47 1.78742 -0.928086 0
M  V30 6581 C 616.535 2.90964 -1.88523 0
M  V30 6582 C 615.596 2.9447 -3.12388 0
M  V30 6583 C 614.829 4.23926 -3.24225 0
M  V30 6584 O 615.052 5.16576 -2.4188 0
M  V30 6585 O 613.986 4.33818 -4.17235 0
M  V30 6586 H 617.812 1.37238 -2.70923 0
M  V30 6587 H 615.397 0.615845 -1.36117 0
M  V30 6588 H 617.279 3.71633 -1.98662 0
M  V30 6589 H 615.954 3.08865 -0.9687 0
M  V30 6590 H 614.861 2.12737 -3.07723 0
M  V30 6591 H 616.194 2.81514 -4.03746 0
M  V30 6592 N 617.846 1.41785 0.688094 0
M  V30 6593 C 618.809 1.43936 1.78368 0
M  V30 6594 C 619.809 0.328866 1.57401 0
M  V30 6595 O 620.999 0.589093 1.63937 0
M  V30 6596 C 618.131 1.25804 3.16838 0
M  V30 6597 H 619.324 2.41472 1.77852 0
M  V30 6598 H 616.877 1.28037 0.896448 0
M  V30 6599 H 617.612 0.291386 3.22988 0
M  V30 6600 H 617.397 2.06272 3.33458 0
M  V30 6601 H 618.887 1.30162 3.96797 0
M  V30 6602 N 619.324 -0.923095 1.27737 0
M  V30 6603 C 620.573 -1.66581 1.13727 0
M  V30 6604 C 620.886 -1.9304 -0.315433 0
M  V30 6605 O 622.092 -2.65309 -0.57651 0
M  V30 6606 C 620.548 -3.00047 1.98745 0
M  V30 6607 C 620.156 -2.8127 3.48699 0
M  V30 6608 C 621.9 -3.77887 1.93395 0
M  V30 6609 C 619.807 -4.1032 4.25901 0
M  V30 6610 H 618.737 -0.624834 0.422017 0
M  V30 6611 H 621.388 -1.02514 1.52194 0
M  V30 6612 H 619.77 -3.65197 1.53125 0
M  V30 6613 H 620.944 -2.24859 4.02213 0
M  V30 6614 H 619.259 -2.16854 3.55476 0
M  V30 6615 H 621.856 -4.73526 2.48348 0
M  V30 6616 H 622.199 -4.06264 0.908605 0
M  V30 6617 H 622.732 -3.19541 2.36935 0
M  V30 6618 H 619.471 -3.8712 5.28978 0
M  V30 6619 H 618.991 -4.66377 3.77163 0
M  V30 6620 H 620.67 -4.78648 4.35321 0
M  V30 6621 N 620.802 -1.09834 -1.13024 0
M  V30 6622 C 622.05 -0.835297 -1.8403 0
M  V30 6623 C 622.371 0.640944 -1.84165 0
M  V30 6624 O 621.641 1.46517 -1.30037 0
M  V30 6625 H 620.221 -0.306018 -0.681441 0
M  V30 6626 H 622.883 -1.38734 -1.36891 0
M  V30 6627 H 621.979 -1.19258 -2.88416 0
M  V30 6628 N 622.28 1.30327 -0.886154 0
M  V30 6629 C 623.557 1.90922 -0.425217 0
M  V30 6630 C 623.937 1.80533 1.09413 0
M  V30 6631 O 623.285 1.2233 1.92996 0
M  V30 6632 C 623.495 3.36529 -0.924638 0
M  V30 6633 C 624.843 4.13598 -0.960305 0
M  V30 6634 O 625.867 3.45377 -0.871382 0
M  V30 6635 O 624.726 5.35482 -1.09184 0
M  V30 6636 H 621.82 0.81668 -0.130238 0
M  V30 6637 H 624.366 1.38886 -0.975132 0
M  V30 6638 H 623.138 3.38181 -1.96849 0
M  V30 6639 H 622.761 3.96021 -0.353955 0
M  V30 6640 N 623.758 0.647228 1.43697 0
M  V30 6641 C 625.004 0.158422 2.0218 0
M  V30 6642 C 625.337 -1.22233 1.50907 0
M  V30 6643 O 624.612 -1.81478 0.699702 0
M  V30 6644 C 624.895 0.1627 3.59732 0
M  V30 6645 C 624.748 1.57694 4.21251 0
M  V30 6646 C 626.067 -0.504138 4.37203 0
M  V30 6647 H 623.186 0.059042 0.734631 0
M  V30 6648 H 625.828 0.826772 1.71069 0
M  V30 6649 H 623.978 -0.406414 3.86368 0
M  V30 6650 H 625.65 2.19618 4.05667 0
M  V30 6651 H 623.893 2.12603 3.7813 0
M  V30 6652 H 624.564 1.53183 5.3032 0
M  V30 6653 H 627.04 -0.0199841 4.16095 0
M  V30 6654 H 625.916 -0.470394 5.46881 0
M  V30 6655 H 626.177 -1.57726 4.13007 0
M  V30 6656 N 625.236 -1.5273 0.388769 0
M  V30 6657 C 626.166 -2.29353 -0.438111 0
M  V30 6658 C 627.147 -1.32719 -1.06394 0
M  V30 6659 O 628.332 -1.61612 -1.07681 0
M  V30 6660 C 625.462 -3.09995 -1.56589 0
M  V30 6661 C 624.416 -4.14509 -1.06613 0
M  V30 6662 C 623.742 -4.83372 -2.28594 0
M  V30 6663 C 625.042 -5.22127 -0.134459 0
M  V30 6664 H 626.736 -2.98723 0.201206 0
M  V30 6665 H 624.282 -1.43665 0.0982089 0
M  V30 6666 H 626.235 -3.62357 -2.15118 0
M  V30 6667 H 624.959 -2.38357 -2.23279 0
M  V30 6668 H 623.618 -3.63128 -0.503383 0
M  V30 6669 H 623.266 -4.08283 -2.93792 0
M  V30 6670 H 622.966 -5.54012 -1.95817 0
M  V30 6671 H 624.49 -5.38538 -2.87766 0
M  V30 6672 H 625.904 -5.69851 -0.627914 0
M  V30 6673 H 624.301 -6.00011 0.103534 0
M  V30 6674 H 625.371 -4.77971 0.816798 0
M  V30 6675 N 626.714 -0.118576 -1.57153 0
M  V30 6676 C 627.677 0.817464 -2.14127 0
M  V30 6677 C 628.677 1.1949 -1.07604 0
M  V30 6678 O 629.867 1.12048 -1.33382 0
M  V30 6679 C 626.999 2.10541 -2.68115 0
M  V30 6680 H 628.192 0.322339 -2.98163 0
M  V30 6681 H 625.745 0.130655 -1.55753 0
M  V30 6682 H 626.48 2.64485 -1.87665 0
M  V30 6683 H 626.265 1.84425 -3.4602 0
M  V30 6684 H 627.755 2.77453 -3.12105 0
M  V30 6685 N 628.193 1.56834 0.155195 0
M  V30 6686 C 629.123 2.00678 1.19376 0
M  V30 6687 C 630.104 0.884973 1.45266 0
M  V30 6688 O 631.289 1.1522 1.56326 0
M  V30 6689 C 628.419 2.38042 2.5289 0
M  V30 6690 C 627.373 3.53332 2.41538 0
M  V30 6691 C 626.699 3.76485 3.79688 0
M  V30 6692 C 627.999 4.86265 1.9064 0
M  V30 6693 H 629.693 2.87688 0.829232 0
M  V30 6694 H 627.239 1.38407 0.397445 0
M  V30 6695 H 629.192 2.67314 3.25763 0
M  V30 6696 H 627.916 1.4796 2.91162 0
M  V30 6697 H 626.575 3.24213 1.71117 0
M  V30 6698 H 626.223 2.83667 4.15382 0
M  V30 6699 H 625.923 4.54068 3.72956 0
M  V30 6700 H 627.447 4.08174 4.54122 0
M  V30 6701 H 628.861 5.14308 2.53299 0
M  V30 6702 H 627.258 5.67597 1.94818 0
M  V30 6703 H 628.328 4.77184 0.861596 0
M  V30 6704 N 629.671 -0.424282 1.51781 0
M  V30 6705 C 630.896 -1.19928 1.6921 0
M  V30 6706 C 631.321 -1.8392 0.394355 0
M  V30 6707 O 630.679 -1.69371 -0.646778 0
M  V30 6708 C 630.727 -2.24937 2.81843 0
M  V30 6709 O 629.831 -3.3073 2.46356 0
M  V30 6710 H 629.172 -0.35078 0.563781 0
M  V30 6711 H 631.702 -0.499401 1.98412 0
M  V30 6712 H 631.712 -2.69512 3.06312 0
M  V30 6713 H 630.387 -1.77742 3.76006 0
M  V30 6714 H 628.964 -2.9154 2.32505 0
M  V30 6715 N 631.149 -1.42148 -0.680565 0
M  V30 6716 C 632.395 -1.42521 -1.44277 0
M  V30 6717 C 632.728 -0.0393718 -1.9416 0
M  V30 6718 O 632.003 0.935425 -1.70529 0
M  V30 6719 C 632.286 -2.44475 -2.64394 0
M  V30 6720 C 632.139 -3.92226 -2.20179 0
M  V30 6721 C 633.458 -2.43491 -3.66606 0
M  V30 6722 H 630.577 -0.518985 -0.523282 0
M  V30 6723 H 633.219 -1.73524 -0.773914 0
M  V30 6724 H 631.369 -2.18168 -3.21458 0
M  V30 6725 H 633.041 -4.29493 -1.68327 0
M  V30 6726 H 631.284 -4.0637 -1.5181 0
M  V30 6727 H 631.955 -4.59133 -3.06433 0
M  V30 6728 H 634.431 -2.66872 -3.19247 0
M  V30 6729 H 633.307 -3.16816 -4.4824 0
M  V30 6730 H 633.568 -1.45881 -4.17338 0
M  V30 6731 N 632.627 0.916307 -1.28225 0
M  V30 6732 C 633.852 1.7043 -1.18188 0
M  V30 6733 C 634.277 1.86346 0.256274 0
M  V30 6734 O 633.635 1.37175 1.18544 0
M  V30 6735 C 633.683 3.07546 -1.88275 0
M  V30 6736 O 632.787 3.94904 -1.18848 0
M  V30 6737 H 632.128 0.521967 -0.410423 0
M  V30 6738 H 634.658 1.14589 -1.69501 0
M  V30 6739 H 634.668 3.57793 -1.96082 0
M  V30 6740 H 633.343 2.95279 -2.92887 0
M  V30 6741 H 631.92 3.53339 -1.19187 0
M  V30 6742 N 634.105 1.10431 1.1244 0
M  V30 6743 C 635.333 0.868872 1.87772 0
M  V30 6744 C 635.748 -0.580645 1.7965 0
M  V30 6745 O 635.105 -1.40031 1.17036 0
M  V30 6746 C 635.156 1.30855 3.36986 0
M  V30 6747 O 634.877 2.70123 3.44914 0
M  V30 6748 C 636.378 1.107 4.29256 0
M  V30 6749 H 633.598 0.311868 0.59412 0
M  V30 6750 H 636.142 1.46897 1.42273 0
M  V30 6751 H 634.297 0.752126 3.80029 0
M  V30 6752 H 634.711 2.88923 4.37748 0
M  V30 6753 H 636.185 1.46378 5.32238 0
M  V30 6754 H 636.662 0.0456228 4.39176 0
M  V30 6755 H 637.268 1.64988 3.91994 0
M  V30 6756 N 635.583 -1.29855 0.893053 0
M  V30 6757 C 636.994 -1.77946 0.564998 0
M  V30 6758 C 637.345 -1.73339 -0.919134 0
M  V30 6759 O 636.47 -1.3152 -1.71847 0
M  V30 6760 C 637.065 -3.23118 1.01883 0
M  V30 6761 C 635.624 -3.69013 0.742051 0
M  V30 6762 C 634.771 -2.50121 1.19727 0
M  V30 6763 H 637.722 -1.16611 1.07646 0
M  V30 6764 H 637.743 -3.78875 0.351249 0
M  V30 6765 H 637.255 -3.26439 2.09903 0
M  V30 6766 H 635.356 -3.71173 -0.325816 0
M  V30 6767 H 635.469 -4.60117 1.33527 0
M  V30 6768 H 633.833 -2.47128 0.616418 0
M  V30 6769 H 634.616 -2.56174 2.28538 0
M  V30 6770 N 637.061 -0.65484 -1.43351 0
M  V30 6771 C 637.971 0.0363603 -2.34572 0
M  V30 6772 C 638.987 0.810432 -1.53974 0
M  V30 6773 O 640.163 0.757308 -1.86619 0
M  V30 6774 C 637.228 0.989733 -3.32273 0
M  V30 6775 C 636.289 0.212414 -4.28774 0
M  V30 6776 C 635.522 1.12038 -5.21808 0
M  V30 6777 O 635.745 2.35967 -5.19303 0
M  V30 6778 O 634.679 0.59191 -5.98982 0
M  V30 6779 H 638.505 -0.714527 -2.95175 0
M  V30 6780 H 636.09 -0.415029 -1.4352 0
M  V30 6781 H 637.972 1.53759 -3.92347 0
M  V30 6782 H 636.647 1.72082 -2.74171 0
M  V30 6783 H 635.554 -0.379062 -3.72175 0
M  V30 6784 H 636.887 -0.479138 -4.89862 0
M  V30 6785 N 638.539 1.52521 -0.396863 0
M  V30 6786 C 639.489 2.2348 0.451722 0
M  V30 6787 C 640.473 1.2415 1.0235 0
M  V30 6788 O 641.665 1.4945 0.948348 0
M  V30 6789 C 638.794 3.05067 1.57445 0
M  V30 6790 C 637.88 4.11799 1.01404 0
M  V30 6791 N 638.271 5.05482 0.179234 0
M  V30 6792 C 636.569 4.27064 1.28578 0
M  V30 6793 C 637.27 5.81552 -0.131202 0
M  V30 6794 N 636.246 5.41523 0.474735 0
M  V30 6795 H 640.048 2.93269 -0.192534 0
M  V30 6796 H 637.562 1.61081 -0.206591 0
M  V30 6797 H 639.559 3.54446 2.19485 0
M  V30 6798 H 638.219 2.36816 2.22145 0
M  V30 6799 H 639.23 5.17573 -0.18411 0
M  V30 6800 H 635.907 3.70042 1.93327 0
M  V30 6801 H 637.297 6.67023 -0.808061 0
M  V30 6802 N 640.017 0.126909 1.57088 0
M  V30 6803 C 640.947 -0.816847 2.18746 0
M  V30 6804 C 641.928 -1.27161 1.12979 0
M  V30 6805 O 643.113 -1.33279 1.41246 0
M  V30 6806 C 640.243 -2.06398 2.79315 0
M  V30 6807 C 639.197 -1.74673 3.90735 0
M  V30 6808 C 638.523 -3.06482 4.38147 0
M  V30 6809 C 639.823 -1.0089 5.12463 0
M  V30 6810 H 641.517 -0.303032 2.97863 0
M  V30 6811 H 639.063 -0.144314 1.43275 0
M  V30 6812 H 641.016 -2.72885 3.2111 0
M  V30 6813 H 639.74 -2.60118 1.975 0
M  V30 6814 H 638.399 -1.10572 3.49527 0
M  V30 6815 H 638.047 -3.58152 3.5318 0
M  V30 6816 H 637.747 -2.86025 5.13287 0
M  V30 6817 H 639.271 -3.74073 4.82599 0
M  V30 6818 H 640.685 -1.57546 5.51228 0
M  V30 6819 H 639.082 -0.905006 5.93237 0
M  V30 6820 H 640.152 0.00297335 4.849 0
M  V30 6821 N 641.495 -1.56914 -0.146875 0
M  V30 6822 C 642.445 -1.94693 -1.18653 0
M  V30 6823 C 643.429 -0.81821 -1.38543 0
M  V30 6824 O 644.621 -1.08167 -1.40103 0
M  V30 6825 C 641.75 -2.33117 -2.52014 0
M  V30 6826 C 640.836 -3.5256 -2.35717 0
M  V30 6827 N 641.227 -4.69091 -1.89175 0
M  V30 6828 C 639.525 -3.57647 -2.66467 0
M  V30 6829 C 640.226 -5.51187 -1.85924 0
M  V30 6830 N 639.202 -4.92899 -2.29242 0
M  V30 6831 H 643.004 -2.82264 -0.81879 0
M  V30 6832 H 640.518 -1.58474 -0.354929 0
M  V30 6833 H 642.515 -2.58387 -3.27172 0
M  V30 6834 H 641.175 -1.46898 -2.89571 0
M  V30 6835 H 642.186 -4.92844 -1.59139 0
M  V30 6836 H 638.863 -2.81967 -3.07898 0
M  V30 6837 H 640.253 -6.54613 -1.51431 0
M  V30 6838 N 642.974 0.416227 -1.52004 0
M  V30 6839 C 643.921 1.50666 -1.74838 0
M  V30 6840 C 644.891 1.55245 -0.590599 0
M  V30 6841 O 646.076 1.71928 -0.827374 0
M  V30 6842 C 643.216 2.88185 -1.89851 0
M  V30 6843 C 642.329 2.92971 -3.17478 0
M  V30 6844 C 641.464 4.21745 -3.22962 0
M  V30 6845 C 640.503 4.20478 -4.4482 0
M  V30 6846 N 639.64 5.40811 -4.47736 0
M  V30 6847 H 644.48 1.30498 -2.67907 0
M  V30 6848 H 642.017 0.633568 -1.32757 0
M  V30 6849 H 643.975 3.68007 -1.96537 0
M  V30 6850 H 642.605 3.06865 -1.00169 0
M  V30 6851 H 641.657 2.05684 -3.19997 0
M  V30 6852 H 642.969 2.87899 -4.07328 0
M  V30 6853 H 642.123 5.09954 -3.28682 0
M  V30 6854 H 640.862 4.29503 -2.31038 0
M  V30 6855 H 639.867 3.30659 -4.39254 0
M  V30 6856 H 641.092 4.14366 -5.38031 0
M  V30 6857 H 639.038 5.4925 -3.58692 0
M  V30 6858 H 638.955 5.37705 -5.31422 0
M  V30 6859 H 640.223 6.30993 -4.57676 0
M  V30 6860 N 644.452 1.42507 0.673017 0
M  V30 6861 C 645.701 1.42364 1.42883 0
M  V30 6862 C 646.014 0.0441598 1.9555 0
M  V30 6863 O 647.22 -0.0798679 2.71382 0
M  V30 6864 C 645.676 2.5043 2.58482 0
M  V30 6865 C 645.284 3.94392 2.12506 0
M  V30 6866 C 647.028 2.59455 3.35981 0
M  V30 6867 C 644.935 4.93964 3.25198 0
M  V30 6868 H 643.865 0.52951 0.536782 0
M  V30 6869 H 646.516 1.68422 0.728448 0
M  V30 6870 H 644.898 2.1754 3.30896 0
M  V30 6871 H 646.072 4.36645 1.47233 0
M  V30 6872 H 644.387 3.89233 1.4794 0
M  V30 6873 H 646.984 3.31025 4.19912 0
M  V30 6874 H 647.327 1.63869 3.82691 0
M  V30 6875 H 647.86 2.91549 2.70637 0
M  V30 6876 H 644.599 5.91034 2.83477 0
M  V30 6877 H 644.119 4.56341 3.89247 0
M  V30 6878 H 645.798 5.15763 3.90637 0
M  V30 6879 N 645.93 -0.909495 1.28709 0
M  V30 6880 C 647.178 -1.65577 1.15882 0
M  V30 6881 C 647.499 -1.928 -0.292108 0
M  V30 6882 O 646.769 -1.54716 -1.20166 0
M  V30 6883 H 645.349 -0.613714 0.425869 0
M  V30 6884 H 648.011 -1.09108 1.61498 0
M  V30 6885 H 647.107 -2.61634 1.70159 0
M  V30 6886 N 647.408 -1.11026 -1.11852 0
M  V30 6887 C 648.338 -0.786812 -2.19844 0
M  V30 6888 C 649.319 0.242935 -1.68356 0
M  V30 6889 O 650.504 0.107355 -1.93903 0
M  V30 6890 C 647.634 -0.224516 -3.46574 0
M  V30 6891 C 646.588 -1.18564 -4.1125 0
M  V30 6892 C 645.914 -0.484261 -5.32503 0
M  V30 6893 C 647.214 -2.53465 -4.56676 0
M  V30 6894 H 648.908 -1.68978 -2.47158 0
M  V30 6895 H 646.454 -0.813906 -1.18792 0
M  V30 6896 H 648.407 0.0139435 -4.21398 0
M  V30 6897 H 647.131 0.713722 -3.18706 0
M  V30 6898 H 645.79 -1.40966 -3.38414 0
M  V30 6899 H 645.438 0.458646 -5.00905 0
M  V30 6900 H 645.138 -1.12526 -5.76725 0
M  V30 6901 H 646.662 -0.254492 -6.10069 0
M  V30 6902 H 648.076 -2.35177 -5.22843 0
M  V30 6903 H 646.473 -3.13507 -5.11697 0
M  V30 6904 H 647.543 -3.13008 -3.70343 0
M  V30 6905 N 648.886 1.2938 -0.899927 0
M  V30 6906 C 649.816 2.30144 -0.39446 0
M  V30 6907 C 650.797 1.61611 0.530639 0
M  V30 6908 O 651.982 1.89119 0.441319 0
M  V30 6909 C 649.112 3.45229 0.37868 0
M  V30 6910 C 648.066 4.25564 -0.456012 0
M  V30 6911 C 647.392 5.32848 0.444637 0
M  V30 6912 C 648.692 4.93651 -1.70605 0
M  V30 6913 H 650.386 2.72673 -1.23653 0
M  V30 6914 H 647.932 1.31086 -0.596034 0
M  V30 6915 H 649.885 4.14797 0.743037 0
M  V30 6916 H 648.609 3.01545 1.25453 0
M  V30 6917 H 647.268 3.57704 -0.802704 0
M  V30 6918 H 646.916 4.85408 1.31863 0
M  V30 6919 H 646.616 5.87497 -0.110154 0
M  V30 6920 H 648.14 6.05268 0.805182 0
M  V30 6921 H 649.554 5.55655 -1.41141 0
M  V30 6922 H 647.951 5.58233 -2.20217 0
M  V30 6923 H 649.021 4.18926 -2.4419 0
M  V30 6924 N 650.364 0.662433 1.43002 0
M  V30 6925 C 651.641 0.109096 1.95296 0
M  V30 6926 C 652.021 -1.37313 1.60338 0
M  V30 6927 O 651.369 -2.1032 0.893187 0
M  V30 6928 C 651.579 0.365096 3.47085 0
M  V30 6929 C 652.927 0.274964 4.23709 0
M  V30 6930 O 653.951 0.29816 3.5495 0
M  V30 6931 O 652.81 0.206549 5.4611 0
M  V30 6932 H 649.904 -0.00429724 0.826989 0
M  V30 6933 H 652.45 0.736308 1.52894 0
M  V30 6934 H 651.222 1.39237 3.65689 0
M  V30 6935 H 650.845 -0.294733 3.96506 0
M  V30 6936 N 651.842 -1.52309 0.404946 0
M  V30 6937 C 653.258 -1.59503 0.0556255 0
M  V30 6938 C 653.458 -1.41805 -1.43156 0
M  V30 6939 O 652.514 -1.2429 -2.19792 0
M  V30 6940 C 653.827 -2.95687 0.546801 0
M  V30 6941 C 655.375 -3.08909 0.504413 0
M  V30 6942 C 655.85 -4.47566 0.97203 0
M  V30 6943 N 657.341 -4.53795 0.928679 0
M  V30 6944 C 658.076 -5.59346 1.26174 0
M  V30 6945 N 657.572 -6.72469 1.66604 0
M  V30 6946 N 659.365 -5.49532 1.18198 0
M  V30 6947 H 651.516 -1.6206 1.37296 0
M  V30 6948 H 653.779 -0.762161 0.563751 0
M  V30 6949 H 653.485 -3.13905 1.58609 0
M  V30 6950 H 653.359 -3.77172 -0.0457905 0
M  V30 6951 H 655.746 -2.90378 -0.525819 0
M  V30 6952 H 655.827 -2.2934 1.13301 0
M  V30 6953 H 655.471 -4.6684 2.00057 0
M  V30 6954 H 655.401 -5.25625 0.320292 0
M  V30 6955 H 657.892 -3.72588 0.631369 0
M  V30 6956 H 658.205 -7.48993 1.9034 0
M  V30 6957 H 656.55 -6.73761 1.70504 0
M  V30 6958 H 659.741 -4.60038 0.865011 0
M  V30 6959 H 659.914 -6.31687 1.44485 0
M  V30 6960 N 653.32 -0.135238 -1.57019 0
M  V30 6961 C 654.566 0.519563 -1.96032 0
M  V30 6962 C 654.899 1.65284 -1.01955 0
M  V30 6963 O 654.174 1.94408 -0.059727 0
M  V30 6964 C 654.457 1.0369 -3.44848 0
M  V30 6965 C 654.31 -0.0940754 -4.49702 0
M  V30 6966 C 655.629 1.92254 -3.95887 0
M  V30 6967 H 652.748 0.18739 -0.712779 0
M  V30 6968 H 655.39 -0.214086 -1.8879 0
M  V30 6969 H 653.54 1.66209 -3.5115 0
M  V30 6970 H 655.212 -0.73 -4.55487 0
M  V30 6971 H 653.455 -0.754924 -4.27181 0
M  V30 6972 H 654.126 0.309419 -5.51132 0
M  V30 6973 H 656.602 1.39581 -3.9199 0
M  V30 6974 H 655.478 2.25364 -5.00502 0
M  V30 6975 H 655.739 2.85513 -3.37543 0
M  V30 6976 N 654.798 1.5699 0.138552 0
M  V30 6977 C 656.026 1.87976 0.864437 0
M  V30 6978 C 656.441 0.724372 1.74351 0
M  V30 6979 O 655.798 -0.305575 1.79924 0
M  V30 6980 C 655.849 3.18276 1.71414 0
M  V30 6981 O 655.57 4.29365 0.870487 0
M  V30 6982 C 657.071 3.62834 2.54688 0
M  V30 6983 H 654.291 0.622878 0.249528 0
M  V30 6984 H 656.835 2.04094 0.128805 0
M  V30 6985 H 654.99 3.03886 2.40274 0
M  V30 6986 H 655.404 5.03924 1.45466 0
M  V30 6987 H 656.878 4.5682 3.0987 0
M  V30 6988 H 657.355 2.88533 3.31127 0
M  V30 6989 H 657.961 3.79946 1.91105 0
M  V30 6990 N 656.276 -0.40816 1.52223 0
M  V30 6991 C 657.224 -1.51788 1.76248 0
M  V30 6992 C 658.218 -1.57264 0.629638 0
M  V30 6993 O 659.424 -1.60659 0.811704 0
M  V30 6994 H 655.799 -0.504823 0.557367 0
M  V30 6995 H 657.77 -1.2871 2.69214 0
M  V30 6996 C 656.519 -2.89145 1.93107 0
M  V30 6997 H 655.842 -2.85674 2.79697 0
M  V30 6998 H 657.282 -3.66082 2.13916 0
M  V30 6999 C 655.741 -3.29581 0.698431 0
M  V30 7000 O 656.271 -4.01479 -0.133238 0
M  V30 7001 N 654.477 -2.85651 0.53405 0
M  V30 7002 H 654.024 -2.2731 1.21194 0
M  V30 7003 H 653.982 -3.13065 -0.289387 0
M  V30 7004 N 657.755 -1.42862 -0.66545 0
M  V30 7005 C 659.032 -1.3431 -1.42197 0
M  V30 7006 C 659.412 0.0150265 -2.11095 0
M  V30 7007 O 658.76 1.03101 -2.03918 0
M  V30 7008 C 658.97 -2.51783 -2.41674 0
M  V30 7009 C 660.318 -2.94321 -3.0604 0
M  V30 7010 O 661.342 -2.51741 -2.52001 0
M  V30 7011 O 660.201 -3.68047 -4.03985 0
M  V30 7012 H 657.295 -0.530159 -0.634713 0
M  V30 7013 H 659.841 -1.54888 -0.693386 0
M  V30 7014 H 658.613 -3.42282 -1.89627 0
M  V30 7015 H 658.236 -2.33241 -3.22001 0
M  V30 7016 N 659.233 0.902656 -1.29189 0
M  V30 7017 C 660.461 1.68639 -1.19869 0
M  V30 7018 C 660.876 1.87254 0.241121 0
M  V30 7019 O 660.233 1.40745 1.16177 0
M  V30 7020 C 660.284 3.07251 -1.90471 0
M  V30 7021 O 660.005 2.89488 -3.28829 0
M  V30 7022 C 661.506 4.01653 -1.8759 0
M  V30 7023 H 658.726 0.526802 -0.415596 0
M  V30 7024 H 661.27 1.12901 -1.7051 0
M  V30 7025 H 659.425 3.59774 -1.43672 0
M  V30 7026 H 659.839 3.77296 -3.64346 0
M  V30 7027 H 661.313 4.96339 -2.4156 0
M  V30 7028 H 661.79 4.30881 -0.850756 0
M  V30 7029 H 662.396 3.55061 -2.34119 0
M  V30 7030 N 660.711 1.11618 1.11262 0
M  V30 7031 C 661.621 0.78898 2.20935 0
M  V30 7032 C 662.637 -0.21867 1.7262 0
M  V30 7033 O 663.813 -0.0543826 2.01327 0
M  V30 7034 C 660.878 0.239014 3.45875 0
M  V30 7035 C 659.939 1.3055 4.08968 0
M  V30 7036 C 659.172 0.781687 5.27944 0
M  V30 7037 O 659.395 -0.387605 5.69082 0
M  V30 7038 O 658.329 1.54734 5.81671 0
M  V30 7039 H 662.155 1.70477 2.51339 0
M  V30 7040 H 659.74 0.892203 1.19834 0
M  V30 7041 H 661.622 -0.0632312 4.21353 0
M  V30 7042 H 660.297 -0.649454 3.17118 0
M  V30 7043 H 659.204 1.66079 3.35214 0
M  V30 7044 H 660.537 2.16743 4.41909 0
M  V30 7045 N 662.189 -1.289 0.906776 0
M  V30 7046 C 663.414 -1.99939 0.551303 0
M  V30 7047 C 663.839 -1.67366 -0.858496 0
M  V30 7048 O 663.197 -0.902176 -1.57259 0
M  V30 7049 C 663.245 -3.52523 0.758937 0
M  V30 7050 O 662.349 -4.11983 -0.185308 0
M  V30 7051 H 661.69 -0.628376 0.214568 0
M  V30 7052 H 664.22 -1.64225 1.2203 0
M  V30 7053 H 664.23 -4.02522 0.666329 0
M  V30 7054 H 662.905 -3.75566 1.78671 0
M  V30 7055 H 661.482 -3.72873 -0.0445577 0
M  V30 7056 N 663.667 -0.670007 -1.42649 0
M  V30 7057 C 664.944 -0.119451 -1.95235 0
M  V30 7058 C 665.324 1.36461 -1.61064 0
M  V30 7059 O 664.672 2.09843 -0.904329 0
M  V30 7060 C 664.882 -0.383498 -3.46887 0
M  V30 7061 C 666.23 -0.297431 -4.23557 0
M  V30 7062 O 667.254 -0.31698 -3.54787 0
M  V30 7063 O 666.113 -0.235507 -5.45992 0
M  V30 7064 H 663.207 -8.85474e-05 -0.827 0
M  V30 7065 H 665.753 -0.744406 -1.52501 0
M  V30 7066 H 664.525 -1.41174 -3.64946 0
M  V30 7067 H 664.148 0.273702 -3.96657 0
M  V30 7068 N 665.145 1.52092 -0.413018 0
M  V30 7069 C 666.394 2.01041 0.16287 0
M  V30 7070 C 666.707 1.30288 1.45892 0
M  V30 7071 O 667.913 1.70075 2.11629 0
M  V30 7072 C 666.369 3.58283 0.340806 0
M  V30 7073 C 665.977 4.37955 -0.943377 0
M  V30 7074 C 667.721 4.15452 0.871774 0
M  V30 7075 C 665.628 5.86847 -0.732417 0
M  V30 7076 H 664.558 0.751224 0.0646414 0
M  V30 7077 H 667.209 1.75404 -0.539059 0
M  V30 7078 H 665.591 3.80266 1.10516 0
M  V30 7079 H 666.765 4.2773 -1.71418 0
M  V30 7080 H 665.08 3.92122 -1.40105 0
M  V30 7081 H 667.677 5.24375 1.0457 0
M  V30 7082 H 668.02 3.73057 1.84755 0
M  V30 7083 H 668.553 3.97452 0.166377 0
M  V30 7084 H 665.292 6.33609 -1.67986 0
M  V30 7085 H 664.812 5.998 -0.000980058 0
M  V30 7086 H 666.491 6.45906 -0.376105 0
M  V30 7087 N 666.623 0.143563 1.56945 0
M  V30 7088 C 667.571 -0.814556 2.17871 0
M  V30 7089 C 668.565 -1.25778 1.13474 0
M  V30 7090 O 669.771 -1.22666 1.31731 0
M  V30 7091 H 666.146 -0.280873 0.697578 0
M  V30 7092 H 668.117 -0.276459 2.97117 0
M  V30 7093 C 666.866 -2.04503 2.81201 0
M  V30 7094 H 666.189 -1.71296 3.61245 0
M  V30 7095 H 667.629 -2.69493 3.27337 0
M  V30 7096 C 666.088 -2.85079 1.79532 0
M  V30 7097 O 666.618 -3.81306 1.26368 0
M  V30 7098 N 664.824 -2.49546 1.48913 0
M  V30 7099 H 664.371 -1.71359 1.92338 0
M  V30 7100 H 664.329 -3.03751 0.811348 0
M  V30 7101 N 668.101 -1.57061 -0.130224 0
M  V30 7102 C 669.331 -1.88159 -0.853217 0
M  V30 7103 C 669.739 -0.731675 -1.7448 0
M  V30 7104 O 669.082 0.307035 -1.81116 0
M  V30 7105 C 669.144 -3.1415 -1.74785 0
M  V30 7106 C 668.808 -4.45202 -1.03173 0
M  V30 7107 C 669.805 -5.18526 -0.377759 0
M  V30 7108 C 667.49 -4.91912 -1.01624 0
M  V30 7109 C 669.484 -6.36775 0.282123 0
M  V30 7110 C 667.171 -6.10082 -0.352555 0
M  V30 7111 C 668.169 -6.82361 0.295483 0
M  V30 7112 O 667.857 -7.98284 0.948606 0
M  V30 7113 H 667.589 -0.627596 -0.251197 0
M  V30 7114 H 670.143 -2.05034 -0.1226 0
M  V30 7115 H 668.373 -2.93328 -2.51983 0
M  V30 7116 H 670.062 -3.31359 -2.34427 0
M  V30 7117 H 670.828 -4.83498 -0.381417 0
M  V30 7118 H 666.707 -4.35566 -1.51007 0
M  V30 7119 H 670.251 -6.93129 0.788525 0
M  V30 7120 H 666.148 -6.44569 -0.346621 0
M  V30 7121 H 666.916 -8.14054 0.851954 0
M  V30 7122 N 669.579 0.400081 -1.52437 0
M  V30 7123 C 670.509 1.4947 -1.7939 0
M  V30 7124 C 671.49 1.57383 -0.645329 0
M  V30 7125 O 672.675 1.72511 -0.891826 0
M  V30 7126 C 669.805 2.87201 -1.95276 0
M  V30 7127 C 668.759 2.94134 -3.10917 0
M  V30 7128 C 668.085 4.34207 -3.1204 0
M  V30 7129 C 669.385 2.64791 -4.50203 0
M  V30 7130 H 671.079 1.27165 -2.71052 0
M  V30 7131 H 668.625 0.610312 -1.30427 0
M  V30 7132 H 670.578 3.63772 -2.12715 0
M  V30 7133 H 669.302 3.10819 -1.00294 0
M  V30 7134 H 667.961 2.20009 -2.93243 0
M  V30 7135 H 667.609 4.54848 -2.14761 0
M  V30 7136 H 667.309 4.39768 -3.89715 0
M  V30 7137 H 668.833 5.127 -3.31619 0
M  V30 7138 H 670.247 3.31083 -4.68035 0
M  V30 7139 H 668.644 2.81717 -5.29864 0
M  V30 7140 H 669.714 1.60184 -4.57678 0
M  V30 7141 N 671.057 1.43213 0.657864 0
M  V30 7142 C 671.987 1.50815 1.78262 0
M  V30 7143 C 672.968 0.363211 1.66177 0
M  V30 7144 O 674.153 0.579806 1.85343 0
M  V30 7145 C 671.283 1.42625 3.16663 0
M  V30 7146 C 670.237 2.5532 3.43505 0
M  V30 7147 C 669.563 2.32184 4.81658 0
M  V30 7148 C 670.863 3.97583 3.38711 0
M  V30 7149 H 672.557 2.44954 1.72157 0
M  V30 7150 H 670.103 1.17896 0.82683 0
M  V30 7151 H 672.056 1.46548 3.95097 0
M  V30 7152 H 670.78 0.449877 3.23487 0
M  V30 7153 H 669.439 2.50742 2.6744 0
M  V30 7154 H 669.087 1.32801 4.85153 0
M  V30 7155 H 668.787 3.07724 5.00579 0
M  V30 7156 H 670.311 2.37883 5.62356 0
M  V30 7157 H 671.725 4.03673 4.07089 0
M  V30 7158 H 670.122 4.73112 3.69168 0
M  V30 7159 H 671.192 4.23049 2.36976 0
M  V30 7160 N 672.536 -0.895792 1.29666 0
M  V30 7161 C 673.483 -2.00035 1.15129 0
M  V30 7162 C 674.453 -1.66043 0.0435819 0
M  V30 7163 O 675.638 -1.89621 0.211811 0
M  V30 7164 C 672.778 -3.34774 0.83787 0
M  V30 7165 C 671.891 -3.81525 2.0264 0
M  V30 7166 C 671.026 -5.04858 1.65201 0
M  V30 7167 C 670.065 -5.43988 2.80612 0
M  V30 7168 N 669.202 -6.58507 2.43544 0
M  V30 7169 H 674.042 -2.11802 2.09628 0
M  V30 7170 H 671.579 -1.03719 1.04311 0
M  V30 7171 H 673.537 -4.12311 0.636824 0
M  V30 7172 H 672.167 -3.22724 -0.0702314 0
M  V30 7173 H 671.219 -2.9999 2.33903 0
M  V30 7174 H 672.531 -4.06472 2.89106 0
M  V30 7175 H 671.685 -5.8999 1.41408 0
M  V30 7176 H 670.424 -4.81759 0.758893 0
M  V30 7177 H 669.429 -4.57388 3.05083 0
M  V30 7178 H 670.654 -5.69066 3.70595 0
M  V30 7179 H 668.6 -6.37004 1.56724 0
M  V30 7180 H 668.517 -6.83269 3.23542 0
M  V30 7181 H 669.785 -7.46897 2.2308 0
M  V30 7182 N 674.014 -1.12206 -1.10668 0
M  V30 7183 C 674.947 -0.731468 -2.16159 0
M  V30 7184 C 675.925 0.276216 -1.60237 0
M  V30 7185 O 677.109 0.17074 -1.87725 0
M  V30 7186 C 674.236 -0.0822882 -3.386 0
M  V30 7187 C 673.282 -1.05641 -4.1321 0
M  V30 7188 S 674.115 -2.58281 -4.69096 0
M  V30 7189 C 675.271 -1.94686 -5.94851 0
M  V30 7190 H 675.504 -1.62504 -2.48957 0
M  V30 7191 H 673.037 -0.940906 -1.22419 0
M  V30 7192 H 674.995 0.285896 -4.09503 0
M  V30 7193 H 673.656 0.788358 -3.04046 0
M  V30 7194 H 672.849 -0.549764 -5.00993 0
M  V30 7195 H 672.451 -1.36741 -3.48106 0
M  V30 7196 H 674.743 -1.28815 -6.65141 0
M  V30 7197 H 675.686 -2.80499 -6.50174 0
M  V30 7198 H 676.094 -1.40369 -5.46769 0
M  V30 7199 N 675.492 1.28418 -0.913599 0
M  V30 7200 C 676.455 2.25564 -0.406624 0
M  V30 7201 C 677.455 1.5387 0.466965 0
M  V30 7202 O 678.645 1.72094 0.270042 0
M  V30 7203 C 675.777 3.38339 0.417053 0
M  V30 7204 H 676.97 2.71926 -1.26477 0
M  V30 7205 H 674.523 1.40098 -0.692986 0
M  V30 7206 H 675.258 2.97339 1.29461 0
M  V30 7207 H 675.043 3.91542 -0.209102 0
M  V30 7208 H 676.533 4.10578 0.762602 0
M  V30 7209 N 676.97 0.677563 1.42291 0
M  V30 7210 C 677.9 0.014968 2.33495 0
M  V30 7211 C 678.881 -0.786376 1.50831 0
M  V30 7212 O 680.066 -0.742975 1.79426 0
M  V30 7213 C 677.196 -0.935023 3.34477 0
M  V30 7214 C 676.15 -0.242074 4.27315 0
M  V30 7215 C 675.476 -1.30519 5.18526 0
M  V30 7216 C 676.776 0.880604 5.14823 0
M  V30 7217 H 678.47 0.776671 2.89151 0
M  V30 7218 H 676.016 0.37494 1.39033 0
M  V30 7219 H 677.969 -1.40766 3.97194 0
M  V30 7220 H 676.693 -1.72818 2.77131 0
M  V30 7221 H 675.352 0.210351 3.65996 0
M  V30 7222 H 675 -2.09041 4.57505 0
M  V30 7223 H 674.7 -0.846652 5.81468 0
M  V30 7224 H 676.224 -1.7787 5.84119 0
M  V30 7225 H 677.638 0.489062 5.7121 0
M  V30 7226 H 676.035 1.26511 5.86613 0
M  V30 7227 H 677.105 1.72818 4.53059 0
M  V30 7228 N 678.448 -1.51871 0.421078 0
M  V30 7229 C 679.358 -2.31077 -0.405069 0
M  V30 7230 C 680.374 -1.39301 -1.04265 0
M  V30 7231 O 681.55 -1.72376 -1.04157 0
M  V30 7232 C 678.615 -3.12556 -1.50032 0
M  V30 7233 C 677.676 -4.20088 -0.884559 0
M  V30 7234 C 676.909 -4.97673 -1.92762 0
M  V30 7235 O 677.132 -4.75696 -3.14753 0
M  V30 7236 O 676.066 -5.82203 -1.52719 0
M  V30 7237 H 679.892 -3.02742 0.241086 0
M  V30 7238 H 677.477 -1.48263 0.183991 0
M  V30 7239 H 679.359 -3.6326 -2.13589 0
M  V30 7240 H 678.034 -2.43672 -2.13086 0
M  V30 7241 H 676.941 -3.73502 -0.211379 0
M  V30 7242 H 678.274 -4.91298 -0.297763 0
M  V30 7243 N 679.926 -0.151884 -1.56866 0
M  V30 7244 C 680.873 0.785936 -2.17006 0
M  V30 7245 C 681.843 1.2407 -1.10435 0
M  V30 7246 O 683.028 1.31235 -1.38499 0
M  V30 7247 C 680.168 2.01771 -2.79969 0
M  V30 7248 C 679.281 1.6083 -4.00946 0
M  V30 7249 C 678.416 2.79224 -4.51893 0
M  V30 7250 C 677.455 2.3468 -5.65324 0
M  V30 7251 N 676.592 3.461 -6.10867 0
M  V30 7252 H 681.432 0.266286 -2.96808 0
M  V30 7253 H 678.969 0.11972 -1.46612 0
M  V30 7254 H 680.927 2.73989 -3.14621 0
M  V30 7255 H 679.557 2.51139 -2.02803 0
M  V30 7256 H 678.609 0.783592 -3.72242 0
M  V30 7257 H 679.921 1.24119 -4.83111 0
M  V30 7258 H 679.075 3.59625 -4.88625 0
M  V30 7259 H 677.814 3.19183 -3.68746 0
M  V30 7260 H 676.819 1.52721 -5.28163 0
M  V30 7261 H 678.044 1.95801 -6.5026 0
M  V30 7262 H 675.99 3.85671 -5.30654 0
M  V30 7263 H 675.907 3.1342 -6.87971 0
M  V30 7264 H 677.175 4.26844 -6.52246 0
M  V30 7265 N 681.404 1.57128 0.121893 0
M  V30 7266 C 682.653 1.83888 0.828748 0
M  V30 7267 C 682.966 0.737087 1.81181 0
M  V30 7268 O 684.172 0.891007 2.56463 0
M  V30 7269 C 682.628 3.26014 1.52455 0
M  V30 7270 C 682.236 4.44195 0.58263 0
M  V30 7271 C 683.98 3.62025 2.21671 0
M  V30 7272 C 681.887 5.77349 1.28149 0
M  V30 7273 H 680.817 0.685856 0.313238 0
M  V30 7274 H 683.468 1.83319 0.0814851 0
M  V30 7275 H 681.85 3.21044 2.31834 0
M  V30 7276 H 683.024 4.60457 -0.177729 0
M  V30 7277 H 681.339 4.164 -0.00241228 0
M  V30 7278 H 683.936 4.58776 2.74643 0
M  V30 7279 H 684.279 2.89315 2.99337 0
M  V30 7280 H 684.812 3.68767 1.49184 0
M  V30 7281 H 681.551 6.53221 0.546189 0
M  V30 7282 H 681.071 5.64978 2.01394 0
M  V30 7283 H 682.75 6.21006 1.81549 0
M  V30 7284 N 682.882 -0.391992 1.52647 0
M  V30 7285 C 683.845 -1.46135 1.7657 0
M  V30 7286 C 684.845 -1.47701 0.635698 0
M  V30 7287 O 686.035 -1.48924 0.903728 0
M  V30 7288 C 683.167 -2.85443 1.86374 0
M  V30 7289 H 684.36 -1.26208 2.72051 0
M  V30 7290 H 681.913 -0.623549 1.43323 0
M  V30 7291 H 682.648 -3.10718 0.928685 0
M  V30 7292 H 682.433 -2.85708 2.68539 0
M  V30 7293 H 683.923 -3.62933 2.06566 0
M  V30 7294 N 684.36 -1.4356 -0.65026 0
M  V30 7295 C 685.607 -1.45333 -1.41012 0
M  V30 7296 C 685.935 -0.0787282 -1.94341 0
M  V30 7297 O 685.19 0.916715 -1.72901 0
M  V30 7298 C 685.489 -2.44528 -2.60654 0
M  V30 7299 C 685.155 -3.90331 -2.25727 0
M  V30 7300 C 683.817 -4.3004 -2.15914 0
M  V30 7301 C 686.169 -4.822 -1.97821 0
M  V30 7302 C 683.497 -5.59568 -1.76354 0
M  V30 7303 C 685.849 -6.12095 -1.59759 0
M  V30 7304 C 684.513 -6.50778 -1.48473 0
M  V30 7305 H 683.783 -0.531813 -0.516 0
M  V30 7306 H 686.43 -1.76657 -0.739219 0
M  V30 7307 H 684.735 -2.06619 -3.3289 0
M  V30 7308 H 686.432 -2.43155 -3.18868 0
M  V30 7309 H 683.022 -3.58905 -2.34276 0
M  V30 7310 H 687.206 -4.5229 -2.04322 0
M  V30 7311 H 682.462 -5.88376 -1.66205 0
M  V30 7312 H 686.636 -6.82751 -1.37198 0
M  V30 7313 H 684.263 -7.5105 -1.17591 0
M  V30 7314 N 685.838 0.888903 -1.30139 0
M  V30 7315 C 686.768 2.01046 -1.18755 0
M  V30 7316 C 687.749 1.69916 -0.0791438 0
M  V30 7317 O 688.934 1.92445 -0.260498 0
M  V30 7318 C 686.064 3.36109 -0.874518 0
M  V30 7319 C 685.018 3.81486 -1.94043 0
M  V30 7320 C 684.344 5.13796 -1.48047 0
M  V30 7321 C 685.644 4.00637 -3.35093 0
M  V30 7322 H 687.338 2.10828 -2.12584 0
M  V30 7323 H 684.884 1.01298 -1.02346 0
M  V30 7324 H 686.837 4.14089 -0.781548 0
M  V30 7325 H 685.561 3.26449 0.0994519 0
M  V30 7326 H 684.22 3.05731 -2.02297 0
M  V30 7327 H 683.868 5.0056 -0.494878 0
M  V30 7328 H 683.568 5.45127 -2.19341 0
M  V30 7329 H 685.092 5.94305 -1.40121 0
M  V30 7330 H 686.506 4.69067 -3.2962 0
M  V30 7331 H 684.903 4.43339 -4.04438 0
M  V30 7332 H 685.973 3.0462 -3.77273 0
M  V30 7333 N 687.317 1.12792 1.10072 0
M  V30 7334 C 688.728 0.899346 1.63611 0
M  V30 7335 C 689.079 -0.565547 1.87872 0
M  V30 7336 O 688.204 -1.43081 1.62348 0
M  V30 7337 C 688.799 1.62608 2.97227 0
M  V30 7338 C 687.358 1.44356 3.47618 0
M  V30 7339 C 686.505 1.65958 2.22156 0
M  V30 7340 H 689.456 1.28216 0.935223 0
M  V30 7341 H 689.477 1.0793 3.64872 0
M  V30 7342 H 688.989 2.69221 2.79538 0
M  V30 7343 H 687.09 0.400148 3.70445 0
M  V30 7344 H 687.203 2.20218 4.25489 0
M  V30 7345 H 685.567 1.08395 2.30484 0
M  V30 7346 H 686.35 2.73877 2.06993 0
M  V30 7347 N 688.795 -1.27931 0.920396 0
M  V30 7348 C 690.042 -1.94689 0.557007 0
M  V30 7349 C 690.37 -1.724 -0.900476 0
M  V30 7350 O 689.625 -1.04194 -1.65657 0
M  V30 7351 C 689.924 -3.47853 0.820558 0
M  V30 7352 C 689.59 -3.90252 2.25863 0
M  V30 7353 C 688.252 -4.01539 2.65179 0
M  V30 7354 C 690.604 -4.11853 3.19415 0
M  V30 7355 C 687.932 -4.3181 3.97187 0
M  V30 7356 C 690.284 -4.43606 4.50995 0
M  V30 7357 C 688.948 -4.53105 4.90155 0
M  V30 7358 H 688.218 -0.712416 0.203823 0
M  V30 7359 H 690.865 -1.52142 1.16298 0
M  V30 7360 H 689.17 -3.91578 0.131844 0
M  V30 7361 H 690.867 -3.97634 0.51847 0
M  V30 7362 H 687.457 -3.81999 1.94358 0
M  V30 7363 H 691.641 -4.0258 2.90246 0
M  V30 7364 H 686.897 -4.37371 4.2722 0
M  V30 7365 H 691.071 -4.59268 5.23494 0
M  V30 7366 H 688.698 -4.76315 5.92476 0
M  V30 7367 N 690.273 -0.685099 -1.4193 0
M  V30 7368 C 691.521 -0.21124 -2.00993 0
M  V30 7369 C 691.842 1.18985 -1.54491 0
M  V30 7370 O 691.112 1.8009 -0.771 0
M  V30 7371 H 689.692 -0.0751059 -0.743215 0
M  V30 7372 H 692.354 -0.883915 -1.73704 0
M  V30 7373 H 691.45 -0.220513 -3.1132 0
M  V30 7374 N 691.751 1.51645 -0.429126 0
M  V30 7375 C 692.981 2.06133 0.138793 0
M  V30 7376 C 693.389 1.29735 1.37716 0
M  V30 7377 O 692.732 0.347955 1.80375 0
M  V30 7378 C 692.794 3.55504 0.534493 0
M  V30 7379 C 692.458 4.53098 -0.595917 0
M  V30 7380 C 693.455 4.98815 -1.46558 0
M  V30 7381 C 691.14 4.96296 -0.774309 0
M  V30 7382 C 693.134 5.86394 -2.4984 0
M  V30 7383 C 690.821 5.83667 -1.81042 0
M  V30 7384 C 691.819 6.28613 -2.67086 0
M  V30 7385 O 691.507 7.14251 -3.68919 0
M  V30 7386 H 691.239 0.675833 0.0150263 0
M  V30 7387 H 693.793 1.96301 -0.604584 0
M  V30 7388 H 692.023 3.63092 1.33045 0
M  V30 7389 H 693.712 3.92545 1.03262 0
M  V30 7390 H 694.478 4.66143 -1.33925 0
M  V30 7391 H 690.357 4.60859 -0.114178 0
M  V30 7392 H 693.901 6.21398 -3.17034 0
M  V30 7393 H 689.798 6.15753 -1.93698 0
M  V30 7394 H 690.566 7.3241 -3.65402 0
M  V30 7395 N 693.229 0.160201 1.56784 0
M  V30 7396 C 694.159 -0.770264 2.2043 0
M  V30 7397 C 695.14 -1.24736 1.15651 0
M  V30 7398 O 696.325 -1.30253 1.44041 0
M  V30 7399 C 693.455 -2.00427 2.83631 0
M  V30 7400 C 692.409 -1.66345 3.94352 0
M  V30 7401 C 691.735 -2.97119 4.4455 0
M  V30 7402 C 693.035 -0.899972 5.14488 0
M  V30 7403 H 694.729 -0.239783 2.98438 0
M  V30 7404 H 692.275 -0.113891 1.43549 0
M  V30 7405 H 694.228 -2.66012 3.26827 0
M  V30 7406 H 692.952 -2.5587 2.02973 0
M  V30 7407 H 691.611 -1.03133 3.51794 0
M  V30 7408 H 691.259 -3.5058 3.60698 0
M  V30 7409 H 690.959 -2.75073 5.19238 0
M  V30 7410 H 692.483 -3.63753 4.90425 0
M  V30 7411 H 693.897 -1.45818 5.54446 0
M  V30 7412 H 692.294 -0.778968 5.95023 0
M  V30 7413 H 693.364 0.105827 4.84785 0
M  V30 7414 N 694.707 -1.5719 -0.113559 0
M  V30 7415 C 695.953 -1.85412 -0.821597 0
M  V30 7416 C 696.286 -0.746722 -1.7927 0
M  V30 7417 O 695.561 0.246971 -1.92926 0
M  V30 7418 C 695.844 -3.24233 -1.56669 0
M  V30 7419 C 695.697 -4.45578 -0.614823 0
M  V30 7420 C 697.016 -3.60697 -2.52161 0
M  V30 7421 H 694.135 -0.674406 -0.29723 0
M  V30 7422 H 696.777 -1.89807 -0.085694 0
M  V30 7423 H 694.927 -3.20617 -2.19401 0
M  V30 7424 H 696.599 -4.613 0.00407137 0
M  V30 7425 H 694.842 -4.33738 0.0732332 0
M  V30 7426 H 695.513 -5.39395 -1.17292 0
M  V30 7427 H 697.989 -3.65139 -1.99532 0
M  V30 7428 H 696.865 -4.58798 -3.01323 0
M  V30 7429 H 697.126 -2.88403 -3.35076 0
M  V30 7430 N 696.185 0.383891 -1.52853 0
M  V30 7431 C 697.462 1.14296 -1.58732 0
M  V30 7432 C 697.842 2.07585 -0.383611 0
M  V30 7433 O 697.19 2.1971 0.627661 0
M  V30 7434 C 697.4 1.89816 -2.92867 0
M  V30 7435 C 698.748 2.44998 -3.46787 0
M  V30 7436 O 699.772 1.99966 -2.94774 0
M  V30 7437 O 698.631 3.2727 -4.37672 0
M  V30 7438 H 695.725 0.52326 -0.640413 0
M  V30 7439 H 698.271 0.388631 -1.6519 0
M  V30 7440 H 697.043 1.21626 -3.71918 0
M  V30 7441 H 696.666 2.72199 -2.89816 0
M  V30 7442 N 697.663 1.43903 0.642637 0
M  V30 7443 C 698.595 1.45857 1.768 0
M  V30 7444 C 699.608 0.353358 1.58919 0
M  V30 7445 O 700.797 0.618426 1.67445 0
M  V30 7446 C 697.897 1.26583 3.14372 0
M  V30 7447 C 697.07 2.50139 3.58817 0
M  V30 7448 C 696.129 2.25933 4.75227 0
M  V30 7449 O 695.155 2.99351 4.84125 0
M  V30 7450 N 696.357 1.28263 5.66153 0
M  V30 7451 H 699.122 2.42869 1.75598 0
M  V30 7452 H 696.683 1.39194 0.826832 0
M  V30 7453 H 698.675 1.08255 3.89953 0
M  V30 7454 H 697.245 0.37978 3.10284 0
M  V30 7455 H 696.465 2.83821 2.73568 0
M  V30 7456 H 697.753 3.32344 3.8526 0
M  V30 7457 H 697.151 0.676041 5.61646 0
M  V30 7458 H 695.708 1.15916 6.4141 0
M  V30 7459 N 699.141 -0.881989 1.30609 0
M  V30 7460 C 700.387 -1.63649 1.20791 0
M  V30 7461 C 700.742 -1.90966 -0.234437 0
M  V30 7462 O 700.035 -1.52163 -1.16434 0
M  V30 7463 C 700.229 -2.97999 1.97311 0
M  V30 7464 C 700.058 -2.83798 3.48839 0
M  V30 7465 C 698.828 -2.83622 4.18195 0
M  V30 7466 C 701.026 -2.59529 4.44015 0
M  V30 7467 N 699.008 -2.60344 5.55962 0
M  V30 7468 C 700.379 -2.45401 5.69366 0
M  V30 7469 C 702.434 -2.44777 4.33576 0
M  V30 7470 C 701.137 -2.18023 6.85462 0
M  V30 7471 C 703.163 -2.18785 5.49443 0
M  V30 7472 C 702.525 -2.05436 6.73777 0
M  V30 7473 H 698.624 -0.603687 0.497077 0
M  V30 7474 H 701.208 -1.03908 1.64655 0
M  V30 7475 H 699.379 -3.55767 1.55834 0
M  V30 7476 H 701.111 -3.6266 1.79611 0
M  V30 7477 H 697.866 -2.95562 3.70054 0
M  V30 7478 H 698.29 -2.51709 6.28468 0
M  V30 7479 H 702.932 -2.53831 3.38126 0
M  V30 7480 H 700.65 -2.07707 7.8095 0
M  V30 7481 H 704.236 -2.08188 5.43276 0
M  V30 7482 H 703.116 -1.85605 7.61919 0
M  V30 7483 N 700.619 -1.13374 -1.09472 0
M  V30 7484 C 702.035 -0.871846 -1.33682 0
M  V30 7485 C 702.235 0.492847 -1.9538 0
M  V30 7486 O 701.291 1.23946 -2.19985 0
M  V30 7487 C 702.604 -1.99608 -2.24893 0
M  V30 7488 C 704.152 -2.02812 -2.38404 0
M  V30 7489 C 704.627 -3.14497 -3.3295 0
M  V30 7490 N 706.118 -3.14004 -3.40523 0
M  V30 7491 C 706.853 -3.97061 -4.13679 0
M  V30 7492 N 706.349 -4.90131 -4.89636 0
M  V30 7493 N 708.142 -3.85162 -4.09398 0
M  V30 7494 H 700.293 -2.01288 -0.677995 0
M  V30 7495 H 702.556 -0.876492 -0.361201 0
M  V30 7496 H 702.262 -2.98 -1.86786 0
M  V30 7497 H 702.136 -1.90981 -3.25278 0
M  V30 7498 H 704.523 -1.05034 -2.75775 0
M  V30 7499 H 704.604 -2.15511 -1.37799 0
M  V30 7500 H 704.248 -4.12514 -2.96302 0
M  V30 7501 H 704.178 -2.99035 -4.33458 0
M  V30 7502 H 706.669 -2.46587 -2.86362 0
M  V30 7503 H 706.982 -5.49996 -5.42885 0
M  V30 7504 H 705.327 -4.94138 -4.88726 0
M  V30 7505 H 708.518 -3.11779 -3.49158 0
M  V30 7506 H 708.691 -4.5012 -4.6615 0
M  V30 7507 N 702.098 1.27442 -0.927168 0
M  V30 7508 C 703.344 1.95025 -0.577651 0
M  V30 7509 C 703.699 1.71534 0.871421 0
M  V30 7510 O 702.992 1.03354 1.61333 0
M  V30 7511 C 703.186 3.47413 -0.838994 0
M  V30 7512 C 703.015 3.85721 -2.31192 0
M  V30 7513 C 701.785 4.09199 -2.96452 0
M  V30 7514 C 703.983 3.95352 -3.28939 0
M  V30 7515 N 701.965 4.34283 -4.33903 0
M  V30 7516 C 703.336 4.24805 -4.51598 0
M  V30 7517 C 705.391 3.77926 -3.24155 0
M  V30 7518 C 704.094 4.38645 -5.70073 0
M  V30 7519 C 706.12 3.9299 -4.41942 0
M  V30 7520 C 705.482 4.22829 -5.63379 0
M  V30 7521 H 701.581 0.736983 -0.261495 0
M  V30 7522 H 704.165 1.53816 -1.19368 0
M  V30 7523 H 702.336 3.87581 -0.252129 0
M  V30 7524 H 704.068 4.02166 -0.452158 0
M  V30 7525 H 700.823 4.04013 -2.47125 0
M  V30 7526 H 701.247 4.50883 -5.05008 0
M  V30 7527 H 705.889 3.53897 -2.31337 0
M  V30 7528 H 703.607 4.615 -6.63358 0
M  V30 7529 H 707.193 3.80926 -4.39757 0
M  V30 7530 H 706.073 4.34234 -6.53001 0
M  V30 7531 N 703.576 0.692616 1.41565 0
M  V30 7532 C 704.824 0.221896 2.00878 0
M  V30 7533 C 705.145 -1.18164 1.5512 0
M  V30 7534 O 704.415 -1.79679 0.78054 0
M  V30 7535 H 702.995 0.0790463 0.742806 0
M  V30 7536 H 705.657 0.893115 1.73232 0
M  V30 7537 H 704.753 0.23702 3.11199 0
M  V30 7538 N 705.054 -1.51416 0.437162 0
M  V30 7539 C 706.3 -2.02386 -0.129555 0
M  V30 7540 C 706.633 -1.32071 -1.42376 0
M  V30 7541 O 705.908 -0.43559 -1.8956 0
M  V30 7542 C 706.191 -3.5841 -0.348487 0
M  V30 7543 C 706.044 -4.39341 0.964352 0
M  V30 7544 C 707.363 -4.25654 -1.11834 0
M  V30 7545 H 704.482 -0.735587 -0.0456109 0
M  V30 7546 H 707.124 -1.81055 0.576124 0
M  V30 7547 H 705.274 -3.76716 -0.949592 0
M  V30 7548 H 706.946 -4.32685 1.59942 0
M  V30 7549 H 705.189 -4.04432 1.56898 0
M  V30 7550 H 705.86 -5.4667 0.765212 0
M  V30 7551 H 708.336 -4.11617 -0.609165 0
M  V30 7552 H 707.212 -5.34704 -1.24029 0
M  V30 7553 H 707.473 -3.86502 -2.14636 0
M  V30 7554 N 706.532 -0.168513 -1.56696 0
M  V30 7555 C 707.779 0.477158 -1.96798 0
M  V30 7556 C 708.107 1.63442 -1.05437 0
M  V30 7557 O 707.362 1.95503 -0.0878903 0
M  V30 7558 C 707.661 1.00441 -3.42996 0
M  V30 7559 C 707.327 -0.0366556 -4.50885 0
M  V30 7560 C 705.989 -0.322785 -4.80116 0
M  V30 7561 C 708.341 -0.743447 -5.1587 0
M  V30 7562 C 705.669 -1.32114 -5.71632 0
M  V30 7563 C 708.021 -1.73077 -6.08463 0
M  V30 7564 C 706.685 -2.02437 -6.36062 0
M  V30 7565 H 705.955 0.174604 -0.720135 0
M  V30 7566 H 708.602 -0.259884 -1.89728 0
M  V30 7567 H 706.907 1.81922 -3.47004 0
M  V30 7568 H 708.604 1.51294 -3.71364 0
M  V30 7569 H 705.194 0.196532 -4.28149 0
M  V30 7570 H 709.378 -0.535602 -4.93401 0
M  V30 7571 H 704.634 -1.55482 -5.913 0
M  V30 7572 H 708.808 -2.28382 -6.57886 0
M  V30 7573 H 706.435 -2.79946 -7.06777 0
M  V30 7574 N 708.01 1.57248 0.105221 0
M  V30 7575 C 709.235 1.90143 0.828264 0
M  V30 7576 C 709.66 0.761811 1.71983 0
M  V30 7577 O 709.018 -0.287086 1.79013 0
M  V30 7578 C 709.066 3.21856 1.62608 0
M  V30 7579 O 708.17 3.08732 2.7342 0
M  V30 7580 H 707.511 0.623558 0.228192 0
M  V30 7581 H 710.041 2.0443 0.0834826 0
M  V30 7582 H 710.051 3.54916 2.01243 0
M  V30 7583 H 708.726 4.0439 0.971687 0
M  V30 7584 H 707.303 2.87167 2.37886 0
M  V30 7585 N 709.488 -0.375779 1.53054 0
M  V30 7586 C 710.736 -1.11727 1.68409 0
M  V30 7587 C 711.057 -1.90127 0.43323 0
M  V30 7588 O 710.327 -1.87945 -0.552595 0
M  V30 7589 H 708.907 -0.415451 0.620813 0
M  V30 7590 H 711.569 -0.424869 1.90213 0
M  V30 7591 H 710.665 -1.8128 2.54055 0
M  V30 7592 N 710.966 -1.44241 -0.634997 0
M  V30 7593 C 712.382 -1.28043 -0.952742 0
M  V30 7594 C 712.582 -0.21338 -2.00367 0
M  V30 7595 O 711.638 0.402042 -2.49279 0
M  V30 7596 C 712.951 -2.65076 -1.41968 0
M  V30 7597 C 714.499 -2.72755 -1.53537 0
M  V30 7598 C 714.974 -4.10249 -2.03616 0
M  V30 7599 N 716.465 -4.12406 -2.10892 0
M  V30 7600 C 717.2 -5.15641 -2.50803 0
M  V30 7601 N 716.696 -6.29239 -2.89879 0
M  V30 7602 N 718.489 -5.02995 -2.50903 0
M  V30 7603 H 710.64 -2.12315 0.060098 0
M  V30 7604 H 712.903 -0.947326 -0.0357325 0
M  V30 7605 H 712.609 -3.44213 -0.721804 0
M  V30 7606 H 712.483 -2.91704 -2.39141 0
M  V30 7607 H 714.87 -1.93939 -2.22422 0
M  V30 7608 H 714.951 -2.49872 -0.547496 0
M  V30 7609 H 714.595 -4.8954 -1.35327 0
M  V30 7610 H 714.525 -4.30507 -3.03268 0
M  V30 7611 H 717.016 -3.30417 -1.83393 0
M  V30 7612 H 717.329 -7.03827 -3.19135 0
M  V30 7613 H 715.674 -6.32683 -2.8764 0
M  V30 7614 H 718.865 -4.13306 -2.19763 0
M  V30 7615 H 719.038 -5.83574 -2.81683 0
M  V30 7616 N 712.444 0.87505 -1.31075 0
M  V30 7617 C 713.672 1.66058 -1.23419 0
M  V30 7618 C 714.087 1.87723 0.201347 0
M  V30 7619 O 713.444 1.43178 1.13165 0
M  V30 7620 C 713.495 3.03142 -1.96945 0
M  V30 7621 O 713.216 2.82448 -3.34895 0
M  V30 7622 C 714.717 3.97583 -1.96067 0
M  V30 7623 H 711.937 0.517868 -0.426677 0
M  V30 7624 H 714.481 1.09258 -1.72867 0
M  V30 7625 H 712.636 3.56645 -1.51271 0
M  V30 7626 H 713.05 3.69483 -3.72267 0
M  V30 7627 H 714.524 4.91104 -2.52034 0
M  V30 7628 H 715.001 4.2898 -0.941961 0
M  V30 7629 H 715.607 3.50015 -2.41597 0
M  V30 7630 N 713.922 1.13953 1.08869 0
M  V30 7631 C 715.333 0.916649 1.62648 0
M  V30 7632 C 715.684 -0.545589 1.88462 0
M  V30 7633 O 714.809 -1.41351 1.63856 0
M  V30 7634 C 715.404 1.65751 2.95486 0
M  V30 7635 C 713.963 1.48034 3.46068 0
M  V30 7636 C 713.11 1.68305 2.20383 0
M  V30 7637 H 716.061 1.292 0.921572 0
M  V30 7638 H 716.082 1.11794 3.63707 0
M  V30 7639 H 715.594 2.72171 2.76667 0
M  V30 7640 H 713.695 0.439416 3.7 0
M  V30 7641 H 713.808 2.24719 4.23129 0
M  V30 7642 H 712.172 1.10833 2.29321 0
M  V30 7643 H 712.955 2.76057 2.04077 0
M  V30 7644 N 715.4 -1.26948 0.933913 0
M  V30 7645 C 716.811 -1.76058 0.621324 0
M  V30 7646 C 717.162 -1.76175 -0.863522 0
M  V30 7647 O 716.287 -1.36921 -1.67576 0
M  V30 7648 C 716.882 -3.19713 1.12111 0
M  V30 7649 C 715.441 -3.66465 0.859074 0
M  V30 7650 C 714.588 -2.46186 1.27624 0
M  V30 7651 H 717.539 -1.13127 1.11301 0
M  V30 7652 H 717.56 -3.77566 0.471608 0
M  V30 7653 H 717.072 -3.19596 2.20182 0
M  V30 7654 H 715.173 -3.72021 -0.207566 0
M  V30 7655 H 715.286 -4.55636 1.48098 0
M  V30 7656 H 713.65 -2.45042 0.694727 0
M  V30 7657 H 714.433 -2.48774 2.36572 0
M  V30 7658 N 716.879 -0.700114 -1.41195 0
M  V30 7659 C 718.104 -0.240704 -2.05998 0
M  V30 7660 C 718.529 1.10313 -1.52357 0
M  V30 7661 O 717.887 1.69154 -0.652424 0
M  V30 7662 C 717.935 -0.213783 -3.59966 0
M  V30 7663 O 717.039 0.809933 -4.04368 0
M  V30 7664 H 716.38 -0.116471 -0.653705 0
M  V30 7665 H 718.91 -0.956251 -1.80878 0
M  V30 7666 H 718.92 -0.0461852 -4.07974 0
M  V30 7667 H 717.595 -1.19454 -3.98376 0
M  V30 7668 H 716.172 0.611319 -3.67855 0
M  V30 7669 N 718.357 1.51182 -0.445186 0
M  V30 7670 C 719.773 1.59299 -0.0978954 0
M  V30 7671 C 719.973 1.4555 1.39346 0
M  V30 7672 O 719.029 1.30073 2.16419 0
M  V30 7673 C 720.342 2.94133 -0.625005 0
M  V30 7674 C 721.89 3.07463 -0.586137 0
M  V30 7675 C 722.365 4.44832 -1.09035 0
M  V30 7676 N 723.856 4.51173 -1.04867 0
M  V30 7677 C 724.591 5.55804 -1.40959 0
M  V30 7678 N 724.087 6.67816 -1.84375 0
M  V30 7679 N 725.88 5.46205 -1.32726 0
M  V30 7680 H 718.031 1.58363 -1.41544 0
M  V30 7681 H 720.294 0.746946 -0.58376 0
M  V30 7682 H 720 3.09589 -1.66876 0
M  V30 7683 H 719.874 3.77161 -0.0542262 0
M  V30 7684 H 722.261 2.9167 0.448646 0
M  V30 7685 H 722.342 2.26255 -1.19341 0
M  V30 7686 H 721.986 4.61372 -2.12364 0
M  V30 7687 H 721.916 5.24591 -0.459539 0
M  V30 7688 H 724.407 3.70783 -0.729932 0
M  V30 7689 H 724.72 7.43683 -2.10131 0
M  V30 7690 H 723.065 6.69003 -1.88308 0
M  V30 7691 H 726.256 4.57583 -0.986678 0
M  V30 7692 H 726.429 6.27634 -1.61182 0
M  V30 7693 N 719.835 0.176821 1.56605 0
M  V30 7694 C 721.065 -0.472142 2.01133 0
M  V30 7695 C 721.473 -1.56979 1.05614 0
M  V30 7696 O 720.816 -1.83632 0.0500137 0
M  V30 7697 C 720.878 -1.10547 3.42081 0
M  V30 7698 C 720.542 -0.148806 4.56758 0
M  V30 7699 C 721.539 0.634939 5.16008 0
M  V30 7700 C 719.224 -0.0430325 5.02282 0
M  V30 7701 C 721.218 1.5116 6.19217 0
M  V30 7702 C 718.905 0.83721 6.05338 0
M  V30 7703 C 719.903 1.61311 6.63677 0
M  V30 7704 O 719.591 2.47863 7.64735 0
M  V30 7705 H 719.323 -0.124725 0.664394 0
M  V30 7706 H 721.877 0.277329 2.03519 0
M  V30 7707 H 720.107 -1.90318 3.36625 0
M  V30 7708 H 721.796 -1.6572 3.70529 0
M  V30 7709 H 722.562 0.563424 4.81716 0
M  V30 7710 H 718.441 -0.636753 4.56581 0
M  V30 7711 H 721.985 2.11767 6.64681 0
M  V30 7712 H 717.882 0.909908 6.39055 0
M  V30 7713 H 718.65 2.4144 7.8208 0
M  V30 7714 N 721.313 -1.57302 -0.09688 0
M  V30 7715 C 722.261 -2.02942 -1.13654 0
M  V30 7716 C 723.255 -0.930173 -1.41577 0
M  V30 7717 O 724.461 -1.11535 -1.41279 0
M  V30 7718 H 720.836 -0.646726 -0.383731 0
M  V30 7719 H 722.807 -2.89452 -0.725267 0
M  V30 7720 C 721.556 -2.46815 -2.44903 0
M  V30 7721 H 720.879 -3.30979 -2.24261 0
M  V30 7722 H 722.319 -2.82527 -3.16156 0
M  V30 7723 C 720.778 -1.34071 -3.09074 0
M  V30 7724 O 721.308 -0.668856 -3.96092 0
M  V30 7725 N 719.514 -1.09214 -2.69296 0
M  V30 7726 H 719.061 -1.64029 -1.98626 0
M  V30 7727 H 719.019 -0.339785 -3.12559 0
M  V30 7728 N 722.791 0.367657 -1.53252 0
M  V30 7729 C 724.038 1.11052 -1.69333 0
M  V30 7730 C 724.366 1.89363 -0.444064 0
M  V30 7731 O 723.621 1.87094 0.573953 0
M  V30 7732 C 723.92 2.09825 -2.89324 0
M  V30 7733 C 723.586 1.4801 -4.25915 0
M  V30 7734 C 722.248 1.30879 -4.6306 0
M  V30 7735 C 724.6 1.03268 -5.10867 0
M  V30 7736 C 721.928 0.675868 -5.82794 0
M  V30 7737 C 724.28 0.41377 -6.31245 0
M  V30 7738 C 722.944 0.229939 -6.67104 0
M  V30 7739 H 722.214 0.406367 -0.619634 0
M  V30 7740 H 724.861 0.392558 -1.87433 0
M  V30 7741 H 723.166 2.87917 -2.65728 0
M  V30 7742 H 724.863 2.67252 -2.98961 0
M  V30 7743 H 721.453 1.62336 -3.96667 0
M  V30 7744 H 725.637 1.15297 -4.82722 0
M  V30 7745 H 720.893 0.521833 -6.09169 0
M  V30 7746 H 725.067 0.0588768 -6.96375 0
M  V30 7747 H 722.694 -0.262562 -7.59746 0
M  V30 7748 N 724.269 1.44576 0.627338 0
M  V30 7749 C 725.546 1.38033 1.38586 0
M  V30 7750 C 725.926 0.0409468 2.1106 0
M  V30 7751 O 725.274 -0.976582 2.0658 0
M  V30 7752 C 725.484 2.58102 2.34913 0
M  V30 7753 C 726.832 3.02332 2.98129 0
M  V30 7754 O 727.856 2.58334 2.45238 0
M  V30 7755 O 726.715 3.78628 3.94085 0
M  V30 7756 H 723.809 0.546801 0.620434 0
M  V30 7757 H 726.355 1.56672 0.652077 0
M  V30 7758 H 725.127 3.4719 1.80485 0
M  V30 7759 H 724.75 2.41696 3.15703 0
M  V30 7760 N 725.747 -0.868086 1.31537 0
M  V30 7761 C 726.993 -1.62359 1.2252 0
M  V30 7762 C 727.348 -1.91204 -0.214169 0
M  V30 7763 O 726.641 -1.5339 -1.14813 0
M  V30 7764 C 726.835 -2.95889 2.0046 0
M  V30 7765 C 726.664 -2.80082 3.5183 0
M  V30 7766 C 725.434 -2.7917 4.21179 0
M  V30 7767 C 727.632 -2.54805 4.46743 0
M  V30 7768 N 725.614 -2.54433 5.58692 0
M  V30 7769 C 726.985 -2.39349 5.71937 0
M  V30 7770 C 729.04 -2.40165 4.36148 0
M  V30 7771 C 727.743 -2.1074 6.87736 0
M  V30 7772 C 729.769 -2.12945 5.51732 0
M  V30 7773 C 729.131 -1.98278 6.75918 0
M  V30 7774 H 725.23 -0.598381 0.503452 0
M  V30 7775 H 727.814 -1.02156 1.65748 0
M  V30 7776 H 725.985 -3.54095 1.59598 0
M  V30 7777 H 727.717 -3.60734 1.83447 0
M  V30 7778 H 724.472 -2.91621 3.73168 0
M  V30 7779 H 724.896 -2.45029 6.31102 0
M  V30 7780 H 729.538 -2.50231 3.408 0
M  V30 7781 H 727.256 -1.99412 7.8311 0
M  V30 7782 H 730.842 -2.02415 5.45454 0
M  V30 7783 H 729.722 -1.77514 7.63845 0
M  V30 7784 N 727.225 -1.14528 -1.08264 0
M  V30 7785 C 728.471 -0.925721 -1.81113 0
M  V30 7786 C 728.826 0.54185 -1.84612 0
M  V30 7787 O 728.119 1.39628 -1.31205 0
M  V30 7788 C 728.313 -1.46226 -3.26117 0
M  V30 7789 C 728.142 -2.98047 -3.36746 0
M  V30 7790 C 726.912 -3.66508 -3.4785 0
M  V30 7791 C 729.11 -3.95903 -3.28277 0
M  V30 7792 N 727.092 -5.06227 -3.47285 0
M  V30 7793 C 728.463 -5.21883 -3.34721 0
M  V30 7794 C 730.518 -3.88002 -3.12024 0
M  V30 7795 C 729.221 -6.40886 -3.26585 0
M  V30 7796 C 731.247 -5.06553 -3.05219 0
M  V30 7797 C 730.609 -6.31403 -3.12266 0
M  V30 7798 H 726.708 -0.392294 -0.676483 0
M  V30 7799 H 729.292 -1.45567 -1.293 0
M  V30 7800 H 727.463 -0.959076 -3.76373 0
M  V30 7801 H 729.195 -1.18247 -3.8704 0
M  V30 7802 H 725.95 -3.17067 -3.51804 0
M  V30 7803 H 726.374 -5.79172 -3.50555 0
M  V30 7804 H 731.016 -2.9235 -3.05436 0
M  V30 7805 H 728.734 -7.36781 -3.31934 0
M  V30 7806 H 732.32 -5.02191 -2.93761 0
M  V30 7807 H 731.2 -7.21596 -3.07032 0
M  V30 7808 N 728.703 1.26451 -0.940633 0
M  V30 7809 C 729.933 1.97581 -0.603766 0
M  V30 7810 C 730.341 1.70246 0.825395 0
M  V30 7811 O 729.684 0.967001 1.56188 0
M  V30 7812 C 729.746 3.51256 -0.765463 0
M  V30 7813 C 729.41 4.0224 -2.16915 0
M  V30 7814 C 730.407 4.1402 -3.14457 0
M  V30 7815 C 728.092 4.36263 -2.48958 0
M  V30 7816 C 730.086 4.59117 -4.42143 0
M  V30 7817 C 727.773 4.81048 -3.76877 0
M  V30 7818 C 728.771 4.92436 -4.73282 0
M  V30 7819 O 728.459 5.36234 -5.98923 0
M  V30 7820 H 728.191 0.636948 -0.226436 0
M  V30 7821 H 730.745 1.61941 -1.2635 0
M  V30 7822 H 728.975 3.86669 -0.0485956 0
M  V30 7823 H 730.664 4.03597 -0.431738 0
M  V30 7824 H 731.43 3.87981 -2.91026 0
M  V30 7825 H 727.309 4.26634 -1.74656 0
M  V30 7826 H 730.853 4.6792 -5.17394 0
M  V30 7827 H 726.75 5.06531 -4.00121 0
M  V30 7828 H 727.518 5.54456 -6.02097 0
M  V30 7829 N 730.181 0.707592 1.40822 0
M  V30 7830 C 731.111 0.0644925 2.33411 0
M  V30 7831 C 732.092 -0.754205 1.52466 0
M  V30 7832 O 733.277 -0.704749 1.80961 0
M  V30 7833 C 730.407 -0.863865 3.36385 0
M  V30 7834 C 729.361 -0.15138 4.27732 0
M  V30 7835 C 728.687 -1.19491 5.21177 0
M  V30 7836 C 729.987 0.989607 5.12839 0
M  V30 7837 H 731.681 0.837829 2.87438 0
M  V30 7838 H 729.227 0.404346 1.38207 0
M  V30 7839 H 731.18 -1.32309 4.0009 0
M  V30 7840 H 729.904 -1.66901 2.80734 0
M  V30 7841 H 728.563 0.287937 3.65467 0
M  V30 7842 H 728.211 -1.9929 4.61836 0
M  V30 7843 H 727.911 -0.723123 5.83134 0
M  V30 7844 H 729.435 -1.6544 5.8776 0
M  V30 7845 H 730.849 0.610114 5.70044 0
M  V30 7846 H 729.246 1.38926 5.83798 0
M  V30 7847 H 730.316 1.82389 4.49291 0
M  V30 7848 N 731.66 -1.50943 0.453197 0
M  V30 7849 C 733.076 -1.59245 0.106342 0
M  V30 7850 C 733.276 -1.46287 -1.38572 0
M  V30 7851 O 732.332 -1.31219 -2.15726 0
M  V30 7852 C 733.645 -2.93797 0.640595 0
M  V30 7853 C 735.193 -3.07148 0.602435 0
M  V30 7854 C 735.668 -4.44247 1.11393 0
M  V30 7855 N 737.159 -4.50611 1.07258 0
M  V30 7856 C 737.894 -5.55049 1.43905 0
M  V30 7857 N 737.39 -6.66828 1.87914 0
M  V30 7858 N 739.183 -5.45494 1.35621 0
M  V30 7859 H 731.334 -1.5761 1.42382 0
M  V30 7860 H 733.597 -0.74384 0.587713 0
M  V30 7861 H 733.303 -3.087 1.68515 0
M  V30 7862 H 733.177 -3.77127 0.0742272 0
M  V30 7863 H 735.564 -2.91903 -0.433171 0
M  V30 7864 H 735.645 -2.25619 1.20539 0
M  V30 7865 H 735.289 -4.60239 2.14808 0
M  V30 7866 H 735.219 -5.2434 0.487353 0
M  V30 7867 H 737.71 -3.70391 0.749585 0
M  V30 7868 H 738.023 -7.42558 2.14072 0
M  V30 7869 H 736.368 -6.67995 1.91853 0
M  V30 7870 H 739.559 -4.57053 1.01093 0
M  V30 7871 H 739.732 -6.2677 1.64508 0
M  V30 7872 N 733.138 -0.185124 -1.56509 0
M  V30 7873 C 734.366 0.462139 -2.01673 0
M  V30 7874 C 734.781 1.55873 -1.06532 0
M  V30 7875 O 734.138 1.82371 -0.0684805 0
M  V30 7876 C 734.189 1.0277 -3.46584 0
M  V30 7877 O 733.91 -0.0251296 -4.38093 0
M  V30 7878 C 735.411 1.75183 -4.07217 0
M  V30 7879 H 732.631 0.117001 -0.660721 0
M  V30 7880 H 735.175 -0.290905 -2.0242 0
M  V30 7881 H 733.33 1.73118 -3.46568 0
M  V30 7882 H 733.744 0.394387 -5.23015 0
M  V30 7883 H 735.218 2.09999 -5.10494 0
M  V30 7884 H 735.695 2.6519 -3.50101 0
M  V30 7885 H 736.301 1.09445 -4.10977 0
M  V30 7886 N 734.616 1.57351 0.0885366 0
M  V30 7887 C 735.563 2.02523 1.10693 0
M  V30 7888 C 736.533 0.902736 1.39427 0
M  V30 7889 O 737.718 1.16921 1.50779 0
M  V30 7890 C 734.858 2.46013 2.42016 0
M  V30 7891 C 733.971 3.7181 2.19957 0
M  V30 7892 C 733.106 4.04152 3.44724 0
M  V30 7893 C 732.145 5.2304 3.17956 0
M  V30 7894 N 731.282 5.51102 4.35007 0
M  V30 7895 H 736.122 2.89302 0.714742 0
M  V30 7896 H 733.659 1.43084 0.341378 0
M  V30 7897 H 735.617 2.69274 3.18665 0
M  V30 7898 H 734.247 1.62235 2.79069 0
M  V30 7899 H 733.299 3.55987 1.34079 0
M  V30 7900 H 734.611 4.58604 1.96173 0
M  V30 7901 H 733.765 4.28225 4.29777 0
M  V30 7902 H 732.504 3.15893 3.71568 0
M  V30 7903 H 731.509 4.98781 2.31296 0
M  V30 7904 H 732.734 6.12902 2.92451 0
M  V30 7905 H 730.68 4.65802 4.61914 0
M  V30 7906 H 730.597 6.3228 4.14437 0
M  V30 7907 H 731.865 5.79714 5.21106 0
M  V30 7908 N 736.094 -0.359525 1.53444 0
M  V30 7909 C 737.324 -1.12036 1.73585 0
M  V30 7910 C 737.732 -1.83335 0.467438 0
M  V30 7911 O 737.075 -1.74641 -0.569753 0
M  V30 7912 C 737.137 -2.19036 2.85068 0
M  V30 7913 C 736.801 -1.67451 4.25217 0
M  V30 7914 C 737.798 -1.13534 5.07352 0
M  V30 7915 C 735.483 -1.72781 4.71648 0
M  V30 7916 C 737.477 -0.656321 6.34012 0
M  V30 7917 C 735.164 -1.2449 5.98285 0
M  V30 7918 C 736.162 -0.710068 6.79299 0
M  V30 7919 O 735.85 -0.234314 8.03558 0
M  V30 7920 H 735.582 -0.340662 0.583888 0
M  V30 7921 H 738.136 -0.422452 2.01009 0
M  V30 7922 H 736.366 -2.92338 2.53131 0
M  V30 7923 H 738.055 -2.80559 2.93328 0
M  V30 7924 H 738.821 -1.08751 4.7265 0
M  V30 7925 H 734.7 -2.13351 4.08659 0
M  V30 7926 H 738.244 -0.238193 6.97193 0
M  V30 7927 H 734.141 -1.28969 6.32485 0
M  V30 7928 H 734.909 -0.353084 8.17738 0
M  V30 7929 N 737.572 -1.44907 -0.619662 0
M  V30 7930 C 738.504 -1.48652 -1.74457 0
M  V30 7931 C 739.517 -0.378596 -1.58337 0
M  V30 7932 O 740.706 -0.644987 -1.6644 0
M  V30 7933 C 737.806 -1.31568 -3.12319 0
M  V30 7934 C 736.979 -2.55816 -3.54792 0
M  V30 7935 C 736.038 -2.33465 -4.71573 0
M  V30 7936 O 735.064 -3.07015 -4.79302 0
M  V30 7937 N 736.266 -1.37254 -5.6404 0
M  V30 7938 H 739.031 -2.45632 -1.71712 0
M  V30 7939 H 736.592 -1.40492 -0.804582 0
M  V30 7940 H 738.584 -1.14445 -3.88181 0
M  V30 7941 H 737.154 -0.429095 -3.09641 0
M  V30 7942 H 736.374 -2.88137 -2.69018 0
M  V30 7943 H 737.662 -3.38431 -3.79924 0
M  V30 7944 H 737.06 -0.765309 -5.60499 0
M  V30 7945 H 735.617 -1.26106 -6.39485 0
M  V30 7946 N 739.05 0.861098 -1.31996 0
M  V30 7947 C 740.298 1.61162 -1.21947 0
M  V30 7948 C 740.619 1.93751 0.220351 0
M  V30 7949 O 739.889 1.59069 1.14341 0
M  V30 7950 H 738.469 0.597485 -0.448353 0
M  V30 7951 H 741.131 1.03039 -1.65436 0
M  V30 7952 H 740.227 2.55138 -1.79752 0
M  V30 7953 N 740.528 1.15101 1.07655 0
M  V30 7954 C 741.777 0.918528 1.79572 0
M  V30 7955 C 742.09 -0.555922 1.87534 0
M  V30 7956 O 743.296 -0.905893 2.55941 0
M  V30 7957 C 741.752 1.59394 3.22679 0
M  V30 7958 C 741.36 3.1052 3.22927 0
M  V30 7959 C 743.104 1.44289 3.99225 0
M  V30 7960 C 741.011 3.70862 4.60668 0
M  V30 7961 H 739.941 0.340006 0.672987 0
M  V30 7962 H 742.592 1.38079 1.20857 0
M  V30 7963 H 740.974 1.05936 3.81567 0
M  V30 7964 H 742.148 3.70708 2.737 0
M  V30 7965 H 740.463 3.25351 2.59876 0
M  V30 7966 H 743.06 1.86766 5.01022 0
M  V30 7967 H 743.403 0.389975 4.14469 0
M  V30 7968 H 743.936 1.94826 3.46825 0
M  V30 7969 H 740.675 4.7604 4.50628 0
M  V30 7970 H 740.195 3.15456 5.10145 0
M  V30 7971 H 741.874 3.71607 5.29639 0
M  V30 7972 N 742.006 -1.2595 0.947325 0
M  V30 7973 C 743.246 -1.95218 0.605743 0
M  V30 7974 C 743.61 -1.72624 -0.84054 0
M  V30 7975 O 744.811 -2.35748 -1.29136 0
M  V30 7976 C 743.082 -3.44654 0.94596 0
M  V30 7977 S 744.641 -4.32922 0.715849 0
M  V30 7978 H 741.459 -0.675159 0.222894 0
M  V30 7979 H 744.061 -1.52766 1.21995 0
M  V30 7980 H 742.765 -3.586 1.99585 0
M  V30 7981 H 742.296 -3.92082 0.321718 0
M  V30 7982 H 744.311 -4.94445 -0.416959 0
M  V30 7983 N 743.484 -0.715051 -1.40445 0
M  V30 7984 C 744.895 -0.326763 -1.83818 0
M  V30 7985 C 745.246 1.13851 -1.59789 0
M  V30 7986 O 744.371 1.87611 -1.07848 0
M  V30 7987 C 744.966 -0.586297 -3.33688 0
M  V30 7988 C 743.525 -0.251724 -3.75557 0
M  V30 7989 C 742.672 -0.858928 -2.63662 0
M  V30 7990 H 745.623 -0.914241 -1.2972 0
M  V30 7991 H 745.644 0.148636 -3.8021 0
M  V30 7992 H 745.156 -1.65281 -3.51146 0
M  V30 7993 H 743.257 0.809754 -3.63695 0
M  V30 7994 H 743.37 -0.720348 -4.73654 0
M  V30 7995 H 741.734 -0.287013 -2.53078 0
M  V30 7996 H 742.517 -1.9297 -2.83932 0
M  V30 7997 N 744.962 1.50701 -0.461195 0
M  V30 7998 C 746.373 1.867 -0.00370227 0
M  V30 7999 C 746.724 1.37673 1.39787 0
M  V30 8000 O 745.849 0.737515 2.03445 0
M  V30 8001 C 746.444 3.388 5.75786e-05 0
M  V30 8002 C 745.003 3.74247 0.402044 0
M  V30 8003 C 744.15 2.74549 -0.389652 0
M  V30 8004 H 747.101 1.43585 -0.675942 0
M  V30 8005 H 747.122 3.719 0.804414 0
M  V30 8006 H 746.634 3.74452 -1.02015 0
M  V30 8007 H 744.735 3.44192 1.42697 0
M  V30 8008 H 744.848 4.78973 0.110265 0
M  V30 8009 H 743.212 2.54226 0.155314 0
M  V30 8010 H 743.995 3.13044 -1.40919 0
M  V30 8011 N 746.441 0.193421 1.56409 0
M  V30 8012 C 747.687 -0.446449 1.97825 0
M  V30 8013 C 748.02 -1.61386 1.08019 0
M  V30 8014 O 747.295 -1.94053 0.131839 0
M  V30 8015 C 747.578 -0.908199 3.48459 0
M  V30 8016 C 747.431 0.260914 4.49043 0
M  V30 8017 C 748.75 -1.77428 4.0275 0
M  V30 8018 H 745.869 -0.160807 0.719243 0
M  V30 8019 H 748.511 0.284006 1.87865 0
M  V30 8020 H 746.661 -1.53062 3.57077 0
M  V30 8021 H 748.333 0.898548 4.52464 0
M  V30 8022 H 746.576 0.912949 4.24085 0
M  V30 8023 H 747.247 -0.104657 5.51901 0
M  V30 8024 H 749.723 -1.24936 3.96901 0
M  V30 8025 H 748.599 -2.06633 5.08521 0
M  V30 8026 H 748.86 -2.72788 3.47907 0
M  V30 8027 N 747.919 -1.57396 -0.0801906 0
M  V30 8028 C 749.147 -1.91055 -0.794075 0
M  V30 8029 C 749.562 -0.788583 -1.71542 0
M  V30 8030 O 748.919 0.238587 -1.80934 0
M  V30 8031 C 748.97 -3.24418 -1.59484 0
M  V30 8032 O 748.691 -4.323 -0.710532 0
M  V30 8033 C 750.192 -3.72037 -2.41046 0
M  V30 8034 H 747.412 -0.63171 -0.226238 0
M  V30 8035 H 749.956 -2.04431 -0.0529685 0
M  V30 8036 H 748.111 -3.12595 -2.2883 0
M  V30 8037 H 748.525 -5.08976 -1.26663 0
M  V30 8038 H 749.999 -4.68006 -2.92702 0
M  V30 8039 H 750.476 -3.00624 -3.2019 0
M  V30 8040 H 751.082 -3.86777 -1.76871 0
M  V30 8041 N 749.397 0.351382 -1.53633 0
M  V30 8042 C 750.813 0.693987 -1.43722 0
M  V30 8043 C 751.013 1.9274 -0.587669 0
M  V30 8044 O 750.069 2.52387 -0.0756082 0
M  V30 8045 C 751.382 0.893937 -2.87105 0
M  V30 8046 C 752.93 0.993051 -2.96829 0
M  V30 8047 C 753.405 1.22537 -4.41303 0
M  V30 8048 N 754.896 1.29275 -4.44795 0
M  V30 8049 C 755.631 1.48988 -5.53706 0
M  V30 8050 N 755.127 1.65924 -6.72637 0
M  V30 8051 N 756.92 1.51472 -5.41306 0
M  V30 8052 H 749.071 -0.459688 -2.07366 0
M  V30 8053 H 751.334 -0.143684 -0.937048 0
M  V30 8054 H 751.04 0.0592517 -3.5165 0
M  V30 8055 H 750.914 1.79795 -3.31592 0
M  V30 8056 H 753.301 1.81827 -2.32429 0
M  V30 8057 H 753.382 0.0661119 -2.55715 0
M  V30 8058 H 753.026 0.405117 -5.06282 0
M  V30 8059 H 752.956 2.16575 -4.80003 0
M  V30 8060 H 755.447 1.17743 -3.59089 0
M  V30 8061 H 755.76 1.80578 -7.51406 0
M  V30 8062 H 754.105 1.63075 -6.75597 0
M  V30 8063 H 757.296 1.37818 -4.47352 0
M  V30 8064 H 757.469 1.66493 -6.26246 0
M  V30 8065 N 750.875 1.45233 0.611969 0
M  V30 8066 C 751.823 1.53898 1.74408 0
M  V30 8067 C 752.817 0.409254 1.64382 0
M  V30 8068 O 754.023 0.584988 1.70229 0
M  V30 8069 H 750.398 0.483303 0.576127 0
M  V30 8070 H 752.369 2.49143 1.64227 0
M  V30 8071 C 751.118 1.51865 3.12782 0
M  V30 8072 H 750.441 2.38118 3.21154 0
M  V30 8073 H 751.881 1.61986 3.91838 0
M  V30 8074 C 750.34 0.242374 3.36027 0
M  V30 8075 O 750.87 -0.679587 3.9591 0
M  V30 8076 N 749.076 0.139448 2.90265 0
M  V30 8077 H 748.623 0.890571 2.41716 0
M  V30 8078 H 748.581 -0.713686 3.06193 0
M  V30 8079 N 752.353 -0.854086 1.3245 0
M  V30 8080 C 753.263 -1.99503 1.23434 0
M  V30 8081 C 754.279 -1.73371 0.147828 0
M  V30 8082 O 755.455 -1.97998 0.368609 0
M  V30 8083 C 752.52 -3.33192 0.958328 0
M  V30 8084 C 751.581 -3.72542 2.13333 0
M  V30 8085 C 750.814 -4.99852 1.8704 0
M  V30 8086 O 751.037 -5.64573 0.813239 0
M  V30 8087 O 749.971 -5.36345 2.73161 0
M  V30 8088 H 753.797 -2.10046 2.1935 0
M  V30 8089 H 751.382 -0.984823 1.12346 0
M  V30 8090 H 753.264 -4.13327 0.820918 0
M  V30 8091 H 751.939 -3.23687 0.0293299 0
M  V30 8092 H 750.846 -2.92981 2.32622 0
M  V30 8093 H 752.179 -3.86694 3.04514 0
M  V30 8094 N 753.831 -1.1567 -1.07043 0
M  V30 8095 C 755.059 -0.957471 -1.83412 0
M  V30 8096 C 755.474 0.494271 -1.82215 0
M  V30 8097 O 754.831 1.34288 -1.23584 0
M  V30 8098 C 754.882 -1.46784 -3.30359 0
M  V30 8099 O 754.603 -2.86271 -3.31633 0
M  V30 8100 C 756.104 -1.31054 -4.23485 0
M  V30 8101 H 753.324 -0.33986 -0.578564 0
M  V30 8102 H 755.868 -1.53518 -1.35102 0
M  V30 8103 H 754.023 -0.932586 -3.76007 0
M  V30 8104 H 754.437 -3.0948 -4.23465 0
M  V30 8105 H 755.911 -1.71605 -5.24648 0
M  V30 8106 H 756.388 -0.255107 -4.38458 0
M  V30 8107 H 756.994 -1.83503 -3.83676 0
M  V30 8108 N 755.309 1.25446 -0.953992 0
M  V30 8109 C 756.259 2.23627 -0.444413 0
M  V30 8110 C 757.243 1.54004 0.465993 0
M  V30 8111 O 758.435 1.74454 0.29915 0
M  V30 8112 C 755.564 3.42179 0.277175 0
M  V30 8113 C 754.65 4.1907 -0.651263 0
M  V30 8114 N 755.041 4.73346 -1.78262 0
M  V30 8115 C 753.339 4.43628 -0.459338 0
M  V30 8116 C 754.04 5.31576 -2.36224 0
M  V30 8117 N 753.016 5.17991 -1.64884 0
M  V30 8118 H 756.818 2.63197 -1.30785 0
M  V30 8119 H 754.332 1.40677 -0.811402 0
M  V30 8120 H 756.329 4.11653 0.659367 0
M  V30 8121 H 754.989 3.04134 1.13723 0
M  V30 8122 H 756 4.705 -2.1645 0
M  V30 8123 H 752.677 4.15963 0.357885 0
M  V30 8124 H 754.067 5.84361 -3.3162 0
M  V30 8125 N 756.787 0.722489 1.40064 0
M  V30 8126 C 758.034 0.264979 2.00759 0
M  V30 8127 C 758.362 -1.14395 1.57302 0
M  V30 8128 O 757.617 -1.79165 0.787298 0
M  V30 8129 C 757.916 0.300682 3.56133 0
M  V30 8130 C 757.582 1.66087 4.19197 0
M  V30 8131 C 756.244 2.03319 4.36136 0
M  V30 8132 C 758.596 2.55452 4.54306 0
M  V30 8133 C 755.924 3.29448 4.8547 0
M  V30 8134 C 758.276 3.8094 5.05042 0
M  V30 8135 C 756.94 4.1828 5.2019 0
M  V30 8136 H 756.21 0.0969625 0.734629 0
M  V30 8137 H 758.857 0.926877 1.67575 0
M  V30 8138 H 757.162 -0.44479 3.89267 0
M  V30 8139 H 758.859 -0.0712542 4.00937 0
M  V30 8140 H 755.449 1.36137 4.06405 0
M  V30 8141 H 759.633 2.27961 4.40849 0
M  V30 8142 H 754.889 3.58338 4.95382 0
M  V30 8143 H 759.063 4.50351 5.31184 0
M  V30 8144 H 756.69 5.16081 5.58179 0
M  V30 8145 N 758.265 -1.50454 0.469181 0
M  V30 8146 C 759.542 -1.9504 -0.147955 0
M  V30 8147 C 759.922 -1.40946 -1.57154 0
M  V30 8148 O 759.27 -0.609663 -2.20217 0
M  V30 8149 C 759.48 -3.48875 -0.0932198 0
M  V30 8150 C 760.828 -4.23655 -0.283056 0
M  V30 8151 O 761.852 -3.55795 -0.169892 0
M  V30 8152 O 760.711 -5.44102 -0.511396 0
M  V30 8153 H 757.805 -0.819283 -0.11271 0
M  V30 8154 H 760.351 -1.6123 0.529446 0
M  V30 8155 H 759.123 -3.80791 0.900784 0
M  V30 8156 H 758.746 -3.89217 -0.812161 0
M  V30 8157 N 759.743 -0.201713 -1.56304 0
M  V30 8158 C 760.706 0.702811 -2.18159 0
M  V30 8159 C 761.706 1.13619 -1.13787 0
M  V30 8160 O 762.896 1.0482 -1.39134 0
M  V30 8161 C 760.028 1.96032 -2.78898 0
M  V30 8162 H 761.221 0.163836 -2.99452 0
M  V30 8163 H 758.774 0.04791 -1.56227 0
M  V30 8164 H 759.509 2.54165 -2.01421 0
M  V30 8165 H 759.294 1.65824 -3.55309 0
M  V30 8166 H 760.784 2.60519 -3.26373 0
M  V30 8167 N 761.222 1.57436 0.0718424 0
M  V30 8168 C 762.47 1.86878 0.769484 0
M  V30 8169 C 762.791 0.7937 1.78116 0
M  V30 8170 O 762.061 -0.177642 1.95093 0
M  V30 8171 H 760.641 0.689593 0.287177 0
M  V30 8172 H 763.303 1.94841 0.0479427 0
M  V30 8173 H 762.399 2.84387 1.28572 0
M  V30 8174 N 762.7 -0.34323 1.53817 0
M  V30 8175 C 763.663 -1.40444 1.8113 0
M  V30 8176 C 764.663 -1.45604 0.682366 0
M  V30 8177 O 765.853 -1.45974 0.950649 0
M  V30 8178 C 762.985 -2.79369 1.95361 0
M  V30 8179 H 764.178 -1.17489 2.75928 0
M  V30 8180 H 761.731 -0.577636 1.45234 0
M  V30 8181 H 762.466 -3.07607 1.02707 0
M  V30 8182 H 762.251 -2.7702 2.77493 0
M  V30 8183 H 763.741 -3.56178 2.18008 0
M  V30 8184 N 764.178 -1.45556 -0.604258 0
M  V30 8185 C 765.125 -1.54482 -1.71476 0
M  V30 8186 C 766.095 -0.390479 -1.61445 0
M  V30 8187 O 767.28 -0.604371 -1.80975 0
M  V30 8188 C 764.42 -1.52064 -3.09791 0
M  V30 8189 C 763.533 -2.78073 -3.30604 0
M  V30 8190 C 762.668 -2.67304 -4.59044 0
M  V30 8191 C 761.707 -3.88352 -4.73127 0
M  V30 8192 N 760.844 -3.76098 -5.9287 0
M  V30 8193 H 765.684 -2.49349 -1.63184 0
M  V30 8194 H 763.221 -1.23725 -0.795641 0
M  V30 8195 H 765.179 -1.48649 -3.89819 0
M  V30 8196 H 763.809 -0.607442 -3.17033 0
M  V30 8197 H 762.861 -2.91561 -2.44329 0
M  V30 8198 H 764.173 -3.67847 -3.36883 0
M  V30 8199 H 763.327 -2.61875 -5.47272 0
M  V30 8200 H 762.066 -1.75135 -4.55169 0
M  V30 8201 H 761.071 -3.94137 -3.83322 0
M  V30 8202 H 762.296 -4.81591 -4.78797 0
M  V30 8203 H 760.242 -2.867 -5.90033 0
M  V30 8204 H 760.159 -4.59509 -6.00323 0
M  V30 8205 H 761.427 -3.74607 -6.83586 0
M  V30 8206 N 765.656 0.84705 -1.32902 0
M  V30 8207 C 766.903 1.60176 -1.23894 0
M  V30 8208 C 767.231 1.93496 0.197341 0
M  V30 8209 O 766.486 1.58173 1.15238 0
M  V30 8210 C 766.785 2.92663 -2.05142 0
M  V30 8211 C 766.451 2.7874 -3.54422 0
M  V30 8212 C 765.113 2.7465 -3.95121 0
M  V30 8213 C 767.465 2.64128 -4.49317 0
M  V30 8214 C 764.793 2.53837 -5.28946 0
M  V30 8215 C 767.145 2.44849 -5.83294 0
M  V30 8216 C 765.809 2.39156 -6.23186 0
M  V30 8217 H 765.079 0.586127 -0.453361 0
M  V30 8218 H 767.726 0.981994 -1.64405 0
M  V30 8219 H 766.031 3.588 -1.57383 0
M  V30 8220 H 767.728 3.50095 -1.95537 0
M  V30 8221 H 764.318 2.82751 -3.22102 0
M  V30 8222 H 768.502 2.66327 -4.18788 0
M  V30 8223 H 763.758 2.4787 -5.58901 0
M  V30 8224 H 767.932 2.32524 -6.56434 0
M  V30 8225 H 765.559 2.22789 -7.26821 0
M  V30 8226 N 767.134 1.16236 1.06428 0
M  V30 8227 C 768.084 0.835994 2.12121 0
M  V30 8228 C 769.068 -0.183955 1.59845 0
M  V30 8229 O 770.26 0.0166741 1.76992 0
M  V30 8230 C 767.389 0.337333 3.41639 0
M  V30 8231 C 766.475 1.38798 4.00744 0
M  V30 8232 N 766.866 2.59799 4.3398 0
M  V30 8233 C 765.164 1.24292 4.28331 0
M  V30 8234 C 765.865 3.27213 4.80943 0
M  V30 8235 N 764.841 2.54594 4.80294 0
M  V30 8236 H 768.643 1.75615 2.35662 0
M  V30 8237 H 766.157 1.04921 1.23957 0
M  V30 8238 H 768.154 0.0851274 4.16813 0
M  V30 8239 H 766.814 -0.57677 3.19536 0
M  V30 8240 H 767.825 2.96867 4.24371 0
M  V30 8241 H 764.502 0.389464 4.15679 0
M  V30 8242 H 765.892 4.30492 5.15874 0
M  V30 8243 N 768.612 -1.24939 0.960631 0
M  V30 8244 C 769.858 -1.93104 0.61958 0
M  V30 8245 C 770.191 -1.74991 -0.84212 0
M  V30 8246 O 769.466 -1.09867 -1.60498 0
M  V30 8247 C 769.749 -3.46326 0.986422 0
M  V30 8248 C 769.602 -3.73638 2.50429 0
M  V30 8249 C 770.921 -4.37067 0.515827 0
M  V30 8250 H 768.04 -0.701311 0.226566 0
M  V30 8251 H 770.682 -1.47442 1.19836 0
M  V30 8252 H 768.832 -3.85348 0.493907 0
M  V30 8253 H 770.504 -3.44217 3.07103 0
M  V30 8254 H 768.747 -3.19035 2.93937 0
M  V30 8255 H 769.418 -4.80815 2.71147 0
M  V30 8256 H 771.894 -4.05381 0.938389 0
M  V30 8257 H 770.77 -5.43022 0.80114 0
M  V30 8258 H 771.031 -4.38224 -0.584171 0
M  V30 8259 N 770.09 -0.729906 -1.39679 0
M  V30 8260 C 771.501 -0.346241 -1.83461 0
M  V30 8261 C 771.852 1.1215 -1.60987 0
M  V30 8262 O 770.977 1.86456 -1.09832 0
M  V30 8263 C 771.572 -0.621656 -3.33048 0
M  V30 8264 C 770.131 -0.291543 -3.75269 0
M  V30 8265 C 769.278 -0.886844 -2.62736 0
M  V30 8266 H 772.229 -0.927949 -1.28743 0
M  V30 8267 H 772.25 0.108301 -3.80346 0
M  V30 8268 H 771.762 -1.68996 -3.49373 0
M  V30 8269 H 769.863 0.771133 -3.64533 0
M  V30 8270 H 769.976 -0.770544 -4.72863 0
M  V30 8271 H 768.34 -0.313839 -2.52759 0
M  V30 8272 H 769.123 -1.95971 -2.81869 0
M  V30 8273 N 771.568 1.50203 -0.477153 0
M  V30 8274 C 772.516 2.30278 0.327826 0
M  V30 8275 C 773.51 1.37831 0.984839 0
M  V30 8276 O 774.716 1.54994 0.915251 0
M  V30 8277 H 771.091 0.741612 0.124564 0
M  V30 8278 H 773.062 2.96124 -0.367853 0
M  V30 8279 C 771.811 3.18548 1.39365 0
M  V30 8280 H 771.134 3.89596 0.897475 0
M  V30 8281 H 772.574 3.77561 1.92934 0
M  V30 8282 C 771.033 2.36548 2.39889 0
M  V30 8283 O 771.563 2.05282 3.45286 0
M  V30 8284 N 769.769 1.99015 2.11758 0
M  V30 8285 H 769.316 2.24641 1.26071 0
M  V30 8286 H 769.274 1.44454 2.7925 0
M  V30 8287 N 773.046 0.209999 1.56195 0
M  V30 8288 C 774.292 -0.425442 1.98287 0
M  V30 8289 C 774.625 -1.60232 1.09724 0
M  V30 8290 O 773.9 -1.93902 0.152414 0
M  V30 8291 C 774.183 -0.871189 3.49403 0
M  V30 8292 C 774.036 0.308527 4.48741 0
M  V30 8293 C 775.355 -1.73146 4.04609 0
M  V30 8294 H 772.474 -0.153169 0.720908 0
M  V30 8295 H 775.116 0.303916 1.87554 0
M  V30 8296 H 773.266 -1.49266 3.58681 0
M  V30 8297 H 774.938 0.946487 4.51486 0
M  V30 8298 H 773.181 0.957878 4.23092 0
M  V30 8299 H 773.852 -0.0461143 5.51981 0
M  V30 8300 H 776.328 -1.2072 3.98203 0
M  V30 8301 H 775.204 -2.01228 5.10684 0
M  V30 8302 H 775.465 -2.69083 3.5078 0
M  V30 8303 N 774.524 -1.57472 -0.0634922 0
M  V30 8304 C 775.752 -1.91887 -0.773767 0
M  V30 8305 C 776.167 -0.806733 -1.70696 0
M  V30 8306 O 775.524 0.219383 -1.81177 0
M  V30 8307 C 775.575 -3.26092 -1.56034 0
M  V30 8308 O 775.296 -4.33029 -0.66464 0
M  V30 8309 C 776.797 -3.74573 -2.37087 0
M  V30 8310 H 774.017 -0.634074 -0.219525 0
M  V30 8311 H 776.561 -2.04476 -0.0312828 0
M  V30 8312 H 774.716 -3.15004 -2.25502 0
M  V30 8313 H 775.13 -5.10291 -1.21258 0
M  V30 8314 H 776.604 -4.71084 -2.87722 0
M  V30 8315 H 777.081 -3.04003 -3.16984 0
M  V30 8316 H 777.687 -3.88631 -1.72759 0
M  V30 8317 N 776.003 0.335068 -1.53997 0
M  V30 8318 C 777.414 0.910191 -1.6301 0
M  V30 8319 C 777.765 1.89271 -0.516809 0
M  V30 8320 O 776.89 2.13516 0.352123 0
M  V30 8321 C 777.485 1.65761 -2.9548 0
M  V30 8322 C 776.044 2.18163 -3.06728 0
M  V30 8323 C 775.191 1.00338 -2.5851 0
M  V30 8324 H 778.142 0.112965 -1.58297 0
M  V30 8325 H 778.163 2.52107 -2.84995 0
M  V30 8326 H 777.675 0.94227 -3.76488 0
M  V30 8327 H 775.776 2.92847 -2.30372 0
M  V30 8328 H 775.889 2.43952 -4.1234 0
M  V30 8329 H 774.253 1.37925 -2.14124 0
M  V30 8330 H 775.036 0.30254 -3.41964 0
M  V30 8331 N 777.481 1.45874 0.596531 0
M  V30 8332 C 778.711 1.5379 1.37958 0
M  V30 8333 C 779.119 0.173086 1.88407 0
M  V30 8334 O 778.462 -0.837498 1.63498 0
M  V30 8335 C 778.524 2.47044 2.61169 0
M  V30 8336 C 778.188 3.93565 2.32283 0
M  V30 8337 C 779.185 4.83162 1.91965 0
M  V30 8338 C 776.87 4.38579 2.44854 0
M  V30 8339 C 778.864 6.15782 1.64593 0
M  V30 8340 C 776.551 5.71238 2.17095 0
M  V30 8341 C 777.549 6.59659 1.77028 0
M  V30 8342 O 777.237 7.89857 1.49601 0
M  V30 8343 H 776.969 0.523 0.428307 0
M  V30 8344 H 779.523 1.91855 0.733529 0
M  V30 8345 H 777.753 2.0397 3.28532 0
M  V30 8346 H 779.442 2.4552 3.23226 0
M  V30 8347 H 780.208 4.49646 1.8178 0
M  V30 8348 H 776.087 3.6999 2.75006 0
M  V30 8349 H 779.631 6.84757 1.33245 0
M  V30 8350 H 775.528 6.04306 2.26901 0
M  V30 8351 H 776.296 8.01991 1.63561 0
M  V30 8352 N 778.959 -0.83999 1.33349 0
M  V30 8353 C 780.208 -1.59011 1.2409 0
M  V30 8354 C 780.521 -1.94655 -0.192029 0
M  V30 8355 O 781.727 -2.68438 -0.406617 0
M  V30 8356 C 780.183 -2.86801 2.17425 0
M  V30 8357 C 779.791 -2.58525 3.65881 0
M  V30 8358 C 781.535 -3.64823 2.17036 0
M  V30 8359 C 779.442 -3.82404 4.51133 0
M  V30 8360 H 778.372 -0.596731 0.460899 0
M  V30 8361 H 781.023 -0.926274 1.58406 0
M  V30 8362 H 779.405 -3.54719 1.7604 0
M  V30 8363 H 780.579 -1.98824 4.15699 0
M  V30 8364 H 778.894 -1.93808 3.68548 0
M  V30 8365 H 781.491 -4.56774 2.7796 0
M  V30 8366 H 781.834 -3.99663 1.16513 0
M  V30 8367 H 782.367 -3.03826 2.56777 0
M  V30 8368 H 779.106 -3.52696 5.52527 0
M  V30 8369 H 778.626 -4.41447 4.0606 0
M  V30 8370 H 780.305 -4.49995 4.6488 0
M  V30 8371 N 780.437 -1.16799 -1.0581 0
M  V30 8372 C 781.853 -0.913935 -1.30841 0
M  V30 8373 C 782.053 0.430439 -1.96849 0
M  V30 8374 O 781.109 1.16885 -2.23817 0
M  V30 8375 C 782.422 -2.06662 -2.18429 0
M  V30 8376 C 783.97 -2.10294 -2.31831 0
M  V30 8377 C 784.445 -3.2493 -3.22776 0
M  V30 8378 N 785.936 -3.24678 -3.30361 0
M  V30 8379 C 786.671 -4.10021 -4.00837 0
M  V30 8380 N 786.167 -5.05461 -4.73795 0
M  V30 8381 N 787.96 -3.97991 -3.96937 0
M  V30 8382 H 780.111 -2.03343 -0.613613 0
M  V30 8383 H 782.374 -0.88754 -0.333133 0
M  V30 8384 H 782.08 -3.03791 -1.77211 0
M  V30 8385 H 781.954 -2.01233 -3.19038 0
M  V30 8386 H 784.341 -1.13754 -2.72294 0
M  V30 8387 H 784.422 -2.19786 -1.30873 0
M  V30 8388 H 784.066 -4.21731 -2.83028 0
M  V30 8389 H 783.996 -3.12674 -4.23725 0
M  V30 8390 H 786.487 -2.55573 -2.78372 0
M  V30 8391 H 786.8 -5.66989 -5.25113 0
M  V30 8392 H 785.145 -5.09436 -4.72758 0
M  V30 8393 H 788.336 -3.2273 -3.39062 0
M  V30 8394 H 788.509 -4.64722 -4.51594 0
M  V30 8395 N 781.915 1.24427 -0.967243 0
M  V30 8396 C 783.145 1.96256 -0.64554 0
M  V30 8397 C 783.553 1.71959 0.789098 0
M  V30 8398 O 782.896 0.999913 1.54102 0
M  V30 8399 C 782.958 3.49553 -0.839798 0
M  V30 8400 C 782.622 3.97548 -2.25399 0
M  V30 8401 C 783.619 4.07257 -3.23168 0
M  V30 8402 C 781.304 4.30884 -2.58156 0
M  V30 8403 C 783.298 4.49635 -4.51782 0
M  V30 8404 C 780.985 4.72946 -3.86996 0
M  V30 8405 C 781.983 4.82286 -4.83621 0
M  V30 8406 O 781.671 5.23409 -6.10162 0
M  V30 8407 H 781.403 0.632002 -0.239895 0
M  V30 8408 H 783.957 1.59224 -1.29757 0
M  V30 8409 H 782.187 3.86479 -0.130603 0
M  V30 8410 H 783.876 4.02591 -0.517249 0
M  V30 8411 H 784.642 3.8172 -2.9919 0
M  V30 8412 H 780.521 4.22833 -1.83666 0
M  V30 8413 H 784.065 4.5684 -5.27203 0
M  V30 8414 H 779.962 4.9793 -4.10775 0
M  V30 8415 H 780.73 5.4156 -6.13722 0
M  V30 8416 N 783.393 0.737304 1.3929 0
M  V30 8417 C 784.64 0.286257 2.00467 0
M  V30 8418 C 784.968 -1.1272 1.58507 0
M  V30 8419 O 784.223 -1.7832 0.806257 0
M  V30 8420 C 784.522 0.338438 3.55794 0
M  V30 8421 C 784.188 1.70524 4.17411 0
M  V30 8422 C 782.85 2.07934 4.33955 0
M  V30 8423 C 785.202 2.60256 4.51571 0
M  V30 8424 C 782.53 3.34578 4.81948 0
M  V30 8425 C 784.882 3.86275 5.00974 0
M  V30 8426 C 783.546 4.23774 5.15725 0
M  V30 8427 H 782.816 0.104749 0.733559 0
M  V30 8428 H 785.463 0.944598 1.66582 0
M  V30 8429 H 783.768 -0.403478 3.89717 0
M  V30 8430 H 785.465 -0.0287255 4.0099 0
M  V30 8431 H 782.055 1.40439 4.04938 0
M  V30 8432 H 786.239 2.32624 4.38406 0
M  V30 8433 H 781.495 3.63572 4.91554 0
M  V30 8434 H 785.669 4.5596 5.26378 0
M  V30 8435 H 783.296 5.21972 5.52674 0
M  V30 8436 N 784.871 -1.49948 0.485112 0
M  V30 8437 C 786.117 -2.02695 -0.0651022 0
M  V30 8438 C 786.45 -1.36534 -1.38102 0
M  V30 8439 O 785.725 -0.495677 -1.88078 0
M  V30 8440 C 786.008 -3.59337 -0.234285 0
M  V30 8441 C 785.861 -4.3605 1.10364 0
M  V30 8442 C 787.18 -4.28996 -0.982351 0
M  V30 8443 H 784.299 -0.736666 -0.0221856 0
M  V30 8444 H 786.941 -1.7913 0.633433 0
M  V30 8445 H 785.091 -3.79546 -0.829262 0
M  V30 8446 H 786.763 -4.27377 1.73627 0
M  V30 8447 H 785.006 -3.99236 1.69686 0
M  V30 8448 H 785.677 -5.43959 0.938743 0
M  V30 8449 H 788.153 -4.13346 -0.477904 0
M  V30 8450 H 787.029 -5.38379 -1.06955 0
M  V30 8451 H 787.29 -3.93135 -2.02231 0
M  V30 8452 N 786.349 -0.21828 -1.56081 0
M  V30 8453 C 787.574 0.422302 -2.03055 0
M  V30 8454 C 787.999 1.5279 -1.09713 0
M  V30 8455 O 787.357 1.81102 -0.0847187 0
M  V30 8456 C 787.405 0.934177 -3.48289 0
M  V30 8457 O 786.509 2.04574 -3.58083 0
M  V30 8458 H 785.85 0.0959764 -0.657027 0
M  V30 8459 H 788.38 -0.335958 -2.01823 0
M  V30 8460 H 788.39 1.24484 -3.88546 0
M  V30 8461 H 787.065 0.124963 -4.15712 0
M  V30 8462 H 785.642 1.74196 -3.29712 0
M  V30 8463 N 787.827 1.57504 0.0551401 0
M  V30 8464 C 789.074 1.88055 0.751104 0
M  V30 8465 C 789.402 0.812231 1.76729 0
M  V30 8466 O 788.657 -0.189918 1.94776 0
M  V30 8467 C 788.956 3.25311 1.48013 0
M  V30 8468 C 788.622 4.46858 0.602375 0
M  V30 8469 C 787.284 4.79847 0.360536 0
M  V30 8470 C 789.636 5.212 -0.00524047 0
M  V30 8471 C 786.964 5.84582 -0.498127 0
M  V30 8472 C 789.316 6.26844 -0.851453 0
M  V30 8473 C 787.98 6.58324 -1.103 0
M  V30 8474 H 787.25 0.688142 0.274848 0
M  V30 8475 H 789.897 1.91497 0.0114795 0
M  V30 8476 H 788.202 3.17737 2.29239 0
M  V30 8477 H 789.899 3.46189 2.02371 0
M  V30 8478 H 786.489 4.21049 0.801007 0
M  V30 8479 H 790.673 4.96013 0.168682 0
M  V30 8480 H 785.929 6.07361 -0.701594 0
M  V30 8481 H 790.103 6.83603 -1.32893 0
M  V30 8482 H 787.73 7.39304 -1.77011 0
M  V30 8483 N 789.305 -0.326896 1.54172 0
M  V30 8484 C 790.551 -1.06681 1.72473 0
M  V30 8485 C 790.884 -1.87779 0.49523 0
M  V30 8486 O 790.159 -1.87754 -0.507803 0
M  V30 8487 C 790.442 -1.99429 2.99834 0
M  V30 8488 C 790.295 -1.21682 4.33028 0
M  V30 8489 C 791.614 -2.99002 3.22933 0
M  V30 8490 H 788.733 -0.386438 0.627563 0
M  V30 8491 H 791.375 -0.343779 1.86864 0
M  V30 8492 H 789.525 -2.61081 2.87696 0
M  V30 8493 H 791.197 -0.625153 4.57044 0
M  V30 8494 H 789.44 -0.519045 4.30684 0
M  V30 8495 H 790.111 -1.89766 5.18356 0
M  V30 8496 H 792.587 -2.4747 3.34511 0
M  V30 8497 H 791.463 -3.61085 4.13412 0
M  V30 8498 H 791.724 -3.71281 2.40006 0
M  V30 8499 N 790.784 -1.46188 -0.588786 0
M  V30 8500 C 791.714 -1.59148 -1.70863 0
M  V30 8501 C 792.695 -0.442083 -1.64255 0
M  V30 8502 O 793.88 -0.667575 -1.82365 0
M  V30 8503 C 791.01 -1.5757 -3.09498 0
M  V30 8504 C 789.964 -2.71418 -3.30932 0
M  V30 8505 C 789.29 -2.549 -4.70032 0
M  V30 8506 C 790.59 -4.1329 -3.19356 0
M  V30 8507 H 792.284 -2.52889 -1.60274 0
M  V30 8508 H 789.83 -1.21707 -0.769638 0
M  V30 8509 H 791.783 -1.65231 -3.87655 0
M  V30 8510 H 790.507 -0.603705 -3.20972 0
M  V30 8511 H 789.166 -2.63216 -2.55172 0
M  V30 8512 H 788.814 -1.55797 -4.78264 0
M  V30 8513 H 788.514 -3.31257 -4.85327 0
M  V30 8514 H 790.038 -2.64443 -5.50366 0
M  V30 8515 H 791.452 -4.22636 -3.87365 0
M  V30 8516 H 789.849 -4.90187 -3.46175 0
M  V30 8517 H 790.919 -4.33874 -2.16522 0
M  V30 8518 N 792.262 0.832906 -1.33792 0
M  V30 8519 C 793.194 1.95042 -1.2038 0
M  V30 8520 C 794.207 1.62253 -0.133299 0
M  V30 8521 O 795.396 1.74315 -0.384261 0
M  V30 8522 C 792.496 3.287 -0.825215 0
M  V30 8523 C 791.669 3.89581 -1.98861 0
M  V30 8524 C 790.728 5.01602 -1.59003 0
M  V30 8525 O 789.754 5.20431 -2.30522 0
M  V30 8526 N 790.956 5.78356 -0.498446 0
M  V30 8527 H 793.721 2.07083 -2.16649 0
M  V30 8528 H 791.282 1.00896 -1.26616 0
M  V30 8529 H 793.274 4.01074 -0.540559 0
M  V30 8530 H 791.844 3.12565 0.0469796 0
M  V30 8531 H 791.064 3.09723 -2.43856 0
M  V30 8532 H 792.352 4.26989 -2.76691 0
M  V30 8533 H 791.75 5.65618 0.0963297 0
M  V30 8534 H 790.307 6.51226 -0.273485 0
M  V30 8535 N 793.74 1.17359 1.05189 0
M  V30 8536 C 794.987 0.961987 1.78191 0
M  V30 8537 C 795.315 -0.509363 1.87712 0
M  V30 8538 O 794.57 -1.39425 1.37329 0
M  V30 8539 C 794.869 1.54821 3.22126 0
M  V30 8540 C 794.535 3.04378 3.32663 0
M  V30 8541 C 793.197 3.45201 3.35246 0
M  V30 8542 C 795.549 4.00387 3.33677 0
M  V30 8543 C 792.877 4.80629 3.36471 0
M  V30 8544 C 795.229 5.35715 3.36441 0
M  V30 8545 C 793.893 5.76002 3.37311 0
M  V30 8546 H 793.163 0.352016 0.652047 0
M  V30 8547 H 795.81 1.46249 1.23627 0
M  V30 8548 H 794.115 0.969432 3.79617 0
M  V30 8549 H 795.812 1.36004 3.77232 0
M  V30 8550 H 792.402 2.71836 3.31366 0
M  V30 8551 H 796.586 3.69906 3.30882 0
M  V30 8552 H 791.842 5.11155 3.35455 0
M  V30 8553 H 796.016 6.09886 3.36173 0
M  V30 8554 H 793.643 6.80919 3.38013 0
M  V30 8555 N 795.218 -1.23913 0.973828 0
M  V30 8556 C 796.15 -2.24397 0.466763 0
M  V30 8557 C 797.163 -1.57078 -0.427828 0
M  V30 8558 O 798.352 -1.76973 -0.233019 0
M  V30 8559 C 795.452 -3.37141 -0.344798 0
M  V30 8560 C 794.625 -4.34037 0.541349 0
M  V30 8561 C 793.684 -5.2576 -0.215243 0
M  V30 8562 O 792.71 -5.67842 0.39291 0
M  V30 8563 N 793.912 -5.60702 -1.5031 0
M  V30 8564 H 796.677 -2.68536 1.33074 0
M  V30 8565 H 794.238 -1.38017 0.846346 0
M  V30 8566 H 796.23 -3.95476 -0.859133 0
M  V30 8567 H 794.8 -2.92239 -1.10974 0
M  V30 8568 H 794.02 -3.74302 1.23659 0
M  V30 8569 H 795.308 -4.95738 1.1455 0
M  V30 8570 H 794.706 -5.28451 -2.01882 0
M  V30 8571 H 793.263 -6.21538 -1.96301 0
M  V30 8572 N 796.696 -0.74468 -1.38897 0
M  V30 8573 C 797.943 -0.296884 -2.00312 0
M  V30 8574 C 798.271 1.11878 -1.59102 0
M  V30 8575 O 797.526 1.7789 -0.815702 0
M  V30 8576 C 797.825 -0.357302 -3.55609 0
M  V30 8577 C 797.491 -1.72736 -4.16501 0
M  V30 8578 C 796.153 -2.10232 -4.32846 0
M  V30 8579 C 798.505 -2.62647 -4.50184 0
M  V30 8580 C 795.833 -3.3713 -4.80167 0
M  V30 8581 C 798.185 -3.88926 -4.98918 0
M  V30 8582 C 796.849 -4.26503 -5.1347 0
M  V30 8583 H 796.119 -0.108638 -0.732993 0
M  V30 8584 H 798.766 -0.953419 -1.66079 0
M  V30 8585 H 797.071 0.382805 -3.89925 0
M  V30 8586 H 798.768 0.0074596 -4.00999 0
M  V30 8587 H 795.358 -1.42585 -4.04187 0
M  V30 8588 H 799.542 -2.34945 -4.37166 0
M  V30 8589 H 794.798 -3.66174 -4.89619 0
M  V30 8590 H 798.972 -4.58745 -5.23952 0
M  V30 8591 H 796.599 -5.24896 -5.49898 0
M  V30 8592 N 798.174 1.49689 -0.493057 0
M  V30 8593 C 799.124 2.25901 0.308682 0
M  V30 8594 C 800.108 1.30408 0.94247 0
M  V30 8595 O 801.3 1.55179 0.851384 0
M  V30 8596 C 798.429 3.14463 1.37725 0
M  V30 8597 C 797.515 4.17414 0.7501 0
M  V30 8598 N 797.906 5.05599 -0.142597 0
M  V30 8599 C 796.204 4.34377 1.01159 0
M  V30 8600 C 796.905 5.7954 -0.500782 0
M  V30 8601 N 795.881 5.43446 0.129386 0
M  V30 8602 H 799.683 2.91451 -0.378652 0
M  V30 8603 H 797.197 1.59441 -0.308614 0
M  V30 8604 H 799.194 3.67687 1.965 0
M  V30 8605 H 797.854 2.50464 2.06635 0
M  V30 8606 H 798.865 5.15354 -0.512894 0
M  V30 8607 H 795.542 3.81588 1.69402 0
M  V30 8608 H 796.932 6.60534 -1.23063 0
M  V30 8609 N 799.652 0.226554 1.55963 0
M  V30 8610 C 800.562 -0.692725 2.24139 0
M  V30 8611 C 801.578 -1.20971 1.25068 0
M  V30 8612 O 802.754 -1.25027 1.57893 0
M  V30 8613 C 799.819 -1.88183 2.91184 0
M  V30 8614 C 798.88 -1.40633 4.05612 0
M  V30 8615 C 798.113 -2.53875 4.6945 0
M  V30 8616 O 798.336 -3.72129 4.32292 0
M  V30 8617 O 797.27 -2.24792 5.58348 0
M  V30 8618 H 801.096 -0.141921 3.03368 0
M  V30 8619 H 798.681 -0.0041049 1.49399 0
M  V30 8620 H 800.563 -2.57617 3.33484 0
M  V30 8621 H 799.238 -2.42064 2.14911 0
M  V30 8622 H 798.145 -0.67986 3.67871 0
M  V30 8623 H 799.478 -0.913838 4.83642 0
M  V30 8624 N 801.13 -1.57531 -0.0467866 0
M  V30 8625 C 802.093 -2.04379 -1.03738 0
M  V30 8626 C 803.093 -0.944881 -1.3011 0
M  V30 8627 O 804.283 -1.20904 -1.25411 0
M  V30 8628 C 801.415 -2.44572 -2.37482 0
M  V30 8629 H 802.608 -2.93142 -0.633063 0
M  V30 8630 H 800.161 -1.53526 -0.293177 0
M  V30 8631 H 800.896 -1.58911 -2.82697 0
M  V30 8632 H 800.681 -3.24785 -2.19675 0
M  V30 8633 H 802.171 -2.81307 -3.08636 0
M  V30 8634 N 802.608 0.318715 -1.54344 0
M  V30 8635 C 803.538 1.39751 -1.87061 0
M  V30 8636 C 804.519 1.53741 -0.727848 0
M  V30 8637 O 805.704 1.67541 -0.982016 0
M  V30 8638 C 802.834 2.76446 -2.10226 0
M  V30 8639 C 801.788 2.77239 -3.26071 0
M  V30 8640 C 801.114 4.17056 -3.34617 0
M  V30 8641 C 802.414 2.40555 -4.63606 0
M  V30 8642 H 804.108 1.12619 -2.77412 0
M  V30 8643 H 801.654 0.540318 -1.33479 0
M  V30 8644 H 803.607 3.51985 -2.31699 0
M  V30 8645 H 802.331 3.05066 -1.16629 0
M  V30 8646 H 800.99 2.04155 -3.04493 0
M  V30 8647 H 800.638 4.42824 -2.3857 0
M  V30 8648 H 800.338 4.18492 -4.12478 0
M  V30 8649 H 801.862 4.94401 -3.5833 0
M  V30 8650 H 803.276 3.05808 -4.84927 0
M  V30 8651 H 801.673 2.53234 -5.44052 0
M  V30 8652 H 802.743 1.35698 -4.65526 0
M  V30 8653 N 804.086 1.46499 0.581025 0
M  V30 8654 C 805.326 1.53456 1.35021 0
M  V30 8655 C 805.69 0.182542 1.9113 0
M  V30 8656 O 806.891 0.126874 2.685 0
M  V30 8657 C 805.162 2.60387 2.44812 0
M  V30 8658 S 806.721 2.86762 3.32134 0
M  V30 8659 H 803.539 0.54216 0.459982 0
M  V30 8660 H 806.141 1.83742 0.667754 0
M  V30 8661 H 804.845 3.57253 2.01986 0
M  V30 8662 H 804.376 2.31839 3.17828 0
M  V30 8663 H 806.391 2.2216 4.43688 0
M  V30 8664 N 805.565 -0.825799 1.34232 0
M  V30 8665 C 806.512 -1.93651 1.2557 0
M  V30 8666 C 807.482 -1.65578 0.131536 0
M  V30 8667 O 808.667 -1.88231 0.312027 0
M  V30 8668 C 805.807 -3.29862 1.01415 0
M  V30 8669 C 804.92 -3.70247 2.22579 0
M  V30 8670 C 804.055 -4.95392 1.91731 0
M  V30 8671 C 803.094 -5.28349 3.09053 0
M  V30 8672 N 802.231 -6.44671 2.78107 0
M  V30 8673 H 807.071 -2.00392 2.20561 0
M  V30 8674 H 804.608 -0.980441 1.09662 0
M  V30 8675 H 806.566 -4.08356 0.854485 0
M  V30 8676 H 805.196 -3.22642 0.100936 0
M  V30 8677 H 804.248 -2.87169 2.49476 0
M  V30 8678 H 805.56 -3.90575 3.10246 0
M  V30 8679 H 804.714 -5.81665 1.72484 0
M  V30 8680 H 803.453 -4.77059 1.0132 0
M  V30 8681 H 802.458 -4.40574 3.289 0
M  V30 8682 H 803.683 -5.48622 4.00239 0
M  V30 8683 H 801.629 -6.278 1.9027 0
M  V30 8684 H 801.546 -6.65158 3.59306 0
M  V30 8685 H 802.814 -7.34022 2.62358 0
M  V30 8686 N 807.043 -1.17915 -1.04565 0
M  V30 8687 C 807.953 -0.916449 -2.15959 0
M  V30 8688 C 808.969 0.117655 -1.73602 0
M  V30 8689 O 810.145 -0.063089 -2.01301 0
M  V30 8690 C 807.21 -0.440262 -3.43893 0
M  V30 8691 C 806.271 -1.54172 -4.00661 0
M  V30 8692 C 805.504 -1.08816 -5.22489 0
M  V30 8693 O 805.727 0.0551547 -5.70373 0
M  V30 8694 O 804.661 -1.88383 -5.7166 0
M  V30 8695 H 808.487 -1.8484 -2.40972 0
M  V30 8696 H 806.072 -0.960552 -1.14428 0
M  V30 8697 H 807.954 -0.182537 -4.21004 0
M  V30 8698 H 806.629 0.46346 -3.20365 0
M  V30 8699 H 805.536 -1.85341 -3.24961 0
M  V30 8700 H 806.869 -2.42139 -4.2852 0
M  V30 8701 N 808.521 1.23394 -0.980386 0
M  V30 8702 C 809.484 2.23092 -0.525619 0
M  V30 8703 C 810.484 1.56129 0.384745 0
M  V30 8704 O 811.674 1.73284 0.178439 0
M  V30 8705 C 808.806 3.40074 0.23712 0
M  V30 8706 H 809.999 2.64839 -1.40714 0
M  V30 8707 H 807.552 1.36227 -0.766275 0
M  V30 8708 H 808.287 3.03783 1.13518 0
M  V30 8709 H 808.072 3.89883 -0.416356 0
M  V30 8710 H 809.562 4.14043 0.543892 0
M  V30 8711 N 809.999 0.752036 1.385 0
M  V30 8712 C 811.247 0.306895 1.99756 0
M  V30 8713 C 811.568 -1.11478 1.59992 0
M  V30 8714 O 810.838 -1.76206 0.856045 0
M  V30 8715 H 809.418 0.11048 0.738785 0
M  V30 8716 H 812.08 0.965785 1.69289 0
M  V30 8717 H 811.176 0.368797 3.09913 0
M  V30 8718 N 811.477 -1.49425 0.500989 0
M  V30 8719 C 812.707 -2.06561 -0.0402858 0
M  V30 8720 C 813.115 -1.36157 -1.31369 0
M  V30 8721 O 812.458 -0.433618 -1.78509 0
M  V30 8722 C 812.52 -3.5765 -0.364269 0
M  V30 8723 C 812.184 -4.49739 0.811417 0
M  V30 8724 C 813.181 -4.91255 1.7019 0
M  V30 8725 C 810.866 -4.92036 1.01022 0
M  V30 8726 C 812.86 -5.73806 2.77534 0
M  V30 8727 C 810.547 -5.74364 2.08683 0
M  V30 8728 C 811.545 -6.15154 2.96774 0
M  V30 8729 O 811.233 -6.95836 4.02577 0
M  V30 8730 H 810.965 -0.67578 0.0172357 0
M  V30 8731 H 813.519 -1.93193 0.697553 0
M  V30 8732 H 811.749 -3.69026 -1.1557 0
M  V30 8733 H 813.438 -3.97025 -0.844156 0
M  V30 8734 H 814.204 -4.59222 1.56013 0
M  V30 8735 H 810.083 -4.59789 0.333929 0
M  V30 8736 H 813.627 -6.05564 3.4632 0
M  V30 8737 H 809.524 -6.0581 2.22855 0
M  V30 8738 H 810.292 -7.14142 3.9993 0
M  V30 8739 N 812.955 -0.234822 -1.55841 0
M  V30 8740 C 813.865 0.680828 -2.24504 0
M  V30 8741 C 814.881 1.20306 -1.25708 0
M  V30 8742 O 816.057 1.24188 -1.58554 0
M  V30 8743 C 813.122 1.86636 -2.92178 0
M  V30 8744 C 812.183 1.3848 -4.06352 0
M  V30 8745 C 811.416 2.51382 -4.70789 0
M  V30 8746 O 811.639 3.69831 -4.34259 0
M  V30 8747 O 810.573 2.21828 -5.59532 0
M  V30 8748 H 814.399 0.12583 -3.03439 0
M  V30 8749 H 811.984 -0.00381817 -1.494 0
M  V30 8750 H 813.866 2.55845 -3.34845 0
M  V30 8751 H 812.541 2.40921 -2.16192 0
M  V30 8752 H 811.448 0.660341 -3.68226 0
M  V30 8753 H 812.781 0.888177 -4.8412 0
M  V30 8754 N 814.433 1.57553 0.0384317 0
M  V30 8755 C 815.681 1.88468 0.729672 0
M  V30 8756 C 816.002 0.831302 1.76393 0
M  V30 8757 O 815.272 -0.13622 1.95426 0
M  V30 8758 H 813.852 0.695529 0.272485 0
M  V30 8759 H 816.514 1.94899 0.0066032 0
M  V30 8760 H 815.61 2.8705 1.22511 0
M  V30 8761 N 815.911 -0.310526 1.54511 0
M  V30 8762 C 817.322 -0.884142 1.64438 0
M  V30 8763 C 817.673 -1.88425 0.546855 0
M  V30 8764 O 816.798 -2.14049 -0.31811 0
M  V30 8765 C 817.393 -1.6104 2.9808 0
M  V30 8766 C 815.952 -2.13255 3.1016 0
M  V30 8767 C 815.099 -0.96213 2.60074 0
M  V30 8768 H 818.05 -0.0877666 1.58457 0
M  V30 8769 H 818.071 -2.47541 2.8897 0
M  V30 8770 H 817.583 -0.882255 3.77939 0
M  V30 8771 H 815.684 -2.89145 2.35002 0
M  V30 8772 H 815.797 -2.37361 4.16169 0
M  V30 8773 H 814.161 -1.34501 2.16291 0
M  V30 8774 H 814.944 -0.248098 3.42402 0
M  V30 8775 N 817.389 -1.46805 -0.573248 0
M  V30 8776 C 818.319 -1.60951 -1.69165 0
M  V30 8777 C 819.3 -0.45948 -1.63777 0
M  V30 8778 O 820.485 -0.68688 -1.81647 0
M  V30 8779 C 817.615 -1.60844 -3.07809 0
M  V30 8780 C 816.569 -2.74913 -3.28035 0
M  V30 8781 C 815.895 -2.59871 -4.67302 0
M  V30 8782 C 817.195 -4.16654 -3.14955 0
M  V30 8783 H 818.889 -2.54574 -1.57582 0
M  V30 8784 H 816.435 -1.22516 -0.756686 0
M  V30 8785 H 818.388 -1.69334 -3.85881 0
M  V30 8786 H 817.112 -0.637714 -3.20314 0
M  V30 8787 H 815.771 -2.65908 -2.52366 0
M  V30 8788 H 815.419 -1.60861 -4.76585 0
M  V30 8789 H 815.119 -3.36386 -4.81786 0
M  V30 8790 H 816.643 -2.70265 -5.4753 0
M  V30 8791 H 818.057 -4.26721 -3.82861 0
M  V30 8792 H 816.454 -4.93831 -3.40956 0
M  V30 8793 H 817.524 -4.36146 -2.11908 0
M  V30 8794 N 818.867 0.818669 -1.34668 0
M  V30 8795 C 819.817 1.91882 -1.23147 0
M  V30 8796 C 820.801 1.60378 -0.129509 0
M  V30 8797 O 821.993 1.73309 -0.359581 0
M  V30 8798 C 819.122 3.28612 -0.993436 0
M  V30 8799 C 818.208 3.66221 -2.13876 0
M  V30 8800 N 818.599 3.75361 -3.39024 0
M  V30 8801 C 816.897 3.96098 -2.04994 0
M  V30 8802 C 817.598 4.0836 -4.14266 0
M  V30 8803 N 816.574 4.21806 -3.429 0
M  V30 8804 H 820.376 1.97133 -2.17981 0
M  V30 8805 H 817.89 1.01257 -1.26967 0
M  V30 8806 H 819.887 4.0725 -0.891797 0
M  V30 8807 H 818.547 3.24655 -0.053824 0
M  V30 8808 H 819.558 3.58747 -3.73525 0
M  V30 8809 H 816.235 4.00236 -1.18816 0
M  V30 8810 H 817.625 4.226 -5.22359 0
M  V30 8811 N 820.346 1.18468 1.03938 0
M  V30 8812 C 821.278 0.870615 2.12021 0
M  V30 8813 C 822.291 -0.132318 1.62261 0
M  V30 8814 O 823.48 0.0956901 1.78243 0
M  V30 8815 C 820.58 0.279727 3.37744 0
M  V30 8816 C 819.753 1.32863 4.16733 0
M  V30 8817 C 818.812 0.753204 5.20781 0
M  V30 8818 O 817.838 1.42825 5.5099 0
M  V30 8819 N 819.04 -0.448664 5.78764 0
M  V30 8820 H 821.805 1.80091 2.39556 0
M  V30 8821 H 819.366 1.08524 1.20142 0
M  V30 8822 H 821.358 -0.118829 4.04526 0
M  V30 8823 H 819.928 -0.554621 3.07641 0
M  V30 8824 H 819.148 1.90245 3.45254 0
M  V30 8825 H 820.436 2.03574 4.66299 0
M  V30 8826 H 819.834 -1.01481 5.56523 0
M  V30 8827 H 818.391 -0.789125 6.47005 0
M  V30 8828 N 821.824 -1.22873 0.986916 0
M  V30 8829 C 823.064 -1.93192 0.667543 0
M  V30 8830 C 823.428 -1.7521 -0.785196 0
M  V30 8831 O 824.629 -2.39737 -1.2157 0
M  V30 8832 C 822.9 -3.4147 1.05513 0
M  V30 8833 S 824.459 -4.30425 0.853218 0
M  V30 8834 H 821.277 -0.667726 0.244261 0
M  V30 8835 H 823.879 -1.48808 1.26793 0
M  V30 8836 H 822.583 -3.52069 2.10892 0
M  V30 8837 H 822.114 -3.9086 0.446293 0
M  V30 8838 H 824.129 -4.95521 -0.259444 0
M  V30 8839 N 823.302 -0.75937 -1.38099 0
M  V30 8840 C 824.579 -0.243371 -1.9408 0
M  V30 8841 C 824.959 1.25942 -1.69416 0
M  V30 8842 O 824.307 2.03667 -1.03595 0
M  V30 8843 C 824.517 -0.603328 -3.43745 0
M  V30 8844 C 825.865 -0.566195 -4.20808 0
M  V30 8845 O 826.889 -0.541969 -3.52053 0
M  V30 8846 O 825.748 -0.582261 -5.43389 0
M  V30 8847 H 822.842 -0.0526825 -0.82532 0
M  V30 8848 H 825.388 -0.839884 -1.47459 0
M  V30 8849 H 824.16 -1.64098 -3.55229 0
M  V30 8850 H 823.783 0.0208887 -3.97595 0
M  V30 8851 N 824.78 1.49157 -0.508906 0
M  V30 8852 C 826.029 2.0167 0.0346854 0
M  V30 8853 C 826.342 1.39302 1.37311 0
M  V30 8854 O 827.548 1.83189 2.00385 0
M  V30 8855 C 826.004 3.59725 0.112261 0
M  V30 8856 C 825.612 4.31069 -1.21999 0
M  V30 8857 C 827.356 4.20155 0.605798 0
M  V30 8858 C 825.263 5.81001 -1.10415 0
M  V30 8859 H 824.193 0.753814 0.0167355 0
M  V30 8860 H 826.844 1.7162 -0.649518 0
M  V30 8861 H 825.226 3.86525 0.861087 0
M  V30 8862 H 826.4 4.15962 -1.98273 0
M  V30 8863 H 824.715 3.82418 -1.64759 0
M  V30 8864 H 827.312 5.29964 0.710102 0
M  V30 8865 H 827.655 3.84051 1.60656 0
M  V30 8866 H 828.188 3.97705 -0.0867239 0
M  V30 8867 H 824.927 6.21643 -2.07941 0
M  V30 8868 H 824.447 5.9858 -0.382428 0
M  V30 8869 H 826.126 6.42207 -0.786116 0
M  V30 8870 N 826.258 0.243083 1.55714 0
M  V30 8871 C 827.488 -0.38641 2.02954 0
M  V30 8872 C 827.896 -1.52358 1.12177 0
M  V30 8873 O 827.239 -1.83255 0.127853 0
M  V30 8874 C 827.301 -0.959388 3.46462 0
M  V30 8875 C 826.965 0.0450546 4.56978 0
M  V30 8876 C 827.962 0.853224 5.12851 0
M  V30 8877 C 825.647 0.170041 5.02012 0
M  V30 8878 C 827.641 1.77288 6.12248 0
M  V30 8879 C 825.328 1.0932 6.01242 0
M  V30 8880 C 826.326 1.89315 6.56238 0
M  V30 8881 O 826.014 2.80075 7.53534 0
M  V30 8882 H 825.746 -0.0964333 0.669086 0
M  V30 8883 H 828.3 0.363399 2.0216 0
M  V30 8884 H 826.53 -1.75869 3.44394 0
M  V30 8885 H 828.219 -1.49856 3.77224 0
M  V30 8886 H 828.985 0.767229 4.78893 0
M  V30 8887 H 824.864 -0.442528 4.58871 0
M  V30 8888 H 828.408 2.39768 6.55101 0
M  V30 8889 H 824.305 1.18013 6.3462 0
M  V30 8890 H 825.073 2.74393 7.71136 0
M  V30 8891 N 827.736 -1.57571 -0.0300757 0
M  V30 8892 C 829.152 -1.54869 -0.385703 0
M  V30 8893 C 829.352 -0.969068 -1.76667 0
M  V30 8894 O 828.408 -0.589676 -2.45518 0
M  V30 8895 C 829.721 -2.99313 -0.288482 0
M  V30 8896 C 831.269 -3.10857 -0.365638 0
M  V30 8897 C 831.744 -4.5703 -0.297878 0
M  V30 8898 N 833.235 -4.61825 -0.356703 0
M  V30 8899 C 833.97 -5.72466 -0.327146 0
M  V30 8900 N 833.466 -6.92349 -0.249941 0
M  V30 8901 N 835.259 -5.60836 -0.376801 0
M  V30 8902 H 827.41 -1.936 0.87367 0
M  V30 8903 H 829.673 -0.887924 0.332106 0
M  V30 8904 H 829.379 -3.45443 0.66047 0
M  V30 8905 H 829.253 -3.61332 -1.08253 0
M  V30 8906 H 831.64 -2.64676 -1.30502 0
M  V30 8907 H 831.721 -2.51671 0.457744 0
M  V30 8908 H 831.365 -5.03879 0.637835 0
M  V30 8909 H 831.295 -5.14127 -1.13935 0
M  V30 8910 H 833.786 -3.75571 -0.418926 0
M  V30 8911 H 834.099 -7.7245 -0.23246 0
M  V30 8912 H 832.444 -6.94664 -0.216004 0
M  V30 8913 H 835.635 -4.66073 -0.435101 0
M  V30 8914 H 835.808 -6.47052 -0.350298 0
M  V30 8915 N 829.214 0.302327 -1.54673 0
M  V30 8916 C 830.439 1.06103 -1.78205 0
M  V30 8917 C 830.864 1.80204 -0.53926 0
M  V30 8918 O 830.222 1.73975 0.510142 0
M  V30 8919 C 830.27 2.01829 -2.98827 0
M  V30 8920 O 829.374 3.10108 -2.71858 0
M  V30 8921 H 828.715 0.30487 -0.589873 0
M  V30 8922 H 831.245 0.340153 -2.01753 0
M  V30 8923 H 831.255 2.44319 -3.2676 0
M  V30 8924 H 829.93 1.473 -3.88942 0
M  V30 8925 H 828.507 2.72142 -2.54937 0
M  V30 8926 N 830.692 1.47107 0.565454 0
M  V30 8927 C 831.92 1.56909 1.3486 0
M  V30 8928 C 832.335 0.216312 1.87557 0
M  V30 8929 O 831.692 -0.789168 1.64555 0
M  V30 8930 C 831.743 2.58776 2.52423 0
M  V30 8931 O 831.464 3.888 2.01906 0
M  V30 8932 C 832.965 2.78683 3.44747 0
M  V30 8933 H 830.185 0.530096 0.411387 0
M  V30 8934 H 832.729 1.92658 0.685782 0
M  V30 8935 H 830.884 2.25983 3.1466 0
M  V30 8936 H 831.298 4.44393 2.78595 0
M  V30 8937 H 832.772 3.53842 4.23674 0
M  V30 8938 H 833.249 1.86208 3.97773 0
M  V30 8939 H 833.855 3.12641 2.88333 0
M  V30 8940 N 832.17 -0.811516 1.35101 0
M  V30 8941 C 833.117 -1.92308 1.27617 0
M  V30 8942 C 834.087 -1.6543 0.149091 0
M  V30 8943 O 835.272 -1.8789 0.331974 0
M  V30 8944 C 832.412 -3.28768 1.04908 0
M  V30 8945 C 831.525 -3.67865 2.26493 0
M  V30 8946 C 830.66 -4.9333 1.96974 0
M  V30 8947 C 829.699 -5.25041 3.1464 0
M  V30 8948 N 828.836 -6.41685 2.84929 0
M  V30 8949 H 833.676 -1.98041 2.22674 0
M  V30 8950 H 831.213 -0.968755 1.10696 0
M  V30 8951 H 833.171 -4.07426 0.897749 0
M  V30 8952 H 831.801 -3.22517 0.135151 0
M  V30 8953 H 830.853 -2.84507 2.52507 0
M  V30 8954 H 832.165 -3.87263 3.14371 0
M  V30 8955 H 831.319 -5.79803 1.78643 0
M  V30 8956 H 830.058 -4.75958 1.06374 0
M  V30 8957 H 829.063 -4.3706 3.33554 0
M  V30 8958 H 830.288 -5.44346 4.06035 0
M  V30 8959 H 828.234 -6.25747 1.96918 0
M  V30 8960 H 828.151 -6.6131 3.66341 0
M  V30 8961 H 829.419 -7.31198 2.70128 0
M  V30 8962 N 833.648 -1.19017 -1.03309 0
M  V30 8963 C 834.611 -0.926076 -2.09658 0
M  V30 8964 C 835.611 0.0917077 -1.60538 0
M  V30 8965 O 836.801 -0.142574 -1.73616 0
M  V30 8966 C 833.933 -0.390958 -3.38651 0
M  V30 8967 H 835.126 -1.86923 -2.3452 0
M  V30 8968 H 832.679 -1.00325 -1.19853 0
M  V30 8969 H 833.414 0.558446 -3.19456 0
M  V30 8970 H 833.199 -1.12474 -3.75622 0
M  V30 8971 H 834.689 -0.225131 -4.16993 0
M  V30 8972 N 835.127 1.22348 -0.993418 0
M  V30 8973 C 836.375 1.90733 -0.668246 0
M  V30 8974 C 836.696 1.77732 0.802261 0
M  V30 8975 O 835.966 1.16486 1.57505 0
M  V30 8976 H 834.546 0.705966 -0.244174 0
M  V30 8977 H 837.208 1.48691 -1.26004 0
M  V30 8978 H 836.304 2.97883 -0.931239 0
M  V30 8979 N 836.605 0.766683 1.37694 0
M  V30 8980 C 837.568 0.155849 2.2867 0
M  V30 8981 C 838.568 -0.633509 1.47795 0
M  V30 8982 O 839.758 -0.457844 1.68076 0
M  V30 8983 C 836.89 -0.786965 3.31692 0
M  V30 8984 H 838.083 0.957748 2.84196 0
M  V30 8985 H 835.636 0.534554 1.46875 0
M  V30 8986 H 836.371 -1.61406 2.8128 0
M  V30 8987 H 836.156 -0.223182 3.91464 0
M  V30 8988 H 837.646 -1.20994 3.99688 0
M  V30 8989 N 838.083 -1.48885 0.516809 0
M  V30 8990 C 839.03 -2.29408 -0.253125 0
M  V30 8991 C 840 -1.36533 -0.945935 0
M  V30 8992 O 841.185 -1.65495 -0.949527 0
M  V30 8993 C 838.325 -3.19592 -1.30211 0
M  V30 8994 C 837.438 -4.27535 -0.61948 0
M  V30 8995 C 836.573 -5.04916 -1.65026 0
M  V30 8996 C 835.612 -6.04677 -0.950368 0
M  V30 8997 N 834.749 -6.75164 -1.92608 0
M  V30 8998 H 839.589 -2.94738 0.439744 0
M  V30 8999 H 837.126 -1.45311 0.2287 0
M  V30 9000 H 839.084 -3.70267 -1.92245 0
M  V30 9001 H 837.714 -2.56213 -1.96353 0
M  V30 9002 H 836.766 -3.80228 0.114505 0
M  V30 9003 H 838.078 -4.98752 -0.0693016 0
M  V30 9004 H 837.232 -5.59539 -2.34523 0
M  V30 9005 H 835.971 -4.33508 -2.23432 0
M  V30 9006 H 834.976 -5.4927 -0.241252 0
M  V30 9007 H 836.201 -6.78077 -0.372599 0
M  V30 9008 H 834.147 -6.06517 -2.49946 0
M  V30 9009 H 834.064 -7.4241 -1.42699 0
M  V30 9010 H 835.332 -7.34384 -2.61345 0
M  V30 9011 N 839.561 -0.251338 -1.55583 0
M  V30 9012 C 840.491 0.640437 -2.24545 0
M  V30 9013 C 841.472 1.17781 -1.22726 0
M  V30 9014 O 842.657 1.21633 -1.5139 0
M  V30 9015 C 839.787 1.8355 -2.94834 0
M  V30 9016 C 838.741 1.4307 -4.03379 0
M  V30 9017 C 838.067 2.70695 -4.61116 0
M  V30 9018 C 839.367 0.59848 -5.1886 0
M  V30 9019 H 841.061 0.0653772 -2.99329 0
M  V30 9020 H 838.607 0.0300042 -1.43969 0
M  V30 9021 H 840.56 2.46505 -3.4178 0
M  V30 9022 H 839.284 2.43601 -2.17546 0
M  V30 9023 H 837.943 0.824474 -3.57209 0
M  V30 9024 H 837.591 3.28954 -3.80524 0
M  V30 9025 H 837.291 2.44332 -5.34393 0
M  V30 9026 H 838.815 3.34541 -5.10798 0
M  V30 9027 H 840.229 1.13244 -5.62004 0
M  V30 9028 H 838.626 0.430728 -5.98552 0
M  V30 9029 H 839.696 -0.38829 -4.83343 0
M  V30 9030 N 841.039 1.57585 0.0217189 0
M  V30 9031 C 842.455 1.55072 0.377484 0
M  V30 9032 C 842.655 0.978423 1.76151 0
M  V30 9033 O 841.711 0.602688 2.45202 0
M  V30 9034 C 843.024 2.99462 0.272605 0
M  V30 9035 C 844.572 3.11047 0.349148 0
M  V30 9036 C 845.047 4.57182 0.273636 0
M  V30 9037 N 846.538 4.62007 0.332206 0
M  V30 9038 C 847.273 5.72631 0.296782 0
M  V30 9039 N 846.769 6.92472 0.21322 0
M  V30 9040 N 848.562 5.61028 0.347053 0
M  V30 9041 H 840.713 1.93133 -0.883925 0
M  V30 9042 H 842.976 0.886151 -0.33681 0
M  V30 9043 H 842.682 3.45088 -0.67878 0
M  V30 9044 H 842.556 3.61901 1.06335 0
M  V30 9045 H 844.943 2.65364 1.29097 0
M  V30 9046 H 845.024 2.51425 -0.471085 0
M  V30 9047 H 844.668 5.03534 -0.664548 0
M  V30 9048 H 844.598 5.14724 1.11207 0
M  V30 9049 H 847.089 3.75788 0.399003 0
M  V30 9050 H 847.402 7.72563 0.191492 0
M  V30 9051 H 845.747 6.94769 0.179161 0
M  V30 9052 H 848.938 4.66298 0.410378 0
M  V30 9053 H 849.111 6.47229 0.315979 0
M  V30 9054 N 842.517 -0.29412 1.54831 0
M  V30 9055 C 843.464 -1.36296 1.86258 0
M  V30 9056 C 844.434 -1.50061 0.712097 0
M  V30 9057 O 845.619 -1.64809 0.961381 0
M  V30 9058 C 842.759 -2.72187 2.12151 0
M  V30 9059 C 841.872 -2.66816 3.39755 0
M  V30 9060 C 841.007 -3.94747 3.55455 0
M  V30 9061 C 840.046 -3.838 4.76827 0
M  V30 9062 N 839.183 -5.03521 4.89296 0
M  V30 9063 H 844.023 -1.08796 2.7743 0
M  V30 9064 H 841.56 -0.526069 1.37371 0
M  V30 9065 H 843.518 -3.51225 2.25159 0
M  V30 9066 H 842.148 -2.97934 1.24237 0
M  V30 9067 H 841.2 -1.79605 3.3533 0
M  V30 9068 H 842.512 -2.5462 4.28917 0
M  V30 9069 H 841.666 -4.82223 3.68166 0
M  V30 9070 H 840.405 -4.09785 2.64438 0
M  V30 9071 H 839.41 -2.94708 4.64141 0
M  V30 9072 H 840.635 -3.70301 5.69258 0
M  V30 9073 H 838.581 -5.1901 4.01204 0
M  V30 9074 H 838.498 -4.93775 5.72471 0
M  V30 9075 H 839.766 -5.92629 5.06371 0
M  V30 9076 N 843.995 -1.47404 -0.557645 0
M  V30 9077 C 845.241 -1.54235 -1.31679 0
M  V30 9078 C 845.574 -0.203782 -1.93128 0
M  V30 9079 O 844.849 0.787536 -1.77843 0
M  V30 9080 C 845.132 -2.66003 -2.42723 0
M  V30 9081 C 844.985 -4.09475 -1.86145 0
M  V30 9082 C 846.304 -2.73685 -3.44652 0
M  V30 9083 H 843.423 -0.561466 -0.477415 0
M  V30 9084 H 846.065 -1.79459 -0.624067 0
M  V30 9085 H 844.215 -2.44627 -3.01811 0
M  V30 9086 H 845.887 -4.42213 -1.31321 0
M  V30 9087 H 844.13 -4.17774 -1.16823 0
M  V30 9088 H 844.801 -4.83451 -2.66418 0
M  V30 9089 H 847.277 -2.92968 -2.95481 0
M  V30 9090 H 846.153 -3.53665 -4.19777 0
M  V30 9091 H 846.414 -1.80726 -4.03473 0
M  V30 9092 N 845.473 0.80434 -1.35529 0
M  V30 9093 C 846.403 1.93086 -1.31301 0
M  V30 9094 C 847.384 1.69068 -0.187044 0
M  V30 9095 O 848.569 1.90399 -0.382359 0
M  V30 9096 C 845.699 3.29867 -1.0865 0
M  V30 9097 C 844.653 3.68373 -2.17911 0
M  V30 9098 C 843.979 5.0334 -1.80423 0
M  V30 9099 C 845.279 3.78516 -3.59893 0
M  V30 9100 H 846.973 1.96882 -2.25561 0
M  V30 9101 H 844.519 0.945841 -1.08581 0
M  V30 9102 H 846.472 4.08281 -1.04331 0
M  V30 9103 H 845.196 3.2642 -0.108359 0
M  V30 9104 H 843.855 2.92247 -2.21331 0
M  V30 9105 H 843.503 4.96399 -0.812213 0
M  V30 9106 H 843.203 5.30074 -2.53565 0
M  V30 9107 H 844.727 5.84191 -1.77633 0
M  V30 9108 H 846.141 4.47155 -3.58783 0
M  V30 9109 H 844.538 4.16721 -4.31814 0
M  V30 9110 H 845.608 2.8001 -3.95882 0
M  V30 9111 N 846.951 1.19563 1.02676 0
M  V30 9112 C 847.883 0.893054 2.11086 0
M  V30 9113 C 848.896 -0.115101 1.62393 0
M  V30 9114 O 850.085 0.11459 1.78132 0
M  V30 9115 C 847.185 0.315533 3.37428 0
M  V30 9116 C 846.358 1.37276 4.153 0
M  V30 9117 C 845.417 0.808398 5.19953 0
M  V30 9118 O 844.443 1.48661 5.49444 0
M  V30 9119 N 845.645 -0.387253 5.79207 0
M  V30 9120 H 848.41 1.82622 2.37633 0
M  V30 9121 H 845.971 1.09792 1.18984 0
M  V30 9122 H 847.963 -0.0759166 4.04629 0
M  V30 9123 H 846.533 -0.521961 3.08211 0
M  V30 9124 H 845.753 1.93897 3.43217 0
M  V30 9125 H 847.041 2.08509 4.64114 0
M  V30 9126 H 846.439 -0.955725 5.57568 0
M  V30 9127 H 844.996 -0.720457 6.47806 0
M  V30 9128 N 848.429 -1.21819 0.999893 0
M  V30 9129 C 849.392 -2.22227 0.561044 0
M  V30 9130 C 850.392 -1.56722 -0.359858 0
M  V30 9131 O 851.582 -1.73546 -0.150848 0
M  V30 9132 C 848.714 -3.40409 -0.182987 0
M  V30 9133 H 849.907 -2.62567 1.44909 0
M  V30 9134 H 847.46 -1.34991 0.78785 0
M  V30 9135 H 848.195 -3.05551 -1.08671 0
M  V30 9136 H 847.98 -3.89171 0.47833 0
M  V30 9137 H 849.47 -4.14856 -0.477952 0
M  V30 9138 N 849.908 -0.773975 -1.37286 0
M  V30 9139 C 851.156 -0.338636 -1.99243 0
M  V30 9140 C 851.477 1.08919 -1.61746 0
M  V30 9141 O 850.747 1.74822 -0.88397 0
M  V30 9142 H 849.327 -0.12222 -0.736934 0
M  V30 9143 H 851.989 -0.992595 -1.67731 0
M  V30 9144 H 851.085 -0.418055 -3.09287 0
M  V30 9145 N 851.386 1.48609 -0.524698 0
M  V30 9146 C 852.611 2.07398 0.00952139 0
M  V30 9147 C 853.036 1.37939 1.27884 0
M  V30 9148 O 852.394 0.443633 1.75788 0
M  V30 9149 C 852.442 3.59916 0.221956 0
M  V30 9150 O 851.546 3.91647 1.29175 0
M  V30 9151 H 850.887 0.662981 -0.0367729 0
M  V30 9152 H 853.417 1.91092 -0.7311 0
M  V30 9153 H 853.427 4.05552 0.446236 0
M  V30 9154 H 852.102 4.09876 -0.705306 0
M  V30 9155 H 850.679 3.57796 1.05055 0
M  V30 9156 N 852.864 0.259585 1.55447 0
M  V30 9157 C 854.089 -0.368317 2.04103 0
M  V30 9158 C 854.514 -1.49827 1.13725 0
M  V30 9159 O 853.872 -1.80814 0.132705 0
M  V30 9160 C 853.92 -0.841506 3.50644 0
M  V30 9161 O 853.024 -1.95008 3.63381 0
M  V30 9162 H 852.365 -0.0785227 0.659341 0
M  V30 9163 H 854.895 0.389349 2.00861 0
M  V30 9164 H 854.905 -1.14138 3.9171 0
M  V30 9165 H 853.58 -0.0147001 4.15897 0
M  V30 9166 H 852.157 -1.65393 3.34215 0
M  V30 9167 N 854.342 -1.57594 -0.0133615 0
M  V30 9168 C 855.758 -1.5527 -0.369255 0
M  V30 9169 C 855.958 -0.987751 -1.7563 0
M  V30 9170 O 855.014 -0.615683 -2.44879 0
M  V30 9171 C 856.327 -2.99602 -0.25672 0
M  V30 9172 C 857.875 -3.11227 -0.332647 0
M  V30 9173 C 858.35 -4.57321 -0.249387 0
M  V30 9174 N 859.841 -4.62177 -0.3077 0
M  V30 9175 C 860.576 -5.72781 -0.26641 0
M  V30 9176 N 860.072 -6.92575 -0.176494 0
M  V30 9177 N 861.865 -5.61204 -0.317295 0
M  V30 9178 H 854.016 -1.92662 0.894154 0
M  V30 9179 H 856.279 -0.884352 0.341505 0
M  V30 9180 H 855.985 -3.44723 0.697072 0
M  V30 9181 H 855.859 -3.6246 -1.04415 0
M  V30 9182 H 858.246 -2.66045 -1.27688 0
M  V30 9183 H 858.327 -2.51171 0.484412 0
M  V30 9184 H 857.971 -5.03174 0.691242 0
M  V30 9185 H 857.901 -5.15306 -1.08476 0
M  V30 9186 H 860.392 -3.75994 -0.379069 0
M  V30 9187 H 860.705 -7.72653 -0.150518 0
M  V30 9188 H 859.05 -6.94854 -0.142314 0
M  V30 9189 H 862.241 -4.66509 -0.385643 0
M  V30 9190 H 862.414 -6.47388 -0.28165 0
M  V30 9191 N 855.82 0.285905 -1.54985 0
M  V30 9192 C 857.231 0.857869 -1.65824 0
M  V30 9193 C 857.582 1.87531 -0.576763 0
M  V30 9194 O 856.707 2.14528 0.284016 0
M  V30 9195 C 857.302 1.56277 -3.00604 0
M  V30 9196 C 855.861 2.08294 -3.13513 0
M  V30 9197 C 855.008 0.920633 -2.61571 0
M  V30 9198 H 857.959 0.0625463 -1.58577 0
M  V30 9199 H 857.98 2.42912 -2.92872 0
M  V30 9200 H 857.492 0.822017 -3.79295 0
M  V30 9201 H 855.593 2.8537 -2.39572 0
M  V30 9202 H 855.706 2.3071 -4.19892 0
M  V30 9203 H 854.07 1.31043 -2.18403 0
M  V30 9204 H 854.853 0.193594 -3.42754 0
M  V30 9205 N 857.298 1.47698 0.54982 0
M  V30 9206 C 858.544 1.55914 1.30624 0
M  V30 9207 C 858.899 0.221596 1.9112 0
M  V30 9208 O 858.192 -0.77351 1.75292 0
M  V30 9209 C 858.386 2.61903 2.4319 0
M  V30 9210 C 858.215 4.05833 1.93725 0
M  V30 9211 C 856.985 4.73199 1.77231 0
M  V30 9212 C 859.183 4.92624 1.47738 0
M  V30 9213 N 857.165 6.01618 1.22183 0
M  V30 9214 C 858.536 6.11129 1.04505 0
M  V30 9215 C 860.591 4.79006 1.35857 0
M  V30 9216 C 859.294 7.1752 0.505722 0
M  V30 9217 C 861.32 5.85501 0.833254 0
M  V30 9218 C 860.682 7.03201 0.410894 0
M  V30 9219 H 856.781 0.625194 0.469741 0
M  V30 9220 H 859.365 1.84485 0.622369 0
M  V30 9221 H 857.536 2.35188 3.09098 0
M  V30 9222 H 859.268 2.59919 3.102 0
M  V30 9223 H 856.023 4.29221 2.00166 0
M  V30 9224 H 856.447 6.70054 0.967263 0
M  V30 9225 H 861.089 3.88369 1.67122 0
M  V30 9226 H 858.807 8.07898 0.180721 0
M  V30 9227 H 862.393 5.77013 0.744781 0
M  V30 9228 H 861.273 7.84199 0.0107086 0
M  V30 9229 N 858.776 -0.797141 1.35954 0
M  V30 9230 C 859.708 -1.91782 1.25509 0
M  V30 9231 C 860.721 -1.61843 0.176271 0
M  V30 9232 O 861.91 -1.73235 0.430343 0
M  V30 9233 C 859.01 -3.26396 0.912073 0
M  V30 9234 C 858.183 -3.84171 2.0912 0
M  V30 9235 C 857.242 -4.9721 1.72246 0
M  V30 9236 O 856.268 -5.14136 2.44239 0
M  V30 9237 N 857.47 -5.76831 0.651611 0
M  V30 9238 H 860.235 -2.01266 2.22063 0
M  V30 9239 H 857.796 -0.975033 1.29247 0
M  V30 9240 H 859.788 -3.99499 0.646707 0
M  V30 9241 H 858.358 -3.12579 0.0359079 0
M  V30 9242 H 857.578 -3.03148 2.51982 0
M  V30 9243 H 858.866 -4.19503 2.87914 0
M  V30 9244 H 858.264 -5.65675 0.0536678 0
M  V30 9245 H 856.821 -6.50272 0.44605 0
M  V30 9246 N 860.254 -1.20106 -1.0204 0
M  V30 9247 C 861.164 -0.962051 -2.13967 0
M  V30 9248 C 862.18 0.0808053 -1.73812 0
M  V30 9249 O 863.356 -0.105774 -2.01122 0
M  V30 9250 C 860.421 -0.513108 -3.42882 0
M  V30 9251 C 859.482 -1.62636 -3.97301 0
M  V30 9252 C 858.715 -1.19875 -5.20063 0
M  V30 9253 O 858.938 -0.0658423 -5.70362 0
M  V30 9254 O 857.872 -2.00467 -5.67536 0
M  V30 9255 H 861.698 -1.8991 -2.36998 0
M  V30 9256 H 859.283 -0.984608 -1.12365 0
M  V30 9257 H 861.165 -0.271797 -4.20523 0
M  V30 9258 H 859.84 0.395402 -3.21276 0
M  V30 9259 H 858.747 -1.92192 -3.20957 0
M  V30 9260 H 860.08 -2.51174 -4.23288 0
M  V30 9261 N 861.732 1.21287 -1.00634 0
M  V30 9262 C 862.978 1.90671 -0.690822 0
M  V30 9263 C 863.311 1.77996 0.776592 0
M  V30 9264 O 862.586 1.15748 1.5631 0
M  V30 9265 C 862.869 3.42426 -1.11428 0
M  V30 9266 C 862.722 3.64086 -2.64124 0
M  V30 9267 C 864.041 4.34851 -0.677686 0
M  V30 9268 H 861.16 0.692419 -0.252439 0
M  V30 9269 H 863.802 1.42893 -1.25226 0
M  V30 9270 H 861.952 3.83249 -0.636586 0
M  V30 9271 H 863.624 3.32582 -3.19667 0
M  V30 9272 H 861.867 3.07906 -3.05576 0
M  V30 9273 H 862.538 4.7042 -2.88806 0
M  V30 9274 H 865.014 4.01619 -1.0882 0
M  V30 9275 H 863.89 5.39675 -1.00213 0
M  V30 9276 H 864.151 4.4009 0.421125 0
M  V30 9277 N 863.21 0.781244 1.36873 0
M  V30 9278 C 864.14 0.188128 2.32741 0
M  V30 9279 C 865.121 -0.672326 1.56249 0
M  V30 9280 O 866.306 -0.607835 1.84442 0
M  V30 9281 C 863.436 -0.684341 3.40491 0
M  V30 9282 C 862.39 0.0755641 4.27933 0
M  V30 9283 C 861.716 -0.916968 5.26779 0
M  V30 9284 C 863.016 1.26006 5.06873 0
M  V30 9285 H 864.71 0.989016 2.82593 0
M  V30 9286 H 862.256 0.477038 1.35869 0
M  V30 9287 H 864.209 -1.10915 4.06541 0
M  V30 9288 H 862.933 -1.51785 2.89187 0
M  V30 9289 H 861.592 0.481258 3.63427 0
M  V30 9290 H 861.24 -1.74528 4.71751 0
M  V30 9291 H 860.94 -0.413 5.86147 0
M  V30 9292 H 862.464 -1.34052 5.95703 0
M  V30 9293 H 863.878 0.911425 5.66009 0
M  V30 9294 H 862.275 1.69676 5.75613 0
M  V30 9295 H 863.345 2.05948 4.38991 0
M  V30 9296 N 864.689 -1.48329 0.532571 0
M  V30 9297 C 865.636 -2.29663 -0.228779 0
M  V30 9298 C 866.606 -1.37529 -0.931401 0
M  V30 9299 O 867.791 -1.66493 -0.931921 0
M  V30 9300 C 864.931 -3.20955 -1.26814 0
M  V30 9301 C 864.044 -4.28168 -0.574099 0
M  V30 9302 C 863.179 -5.06638 -1.59661 0
M  V30 9303 C 862.218 -6.05651 -0.88618 0
M  V30 9304 N 861.355 -6.77169 -1.85436 0
M  V30 9305 H 866.195 -2.94255 0.47098 0
M  V30 9306 H 863.732 -1.45061 0.2441 0
M  V30 9307 H 865.69 -3.72285 -1.88307 0
M  V30 9308 H 864.32 -2.58281 -1.93625 0
M  V30 9309 H 863.372 -3.80085 0.154827 0
M  V30 9310 H 864.684 -4.98797 -0.0163984 0
M  V30 9311 H 863.838 -5.61995 -2.28576 0
M  V30 9312 H 862.577 -4.35854 -2.18821 0
M  V30 9313 H 861.582 -5.49495 -0.182981 0
M  V30 9314 H 862.807 -6.78434 -0.300659 0
M  V30 9315 H 860.753 -6.09134 -2.43499 0
M  V30 9316 H 860.67 -7.43882 -1.34816 0
M  V30 9317 H 861.938 -7.37114 -2.53541 0
M  V30 9318 N 866.167 -0.267825 -1.55308 0
M  V30 9319 C 867.444 0.402449 -1.91415 0
M  V30 9320 C 867.824 1.7428 -1.1912 0
M  V30 9321 O 867.172 2.2631 -0.315609 0
M  V30 9322 C 867.382 0.549926 -3.4464 0
M  V30 9323 C 868.73 0.836188 -4.16285 0
M  V30 9324 O 869.754 0.635009 -3.50494 0
M  V30 9325 O 868.613 1.22051 -5.32697 0
M  V30 9326 H 865.707 0.219177 -0.797427 0
M  V30 9327 H 868.253 -0.313439 -1.6678 0
M  V30 9328 H 867.025 -0.393641 -3.89315 0
M  V30 9329 H 866.648 1.31556 -3.75205 0
M  V30 9330 N 867.645 1.57599 0.00500368 0
M  V30 9331 C 868.578 2.03541 1.03181 0
M  V30 9332 C 869.556 0.924301 1.33774 0
M  V30 9333 O 870.74 1.19204 1.46023 0
M  V30 9334 C 867.867 2.42879 2.36067 0
M  V30 9335 C 866.913 3.64673 2.21169 0
M  V30 9336 S 867.746 5.12805 1.54243 0
M  V30 9337 C 868.902 5.55408 2.88569 0
M  V30 9338 H 869.135 2.90316 0.640598 0
M  V30 9339 H 866.668 1.52886 0.215722 0
M  V30 9340 H 868.626 2.66212 3.12476 0
M  V30 9341 H 867.287 1.56512 2.72329 0
M  V30 9342 H 866.48 3.89932 3.19326 0
M  V30 9343 H 866.082 3.41316 1.52904 0
M  V30 9344 H 868.374 5.57563 3.84876 0
M  V30 9345 H 869.317 6.55418 2.68016 0
M  V30 9346 H 869.725 4.82961 2.92249 0
M  V30 9347 N 869.123 -0.277682 1.55134 0
M  V30 9348 C 870.369 -1.0114 1.7578 0
M  V30 9349 C 870.702 -1.86109 0.554719 0
M  V30 9350 O 869.977 -1.89275 -0.447813 0
M  V30 9351 C 870.26 -1.89789 3.06027 0
M  V30 9352 C 870.113 -1.07844 4.3668 0
M  V30 9353 C 871.432 -2.88577 3.32282 0
M  V30 9354 H 868.551 -0.366277 0.639539 0
M  V30 9355 H 871.193 -0.284155 1.87863 0
M  V30 9356 H 869.343 -2.51796 2.95856 0
M  V30 9357 H 871.015 -0.479432 4.58802 0
M  V30 9358 H 869.258 -0.381764 4.32117 0
M  V30 9359 H 869.929 -1.73179 5.24131 0
M  V30 9360 H 872.405 -2.36702 3.42215 0
M  V30 9361 H 871.281 -3.47749 4.2469 0
M  V30 9362 H 871.542 -3.63458 2.51696 0
M  V30 9363 N 870.601 -1.47988 -0.541979 0
M  V30 9364 C 871.849 -1.55086 -1.29587 0
M  V30 9365 C 872.17 -0.221304 -1.9374 0
M  V30 9366 O 871.44 0.756128 -1.80719 0
M  V30 9367 H 870.02 -0.571307 -0.481266 0
M  V30 9368 H 872.682 -1.8438 -0.631675 0
M  V30 9369 H 871.778 -2.32556 -2.08144 0
M  V30 9370 N 872.079 0.78992 -1.36375 0
M  V30 9371 C 873.009 1.91683 -1.33341 0
M  V30 9372 C 873.99 1.68861 -0.204965 0
M  V30 9373 O 875.175 1.89982 -0.402531 0
M  V30 9374 C 872.305 3.28696 -1.12143 0
M  V30 9375 C 871.259 3.66041 -2.21806 0
M  V30 9376 C 870.585 5.01399 -1.85751 0
M  V30 9377 C 871.885 3.74677 -3.63888 0
M  V30 9378 H 873.579 1.94478 -2.27637 0
M  V30 9379 H 871.125 0.934271 -1.09578 0
M  V30 9380 H 873.078 4.07151 -1.08656 0
M  V30 9381 H 871.802 3.26287 -0.142974 0
M  V30 9382 H 870.461 2.89883 -2.24418 0
M  V30 9383 H 870.109 4.9551 -0.864817 0
M  V30 9384 H 869.809 5.27355 -2.59173 0
M  V30 9385 H 871.333 5.82274 -1.83819 0
M  V30 9386 H 872.747 4.43324 -3.63506 0
M  V30 9387 H 871.144 4.12118 -4.3621 0
M  V30 9388 H 872.214 2.75795 -3.9883 0
M  V30 9389 N 873.557 1.20646 1.01402 0
M  V30 9390 C 874.834 0.927176 1.72229 0
M  V30 9391 C 875.214 -0.563382 2.03443 0
M  V30 9392 O 874.562 -1.52576 1.70096 0
M  V30 9393 C 874.772 1.80285 2.98828 0
M  V30 9394 C 876.12 2.04624 3.72041 0
M  V30 9395 O 877.144 1.77559 3.0879 0
M  V30 9396 O 876.003 2.50347 4.85787 0
M  V30 9397 H 873.097 0.346891 0.75073 0
M  V30 9398 H 875.643 1.31532 1.07227 0
M  V30 9399 H 874.415 2.81204 2.72102 0
M  V30 9400 H 874.038 1.41495 3.71571 0
M  V30 9401 N 875.035 -1.20752 1.01276 0
M  V30 9402 C 875.998 -2.2162 0.584583 0
M  V30 9403 C 876.998 -1.57094 -0.343215 0
M  V30 9404 O 878.188 -1.73696 -0.132433 0
M  V30 9405 C 875.32 -3.40583 -0.146872 0
M  V30 9406 H 876.513 -2.61015 1.47686 0
M  V30 9407 H 874.066 -1.34148 0.802123 0
M  V30 9408 H 874.801 -3.06686 -1.05424 0
M  V30 9409 H 874.586 -3.88642 0.51958 0
M  V30 9410 H 876.076 -4.15339 -0.433924 0
M  V30 9411 N 876.513 -0.788492 -1.36457 0
M  V30 9412 C 877.443 -0.200468 -2.32638 0
M  V30 9413 C 878.424 0.664031 -1.56603 0
M  V30 9414 O 879.609 0.598045 -1.84762 0
M  V30 9415 C 876.739 0.666274 -3.40849 0
M  V30 9416 C 875.693 -0.0982574 -4.27887 0
M  V30 9417 C 875.019 0.889018 -5.27258 0
M  V30 9418 C 876.319 -1.28692 -5.06197 0
M  V30 9419 H 878.013 -1.00399 -2.82065 0
M  V30 9420 H 875.559 -0.484237 -1.35614 0
M  V30 9421 H 877.512 1.08757 -4.07124 0
M  V30 9422 H 876.236 1.50249 -2.89987 0
M  V30 9423 H 874.895 -0.500525 -3.63167 0
M  V30 9424 H 874.543 1.72024 -4.7267 0
M  V30 9425 H 874.243 0.381909 -5.86358 0
M  V30 9426 H 875.767 1.30891 -5.96406 0
M  V30 9427 H 877.181 -0.941429 -5.65517 0
M  V30 9428 H 875.578 -1.72726 -5.74705 0
M  V30 9429 H 876.648 -2.08273 -4.37893 0
M  V30 9430 N 877.991 1.48044 -0.54043 0
M  V30 9431 C 879.268 1.95523 0.0547302 0
M  V30 9432 C 879.648 1.48284 1.5025 0
M  V30 9433 O 878.996 0.714037 2.17057 0
M  V30 9434 C 879.206 3.48923 -0.0733393 0
M  V30 9435 C 880.554 4.24523 0.0806026 0
M  V30 9436 O 881.578 3.562 -5.58687e-05 0
M  V30 9437 O 880.437 5.45922 0.251216 0
M  V30 9438 H 877.531 0.823728 0.073493 0
M  V30 9439 H 880.077 1.5852 -0.605768 0
M  V30 9440 H 878.849 3.76059 -1.08144 0
M  V30 9441 H 878.472 3.92648 0.625536 0
M  V30 9442 N 879.47 0.276058 1.55163 0
M  V30 9443 C 880.433 -0.597924 2.21263 0
M  V30 9444 C 881.433 -1.0806 1.19078 0
M  V30 9445 O 882.623 -0.980626 1.43977 0
M  V30 9446 C 879.755 -1.82503 2.87933 0
M  V30 9447 H 880.948 -0.0207769 2.99893 0
M  V30 9448 H 878.501 0.0266823 1.56277 0
M  V30 9449 H 879.236 -2.44266 2.13318 0
M  V30 9450 H 879.021 -1.48683 3.62816 0
M  V30 9451 H 880.511 -2.44651 3.38431 0
M  V30 9452 N 880.948 -1.576 0.00335426 0
M  V30 9453 C 881.88 -2.0549 -1.01521 0
M  V30 9454 C 882.893 -0.973441 -1.30491 0
M  V30 9455 O 884.082 -1.25017 -1.27409 0
M  V30 9456 C 881.182 -2.44272 -2.34914 0
M  V30 9457 C 880.355 -3.75191 -2.24835 0
M  V30 9458 C 879.414 -4.00804 -3.40944 0
M  V30 9459 O 878.44 -4.71423 -3.18981 0
M  V30 9460 N 879.642 -3.48961 -4.63904 0
M  V30 9461 H 882.407 -2.93493 -0.60678 0
M  V30 9462 H 879.968 -1.60851 -0.18396 0
M  V30 9463 H 881.96 -2.58518 -3.11369 0
M  V30 9464 H 880.53 -1.6177 -2.67487 0
M  V30 9465 H 879.75 -3.70989 -1.3327 0
M  V30 9466 H 881.038 -4.61013 -2.15277 0
M  V30 9467 H 880.436 -2.9178 -4.84645 0
M  V30 9468 H 878.993 -3.68531 -5.37613 0
M  V30 9469 N 882.426 0.269451 -1.5528 0
M  V30 9470 C 883.837 0.840233 -1.66724 0
M  V30 9471 C 884.188 1.86909 -0.596621 0
M  V30 9472 O 883.313 2.14817 0.261246 0
M  V30 9473 C 883.908 1.5308 -3.02245 0
M  V30 9474 C 882.467 2.04957 -3.15705 0
M  V30 9475 C 881.614 0.892838 -2.62533 0
M  V30 9476 H 884.565 0.0457236 -1.58634 0
M  V30 9477 H 884.586 2.39792 -2.95432 0
M  V30 9478 H 884.098 0.781741 -3.80145 0
M  V30 9479 H 882.199 2.82813 -2.42585 0
M  V30 9480 H 882.312 2.26244 -4.22316 0
M  V30 9481 H 880.676 1.28719 -2.19781 0
M  V30 9482 H 881.459 0.157229 -3.4294 0
M  V30 9483 N 883.904 1.48273 0.534124 0
M  V30 9484 C 884.834 1.6538 1.64839 0
M  V30 9485 C 885.815 0.502741 1.62501 0
M  V30 9486 O 887 0.734799 1.79762 0
M  V30 9487 C 884.13 1.68949 3.03436 0
M  V30 9488 C 883.084 2.83513 3.20631 0
M  V30 9489 C 882.41 2.72169 4.60248 0
M  V30 9490 C 883.71 4.24858 3.03797 0
M  V30 9491 H 885.404 2.58663 1.50777 0
M  V30 9492 H 882.95 1.24479 0.723937 0
M  V30 9493 H 884.903 1.79505 3.81256 0
M  V30 9494 H 883.627 0.722415 3.1851 0
M  V30 9495 H 882.286 2.72505 2.45227 0
M  V30 9496 H 881.934 1.7344 4.72152 0
M  V30 9497 H 881.634 3.49042 4.72698 0
M  V30 9498 H 883.158 2.84687 5.40172 0
M  V30 9499 H 884.572 4.36721 3.71413 0
M  V30 9500 H 882.969 5.02697 3.27743 0
M  V30 9501 H 884.039 4.41611 2.0027 0
M  V30 9502 N 885.382 -0.782676 1.36792 0
M  V30 9503 C 886.312 -1.90973 1.34356 0
M  V30 9504 C 887.293 -1.6875 0.213917 0
M  V30 9505 O 888.478 -1.89766 0.412601 0
M  V30 9506 C 885.608 -3.28097 1.13884 0
M  V30 9507 C 884.562 -3.6486 2.23744 0
M  V30 9508 C 883.888 -5.00406 1.88408 0
M  V30 9509 C 885.188 -3.72742 3.6587 0
M  V30 9510 H 886.882 -1.93268 2.28665 0
M  V30 9511 H 884.428 -0.928447 1.10072 0
M  V30 9512 H 886.381 -4.06569 1.10813 0
M  V30 9513 H 885.105 -3.26206 0.160275 0
M  V30 9514 H 883.764 -2.88689 2.25952 0
M  V30 9515 H 883.412 -4.95044 0.891083 0
M  V30 9516 H 883.112 -5.25973 2.61966 0
M  V30 9517 H 884.636 -5.81291 1.86905 0
M  V30 9518 H 886.05 -4.4139 3.65852 0
M  V30 9519 H 884.447 -4.09798 4.38389 0
M  V30 9520 H 885.517 -2.73676 4.00287 0
M  V30 9521 N 886.86 -1.21182 -1.00761 0
M  V30 9522 C 887.807 -0.968741 -2.09485 0
M  V30 9523 C 888.777 0.104325 -1.65772 0
M  V30 9524 O 889.962 -0.0422587 -1.90753 0
M  V30 9525 C 887.102 -0.536686 -3.40901 0
M  V30 9526 C 886.215 -1.6789 -3.98041 0
M  V30 9527 C 885.35 -1.19627 -5.17555 0
M  V30 9528 C 884.389 -2.31099 -5.66798 0
M  V30 9529 N 883.526 -1.83988 -6.77564 0
M  V30 9530 H 888.366 -1.89952 -2.29613 0
M  V30 9531 H 885.903 -0.946688 -1.12589 0
M  V30 9532 H 887.861 -0.26745 -4.16342 0
M  V30 9533 H 886.491 0.357092 -3.20819 0
M  V30 9534 H 885.543 -2.06284 -3.19611 0
M  V30 9535 H 886.855 -2.51794 -4.30582 0
M  V30 9536 H 886.009 -0.883539 -6.00232 0
M  V30 9537 H 884.748 -0.327244 -4.86601 0
M  V30 9538 H 883.753 -2.63178 -4.82719 0
M  V30 9539 H 884.978 -3.18493 -5.99782 0
M  V30 9540 H 882.924 -0.994257 -6.48422 0
M  V30 9541 H 882.841 -2.61466 -7.09346 0
M  V30 9542 H 884.109 -1.55741 -7.63783 0
M  V30 9543 N 888.338 1.20213 -1.01915 0
M  V30 9544 C 889.568 1.93341 -0.728197 0
M  V30 9545 C 889.976 1.75151 0.715454 0
M  V30 9546 O 889.319 1.06437 1.49722 0
M  V30 9547 C 889.381 3.45677 -0.9873 0
M  V30 9548 C 889.045 3.8763 -2.42057 0
M  V30 9549 C 890.042 3.93184 -3.40151 0
M  V30 9550 C 887.727 4.19547 -2.76199 0
M  V30 9551 C 889.721 4.30069 -4.70446 0
M  V30 9552 C 887.408 4.56106 -4.06707 0
M  V30 9553 C 888.406 4.6134 -5.03641 0
M  V30 9554 O 888.094 4.97059 -6.31813 0
M  V30 9555 H 887.826 0.621258 -0.266485 0
M  V30 9556 H 890.38 1.53577 -1.36393 0
M  V30 9557 H 888.61 3.85578 -0.294405 0
M  V30 9558 H 890.299 4.00035 -0.687536 0
M  V30 9559 H 891.065 3.68687 -3.15111 0
M  V30 9560 H 886.944 4.14663 -2.01434 0
M  V30 9561 H 890.488 4.34069 -5.46105 0
M  V30 9562 H 886.385 4.80059 -4.31525 0
M  V30 9563 H 887.153 5.15043 -6.36139 0
M  V30 9564 N 889.816 0.795718 1.36037 0
M  V30 9565 C 891.063 0.371024 1.99072 0
M  V30 9566 C 891.391 -1.05896 1.63145 0
M  V30 9567 O 890.646 -1.7474 0.881163 0
M  V30 9568 C 890.945 0.489038 3.54038 0
M  V30 9569 C 890.611 1.88075 4.09803 0
M  V30 9570 C 889.273 2.26152 4.24745 0
M  V30 9571 C 891.625 2.79174 4.40126 0
M  V30 9572 C 888.953 3.54718 4.67324 0
M  V30 9573 C 891.305 4.07175 4.8414 0
M  V30 9574 C 889.969 4.45266 4.97287 0
M  V30 9575 H 889.239 0.135767 0.728456 0
M  V30 9576 H 891.886 1.0144 1.62426 0
M  V30 9577 H 890.191 -0.237823 3.91078 0
M  V30 9578 H 891.888 0.141374 4.00751 0
M  V30 9579 H 888.478 1.57488 3.98617 0
M  V30 9580 H 892.662 2.51009 4.28145 0
M  V30 9581 H 887.918 3.84093 4.75691 0
M  V30 9582 H 892.092 4.77875 5.06565 0
M  V30 9583 H 889.719 5.44943 5.30038 0
M  V30 9584 N 891.294 -1.47756 0.548274 0
M  V30 9585 C 892.226 -2.27921 -0.24177 0
M  V30 9586 C 893.239 -1.36471 -0.887658 0
M  V30 9587 O 894.428 -1.6137 -0.763016 0
M  V30 9588 C 891.528 -3.10449 -1.35922 0
M  V30 9589 C 890.701 -4.298 -0.811808 0
M  V30 9590 C 889.76 -4.93994 -1.81264 0
M  V30 9591 O 888.786 -5.52657 -1.3623 0
M  V30 9592 N 889.988 -4.87882 -3.14566 0
M  V30 9593 H 892.753 -2.96365 0.445848 0
M  V30 9594 H 890.314 -1.57286 0.383769 0
M  V30 9595 H 892.306 -3.50261 -2.02729 0
M  V30 9596 H 890.876 -2.44306 -1.95021 0
M  V30 9597 H 890.096 -3.94186 0.0327929 0
M  V30 9598 H 891.384 -5.0702 -0.425272 0
M  V30 9599 H 890.782 -4.41405 -3.53805 0
M  V30 9600 H 889.339 -5.3174 -3.76956 0
M  V30 9601 N 892.772 -0.284283 -1.55015 0
M  V30 9602 C 894.183 0.211681 -1.85496 0
M  V30 9603 C 894.534 1.54735 -1.2063 0
M  V30 9604 O 893.659 2.10594 -0.497918 0
M  V30 9605 C 894.254 0.390864 -3.36538 0
M  V30 9606 C 892.813 0.831055 -3.67111 0
M  V30 9607 C 891.96 -0.0703581 -2.77211 0
M  V30 9608 H 894.911 -0.505803 -1.50424 0
M  V30 9609 H 894.932 1.22803 -3.60138 0
M  V30 9610 H 894.444 -0.581409 -3.8372 0
M  V30 9611 H 892.545 1.81447 -3.25434 0
M  V30 9612 H 892.658 0.662026 -4.74504 0
M  V30 9613 H 891.022 0.447528 -2.50737 0
M  V30 9614 H 891.805 -1.03868 -3.2721 0
M  V30 9615 N 894.251 1.57596 -0.0117121 0
M  V30 9616 C 895.497 1.91355 0.671661 0
M  V30 9617 C 895.83 0.886818 1.72769 0
M  V30 9618 O 895.105 -0.0928813 1.94278 0
M  V30 9619 C 895.388 3.35657 1.30409 0
M  V30 9620 C 895.241 4.49055 0.2588 0
M  V30 9621 C 896.56 3.79595 2.22701 0
M  V30 9622 H 893.679 0.695893 0.242698 0
M  V30 9623 H 896.321 1.89887 -0.0654071 0
M  V30 9624 H 894.471 3.37038 1.9323 0
M  V30 9625 H 896.143 4.59809 -0.370631 0
M  V30 9626 H 894.386 4.31785 -0.417672 0
M  V30 9627 H 895.057 5.4701 0.740578 0
M  V30 9628 H 897.533 3.7984 1.69885 0
M  V30 9629 H 896.409 4.81292 2.63912 0
M  V30 9630 H 896.67 3.14118 3.11098 0
M  V30 9631 N 895.729 -0.261212 1.5542 0
M  V30 9632 C 896.957 -1.00916 1.8062 0
M  V30 9633 C 897.372 -1.79494 0.585444 0
M  V30 9634 O 896.729 -1.76974 -0.445702 0
M  V30 9635 C 896.78 -1.95841 3.03856 0
M  V30 9636 O 896.501 -1.20445 4.21218 0
M  V30 9637 C 898.002 -2.82352 3.41749 0
M  V30 9638 H 895.222 -0.297596 0.601397 0
M  V30 9639 H 897.766 -0.288427 2.02456 0
M  V30 9640 H 895.921 -2.63361 2.84112 0
M  V30 9641 H 896.335 -1.84528 4.90968 0
M  V30 9642 H 897.809 -3.44733 4.31118 0
M  V30 9643 H 898.286 -3.5273 2.61683 0
M  V30 9644 H 898.892 -2.20306 3.63793 0
M  V30 9645 N 897.207 -1.48554 -0.526253 0
M  V30 9646 C 898.139 -1.59446 -1.6465 0
M  V30 9647 C 899.152 -0.478525 -1.55608 0
M  V30 9648 O 900.341 -0.74953 -1.62001 0
M  V30 9649 C 897.441 -1.51164 -3.03319 0
M  V30 9650 C 896.614 -2.77861 -3.37805 0
M  V30 9651 C 895.673 -2.62982 -4.5577 0
M  V30 9652 O 894.699 -3.36876 -4.58806 0
M  V30 9653 N 895.901 -1.72847 -5.5417 0
M  V30 9654 H 898.666 -2.56055 -1.55743 0
M  V30 9655 H 896.227 -1.45325 -0.713606 0
M  V30 9656 H 898.219 -1.389 -3.80117 0
M  V30 9657 H 896.789 -0.625147 -3.06285 0
M  V30 9658 H 896.009 -3.04663 -2.50149 0
M  V30 9659 H 897.297 -3.61908 -3.57632 0
M  V30 9660 H 896.695 -1.12022 -5.54498 0
M  V30 9661 H 895.252 -1.6652 -6.3017 0
M  V30 9662 N 898.685 0.775411 -1.37205 0
M  V30 9663 C 899.931 1.53533 -1.33414 0
M  V30 9664 C 900.286 1.92225 0.0819435 0
M  V30 9665 O 899.579 1.60935 1.03974 0
M  V30 9666 C 899.773 2.81377 -2.20367 0
M  V30 9667 C 899.602 2.5518 -3.70288 0
M  V30 9668 C 898.372 2.49493 -4.3941 0
M  V30 9669 C 900.57 2.23425 -4.63234 0
M  V30 9670 N 898.552 2.15341 -5.74892 0
M  V30 9671 C 899.923 1.99381 -5.87067 0
M  V30 9672 C 901.978 2.09549 -4.51657 0
M  V30 9673 C 900.681 1.62863 -7.0062 0
M  V30 9674 C 902.707 1.74431 -5.65091 0
M  V30 9675 C 902.069 1.51245 -6.87971 0
M  V30 9676 H 898.168 0.562278 -0.543477 0
M  V30 9677 H 900.752 0.90495 -1.72391 0
M  V30 9678 H 898.923 3.42259 -1.83612 0
M  V30 9679 H 900.655 3.4724 -2.07861 0
M  V30 9680 H 897.41 2.65221 -3.9237 0
M  V30 9681 H 897.834 2.00972 -6.46482 0
M  V30 9682 H 902.476 2.26159 -3.57228 0
M  V30 9683 H 900.194 1.44991 -7.94986 0
M  V30 9684 H 903.78 1.64359 -5.58102 0
M  V30 9685 H 902.66 1.24472 -7.74259 0
M  V30 9686 N 900.163 1.21714 1.00117 0
M  V30 9687 C 901.093 1.00397 2.10815 0
M  V30 9688 C 902.074 -0.0723502 1.69946 0
M  V30 9689 O 903.259 0.0882398 1.93999 0
M  V30 9690 C 900.389 0.572001 3.42557 0
M  V30 9691 C 899.343 1.59331 3.97237 0
M  V30 9692 C 898.669 1.01746 5.2493 0
M  V30 9693 C 899.969 2.98117 4.28863 0
M  V30 9694 H 901.663 1.92983 2.28906 0
M  V30 9695 H 899.209 0.929273 1.10002 0
M  V30 9696 H 901.162 0.410018 4.19401 0
M  V30 9697 H 899.886 -0.38951 3.24269 0
M  V30 9698 H 898.545 1.74293 3.22518 0
M  V30 9699 H 898.193 0.0475491 5.02978 0
M  V30 9700 H 897.893 1.69969 5.62481 0
M  V30 9701 H 899.417 0.866881 6.04415 0
M  V30 9702 H 900.831 2.86578 4.96534 0
M  V30 9703 H 899.228 3.63389 4.77565 0
M  V30 9704 H 900.298 3.48674 3.36979 0
M  V30 9705 N 901.641 -1.19671 1.02551 0
M  V30 9706 C 902.573 -2.22215 0.561517 0
M  V30 9707 C 903.586 -1.58751 -0.360821 0
M  V30 9708 O 904.775 -1.77802 -0.157749 0
M  V30 9709 C 901.875 -3.383 -0.201494 0
M  V30 9710 C 901.048 -4.3135 0.724952 0
M  V30 9711 C 900.107 -5.26199 0.00794334 0
M  V30 9712 O 899.133 -5.65665 0.633398 0
M  V30 9713 N 900.335 -5.66573 -1.26394 0
M  V30 9714 H 903.1 -2.6265 1.44343 0
M  V30 9715 H 900.661 -1.34303 0.904122 0
M  V30 9716 H 902.653 -3.98764 -0.690625 0
M  V30 9717 H 901.223 -2.96683 -0.98479 0
M  V30 9718 H 900.443 -3.6872 1.39423 0
M  V30 9719 H 901.731 -4.90433 1.35472 0
M  V30 9720 H 901.129 -5.36538 -1.79287 0
M  V30 9721 H 899.686 -6.29304 -1.69763 0
M  V30 9722 N 903.119 -0.802921 -1.35613 0
M  V30 9723 C 904.029 -0.212177 -2.33639 0
M  V30 9724 C 905.045 0.642871 -1.61689 0
M  V30 9725 O 906.221 0.555485 -1.93588 0
M  V30 9726 C 903.286 0.632406 -3.40883 0
M  V30 9727 C 902.347 -0.242708 -4.28613 0
M  V30 9728 C 901.58 0.56166 -5.30736 0
M  V30 9729 O 901.803 1.79664 -5.41366 0
M  V30 9730 O 900.737 -0.0455387 -6.01883 0
M  V30 9731 H 904.563 -1.023 -2.85952 0
M  V30 9732 H 902.148 -0.564636 -1.38319 0
M  V30 9733 H 904.03 1.11358 -4.0642 0
M  V30 9734 H 902.705 1.42089 -2.90848 0
M  V30 9735 H 901.612 -0.77094 -3.6607 0
M  V30 9736 H 902.945 -0.995046 -4.82037 0
M  V30 9737 N 904.597 1.47463 -0.556102 0
M  V30 9738 C 905.529 2.28046 0.22968 0
M  V30 9739 C 906.542 1.3694 0.880409 0
M  V30 9740 O 907.731 1.61773 0.754447 0
M  V30 9741 C 904.831 3.11165 1.34273 0
M  V30 9742 C 904.004 4.30225 0.789004 0
M  V30 9743 C 903.063 4.94948 1.78641 0
M  V30 9744 O 902.089 5.53372 1.33297 0
M  V30 9745 N 903.291 4.89543 3.11974 0
M  V30 9746 H 906.056 2.96125 -0.461558 0
M  V30 9747 H 903.617 1.5708 -0.392105 0
M  V30 9748 H 905.609 3.51331 2.00869 0
M  V30 9749 H 904.179 2.45337 1.93722 0
M  V30 9750 H 903.399 3.94163 -0.0536971 0
M  V30 9751 H 904.687 5.07238 0.398378 0
M  V30 9752 H 904.085 4.43275 3.51459 0
M  V30 9753 H 902.642 5.33732 3.74131 0
M  V30 9754 N 906.075 0.2925 1.54862 0
M  V30 9755 C 907.023 -0.603186 2.24643 0
M  V30 9756 C 908.017 -1.1439 1.24946 0
M  V30 9757 O 909.223 -1.09552 1.42823 0
M  V30 9758 H 905.598 -0.213105 0.721173 0
M  V30 9759 H 907.569 0.00799278 2.98399 0
M  V30 9760 C 906.318 -1.76769 2.99413 0
M  V30 9761 H 905.641 -1.36084 3.75927 0
M  V30 9762 H 907.081 -2.37066 3.51533 0
M  V30 9763 C 905.54 -2.66669 2.05886 0
M  V30 9764 O 906.07 -3.67525 1.62136 0
M  V30 9765 N 904.276 -2.34216 1.7202 0
M  V30 9766 H 903.823 -1.52246 2.07795 0
M  V30 9767 H 903.781 -2.94635 1.09717 0
M  V30 9768 N 907.553 -1.57587 0.0200696 0
M  V30 9769 C 908.485 -2.06555 -0.993359 0
M  V30 9770 C 909.498 -0.987227 -1.29451 0
M  V30 9771 O 910.687 -1.26361 -1.26075 0
M  V30 9772 C 907.787 -2.4675 -2.3231 0
M  V30 9773 C 906.96 -3.77554 -2.20843 0
M  V30 9774 C 906.019 -4.04397 -3.36674 0
M  V30 9775 O 905.045 -4.7478 -3.13963 0
M  V30 9776 N 906.247 -3.53861 -4.60176 0
M  V30 9777 H 909.012 -2.9412 -0.575617 0
M  V30 9778 H 906.573 -1.61038 -0.166889 0
M  V30 9779 H 908.565 -2.61806 -3.08609 0
M  V30 9780 H 907.135 -1.64598 -2.65756 0
M  V30 9781 H 906.355 -3.72382 -1.29327 0
M  V30 9782 H 907.643 -4.63271 -2.10375 0
M  V30 9783 H 907.041 -2.96904 -4.81523 0
M  V30 9784 H 905.598 -3.74213 -5.33674 0
M  V30 9785 N 909.032 0.252966 -1.55557 0
M  V30 9786 C 909.964 1.33585 -1.86246 0
M  V30 9787 C 910.977 1.44584 -0.748291 0
M  V30 9788 O 912.166 1.46042 -1.02635 0
M  V30 9789 C 909.266 2.71509 -2.02821 0
M  V30 9790 C 908.439 2.82853 -3.33636 0
M  V30 9791 C 907.498 4.01581 -3.40028 0
M  V30 9792 O 906.524 3.91394 -4.13278 0
M  V30 9793 N 907.726 5.14474 -2.6888 0
M  V30 9794 H 910.491 1.07596 -2.7972 0
M  V30 9795 H 908.052 0.443075 -1.55719 0
M  V30 9796 H 910.044 3.49262 -2.04445 0
M  V30 9797 H 908.614 2.90232 -1.1612 0
M  V30 9798 H 907.834 1.91823 -3.4438 0
M  V30 9799 H 909.122 2.87378 -4.19871 0
M  V30 9800 H 908.52 5.25641 -2.09087 0
M  V30 9801 H 907.077 5.90385 -2.76204 0
M  V30 9802 N 910.51 1.48831 0.518367 0
M  V30 9803 C 911.458 1.64678 1.64268 0
M  V30 9804 C 912.452 0.512967 1.61447 0
M  V30 9805 O 913.658 0.692063 1.66164 0
M  V30 9806 H 910.033 0.518964 0.544224 0
M  V30 9807 H 912.004 2.59083 1.4805 0
M  V30 9808 C 910.753 1.71449 3.0249 0
M  V30 9809 H 910.076 2.58061 3.0536 0
M  V30 9810 H 911.516 1.86577 3.80743 0
M  V30 9811 C 909.975 0.455584 3.33805 0
M  V30 9812 O 910.505 -0.426428 3.9943 0
M  V30 9813 N 908.711 0.323763 2.88791 0
M  V30 9814 H 908.258 1.04249 2.35563 0
M  V30 9815 H 908.216 -0.517514 3.10112 0
M  V30 9816 N 911.988 -0.768124 1.37614 0
M  V30 9817 C 913.236 -1.52379 1.3276 0
M  V30 9818 C 913.557 -1.94809 -0.0863564 0
M  V30 9819 O 912.827 -1.66568 -1.03112 0
M  V30 9820 H 911.407 -0.565179 0.488448 0
M  V30 9821 H 914.069 -0.913974 1.72141 0
M  V30 9822 H 913.165 -2.4215 1.96901 0
M  V30 9823 N 913.466 -1.22244 -0.994698 0
M  V30 9824 C 914.376 -1.00722 -2.11878 0
M  V30 9825 C 915.392 0.043919 -1.73945 0
M  V30 9826 O 916.568 -0.148411 -2.00852 0
M  V30 9827 C 913.633 -0.585723 -3.41717 0
M  V30 9828 C 912.694 -1.71027 -3.93762 0
M  V30 9829 C 911.927 -1.30879 -5.17403 0
M  V30 9830 O 912.15 -0.18681 -5.70094 0
M  V30 9831 O 911.084 -2.1246 -5.63156 0
M  V30 9832 H 914.91 -1.94894 -2.32916 0
M  V30 9833 H 912.495 -1.00822 -1.10251 0
M  V30 9834 H 914.377 -0.360935 -4.19851 0
M  V30 9835 H 913.052 0.327166 -3.22042 0
M  V30 9836 H 911.959 -1.98956 -3.16808 0
M  V30 9837 H 913.292 -2.60096 -4.17865 0
M  V30 9838 N 914.944 1.19125 -1.03184 0
M  V30 9839 C 916.19 1.89163 -0.731111 0
M  V30 9840 C 916.523 1.79604 0.738662 0
M  V30 9841 O 915.798 1.19037 1.53819 0
M  V30 9842 C 916.081 3.39986 -1.18666 0
M  V30 9843 C 915.934 3.58401 -2.71788 0
M  V30 9844 C 917.253 4.33316 -0.769772 0
M  V30 9845 H 914.372 0.686908 -0.267069 0
M  V30 9846 H 917.014 1.40205 -1.28229 0
M  V30 9847 H 915.164 3.81813 -0.717736 0
M  V30 9848 H 916.836 3.25727 -3.26649 0
M  V30 9849 H 915.079 3.01355 -3.12038 0
M  V30 9850 H 915.75 4.64189 -2.98719 0
M  V30 9851 H 918.226 3.9922 -1.17314 0
M  V30 9852 H 917.102 5.37427 -1.11637 0
M  V30 9853 H 917.363 4.40884 0.327681 0
M  V30 9854 N 916.422 0.810101 1.35185 0
M  V30 9855 C 917.352 0.237453 2.32289 0
M  V30 9856 C 918.333 -0.639032 1.5764 0
M  V30 9857 O 919.518 -0.568575 1.8569 0
M  V30 9858 C 916.648 -0.611964 3.41866 0
M  V30 9859 C 915.602 0.166318 4.27677 0
M  V30 9860 C 914.928 -0.805024 5.28605 0
M  V30 9861 C 916.228 1.36729 5.04086 0
M  V30 9862 H 917.922 1.04874 2.80432 0
M  V30 9863 H 915.468 0.505751 1.34826 0
M  V30 9864 H 917.421 -1.02267 4.08802 0
M  V30 9865 H 916.145 -1.45617 2.92341 0
M  V30 9866 H 914.804 0.558238 3.62325 0
M  V30 9867 H 914.452 -1.64483 4.75347 0
M  V30 9868 H 914.152 -0.288577 5.86891 0
M  V30 9869 H 915.676 -1.21386 5.98413 0
M  V30 9870 H 917.09 1.03128 5.63948 0
M  V30 9871 H 915.487 1.81848 5.71884 0
M  V30 9872 H 916.557 2.15214 4.34524 0
M  V30 9873 N 917.9 -1.47166 0.563914 0
M  V30 9874 C 919.148 -2.02056 0.0422873 0
M  V30 9875 C 919.469 -1.43992 -1.31497 0
M  V30 9876 O 918.739 -0.617578 -1.85911 0
M  V30 9877 H 917.319 -0.746893 0.0126427 0
M  V30 9878 H 919.981 -1.80492 0.735441 0
M  V30 9879 H 919.077 -3.12073 -0.0408044 0
M  V30 9880 N 919.378 -0.300708 -1.54705 0
M  V30 9881 C 920.624 0.301982 -2.01146 0
M  V30 9882 C 920.979 1.51548 -1.18537 0
M  V30 9883 O 920.272 1.89914 -0.253656 0
M  V30 9884 C 920.466 0.710108 -3.50275 0
M  V30 9885 C 920.295 -0.462291 -4.47318 0
M  V30 9886 C 919.065 -0.954214 -4.96208 0
M  V30 9887 C 921.263 -1.30716 -4.97411 0
M  V30 9888 N 919.245 -2.09341 -5.77105 0
M  V30 9889 C 920.616 -2.29384 -5.76006 0
M  V30 9890 C 922.671 -1.33756 -4.79597 0
M  V30 9891 C 921.374 -3.30869 -6.38685 0
M  V30 9892 C 923.4 -2.34099 -5.43094 0
M  V30 9893 C 922.762 -3.31498 -6.21521 0
M  V30 9894 H 918.861 0.0749709 -0.778398 0
M  V30 9895 H 921.445 -0.430557 -1.8988 0
M  V30 9896 H 919.616 1.41182 -3.61832 0
M  V30 9897 H 921.348 1.29231 -3.83512 0
M  V30 9898 H 918.103 -0.529238 -4.70634 0
M  V30 9899 H 918.527 -2.66739 -6.22237 0
M  V30 9900 H 923.169 -0.598284 -4.18546 0
M  V30 9901 H 920.887 -4.05717 -6.9887 0
M  V30 9902 H 924.473 -2.37225 -5.31239 0
M  V30 9903 H 923.353 -4.07872 -6.69784 0
M  V30 9904 N 920.856 1.57574 -0.0284266 0
M  V30 9905 C 922.267 1.79585 0.510502 0
M  V30 9906 C 922.618 0.938625 1.72291 0
M  V30 9907 O 921.743 0.14884 2.15888 0
M  V30 9908 C 922.338 3.25703 0.932912 0
M  V30 9909 C 920.897 3.48711 1.41696 0
M  V30 9910 C 920.044 2.74665 0.381356 0
M  V30 9911 H 922.995 1.56647 -0.254464 0
M  V30 9912 H 923.016 3.35376 1.79731 0
M  V30 9913 H 922.528 3.88067 0.0503036 0
M  V30 9914 H 920.629 2.91597 2.31952 0
M  V30 9915 H 920.742 4.57423 1.42481 0
M  V30 9916 H 919.106 2.40123 0.8493 0
M  V30 9917 H 919.889 3.39745 -0.492775 0
M  V30 9918 N 922.334 -0.244713 1.55689 0
M  V30 9919 C 923.244 -1.32447 1.93636 0
M  V30 9920 C 924.26 -1.52541 0.837086 0
M  V30 9921 O 925.436 -1.66121 1.13867 0
M  V30 9922 C 922.501 -2.65864 2.22525 0
M  V30 9923 C 921.562 -2.54273 3.45896 0
M  V30 9924 C 920.795 -3.81327 3.73397 0
M  V30 9925 O 921.018 -4.83307 3.02936 0
M  V30 9926 O 919.952 -3.79829 4.66919 0
M  V30 9927 H 923.778 -1.03255 2.85608 0
M  V30 9928 H 921.363 -0.445652 1.42598 0
M  V30 9929 H 923.245 -3.447 2.42404 0
M  V30 9930 H 921.92 -2.94784 1.33731 0
M  V30 9931 H 920.827 -1.73715 3.31321 0
M  V30 9932 H 922.16 -2.30297 4.34999 0
M  V30 9933 N 923.813 -1.49104 -0.510467 0
M  V30 9934 C 925.043 -1.61571 -1.28757 0
M  V30 9935 C 925.451 -0.282638 -1.87077 0
M  V30 9936 O 924.794 0.740749 -1.68103 0
M  V30 9937 C 924.856 -2.61851 -2.46322 0
M  V30 9938 C 924.52 -4.06438 -2.08942 0
M  V30 9939 C 925.517 -4.93532 -1.63469 0
M  V30 9940 C 923.202 -4.52109 -2.18867 0
M  V30 9941 C 925.196 -6.24331 -1.28411 0
M  V30 9942 C 922.883 -5.82924 -1.83421 0
M  V30 9943 C 923.881 -6.68858 -1.38267 0
M  V30 9944 O 923.569 -7.97236 -1.03296 0
M  V30 9945 H 923.301 -0.547082 -0.397086 0
M  V30 9946 H 925.855 -1.95806 -0.620424 0
M  V30 9947 H 924.085 -2.22777 -3.16081 0
M  V30 9948 H 925.774 -2.63947 -3.08362 0
M  V30 9949 H 926.54 -4.59479 -1.55255 0
M  V30 9950 H 922.419 -3.85395 -2.52966 0
M  V30 9951 H 925.963 -6.9136 -0.930946 0
M  V30 9952 H 921.86 -6.16507 -1.91282 0
M  V30 9953 H 922.628 -8.10163 -1.16525 0
M  V30 9954 N 925.291 0.760815 -1.38019 0
M  V30 9955 C 926.223 1.88387 -1.30549 0
M  V30 9956 C 927.236 1.61319 -0.219119 0
M  V30 9957 O 928.425 1.72033 -0.476122 0
M  V30 9958 C 925.525 3.23863 -0.998291 0
M  V30 9959 C 924.698 3.78492 -2.19232 0
M  V30 9960 C 923.757 4.92468 -1.85368 0
M  V30 9961 O 922.783 5.0748 -2.57785 0
M  V30 9962 N 923.985 5.74901 -0.804319 0
M  V30 9963 H 926.75 1.95308 -2.27322 0
M  V30 9964 H 924.311 0.940423 -1.31786 0
M  V30 9965 H 926.303 3.97644 -0.7524 0
M  V30 9966 H 924.873 3.12374 -0.11877 0
M  V30 9967 H 924.093 2.96361 -2.5993 0
M  V30 9968 H 925.381 4.11722 -2.98935 0
M  V30 9969 H 924.779 5.65333 -0.203628 0
M  V30 9970 H 923.336 6.48861 -0.618301 0
M  V30 9971 N 926.769 1.22769 0.988202 0
M  V30 9972 C 928.015 1.06672 1.73184 0
M  V30 9973 C 928.37 -0.393434 1.88334 0
M  V30 9974 O 927.663 -1.2876 1.41885 0
M  V30 9975 C 927.857 1.71679 3.13466 0
M  V30 9976 C 927.686 3.23864 3.11997 0
M  V30 9977 C 926.456 3.92991 3.17626 0
M  V30 9978 C 928.654 4.20737 2.95778 0
M  V30 9979 N 926.636 5.32224 3.05959 0
M  V30 9980 C 928.007 5.46831 2.92191 0
M  V30 9981 C 930.062 4.1157 2.80205 0
M  V30 9982 C 928.765 6.64811 2.74624 0
M  V30 9983 C 930.791 5.29205 2.64 0
M  V30 9984 C 930.153 6.5422 2.61104 0
M  V30 9985 H 926.252 0.44481 0.64317 0
M  V30 9986 H 928.836 1.55381 1.17323 0
M  V30 9987 H 927.007 1.25513 3.67561 0
M  V30 9988 H 928.739 1.48629 3.76419 0
M  V30 9989 H 925.494 3.4402 3.25495 0
M  V30 9990 H 925.918 6.05197 3.03423 0
M  V30 9991 H 930.56 3.15697 2.81239 0
M  V30 9992 H 928.278 7.60828 2.72336 0
M  V30 9993 H 931.864 5.23947 2.52925 0
M  V30 9994 H 930.744 7.43713 2.48719 0
M  V30 9995 N 928.247 -1.18576 1.03814 0
M  V30 9996 C 929.197 -2.20034 0.597409 0
M  V30 9997 C 930.181 -1.56849 -0.358796 0
M  V30 9998 O 931.373 -1.761 -0.178262 0
M  V30 9999 C 928.502 -3.43276 -0.0407965 0
M  V30 10000 C 927.588 -4.13588 0.938404 0
M  V30 10001 N 927.979 -4.59941 2.10447 0
M  V30 10002 C 926.277 -4.3941 0.763853 0
M  V30 10003 C 926.978 -5.1404 2.72282 0
M  V30 10004 N 925.954 -5.05401 2.00176 0
M  V30 10005 H 929.756 -2.53562 1.48606 0
M  V30 10006 H 927.27 -1.34753 0.906384 0
M  V30 10007 H 929.267 -4.15217 -0.374222 0
M  V30 10008 H 927.927 -3.11245 -0.925014 0
M  V30 10009 H 928.938 -4.54471 2.48347 0
M  V30 10010 H 925.615 -4.1744 -0.0704869 0
M  V30 10011 H 927.005 -5.60128 3.71088 0
M  V30 10012 N 929.725 -0.817259 -1.34754 0
M  V30 10013 C 931.136 -0.462215 -1.80888 0
M  V30 10014 C 931.487 1.01685 -1.67794 0
M  V30 10015 O 930.612 1.79094 -1.21468 0
M  V30 10016 C 931.207 -0.832204 -3.2842 0
M  V30 10017 C 929.766 -0.52961 -3.72655 0
M  V30 10018 C 928.913 -1.05214 -2.56564 0
M  V30 10019 H 931.864 -1.00795 -1.22581 0
M  V30 10020 H 931.885 -0.133804 -3.80265 0
M  V30 10021 H 931.397 -1.90873 -3.37919 0
M  V30 10022 H 929.498 0.537743 -3.68699 0
M  V30 10023 H 929.611 -1.06971 -4.67005 0
M  V30 10024 H 927.975 -0.473949 -2.50251 0
M  V30 10025 H 928.758 -2.135 -2.68836 0
M  V30 10026 N 931.203 1.46865 -0.571711 0
M  V30 10027 C 932.614 1.86158 -0.142181 0
M  V30 10028 C 932.965 1.47663 1.2919 0
M  V30 10029 O 932.09 0.886393 1.97413 0
M  V30 10030 C 932.685 3.37867 -0.251256 0
M  V30 10031 C 931.244 3.76198 0.123329 0
M  V30 10032 C 930.391 2.70902 -0.592232 0
M  V30 10033 H 933.342 1.38176 -0.780587 0
M  V30 10034 H 933.363 3.76842 0.526331 0
M  V30 10035 H 932.875 3.65853 -1.2951 0
M  V30 10036 H 930.976 3.53829 1.16773 0
M  V30 10037 H 931.089 4.78471 -0.24533 0
M  V30 10038 H 929.453 2.54678 -0.0336927 0
M  V30 10039 H 930.236 3.01729 -1.63751 0
M  V30 10040 N 932.681 0.308908 1.54543 0
M  V30 10041 C 933.611 -0.556657 2.26768 0
M  V30 10042 C 934.592 -1.13145 1.27013 0
M  V30 10043 O 935.777 -1.15931 1.558 0
M  V30 10044 C 932.907 -1.72481 3.01443 0
M  V30 10045 C 931.861 -1.28001 4.08411 0
M  V30 10046 C 931.187 -2.53395 4.70845 0
M  V30 10047 C 932.487 -0.405497 5.20724 0
M  V30 10048 H 934.181 0.0457618 2.99365 0
M  V30 10049 H 931.727 0.0234495 1.43981 0
M  V30 10050 H 933.68 -2.3365 3.50693 0
M  V30 10051 H 932.404 -2.35359 2.26437 0
M  V30 10052 H 931.063 -0.69133 3.60022 0
M  V30 10053 H 930.711 -3.14604 3.92471 0
M  V30 10054 H 930.411 -2.2433 5.43093 0
M  V30 10055 H 931.935 -3.15352 5.22863 0
M  V30 10056 H 933.349 -0.923076 5.6582 0
M  V30 10057 H 931.746 -0.208282 5.99738 0
M  V30 10058 H 932.816 0.567412 4.81569 0
M  V30 10059 N 934.159 -1.57557 0.0367827 0
M  V30 10060 C 935.57 -1.79853 -0.500971 0
M  V30 10061 C 935.921 -0.947749 -1.71791 0
M  V30 10062 O 935.046 -0.160287 -2.15806 0
M  V30 10063 C 935.641 -3.26193 -0.915626 0
M  V30 10064 C 934.2 -3.49457 -1.39845 0
M  V30 10065 C 933.347 -2.74864 -0.366784 0
M  V30 10066 H 936.298 -1.56509 0.262768 0
M  V30 10067 H 936.319 -3.36324 -1.7795 0
M  V30 10068 H 935.831 -3.88089 -0.0297227 0
M  V30 10069 H 933.932 -2.92823 -2.30402 0
M  V30 10070 H 934.045 -4.58172 -1.40054 0
M  V30 10071 H 932.409 -2.4057 -0.836554 0
M  V30 10072 H 933.192 -3.39479 0.510785 0
M  V30 10073 N 935.637 0.236453 -1.55816 0
M  V30 10074 C 936.914 0.986463 -1.68903 0
M  V30 10075 C 937.294 2.02984 -0.579722 0
M  V30 10076 O 936.642 2.24693 0.415389 0
M  V30 10077 C 936.852 1.61038 -3.09625 0
M  V30 10078 C 938.2 2.10829 -3.6856 0
M  V30 10079 O 939.224 1.7096 -3.12492 0
M  V30 10080 O 938.083 2.84064 -4.66873 0
M  V30 10081 H 935.177 0.459837 -0.687371 0
M  V30 10082 H 937.723 0.229412 -1.68142 0
M  V30 10083 H 936.495 0.856232 -3.81817 0
M  V30 10084 H 936.118 2.43336 -3.14441 0
M  V30 10085 N 937.115 1.49373 0.502552 0
M  V30 10086 C 938.063 1.66411 1.62512 0
M  V30 10087 C 939.057 0.530062 1.60893 0
M  V30 10088 O 940.263 0.709648 1.65421 0
M  V30 10089 H 936.638 0.524707 0.538689 0
M  V30 10090 H 938.609 2.60639 1.45293 0
M  V30 10091 C 937.358 1.74648 3.00655 0
M  V30 10092 H 936.681 2.61285 3.02606 0
M  V30 10093 H 938.121 1.90605 3.78742 0
M  V30 10094 C 936.58 0.490963 3.33303 0
M  V30 10095 O 937.11 -0.384039 3.9986 0
M  V30 10096 N 935.316 0.354375 2.88431 0
M  V30 10097 H 934.863 1.06742 2.34444 0
M  V30 10098 H 934.821 -0.484593 3.10643 0
M  V30 10099 N 938.594 -0.753485 1.38421 0
M  V30 10100 C 939.824 -1.54049 1.37669 0
M  V30 10101 C 940.232 -1.89167 -0.0353656 0
M  V30 10102 O 939.575 -1.53285 -1.01239 0
M  V30 10103 C 939.637 -2.86777 2.16793 0
M  V30 10104 C 939.301 -2.74196 3.65603 0
M  V30 10105 C 940.298 -2.43985 4.59094 0
M  V30 10106 C 937.983 -2.91645 4.0896 0
M  V30 10107 C 939.977 -2.31379 5.93921 0
M  V30 10108 C 937.664 -2.78658 5.43868 0
M  V30 10109 C 938.662 -2.48568 6.36163 0
M  V30 10110 O 938.35 -2.3564 7.68589 0
M  V30 10111 H 938.082 -0.483276 0.472673 0
M  V30 10112 H 940.636 -0.940267 1.82615 0
M  V30 10113 H 938.866 -3.48988 1.66565 0
M  V30 10114 H 940.555 -3.48289 2.08446 0
M  V30 10115 H 941.321 -2.30172 4.26902 0
M  V30 10116 H 937.2 -3.14063 3.37469 0
M  V30 10117 H 940.744 -2.07813 6.65927 0
M  V30 10118 H 936.641 -2.92044 5.75656 0
M  V30 10119 H 937.409 -2.50851 7.79112 0
M  V30 10120 N 940.072 -1.23292 -0.981677 0
M  V30 10121 C 941.483 -1.05936 -1.53735 0
M  V30 10122 C 941.834 0.373695 -1.92608 0
M  V30 10123 O 940.959 1.26024 -1.75917 0
M  V30 10124 C 941.554 -1.91682 -2.79363 0
M  V30 10125 C 940.113 -1.78591 -3.31334 0
M  V30 10126 C 939.26 -1.87463 -2.04335 0
M  V30 10127 H 942.211 -1.36973 -0.801505 0
M  V30 10128 H 942.232 -1.44085 -3.52164 0
M  V30 10129 H 941.744 -2.95975 -2.51039 0
M  V30 10130 H 939.845 -0.770755 -3.64541 0
M  V30 10131 H 939.958 -2.61902 -4.01179 0
M  V30 10132 H 938.322 -1.3103 -2.18411 0
M  V30 10133 H 939.105 -2.9331 -1.78394 0
M  V30 10134 N 941.55 1.18024 -1.04442 0
M  V30 10135 C 942.46 2.25436 -0.649276 0
M  V30 10136 C 943.476 1.70915 0.326189 0
M  V30 10137 O 944.652 2.00592 0.180174 0
M  V30 10138 C 941.717 3.46693 -0.0222558 0
M  V30 10139 C 940.778 4.16332 -1.0472 0
M  V30 10140 C 940.011 5.31799 -0.450011 0
M  V30 10141 O 940.234 5.65544 0.742717 0
M  V30 10142 O 939.168 5.90209 -1.18056 0
M  V30 10143 H 942.994 2.61508 -1.54426 0
M  V30 10144 H 940.579 1.25178 -0.81552 0
M  V30 10145 H 942.461 4.20132 0.326597 0
M  V30 10146 H 941.136 3.12436 0.84649 0
M  V30 10147 H 940.043 3.44944 -1.44792 0
M  V30 10148 H 941.376 4.54598 -1.88684 0
M  V30 10149 N 943.028 0.824394 1.34319 0
M  V30 10150 C 944.276 0.41235 1.97849 0
M  V30 10151 C 944.597 -1.02841 1.65677 0
M  V30 10152 O 943.867 -1.71421 0.948245 0
M  V30 10153 H 942.447 0.149486 0.73189 0
M  V30 10154 H 945.109 1.05416 1.63931 0
M  V30 10155 H 944.205 0.532557 3.07523 0
M  V30 10156 N 944.506 -1.46559 0.579492 0
M  V30 10157 C 945.755 -2.01606 0.0615735 0
M  V30 10158 C 946.068 -1.45695 -1.30508 0
M  V30 10159 O 947.274 -1.92541 -1.91416 0
M  V30 10160 C 945.73 -3.59851 0.059496 0
M  V30 10161 C 945.338 -4.24757 1.42427 0
M  V30 10162 C 947.082 -4.22567 -0.404646 0
M  V30 10163 C 944.989 -5.75072 1.38009 0
M  V30 10164 H 943.919 -0.753754 0.0192491 0
M  V30 10165 H 946.57 -1.68326 0.73066 0
M  V30 10166 H 944.952 -3.90193 -0.675691 0
M  V30 10167 H 946.126 -4.06029 2.17893 0
M  V30 10168 H 944.441 -3.74121 1.82817 0
M  V30 10169 H 947.038 -5.32748 -0.456441 0
M  V30 10170 H 947.381 -3.91279 -1.42149 0
M  V30 10171 H 947.914 -3.96839 0.276376 0
M  V30 10172 H 944.653 -6.11014 2.37364 0
M  V30 10173 H 944.173 -5.96073 0.667583 0
M  V30 10174 H 945.852 -6.37724 1.09163 0
M  V30 10175 N 945.984 -0.3171 -1.54377 0
M  V30 10176 C 947.261 0.341348 -1.92598 0
M  V30 10177 C 947.641 1.70402 -1.24605 0
M  V30 10178 O 946.989 2.25191 -0.387448 0
M  V30 10179 C 947.199 0.440003 -3.46215 0
M  V30 10180 C 948.547 0.703327 -4.18734 0
M  V30 10181 O 949.571 0.523181 -3.52337 0
M  V30 10182 O 948.43 1.05042 -5.3631 0
M  V30 10183 H 945.524 0.193696 -0.803997 0
M  V30 10184 H 948.07 -0.366341 -1.65699 0
M  V30 10185 H 946.842 -0.517299 -3.87866 0
M  V30 10186 H 946.465 1.19553 -3.792 0
M  V30 10187 N 947.462 1.57535 -0.0451378 0
M  V30 10188 C 948.392 2.14208 0.929372 0
M  V30 10189 C 949.373 1.06221 1.32858 0
M  V30 10190 O 950.558 1.34132 1.40436 0
M  V30 10191 C 947.688 2.68217 2.20629 0
M  V30 10192 C 946.642 3.81134 1.94734 0
M  V30 10193 C 945.968 4.21636 3.28828 0
M  V30 10194 C 947.268 5.06531 1.27374 0
M  V30 10195 H 948.962 2.95886 0.457348 0
M  V30 10196 H 946.508 1.42332 0.218544 0
M  V30 10197 H 948.461 3.06502 2.89196 0
M  V30 10198 H 947.185 1.83722 2.70026 0
M  V30 10199 H 945.844 3.43312 1.28579 0
M  V30 10200 H 945.492 3.34099 3.76014 0
M  V30 10201 H 945.192 4.97736 3.12302 0
M  V30 10202 H 946.716 4.62516 3.98637 0
M  V30 10203 H 948.13 5.423 1.85967 0
M  V30 10204 H 946.527 5.87735 1.21194 0
M  V30 10205 H 947.597 4.84261 0.248913 0
M  V30 10206 N 948.94 -0.228186 1.55939 0
M  V30 10207 C 950.186 -0.954964 1.78909 0
M  V30 10208 C 950.519 -1.8425 0.613648 0
M  V30 10209 O 949.794 -1.90604 -0.38737 0
M  V30 10210 C 950.077 -1.79957 3.1191 0
M  V30 10211 C 949.93 -0.938968 4.3989 0
M  V30 10212 C 951.249 -2.77859 3.41295 0
M  V30 10213 H 948.368 -0.345745 0.650868 0
M  V30 10214 H 951.01 -0.224244 1.88672 0
M  V30 10215 H 949.16 -2.42256 3.03717 0
M  V30 10216 H 950.832 -0.333225 4.60095 0
M  V30 10217 H 949.075 -0.244096 4.33113 0
M  V30 10218 H 949.746 -1.56416 5.29375 0
M  V30 10219 H 952.222 -2.25695 3.49572 0
M  V30 10220 H 951.098 -3.34062 4.35538 0
M  V30 10221 H 951.359 -3.55266 2.63132 0
M  V30 10222 N 950.418 -1.49637 -0.494624 0
M  V30 10223 C 951.646 -1.63164 -1.2722 0
M  V30 10224 C 952.061 -0.305552 -1.86311 0
M  V30 10225 O 951.418 0.709758 -1.68133 0
M  V30 10226 C 951.469 -2.70524 -2.39789 0
M  V30 10227 O 951.19 -3.97991 -1.83126 0
M  V30 10228 C 952.691 -2.94814 -3.31058 0
M  V30 10229 H 949.911 -0.54912 -0.385627 0
M  V30 10230 H 952.455 -1.95711 -0.593081 0
M  V30 10231 H 950.61 -2.40738 -3.03519 0
M  V30 10232 H 951.024 -4.57179 -2.57075 0
M  V30 10233 H 952.498 -3.73653 -4.06309 0
M  V30 10234 H 952.975 -2.04974 -3.88436 0
M  V30 10235 H 953.581 -3.26042 -2.73088 0
M  V30 10236 N 951.896 0.746133 -1.38819 0
M  V30 10237 C 953.173 1.49652 -1.25951 0
M  V30 10238 C 953.553 2.10663 0.135833 0
M  V30 10239 O 952.901 1.97682 1.14604 0
M  V30 10240 C 953.111 2.5569 -2.37537 0
M  V30 10241 C 954.459 3.22385 -2.76321 0
M  V30 10242 O 955.483 2.65998 -2.36904 0
M  V30 10243 O 954.342 4.2439 -3.44319 0
M  V30 10244 H 951.436 0.664019 -0.492958 0
M  V30 10245 H 953.982 0.780908 -1.50665 0
M  V30 10246 H 952.754 2.08908 -3.30867 0
M  V30 10247 H 952.377 3.34823 -2.14427 0
M  V30 10248 N 953.375 1.23811 0.975125 0
M  V30 10249 C 954.285 1.0408 2.10249 0
M  V30 10250 C 955.301 -0.0162404 1.73992 0
M  V30 10251 O 956.477 0.180346 2.00591 0
M  V30 10252 C 953.542 0.640013 3.40741 0
M  V30 10253 C 952.603 1.7727 3.90991 0
M  V30 10254 C 951.836 1.39094 5.15256 0
M  V30 10255 O 952.059 0.277483 5.69725 0
M  V30 10256 O 950.993 2.21392 5.59704 0
M  V30 10257 H 954.819 1.98575 2.29786 0
M  V30 10258 H 952.404 1.02563 1.08633 0
M  V30 10259 H 954.286 0.427684 4.19224 0
M  V30 10260 H 952.961 -0.27589 3.22522 0
M  V30 10261 H 951.868 2.03971 3.13602 0
M  V30 10262 H 953.201 2.66711 4.13674 0
M  V30 10263 N 954.853 -1.17469 1.05066 0
M  V30 10264 C 955.816 -2.19648 0.654793 0
M  V30 10265 C 956.816 -1.58107 -0.293063 0
M  V30 10266 O 958.006 -1.74029 -0.077106 0
M  V30 10267 C 955.138 -3.40878 -0.0384437 0
M  V30 10268 H 956.331 -2.56184 1.55915 0
M  V30 10269 H 953.884 -1.31528 0.844396 0
M  V30 10270 H 954.619 -3.09885 -0.956133 0
M  V30 10271 H 954.404 -3.86792 0.642961 0
M  V30 10272 H 955.894 -4.1651 -0.301568 0
M  V30 10273 N 956.331 -0.831506 -1.3388 0
M  V30 10274 C 957.241 -0.261688 -2.33136 0
M  V30 10275 C 958.257 0.608429 -1.63016 0
M  V30 10276 O 959.433 0.514297 -1.94723 0
M  V30 10277 C 956.498 0.559957 -3.42148 0
M  V30 10278 C 955.559 -0.333569 -4.28002 0
M  V30 10279 C 954.792 0.448956 -5.31808 0
M  V30 10280 O 955.015 1.6814 -5.45055 0
M  V30 10281 O 953.949 -0.173197 -6.01651 0
M  V30 10282 H 957.775 -1.08343 -2.83717 0
M  V30 10283 H 955.36 -0.593849 -1.3709 0
M  V30 10284 H 957.242 1.02712 -4.08691 0
M  V30 10285 H 955.917 1.35888 -2.93796 0
M  V30 10286 H 954.824 -0.848416 -3.64352 0
M  V30 10287 H 956.157 -1.09707 -4.79818 0
M  V30 10288 N 957.809 1.4625 -0.587256 0
M  V30 10289 C 958.772 2.28812 0.133238 0
M  V30 10290 C 959.772 1.38645 0.814513 0
M  V30 10291 O 960.962 1.60975 0.665774 0
M  V30 10292 C 958.094 3.19147 1.19824 0
M  V30 10293 H 959.287 2.93991 -0.592386 0
M  V30 10294 H 956.84 1.52435 -0.345416 0
M  V30 10295 H 957.575 2.58725 1.95529 0
M  V30 10296 H 957.36 3.85541 0.71418 0
M  V30 10297 H 958.85 3.81278 1.70344 0
M  V30 10298 N 959.287 0.325282 1.54207 0
M  V30 10299 C 960.512 -0.281418 2.05482 0
M  V30 10300 C 960.937 -1.44869 1.19977 0
M  V30 10301 O 960.295 -1.80088 0.209275 0
M  V30 10302 C 960.343 -0.692029 3.53897 0
M  V30 10303 O 959.447 -1.7942 3.71325 0
M  V30 10304 H 958.788 -0.0504872 0.662078 0
M  V30 10305 H 961.318 0.474191 1.99029 0
M  V30 10306 H 961.328 -0.974219 3.96198 0
M  V30 10307 H 960.003 0.161709 4.15586 0
M  V30 10308 H 958.58 -1.51069 3.40929 0
M  V30 10309 N 960.765 -1.57509 0.0534917 0
M  V30 10310 C 961.712 -2.11667 -0.920101 0
M  V30 10311 C 962.682 -1.0246 -1.30733 0
M  V30 10312 O 963.867 -1.30021 -1.39639 0
M  V30 10313 C 961.007 -2.66803 -2.18883 0
M  V30 10314 C 960.12 -3.90104 -1.85588 0
M  V30 10315 C 959.255 -4.33547 -3.06937 0
M  V30 10316 C 958.294 -5.49542 -2.69573 0
M  V30 10317 N 957.431 -5.88029 -3.83623 0
M  V30 10318 H 962.271 -2.94562 -0.451371 0
M  V30 10319 H 959.808 -1.45576 -0.211168 0
M  V30 10320 H 961.766 -2.96871 -2.93127 0
M  V30 10321 H 960.396 -1.86702 -2.63329 0
M  V30 10322 H 959.448 -3.66613 -1.01484 0
M  V30 10323 H 960.76 -4.74404 -1.54087 0
M  V30 10324 H 959.914 -4.6518 -3.89477 0
M  V30 10325 H 958.653 -3.48064 -3.41618 0
M  V30 10326 H 957.658 -5.17579 -1.8545 0
M  V30 10327 H 958.883 -6.36743 -2.36082 0
M  V30 10328 H 956.829 -5.05498 -4.181 0
M  V30 10329 H 956.746 -6.67025 -3.55828 0
M  V30 10330 H 958.014 -6.24277 -4.66796 0
M  V30 10331 N 962.243 0.219913 -1.56058 0
M  V30 10332 C 963.49 0.944064 -1.79147 0
M  V30 10333 C 963.818 1.84268 -0.622531 0
M  V30 10334 O 963.073 1.91713 0.393013 0
M  V30 10335 C 963.372 1.81293 -3.08006 0
M  V30 10336 C 963.038 1.0674 -4.38084 0
M  V30 10337 C 961.7 0.86147 -4.73426 0
M  V30 10338 C 964.052 0.541049 -5.18384 0
M  V30 10339 C 961.38 0.117307 -5.86583 0
M  V30 10340 C 963.732 -0.189779 -6.32315 0
M  V30 10341 C 962.396 -0.406951 -6.66258 0
M  V30 10342 H 961.666 0.345458 -0.655546 0
M  V30 10343 H 964.313 0.212121 -1.90322 0
M  V30 10344 H 962.618 2.61278 -2.9196 0
M  V30 10345 H 964.315 2.3754 -3.23072 0
M  V30 10346 H 960.905 1.23789 -4.10334 0
M  V30 10347 H 965.089 0.687617 -4.91514 0
M  V30 10348 H 960.345 -0.0611651 -6.11369 0
M  V30 10349 H 964.519 -0.605134 -6.93766 0
M  V30 10350 H 962.146 -0.985511 -7.53785 0
M  V30 10351 N 963.721 1.49897 0.486681 0
M  V30 10352 C 964.967 1.60342 1.2417 0
M  V30 10353 C 965.3 0.295694 1.91936 0
M  V30 10354 O 964.575 -0.701788 1.81398 0
M  V30 10355 C 964.858 2.77281 2.29755 0
M  V30 10356 C 964.711 4.1789 1.66397 0
M  V30 10357 C 966.03 2.89817 3.31201 0
M  V30 10358 H 963.149 0.583605 0.450083 0
M  V30 10359 H 965.791 1.82232 0.537734 0
M  V30 10360 H 963.941 2.58748 2.89796 0
M  V30 10361 H 965.613 4.47975 1.10073 0
M  V30 10362 H 963.856 4.22872 0.967579 0
M  V30 10363 H 964.527 4.95612 2.43049 0
M  V30 10364 H 967.003 3.06732 2.81167 0
M  V30 10365 H 965.879 3.7329 4.02425 0
M  V30 10366 H 966.14 1.9977 3.94391 0
M  V30 10367 N 965.199 -0.738761 1.39212 0
M  V30 10368 C 966.109 -1.88324 1.39897 0
M  V30 10369 C 967.125 -1.71494 0.294229 0
M  V30 10370 O 968.301 -1.94162 0.535087 0
M  V30 10371 C 965.366 -3.23871 1.23726 0
M  V30 10372 C 964.427 -3.53121 2.44139 0
M  V30 10373 C 963.66 -4.82202 2.2873 0
M  V30 10374 O 963.883 -5.55649 1.28879 0
M  V30 10375 O 962.817 -5.11265 3.17634 0
M  V30 10376 H 966.643 -1.90701 2.36362 0
M  V30 10377 H 964.228 -0.886067 1.20288 0
M  V30 10378 H 966.11 -4.04882 1.16826 0
M  V30 10379 H 964.785 -3.22274 0.303551 0
M  V30 10380 H 963.692 -2.72212 2.56615 0
M  V30 10381 H 965.025 -3.59495 3.36191 0
M  V30 10382 N 966.677 -1.24326 -0.968545 0
M  V30 10383 C 967.587 -1.05194 -2.09694 0
M  V30 10384 C 968.603 0.00701291 -1.73999 0
M  V30 10385 O 969.779 -0.190981 -2.00492 0
M  V30 10386 C 966.844 -0.658075 -3.40397 0
M  V30 10387 C 965.905 -1.79341 -3.90045 0
M  V30 10388 C 965.138 -1.41824 -5.14511 0
M  V30 10389 O 965.361 -0.307693 -5.69569 0
M  V30 10390 O 964.295 -2.24358 -5.58522 0
M  V30 10391 H 968.121 -1.99791 -2.2873 0
M  V30 10392 H 965.706 -1.03138 -1.08088 0
M  V30 10393 H 967.588 -0.449911 -4.18991 0
M  V30 10394 H 966.263 0.258782 -3.22664 0
M  V30 10395 H 965.17 -2.05632 -3.12516 0
M  V30 10396 H 966.503 -2.68901 -4.12254 0
M  V30 10397 N 968.156 1.1691 -1.05688 0
M  V30 10398 C 969.386 1.90927 -0.789339 0
M  V30 10399 C 969.794 1.77339 0.659369 0
M  V30 10400 O 969.137 1.11147 1.4626 0
M  V30 10401 C 969.199 3.42361 -1.09677 0
M  V30 10402 C 968.863 3.79733 -2.54267 0
M  V30 10403 C 969.86 3.82163 -3.52487 0
M  V30 10404 C 967.545 4.10547 -2.89406 0
M  V30 10405 C 969.539 4.14884 -4.8389 0
M  V30 10406 C 967.226 4.42936 -4.21011 0
M  V30 10407 C 968.224 4.45084 -5.18063 0
M  V30 10408 O 967.912 4.76707 -6.47307 0
M  V30 10409 H 967.644 0.612466 -0.286115 0
M  V30 10410 H 970.198 1.4916 -1.4121 0
M  V30 10411 H 968.428 3.84446 -0.416924 0
M  V30 10412 H 970.117 3.97645 -0.814456 0
M  V30 10413 H 970.883 3.58476 -3.26681 0
M  V30 10414 H 966.762 4.08044 -2.14525 0
M  V30 10415 H 970.306 4.16475 -5.59638 0
M  V30 10416 H 966.203 4.66088 -4.46579 0
M  V30 10417 H 966.971 4.94544 -6.52203 0
M  V30 10418 N 969.634 0.838594 1.33437 0
M  V30 10419 C 970.911 0.356112 1.92331 0
M  V30 10420 C 971.291 -1.1585 1.76471 0
M  V30 10421 O 970.639 -1.97281 1.15293 0
M  V30 10422 C 970.849 0.802715 3.39643 0
M  V30 10423 C 972.197 0.810575 4.16791 0
M  V30 10424 O 973.221 0.746304 3.48294 0
M  V30 10425 O 972.08 0.898082 5.3907 0
M  V30 10426 H 969.174 0.100711 0.820845 0
M  V30 10427 H 971.72 0.924428 1.42311 0
M  V30 10428 H 970.492 1.84529 3.45057 0
M  V30 10429 H 970.115 0.210956 3.9704 0
M  V30 10430 N 971.112 -1.45937 0.595003 0
M  V30 10431 C 972.528 -1.57507 0.257641 0
M  V30 10432 C 972.728 -1.58829 -1.23998 0
M  V30 10433 O 971.784 -1.51183 -2.02237 0
M  V30 10434 C 973.097 -2.86354 0.917708 0
M  V30 10435 C 974.645 -3.00007 0.892446 0
M  V30 10436 C 975.12 -4.31607 1.53229 0
M  V30 10437 N 976.611 -4.38336 1.49719 0
M  V30 10438 C 977.346 -5.38805 1.96154 0
M  V30 10439 N 976.842 -6.45882 2.50617 0
M  V30 10440 N 978.635 -5.30084 1.86997 0
M  V30 10441 H 970.786 -1.43322 1.56756 0
M  V30 10442 H 973.049 -0.684436 0.655936 0
M  V30 10443 H 972.755 -2.91233 1.97171 0
M  V30 10444 H 972.629 -3.74703 0.433344 0
M  V30 10445 H 975.016 -2.94703 -0.152975 0
M  V30 10446 H 975.097 -2.13103 1.41495 0
M  V30 10447 H 974.741 -4.3767 2.57697 0
M  V30 10448 H 974.671 -5.17308 0.984903 0
M  V30 10449 H 977.162 -3.6156 1.09921 0
M  V30 10450 H 977.475 -7.18774 2.83874 0
M  V30 10451 H 975.82 -6.46668 2.54649 0
M  V30 10452 H 979.011 -4.45337 1.44196 0
M  V30 10453 H 979.184 -6.08237 2.23499 0
M  V30 10454 N 972.59 -0.333456 -1.54032 0
M  V30 10455 C 973.818 0.267813 -2.05159 0
M  V30 10456 C 974.233 1.4501 -1.20903 0
M  V30 10457 O 973.59 1.80888 -0.241994 0
M  V30 10458 C 973.641 0.69268 -3.54802 0
M  V30 10459 O 973.362 -0.442579 -4.35859 0
M  V30 10460 C 974.863 1.35572 -4.2206 0
M  V30 10461 H 972.083 0.0534924 -0.668864 0
M  V30 10462 H 974.627 -0.482515 -1.98726 0
M  V30 10463 H 972.782 1.39297 -3.6149 0
M  V30 10464 H 973.196 -0.105915 -5.24393 0
M  V30 10465 H 974.67 1.60385 -5.28186 0
M  V30 10466 H 975.147 2.30614 -3.73783 0
M  V30 10467 H 975.753 0.697748 -4.19537 0
M  V30 10468 N 974.068 1.57479 -0.061844 0
M  V30 10469 C 975.293 1.97843 0.622311 0
M  V30 10470 C 975.718 0.939602 1.62951 0
M  V30 10471 O 975.076 -0.095958 1.81046 0
M  V30 10472 C 975.124 3.37262 1.2762 0
M  V30 10473 O 974.228 3.35943 2.39199 0
M  V30 10474 H 973.569 0.644212 0.160896 0
M  V30 10475 H 976.099 2.04165 -0.133409 0
M  V30 10476 H 976.109 3.74226 1.62539 0
M  V30 10477 H 974.784 4.12404 0.538112 0
M  V30 10478 H 973.361 3.10737 2.06148 0
M  V30 10479 N 975.546 -0.211634 1.56173 0
M  V30 10480 C 976.478 -1.286 1.89723 0
M  V30 10481 C 977.491 -1.42549 0.786361 0
M  V30 10482 O 978.68 -1.4327 1.06471 0
M  V30 10483 C 975.78 -2.66036 2.09948 0
M  V30 10484 C 974.953 -2.73908 3.41018 0
M  V30 10485 C 974.012 -3.92425 3.50555 0
M  V30 10486 O 973.038 -3.803 4.2351 0
M  V30 10487 N 974.24 -5.07165 2.82426 0
M  V30 10488 H 977.005 -1.00142 2.82474 0
M  V30 10489 H 974.566 -0.401633 1.56839 0
M  V30 10490 H 976.558 -3.43719 2.13634 0
M  V30 10491 H 975.128 -2.87052 1.23774 0
M  V30 10492 H 974.348 -1.82625 3.49345 0
M  V30 10493 H 975.636 -2.76145 4.27342 0
M  V30 10494 H 975.034 -5.19913 2.2295 0
M  V30 10495 H 973.591 -5.82855 2.9176 0
M  V30 10496 N 977.024 -1.50153 -0.478725 0
M  V30 10497 C 978.27 -1.60998 -1.23318 0
M  V30 10498 C 978.603 -0.305868 -1.91776 0
M  V30 10499 O 977.878 0.692158 -1.81767 0
M  V30 10500 C 978.161 -2.78495 -2.28282 0
M  V30 10501 C 978.014 -4.18767 -1.64178 0
M  V30 10502 C 979.333 -2.91569 -3.2966 0
M  V30 10503 H 976.452 -0.585983 -0.446982 0
M  V30 10504 H 979.094 -1.82514 -0.528063 0
M  V30 10505 H 977.244 -2.60281 -2.8842 0
M  V30 10506 H 978.916 -4.48552 -1.07696 0
M  V30 10507 H 977.159 -4.23379 -0.94514 0
M  V30 10508 H 977.83 -4.96894 -2.40417 0
M  V30 10509 H 980.306 -3.08219 -2.79536 0
M  V30 10510 H 979.182 -3.75419 -4.0044 0
M  V30 10511 H 979.443 -2.01859 -3.93326 0
M  V30 10512 N 978.502 0.731368 -1.39602 0
M  V30 10513 C 979.748 1.49321 -1.37227 0
M  V30 10514 C 980.081 1.94176 0.0306502 0
M  V30 10515 O 979.356 1.67046 0.996294 0
M  V30 10516 C 979.639 2.73035 -2.34784 0
M  V30 10517 C 979.492 2.34176 -3.84033 0
M  V30 10518 C 980.811 3.75146 -2.30116 0
M  V30 10519 H 977.93 0.541652 -0.499783 0
M  V30 10520 H 980.572 0.835968 -1.70621 0
M  V30 10521 H 978.722 3.29114 -2.06437 0
M  V30 10522 H 980.394 1.83701 -4.23145 0
M  V30 10523 H 978.637 1.66361 -4.00633 0
M  V30 10524 H 979.308 3.22786 -4.47787 0
M  V30 10525 H 981.784 3.28661 -2.55189 0
M  V30 10526 H 980.66 4.5937 -3.00451 0
M  V30 10527 H 980.921 4.22326 -1.30741 0
M  V30 10528 N 979.98 1.24838 0.961938 0
M  V30 10529 C 981.226 1.10321 1.70883 0
M  V30 10530 C 981.581 -0.353397 1.89127 0
M  V30 10531 O 980.874 -1.25721 1.44584 0
M  V30 10532 C 981.068 1.78289 3.09754 0
M  V30 10533 C 980.897 3.30409 3.05057 0
M  V30 10534 C 979.667 3.9964 3.09218 0
M  V30 10535 C 981.865 4.26916 2.86787 0
M  V30 10536 N 979.847 5.38594 2.94601 0
M  V30 10537 C 981.218 5.52906 2.80526 0
M  V30 10538 C 983.273 4.17421 2.71412 0
M  V30 10539 C 981.976 6.70487 2.60461 0
M  V30 10540 C 984.002 5.34686 2.52715 0
M  V30 10541 C 983.364 6.59611 2.47168 0
M  V30 10542 H 979.463 0.458353 0.63359 0
M  V30 10543 H 982.047 1.57835 1.14001 0
M  V30 10544 H 980.218 1.33281 3.64816 0
M  V30 10545 H 981.95 1.5658 3.73182 0
M  V30 10546 H 978.705 3.50847 3.18125 0
M  V30 10547 H 979.129 6.11497 2.90517 0
M  V30 10548 H 983.771 3.21592 2.74479 0
M  V30 10549 H 981.489 7.66433 2.56136 0
M  V30 10550 H 985.075 5.29194 2.41754 0
M  V30 10551 H 983.955 7.48821 2.32888 0
M  V30 10552 N 981.458 -1.16348 1.06306 0
M  V30 10553 C 982.406 -2.22799 0.668087 0
M  V30 10554 C 983.4 -1.66426 -0.316051 0
M  V30 10555 O 984.606 -1.79089 -0.180902 0
M  V30 10556 H 980.981 -0.725487 0.19792 0
M  V30 10557 H 982.952 -2.53401 1.57577 0
M  V30 10558 C 981.701 -3.47628 0.0706797 0
M  V30 10559 H 981.024 -3.9132 0.819064 0
M  V30 10560 H 982.464 -4.23666 -0.16816 0
M  V30 10561 C 980.923 -3.15343 -1.18577 0
M  V30 10562 O 981.453 -3.31158 -2.27371 0
M  V30 10563 N 979.659 -2.69472 -1.08779 0
M  V30 10564 H 979.206 -2.56803 -0.202447 0
M  V30 10565 H 979.164 -2.48244 -1.92931 0
M  V30 10566 N 982.937 -0.845659 -1.3299 0
M  V30 10567 C 983.847 -0.2864 -2.32845 0
M  V30 10568 C 984.863 0.591105 -1.63652 0
M  V30 10569 O 986.039 0.493615 -1.95257 0
M  V30 10570 C 983.104 0.523636 -3.42723 0
M  V30 10571 C 982.165 -0.378945 -4.27624 0
M  V30 10572 C 981.398 0.392526 -5.32255 0
M  V30 10573 O 981.621 1.6235 -5.46808 0
M  V30 10574 O 980.555 -0.237 -6.01433 0
M  V30 10575 H 984.381 -1.11346 -2.82552 0
M  V30 10576 H 981.966 -0.608356 -1.36453 0
M  V30 10577 H 983.848 0.983718 -4.09757 0
M  V30 10578 H 982.523 1.32764 -2.95221 0
M  V30 10579 H 981.43 -0.887012 -3.63432 0
M  V30 10580 H 982.763 -1.1479 -4.78627 0
M  V30 10581 N 984.415 1.45619 -0.602734 0
M  V30 10582 C 985.645 2.06348 -0.102105 0
M  V30 10583 C 986.053 1.44884 1.21677 0
M  V30 10584 O 985.396 0.555559 1.75098 0
M  V30 10585 C 985.458 3.59309 0.117026 0
M  V30 10586 C 985.122 4.43081 -1.11931 0
M  V30 10587 C 986.119 4.78364 -2.03627 0
M  V30 10588 C 983.804 4.83908 -1.34677 0
M  V30 10589 C 985.798 5.53325 -3.16403 0
M  V30 10590 C 983.485 5.58624 -2.47754 0
M  V30 10591 C 984.483 5.93249 -3.38445 0
M  V30 10592 O 984.171 6.6645 -4.49555 0
M  V30 10593 H 983.903 0.672988 -0.0637478 0
M  V30 10594 H 986.457 1.87928 -0.828983 0
M  V30 10595 H 984.687 3.76111 0.898742 0
M  V30 10596 H 986.376 4.01897 0.568649 0
M  V30 10597 H 987.142 4.47384 -1.87277 0
M  V30 10598 H 983.021 4.56396 -0.649875 0
M  V30 10599 H 986.565 5.80268 -3.87214 0
M  V30 10600 H 982.462 5.89019 -2.64059 0
M  V30 10601 H 983.23 6.84895 -4.48175 0
M  V30 10602 N 985.893 0.34162 1.53853 0
M  V30 10603 C 986.856 -0.503541 2.236 0
M  V30 10604 C 987.856 -1.02912 1.23554 0
M  V30 10605 O 989.046 -0.918678 1.48007 0
M  V30 10606 C 986.178 -1.70126 2.95415 0
M  V30 10607 H 987.371 0.106437 2.99711 0
M  V30 10608 H 984.924 0.0929408 1.56023 0
M  V30 10609 H 985.659 -2.34999 2.23486 0
M  V30 10610 H 985.444 -1.33161 3.68796 0
M  V30 10611 H 986.934 -2.30077 3.48503 0
M  V30 10612 N 987.371 -1.57444 0.0701946 0
M  V30 10613 C 988.281 -2.16132 -0.912377 0
M  V30 10614 C 989.297 -1.12406 -1.32819 0
M  V30 10615 O 990.473 -1.44665 -1.40121 0
M  V30 10616 C 987.538 -2.71008 -2.16231 0
M  V30 10617 C 986.599 -3.896 -1.80306 0
M  V30 10618 C 985.832 -4.4185 -2.9934 0
M  V30 10619 O 986.055 -3.93106 -4.13309 0
M  V30 10620 O 984.989 -5.33201 -2.7925 0
M  V30 10621 H 988.815 -3.00449 -0.443167 0
M  V30 10622 H 986.4 -1.48617 -0.152786 0
M  V30 10623 H 988.282 -3.06186 -2.8953 0
M  V30 10624 H 986.957 -1.8975 -2.62253 0
M  V30 10625 H 985.864 -3.59277 -1.04264 0
M  V30 10626 H 987.197 -4.72145 -1.39068 0
M  V30 10627 N 988.849 0.203349 -1.56283 0
M  V30 10628 C 989.812 1.23566 -1.93039 0
M  V30 10629 C 990.812 1.38869 -0.810687 0
M  V30 10630 O 992.002 1.36822 -1.07821 0
M  V30 10631 C 989.134 2.60645 -2.1972 0
M  V30 10632 H 990.327 0.921692 -2.85385 0
M  V30 10633 H 987.88 0.44453 -1.49845 0
M  V30 10634 H 988.615 2.9711 -1.29985 0
M  V30 10635 H 988.4 2.50911 -3.01307 0
M  V30 10636 H 989.89 3.35103 -2.4919 0
M  V30 10637 N 990.327 1.50405 0.470755 0
M  V30 10638 C 991.275 1.6982 1.58946 0
M  V30 10639 C 992.269 0.56407 1.59733 0
M  V30 10640 O 993.475 0.744576 1.63878 0
M  V30 10641 H 989.85 0.536016 0.527438 0
M  V30 10642 H 991.821 2.63662 1.39732 0
M  V30 10643 C 990.57 1.80986 2.96883 0
M  V30 10644 H 989.893 2.67645 2.96996 0
M  V30 10645 H 991.333 1.98596 3.74614 0
M  V30 10646 C 989.792 0.561551 3.32187 0
M  V30 10647 O 990.322 -0.299136 4.00585 0
M  V30 10648 N 988.528 0.415476 2.87615 0
M  V30 10649 H 988.075 1.11691 2.32127 0
M  V30 10650 H 988.033 -0.418592 3.11601 0
M  V30 10651 N 991.805 -0.723954 1.39988 0
M  V30 10652 C 993.051 -1.48476 1.3902 0
M  V30 10653 C 993.406 -1.92397 -0.0105439 0
M  V30 10654 O 992.699 -1.64683 -0.979294 0
M  V30 10655 C 992.893 -2.73004 2.30659 0
M  V30 10656 C 992.722 -2.41261 3.79504 0
M  V30 10657 C 991.492 -2.33013 4.48367 0
M  V30 10658 C 993.69 -2.06078 4.71207 0
M  V30 10659 N 991.672 -1.93856 5.82489 0
M  V30 10660 C 993.043 -1.77455 5.94062 0
M  V30 10661 C 995.098 -1.92642 4.59123 0
M  V30 10662 C 993.801 -1.36748 7.06182 0
M  V30 10663 C 995.827 -1.53338 5.71175 0
M  V30 10664 C 995.189 -1.25607 6.93111 0
M  V30 10665 H 991.288 -0.54172 0.563971 0
M  V30 10666 H 993.872 -0.840344 1.75631 0
M  V30 10667 H 992.043 -3.35209 1.96188 0
M  V30 10668 H 993.775 -3.39286 2.20606 0
M  V30 10669 H 990.53 -2.50476 4.01944 0
M  V30 10670 H 990.954 -1.7684 6.53496 0
M  V30 10671 H 995.596 -2.12745 3.65376 0
M  V30 10672 H 993.314 -1.15386 7.9982 0
M  V30 10673 H 996.9 -1.43532 5.63817 0
M  V30 10674 H 995.78 -0.956505 7.78345 0
M  V30 10675 N 993.283 -1.25346 -0.955304 0
M  V30 10676 C 994.231 -1.05461 -2.07318 0
M  V30 10677 C 995.225 0.0142699 -1.69394 0
M  V30 10678 O 996.431 -0.141292 -1.79445 0
M  V30 10679 H 992.806 -0.324095 -0.678577 0
M  V30 10680 H 994.777 -2.00231 -2.21247 0
M  V30 10681 C 993.526 -0.689329 -3.40798 0
M  V30 10682 H 992.849 -1.50362 -3.70447 0
M  V30 10683 H 994.289 -0.589883 -4.19877 0
M  V30 10684 C 992.748 0.604556 -3.31431 0
M  V30 10685 O 993.278 1.64686 -3.6639 0
M  V30 10686 N 991.484 0.589927 -2.84549 0
M  V30 10687 H 991.031 -0.258647 -2.56298 0
M  V30 10688 H 990.989 1.4558 -2.78664 0
M  V30 10689 N 994.761 1.15782 -1.06922 0
M  V30 10690 C 995.991 1.90079 -0.809545 0
M  V30 10691 C 996.399 1.78028 0.640523 0
M  V30 10692 O 995.742 1.12692 1.45073 0
M  V30 10693 C 995.804 3.41179 -1.13302 0
M  V30 10694 C 995.468 3.77015 -2.5828 0
M  V30 10695 C 996.465 3.78403 -3.56521 0
M  V30 10696 C 994.15 4.07455 -2.93745 0
M  V30 10697 C 996.144 4.09729 -4.88264 0
M  V30 10698 C 993.831 4.38446 -4.25686 0
M  V30 10699 C 994.829 4.39564 -5.22755 0
M  V30 10700 O 994.517 4.69814 -6.52326 0
M  V30 10701 H 994.249 0.609397 -0.292595 0
M  V30 10702 H 996.803 1.47654 -1.42784 0
M  V30 10703 H 995.033 3.83982 -0.457676 0
M  V30 10704 H 996.722 3.96759 -0.856586 0
M  V30 10705 H 997.488 3.54991 -3.30464 0
M  V30 10706 H 993.367 4.05746 -2.1884 0
M  V30 10707 H 996.911 4.10516 -5.64023 0
M  V30 10708 H 992.808 4.61325 -4.51497 0
M  V30 10709 H 993.576 4.87598 -6.57412 0
M  V30 10710 N 996.239 0.8527 1.3254 0
M  V30 10711 C 997.187 0.284659 2.30852 0
M  V30 10712 C 998.181 -0.5909 1.5876 0
M  V30 10713 O 999.387 -0.478922 1.73512 0
M  V30 10714 H 995.762 0.0733452 0.748415 0
M  V30 10715 H 997.733 1.1281 2.76254 0
M  V30 10716 C 996.482 -0.51379 3.43883 0
M  V30 10717 H 995.805 0.150644 3.99516 0
M  V30 10718 H 997.245 -0.876866 4.14834 0
M  V30 10719 C 995.704 -1.69823 2.90967 0
M  V30 10720 O 996.234 -2.79727 2.88298 0
M  V30 10721 N 994.44 -1.52465 2.47392 0
M  V30 10722 H 993.987 -0.630599 2.49762 0
M  V30 10723 H 993.945 -2.31859 2.12341 0
M  V30 10724 N 997.718 -1.45297 0.610449 0
M  V30 10725 C 998.946 -2.0659 0.113211 0
M  V30 10726 C 999.361 -1.4546 -1.20361 0
M  V30 10727 O 998.718 -0.569823 -1.73376 0
M  V30 10728 C 998.769 -3.61488 -0.0298411 0
M  V30 10729 O 998.49 -4.20336 1.23488 0
M  V30 10730 C 999.991 -4.39772 -0.558202 0
M  V30 10731 H 997.211 -0.667322 0.0701555 0
M  V30 10732 H 999.755 -1.86497 0.838993 0
M  V30 10733 H 997.91 -3.80913 -0.705963 0
M  V30 10734 H 998.324 -5.13545 1.0664 0
M  V30 10735 H 999.798 -5.48648 -0.607375 0
M  V30 10736 H 1000.27 -4.09755 -1.58107 0
M  V30 10737 H 1000.88 -4.25217 0.0839704 0
M  V30 10738 N 999.196 -0.349774 -1.5367 0
M  V30 10739 C 1000.14 0.519396 -2.26727 0
M  V30 10740 C 1001.14 1.09673 -1.29105 0
M  V30 10741 O 1002.34 1.04176 -1.46791 0
M  V30 10742 H 998.719 0.186192 -0.728585 0
M  V30 10743 H 1000.69 -0.118736 -2.98164 0
M  V30 10744 C 999.439 1.65535 -3.05767 0
M  V30 10745 H 998.762 1.22038 -3.80719 0
M  V30 10746 H 1000.2 2.23856 -3.6009 0
M  V30 10747 C 998.661 2.58844 -2.15642 0
M  V30 10748 O 999.191 3.61254 -1.75665 0
M  V30 10749 N 997.397 2.27671 -1.80595 0
M  V30 10750 H 996.944 1.44429 -2.13302 0
M  V30 10751 H 996.902 2.90359 -1.20577 0
M  V30 10752 N 1000.67 1.57404 -0.0785433 0
M  V30 10753 C 1001.92 1.9292 0.588626 0
M  V30 10754 C 1002.24 0.961106 1.70359 0
M  V30 10755 O 1003.44 1.20934 2.43079 0
M  V30 10756 C 1001.9 3.42729 1.09839 0
M  V30 10757 C 1001.51 4.47998 0.0140773 0
M  V30 10758 C 1003.25 3.87235 1.73924 0
M  V30 10759 C 1001.16 5.88945 0.538269 0
M  V30 10760 H 1000.09 0.720069 0.223645 0
M  V30 10761 H 1002.74 1.8287 -0.15187 0
M  V30 10762 H 1001.12 3.47875 1.89207 0
M  V30 10763 H 1002.29 4.54476 -0.760773 0
M  V30 10764 H 1000.61 4.13001 -0.53095 0
M  V30 10765 H 1003.21 4.89927 2.14186 0
M  V30 10766 H 1003.55 3.24971 2.60191 0
M  V30 10767 H 1004.08 3.84721 1.01168 0
M  V30 10768 H 1000.82 6.5487 -0.287395 0
M  V30 10769 H 1000.34 5.85972 1.28049 0
M  V30 10770 H 1002.02 6.39028 1.01253 0
M  V30 10771 N 1002.15 -0.195058 1.56388 0
M  V30 10772 C 1003.38 -0.931642 1.84738 0
M  V30 10773 C 1003.79 -1.76849 0.661046 0
M  V30 10774 O 1003.15 -1.78705 -0.370241 0
M  V30 10775 C 1003.2 -1.82777 3.11889 0
M  V30 10776 O 1002.92 -1.02471 4.25948 0
M  V30 10777 C 1004.42 -2.67603 3.53417 0
M  V30 10778 H 1001.64 -0.271821 0.613477 0
M  V30 10779 H 1004.19 -0.202299 2.03497 0
M  V30 10780 H 1002.34 -2.51074 2.95027 0
M  V30 10781 H 1002.76 -1.63539 4.98353 0
M  V30 10782 H 1004.23 -3.26138 4.45352 0
M  V30 10783 H 1004.71 -3.41314 2.76408 0
M  V30 10784 H 1005.31 -2.04678 3.7281 0
M  V30 10785 N 1003.63 -1.50653 -0.462772 0
M  V30 10786 C 1004.86 -1.65826 -1.23731 0
M  V30 10787 C 1005.27 -0.345002 -1.85621 0
M  V30 10788 O 1004.63 0.673935 -1.69601 0
M  V30 10789 C 1004.68 -2.7555 -2.33997 0
M  V30 10790 O 1004.4 -4.01785 -1.74643 0
M  V30 10791 C 1005.9 -3.0177 -3.2473 0
M  V30 10792 H 1003.12 -0.557177 -0.373892 0
M  V30 10793 H 1005.67 -1.96925 -0.551434 0
M  V30 10794 H 1003.82 -2.47122 -2.98345 0
M  V30 10795 H 1004.24 -4.62529 -2.4732 0
M  V30 10796 H 1005.71 -3.82188 -3.98292 0
M  V30 10797 H 1006.19 -2.13167 -3.84001 0
M  V30 10798 H 1006.79 -3.31761 -2.66111 0
M  V30 10799 N 1005.11 0.71652 -1.4037 0
M  V30 10800 C 1006.02 1.86074 -1.42876 0
M  V30 10801 C 1007.03 1.71005 -0.321475 0
M  V30 10802 O 1008.21 1.93286 -0.565909 0
M  V30 10803 C 1005.28 3.21862 -1.28863 0
M  V30 10804 C 1004.34 3.49193 -2.49726 0
M  V30 10805 C 1003.57 4.78502 -2.36372 0
M  V30 10806 O 1003.79 5.53529 -1.37703 0
M  V30 10807 O 1002.73 5.06147 -3.25728 0
M  V30 10808 H 1006.55 1.86916 -2.39366 0
M  V30 10809 H 1004.14 0.866818 -1.21683 0
M  V30 10810 H 1006.02 4.02972 -1.23253 0
M  V30 10811 H 1004.69 3.2175 -0.354783 0
M  V30 10812 H 1003.6 2.68095 -2.60913 0
M  V30 10813 H 1004.93 3.54101 -3.41868 0
M  V30 10814 N 1006.59 1.25851 0.948643 0
M  V30 10815 C 1007.81 1.13711 1.72851 0
M  V30 10816 C 1008.23 -0.308471 1.86263 0
M  V30 10817 O 1007.59 -1.21175 1.36465 0
M  V30 10818 C 1007.64 1.79271 3.13918 0
M  V30 10819 O 1007.36 3.18179 3.01154 0
M  V30 10820 C 1008.86 1.72988 4.08154 0
M  V30 10821 H 1006.08 0.396334 0.541443 0
M  V30 10822 H 1008.62 1.66329 1.18974 0
M  V30 10823 H 1006.78 1.30609 3.64719 0
M  V30 10824 H 1007.19 3.50507 3.90186 0
M  V30 10825 H 1008.67 2.2351 5.04725 0
M  V30 10826 H 1009.14 0.694866 4.33668 0
M  V30 10827 H 1009.75 2.21166 3.63271 0
M  V30 10828 N 1008.06 -1.15214 1.07534 0
M  V30 10829 C 1009.29 -1.90463 0.820883 0
M  V30 10830 C 1009.71 -1.77578 -0.620305 0
M  V30 10831 O 1009.07 -1.10976 -1.43366 0
M  V30 10832 C 1009.12 -3.38746 1.23627 0
M  V30 10833 O 1008.22 -4.1062 0.382715 0
M  V30 10834 H 1007.57 -0.59292 0.298901 0
M  V30 10835 H 1010.1 -1.45893 1.43445 0
M  V30 10836 H 1010.11 -3.89543 1.21327 0
M  V30 10837 H 1008.78 -3.47443 2.28596 0
M  V30 10838 H 1007.36 -3.69947 0.468374 0
M  V30 10839 N 1009.54 -0.859717 -1.32086 0
M  V30 10840 C 1010.49 -0.306042 -2.28762 0
M  V30 10841 C 1011.46 0.589801 -1.55276 0
M  V30 10842 O 1012.64 0.523633 -1.83474 0
M  V30 10843 C 1009.78 0.495256 -3.41528 0
M  V30 10844 C 1008.9 -0.426947 -4.29885 0
M  V30 10845 C 1008.03 0.387474 -5.29785 0
M  V30 10846 C 1007.07 -0.531807 -6.09785 0
M  V30 10847 N 1006.21 0.245741 -7.0167 0
M  V30 10848 H 1011.05 -1.1357 -2.7551 0
M  V30 10849 H 1008.59 -0.571468 -1.35546 0
M  V30 10850 H 1010.54 0.97551 -4.05635 0
M  V30 10851 H 1009.17 1.28969 -2.95917 0
M  V30 10852 H 1008.23 -1.02561 -3.66313 0
M  V30 10853 H 1009.54 -1.13226 -4.85779 0
M  V30 10854 H 1008.69 0.930677 -5.99519 0
M  V30 10855 H 1007.43 1.12612 -4.74521 0
M  V30 10856 H 1006.44 -1.08685 -5.3895 0
M  V30 10857 H 1007.66 -1.26915 -6.67135 0
M  V30 10858 H 1005.61 0.967391 -6.48828 0
M  V30 10859 H 1005.52 -0.400432 -7.54939 0
M  V30 10860 H 1006.79 0.770507 -7.75683 0
M  V30 10861 N 1011.02 1.44971 -0.618145 0
M  V30 10862 C 1012.27 2.01372 -0.115004 0
M  V30 10863 C 1012.58 1.49104 1.26599 0
M  V30 10864 O 1013.79 1.97549 1.86244 0
M  V30 10865 C 1012.24 3.59567 -0.154883 0
M  V30 10866 C 1011.85 4.20832 -1.53639 0
M  V30 10867 C 1013.6 4.23491 0.292468 0
M  V30 10868 C 1011.5 5.7121 -1.53208 0
M  V30 10869 H 1010.43 0.752979 -0.0392267 0
M  V30 10870 H 1013.08 1.66329 -0.775032 0
M  V30 10871 H 1011.47 3.91847 0.572001 0
M  V30 10872 H 1012.64 4.00109 -2.28582 0
M  V30 10873 H 1010.96 3.69143 -1.92672 0
M  V30 10874 H 1013.55 5.33771 0.315032 0
M  V30 10875 H 1013.9 3.9491 1.31725 0
M  V30 10876 H 1014.43 3.95967 -0.381493 0
M  V30 10877 H 1011.17 6.04506 -2.53481 0
M  V30 10878 H 1010.69 5.94094 -0.825387 0
M  V30 10879 H 1012.37 6.34606 -1.26032 0
M  V30 10880 N 1012.5 0.357919 1.53482 0
M  V30 10881 C 1013.43 -0.484231 2.28424 0
M  V30 10882 C 1014.41 -1.09046 1.30548 0
M  V30 10883 O 1015.59 -1.10916 1.59409 0
M  V30 10884 C 1012.72 -1.62803 3.06778 0
M  V30 10885 C 1011.68 -1.14943 4.12277 0
M  V30 10886 C 1011 -2.38287 4.78669 0
M  V30 10887 C 1012.3 -0.239627 5.2175 0
M  V30 10888 H 1014 0.140979 2.99068 0
M  V30 10889 H 1011.54 0.069244 1.43833 0
M  V30 10890 H 1013.5 -2.22374 3.57949 0
M  V30 10891 H 1012.22 -2.28036 2.3381 0
M  V30 10892 H 1010.88 -0.576442 3.6204 0
M  V30 10893 H 1010.53 -3.01959 4.02281 0
M  V30 10894 H 1010.23 -2.06939 5.49955 0
M  V30 10895 H 1011.75 -2.98558 5.32631 0
M  V30 10896 H 1013.17 -0.742597 5.6847 0
M  V30 10897 H 1011.56 -0.0173747 6.00097 0
M  V30 10898 H 1012.63 0.720333 4.7952 0
M  V30 10899 N 1013.98 -1.5736 0.0868897 0
M  V30 10900 C 1014.91 -2.16596 -0.872252 0
M  V30 10901 C 1015.89 -1.09706 -1.29995 0
M  V30 10902 O 1017.07 -1.37808 -1.36831 0
M  V30 10903 C 1014.2 -2.73972 -2.1344 0
M  V30 10904 C 1013.16 -3.86163 -1.8456 0
M  V30 10905 C 1012.48 -4.30206 -3.17533 0
M  V30 10906 C 1013.78 -5.0973 -1.13899 0
M  V30 10907 H 1015.48 -2.96995 -0.378738 0
M  V30 10908 H 1013.02 -1.42861 -0.18073 0
M  V30 10909 H 1014.98 -3.14062 -2.80968 0
M  V30 10910 H 1013.7 -1.90817 -2.6506 0
M  V30 10911 H 1012.36 -3.466 -1.19432 0
M  V30 10912 H 1012.01 -3.43951 -3.67024 0
M  V30 10913 H 1011.71 -5.05841 -2.98996 0
M  V30 10914 H 1013.23 -4.72922 -3.86234 0
M  V30 10915 H 1014.64 -5.4704 -1.71523 0
M  V30 10916 H 1013.04 -5.90741 -1.05569 0
M  V30 10917 H 1014.11 -4.8475 -0.120432 0
M  V30 10918 N 1015.45 0.186762 -1.56489 0
M  V30 10919 C 1016.39 1.25565 -1.91745 0
M  V30 10920 C 1017.4 1.4128 -0.80894 0
M  V30 10921 O 1018.59 1.41558 -1.08737 0
M  V30 10922 C 1015.69 2.62662 -2.14154 0
M  V30 10923 C 1014.86 2.68448 -3.45333 0
M  V30 10924 C 1013.92 3.86798 -3.56754 0
M  V30 10925 O 1012.95 3.73514 -4.29507 0
M  V30 10926 N 1014.15 5.02607 -2.90459 0
M  V30 10927 H 1016.91 0.956351 -2.84032 0
M  V30 10928 H 1014.47 0.376631 -1.57458 0
M  V30 10929 H 1016.47 3.40277 -2.19075 0
M  V30 10930 H 1015.04 2.85046 -1.28326 0
M  V30 10931 H 1014.26 1.77044 -3.52206 0
M  V30 10932 H 1015.54 2.69311 -4.31682 0
M  V30 10933 H 1014.94 5.163 -2.31194 0
M  V30 10934 H 1013.5 5.78139 -3.00996 0
M  V30 10935 N 1016.93 1.50896 0.454776 0
M  V30 10936 C 1017.88 1.70947 1.55067 0
M  V30 10937 C 1018.85 0.550899 1.56698 0
M  V30 10938 O 1020.03 0.783352 1.73978 0
M  V30 10939 C 1017.17 1.82455 2.92924 0
M  V30 10940 C 1016.29 3.09919 3.00956 0
M  V30 10941 C 1015.42 3.12125 4.29827 0
M  V30 10942 C 1014.46 4.33975 4.31662 0
M  V30 10943 N 1013.6 4.33828 5.5203 0
M  V30 10944 H 1018.44 2.645 1.37273 0
M  V30 10945 H 1015.98 1.31101 0.667148 0
M  V30 10946 H 1017.93 1.87108 3.72889 0
M  V30 10947 H 1016.56 0.92327 3.09315 0
M  V30 10948 H 1015.62 3.14659 2.13761 0
M  V30 10949 H 1016.93 3.99869 2.98172 0
M  V30 10950 H 1016.08 3.15598 5.18154 0
M  V30 10951 H 1014.82 2.20033 4.35243 0
M  V30 10952 H 1013.83 4.30697 3.41731 0
M  V30 10953 H 1015.05 5.27312 4.27924 0
M  V30 10954 H 1013 3.44598 5.58201 0
M  V30 10955 H 1012.91 5.17566 5.51055 0
M  V30 10956 H 1014.18 4.4147 6.42437 0
M  V30 10957 N 1018.41 -0.709066 1.40748 0
M  V30 10958 C 1019.36 -1.84445 1.41714 0
M  V30 10959 C 1020.35 -1.66779 0.296818 0
M  V30 10960 O 1021.56 -1.73805 0.468181 0
M  V30 10961 H 1017.93 -0.607581 0.443114 0
M  V30 10962 H 1019.9 -1.80747 2.3743 0
M  V30 10963 C 1018.65 -3.22362 1.303 0
M  V30 10964 H 1017.98 -3.36565 2.15787 0
M  V30 10965 H 1019.42 -4.01922 1.35036 0
M  V30 10966 C 1017.88 -3.36897 0.0139015 0
M  V30 10967 O 1018.41 -3.90389 -0.946553 0
M  V30 10968 N 1016.61 -2.90543 -0.0577491 0
M  V30 10969 H 1016.16 -2.472 0.724574 0
M  V30 10970 H 1016.12 -3.00647 -0.919721 0
M  V30 10971 N 1019.89 -1.26353 -0.941956 0
M  V30 10972 C 1020.82 -1.02163 -2.04054 0
M  V30 10973 C 1021.8 0.0533514 -1.62512 0
M  V30 10974 O 1022.98 -0.0889063 -1.8829 0
M  V30 10975 C 1020.11 -0.546908 -3.34255 0
M  V30 10976 C 1019.16 -1.61433 -3.94768 0
M  V30 10977 S 1019.99 -3.20306 -4.29144 0
M  V30 10978 C 1021.15 -2.746 -5.62446 0
M  V30 10979 H 1021.38 -1.9518 -2.24259 0
M  V30 10980 H 1018.91 -1.10024 -1.08324 0
M  V30 10981 H 1020.87 -0.279673 -4.09546 0
M  V30 10982 H 1019.53 0.36297 -3.11996 0
M  V30 10983 H 1018.72 -1.23315 -4.88681 0
M  V30 10984 H 1018.33 -1.8329 -3.26007 0
M  V30 10985 H 1020.62 -2.19015 -6.41123 0
M  V30 10986 H 1021.56 -3.67202 -6.05449 0
M  V30 10987 H 1021.97 -2.1419 -5.22286 0
M  V30 10988 N 1021.37 1.14642 -1.08144 0
M  V30 10989 C 1022.3 2.19283 -0.6669 0
M  V30 10990 C 1023.31 1.60292 0.284668 0
M  V30 10991 O 1024.5 1.78352 0.0727383 0
M  V30 10992 C 1021.6 3.38877 0.0398572 0
M  V30 10993 C 1020.77 4.274 -0.929929 0
M  V30 10994 C 1019.83 5.25562 -0.258991 0
M  V30 10995 O 1018.86 5.61999 -0.902563 0
M  V30 10996 N 1020.06 5.71958 0.992177 0
M  V30 10997 H 1022.83 2.55464 -1.5671 0
M  V30 10998 H 1020.39 1.29836 -0.96717 0
M  V30 10999 H 1022.38 4.01605 0.499583 0
M  V30 11000 H 1020.95 3.01043 0.842118 0
M  V30 11001 H 1020.17 3.61649 -1.56857 0
M  V30 11002 H 1021.46 4.83411 -1.58717 0
M  V30 11003 H 1020.86 5.44481 1.53484 0
M  V30 11004 H 1019.41 6.36687 1.39544 0
M  V30 11005 N 1022.85 0.866709 1.31628 0
M  V30 11006 C 1024.09 0.472185 1.96095 0
M  V30 11007 C 1024.41 -0.979873 1.69286 0
M  V30 11008 O 1025.61 -1.48039 2.27589 0
M  V30 11009 C 1024.07 0.793468 3.51044 0
M  V30 11010 C 1023.68 2.26206 3.86697 0
M  V30 11011 C 1025.42 0.467255 4.21921 0
M  V30 11012 C 1023.33 2.52593 5.34743 0
M  V30 11013 H 1022.26 0.172846 0.733921 0
M  V30 11014 H 1024.91 1.05916 1.49847 0
M  V30 11015 H 1023.29 0.135783 3.95767 0
M  V30 11016 H 1024.47 2.96254 3.52945 0
M  V30 11017 H 1022.78 2.55399 3.28877 0
M  V30 11018 H 1025.38 0.641669 5.30836 0
M  V30 11019 H 1025.72 -0.592065 4.12068 0
M  V30 11020 H 1026.25 1.08134 3.82821 0
M  V30 11021 H 1022.99 3.57196 5.49628 0
M  V30 11022 H 1022.51 1.87136 5.6986 0
M  V30 11023 H 1024.19 2.37156 6.01968 0
M  V30 11024 N 1024.32 -1.44642 0.625825 0
M  V30 11025 C 1025.29 -2.29085 -0.072526 0
M  V30 11026 C 1026.29 -1.40755 -0.777467 0
M  V30 11027 O 1027.48 -1.62684 -0.622861 0
M  V30 11028 C 1024.61 -3.22212 -1.1132 0
M  V30 11029 H 1025.8 -2.92317 0.670124 0
M  V30 11030 H 1023.35 -1.51466 0.38571 0
M  V30 11031 H 1024.09 -2.63819 -1.88601 0
M  V30 11032 H 1023.87 -3.87299 -0.611709 0
M  V30 11033 H 1025.36 -3.8566 -1.60175 0
M  V30 11034 N 1025.8 -0.366053 -1.5329 0
M  V30 11035 C 1026.75 0.495319 -2.27265 0
M  V30 11036 C 1027.74 1.08298 -1.30261 0
M  V30 11037 O 1028.95 1.02613 -1.47887 0
M  V30 11038 H 1025.32 0.178454 -0.730519 0
M  V30 11039 H 1027.3 -0.150354 -2.98021 0
M  V30 11040 C 1026.04 1.62283 -3.07505 0
M  V30 11041 H 1025.37 1.17993 -3.81992 0
M  V30 11042 H 1026.81 2.20024 -3.62444 0
M  V30 11043 C 1025.27 2.56542 -2.18375 0
M  V30 11044 O 1025.8 3.59371 -1.79486 0
M  V30 11045 N 1024 2.25742 -1.82999 0
M  V30 11046 H 1023.55 1.42159 -2.14822 0
M  V30 11047 H 1023.51 2.89064 -1.2365 0
M  V30 11048 N 1027.28 1.57312 -0.0952337 0
M  V30 11049 C 1028.23 2.10571 0.87428 0
M  V30 11050 C 1029.21 1.02079 1.24374 0
M  V30 11051 O 1030.41 1.28353 1.2188 0
M  V30 11052 C 1027.53 2.68972 2.13329 0
M  V30 11053 C 1026.62 3.84508 1.78926 0
M  V30 11054 N 1027.01 4.92534 1.15082 0
M  V30 11055 C 1025.31 3.94245 2.08535 0
M  V30 11056 C 1026.01 5.73163 0.992937 0
M  V30 11057 N 1024.99 5.22198 1.51029 0
M  V30 11058 H 1028.79 2.91476 0.376727 0
M  V30 11059 H 1026.3 1.62041 0.107974 0
M  V30 11060 H 1028.3 3.05457 2.83728 0
M  V30 11061 H 1026.96 1.89523 2.6365 0
M  V30 11062 H 1027.97 5.11405 0.817621 0
M  V30 11063 H 1024.65 3.25805 2.61069 0
M  V30 11064 H 1026.04 6.70084 0.493641 0
M  V30 11065 N 1028.76 -0.17846 1.56586 0
M  V30 11066 C 1029.99 -0.911996 1.85715 0
M  V30 11067 C 1030.4 -1.76138 0.679766 0
M  V30 11068 O 1029.76 -1.79088 -0.351266 0
M  V30 11069 C 1029.81 -1.79459 3.1381 0
M  V30 11070 O 1029.53 -0.979476 4.2701 0
M  V30 11071 C 1031.03 -2.6384 3.56235 0
M  V30 11072 H 1028.25 -0.265299 0.616326 0
M  V30 11073 H 1030.79 -0.180704 2.037 0
M  V30 11074 H 1028.95 -2.4793 2.97673 0
M  V30 11075 H 1029.36 -1.58244 5.00059 0
M  V30 11076 H 1030.84 -3.21396 4.48786 0
M  V30 11077 H 1031.31 -3.38363 2.80013 0
M  V30 11078 H 1031.92 -2.00712 3.7496 0
M  V30 11079 N 1030.24 -1.51135 -0.446768 0
M  V30 11080 C 1031.17 -1.74709 -1.54916 0
M  V30 11081 C 1032.15 -0.596628 -1.59293 0
M  V30 11082 O 1033.33 -0.838356 -1.75172 0
M  V30 11083 C 1030.46 -1.86353 -2.9307 0
M  V30 11084 C 1029.42 -3.01725 -3.03556 0
M  V30 11085 C 1028.74 -2.9854 -4.43597 0
M  V30 11086 C 1030.04 -4.41848 -2.7851 0
M  V30 11087 H 1031.74 -2.67014 -1.3544 0
M  V30 11088 H 1029.28 -1.28489 -0.650131 0
M  V30 11089 H 1031.23 -2.01428 -3.70141 0
M  V30 11090 H 1029.96 -0.906887 -3.13756 0
M  V30 11091 H 1028.62 -2.86339 -2.28922 0
M  V30 11092 H 1028.27 -2.00673 -4.61237 0
M  V30 11093 H 1027.97 -3.76008 -4.51544 0
M  V30 11094 H 1029.49 -3.15696 -5.22655 0
M  V30 11095 H 1030.9 -4.57633 -3.45319 0
M  V30 11096 H 1029.3 -5.2095 -2.97877 0
M  V30 11097 H 1030.37 -4.52536 -1.74182 0
M  V30 11098 N 1031.71 0.701592 -1.41122 0
M  V30 11099 C 1032.66 1.81559 -1.42495 0
M  V30 11100 C 1033.63 1.63722 -0.280078 0
M  V30 11101 O 1034.82 1.84658 -0.480231 0
M  V30 11102 C 1031.96 3.19392 -1.30702 0
M  V30 11103 C 1031.07 3.48704 -2.55009 0
M  V30 11104 C 1030.2 4.76118 -2.35554 0
M  V30 11105 C 1029.24 4.98378 -3.55367 0
M  V30 11106 N 1028.38 6.17014 -3.3502 0
M  V30 11107 H 1033.22 1.7972 -2.37707 0
M  V30 11108 H 1030.76 0.877727 -1.18044 0
M  V30 11109 H 1032.71 3.99004 -1.21867 0
M  V30 11110 H 1031.34 3.20423 -0.391012 0
M  V30 11111 H 1030.4 2.63542 -2.74317 0
M  V30 11112 H 1031.71 3.61057 -3.44151 0
M  V30 11113 H 1030.86 5.63774 -2.24152 0
M  V30 11114 H 1029.6 4.66 -1.43859 0
M  V30 11115 H 1028.61 4.09172 -3.6723 0
M  V30 11116 H 1029.83 5.10359 -4.48007 0
M  V30 11117 H 1027.78 6.0812 -2.4602 0
M  V30 11118 H 1027.69 6.30107 -4.17733 0
M  V30 11119 H 1028.96 7.0742 -3.27379 0
M  V30 11120 N 1033.19 1.2685 0.935242 0
M  V30 11121 C 1034.42 1.15371 1.71386 0
M  V30 11122 C 1034.83 -0.293048 1.86917 0
M  V30 11123 O 1034.17 -1.212 1.38044 0
M  V30 11124 C 1034.23 1.75652 3.13666 0
M  V30 11125 C 1033.9 3.24788 3.215 0
M  V30 11126 C 1034.9 4.21525 3.04323 0
M  V30 11127 C 1032.58 3.65359 3.447 0
M  V30 11128 C 1034.57 5.56812 3.10224 0
M  V30 11129 C 1032.26 5.00778 3.50235 0
M  V30 11130 C 1033.26 5.96314 3.33014 0
M  V30 11131 O 1032.95 7.29266 3.38269 0
M  V30 11132 H 1032.68 0.40234 0.54323 0
M  V30 11133 H 1035.23 1.68083 1.18056 0
M  V30 11134 H 1033.46 1.17408 3.68446 0
M  V30 11135 H 1035.15 1.58994 3.73465 0
M  V30 11136 H 1035.92 3.91519 2.86249 0
M  V30 11137 H 1031.8 2.91479 3.57157 0
M  V30 11138 H 1035.34 6.3136 2.967 0
M  V30 11139 H 1031.24 5.30444 3.67831 0
M  V30 11140 H 1032.01 7.37616 3.54774 0
M  V30 11141 N 1034.67 -1.14067 1.0875 0
M  V30 11142 C 1035.92 -1.84819 0.817698 0
M  V30 11143 C 1036.24 -1.83545 -0.658488 0
M  V30 11144 O 1035.51 -1.28633 -1.47751 0
M  V30 11145 H 1034.09 -0.68433 0.299502 0
M  V30 11146 H 1036.75 -1.38208 1.37421 0
M  V30 11147 H 1035.85 -2.89541 1.16501 0
M  V30 11148 N 1036.15 -0.873678 -1.31166 0
M  V30 11149 C 1037.38 -0.501043 -2.00742 0
M  V30 11150 C 1037.79 0.907477 -1.65561 0
M  V30 11151 O 1037.15 1.59507 -0.886771 0
M  V30 11152 C 1037.2 -0.652877 -3.55556 0
M  V30 11153 O 1036.92 -2.00593 -3.89479 0
M  V30 11154 C 1038.42 -0.281742 -4.42404 0
M  V30 11155 H 1035.64 -0.194829 -0.642092 0
M  V30 11156 H 1038.19 -1.17587 -1.67313 0
M  V30 11157 H 1036.34 -0.0255627 -3.87392 0
M  V30 11158 H 1036.75 -2.01638 -4.84193 0
M  V30 11159 H 1038.23 -0.43892 -5.50252 0
M  V30 11160 H 1038.71 0.779389 -4.32229 0
M  V30 11161 H 1039.31 -0.88491 -4.15992 0
M  V30 11162 N 1037.63 1.44308 -0.633487 0
M  V30 11163 C 1038.56 2.28943 0.108474 0
M  V30 11164 C 1039.57 1.41415 0.806582 0
M  V30 11165 O 1040.76 1.65544 0.667634 0
M  V30 11166 C 1037.86 3.17845 1.1759 0
M  V30 11167 C 1037.03 4.33802 0.559842 0
M  V30 11168 C 1036.09 5.03722 1.52154 0
M  V30 11169 O 1035.12 5.5966 1.03776 0
M  V30 11170 N 1036.32 5.05392 2.85586 0
M  V30 11171 H 1039.09 2.93262 -0.617879 0
M  V30 11172 H 1036.65 1.54781 -0.474819 0
M  V30 11173 H 1038.64 3.61485 1.81963 0
M  V30 11174 H 1037.21 2.55261 1.80445 0
M  V30 11175 H 1036.43 3.93325 -0.262559 0
M  V30 11176 H 1037.72 5.08637 0.128942 0
M  V30 11177 H 1037.11 4.61282 3.27468 0
M  V30 11178 H 1035.67 5.52813 3.45313 0
M  V30 11179 N 1039.1 0.374177 1.53094 0
M  V30 11180 C 1040.07 -0.455999 2.24618 0
M  V30 11181 C 1041.07 -1.00269 1.25709 0
M  V30 11182 O 1042.26 -0.887077 1.49922 0
M  V30 11183 C 1039.39 -1.63822 2.98957 0
M  V30 11184 H 1040.58 0.169986 2.99418 0
M  V30 11185 H 1038.14 0.126015 1.55791 0
M  V30 11186 H 1038.87 -2.30205 2.28421 0
M  V30 11187 H 1038.66 -1.25308 3.71538 0
M  V30 11188 H 1040.15 -2.22633 3.53305 0
M  V30 11189 N 1040.58 -1.57259 0.103575 0
M  V30 11190 C 1042 -1.57581 -0.253062 0
M  V30 11191 C 1042.2 -1.11531 -1.67819 0
M  V30 11192 O 1041.25 -0.795632 -2.39637 0
M  V30 11193 C 1042.57 -3.00681 -0.0337753 0
M  V30 11194 C 1044.12 -3.12837 -0.10087 0
M  V30 11195 C 1044.59 -4.57911 0.0905295 0
M  V30 11196 N 1046.08 -4.63186 0.0359789 0
M  V30 11197 C 1046.82 -5.73179 0.159199 0
M  V30 11198 N 1046.31 -6.91976 0.337728 0
M  V30 11199 N 1048.11 -5.62011 0.0998662 0
M  V30 11200 H 1040.26 -1.85499 1.0346 0
M  V30 11201 H 1042.52 -0.856584 0.406163 0
M  V30 11202 H 1042.23 -3.38602 0.950858 0
M  V30 11203 H 1042.1 -3.69207 -0.772406 0
M  V30 11204 H 1044.49 -2.74783 -1.07601 0
M  V30 11205 H 1044.57 -2.46886 0.66939 0
M  V30 11206 H 1044.21 -4.9666 1.06258 0
M  V30 11207 H 1044.14 -5.21933 -0.699528 0
M  V30 11208 H 1046.63 -3.7777 -0.099121 0
M  V30 11209 H 1046.95 -7.71641 0.423032 0
M  V30 11210 H 1045.29 -6.93996 0.373504 0
M  V30 11211 H 1048.48 -4.68084 -0.0385356 0
M  V30 11212 H 1048.65 -6.47693 0.199342 0
M  V30 11213 N 1042.06 0.170153 -1.56679 0
M  V30 11214 C 1043.01 1.21064 -1.965 0
M  V30 11215 C 1043.98 1.43928 -0.829092 0
M  V30 11216 O 1045.16 1.56649 -1.08931 0
M  V30 11217 C 1042.3 2.54468 -2.33109 0
M  V30 11218 C 1041.42 2.38974 -3.59883 0
M  V30 11219 C 1040.55 3.65252 -3.857 0
M  V30 11220 C 1039.59 3.44696 -5.05817 0
M  V30 11221 N 1038.73 4.63047 -5.27761 0
M  V30 11222 H 1043.57 0.864055 -2.85198 0
M  V30 11223 H 1041.1 0.415243 -1.41117 0
M  V30 11224 H 1043.06 3.32222 -2.52358 0
M  V30 11225 H 1041.69 2.8712 -1.4752 0
M  V30 11226 H 1040.74 1.5239 -3.48542 0
M  V30 11227 H 1042.06 2.19731 -4.47794 0
M  V30 11228 H 1041.21 4.51441 -4.05322 0
M  V30 11229 H 1039.95 3.87475 -2.96166 0
M  V30 11230 H 1038.95 2.56893 -4.86092 0
M  V30 11231 H 1040.18 3.23894 -5.96883 0
M  V30 11232 H 1038.12 4.85487 -4.41179 0
M  V30 11233 H 1038.04 4.46722 -6.09898 0
M  V30 11234 H 1039.31 5.50516 -5.51863 0
M  V30 11235 N 1043.54 1.5137 0.438746 0
M  V30 11236 C 1044.79 1.63969 1.1883 0
M  V30 11237 C 1045.11 0.355245 1.91228 0
M  V30 11238 O 1044.37 -0.660605 1.84213 0
M  V30 11239 C 1044.67 2.79221 2.23093 0
M  V30 11240 C 1044.33 4.18547 1.67717 0
M  V30 11241 C 1043 4.5645 1.52337 0
M  V30 11242 C 1045.35 5.05494 1.26986 0
M  V30 11243 C 1042.68 5.79007 0.946996 0
M  V30 11244 C 1045.03 6.28628 0.707785 0
M  V30 11245 C 1043.69 6.65305 0.540881 0
M  V30 11246 H 1042.96 0.600003 0.43483 0
M  V30 11247 H 1045.61 1.85398 0.479565 0
M  V30 11248 H 1043.91 2.52008 2.99999 0
M  V30 11249 H 1045.61 2.86168 2.80907 0
M  V30 11250 H 1042.2 3.88663 1.80663 0
M  V30 11251 H 1046.38 4.76818 1.37689 0
M  V30 11252 H 1041.64 6.06072 0.805432 0
M  V30 11253 H 1045.81 6.95342 0.38366 0
M  V30 11254 H 1043.44 7.60144 0.0921324 0
M  V30 11255 N 1045.02 -0.694098 1.41492 0
M  V30 11256 C 1046.29 -1.44875 1.31418 0
M  V30 11257 C 1046.67 -2.11022 -0.0575538 0
M  V30 11258 O 1046.02 -2.01799 -1.07188 0
M  V30 11259 C 1046.23 -2.46698 2.46863 0
M  V30 11260 C 1047.58 -3.11907 2.88095 0
M  V30 11261 O 1048.6 -2.57022 2.46613 0
M  V30 11262 O 1047.46 -4.11318 3.59833 0
M  V30 11263 H 1044.56 -0.645266 0.517263 0
M  V30 11264 H 1047.1 -0.724452 1.53459 0
M  V30 11265 H 1045.87 -1.96485 3.38392 0
M  V30 11266 H 1045.5 -3.26634 2.26706 0
M  V30 11267 N 1046.49 -1.27344 -0.928501 0
M  V30 11268 C 1047.74 -1.13804 -1.67859 0
M  V30 11269 C 1048.07 0.31555 -1.91619 0
M  V30 11270 O 1047.35 1.23087 -1.50599 0
M  V30 11271 C 1047.63 -1.9213 -3.04562 0
M  V30 11272 C 1047.48 -3.45468 -2.88048 0
M  V30 11273 C 1048.8 -1.72513 -4.04879 0
M  V30 11274 H 1045.92 -0.414796 -0.609191 0
M  V30 11275 H 1048.56 -1.5649 -1.07753 0
M  V30 11276 H 1046.71 -1.55853 -3.55868 0
M  V30 11277 H 1048.39 -3.9157 -2.43865 0
M  V30 11278 H 1046.63 -3.71849 -2.23407 0
M  V30 11279 H 1047.3 -3.95515 -3.85061 0
M  V30 11280 H 1049.78 -2.04143 -3.62581 0
M  V30 11281 H 1048.65 -2.29713 -4.98521 0
M  V30 11282 H 1048.91 -0.672856 -4.3695 0
M  V30 11283 N 1047.97 1.13488 -1.09353 0
M  V30 11284 C 1048.92 2.20949 -0.726923 0
M  V30 11285 C 1049.91 1.67205 0.271816 0
M  V30 11286 O 1051.12 1.79505 0.133356 0
M  V30 11287 H 1047.5 0.719985 -0.217086 0
M  V30 11288 H 1049.47 2.49134 -1.6424 0
M  V30 11289 C 1048.22 3.47319 -0.162822 0
M  V30 11290 H 1047.54 3.89011 -0.922527 0
M  V30 11291 H 1048.98 4.23963 0.0557734 0
M  V30 11292 C 1047.44 3.18376 1.10175 0
M  V30 11293 O 1047.97 3.3707 2.18511 0
M  V30 11294 N 1046.17 2.72262 1.01597 0
M  V30 11295 H 1045.72 2.5725 0.134289 0
M  V30 11296 H 1045.68 2.53272 1.86281 0
M  V30 11297 N 1049.45 0.880621 1.30701 0
M  V30 11298 C 1050.38 0.301443 2.27209 0
M  V30 11299 C 1051.4 -0.541533 1.53529 0
M  V30 11300 O 1052.59 -0.361791 1.74795 0
M  V30 11301 C 1049.69 -0.59038 3.33718 0
M  V30 11302 C 1048.86 0.222549 4.36833 0
M  V30 11303 C 1047.92 -0.599083 5.22779 0
M  V30 11304 O 1046.94 -0.0233267 5.69195 0
M  V30 11305 N 1048.15 -1.90904 5.48211 0
M  V30 11306 H 1050.91 1.13083 2.77547 0
M  V30 11307 H 1048.47 0.743168 1.43835 0
M  V30 11308 H 1050.46 -1.14599 3.88135 0
M  V30 11309 H 1049.03 -1.32044 2.83343 0
M  V30 11310 H 1048.25 0.959606 3.82342 0
M  V30 11311 H 1049.54 0.779965 5.02786 0
M  V30 11312 H 1048.94 -2.3998 5.12275 0
M  V30 11313 H 1047.5 -2.4122 6.05521 0
M  V30 11314 N 1050.93 -1.4397 0.641131 0
M  V30 11315 C 1051.86 -2.33458 -0.04446 0
M  V30 11316 C 1052.84 -1.48781 -0.824507 0
M  V30 11317 O 1054.03 -1.77477 -0.788397 0
M  V30 11318 C 1051.16 -3.31989 -1.01984 0
M  V30 11319 C 1050.11 -4.2656 -0.350745 0
M  V30 11320 C 1049.44 -5.15036 -1.43673 0
M  V30 11321 C 1050.74 -5.16897 0.749299 0
M  V30 11322 H 1052.43 -2.91034 0.702832 0
M  V30 11323 H 1049.98 -1.39942 0.339435 0
M  V30 11324 H 1051.93 -3.93483 -1.50828 0
M  V30 11325 H 1050.65 -2.72643 -1.79815 0
M  V30 11326 H 1049.31 -3.66413 0.117139 0
M  V30 11327 H 1048.96 -4.52037 -2.20617 0
M  V30 11328 H 1048.66 -5.79125 -0.994358 0
M  V30 11329 H 1050.18 -5.79403 -1.92678 0
M  V30 11330 H 1051.6 -5.7227 0.343534 0
M  V30 11331 H 1049.99 -5.89643 1.11541 0
M  V30 11332 H 1051.06 -4.5731 1.61232 0
M  V30 11333 N 1052.41 -0.382291 -1.52893 0
M  V30 11334 C 1053.34 0.491199 -2.23875 0
M  V30 11335 C 1054.35 1.03249 -1.25871 0
M  V30 11336 O 1055.54 0.936016 -1.5199 0
M  V30 11337 C 1052.64 1.6927 -2.936 0
M  V30 11338 C 1051.81 1.28 -4.18252 0
M  V30 11339 C 1050.87 2.34541 -4.71038 0
M  V30 11340 O 1049.9 1.96239 -5.34302 0
M  V30 11341 N 1051.1 3.6636 -4.50289 0
M  V30 11342 H 1053.87 -0.116897 -2.99472 0
M  V30 11343 H 1051.43 -0.208296 -1.60554 0
M  V30 11344 H 1053.42 2.40054 -3.25816 0
M  V30 11345 H 1051.99 2.20729 -2.21354 0
M  V30 11346 H 1051.21 0.40133 -3.92152 0
M  V30 11347 H 1052.5 0.98082 -4.99257 0
M  V30 11348 H 1051.9 4.00245 -3.99775 0
M  V30 11349 H 1050.45 4.332 -4.87013 0
M  V30 11350 N 1053.89 1.57202 -0.111913 0
M  V30 11351 C 1054.83 2.16186 0.858286 0
M  V30 11352 C 1055.83 1.10917 1.28039 0
M  V30 11353 O 1057.03 1.29233 1.25295 0
M  V30 11354 H 1053.41 0.691777 0.29487 0
M  V30 11355 H 1055.38 2.96499 0.336265 0
M  V30 11356 C 1054.13 2.77024 2.10127 0
M  V30 11357 H 1053.45 3.5772 1.78539 0
M  V30 11358 H 1054.89 3.21841 2.76033 0
M  V30 11359 C 1053.35 1.73752 2.88638 0
M  V30 11360 O 1053.88 1.18659 3.83774 0
M  V30 11361 N 1052.09 1.43855 2.52496 0
M  V30 11362 H 1051.63 1.88846 1.75199 0
M  V30 11363 H 1051.59 0.749985 3.05324 0
M  V30 11364 N 1055.36 -0.161842 1.56767 0
M  V30 11365 C 1056.59 -0.892247 1.86672 0
M  V30 11366 C 1057.01 -1.75407 0.69841 0
M  V30 11367 O 1056.36 -1.7945 -0.332251 0
M  V30 11368 C 1056.41 -1.7612 3.15696 0
M  V30 11369 O 1056.14 -0.934131 4.28025 0
M  V30 11370 C 1057.64 -2.60046 3.59014 0
M  V30 11371 H 1054.86 -0.258747 0.619105 0
M  V30 11372 H 1057.4 -0.159089 2.0388 0
M  V30 11373 H 1055.56 -2.44759 3.00286 0
M  V30 11374 H 1055.97 -1.52931 5.01709 0
M  V30 11375 H 1057.44 -3.16618 4.5217 0
M  V30 11376 H 1057.92 -3.35374 2.83586 0
M  V30 11377 H 1058.53 -1.96724 3.77067 0
M  V30 11378 N 1056.84 -1.516 -0.430713 0
M  V30 11379 C 1058.07 -1.68414 -1.20185 0
M  V30 11380 C 1058.48 -0.384297 -1.84847 0
M  V30 11381 O 1057.84 0.637808 -1.70992 0
M  V30 11382 C 1057.89 -2.80451 -2.28099 0
M  V30 11383 O 1057.61 -4.05399 -1.66081 0
M  V30 11384 C 1059.11 -3.0859 -3.18256 0
M  V30 11385 H 1056.33 -0.564982 -0.361989 0
M  V30 11386 H 1058.88 -1.9805 -0.50954 0
M  V30 11387 H 1057.03 -2.53395 -2.93036 0
M  V30 11388 H 1057.45 -4.67671 -2.37453 0
M  V30 11389 H 1058.92 -3.9055 -3.90096 0
M  V30 11390 H 1059.4 -2.21264 -3.79393 0
M  V30 11391 H 1060 -3.37331 -2.59014 0
M  V30 11392 N 1058.32 0.686584 -1.41858 0
M  V30 11393 C 1059.57 1.44235 -1.40994 0
M  V30 11394 C 1059.88 1.95583 -0.0254979 0
M  V30 11395 O 1061.09 2.71294 0.10576 0
M  V30 11396 C 1059.54 2.6086 -2.47952 0
M  V30 11397 C 1059.15 2.16259 -3.92347 0
M  V30 11398 C 1060.9 3.38441 -2.56237 0
M  V30 11399 C 1058.8 3.29896 -4.90838 0
M  V30 11400 H 1057.73 0.54181 -0.524364 0
M  V30 11401 H 1060.38 0.744486 -1.67719 0
M  V30 11402 H 1058.77 3.32957 -2.14373 0
M  V30 11403 H 1059.94 1.51392 -4.35221 0
M  V30 11404 H 1058.25 1.51648 -3.87804 0
M  V30 11405 H 1060.85 4.23052 -3.27003 0
M  V30 11406 H 1061.19 3.84238 -1.6021 0
M  V30 11407 H 1061.73 2.73406 -2.88953 0
M  V30 11408 H 1058.47 2.89104 -5.88302 0
M  V30 11409 H 1057.99 3.93584 -4.52606 0
M  V30 11410 H 1059.67 3.95541 -5.12012 0
M  V30 11411 N 1059.8 1.27835 0.921735 0
M  V30 11412 C 1060.74 1.11075 2.02314 0
M  V30 11413 C 1061.71 0.0101195 1.66097 0
M  V30 11414 O 1062.9 0.173564 1.90009 0
M  V30 11415 C 1060.04 0.770251 3.36394 0
M  V30 11416 C 1059.15 1.94912 3.8553 0
M  V30 11417 C 1058.29 1.54996 5.08084 0
M  V30 11418 C 1057.33 2.69595 5.49531 0
M  V30 11419 N 1056.46 2.30227 6.6328 0
M  V30 11420 H 1061.3 2.05319 2.15982 0
M  V30 11421 H 1058.84 1.022 1.058 0
M  V30 11422 H 1060.8 0.553624 4.1351 0
M  V30 11423 H 1059.43 -0.135238 3.22517 0
M  V30 11424 H 1058.48 2.27811 3.04641 0
M  V30 11425 H 1059.79 2.80858 4.12214 0
M  V30 11426 H 1058.95 1.29493 5.9272 0
M  V30 11427 H 1057.69 0.661676 4.83191 0
M  V30 11428 H 1056.69 2.95806 4.63442 0
M  V30 11429 H 1057.92 3.59054 5.76417 0
M  V30 11430 H 1055.86 1.43858 6.40032 0
M  V30 11431 H 1055.78 3.09711 6.89649 0
M  V30 11432 H 1057.05 2.07987 7.5124 0
M  V30 11433 N 1061.28 -1.12907 1.09954 0
M  V30 11434 C 1062.69 -1.363 0.830326 0
M  V30 11435 C 1062.89 -1.93772 -0.552694 0
M  V30 11436 O 1061.95 -2.1607 -1.30652 0
M  V30 11437 C 1063.26 -2.30925 1.92598 0
M  V30 11438 C 1064.81 -2.44528 1.95385 0
M  V30 11439 C 1065.28 -3.42464 3.0411 0
M  V30 11440 N 1066.77 -3.50018 3.03384 0
M  V30 11441 C 1067.51 -4.25693 3.84152 0
M  V30 11442 N 1067.01 -5.04476 4.74843 0
M  V30 11443 N 1068.8 -4.21049 3.7239 0
M  V30 11444 H 1060.95 -0.739571 1.99108 0
M  V30 11445 H 1063.21 -0.387983 0.86497 0
M  V30 11446 H 1062.92 -1.95861 2.92115 0
M  V30 11447 H 1062.79 -3.30997 1.80889 0
M  V30 11448 H 1065.18 -2.78875 0.965037 0
M  V30 11449 H 1065.26 -1.44361 2.11172 0
M  V30 11450 H 1064.9 -3.08847 4.03207 0
M  V30 11451 H 1064.83 -4.42448 2.85565 0
M  V30 11452 H 1067.33 -2.93809 2.37665 0
M  V30 11453 H 1067.64 -5.59541 5.33042 0
M  V30 11454 H 1065.98 -5.0369 4.78875 0
M  V30 11455 H 1069.17 -3.5858 3.00895 0
M  V30 11456 H 1069.35 -4.79771 4.35572 0
M  V30 11457 N 1062.75 -0.88754 -1.30232 0
M  V30 11458 C 1064 -0.503322 -1.95319 0
M  V30 11459 C 1064.32 0.952817 -1.70824 0
M  V30 11460 O 1065.52 1.444 -2.29915 0
M  V30 11461 C 1063.98 -0.849216 -3.49738 0
M  V30 11462 C 1063.59 -2.3233 -3.83049 0
M  V30 11463 C 1065.33 -0.53432 -4.21124 0
M  V30 11464 C 1063.24 -2.61069 -5.30657 0
M  V30 11465 H 1062.17 -0.1845 -0.731078 0
M  V30 11466 H 1064.82 -1.08287 -1.48143 0
M  V30 11467 H 1063.2 -0.198729 -3.95501 0
M  V30 11468 H 1064.37 -3.01832 -3.48187 0
M  V30 11469 H 1062.69 -2.60599 -3.24773 0
M  V30 11470 H 1065.29 -0.726039 -5.29748 0
M  V30 11471 H 1065.63 0.526434 -4.12958 0
M  V30 11472 H 1066.16 -1.14211 -3.81052 0
M  V30 11473 H 1062.9 -3.65895 -5.43876 0
M  V30 11474 H 1062.42 -1.96179 -5.6681 0
M  V30 11475 H 1064.1 -2.46703 -5.98119 0
M  V30 11476 N 1064.23 1.43628 -0.648757 0
M  V30 11477 C 1065.48 2.01083 -0.157692 0
M  V30 11478 C 1065.79 1.51756 1.23408 0
M  V30 11479 O 1067 2.01455 1.82012 0
M  V30 11480 C 1065.46 3.59157 -0.231118 0
M  V30 11481 C 1065.06 4.17478 -1.6253 0
M  V30 11482 C 1066.81 4.24016 0.202573 0
M  V30 11483 C 1064.72 5.67832 -1.6529 0
M  V30 11484 H 1063.65 0.751977 -0.0551897 0
M  V30 11485 H 1066.3 1.64648 -0.810139 0
M  V30 11486 H 1064.68 3.92972 0.488755 0
M  V30 11487 H 1065.85 3.9517 -2.37017 0
M  V30 11488 H 1064.17 3.64973 -2.00459 0
M  V30 11489 H 1066.76 5.34319 0.20174 0
M  V30 11490 H 1067.11 3.97616 1.23319 0
M  V30 11491 H 1067.64 3.95068 -0.465398 0
M  V30 11492 H 1064.38 5.98994 -2.66246 0
M  V30 11493 H 1063.9 5.92209 -0.951217 0
M  V30 11494 H 1065.58 6.3179 -1.39465 0
M  V30 11495 N 1065.71 0.390394 1.52688 0
M  V30 11496 C 1066.66 -0.444229 2.26485 0
M  V30 11497 C 1067.63 -1.05688 1.28138 0
M  V30 11498 O 1068.81 -1.0847 1.56968 0
M  V30 11499 C 1065.95 -1.56501 3.07574 0
M  V30 11500 C 1065.07 -0.975111 4.20851 0
M  V30 11501 C 1064.2 -2.06704 4.89333 0
M  V30 11502 C 1063.24 -1.45309 5.94602 0
M  V30 11503 N 1062.38 -2.48437 6.56676 0
M  V30 11504 H 1067.22 0.191535 2.97384 0
M  V30 11505 H 1064.75 0.106287 1.46716 0
M  V30 11506 H 1066.71 -2.22558 3.52879 0
M  V30 11507 H 1065.34 -2.17107 2.38881 0
M  V30 11508 H 1064.39 -0.204109 3.79852 0
M  V30 11509 H 1065.71 -0.486465 4.96422 0
M  V30 11510 H 1064.86 -2.80528 5.37949 0
M  V30 11511 H 1063.6 -2.58928 4.13289 0
M  V30 11512 H 1062.6 -0.700091 5.45324 0
M  V30 11513 H 1063.83 -0.938775 6.7258 0
M  V30 11514 H 1061.77 -2.99829 5.83471 0
M  V30 11515 H 1061.69 -2.04331 7.27863 0
M  V30 11516 H 1062.96 -3.21888 7.09935 0
M  V30 11517 N 1067.19 -1.57141 0.120249 0
M  V30 11518 C 1068.14 -2.15379 -0.829497 0
M  V30 11519 C 1069.11 -1.07913 -1.2627 0
M  V30 11520 O 1070.29 -1.35827 -1.33999 0
M  V30 11521 C 1067.43 -2.75847 -2.0737 0
M  V30 11522 C 1066.54 -3.97624 -1.68875 0
M  V30 11523 C 1065.68 -4.46175 -2.88272 0
M  V30 11524 C 1064.72 -5.60481 -2.46023 0
M  V30 11525 N 1063.85 -6.0377 -3.58337 0
M  V30 11526 H 1068.69 -2.96211 -0.326031 0
M  V30 11527 H 1066.23 -1.46341 -0.149235 0
M  V30 11528 H 1068.19 -3.09037 -2.80272 0
M  V30 11529 H 1066.82 -1.97703 -2.55174 0
M  V30 11530 H 1065.87 -3.70588 -0.858431 0
M  V30 11531 H 1067.18 -4.80512 -1.33827 0
M  V30 11532 H 1066.34 -4.8128 -3.69397 0
M  V30 11533 H 1065.08 -3.6224 -3.26548 0
M  V30 11534 H 1064.08 -5.24979 -1.63331 0
M  V30 11535 H 1065.31 -6.46184 -2.08863 0
M  V30 11536 H 1063.25 -5.22776 -3.96284 0
M  V30 11537 H 1063.17 -6.81517 -3.27217 0
M  V30 11538 H 1064.44 -6.43514 -4.39898 0
M  V30 11539 N 1068.67 0.153526 -1.5685 0
M  V30 11540 C 1069.91 0.868517 -1.83261 0
M  V30 11541 C 1070.25 1.81112 -0.700857 0
M  V30 11542 O 1069.52 1.92235 0.295989 0
M  V30 11543 C 1069.8 1.6487 -3.2014 0
M  V30 11544 C 1069.66 0.728021 -4.43869 0
M  V30 11545 C 1070.98 2.61259 -3.54163 0
M  V30 11546 H 1068.09 0.314297 -0.666623 0
M  V30 11547 H 1070.74 0.133971 -1.89527 0
M  V30 11548 H 1068.89 2.2749 -3.1493 0
M  V30 11549 H 1070.56 0.113328 -4.61161 0
M  V30 11550 H 1068.8 0.0371744 -4.33784 0
M  V30 11551 H 1069.47 1.30981 -5.36235 0
M  V30 11552 H 1071.95 2.0876 -3.59942 0
M  V30 11553 H 1070.82 3.12902 -4.50981 0
M  V30 11554 H 1071.09 3.42307 -2.79782 0
M  V30 11555 N 1070.14 1.51827 0.422667 0
M  V30 11556 C 1071.08 1.70409 1.53275 0
M  V30 11557 C 1072.09 0.584584 1.51942 0
M  V30 11558 O 1073.28 0.859349 1.56453 0
M  V30 11559 C 1070.38 1.717 2.92185 0
M  V30 11560 C 1069.55 3.00472 3.17861 0
M  V30 11561 C 1068.61 2.93755 4.36571 0
M  V30 11562 O 1067.64 3.67682 4.3451 0
M  V30 11563 N 1068.84 2.10612 5.40946 0
M  V30 11564 H 1071.6 2.66176 1.37734 0
M  V30 11565 H 1069.16 1.49895 0.611799 0
M  V30 11566 H 1071.16 1.64756 3.69645 0
M  V30 11567 H 1069.73 0.834655 3.01251 0
M  V30 11568 H 1068.95 3.21171 2.28567 0
M  V30 11569 H 1070.23 3.85684 3.31851 0
M  V30 11570 H 1069.63 1.49954 5.45463 0
M  V30 11571 H 1068.19 2.09535 6.17202 0
M  V30 11572 N 1071.62 -0.679052 1.4222 0
M  V30 11573 C 1072.9 -1.43473 1.32947 0
M  V30 11574 C 1073.28 -2.11071 -0.0351689 0
M  V30 11575 O 1072.63 -2.02925 -1.05042 0
M  V30 11576 C 1072.84 -2.44065 2.49466 0
M  V30 11577 C 1074.19 -3.08834 2.91387 0
M  V30 11578 O 1075.21 -2.54392 2.49325 0
M  V30 11579 O 1074.07 -4.07478 3.64175 0
M  V30 11580 H 1071.16 -0.639743 0.524078 0
M  V30 11581 H 1073.71 -0.708134 1.54219 0
M  V30 11582 H 1072.48 -1.92884 3.40457 0
M  V30 11583 H 1072.1 -3.24212 2.30158 0
M  V30 11584 N 1073.1 -1.28322 -0.914942 0
M  V30 11585 C 1074.03 -1.14681 -2.03398 0
M  V30 11586 C 1075.01 -0.0448939 -1.70041 0
M  V30 11587 O 1076.2 -0.221672 -1.92931 0
M  V30 11588 C 1073.33 -0.806623 -3.37803 0
M  V30 11589 C 1072.28 -1.86318 -3.85318 0
M  V30 11590 C 1071.61 -1.37665 -5.16674 0
M  V30 11591 C 1072.91 -3.26953 -4.07307 0
M  V30 11592 H 1074.6 -2.08293 -2.15068 0
M  V30 11593 H 1072.15 -1.00284 -1.03339 0
M  V30 11594 H 1074.1 -0.69796 -4.1558 0
M  V30 11595 H 1072.82 0.165203 -3.26182 0
M  V30 11596 H 1071.48 -1.96096 -3.09745 0
M  V30 11597 H 1071.13 -0.393927 -5.01455 0
M  V30 11598 H 1070.83 -2.08313 -5.49435 0
M  V30 11599 H 1072.35 -1.28119 -5.97007 0
M  V30 11600 H 1073.77 -3.20102 -4.75613 0
M  V30 11601 H 1072.17 -3.95424 -4.51398 0
M  V30 11602 H 1073.24 -3.71059 -3.12159 0
M  V30 11603 N 1074.58 1.12322 -1.10551 0
M  V30 11604 C 1075.49 2.21678 -0.767862 0
M  V30 11605 C 1076.5 1.72404 0.235132 0
M  V30 11606 O 1077.68 2.01266 0.0735912 0
M  V30 11607 C 1074.75 3.46087 -0.205999 0
M  V30 11608 C 1073.81 4.10195 -1.26642 0
M  V30 11609 C 1073.04 5.28666 -0.731274 0
M  V30 11610 O 1073.26 5.68686 0.44189 0
M  V30 11611 O 1072.2 5.83121 -1.49176 0
M  V30 11612 H 1076.02 2.52955 -1.6807 0
M  V30 11613 H 1073.61 1.2068 -0.880728 0
M  V30 11614 H 1075.49 4.21273 0.103435 0
M  V30 11615 H 1074.16 3.16484 0.679685 0
M  V30 11616 H 1073.07 3.36784 -1.62873 0
M  V30 11617 H 1074.4 4.43957 -2.12516 0
M  V30 11618 N 1076.06 0.894434 1.2976 0
M  V30 11619 C 1077.47 0.589778 1.48303 0
M  V30 11620 C 1077.67 -0.870085 1.81746 0
M  V30 11621 O 1076.73 -1.65065 1.91076 0
M  V30 11622 C 1078.04 1.51107 2.59975 0
M  V30 11623 C 1079.59 1.51571 2.73853 0
M  V30 11624 C 1080.06 2.42316 3.88648 0
M  V30 11625 N 1081.56 2.40333 3.95973 0
M  V30 11626 C 1082.29 3.07254 4.84131 0
M  V30 11627 N 1081.79 3.83435 5.77018 0
M  V30 11628 N 1083.58 2.96438 4.77578 0
M  V30 11629 H 1075.73 1.83871 1.06327 0
M  V30 11630 H 1077.99 0.78758 0.527657 0
M  V30 11631 H 1077.7 2.55097 2.42112 0
M  V30 11632 H 1077.57 1.22767 3.56662 0
M  V30 11633 H 1079.96 0.483277 2.91116 0
M  V30 11634 H 1080.04 1.83946 1.77757 0
M  V30 11635 H 1079.69 3.4565 3.72141 0
M  V30 11636 H 1079.62 2.07252 4.84101 0
M  V30 11637 H 1082.11 1.84979 3.29532 0
M  V30 11638 H 1082.42 4.31565 6.4107 0
M  V30 11639 H 1080.76 3.87542 5.7692 0
M  V30 11640 H 1083.96 2.36442 4.03996 0
M  V30 11641 H 1084.13 3.48867 5.46073 0
M  V30 11642 N 1077.53 -1.43282 0.656365 0
M  V30 11643 C 1078.5 -2.29188 -0.0239173 0
M  V30 11644 C 1079.5 -1.42373 -0.747436 0
M  V30 11645 O 1080.69 -1.63969 -0.588213 0
M  V30 11646 C 1077.82 -3.24501 -1.0446 0
M  V30 11647 H 1079.01 -2.9083 0.731978 0
M  V30 11648 H 1076.57 -1.50614 0.417752 0
M  V30 11649 H 1077.3 -2.6776 -1.82962 0
M  V30 11650 H 1077.09 -3.88509 -0.52942 0
M  V30 11651 H 1078.58 -3.88971 -1.51958 0
M  V30 11652 N 1079.01 -0.398486 -1.52479 0
M  V30 11653 C 1079.98 0.420206 -2.25315 0
M  V30 11654 C 1080.98 0.982559 -1.27289 0
M  V30 11655 O 1082.17 0.863113 -1.51314 0
M  V30 11656 C 1079.3 1.59045 -3.01525 0
M  V30 11657 H 1080.49 -0.217599 -2.9911 0
M  V30 11658 H 1078.04 -0.150784 -1.55571 0
M  V30 11659 H 1078.78 2.26542 -2.32054 0
M  V30 11660 H 1078.56 1.19382 -3.73484 0
M  V30 11661 H 1080.05 2.16984 -3.56802 0
M  V30 11662 N 1080.49 1.57075 -0.12858 0
M  V30 11663 C 1081.42 2.18833 0.814519 0
M  V30 11664 C 1082.4 1.13114 1.2704 0
M  V30 11665 O 1083.59 1.41387 1.33129 0
M  V30 11666 C 1080.72 2.79535 2.06101 0
M  V30 11667 C 1079.67 3.9092 1.74257 0
M  V30 11668 C 1079 4.38473 3.06015 0
M  V30 11669 C 1080.3 5.1257 1.00345 0
M  V30 11670 H 1081.99 2.97895 0.299862 0
M  V30 11671 H 1079.54 1.4329 0.14279 0
M  V30 11672 H 1081.49 3.21401 2.72543 0
M  V30 11673 H 1080.21 1.97777 2.59907 0
M  V30 11674 H 1078.87 3.49645 1.102 0
M  V30 11675 H 1078.52 3.53561 3.57776 0
M  V30 11676 H 1078.22 5.13591 2.85479 0
M  V30 11677 H 1079.75 4.82997 3.7356 0
M  V30 11678 H 1081.16 5.51395 1.56959 0
M  V30 11679 H 1079.56 5.93333 0.898693 0
M  V30 11680 H 1080.63 4.84899 -0.0081335 0
M  V30 11681 N 1081.97 -0.145205 1.5693 0
M  V30 11682 C 1083.38 -0.705089 1.72874 0
M  V30 11683 C 1083.73 -1.81577 0.743261 0
M  V30 11684 O 1082.86 -2.16214 -0.0897153 0
M  V30 11685 C 1083.45 -1.28578 3.13454 0
M  V30 11686 C 1082.01 -1.79221 3.30994 0
M  V30 11687 C 1081.16 -0.681392 2.68798 0
M  V30 11688 H 1084.11 0.0804798 1.58496 0
M  V30 11689 H 1084.13 -2.15558 3.13552 0
M  V30 11690 H 1083.64 -0.477186 3.85155 0
M  V30 11691 H 1081.74 -2.62642 2.64292 0
M  V30 11692 H 1081.86 -1.91969 4.38959 0
M  V30 11693 H 1080.22 -1.10847 2.29314 0
M  V30 11694 H 1081 0.115786 3.43105 0
M  V30 11695 N 1083.45 -1.52049 -0.414609 0
M  V30 11696 C 1084.41 -1.74382 -1.4874 0
M  V30 11697 C 1085.41 -0.613701 -1.48628 0
M  V30 11698 O 1086.6 -0.88152 -1.50249 0
M  V30 11699 C 1083.73 -1.82116 -2.88178 0
M  V30 11700 H 1084.93 -2.70147 -1.30233 0
M  V30 11701 H 1082.48 -1.42382 -0.644756 0
M  V30 11702 H 1083.21 -0.882457 -3.12063 0
M  V30 11703 H 1083 -2.64268 -2.89663 0
M  V30 11704 H 1084.49 -2.01155 -3.65959 0
M  V30 11705 N 1084.93 0.6715 -1.42579 0
M  V30 11706 C 1085.86 1.79703 -1.42266 0
M  V30 11707 C 1086.87 1.59599 -0.321268 0
M  V30 11708 O 1088.06 1.68657 -0.584564 0
M  V30 11709 C 1085.16 3.16859 -1.20224 0
M  V30 11710 C 1084.33 3.63783 -2.42859 0
M  V30 11711 C 1083.39 4.79683 -2.16312 0
M  V30 11712 O 1082.42 4.90058 -2.89537 0
M  V30 11713 N 1083.62 5.68622 -1.16831 0
M  V30 11714 H 1086.38 1.80455 -2.39282 0
M  V30 11715 H 1083.95 0.854708 -1.375 0
M  V30 11716 H 1085.94 3.92054 -1.00376 0
M  V30 11717 H 1084.51 3.10987 -0.317188 0
M  V30 11718 H 1083.73 2.7923 -2.78252 0
M  V30 11719 H 1085.02 3.91877 -3.24514 0
M  V30 11720 H 1084.41 5.62894 -0.562746 0
M  V30 11721 H 1082.97 6.43615 -1.0297 0
M  V30 11722 N 1086.4 1.28806 0.908124 0
M  V30 11723 C 1087.31 1.15079 2.04436 0
M  V30 11724 C 1088.33 0.076012 1.73834 0
M  V30 11725 O 1089.51 0.286421 1.99353 0
M  V30 11726 C 1086.57 0.819733 3.3687 0
M  V30 11727 C 1085.63 1.97746 3.81045 0
M  V30 11728 C 1084.86 1.66211 5.07158 0
M  V30 11729 O 1085.09 0.579092 5.67453 0
M  V30 11730 O 1084.02 2.5075 5.47182 0
M  V30 11731 H 1087.85 2.10477 2.18937 0
M  V30 11732 H 1085.43 1.08177 1.03044 0
M  V30 11733 H 1087.31 0.649304 4.16368 0
M  V30 11734 H 1085.99 -0.10454 3.23531 0
M  V30 11735 H 1084.9 2.20308 3.02349 0
M  V30 11736 H 1086.23 2.88264 3.98955 0
M  V30 11737 N 1087.88 -1.11734 1.11145 0
M  V30 11738 C 1088.81 -2.1976 0.789152 0
M  V30 11739 C 1089.79 -1.68382 -0.241143 0
M  V30 11740 O 1090.98 -1.93914 -0.105292 0
M  V30 11741 C 1088.11 -3.46549 0.228204 0
M  V30 11742 C 1087.06 -4.11123 1.19002 0
M  V30 11743 C 1086.39 -5.32451 0.489928 0
M  V30 11744 C 1087.69 -4.56406 2.53951 0
M  V30 11745 H 1089.38 -2.46978 1.69241 0
M  V30 11746 H 1086.93 -1.18705 0.81517 0
M  V30 11747 H 1088.88 -4.21399 -0.00945908 0
M  V30 11748 H 1087.6 -3.18782 -0.71033 0
M  V30 11749 H 1086.26 -3.38264 1.41326 0
M  V30 11750 H 1085.91 -5.00953 -0.453315 0
M  V30 11751 H 1085.61 -5.76605 1.1314 0
M  V30 11752 H 1087.14 -6.10042 0.260984 0
M  V30 11753 H 1088.55 -5.22592 2.35733 0
M  V30 11754 H 1086.95 -5.11363 3.14051 0
M  V30 11755 H 1088.02 -3.7001 3.13402 0
M  V30 11756 N 1089.36 -0.901303 -1.29284 0
M  V30 11757 C 1090.27 -0.3849 -2.31421 0
M  V30 11758 C 1091.29 0.521163 -1.66012 0
M  V30 11759 O 1092.46 0.410356 -1.97175 0
M  V30 11760 C 1089.53 0.377804 -3.44635 0
M  V30 11761 C 1088.59 -0.559974 -4.25632 0
M  V30 11762 C 1087.82 0.166425 -5.3344 0
M  V30 11763 O 1088.04 1.39012 -5.53202 0
M  V30 11764 O 1086.98 -0.491875 -5.99887 0
M  V30 11765 H 1090.8 -1.2323 -2.77575 0
M  V30 11766 H 1088.39 -0.665683 -1.3375 0
M  V30 11767 H 1090.27 0.809041 -4.13561 0
M  V30 11768 H 1088.95 1.20124 -3.00586 0
M  V30 11769 H 1087.85 -1.04036 -3.59343 0
M  V30 11770 H 1089.19 -1.34987 -4.73328 0
M  V30 11771 N 1090.84 1.42931 -0.663954 0
M  V30 11772 C 1091.75 2.3459 0.0214234 0
M  V30 11773 C 1092.76 1.54487 0.800611 0
M  V30 11774 O 1093.94 1.87098 0.74541 0
M  V30 11775 C 1091 3.32896 0.968556 0
M  V30 11776 C 1090.07 4.28901 0.185108 0
M  V30 11777 C 1089.3 5.2251 1.08713 0
M  V30 11778 O 1089.52 5.20795 2.32655 0
M  V30 11779 O 1088.46 5.99347 0.553758 0
M  V30 11780 H 1092.28 2.94714 -0.733308 0
M  V30 11781 H 1089.87 1.43252 -0.424159 0
M  V30 11782 H 1091.75 3.93318 1.51257 0
M  V30 11783 H 1090.42 2.75261 1.70333 0
M  V30 11784 H 1089.33 3.71926 -0.402752 0
M  V30 11785 H 1090.66 4.89547 -0.510319 0
M  V30 11786 N 1092.32 0.406567 1.52266 0
M  V30 11787 C 1093.55 -0.169378 2.05905 0
M  V30 11788 C 1093.95 -1.39626 1.27676 0
M  V30 11789 O 1093.3 -1.80871 0.32114 0
M  V30 11790 C 1093.36 -0.587209 3.54672 0
M  V30 11791 C 1093.02 0.528588 4.53933 0
M  V30 11792 C 1094.02 1.39137 5.00936 0
M  V30 11793 C 1091.7 0.700549 4.97391 0
M  V30 11794 C 1093.7 2.41108 5.90039 0
M  V30 11795 C 1091.39 1.72357 5.8629 0
M  V30 11796 C 1092.38 2.57725 6.32509 0
M  V30 11797 O 1092.07 3.58275 7.19649 0
M  V30 11798 H 1091.8 -0.0250574 0.675535 0
M  V30 11799 H 1094.36 0.575377 1.97177 0
M  V30 11800 H 1092.59 -1.38421 3.61077 0
M  V30 11801 H 1094.28 -1.09078 3.90969 0
M  V30 11802 H 1095.04 1.26991 4.68079 0
M  V30 11803 H 1090.92 0.0457503 4.60977 0
M  V30 11804 H 1094.47 3.07774 6.26036 0
M  V30 11805 H 1090.36 1.84535 6.1856 0
M  V30 11806 H 1091.13 3.54489 7.37753 0
M  V30 11807 N 1093.79 -1.57004 0.136909 0
M  V30 11808 C 1094.74 -2.17524 -0.823784 0
M  V30 11809 C 1095.74 -1.1294 -1.26258 0
M  V30 11810 O 1096.94 -1.3121 -1.23223 0
M  V30 11811 H 1093.32 -0.696381 -0.283827 0
M  V30 11812 H 1095.29 -2.96997 -0.289052 0
M  V30 11813 C 1094.04 -2.80331 -2.05693 0
M  V30 11814 H 1093.36 -3.60515 -1.72825 0
M  V30 11815 H 1094.8 -3.26192 -2.70878 0
M  V30 11816 C 1093.26 -1.78322 -2.85837 0
M  V30 11817 O 1093.79 -1.2475 -3.81838 0
M  V30 11818 N 1092 -1.47854 -2.50175 0
M  V30 11819 H 1091.54 -1.9161 -1.72173 0
M  V30 11820 H 1091.5 -0.798464 -3.04092 0
M  V30 11821 N 1095.27 0.136881 -1.57004 0
M  V30 11822 C 1096.22 1.16869 -1.99023 0
M  V30 11823 C 1097.19 1.42137 -0.859435 0
M  V30 11824 O 1098.37 1.54303 -1.12229 0
M  V30 11825 C 1095.51 2.49466 -2.38455 0
M  V30 11826 C 1094.63 2.31286 -3.64871 0
M  V30 11827 C 1093.76 3.56989 -3.9336 0
M  V30 11828 C 1092.8 3.33889 -5.13015 0
M  V30 11829 N 1091.94 4.51748 -5.37464 0
M  V30 11830 H 1096.78 0.803366 -2.86967 0
M  V30 11831 H 1094.32 0.385216 -1.41967 0
M  V30 11832 H 1096.27 3.26794 -2.59348 0
M  V30 11833 H 1094.9 2.83926 -1.53577 0
M  V30 11834 H 1093.96 1.44962 -3.51696 0
M  V30 11835 H 1095.27 2.10183 -4.52355 0
M  V30 11836 H 1094.42 4.42742 -4.14806 0
M  V30 11837 H 1093.16 3.81106 -3.04318 0
M  V30 11838 H 1092.17 2.46525 -4.91432 0
M  V30 11839 H 1093.39 3.1116 -6.03619 0
M  V30 11840 H 1091.34 4.76019 -4.51377 0
M  V30 11841 H 1091.25 4.33684 -6.19237 0
M  V30 11842 H 1092.52 5.38686 -5.63416 0
M  V30 11843 N 1096.75 1.52266 0.40654 0
M  V30 11844 C 1098 1.6568 1.15035 0
M  V30 11845 C 1098.31 0.394135 1.91588 0
M  V30 11846 O 1099.52 0.408113 2.68415 0
M  V30 11847 C 1097.97 2.92725 2.0938 0
M  V30 11848 C 1097.58 4.26108 1.38332 0
M  V30 11849 C 1099.33 3.15502 2.84004 0
M  V30 11850 C 1097.23 5.44275 2.3134 0
M  V30 11851 H 1096.16 0.61719 0.43312 0
M  V30 11852 H 1098.81 1.78755 0.414598 0
M  V30 11853 H 1097.2 2.73355 2.86519 0
M  V30 11854 H 1098.37 4.55971 0.665396 0
M  V30 11855 H 1096.69 4.09454 0.757384 0
M  V30 11856 H 1099.28 4.00964 3.5374 0
M  V30 11857 H 1099.63 2.29842 3.471 0
M  V30 11858 H 1100.16 3.35357 2.13964 0
M  V30 11859 H 1096.9 6.3229 1.72887 0
M  V30 11860 H 1096.42 5.18749 3.01098 0
M  V30 11861 H 1098.1 5.77457 2.91809 0
M  V30 11862 N 1098.23 -0.663929 1.42933 0
M  V30 11863 C 1099.16 -1.78899 1.50058 0
M  V30 11864 C 1100.14 -1.66329 0.356164 0
M  V30 11865 O 1101.32 -1.85587 0.571944 0
M  V30 11866 C 1098.45 -3.17265 1.41281 0
M  V30 11867 C 1097.41 -3.44584 2.53861 0
M  V30 11868 C 1096.73 -4.82638 2.3014 0
M  V30 11869 C 1098.03 -3.40394 3.96143 0
M  V30 11870 H 1099.73 -1.73194 2.44222 0
M  V30 11871 H 1097.27 -0.83182 1.17545 0
M  V30 11872 H 1099.23 -3.95715 1.44872 0
M  V30 11873 H 1097.95 -3.23675 0.43616 0
M  V30 11874 H 1096.61 -2.685 2.49606 0
M  V30 11875 H 1096.26 -4.85711 1.30743 0
M  V30 11876 H 1095.96 -5.01879 3.056 0
M  V30 11877 H 1097.48 -5.63359 2.35497 0
M  V30 11878 H 1098.9 -4.08796 4.01943 0
M  V30 11879 H 1097.29 -3.7117 4.71543 0
M  V30 11880 H 1098.36 -2.38767 4.22041 0
M  V30 11881 N 1099.71 -1.29285 -0.901281 0
M  V30 11882 C 1100.64 -1.16832 -2.0217 0
M  V30 11883 C 1101.62 -0.0629265 -1.69984 0
M  V30 11884 O 1102.8 -0.242123 -1.92685 0
M  V30 11885 C 1099.93 -0.842406 -3.36929 0
M  V30 11886 C 1098.89 -1.90394 -3.8332 0
M  V30 11887 C 1098.21 -1.43138 -5.15185 0
M  V30 11888 C 1099.51 -3.31254 -4.03817 0
M  V30 11889 H 1101.21 -2.10562 -2.12847 0
M  V30 11890 H 1098.75 -1.01375 -1.0227 0
M  V30 11891 H 1100.71 -0.741999 -4.14816 0
M  V30 11892 H 1099.43 0.130598 -3.26339 0
M  V30 11893 H 1098.09 -1.99371 -3.07647 0
M  V30 11894 H 1097.74 -0.447091 -5.01009 0
M  V30 11895 H 1097.44 -2.14129 -5.47195 0
M  V30 11896 H 1098.96 -1.34444 -5.95615 0
M  V30 11897 H 1100.37 -3.25129 -4.72191 0
M  V30 11898 H 1098.77 -4.00189 -4.47178 0
M  V30 11899 H 1099.84 -3.74349 -3.08206 0
M  V30 11900 N 1101.18 1.11143 -1.11736 0
M  V30 11901 C 1102.46 1.79384 -0.779785 0
M  V30 11902 C 1102.84 1.98015 0.731668 0
M  V30 11903 O 1102.19 1.56731 1.66276 0
M  V30 11904 C 1102.4 3.12868 -1.54643 0
M  V30 11905 C 1103.75 3.8786 -1.7277 0
M  V30 11906 O 1104.77 3.22566 -1.51094 0
M  V30 11907 O 1103.63 5.05034 -2.08813 0
M  V30 11908 H 1100.72 0.777128 -0.282845 0
M  V30 11909 H 1103.27 1.17858 -1.22096 0
M  V30 11910 H 1102.04 2.94682 -2.57446 0
M  V30 11911 H 1101.67 3.82109 -1.09901 0
M  V30 11912 N 1102.66 0.908147 1.28804 0
M  V30 11913 C 1103.6 0.336764 2.25701 0
M  V30 11914 C 1104.57 -0.555849 1.52804 0
M  V30 11915 O 1105.76 -0.500763 1.81727 0
M  V30 11916 C 1102.88 -0.519154 3.34698 0
M  V30 11917 C 1101.93 0.307304 4.25391 0
M  V30 11918 S 1102.76 1.71048 5.07447 0
M  V30 11919 C 1103.92 0.861715 6.1994 0
M  V30 11920 H 1104.15 1.15806 2.73818 0
M  V30 11921 H 1101.69 0.709033 1.37157 0
M  V30 11922 H 1103.64 -1.00718 3.97952 0
M  V30 11923 H 1102.3 -1.31477 2.85259 0
M  V30 11924 H 1101.5 -0.346906 5.02805 0
M  V30 11925 H 1101.1 0.728777 3.66831 0
M  V30 11926 H 1103.39 0.088851 6.77442 0
M  V30 11927 H 1104.33 1.60821 6.89596 0
M  V30 11928 H 1104.74 0.412366 5.62992 0
M  V30 11929 N 1104.14 -1.42577 0.671525 0
M  V30 11930 C 1105.05 -2.34598 -0.00898225 0
M  V30 11931 C 1106.07 -1.54909 -0.792407 0
M  V30 11932 O 1107.24 -1.87491 -0.735477 0
M  V30 11933 C 1104.31 -3.33405 -0.950888 0
M  V30 11934 C 1103.37 -4.28993 -0.16236 0
M  V30 11935 C 1102.6 -5.2308 -1.0594 0
M  V30 11936 O 1102.82 -5.22022 -2.2989 0
M  V30 11937 O 1101.76 -5.99632 -0.521966 0
M  V30 11938 H 1105.58 -2.94321 0.748927 0
M  V30 11939 H 1103.17 -1.43025 0.43175 0
M  V30 11940 H 1105.05 -3.94115 -1.49169 0
M  V30 11941 H 1103.73 -2.7616 -1.68871 0
M  V30 11942 H 1102.63 -3.71707 0.42247 0
M  V30 11943 H 1103.97 -4.8927 0.536274 0
M  V30 11944 N 1105.62 -0.414636 -1.52048 0
M  V30 11945 C 1106.85 0.158686 -2.06291 0
M  V30 11946 C 1107.26 1.38397 -1.2842 0
M  V30 11947 O 1106.62 1.79351 -0.337539 0
M  V30 11948 C 1106.67 0.503634 -3.57975 0
M  V30 11949 O 1106.39 -0.672996 -4.329 0
M  V30 11950 C 1107.89 1.13009 -4.28653 0
M  V30 11951 H 1105.11 0.0179622 -0.67076 0
M  V30 11952 H 1107.66 -0.587177 -1.95889 0
M  V30 11953 H 1105.81 1.19939 -3.68366 0
M  V30 11954 H 1106.22 -0.383735 -5.23094 0
M  V30 11955 H 1107.7 1.32162 -5.35945 0
M  V30 11956 H 1108.18 2.10476 -3.85482 0
M  V30 11957 H 1108.78 0.474379 -4.22646 0
M  V30 11958 N 1107.1 1.56929 -0.145233 0
M  V30 11959 C 1108.32 2.00431 0.513314 0
M  V30 11960 C 1108.74 1.0253 1.58534 0
M  V30 11961 O 1108.1 0.0220459 1.82487 0
M  V30 11962 C 1108.15 3.43856 1.11557 0
M  V30 11963 O 1107.87 4.38015 0.0863707 0
M  V30 11964 C 1109.37 4.02627 1.8549 0
M  V30 11965 H 1106.59 0.657529 0.133778 0
M  V30 11966 H 1109.13 2.03095 -0.239296 0
M  V30 11967 H 1107.29 3.4205 1.81881 0
M  V30 11968 H 1107.7 5.21842 0.527363 0
M  V30 11969 H 1109.18 5.04985 2.22923 0
M  V30 11970 H 1109.65 3.43239 2.74014 0
M  V30 11971 H 1110.26 4.08058 1.19869 0
M  V30 11972 N 1108.58 -0.128553 1.57075 0
M  V30 11973 C 1109.81 -0.851214 1.8825 0
M  V30 11974 C 1110.21 -1.74402 0.733531 0
M  V30 11975 O 1109.56 -1.81149 -0.305108 0
M  V30 11976 C 1109.62 -1.74451 3.14336 0
M  V30 11977 C 1109.28 -1.02699 4.45311 0
M  V30 11978 C 1110.28 -0.37224 5.18566 0
M  V30 11979 C 1107.96 -1.01101 4.9202 0
M  V30 11980 C 1109.96 0.2889 6.36745 0
M  V30 11981 C 1107.65 -0.346063 6.10119 0
M  V30 11982 C 1108.64 0.302744 6.82329 0
M  V30 11983 O 1108.33 0.9571 7.98182 0
M  V30 11984 H 1108.06 -0.250529 0.627863 0
M  V30 11985 H 1110.62 -0.120418 2.05047 0
M  V30 11986 H 1108.85 -2.51671 2.93596 0
M  V30 11987 H 1110.54 -2.34075 3.31608 0
M  V30 11988 H 1111.3 -0.376271 4.83538 0
M  V30 11989 H 1107.18 -1.50543 4.35727 0
M  V30 11990 H 1110.73 0.795901 6.93045 0
M  V30 11991 H 1106.62 -0.339762 6.44605 0
M  V30 11992 H 1107.39 0.860616 8.13963 0
M  V30 11993 N 1110.05 -1.5248 -0.398459 0
M  V30 11994 C 1111.28 -1.71221 -1.17039 0
M  V30 11995 C 1111.7 -0.425515 -1.83224 0
M  V30 11996 O 1111.06 0.617938 -1.70444 0
M  V30 11997 C 1111.11 -2.8562 -2.20121 0
M  V30 11998 O 1110.21 -2.51934 -3.26501 0
M  V30 11999 H 1109.55 -0.569654 -0.34116 0
M  V30 12000 H 1112.08 -1.99231 -0.465652 0
M  V30 12001 H 1112.09 -3.10842 -2.64275 0
M  V30 12002 H 1110.77 -3.78969 -1.71334 0
M  V30 12003 H 1109.35 -2.3742 -2.87552 0
M  V30 12004 N 1111.53 0.65634 -1.43283 0
M  V30 12005 C 1112.78 1.41837 -1.44949 0
M  V30 12006 C 1113.11 1.94065 -0.0723212 0
M  V30 12007 O 1112.39 1.72092 0.906346 0
M  V30 12008 C 1112.67 2.60206 -2.48927 0
M  V30 12009 C 1112.52 2.1349 -3.95907 0
M  V30 12010 C 1113.84 3.62421 -2.49678 0
M  V30 12011 H 1110.96 0.514398 -0.527792 0
M  V30 12012 H 1113.6 0.74435 -1.74813 0
M  V30 12013 H 1111.75 3.17708 -2.23592 0
M  V30 12014 H 1113.42 1.61012 -4.32288 0
M  V30 12015 H 1111.67 1.4489 -4.08888 0
M  V30 12016 H 1112.34 2.98596 -4.64268 0
M  V30 12017 H 1114.81 3.14671 -2.72252 0
M  V30 12018 H 1113.69 4.42798 -3.24378 0
M  V30 12019 H 1113.95 4.14802 -1.52944 0
M  V30 12020 N 1113.01 1.29761 0.894412 0
M  V30 12021 C 1113.97 1.15335 1.98067 0
M  V30 12022 C 1114.97 0.0872804 1.60563 0
M  V30 12023 O 1116.16 0.334645 1.70955 0
M  V30 12024 C 1113.29 0.764907 3.32208 0
M  V30 12025 H 1114.49 2.11829 2.12293 0
M  V30 12026 H 1112.04 1.13023 1.0796 0
M  V30 12027 H 1112.78 -0.199948 3.23683 0
M  V30 12028 H 1112.56 1.53523 3.60795 0
M  V30 12029 H 1114.05 0.687176 4.11907 0
M  V30 12030 N 1114.49 -1.10549 1.12324 0
M  V30 12031 C 1115.72 -1.8627 0.900618 0
M  V30 12032 C 1116.13 -1.80609 -0.550069 0
M  V30 12033 O 1115.49 -1.19396 -1.38025 0
M  V30 12034 C 1115.54 -3.34716 1.36556 0
M  V30 12035 O 1115.26 -3.40279 2.75938 0
M  V30 12036 C 1116.76 -4.27315 1.17969 0
M  V30 12037 H 1113.98 -0.588741 0.321908 0
M  V30 12038 H 1116.52 -1.39759 1.49291 0
M  V30 12039 H 1114.68 -3.78697 0.81652 0
M  V30 12040 H 1115.09 -4.32781 2.96312 0
M  V30 12041 H 1116.57 -5.29677 1.55391 0
M  V30 12042 H 1117.04 -4.39036 0.120158 0
M  V30 12043 H 1117.65 -3.89137 1.71617 0
M  V30 12044 N 1115.97 -0.914965 -1.28321 0
M  V30 12045 C 1117.21 -0.549562 -1.95212 0
M  V30 12046 C 1117.54 0.904658 -1.71842 0
M  V30 12047 O 1116.82 1.64354 -1.04009 0
M  V30 12048 C 1117.1 -0.860927 -3.49657 0
M  V30 12049 C 1116.96 -2.36797 -3.82423 0
M  V30 12050 C 1118.27 -0.357926 -4.38642 0
M  V30 12051 H 1115.39 -0.201136 -0.709023 0
M  V30 12052 H 1118.04 -1.14443 -1.51667 0
M  V30 12053 H 1116.19 -0.354665 -3.86878 0
M  V30 12054 H 1117.86 -2.94494 -3.55065 0
M  V30 12055 H 1116.1 -2.82245 -3.29424 0
M  V30 12056 H 1116.77 -2.53637 -4.90278 0
M  V30 12057 H 1119.25 -0.791636 -4.085 0
M  V30 12058 H 1118.12 -0.604855 -5.45557 0
M  V30 12059 H 1118.38 0.741775 -4.35833 0
M  V30 12060 N 1117.44 1.42219 -0.679077 0
M  V30 12061 C 1118.68 2.03349 -0.207058 0
M  V30 12062 C 1119.05 1.52554 1.16581 0
M  V30 12063 O 1120.25 2.05499 1.73274 0
M  V30 12064 C 1118.52 3.56562 -0.244537 0
M  V30 12065 S 1120.08 4.38523 0.155853 0
M  V30 12066 H 1116.9 0.705932 -0.0847444 0
M  V30 12067 H 1119.5 1.73904 -0.893183 0
M  V30 12068 H 1118.2 3.91028 -1.246 0
M  V30 12069 H 1117.73 3.90686 0.461282 0
M  V30 12070 H 1119.75 4.76389 1.38808 0
M  V30 12071 N 1118.92 0.422693 1.51826 0
M  V30 12072 C 1119.87 -0.413725 2.24215 0
M  V30 12073 C 1120.86 -1.00228 1.2587 0
M  V30 12074 O 1122.05 -0.922845 1.51038 0
M  V30 12075 C 1119.18 -1.52244 3.07696 0
M  V30 12076 C 1118.26 -0.943999 4.1346 0
M  V30 12077 N 1118.65 -0.0934117 5.05714 0
M  V30 12078 C 1116.95 -1.21311 4.29185 0
M  V30 12079 C 1117.65 0.229891 5.81246 0
M  V30 12080 N 1116.63 -0.382753 5.42251 0
M  V30 12081 H 1120.43 0.242283 2.929 0
M  V30 12082 H 1117.94 0.233902 1.60707 0
M  V30 12083 H 1119.94 -2.13438 3.5812 0
M  V30 12084 H 1118.6 -2.18093 2.40552 0
M  V30 12085 H 1119.61 0.271932 5.17186 0
M  V30 12086 H 1116.29 -1.87018 3.7327 0
M  V30 12087 H 1117.68 0.921159 6.65556 0
M  V30 12088 N 1120.4 -1.5685 0.153553 0
M  V30 12089 C 1121.81 -1.83074 -0.36618 0
M  V30 12090 C 1122.16 -1.07257 -1.64288 0
M  V30 12091 O 1121.29 -0.319925 -2.14022 0
M  V30 12092 C 1121.88 -3.32086 -0.671142 0
M  V30 12093 C 1120.44 -3.58868 -1.13537 0
M  V30 12094 C 1119.59 -2.76827 -0.161887 0
M  V30 12095 H 1122.54 -1.54129 0.378139 0
M  V30 12096 H 1122.56 -3.48598 -1.52512 0
M  V30 12097 H 1122.07 -3.8724 0.258234 0
M  V30 12098 H 1120.17 -3.09107 -2.08047 0
M  V30 12099 H 1120.29 -4.67299 -1.05682 0
M  V30 12100 H 1118.65 -2.46112 -0.6558 0
M  V30 12101 H 1119.43 -3.34755 0.761195 0
M  V30 12102 N 1121.88 0.120221 -1.57141 0
M  V30 12103 C 1122.83 1.16654 -2.01233 0
M  V30 12104 C 1123.82 1.42943 -0.909053 0
M  V30 12105 O 1125.03 1.4292 -1.09426 0
M  V30 12106 H 1121.4 0.393289 -0.640958 0
M  V30 12107 H 1123.37 0.768156 -2.88343 0
M  V30 12108 C 1122.12 2.4854 -2.43152 0
M  V30 12109 H 1121.44 2.29149 -3.27614 0
M  V30 12110 H 1122.88 3.20315 -2.77802 0
M  V30 12111 C 1121.34 3.1103 -1.29468 0
M  V30 12112 O 1121.87 3.97042 -0.609982 0
M  V30 12113 N 1120.08 2.70888 -1.05205 0
M  V30 12114 H 1119.63 2.01039 -1.61062 0
M  V30 12115 H 1119.58 3.13028 -0.293347 0
M  V30 12116 N 1123.36 1.52689 0.390367 0
M  V30 12117 C 1124.6 1.67335 1.13329 0
M  V30 12118 C 1124.93 0.415068 1.90531 0
M  V30 12119 O 1124.2 -0.570504 1.87409 0
M  V30 12120 H 1122.78 0.616821 0.421356 0
M  V30 12121 H 1125.44 1.89799 0.443 0
M  V30 12122 H 1124.53 2.52314 1.83696 0
M  V30 12123 N 1124.83 -0.648732 1.43629 0
M  V30 12124 C 1126.06 -1.44117 1.49148 0
M  V30 12125 C 1126.48 -1.87767 0.111952 0
M  V30 12126 O 1125.84 -1.57655 -0.895249 0
M  V30 12127 C 1125.89 -2.64938 2.44623 0
M  V30 12128 O 1124.99 -3.64155 1.93559 0
M  V30 12129 H 1124.34 -0.431933 0.504312 0
M  V30 12130 H 1126.87 -0.793439 1.88589 0
M  V30 12131 H 1126.88 -3.12698 2.62076 0
M  V30 12132 H 1125.55 -2.3251 3.44836 0
M  V30 12133 H 1124.13 -3.23322 1.85789 0
M  V30 12134 N 1126.31 -1.30234 -0.887518 0
M  V30 12135 C 1127.55 -1.20191 -1.65328 0
M  V30 12136 C 1127.92 0.240121 -1.90493 0
M  V30 12137 O 1129.12 0.463744 -2.64769 0
M  V30 12138 C 1127.39 -2.00506 -2.95858 0
M  V30 12139 S 1128.95 -2.07133 -3.86835 0
M  V30 12140 H 1125.77 -0.428366 -0.567472 0
M  V30 12141 H 1128.37 -1.64677 -1.05364 0
M  V30 12142 H 1127.07 -3.04396 -2.75266 0
M  V30 12143 H 1126.6 -1.56672 -3.60857 0
M  V30 12144 H 1128.62 -1.19687 -4.81549 0
M  V30 12145 N 1127.79 1.09952 -1.12909 0
M  V30 12146 C 1128.72 2.18477 -0.824014 0
M  V30 12147 C 1129.7 1.68744 0.214324 0
M  V30 12148 O 1130.89 1.94057 0.0744281 0
M  V30 12149 C 1128.02 3.46143 -0.283308 0
M  V30 12150 C 1126.97 4.09178 -1.25528 0
M  V30 12151 C 1126.3 5.31604 -0.574574 0
M  V30 12152 C 1127.6 4.52308 -2.6118 0
M  V30 12153 H 1129.29 2.44254 -1.73148 0
M  V30 12154 H 1126.84 1.17394 -0.833952 0
M  V30 12155 H 1128.79 4.21361 -0.057583 0
M  V30 12156 H 1127.51 3.19872 0.659525 0
M  V30 12157 H 1126.17 3.35973 -1.4669 0
M  V30 12158 H 1125.82 5.01611 0.37356 0
M  V30 12159 H 1125.52 5.74732 -1.22299 0
M  V30 12160 H 1127.04 6.0955 -0.358004 0
M  V30 12161 H 1128.46 5.18776 -2.44017 0
M  V30 12162 H 1126.86 5.06302 -3.22147 0
M  V30 12163 H 1127.93 3.64977 -3.19249 0
M  V30 12164 N 1129.27 0.921757 1.27833 0
M  V30 12165 C 1130.2 0.373575 2.26135 0
M  V30 12166 C 1131.21 -0.492414 1.55174 0
M  V30 12167 O 1132.4 -0.305998 1.75858 0
M  V30 12168 C 1129.5 -0.483911 3.35427 0
M  V30 12169 C 1128.68 0.361411 4.35904 0
M  V30 12170 C 1127.73 -0.432461 5.2442 0
M  V30 12171 O 1126.76 0.15777 5.68981 0
M  V30 12172 N 1127.96 -1.73367 5.54007 0
M  V30 12173 H 1130.73 1.21856 2.73809 0
M  V30 12174 H 1128.29 0.788552 1.41398 0
M  V30 12175 H 1130.28 -1.02193 3.91585 0
M  V30 12176 H 1128.85 -1.22963 2.874 0
M  V30 12177 H 1128.07 1.08076 3.79095 0
M  V30 12178 H 1129.36 0.939528 5.0005 0
M  V30 12179 H 1128.76 -2.23561 5.19651 0
M  V30 12180 H 1127.31 -2.21834 6.12889 0
M  V30 12181 N 1130.75 -1.41857 0.686609 0
M  V30 12182 C 1131.68 -2.33481 0.0298353 0
M  V30 12183 C 1132.66 -1.51329 -0.776756 0
M  V30 12184 O 1133.84 -1.79895 -0.731535 0
M  V30 12185 C 1130.97 -3.35065 -0.913707 0
M  V30 12186 C 1129.93 -4.2746 -0.214861 0
M  V30 12187 C 1129.25 -5.19346 -1.27215 0
M  V30 12188 C 1130.55 -5.14252 0.913367 0
M  V30 12189 H 1132.25 -2.8865 0.795067 0
M  V30 12190 H 1129.79 -1.38792 0.383785 0
M  V30 12191 H 1131.75 -3.98082 -1.38234 0
M  V30 12192 H 1130.47 -2.78226 -1.7105 0
M  V30 12193 H 1129.13 -3.65855 0.233651 0
M  V30 12194 H 1128.78 -4.58827 -2.06124 0
M  V30 12195 H 1128.48 -5.81996 -0.80961 0
M  V30 12196 H 1130 -5.85239 -1.74147 0
M  V30 12197 H 1131.41 -5.70887 0.525424 0
M  V30 12198 H 1129.81 -5.85796 1.30244 0
M  V30 12199 H 1130.88 -4.51949 1.75699 0
M  V30 12200 N 1132.22 -0.430739 -1.51599 0
M  V30 12201 C 1133.13 0.390347 -2.3133 0
M  V30 12202 C 1134.15 1.03376 -1.39962 0
M  V30 12203 O 1135.33 1.03057 -1.73035 0
M  V30 12204 C 1132.39 1.48039 -3.13505 0
M  V30 12205 C 1131.45 0.857792 -4.20643 0
M  V30 12206 C 1130.69 1.89589 -4.9889 0
M  V30 12207 O 1130.91 3.11717 -4.77691 0
M  V30 12208 O 1129.84 1.49009 -5.83164 0
M  V30 12209 H 1133.67 -0.260358 -3.02582 0
M  V30 12210 H 1131.25 -0.193428 -1.48143 0
M  V30 12211 H 1133.14 2.11272 -3.64612 0
M  V30 12212 H 1131.81 2.1153 -2.45024 0
M  V30 12213 H 1130.72 0.187592 -3.73629 0
M  V30 12214 H 1132.05 0.266474 -4.91478 0
M  V30 12215 N 1133.7 1.56767 -0.161869 0
M  V30 12216 C 1135.11 1.83265 0.356466 0
M  V30 12217 C 1135.46 1.08127 1.63716 0
M  V30 12218 O 1134.59 0.33127 2.13849 0
M  V30 12219 C 1135.18 3.32437 0.653521 0
M  V30 12220 C 1133.74 3.59465 1.11633 0
M  V30 12221 C 1132.89 2.76909 0.147204 0
M  V30 12222 H 1135.84 1.53926 -0.386308 0
M  V30 12223 H 1135.86 3.49401 1.50662 0
M  V30 12224 H 1135.37 3.87098 -0.278766 0
M  V30 12225 H 1133.48 3.10206 2.06404 0
M  V30 12226 H 1133.59 4.67853 1.03202 0
M  V30 12227 H 1131.95 2.46457 0.642739 0
M  V30 12228 H 1132.74 3.34346 -0.778938 0
M  V30 12229 N 1135.18 -0.111886 1.57202 0
M  V30 12230 C 1136.46 -0.849125 1.76208 0
M  V30 12231 C 1136.84 -1.97735 0.73919 0
M  V30 12232 O 1136.19 -2.27283 -0.235523 0
M  V30 12233 C 1136.4 -1.35924 3.21443 0
M  V30 12234 C 1137.74 -1.80874 3.84148 0
M  V30 12235 O 1138.77 -1.45587 3.25089 0
M  V30 12236 O 1137.63 -2.46065 4.87969 0
M  V30 12237 H 1134.72 -0.403761 0.721738 0
M  V30 12238 H 1137.27 -0.0950726 1.69433 0
M  V30 12239 H 1136.04 -0.550113 3.87414 0
M  V30 12240 H 1135.66 -2.17579 3.32784 0
M  V30 12241 N 1136.66 -1.52894 -0.382264 0
M  V30 12242 C 1137.59 -1.81122 -1.47367 0
M  V30 12243 C 1138.57 -0.663653 -1.56619 0
M  V30 12244 O 1139.75 -0.911898 -1.71459 0
M  V30 12245 C 1136.88 -1.98615 -2.84902 0
M  V30 12246 C 1135.84 -3.14328 -2.90485 0
M  V30 12247 C 1135.16 -3.17086 -4.30535 0
M  V30 12248 C 1136.46 -4.53263 -2.59519 0
M  V30 12249 H 1138.16 -2.72518 -1.23993 0
M  V30 12250 H 1135.7 -1.3113 -0.595049 0
M  V30 12251 H 1137.66 -2.16946 -3.61265 0
M  V30 12252 H 1136.38 -1.03915 -3.09628 0
M  V30 12253 H 1135.04 -2.95791 -2.16572 0
M  V30 12254 H 1134.69 -2.20055 -4.52311 0
M  V30 12255 H 1134.39 -3.94821 -4.3519 0
M  V30 12256 H 1135.91 -3.3758 -5.08795 0
M  V30 12257 H 1137.33 -4.71867 -3.25598 0
M  V30 12258 H 1135.72 -5.33115 -2.75514 0
M  V30 12259 H 1136.79 -4.59516 -1.54831 0
M  V30 12260 N 1138.14 0.641106 -1.43971 0
M  V30 12261 C 1139.37 1.42829 -1.49692 0
M  V30 12262 C 1139.78 1.88427 -0.118594 0
M  V30 12263 O 1139.14 1.60234 0.873581 0
M  V30 12264 C 1139.19 2.65524 -2.45314 0
M  V30 12265 O 1138.91 2.2183 -3.77787 0
M  V30 12266 C 1140.41 3.58758 -2.60399 0
M  V30 12267 H 1137.63 0.438367 -0.508011 0
M  V30 12268 H 1140.17 0.784933 -1.88836 0
M  V30 12269 H 1138.33 3.25973 -2.09332 0
M  V30 12270 H 1138.74 3.01303 -4.29321 0
M  V30 12271 H 1140.22 4.41483 -3.31357 0
M  V30 12272 H 1140.69 4.06909 -1.65294 0
M  V30 12273 H 1141.3 3.04184 -2.97241 0
M  V30 12274 N 1139.62 1.30703 0.880598 0
M  V30 12275 C 1140.56 1.17369 2.00817 0
M  V30 12276 C 1141.56 0.0845159 1.69189 0
M  V30 12277 O 1142.76 0.245673 1.78316 0
M  V30 12278 H 1139.14 0.363107 0.658527 0
M  V30 12279 H 1141.11 2.12789 2.09197 0
M  V30 12280 C 1139.86 0.886851 3.362 0
M  V30 12281 H 1139.18 1.71704 3.61051 0
M  V30 12282 H 1140.62 0.83368 4.15723 0
M  V30 12283 C 1139.08 -0.410293 3.34392 0
M  V30 12284 O 1139.61 -1.43044 3.75368 0
M  V30 12285 N 1137.82 -0.423023 2.87505 0
M  V30 12286 H 1137.36 0.407637 2.54354 0
M  V30 12287 H 1137.32 -1.29086 2.86678 0
M  V30 12288 N 1141.09 -1.09351 1.1349 0
M  V30 12289 C 1142.34 -1.81812 0.898452 0
M  V30 12290 C 1142.67 -1.85525 -0.573959 0
M  V30 12291 O 1141.95 -1.32403 -1.42477 0
M  V30 12292 C 1142.23 -3.27921 1.48794 0
M  V30 12293 C 1142.08 -3.32476 3.02952 0
M  V30 12294 C 1143.4 -4.24625 1.15678 0
M  V30 12295 H 1140.52 -0.660074 0.327829 0
M  V30 12296 H 1143.16 -1.28091 1.40331 0
M  V30 12297 H 1141.31 -3.738 1.05858 0
M  V30 12298 H 1142.99 -2.94994 3.54649 0
M  V30 12299 H 1141.23 -2.72037 3.37903 0
M  V30 12300 H 1141.9 -4.35409 3.39298 0
M  V30 12301 H 1144.38 -3.87036 1.52781 0
M  V30 12302 H 1143.25 -5.25194 1.59571 0
M  V30 12303 H 1143.51 -4.42044 0.0705933 0
M  V30 12304 N 1142.57 -0.928524 -1.27343 0
M  V30 12305 C 1143.5 -0.372628 -2.25137 0
M  V30 12306 C 1144.48 0.531468 -1.53669 0
M  V30 12307 O 1145.67 0.471788 -1.825 0
M  V30 12308 C 1142.79 0.465841 -3.35481 0
M  V30 12309 C 1141.84 -0.374941 -4.24849 0
M  V30 12310 S 1142.67 -1.791 -5.04662 0
M  V30 12311 C 1143.83 -0.960233 -6.1849 0
M  V30 12312 H 1144.06 -1.20147 -2.71941 0
M  V30 12313 H 1141.59 -0.730764 -1.36012 0
M  V30 12314 H 1143.55 0.943741 -3.99504 0
M  V30 12315 H 1142.21 1.26922 -2.87314 0
M  V30 12316 H 1141.41 0.266871 -5.03293 0
M  V30 12317 H 1141.01 -0.787045 -3.65625 0
M  V30 12318 H 1143.3 -0.196615 -6.77215 0
M  V30 12319 H 1144.24 -1.71771 -6.8695 0
M  V30 12320 H 1144.65 -0.501881 -5.62265 0
M  V30 12321 N 1144.05 1.41491 -0.694123 0
M  V30 12322 C 1145.01 2.2917 -0.0368562 0
M  V30 12323 C 1146.01 1.44305 0.709426 0
M  V30 12324 O 1147.2 1.6547 0.544533 0
M  V30 12325 C 1144.33 3.27156 0.958201 0
M  V30 12326 H 1145.53 2.88787 -0.808829 0
M  V30 12327 H 1143.08 1.49453 -0.457538 0
M  V30 12328 H 1143.82 2.72516 1.75799 0
M  V30 12329 H 1143.6 3.89776 0.426227 0
M  V30 12330 H 1145.09 3.92863 1.41592 0
M  V30 12331 N 1145.53 0.438773 1.51369 0
M  V30 12332 C 1146.76 -0.125847 2.06517 0
M  V30 12333 C 1147.17 -1.36336 1.30606 0
M  V30 12334 O 1146.53 -1.78792 0.36603 0
M  V30 12335 C 1146.58 -0.446619 3.5873 0
M  V30 12336 O 1146.3 0.741781 4.31775 0
M  V30 12337 C 1147.8 -1.06175 4.30397 0
M  V30 12338 H 1145.02 -0.00728868 0.67096 0
M  V30 12339 H 1147.56 0.618267 1.9493 0
M  V30 12340 H 1145.72 -1.14064 3.70227 0
M  V30 12341 H 1146.13 0.466907 5.22418 0
M  V30 12342 H 1147.61 -1.23619 5.3798 0
M  V30 12343 H 1148.08 -2.04317 3.88782 0
M  V30 12344 H 1148.69 -0.40708 4.23347 0
M  V30 12345 N 1147.01 -1.56678 0.170181 0
M  V30 12346 C 1148.23 -2.0166 -0.484543 0
M  V30 12347 C 1148.66 -1.04962 -1.56091 0
M  V30 12348 O 1148.01 -0.0289887 -1.81277 0
M  V30 12349 C 1148.06 -3.45252 -1.04084 0
M  V30 12350 O 1147.17 -3.51623 -2.15488 0
M  V30 12351 H 1146.51 -0.653765 -0.116135 0
M  V30 12352 H 1149.04 -2.02761 0.273737 0
M  V30 12353 H 1149.05 -3.84534 -1.36373 0
M  V30 12354 H 1147.72 -4.15131 -0.252738 0
M  V30 12355 H 1146.3 -3.242 -1.84252 0
M  V30 12356 N 1148.48 0.103547 -1.57259 0
M  V30 12357 C 1149.9 0.457527 -1.52901 0
M  V30 12358 C 1150.1 1.80995 -0.8856 0
M  V30 12359 O 1149.16 2.48001 -0.474504 0
M  V30 12360 C 1150.47 0.427793 -2.97641 0
M  V30 12361 C 1152.02 0.51025 -3.08813 0
M  V30 12362 C 1152.49 0.51075 -4.55143 0
M  V30 12363 N 1153.98 0.571748 -4.59658 0
M  V30 12364 C 1154.72 0.593836 -5.70317 0
M  V30 12365 N 1154.21 0.572638 -6.90429 0
M  V30 12366 N 1156.01 0.638011 -5.58467 0
M  V30 12367 H 1148.16 -0.782408 -1.97464 0
M  V30 12368 H 1150.42 -0.290324 -0.90245 0
M  V30 12369 H 1150.13 -0.498608 -3.48148 0
M  V30 12370 H 1150 1.24991 -3.55889 0
M  V30 12371 H 1152.39 1.42707 -2.583 0
M  V30 12372 H 1152.47 -0.339846 -2.53532 0
M  V30 12373 H 1152.11 -0.40209 -5.06306 0
M  V30 12374 H 1152.04 1.37794 -5.08252 0
M  V30 12375 H 1154.53 0.593668 -3.73208 0
M  V30 12376 H 1154.85 0.592542 -7.70525 0
M  V30 12377 H 1153.19 0.539818 -6.929 0
M  V30 12378 H 1156.38 0.652042 -4.63536 0
M  V30 12379 H 1156.56 0.651756 -6.44714 0
M  V30 12380 N 1149.96 1.53094 0.37415 0
M  V30 12381 C 1150.91 1.78927 1.45787 0
M  V30 12382 C 1151.88 0.633187 1.53558 0
M  V30 12383 O 1153.06 0.874472 1.69581 0
M  V30 12384 C 1150.2 1.97726 2.8284 0
M  V30 12385 C 1149.32 3.25436 2.84104 0
M  V30 12386 C 1148.45 3.3447 4.12678 0
M  V30 12387 C 1147.49 4.56246 4.08051 0
M  V30 12388 N 1146.63 4.6248 5.28258 0
M  V30 12389 H 1151.47 2.71404 1.2306 0
M  V30 12390 H 1149 1.34453 0.596716 0
M  V30 12391 H 1150.96 2.06611 3.62447 0
M  V30 12392 H 1149.59 1.08593 3.03986 0
M  V30 12393 H 1148.64 3.25548 1.96781 0
M  V30 12394 H 1149.96 4.15112 2.76556 0
M  V30 12395 H 1149.11 3.4262 5.00696 0
M  V30 12396 H 1147.85 2.42795 4.22968 0
M  V30 12397 H 1146.85 4.48206 3.1842 0
M  V30 12398 H 1148.08 5.49254 3.99371 0
M  V30 12399 H 1146.03 3.73703 5.3915 0
M  V30 12400 H 1145.94 5.46049 5.22845 0
M  V30 12401 H 1147.21 4.74903 6.18132 0
M  V30 12402 N 1151.44 -0.633461 1.44309 0
M  V30 12403 C 1152.67 -1.41827 1.50229 0
M  V30 12404 C 1153.08 -1.88786 0.125082 0
M  V30 12405 O 1152.42 -1.61314 -0.878836 0
M  V30 12406 C 1152.48 -2.67372 2.40317 0
M  V30 12407 C 1152.15 -2.42224 3.87526 0
M  V30 12408 C 1153.14 -2.04199 4.7812 0
M  V30 12409 C 1150.83 -2.55936 4.32206 0
M  V30 12410 C 1152.82 -1.80211 6.11394 0
M  V30 12411 C 1150.51 -2.31563 5.65528 0
M  V30 12412 C 1151.51 -1.93758 6.5494 0
M  V30 12413 O 1151.2 -1.69654 7.85794 0
M  V30 12414 H 1150.93 -0.441478 0.51193 0
M  V30 12415 H 1153.48 -0.782118 1.89927 0
M  V30 12416 H 1151.71 -3.33616 1.95543 0
M  V30 12417 H 1153.4 -3.2937 2.37214 0
M  V30 12418 H 1154.17 -1.93164 4.44874 0
M  V30 12419 H 1150.05 -2.84333 3.62872 0
M  V30 12420 H 1153.59 -1.50628 6.81144 0
M  V30 12421 H 1149.49 -2.42206 5.98336 0
M  V30 12422 H 1150.25 -1.83919 7.97569 0
M  V30 12423 N 1152.92 -1.31168 -0.873655 0
M  V30 12424 C 1153.83 -1.20458 -2.01313 0
M  V30 12425 C 1154.84 -0.122074 -1.73571 0
M  V30 12426 O 1156.02 -0.339176 -1.98523 0
M  V30 12427 C 1153.09 -0.90876 -3.34578 0
M  V30 12428 C 1152.15 -2.07779 -3.75668 0
M  V30 12429 C 1151.38 -1.79599 -5.02573 0
M  V30 12430 O 1151.6 -0.729338 -5.65718 0
M  V30 12431 O 1150.54 -2.65169 -5.40341 0
M  V30 12432 H 1154.36 -2.16207 -2.13279 0
M  V30 12433 H 1151.95 -1.10871 -1.00139 0
M  V30 12434 H 1153.83 -0.759469 -4.145 0
M  V30 12435 H 1152.5 0.0187249 -3.23695 0
M  V30 12436 H 1151.41 -2.28247 -2.96402 0
M  V30 12437 H 1152.74 -2.9874 -3.91172 0
M  V30 12438 N 1154.4 1.08748 -1.14068 0
M  V30 12439 C 1155.67 1.7769 -0.81766 0
M  V30 12440 C 1156.05 1.99522 0.689501 0
M  V30 12441 O 1155.4 1.60222 1.62914 0
M  V30 12442 C 1155.61 3.09517 -1.61245 0
M  V30 12443 C 1156.96 3.84108 -1.80958 0
M  V30 12444 O 1157.98 3.19289 -1.57902 0
M  V30 12445 O 1156.84 5.00491 -2.19479 0
M  V30 12446 H 1153.94 0.770953 -0.299265 0
M  V30 12447 H 1156.48 1.15242 -1.24569 0
M  V30 12448 H 1155.25 2.89155 -2.63638 0
M  V30 12449 H 1154.88 3.79692 -1.17982 0
M  V30 12450 N 1155.87 0.935264 1.26849 0
M  V30 12451 C 1156.8 0.457776 2.28969 0
M  V30 12452 C 1157.79 -0.48587 1.63013 0
M  V30 12453 O 1158.97 -0.388998 1.90264 0
M  V30 12454 C 1156.1 -0.283332 3.46142 0
M  V30 12455 C 1155.05 0.573196 4.24144 0
M  V30 12456 C 1154.38 -0.297525 5.33872 0
M  V30 12457 C 1155.68 1.84153 4.88759 0
M  V30 12458 H 1157.37 1.31125 2.69159 0
M  V30 12459 H 1154.92 0.631956 1.29392 0
M  V30 12460 H 1156.87 -0.628366 4.16689 0
M  V30 12461 H 1155.6 -1.1709 3.04889 0
M  V30 12462 H 1154.26 0.901043 3.55354 0
M  V30 12463 H 1153.9 -1.18427 4.8886 0
M  V30 12464 H 1153.6 0.272126 5.8697 0
M  V30 12465 H 1155.13 -0.637961 6.07258 0
M  V30 12466 H 1156.54 1.5641 5.51551 0
M  V30 12467 H 1154.94 2.35528 5.51948 0
M  V30 12468 H 1156.01 2.5565 4.12033 0
M  V30 12469 N 1157.35 -1.41121 0.701616 0
M  V30 12470 C 1158.28 -2.33436 0.0545974 0
M  V30 12471 C 1159.26 -1.52144 -0.760662 0
M  V30 12472 O 1160.45 -1.80661 -0.712414 0
M  V30 12473 C 1157.58 -3.36015 -0.878117 0
M  V30 12474 C 1156.53 -4.27664 -0.169511 0
M  V30 12475 C 1155.86 -5.20666 -1.21699 0
M  V30 12476 C 1157.16 -5.13254 0.967859 0
M  V30 12477 H 1158.85 -2.87791 0.825637 0
M  V30 12478 H 1156.4 -1.38377 0.398484 0
M  V30 12479 H 1158.35 -3.99526 -1.34004 0
M  V30 12480 H 1157.08 -2.80024 -1.68089 0
M  V30 12481 H 1155.73 -3.65586 0.272441 0
M  V30 12482 H 1155.38 -4.60987 -2.01246 0
M  V30 12483 H 1155.08 -5.82822 -0.747836 0
M  V30 12484 H 1156.61 -5.87053 -1.6793 0
M  V30 12485 H 1158.02 -5.70298 0.585944 0
M  V30 12486 H 1156.42 -5.84381 1.3645 0
M  V30 12487 H 1157.49 -4.5006 1.80483 0
M  V30 12488 N 1158.83 -0.446794 -1.51134 0
M  V30 12489 C 1160.08 0.108888 -2.03108 0
M  V30 12490 C 1160.43 1.3956 -1.32442 0
M  V30 12491 O 1159.72 1.86631 -0.433515 0
M  V30 12492 C 1159.92 0.373015 -3.55448 0
M  V30 12493 C 1159.75 -0.886542 -4.40875 0
M  V30 12494 C 1158.52 -1.42283 -4.84854 0
M  V30 12495 C 1160.72 -1.77531 -4.82688 0
M  V30 12496 N 1158.7 -2.63394 -5.54524 0
M  V30 12497 C 1160.07 -2.83241 -5.5152 0
M  V30 12498 C 1162.12 -1.7886 -4.64665 0
M  V30 12499 C 1160.83 -3.90239 -6.0424 0
M  V30 12500 C 1162.85 -2.84798 -5.18309 0
M  V30 12501 C 1162.21 -3.89228 -5.87095 0
M  V30 12502 H 1158.31 0.000437421 -0.782 0
M  V30 12503 H 1160.9 -0.609578 -1.84911 0
M  V30 12504 H 1159.07 1.06052 -3.73641 0
M  V30 12505 H 1160.8 0.920889 -3.94083 0
M  V30 12506 H 1157.56 -0.975408 -4.63447 0
M  V30 12507 H 1157.98 -3.24833 -5.9398 0
M  V30 12508 H 1162.62 -0.994493 -4.10938 0
M  V30 12509 H 1160.34 -4.70482 -6.57018 0
M  V30 12510 H 1163.93 -2.8678 -5.0621 0
M  V30 12511 H 1162.81 -4.69854 -6.27859 0
M  V30 12512 N 1160.31 1.56586 -0.178487 0
M  V30 12513 C 1161.27 2.17091 0.73512 0
M  V30 12514 C 1162.27 1.12088 1.15295 0
M  V30 12515 O 1163.46 1.37563 1.06874 0
M  V30 12516 C 1160.59 2.75957 2.00151 0
M  V30 12517 H 1161.79 2.99176 0.208272 0
M  V30 12518 H 1159.34 1.56138 0.0710967 0
M  V30 12519 H 1160.07 1.97626 2.57127 0
M  V30 12520 H 1159.86 3.52809 1.7108 0
M  V30 12521 H 1161.35 3.2247 2.65335 0
M  V30 12522 N 1161.79 -0.095206 1.57312 0
M  V30 12523 C 1163.03 -0.794786 1.87229 0
M  V30 12524 C 1163.39 -1.7635 0.769305 0
M  V30 12525 O 1162.68 -1.9023 -0.228704 0
M  V30 12526 C 1162.87 -1.56244 3.21438 0
M  V30 12527 C 1162.7 -0.669563 4.44687 0
M  V30 12528 C 1161.47 -0.315338 5.04315 0
M  V30 12529 C 1163.67 0.0234175 5.14295 0
M  V30 12530 N 1161.65 0.585709 6.111 0
M  V30 12531 C 1163.02 0.782538 6.15042 0
M  V30 12532 C 1165.08 0.0973496 4.97805 0
M  V30 12533 C 1163.78 1.60868 7.01081 0
M  V30 12534 C 1165.81 0.910394 5.84351 0
M  V30 12535 C 1165.17 1.65763 6.84618 0
M  V30 12536 H 1161.27 -0.267005 0.735005 0
M  V30 12537 H 1163.85 -0.0573245 1.94616 0
M  V30 12538 H 1162.02 -2.27077 3.15104 0
M  V30 12539 H 1163.76 -2.2092 3.39082 0
M  V30 12540 H 1160.51 -0.662971 4.68937 0
M  V30 12541 H 1160.94 1.02878 6.69138 0
M  V30 12542 H 1165.58 -0.46602 4.20224 0
M  V30 12543 H 1163.3 2.18312 7.78052 0
M  V30 12544 H 1166.88 0.97027 5.73652 0
M  V30 12545 H 1165.76 2.27663 7.50426 0
M  V30 12546 N 1163.26 -1.53291 -0.366026 0
M  V30 12547 C 1164.17 -1.82656 -1.47221 0
M  V30 12548 C 1165.19 -0.71491 -1.58635 0
M  V30 12549 O 1166.37 -1.00492 -1.74538 0
M  V30 12550 C 1163.43 -2.00995 -2.82492 0
M  V30 12551 C 1162.49 -3.24895 -2.8061 0
M  V30 12552 C 1161.73 -3.4235 -4.09429 0
M  V30 12553 O 1161.95 -2.6411 -5.05571 0
M  V30 12554 O 1160.88 -4.35702 -4.15268 0
M  V30 12555 H 1164.71 -2.76634 -1.2533 0
M  V30 12556 H 1162.29 -1.38665 -0.556084 0
M  V30 12557 H 1164.18 -2.14632 -3.62645 0
M  V30 12558 H 1162.85 -1.10207 -3.04362 0
M  V30 12559 H 1161.76 -3.16682 -1.99157 0
M  V30 12560 H 1163.09 -4.15604 -2.63694 0
M  V30 12561 N 1164.74 0.6258 -1.44643 0
M  V30 12562 C 1165.99 1.38251 -1.47414 0
M  V30 12563 C 1166.31 1.94689 -0.110043 0
M  V30 12564 O 1165.58 1.76095 0.858333 0
M  V30 12565 H 1164.16 0.513179 -0.542823 0
M  V30 12566 H 1166.82 0.736179 -1.80462 0
M  V30 12567 H 1165.92 2.21115 -2.2026 0
M  V30 12568 N 1166.22 1.31629 0.866686 0
M  V30 12569 C 1167.47 1.22693 1.62228 0
M  V30 12570 C 1167.82 -0.212134 1.91227 0
M  V30 12571 O 1167.11 -1.1465 1.53512 0
M  V30 12572 C 1167.31 2.00775 2.95676 0
M  V30 12573 C 1167.14 3.52128 2.79708 0
M  V30 12574 C 1165.91 4.21476 2.78722 0
M  V30 12575 C 1168.11 4.47013 2.5433 0
M  V30 12576 N 1166.09 5.58963 2.53838 0
M  V30 12577 C 1167.46 5.72192 2.3874 0
M  V30 12578 C 1169.51 4.36404 2.39701 0
M  V30 12579 C 1168.22 6.8796 2.10008 0
M  V30 12580 C 1170.24 5.51959 2.12358 0
M  V30 12581 C 1169.6 6.76129 1.97559 0
M  V30 12582 H 1165.7 0.504088 0.597845 0
M  V30 12583 H 1168.29 1.65856 1.01979 0
M  V30 12584 H 1166.46 1.59975 3.53924 0
M  V30 12585 H 1168.19 1.83831 3.60539 0
M  V30 12586 H 1164.95 3.73478 2.91224 0
M  V30 12587 H 1165.37 6.31362 2.44358 0
M  V30 12588 H 1170.01 3.41066 2.49868 0
M  V30 12589 H 1167.73 7.83321 1.98578 0
M  V30 12590 H 1171.32 5.45669 2.01834 0
M  V30 12591 H 1170.2 7.64033 1.76701 0
M  V30 12592 N 1167.7 -1.08142 1.14644 0
M  V30 12593 C 1169.12 -1.32656 0.887388 0
M  V30 12594 C 1169.32 -1.95942 -0.470012 0
M  V30 12595 O 1168.37 -2.21417 -1.21371 0
M  V30 12596 C 1169.68 -2.22549 2.02219 0
M  V30 12597 C 1171.23 -2.36021 2.0558 0
M  V30 12598 C 1171.71 -3.29257 3.18361 0
M  V30 12599 N 1173.2 -3.36835 3.17957 0
M  V30 12600 C 1173.93 -4.09017 4.01862 0
M  V30 12601 N 1173.43 -4.83882 4.95812 0
M  V30 12602 N 1175.22 -4.04875 3.89913 0
M  V30 12603 H 1167.37 -0.654457 2.02066 0
M  V30 12604 H 1169.64 -0.350947 0.880648 0
M  V30 12605 H 1169.34 -1.83296 3.00159 0
M  V30 12606 H 1169.22 -3.23027 1.94765 0
M  V30 12607 H 1171.6 -2.74531 1.08245 0
M  V30 12608 H 1171.68 -1.35275 2.17105 0
M  V30 12609 H 1171.33 -2.91468 4.15944 0
M  V30 12610 H 1171.26 -4.29938 3.04074 0
M  V30 12611 H 1173.75 -2.83465 2.49912 0
M  V30 12612 H 1174.06 -5.3643 5.56294 0
M  V30 12613 H 1172.41 -4.82926 4.99808 0
M  V30 12614 H 1175.6 -3.45496 3.15833 0
M  V30 12615 H 1175.77 -4.60866 4.55529 0
M  V30 12616 N 1169.18 -0.941978 -1.26351 0
M  V30 12617 C 1170.45 -0.507822 -1.88893 0
M  V30 12618 C 1170.83 1.0146 -1.85119 0
M  V30 12619 O 1170.18 1.87495 -1.30606 0
M  V30 12620 C 1170.39 -1.07007 -3.3219 0
M  V30 12621 C 1171.74 -1.13922 -4.09032 0
M  V30 12622 O 1172.76 -1.02072 -3.41262 0
M  V30 12623 O 1171.62 -1.32362 -5.30229 0
M  V30 12624 H 1168.72 -0.165621 -0.810246 0
M  V30 12625 H 1171.26 -1.03459 -1.34515 0
M  V30 12626 H 1170.04 -2.11366 -3.29302 0
M  V30 12627 H 1169.66 -0.525797 -3.94108 0
M  V30 12628 N 1170.66 1.40747 -0.709091 0
M  V30 12629 C 1171.6 2.30741 -0.0523584 0
M  V30 12630 C 1172.57 1.4784 0.757145 0
M  V30 12631 O 1173.76 1.76595 0.72242 0
M  V30 12632 C 1170.9 3.34 0.868203 0
M  V30 12633 C 1170.01 4.31972 0.0488686 0
M  V30 12634 C 1169.15 5.223 0.968311 0
M  V30 12635 C 1168.18 6.11934 0.142682 0
M  V30 12636 N 1167.32 6.947 1.01665 0
M  V30 12637 H 1172.16 2.86338 -0.825509 0
M  V30 12638 H 1169.7 1.41013 -0.418785 0
M  V30 12639 H 1171.66 3.92431 1.41611 0
M  V30 12640 H 1170.29 2.79921 1.6076 0
M  V30 12641 H 1169.34 3.75377 -0.616137 0
M  V30 12642 H 1170.65 4.95291 -0.590625 0
M  V30 12643 H 1169.8 5.85631 1.58498 0
M  V30 12644 H 1168.54 4.5924 1.64164 0
M  V30 12645 H 1167.55 5.47639 -0.486965 0
M  V30 12646 H 1168.77 6.77052 -0.527046 0
M  V30 12647 H 1166.72 6.34236 1.67575 0
M  V30 12648 H 1166.64 7.54759 0.433045 0
M  V30 12649 H 1167.9 7.62487 1.6197 0
M  V30 12650 N 1172.13 0.454803 1.50895 0
M  V30 12651 C 1173.1 -0.336293 2.26719 0
M  V30 12652 C 1174.1 -0.93464 1.30848 0
M  V30 12653 O 1175.29 -0.80636 1.54413 0
M  V30 12654 C 1172.42 -1.47744 3.07221 0
M  V30 12655 H 1173.61 0.328462 2.98096 0
M  V30 12656 H 1171.16 0.208419 1.54904 0
M  V30 12657 H 1171.9 -2.17773 2.40302 0
M  V30 12658 H 1171.68 -1.05438 3.77658 0
M  V30 12659 H 1173.17 -2.03592 3.6461 0
M  V30 12660 N 1173.61 -1.56489 0.186789 0
M  V30 12661 C 1174.86 -1.96952 -0.453261 0
M  V30 12662 C 1175.18 -1.07451 -1.62725 0
M  V30 12663 O 1174.45 -0.144046 -1.9537 0
M  V30 12664 H 1173.03 -0.727295 -0.170445 0
M  V30 12665 H 1175.69 -1.92999 0.271584 0
M  V30 12666 H 1174.79 -3.01594 -0.802951 0
M  V30 12667 N 1175.09 0.086862 -1.5736 0
M  V30 12668 C 1176.51 0.441284 -1.53378 0
M  V30 12669 C 1176.71 1.80046 -0.904748 0
M  V30 12670 O 1175.76 2.47484 -0.500781 0
M  V30 12671 C 1177.07 0.3962 -2.98078 0
M  V30 12672 C 1178.62 0.477468 -3.09337 0
M  V30 12673 C 1179.1 0.462448 -4.55659 0
M  V30 12674 N 1180.59 0.522963 -4.60238 0
M  V30 12675 C 1181.32 0.533313 -5.70914 0
M  V30 12676 N 1180.82 0.499376 -6.90998 0
M  V30 12677 N 1182.61 0.578742 -5.59113 0
M  V30 12678 H 1174.76 -0.803308 -1.96623 0
M  V30 12679 H 1177.03 -0.299879 -0.89932 0
M  V30 12680 H 1176.73 -0.535505 -3.47599 0
M  V30 12681 H 1176.61 1.21209 -3.57195 0
M  V30 12682 H 1178.99 1.39959 -2.59799 0
M  V30 12683 H 1179.07 -0.366717 -2.53158 0
M  V30 12684 H 1178.72 -0.455768 -5.05851 0
M  V30 12685 H 1178.65 1.32396 -5.09685 0
M  V30 12686 H 1181.14 0.554051 -3.73816 0
M  V30 12687 H 1181.45 0.510784 -7.7111 0
M  V30 12688 H 1179.8 0.466296 -6.93434 0
M  V30 12689 H 1182.99 0.602841 -4.64202 0
M  V30 12690 H 1183.16 0.583339 -6.45369 0
M  V30 12691 N 1176.57 1.53483 0.357892 0
M  V30 12692 C 1177.53 1.79782 1.42166 0
M  V30 12693 C 1178.53 0.668441 1.46248 0
M  V30 12694 O 1179.72 0.936677 1.46874 0
M  V30 12695 C 1176.85 1.92686 2.8122 0
M  V30 12696 H 1178.05 2.74794 1.20117 0
M  V30 12697 H 1175.6 1.44677 0.591468 0
M  V30 12698 H 1176.33 0.997669 3.08573 0
M  V30 12699 H 1176.12 2.74837 2.79655 0
M  V30 12700 H 1177.61 2.14599 3.58242 0
M  V30 12701 N 1178.05 -0.61812 1.44973 0
M  V30 12702 C 1179.29 -1.37343 1.47715 0
M  V30 12703 C 1179.61 -1.95239 0.118784 0
M  V30 12704 O 1180.81 -2.7149 0.0237981 0
M  V30 12705 C 1179.27 -2.48732 2.60116 0
M  V30 12706 C 1178.88 -1.97294 4.02218 0
M  V30 12707 C 1180.62 -3.25831 2.72093 0
M  V30 12708 C 1178.53 -3.06102 5.06019 0
M  V30 12709 H 1177.46 -0.516175 0.549617 0
M  V30 12710 H 1180.11 -0.663617 1.7108 0
M  V30 12711 H 1178.49 -3.2235 2.30014 0
M  V30 12712 H 1179.67 -1.30455 4.41948 0
M  V30 12713 H 1177.98 -1.32972 3.94598 0
M  V30 12714 H 1180.58 -4.06968 3.46815 0
M  V30 12715 H 1180.92 -3.76156 1.7836 0
M  V30 12716 H 1181.45 -2.59309 3.01668 0
M  V30 12717 H 1178.19 -2.60706 6.01426 0
M  V30 12718 H 1177.71 -3.71541 4.70869 0
M  V30 12719 H 1179.39 -3.70662 5.30301 0
M  V30 12720 N 1179.52 -1.32087 -0.859693 0
M  V30 12721 C 1180.45 -1.23204 -1.98351 0
M  V30 12722 C 1181.43 -0.116974 -1.69697 0
M  V30 12723 O 1182.62 -0.303301 -1.91817 0
M  V30 12724 C 1179.75 -0.949171 -3.34078 0
M  V30 12725 C 1178.7 -2.02493 -3.77069 0
M  V30 12726 C 1178.03 -1.59455 -5.1037 0
M  V30 12727 C 1179.33 -3.43934 -3.93074 0
M  V30 12728 H 1181.02 -2.17227 -2.0604 0
M  V30 12729 H 1178.57 -1.04577 -0.989931 0
M  V30 12730 H 1180.52 -0.873594 -4.12245 0
M  V30 12731 H 1179.25 0.0267095 -3.26589 0
M  V30 12732 H 1177.91 -2.09057 -3.01149 0
M  V30 12733 H 1177.55 -0.606256 -4.99333 0
M  V30 12734 H 1177.25 -2.31429 -5.40106 0
M  V30 12735 H 1178.78 -1.53325 -5.91036 0
M  V30 12736 H 1180.19 -3.39986 -4.61608 0
M  V30 12737 H 1178.59 -4.14214 -4.3422 0
M  V30 12738 H 1179.66 -3.83965 -2.9614 0
M  V30 12739 N 1181 1.07532 -1.15215 0
M  V30 12740 C 1181.93 2.14598 -0.805006 0
M  V30 12741 C 1182.95 1.61778 0.182152 0
M  V30 12742 O 1184.14 1.78453 -0.040834 0
M  V30 12743 C 1181.24 3.38444 -0.175736 0
M  V30 12744 C 1180.41 4.20621 -1.19986 0
M  V30 12745 C 1179.47 5.22851 -0.592705 0
M  V30 12746 O 1178.49 5.55121 -1.25815 0
M  V30 12747 N 1179.7 5.7711 0.626425 0
M  V30 12748 H 1182.46 2.44981 -1.7264 0
M  V30 12749 H 1180.02 1.23423 -1.04778 0
M  V30 12750 H 1182.01 4.03969 0.243166 0
M  V30 12751 H 1180.58 3.0579 0.64896 0
M  V30 12752 H 1179.8 3.50941 -1.79539 0
M  V30 12753 H 1181.09 4.72339 -1.89139 0
M  V30 12754 H 1180.49 5.53139 1.18546 0
M  V30 12755 H 1179.05 6.44273 0.98771 0
M  V30 12756 N 1182.48 0.948665 1.2585 0
M  V30 12757 C 1183.73 0.600236 1.934 0
M  V30 12758 C 1184.06 -0.86185 1.74363 0
M  V30 12759 O 1183.31 -1.63294 1.07858 0
M  V30 12760 C 1183.61 0.89784 3.45939 0
M  V30 12761 C 1183.28 2.345 3.85124 0
M  V30 12762 C 1181.94 2.74058 3.95532 0
M  V30 12763 C 1184.29 3.2851 4.04636 0
M  V30 12764 C 1181.62 4.06707 4.22855 0
M  V30 12765 C 1183.97 4.60764 4.3345 0
M  V30 12766 C 1182.63 5.00127 4.42074 0
M  V30 12767 H 1181.9 0.219642 0.707699 0
M  V30 12768 H 1184.55 1.19658 1.49513 0
M  V30 12769 H 1182.86 0.219037 3.91187 0
M  V30 12770 H 1184.55 0.606916 3.96381 0
M  V30 12771 H 1181.14 2.02819 3.77574 0
M  V30 12772 H 1185.33 2.99141 3.96015 0
M  V30 12773 H 1180.58 4.36856 4.27746 0
M  V30 12774 H 1184.76 5.33594 4.47493 0
M  V30 12775 H 1182.38 6.02939 4.63 0
M  V30 12776 N 1183.96 -1.40369 0.716545 0
M  V30 12777 C 1185.19 -2.04884 0.265757 0
M  V30 12778 C 1185.6 -1.54095 -1.09779 0
M  V30 12779 O 1184.94 -0.692944 -1.70129 0
M  V30 12780 C 1185 -3.59103 0.16887 0
M  V30 12781 C 1184.67 -4.32785 1.46786 0
M  V30 12782 C 1185.66 -4.6067 2.40997 0
M  V30 12783 C 1183.35 -4.71676 1.72705 0
M  V30 12784 C 1185.34 -5.26432 3.59372 0
M  V30 12785 C 1183.03 -5.3717 2.91362 0
M  V30 12786 C 1184.03 -5.64478 3.84517 0
M  V30 12787 O 1183.71 -6.28618 5.01093 0
M  V30 12788 H 1183.45 -0.665794 0.117025 0
M  V30 12789 H 1186 -1.80746 0.975698 0
M  V30 12790 H 1184.23 -3.82064 -0.597023 0
M  V30 12791 H 1185.92 -4.05145 -0.247483 0
M  V30 12792 H 1186.69 -4.31087 2.22236 0
M  V30 12793 H 1182.56 -4.49789 1.0105 0
M  V30 12794 H 1186.11 -5.47663 4.321 0
M  V30 12795 H 1182.01 -5.66173 3.1003 0
M  V30 12796 H 1182.77 -6.47115 5.01183 0
M  V30 12797 N 1185.44 -0.462799 -1.50652 0
M  V30 12798 C 1186.85 -0.00568907 -1.86699 0
M  V30 12799 C 1187.2 1.39641 -1.37822 0
M  V30 12800 O 1186.32 2.03366 -0.739679 0
M  V30 12801 C 1186.92 -0.00354783 -3.388 0
M  V30 12802 C 1185.48 0.398061 -3.74289 0
M  V30 12803 C 1184.62 -0.392574 -2.74507 0
M  V30 12804 H 1187.58 -0.677469 -1.43513 0
M  V30 12805 H 1187.6 0.800456 -3.71985 0
M  V30 12806 H 1187.11 -1.02414 -3.74344 0
M  V30 12807 H 1185.21 1.42331 -3.44344 0
M  V30 12808 H 1185.32 0.105168 -4.78985 0
M  V30 12809 H 1183.69 0.152608 -2.54242 0
M  V30 12810 H 1184.47 -1.41252 -3.12894 0
M  V30 12811 N 1186.91 1.56388 -0.195085 0
M  V30 12812 C 1187.86 2.19091 0.725793 0
M  V30 12813 C 1188.83 1.13814 1.20977 0
M  V30 12814 O 1190.02 1.42065 1.27366 0
M  V30 12815 C 1187.16 2.85427 1.93973 0
M  V30 12816 C 1186.27 4.05229 1.49712 0
M  V30 12817 C 1185.4 4.59421 2.66656 0
M  V30 12818 C 1184.44 5.71581 2.19001 0
M  V30 12819 N 1183.58 6.2018 3.29123 0
M  V30 12820 H 1188.42 2.97429 0.184334 0
M  V30 12821 H 1185.96 1.46886 0.0792434 0
M  V30 12822 H 1187.92 3.22057 2.65208 0
M  V30 12823 H 1186.55 2.09652 2.4545 0
M  V30 12824 H 1185.6 3.74261 0.680641 0
M  V30 12825 H 1186.91 4.8635 1.10749 0
M  V30 12826 H 1186.06 4.98357 3.46014 0
M  V30 12827 H 1184.8 3.77407 3.08893 0
M  V30 12828 H 1183.81 5.32174 1.38097 0
M  V30 12829 H 1185.03 6.55413 1.77795 0
M  V30 12830 H 1182.98 5.41088 3.70891 0
M  V30 12831 H 1182.9 6.96353 2.94328 0
M  V30 12832 H 1184.16 6.63769 4.08694 0
M  V30 12833 N 1188.39 -0.0785156 1.57404 0
M  V30 12834 C 1189.62 -0.790893 1.90862 0
M  V30 12835 C 1190.03 -1.7198 0.788644 0
M  V30 12836 O 1189.37 -1.82027 -0.247322 0
M  V30 12837 C 1189.44 -1.64362 3.19727 0
M  V30 12838 C 1189.1 -0.884796 4.48353 0
M  V30 12839 C 1190.1 -0.207074 5.19487 0
M  V30 12840 C 1187.78 -0.853962 4.94988 0
M  V30 12841 C 1189.78 0.491329 6.35504 0
M  V30 12842 C 1187.46 -0.151783 6.10911 0
M  V30 12843 C 1188.46 0.519669 6.8102 0
M  V30 12844 O 1188.15 1.21055 7.94733 0
M  V30 12845 H 1187.88 -0.230427 0.635515 0
M  V30 12846 H 1190.43 -0.0551231 2.05326 0
M  V30 12847 H 1188.66 -2.42203 3.01454 0
M  V30 12848 H 1190.35 -2.23406 3.38887 0
M  V30 12849 H 1191.12 -0.222247 4.84491 0
M  V30 12850 H 1187 -1.36605 4.40296 0
M  V30 12851 H 1190.54 1.01598 6.90162 0
M  V30 12852 H 1186.44 -0.134514 6.4536 0
M  V30 12853 H 1187.21 1.11914 8.10813 0
M  V30 12854 N 1189.87 -1.5367 -0.349747 0
M  V30 12855 C 1191.12 -1.7087 -1.0923 0
M  V30 12856 C 1191.45 -0.467299 -1.88494 0
M  V30 12857 O 1190.72 0.535619 -1.8698 0
M  V30 12858 C 1191.01 -2.9684 -2.03858 0
M  V30 12859 C 1190.86 -4.31174 -1.28097 0
M  V30 12860 C 1192.18 -3.18459 -3.03763 0
M  V30 12861 H 1189.3 -0.621757 -0.395711 0
M  V30 12862 H 1191.94 -1.86333 -0.371481 0
M  V30 12863 H 1190.09 -2.83788 -2.65323 0
M  V30 12864 H 1191.76 -4.56066 -0.692933 0
M  V30 12865 H 1190.01 -4.29866 -0.582924 0
M  V30 12866 H 1190.68 -5.15482 -1.9744 0
M  V30 12867 H 1193.15 -3.30801 -2.52409 0
M  V30 12868 H 1192.03 -4.08006 -3.67182 0
M  V30 12869 H 1192.29 -2.34467 -3.74803 0
M  V30 12870 N 1191.35 0.610423 -1.45298 0
M  V30 12871 C 1192.26 1.74964 -1.56285 0
M  V30 12872 C 1193.27 1.68149 -0.447436 0
M  V30 12873 O 1194.45 1.88556 -0.707725 0
M  V30 12874 C 1191.52 3.11417 -1.52383 0
M  V30 12875 C 1190.58 3.29707 -2.7494 0
M  V30 12876 C 1189.81 4.5965 -2.71215 0
M  V30 12877 O 1190.03 5.41789 -1.78383 0
M  V30 12878 O 1188.97 4.80591 -3.62375 0
M  V30 12879 H 1192.79 1.68646 -2.52571 0
M  V30 12880 H 1190.38 0.774168 -1.27777 0
M  V30 12881 H 1192.26 3.9272 -1.52805 0
M  V30 12882 H 1190.93 3.18232 -0.592472 0
M  V30 12883 H 1189.84 2.48003 -2.80081 0
M  V30 12884 H 1191.17 3.27766 -3.67192 0
M  V30 12885 N 1192.83 1.32541 0.852676 0
M  V30 12886 C 1193.76 1.24254 1.97694 0
M  V30 12887 C 1194.74 0.125971 1.69633 0
M  V30 12888 O 1195.92 0.31347 1.91653 0
M  V30 12889 C 1193.05 0.966874 3.3357 0
M  V30 12890 C 1192.01 2.0449 3.75989 0
M  V30 12891 C 1191.33 1.6216 5.09518 0
M  V30 12892 C 1192.63 3.46013 3.91244 0
M  V30 12893 H 1194.33 2.18317 2.04886 0
M  V30 12894 H 1191.87 1.05101 0.984371 0
M  V30 12895 H 1193.83 0.895444 4.11776 0
M  V30 12896 H 1192.55 -0.0093893 3.26599 0
M  V30 12897 H 1191.21 2.10651 3.00036 0
M  V30 12898 H 1190.86 0.632729 4.99005 0
M  V30 12899 H 1190.56 2.3429 5.38871 0
M  V30 12900 H 1192.08 1.56457 5.90215 0
M  V30 12901 H 1193.49 3.4243 4.59799 0
M  V30 12902 H 1191.89 4.1651 4.32017 0
M  V30 12903 H 1192.96 3.8553 2.941 0
M  V30 12904 N 1194.3 -1.0692 1.15784 0
M  V30 12905 C 1195.55 -1.78983 0.929944 0
M  V30 12906 C 1195.87 -1.87884 -0.543969 0
M  V30 12907 O 1197.07 -2.56513 -0.889578 0
M  V30 12908 C 1195.53 -3.21657 1.61446 0
M  V30 12909 C 1195.14 -3.20943 3.12569 0
M  V30 12910 C 1196.88 -3.98299 1.46828 0
M  V30 12911 C 1194.79 -4.58298 3.73788 0
M  V30 12912 H 1193.72 -0.670809 0.344284 0
M  V30 12913 H 1196.37 -1.19975 1.38846 0
M  V30 12914 H 1194.75 -3.80885 1.08364 0
M  V30 12915 H 1195.92 -2.71334 3.72444 0
M  V30 12916 H 1194.24 -2.57799 3.26999 0
M  V30 12917 H 1196.84 -4.99822 1.89952 0
M  V30 12918 H 1197.18 -4.14213 0.416358 0
M  V30 12919 H 1197.71 -3.45577 1.97031 0
M  V30 12920 H 1194.45 -4.47588 4.789 0
M  V30 12921 H 1193.97 -5.08126 3.18698 0
M  V30 12922 H 1195.65 -5.27262 3.74972 0
M  V30 12923 N 1195.78 -0.955326 -1.25345 0
M  V30 12924 C 1196.73 -0.467205 -2.2786 0
M  V30 12925 C 1197.72 0.462873 -1.62954 0
M  V30 12926 O 1198.93 0.339526 -1.76769 0
M  V30 12927 H 1195.31 -0.132586 -0.74022 0
M  V30 12928 H 1197.28 -1.34406 -2.66416 0
M  V30 12929 C 1196.03 0.238898 -3.46878 0
M  V30 12930 H 1195.35 -0.467644 -3.97056 0
M  V30 12931 H 1196.79 0.544444 -4.2049 0
M  V30 12932 C 1195.25 1.46164 -3.03542 0
M  V30 12933 O 1195.78 2.55933 -3.09615 0
M  V30 12934 N 1193.98 1.32324 -2.58725 0
M  V30 12935 H 1193.53 0.430131 -2.53984 0
M  V30 12936 H 1193.49 2.14253 -2.30094 0
M  V30 12937 N 1197.26 1.39987 -0.723979 0
M  V30 12938 C 1198.19 2.2917 -0.0373445 0
M  V30 12939 C 1199.21 1.46258 0.715015 0
M  V30 12940 O 1200.4 1.69455 0.561003 0
M  V30 12941 C 1197.5 3.2468 0.971384 0
M  V30 12942 C 1196.67 4.36485 0.282826 0
M  V30 12943 C 1195.73 5.12379 1.19811 0
M  V30 12944 O 1194.75 5.65127 0.67974 0
M  V30 12945 N 1195.96 5.22531 2.52866 0
M  V30 12946 H 1198.72 2.88738 -0.803131 0
M  V30 12947 H 1196.28 1.51448 -0.572292 0
M  V30 12948 H 1198.27 3.72326 1.58606 0
M  V30 12949 H 1196.84 2.6622 1.63846 0
M  V30 12950 H 1196.06 3.90859 -0.512167 0
M  V30 12951 H 1197.35 5.08427 -0.194793 0
M  V30 12952 H 1196.75 4.81174 2.97469 0
M  V30 12953 H 1195.31 5.73655 3.09457 0
M  V30 12954 N 1198.74 0.470782 1.50404 0
M  V30 12955 C 1199.7 -0.312227 2.27063 0
M  V30 12956 C 1200.7 -0.920709 1.31832 0
M  V30 12957 O 1201.89 -0.789937 1.5526 0
M  V30 12958 C 1199.02 -1.44477 3.0877 0
M  V30 12959 H 1200.22 0.36006 2.97731 0
M  V30 12960 H 1197.77 0.224837 1.54674 0
M  V30 12961 H 1198.51 -2.15212 2.42599 0
M  V30 12962 H 1198.29 -1.01426 3.78755 0
M  V30 12963 H 1199.78 -1.99713 3.66749 0
M  V30 12964 N 1200.22 -1.56282 0.203376 0
M  V30 12965 C 1201.18 -2.18233 -0.700489 0
M  V30 12966 C 1202.18 -1.13908 -1.13497 0
M  V30 12967 O 1203.37 -1.39246 -1.04672 0
M  V30 12968 C 1200.5 -2.79107 -1.95735 0
M  V30 12969 H 1201.7 -2.99469 -0.160649 0
M  V30 12970 H 1199.25 -1.56232 -0.0462475 0
M  V30 12971 H 1199.98 -2.01691 -2.53951 0
M  V30 12972 H 1199.77 -3.55486 -1.65446 0
M  V30 12973 H 1201.26 -3.2665 -2.60172 0
M  V30 12974 N 1201.7 0.070167 -1.57444 0
M  V30 12975 C 1203.11 0.424991 -1.53838 0
M  V30 12976 C 1203.31 1.79076 -0.923793 0
M  V30 12977 O 1202.37 2.46939 -0.527002 0
M  V30 12978 C 1203.68 0.364562 -2.98482 0
M  V30 12979 C 1205.23 0.444631 -3.09826 0
M  V30 12980 C 1205.7 0.414093 -4.56124 0
M  V30 12981 N 1207.19 0.474119 -4.60767 0
M  V30 12982 C 1207.93 0.472729 -5.71448 0
M  V30 12983 N 1207.43 0.426059 -6.91489 0
M  V30 12984 N 1209.22 0.519408 -5.59695 0
M  V30 12985 H 1201.37 -0.824117 -1.9576 0
M  V30 12986 H 1203.63 -0.309401 -0.896089 0
M  V30 12987 H 1203.34 -0.572343 -3.47012 0
M  V30 12988 H 1203.21 1.17414 -3.5846 0
M  V30 12989 H 1205.6 1.37196 -2.61269 0
M  V30 12990 H 1205.68 -0.393547 -2.52755 0
M  V30 12991 H 1205.32 -0.509394 -5.05339 0
M  V30 12992 H 1205.25 1.26983 -5.11061 0
M  V30 12993 H 1207.75 0.514371 -3.74383 0
M  V30 12994 H 1208.06 0.428969 -7.71609 0
M  V30 12995 H 1206.4 0.392722 -6.9389 0
M  V30 12996 H 1209.59 0.553573 -4.64815 0
M  V30 12997 H 1209.77 0.514856 -6.45951 0
M  V30 12998 N 1203.17 1.53854 0.341593 0
M  V30 12999 C 1204.1 1.84966 1.42513 0
M  V30 13000 C 1205.08 0.704944 1.54805 0
M  V30 13001 O 1206.27 0.957036 1.68981 0
M  V30 13002 C 1203.4 2.06099 2.79536 0
M  V30 13003 C 1202.35 3.21919 2.82049 0
M  V30 13004 C 1201.68 3.28389 4.21977 0
M  V30 13005 C 1202.98 4.59984 2.4741 0
M  V30 13006 H 1204.67 2.7571 1.16724 0
M  V30 13007 H 1202.22 1.32662 0.560073 0
M  V30 13008 H 1204.17 2.26448 3.55386 0
M  V30 13009 H 1202.9 1.12087 3.06764 0
M  V30 13010 H 1201.56 3.01429 2.08653 0
M  V30 13011 H 1201.2 2.3197 4.46317 0
M  V30 13012 H 1200.9 4.0622 4.24569 0
M  V30 13013 H 1202.43 3.50951 4.99666 0
M  V30 13014 H 1203.84 4.80334 3.12973 0
M  V30 13015 H 1202.24 5.40233 2.61282 0
M  V30 13016 H 1203.31 4.6346 1.42594 0
M  V30 13017 N 1204.65 -0.602709 1.4562 0
M  V30 13018 C 1205.6 -1.73425 1.55005 0
M  V30 13019 C 1206.59 -1.64118 0.419713 0
M  V30 13020 O 1207.8 -1.69853 0.595815 0
M  V30 13021 H 1204.17 -0.573038 0.486962 0
M  V30 13022 H 1206.15 -1.62637 2.50184 0
M  V30 13023 C 1204.89 -3.11808 1.53853 0
M  V30 13024 H 1204.22 -3.19631 2.40158 0
M  V30 13025 H 1205.66 -3.90798 1.64477 0
M  V30 13026 C 1204.12 -3.35866 0.263765 0
M  V30 13027 O 1204.65 -3.96334 -0.654364 0
M  V30 13028 N 1202.85 -2.90171 0.157927 0
M  V30 13029 H 1202.4 -2.41144 0.905944 0
M  V30 13030 H 1202.36 -3.06641 -0.694175 0
M  V30 13031 N 1206.13 -1.32992 -0.845635 0
M  V30 13032 C 1207.38 -1.2382 -1.59728 0
M  V30 13033 C 1207.7 0.197724 -1.93995 0
M  V30 13034 O 1206.97 1.12477 -1.60392 0
M  V30 13035 H 1205.55 -0.455296 -0.592212 0
M  V30 13036 H 1208.21 -1.66627 -1.01101 0
M  V30 13037 H 1207.31 -1.82717 -2.53023 0
M  V30 13038 N 1207.61 1.06304 -1.1635 0
M  V30 13039 C 1208.84 1.82534 -0.967725 0
M  V30 13040 C 1209.25 1.82816 0.487338 0
M  V30 13041 O 1208.59 1.24581 1.35001 0
M  V30 13042 C 1208.65 3.30349 -1.4181 0
M  V30 13043 C 1208.31 3.53769 -2.89303 0
M  V30 13044 C 1209.31 3.46826 -3.87308 0
M  V30 13045 C 1207 3.81094 -3.2722 0
M  V30 13046 C 1208.99 3.66874 -5.21232 0
M  V30 13047 C 1206.68 4.00792 -4.61313 0
M  V30 13048 C 1207.68 3.93679 -5.58127 0
M  V30 13049 O 1207.36 4.12839 -6.89796 0
M  V30 13050 H 1207.1 0.582407 -0.343189 0
M  V30 13051 H 1209.65 1.35022 -1.54784 0
M  V30 13052 H 1207.88 3.78722 -0.781456 0
M  V30 13053 H 1209.57 3.88072 -1.18976 0
M  V30 13054 H 1210.33 3.25706 -3.59361 0
M  V30 13055 H 1206.21 3.85739 -2.5244 0
M  V30 13056 H 1209.76 3.61238 -5.96786 0
M  V30 13057 H 1205.65 4.214 -4.8897 0
M  V30 13058 H 1206.42 4.30128 -6.96371 0
M  V30 13059 N 1209.09 0.96196 1.24836 0
M  V30 13060 C 1210.33 0.621634 1.93038 0
M  V30 13061 C 1210.66 -0.840257 1.75081 0
M  V30 13062 O 1209.94 -1.60381 1.10038 0
M  V30 13063 C 1210.22 0.990107 3.46221 0
M  V30 13064 C 1210.08 2.50827 3.73371 0
M  V30 13065 C 1211.39 0.520478 4.37011 0
M  V30 13066 H 1208.51 0.227312 0.701069 0
M  V30 13067 H 1211.16 1.19993 1.47315 0
M  V30 13068 H 1209.31 0.498008 3.85295 0
M  V30 13069 H 1210.98 3.07469 3.4389 0
M  V30 13070 H 1209.22 2.94277 3.18722 0
M  V30 13071 H 1209.89 2.71659 4.80526 0
M  V30 13072 H 1212.37 0.942703 4.05281 0
M  V30 13073 H 1211.24 0.806918 5.42937 0
M  V30 13074 H 1211.5 -0.579507 4.38285 0
M  V30 13075 N 1210.56 -1.39601 0.731392 0
M  V30 13076 C 1211.84 -1.94531 0.20422 0
M  V30 13077 C 1212.22 -1.66845 -1.29329 0
M  V30 13078 O 1211.57 -0.994706 -2.05713 0
M  V30 13079 C 1211.78 -3.44891 0.53395 0
M  V30 13080 C 1213.13 -4.21863 0.481298 0
M  V30 13081 O 1214.15 -3.53073 0.470929 0
M  V30 13082 O 1213.01 -5.44452 0.472663 0
M  V30 13083 H 1210.1 -0.826214 0.0360436 0
M  V30 13084 H 1212.65 -1.49121 0.810005 0
M  V30 13085 H 1211.42 -3.58463 1.56907 0
M  V30 13086 H 1211.04 -3.97472 -0.10099 0
M  V30 13087 N 1212.04 -0.478751 -1.50152 0
M  V30 13088 C 1213.01 0.300181 -2.27226 0
M  V30 13089 C 1214.01 0.913705 -1.32318 0
M  V30 13090 O 1215.2 0.781692 -1.55677 0
M  V30 13091 C 1212.33 1.42838 -3.09532 0
M  V30 13092 H 1213.52 -0.375845 -2.97536 0
M  V30 13093 H 1211.07 -0.233037 -1.54553 0
M  V30 13094 H 1211.81 2.13923 -2.43737 0
M  V30 13095 H 1211.59 0.994161 -3.79287 0
M  V30 13096 H 1213.08 1.97765 -3.67802 0
M  V30 13097 N 1213.52 1.56172 -0.211661 0
M  V30 13098 C 1214.77 1.97648 0.421871 0
M  V30 13099 C 1215.09 1.10026 1.60995 0
M  V30 13100 O 1214.36 0.175109 1.95116 0
M  V30 13101 H 1212.94 0.729914 0.158852 0
M  V30 13102 H 1215.6 1.92542 -0.302254 0
M  V30 13103 H 1214.7 3.02834 0.754868 0
M  V30 13104 N 1215 -0.0618163 1.57479 0
M  V30 13105 C 1216.28 -0.792636 1.7882 0
M  V30 13106 C 1216.66 -1.95283 0.801724 0
M  V30 13107 O 1216 -2.27917 -0.163095 0
M  V30 13108 C 1216.21 -1.25629 3.25605 0
M  V30 13109 C 1217.56 -1.68561 3.89708 0
M  V30 13110 O 1218.59 -1.35171 3.29556 0
M  V30 13111 O 1217.44 -2.30417 4.95551 0
M  V30 13112 H 1214.54 -0.380595 0.734218 0
M  V30 13113 H 1217.08 -0.0411205 1.6965 0
M  V30 13114 H 1215.86 -0.426582 3.88968 0
M  V30 13115 H 1215.48 -2.06882 3.39537 0
M  V30 13116 N 1216.48 -1.54033 -0.333429 0
M  V30 13117 C 1217.7 -1.76031 -1.09672 0
M  V30 13118 C 1218.13 -0.502844 -1.81254 0
M  V30 13119 O 1217.48 0.54509 -1.72912 0
M  V30 13120 C 1217.53 -2.947 -2.07809 0
M  V30 13121 O 1216.64 -2.65555 -3.15522 0
M  V30 13122 H 1215.98 -0.583611 -0.316692 0
M  V30 13123 H 1218.51 -2.01026 -0.380732 0
M  V30 13124 H 1218.52 -3.21771 -2.50853 0
M  V30 13125 H 1217.19 -3.85895 -1.55106 0
M  V30 13126 H 1215.77 -2.49403 -2.77223 0
M  V30 13127 N 1217.95 0.594978 -1.45938 0
M  V30 13128 C 1219.2 1.35356 -1.51823 0
M  V30 13129 C 1219.56 1.91711 -0.162721 0
M  V30 13130 O 1218.85 1.72831 0.827047 0
M  V30 13131 C 1219.04 2.51129 -2.54301 0
M  V30 13132 C 1218.87 2.06113 -3.99684 0
M  V30 13133 C 1217.64 1.91698 -4.67525 0
M  V30 13134 C 1219.84 1.62817 -4.87848 0
M  V30 13135 N 1217.82 1.40625 -5.97577 0
M  V30 13136 C 1219.19 1.23248 -6.07626 0
M  V30 13137 C 1221.25 1.50523 -4.74602 0
M  V30 13138 C 1219.95 0.726124 -7.15626 0
M  V30 13139 C 1221.98 1.0129 -5.82661 0
M  V30 13140 C 1221.34 0.626938 -7.01604 0
M  V30 13141 H 1217.44 0.488744 -0.610454 0
M  V30 13142 H 1220.02 0.678804 -1.82484 0
M  V30 13143 H 1218.19 3.16184 -2.25571 0
M  V30 13144 H 1219.92 3.18046 -2.50257 0
M  V30 13145 H 1216.68 2.1327 -4.22863 0
M  V30 13146 H 1217.1 1.17285 -6.66763 0
M  V30 13147 H 1221.75 1.78985 -3.83046 0
M  V30 13148 H 1219.46 0.429069 -8.0696 0
M  V30 13149 H 1223.05 0.921864 -5.7445 0
M  V30 13150 H 1221.93 0.251849 -7.83795 0
M  V30 13151 N 1219.43 1.33438 0.838571 0
M  V30 13152 C 1220.85 1.12779 1.12929 0
M  V30 13153 C 1221.05 -0.0811188 2.01337 0
M  V30 13154 O 1220.1 -0.761294 2.4075 0
M  V30 13155 C 1221.42 2.41537 1.7911 0
M  V30 13156 C 1222.97 2.47447 1.91674 0
M  V30 13157 C 1223.44 3.76167 2.6127 0
M  V30 13158 N 1224.93 3.7724 2.68783 0
M  V30 13159 C 1225.67 4.7355 3.23323 0
M  V30 13160 N 1225.16 5.80235 3.78549 0
M  V30 13161 N 1226.96 4.61025 3.21578 0
M  V30 13162 H 1219.11 2.10921 0.250187 0
M  V30 13163 H 1221.37 0.931986 0.17351 0
M  V30 13164 H 1221.08 3.30006 1.21609 0
M  V30 13165 H 1220.95 2.53709 2.79127 0
M  V30 13166 H 1223.34 1.59427 2.48328 0
M  V30 13167 H 1223.42 2.39216 0.906058 0
M  V30 13168 H 1223.06 4.64569 2.05275 0
M  V30 13169 H 1222.99 3.81675 3.62811 0
M  V30 13170 H 1225.48 3.00138 2.29621 0
M  V30 13171 H 1225.8 6.49759 4.1837 0
M  V30 13172 H 1224.14 5.83969 3.76836 0
M  V30 13173 H 1227.33 3.76836 2.77691 0
M  V30 13174 H 1227.5 5.36253 3.63781 0
M  V30 13175 N 1220.91 -1.05686 1.16912 0
M  V30 13176 C 1222.14 -1.82821 0.979348 0
M  V30 13177 C 1222.56 -1.82196 -0.467575 0
M  V30 13178 O 1221.92 -1.22727 -1.33445 0
M  V30 13179 C 1221.97 -3.2705 1.51891 0
M  V30 13180 O 1221.07 -4.05899 0.729341 0
M  V30 13181 H 1220.41 -0.565455 0.348076 0
M  V30 13182 H 1222.94 -1.33211 1.55293 0
M  V30 13183 H 1222.95 -3.77859 1.53904 0
M  V30 13184 H 1221.63 -3.26819 2.5722 0
M  V30 13185 H 1220.2 -3.64646 0.780221 0
M  V30 13186 N 1222.39 -0.968567 -1.24324 0
M  V30 13187 C 1223.32 -0.444065 -2.23838 0
M  V30 13188 C 1224.3 0.482311 -1.55282 0
M  V30 13189 O 1225.48 0.413489 -1.83909 0
M  V30 13190 C 1222.61 0.358874 -3.36793 0
M  V30 13191 C 1221.66 -0.509913 -4.23441 0
M  V30 13192 S 1222.49 -1.95064 -4.98708 0
M  V30 13193 C 1223.65 -1.15652 -6.15122 0
M  V30 13194 H 1223.88 -1.28738 -2.67981 0
M  V30 13195 H 1221.41 -0.773665 -1.33618 0
M  V30 13196 H 1223.37 0.816164 -4.02305 0
M  V30 13197 H 1222.03 1.17717 -2.91207 0
M  V30 13198 H 1221.22 0.106617 -5.03887 0
M  V30 13199 H 1220.83 -0.902967 -3.62936 0
M  V30 13200 H 1223.12 -0.411966 -6.76246 0
M  V30 13201 H 1224.06 -1.93539 -6.81137 0
M  V30 13202 H 1224.47 -0.680507 -5.60383 0
M  V30 13203 N 1223.87 1.39211 -0.738786 0
M  V30 13204 C 1225.1 2.04435 -0.298318 0
M  V30 13205 C 1225.5 1.55822 1.07314 0
M  V30 13206 O 1224.85 0.719922 1.69005 0
M  V30 13207 C 1224.91 3.58789 -0.225979 0
M  V30 13208 C 1224.57 4.30395 -1.53653 0
M  V30 13209 C 1225.57 4.56777 -2.48295 0
M  V30 13210 C 1223.26 4.68869 -1.80187 0
M  V30 13211 C 1225.25 5.20648 -3.67702 0
M  V30 13212 C 1222.94 5.32467 -2.99871 0
M  V30 13213 C 1223.93 5.58289 -3.93449 0
M  V30 13214 O 1223.62 6.20567 -5.1103 0
M  V30 13215 H 1223.35 0.663848 -0.127603 0
M  V30 13216 H 1225.91 1.79171 -1.00433 0
M  V30 13217 H 1224.14 3.82965 0.536164 0
M  V30 13218 H 1225.83 4.05487 0.182996 0
M  V30 13219 H 1226.59 4.27497 -2.29066 0
M  V30 13220 H 1222.47 4.48124 -1.08193 0
M  V30 13221 H 1226.02 5.4072 -4.40759 0
M  V30 13222 H 1221.91 5.61169 -3.18998 0
M  V30 13223 H 1222.68 6.39059 -5.11415 0
M  V30 13224 N 1225.34 0.486708 1.49896 0
M  V30 13225 C 1226.25 -0.304222 2.32619 0
M  V30 13226 C 1227.27 -0.981103 1.43702 0
M  V30 13227 O 1228.45 -0.965639 1.76741 0
M  V30 13228 C 1225.51 -1.36301 3.18783 0
M  V30 13229 C 1224.57 -0.701082 4.23537 0
M  V30 13230 C 1223.81 -1.70943 5.05583 0
M  V30 13231 O 1224.03 -2.93773 4.88931 0
M  V30 13232 O 1222.96 -1.27263 5.88292 0
M  V30 13233 H 1226.79 0.37248 3.01407 0
M  V30 13234 H 1224.37 0.248277 1.47323 0
M  V30 13235 H 1226.26 -1.97594 3.72202 0
M  V30 13236 H 1224.93 -2.0229 2.52706 0
M  V30 13237 H 1223.84 -0.0487926 3.74068 0
M  V30 13238 H 1225.17 -0.0838817 4.92129 0
M  V30 13239 N 1226.82 -1.56058 0.219941 0
M  V30 13240 C 1228.05 -2.02652 -0.417101 0
M  V30 13241 C 1228.47 -1.09977 -1.53461 0
M  V30 13242 O 1227.82 -0.109088 -1.82174 0
M  V30 13243 C 1227.87 -3.48787 -0.950244 0
M  V30 13244 O 1227.6 -4.37928 0.12271 0
M  V30 13245 C 1229.1 -4.11018 -1.66069 0
M  V30 13246 H 1226.32 -0.663163 -0.102254 0
M  V30 13247 H 1228.86 -2.01722 0.335923 0
M  V30 13248 H 1227.02 -3.50338 -1.65355 0
M  V30 13249 H 1227.43 -5.23764 -0.277785 0
M  V30 13250 H 1228.9 -5.15046 -1.98575 0
M  V30 13251 H 1229.38 -3.55921 -2.57326 0
M  V30 13252 H 1229.99 -4.13313 -1.00263 0
M  V30 13253 N 1228.3 0.053464 -1.57509 0
M  V30 13254 C 1229.71 0.603099 -1.76691 0
M  V30 13255 C 1230.06 1.76934 -0.847861 0
M  V30 13256 O 1229.19 2.16369 -0.0364962 0
M  V30 13257 C 1229.78 1.10084 -3.20417 0
M  V30 13258 C 1228.34 1.59618 -3.4088 0
M  V30 13259 C 1227.49 0.523516 -2.72313 0
M  V30 13260 H 1230.44 -0.172751 -1.57757 0
M  V30 13261 H 1230.46 1.9691 -3.25587 0
M  V30 13262 H 1229.97 0.251818 -3.87282 0
M  V30 13263 H 1228.07 2.46786 -2.79155 0
M  V30 13264 H 1228.19 1.6605 -4.49404 0
M  V30 13265 H 1226.55 0.972886 -2.35387 0
M  V30 13266 H 1227.33 -0.315629 -3.41846 0
M  V30 13267 N 1229.78 1.54207 0.325255 0
M  V30 13268 C 1231 1.7661 1.08736 0
M  V30 13269 C 1231.43 0.512449 1.80985 0
M  V30 13270 O 1230.79 -0.535913 1.73198 0
M  V30 13271 C 1230.84 2.95797 2.06243 0
M  V30 13272 O 1229.94 2.67225 3.14109 0
M  V30 13273 H 1229.28 0.585282 0.313593 0
M  V30 13274 H 1231.81 2.01225 0.370066 0
M  V30 13275 H 1231.82 3.23097 2.49143 0
M  V30 13276 H 1230.5 3.86712 1.53058 0
M  V30 13277 H 1229.07 2.50869 2.75897 0
M  V30 13278 N 1231.26 -0.58723 1.46251 0
M  V30 13279 C 1232.19 -1.70694 1.5933 0
M  V30 13280 C 1233.17 -1.64208 0.443831 0
M  V30 13281 O 1234.35 -1.82294 0.669516 0
M  V30 13282 C 1231.48 -3.0933 1.579 0
M  V30 13283 C 1230.44 -3.30643 2.7177 0
M  V30 13284 C 1229.76 -4.69761 2.554 0
M  V30 13285 C 1231.06 -3.18916 4.1363 0
M  V30 13286 H 1232.76 -1.60004 2.53059 0
M  V30 13287 H 1230.3 -0.768343 1.21789 0
M  V30 13288 H 1232.26 -3.87479 1.65644 0
M  V30 13289 H 1230.98 -3.20907 0.60712 0
M  V30 13290 H 1229.64 -2.54892 2.63488 0
M  V30 13291 H 1229.29 -4.78098 1.56306 0
M  V30 13292 H 1228.99 -4.84974 3.31774 0
M  V30 13293 H 1230.51 -5.50084 2.65028 0
M  V30 13294 H 1231.93 -3.86915 4.23048 0
M  V30 13295 H 1230.32 -3.45653 4.90555 0
M  V30 13296 H 1231.39 -2.1606 4.34104 0
M  V30 13297 N 1232.74 -1.33881 -0.831482 0
M  V30 13298 C 1233.65 -1.26802 -1.97379 0
M  V30 13299 C 1234.66 -0.177233 -1.73095 0
M  V30 13300 O 1235.84 -0.402163 -1.97344 0
M  V30 13301 C 1232.9 -1.01474 -3.31517 0
M  V30 13302 C 1231.96 -2.19626 -3.68867 0
M  V30 13303 C 1231.2 -1.95497 -4.96605 0
M  V30 13304 O 1231.42 -0.908948 -5.63111 0
M  V30 13305 O 1230.35 -2.82226 -5.31632 0
M  V30 13306 H 1234.18 -2.22883 -2.06293 0
M  V30 13307 H 1231.76 -1.14001 -0.965613 0
M  V30 13308 H 1233.65 -0.890954 -4.11874 0
M  V30 13309 H 1232.32 -0.0842656 -3.2359 0
M  V30 13310 H 1231.23 -2.37561 -2.88991 0
M  V30 13311 H 1232.56 -3.11034 -3.81469 0
M  V30 13312 N 1234.21 1.05064 -1.1747 0
M  V30 13313 C 1235.15 2.12842 -0.850344 0
M  V30 13314 C 1236.16 1.62128 0.147796 0
M  V30 13315 O 1237.35 1.78327 -0.0786774 0
M  V30 13316 C 1234.45 3.37995 -0.247486 0
M  V30 13317 C 1233.62 4.17981 -1.28881 0
M  V30 13318 C 1232.68 5.21476 -0.703476 0
M  V30 13319 O 1231.71 5.52327 -1.37561 0
M  V30 13320 N 1232.91 5.78309 0.50387 0
M  V30 13321 H 1235.67 2.41264 -1.77797 0
M  V30 13322 H 1233.23 1.21172 -1.07373 0
M  V30 13323 H 1235.23 4.04394 0.157424 0
M  V30 13324 H 1233.8 3.07097 0.583952 0
M  V30 13325 H 1233.02 3.47054 -1.86942 0
M  V30 13326 H 1234.3 4.6822 -1.99116 0
M  V30 13327 H 1233.7 5.5553 1.06787 0
M  V30 13328 H 1232.26 6.46223 0.850828 0
M  V30 13329 N 1235.69 0.975146 1.23809 0
M  V30 13330 C 1236.97 0.557725 1.8748 0
M  V30 13331 C 1237.35 -0.965164 1.87744 0
M  V30 13332 O 1236.7 -1.83966 1.35531 0
M  V30 13333 C 1236.91 1.15777 3.29236 0
M  V30 13334 C 1238.25 1.24726 4.05868 0
M  V30 13335 O 1239.28 1.11084 3.38436 0
M  V30 13336 O 1238.14 1.46373 5.26533 0
M  V30 13337 H 1235.23 0.187045 0.80557 0
M  V30 13338 H 1237.78 1.06989 1.31725 0
M  V30 13339 H 1236.55 2.20023 3.23583 0
M  V30 13340 H 1236.17 0.630103 3.92575 0
M  V30 13341 N 1237.17 -1.38817 0.746158 0
M  V30 13342 C 1238.1 -2.33144 0.128836 0
M  V30 13343 C 1239.08 -1.54487 -0.711873 0
M  V30 13344 O 1240.27 -1.82836 -0.654577 0
M  V30 13345 C 1237.4 -3.38639 -0.770772 0
M  V30 13346 C 1236.35 -4.27987 -0.0333669 0
M  V30 13347 C 1235.68 -5.24274 -1.05073 0
M  V30 13348 C 1236.98 -5.09915 1.13066 0
M  V30 13349 H 1238.67 -2.85019 0.916778 0
M  V30 13350 H 1236.22 -1.37039 0.442306 0
M  V30 13351 H 1238.17 -4.03587 -1.21225 0
M  V30 13352 H 1236.89 -2.8523 -1.59095 0
M  V30 13353 H 1235.55 -3.64534 0.388612 0
M  V30 13354 H 1235.2 -4.67156 -1.86478 0
M  V30 13355 H 1234.9 -5.84906 -0.562037 0
M  V30 13356 H 1236.42 -5.92099 -1.49169 0
M  V30 13357 H 1237.84 -5.68145 0.767084 0
M  V30 13358 H 1236.23 -5.79744 1.54972 0
M  V30 13359 H 1237.3 -4.4409 1.94709 0
M  V30 13360 N 1238.65 -0.49465 -1.49636 0
M  V30 13361 C 1239.56 0.291881 -2.32777 0
M  V30 13362 C 1240.57 0.973468 -1.44221 0
M  V30 13363 O 1241.75 0.956252 -1.77251 0
M  V30 13364 C 1238.81 1.34609 -3.19502 0
M  V30 13365 C 1237.88 0.678611 -4.23903 0
M  V30 13366 C 1237.11 1.68259 -5.06483 0
M  V30 13367 O 1237.33 2.91176 -4.90482 0
M  V30 13368 O 1236.27 1.24141 -5.88959 0
M  V30 13369 H 1240.09 -0.388459 -3.01205 0
M  V30 13370 H 1237.68 -0.256086 -1.47189 0
M  V30 13371 H 1239.56 1.95617 -3.73245 0
M  V30 13372 H 1238.23 2.00947 -2.53775 0
M  V30 13373 H 1237.14 0.0289541 -3.74089 0
M  V30 13374 H 1238.47 0.0577817 -4.92166 0
M  V30 13375 N 1240.13 1.55939 -0.228214 0
M  V30 13376 C 1241.54 1.59094 0.12704 0
M  V30 13377 C 1241.74 1.24514 1.58425 0
M  V30 13378 O 1240.8 0.983544 2.32557 0
M  V30 13379 C 1242.11 2.99999 -0.205268 0
M  V30 13380 C 1243.66 3.1265 -0.148046 0
M  V30 13381 C 1244.13 4.55743 -0.454122 0
M  V30 13382 N 1245.62 4.61435 -0.403937 0
M  V30 13383 C 1246.36 5.70101 -0.614173 0
M  V30 13384 N 1245.86 6.87104 -0.88654 0
M  V30 13385 N 1247.65 5.5944 -0.546153 0
M  V30 13386 H 1239.8 1.7669 -1.17874 0
M  V30 13387 H 1242.06 0.821599 -0.472947 0
M  V30 13388 H 1241.77 3.29976 -1.21692 0
M  V30 13389 H 1241.64 3.74177 0.476573 0
M  V30 13390 H 1244.03 2.82465 0.854255 0
M  V30 13391 H 1244.11 2.40786 -0.863462 0
M  V30 13392 H 1243.75 4.86646 -1.45389 0
M  V30 13393 H 1243.68 5.25841 0.282561 0
M  V30 13394 H 1246.18 3.77363 -0.201388 0
M  V30 13395 H 1246.49 7.65839 -1.03488 0
M  V30 13396 H 1244.83 6.88833 -0.923808 0
M  V30 13397 H 1248.02 4.6691 -0.33355 0
M  V30 13398 H 1248.2 6.44061 -0.713402 0
M  V30 13399 N 1241.6 -0.0451101 1.57535 0
M  V30 13400 C 1242.53 -1.05046 2.08537 0
M  V30 13401 C 1243.52 -1.3872 0.984418 0
M  V30 13402 O 1244.7 -1.47884 1.25873 0
M  V30 13403 C 1241.83 -2.3562 2.55148 0
M  V30 13404 C 1240.78 -2.16231 3.69362 0
M  V30 13405 C 1240.11 -3.52423 4.02122 0
M  V30 13406 C 1241.41 -1.56159 4.98409 0
M  V30 13407 H 1243.1 -0.625965 2.92783 0
M  V30 13408 H 1240.65 -0.299657 1.40848 0
M  V30 13409 H 1242.6 -3.06266 2.89446 0
M  V30 13410 H 1241.33 -2.80099 1.67964 0
M  V30 13411 H 1239.99 -1.4802 3.35389 0
M  V30 13412 H 1239.63 -3.94522 3.12028 0
M  V30 13413 H 1239.33 -3.4028 4.79044 0
M  V30 13414 H 1240.86 -4.24458 4.38939 0
M  V30 13415 H 1242.27 -2.16703 5.30766 0
M  V30 13416 H 1240.67 -1.54638 5.79834 0
M  V30 13417 H 1241.74 -0.525698 4.82042 0
M  V30 13418 N 1243.08 -1.54377 -0.317073 0
M  V30 13419 C 1244.33 -1.72893 -1.05424 0
M  V30 13420 C 1244.66 -0.506082 -1.87801 0
M  V30 13421 O 1243.91 0.51213 -1.8888 0
M  V30 13422 C 1244.21 -2.96066 -2.00199 0
M  V30 13423 C 1243.88 -4.30551 -1.33927 0
M  V30 13424 C 1242.54 -4.67112 -1.15584 0
M  V30 13425 C 1244.89 -5.13986 -0.864158 0
M  V30 13426 C 1242.22 -5.84701 -0.483892 0
M  V30 13427 C 1244.57 -6.32264 -0.206006 0
M  V30 13428 C 1243.24 -6.67499 -0.0104849 0
M  V30 13429 H 1242.51 -0.63266 -0.385776 0
M  V30 13430 H 1245.15 -1.88623 -0.330722 0
M  V30 13431 H 1243.46 -2.7505 -2.79024 0
M  V30 13432 H 1245.15 -3.07586 -2.57278 0
M  V30 13433 H 1241.74 -4.0179 -1.49207 0
M  V30 13434 H 1245.93 -4.86252 -0.993635 0
M  V30 13435 H 1241.18 -6.10555 -0.32127 0
M  V30 13436 H 1245.36 -6.96192 0.170108 0
M  V30 13437 H 1242.99 -7.58472 0.512209 0
M  V30 13438 N 1244.56 0.579466 -1.4656 0
M  V30 13439 C 1245.49 1.70291 -1.53406 0
M  V30 13440 C 1246.51 1.57232 -0.422116 0
M  V30 13441 O 1247.69 1.64598 -0.69064 0
M  V30 13442 C 1244.79 3.08572 -1.40131 0
M  V30 13443 C 1243.97 3.47602 -2.65502 0
M  V30 13444 C 1243.03 4.64955 -2.4638 0
M  V30 13445 O 1242.05 4.70653 -3.20116 0
M  V30 13446 N 1243.25 5.60041 -1.52756 0
M  V30 13447 H 1246.02 1.64873 -2.50274 0
M  V30 13448 H 1243.58 0.765533 -1.42658 0
M  V30 13449 H 1245.57 3.84877 -1.25106 0
M  V30 13450 H 1244.14 3.0834 -0.514322 0
M  V30 13451 H 1243.36 2.60969 -2.95446 0
M  V30 13452 H 1244.65 3.70446 -3.48779 0
M  V30 13453 H 1244.05 5.58176 -0.919587 0
M  V30 13454 H 1242.61 6.35764 -1.43693 0
M  V30 13455 N 1246.04 1.3432 0.824371 0
M  V30 13456 C 1246.95 1.27847 1.96704 0
M  V30 13457 C 1247.96 0.18641 1.72999 0
M  V30 13458 O 1249.14 0.412623 1.97128 0
M  V30 13459 C 1246.21 1.03231 3.30975 0
M  V30 13460 C 1245.27 2.21579 3.67697 0
M  V30 13461 C 1244.5 1.98128 4.95561 0
M  V30 13462 O 1244.72 0.938798 5.62621 0
M  V30 13463 O 1243.66 2.85041 5.30128 0
M  V30 13464 H 1247.48 2.23974 2.05108 0
M  V30 13465 H 1245.07 1.14512 0.959554 0
M  V30 13466 H 1246.95 0.912784 4.11395 0
M  V30 13467 H 1245.62 0.101425 3.23541 0
M  V30 13468 H 1244.53 2.3909 2.87727 0
M  V30 13469 H 1245.86 3.13052 3.79815 0
M  V30 13470 N 1247.52 -1.0444 1.18026 0
M  V30 13471 C 1248.45 -2.14297 0.927314 0
M  V30 13472 C 1249.43 -1.69575 -0.13357 0
M  V30 13473 O 1250.61 -1.94191 0.0182439 0
M  V30 13474 C 1247.74 -3.44397 0.448134 0
M  V30 13475 C 1246.7 -4.02723 1.44907 0
M  V30 13476 C 1246.02 -5.28257 0.827555 0
M  V30 13477 C 1247.32 -4.39331 2.82463 0
M  V30 13478 H 1249.02 -2.35715 1.84605 0
M  V30 13479 H 1246.56 -1.13281 0.889012 0
M  V30 13480 H 1248.52 -4.20606 0.258554 0
M  V30 13481 H 1247.24 -3.22654 -0.506159 0
M  V30 13482 H 1245.9 -3.28591 1.62552 0
M  V30 13483 H 1245.55 -5.02822 -0.13381 0
M  V30 13484 H 1245.25 -5.68242 1.49581 0
M  V30 13485 H 1246.77 -6.07147 0.64842 0
M  V30 13486 H 1248.18 -5.06543 2.68491 0
M  V30 13487 H 1246.58 -4.90355 3.45936 0
M  V30 13488 H 1247.65 -3.4933 3.36299 0
M  V30 13489 N 1248.99 -0.981699 -1.2329 0
M  V30 13490 C 1249.93 -0.481042 -2.24095 0
M  V30 13491 C 1250.94 0.417818 -1.57347 0
M  V30 13492 O 1252.13 0.221746 -1.77117 0
M  V30 13493 C 1249.23 0.323324 -3.37354 0
M  V30 13494 C 1248.4 -0.568975 -4.33684 0
M  V30 13495 C 1247.46 0.181761 -5.25886 0
M  V30 13496 O 1246.49 -0.429059 -5.67581 0
M  V30 13497 N 1247.69 1.46737 -5.61648 0
M  V30 13498 H 1250.45 -1.34781 -2.67683 0
M  V30 13499 H 1248.01 -0.855117 -1.37475 0
M  V30 13500 H 1250.01 0.833934 -3.96015 0
M  V30 13501 H 1248.58 1.09111 -2.9294 0
M  V30 13502 H 1247.8 -1.2604 -3.73507 0
M  V30 13503 H 1249.08 -1.17704 -4.94998 0
M  V30 13504 H 1248.48 1.98513 -5.29725 0
M  V30 13505 H 1247.04 1.92339 -6.22775 0
M  V30 13506 N 1250.47 1.3842 -0.753509 0
M  V30 13507 C 1251.88 1.82847 -0.377331 0
M  V30 13508 C 1252.23 1.62867 1.09401 0
M  V30 13509 O 1251.36 1.12981 1.84565 0
M  V30 13510 C 1251.95 3.31945 -0.678095 0
M  V30 13511 C 1250.51 3.7472 -0.355196 0
M  V30 13512 C 1249.66 2.61193 -0.931311 0
M  V30 13513 H 1252.61 1.2715 -0.949667 0
M  V30 13514 H 1252.63 3.80475 0.0437292 0
M  V30 13515 H 1252.14 3.46455 -1.74902 0
M  V30 13516 H 1250.25 3.65789 0.70915 0
M  V30 13517 H 1250.36 4.71487 -0.850693 0
M  V30 13518 H 1248.72 2.5219 -0.356695 0
M  V30 13519 H 1249.51 2.78503 -2.00727 0
M  V30 13520 N 1251.95 0.502579 1.49372 0
M  V30 13521 C 1252.88 -0.264307 2.31999 0
M  V30 13522 C 1253.86 -0.96107 1.40348 0
M  V30 13523 O 1255.05 -0.952167 1.69255 0
M  V30 13524 C 1252.18 -1.32822 3.20898 0
M  V30 13525 C 1251.13 -0.751236 4.21355 0
M  V30 13526 C 1250.46 -1.91578 4.99201 0
M  V30 13527 C 1251.76 0.258764 5.21659 0
M  V30 13528 H 1253.45 0.425391 2.96363 0
M  V30 13529 H 1251 0.206022 1.42519 0
M  V30 13530 H 1252.95 -1.87245 3.77515 0
M  V30 13531 H 1251.67 -2.04712 2.54481 0
M  V30 13532 H 1250.33 -0.228743 3.65886 0
M  V30 13533 H 1249.98 -2.62241 4.2923 0
M  V30 13534 H 1249.68 -1.53578 5.67175 0
M  V30 13535 H 1251.2 -2.46432 5.58663 0
M  V30 13536 H 1252.62 -0.197385 5.7296 0
M  V30 13537 H 1251.02 0.554681 5.97531 0
M  V30 13538 H 1252.09 1.1741 4.70471 0
M  V30 13539 N 1253.43 -1.55816 0.23648 0
M  V30 13540 C 1254.66 -2.02789 -0.39501 0
M  V30 13541 C 1255.07 -1.1153 -1.52832 0
M  V30 13542 O 1254.41 -0.120084 -1.83307 0
M  V30 13543 C 1254.47 -3.46052 -0.974066 0
M  V30 13544 C 1254.14 -4.56993 0.0256825 0
M  V30 13545 C 1255.13 -5.13208 0.831477 0
M  V30 13546 C 1252.82 -5.0208 0.148759 0
M  V30 13547 C 1254.81 -6.12994 1.74691 0
M  V30 13548 C 1252.5 -6.017 1.0677 0
M  V30 13549 C 1253.5 -6.57035 1.86531 0
M  V30 13550 O 1253.18 -7.54714 2.76878 0
M  V30 13551 H 1252.92 -0.668672 -0.0992687 0
M  V30 13552 H 1255.47 -2.02312 0.354826 0
M  V30 13553 H 1253.7 -3.43645 -1.77327 0
M  V30 13554 H 1255.39 -3.76586 -1.51453 0
M  V30 13555 H 1256.16 -4.79214 0.746922 0
M  V30 13556 H 1252.03 -4.58679 -0.461976 0
M  V30 13557 H 1255.58 -6.56111 2.36989 0
M  V30 13558 H 1251.48 -6.35115 1.15322 0
M  V30 13559 H 1252.24 -7.72292 2.71122 0
M  V30 13560 N 1254.91 0.036755 -1.57557 0
M  V30 13561 C 1255.84 1.03939 -2.09091 0
M  V30 13562 C 1256.82 1.38196 -0.991761 0
M  V30 13563 O 1258 1.47214 -1.26656 0
M  V30 13564 C 1255.13 2.34263 -2.56394 0
M  V30 13565 C 1254.09 2.14269 -3.70504 0
M  V30 13566 C 1253.41 3.50286 -4.03985 0
M  V30 13567 C 1254.71 1.53514 -4.9923 0
M  V30 13568 H 1256.41 0.610429 -2.93111 0
M  V30 13569 H 1253.95 0.292183 -1.41005 0
M  V30 13570 H 1255.91 3.04727 -2.91066 0
M  V30 13571 H 1254.63 2.79205 -1.69447 0
M  V30 13572 H 1253.29 1.46239 -3.36169 0
M  V30 13573 H 1252.94 3.92861 -3.14116 0
M  V30 13574 H 1252.64 3.37735 -4.80842 0
M  V30 13575 H 1254.16 4.22124 -4.41184 0
M  V30 13576 H 1255.57 2.13885 -5.31908 0
M  V30 13577 H 1253.97 1.51561 -5.80646 0
M  V30 13578 H 1255.04 0.500126 -4.82314 0
M  V30 13579 N 1256.39 1.54543 0.308881 0
M  V30 13580 C 1257.33 1.85693 1.40074 0
M  V30 13581 C 1258.33 0.730004 1.52864 0
M  V30 13582 O 1259.53 0.913884 1.55075 0
M  V30 13583 H 1255.91 0.588842 0.467728 0
M  V30 13584 H 1257.88 2.76973 1.11034 0
M  V30 13585 C 1256.63 2.11399 2.76054 0
M  V30 13586 H 1255.95 2.97583 2.66992 0
M  V30 13587 H 1257.39 2.37139 3.51484 0
M  V30 13588 C 1255.85 0.91007 3.24375 0
M  V30 13589 O 1256.38 0.12663 4.015 0
M  V30 13590 N 1254.59 0.717629 2.816 0
M  V30 13591 H 1254.13 1.35637 2.18998 0
M  V30 13592 H 1254.09 -0.0863585 3.14281 0
M  V30 13593 N 1257.86 -0.571685 1.46866 0
M  V30 13594 C 1258.79 -1.68994 1.61131 0
M  V30 13595 C 1259.77 -1.63728 0.461222 0
M  V30 13596 O 1260.96 -1.81574 0.688813 0
M  V30 13597 C 1258.09 -3.07638 1.61172 0
M  V30 13598 C 1257.04 -3.27742 2.75262 0
M  V30 13599 C 1256.37 -4.67025 2.60368 0
M  V30 13600 C 1257.67 -3.14511 4.16989 0
M  V30 13601 H 1259.36 -1.57311 2.54742 0
M  V30 13602 H 1256.91 -0.755382 1.22597 0
M  V30 13603 H 1258.86 -3.857 1.69744 0
M  V30 13604 H 1257.59 -3.20245 0.641122 0
M  V30 13605 H 1256.25 -2.52083 2.66176 0
M  V30 13606 H 1255.89 -4.76413 1.61368 0
M  V30 13607 H 1255.59 -4.81428 3.36899 0
M  V30 13608 H 1257.12 -5.47242 2.70848 0
M  V30 13609 H 1258.53 -3.82407 4.27128 0
M  V30 13610 H 1256.93 -3.40431 4.94193 0
M  V30 13611 H 1258 -2.11443 4.36371 0
M  V30 13612 N 1259.34 -1.34755 -0.817236 0
M  V30 13613 C 1260.29 -1.23351 -1.91751 0
M  V30 13614 C 1261.28 -0.131215 -1.60364 0
M  V30 13615 O 1262.47 -0.361425 -1.73271 0
M  V30 13616 C 1259.6 -0.996932 -3.28506 0
M  V30 13617 C 1258.68 -2.14265 -3.65993 0
M  V30 13618 N 1259.07 -3.39424 -3.75 0
M  V30 13619 C 1257.37 -2.05416 -3.95879 0
M  V30 13620 C 1258.07 -4.14701 -4.07919 0
M  V30 13621 N 1257.05 -3.43349 -4.21441 0
M  V30 13622 H 1260.85 -2.18191 -1.96901 0
M  V30 13623 H 1258.36 -1.27075 -1.01122 0
M  V30 13624 H 1260.36 -0.89613 -4.07155 0
M  V30 13625 H 1259.02 -0.0572789 -3.24649 0
M  V30 13626 H 1260.03 -3.73907 -3.58349 0
M  V30 13627 H 1256.71 -1.19242 -4.0011 0
M  V30 13628 H 1258.1 -5.22808 -4.22044 0
M  V30 13629 N 1260.82 1.03812 -1.18578 0
M  V30 13630 C 1261.78 2.10049 -0.91718 0
M  V30 13631 C 1262.78 1.60498 0.0985122 0
M  V30 13632 O 1263.97 1.73674 -0.135213 0
M  V30 13633 C 1261.1 3.38813 -0.376599 0
M  V30 13634 H 1262.3 2.3531 -1.85927 0
M  V30 13635 H 1259.85 1.20277 -0.998156 0
M  V30 13636 H 1260.59 3.19216 0.571983 0
M  V30 13637 H 1260.37 3.76096 -1.10881 0
M  V30 13638 H 1261.86 4.17084 -0.207453 0
M  V30 13639 N 1262.3 0.988223 1.22768 0
M  V30 13640 C 1263.53 0.678757 1.95132 0
M  V30 13641 C 1263.94 -0.759797 1.73274 0
M  V30 13642 O 1263.28 -1.52383 1.02592 0
M  V30 13643 C 1263.34 0.899007 3.48078 0
M  V30 13644 C 1263 2.32114 3.93665 0
M  V30 13645 C 1264 3.30034 4.01713 0
M  V30 13646 C 1261.69 2.65432 4.2644 0
M  V30 13647 C 1263.68 4.59349 4.41902 0
M  V30 13648 C 1261.37 3.94967 4.66309 0
M  V30 13649 C 1262.37 4.91737 4.74008 0
M  V30 13650 O 1262.05 6.18958 5.12977 0
M  V30 13651 H 1261.79 0.250588 0.627839 0
M  V30 13652 H 1264.34 1.32441 1.56999 0
M  V30 13653 H 1262.57 0.196182 3.86202 0
M  V30 13654 H 1264.26 0.585507 4.01655 0
M  V30 13655 H 1265.02 3.05626 3.76587 0
M  V30 13656 H 1260.9 1.90816 4.19655 0
M  V30 13657 H 1264.45 5.34881 4.47826 0
M  V30 13658 H 1260.34 4.19168 4.90886 0
M  V30 13659 H 1261.11 6.22826 5.31065 0
M  V30 13660 N 1263.78 -1.38018 0.760839 0
M  V30 13661 C 1265.02 -2.00248 0.320716 0
M  V30 13662 C 1265.35 -1.60259 -1.09684 0
M  V30 13663 O 1264.63 -0.843567 -1.75255 0
M  V30 13664 C 1264.91 -3.57254 0.451849 0
M  V30 13665 C 1264.77 -4.07185 1.91103 0
M  V30 13666 C 1266.08 -4.39843 -0.150439 0
M  V30 13667 H 1263.2 -0.727491 0.118007 0
M  V30 13668 H 1265.85 -1.63855 0.961842 0
M  V30 13669 H 1264 -3.88386 -0.0939672 0
M  V30 13670 H 1265.67 -3.86665 2.51571 0
M  V30 13671 H 1263.91 -3.59782 2.42362 0
M  V30 13672 H 1264.58 -5.16262 1.9539 0
M  V30 13673 H 1267.06 -4.14905 0.315145 0
M  V30 13674 H 1265.93 -5.48893 -0.0284853 0
M  V30 13675 H 1266.19 -4.24367 -1.23956 0
M  V30 13676 N 1265.25 -0.510493 -1.49103 0
M  V30 13677 C 1266.67 -0.167061 -1.58723 0
M  V30 13678 C 1266.87 1.32886 -1.51471 0
M  V30 13679 O 1265.93 2.10559 -1.39359 0
M  V30 13680 C 1267.24 -0.752293 -2.91137 0
M  V30 13681 C 1268.79 -0.719258 -3.04624 0
M  V30 13682 C 1269.26 -1.28272 -4.39671 0
M  V30 13683 N 1270.75 -1.24383 -4.46187 0
M  V30 13684 C 1271.49 -1.6499 -5.4915 0
M  V30 13685 N 1270.98 -2.13235 -6.59168 0
M  V30 13686 N 1272.78 -1.56348 -5.39918 0
M  V30 13687 H 1264.93 -1.48296 -1.5206 0
M  V30 13688 H 1267.19 -0.615683 -0.72086 0
M  V30 13689 H 1266.9 -1.80178 -3.02041 0
M  V30 13690 H 1266.77 -0.218152 -3.76569 0
M  V30 13691 H 1269.16 0.321413 -2.93344 0
M  V30 13692 H 1269.24 -1.29065 -2.20852 0
M  V30 13693 H 1268.88 -2.32222 -4.51703 0
M  V30 13694 H 1268.81 -0.687179 -5.22097 0
M  V30 13695 H 1271.3 -0.890446 -3.67259 0
M  V30 13696 H 1271.62 -2.42266 -7.33844 0
M  V30 13697 H 1269.96 -2.17216 -6.60183 0
M  V30 13698 H 1273.15 -1.18469 -4.52861 0
M  V30 13699 H 1273.33 -1.88317 -6.20033 0
M  V30 13700 N 1266.73 1.55688 -0.24474 0
M  V30 13701 C 1268.15 1.59219 0.110159 0
M  V30 13702 C 1268.35 1.26187 1.57096 0
M  V30 13703 O 1267.4 1.00815 2.31501 0
M  V30 13704 C 1268.72 2.99764 -0.237075 0
M  V30 13705 C 1270.26 3.12475 -0.181198 0
M  V30 13706 C 1270.74 4.55236 -0.502435 0
M  V30 13707 N 1272.23 4.60981 -0.452855 0
M  V30 13708 C 1272.97 5.69418 -0.674605 0
M  V30 13709 N 1272.46 6.86125 -0.959366 0
M  V30 13710 N 1274.25 5.5883 -0.605459 0
M  V30 13711 H 1266.41 1.7543 -1.19741 0
M  V30 13712 H 1268.67 0.816537 -0.481634 0
M  V30 13713 H 1268.37 3.28666 -1.25185 0
M  V30 13714 H 1268.25 3.74662 0.436859 0
M  V30 13715 H 1270.64 2.83355 0.824248 0
M  V30 13716 H 1270.72 2.39857 -0.888952 0
M  V30 13717 H 1270.36 4.85077 -1.50543 0
M  V30 13718 H 1270.29 5.26111 0.226773 0
M  V30 13719 H 1272.78 3.77128 -0.241401 0
M  V30 13720 H 1273.09 7.64699 -1.11605 0
M  V30 13721 H 1271.44 6.87814 -0.996816 0
M  V30 13722 H 1274.63 4.6653 -0.383053 0
M  V30 13723 H 1274.8 6.43268 -0.781673 0
M  V30 13724 N 1268.21 -0.0283989 1.57574 0
M  V30 13725 C 1269.17 -1.01346 2.05576 0
M  V30 13726 C 1270.17 -1.28999 0.960001 0
M  V30 13727 O 1271.36 -1.23991 1.2236 0
M  V30 13728 C 1268.49 -2.34611 2.47327 0
M  V30 13729 H 1269.69 -0.598809 2.93861 0
M  V30 13730 H 1267.24 -0.27524 1.53857 0
M  V30 13731 H 1267.98 -2.80823 1.622 0
M  V30 13732 H 1267.76 -2.1587 3.27326 0
M  V30 13733 H 1269.25 -3.05332 2.84889 0
M  V30 13734 N 1269.69 -1.54705 -0.300681 0
M  V30 13735 C 1270.62 -1.88679 -1.37559 0
M  V30 13736 C 1271.6 -0.74574 -1.52881 0
M  V30 13737 O 1272.78 -1.0015 -1.66384 0
M  V30 13738 C 1269.91 -2.13438 -2.73974 0
M  V30 13739 C 1268.87 -3.29284 -2.73415 0
M  V30 13740 C 1268.19 -3.39462 -4.13122 0
M  V30 13741 C 1269.49 -4.66382 -2.35128 0
M  V30 13742 H 1271.19 -2.78707 -1.09373 0
M  V30 13743 H 1268.73 -1.341 -0.524704 0
M  V30 13744 H 1270.69 -2.35791 -3.49257 0
M  V30 13745 H 1269.41 -1.20181 -3.03684 0
M  V30 13746 H 1268.07 -3.06855 -2.00588 0
M  V30 13747 H 1267.72 -2.43721 -4.4001 0
M  V30 13748 H 1267.42 -4.17334 -4.1365 0
M  V30 13749 H 1268.94 -3.64075 -4.90185 0
M  V30 13750 H 1270.36 -4.88463 -3.00128 0
M  V30 13751 H 1268.75 -5.4697 -2.46867 0
M  V30 13752 H 1269.82 -4.67078 -1.30256 0
M  V30 13753 N 1271.17 0.563888 -1.47167 0
M  V30 13754 C 1272.12 1.66687 -1.55562 0
M  V30 13755 C 1273.1 1.55455 -0.415024 0
M  V30 13756 O 1274.29 1.64051 -0.664557 0
M  V30 13757 C 1271.42 3.05469 -1.56665 0
M  V30 13758 C 1270.51 3.21928 -2.76085 0
M  V30 13759 N 1270.9 3.08477 -4.00844 0
M  V30 13760 C 1269.2 3.52913 -2.72706 0
M  V30 13761 C 1269.9 3.27447 -4.80784 0
M  V30 13762 N 1268.87 3.53474 -4.12986 0
M  V30 13763 H 1272.68 1.54846 -2.498 0
M  V30 13764 H 1270.19 0.76846 -1.43068 0
M  V30 13765 H 1272.19 3.84655 -1.60768 0
M  V30 13766 H 1270.85 3.18427 -0.635174 0
M  V30 13767 H 1271.86 2.85944 -4.31806 0
M  V30 13768 H 1268.53 3.7244 -1.88666 0
M  V30 13769 H 1269.92 3.22072 -5.89677 0
M  V30 13770 N 1272.64 1.35187 0.810078 0
M  V30 13771 C 1274.06 1.15149 1.10512 0
M  V30 13772 C 1274.26 -0.038394 2.01463 0
M  V30 13773 O 1273.32 -0.710056 2.42311 0
M  V30 13774 C 1274.63 2.45282 1.73946 0
M  V30 13775 C 1276.18 2.51457 1.86382 0
M  V30 13776 C 1276.65 3.81625 2.53232 0
M  V30 13777 N 1278.14 3.82856 2.6072 0
M  V30 13778 C 1278.88 4.80302 3.13206 0
M  V30 13779 N 1278.37 5.88134 3.66156 0
M  V30 13780 N 1280.17 4.67743 3.11726 0
M  V30 13781 H 1272.32 2.11405 0.205391 0
M  V30 13782 H 1274.58 0.935457 0.153702 0
M  V30 13783 H 1274.29 3.32512 1.14582 0
M  V30 13784 H 1274.16 2.59573 2.73682 0
M  V30 13785 H 1276.55 1.64659 2.44891 0
M  V30 13786 H 1276.63 2.41084 0.855113 0
M  V30 13787 H 1276.27 4.68819 1.95375 0
M  V30 13788 H 1276.2 3.89285 3.54633 0
M  V30 13789 H 1278.69 3.04941 2.23203 0
M  V30 13790 H 1279.01 6.58487 4.04494 0
M  V30 13791 H 1277.35 5.91831 3.64364 0
M  V30 13792 H 1280.54 3.82642 2.69635 0
M  V30 13793 H 1280.72 5.43849 3.52324 0
M  V30 13794 N 1274.12 -1.03182 1.19127 0
M  V30 13795 C 1275.07 -2.09735 0.894172 0
M  V30 13796 C 1276.06 -1.60291 -0.139805 0
M  V30 13797 O 1277.25 -1.76879 0.065477 0
M  V30 13798 C 1274.38 -3.40578 0.431418 0
M  V30 13799 C 1273.46 -3.96764 1.49797 0
M  V30 13800 N 1273.85 -4.2665 2.71668 0
M  V30 13801 C 1272.15 -4.24741 1.36057 0
M  V30 13802 C 1272.85 -4.71737 3.40352 0
M  V30 13803 N 1271.83 -4.73091 2.67742 0
M  V30 13804 H 1275.63 -2.3073 1.82047 0
M  V30 13805 H 1273.15 -1.21016 1.083 0
M  V30 13806 H 1275.14 -4.1642 0.20004 0
M  V30 13807 H 1273.8 -3.21005 -0.488432 0
M  V30 13808 H 1274.81 -4.16023 3.08457 0
M  V30 13809 H 1271.49 -4.14447 0.503948 0
M  V30 13810 H 1272.88 -5.03806 4.44555 0
M  V30 13811 N 1275.6 -0.99472 -1.22242 0
M  V30 13812 C 1276.83 -0.689096 -1.94769 0
M  V30 13813 C 1277.24 0.750597 -1.73674 0
M  V30 13814 O 1276.58 1.51836 -1.03399 0
M  V30 13815 C 1276.64 -0.917454 -3.47596 0
M  V30 13816 C 1276.31 -2.34198 -3.92429 0
M  V30 13817 C 1277.3 -3.3216 -3.99957 0
M  V30 13818 C 1274.99 -2.6769 -4.25026 0
M  V30 13819 C 1276.98 -4.61686 -4.3946 0
M  V30 13820 C 1274.67 -3.97435 -4.64208 0
M  V30 13821 C 1275.67 -4.94244 -4.71394 0
M  V30 13822 O 1275.36 -6.2167 -5.09688 0
M  V30 13823 H 1275.09 -0.253914 -0.626501 0
M  V30 13824 H 1277.64 -1.33271 -1.56294 0
M  V30 13825 H 1275.87 -0.21666 -3.86093 0
M  V30 13826 H 1277.56 -0.6068 -4.01339 0
M  V30 13827 H 1278.33 -3.07619 -3.74961 0
M  V30 13828 H 1274.21 -1.93039 -4.18637 0
M  V30 13829 H 1277.75 -5.37248 -4.44983 0
M  V30 13830 H 1273.65 -4.21765 -4.88656 0
M  V30 13831 H 1274.42 -6.25634 -5.27755 0
M  V30 13832 N 1277.08 1.37613 -0.768148 0
M  V30 13833 C 1278.33 1.99384 -0.330187 0
M  V30 13834 C 1278.65 1.61283 1.09604 0
M  V30 13835 O 1277.92 0.876551 1.75195 0
M  V30 13836 H 1276.5 0.737445 -0.119095 0
M  V30 13837 H 1279.16 1.6815 -0.985476 0
M  V30 13838 H 1278.26 3.09462 -0.40494 0
M  V30 13839 N 1278.56 0.518393 1.4883 0
M  V30 13840 C 1279.52 -0.23983 2.27942 0
M  V30 13841 C 1280.52 -0.878302 1.34694 0
M  V30 13842 O 1281.71 -0.740142 1.57694 0
M  V30 13843 C 1278.84 -1.34581 3.1321 0
M  V30 13844 H 1280.03 0.454599 2.96434 0
M  V30 13845 H 1277.59 0.273932 1.53881 0
M  V30 13846 H 1278.32 -2.07385 2.49323 0
M  V30 13847 H 1278.11 -0.893251 3.8179 0
M  V30 13848 H 1279.6 -1.87944 3.72917 0
M  V30 13849 N 1280.03 -1.55556 0.252993 0
M  V30 13850 C 1280.97 -2.18978 -0.676837 0
M  V30 13851 C 1281.98 -1.16788 -1.13421 0
M  V30 13852 O 1283.17 -1.43623 -1.05993 0
M  V30 13853 C 1280.27 -2.78404 -1.93248 0
M  V30 13854 C 1279.44 -4.06072 -1.62555 0
M  V30 13855 C 1278.5 -4.49757 -2.7314 0
M  V30 13856 O 1277.53 -5.16005 -2.40266 0
M  V30 13857 N 1278.73 -4.18049 -4.0276 0
M  V30 13858 H 1281.49 -2.994 -0.134142 0
M  V30 13859 H 1279.05 -1.61734 0.0731965 0
M  V30 13860 H 1281.05 -3.04583 -2.6648 0
M  V30 13861 H 1279.62 -2.02104 -2.3848 0
M  V30 13862 H 1278.84 -3.87417 -0.728115 0
M  V30 13863 H 1280.12 -4.89297 -1.39521 0
M  V30 13864 H 1279.52 -3.64876 -4.32298 0
M  V30 13865 H 1278.08 -4.4905 -4.72438 0
M  V30 13866 N 1281.51 0.0200419 -1.57587 0
M  V30 13867 C 1282.46 1.0259 -2.03615 0
M  V30 13868 C 1283.45 1.31504 -0.927116 0
M  V30 13869 O 1284.64 1.30938 -1.19098 0
M  V30 13870 C 1281.77 2.32424 -2.52654 0
M  V30 13871 C 1280.85 2.06561 -3.70396 0
M  V30 13872 N 1281.24 1.50787 -4.82801 0
M  V30 13873 C 1279.54 2.36802 -3.77943 0
M  V30 13874 C 1280.24 1.40935 -5.64369 0
M  V30 13875 N 1279.22 1.88806 -5.09758 0
M  V30 13876 H 1283.02 0.588835 -2.87941 0
M  V30 13877 H 1280.54 0.226163 -1.60817 0
M  V30 13878 H 1282.53 3.05303 -2.83894 0
M  V30 13879 H 1281.19 2.76801 -1.69738 0
M  V30 13880 H 1282.2 1.18935 -5.04058 0
M  V30 13881 H 1278.88 2.84192 -3.05845 0
M  V30 13882 H 1280.27 0.982261 -6.64681 0
M  V30 13883 N 1282.99 1.54862 0.292472 0
M  V30 13884 C 1284.24 1.73756 1.02429 0
M  V30 13885 C 1284.55 0.535164 1.88137 0
M  V30 13886 O 1285.76 0.606092 2.64648 0
M  V30 13887 C 1284.21 3.0745 1.8709 0
M  V30 13888 C 1283.82 4.35195 1.06343 0
M  V30 13889 C 1285.57 3.357 2.59819 0
M  V30 13890 C 1283.47 5.59936 1.9033 0
M  V30 13891 H 1282.4 0.647617 0.386145 0
M  V30 13892 H 1285.05 1.81338 0.28086 0
M  V30 13893 H 1283.44 2.93855 2.65453 0
M  V30 13894 H 1284.61 4.5965 0.325335 0
M  V30 13895 H 1282.93 4.13944 0.451574 0
M  V30 13896 H 1285.52 4.26099 3.23023 0
M  V30 13897 H 1285.87 2.54956 3.29094 0
M  V30 13898 H 1286.4 3.50304 1.88499 0
M  V30 13899 H 1283.14 6.43372 1.25509 0
M  V30 13900 H 1282.66 5.39654 2.61789 0
M  V30 13901 H 1284.34 5.97512 2.48171 0
M  V30 13902 N 1284.47 -0.556076 1.47464 0
M  V30 13903 C 1285.42 -1.68406 1.60444 0
M  V30 13904 C 1286.41 -1.627 0.471713 0
M  V30 13905 O 1287.62 -1.67871 0.649551 0
M  V30 13906 H 1283.99 -0.557255 0.504946 0
M  V30 13907 H 1285.96 -1.54595 2.55231 0
M  V30 13908 C 1284.71 -3.06756 1.63695 0
M  V30 13909 H 1284.03 -3.11829 2.50206 0
M  V30 13910 H 1285.47 -3.85368 1.76827 0
M  V30 13911 C 1283.93 -3.34857 0.370485 0
M  V30 13912 O 1284.46 -3.98216 -0.527942 0
M  V30 13913 N 1282.67 -2.89521 0.250163 0
M  V30 13914 H 1282.22 -2.3814 0.982204 0
M  V30 13915 H 1282.17 -3.08694 -0.596268 0
M  V30 13916 N 1285.95 -1.35615 -0.802897 0
M  V30 13917 C 1286.88 -1.31506 -1.92947 0
M  V30 13918 C 1287.86 -0.188843 -1.69048 0
M  V30 13919 O 1289.04 -0.384384 -1.90358 0
M  V30 13920 C 1286.17 -1.09001 -3.29752 0
M  V30 13921 C 1285.13 -2.18303 -3.68141 0
M  V30 13922 C 1284.45 -1.80959 -5.03148 0
M  V30 13923 C 1285.75 -3.60296 -3.78132 0
M  V30 13924 H 1287.45 -2.25771 -1.96642 0
M  V30 13925 H 1284.99 -1.08682 -0.944685 0
M  V30 13926 H 1286.95 -1.04766 -4.08169 0
M  V30 13927 H 1285.67 -0.111832 -3.26408 0
M  V30 13928 H 1284.33 -2.21642 -2.92011 0
M  V30 13929 H 1283.98 -0.817495 -4.96312 0
M  V30 13930 H 1283.68 -2.54129 -5.29804 0
M  V30 13931 H 1285.2 -1.78255 -5.84001 0
M  V30 13932 H 1286.62 -3.59259 -4.46773 0
M  V30 13933 H 1285.01 -4.32258 -4.16261 0
M  V30 13934 H 1286.08 -3.9618 -2.79588 0
M  V30 13935 N 1287.43 1.02549 -1.19673 0
M  V30 13936 C 1288.34 2.14373 -0.952972 0
M  V30 13937 C 1289.35 1.73776 0.0881727 0
M  V30 13938 O 1290.53 2.01165 -0.0972471 0
M  V30 13939 C 1287.59 3.43096 -0.498569 0
M  V30 13940 C 1286.65 3.97987 -1.60951 0
M  V30 13941 C 1285.89 5.20567 -1.17669 0
M  V30 13942 O 1286.11 5.70385 -0.0416636 0
M  V30 13943 O 1285.04 5.6838 -1.98059 0
M  V30 13944 H 1288.87 2.378 -1.88904 0
M  V30 13945 H 1286.45 1.12781 -0.979836 0
M  V30 13946 H 1288.34 4.20634 -0.253968 0
M  V30 13947 H 1287.01 3.21105 0.409018 0
M  V30 13948 H 1285.92 3.21768 -1.90829 0
M  V30 13949 H 1287.25 4.24349 -2.49377 0
M  V30 13950 N 1288.9 1.00119 1.21713 0
M  V30 13951 C 1290.15 0.680377 1.90303 0
M  V30 13952 C 1290.47 -0.790927 1.7824 0
M  V30 13953 O 1289.74 -1.5676 1.17486 0
M  V30 13954 H 1288.32 0.248665 0.704397 0
M  V30 13955 H 1290.98 1.26948 1.47886 0
M  V30 13956 H 1290.08 0.950188 2.97284 0
M  V30 13957 N 1290.38 -1.37203 0.775435 0
M  V30 13958 C 1291.79 -1.82224 0.406372 0
M  V30 13959 C 1292.14 -1.64587 -1.06796 0
M  V30 13960 O 1291.27 -1.15903 -1.82744 0
M  V30 13961 C 1291.86 -3.30824 0.730819 0
M  V30 13962 C 1290.42 -3.74108 0.414766 0
M  V30 13963 C 1289.57 -2.59679 0.972747 0
M  V30 13964 H 1292.52 -1.25623 0.969775 0
M  V30 13965 H 1292.54 -3.80496 0.0168066 0
M  V30 13966 H 1292.05 -3.43628 1.80392 0
M  V30 13967 H 1290.15 -3.66871 -0.650866 0
M  V30 13968 H 1290.27 -4.70074 0.925595 0
M  V30 13969 H 1288.63 -2.51591 0.396772 0
M  V30 13970 H 1289.41 -2.75274 2.05132 0
M  V30 13971 N 1291.86 -0.526279 -1.48553 0
M  V30 13972 C 1293.11 0.0111473 -2.01697 0
M  V30 13973 C 1293.42 1.35675 -1.40895 0
M  V30 13974 O 1294.63 1.98233 -1.85515 0
M  V30 13975 C 1293.08 0.0702721 -3.59831 0
M  V30 13976 C 1292.69 -1.27022 -4.29616 0
M  V30 13977 C 1294.44 0.556722 -4.20834 0
M  V30 13978 C 1292.34 -1.17188 -5.79673 0
M  V30 13979 H 1291.27 0.00793697 -0.753958 0
M  V30 13980 H 1293.92 -0.669503 -1.70851 0
M  V30 13981 H 1292.31 0.81592 -3.87503 0
M  V30 13982 H 1293.48 -2.03114 -4.1362 0
M  V30 13983 H 1291.79 -1.69211 -3.80469 0
M  V30 13984 H 1294.39 0.648205 -5.30756 0
M  V30 13985 H 1294.73 1.56163 -3.859 0
M  V30 13986 H 1295.27 -0.133132 -3.97577 0
M  V30 13987 H 1292.01 -2.15182 -6.19174 0
M  V30 13988 H 1291.53 -0.452259 -5.98093 0
M  V30 13989 H 1293.21 -0.861011 -6.41245 0
M  V30 13990 N 1293.34 1.5542 -0.261239 0
M  V30 13991 C 1294.75 1.85161 0.239195 0
M  V30 13992 C 1295.1 1.18319 1.56509 0
M  V30 13993 O 1294.22 0.4666 2.1131 0
M  V30 13994 C 1294.82 3.3592 0.440781 0
M  V30 13995 C 1293.38 3.65837 0.885461 0
M  V30 13996 C 1292.53 2.77285 -0.0291982 0
M  V30 13997 H 1295.48 1.51158 -0.483417 0
M  V30 13998 H 1295.5 3.58276 1.28136 0
M  V30 13999 H 1295.01 3.84541 -0.524382 0
M  V30 14000 H 1293.11 3.22705 1.86259 0
M  V30 14001 H 1293.22 4.73469 0.732394 0
M  V30 14002 H 1291.59 2.50045 0.484701 0
M  V30 14003 H 1292.37 3.28716 -0.989992 0
M  V30 14004 N 1294.82 -0.0116844 1.57596 0
M  V30 14005 C 1295.78 -0.991601 2.0664 0
M  V30 14006 C 1296.78 -1.27973 0.973629 0
M  V30 14007 O 1297.97 -1.22686 1.23668 0
M  V30 14008 C 1295.1 -2.31975 2.49801 0
M  V30 14009 H 1296.29 -0.567607 2.9448 0
M  V30 14010 H 1293.85 -0.258906 1.54141 0
M  V30 14011 H 1294.58 -2.79087 1.65169 0
M  V30 14012 H 1294.37 -2.12386 3.29598 0
M  V30 14013 H 1295.86 -3.02294 2.88112 0
M  V30 14014 N 1296.29 -1.55015 -0.284256 0
M  V30 14015 C 1297.24 -1.83508 -1.3531 0
M  V30 14016 C 1298.23 -0.693244 -1.452 0
M  V30 14017 O 1299.42 -0.954312 -1.4907 0
M  V30 14018 C 1296.55 -2.10059 -2.71533 0
M  V30 14019 C 1295.63 -3.30472 -2.65799 0
M  V30 14020 N 1296.03 -4.50644 -2.29682 0
M  V30 14021 C 1294.32 -3.32836 -2.96878 0
M  V30 14022 C 1295.02 -5.32708 -2.33661 0
M  V30 14023 N 1294 -4.70837 -2.71687 0
M  V30 14024 H 1297.8 -2.73973 -1.06377 0
M  V30 14025 H 1295.32 -1.5474 -0.492875 0
M  V30 14026 H 1297.31 -2.28624 -3.48621 0
M  V30 14027 H 1295.97 -1.20872 -3.01364 0
M  V30 14028 H 1296.98 -4.76945 -2.0185 0
M  V30 14029 H 1293.66 -2.53807 -3.31494 0
M  V30 14030 H 1295.05 -6.38766 -2.08394 0
M  V30 14031 N 1297.77 0.548248 -1.47757 0
M  V30 14032 C 1298.7 1.66409 -1.63799 0
M  V30 14033 C 1299.68 1.62973 -0.487211 0
M  V30 14034 O 1300.87 1.80455 -0.717612 0
M  V30 14035 C 1298 3.05035 -1.66046 0
M  V30 14036 C 1296.95 3.23322 -2.80441 0
M  V30 14037 C 1296.28 4.62824 -2.67765 0
M  V30 14038 C 1297.58 3.07837 -4.2194 0
M  V30 14039 H 1299.27 1.53239 -2.57212 0
M  V30 14040 H 1296.82 0.735783 -1.23783 0
M  V30 14041 H 1298.77 3.82951 -1.75859 0
M  V30 14042 H 1297.49 3.19185 -0.69199 0
M  V30 14043 H 1296.15 2.47816 -2.70153 0
M  V30 14044 H 1295.8 4.73786 -1.68927 0
M  V30 14045 H 1295.5 4.76007 -3.44515 0
M  V30 14046 H 1297.03 5.42864 -2.7952 0
M  V30 14047 H 1298.44 3.75563 -4.33157 0
M  V30 14048 H 1296.84 3.32525 -4.99547 0
M  V30 14049 H 1297.91 2.04474 -4.3968 0
M  V30 14050 N 1299.25 1.36039 0.795694 0
M  V30 14051 C 1300.18 1.32528 1.92246 0
M  V30 14052 C 1301.16 0.197805 1.68946 0
M  V30 14053 O 1302.35 0.394474 1.90151 0
M  V30 14054 C 1299.48 1.10748 3.29169 0
M  V30 14055 C 1298.43 2.20253 3.66978 0
M  V30 14056 C 1297.76 1.83624 5.02181 0
M  V30 14057 C 1299.06 3.62296 3.76216 0
M  V30 14058 H 1300.75 2.2681 1.95442 0
M  V30 14059 H 1298.3 1.09181 0.938908 0
M  V30 14060 H 1300.25 1.06929 4.07608 0
M  V30 14061 H 1298.97 0.129141 3.26345 0
M  V30 14062 H 1297.63 2.23187 2.90832 0
M  V30 14063 H 1297.28 0.843804 4.95872 0
M  V30 14064 H 1296.98 2.56935 5.28449 0
M  V30 14065 H 1298.5 1.81349 5.83048 0
M  V30 14066 H 1299.92 3.61623 4.44861 0
M  V30 14067 H 1298.31 4.34459 4.13963 0
M  V30 14068 H 1299.38 3.97657 2.77483 0
M  V30 14069 N 1300.73 -1.01913 1.20215 0
M  V30 14070 C 1301.98 -1.75124 1.00876 0
M  V30 14071 C 1302.3 -1.89485 -0.460475 0
M  V30 14072 O 1301.57 -1.43552 -1.33302 0
M  V30 14073 H 1300.15 -0.648777 0.370266 0
M  V30 14074 H 1302.81 -1.22883 1.5128 0
M  V30 14075 H 1301.91 -2.7558 1.46499 0
M  V30 14076 N 1302.21 -1.00763 -1.2118 0
M  V30 14077 C 1303.15 -0.563428 -2.25673 0
M  V30 14078 C 1304.15 0.393342 -1.6477 0
M  V30 14079 O 1305.35 0.264246 -1.7805 0
M  V30 14080 H 1301.73 -0.163862 -0.73393 0
M  V30 14081 H 1303.7 -1.45585 -2.60476 0
M  V30 14082 C 1302.45 0.0915599 -3.47579 0
M  V30 14083 H 1301.77 -0.635628 -3.94715 0
M  V30 14084 H 1303.21 0.36561 -4.22421 0
M  V30 14085 C 1301.67 1.33159 -3.09468 0
M  V30 14086 O 1302.2 2.42571 -3.20191 0
M  V30 14087 N 1300.41 1.21231 -2.64105 0
M  V30 14088 H 1299.95 0.322021 -2.55579 0
M  V30 14089 H 1299.91 2.04301 -2.38974 0
M  V30 14090 N 1303.68 1.3679 -0.7827 0
M  V30 14091 C 1304.62 2.27871 -0.122531 0
M  V30 14092 C 1305.6 1.46885 0.697399 0
M  V30 14093 O 1306.78 1.76198 0.669819 0
M  V30 14094 C 1303.91 3.28314 0.832311 0
M  V30 14095 C 1302.95 4.26394 0.0950152 0
M  V30 14096 S 1303.79 5.2131 -1.22457 0
M  V30 14097 C 1304.94 6.25302 -0.273558 0
M  V30 14098 H 1305.17 2.83514 -0.894814 0
M  V30 14099 H 1302.71 1.43229 -0.5766 0
M  V30 14100 H 1304.67 3.86688 1.37778 0
M  V30 14101 H 1303.33 2.71597 1.57779 0
M  V30 14102 H 1302.52 4.97297 0.819278 0
M  V30 14103 H 1302.12 3.72067 -0.379778 0
M  V30 14104 H 1304.41 6.75263 0.550064 0
M  V30 14105 H 1305.36 7.01684 -0.951071 0
M  V30 14106 H 1305.76 5.64372 0.120115 0
M  V30 14107 N 1305.16 0.53415 1.48272 0
M  V30 14108 C 1306.41 0.00971554 2.03398 0
M  V30 14109 C 1306.76 -1.316 1.40353 0
M  V30 14110 O 1306.06 -1.83786 0.541589 0
M  V30 14111 C 1306.25 -0.165144 3.57018 0
M  V30 14112 C 1306.08 1.14208 4.34956 0
M  V30 14113 C 1304.85 1.70309 4.75734 0
M  V30 14114 C 1307.05 2.05371 4.71516 0
M  V30 14115 N 1305.03 2.95276 5.38224 0
M  V30 14116 C 1306.4 3.14915 5.34068 0
M  V30 14117 C 1308.46 2.05647 4.53447 0
M  V30 14118 C 1307.16 4.24804 5.8046 0
M  V30 14119 C 1309.18 3.14533 5.00823 0
M  V30 14120 C 1308.55 4.22795 5.63404 0
M  V30 14121 H 1304.65 0.0451562 0.780695 0
M  V30 14122 H 1307.23 0.71635 1.81043 0
M  V30 14123 H 1305.4 -0.840869 3.79189 0
M  V30 14124 H 1307.13 -0.68956 3.98782 0
M  V30 14125 H 1303.89 1.24395 4.56971 0
M  V30 14126 H 1304.31 3.58911 5.74031 0
M  V30 14127 H 1308.95 1.23239 4.0444 0
M  V30 14128 H 1306.67 5.07987 6.2847 0
M  V30 14129 H 1310.26 3.15806 4.88629 0
M  V30 14130 H 1309.14 5.05661 5.99397 0
M  V30 14131 N 1306.64 -1.55279 0.269478 0
M  V30 14132 C 1307.6 -2.21008 -0.607299 0
M  V30 14133 C 1308.6 -1.18619 -1.08564 0
M  V30 14134 O 1309.79 -1.4356 -0.986721 0
M  V30 14135 C 1306.93 -2.87157 -1.83721 0
M  V30 14136 H 1308.12 -2.99881 -0.0334894 0
M  V30 14137 H 1305.67 -1.56287 0.0200573 0
M  V30 14138 H 1306.41 -2.12281 -2.45168 0
M  V30 14139 H 1306.19 -3.62183 -1.5022 0
M  V30 14140 H 1307.68 -3.37391 -2.46083 0
M  V30 14141 N 1308.12 0.00332656 -1.576 0
M  V30 14142 C 1309.05 1.02391 -2.05058 0
M  V30 14143 C 1310.06 1.30903 -0.967901 0
M  V30 14144 O 1311.25 1.27937 -1.24476 0
M  V30 14145 C 1308.35 2.35947 -2.43274 0
M  V30 14146 C 1307.53 2.26423 -3.74234 0
M  V30 14147 C 1306.58 3.4264 -3.99355 0
M  V30 14148 O 1305.61 3.20977 -4.70067 0
M  V30 14149 N 1306.81 4.65379 -3.46991 0
M  V30 14150 H 1309.58 0.619216 -2.93233 0
M  V30 14151 H 1307.14 0.190777 -1.60772 0
M  V30 14152 H 1309.13 3.12462 -2.57196 0
M  V30 14153 H 1307.7 2.6817 -1.60635 0
M  V30 14154 H 1306.92 1.34841 -3.70421 0
M  V30 14155 H 1308.21 2.17229 -4.60097 0
M  V30 14156 H 1307.61 4.85878 -2.89723 0
M  V30 14157 H 1306.16 5.39171 -3.66249 0
M  V30 14158 N 1309.6 1.55164 0.276031 0
M  V30 14159 C 1310.82 1.79649 1.02635 0
M  V30 14160 C 1311.24 0.568289 1.80044 0
M  V30 14161 O 1310.6 -0.462569 1.7654 0
M  V30 14162 C 1310.65 3.01974 1.98731 0
M  V30 14163 O 1310.37 4.2005 1.24459 0
M  V30 14164 C 1311.87 3.39039 2.856 0
M  V30 14165 H 1309.09 0.598529 0.303321 0
M  V30 14166 H 1311.63 2.02171 0.307733 0
M  V30 14167 H 1309.79 2.81586 2.6606 0
M  V30 14168 H 1310.2 4.89185 1.89205 0
M  V30 14169 H 1311.68 4.27809 3.48831 0
M  V30 14170 H 1312.15 2.58306 3.55211 0
M  V30 14171 H 1312.76 3.61674 2.23767 0
M  V30 14172 N 1311.07 -0.540404 1.48045 0
M  V30 14173 C 1312.32 -1.29628 1.56742 0
M  V30 14174 C 1312.68 -1.90975 0.233761 0
M  V30 14175 O 1311.97 -1.75781 -0.762333 0
M  V30 14176 C 1312.16 -2.41517 2.63447 0
M  V30 14177 C 1311.99 -1.91137 4.07059 0
M  V30 14178 C 1310.76 -1.74214 4.74318 0
M  V30 14179 C 1312.96 -1.44598 4.93554 0
M  V30 14180 N 1310.94 -1.1835 6.02384 0
M  V30 14181 C 1312.31 -1.00612 6.11782 0
M  V30 14182 C 1314.37 -1.32805 4.79862 0
M  V30 14183 C 1313.07 -0.460024 7.17827 0
M  V30 14184 C 1315.1 -0.795956 5.86019 0
M  V30 14185 C 1314.46 -0.36611 7.03448 0
M  V30 14186 H 1310.56 -0.46575 0.628173 0
M  V30 14187 H 1313.14 -0.610609 1.84877 0
M  V30 14188 H 1311.31 -3.07594 2.37151 0
M  V30 14189 H 1313.04 -3.08539 2.61889 0
M  V30 14190 H 1309.8 -1.97429 4.30487 0
M  V30 14191 H 1310.22 -0.924579 6.70657 0
M  V30 14192 H 1314.87 -1.64645 3.89425 0
M  V30 14193 H 1312.58 -0.129275 8.07997 0
M  V30 14194 H 1316.17 -0.708026 5.77476 0
M  V30 14195 H 1315.05 0.0392247 7.8419 0
M  V30 14196 N 1312.55 -1.36459 -0.788468 0
M  V30 14197 C 1313.78 -1.34063 -1.58246 0
M  V30 14198 C 1314.2 0.0754933 -1.87948 0
M  V30 14199 O 1313.56 1.04772 -1.47961 0
M  V30 14200 C 1313.61 -2.17038 -2.8797 0
M  V30 14201 O 1312.71 -1.56353 -3.81612 0
M  V30 14202 H 1312.05 -0.458816 -0.479983 0
M  V30 14203 H 1314.58 -1.79755 -0.977207 0
M  V30 14204 H 1314.59 -2.29651 -3.3723 0
M  V30 14205 H 1313.27 -3.19981 -2.65678 0
M  V30 14206 H 1311.85 -1.52685 -3.40208 0
M  V30 14207 N 1314.03 1.01274 -1.20754 0
M  V30 14208 C 1314.98 2.12012 -0.95675 0
M  V30 14209 C 1315.97 1.69143 0.0932738 0
M  V30 14210 O 1317.18 1.79908 -0.0574298 0
M  V30 14211 H 1313.55 0.692956 -0.292088 0
M  V30 14212 H 1315.52 2.30347 -1.89692 0
M  V30 14213 C 1314.27 3.43643 -0.529602 0
M  V30 14214 H 1313.6 3.77058 -1.32918 0
M  V30 14215 H 1315.04 4.22171 -0.393376 0
M  V30 14216 C 1313.5 3.2825 0.758505 0
M  V30 14217 O 1314.03 3.58309 1.81598 0
M  V30 14218 N 1312.23 2.81487 0.722022 0
M  V30 14219 H 1311.78 2.57226 -0.138807 0
M  V30 14220 H 1311.74 2.7157 1.58421 0
M  V30 14221 N 1315.51 1.01404 1.20644 0
M  V30 14222 C 1316.76 0.697244 1.89265 0
M  V30 14223 C 1317.07 -0.776149 1.79542 0
M  V30 14224 O 1318.28 -1.2054 2.43274 0
M  V30 14225 C 1316.73 1.19672 3.39421 0
M  V30 14226 C 1316.34 2.69683 3.57736 0
M  V30 14227 C 1318.09 0.955225 4.13613 0
M  V30 14228 C 1315.99 3.13124 5.01704 0
M  V30 14229 H 1314.92 0.257105 0.708811 0
M  V30 14230 H 1317.57 1.22639 1.36499 0
M  V30 14231 H 1315.96 0.595562 3.91496 0
M  V30 14232 H 1317.13 3.35326 3.16059 0
M  V30 14233 H 1315.44 2.91946 2.96911 0
M  V30 14234 H 1318.04 1.25524 5.19757 0
M  V30 14235 H 1318.38 -0.108362 4.16159 0
M  V30 14236 H 1318.92 1.51962 3.67631 0
M  V30 14237 H 1315.66 4.18748 5.04311 0
M  V30 14238 H 1315.18 2.522 5.44201 0
M  V30 14239 H 1316.86 3.05617 5.70269 0
M  V30 14240 N 1316.99 -1.36373 0.789944 0
M  V30 14241 C 1318.22 -2.03187 0.373987 0
M  V30 14242 C 1318.63 -1.59697 -1.01457 0
M  V30 14243 O 1317.97 -0.782151 -1.66217 0
M  V30 14244 C 1318.03 -3.57703 0.358985 0
M  V30 14245 C 1317.69 -4.24396 1.69521 0
M  V30 14246 C 1318.69 -4.47247 2.65077 0
M  V30 14247 C 1316.38 -4.61858 1.97465 0
M  V30 14248 C 1318.37 -5.06642 3.86772 0
M  V30 14249 C 1316.06 -5.2097 3.19426 0
M  V30 14250 C 1317.06 -5.43302 4.13899 0
M  V30 14251 O 1316.74 -6.01173 5.3371 0
M  V30 14252 H 1316.48 -0.658654 0.152153 0
M  V30 14253 H 1319.03 -1.7532 1.07014 0
M  V30 14254 H 1317.26 -3.84691 -0.39366 0
M  V30 14255 H 1318.95 -4.05887 -0.0323762 0
M  V30 14256 H 1319.71 -4.18701 2.44775 0
M  V30 14257 H 1315.59 -4.438 1.2475 0
M  V30 14258 H 1319.14 -5.23989 4.60523 0
M  V30 14259 H 1315.03 -5.48943 3.39606 0
M  V30 14260 H 1315.8 -6.19638 5.34781 0
M  V30 14261 N 1318.47 -0.542005 -1.47987 0
M  V30 14262 C 1319.74 0.0526494 -1.95529 0
M  V30 14263 C 1320.12 1.50092 -1.48444 0
M  V30 14264 O 1319.47 2.16981 -0.716347 0
M  V30 14265 C 1319.68 -0.0770524 -3.48915 0
M  V30 14266 C 1321.03 0.0760849 -4.24532 0
M  V30 14267 O 1322.05 -0.00384644 -3.562 0
M  V30 14268 O 1320.91 0.245406 -5.45949 0
M  V30 14269 H 1318.01 0.0726163 -0.823806 0
M  V30 14270 H 1320.55 -0.607454 -1.58455 0
M  V30 14271 H 1319.32 -1.08544 -3.75944 0
M  V30 14272 H 1318.95 0.621357 -3.92715 0
M  V30 14273 N 1319.94 1.55134 -0.277709 0
M  V30 14274 C 1320.87 2.256 0.602232 0
M  V30 14275 C 1321.85 1.24708 1.15681 0
M  V30 14276 O 1323.04 1.53433 1.19046 0
M  V30 14277 C 1320.17 2.97907 1.78519 0
M  V30 14278 C 1319.12 4.0575 1.36203 0
M  V30 14279 C 1318.45 4.65644 2.62829 0
M  V30 14280 C 1319.75 5.19801 0.510327 0
M  V30 14281 H 1321.44 2.99396 0.0145622 0
M  V30 14282 H 1318.99 1.43999 0.00556389 0
M  V30 14283 H 1320.94 3.45915 2.40668 0
M  V30 14284 H 1319.67 2.21649 2.39873 0
M  V30 14285 H 1318.33 3.58557 0.763726 0
M  V30 14286 H 1317.97 3.86053 3.22447 0
M  V30 14287 H 1317.67 5.38463 2.35227 0
M  V30 14288 H 1319.2 5.16403 3.25823 0
M  V30 14289 H 1320.61 5.63845 1.03689 0
M  V30 14290 H 1319.01 5.99197 0.329073 0
M  V30 14291 H 1320.08 4.82614 -0.470273 0
M  V30 14292 N 1321.42 0.00503138 1.57599 0
M  V30 14293 C 1322.67 -0.679766 1.91068 0
M  V30 14294 C 1323 -1.73144 0.879486 0
M  V30 14295 O 1322.28 -1.94237 -0.101116 0
M  V30 14296 C 1322.56 -1.3183 3.35101 0
M  V30 14297 C 1322.41 -0.277833 4.48941 0
M  V30 14298 C 1323.73 -2.24308 3.78647 0
M  V30 14299 H 1320.85 -0.245646 0.694857 0
M  V30 14300 H 1323.49 0.057357 1.89913 0
M  V30 14301 H 1321.64 -1.94657 3.36216 0
M  V30 14302 H 1323.31 0.351136 4.59962 0
M  V30 14303 H 1321.56 0.399365 4.31958 0
M  V30 14304 H 1322.23 -0.763759 5.46691 0
M  V30 14305 H 1324.7 -1.71494 3.79116 0
M  V30 14306 H 1323.58 -2.6595 4.80169 0
M  V30 14307 H 1323.84 -3.12427 3.12797 0
M  V30 14308 N 1322.9 -1.55308 -0.267798 0
M  V30 14309 C 1324.15 -1.7642 -1.00019 0
M  V30 14310 C 1324.48 -0.566559 -1.85752 0
M  V30 14311 O 1323.75 0.435752 -1.89556 0
M  V30 14312 C 1324.04 -3.07229 -1.87836 0
M  V30 14313 C 1323.89 -4.37358 -1.05061 0
M  V30 14314 C 1325.21 -3.34113 -2.86455 0
M  V30 14315 H 1322.33 -0.641859 -0.362197 0
M  V30 14316 H 1324.97 -1.8804 -0.272188 0
M  V30 14317 H 1323.12 -2.97454 -2.49907 0
M  V30 14318 H 1324.79 -4.59098 -0.450208 0
M  V30 14319 H 1323.03 -4.32351 -0.354242 0
M  V30 14320 H 1323.71 -5.25223 -1.69838 0
M  V30 14321 H 1326.18 -3.43715 -2.34519 0
M  V30 14322 H 1325.06 -4.26896 -3.45038 0
M  V30 14323 H 1325.32 -2.54005 -3.61848 0
M  V30 14324 N 1324.38 0.532545 -1.4833 0
M  V30 14325 C 1325.79 1.11451 -1.49785 0
M  V30 14326 C 1326.14 1.94386 -0.266207 0
M  V30 14327 O 1325.26 2.07121 0.62688 0
M  V30 14328 C 1325.86 2.0279 -2.71407 0
M  V30 14329 C 1324.42 2.56209 -2.75742 0
M  V30 14330 C 1323.57 1.33114 -2.43261 0
M  V30 14331 H 1326.52 0.317924 -1.55483 0
M  V30 14332 H 1326.54 2.87038 -2.49779 0
M  V30 14333 H 1326.05 1.42401 -3.61031 0
M  V30 14334 H 1324.15 3.20327 -1.9032 0
M  V30 14335 H 1324.26 2.95518 -3.77102 0
M  V30 14336 H 1322.63 1.64607 -1.94362 0
M  V30 14337 H 1323.41 0.744809 -3.35123 0
M  V30 14338 N 1325.86 1.36875 0.78122 0
M  V30 14339 C 1327.1 1.31559 1.53943 0
M  V30 14340 C 1327.43 -0.10273 1.94229 0
M  V30 14341 O 1326.69 -1.07386 1.63605 0
M  V30 14342 C 1326.98 2.19173 2.82309 0
M  V30 14343 C 1326.65 3.67595 2.61121 0
M  V30 14344 C 1325.31 4.08047 2.55051 0
M  V30 14345 C 1327.66 4.61665 2.41898 0
M  V30 14346 C 1324.99 5.40697 2.27736 0
M  V30 14347 C 1327.34 5.94542 2.16108 0
M  V30 14348 C 1326.01 6.34109 2.08476 0
M  V30 14349 H 1325.28 0.48141 0.563317 0
M  V30 14350 H 1327.93 1.68999 0.900638 0
M  V30 14351 H 1326.23 1.74696 3.50697 0
M  V30 14352 H 1327.93 2.12379 3.40141 0
M  V30 14353 H 1324.52 3.35509 2.66705 0
M  V30 14354 H 1328.7 4.3128 2.45584 0
M  V30 14355 H 1323.96 5.70325 2.20315 0
M  V30 14356 H 1328.13 6.66994 2.0023 0
M  V30 14357 H 1325.76 7.36823 1.87073 0
M  V30 14358 N 1327.33 -1.00632 1.21289 0
M  V30 14359 C 1328.74 -1.55838 1.02817 0
M  V30 14360 C 1329.1 -1.91816 -0.412425 0
M  V30 14361 O 1328.22 -1.73342 -1.29543 0
M  V30 14362 C 1328.82 -2.83168 1.86014 0
M  V30 14363 C 1327.37 -3.34865 1.71879 0
M  V30 14364 C 1326.52 -2.0807 1.83309 0
M  V30 14365 H 1329.47 -0.828939 1.3533 0
M  V30 14366 H 1329.49 -3.54996 1.36961 0
M  V30 14367 H 1329.01 -2.56951 2.90857 0
M  V30 14368 H 1327.11 -3.6602 0.697153 0
M  V30 14369 H 1327.22 -4.06374 2.53766 0
M  V30 14370 H 1325.58 -2.21006 1.26603 0
M  V30 14371 H 1326.37 -1.84267 2.89656 0
M  V30 14372 N 1328.81 -1.02043 -1.20104 0
M  V30 14373 C 1330.04 -0.731142 -1.94085 0
M  V30 14374 C 1330.46 0.702467 -1.74491 0
M  V30 14375 O 1329.82 1.48387 -1.04168 0
M  V30 14376 C 1329.87 -1.07691 -3.44144 0
M  V30 14377 O 1328.97 -0.190751 -4.11959 0
M  V30 14378 H 1328.31 -0.270917 -0.606218 0
M  V30 14379 H 1330.84 -1.36483 -1.52426 0
M  V30 14380 H 1330.85 -1.03023 -3.94779 0
M  V30 14381 H 1329.53 -2.1214 -3.57728 0
M  V30 14382 H 1328.1 -0.29529 -3.71729 0
M  V30 14383 N 1330.29 1.35952 -0.797165 0
M  V30 14384 C 1331.25 2.28266 -0.206748 0
M  V30 14385 C 1332.25 1.49169 0.60043 0
M  V30 14386 O 1333.44 1.69054 0.42029 0
M  V30 14387 C 1330.58 3.33363 0.712884 0
M  V30 14388 H 1331.77 2.81992 -1.02082 0
M  V30 14389 H 1329.32 1.45648 -0.567138 0
M  V30 14390 H 1330.06 2.84806 1.551 0
M  V30 14391 H 1329.84 3.91864 0.135926 0
M  V30 14392 H 1331.33 4.02284 1.1206 0
M  V30 14393 N 1331.77 0.549846 1.47697 0
M  V30 14394 C 1333.18 0.11453 1.86348 0
M  V30 14395 C 1333.53 -1.31368 1.45729 0
M  V30 14396 O 1332.66 -1.98707 0.856989 0
M  V30 14397 C 1333.25 0.201072 3.38203 0
M  V30 14398 C 1331.81 -0.179162 3.75973 0
M  V30 14399 C 1330.96 0.551951 2.71751 0
M  V30 14400 H 1333.91 0.759989 1.39319 0
M  V30 14401 H 1333.93 -0.582216 3.76019 0
M  V30 14402 H 1333.44 1.24065 3.67736 0
M  V30 14403 H 1331.54 -1.22013 3.52056 0
M  V30 14404 H 1331.65 0.174273 4.78783 0
M  V30 14405 H 1330.02 -0.00411819 2.547 0
M  V30 14406 H 1330.8 1.59254 3.04127 0
M  V30 14407 N 1333.25 -1.54984 0.285932 0
M  V30 14408 C 1334.47 -2.04699 -0.333621 0
M  V30 14409 C 1334.9 -1.16252 -1.47875 0
M  V30 14410 O 1334.25 -0.163376 -1.80562 0
M  V30 14411 C 1334.3 -3.52022 -0.78187 0
M  V30 14412 O 1333.41 -3.66639 -1.88812 0
M  V30 14413 H 1332.75 -0.660579 -0.0673203 0
M  V30 14414 H 1335.28 -2.00171 0.423386 0
M  V30 14415 H 1335.29 -3.93591 -1.07473 0
M  V30 14416 H 1333.96 -4.15862 0.055893 0
M  V30 14417 H 1332.54 -3.36974 -1.59696 0
M  V30 14418 N 1334.72 -0.0133892 -1.57594 0
M  V30 14419 C 1335.66 1.00798 -2.04731 0
M  V30 14420 C 1336.64 1.32686 -0.93985 0
M  V30 14421 O 1337.82 1.44622 -1.209 0
M  V30 14422 C 1334.95 2.33216 -2.45618 0
M  V30 14423 C 1333.99 2.16898 -3.67229 0
M  V30 14424 S 1334.83 1.48248 -5.14571 0
M  V30 14425 C 1335.98 2.82068 -5.58738 0
M  V30 14426 H 1336.21 0.606673 -2.91044 0
M  V30 14427 H 1333.75 0.197865 -1.53127 0
M  V30 14428 H 1335.71 3.09348 -2.69841 0
M  V30 14429 H 1334.37 2.70483 -1.59679 0
M  V30 14430 H 1333.56 3.14753 -3.93632 0
M  V30 14431 H 1333.16 1.4891 -3.43077 0
M  V30 14432 H 1335.45 3.78343 -5.62017 0
M  V30 14433 H 1336.4 2.60348 -6.58502 0
M  V30 14434 H 1336.8 2.86592 -4.86338 0
M  V30 14435 N 1336.2 1.55448 0.259558 0
M  V30 14436 C 1337.48 1.6742 1.01143 0
M  V30 14437 C 1337.86 0.549525 2.03822 0
M  V30 14438 O 1337.21 -0.448699 2.24051 0
M  V30 14439 C 1337.42 3.07201 1.65616 0
M  V30 14440 C 1338.77 3.6539 2.16277 0
M  V30 14441 O 1339.79 3.0992 1.7558 0
M  V30 14442 O 1338.65 4.62604 2.90963 0
M  V30 14443 H 1335.74 0.680469 0.469991 0
M  V30 14444 H 1338.29 1.67783 0.254348 0
M  V30 14445 H 1337.06 3.80504 0.912819 0
M  V30 14446 H 1336.68 3.10794 2.47977 0
M  V30 14447 N 1337.68 -0.524672 1.4861 0
M  V30 14448 C 1338.91 -1.30482 1.60568 0
M  V30 14449 C 1339.32 -1.86889 0.267952 0
M  V30 14450 O 1338.68 -1.66669 -0.743488 0
M  V30 14451 C 1338.73 -2.45191 2.65638 0
M  V30 14452 O 1338.45 -1.91107 3.9422 0
M  V30 14453 C 1339.95 -3.36931 2.88084 0
M  V30 14454 H 1337.17 -0.396612 0.541239 0
M  V30 14455 H 1339.72 -0.632392 1.94476 0
M  V30 14456 H 1337.87 -3.08308 2.34574 0
M  V30 14457 H 1338.29 -2.66234 4.51907 0
M  V30 14458 H 1339.76 -4.13755 3.65391 0
M  V30 14459 H 1340.24 -3.92487 1.97106 0
M  V30 14460 H 1340.84 -2.79601 3.20473 0
M  V30 14461 N 1339.16 -1.37287 -0.77395 0
M  V30 14462 C 1340.39 -1.35563 -1.56302 0
M  V30 14463 C 1340.8 0.0595356 -1.88706 0
M  V30 14464 O 1340.16 1.02072 -1.51286 0
M  V30 14465 C 1340.21 -2.19195 -2.87464 0
M  V30 14466 O 1339.93 -3.55197 -2.5645 0
M  V30 14467 C 1341.43 -2.25425 -3.81704 0
M  V30 14468 H 1338.65 -0.464431 -0.484298 0
M  V30 14469 H 1341.2 -1.80597 -0.959425 0
M  V30 14470 H 1339.35 -1.77676 -3.44253 0
M  V30 14471 H 1339.76 -3.99011 -3.40427 0
M  V30 14472 H 1341.24 -2.8827 -4.70749 0
M  V30 14473 H 1341.72 -1.26205 -4.20677 0
M  V30 14474 H 1342.32 -2.67247 -3.30846 0
M  V30 14475 N 1340.64 0.999871 -1.21821 0
M  V30 14476 C 1341.55 2.12303 -0.99823 0
M  V30 14477 C 1342.56 1.73924 0.0512923 0
M  V30 14478 O 1343.74 2.00914 -0.139895 0
M  V30 14479 C 1340.8 3.41962 -0.571232 0
M  V30 14480 C 1339.86 3.94483 -1.69356 0
M  V30 14481 C 1339.1 5.17954 -1.28685 0
M  V30 14482 O 1339.32 5.70168 -0.162641 0
M  V30 14483 O 1338.25 5.64051 -2.10071 0
M  V30 14484 H 1342.08 2.3374 -1.93905 0
M  V30 14485 H 1339.67 1.10677 -1.00354 0
M  V30 14486 H 1341.55 4.20001 -0.343134 0
M  V30 14487 H 1340.22 3.21901 0.340814 0
M  V30 14488 H 1339.13 3.17648 -1.97612 0
M  V30 14489 H 1340.46 4.18964 -2.58322 0
M  V30 14490 N 1342.11 1.02678 1.19562 0
M  V30 14491 C 1343.08 0.610407 2.20922 0
M  V30 14492 C 1344.08 -0.324858 1.57484 0
M  V30 14493 O 1345.27 -0.112153 1.73839 0
M  V30 14494 C 1342.4 -0.107115 3.40732 0
M  V30 14495 H 1343.59 1.50722 2.59274 0
M  V30 14496 H 1341.15 0.817725 1.33203 0
M  V30 14497 H 1341.88 -1.01837 3.07896 0
M  V30 14498 H 1341.67 0.564901 3.88009 0
M  V30 14499 H 1343.16 -0.385423 4.15818 0
M  V30 14500 N 1343.59 -1.35528 0.804364 0
M  V30 14501 C 1344.53 -2.27647 0.158767 0
M  V30 14502 C 1345.5 -1.47976 -0.673942 0
M  V30 14503 O 1346.69 -1.77241 -0.641703 0
M  V30 14504 C 1343.81 -3.29597 -0.779973 0
M  V30 14505 C 1342.86 -4.26491 -0.0271676 0
M  V30 14506 S 1343.69 -5.19296 1.30736 0
M  V30 14507 C 1344.85 -6.24788 0.373003 0
M  V30 14508 H 1345.08 -2.82055 0.939805 0
M  V30 14509 H 1342.62 -1.42294 0.599313 0
M  V30 14510 H 1344.57 -3.88831 -1.31609 0
M  V30 14511 H 1343.23 -2.74072 -1.53438 0
M  V30 14512 H 1342.43 -4.98537 -0.740059 0
M  V30 14513 H 1342.03 -3.71415 0.438923 0
M  V30 14514 H 1344.32 -6.76053 -0.442566 0
M  V30 14515 H 1345.26 -7.00082 1.06258 0
M  V30 14516 H 1345.67 -5.64492 -0.0303131 0
M  V30 14517 N 1345.07 -0.557671 -1.47404 0
M  V30 14518 C 1346 0.178019 -2.3282 0
M  V30 14519 C 1346.98 0.908318 -1.43818 0
M  V30 14520 O 1348.17 0.888693 -1.72673 0
M  V30 14521 C 1345.3 1.2082 -3.25607 0
M  V30 14522 C 1344.25 0.594335 -4.23853 0
M  V30 14523 C 1343.58 1.72919 -5.05968 0
M  V30 14524 C 1344.88 -0.452196 -5.20339 0
M  V30 14525 H 1346.57 -0.535091 -2.9458 0
M  V30 14526 H 1344.12 -0.258775 -1.41656 0
M  V30 14527 H 1346.07 1.73104 -3.84204 0
M  V30 14528 H 1344.79 1.95126 -2.61903 0
M  V30 14529 H 1343.45 0.0927898 -3.66483 0
M  V30 14530 H 1343.1 2.4613 -4.38668 0
M  V30 14531 H 1342.8 1.32422 -5.72484 0
M  V30 14532 H 1344.33 2.25527 -5.67424 0
M  V30 14533 H 1345.74 -0.0154011 -5.73298 0
M  V30 14534 H 1344.14 -0.776068 -5.95061 0
M  V30 14535 H 1345.21 -1.34791 -4.65789 0
M  V30 14536 N 1346.55 1.54831 -0.294147 0
M  V30 14537 C 1347.5 2.23263 0.58499 0
M  V30 14538 C 1348.47 1.21278 1.13494 0
M  V30 14539 O 1349.65 1.49878 1.18073 0
M  V30 14540 C 1346.79 2.97185 1.75429 0
M  V30 14541 C 1345.9 4.1393 1.23638 0
M  V30 14542 C 1345.04 4.7545 2.36899 0
M  V30 14543 C 1344.08 5.84352 1.82207 0
M  V30 14544 N 1343.22 6.39855 2.89015 0
M  V30 14545 H 1348.06 2.98 -0.00519329 0
M  V30 14546 H 1345.59 1.47093 -0.0143313 0
M  V30 14547 H 1347.55 3.38271 2.4419 0
M  V30 14548 H 1346.18 2.24837 2.3162 0
M  V30 14549 H 1345.23 3.77832 0.441247 0
M  V30 14550 H 1346.54 4.92409 0.795946 0
M  V30 14551 H 1345.7 5.19353 3.1362 0
M  V30 14552 H 1344.44 3.96288 2.84266 0
M  V30 14553 H 1343.44 5.39879 1.03974 0
M  V30 14554 H 1344.67 6.65393 1.35753 0
M  V30 14555 H 1342.61 5.6358 3.35729 0
M  V30 14556 H 1342.53 7.13661 2.49447 0
M  V30 14557 H 1343.8 6.88417 3.65654 0
M  V30 14558 N 1348.03 0.0217466 1.57585 0
M  V30 14559 C 1348.96 -0.99116 2.06661 0
M  V30 14560 C 1349.97 -1.29346 0.988604 0
M  V30 14561 O 1351.16 -1.25941 1.26496 0
M  V30 14562 C 1348.26 -2.32047 2.46997 0
M  V30 14563 C 1347.43 -2.20441 3.77789 0
M  V30 14564 C 1346.49 -3.36243 4.04755 0
M  V30 14565 O 1345.52 -3.13458 4.75114 0
M  V30 14566 N 1346.72 -4.598 3.54351 0
M  V30 14567 H 1349.49 -0.572486 2.94181 0
M  V30 14568 H 1347.05 -0.165175 1.61055 0
M  V30 14569 H 1349.04 -3.0833 2.62135 0
M  V30 14570 H 1347.61 -2.65581 1.64881 0
M  V30 14571 H 1346.83 -1.28931 3.72519 0
M  V30 14572 H 1348.12 -2.09882 4.63494 0
M  V30 14573 H 1347.52 -4.81207 2.97416 0
M  V30 14574 H 1346.07 -5.33276 3.7478 0
M  V30 14575 N 1349.51 -1.55583 -0.251311 0
M  V30 14576 C 1350.75 -1.76859 -0.978031 0
M  V30 14577 C 1351.07 -0.584924 -1.86021 0
M  V30 14578 O 1350.34 0.399456 -1.91784 0
M  V30 14579 H 1348.92 -0.652252 -0.364111 0
M  V30 14580 H 1351.59 -1.93016 -0.270319 0
M  V30 14581 H 1350.68 -2.67828 -1.60233 0
M  V30 14582 N 1350.98 0.516783 -1.48886 0
M  V30 14583 C 1352.23 1.27118 -1.58785 0
M  V30 14584 C 1352.58 1.90579 -0.264114 0
M  V30 14585 O 1351.88 1.76972 0.734271 0
M  V30 14586 C 1352.07 2.37296 -2.67256 0
M  V30 14587 C 1351.9 1.84637 -4.10048 0
M  V30 14588 C 1350.67 1.66646 -4.77029 0
M  V30 14589 C 1352.87 1.36728 -4.95792 0
M  V30 14590 N 1350.85 1.08751 -6.04191 0
M  V30 14591 C 1352.22 0.908663 -6.13305 0
M  V30 14592 C 1354.28 1.25154 -4.81914 0
M  V30 14593 C 1352.98 0.345766 -7.18468 0
M  V30 14594 C 1355.01 0.702625 -5.87211 0
M  V30 14595 C 1354.37 0.254151 -7.03941 0
M  V30 14596 H 1350.47 0.455698 -0.635503 0
M  V30 14597 H 1353.05 0.581119 -1.85825 0
M  V30 14598 H 1351.22 3.03782 -2.42014 0
M  V30 14599 H 1352.95 3.04334 -2.66764 0
M  V30 14600 H 1349.71 1.90556 -4.33573 0
M  V30 14601 H 1350.13 0.817766 -6.72043 0
M  V30 14602 H 1354.77 1.58429 -3.91995 0
M  V30 14603 H 1352.49 0.000713578 -8.081 0
M  V30 14604 H 1356.08 0.616065 -5.78529 0
M  V30 14605 H 1354.96 -0.163978 -7.84029 0
M  V30 14606 N 1352.46 1.37696 0.766659 0
M  V30 14607 C 1353.69 1.3639 1.55581 0
M  V30 14608 C 1354.1 -0.0495272 1.88735 0
M  V30 14609 O 1353.46 -1.01268 1.51826 0
M  V30 14610 C 1353.51 2.20717 2.86298 0
M  V30 14611 O 1353.23 3.56552 2.54563 0
M  V30 14612 C 1354.73 2.27446 3.80504 0
M  V30 14613 H 1351.95 0.466993 0.481828 0
M  V30 14614 H 1354.5 1.81103 0.949834 0
M  V30 14615 H 1352.65 1.79499 3.43306 0
M  V30 14616 H 1353.07 4.00811 3.38306 0
M  V30 14617 H 1354.54 2.90762 4.69214 0
M  V30 14618 H 1355.02 1.28434 4.20002 0
M  V30 14619 H 1355.62 2.68998 3.29424 0
M  V30 14620 N 1353.94 -0.993397 1.22349 0
M  V30 14621 C 1355.35 -1.54739 1.04465 0
M  V30 14622 C 1355.7 -1.92243 -0.392057 0
M  V30 14623 O 1354.83 -1.74707 -1.27697 0
M  V30 14624 C 1355.42 -2.81179 1.89007 0
M  V30 14625 C 1353.98 -3.33023 1.75421 0
M  V30 14626 C 1353.13 -2.06114 1.85505 0
M  V30 14627 H 1356.08 -0.814539 1.36202 0
M  V30 14628 H 1356.1 -3.53523 1.40718 0
M  V30 14629 H 1355.61 -2.53851 2.93566 0
M  V30 14630 H 1353.71 -3.6526 0.735935 0
M  V30 14631 H 1353.83 -4.03659 2.58062 0
M  V30 14632 H 1352.19 -2.19651 1.2894 0
M  V30 14633 H 1352.97 -1.81184 2.91594 0
M  V30 14634 N 1355.42 -1.03311 -1.19015 0
M  V30 14635 C 1356.83 -0.750946 -1.4083 0
M  V30 14636 C 1357.03 0.662704 -1.90291 0
M  V30 14637 O 1356.09 1.42806 -2.08237 0
M  V30 14638 C 1357.4 -1.79064 -2.41571 0
M  V30 14639 C 1358.95 -1.81068 -2.55311 0
M  V30 14640 C 1359.43 -2.84008 -3.59309 0
M  V30 14641 N 1360.92 -2.82852 -3.6681 0
M  V30 14642 C 1361.65 -3.59156 -4.46984 0
M  V30 14643 N 1361.15 -4.45188 -5.30829 0
M  V30 14644 N 1362.94 -3.47679 -4.41674 0
M  V30 14645 H 1355.09 -1.94548 -0.852329 0
M  V30 14646 H 1357.35 -0.841344 -0.436858 0
M  V30 14647 H 1357.06 -2.80425 -2.12261 0
M  V30 14648 H 1356.93 -1.61646 -3.40809 0
M  V30 14649 H 1359.32 -0.803825 -2.83941 0
M  V30 14650 H 1359.4 -2.02562 -1.56212 0
M  V30 14651 H 1359.05 -3.84867 -3.3142 0
M  V30 14652 H 1358.98 -2.59771 -4.58069 0
M  V30 14653 H 1361.47 -2.20457 -3.06932 0
M  V30 14654 H 1361.78 -5.00139 -5.89135 0
M  V30 14655 H 1360.13 -4.49259 -5.30275 0
M  V30 14656 H 1363.32 -2.79876 -3.75216 0
M  V30 14657 H 1363.49 -4.07396 -5.03917 0
M  V30 14658 N 1356.9 1.35099 -0.81154 0
M  V30 14659 C 1358.31 1.51701 -0.495883 0
M  V30 14660 C 1358.51 1.7595 0.982035 0
M  V30 14661 O 1357.57 1.8038 1.7669 0
M  V30 14662 C 1358.88 2.68916 -1.34554 0
M  V30 14663 C 1360.43 2.82795 -1.34149 0
M  V30 14664 C 1360.9 4.0304 -2.17538 0
M  V30 14665 N 1362.39 4.10227 -2.151 0
M  V30 14666 C 1363.13 5.02397 -2.76377 0
M  V30 14667 N 1362.63 5.99866 -3.46601 0
M  V30 14668 N 1364.42 4.95181 -2.65992 0
M  V30 14669 H 1356.57 1.17617 -1.76862 0
M  V30 14670 H 1358.83 0.575875 -0.753042 0
M  V30 14671 H 1358.54 2.57591 -2.39458 0
M  V30 14672 H 1358.41 3.63641 -1.00223 0
M  V30 14673 H 1360.8 2.93568 -0.300285 0
M  V30 14674 H 1360.88 1.88912 -1.7247 0
M  V30 14675 H 1360.52 3.93027 -3.21702 0
M  V30 14676 H 1360.45 4.96114 -1.76574 0
M  V30 14677 H 1362.95 3.40454 -1.6401 0
M  V30 14678 H 1363.26 6.66803 -3.90632 0
M  V30 14679 H 1361.6 6.00025 -3.50706 0
M  V30 14680 H 1364.79 4.17991 -2.10715 0
M  V30 14681 H 1364.97 5.6682 -3.14036 0
M  V30 14682 N 1358.37 0.56548 1.47106 0
M  V30 14683 C 1359.31 -0.225573 2.27082 0
M  V30 14684 C 1360.28 -0.912747 1.34565 0
M  V30 14685 O 1361.47 -0.930085 1.63956 0
M  V30 14686 C 1358.6 -1.32211 3.1183 0
M  V30 14687 C 1357.64 -0.742615 4.19985 0
M  V30 14688 S 1358.47 0.417211 5.33872 0
M  V30 14689 C 1359.63 -0.680945 6.22185 0
M  V30 14690 H 1359.86 0.453066 2.93828 0
M  V30 14691 H 1357.4 0.351982 1.50334 0
M  V30 14692 H 1359.35 -1.95004 3.61225 0
M  V30 14693 H 1358.02 -1.97262 2.44431 0
M  V30 14694 H 1357.21 -1.56632 4.79043 0
M  V30 14695 H 1356.81 -0.190696 3.73514 0
M  V30 14696 H 1359.1 -1.57099 6.59034 0
M  V30 14697 H 1360.05 -0.127524 7.07985 0
M  V30 14698 H 1360.45 -0.977339 5.55975 0
M  V30 14699 N 1359.85 -1.54672 0.302354 0
M  V30 14700 C 1361.1 -2.00167 -0.306524 0
M  V30 14701 C 1361.43 -1.19073 -1.53791 0
M  V30 14702 O 1360.68 -0.255328 -1.94027 0
M  V30 14703 C 1360.98 -3.5035 -0.70638 0
M  V30 14704 C 1360.65 -4.48907 0.423429 0
M  V30 14705 C 1359.31 -4.75575 0.733586 0
M  V30 14706 C 1361.66 -5.07588 1.18338 0
M  V30 14707 C 1358.99 -5.58186 1.80679 0
M  V30 14708 C 1361.34 -5.91367 2.24651 0
M  V30 14709 C 1360.01 -6.16345 2.56272 0
M  V30 14710 H 1359.28 -0.732462 -0.112165 0
M  V30 14711 H 1361.92 -1.86798 0.421732 0
M  V30 14712 H 1360.23 -3.61335 -1.51474 0
M  V30 14713 H 1361.92 -3.82977 -1.18869 0
M  V30 14714 H 1358.51 -4.28256 0.171591 0
M  V30 14715 H 1362.7 -4.86985 0.957018 0
M  V30 14716 H 1357.95 -5.75776 2.05649 0
M  V30 14717 H 1362.13 -6.35862 2.83994 0
M  V30 14718 H 1359.76 -6.80148 3.39563 0
M  V30 14719 N 1361.33 -0.0301034 -1.57571 0
M  V30 14720 C 1362.28 0.951421 -2.10277 0
M  V30 14721 C 1363.25 1.3224 -1.00508 0
M  V30 14722 O 1364.43 1.41554 -1.27934 0
M  V30 14723 C 1361.57 2.2282 -2.63525 0
M  V30 14724 C 1360.69 1.91359 -3.87306 0
M  V30 14725 C 1359.82 3.13339 -4.28943 0
M  V30 14726 C 1358.86 2.77701 -5.4548 0
M  V30 14727 N 1358 3.9231 -5.82269 0
M  V30 14728 H 1362.84 0.495049 -2.93859 0
M  V30 14729 H 1360.37 0.232756 -1.45247 0
M  V30 14730 H 1362.33 2.97502 -2.92487 0
M  V30 14731 H 1360.96 2.66072 -1.82772 0
M  V30 14732 H 1360.01 1.06915 -3.65066 0
M  V30 14733 H 1361.33 1.61112 -4.72064 0
M  V30 14734 H 1360.48 3.9634 -4.59347 0
M  V30 14735 H 1359.22 3.46747 -3.42954 0
M  V30 14736 H 1358.22 1.93113 -5.14769 0
M  V30 14737 H 1359.45 2.45508 -6.33169 0
M  V30 14738 H 1357.39 4.25559 -4.99235 0
M  V30 14739 H 1357.31 3.65691 -6.61669 0
M  V30 14740 H 1358.58 4.76012 -6.17279 0
M  V30 14741 N 1362.81 1.55714 0.243056 0
M  V30 14742 C 1363.72 1.93777 1.32241 0
M  V30 14743 C 1364.73 0.838709 1.52452 0
M  V30 14744 O 1365.91 1.14044 1.66 0
M  V30 14745 C 1362.98 2.22808 2.65627 0
M  V30 14746 C 1362.04 3.46166 2.53904 0
M  V30 14747 C 1361.27 3.73802 3.8093 0
M  V30 14748 O 1361.49 3.0345 4.82985 0
M  V30 14749 O 1360.43 4.67323 3.79332 0
M  V30 14750 H 1364.25 2.85718 1.02951 0
M  V30 14751 H 1361.84 1.42646 0.444135 0
M  V30 14752 H 1363.72 2.4277 3.44442 0
M  V30 14753 H 1362.39 1.34045 2.94642 0
M  V30 14754 H 1361.3 3.31506 1.73362 0
M  V30 14755 H 1362.63 4.35244 2.29834 0
M  V30 14756 N 1364.29 -0.50888 1.49158 0
M  V30 14757 C 1365.25 -1.59354 1.64739 0
M  V30 14758 C 1366.25 -1.52175 0.519557 0
M  V30 14759 O 1367.44 -1.55468 0.785838 0
M  V30 14760 C 1364.57 -2.99002 1.63739 0
M  V30 14761 H 1365.76 -1.46871 2.61474 0
M  V30 14762 H 1363.32 -0.732532 1.38071 0
M  V30 14763 H 1364.05 -3.1697 0.685583 0
M  V30 14764 H 1363.84 -3.05622 2.45637 0
M  V30 14765 H 1365.33 -3.77822 1.77877 0
M  V30 14766 N 1365.76 -1.381 -0.759346 0
M  V30 14767 C 1367.04 -1.24517 -1.50847 0
M  V30 14768 C 1367.42 0.155929 -2.10523 0
M  V30 14769 O 1366.77 1.16485 -1.96579 0
M  V30 14770 C 1366.98 -2.35086 -2.57945 0
M  V30 14771 C 1368.33 -2.73232 -3.25007 0
M  V30 14772 O 1369.35 -2.34355 -2.68247 0
M  V30 14773 O 1368.21 -3.40254 -4.27656 0
M  V30 14774 H 1365.3 -0.486599 -0.668693 0
M  V30 14775 H 1367.85 -1.49913 -0.795249 0
M  V30 14776 H 1366.62 -3.28858 -2.12056 0
M  V30 14777 H 1366.25 -2.11222 -3.36854 0
M  V30 14778 N 1367.24 0.986894 -1.22875 0
M  V30 14779 C 1368.52 1.70121 -0.965311 0
M  V30 14780 C 1368.9 2.04648 0.517924 0
M  V30 14781 O 1368.25 1.73453 1.48749 0
M  V30 14782 C 1368.46 2.94738 -1.86897 0
M  V30 14783 C 1369.81 3.6739 -2.12861 0
M  V30 14784 O 1370.83 3.04758 -1.84394 0
M  V30 14785 O 1369.69 4.8009 -2.61106 0
M  V30 14786 H 1366.78 0.742817 -0.363527 0
M  V30 14787 H 1369.33 1.0427 -1.33887 0
M  V30 14788 H 1368.1 2.65771 -2.87196 0
M  V30 14789 H 1367.72 3.68327 -1.49736 0
M  V30 14790 N 1368.72 1.0394 1.18466 0
M  V30 14791 C 1369.97 0.742042 1.88414 0
M  V30 14792 C 1370.3 -0.730138 1.80275 0
M  V30 14793 O 1369.55 -1.54844 1.19674 0
M  V30 14794 C 1369.85 1.15198 3.38326 0
M  V30 14795 C 1369.52 2.62422 3.66668 0
M  V30 14796 C 1368.18 3.02643 3.74113 0
M  V30 14797 C 1370.53 3.5762 3.79153 0
M  V30 14798 C 1367.86 4.36953 3.91522 0
M  V30 14799 C 1370.21 4.91647 3.98077 0
M  V30 14800 C 1368.87 5.31541 4.03758 0
M  V30 14801 H 1368.14 0.271532 0.689457 0
M  V30 14802 H 1370.79 1.30419 1.40225 0
M  V30 14803 H 1369.1 0.508607 3.88485 0
M  V30 14804 H 1370.79 0.899269 3.90787 0
M  V30 14805 H 1367.38 2.30268 3.61489 0
M  V30 14806 H 1371.57 3.27693 3.72735 0
M  V30 14807 H 1366.82 4.67382 3.94163 0
M  V30 14808 H 1371 5.65318 4.0668 0
M  V30 14809 H 1368.62 6.35622 4.16999 0
M  V30 14810 N 1370.2 -1.34667 0.818693 0
M  V30 14811 C 1371.45 -1.98414 0.404759 0
M  V30 14812 C 1371.77 -1.64919 -1.03112 0
M  V30 14813 O 1371.03 -0.910695 -1.73219 0
M  V30 14814 C 1371.33 -3.53157 0.549059 0
M  V30 14815 C 1370.99 -4.06552 1.95003 0
M  V30 14816 C 1369.66 -4.20846 2.33329 0
M  V30 14817 C 1372.01 -4.35324 2.86604 0
M  V30 14818 C 1369.34 -4.61236 3.62599 0
M  V30 14819 C 1371.69 -4.77159 4.15334 0
M  V30 14820 C 1370.35 -4.89658 4.53642 0
M  V30 14821 H 1369.62 -0.726047 0.148112 0
M  V30 14822 H 1372.27 -1.60681 1.04182 0
M  V30 14823 H 1370.57 -3.91425 -0.17141 0
M  V30 14824 H 1372.27 -4.00453 0.209374 0
M  V30 14825 H 1368.86 -3.95887 1.64231 0
M  V30 14826 H 1373.04 -4.23823 2.58239 0
M  V30 14827 H 1368.3 -4.69104 3.92112 0
M  V30 14828 H 1372.47 -4.98381 4.86404 0
M  V30 14829 H 1370.1 -5.20713 5.53861 0
M  V30 14830 N 1371.68 -0.573274 -1.46804 0
M  V30 14831 C 1372.9 -0.0605984 -2.06811 0
M  V30 14832 C 1373.32 1.24024 -1.4235 0
M  V30 14833 O 1372.68 1.7477 -0.525515 0
M  V30 14834 C 1372.73 0.121828 -3.61295 0
M  V30 14835 O 1372.45 -1.12751 -4.23342 0
M  V30 14836 C 1373.95 0.669941 -4.38208 0
M  V30 14837 H 1371.17 -0.0531498 -0.668892 0
M  V30 14838 H 1373.71 -0.791259 -1.88572 0
M  V30 14839 H 1371.87 0.802674 -3.78993 0
M  V30 14840 H 1372.28 -0.935361 -5.16092 0
M  V30 14841 H 1373.76 0.746806 -5.46925 0
M  V30 14842 H 1374.23 1.68483 -4.05598 0
M  V30 14843 H 1374.84 0.0242721 -4.25293 0
M  V30 14844 N 1373.15 1.5451 -0.310553 0
M  V30 14845 C 1374.38 2.05204 0.301013 0
M  V30 14846 C 1374.8 1.1859 1.46007 0
M  V30 14847 O 1374.16 0.192081 1.8028 0
M  V30 14848 C 1374.21 3.53221 0.725767 0
M  V30 14849 O 1373.31 3.69596 1.82955 0
M  V30 14850 H 1372.66 0.661566 0.0568026 0
M  V30 14851 H 1375.19 1.99473 -0.455178 0
M  V30 14852 H 1375.2 3.9525 1.01198 0
M  V30 14853 H 1373.87 4.15721 -0.122046 0
M  V30 14854 H 1372.45 3.39472 1.54315 0
M  V30 14855 N 1374.63 0.0384594 1.57553 0
M  V30 14856 C 1375.56 -0.938444 2.13812 0
M  V30 14857 C 1376.54 -1.33307 1.05657 0
M  V30 14858 O 1377.73 -1.41003 1.33535 0
M  V30 14859 C 1374.86 -2.21764 2.67279 0
M  V30 14860 C 1373.81 -1.96347 3.80305 0
M  V30 14861 C 1373.14 -3.30612 4.20238 0
M  V30 14862 C 1374.44 -1.2952 5.05986 0
M  V30 14863 H 1376.13 -0.469887 2.9569 0
M  V30 14864 H 1373.68 -0.224576 1.42238 0
M  V30 14865 H 1375.63 -2.90493 3.05273 0
M  V30 14866 H 1374.36 -2.70802 1.82576 0
M  V30 14867 H 1373.02 -1.30033 3.42764 0
M  V30 14868 H 1372.66 -3.77427 3.32502 0
M  V30 14869 H 1372.36 -3.14409 4.96408 0
M  V30 14870 H 1373.89 -4.00594 4.60822 0
M  V30 14871 H 1375.3 -1.88264 5.41507 0
M  V30 14872 H 1373.7 -1.23685 5.87216 0
M  V30 14873 H 1374.77 -0.269439 4.84151 0
M  V30 14874 N 1376.11 -1.55841 -0.234795 0
M  V30 14875 C 1377.36 -1.77886 -0.959217 0
M  V30 14876 C 1377.68 -0.604621 -1.8539 0
M  V30 14877 O 1376.95 0.379092 -1.92197 0
M  V30 14878 H 1375.53 -0.656077 -0.357172 0
M  V30 14879 H 1378.19 -1.93292 -0.249831 0
M  V30 14880 H 1377.29 -2.69512 -1.57383 0
M  V30 14881 N 1377.59 0.500963 -1.49426 0
M  V30 14882 C 1378.52 1.61114 -1.69011 0
M  V30 14883 C 1379.5 1.61341 -0.538813 0
M  V30 14884 O 1380.69 1.78081 -0.77466 0
M  V30 14885 C 1377.82 2.99598 -1.75666 0
M  V30 14886 C 1376.77 3.14236 -2.90585 0
M  V30 14887 C 1376.1 4.54071 -2.82354 0
M  V30 14888 C 1377.4 2.94258 -4.3152 0
M  V30 14889 H 1379.09 1.44978 -2.61957 0
M  V30 14890 H 1376.64 0.69603 -1.26061 0
M  V30 14891 H 1378.59 3.77163 -1.87953 0
M  V30 14892 H 1377.31 3.16822 -0.793186 0
M  V30 14893 H 1375.97 2.39096 -2.779 0
M  V30 14894 H 1375.62 4.68172 -1.83914 0
M  V30 14895 H 1375.32 4.64806 -3.59485 0
M  V30 14896 H 1376.84 5.33696 -2.96649 0
M  V30 14897 H 1378.26 3.61592 -4.44886 0
M  V30 14898 H 1376.65 3.16464 -5.09873 0
M  V30 14899 H 1377.72 1.90383 -4.45962 0
M  V30 14900 N 1379.07 1.38501 0.752011 0
M  V30 14901 C 1380 1.38577 1.87933 0
M  V30 14902 C 1380.98 0.251454 1.68231 0
M  V30 14903 O 1382.16 0.45477 1.888 0
M  V30 14904 C 1379.29 1.21164 3.25479 0
M  V30 14905 C 1378.25 2.31816 3.59785 0
M  V30 14906 C 1377.57 1.99508 4.96085 0
M  V30 14907 C 1378.87 3.74082 3.645 0
M  V30 14908 H 1380.57 2.32913 1.88127 0
M  V30 14909 H 1378.11 1.12113 0.903698 0
M  V30 14910 H 1380.07 1.19842 4.04 0
M  V30 14911 H 1378.79 0.232899 3.25769 0
M  V30 14912 H 1377.45 2.32327 2.83584 0
M  V30 14913 H 1377.1 1.00114 4.92936 0
M  V30 14914 H 1376.8 2.73617 5.20007 0
M  V30 14915 H 1378.32 1.99807 5.76983 0
M  V30 14916 H 1379.74 3.75593 4.33131 0
M  V30 14917 H 1378.13 4.47409 3.99931 0
M  V30 14918 H 1379.2 4.06284 2.64692 0
M  V30 14919 N 1380.55 -0.980364 1.23396 0
M  V30 14920 C 1381.96 -1.53622 1.061 0
M  V30 14921 C 1382.31 -1.92648 -0.371645 0
M  V30 14922 O 1381.43 -1.76051 -1.25837 0
M  V30 14923 C 1382.03 -2.79159 1.91979 0
M  V30 14924 C 1380.59 -3.31144 1.78943 0
M  V30 14925 C 1379.73 -2.04135 1.87681 0
M  V30 14926 H 1382.68 -0.800047 1.37058 0
M  V30 14927 H 1382.71 -3.52011 1.4446 0
M  V30 14928 H 1382.22 -2.50723 2.96242 0
M  V30 14929 H 1380.32 -3.64459 0.774634 0
M  V30 14930 H 1380.43 -4.009 2.62329 0
M  V30 14931 H 1378.8 -2.18271 1.31262 0
M  V30 14932 H 1379.58 -1.78081 2.93499 0
M  V30 14933 N 1382.02 -1.04567 -1.17913 0
M  V30 14934 C 1383.27 -0.753137 -1.88297 0
M  V30 14935 C 1383.6 0.717651 -1.80453 0
M  V30 14936 O 1382.88 1.5242 -1.20824 0
M  V30 14937 C 1383.16 -1.22626 -3.38578 0
M  V30 14938 C 1383.01 -2.75952 -3.55205 0
M  V30 14939 C 1384.33 -0.82029 -4.32388 0
M  V30 14940 H 1381.45 -0.275067 -0.683745 0
M  V30 14941 H 1384.09 -1.29856 -1.38699 0
M  V30 14942 H 1382.24 -0.762246 -3.80949 0
M  V30 14943 H 1383.92 -3.30429 -3.21892 0
M  V30 14944 H 1382.16 -3.15534 -2.97693 0
M  V30 14945 H 1382.83 -3.04116 -4.60671 0
M  V30 14946 H 1385.31 -1.21965 -3.97824 0
M  V30 14947 H 1384.18 -1.17902 -5.36088 0
M  V30 14948 H 1384.44 0.276205 -4.41236 0
M  V30 14949 N 1383.5 1.34231 -0.825823 0
M  V30 14950 C 1384.91 1.8059 -0.473724 0
M  V30 14951 C 1385.26 1.68438 1.00614 0
M  V30 14952 O 1384.39 1.22606 1.78317 0
M  V30 14953 C 1384.98 3.27884 -0.853099 0
M  V30 14954 C 1383.54 3.72311 -0.553327 0
M  V30 14955 C 1382.69 2.55889 -1.06845 0
M  V30 14956 H 1385.64 1.21937 -1.01573 0
M  V30 14957 H 1385.66 3.80172 -0.158014 0
M  V30 14958 H 1385.17 3.36696 -1.93021 0
M  V30 14959 H 1383.27 3.69034 0.514256 0
M  V30 14960 H 1383.39 4.66315 -1.09942 0
M  V30 14961 H 1381.75 2.49945 -0.489874 0
M  V30 14962 H 1382.53 2.67471 -2.15207 0
M  V30 14963 N 1384.98 0.581051 1.46498 0
M  V30 14964 C 1386.39 0.154032 1.86064 0
M  V30 14965 C 1386.74 -1.28247 1.48483 0
M  V30 14966 O 1385.87 -1.96845 0.898945 0
M  V30 14967 C 1386.46 0.272764 3.377 0
M  V30 14968 C 1385.02 -0.0993724 3.76269 0
M  V30 14969 C 1384.17 0.60947 2.70519 0
M  V30 14970 H 1387.12 0.78937 1.37676 0
M  V30 14971 H 1387.14 -0.502326 3.7717 0
M  V30 14972 H 1386.65 1.31837 3.65021 0
M  V30 14973 H 1384.75 -1.14517 3.54565 0
M  V30 14974 H 1384.87 0.275791 4.78306 0
M  V30 14975 H 1383.23 0.0499083 2.54651 0
M  V30 14976 H 1384.01 1.65669 3.0068 0
M  V30 14977 N 1386.46 -1.54343 0.318742 0
M  V30 14978 C 1387.37 -2.27856 -0.558442 0
M  V30 14979 C 1388.38 -1.32029 -1.13333 0
M  V30 14980 O 1389.56 -1.65037 -1.15433 0
M  V30 14981 C 1386.62 -3.01842 -1.70565 0
M  V30 14982 C 1385.69 -4.13245 -1.16305 0
M  V30 14983 C 1384.92 -4.83693 -2.25559 0
M  V30 14984 O 1385.14 -4.53621 -3.4581 0
M  V30 14985 O 1384.08 -5.70708 -1.91249 0
M  V30 14986 H 1387.9 -3.03676 0.0384247 0
M  V30 14987 H 1385.49 -1.4916 0.0845936 0
M  V30 14988 H 1387.37 -3.48189 -2.37365 0
M  V30 14989 H 1386.04 -2.28902 -2.28879 0
M  V30 14990 H 1384.95 -3.71258 -0.460274 0
M  V30 14991 H 1386.28 -4.88214 -0.625111 0
M  V30 14992 N 1387.94 -0.0468143 -1.5753 0
M  V30 14993 C 1389.18 0.627939 -1.92518 0
M  V30 14994 C 1389.51 1.71107 -0.924801 0
M  V30 14995 O 1388.77 1.95597 0.0635812 0
M  V30 14996 C 1389.06 1.26669 -3.342 0
M  V30 14997 C 1388.73 0.312184 -4.49818 0
M  V30 14998 C 1387.39 0.0495202 -4.81175 0
M  V30 14999 C 1389.74 -0.342228 -5.20075 0
M  V30 15000 C 1387.07 -0.875064 -5.80137 0
M  V30 15001 C 1389.42 -1.25498 -6.20027 0
M  V30 15002 C 1388.09 -1.52636 -6.49814 0
M  V30 15003 H 1387.36 0.229779 -0.704473 0
M  V30 15004 H 1390.01 -0.112363 -1.9117 0
M  V30 15005 H 1388.31 2.08215 -3.31894 0
M  V30 15006 H 1390.01 1.79563 -3.5855 0
M  V30 15007 H 1386.6 0.527088 -4.25347 0
M  V30 15008 H 1390.78 -0.152384 -4.96066 0
M  V30 15009 H 1386.04 -1.09284 -6.01554 0
M  V30 15010 H 1390.21 -1.76815 -6.7358 0
M  V30 15011 H 1387.84 -2.24443 -7.26312 0
M  V30 15012 N 1389.41 1.55964 0.226527 0
M  V30 15013 C 1390.66 1.79921 0.94869 0
M  V30 15014 C 1391.02 0.619018 1.8217 0
M  V30 15015 O 1390.31 -0.387105 1.87649 0
M  V30 15016 C 1390.5 3.07235 1.82597 0
M  V30 15017 C 1390.33 4.37524 1.03937 0
M  V30 15018 C 1389.1 4.99907 0.736294 0
M  V30 15019 C 1391.3 5.12686 0.407078 0
M  V30 15020 N 1389.28 6.13858 -0.0722247 0
M  V30 15021 C 1390.65 6.19433 -0.265063 0
M  V30 15022 C 1392.71 4.96873 0.319605 0
M  V30 15023 C 1391.41 7.12084 -1.0163 0
M  V30 15024 C 1393.44 5.8992 -0.418156 0
M  V30 15025 C 1392.8 6.96089 -1.07886 0
M  V30 15026 H 1388.9 0.710081 0.327581 0
M  V30 15027 H 1391.48 1.93453 0.219997 0
M  V30 15028 H 1389.65 2.94994 2.52652 0
M  V30 15029 H 1391.38 3.19403 2.48523 0
M  V30 15030 H 1388.14 4.61743 1.0531 0
M  V30 15031 H 1388.56 6.754 -0.465173 0
M  V30 15032 H 1393.21 4.1485 0.816071 0
M  V30 15033 H 1390.92 7.93593 -1.52431 0
M  V30 15034 H 1394.51 5.7976 -0.486776 0
M  V30 15035 H 1393.39 7.66847 -1.64061 0
M  V30 15036 N 1390.89 -0.493031 1.4969 0
M  V30 15037 C 1391.84 -1.61449 1.67442 0
M  V30 15038 C 1392.83 -1.60553 0.540296 0
M  V30 15039 O 1394.04 -1.64965 0.720167 0
M  V30 15040 H 1390.42 -0.535337 0.528127 0
M  V30 15041 H 1392.39 -1.43631 2.61558 0
M  V30 15042 C 1391.14 -2.99537 1.76559 0
M  V30 15043 H 1390.46 -3.00936 2.63206 0
M  V30 15044 H 1391.9 -3.77521 1.93013 0
M  V30 15045 C 1390.36 -3.32984 0.512176 0
M  V30 15046 O 1390.89 -4.00096 -0.35857 0
M  V30 15047 N 1389.09 -2.882 0.372734 0
M  V30 15048 H 1388.64 -2.3376 1.08232 0
M  V30 15049 H 1388.6 -3.10945 -0.464804 0
M  V30 15050 N 1392.37 -1.38898 -0.744656 0
M  V30 15051 C 1393.32 -1.36845 -1.85855 0
M  V30 15052 C 1394.29 -0.2296 -1.64505 0
M  V30 15053 O 1395.47 -0.423221 -1.86047 0
M  V30 15054 C 1392.61 -1.20818 -3.2326 0
M  V30 15055 C 1391.73 -2.44166 -3.5638 0
M  V30 15056 C 1390.86 -2.20801 -4.83136 0
M  V30 15057 C 1389.9 -3.39874 -5.0907 0
M  V30 15058 N 1389.04 -3.15888 -6.27024 0
M  V30 15059 H 1393.88 -2.32068 -1.86945 0
M  V30 15060 H 1391.41 -1.15289 -0.913611 0
M  V30 15061 H 1393.37 -1.0954 -4.02563 0
M  V30 15062 H 1392 -0.292295 -3.21474 0
M  V30 15063 H 1391.05 -2.66083 -2.71852 0
M  V30 15064 H 1392.37 -3.32885 -3.71469 0
M  V30 15065 H 1391.52 -2.0671 -5.704 0
M  V30 15066 H 1390.26 -1.29462 -4.70203 0
M  V30 15067 H 1389.26 -3.54474 -4.20271 0
M  V30 15068 H 1390.49 -4.32102 -5.23894 0
M  V30 15069 H 1388.43 -2.27204 -6.15398 0
M  V30 15070 H 1388.35 -3.9816 -6.42655 0
M  V30 15071 H 1389.62 -3.0547 -7.17153 0
M  V30 15072 N 1393.85 0.973806 -1.23914 0
M  V30 15073 C 1395.07 1.7564 -1.10296 0
M  V30 15074 C 1395.5 1.84984 0.340954 0
M  V30 15075 O 1394.86 1.31629 1.24674 0
M  V30 15076 C 1394.9 3.15809 -1.7406 0
M  V30 15077 O 1394.01 3.99911 -1.00722 0
M  V30 15078 H 1393.35 0.540133 -0.386202 0
M  V30 15079 H 1395.88 1.22197 -1.64101 0
M  V30 15080 H 1395.89 3.66359 -1.79568 0
M  V30 15081 H 1394.56 3.08324 -2.79122 0
M  V30 15082 H 1393.14 3.58405 -1.02956 0
M  V30 15083 N 1395.33 1.05191 1.17357 0
M  V30 15084 C 1396.26 0.597207 2.20247 0
M  V30 15085 C 1397.24 -0.374194 1.58236 0
M  V30 15086 O 1398.42 -0.285815 1.86321 0
M  V30 15087 C 1395.55 -0.126012 3.38466 0
M  V30 15088 C 1394.59 0.800401 4.18922 0
M  V30 15089 S 1395.43 2.28956 4.84086 0
M  V30 15090 C 1396.58 1.57751 6.05694 0
M  V30 15091 H 1396.82 1.46893 2.58476 0
M  V30 15092 H 1394.35 0.863874 1.27971 0
M  V30 15093 H 1396.31 -0.537086 4.06971 0
M  V30 15094 H 1394.97 -0.97377 2.98624 0
M  V30 15095 H 1394.16 0.240754 5.03425 0
M  V30 15096 H 1393.76 1.15084 3.55853 0
M  V30 15097 H 1396.06 0.876839 6.71802 0
M  V30 15098 H 1397 2.40001 6.66187 0
M  V30 15099 H 1397.41 1.06493 5.54364 0
M  V30 15100 N 1396.8 -1.33791 0.83293 0
M  V30 15101 C 1397.73 -2.31853 0.276846 0
M  V30 15102 C 1398.72 -1.58702 -0.612184 0
M  V30 15103 O 1399.9 -1.86629 -0.536975 0
M  V30 15104 C 1397.03 -3.42855 -0.55385 0
M  V30 15105 C 1395.98 -4.27333 0.238884 0
M  V30 15106 C 1395.31 -5.29895 -0.715187 0
M  V30 15107 C 1396.61 -5.01692 1.45265 0
M  V30 15108 H 1398.3 -2.78611 1.09618 0
M  V30 15109 H 1395.85 -1.33949 0.528562 0
M  V30 15110 H 1397.8 -4.10479 -0.953133 0
M  V30 15111 H 1396.53 -2.94771 -1.40634 0
M  V30 15112 H 1395.19 -3.61325 0.619656 0
M  V30 15113 H 1394.83 -4.7807 -1.56391 0
M  V30 15114 H 1394.53 -5.87296 -0.188921 0
M  V30 15115 H 1396.06 -6.00387 -1.11211 0
M  V30 15116 H 1397.47 -5.62117 1.12685 0
M  V30 15117 H 1395.87 -5.68715 1.91528 0
M  V30 15118 H 1396.94 -4.30809 2.22558 0
M  V30 15119 N 1398.28 -0.588812 -1.46187 0
M  V30 15120 C 1399.19 0.143253 -2.34162 0
M  V30 15121 C 1400.21 0.879779 -1.5012 0
M  V30 15122 O 1401.38 0.841592 -1.82973 0
M  V30 15123 C 1398.45 1.14017 -3.27416 0
M  V30 15124 C 1397.51 0.407651 -4.2736 0
M  V30 15125 C 1396.74 1.35708 -5.16158 0
M  V30 15126 O 1396.97 2.59394 -5.08007 0
M  V30 15127 O 1395.9 0.864343 -5.95662 0
M  V30 15128 H 1399.73 -0.579228 -2.98125 0
M  V30 15129 H 1397.31 -0.349174 -1.45262 0
M  V30 15130 H 1399.19 1.71484 -3.8493 0
M  V30 15131 H 1397.87 1.84401 -2.66041 0
M  V30 15132 H 1396.78 -0.209011 -3.73516 0
M  V30 15133 H 1398.11 -0.255334 -4.91537 0
M  V30 15134 N 1399.76 1.54172 -0.326923 0
M  V30 15135 C 1400.71 2.24454 0.537501 0
M  V30 15136 C 1401.68 1.23658 1.10896 0
M  V30 15137 O 1402.86 1.52348 1.14868 0
M  V30 15138 C 1400 3.00839 1.69085 0
M  V30 15139 C 1399.12 4.16459 1.1483 0
M  V30 15140 C 1398.25 4.80368 2.26761 0
M  V30 15141 C 1397.29 5.88085 1.69771 0
M  V30 15142 N 1396.43 6.45842 2.75378 0
M  V30 15143 H 1401.27 2.97921 -0.0684022 0
M  V30 15144 H 1398.8 1.4703 -0.0455287 0
M  V30 15145 H 1400.76 3.43375 2.36959 0
M  V30 15146 H 1399.39 2.297 2.26799 0
M  V30 15147 H 1398.44 3.78683 0.361004 0
M  V30 15148 H 1399.76 4.93986 0.69132 0
M  V30 15149 H 1398.91 5.25889 3.02533 0
M  V30 15150 H 1397.65 4.02228 2.75796 0
M  V30 15151 H 1396.65 5.41963 0.924985 0
M  V30 15152 H 1397.88 6.68123 1.21609 0
M  V30 15153 H 1395.82 5.70574 3.23699 0
M  V30 15154 H 1395.74 7.18792 2.34253 0
M  V30 15155 H 1397.01 6.96018 3.50969 0
M  V30 15156 N 1401.24 0.0551678 1.57503 0
M  V30 15157 C 1402.65 -0.479948 1.80426 0
M  V30 15158 C 1403 -1.70673 0.967733 0
M  V30 15159 O 1402.13 -2.15604 0.185462 0
M  V30 15160 C 1402.72 -0.877496 3.27239 0
M  V30 15161 C 1401.28 -1.35757 3.51066 0
M  V30 15162 C 1400.43 -0.334681 2.75273 0
M  V30 15163 H 1403.38 0.281016 1.56192 0
M  V30 15164 H 1403.4 -1.74013 3.38378 0
M  V30 15165 H 1402.91 0.015571 3.88097 0
M  V30 15166 H 1401.01 -2.26969 2.95492 0
M  V30 15167 H 1401.12 -1.34697 4.59776 0
M  V30 15168 H 1399.49 -0.808421 2.4153 0
M  V30 15169 H 1400.27 0.550369 3.3886 0
M  V30 15170 N 1402.72 -1.56081 -0.218252 0
M  V30 15171 C 1403.94 -1.83334 -0.958964 0
M  V30 15172 C 1404.36 -0.63472 -1.77811 0
M  V30 15173 O 1403.72 0.396729 -1.78136 0
M  V30 15174 C 1403.77 -3.09141 -1.87387 0
M  V30 15175 O 1403.49 -4.24379 -1.08783 0
M  V30 15176 C 1404.99 -3.49405 -2.7282 0
M  V30 15177 H 1402.21 -0.609375 -0.280898 0
M  V30 15178 H 1404.75 -2.03174 -0.232486 0
M  V30 15179 H 1402.91 -2.91267 -2.55426 0
M  V30 15180 H 1403.32 -4.9587 -1.70919 0
M  V30 15181 H 1404.8 -4.40461 -3.32713 0
M  V30 15182 H 1405.27 -2.71311 -3.45379 0
M  V30 15183 H 1405.88 -3.6973 -2.1019 0
M  V30 15184 N 1404.2 0.485086 -1.49949 0
M  V30 15185 C 1405.47 1.24639 -1.50747 0
M  V30 15186 C 1405.85 2.09683 -0.244162 0
M  V30 15187 O 1405.2 2.1503 0.772949 0
M  V30 15188 C 1405.41 2.08946 -2.7954 0
M  V30 15189 C 1406.76 2.67604 -3.29656 0
M  V30 15190 O 1407.78 2.192 -2.80766 0
M  V30 15191 O 1406.64 3.55761 -4.14845 0
M  V30 15192 H 1403.74 0.564849 -0.604049 0
M  V30 15193 H 1406.28 0.498052 -1.62227 0
M  V30 15194 H 1405.05 1.46185 -3.62968 0
M  V30 15195 H 1404.68 2.90941 -2.70997 0
M  V30 15196 N 1405.67 1.39291 0.737279 0
M  V30 15197 C 1406.92 1.36121 1.49384 0
M  V30 15198 C 1407.24 -0.0429406 1.94953 0
M  V30 15199 O 1406.51 -0.993756 1.68823 0
M  V30 15200 H 1405.09 0.500916 0.554159 0
M  V30 15201 H 1407.75 1.74134 0.875402 0
M  V30 15202 H 1406.85 2.02246 2.37704 0
M  V30 15203 N 1407.15 -0.967221 1.24429 0
M  V30 15204 C 1408.57 -1.23594 1.00979 0
M  V30 15205 C 1408.77 -1.99529 -0.281112 0
M  V30 15206 O 1407.82 -2.31977 -0.997139 0
M  V30 15207 C 1409.14 -2.02261 2.22511 0
M  V30 15208 C 1410.68 -2.15352 2.2714 0
M  V30 15209 C 1411.16 -2.97414 3.48294 0
M  V30 15210 N 1412.65 -3.04996 3.48614 0
M  V30 15211 C 1413.39 -3.68851 4.39017 0
M  V30 15212 N 1412.88 -4.34421 5.39676 0
M  V30 15213 N 1414.67 -3.65868 4.26728 0
M  V30 15214 H 1406.83 -0.458881 2.07384 0
M  V30 15215 H 1409.09 -0.265411 0.910088 0
M  V30 15216 H 1408.79 -1.53852 3.16263 0
M  V30 15217 H 1408.67 -3.02993 2.24667 0
M  V30 15218 H 1411.06 -2.62964 1.33919 0
M  V30 15219 H 1411.14 -1.13966 2.2901 0
M  V30 15220 H 1410.78 -2.50495 4.41831 0
M  V30 15221 H 1410.71 -3.98998 3.43668 0
M  V30 15222 H 1413.2 -2.58354 2.75793 0
M  V30 15223 H 1413.51 -4.80965 6.04891 0
M  V30 15224 H 1411.86 -4.33089 5.43562 0
M  V30 15225 H 1415.05 -3.13819 3.47325 0
M  V30 15226 H 1415.22 -4.15349 4.97382 0
M  V30 15227 N 1408.63 -1.05812 -1.16797 0
M  V30 15228 C 1409.54 -0.675541 -2.24663 0
M  V30 15229 C 1410.56 0.30622 -1.71284 0
M  V30 15230 O 1411.73 0.156752 -2.00789 0
M  V30 15231 C 1408.8 -0.0627149 -3.46643 0
M  V30 15232 C 1407.86 -1.09572 -4.15081 0
M  V30 15233 C 1407.09 -0.512044 -5.31238 0
M  V30 15234 O 1407.31 0.676665 -5.66372 0
M  V30 15235 O 1406.25 -1.24936 -5.88791 0
M  V30 15236 H 1410.07 -1.57467 -2.59688 0
M  V30 15237 H 1407.66 -0.830073 -1.24218 0
M  V30 15238 H 1409.54 0.277543 -4.20485 0
M  V30 15239 H 1408.22 0.80997 -3.13403 0
M  V30 15240 H 1407.12 -1.48807 -3.4323 0
M  V30 15241 H 1408.46 -1.93977 -4.52365 0
M  V30 15242 N 1410.11 1.33347 -0.840014 0
M  V30 15243 C 1411.35 1.98037 -0.43692 0
M  V30 15244 C 1411.69 1.66382 1.00154 0
M  V30 15245 O 1410.96 0.944311 1.70038 0
M  V30 15246 C 1411.24 3.54012 -0.65937 0
M  V30 15247 C 1411.1 3.9535 -2.14518 0
M  V30 15248 C 1412.42 4.39972 -0.106258 0
M  V30 15249 H 1409.54 0.719373 -0.160221 0
M  V30 15250 H 1412.18 1.57969 -1.05574 0
M  V30 15251 H 1410.33 3.88274 -0.132633 0
M  V30 15252 H 1412 3.7134 -2.73687 0
M  V30 15253 H 1410.24 3.4504 -2.62926 0
M  V30 15254 H 1410.91 5.03992 -2.25158 0
M  V30 15255 H 1413.39 4.12362 -0.556511 0
M  V30 15256 H 1412.27 5.48125 -0.291583 0
M  V30 15257 H 1412.53 4.30872 0.990032 0
M  V30 15258 N 1411.59 0.596556 1.45873 0
M  V30 15259 C 1412.83 0.0875879 2.02611 0
M  V30 15260 C 1413.16 -1.27438 1.46538 0
M  V30 15261 O 1412.44 -1.83815 0.635779 0
M  V30 15262 C 1412.72 0.0367394 3.60081 0
M  V30 15263 C 1412.58 1.42859 4.26511 0
M  V30 15264 C 1413.89 -0.656795 4.35171 0
M  V30 15265 H 1411.01 0.0333031 0.736247 0
M  V30 15266 H 1413.66 0.766413 1.73857 0
M  V30 15267 H 1411.81 -0.541345 3.8471 0
M  V30 15268 H 1413.48 2.0529 4.13102 0
M  V30 15269 H 1411.72 1.99243 3.85337 0
M  V30 15270 H 1412.39 1.34535 5.35354 0
M  V30 15271 H 1414.87 -0.165553 4.15771 0
M  V30 15272 H 1413.74 -0.661445 5.449 0
M  V30 15273 H 1414 -1.72079 4.07236 0
M  V30 15274 N 1413.06 -1.53996 0.335095 0
M  V30 15275 C 1414.3 -2.02682 -0.264447 0
M  V30 15276 C 1414.67 -1.21779 -1.48438 0
M  V30 15277 O 1415.87 -1.60322 -2.15755 0
M  V30 15278 C 1414.14 -3.52678 -0.579072 0
M  V30 15279 S 1415.7 -4.23282 -1.15663 0
M  V30 15280 H 1412.52 -0.706566 -0.0792826 0
M  V30 15281 H 1415.12 -1.89744 0.470895 0
M  V30 15282 H 1413.82 -4.09176 0.316756 0
M  V30 15283 H 1413.35 -3.69719 -1.34431 0
M  V30 15284 H 1415.37 -4.31903 -2.44284 0
M  V30 15285 N 1414.54 -0.0635198 -1.57472 0
M  V30 15286 C 1415.49 0.916528 -2.08767 0
M  V30 15287 C 1416.48 1.26405 -0.99552 0
M  V30 15288 O 1417.67 1.24441 -1.25871 0
M  V30 15289 C 1414.8 2.18704 -2.64619 0
M  V30 15290 C 1413.88 1.86637 -3.80825 0
M  V30 15291 N 1414.27 1.24982 -4.90115 0
M  V30 15292 C 1412.57 2.16435 -3.89964 0
M  V30 15293 C 1413.27 1.10821 -5.71046 0
M  V30 15294 N 1412.25 1.61519 -5.1905 0
M  V30 15295 H 1416.05 0.435376 -2.90657 0
M  V30 15296 H 1413.56 0.1406 -1.6179 0
M  V30 15297 H 1415.56 2.89825 -2.99678 0
M  V30 15298 H 1414.22 2.67415 -1.84172 0
M  V30 15299 H 1415.23 0.920491 -5.09654 0
M  V30 15300 H 1411.91 2.6758 -3.20479 0
M  V30 15301 H 1413.3 0.628547 -6.68954 0
M  V30 15302 N 1416.02 1.56195 0.209972 0
M  V30 15303 C 1416.98 1.92514 1.24383 0
M  V30 15304 C 1417.98 0.804793 1.39211 0
M  V30 15305 O 1419.17 1.0724 1.37278 0
M  V30 15306 C 1416.3 2.18613 2.61574 0
M  V30 15307 H 1417.5 2.84992 0.933781 0
M  V30 15308 H 1415.05 1.49656 0.450878 0
M  V30 15309 H 1415.79 1.28724 2.97659 0
M  V30 15310 H 1415.57 3.00241 2.52186 0
M  V30 15311 H 1417.06 2.47767 3.36156 0
M  V30 15312 N 1417.5 -0.477127 1.50204 0
M  V30 15313 C 1418.72 -1.25775 1.6491 0
M  V30 15314 C 1419.15 -1.85187 0.329765 0
M  V30 15315 O 1418.51 -1.67004 -0.705641 0
M  V30 15316 C 1418.55 -2.3466 2.73801 0
M  V30 15317 O 1417.66 -3.39147 2.34634 0
M  V30 15318 H 1417 -0.370291 0.551163 0
M  V30 15319 H 1419.53 -0.568514 1.96543 0
M  V30 15320 H 1419.54 -2.80065 2.96695 0
M  V30 15321 H 1418.21 -1.90788 3.69557 0
M  V30 15322 H 1416.79 -2.99496 2.22163 0
M  V30 15323 N 1418.98 -1.3968 -0.729882 0
M  V30 15324 C 1419.94 -1.38577 -1.82562 0
M  V30 15325 C 1420.94 -0.281994 -1.58308 0
M  V30 15326 O 1422.13 -0.540165 -1.65614 0
M  V30 15327 C 1419.26 -1.16343 -3.20433 0
M  V30 15328 H 1420.45 -2.36086 -1.84942 0
M  V30 15329 H 1418.01 -1.25319 -0.934063 0
M  V30 15330 H 1418.74 -0.195372 -3.23711 0
M  V30 15331 H 1418.53 -1.96282 -3.39435 0
M  V30 15332 H 1420.02 -1.18325 -4.00486 0
M  V30 15333 N 1420.45 0.960609 -1.2494 0
M  V30 15334 C 1421.7 1.70765 -1.10503 0
M  V30 15335 C 1422.06 1.89164 0.351384 0
M  V30 15336 O 1421.35 1.44718 1.25568 0
M  V30 15337 C 1421.54 3.09564 -1.78619 0
M  V30 15338 C 1421.37 3.04705 -3.30734 0
M  V30 15339 C 1420.14 3.08793 -3.99969 0
M  V30 15340 C 1422.34 2.86333 -4.27221 0
M  V30 15341 N 1420.32 2.94028 -5.38907 0
M  V30 15342 C 1421.69 2.79938 -5.53204 0
M  V30 15343 C 1423.75 2.70967 -4.17709 0
M  V30 15344 C 1422.45 2.59747 -6.70764 0
M  V30 15345 C 1424.48 2.52146 -5.34954 0
M  V30 15346 C 1423.84 2.46466 -6.59874 0
M  V30 15347 H 1419.94 0.633102 -0.459027 0
M  V30 15348 H 1422.52 1.13833 -1.57956 0
M  V30 15349 H 1420.69 3.64674 -1.33669 0
M  V30 15350 H 1422.42 3.73015 -1.56978 0
M  V30 15351 H 1419.18 3.17751 -3.51185 0
M  V30 15352 H 1419.6 2.89867 -6.11806 0
M  V30 15353 H 1424.25 2.74137 -3.21883 0
M  V30 15354 H 1421.96 2.5532 -7.66705 0
M  V30 15355 H 1425.55 2.41191 -5.29451 0
M  V30 15356 H 1424.43 2.32091 -7.49068 0
M  V30 15357 N 1421.93 1.0643 1.16234 0
M  V30 15358 C 1423.21 0.695256 1.82827 0
M  V30 15359 C 1423.59 -0.823242 1.94386 0
M  V30 15360 O 1422.94 -1.73406 1.48804 0
M  V30 15361 C 1423.15 1.3988 3.19741 0
M  V30 15362 C 1424.5 1.54489 3.95498 0
M  V30 15363 O 1425.52 1.35882 3.29264 0
M  V30 15364 O 1424.38 1.85027 5.14225 0
M  V30 15365 H 1421.47 0.246285 0.789476 0
M  V30 15366 H 1424.02 1.16466 1.23426 0
M  V30 15367 H 1422.79 2.43419 3.06371 0
M  V30 15368 H 1422.41 0.91957 3.8682 0
M  V30 15369 N 1423.41 -1.329 0.847073 0
M  V30 15370 C 1424.66 -1.9751 0.446755 0
M  V30 15371 C 1424.99 -1.67069 -0.995905 0
M  V30 15372 O 1424.24 -0.947232 -1.71248 0
M  V30 15373 C 1424.54 -3.51913 0.623845 0
M  V30 15374 C 1424.21 -4.02324 2.03583 0
M  V30 15375 C 1422.87 -4.15802 2.42203 0
M  V30 15376 C 1425.22 -4.29147 2.95774 0
M  V30 15377 C 1422.55 -4.53441 3.72301 0
M  V30 15378 C 1424.9 -4.68242 4.25362 0
M  V30 15379 C 1423.56 -4.79925 4.63927 0
M  V30 15380 H 1422.83 -0.722742 0.163479 0
M  V30 15381 H 1425.48 -1.58435 1.07567 0
M  V30 15382 H 1423.79 -3.917 -0.0883447 0
M  V30 15383 H 1425.48 -3.99919 0.294268 0
M  V30 15384 H 1422.07 -3.92314 1.72591 0
M  V30 15385 H 1426.26 -4.1825 2.67171 0
M  V30 15386 H 1421.51 -4.60681 4.01974 0
M  V30 15387 H 1425.69 -4.87952 4.96866 0
M  V30 15388 H 1423.31 -5.08847 5.64782 0
M  V30 15389 N 1424.89 -0.604284 -1.45555 0
M  V30 15390 C 1426.12 -0.104301 -2.06337 0
M  V30 15391 C 1426.53 1.21523 -1.45013 0
M  V30 15392 O 1425.87 1.75039 -0.557422 0
M  V30 15393 C 1425.93 0.113202 -3.59322 0
M  V30 15394 C 1425.6 -1.12402 -4.42961 0
M  V30 15395 C 1426.59 -2.04136 -4.78147 0
M  V30 15396 C 1424.28 -1.35192 -4.83765 0
M  V30 15397 C 1426.27 -3.16991 -5.52988 0
M  V30 15398 C 1423.96 -2.48348 -5.5836 0
M  V30 15399 C 1424.96 -3.39076 -5.92888 0
M  V30 15400 O 1424.64 -4.50264 -6.65971 0
M  V30 15401 H 1424.38 -0.0644639 -0.672919 0
M  V30 15402 H 1426.93 -0.830982 -1.8784 0
M  V30 15403 H 1425.16 0.894739 -3.76206 0
M  V30 15404 H 1426.85 0.564372 -4.01957 0
M  V30 15405 H 1427.62 -1.87753 -4.47184 0
M  V30 15406 H 1423.49 -0.654731 -4.56327 0
M  V30 15407 H 1427.04 -3.87831 -5.79856 0
M  V30 15408 H 1422.94 -2.64686 -5.88737 0
M  V30 15409 H 1423.7 -4.48904 -6.84418 0
M  V30 15410 N 1426.37 1.53816 -0.343257 0
M  V30 15411 C 1427.31 2.26505 0.529002 0
M  V30 15412 C 1428.31 1.28639 1.1022 0
M  V30 15413 O 1429.51 1.46348 1.04797 0
M  V30 15414 H 1425.89 0.727789 0.189279 0
M  V30 15415 H 1427.86 2.98211 -0.106096 0
M  V30 15416 C 1426.61 3.05062 1.6683 0
M  V30 15417 H 1425.93 3.80198 1.23651 0
M  V30 15418 H 1427.37 3.59138 2.2538 0
M  V30 15419 C 1425.83 2.14543 2.59756 0
M  V30 15420 O 1426.36 1.74132 3.61996 0
M  V30 15421 N 1424.57 1.79628 2.28434 0
M  V30 15422 H 1424.11 2.12688 1.45332 0
M  V30 15423 H 1424.07 1.19345 2.90868 0
M  V30 15424 N 1427.84 0.0718701 1.57436 0
M  V30 15425 C 1429.09 -0.596052 1.9311 0
M  V30 15426 C 1429.41 -1.70146 0.952652 0
M  V30 15427 O 1428.68 -1.959 0.000812941 0
M  V30 15428 H 1427.26 -0.223165 0.712886 0
M  V30 15429 H 1429.93 0.129744 1.94468 0
M  V30 15430 H 1429.02 -1.02132 2.94916 0
M  V30 15431 N 1429.32 -1.56304 -0.201686 0
M  V30 15432 C 1430.27 -1.94021 -1.24999 0
M  V30 15433 C 1431.24 -0.799926 -1.45569 0
M  V30 15434 O 1432.42 -1.05752 -1.58811 0
M  V30 15435 C 1429.56 -2.27935 -2.59113 0
M  V30 15436 C 1428.68 -3.54995 -2.46176 0
M  V30 15437 C 1427.81 -3.78262 -3.72949 0
M  V30 15438 C 1426.85 -4.9877 -3.54817 0
M  V30 15439 N 1425.99 -5.18325 -4.73586 0
M  V30 15440 H 1430.83 -2.834 -0.92134 0
M  V30 15441 H 1428.37 -1.40252 -0.44359 0
M  V30 15442 H 1430.32 -2.45613 -3.37239 0
M  V30 15443 H 1428.95 -1.41705 -2.90034 0
M  V30 15444 H 1428.01 -3.45401 -1.59381 0
M  V30 15445 H 1429.32 -4.43277 -2.28708 0
M  V30 15446 H 1428.47 -3.96144 -4.59516 0
M  V30 15447 H 1427.21 -2.88299 -3.93364 0
M  V30 15448 H 1426.22 -4.80818 -2.66635 0
M  V30 15449 H 1427.44 -5.90237 -3.35854 0
M  V30 15450 H 1425.39 -4.31308 -4.94277 0
M  V30 15451 H 1425.3 -6.00774 -4.58919 0
M  V30 15452 H 1426.57 -5.40659 -5.61523 0
M  V30 15453 N 1430.8 0.469154 -1.50455 0
M  V30 15454 C 1432.08 1.23033 -1.5206 0
M  V30 15455 C 1432.46 2.09412 -0.266388 0
M  V30 15456 O 1431.81 2.15837 0.750099 0
M  V30 15457 C 1432.02 2.05969 -2.81741 0
M  V30 15458 C 1433.36 2.64093 -3.32476 0
M  V30 15459 O 1434.39 2.1621 -2.83075 0
M  V30 15460 O 1433.25 3.51341 -4.18595 0
M  V30 15461 H 1430.34 0.55841 -0.610006 0
M  V30 15462 H 1432.89 0.480818 -1.62746 0
M  V30 15463 H 1431.66 1.42327 -3.64498 0
M  V30 15464 H 1431.28 2.8805 -2.74067 0
M  V30 15465 N 1432.28 1.40065 0.722464 0
M  V30 15466 C 1433.53 1.3797 1.48224 0
M  V30 15467 C 1433.85 -0.0202588 1.94489 0
M  V30 15468 O 1433.11 -1.0035 1.68013 0
M  V30 15469 C 1433.41 2.30949 2.72759 0
M  V30 15470 C 1433.07 3.7834 2.45295 0
M  V30 15471 C 1431.74 4.18497 2.37515 0
M  V30 15472 C 1434.09 4.71509 2.221 0
M  V30 15473 C 1431.42 5.4987 2.04598 0
M  V30 15474 C 1433.77 6.03173 1.90697 0
M  V30 15475 C 1432.43 6.4238 1.81394 0
M  V30 15476 H 1431.7 0.504869 0.542392 0
M  V30 15477 H 1434.35 1.72667 0.828149 0
M  V30 15478 H 1432.65 1.89413 3.42972 0
M  V30 15479 H 1434.35 2.26615 3.30827 0
M  V30 15480 H 1430.94 3.46519 2.52235 0
M  V30 15481 H 1435.12 4.41308 2.27071 0
M  V30 15482 H 1430.38 5.79157 1.95928 0
M  V30 15483 H 1434.55 6.74886 1.71761 0
M  V30 15484 H 1432.18 7.44094 1.55654 0
M  V30 15485 N 1433.76 -0.95397 1.25448 0
M  V30 15486 C 1435.17 -1.22516 1.02284 0
M  V30 15487 C 1435.37 -1.99816 -0.259933 0
M  V30 15488 O 1434.43 -2.33022 -0.972479 0
M  V30 15489 C 1435.74 -1.9989 2.24643 0
M  V30 15490 C 1437.29 -2.1293 2.29412 0
M  V30 15491 C 1437.77 -2.93703 3.51429 0
M  V30 15492 N 1439.26 -3.01281 3.51829 0
M  V30 15493 C 1439.99 -3.64174 4.42905 0
M  V30 15494 N 1439.49 -4.28673 5.44253 0
M  V30 15495 N 1441.28 -3.61321 4.30585 0
M  V30 15496 H 1433.43 -0.436859 2.07859 0
M  V30 15497 H 1435.69 -0.255744 0.912852 0
M  V30 15498 H 1435.4 -1.50489 3.17877 0
M  V30 15499 H 1435.27 -3.00593 2.27868 0
M  V30 15500 H 1437.66 -2.61528 1.367 0
M  V30 15501 H 1437.74 -1.1153 2.30206 0
M  V30 15502 H 1437.39 -2.45795 4.44463 0
M  V30 15503 H 1437.32 -3.95331 3.47881 0
M  V30 15504 H 1439.81 -2.55414 2.78517 0
M  V30 15505 H 1440.12 -4.74522 6.09958 0
M  V30 15506 H 1438.47 -4.27299 5.48125 0
M  V30 15507 H 1441.66 -3.10118 3.50634 0
M  V30 15508 H 1441.83 -4.1005 5.0176 0
M  V30 15509 N 1435.24 -1.07045 -1.15668 0
M  V30 15510 C 1436.48 -0.786751 -1.85723 0
M  V30 15511 C 1436.8 0.689604 -1.83041 0
M  V30 15512 O 1438 1.08796 -2.48748 0
M  V30 15513 C 1436.46 -1.35729 -3.33325 0
M  V30 15514 C 1436.07 -2.86444 -3.44462 0
M  V30 15515 C 1437.81 -1.15148 -4.08584 0
M  V30 15516 C 1435.72 -3.36705 -4.86193 0
M  V30 15517 H 1434.65 -0.29063 -0.695737 0
M  V30 15518 H 1437.3 -1.29012 -1.30492 0
M  V30 15519 H 1435.68 -0.781671 -3.88209 0
M  V30 15520 H 1436.86 -3.50023 -2.997 0
M  V30 15521 H 1435.17 -3.0578 -2.82644 0
M  V30 15522 H 1437.77 -1.50179 -5.13177 0
M  V30 15523 H 1438.11 -0.0903159 -4.16202 0
M  V30 15524 H 1438.64 -1.6933 -3.59962 0
M  V30 15525 H 1435.38 -4.42333 -4.83758 0
M  V30 15526 H 1434.9 -2.77877 -5.31549 0
M  V30 15527 H 1436.58 -3.32478 -5.55038 0
M  V30 15528 N 1436.71 1.32449 -0.85411 0
M  V30 15529 C 1437.66 2.2889 -0.296341 0
M  V30 15530 C 1438.63 1.55024 0.596378 0
M  V30 15531 O 1439.82 1.8325 0.531406 0
M  V30 15532 C 1436.96 3.41315 0.509729 0
M  V30 15533 C 1436.07 4.30062 -0.40872 0
M  V30 15534 C 1435.2 5.29616 0.409928 0
M  V30 15535 C 1434.24 6.10005 -0.505953 0
M  V30 15536 N 1433.38 7.01559 0.275483 0
M  V30 15537 H 1438.22 2.75989 -1.12401 0
M  V30 15538 H 1435.76 1.35787 -0.565717 0
M  V30 15539 H 1437.71 4.05218 0.992697 0
M  V30 15540 H 1436.34 2.95367 1.30223 0
M  V30 15541 H 1435.4 3.66745 -1.01007 0
M  V30 15542 H 1436.71 4.86255 -1.11165 0
M  V30 15543 H 1435.86 5.99119 0.956083 0
M  V30 15544 H 1434.6 4.74039 1.14623 0
M  V30 15545 H 1433.61 5.39406 -1.064 0
M  V30 15546 H 1434.83 6.67667 -1.24086 0
M  V30 15547 H 1432.78 6.48412 0.994887 0
M  V30 15548 H 1432.69 7.55102 -0.368426 0
M  V30 15549 H 1433.96 7.75349 0.803382 0
M  V30 15550 N 1438.19 0.611994 1.45232 0
M  V30 15551 C 1439.12 -0.142449 2.28757 0
M  V30 15552 C 1440.14 -0.827486 1.40202 0
M  V30 15553 O 1441.33 -0.692136 1.64535 0
M  V30 15554 C 1438.43 -1.22296 3.16065 0
M  V30 15555 C 1437.6 -0.624178 4.32924 0
M  V30 15556 C 1436.66 -1.59615 5.01408 0
M  V30 15557 O 1435.68 -1.12073 5.58058 0
M  V30 15558 N 1436.89 -2.93057 5.01097 0
M  V30 15559 H 1439.65 0.574276 2.94147 0
M  V30 15560 H 1437.21 0.451789 1.55469 0
M  V30 15561 H 1439.2 -1.87309 3.58744 0
M  V30 15562 H 1437.77 -1.84215 2.52554 0
M  V30 15563 H 1436.99 0.204141 3.93671 0
M  V30 15564 H 1438.28 -0.204435 5.08389 0
M  V30 15565 H 1437.68 -3.3428 4.5637 0
M  V30 15566 H 1436.24 -3.53481 5.47626 0
M  V30 15567 N 1439.67 -1.53632 0.351409 0
M  V30 15568 C 1440.91 -2.02951 -0.242935 0
M  V30 15569 C 1441.27 -1.23346 -1.47138 0
M  V30 15570 O 1442.47 -1.62602 -2.14042 0
M  V30 15571 C 1440.75 -3.53272 -0.541633 0
M  V30 15572 S 1442.3 -4.24485 -1.11167 0
M  V30 15573 H 1439.12 -0.707367 -0.071784 0
M  V30 15574 H 1441.72 -1.89234 0.490993 0
M  V30 15575 H 1440.43 -4.08817 0.360137 0
M  V30 15576 H 1439.96 -3.71124 -1.30502 0
M  V30 15577 H 1441.97 -4.34469 -2.39689 0
M  V30 15578 N 1441.15 -0.0802183 -1.57396 0
M  V30 15579 C 1442.38 0.595754 -1.98137 0
M  V30 15580 C 1442.79 1.62638 -0.958871 0
M  V30 15581 O 1442.15 1.82422 0.0534316 0
M  V30 15582 C 1442.2 1.2568 -3.38949 0
M  V30 15583 O 1441.92 0.267417 -4.37283 0
M  V30 15584 C 1443.42 2.0198 -3.94612 0
M  V30 15585 H 1440.64 0.160853 -0.651435 0
M  V30 15586 H 1443.18 -0.155111 -2.03911 0
M  V30 15587 H 1441.34 1.9587 -3.34236 0
M  V30 15588 H 1441.75 0.742695 -5.19215 0
M  V30 15589 H 1443.23 2.43613 -4.95335 0
M  V30 15590 H 1443.7 2.87973 -3.31614 0
M  V30 15591 H 1444.31 1.36639 -4.02753 0
M  V30 15592 N 1442.63 1.56409 0.193394 0
M  V30 15593 C 1443.85 1.84837 0.929676 0
M  V30 15594 C 1444.27 0.662928 1.76779 0
M  V30 15595 O 1443.63 -0.368339 1.78744 0
M  V30 15596 C 1443.68 3.12083 1.82445 0
M  V30 15597 O 1443.4 4.26056 1.02018 0
M  V30 15598 C 1444.9 3.53701 2.67227 0
M  V30 15599 H 1442.12 0.613766 0.271168 0
M  V30 15600 H 1444.66 2.03518 0.200134 0
M  V30 15601 H 1442.82 2.95294 2.5076 0
M  V30 15602 H 1443.23 4.98526 1.63008 0
M  V30 15603 H 1444.71 4.45699 3.25663 0
M  V30 15604 H 1445.18 2.76771 3.41019 0
M  V30 15605 H 1445.79 3.73027 2.04281 0
M  V30 15606 N 1444.1 -0.461169 1.50702 0
M  V30 15607 C 1445.35 -1.21431 1.62427 0
M  V30 15608 C 1445.68 -1.91406 0.328228 0
M  V30 15609 O 1444.96 -1.82563 -0.670898 0
M  V30 15610 C 1445.24 -2.25016 2.8114 0
M  V30 15611 C 1445.09 -1.5928 4.20654 0
M  V30 15612 C 1446.41 -3.26234 2.95397 0
M  V30 15613 H 1443.53 -0.440113 0.59116 0
M  V30 15614 H 1446.17 -0.506726 1.83118 0
M  V30 15615 H 1444.32 -2.85363 2.63629 0
M  V30 15616 H 1446 -1.02454 4.49779 0
M  V30 15617 H 1444.24 -0.895665 4.24453 0
M  V30 15618 H 1444.91 -2.34602 4.99666 0
M  V30 15619 H 1447.39 -2.7592 3.1146 0
M  V30 15620 H 1446.26 -3.96031 3.80067 0
M  V30 15621 H 1446.52 -3.90943 2.06436 0
M  V30 15622 N 1445.58 -1.40446 -0.715026 0
M  V30 15623 C 1446.53 -1.40931 -1.85044 0
M  V30 15624 C 1447.52 -0.289745 -1.66904 0
M  V30 15625 O 1448.73 -0.460809 -1.74002 0
M  V30 15626 H 1445.1 -0.440534 -0.609454 0
M  V30 15627 H 1447.08 -2.36662 -1.81752 0
M  V30 15628 C 1445.82 -1.28933 -3.22911 0
M  V30 15629 H 1445.15 -2.14359 -3.37476 0
M  V30 15630 H 1446.59 -1.33331 -4.02491 0
M  V30 15631 C 1445.05 0.000379936 -3.369 0
M  V30 15632 O 1445.58 0.963093 -3.89984 0
M  V30 15633 N 1443.78 0.0700649 -2.90516 0
M  V30 15634 H 1443.33 -0.714088 -2.47505 0
M  V30 15635 H 1443.29 0.932457 -3.00254 0
M  V30 15636 N 1447.06 0.947303 -1.25952 0
M  V30 15637 C 1447.99 2.0625 -1.09467 0
M  V30 15638 C 1448.97 1.701 -0.00160498 0
M  V30 15639 O 1450.16 1.93432 -0.172501 0
M  V30 15640 C 1447.29 3.39746 -0.720392 0
M  V30 15641 C 1446.24 3.89935 -1.76451 0
M  V30 15642 C 1445.57 5.2001 -1.24472 0
M  V30 15643 C 1446.87 4.15496 -3.16481 0
M  V30 15644 H 1448.56 2.203 -2.02752 0
M  V30 15645 H 1446.11 1.05858 -0.97622 0
M  V30 15646 H 1448.06 4.17221 -0.591972 0
M  V30 15647 H 1446.78 3.25656 0.248161 0
M  V30 15648 H 1445.44 3.14635 -1.8815 0
M  V30 15649 H 1445.09 5.02295 -0.266182 0
M  V30 15650 H 1444.79 5.54559 -1.94263 0
M  V30 15651 H 1446.31 6.00075 -1.12884 0
M  V30 15652 H 1447.73 4.83605 -3.07894 0
M  V30 15653 H 1446.12 4.61315 -3.83808 0
M  V30 15654 H 1447.19 3.21501 -3.62995 0
M  V30 15655 N 1448.54 1.07657 1.15099 0
M  V30 15656 C 1449.45 0.711198 2.2356 0
M  V30 15657 C 1450.46 -0.278932 1.7175 0
M  V30 15658 O 1451.64 -0.124788 2.01013 0
M  V30 15659 C 1448.71 0.117855 3.465 0
M  V30 15660 C 1447.77 1.16162 4.13286 0
M  V30 15661 C 1447 0.596494 5.30356 0
M  V30 15662 O 1447.22 -0.586474 5.67377 0
M  V30 15663 O 1446.16 1.34288 5.86729 0
M  V30 15664 H 1449.98 1.61578 2.5715 0
M  V30 15665 H 1447.57 0.84973 1.22882 0
M  V30 15666 H 1449.45 -0.210613 4.20873 0
M  V30 15667 H 1448.12 -0.760008 3.14652 0
M  V30 15668 H 1447.03 1.54249 3.4082 0
M  V30 15669 H 1448.36 2.01149 4.49221 0
M  V30 15670 N 1450.02 -1.31994 0.861122 0
M  V30 15671 C 1451.29 -1.91699 0.388705 0
M  V30 15672 C 1451.67 -1.78412 -1.12838 0
M  V30 15673 O 1451.02 -1.18625 -1.95296 0
M  V30 15674 C 1451.23 -3.38232 0.860248 0
M  V30 15675 C 1452.58 -4.15355 0.881201 0
M  V30 15676 O 1453.6 -3.46977 0.805313 0
M  V30 15677 O 1452.46 -5.37468 0.98945 0
M  V30 15678 H 1449.56 -0.819017 0.114629 0
M  V30 15679 H 1452.1 -1.40721 0.94845 0
M  V30 15680 H 1450.87 -3.41876 1.9036 0
M  V30 15681 H 1450.5 -3.96625 0.278316 0
M  V30 15682 N 1451.49 -0.619688 -1.44906 0
M  V30 15683 C 1452.42 0.0791121 -2.33366 0
M  V30 15684 C 1453.41 0.846503 -1.47541 0
M  V30 15685 O 1454.59 0.814657 -1.76287 0
M  V30 15686 C 1451.72 1.06901 -3.30438 0
M  V30 15687 C 1450.67 0.41403 -4.25993 0
M  V30 15688 C 1450 1.51303 -5.12846 0
M  V30 15689 C 1451.3 -0.672483 -5.17953 0
M  V30 15690 H 1452.99 -0.659551 -2.92045 0
M  V30 15691 H 1450.54 -0.318623 -1.40431 0
M  V30 15692 H 1452.49 1.56653 -3.912 0
M  V30 15693 H 1451.22 1.83842 -2.69944 0
M  V30 15694 H 1449.88 -0.0627315 -3.66546 0
M  V30 15695 H 1449.52 2.27303 -4.48712 0
M  V30 15696 H 1449.22 1.08022 -5.77586 0
M  V30 15697 H 1450.75 2.01258 -5.76479 0
M  V30 15698 H 1452.16 -0.258542 -5.72717 0
M  V30 15699 H 1450.56 -1.02776 -5.91234 0
M  V30 15700 H 1451.63 -1.54425 -4.59653 0
M  V30 15701 N 1452.97 1.53444 -0.359552 0
M  V30 15702 C 1454.22 2.01464 0.232366 0
M  V30 15703 C 1454.55 1.24656 1.48911 0
M  V30 15704 O 1453.83 0.338574 1.9153 0
M  V30 15705 C 1454.11 3.56172 0.530403 0
M  V30 15706 C 1453.96 4.43678 -0.739556 0
M  V30 15707 C 1455.28 4.19412 1.33347 0
M  V30 15708 H 1452.4 0.732314 0.0829802 0
M  V30 15709 H 1455.04 1.83752 -0.483253 0
M  V30 15710 H 1453.19 3.71396 1.14004 0
M  V30 15711 H 1454.86 4.40263 -1.37719 0
M  V30 15712 H 1453.11 4.11892 -1.36117 0
M  V30 15713 H 1453.78 5.49856 -0.486062 0
M  V30 15714 H 1456.25 4.07984 0.817816 0
M  V30 15715 H 1455.13 5.277 1.51075 0
M  V30 15716 H 1455.39 3.7508 2.34024 0
M  V30 15717 N 1454.45 0.0885642 1.57351 0
M  V30 15718 C 1455.7 -0.57753 1.94403 0
M  V30 15719 C 1456.03 -1.68238 0.970029 0
M  V30 15720 O 1455.3 -1.945 0.00198684 0
M  V30 15721 C 1455.59 -1.13882 3.41618 0
M  V30 15722 C 1455.44 -0.0394686 4.49783 0
M  V30 15723 C 1456.76 -2.03922 3.90005 0
M  V30 15724 H 1453.88 -0.208468 0.706902 0
M  V30 15725 H 1456.52 0.157945 1.89342 0
M  V30 15726 H 1454.67 -1.76561 3.46061 0
M  V30 15727 H 1456.34 0.594458 4.57454 0
M  V30 15728 H 1454.59 0.627775 4.29234 0
M  V30 15729 H 1455.26 -0.472897 5.49971 0
M  V30 15730 H 1457.73 -1.51156 3.87674 0
M  V30 15731 H 1456.61 -2.40123 4.93591 0
M  V30 15732 H 1456.87 -2.95407 3.28918 0
M  V30 15733 N 1455.93 -1.56509 -0.185096 0
M  V30 15734 C 1456.89 -1.94468 -1.21305 0
M  V30 15735 C 1457.89 -0.826838 -1.37913 0
M  V30 15736 O 1459.08 -1.09411 -1.35554 0
M  V30 15737 C 1456.21 -2.22747 -2.58063 0
M  V30 15738 H 1457.41 -2.86442 -0.888323 0
M  V30 15739 H 1454.96 -1.50354 -0.427012 0
M  V30 15740 H 1455.69 -1.33443 -2.95573 0
M  V30 15741 H 1455.48 -3.04215 -2.47378 0
M  V30 15742 H 1456.97 -2.53084 -3.32172 0
M  V30 15743 N 1457.41 0.45317 -1.50944 0
M  V30 15744 C 1458.36 1.54689 -1.67498 0
M  V30 15745 C 1459.34 1.51949 -0.529193 0
M  V30 15746 O 1460.53 1.58669 -0.784415 0
M  V30 15747 C 1457.66 2.93006 -1.78892 0
M  V30 15748 C 1456.75 3.00562 -2.99204 0
M  V30 15749 N 1457.14 2.77893 -4.22621 0
M  V30 15750 C 1455.44 3.31712 -2.98132 0
M  V30 15751 C 1456.14 2.90882 -5.03749 0
M  V30 15752 N 1455.11 3.21866 -4.38068 0
M  V30 15753 H 1458.92 1.35889 -2.60598 0
M  V30 15754 H 1456.43 0.660219 -1.48374 0
M  V30 15755 H 1458.43 3.71669 -1.88858 0
M  V30 15756 H 1457.09 3.12838 -0.869626 0
M  V30 15757 H 1458.1 2.53126 -4.51827 0
M  V30 15758 H 1454.77 3.57419 -2.15773 0
M  V30 15759 H 1456.16 2.77444 -6.11943 0
M  V30 15760 N 1458.88 1.40823 0.707568 0
M  V30 15761 C 1459.83 1.38198 1.81343 0
M  V30 15762 C 1460.82 0.258234 1.58814 0
M  V30 15763 O 1462.01 0.497972 1.69851 0
M  V30 15764 C 1459.14 1.25483 3.19545 0
M  V30 15765 C 1458.23 2.42672 3.47809 0
M  V30 15766 N 1458.62 3.6815 3.46842 0
M  V30 15767 C 1456.91 2.36225 3.78304 0
M  V30 15768 C 1457.62 4.45805 3.73675 0
M  V30 15769 N 1456.59 3.75753 3.92824 0
M  V30 15770 H 1460.39 2.33147 1.7894 0
M  V30 15771 H 1457.91 1.34709 0.907044 0
M  V30 15772 H 1459.9 1.21684 3.98746 0
M  V30 15773 H 1458.56 0.315081 3.23168 0
M  V30 15774 H 1459.58 4.01201 3.27503 0
M  V30 15775 H 1456.25 1.50659 3.89369 0
M  V30 15776 H 1457.64 5.54692 3.79165 0
M  V30 15777 N 1460.36 -0.94061 1.26453 0
M  V30 15778 C 1461.27 -2.07298 1.09839 0
M  V30 15779 C 1462.29 -1.73971 0.0317477 0
M  V30 15780 O 1463.46 -2.00017 0.235594 0
M  V30 15781 C 1460.53 -3.38847 0.733736 0
M  V30 15782 C 1459.59 -3.85954 1.87985 0
M  V30 15783 C 1458.82 -5.11224 1.5325 0
M  V30 15784 O 1459.05 -5.68743 0.434491 0
M  V30 15785 O 1457.98 -5.53386 2.36743 0
M  V30 15786 H 1461.81 -2.24222 2.04837 0
M  V30 15787 H 1459.39 -1.05763 1.0552 0
M  V30 15788 H 1461.27 -4.17885 0.543131 0
M  V30 15789 H 1459.95 -3.2316 -0.186843 0
M  V30 15790 H 1458.86 -3.07858 2.12542 0
M  V30 15791 H 1460.19 -4.06162 2.78017 0
M  V30 15792 N 1461.84 -1.08266 -1.14527 0
M  V30 15793 C 1462.77 -0.655392 -2.18586 0
M  V30 15794 C 1463.75 0.332109 -1.59172 0
M  V30 15795 O 1464.94 0.236315 -1.87013 0
M  V30 15796 C 1462.06 0.0362295 -3.38681 0
M  V30 15797 C 1461.11 -0.91119 -4.16653 0
M  V30 15798 S 1461.94 -2.4171 -4.77846 0
M  V30 15799 C 1463.1 -1.73755 -6.01299 0
M  V30 15800 H 1463.33 -1.53694 -2.54491 0
M  V30 15801 H 1460.86 -0.897499 -1.25636 0
M  V30 15802 H 1462.82 0.428996 -4.08252 0
M  V30 15803 H 1461.48 0.894253 -3.01101 0
M  V30 15804 H 1460.68 -0.374143 -5.02609 0
M  V30 15805 H 1460.28 -1.24478 -3.52677 0
M  V30 15806 H 1462.57 -1.05465 -6.69241 0
M  V30 15807 H 1463.51 -2.5758 -6.59589 0
M  V30 15808 H 1463.92 -1.21153 -5.51346 0
M  V30 15809 N 1463.32 1.31536 -0.86811 0
M  V30 15810 C 1464.57 1.96386 -0.477176 0
M  V30 15811 C 1464.89 1.68968 0.973381 0
M  V30 15812 O 1464.16 1.00409 1.68211 0
M  V30 15813 H 1462.74 0.726579 -0.173468 0
M  V30 15814 H 1465.4 1.60377 -1.10749 0
M  V30 15815 H 1464.5 3.05606 -0.633376 0
M  V30 15816 N 1464.8 0.627364 1.44575 0
M  V30 15817 C 1465.75 -0.101618 2.27773 0
M  V30 15818 C 1466.73 -0.819759 1.38451 0
M  V30 15819 O 1467.92 -0.706487 1.62289 0
M  V30 15820 C 1465.05 -1.08507 3.25701 0
M  V30 15821 C 1464.14 -0.366745 4.22511 0
M  V30 15822 N 1464.53 0.602571 5.02198 0
M  V30 15823 C 1462.83 -0.611691 4.41785 0
M  V30 15824 C 1463.53 1.02662 5.72569 0
M  V30 15825 N 1462.5 0.366195 5.42365 0
M  V30 15826 H 1466.31 0.642569 2.8679 0
M  V30 15827 H 1463.82 0.452571 1.55967 0
M  V30 15828 H 1465.82 -1.62189 3.84058 0
M  V30 15829 H 1464.48 -1.8296 2.68246 0
M  V30 15830 H 1465.49 0.980215 5.08539 0
M  V30 15831 H 1462.17 -1.33938 3.95432 0
M  V30 15832 H 1463.56 1.82721 6.46578 0
M  V30 15833 N 1466.28 -1.53251 0.367684 0
M  V30 15834 C 1467.52 -2.00469 -0.222481 0
M  V30 15835 C 1467.84 -1.259 -1.49695 0
M  V30 15836 O 1469.04 -1.63717 -2.16585 0
M  V30 15837 C 1467.5 -3.57113 -0.447018 0
M  V30 15838 C 1467.11 -4.40562 0.812946 0
M  V30 15839 C 1468.85 -4.12681 -0.994725 0
M  V30 15840 C 1466.76 -5.88763 0.557877 0
M  V30 15841 H 1465.69 -0.748974 -0.0869144 0
M  V30 15842 H 1468.34 -1.76927 0.48675 0
M  V30 15843 H 1466.72 -3.76818 -1.21756 0
M  V30 15844 H 1467.9 -4.3263 1.58644 0
M  V30 15845 H 1466.21 -3.96108 1.28403 0
M  V30 15846 H 1468.81 -5.2104 -1.20091 0
M  V30 15847 H 1469.15 -3.67408 -1.95748 0
M  V30 15848 H 1469.68 -3.96783 -0.284295 0
M  V30 15849 H 1466.42 -6.38317 1.49102 0
M  V30 15850 H 1465.94 -5.99539 -0.177082 0
M  V30 15851 H 1467.62 -6.46738 0.18419 0
M  V30 15852 N 1467.75 -0.0969077 -1.57302 0
M  V30 15853 C 1468.69 0.891431 -2.11154 0
M  V30 15854 C 1469.7 1.24482 -1.04919 0
M  V30 15855 O 1470.89 1.19762 -1.3236 0
M  V30 15856 C 1467.99 2.19998 -2.57787 0
M  V30 15857 C 1467.16 2.02165 -3.87876 0
M  V30 15858 C 1466.22 3.16549 -4.20337 0
M  V30 15859 O 1465.25 2.90432 -4.89528 0
M  V30 15860 N 1466.45 4.42369 -3.75885 0
M  V30 15861 H 1469.21 0.431477 -2.96578 0
M  V30 15862 H 1466.77 0.0881458 -1.6166 0
M  V30 15863 H 1468.77 2.95472 -2.76547 0
M  V30 15864 H 1467.34 2.57412 -1.77364 0
M  V30 15865 H 1466.56 1.11011 -3.78246 0
M  V30 15866 H 1467.84 1.87529 -4.7298 0
M  V30 15867 H 1467.24 4.66469 -3.20036 0
M  V30 15868 H 1465.8 5.14787 -3.99797 0
M  V30 15869 N 1469.23 1.56605 0.176793 0
M  V30 15870 C 1470.46 1.85543 0.9087 0
M  V30 15871 C 1470.87 0.679554 1.76575 0
M  V30 15872 O 1470.21 -0.360668 1.80125 0
M  V30 15873 C 1470.27 3.08823 1.84034 0
M  V30 15874 C 1469.94 4.41942 1.16344 0
M  V30 15875 C 1470.94 5.17176 0.531526 0
M  V30 15876 C 1468.62 4.88679 1.16183 0
M  V30 15877 C 1470.61 6.37332 -0.0929601 0
M  V30 15878 C 1468.3 6.08767 0.533514 0
M  V30 15879 C 1469.3 6.82937 -0.0927812 0
M  V30 15880 O 1468.99 8.00748 -0.711202 0
M  V30 15881 H 1468.72 0.619862 0.269717 0
M  V30 15882 H 1471.27 2.04579 0.183414 0
M  V30 15883 H 1469.5 2.85718 2.6058 0
M  V30 15884 H 1471.19 3.24253 2.44161 0
M  V30 15885 H 1471.96 4.82152 0.524784 0
M  V30 15886 H 1467.84 4.30891 1.63871 0
M  V30 15887 H 1471.38 6.95165 -0.582409 0
M  V30 15888 H 1467.28 6.43256 0.537821 0
M  V30 15889 H 1468.05 8.16224 -0.609911 0
M  V30 15890 N 1470.71 -0.445159 1.51182 0
M  V30 15891 C 1471.96 -1.19524 1.63463 0
M  V30 15892 C 1472.28 -1.91377 0.347136 0
M  V30 15893 O 1471.54 -1.83932 -0.668408 0
M  V30 15894 C 1471.84 -2.24274 2.78273 0
M  V30 15895 C 1471.5 -1.6949 4.17833 0
M  V30 15896 C 1470.17 -1.54271 4.558 0
M  V30 15897 C 1472.52 -1.29128 5.04951 0
M  V30 15898 C 1469.85 -0.971532 5.786 0
M  V30 15899 C 1472.2 -0.734426 6.28322 0
M  V30 15900 C 1470.86 -0.569079 6.6507 0
M  V30 15901 H 1470.13 -0.437369 0.598155 0
M  V30 15902 H 1472.78 -0.48742 1.85193 0
M  V30 15903 H 1471.08 -3.01065 2.50734 0
M  V30 15904 H 1472.78 -2.82117 2.84975 0
M  V30 15905 H 1469.37 -1.82309 3.87894 0
M  V30 15906 H 1473.56 -1.39709 4.7623 0
M  V30 15907 H 1468.81 -0.831117 6.05725 0
M  V30 15908 H 1472.99 -0.413133 6.95173 0
M  V30 15909 H 1470.61 -0.124355 7.60098 0
M  V30 15910 N 1472.19 -1.41197 -0.700089 0
M  V30 15911 C 1473.12 -1.37101 -1.82424 0
M  V30 15912 C 1474.1 -0.238956 -1.60835 0
M  V30 15913 O 1475.28 -0.425136 -1.83643 0
M  V30 15914 C 1472.41 -1.13748 -3.19028 0
M  V30 15915 C 1471.46 -2.29612 -3.59417 0
M  V30 15916 S 1472.29 -3.92074 -3.64744 0
M  V30 15917 C 1473.44 -3.71015 -5.04082 0
M  V30 15918 H 1473.68 -2.32234 -1.8562 0
M  V30 15919 H 1471.21 -1.27667 -0.868367 0
M  V30 15920 H 1473.17 -1.0096 -3.97891 0
M  V30 15921 H 1471.83 -0.202435 -3.13447 0
M  V30 15922 H 1471.02 -2.08954 -4.58644 0
M  V30 15923 H 1470.62 -2.38783 -2.87851 0
M  V30 15924 H 1472.92 -3.30441 -5.91452 0
M  V30 15925 H 1473.86 -4.69828 -5.29781 0
M  V30 15926 H 1474.27 -3.04382 -4.75407 0
M  V30 15927 N 1473.67 0.933891 -1.2695 0
M  V30 15928 C 1474.6 2.03768 -1.04934 0
M  V30 15929 C 1475.61 1.62798 -0.00740752 0
M  V30 15930 O 1476.8 1.76765 -0.248289 0
M  V30 15931 C 1473.9 3.34097 -0.568515 0
M  V30 15932 C 1473.07 4.03794 -1.68133 0
M  V30 15933 C 1472.13 5.12397 -1.19731 0
M  V30 15934 O 1471.16 5.36701 -1.89579 0
M  V30 15935 N 1472.36 5.80479 -0.0496327 0
M  V30 15936 H 1475.12 2.23219 -1.99984 0
M  V30 15937 H 1472.69 1.10386 -1.18433 0
M  V30 15938 H 1474.68 4.04053 -0.228736 0
M  V30 15939 H 1473.25 3.11265 0.288587 0
M  V30 15940 H 1472.47 3.27655 -2.1917 0
M  V30 15941 H 1473.76 4.4711 -2.42837 0
M  V30 15942 H 1473.15 5.63179 0.533509 0
M  V30 15943 H 1471.71 6.5139 0.231014 0
M  V30 15944 N 1475.14 1.08871 1.13951 0
M  V30 15945 C 1476.37 0.841691 1.88677 0
M  V30 15946 C 1476.78 -0.610213 1.79089 0
M  V30 15947 O 1476.12 -1.4314 1.15138 0
M  V30 15948 C 1476.19 1.19077 3.39206 0
M  V30 15949 C 1475.85 2.64642 3.72577 0
M  V30 15950 C 1476.85 3.62892 3.72297 0
M  V30 15951 C 1474.53 3.00618 4.0241 0
M  V30 15952 C 1476.53 4.95148 4.01382 0
M  V30 15953 C 1474.21 4.33066 4.31158 0
M  V30 15954 C 1475.21 5.3014 4.30628 0
M  V30 15955 O 1474.9 6.60207 4.58675 0
M  V30 15956 H 1474.63 0.302896 0.604343 0
M  V30 15957 H 1477.19 1.4527 1.45209 0
M  V30 15958 H 1475.42 0.522784 3.8315 0
M  V30 15959 H 1477.1 0.923805 3.95248 0
M  V30 15960 H 1477.87 3.36442 3.4933 0
M  V30 15961 H 1473.75 2.25696 4.01973 0
M  V30 15962 H 1477.29 5.7091 4.00884 0
M  V30 15963 H 1473.19 4.59262 4.53595 0
M  V30 15964 H 1473.96 6.65593 4.7637 0
M  V30 15965 N 1476.62 -1.31073 0.875073 0
M  V30 15966 C 1477.57 -2.28389 0.332718 0
M  V30 15967 C 1478.54 -1.55954 -0.571639 0
M  V30 15968 O 1479.72 -1.84073 -0.502185 0
M  V30 15969 C 1476.86 -3.42083 -0.455364 0
M  V30 15970 C 1475.98 -4.29358 0.477088 0
M  V30 15971 C 1475.11 -5.30201 -0.325619 0
M  V30 15972 C 1474.15 -6.09123 0.602935 0
M  V30 15973 N 1473.29 -7.01909 -0.163836 0
M  V30 15974 H 1478.13 -2.74166 1.16777 0
M  V30 15975 H 1475.66 -1.3487 0.587248 0
M  V30 15976 H 1477.62 -4.06746 -0.928104 0
M  V30 15977 H 1476.25 -2.97402 -1.25507 0
M  V30 15978 H 1475.3 -3.65091 1.06829 0
M  V30 15979 H 1476.62 -4.84425 1.18887 0
M  V30 15980 H 1475.77 -6.00565 -0.860647 0
M  V30 15981 H 1474.51 -4.75802 -1.07067 0
M  V30 15982 H 1473.51 -5.37645 1.14968 0
M  V30 15983 H 1474.74 -6.65609 1.34692 0
M  V30 15984 H 1472.69 -6.49913 -0.891604 0
M  V30 15985 H 1472.6 -7.5442 0.48851 0
M  V30 15986 H 1473.87 -7.76529 -0.679929 0
M  V30 15987 N 1478.1 -0.635022 -1.4424 0
M  V30 15988 C 1479.38 -0.0718064 -1.95468 0
M  V30 15989 C 1479.76 1.40348 -1.57689 0
M  V30 15990 O 1479.11 2.11986 -0.852888 0
M  V30 15991 C 1479.32 -0.298793 -3.47719 0
M  V30 15992 C 1480.66 -0.194056 -4.24156 0
M  V30 15993 O 1481.69 -0.230368 -3.55454 0
M  V30 15994 O 1480.55 -0.102294 -5.46404 0
M  V30 15995 H 1477.64 0.0200784 -0.826756 0
M  V30 15996 H 1480.19 -0.706996 -1.54271 0
M  V30 15997 H 1478.96 -1.32233 -3.6828 0
M  V30 15998 H 1478.58 0.370347 -3.95871 0
M  V30 15999 N 1479.58 1.53054 -0.375806 0
M  V30 16000 C 1480.51 2.28973 0.45754 0
M  V30 16001 C 1481.49 1.31812 1.07516 0
M  V30 16002 O 1482.67 1.60693 1.09048 0
M  V30 16003 C 1479.8 3.08657 1.59212 0
M  V30 16004 C 1478.76 4.1359 1.10123 0
M  V30 16005 C 1478.08 4.81417 2.32684 0
M  V30 16006 C 1479.38 5.21994 0.17872 0
M  V30 16007 H 1481.08 2.98883 -0.175872 0
M  V30 16008 H 1478.62 1.43743 -0.0860253 0
M  V30 16009 H 1480.58 3.6052 2.18182 0
M  V30 16010 H 1479.3 2.36456 2.25291 0
M  V30 16011 H 1477.96 3.62688 0.534151 0
M  V30 16012 H 1477.61 4.05778 2.97243 0
M  V30 16013 H 1477.31 5.52332 2.00506 0
M  V30 16014 H 1478.83 5.36079 2.92322 0
M  V30 16015 H 1480.25 5.69298 0.676204 0
M  V30 16016 H 1478.64 6.00077 -0.0526605 0
M  V30 16017 H 1479.71 4.78646 -0.776246 0
M  V30 16018 N 1481.06 0.105248 1.57248 0
M  V30 16019 C 1482.47 -0.422304 1.81861 0
M  V30 16020 C 1482.82 -1.67508 1.02154 0
M  V30 16021 O 1481.94 -2.14905 0.253961 0
M  V30 16022 C 1482.54 -0.772943 3.29865 0
M  V30 16023 C 1481.1 -1.24519 3.55207 0
M  V30 16024 C 1480.24 -0.246936 2.76198 0
M  V30 16025 H 1483.2 0.330565 1.55219 0
M  V30 16026 H 1483.22 -1.6316 3.43743 0
M  V30 16027 H 1482.73 0.139033 3.87851 0
M  V30 16028 H 1480.83 -2.17453 3.02564 0
M  V30 16029 H 1480.94 -1.20001 4.63828 0
M  V30 16030 H 1479.31 -0.731171 2.43979 0
M  V30 16031 H 1480.09 0.657896 3.36937 0
M  V30 16032 N 1482.53 -1.56697 -0.168486 0
M  V30 16033 C 1483.78 -1.82424 -0.885965 0
M  V30 16034 C 1484.11 -0.683543 -1.81773 0
M  V30 16035 O 1483.39 0.314319 -1.91943 0
M  V30 16036 C 1483.67 -3.18553 -1.67917 0
M  V30 16037 C 1483.52 -4.43154 -0.770343 0
M  V30 16038 C 1484.84 -3.51654 -2.64627 0
M  V30 16039 H 1481.96 -0.663594 -0.320644 0
M  V30 16040 H 1484.6 -1.89391 -0.15205 0
M  V30 16041 H 1482.75 -3.12745 -2.30484 0
M  V30 16042 H 1484.43 -4.61032 -0.157328 0
M  V30 16043 H 1482.67 -4.33729 -0.0785653 0
M  V30 16044 H 1483.34 -5.34961 -1.36092 0
M  V30 16045 H 1485.82 -3.57934 -2.12185 0
M  V30 16046 H 1484.69 -4.47975 -3.17191 0
M  V30 16047 H 1484.95 -2.76503 -3.44961 0
M  V30 16048 N 1484.01 0.437135 -1.51416 0
M  V30 16049 C 1484.98 1.51313 -1.72154 0
M  V30 16050 C 1485.98 1.49523 -0.59157 0
M  V30 16051 O 1487.17 1.51541 -0.859118 0
M  V30 16052 C 1484.3 2.9085 -1.77818 0
M  V30 16053 H 1485.49 1.34229 -2.68184 0
M  V30 16054 H 1483.04 0.665822 -1.41409 0
M  V30 16055 H 1483.78 3.13338 -0.836033 0
M  V30 16056 H 1483.56 2.93554 -2.59939 0
M  V30 16057 H 1485.05 3.68905 -1.957 0
M  V30 16058 N 1485.49 1.41566 0.692592 0
M  V30 16059 C 1486.42 1.46423 1.81886 0
M  V30 16060 C 1487.4 0.32258 1.67013 0
M  V30 16061 O 1488.59 0.534437 1.86701 0
M  V30 16062 C 1485.72 1.3486 3.20047 0
M  V30 16063 C 1484.67 2.46867 3.49629 0
M  V30 16064 C 1484 2.20369 4.87177 0
M  V30 16065 C 1485.3 3.89205 3.48306 0
M  V30 16066 H 1486.99 2.40683 1.78079 0
M  V30 16067 H 1484.54 1.15845 0.855334 0
M  V30 16068 H 1486.49 1.36869 3.98553 0
M  V30 16069 H 1485.21 0.370859 3.24488 0
M  V30 16070 H 1483.87 2.44146 2.73475 0
M  V30 16071 H 1483.52 1.20931 4.88247 0
M  V30 16072 H 1483.22 2.95426 5.07934 0
M  V30 16073 H 1484.74 2.24099 5.6799 0
M  V30 16074 H 1486.16 3.93626 4.16811 0
M  V30 16075 H 1484.56 4.63969 3.80595 0
M  V30 16076 H 1485.63 4.17144 2.47222 0
M  V30 16077 N 1486.97 -0.927146 1.27443 0
M  V30 16078 C 1488.38 -1.20319 1.0486 0
M  V30 16079 C 1488.58 -2.00323 -0.217491 0
M  V30 16080 O 1487.64 -2.35032 -0.922833 0
M  V30 16081 C 1488.95 -1.9508 2.28833 0
M  V30 16082 C 1490.5 -2.08016 2.33877 0
M  V30 16083 C 1490.98 -2.86183 3.5758 0
M  V30 16084 N 1492.47 -2.93751 3.58141 0
M  V30 16085 C 1493.2 -3.54698 4.5053 0
M  V30 16086 N 1492.7 -4.17032 5.53223 0
M  V30 16087 N 1494.49 -3.52107 4.38152 0
M  V30 16088 H 1486.64 -0.392671 2.08739 0
M  V30 16089 H 1488.91 -0.236323 0.918072 0
M  V30 16090 H 1488.61 -1.43712 3.20998 0
M  V30 16091 H 1488.49 -2.95692 2.34193 0
M  V30 16092 H 1490.87 -2.5857 1.42217 0
M  V30 16093 H 1490.95 -1.06622 2.3252 0
M  V30 16094 H 1490.6 -2.36312 4.49576 0
M  V30 16095 H 1490.53 -3.87863 3.56188 0
M  V30 16096 H 1493.02 -2.49449 2.83872 0
M  V30 16097 H 1493.33 -4.61477 6.19886 0
M  V30 16098 H 1491.68 -4.15576 5.57065 0
M  V30 16099 H 1494.87 -3.02611 3.57134 0
M  V30 16100 H 1495.04 -3.99315 5.10344 0
M  V30 16101 N 1488.45 -1.09474 -1.13372 0
M  V30 16102 C 1489.36 -0.746674 -2.224 0
M  V30 16103 C 1490.37 0.251572 -1.72172 0
M  V30 16104 O 1491.55 0.092793 -2.01186 0
M  V30 16105 C 1488.61 -0.172965 -3.46268 0
M  V30 16106 C 1487.67 -1.22722 -4.11385 0
M  V30 16107 C 1486.91 -0.680794 -5.2934 0
M  V30 16108 O 1487.13 0.496135 -5.68238 0
M  V30 16109 O 1486.06 -1.43605 -5.84518 0
M  V30 16110 H 1489.89 -1.65649 -2.54547 0
M  V30 16111 H 1487.48 -0.869172 -1.21514 0
M  V30 16112 H 1489.36 0.143629 -4.21155 0
M  V30 16113 H 1488.03 0.709853 -3.15821 0
M  V30 16114 H 1486.94 -1.59652 -3.38323 0
M  V30 16115 H 1488.27 -2.0827 -4.45965 0
M  V30 16116 N 1489.92 1.30607 -0.882012 0
M  V30 16117 C 1491.17 1.95869 -0.497978 0
M  V30 16118 C 1491.49 1.69991 0.955405 0
M  V30 16119 O 1490.76 1.02188 1.67136 0
M  V30 16120 H 1489.34 0.724699 -0.181165 0
M  V30 16121 H 1492.01 1.59193 -1.12444 0
M  V30 16122 H 1491.1 3.04917 -0.665754 0
M  V30 16123 N 1491.4 0.642663 1.43901 0
M  V30 16124 C 1492.37 -0.0457858 2.29154 0
M  V30 16125 C 1493.37 -0.760988 1.41653 0
M  V30 16126 O 1494.56 -0.603832 1.634 0
M  V30 16127 C 1491.69 -1.07552 3.23489 0
M  V30 16128 H 1492.88 0.704193 2.91515 0
M  V30 16129 H 1490.43 0.403361 1.51006 0
M  V30 16130 H 1491.17 -1.85509 2.66002 0
M  V30 16131 H 1490.95 -0.566468 3.87987 0
M  V30 16132 H 1492.44 -1.55663 3.87503 0
M  V30 16133 N 1492.88 -1.52852 0.383918 0
M  V30 16134 C 1493.83 -2.27828 -0.468762 0
M  V30 16135 C 1494.82 -1.31516 -1.0677 0
M  V30 16136 O 1496.03 -1.49075 -1.0088 0
M  V30 16137 H 1492.4 -0.732552 -0.169917 0
M  V30 16138 H 1494.38 -2.97825 0.185124 0
M  V30 16139 C 1493.12 -3.09378 -1.58683 0
M  V30 16140 H 1492.45 -3.83343 -1.13527 0
M  V30 16141 H 1493.89 -3.64987 -2.15779 0
M  V30 16142 C 1492.35 -2.21354 -2.53976 0
M  V30 16143 O 1492.88 -1.83668 -3.57252 0
M  V30 16144 N 1491.08 -1.85621 -2.23591 0
M  V30 16145 H 1490.63 -2.16467 -1.39642 0
M  V30 16146 H 1490.59 -1.27015 -2.87602 0
M  V30 16147 N 1494.36 -0.113586 -1.5719 0
M  V30 16148 C 1495.77 0.412653 -1.82083 0
M  V30 16149 C 1496.12 1.66964 -1.03041 0
M  V30 16150 O 1495.25 2.14767 -0.265354 0
M  V30 16151 C 1495.84 0.755439 -3.3027 0
M  V30 16152 C 1494.4 1.22634 -3.55862 0
M  V30 16153 C 1493.55 0.232285 -2.76325 0
M  V30 16154 H 1496.5 -0.338792 -1.55042 0
M  V30 16155 H 1496.52 1.61335 -3.44603 0
M  V30 16156 H 1496.03 -0.1596 -3.87772 0
M  V30 16157 H 1494.13 2.15846 -3.03713 0
M  V30 16158 H 1494.25 1.1754 -4.64458 0
M  V30 16159 H 1492.61 0.718222 -2.44364 0
M  V30 16160 H 1493.39 -0.675756 -3.36583 0
M  V30 16161 N 1495.84 1.56784 0.160173 0
M  V30 16162 C 1497.09 1.8226 0.873253 0
M  V30 16163 C 1497.41 0.692384 1.82294 0
M  V30 16164 O 1496.68 -0.286961 1.93787 0
M  V30 16165 H 1495.26 0.672371 0.325463 0
M  V30 16166 H 1497.92 1.94264 0.157325 0
M  V30 16167 H 1497.01 2.76714 1.44345 0
M  V30 16168 N 1497.32 -0.429099 1.51646 0
M  V30 16169 C 1498.56 -1.17784 1.64722 0
M  V30 16170 C 1498.89 -1.90998 0.367415 0
M  V30 16171 O 1498.15 -1.8463 -0.648862 0
M  V30 16172 C 1498.44 -2.2131 2.80636 0
M  V30 16173 C 1498.11 -1.65048 4.19607 0
M  V30 16174 C 1496.77 -1.49428 4.57411 0
M  V30 16175 C 1499.12 -1.23765 5.06292 0
M  V30 16176 C 1496.45 -0.910109 5.79598 0
M  V30 16177 C 1498.8 -0.667743 6.29066 0
M  V30 16178 C 1497.47 -0.498507 6.65636 0
M  V30 16179 H 1496.74 -0.431001 0.60276 0
M  V30 16180 H 1499.39 -0.46775 1.857 0
M  V30 16181 H 1497.69 -2.98388 2.53913 0
M  V30 16182 H 1499.39 -2.79079 2.87951 0
M  V30 16183 H 1495.98 -1.78185 3.89805 0
M  V30 16184 H 1500.16 -1.3465 4.77685 0
M  V30 16185 H 1495.42 -0.766825 6.06572 0
M  V30 16186 H 1499.59 -0.339377 6.95573 0
M  V30 16187 H 1497.22 -0.0437292 7.60187 0
M  V30 16188 N 1498.79 -1.41931 -0.685074 0
M  V30 16189 C 1499.74 -1.41066 -1.79121 0
M  V30 16190 C 1500.73 -0.283467 -1.58383 0
M  V30 16191 O 1501.92 -0.524931 -1.69037 0
M  V30 16192 C 1499.05 -1.30551 -3.17508 0
M  V30 16193 C 1498.13 -2.48174 -3.43905 0
M  V30 16194 N 1498.53 -3.73621 -3.40941 0
M  V30 16195 C 1496.82 -2.42213 -3.74498 0
M  V30 16196 C 1497.52 -4.51693 -3.66536 0
M  V30 16197 N 1496.5 -3.81955 -3.86796 0
M  V30 16198 H 1500.3 -2.35965 -1.75208 0
M  V30 16199 H 1497.82 -1.36135 -0.885498 0
M  V30 16200 H 1499.81 -1.28013 -3.9676 0
M  V30 16201 H 1498.47 -0.366454 -3.22625 0
M  V30 16202 H 1499.48 -4.0636 -3.21079 0
M  V30 16203 H 1496.16 -1.56835 -3.86923 0
M  V30 16204 H 1497.55 -5.60654 -3.70292 0
M  V30 16205 N 1500.27 0.920374 -1.27933 0
M  V30 16206 C 1501.18 2.05525 -1.13123 0
M  V30 16207 C 1502.2 1.73899 -0.059421 0
M  V30 16208 O 1503.37 1.99617 -0.267386 0
M  V30 16209 C 1500.44 3.37637 -0.787551 0
M  V30 16210 C 1499.5 3.82914 -1.94101 0
M  V30 16211 C 1498.73 5.08721 -1.61364 0
M  V30 16212 O 1498.96 5.6798 -0.524918 0
M  V30 16213 O 1497.89 5.4955 -2.45517 0
M  V30 16214 H 1501.72 2.20935 -2.08378 0
M  V30 16215 H 1499.3 1.04071 -1.07189 0
M  V30 16216 H 1501.18 4.16968 -0.609544 0
M  V30 16217 H 1499.86 3.23417 0.135407 0
M  V30 16218 H 1498.76 3.04438 -2.17413 0
M  V30 16219 H 1500.1 4.01687 -2.84444 0
M  V30 16220 N 1501.75 1.10074 1.1279 0
M  V30 16221 C 1502.71 0.74967 2.16593 0
M  V30 16222 C 1503.71 -0.224046 1.59232 0
M  V30 16223 O 1504.9 -0.00137104 1.742 0
M  V30 16224 C 1502.03 0.109795 3.40723 0
M  V30 16225 H 1503.23 1.66906 2.49164 0
M  V30 16226 H 1500.78 0.900781 1.27733 0
M  V30 16227 H 1501.52 -0.820501 3.13749 0
M  V30 16228 H 1501.3 0.810517 3.83631 0
M  V30 16229 H 1502.79 -0.120198 4.17427 0
M  V30 16230 N 1503.23 -1.30138 0.888926 0
M  V30 16231 C 1504.48 -1.95265 0.5054 0
M  V30 16232 C 1504.79 -1.70925 -0.950998 0
M  V30 16233 O 1506 -2.30069 -1.44155 0
M  V30 16234 C 1504.45 -3.49647 0.852937 0
M  V30 16235 C 1504.06 -3.82802 2.32737 0
M  V30 16236 C 1505.8 -4.21067 0.538801 0
M  V30 16237 C 1503.71 -5.30379 2.61633 0
M  V30 16238 H 1502.64 -0.730882 0.185278 0
M  V30 16239 H 1505.29 -1.48027 1.08444 0
M  V30 16240 H 1503.67 -3.9548 0.202937 0
M  V30 16241 H 1504.85 -3.47866 3.02202 0
M  V30 16242 H 1503.16 -3.24495 2.60944 0
M  V30 16243 H 1505.76 -5.2967 0.731676 0
M  V30 16244 H 1506.1 -4.13014 -0.522039 0
M  V30 16245 H 1506.64 -3.8093 1.14617 0
M  V30 16246 H 1503.37 -5.43486 3.66473 0
M  V30 16247 H 1502.89 -5.66601 1.96782 0
M  V30 16248 H 1504.57 -5.97856 2.47339 0
M  V30 16249 N 1504.71 -0.650285 -1.43559 0
M  V30 16250 C 1505.95 -0.162164 -2.01448 0
M  V30 16251 C 1506.27 1.22717 -1.51544 0
M  V30 16252 O 1505.54 1.81917 -0.726855 0
M  V30 16253 H 1504.12 -0.0569599 -0.744825 0
M  V30 16254 H 1506.79 -0.841294 -1.75807 0
M  V30 16255 H 1505.88 -0.144531 -3.11765 0
M  V30 16256 N 1506.18 1.52647 -0.392018 0
M  V30 16257 C 1507.46 1.94034 0.247004 0
M  V30 16258 C 1507.84 1.32767 1.64122 0
M  V30 16259 O 1507.19 0.496822 2.23033 0
M  V30 16260 C 1507.4 3.47949 0.270615 0
M  V30 16261 C 1508.75 4.21666 0.498256 0
M  V30 16262 O 1509.77 3.54469 0.350708 0
M  V30 16263 O 1508.63 5.40795 0.787586 0
M  V30 16264 H 1505.72 0.812487 0.154251 0
M  V30 16265 H 1508.27 1.63715 -0.446723 0
M  V30 16266 H 1507.04 3.84881 -0.705862 0
M  V30 16267 H 1506.66 3.8458 1.00915 0
M  V30 16268 N 1507.66 0.121921 1.57128 0
M  V30 16269 C 1508.91 -0.536164 1.95584 0
M  V30 16270 C 1509.24 -1.66143 1.0055 0
M  V30 16271 O 1508.52 -1.94452 0.0432427 0
M  V30 16272 C 1508.8 -1.0661 3.43957 0
M  V30 16273 C 1508.65 0.0559458 4.49765 0
M  V30 16274 C 1509.97 -1.95603 3.94243 0
M  V30 16275 H 1507.09 -0.193427 0.711165 0
M  V30 16276 H 1509.73 0.198072 1.88965 0
M  V30 16277 H 1507.88 -1.69181 3.49729 0
M  V30 16278 H 1509.55 0.691357 4.5609 0
M  V30 16279 H 1507.8 0.71868 4.27805 0
M  V30 16280 H 1508.47 -0.356133 5.5085 0
M  V30 16281 H 1510.94 -1.42899 3.90793 0
M  V30 16282 H 1509.82 -2.29599 4.98573 0
M  V30 16283 H 1510.08 -2.88364 3.3511 0
M  V30 16284 N 1509.14 -1.56867 -0.151857 0
M  V30 16285 C 1510.07 -2.00932 -1.18949 0
M  V30 16286 C 1511.05 -0.888062 -1.45077 0
M  V30 16287 O 1512.24 -1.15553 -1.56081 0
M  V30 16288 C 1509.37 -2.3858 -2.52383 0
M  V30 16289 C 1508.32 -3.53845 -2.40785 0
M  V30 16290 C 1507.65 -3.77292 -3.78886 0
M  V30 16291 C 1508.95 -4.8667 -1.89605 0
M  V30 16292 H 1510.64 -2.87863 -0.823107 0
M  V30 16293 H 1508.19 -1.38491 -0.394499 0
M  V30 16294 H 1510.14 -2.68006 -3.25193 0
M  V30 16295 H 1508.86 -1.48579 -2.90847 0
M  V30 16296 H 1507.52 -3.24577 -1.70427 0
M  V30 16297 H 1507.17 -2.84551 -4.14777 0
M  V30 16298 H 1506.87 -4.54861 -3.71989 0
M  V30 16299 H 1508.39 -4.09139 -4.53252 0
M  V30 16300 H 1509.81 -5.14846 -2.52204 0
M  V30 16301 H 1508.21 -5.6801 -1.93609 0
M  V30 16302 H 1509.28 -4.77366 -0.851438 0
M  V30 16303 N 1510.62 0.421051 -1.51871 0
M  V30 16304 C 1511.58 1.49478 -1.73749 0
M  V30 16305 C 1512.58 1.48887 -0.607395 0
M  V30 16306 O 1513.77 1.50622 -0.875143 0
M  V30 16307 C 1510.9 2.88947 -1.80893 0
M  V30 16308 H 1512.1 1.31377 -2.69593 0
M  V30 16309 H 1509.65 0.650786 -1.42107 0
M  V30 16310 H 1510.38 3.12434 -0.86922 0
M  V30 16311 H 1510.17 2.90781 -2.63038 0
M  V30 16312 H 1511.66 3.66809 -1.99602 0
M  V30 16313 N 1512.1 1.42293 0.677538 0
M  V30 16314 C 1513.03 1.48344 1.80323 0
M  V30 16315 C 1514.01 0.340276 1.66662 0
M  V30 16316 O 1515.19 0.554209 1.86124 0
M  V30 16317 C 1512.32 1.38247 3.18599 0
M  V30 16318 C 1511.28 2.50562 3.46991 0
M  V30 16319 C 1510.6 2.25524 4.84812 0
M  V30 16320 C 1511.9 3.92877 3.44158 0
M  V30 16321 H 1513.6 2.42558 1.75516 0
M  V30 16322 H 1511.14 1.16746 0.842999 0
M  V30 16323 H 1513.1 1.41089 3.97079 0
M  V30 16324 H 1511.82 0.405255 3.24076 0
M  V30 16325 H 1510.48 2.47032 2.7087 0
M  V30 16326 H 1510.13 1.26102 4.86937 0
M  V30 16327 H 1509.83 3.00797 5.04772 0
M  V30 16328 H 1511.35 2.3011 5.65581 0
M  V30 16329 H 1512.76 3.98024 4.12613 0
M  V30 16330 H 1511.16 4.6798 3.75653 0
M  V30 16331 H 1512.23 4.19743 2.42783 0
M  V30 16332 N 1513.57 -0.913576 1.28419 0
M  V30 16333 C 1514.8 -1.70178 1.18551 0
M  V30 16334 C 1515.22 -1.864 -0.252307 0
M  V30 16335 O 1514.58 -1.37427 -1.18252 0
M  V30 16336 C 1514.63 -3.07145 1.8893 0
M  V30 16337 O 1513.73 -3.9465 1.19688 0
M  V30 16338 H 1513.08 -0.521092 0.411533 0
M  V30 16339 H 1515.61 -1.14228 1.69744 0
M  V30 16340 H 1515.62 -3.57375 1.96843 0
M  V30 16341 H 1514.29 -2.94655 2.93515 0
M  V30 16342 H 1512.87 -3.53085 1.19939 0
M  V30 16343 N 1515.05 -1.1067 -1.12204 0
M  V30 16344 C 1516.3 -0.85189 -1.8404 0
M  V30 16345 C 1516.63 0.620988 -1.84004 0
M  V30 16346 O 1515.91 1.45801 -1.28734 0
M  V30 16347 C 1516.19 -1.40401 -3.31602 0
M  V30 16348 C 1516.04 -2.94392 -3.40078 0
M  V30 16349 C 1517.36 -1.04834 -4.27432 0
M  V30 16350 H 1514.48 -0.310924 -0.668203 0
M  V30 16351 H 1517.12 -1.37026 -1.3162 0
M  V30 16352 H 1515.27 -0.963107 -3.76373 0
M  V30 16353 H 1516.94 -3.47027 -3.03924 0
M  V30 16354 H 1515.19 -3.3087 -2.80548 0
M  V30 16355 H 1515.86 -3.28107 -4.43903 0
M  V30 16356 H 1518.33 -1.42882 -3.90799 0
M  V30 16357 H 1517.21 -1.46153 -5.29085 0
M  V30 16358 H 1517.47 0.0419272 -4.4208 0
M  V30 16359 N 1516.53 1.29665 -0.895815 0
M  V30 16360 C 1517.76 2.00399 -0.534333 0
M  V30 16361 C 1518.18 1.66632 0.872654 0
M  V30 16362 O 1517.54 0.888811 1.58018 0
M  V30 16363 C 1517.59 3.53154 -0.729023 0
M  V30 16364 O 1516.69 4.11812 0.22023 0
M  V30 16365 H 1516.03 0.630173 -0.209233 0
M  V30 16366 H 1518.56 1.65253 -1.20634 0
M  V30 16367 H 1518.57 4.03073 -0.632179 0
M  V30 16368 H 1517.25 3.77067 -1.75481 0
M  V30 16369 H 1515.82 3.72822 0.0761687 0
M  V30 16370 N 1518.01 0.657889 1.43212 0
M  V30 16371 C 1519.24 0.181072 2.06106 0
M  V30 16372 C 1519.65 -1.15513 1.49339 0
M  V30 16373 O 1519.01 -1.71409 0.626517 0
M  V30 16374 C 1519.06 0.0890244 3.6139 0
M  V30 16375 O 1518.78 1.37241 4.16049 0
M  V30 16376 C 1520.28 -0.413313 4.41369 0
M  V30 16377 H 1517.5 0.0920577 0.664655 0
M  V30 16378 H 1520.05 0.899855 1.83638 0
M  V30 16379 H 1518.2 -0.580345 3.83028 0
M  V30 16380 H 1518.61 1.23467 5.09761 0
M  V30 16381 H 1520.09 -0.426663 5.50349 0
M  V30 16382 H 1520.57 -1.44549 4.14731 0
M  V30 16383 H 1521.17 0.223727 4.24711 0
M  V30 16384 N 1519.49 -1.52437 0.400108 0
M  V30 16385 C 1520.9 -1.86563 -0.0715162 0
M  V30 16386 C 1521.25 -1.3193 -1.4522 0
M  V30 16387 O 1520.37 -0.654955 -2.06251 0
M  V30 16388 C 1520.97 -3.38525 -0.13655 0
M  V30 16389 C 1519.53 -3.72323 -0.55249 0
M  V30 16390 C 1518.67 -2.75896 0.278729 0
M  V30 16391 H 1521.63 -1.46192 0.617547 0
M  V30 16392 H 1521.65 -3.68357 -0.953588 0
M  V30 16393 H 1521.16 -3.78258 0.868468 0
M  V30 16394 H 1519.26 -3.38164 -1.56448 0
M  V30 16395 H 1519.37 -4.7814 -0.303139 0
M  V30 16396 H 1517.74 -2.53394 -0.257608 0
M  V30 16397 H 1518.52 -3.18467 1.28193 0
M  V30 16398 N 1520.96 -0.130252 -1.57061 0
M  V30 16399 C 1521.91 0.815767 -2.15902 0
M  V30 16400 C 1522.88 1.2558 -1.08715 0
M  V30 16401 O 1524.07 1.33132 -1.36677 0
M  V30 16402 C 1521.21 2.0561 -2.77162 0
M  V30 16403 C 1520.32 1.6634 -3.98692 0
M  V30 16404 C 1519.45 2.85425 -4.48002 0
M  V30 16405 C 1518.49 2.42449 -5.62036 0
M  V30 16406 N 1517.63 3.54486 -6.0604 0
M  V30 16407 H 1522.47 0.307164 -2.96413 0
M  V30 16408 H 1520.01 0.139913 -1.46433 0
M  V30 16409 H 1521.97 2.78298 -3.10815 0
M  V30 16410 H 1520.6 2.5391 -1.99323 0
M  V30 16411 H 1519.65 0.834817 -3.71127 0
M  V30 16412 H 1520.96 1.30765 -4.81354 0
M  V30 16413 H 1520.11 3.66325 -4.83623 0
M  V30 16414 H 1518.85 3.24235 -3.64312 0
M  V30 16415 H 1517.86 1.59985 -5.26008 0
M  V30 16416 H 1519.08 2.04744 -6.475 0
M  V30 16417 H 1517.03 3.92948 -5.25289 0
M  V30 16418 H 1516.95 3.22871 -6.83586 0
M  V30 16419 H 1518.21 4.35792 -6.46302 0
M  V30 16420 N 1522.44 1.56945 0.143535 0
M  V30 16421 C 1523.39 1.94945 1.18239 0
M  V30 16422 C 1524.38 0.821157 1.38368 0
M  V30 16423 O 1525.57 1.08465 1.39873 0
M  V30 16424 C 1522.7 2.33653 2.51518 0
M  V30 16425 C 1521.78 3.53061 2.34966 0
M  V30 16426 N 1522.18 4.69493 1.88176 0
M  V30 16427 C 1520.47 3.58213 2.65706 0
M  V30 16428 C 1521.17 5.51581 1.84751 0
M  V30 16429 N 1520.15 4.93386 2.28192 0
M  V30 16430 H 1523.95 2.82438 0.81278 0
M  V30 16431 H 1521.47 1.58549 0.351555 0
M  V30 16432 H 1523.46 2.59083 3.26621 0
M  V30 16433 H 1522.12 1.47513 2.89257 0
M  V30 16434 H 1523.13 4.93182 1.5809 0
M  V30 16435 H 1519.81 2.82622 3.07297 0
M  V30 16436 H 1521.2 6.54934 1.50038 0
M  V30 16437 N 1523.92 -0.412991 1.52093 0
M  V30 16438 C 1524.85 -1.50986 1.78117 0
M  V30 16439 C 1525.83 -1.57925 0.631963 0
M  V30 16440 O 1527.02 -1.73261 0.877168 0
M  V30 16441 C 1524.15 -2.88846 1.92835 0
M  V30 16442 C 1523.1 -2.96759 3.08412 0
M  V30 16443 C 1522.43 -4.36837 3.08347 0
M  V30 16444 C 1523.73 -2.68599 4.47942 0
M  V30 16445 H 1525.42 -1.29459 2.69964 0
M  V30 16446 H 1522.97 -0.621348 1.29905 0
M  V30 16447 H 1524.92 -3.65563 2.09623 0
M  V30 16448 H 1523.64 -3.11658 0.976553 0
M  V30 16449 H 1522.3 -2.22487 2.91368 0
M  V30 16450 H 1521.95 -4.56652 2.10897 0
M  V30 16451 H 1521.65 -4.43056 3.85973 0
M  V30 16452 H 1523.18 -5.15493 3.2726 0
M  V30 16453 H 1524.59 -3.35039 4.65212 0
M  V30 16454 H 1522.99 -2.86199 5.27456 0
M  V30 16455 H 1524.06 -1.64058 4.56304 0
M  V30 16456 N 1525.4 -1.4265 -0.669982 0
M  V30 16457 C 1526.35 -1.42958 -1.77615 0
M  V30 16458 C 1527.33 -0.30025 -1.58074 0
M  V30 16459 O 1528.53 -0.54283 -1.68471 0
M  V30 16460 C 1525.65 -1.33911 -3.16106 0
M  V30 16461 C 1524.74 -2.51808 -3.41253 0
M  V30 16462 N 1525.13 -3.77216 -3.36959 0
M  V30 16463 C 1523.43 -2.46172 -3.71908 0
M  V30 16464 C 1524.13 -4.55555 -3.61724 0
M  V30 16465 N 1523.11 -3.86036 -3.82724 0
M  V30 16466 H 1526.91 -2.3781 -1.72696 0
M  V30 16467 H 1524.42 -1.37066 -0.871009 0
M  V30 16468 H 1526.42 -1.32214 -3.9538 0
M  V30 16469 H 1525.08 -0.400652 -3.22219 0
M  V30 16470 H 1526.09 -4.09743 -3.16751 0
M  V30 16471 H 1522.77 -1.6093 -3.85237 0
M  V30 16472 H 1524.16 -5.6455 -3.64325 0
M  V30 16473 N 1526.88 0.906753 -1.28902 0
M  V30 16474 C 1528.1 1.69547 -1.19452 0
M  V30 16475 C 1528.53 1.86531 0.242418 0
M  V30 16476 O 1527.89 1.38052 1.17521 0
M  V30 16477 C 1527.93 3.06139 -1.90556 0
M  V30 16478 O 1527.04 3.9401 -1.21779 0
M  V30 16479 H 1526.38 0.518902 -0.41429 0
M  V30 16480 H 1528.91 1.13327 -1.70347 0
M  V30 16481 H 1528.92 3.56326 -1.98736 0
M  V30 16482 H 1527.59 2.93094 -2.95074 0
M  V30 16483 H 1526.17 3.52444 -1.2181 0
M  V30 16484 N 1528.36 1.11264 1.11616 0
M  V30 16485 C 1529.29 0.79149 2.19676 0
M  V30 16486 C 1530.27 -0.239351 1.68408 0
M  V30 16487 O 1531.45 -0.103228 1.93925 0
M  V30 16488 C 1528.58 0.231891 3.46525 0
M  V30 16489 C 1527.54 1.19439 4.10997 0
M  V30 16490 C 1526.86 0.495593 5.32398 0
M  V30 16491 C 1528.16 2.54437 4.56135 0
M  V30 16492 H 1529.86 1.69503 2.46797 0
M  V30 16493 H 1527.4 0.816433 1.18619 0
M  V30 16494 H 1529.35 -0.00497468 4.214 0
M  V30 16495 H 1528.08 -0.706938 3.18857 0
M  V30 16496 H 1526.74 1.41686 3.38113 0
M  V30 16497 H 1526.39 -0.447984 5.01001 0
M  V30 16498 H 1526.09 1.13753 5.76484 0
M  V30 16499 H 1527.61 0.267476 6.10014 0
M  V30 16500 H 1529.02 2.36289 5.22341 0
M  V30 16501 H 1527.42 3.14595 5.11028 0
M  V30 16502 H 1528.49 3.13795 3.69676 0
M  V30 16503 N 1529.83 -1.29188 0.902679 0
M  V30 16504 C 1530.78 -2.29597 0.372585 0
M  V30 16505 C 1531.78 -1.609 -0.529858 0
M  V30 16506 O 1532.98 -1.75214 -0.41233 0
M  V30 16507 H 1529.36 -0.745069 0.101864 0
M  V30 16508 H 1531.33 -2.71746 1.23275 0
M  V30 16509 C 1530.08 -3.45594 -0.382128 0
M  V30 16510 H 1529.4 -3.9865 0.303061 0
M  V30 16511 H 1530.84 -4.17879 -0.717852 0
M  V30 16512 C 1529.3 -2.97238 -1.58591 0
M  V30 16513 O 1529.83 -2.98767 -2.68517 0
M  V30 16514 N 1528.03 -2.53032 -1.42909 0
M  V30 16515 H 1527.58 -2.51988 -0.534786 0
M  V30 16516 H 1527.54 -2.21038 -2.23584 0
M  V30 16517 N 1531.31 -0.665475 -1.42861 0
M  V30 16518 C 1532.24 0.00482845 -2.335 0
M  V30 16519 C 1533.22 0.799135 -1.50159 0
M  V30 16520 O 1534.41 0.75816 -1.78789 0
M  V30 16521 C 1531.54 0.963347 -3.33672 0
M  V30 16522 C 1530.49 0.278294 -4.27094 0
M  V30 16523 C 1529.82 1.34911 -5.174 0
M  V30 16524 C 1531.12 -0.836925 -5.15551 0
M  V30 16525 H 1532.81 -0.752129 -2.89799 0
M  V30 16526 H 1530.36 -0.363139 -1.39346 0
M  V30 16527 H 1532.31 1.44128 -3.95986 0
M  V30 16528 H 1531.03 1.75161 -2.75656 0
M  V30 16529 H 1529.69 -0.179314 -3.66161 0
M  V30 16530 H 1529.34 2.12912 -4.55716 0
M  V30 16531 H 1529.04 0.895919 -5.8073 0
M  V30 16532 H 1530.57 1.82816 -5.8259 0
M  V30 16533 H 1531.98 -0.440617 -5.71604 0
M  V30 16534 H 1530.38 -1.21533 -5.87665 0
M  V30 16535 H 1531.45 -1.6897 -4.54507 0
M  V30 16536 N 1532.79 1.52222 -0.408187 0
M  V30 16537 C 1533.72 2.29892 0.408868 0
M  V30 16538 C 1534.7 1.34063 1.04695 0
M  V30 16539 O 1535.89 1.6297 1.05615 0
M  V30 16540 C 1533.02 3.11964 1.52629 0
M  V30 16541 C 1531.97 4.15833 1.01326 0
M  V30 16542 C 1531.3 4.86244 2.2242 0
M  V30 16543 C 1532.6 5.22256 0.0679573 0
M  V30 16544 H 1534.29 2.98443 -0.23923 0
M  V30 16545 H 1531.84 1.43528 -0.116496 0
M  V30 16546 H 1533.79 3.65067 2.10486 0
M  V30 16547 H 1532.51 2.41181 2.20225 0
M  V30 16548 H 1531.17 3.63739 0.4571 0
M  V30 16549 H 1530.82 4.11991 2.88569 0
M  V30 16550 H 1530.52 5.56461 1.88746 0
M  V30 16551 H 1532.04 5.42159 2.80885 0
M  V30 16552 H 1533.46 5.70604 0.555295 0
M  V30 16553 H 1531.85 5.9983 -0.179934 0
M  V30 16554 H 1532.92 4.76892 -0.877599 0
M  V30 16555 N 1534.27 0.138579 1.5699 0
M  V30 16556 C 1535.49 -0.525074 2.00643 0
M  V30 16557 C 1535.92 -1.58174 1.01796 0
M  V30 16558 O 1535.28 -1.81298 -0.00754003 0
M  V30 16559 C 1535.32 -1.11019 3.43085 0
M  V30 16560 O 1534.43 -2.22529 3.4721 0
M  V30 16561 H 1533.77 -0.129283 0.651292 0
M  V30 16562 H 1536.3 0.23283 2.03271 0
M  V30 16563 H 1536.31 -1.44093 3.81708 0
M  V30 16564 H 1534.98 -0.336325 4.14538 0
M  V30 16565 H 1533.56 -1.90747 3.20422 0
M  V30 16566 N 1535.75 -1.57019 -0.13521 0
M  V30 16567 C 1536.97 -1.88528 -0.864399 0
M  V30 16568 C 1537.4 -0.728852 -1.73405 0
M  V30 16569 O 1536.75 0.321196 -1.78432 0
M  V30 16570 C 1536.8 -3.18694 -1.6872 0
M  V30 16571 O 1535.91 -3.03458 -2.79262 0
M  V30 16572 H 1535.25 -0.61909 -0.24005 0
M  V30 16573 H 1537.78 -2.04233 -0.12248 0
M  V30 16574 H 1537.79 -3.51011 -2.0798 0
M  V30 16575 H 1536.46 -4.02462 -1.04868 0
M  V30 16576 H 1535.04 -2.82575 -2.43323 0
M  V30 16577 N 1537.22 0.404919 -1.52309 0
M  V30 16578 C 1538.13 1.51822 -1.7885 0
M  V30 16579 C 1539.15 1.60403 -0.674307 0
M  V30 16580 O 1540.33 1.77038 -0.960175 0
M  V30 16581 C 1537.39 2.87516 -1.9374 0
M  V30 16582 C 1536.45 2.88787 -3.17648 0
M  V30 16583 C 1535.69 4.18009 -3.31819 0
M  V30 16584 O 1535.91 5.12129 -2.51158 0
M  V30 16585 O 1534.84 4.26222 -4.24992 0
M  V30 16586 H 1538.67 1.32329 -2.73354 0
M  V30 16587 H 1536.25 0.591193 -1.37205 0
M  V30 16588 H 1538.14 3.6799 -2.05333 0
M  V30 16589 H 1536.81 3.07068 -1.02425 0
M  V30 16590 H 1535.72 2.07152 -3.11511 0
M  V30 16591 H 1537.05 2.74185 -4.08758 0
M  V30 16592 N 1538.7 1.43003 0.662408 0
M  V30 16593 C 1539.95 1.43848 1.41958 0
M  V30 16594 C 1540.27 0.06046 1.94906 0
M  V30 16595 O 1539.54 -0.90287 1.73854 0
M  V30 16596 H 1538.12 0.529587 0.526827 0
M  V30 16597 H 1540.78 1.7853 0.781867 0
M  V30 16598 H 1539.88 2.14562 2.26649 0
M  V30 16599 N 1540.18 -0.899904 1.29381 0
M  V30 16600 C 1541.43 -1.64712 1.17109 0
M  V30 16601 C 1541.75 -1.93011 -0.277772 0
M  V30 16602 O 1541.02 -1.55604 -1.19013 0
M  V30 16603 H 1539.6 -0.610532 0.430418 0
M  V30 16604 H 1542.26 -1.07905 1.62304 0
M  V30 16605 H 1541.36 -2.60362 1.72098 0
M  V30 16606 N 1541.66 -1.11854 -1.11024 0
M  V30 16607 C 1542.88 -0.892999 -1.8719 0
M  V30 16608 C 1543.31 0.552058 -1.79816 0
M  V30 16609 O 1542.67 1.39025 -1.16369 0
M  V30 16610 C 1542.71 -1.3647 -3.33779 0
M  V30 16611 O 1541.82 -0.539202 -4.0886 0
M  V30 16612 H 1541.16 -0.321319 -0.581076 0
M  V30 16613 H 1543.69 -1.4891 -1.4031 0
M  V30 16614 H 1543.7 -1.3611 -3.84627 0
M  V30 16615 H 1542.37 -2.41694 -3.38462 0
M  V30 16616 H 1540.95 -0.60927 -3.67889 0
M  V30 16617 N 1543.14 1.28707 -0.909517 0
M  V30 16618 C 1544.41 1.90124 -0.459585 0
M  V30 16619 C 1544.79 1.82477 1.06139 0
M  V30 16620 O 1544.14 1.25792 1.90758 0
M  V30 16621 C 1544.35 3.34806 -0.985188 0
M  V30 16622 C 1545.7 4.11799 -1.03475 0
M  V30 16623 O 1546.72 3.43749 -0.933536 0
M  V30 16624 O 1545.58 5.33426 -1.18825 0
M  V30 16625 H 1542.68 0.814199 -0.144948 0
M  V30 16626 H 1545.22 1.37104 -1.00002 0
M  V30 16627 H 1543.99 3.34575 -2.02917 0
M  V30 16628 H 1543.62 3.95318 -0.425329 0
M  V30 16629 N 1544.61 0.673042 1.42506 0
M  V30 16630 C 1545.52 -0.00648572 2.34599 0
M  V30 16631 C 1546.54 -0.790758 1.54994 0
M  V30 16632 O 1547.72 -0.733482 1.87569 0
M  V30 16633 C 1544.78 -0.94734 3.33506 0
M  V30 16634 C 1543.84 -0.157795 4.2901 0
M  V30 16635 C 1543.08 -1.05384 5.23192 0
M  V30 16636 O 1543.3 -2.29334 5.22266 0
M  V30 16637 O 1542.23 -0.515584 5.99688 0
M  V30 16638 H 1546.06 0.752059 2.94241 0
M  V30 16639 H 1543.64 0.433272 1.42979 0
M  V30 16640 H 1545.53 -1.4875 3.94273 0
M  V30 16641 H 1544.2 -1.68577 2.7634 0
M  V30 16642 H 1543.11 0.426426 3.71662 0
M  V30 16643 H 1544.44 0.54148 4.89212 0
M  V30 16644 N 1546.09 -1.52004 0.416254 0
M  V30 16645 C 1547.04 -2.24037 -0.423226 0
M  V30 16646 C 1548.03 -1.25444 -1.0076 0
M  V30 16647 O 1549.22 -1.50646 -0.92924 0
M  V30 16648 C 1546.35 -3.07048 -1.53547 0
M  V30 16649 C 1545.43 -4.13056 -0.961518 0
M  V30 16650 N 1545.82 -5.0567 -0.114849 0
M  V30 16651 C 1544.12 -4.28667 -1.2313 0
M  V30 16652 C 1544.82 -5.81338 0.205249 0
M  V30 16653 N 1543.8 -5.42084 -0.405736 0
M  V30 16654 H 1547.6 -2.93 0.229864 0
M  V30 16655 H 1545.12 -1.60804 0.227087 0
M  V30 16656 H 1547.11 -3.57212 -2.14954 0
M  V30 16657 H 1545.77 -2.39626 -2.19111 0
M  V30 16658 H 1546.78 -5.17296 0.250006 0
M  V30 16659 H 1543.46 -3.72474 -1.88599 0
M  V30 16660 H 1544.85 -6.6594 0.892938 0
M  V30 16661 N 1547.57 -0.146903 -1.56914 0
M  V30 16662 C 1548.85 0.549291 -1.87729 0
M  V30 16663 C 1549.23 1.82971 -1.05284 0
M  V30 16664 O 1548.58 2.28073 -0.139628 0
M  V30 16665 C 1548.79 0.814835 -3.39354 0
M  V30 16666 C 1550.13 1.15565 -4.0857 0
M  V30 16667 O 1551.16 0.904191 -3.44533 0
M  V30 16668 O 1550.02 1.62886 -5.21661 0
M  V30 16669 H 1547.11 0.280196 -0.778087 0
M  V30 16670 H 1549.66 -0.183507 -1.68705 0
M  V30 16671 H 1548.43 -0.0913527 -3.91193 0
M  V30 16672 H 1548.05 1.60182 -3.63906 0
M  V30 16673 N 1549.05 1.57088 0.126881 0
M  V30 16674 C 1550.3 1.83624 0.834582 0
M  V30 16675 C 1550.61 0.731331 1.81414 0
M  V30 16676 O 1551.82 0.88286 2.56745 0
M  V30 16677 C 1550.27 3.25529 1.5349 0
M  V30 16678 C 1549.88 4.44008 0.59673 0
M  V30 16679 C 1551.62 3.6132 2.22819 0
M  V30 16680 C 1549.53 5.76939 1.29982 0
M  V30 16681 H 1548.46 0.684858 0.315414 0
M  V30 16682 H 1551.11 1.83292 0.087305 0
M  V30 16683 H 1549.49 3.20306 2.32852 0
M  V30 16684 H 1550.67 4.60511 -0.163109 0
M  V30 16685 H 1548.98 4.16399 0.0108081 0
M  V30 16686 H 1551.58 4.57902 2.76098 0
M  V30 16687 H 1551.92 2.88363 3.00254 0
M  V30 16688 H 1552.46 3.68291 1.50354 0
M  V30 16689 H 1549.2 6.53044 0.566925 0
M  V30 16690 H 1548.72 5.64336 2.03187 0
M  V30 16691 H 1550.39 6.20427 1.8352 0
M  V30 16692 N 1550.53 -0.396836 1.52522 0
M  V30 16693 C 1551.47 -1.50474 1.77371 0
M  V30 16694 C 1552.47 -1.56792 0.641307 0
M  V30 16695 O 1553.67 -1.60052 0.823621 0
M  V30 16696 H 1550.05 -0.500667 0.561103 0
M  V30 16697 H 1552.02 -1.26706 2.70163 0
M  V30 16698 C 1550.77 -2.87702 1.95251 0
M  V30 16699 H 1550.09 -2.83588 2.81812 0
M  V30 16700 H 1551.53 -3.64482 2.16631 0
M  V30 16701 C 1549.99 -3.29053 0.722904 0
M  V30 16702 O 1550.52 -4.01567 -0.103398 0
M  V30 16703 N 1548.73 -2.85246 0.555263 0
M  V30 16704 H 1548.27 -2.26403 1.22879 0
M  V30 16705 H 1548.23 -3.13272 -0.266113 0
M  V30 16706 N 1552.01 -1.43353 -0.654814 0
M  V30 16707 C 1553.25 -1.44885 -1.41473 0
M  V30 16708 C 1553.58 -0.0725577 -1.94365 0
M  V30 16709 O 1552.84 0.9222 -1.72609 0
M  V30 16710 C 1553.13 -2.437 -2.61429 0
M  V30 16711 C 1552.8 -3.89612 -2.26965 0
M  V30 16712 C 1551.46 -4.29353 -2.17278 0
M  V30 16713 C 1553.81 -4.81569 -1.99351 0
M  V30 16714 C 1551.14 -5.59005 -1.7813 0
M  V30 16715 C 1553.49 -6.11584 -1.61702 0
M  V30 16716 C 1552.16 -6.50303 -1.50539 0
M  V30 16717 H 1551.43 -0.530172 -0.517686 0
M  V30 16718 H 1554.08 -1.76422 -0.744824 0
M  V30 16719 H 1552.38 -2.05561 -3.33544 0
M  V30 16720 H 1554.08 -2.42141 -3.19638 0
M  V30 16721 H 1550.67 -3.58159 -2.35414 0
M  V30 16722 H 1554.85 -4.51639 -2.05757 0
M  V30 16723 H 1550.11 -5.87845 -1.68072 0
M  V30 16724 H 1554.28 -6.82312 -1.39365 0
M  V30 16725 H 1551.91 -7.50673 -1.19975 0
M  V30 16726 N 1553.48 0.89303 -1.29857 0
M  V30 16727 C 1554.41 2.01422 -1.18117 0
M  V30 16728 C 1555.39 1.6994 -0.0737487 0
M  V30 16729 O 1556.58 1.92527 -0.254387 0
M  V30 16730 C 1553.71 3.36385 -0.863842 0
M  V30 16731 C 1552.66 3.821 -1.92831 0
M  V30 16732 C 1551.99 5.14263 -1.46415 0
M  V30 16733 C 1553.29 4.01699 -3.33819 0
M  V30 16734 H 1554.98 2.11502 -2.11913 0
M  V30 16735 H 1552.53 1.01622 -1.02024 0
M  V30 16736 H 1554.48 4.14335 -0.768397 0
M  V30 16737 H 1553.21 3.26415 0.109816 0
M  V30 16738 H 1551.87 3.06372 -2.01325 0
M  V30 16739 H 1551.51 5.00714 -0.478983 0
M  V30 16740 H 1551.21 5.45821 -2.17609 0
M  V30 16741 H 1552.74 5.94747 -1.38234 0
M  V30 16742 H 1554.15 4.70111 -3.28129 0
M  V30 16743 H 1552.55 4.44621 -4.03029 0
M  V30 16744 H 1553.62 3.05816 -3.76304 0
M  V30 16745 N 1554.96 1.12442 1.10429 0
M  V30 16746 C 1555.89 0.736067 2.16003 0
M  V30 16747 C 1556.87 -0.272805 1.60295 0
M  V30 16748 O 1558.06 -0.166744 1.87761 0
M  V30 16749 C 1555.18 0.0894945 3.38582 0
M  V30 16750 C 1554.23 1.0652 4.12984 0
M  V30 16751 S 1555.06 2.59279 4.68546 0
M  V30 16752 C 1556.22 1.95952 5.94436 0
M  V30 16753 H 1556.45 1.63033 2.48611 0
M  V30 16754 H 1553.98 0.94351 1.22218 0
M  V30 16755 H 1555.94 -0.27718 4.09563 0
M  V30 16756 H 1554.6 -0.781885 3.04213 0
M  V30 16757 H 1553.8 0.560426 5.00874 0
M  V30 16758 H 1553.4 1.37482 3.47814 0
M  V30 16759 H 1555.69 1.30231 6.64866 0
M  V30 16760 H 1556.63 2.81882 6.49575 0
M  V30 16761 H 1557.04 1.41533 5.46469 0
M  V30 16762 N 1556.44 -1.28223 0.91633 0
M  V30 16763 C 1557.39 -2.27215 0.40521 0
M  V30 16764 C 1558.36 -1.57693 -0.521734 0
M  V30 16765 O 1559.54 -1.85577 -0.443369 0
M  V30 16766 C 1556.68 -3.43358 -0.346303 0
M  V30 16767 C 1555.79 -4.27622 0.613443 0
M  V30 16768 C 1554.93 -5.30969 -0.156775 0
M  V30 16769 C 1553.97 -6.06897 0.796418 0
M  V30 16770 N 1553.11 -7.02075 0.0595539 0
M  V30 16771 H 1557.95 -2.70312 1.2544 0
M  V30 16772 H 1555.48 -1.32933 0.629859 0
M  V30 16773 H 1557.44 -4.09492 -0.798231 0
M  V30 16774 H 1556.07 -3.01244 -1.15982 0
M  V30 16775 H 1555.12 -3.61508 1.1839 0
M  V30 16776 H 1556.43 -4.80397 1.34239 0
M  V30 16777 H 1555.59 -6.02999 -0.669146 0
M  V30 16778 H 1554.33 -4.78968 -0.918755 0
M  V30 16779 H 1553.33 -5.33716 1.32014 0
M  V30 16780 H 1554.56 -6.60987 1.558 0
M  V30 16781 H 1552.5 -6.5242 -0.684388 0
M  V30 16782 H 1552.42 -7.52484 0.728275 0
M  V30 16783 H 1553.69 -7.78299 -0.432538 0
M  V30 16784 N 1557.92 -0.68059 -1.42147 0
M  V30 16785 C 1558.85 0.0444079 -2.28157 0
M  V30 16786 C 1559.83 0.802929 -1.41392 0
M  V30 16787 O 1561.01 0.796856 -1.70829 0
M  V30 16788 C 1558.14 1.07013 -3.2135 0
M  V30 16789 C 1557.19 0.406524 -4.24558 0
M  V30 16790 S 1558.02 -0.840134 -5.28869 0
M  V30 16791 C 1559.17 0.184372 -6.25628 0
M  V30 16792 H 1559.41 -0.685124 -2.89298 0
M  V30 16793 H 1556.94 -0.470332 -1.47062 0
M  V30 16794 H 1558.9 1.65683 -3.75579 0
M  V30 16795 H 1557.56 1.77215 -2.59333 0
M  V30 16796 H 1556.75 1.18069 -4.89975 0
M  V30 16797 H 1556.35 -0.10672 -3.73848 0
M  V30 16798 H 1558.65 1.04232 -6.69434 0
M  V30 16799 H 1559.59 -0.43548 -7.0676 0
M  V30 16800 H 1560 0.532442 -5.61983 0
M  V30 16801 N 1559.4 1.51781 -0.424309 0
M  V30 16802 C 1560.36 2.25996 0.381903 0
M  V30 16803 C 1561.36 1.28938 0.960813 0
M  V30 16804 O 1562.55 1.52757 0.837306 0
M  V30 16805 C 1559.68 3.04181 1.53904 0
M  V30 16806 H 1560.87 2.98697 -0.268336 0
M  V30 16807 H 1558.43 1.55293 -0.177167 0
M  V30 16808 H 1559.16 2.35866 2.22571 0
M  V30 16809 H 1558.95 3.75457 1.13025 0
M  V30 16810 H 1560.44 3.60434 2.10896 0
M  V30 16811 N 1560.87 0.155222 1.56834 0
M  V30 16812 C 1561.8 -0.777258 2.20184 0
M  V30 16813 C 1562.78 -1.25102 1.15254 0
M  V30 16814 O 1563.97 -1.3071 1.43627 0
M  V30 16815 C 1561.1 -2.01326 2.82993 0
M  V30 16816 C 1560.05 -1.67596 3.93822 0
M  V30 16817 C 1559.38 -2.98529 4.43604 0
M  V30 16818 C 1560.68 -0.916302 5.142 0
M  V30 16819 H 1562.37 -0.249257 2.98361 0
M  V30 16820 H 1559.92 -0.118448 1.43512 0
M  V30 16821 H 1561.87 -2.67048 3.2598 0
M  V30 16822 H 1560.6 -2.56513 2.0216 0
M  V30 16823 H 1559.26 -1.0425 3.51465 0
M  V30 16824 H 1558.9 -3.51723 3.59583 0
M  V30 16825 H 1558.6 -2.76721 5.18362 0
M  V30 16826 H 1560.13 -3.65308 4.89267 0
M  V30 16827 H 1561.54 -1.47577 5.5398 0
M  V30 16828 H 1559.94 -0.797856 5.94772 0
M  V30 16829 H 1561.01 0.0904351 4.84816 0
M  V30 16830 N 1562.35 -1.57153 -0.118549 0
M  V30 16831 C 1563.63 -1.75846 -0.856587 0
M  V30 16832 C 1564.01 -0.730801 -1.98047 0
M  V30 16833 O 1563.36 0.245156 -2.27181 0
M  V30 16834 C 1563.57 -3.20864 -1.37286 0
M  V30 16835 C 1564.91 -3.83378 -1.82501 0
M  V30 16836 O 1565.94 -3.24469 -1.46964 0
M  V30 16837 O 1564.8 -4.86922 -2.48132 0
M  V30 16838 H 1561.89 -0.72002 -0.406817 0
M  V30 16839 H 1564.44 -1.69392 -0.102254 0
M  V30 16840 H 1563.21 -3.87177 -0.566531 0
M  V30 16841 H 1562.83 -3.31858 -2.18988 0
M  V30 16842 N 1563.83 0.388742 -1.5273 0
M  V30 16843 C 1564.78 1.47488 -1.77527 0
M  V30 16844 C 1565.75 1.54155 -0.618505 0
M  V30 16845 O 1566.93 1.70407 -0.858251 0
M  V30 16846 C 1564.07 2.84714 -1.95018 0
M  V30 16847 C 1563.18 2.87197 -3.2271 0
M  V30 16848 C 1562.32 4.15851 -3.30517 0
M  V30 16849 C 1561.36 4.12386 -4.52332 0
M  V30 16850 N 1560.5 5.32647 -4.57418 0
M  V30 16851 H 1565.34 1.25644 -2.70218 0
M  V30 16852 H 1562.87 0.609519 -1.33878 0
M  V30 16853 H 1564.83 3.64402 -2.03143 0
M  V30 16854 H 1563.46 3.05008 -1.05688 0
M  V30 16855 H 1562.51 1.99879 -3.23655 0
M  V30 16856 H 1563.82 2.80505 -4.12454 0
M  V30 16857 H 1562.98 5.03943 -3.37827 0
M  V30 16858 H 1561.72 4.25265 -2.38748 0
M  V30 16859 H 1560.72 3.22683 -4.45147 0
M  V30 16860 H 1561.95 4.04594 -5.45418 0
M  V30 16861 H 1559.89 5.42691 -3.68541 0
M  V30 16862 H 1559.81 5.28032 -5.41035 0
M  V30 16863 H 1561.08 6.22636 -4.68983 0
M  V30 16864 N 1565.31 1.43698 0.647203 0
M  V30 16865 C 1566.56 1.44918 1.40292 0
M  V30 16866 C 1566.87 0.0794243 1.95439 0
M  V30 16867 O 1568.08 -0.0309052 2.71482 0
M  V30 16868 C 1566.53 2.55052 2.53923 0
M  V30 16869 C 1566.14 3.98161 2.05357 0
M  V30 16870 C 1567.88 2.65473 3.31246 0
M  V30 16871 C 1565.79 4.99749 3.16235 0
M  V30 16872 H 1564.72 0.539106 0.527144 0
M  V30 16873 H 1567.37 1.69708 0.697951 0
M  V30 16874 H 1565.75 2.23473 3.26919 0
M  V30 16875 H 1566.93 4.3923 1.39333 0
M  V30 16876 H 1565.24 3.91839 1.40896 0
M  V30 16877 H 1567.84 3.38546 4.13873 0
M  V30 16878 H 1568.18 1.70745 3.79673 0
M  V30 16879 H 1568.72 2.96383 2.65334 0
M  V30 16880 H 1565.45 5.96051 2.7277 0
M  V30 16881 H 1564.97 4.63288 3.80952 0
M  V30 16882 H 1566.65 5.22725 3.81271 0
M  V30 16883 N 1566.79 -0.886131 1.30328 0
M  V30 16884 C 1567.75 -1.97328 1.16594 0
M  V30 16885 C 1568.75 -1.60504 0.0975023 0
M  V30 16886 O 1569.94 -1.70739 0.345524 0
M  V30 16887 C 1567.07 -3.31714 0.786045 0
M  V30 16888 H 1568.26 -2.1094 2.13177 0
M  V30 16889 H 1565.82 -1.07238 1.13708 0
M  V30 16890 H 1566.55 -3.23804 -0.179334 0
M  V30 16891 H 1566.34 -3.5981 1.55817 0
M  V30 16892 H 1567.83 -4.11461 0.71339 0
M  V30 16893 N 1568.26 -1.13026 -1.09832 0
M  V30 16894 C 1569.51 -0.889419 -1.81922 0
M  V30 16895 C 1569.84 0.584572 -1.85507 0
M  V30 16896 O 1569.09 1.44844 -1.316 0
M  V30 16897 C 1569.39 -1.41718 -3.28102 0
M  V30 16898 C 1569.06 -2.90729 -3.44655 0
M  V30 16899 C 1567.72 -3.31415 -3.48881 0
M  V30 16900 C 1570.07 -3.86619 -3.49536 0
M  V30 16901 C 1567.4 -4.66683 -3.55561 0
M  V30 16902 C 1569.75 -5.21726 -3.5775 0
M  V30 16903 C 1568.42 -5.61945 -3.60242 0
M  V30 16904 H 1567.69 -0.325461 -0.6657 0
M  V30 16905 H 1570.33 -1.4115 -1.29418 0
M  V30 16906 H 1568.64 -0.815709 -3.83215 0
M  V30 16907 H 1570.34 -1.20696 -3.82405 0
M  V30 16908 H 1566.93 -2.58266 -3.42048 0
M  V30 16909 H 1571.11 -3.56276 -3.45516 0
M  V30 16910 H 1566.37 -4.97226 -3.55776 0
M  V30 16911 H 1570.54 -5.95847 -3.60471 0
M  V30 16912 H 1568.17 -6.66749 -3.65171 0
M  V30 16913 N 1569.74 1.27735 -0.923117 0
M  V30 16914 C 1570.99 1.93857 -0.556994 0
M  V30 16915 C 1571.3 1.73386 0.905346 0
M  V30 16916 O 1572.51 2.3381 1.38005 0
M  V30 16917 C 1570.97 3.47263 -0.94534 0
M  V30 16918 C 1570.57 3.76497 -2.42805 0
M  V30 16919 C 1572.32 4.1949 -0.65025 0
M  V30 16920 C 1570.23 5.23256 -2.75603 0
M  V30 16921 H 1569.16 0.725712 -0.204591 0
M  V30 16922 H 1571.81 1.451 -1.12331 0
M  V30 16923 H 1570.19 3.94803 -0.307721 0
M  V30 16924 H 1571.36 3.39731 -3.11319 0
M  V30 16925 H 1569.68 3.17463 -2.69456 0
M  V30 16926 H 1572.27 5.27544 -0.871851 0
M  V30 16927 H 1572.62 4.14253 0.412352 0
M  V30 16928 H 1573.15 3.77758 -1.24676 0
M  V30 16929 H 1569.89 5.33579 -3.80754 0
M  V30 16930 H 1569.41 5.61185 -2.11735 0
M  V30 16931 H 1571.09 5.91088 -2.63103 0
M  V30 16932 N 1571.22 0.688118 1.41784 0
M  V30 16933 C 1572.63 0.291625 1.84408 0
M  V30 16934 C 1572.98 -1.1688 1.57587 0
M  V30 16935 O 1572.11 -1.89634 1.04248 0
M  V30 16936 C 1572.7 0.522511 3.34747 0
M  V30 16937 C 1571.26 0.180008 3.75969 0
M  V30 16938 C 1570.41 0.808455 2.65253 0
M  V30 16939 H 1573.36 0.88932 1.31441 0
M  V30 16940 H 1573.38 -0.221167 3.79857 0
M  V30 16941 H 1572.89 1.5855 3.54236 0
M  V30 16942 H 1570.99 -0.879012 3.62083 0
M  V30 16943 H 1571.11 0.629826 4.74942 0
M  V30 16944 H 1569.47 0.238665 2.53579 0
M  V30 16945 H 1570.25 1.87516 2.87563 0
M  V30 16946 N 1572.7 -1.51554 0.432352 0
M  V30 16947 C 1573.95 -2.02044 -0.135779 0
M  V30 16948 C 1574.27 -1.31679 -1.43147 0
M  V30 16949 O 1573.53 -0.418849 -1.91165 0
M  V30 16950 C 1573.83 -3.55076 -0.406915 0
M  V30 16951 C 1573.49 -4.43704 0.802356 0
M  V30 16952 C 1572.16 -4.67647 1.134 0
M  V30 16953 C 1574.51 -4.95733 1.6093 0
M  V30 16954 C 1571.84 -5.40865 2.27335 0
M  V30 16955 C 1574.19 -5.702 2.73961 0
M  V30 16956 C 1572.85 -5.92408 3.07585 0
M  V30 16957 H 1572.12 -0.739332 -0.0496851 0
M  V30 16958 H 1574.77 -1.82552 0.578528 0
M  V30 16959 H 1573.07 -3.72872 -1.20306 0
M  V30 16960 H 1574.77 -3.91673 -0.859839 0
M  V30 16961 H 1571.36 -4.25261 0.533923 0
M  V30 16962 H 1575.54 -4.77123 1.3663 0
M  V30 16963 H 1570.8 -5.56276 2.53706 0
M  V30 16964 H 1574.97 -6.09506 3.36861 0
M  V30 16965 H 1572.6 -6.48923 3.95984 0
M  V30 16966 N 1574.18 -0.163538 -1.56749 0
M  V30 16967 C 1575.4 0.493087 -2.01453 0
M  V30 16968 C 1575.83 1.56535 -1.043 0
M  V30 16969 O 1575.18 1.81287 -0.0213039 0
M  V30 16970 C 1575.23 1.05546 -3.44808 0
M  V30 16971 O 1574.34 2.16977 -3.50706 0
M  V30 16972 H 1573.68 0.118905 -0.653267 0
M  V30 16973 H 1576.21 -0.265139 -2.02875 0
M  V30 16974 H 1576.22 1.38002 -3.83953 0
M  V30 16975 H 1574.89 0.270333 -4.1502 0
M  V30 16976 H 1573.47 1.85625 -3.23416 0
M  V30 16977 N 1575.65 1.57214 0.110213 0
M  V30 16978 C 1576.88 1.8923 0.829187 0
M  V30 16979 C 1577.29 0.753834 1.73534 0
M  V30 16980 O 1576.64 -0.283946 1.81492 0
M  V30 16981 C 1576.7 3.16351 1.7077 0
M  V30 16982 C 1576.36 4.46479 0.974949 0
M  V30 16983 C 1577.36 5.18965 0.311696 0
M  V30 16984 C 1575.04 4.93167 0.953516 0
M  V30 16985 C 1577.04 6.36364 -0.363191 0
M  V30 16986 C 1574.72 6.10482 0.274836 0
M  V30 16987 C 1575.72 6.81929 -0.382355 0
M  V30 16988 O 1575.41 7.97011 -1.05019 0
M  V30 16989 H 1575.14 0.630744 0.243184 0
M  V30 16990 H 1577.7 2.05173 0.09648 0
M  V30 16991 H 1575.93 2.96513 2.48227 0
M  V30 16992 H 1577.62 3.34317 2.30189 0
M  V30 16993 H 1578.38 4.83944 0.319815 0
M  V30 16994 H 1574.26 4.37454 1.45448 0
M  V30 16995 H 1577.8 6.92069 -0.876728 0
M  V30 16996 H 1573.7 6.44958 0.26451 0
M  V30 16997 H 1574.47 8.12903 -0.95555 0
M  V30 16998 N 1577.13 -0.380637 1.52934 0
M  V30 16999 C 1578.06 -1.47174 1.81279 0
M  V30 17000 C 1579.04 -1.56549 0.665319 0
M  V30 17001 O 1580.23 -1.71362 0.913722 0
M  V30 17002 C 1577.36 -2.84691 1.98918 0
M  V30 17003 C 1576.31 -2.90151 3.14637 0
M  V30 17004 C 1575.64 -4.30198 3.17544 0
M  V30 17005 C 1576.94 -2.59037 4.53539 0
M  V30 17006 H 1578.63 -1.23703 2.7265 0
M  V30 17007 H 1576.18 -0.593654 1.31194 0
M  V30 17008 H 1578.13 -3.61034 2.1733 0
M  V30 17009 H 1576.86 -3.09517 1.04244 0
M  V30 17010 H 1575.51 -2.16257 2.96021 0
M  V30 17011 H 1575.16 -4.52076 2.20536 0
M  V30 17012 H 1574.86 -4.3477 3.95284 0
M  V30 17013 H 1576.39 -5.08435 3.38121 0
M  V30 17014 H 1577.8 -3.25096 4.72214 0
M  V30 17015 H 1576.2 -2.74946 5.33408 0
M  V30 17016 H 1577.27 -1.54342 4.59681 0
M  V30 17017 N 1578.61 -1.44039 -0.639573 0
M  V30 17018 C 1579.86 -1.46594 -1.40136 0
M  V30 17019 C 1580.19 -0.0949646 -1.93968 0
M  V30 17020 O 1579.46 0.886201 -1.73138 0
M  V30 17021 C 1579.75 -2.51947 -2.57283 0
M  V30 17022 C 1579.6 -3.98371 -2.08855 0
M  V30 17023 C 1580.92 -2.53891 -3.59482 0
M  V30 17024 H 1578.04 -0.533759 -0.508203 0
M  V30 17025 H 1580.68 -1.75669 -0.723898 0
M  V30 17026 H 1578.83 -2.27285 -3.15077 0
M  V30 17027 H 1580.5 -4.34137 -1.55956 0
M  V30 17028 H 1578.75 -4.10551 -1.40109 0
M  V30 17029 H 1579.42 -4.67721 -2.93157 0
M  V30 17030 H 1581.89 -2.75906 -3.11473 0
M  V30 17031 H 1580.77 -3.29524 -4.38982 0
M  V30 17032 H 1581.03 -1.57774 -4.12989 0
M  V30 17033 N 1580.09 0.879207 -1.30796 0
M  V30 17034 C 1581.37 1.61328 -1.10602 0
M  V30 17035 C 1581.75 2.08301 0.342621 0
M  V30 17036 O 1581.09 1.85436 1.33514 0
M  V30 17037 C 1581.3 2.77838 -2.11203 0
M  V30 17038 C 1582.65 3.48028 -2.43231 0
M  V30 17039 O 1583.68 2.88034 -2.09559 0
M  V30 17040 O 1582.53 4.56233 -3.00854 0
M  V30 17041 H 1579.63 0.709335 -0.425174 0
M  V30 17042 H 1582.17 0.925478 -1.42243 0
M  V30 17043 H 1580.95 2.40475 -3.08687 0
M  V30 17044 H 1580.57 3.54312 -1.80414 0
M  V30 17045 N 1581.57 1.13606 1.09231 0
M  V30 17046 C 1582.5 0.77306 2.15769 0
M  V30 17047 C 1583.51 -0.206148 1.6149 0
M  V30 17048 O 1584.7 0.014338 1.78494 0
M  V30 17049 C 1581.8 0.125475 3.38668 0
M  V30 17050 C 1580.97 1.13728 4.22356 0
M  V30 17051 C 1580.03 0.515021 5.23674 0
M  V30 17052 O 1579.06 1.1756 5.56928 0
M  V30 17053 N 1580.26 -0.712028 5.76117 0
M  V30 17054 H 1583.03 1.68984 2.47517 0
M  V30 17055 H 1580.59 1.02935 1.24964 0
M  V30 17056 H 1582.58 -0.303109 4.03563 0
M  V30 17057 H 1581.15 -0.694284 3.04792 0
M  V30 17058 H 1580.37 1.74309 3.53568 0
M  V30 17059 H 1581.66 1.82106 4.75094 0
M  V30 17060 H 1581.06 -1.26745 5.51319 0
M  V30 17061 H 1579.61 -1.08324 6.42736 0
M  V30 17062 N 1583.05 -1.27244 0.929878 0
M  V30 17063 C 1584.29 -1.94902 0.5818 0
M  V30 17064 C 1584.65 -1.71719 -0.867768 0
M  V30 17065 O 1583.94 -1.03697 -1.61113 0
M  V30 17066 C 1584.13 -3.47233 0.846386 0
M  V30 17067 C 1583.96 -3.85228 2.32012 0
M  V30 17068 C 1582.73 -4.08567 2.97323 0
M  V30 17069 C 1584.93 -3.94651 3.2978 0
M  V30 17070 N 1582.91 -4.33358 4.34826 0
M  V30 17071 C 1584.28 -4.23843 4.52501 0
M  V30 17072 C 1586.34 -3.77235 3.24959 0
M  V30 17073 C 1585.04 -4.37431 5.71005 0
M  V30 17074 C 1587.07 -3.92049 4.42777 0
M  V30 17075 C 1586.43 -4.21629 5.64277 0
M  V30 17076 H 1582.53 -0.736425 0.263063 0
M  V30 17077 H 1585.11 -1.53562 1.19695 0
M  V30 17078 H 1583.28 -3.87526 0.260378 0
M  V30 17079 H 1585.02 -4.02069 0.460717 0
M  V30 17080 H 1581.77 -4.03486 2.47984 0
M  V30 17081 H 1582.19 -4.49807 5.05967 0
M  V30 17082 H 1586.84 -3.53404 2.32089 0
M  V30 17083 H 1584.55 -4.60087 6.64339 0
M  V30 17084 H 1588.14 -3.7999 4.40567 0
M  V30 17085 H 1587.02 -4.32843 6.53924 0
M  V30 17086 N 1584.52 -0.695628 -1.41417 0
M  V30 17087 C 1585.94 -0.367185 -1.55319 0
M  V30 17088 C 1586.14 1.12584 -1.67114 0
M  V30 17089 O 1585.2 1.91166 -1.64959 0
M  V30 17090 C 1586.51 -1.11576 -2.79233 0
M  V30 17091 C 1588.06 -1.10011 -2.9303 0
M  V30 17092 C 1588.53 -1.83044 -4.19832 0
M  V30 17093 N 1590.02 -1.80014 -4.26789 0
M  V30 17094 C 1590.76 -2.33362 -5.23765 0
M  V30 17095 N 1590.25 -2.95182 -6.26769 0
M  V30 17096 N 1592.05 -2.23618 -5.15705 0
M  V30 17097 H 1584.2 -1.66398 -1.32006 0
M  V30 17098 H 1586.46 -0.702205 -0.636877 0
M  V30 17099 H 1586.17 -2.1706 -2.76727 0
M  V30 17100 H 1586.04 -0.694385 -3.70753 0
M  V30 17101 H 1588.43 -0.0535436 -2.95051 0
M  V30 17102 H 1588.51 -1.56055 -2.02683 0
M  V30 17103 H 1588.15 -2.8768 -4.18572 0
M  V30 17104 H 1588.08 -1.34434 -5.09151 0
M  V30 17105 H 1590.57 -1.34942 -3.52986 0
M  V30 17106 H 1590.89 -3.33456 -6.97156 0
M  V30 17107 H 1589.23 -2.99259 -6.27271 0
M  V30 17108 H 1592.42 -1.74994 -4.3416 0
M  V30 17109 H 1592.6 -2.65497 -5.91113 0
M  V30 17110 N 1586 1.51322 -0.440383 0
M  V30 17111 C 1587.25 2.0306 0.117497 0
M  V30 17112 C 1587.6 1.31849 1.4012 0
M  V30 17113 O 1586.9 0.4256 1.86813 0
M  V30 17114 C 1587.09 3.55287 0.388079 0
M  V30 17115 C 1586.92 4.41247 -0.867845 0
M  V30 17116 C 1585.69 4.85453 -1.40226 0
M  V30 17117 C 1587.89 4.83436 -1.75483 0
M  V30 17118 N 1585.87 5.55636 -2.61041 0
M  V30 17119 C 1587.24 5.52716 -2.80901 0
M  V30 17120 C 1589.29 4.65419 -1.76888 0
M  V30 17121 C 1588 6.05889 -3.87674 0
M  V30 17122 C 1590.02 5.19511 -2.82598 0
M  V30 17123 C 1589.39 5.8874 -3.86736 0
M  V30 17124 H 1585.48 0.781991 0.00375238 0
M  V30 17125 H 1588.07 1.85168 -0.601734 0
M  V30 17126 H 1586.24 3.73188 1.07635 0
M  V30 17127 H 1587.97 3.93689 0.937586 0
M  V30 17128 H 1584.73 4.63856 -0.955753 0
M  V30 17129 H 1585.15 5.95352 -3.22312 0
M  V30 17130 H 1589.79 4.11355 -0.977064 0
M  V30 17131 H 1587.51 6.59007 -4.67692 0
M  V30 17132 H 1591.1 5.07421 -2.84631 0
M  V30 17133 H 1589.98 6.29845 -4.67189 0
M  V30 17134 N 1587.48 0.171848 1.5666 0
M  V30 17135 C 1588.9 -0.184312 1.58532 0
M  V30 17136 C 1589.1 -1.62811 1.18721 0
M  V30 17137 O 1588.15 -2.35951 0.899066 0
M  V30 17138 C 1589.46 0.0969826 3.00544 0
M  V30 17139 C 1591.01 0.0352364 3.1298 0
M  V30 17140 C 1591.49 0.289528 4.57084 0
M  V30 17141 N 1592.98 0.237322 4.62592 0
M  V30 17142 C 1593.71 0.408247 5.71945 0
M  V30 17143 N 1593.21 0.638256 6.89854 0
M  V30 17144 N 1595 0.344115 5.61046 0
M  V30 17145 H 1587.15 1.11427 1.80825 0
M  V30 17146 H 1589.42 0.44302 0.838115 0
M  V30 17147 H 1589.12 1.09717 3.34148 0
M  V30 17148 H 1589 -0.611157 3.72216 0
M  V30 17149 H 1591.38 -0.955531 2.79202 0
M  V30 17150 H 1591.46 0.776095 2.43743 0
M  V30 17151 H 1591.11 1.27751 4.91571 0
M  V30 17152 H 1591.04 -0.471948 5.24481 0
M  V30 17153 H 1593.53 0.0652142 3.77844 0
M  V30 17154 H 1593.84 0.758116 7.69072 0
M  V30 17155 H 1592.19 0.674877 6.91716 0
M  V30 17156 H 1595.38 0.165008 4.67809 0
M  V30 17157 H 1595.55 0.480749 6.46214 0
M  V30 17158 N 1588.96 -1.5727 -0.101874 0
M  V30 17159 C 1590.2 -1.86017 -0.807795 0
M  V30 17160 C 1590.54 -0.760024 -1.7871 0
M  V30 17161 O 1589.81 0.232627 -1.93104 0
M  V30 17162 C 1590.09 -3.25388 -1.54255 0
M  V30 17163 C 1589.95 -4.46023 -0.581693 0
M  V30 17164 C 1591.27 -3.62561 -2.49474 0
M  V30 17165 H 1588.39 -0.676596 -0.29221 0
M  V30 17166 H 1591.03 -1.89865 -0.0715861 0
M  V30 17167 H 1589.18 -3.22239 -2.17013 0
M  V30 17168 H 1590.85 -4.61284 0.0383529 0
M  V30 17169 H 1589.09 -4.33672 0.105465 0
M  V30 17170 H 1589.76 -5.40251 -1.1328 0
M  V30 17171 H 1592.24 -3.66611 -1.96813 0
M  V30 17172 H 1591.12 -4.61025 -2.97905 0
M  V30 17173 H 1591.38 -2.90885 -3.32924 0
M  V30 17174 N 1590.44 0.372521 -1.53134 0
M  V30 17175 C 1591.68 1.11589 -1.6898 0
M  V30 17176 C 1592.01 1.89503 -0.438049 0
M  V30 17177 O 1591.27 1.86911 0.579891 0
M  V30 17178 C 1591.56 2.10742 -2.88656 0
M  V30 17179 C 1591.23 1.49361 -4.25443 0
M  V30 17180 C 1589.89 1.32348 -4.62642 0
M  V30 17181 C 1592.24 1.04889 -5.10537 0
M  V30 17182 C 1589.57 0.694368 -5.82577 0
M  V30 17183 C 1591.92 0.433809 -6.31111 0
M  V30 17184 C 1590.59 0.251118 -6.67027 0
M  V30 17185 H 1589.86 0.408333 -0.618341 0
M  V30 17186 H 1592.51 0.398507 -1.87308 0
M  V30 17187 H 1590.81 2.88759 -2.64812 0
M  V30 17188 H 1592.51 2.682 -2.98111 0
M  V30 17189 H 1589.1 1.63594 -3.9615 0
M  V30 17190 H 1593.28 1.16829 -4.82353 0
M  V30 17191 H 1588.54 0.541171 -6.09 0
M  V30 17192 H 1592.71 0.0809859 -6.96353 0
M  V30 17193 H 1590.34 -0.23844 -7.59826 0
M  V30 17194 N 1591.91 1.44376 0.631925 0
M  V30 17195 C 1593.19 1.37592 1.39024 0
M  V30 17196 C 1593.57 0.0342456 2.11072 0
M  V30 17197 O 1592.92 -0.983136 2.06268 0
M  V30 17198 C 1593.13 2.57355 2.35732 0
M  V30 17199 C 1594.48 3.01384 2.99087 0
M  V30 17200 O 1595.5 2.57554 2.46057 0
M  V30 17201 O 1594.36 3.77375 3.95285 0
M  V30 17202 H 1591.45 0.544828 0.622167 0
M  V30 17203 H 1594 1.56464 0.657048 0
M  V30 17204 H 1592.77 3.46615 1.81587 0
M  V30 17205 H 1592.39 2.40693 3.16469 0
M  V30 17206 N 1593.39 -0.872258 1.31261 0
M  V30 17207 C 1594.64 -1.6219 1.20576 0
M  V30 17208 C 1594.96 -1.93557 -0.236769 0
M  V30 17209 O 1594.23 -1.58094 -1.15686 0
M  V30 17210 H 1592.81 -0.601265 0.443272 0
M  V30 17211 H 1595.47 -1.04438 1.64556 0
M  V30 17212 H 1594.57 -2.56653 1.77582 0
M  V30 17213 N 1594.87 -1.14184 -1.08627 0
M  V30 17214 C 1596.09 -0.932504 -1.85254 0
M  V30 17215 C 1596.52 0.513792 -1.80947 0
M  V30 17216 O 1595.88 1.36525 -1.19292 0
M  V30 17217 C 1595.93 -1.43519 -3.30809 0
M  V30 17218 O 1595.03 -0.625806 -4.07624 0
M  V30 17219 H 1594.37 -0.333573 -0.57413 0
M  V30 17220 H 1596.9 -1.51853 -1.3712 0
M  V30 17221 H 1596.91 -1.44238 -3.81654 0
M  V30 17222 H 1595.59 -2.48819 -3.3326 0
M  V30 17223 H 1594.16 -0.687168 -3.66514 0
M  V30 17224 N 1596.35 1.26749 -0.936613 0
M  V30 17225 C 1597.6 1.93255 -0.577524 0
M  V30 17226 C 1597.91 1.74337 0.886905 0
M  V30 17227 O 1599.12 2.3526 1.35517 0
M  V30 17228 C 1597.57 3.4624 -0.982119 0
M  V30 17229 C 1597.18 3.739 -2.46784 0
M  V30 17230 C 1598.92 4.18777 -0.694706 0
M  V30 17231 C 1596.83 5.20303 -2.81138 0
M  V30 17232 H 1595.76 0.723502 -0.212276 0
M  V30 17233 H 1598.41 1.43901 -1.13863 0
M  V30 17234 H 1596.79 3.94454 -0.349577 0
M  V30 17235 H 1597.97 3.3641 -3.14905 0
M  V30 17236 H 1596.28 3.14587 -2.72808 0
M  V30 17237 H 1598.88 5.2659 -0.927756 0
M  V30 17238 H 1599.22 4.14667 0.368392 0
M  V30 17239 H 1599.76 3.76414 -1.28676 0
M  V30 17240 H 1596.5 5.29511 -3.86392 0
M  V30 17241 H 1596.02 5.58907 -2.17675 0
M  V30 17242 H 1597.69 5.88265 -2.69358 0
M  V30 17243 N 1597.83 0.703118 1.41046 0
M  V30 17244 C 1599.05 0.246552 2.05426 0
M  V30 17245 C 1599.47 -1.10704 1.52938 0
M  V30 17246 O 1598.83 -1.69329 0.680733 0
M  V30 17247 C 1598.88 0.203953 3.60924 0
M  V30 17248 O 1598.6 1.50408 4.11472 0
M  V30 17249 C 1600.1 -0.272686 4.42461 0
M  V30 17250 H 1597.32 0.113157 0.66139 0
M  V30 17251 H 1599.86 0.957823 1.80682 0
M  V30 17252 H 1598.02 -0.458194 3.84681 0
M  V30 17253 H 1598.43 1.39622 5.05575 0
M  V30 17254 H 1599.91 -0.251357 5.51427 0
M  V30 17255 H 1600.38 -1.31282 4.1912 0
M  V30 17256 H 1600.99 0.358733 4.23784 0
M  V30 17257 N 1599.3 -1.51086 0.448402 0
M  V30 17258 C 1600.25 -2.28015 -0.357438 0
M  V30 17259 C 1601.22 -1.32079 -1.00719 0
M  V30 17260 O 1602.41 -1.60995 -1.02398 0
M  V30 17261 C 1599.55 -3.13324 -1.44644 0
M  V30 17262 C 1598.66 -4.24267 -0.813729 0
M  V30 17263 C 1597.79 -4.96868 -1.87871 0
M  V30 17264 C 1596.83 -5.99716 -1.22502 0
M  V30 17265 N 1595.97 -6.65682 -2.23185 0
M  V30 17266 H 1600.81 -2.96436 0.30493 0
M  V30 17267 H 1598.35 -1.46203 0.162222 0
M  V30 17268 H 1600.31 -3.61119 -2.08924 0
M  V30 17269 H 1598.94 -2.46996 -2.07829 0
M  V30 17270 H 1597.99 -3.80354 -0.0589414 0
M  V30 17271 H 1599.3 -4.97917 -0.296587 0
M  V30 17272 H 1598.45 -5.48266 -2.59786 0
M  V30 17273 H 1597.19 -4.22873 -2.42961 0
M  V30 17274 H 1596.2 -5.476 -0.491388 0
M  V30 17275 H 1597.42 -6.75674 -0.681315 0
M  V30 17276 H 1595.37 -5.94493 -2.77334 0
M  V30 17277 H 1595.29 -7.35134 -1.76393 0
M  V30 17278 H 1596.55 -7.21707 -2.9455 0
M  V30 17279 N 1600.78 -0.180154 -1.56567 0
M  V30 17280 C 1601.69 0.758959 -2.21984 0
M  V30 17281 C 1602.71 1.24631 -1.21422 0
M  V30 17282 O 1603.88 1.29659 -1.54112 0
M  V30 17283 C 1600.95 1.96744 -2.85469 0
M  V30 17284 C 1600.01 1.52612 -4.01258 0
M  V30 17285 C 1599.24 2.677 -4.61706 0
M  V30 17286 O 1599.47 3.84799 -4.21054 0
M  V30 17287 O 1598.4 2.41269 -5.51428 0
M  V30 17288 H 1602.23 0.231919 -3.02813 0
M  V30 17289 H 1599.81 0.0484552 -1.49321 0
M  V30 17290 H 1601.69 2.67404 -3.25689 0
M  V30 17291 H 1600.37 2.48337 -2.0763 0
M  V30 17292 H 1599.28 0.78877 -3.6569 0
M  V30 17293 H 1600.61 1.05701 -4.80716 0
M  V30 17294 N 1602.26 1.57322 0.0935319 0
M  V30 17295 C 1603.21 2.03184 1.13222 0
M  V30 17296 C 1604.2 0.933184 1.41379 0
M  V30 17297 O 1605.41 1.11836 1.41042 0
M  V30 17298 H 1601.78 0.647541 0.382354 0
M  V30 17299 H 1603.75 2.89606 0.719105 0
M  V30 17300 C 1602.5 2.47336 2.44378 0
M  V30 17301 H 1601.83 3.31456 2.23556 0
M  V30 17302 H 1603.27 2.83199 3.15554 0
M  V30 17303 C 1601.73 1.34728 3.08788 0
M  V30 17304 O 1602.26 0.677285 3.95949 0
M  V30 17305 N 1600.46 1.09787 2.69063 0
M  V30 17306 H 1600.01 1.64451 1.98277 0
M  V30 17307 H 1599.97 0.346436 3.12485 0
M  V30 17308 N 1603.74 -0.364395 1.53329 0
M  V30 17309 C 1604.97 -1.12586 1.73228 0
M  V30 17310 C 1605.38 -1.83482 0.461614 0
M  V30 17311 O 1604.72 -1.74459 -0.575295 0
M  V30 17312 C 1604.78 -2.1994 2.84371 0
M  V30 17313 C 1604.45 -1.688 4.24683 0
M  V30 17314 C 1605.44 -1.15145 5.06989 0
M  V30 17315 C 1603.13 -1.74277 4.71097 0
M  V30 17316 C 1605.12 -0.676447 6.338 0
M  V30 17317 C 1602.81 -1.26389 5.97887 0
M  V30 17318 C 1603.81 -0.731632 6.7907 0
M  V30 17319 O 1603.49 -0.259825 8.0348 0
M  V30 17320 H 1603.23 -0.342514 0.582804 0
M  V30 17321 H 1605.78 -0.428832 2.00874 0
M  V30 17322 H 1604.01 -2.9314 2.52202 0
M  V30 17323 H 1605.7 -2.81489 2.92436 0
M  V30 17324 H 1606.47 -1.10251 4.72303 0
M  V30 17325 H 1602.34 -2.14647 4.0798 0
M  V30 17326 H 1605.89 -0.260327 6.97114 0
M  V30 17327 H 1601.79 -1.30977 6.32072 0
M  V30 17328 H 1602.55 -0.379044 8.17622 0
M  V30 17329 N 1605.22 -1.44709 -0.62426 0
M  V30 17330 C 1606.16 -1.52413 -1.75707 0
M  V30 17331 C 1607.16 -0.395303 -1.64723 0
M  V30 17332 O 1608.36 -0.570535 -1.70719 0
M  V30 17333 H 1604.74 -0.478401 -0.580204 0
M  V30 17334 H 1606.71 -2.47742 -1.66333 0
M  V30 17335 C 1605.46 -1.49208 -3.14058 0
M  V30 17336 H 1604.78 -2.35387 -3.23161 0
M  V30 17337 H 1606.22 -1.58658 -3.93197 0
M  V30 17338 C 1604.68 -0.213877 -3.3622 0
M  V30 17339 O 1605.21 0.713128 -3.95319 0
M  V30 17340 N 1603.42 -0.114834 -2.90373 0
M  V30 17341 H 1602.96 -0.870047 -2.42462 0
M  V30 17342 H 1602.92 0.739619 -3.05576 0
M  V30 17343 N 1606.69 0.865285 -1.31722 0
M  V30 17344 C 1607.63 1.97919 -1.15588 0
M  V30 17345 C 1608.64 1.6253 -0.0936929 0
M  V30 17346 O 1609.83 1.752 -0.341639 0
M  V30 17347 C 1606.93 3.30614 -0.744814 0
M  V30 17348 C 1606.1 3.94314 -1.89301 0
M  V30 17349 C 1605.16 5.0533 -1.46724 0
M  V30 17350 O 1604.19 5.25898 -2.17762 0
M  V30 17351 N 1605.39 5.794 -0.357262 0
M  V30 17352 H 1608.15 2.12304 -2.11535 0
M  V30 17353 H 1605.71 1.03953 -1.24118 0
M  V30 17354 H 1607.71 4.02273 -0.442594 0
M  V30 17355 H 1606.28 3.12357 0.123186 0
M  V30 17356 H 1605.5 3.15577 -2.3623 0
M  V30 17357 H 1606.78 4.33609 -2.66196 0
M  V30 17358 H 1606.18 5.65215 0.23423 0
M  V30 17359 H 1604.74 6.51699 -0.114599 0
M  V30 17360 N 1608.17 1.14759 1.0802 0
M  V30 17361 C 1609.08 0.851934 2.18585 0
M  V30 17362 C 1610.1 -0.16914 1.73176 0
M  V30 17363 O 1611.27 0.00330114 2.014 0
M  V30 17364 C 1608.34 0.337977 3.45049 0
M  V30 17365 C 1607.4 1.4221 4.05061 0
M  V30 17366 C 1606.63 0.932574 5.25489 0
M  V30 17367 O 1606.86 -0.224457 5.69958 0
M  V30 17368 O 1605.79 1.7133 5.77001 0
M  V30 17369 H 1609.62 1.77605 2.46354 0
M  V30 17370 H 1607.2 0.926159 1.17229 0
M  V30 17371 H 1609.08 0.0574734 4.21361 0
M  V30 17372 H 1607.76 -0.558363 3.18848 0
M  V30 17373 H 1606.67 1.75612 3.3032 0
M  V30 17374 H 1608 2.29311 4.3552 0
M  V30 17375 N 1609.65 -1.26251 0.943322 0
M  V30 17376 C 1610.9 -1.94274 0.602439 0
M  V30 17377 C 1611.25 -1.7263 -0.849506 0
M  V30 17378 O 1610.54 -1.054 -1.60004 0
M  V30 17379 C 1610.74 -3.46316 0.883167 0
M  V30 17380 C 1610.57 -3.82745 2.36085 0
M  V30 17381 C 1609.34 -4.05391 3.01639 0
M  V30 17382 C 1611.54 -3.91131 3.33947 0
M  V30 17383 N 1609.52 -4.28722 4.39398 0
M  V30 17384 C 1610.89 -4.19019 4.56971 0
M  V30 17385 C 1612.94 -3.73767 3.28942 0
M  V30 17386 C 1611.65 -4.3135 5.75613 0
M  V30 17387 C 1613.67 -3.8733 4.46911 0
M  V30 17388 C 1613.03 -4.1562 5.68717 0
M  V30 17389 H 1609.13 -0.733594 0.270859 0
M  V30 17390 H 1611.72 -1.52284 1.21317 0
M  V30 17391 H 1609.89 -3.87228 0.301466 0
M  V30 17392 H 1611.62 -4.01558 0.503336 0
M  V30 17393 H 1608.38 -4.00833 2.5225 0
M  V30 17394 H 1608.8 -4.44416 5.10709 0
M  V30 17395 H 1613.44 -3.50922 2.35825 0
M  V30 17396 H 1611.16 -4.53015 6.69181 0
M  V30 17397 H 1614.75 -3.75296 4.44572 0
M  V30 17398 H 1613.63 -4.25883 6.58478 0
M  V30 17399 N 1611.13 -0.710588 -1.40671 0
M  V30 17400 C 1612.38 -0.257123 -2.01768 0
M  V30 17401 C 1612.73 1.13545 -1.55323 0
M  V30 17402 O 1612.02 1.75831 -0.761183 0
M  V30 17403 C 1612.22 -0.270478 -3.56375 0
M  V30 17404 C 1612.05 -1.66282 -4.17828 0
M  V30 17405 C 1610.82 -2.26928 -4.51478 0
M  V30 17406 C 1613.01 -2.61216 -4.43025 0
M  V30 17407 N 1611 -3.58569 -4.98298 0
M  V30 17408 C 1612.37 -3.77557 -4.91783 0
M  V30 17409 C 1614.42 -2.59291 -4.25056 0
M  V30 17410 C 1613.13 -4.92274 -5.24461 0
M  V30 17411 C 1615.15 -3.73132 -4.58831 0
M  V30 17412 C 1614.51 -4.88205 -5.07775 0
M  V30 17413 H 1610.61 -0.13981 -0.7694 0
M  V30 17414 H 1613.2 -0.931308 -1.70982 0
M  V30 17415 H 1611.37 0.373251 -3.86602 0
M  V30 17416 H 1613.1 0.199227 -4.04209 0
M  V30 17417 H 1609.85 -1.79072 -4.38441 0
M  V30 17418 H 1610.28 -4.26088 -5.26097 0
M  V30 17419 H 1614.92 -1.71533 -3.86441 0
M  V30 17420 H 1612.64 -5.80681 -5.61992 0
M  V30 17421 H 1616.22 -3.72912 -4.46573 0
M  V30 17422 H 1615.1 -5.74835 -5.33418 0
M  V30 17423 N 1612.61 1.50847 -0.456408 0
M  V30 17424 C 1613.83 2.07139 0.104054 0
M  V30 17425 C 1614.26 1.31966 1.34039 0
M  V30 17426 O 1613.62 0.363038 1.77628 0
M  V30 17427 C 1613.66 3.5853 0.385794 0
M  V30 17428 O 1612.77 3.85351 1.46895 0
M  V30 17429 H 1612.11 0.663968 -0.00651246 0
M  V30 17430 H 1614.64 1.94226 -0.64323 0
M  V30 17431 H 1614.65 4.03097 0.630644 0
M  V30 17432 H 1613.32 4.12665 -0.51773 0
M  V30 17433 H 1611.9 3.52635 1.21256 0
M  V30 17434 N 1614.09 0.188454 1.56469 0
M  V30 17435 C 1615.02 -0.730379 2.21783 0
M  V30 17436 C 1616 -1.22629 1.17882 0
M  V30 17437 O 1617.18 -1.27634 1.46367 0
M  V30 17438 C 1614.31 -1.95278 2.872 0
M  V30 17439 C 1613.27 -1.59205 3.97288 0
M  V30 17440 C 1612.59 -2.89052 4.49836 0
M  V30 17441 C 1613.89 -0.807027 5.16027 0
M  V30 17442 H 1615.59 -0.185914 2.98822 0
M  V30 17443 H 1613.13 -0.0879804 1.43731 0
M  V30 17444 H 1615.08 -2.60074 3.31571 0
M  V30 17445 H 1613.81 -2.52167 2.07556 0
M  V30 17446 H 1612.47 -0.967713 3.53597 0
M  V30 17447 H 1612.12 -3.44017 3.66963 0
M  V30 17448 H 1611.82 -2.65663 5.24115 0
M  V30 17449 H 1613.34 -3.54847 4.96906 0
M  V30 17450 H 1614.75 -1.35794 5.56986 0
M  V30 17451 H 1613.15 -0.671516 5.96331 0
M  V30 17452 H 1614.22 0.193251 4.84515 0
M  V30 17453 N 1615.56 -1.5737 -0.0851874 0
M  V30 17454 C 1616.98 -1.53425 -0.439651 0
M  V30 17455 C 1617.18 -0.906663 -1.7995 0
M  V30 17456 O 1616.24 -0.503414 -2.47431 0
M  V30 17457 C 1617.55 -2.9812 -0.393028 0
M  V30 17458 C 1619.1 -3.09387 -0.474175 0
M  V30 17459 C 1619.57 -4.55708 -0.457598 0
M  V30 17460 N 1621.06 -4.60294 -0.518065 0
M  V30 17461 C 1621.8 -5.70971 -0.527237 0
M  V30 17462 N 1621.29 -6.91051 -0.492023 0
M  V30 17463 N 1623.09 -5.59174 -0.572792 0
M  V30 17464 H 1615.24 -1.96538 0.805399 0
M  V30 17465 H 1617.5 -0.899 0.300836 0
M  V30 17466 H 1617.21 -3.47542 0.539204 0
M  V30 17467 H 1617.08 -3.57324 -1.20829 0
M  V30 17468 H 1619.47 -2.59948 -1.39683 0
M  V30 17469 H 1619.55 -2.53119 0.369411 0
M  V30 17470 H 1619.19 -5.05802 0.46115 0
M  V30 17471 H 1619.12 -5.09826 -1.31853 0
M  V30 17472 H 1621.61 -3.73875 -0.550072 0
M  V30 17473 H 1621.93 -7.71164 -0.502578 0
M  V30 17474 H 1620.27 -6.93483 -0.458917 0
M  V30 17475 H 1623.46 -4.64266 -0.597901 0
M  V30 17476 H 1623.64 -6.45431 -0.576471 0
M  V30 17477 N 1617.04 0.356258 -1.53521 0
M  V30 17478 C 1617.97 1.44271 -1.83598 0
M  V30 17479 C 1618.95 1.5547 -0.690141 0
M  V30 17480 O 1620.14 1.69886 -0.940868 0
M  V30 17481 C 1617.27 2.8149 -2.03422 0
M  V30 17482 C 1616.22 2.85108 -3.19213 0
M  V30 17483 C 1615.55 4.25091 -3.24348 0
M  V30 17484 C 1616.85 2.51788 -4.57602 0
M  V30 17485 H 1618.54 1.1935 -2.74583 0
M  V30 17486 H 1616.09 0.572707 -1.32121 0
M  V30 17487 H 1618.04 3.57531 -2.23046 0
M  V30 17488 H 1616.76 3.07819 -1.09155 0
M  V30 17489 H 1615.42 2.1152 -2.99424 0
M  V30 17490 H 1615.07 4.4851 -2.277 0
M  V30 17491 H 1614.77 4.28426 -4.0215 0
M  V30 17492 H 1616.3 5.02992 -3.46167 0
M  V30 17493 H 1617.71 3.17542 -4.77326 0
M  V30 17494 H 1616.11 2.66426 -5.37715 0
M  V30 17495 H 1617.18 1.4701 -4.62078 0
M  V30 17496 N 1618.52 1.45038 0.616577 0
M  V30 17497 C 1619.47 1.53022 1.7278 0
M  V30 17498 C 1620.44 0.376778 1.6177 0
M  V30 17499 O 1621.62 0.589006 1.81481 0
M  V30 17500 C 1618.76 1.49432 3.11069 0
M  V30 17501 C 1617.87 2.7526 3.3295 0
M  V30 17502 C 1617.01 2.63403 4.61294 0
M  V30 17503 C 1616.05 3.84327 4.76402 0
M  V30 17504 N 1615.19 3.71058 5.96037 0
M  V30 17505 H 1620.03 2.47957 1.65292 0
M  V30 17506 H 1617.56 1.23046 0.806102 0
M  V30 17507 H 1619.52 1.45339 3.91066 0
M  V30 17508 H 1618.15 0.580542 3.17537 0
M  V30 17509 H 1617.2 2.89479 2.46792 0
M  V30 17510 H 1618.51 3.64978 3.39989 0
M  V30 17511 H 1617.67 2.57226 5.49472 0
M  V30 17512 H 1616.41 1.7127 4.56638 0
M  V30 17513 H 1615.41 3.90873 3.8665 0
M  V30 17514 H 1616.64 4.77515 4.82863 0
M  V30 17515 H 1614.58 2.81687 5.92443 0
M  V30 17516 H 1614.5 4.54403 6.04197 0
M  V30 17517 H 1615.77 3.68798 6.86738 0
M  V30 17518 N 1620 -0.858287 1.32179 0
M  V30 17519 C 1621.23 -1.64235 1.25341 0
M  V30 17520 C 1621.64 -1.88327 -0.181568 0
M  V30 17521 O 1620.98 -1.44996 -1.12791 0
M  V30 17522 C 1621.04 -3.02686 1.93963 0
M  V30 17523 C 1620.7 -3.01651 3.43301 0
M  V30 17524 C 1621.7 -2.78762 4.38848 0
M  V30 17525 C 1619.39 -3.22402 3.85178 0
M  V30 17526 C 1621.38 -2.76621 5.74247 0
M  V30 17527 C 1619.07 -3.19888 5.20687 0
M  V30 17528 C 1620.07 -2.97026 6.15032 0
M  V30 17529 O 1619.75 -2.94379 7.48061 0
M  V30 17530 H 1619.49 -0.518387 0.433879 0
M  V30 17531 H 1622.04 -1.07869 1.74795 0
M  V30 17532 H 1620.27 -3.60826 1.39074 0
M  V30 17533 H 1621.96 -3.63367 1.80884 0
M  V30 17534 H 1622.72 -2.62501 4.07821 0
M  V30 17535 H 1618.6 -3.39223 3.12167 0
M  V30 17536 H 1622.15 -2.58696 6.4786 0
M  V30 17537 H 1618.04 -3.35693 5.51344 0
M  V30 17538 H 1618.81 -3.10359 7.57377 0
M  V30 17539 N 1621.48 -1.1533 -1.07409 0
M  V30 17540 C 1622.41 -0.807289 -2.14512 0
M  V30 17541 C 1623.42 0.18043 -1.61797 0
M  V30 17542 O 1624.61 -0.042733 -1.78449 0
M  V30 17543 C 1621.71 -0.179338 -3.38425 0
M  V30 17544 C 1620.88 -1.20433 -4.20493 0
M  V30 17545 C 1619.94 -0.598268 -5.22788 0
M  V30 17546 O 1618.97 -1.26405 -5.54987 0
M  V30 17547 N 1620.17 0.620283 -5.77177 0
M  V30 17548 H 1622.93 -1.729 -2.44797 0
M  V30 17549 H 1620.5 -1.0491 -1.23311 0
M  V30 17550 H 1622.49 0.238867 -4.03994 0
M  V30 17551 H 1621.06 0.645706 -3.05858 0
M  V30 17552 H 1620.28 -1.79912 -3.5075 0
M  V30 17553 H 1621.57 -1.89642 -4.72137 0
M  V30 17554 H 1620.96 1.17958 -5.53265 0
M  V30 17555 H 1619.52 0.980853 -6.44378 0
M  V30 17556 N 1622.95 1.25748 -0.950004 0
M  V30 17557 C 1624.2 1.92954 -0.601104 0
M  V30 17558 C 1624.52 1.74817 0.863953 0
M  V30 17559 O 1623.79 1.10904 1.61484 0
M  V30 17560 H 1622.37 0.714077 -0.219325 0
M  V30 17561 H 1625.03 1.53009 -1.20724 0
M  V30 17562 H 1624.13 3.00959 -0.826447 0
M  V30 17563 N 1624.43 0.718038 1.40292 0
M  V30 17564 C 1625.36 0.0818367 2.33357 0
M  V30 17565 C 1626.34 -0.742854 1.53022 0
M  V30 17566 O 1627.53 -0.691281 1.8148 0
M  V30 17567 C 1624.66 -0.838843 3.37017 0
M  V30 17568 C 1623.61 -0.119589 4.27833 0
M  V30 17569 C 1622.94 -1.15615 5.22051 0
M  V30 17570 C 1624.24 1.02769 5.1209 0
M  V30 17571 H 1625.93 0.859167 2.86808 0
M  V30 17572 H 1623.48 0.414606 1.37902 0
M  V30 17573 H 1625.43 -1.29332 4.01063 0
M  V30 17574 H 1624.15 -1.6481 2.81967 0
M  V30 17575 H 1622.81 0.315088 3.65243 0
M  V30 17576 H 1622.46 -1.95852 4.63304 0
M  V30 17577 H 1622.16 -0.679767 5.83655 0
M  V30 17578 H 1623.69 -1.61068 5.88973 0
M  V30 17579 H 1625.1 0.652461 5.69575 0
M  V30 17580 H 1623.5 1.4326 5.82749 0
M  V30 17581 H 1624.57 1.85723 4.47923 0
M  V30 17582 N 1625.91 -1.50602 0.464402 0
M  V30 17583 C 1627.15 -2.04194 -0.0917216 0
M  V30 17584 C 1627.51 -1.33921 -1.37584 0
M  V30 17585 O 1628.72 -1.78031 -2.01391 0
M  V30 17586 C 1626.99 -3.56316 -0.278093 0
M  V30 17587 S 1628.55 -4.31561 -0.793734 0
M  V30 17588 H 1625.36 -0.710743 -0.0191155 0
M  V30 17589 H 1627.97 -1.85071 0.63001 0
M  V30 17590 H 1626.67 -4.05019 0.662395 0
M  V30 17591 H 1626.2 -3.79782 -1.02613 0
M  V30 17592 H 1628.22 -4.51052 -2.06801 0
M  V30 17593 N 1627.39 -0.19675 -1.56367 0
M  V30 17594 C 1628.8 0.315555 -1.84014 0
M  V30 17595 C 1629.15 1.61267 -1.11747 0
M  V30 17596 O 1628.28 2.13058 -0.378824 0
M  V30 17597 C 1628.87 0.579307 -3.33811 0
M  V30 17598 C 1627.43 1.03598 -3.61862 0
M  V30 17599 C 1626.58 0.0854845 -2.77168 0
M  V30 17600 H 1629.53 -0.4205 -1.53028 0
M  V30 17601 H 1629.55 1.42841 -3.52671 0
M  V30 17602 H 1629.06 -0.364925 -3.86381 0
M  V30 17603 H 1627.16 1.99443 -3.14727 0
M  V30 17604 H 1627.27 0.927547 -4.70035 0
M  V30 17605 H 1625.64 0.58768 -2.47827 0
M  V30 17606 H 1626.42 -0.853221 -3.32528 0
M  V30 17607 N 1628.87 1.57413 0.0768405 0
M  V30 17608 C 1630.28 1.75776 0.629262 0
M  V30 17609 C 1630.63 0.821502 1.78173 0
M  V30 17610 O 1629.75 0.00437198 2.164 0
M  V30 17611 C 1630.35 3.18747 1.14828 0
M  V30 17612 C 1628.91 3.38472 1.64661 0
M  V30 17613 C 1628.05 2.71506 0.563884 0
M  V30 17614 H 1631.01 1.57996 -0.149312 0
M  V30 17615 H 1631.03 3.22628 2.01722 0
M  V30 17616 H 1630.54 3.86866 0.309282 0
M  V30 17617 H 1628.64 2.75461 2.50903 0
M  V30 17618 H 1628.75 4.4689 1.72703 0
M  V30 17619 H 1627.12 2.33917 1.00772 0
M  V30 17620 H 1627.9 3.42277 -0.264847 0
M  V30 17621 N 1630.34 -0.348112 1.53707 0
M  V30 17622 C 1631.59 -1.09048 1.70987 0
M  V30 17623 C 1631.92 -1.88444 0.469305 0
M  V30 17624 O 1631.2 -1.87037 -0.533629 0
M  V30 17625 C 1631.48 -2.03542 2.97057 0
M  V30 17626 C 1631.33 -1.27638 4.3131 0
M  V30 17627 C 1632.65 -3.03424 3.18782 0
M  V30 17628 H 1629.77 -0.395049 0.622178 0
M  V30 17629 H 1632.41 -0.369498 1.86373 0
M  V30 17630 H 1630.56 -2.65021 2.8407 0
M  V30 17631 H 1632.24 -0.688079 4.56139 0
M  V30 17632 H 1630.48 -0.578349 4.29927 0
M  V30 17633 H 1631.15 -1.96891 5.15692 0
M  V30 17634 H 1633.63 -2.52056 3.31069 0
M  V30 17635 H 1632.5 -3.66748 4.08396 0
M  V30 17636 H 1632.76 -3.74553 2.34866 0
M  V30 17637 N 1631.82 -1.45363 -0.608876 0
M  V30 17638 C 1633.23 -1.43794 -1.19081 0
M  V30 17639 C 1633.58 -0.164874 -1.95506 0
M  V30 17640 O 1632.71 0.733623 -2.03585 0
M  V30 17641 C 1633.3 -2.60506 -2.16615 0
M  V30 17642 C 1631.86 -2.62061 -2.70187 0
M  V30 17643 C 1631.01 -2.36018 -1.4557 0
M  V30 17644 H 1633.96 -1.53622 -0.39826 0
M  V30 17645 H 1633.98 -2.34531 -2.99625 0
M  V30 17646 H 1633.49 -3.53147 -1.60963 0
M  V30 17647 H 1631.6 -1.73423 -3.2978 0
M  V30 17648 H 1631.71 -3.61242 -3.14708 0
M  V30 17649 H 1630.07 -1.8555 -1.74481 0
M  V30 17650 H 1630.86 -3.30802 -0.917884 0
M  V30 17651 N 1633.3 0.851265 -1.32632 0
M  V30 17652 C 1634.72 1.14 -1.11696 0
M  V30 17653 C 1634.92 2.0125 0.100327 0
M  V30 17654 O 1633.97 2.40013 0.784233 0
M  V30 17655 C 1635.29 1.81406 -2.39817 0
M  V30 17656 C 1636.83 1.94027 -2.45607 0
M  V30 17657 C 1637.31 2.64848 -3.73657 0
M  V30 17658 N 1638.8 2.7237 -3.74658 0
M  V30 17659 C 1639.53 3.27827 -4.70443 0
M  V30 17660 N 1639.03 3.84068 -5.76596 0
M  V30 17661 N 1640.82 3.25962 -4.57936 0
M  V30 17662 H 1632.97 0.270302 -2.10673 0
M  V30 17663 H 1635.24 0.182395 -0.930288 0
M  V30 17664 H 1634.94 1.24753 -3.28831 0
M  V30 17665 H 1634.82 2.81535 -2.51034 0
M  V30 17666 H 1637.2 2.49838 -1.5705 0
M  V30 17667 H 1637.29 0.928844 -2.3834 0
M  V30 17668 H 1636.93 2.09699 -4.62589 0
M  V30 17669 H 1636.86 3.66436 -3.78196 0
M  V30 17670 H 1639.35 2.32474 -2.97933 0
M  V30 17671 H 1639.66 4.24551 -6.45737 0
M  V30 17672 H 1638.01 3.82391 -5.80347 0
M  V30 17673 H 1641.2 2.81274 -3.74169 0
M  V30 17674 H 1641.37 3.68881 -5.32758 0
M  V30 17675 N 1634.78 1.15898 1.06796 0
M  V30 17676 C 1636.01 0.961372 1.83208 0
M  V30 17677 C 1636.42 -0.490392 1.8232 0
M  V30 17678 O 1635.78 -1.34025 1.2387 0
M  V30 17679 C 1635.83 1.47486 3.30045 0
M  V30 17680 O 1635.55 2.86976 3.31023 0
M  V30 17681 C 1637.05 1.31955 4.23205 0
M  V30 17682 H 1634.27 0.34109 0.57784 0
M  V30 17683 H 1636.82 1.53805 1.34775 0
M  V30 17684 H 1634.97 0.940586 3.75808 0
M  V30 17685 H 1635.38 3.1038 4.22805 0
M  V30 17686 H 1636.86 1.72721 5.24282 0
M  V30 17687 H 1637.34 0.264439 4.38403 0
M  V30 17688 H 1637.94 1.84319 3.83284 0
M  V30 17689 N 1636.26 -1.25243 0.956659 0
M  V30 17690 C 1637.19 -2.25019 0.435795 0
M  V30 17691 C 1638.2 -1.56473 -0.449435 0
M  V30 17692 O 1639.39 -1.76635 -0.257386 0
M  V30 17693 C 1636.49 -3.36634 -0.391226 0
M  V30 17694 C 1635.66 -4.34742 0.481483 0
M  V30 17695 C 1634.72 -5.25413 -0.287678 0
M  V30 17696 O 1633.75 -5.6833 0.314618 0
M  V30 17697 N 1634.95 -5.58578 -1.58023 0
M  V30 17698 H 1637.72 -2.70344 1.2936 0
M  V30 17699 H 1635.28 -1.3917 0.827245 0
M  V30 17700 H 1637.27 -3.94254 -0.913552 0
M  V30 17701 H 1635.84 -2.90682 -1.14991 0
M  V30 17702 H 1635.06 -3.75971 1.18489 0
M  V30 17703 H 1636.35 -4.97269 1.07707 0
M  V30 17704 H 1635.74 -5.25618 -2.09146 0
M  V30 17705 H 1634.3 -6.18774 -2.04848 0
M  V30 17706 N 1637.73 -0.725468 -1.3991 0
M  V30 17707 C 1638.98 -0.268719 -2.00306 0
M  V30 17708 C 1639.3 1.14511 -1.57836 0
M  V30 17709 O 1638.57 1.77808 -0.822263 0
M  V30 17710 H 1637.15 -0.0963614 -0.740759 0
M  V30 17711 H 1639.82 -0.933303 -1.71101 0
M  V30 17712 H 1638.91 -0.309587 -3.10561 0
M  V30 17713 N 1639.21 1.50354 -0.472382 0
M  V30 17714 C 1640.49 1.95071 0.143803 0
M  V30 17715 C 1640.87 1.41281 1.56853 0
M  V30 17716 O 1640.22 0.614349 2.20086 0
M  V30 17717 C 1640.43 3.48895 0.0857944 0
M  V30 17718 C 1641.78 4.23715 0.274039 0
M  V30 17719 O 1642.8 3.5583 0.162319 0
M  V30 17720 O 1641.66 5.4421 0.499815 0
M  V30 17721 H 1638.75 0.819521 0.110966 0
M  V30 17722 H 1641.3 1.61116 -0.532876 0
M  V30 17723 H 1640.07 3.80598 -0.908887 0
M  V30 17724 H 1639.69 3.89389 0.803875 0
M  V30 17725 N 1640.69 0.205039 1.56261 0
M  V30 17726 C 1641.94 -0.431097 1.97858 0
M  V30 17727 C 1642.27 -1.60937 1.09223 0
M  V30 17728 O 1641.52 -1.95244 0.133495 0
M  V30 17729 C 1641.82 -0.924086 3.45247 0
M  V30 17730 C 1641.49 0.141879 4.50677 0
M  V30 17731 C 1640.15 0.434753 4.79232 0
M  V30 17732 C 1642.5 0.863645 5.13995 0
M  V30 17733 C 1639.83 1.4542 5.68392 0
M  V30 17734 C 1642.18 1.87231 6.04258 0
M  V30 17735 C 1640.84 2.17227 6.31164 0
M  V30 17736 H 1640.11 -0.157749 0.724014 0
M  V30 17737 H 1642.76 0.304094 1.8907 0
M  V30 17738 H 1641.07 -1.73774 3.51155 0
M  V30 17739 H 1642.76 -1.42586 3.74794 0
M  V30 17740 H 1639.35 -0.0965514 4.28491 0
M  V30 17741 H 1643.54 0.650612 4.92017 0
M  V30 17742 H 1638.79 1.69241 5.8751 0
M  V30 17743 H 1642.97 2.43675 6.52377 0
M  V30 17744 H 1640.59 2.96366 7.00051 0
M  V30 17745 N 1642.17 -1.57451 -0.0684915 0
M  V30 17746 C 1643.45 -1.78483 -0.800209 0
M  V30 17747 C 1643.83 -0.793438 -1.95621 0
M  V30 17748 O 1643.17 0.172756 -2.27846 0
M  V30 17749 C 1643.38 -3.25069 -1.27008 0
M  V30 17750 C 1644.73 -3.8899 -1.70212 0
M  V30 17751 O 1645.76 -3.2898 -1.36566 0
M  V30 17752 O 1644.62 -4.94569 -2.32515 0
M  V30 17753 H 1641.71 -0.732598 -0.383704 0
M  V30 17754 H 1644.26 -1.69631 -0.0483117 0
M  V30 17755 H 1643.03 -3.88784 -0.443067 0
M  V30 17756 H 1642.65 -3.38657 -2.08319 0
M  V30 17757 N 1643.65 0.339955 -1.5389 0
M  V30 17758 C 1645.06 0.915362 -1.62721 0
M  V30 17759 C 1645.41 1.89434 -0.510798 0
M  V30 17760 O 1644.53 2.13403 0.3589 0
M  V30 17761 C 1645.13 1.66699 -2.94953 0
M  V30 17762 C 1643.69 2.19135 -3.06034 0
M  V30 17763 C 1642.84 1.01159 -2.5819 0
M  V30 17764 H 1645.79 0.11799 -1.58261 0
M  V30 17765 H 1645.81 2.53011 -2.84193 0
M  V30 17766 H 1645.32 0.954219 -3.76186 0
M  V30 17767 H 1643.42 2.93577 -2.29441 0
M  V30 17768 H 1643.53 2.4526 -4.11563 0
M  V30 17769 H 1641.9 1.38604 -2.13685 0
M  V30 17770 H 1642.68 0.313396 -3.41867 0
M  V30 17771 N 1645.13 1.45684 0.601159 0
M  V30 17772 C 1646.37 1.4974 1.35729 0
M  V30 17773 C 1646.69 0.143072 1.94474 0
M  V30 17774 O 1645.96 -0.82832 1.77527 0
M  V30 17775 H 1644.54 0.551455 0.503892 0
M  V30 17776 H 1647.21 1.81685 0.705443 0
M  V30 17777 H 1646.3 2.23982 2.17344 0
M  V30 17778 N 1646.6 -0.84422 1.33082 0
M  V30 17779 C 1647.57 -1.93519 1.22813 0
M  V30 17780 C 1648.57 -1.60113 0.148516 0
M  V30 17781 O 1649.76 -1.69553 0.399668 0
M  V30 17782 C 1646.89 -3.29045 0.891179 0
M  V30 17783 H 1648.08 -2.04051 2.1978 0
M  V30 17784 H 1645.63 -1.03567 1.17063 0
M  V30 17785 H 1646.37 -3.2421 -0.0762276 0
M  V30 17786 H 1646.15 -3.54671 1.67186 0
M  V30 17787 H 1647.64 -4.08984 0.843932 0
M  V30 17788 N 1648.08 -1.16463 -1.0618 0
M  V30 17789 C 1649.03 -0.87224 -2.13683 0
M  V30 17790 C 1650 0.179784 -1.65124 0
M  V30 17791 O 1651.18 0.0447406 -1.90748 0
M  V30 17792 C 1648.32 -0.380728 -3.42993 0
M  V30 17793 C 1647.44 -1.49571 -4.05281 0
M  V30 17794 C 1646.57 -0.959099 -5.2247 0
M  V30 17795 C 1645.61 -2.05021 -5.76743 0
M  V30 17796 N 1644.75 -1.5291 -6.85247 0
M  V30 17797 H 1649.59 -1.79288 -2.38033 0
M  V30 17798 H 1647.12 -0.894379 -1.16787 0
M  V30 17799 H 1649.08 -0.0773816 -4.17128 0
M  V30 17800 H 1647.71 0.502966 -3.18857 0
M  V30 17801 H 1646.76 -1.915 -3.28682 0
M  V30 17802 H 1648.08 -2.31904 -4.41613 0
M  V30 17803 H 1647.23 -0.609003 -6.03636 0
M  V30 17804 H 1645.97 -0.105086 -4.87587 0
M  V30 17805 H 1644.97 -2.40899 -4.94214 0
M  V30 17806 H 1646.2 -2.90821 -6.13678 0
M  V30 17807 H 1644.15 -0.697639 -6.5228 0
M  V30 17808 H 1644.06 -2.28859 -7.20527 0
M  V30 17809 H 1645.33 -1.20762 -7.70089 0
M  V30 17810 N 1649.56 1.24734 -0.963288 0
M  V30 17811 C 1650.81 1.92686 -0.622766 0
M  V30 17812 C 1651.13 1.75357 0.841442 0
M  V30 17813 O 1650.39 1.09757 1.62025 0
M  V30 17814 C 1650.69 3.44867 -0.938151 0
M  V30 17815 C 1650.35 3.82361 -2.38979 0
M  V30 17816 C 1649.02 3.92307 -2.78655 0
M  V30 17817 C 1651.37 4.00775 -3.3321 0
M  V30 17818 C 1648.7 4.1808 -4.11614 0
M  V30 17819 C 1651.05 4.28043 -4.65792 0
M  V30 17820 C 1649.71 4.36207 -5.05252 0
M  V30 17821 H 1648.98 0.705088 -0.227886 0
M  V30 17822 H 1651.63 1.48107 -1.21395 0
M  V30 17823 H 1649.93 3.90905 -0.264676 0
M  V30 17824 H 1651.63 3.95645 -0.653134 0
M  V30 17825 H 1648.22 3.75182 -2.07212 0
M  V30 17826 H 1652.41 3.92497 -3.03743 0
M  V30 17827 H 1647.66 4.22619 -4.41818 0
M  V30 17828 H 1651.84 4.41236 -5.3878 0
M  V30 17829 H 1649.46 4.55931 -6.08301 0
M  V30 17830 N 1651.04 0.732878 1.39523 0
M  V30 17831 C 1651.99 0.0676184 2.279 0
M  V30 17832 C 1652.97 -0.7148 1.44151 0
M  V30 17833 O 1654.16 -0.584158 1.67083 0
M  V30 17834 C 1651.29 -0.840482 3.32853 0
M  V30 17835 C 1650.38 -0.052326 4.24068 0
M  V30 17836 N 1650.77 0.973429 4.96345 0
M  V30 17837 C 1649.07 -0.282301 4.45106 0
M  V30 17838 C 1649.77 1.44851 5.63376 0
M  V30 17839 N 1648.74 0.767499 5.38155 0
M  V30 17840 H 1652.55 0.853533 2.81233 0
M  V30 17841 H 1650.06 0.567016 1.5218 0
M  V30 17842 H 1652.06 -1.33254 3.95031 0
M  V30 17843 H 1650.72 -1.62558 2.81078 0
M  V30 17844 H 1651.73 1.35474 4.99867 0
M  V30 17845 H 1648.41 -1.04237 4.04278 0
M  V30 17846 H 1649.8 2.30179 6.31242 0
M  V30 17847 N 1652.52 -1.50101 0.480349 0
M  V30 17848 C 1653.76 -2.01567 -0.073165 0
M  V30 17849 C 1654.08 -1.36657 -1.39944 0
M  V30 17850 O 1655.28 -1.79332 -2.03844 0
M  V30 17851 C 1653.74 -3.59445 -0.180889 0
M  V30 17852 C 1653.35 -4.33318 1.1375 0
M  V30 17853 C 1655.09 -4.18923 -0.685868 0
M  V30 17854 C 1653 -5.83003 0.99307 0
M  V30 17855 H 1651.93 -0.753358 -0.0311179 0
M  V30 17856 H 1654.58 -1.72829 0.616648 0
M  V30 17857 H 1652.96 -3.84811 -0.934693 0
M  V30 17858 H 1654.14 -4.1967 1.90299 0
M  V30 17859 H 1652.45 -3.85492 1.57431 0
M  V30 17860 H 1655.05 -5.28512 -0.811109 0
M  V30 17861 H 1655.39 -3.80916 -1.67955 0
M  V30 17862 H 1655.92 -3.97799 0.0108117 0
M  V30 17863 H 1652.66 -6.25499 1.9604 0
M  V30 17864 H 1652.18 -5.992 0.268128 0
M  V30 17865 H 1653.86 -6.4359 0.663417 0
M  V30 17866 N 1653.99 -0.213323 -1.5615 0
M  V30 17867 C 1655.4 0.29602 -1.84338 0
M  V30 17868 C 1655.76 1.60073 -1.13451 0
M  V30 17869 O 1654.88 2.12645 -0.4014 0
M  V30 17870 C 1655.48 0.54387 -3.34406 0
M  V30 17871 C 1654.03 0.997539 -3.62941 0
M  V30 17872 C 1653.18 0.0560823 -2.77243 0
M  V30 17873 H 1656.13 -0.436707 -1.52573 0
M  V30 17874 H 1656.15 1.39093 -3.54166 0
M  V30 17875 H 1655.67 -0.405885 -3.85972 0
M  V30 17876 H 1653.77 1.96094 -3.16825 0
M  V30 17877 H 1653.88 0.877642 -4.70993 0
M  V30 17878 H 1652.24 0.561362 -2.48437 0
M  V30 17879 H 1653.03 -0.888442 -3.31605 0
M  V30 17880 N 1655.47 1.57485 0.0601405 0
M  V30 17881 C 1656.7 1.92438 0.773466 0
M  V30 17882 C 1657.12 0.810755 1.6973 0
M  V30 17883 O 1656.48 -0.235697 1.79761 0
M  V30 17884 C 1656.53 3.26381 1.53323 0
M  V30 17885 O 1655.63 3.16436 2.64465 0
M  V30 17886 H 1654.97 0.629838 0.210239 0
M  V30 17887 H 1657.5 2.04585 0.0248981 0
M  V30 17888 H 1657.51 3.60534 1.90996 0
M  V30 17889 H 1656.19 4.07007 0.855468 0
M  V30 17890 H 1654.77 2.93862 2.29564 0
M  V30 17891 N 1656.95 -0.331789 1.54068 0
M  V30 17892 C 1658.18 -1.09484 1.76148 0
M  V30 17893 C 1658.6 -1.81201 0.504772 0
M  V30 17894 O 1657.96 -1.7297 -0.54325 0
M  V30 17895 C 1658.01 -2.07495 2.94921 0
M  V30 17896 O 1657.11 -3.15239 2.65891 0
M  V30 17897 H 1656.45 -0.316071 0.583948 0
M  V30 17898 H 1658.98 -0.378593 2.01067 0
M  V30 17899 H 1658.99 -2.5051 3.22038 0
M  V30 17900 H 1657.67 -1.54696 3.8606 0
M  V30 17901 H 1656.24 -2.76958 2.49697 0
M  V30 17902 N 1658.43 -1.46001 -0.593424 0
M  V30 17903 C 1659.67 -1.50978 -1.35401 0
M  V30 17904 C 1660.01 -0.156626 -1.93567 0
M  V30 17905 O 1659.28 0.83067 -1.7587 0
M  V30 17906 C 1659.57 -2.60005 -2.49137 0
M  V30 17907 C 1659.42 -4.04814 -1.96075 0
M  V30 17908 C 1660.74 -2.65199 -3.51223 0
M  V30 17909 H 1657.86 -0.549657 -0.490965 0
M  V30 17910 H 1660.5 -1.77883 -0.667644 0
M  V30 17911 H 1658.65 -2.37194 -3.07687 0
M  V30 17912 H 1660.32 -4.38879 -1.42066 0
M  V30 17913 H 1658.56 -4.148 -1.26976 0
M  V30 17914 H 1659.23 -4.76811 -2.78128 0
M  V30 17915 H 1661.71 -2.85675 -3.02537 0
M  V30 17916 H 1660.59 -3.43323 -4.28276 0
M  V30 17917 H 1660.85 -1.70833 -4.0776 0
M  V30 17918 N 1659.91 0.83715 -1.33527 0
M  V30 17919 C 1661.32 1.40878 -1.22516 0
M  V30 17920 C 1661.67 1.95585 0.155236 0
M  V30 17921 O 1660.79 1.88946 1.05491 0
M  V30 17922 C 1661.39 2.56093 -2.21815 0
M  V30 17923 C 1659.95 3.09205 -2.14638 0
M  V30 17924 C 1659.09 1.82012 -2.09205 0
M  V30 17925 H 1662.05 0.642766 -1.45101 0
M  V30 17926 H 1662.07 3.33775 -1.82687 0
M  V30 17927 H 1661.58 2.16246 -3.22272 0
M  V30 17928 H 1659.68 3.53592 -1.17489 0
M  V30 17929 H 1659.79 3.69261 -3.05259 0
M  V30 17930 H 1658.16 2.02331 -1.54707 0
M  V30 17931 H 1658.94 1.44359 -3.11473 0
M  V30 17932 N 1661.38 1.17024 1.05561 0
M  V30 17933 C 1662.61 0.979328 1.81914 0
M  V30 17934 C 1663.02 -0.475688 1.83122 0
M  V30 17935 O 1662.37 -1.34205 1.25438 0
M  V30 17936 C 1662.43 1.4391 3.29439 0
M  V30 17937 C 1662.09 2.9155 3.5192 0
M  V30 17938 C 1663.09 3.89509 3.44353 0
M  V30 17939 C 1660.77 3.2964 3.79003 0
M  V30 17940 C 1662.77 5.23557 3.63548 0
M  V30 17941 C 1660.45 4.63855 3.97846 0
M  V30 17942 C 1661.45 5.60623 3.90117 0
M  V30 17943 O 1661.14 6.92411 4.08439 0
M  V30 17944 H 1660.87 0.34689 0.58021 0
M  V30 17945 H 1663.43 1.55641 1.34034 0
M  V30 17946 H 1661.66 0.805555 3.78216 0
M  V30 17947 H 1663.35 1.21445 3.87306 0
M  V30 17948 H 1664.11 3.61428 3.23412 0
M  V30 17949 H 1659.99 2.54891 3.84124 0
M  V30 17950 H 1663.53 5.99074 3.5743 0
M  V30 17951 H 1659.43 4.91644 4.18278 0
M  V30 17952 H 1660.2 6.99095 4.25685 0
M  V30 17953 N 1662.86 -1.24221 0.969889 0
M  V30 17954 C 1664.11 -1.91656 0.628559 0
M  V30 17955 C 1664.42 -1.76627 -0.840371 0
M  V30 17956 O 1665.63 -2.38771 -1.29232 0
M  V30 17957 C 1664.09 -3.43515 1.07357 0
M  V30 17958 C 1663.69 -3.67226 2.56611 0
M  V30 17959 C 1665.44 -4.16788 0.805493 0
M  V30 17960 C 1663.35 -5.12667 2.94834 0
M  V30 17961 H 1662.28 -0.717619 0.231384 0
M  V30 17962 H 1664.93 -1.40831 1.17639 0
M  V30 17963 H 1663.31 -3.93388 0.454037 0
M  V30 17964 H 1664.48 -3.27942 3.23713 0
M  V30 17965 H 1662.8 -3.07243 2.81053 0
M  V30 17966 H 1665.39 -5.23945 1.06705 0
M  V30 17967 H 1665.74 -4.15498 -0.258321 0
M  V30 17968 H 1666.27 -3.7287 1.3861 0
M  V30 17969 H 1663.01 -5.1908 4.00295 0
M  V30 17970 H 1662.53 -5.5294 2.32417 0
M  V30 17971 H 1664.21 -5.80916 2.8486 0
M  V30 17972 N 1664.34 -0.740267 -1.39132 0
M  V30 17973 C 1665.76 -0.416412 -1.54072 0
M  V30 17974 C 1665.96 1.07211 -1.70611 0
M  V30 17975 O 1665.01 1.85822 -1.70958 0
M  V30 17976 C 1666.33 -1.20403 -2.75542 0
M  V30 17977 C 1667.87 -1.19278 -2.89382 0
M  V30 17978 C 1668.35 -1.96308 -4.13796 0
M  V30 17979 N 1669.84 -1.93501 -4.20846 0
M  V30 17980 C 1670.57 -2.49907 -5.16075 0
M  V30 17981 N 1670.07 -3.14973 -6.17061 0
M  V30 17982 N 1671.86 -2.39911 -5.0833 0
M  V30 17983 H 1664.01 -1.70513 -1.26645 0
M  V30 17984 H 1666.28 -0.722111 -0.614214 0
M  V30 17985 H 1665.98 -2.25754 -2.69681 0
M  V30 17986 H 1665.86 -0.811986 -3.68357 0
M  V30 17987 H 1668.24 -0.147385 -2.94732 0
M  V30 17988 H 1668.33 -1.62424 -1.97616 0
M  V30 17989 H 1667.97 -3.00851 -4.09208 0
M  V30 17990 H 1667.9 -1.50565 -5.04617 0
M  V30 17991 H 1670.39 -1.46104 -3.48514 0
M  V30 17992 H 1670.7 -3.55467 -6.86195 0
M  V30 17993 H 1669.05 -3.19064 -6.17433 0
M  V30 17994 H 1672.24 -1.88718 -4.28373 0
M  V30 17995 H 1672.41 -2.84169 -5.82368 0
M  V30 17996 N 1665.82 1.49844 -0.488302 0
M  V30 17997 C 1667.05 2.06519 0.0577968 0
M  V30 17998 C 1667.46 1.35039 1.32519 0
M  V30 17999 O 1666.8 0.418468 1.7887 0
M  V30 18000 C 1666.86 3.57328 0.394577 0
M  V30 18001 C 1666.53 4.50411 -0.773259 0
M  V30 18002 C 1667.52 4.9268 -1.66019 0
M  V30 18003 C 1665.21 4.92875 -0.968465 0
M  V30 18004 C 1667.2 5.76139 -2.72659 0
M  V30 18005 C 1664.89 5.76113 -2.03806 0
M  V30 18006 C 1665.89 6.17648 -2.91548 0
M  V30 18007 O 1665.57 6.99224 -3.96663 0
M  V30 18008 H 1665.31 0.675902 -0.0115057 0
M  V30 18009 H 1667.86 1.93777 -0.681149 0
M  V30 18010 H 1666.09 3.68033 1.18695 0
M  V30 18011 H 1667.78 3.96295 0.877786 0
M  V30 18012 H 1668.55 4.60528 -1.52114 0
M  V30 18013 H 1664.42 4.60056 -0.294936 0
M  V30 18014 H 1667.97 6.08478 -3.41174 0
M  V30 18015 H 1663.87 6.07678 -2.17711 0
M  V30 18016 H 1664.63 7.17507 -3.93861 0
M  V30 18017 N 1667.3 0.221601 1.56034 0
M  V30 18018 C 1668.54 -0.410087 1.98304 0
M  V30 18019 C 1668.87 -1.59769 1.10924 0
M  V30 18020 O 1668.13 -1.95092 0.154196 0
M  V30 18021 C 1668.43 -0.887416 3.46208 0
M  V30 18022 C 1668.09 0.189671 4.50501 0
M  V30 18023 C 1666.75 0.485557 4.78744 0
M  V30 18024 C 1669.11 0.918112 5.1305 0
M  V30 18025 C 1666.43 1.5144 5.66818 0
M  V30 18026 C 1668.79 1.93629 6.02238 0
M  V30 18027 C 1667.45 2.23909 6.28825 0
M  V30 18028 H 1666.72 -0.150061 0.725646 0
M  V30 18029 H 1669.37 0.32413 1.88737 0
M  V30 18030 H 1667.67 -1.70039 3.52979 0
M  V30 18031 H 1669.37 -1.38602 3.76285 0
M  V30 18032 H 1665.96 -0.0510987 4.2857 0
M  V30 18033 H 1670.14 0.702761 4.91299 0
M  V30 18034 H 1665.4 1.75462 5.85682 0
M  V30 18035 H 1669.57 2.5058 6.49756 0
M  V30 18036 H 1667.2 3.03774 6.96868 0
M  V30 18037 N 1668.77 -1.57515 -0.0517878 0
M  V30 18038 C 1670.02 -1.88493 -0.748206 0
M  V30 18039 C 1670.35 -0.816494 -1.76202 0
M  V30 18040 O 1669.63 0.171075 -1.93746 0
M  V30 18041 C 1669.91 -3.30131 -1.43825 0
M  V30 18042 C 1669.76 -4.47648 -0.4395 0
M  V30 18043 C 1671.08 -3.70315 -2.37813 0
M  V30 18044 H 1668.2 -0.68555 -0.270537 0
M  V30 18045 H 1670.84 -1.89997 -0.0111457 0
M  V30 18046 H 1668.99 -3.2898 -2.06651 0
M  V30 18047 H 1670.67 -4.60929 0.185088 0
M  V30 18048 H 1668.91 -4.33117 0.243381 0
M  V30 18049 H 1669.58 -5.43582 -0.96035 0
M  V30 18050 H 1672.06 -3.72687 -1.8505 0
M  V30 18051 H 1670.93 -4.70269 -2.83087 0
M  V30 18052 H 1671.19 -3.0133 -3.23501 0
M  V30 18053 N 1670.25 0.323614 -1.54242 0
M  V30 18054 C 1671.48 1.08548 -1.76726 0
M  V30 18055 C 1671.9 1.8093 -0.514375 0
M  V30 18056 O 1671.26 1.73255 0.534069 0
M  V30 18057 C 1671.31 2.05928 -2.96017 0
M  V30 18058 O 1670.41 3.13825 -2.67559 0
M  V30 18059 H 1669.75 0.31297 -0.585616 0
M  V30 18060 H 1672.28 0.367925 -2.01265 0
M  V30 18061 H 1672.29 2.48799 -3.23362 0
M  V30 18062 H 1670.97 1.52646 -3.86875 0
M  V30 18063 H 1669.55 2.7563 -2.51163 0
M  V30 18064 N 1671.73 1.46313 0.585673 0
M  V30 18065 C 1672.98 1.5147 1.34399 0
M  V30 18066 C 1673.31 0.165209 1.93797 0
M  V30 18067 O 1672.56 -0.838796 1.76813 0
M  V30 18068 C 1672.86 2.55895 2.49504 0
M  V30 18069 C 1672.53 3.99997 2.08118 0
M  V30 18070 C 1671.19 4.3923 1.96545 0
M  V30 18071 C 1673.54 4.90532 1.76147 0
M  V30 18072 C 1670.87 5.66867 1.51256 0
M  V30 18073 C 1673.22 6.18603 1.32338 0
M  V30 18074 C 1671.88 6.56745 1.1934 0
M  V30 18075 H 1671.15 0.554268 0.491801 0
M  V30 18076 H 1673.8 1.79774 0.659803 0
M  V30 18077 H 1672.11 2.21241 3.23357 0
M  V30 18078 H 1673.8 2.57116 3.07722 0
M  V30 18079 H 1670.39 3.68983 2.18058 0
M  V30 18080 H 1674.58 4.60942 1.83974 0
M  V30 18081 H 1669.83 5.95194 1.39834 0
M  V30 18082 H 1674.01 6.88185 1.06653 0
M  V30 18083 H 1671.63 7.55542 0.840228 0
M  V30 18084 N 1673.21 -0.830057 1.33969 0
M  V30 18085 C 1674.46 -1.58084 1.25269 0
M  V30 18086 C 1674.77 -1.94792 -0.177557 0
M  V30 18087 O 1675.98 -2.68733 -0.386657 0
M  V30 18088 C 1674.43 -2.85177 2.1955 0
M  V30 18089 C 1674.04 -2.55798 3.67792 0
M  V30 18090 C 1675.79 -3.632 2.19741 0
M  V30 18091 C 1673.69 -3.79041 4.53963 0
M  V30 18092 H 1672.62 -0.593289 0.465321 0
M  V30 18093 H 1675.27 -0.914476 1.5909 0
M  V30 18094 H 1673.66 -3.53401 1.78672 0
M  V30 18095 H 1674.83 -1.9573 4.17165 0
M  V30 18096 H 1673.14 -1.91064 3.69978 0
M  V30 18097 H 1675.74 -4.54695 2.81347 0
M  V30 18098 H 1676.08 -3.98786 1.1948 0
M  V30 18099 H 1676.62 -3.0191 2.59028 0
M  V30 18100 H 1673.36 -3.4858 5.55133 0
M  V30 18101 H 1672.88 -4.38417 4.09329 0
M  V30 18102 H 1674.56 -4.46527 4.68212 0
M  V30 18103 N 1674.69 -1.17582 -1.04939 0
M  V30 18104 C 1675.94 -0.960189 -1.77379 0
M  V30 18105 C 1676.25 0.512001 -1.8878 0
M  V30 18106 O 1677.46 0.845912 -2.57986 0
M  V30 18107 C 1675.91 -1.66882 -3.18871 0
M  V30 18108 C 1675.52 -3.17972 -3.15591 0
M  V30 18109 C 1677.26 -1.53567 -3.95749 0
M  V30 18110 C 1675.17 -3.81513 -4.51887 0
M  V30 18111 H 1674.1 -0.35562 -0.664869 0
M  V30 18112 H 1676.75 -1.40863 -1.17601 0
M  V30 18113 H 1675.13 -1.14813 -3.78991 0
M  V30 18114 H 1676.31 -3.76995 -2.64974 0
M  V30 18115 H 1674.62 -3.31328 -2.52212 0
M  V30 18116 H 1677.22 -1.98408 -4.96526 0
M  V30 18117 H 1677.56 -0.486603 -4.13446 0
M  V30 18118 H 1678.1 -2.02868 -3.42183 0
M  V30 18119 H 1674.83 -4.86428 -4.39395 0
M  V30 18120 H 1674.35 -3.27276 -5.02643 0
M  V30 18121 H 1676.03 -3.83867 -5.20822 0
M  V30 18122 N 1676.17 1.23705 -0.976463 0
M  V30 18123 C 1677.1 2.24297 -0.471538 0
M  V30 18124 C 1678.11 1.57169 0.424484 0
M  V30 18125 O 1679.3 1.77022 0.229252 0
M  V30 18126 C 1676.4 3.37214 0.337621 0
M  V30 18127 C 1675.57 4.33921 -0.550586 0
M  V30 18128 C 1674.63 5.25804 0.204053 0
M  V30 18129 O 1673.66 5.67757 -0.404995 0
M  V30 18130 N 1674.86 5.61021 1.49116 0
M  V30 18131 H 1677.62 2.68252 -1.33645 0
M  V30 18132 H 1675.19 1.37836 -0.849281 0
M  V30 18133 H 1677.18 3.95658 0.850714 0
M  V30 18134 H 1675.75 2.92474 1.10351 0
M  V30 18135 H 1674.97 3.74038 -1.24455 0
M  V30 18136 H 1676.26 4.95493 -1.15604 0
M  V30 18137 H 1675.65 5.28879 2.00757 0
M  V30 18138 H 1674.21 6.21954 1.94978 0
M  V30 18139 N 1677.64 0.747635 1.38738 0
M  V30 18140 C 1678.89 0.301147 2.00248 0
M  V30 18141 C 1679.22 -1.11539 1.5934 0
M  V30 18142 O 1678.47 -1.77716 0.819487 0
M  V30 18143 C 1678.77 0.364869 3.55533 0
M  V30 18144 C 1678.44 1.73622 4.16133 0
M  V30 18145 C 1677.1 2.11153 4.32398 0
M  V30 18146 C 1679.45 2.63605 4.49624 0
M  V30 18147 C 1676.78 3.38151 4.79449 0
M  V30 18148 C 1679.13 3.89987 4.98089 0
M  V30 18149 C 1677.8 4.27595 5.12561 0
M  V30 18150 H 1677.07 0.110197 0.73276 0
M  V30 18151 H 1679.71 0.956952 1.65876 0
M  V30 18152 H 1678.02 -0.374505 3.90006 0
M  V30 18153 H 1679.72 0.00107503 4.01 0
M  V30 18154 H 1676.31 1.43445 4.03883 0
M  V30 18155 H 1680.49 2.35875 4.36665 0
M  V30 18156 H 1675.75 3.67215 4.88838 0
M  V30 18157 H 1679.92 4.59859 5.22975 0
M  V30 18158 H 1677.55 5.26065 5.4878 0
M  V30 18159 N 1679.12 -1.49583 0.496242 0
M  V30 18160 C 1680.05 -2.26936 -0.321366 0
M  V30 18161 C 1681.07 -1.33282 -0.934863 0
M  V30 18162 O 1682.26 -1.58602 -0.819008 0
M  V30 18163 C 1679.36 -3.05503 -1.467 0
M  V30 18164 C 1678.53 -4.26697 -0.961687 0
M  V30 18165 C 1677.59 -4.8735 -1.98436 0
M  V30 18166 O 1676.61 -5.47553 -1.55482 0
M  V30 18167 N 1677.82 -4.76577 -3.31443 0
M  V30 18168 H 1680.58 -2.97744 0.341884 0
M  V30 18169 H 1678.14 -1.58532 0.328504 0
M  V30 18170 H 1680.13 -3.42954 -2.1486 0
M  V30 18171 H 1678.7 -2.37334 -2.03449 0
M  V30 18172 H 1677.92 -3.9406 -0.105143 0
M  V30 18173 H 1679.21 -5.05221 -0.602405 0
M  V30 18174 H 1678.61 -4.28756 -3.69032 0
M  V30 18175 H 1677.17 -5.18226 -3.95329 0
M  V30 18176 N 1680.6 -0.229873 -1.55915 0
M  V30 18177 C 1681.85 0.399565 -1.98519 0
M  V30 18178 C 1682.17 1.59179 -1.1177 0
M  V30 18179 O 1681.43 1.95007 -0.16454 0
M  V30 18180 C 1681.73 0.869043 -3.46673 0
M  V30 18181 C 1681.39 -0.21356 -4.50394 0
M  V30 18182 C 1680.06 -0.510939 -4.7848 0
M  V30 18183 C 1682.41 -0.945307 -5.12556 0
M  V30 18184 C 1679.74 -1.54444 -5.66007 0
M  V30 18185 C 1682.09 -1.9682 -6.01203 0
M  V30 18186 C 1680.75 -2.27241 -6.27629 0
M  V30 18187 H 1680.02 0.146211 -0.726432 0
M  V30 18188 H 1682.67 -0.334135 -1.88562 0
M  V30 18189 H 1680.97 1.68165 -3.53875 0
M  V30 18190 H 1682.67 1.36605 -3.77015 0
M  V30 18191 H 1679.26 0.0283699 -4.28591 0
M  V30 18192 H 1683.45 -0.728806 -4.9092 0
M  V30 18193 H 1678.7 -1.78566 -5.84743 0
M  V30 18194 H 1682.88 -2.54023 -6.48418 0
M  V30 18195 H 1680.5 -3.07465 -6.95248 0
M  V30 18196 N 1682.08 1.5754 0.0434337 0
M  V30 18197 C 1683.03 2.0207 1.05602 0
M  V30 18198 C 1684.01 0.907491 1.32866 0
M  V30 18199 O 1685.2 1.17141 1.32692 0
M  V30 18200 C 1682.33 2.49176 2.36149 0
M  V30 18201 C 1681.42 3.67289 2.12037 0
M  V30 18202 N 1681.81 4.8051 1.57937 0
M  V30 18203 C 1680.11 3.74386 2.42387 0
M  V30 18204 C 1680.81 5.62214 1.49298 0
M  V30 18205 N 1679.78 5.06899 1.96353 0
M  V30 18206 H 1683.59 2.87035 0.631515 0
M  V30 18207 H 1681.1 1.60464 0.250012 0
M  V30 18208 H 1683.1 2.79331 3.09483 0
M  V30 18209 H 1681.76 1.65611 2.79291 0
M  V30 18210 H 1682.77 5.02237 1.26405 0
M  V30 18211 H 1679.45 3.01592 2.88701 0
M  V30 18212 H 1680.84 6.6315 1.08082 0
M  V30 18213 N 1683.56 -0.31543 1.54411 0
M  V30 18214 C 1684.47 -1.41136 1.87397 0
M  V30 18215 C 1685.48 -1.56199 0.76668 0
M  V30 18216 O 1686.66 -1.71139 1.06176 0
M  V30 18217 C 1683.72 -2.75731 2.10174 0
M  V30 18218 C 1682.78 -2.69776 3.33945 0
M  V30 18219 C 1682.02 -3.97952 3.55626 0
M  V30 18220 O 1682.24 -4.96614 2.80589 0
M  V30 18221 O 1681.17 -4.00719 4.49119 0
M  V30 18222 H 1685 -1.16167 2.80605 0
M  V30 18223 H 1682.58 -0.510193 1.40419 0
M  V30 18224 H 1684.47 -3.55392 2.26439 0
M  V30 18225 H 1683.14 -3.00574 1.20154 0
M  V30 18226 H 1682.05 -1.88638 3.23058 0
M  V30 18227 H 1683.38 -2.49887 4.24049 0
M  V30 18228 N 1685.03 -1.46622 -0.577906 0
M  V30 18229 C 1686 -1.57126 -1.66865 0
M  V30 18230 C 1687 -0.448004 -1.54433 0
M  V30 18231 O 1688.19 -0.712459 -1.58964 0
M  V30 18232 C 1685.32 -1.49612 -3.06315 0
M  V30 18233 H 1686.51 -2.54338 -1.58909 0
M  V30 18234 H 1684.07 -1.34504 -0.796142 0
M  V30 18235 H 1684.8 -0.536976 -3.19823 0
M  V30 18236 H 1684.59 -2.31113 -3.16748 0
M  V30 18237 H 1686.08 -1.60058 -3.85709 0
M  V30 18238 N 1686.51 0.822941 -1.34408 0
M  V30 18239 C 1687.44 1.94878 -1.28627 0
M  V30 18240 C 1688.42 1.6931 -0.163727 0
M  V30 18241 O 1689.61 1.90908 -0.356083 0
M  V30 18242 C 1686.74 3.31333 -1.04094 0
M  V30 18243 C 1685.69 3.71341 -2.12814 0
M  V30 18244 C 1685.02 5.05779 -1.73469 0
M  V30 18245 C 1686.32 3.83439 -3.54643 0
M  V30 18246 H 1688.01 1.99972 -2.22827 0
M  V30 18247 H 1685.56 0.960715 -1.07267 0
M  V30 18248 H 1687.51 4.0968 -0.986947 0
M  V30 18249 H 1686.24 3.26539 -0.0633642 0
M  V30 18250 H 1684.89 2.95269 -2.17282 0
M  V30 18251 H 1684.54 4.97471 -0.743727 0
M  V30 18252 H 1684.24 5.33518 -2.46236 0
M  V30 18253 H 1685.77 5.86583 -1.69566 0
M  V30 18254 H 1687.18 4.52057 -3.52587 0
M  V30 18255 H 1685.58 4.22632 -4.2603 0
M  V30 18256 H 1686.65 2.85439 -3.91986 0
M  V30 18257 N 1687.99 1.18137 1.04314 0
M  V30 18258 C 1689.23 0.986144 1.79038 0
M  V30 18259 C 1689.59 -0.476023 1.86005 0
M  V30 18260 O 1690.8 -0.790612 2.5691 0
M  V30 18261 C 1689.07 1.62008 3.18572 0
M  V30 18262 S 1690.63 1.57227 4.09665 0
M  V30 18263 H 1687.44 0.354181 0.616503 0
M  V30 18264 H 1690.05 1.50237 1.25096 0
M  V30 18265 H 1688.75 2.67655 3.11109 0
M  V30 18266 H 1688.28 1.10403 3.77591 0
M  V30 18267 H 1690.3 0.586418 4.92723 0
M  V30 18268 N 1689.47 -1.23186 0.98301 0
M  V30 18269 C 1690.4 -2.24044 0.483426 0
M  V30 18270 C 1691.41 -1.57392 -0.416143 0
M  V30 18271 O 1692.6 -1.77141 -0.219861 0
M  V30 18272 C 1689.7 -3.37388 -0.319733 0
M  V30 18273 C 1688.88 -4.33623 0.57359 0
M  V30 18274 C 1687.93 -5.25905 -0.176165 0
M  V30 18275 O 1686.96 -5.67535 0.435099 0
M  V30 18276 N 1688.16 -5.61804 -1.46139 0
M  V30 18277 H 1690.93 -2.67539 1.35066 0
M  V30 18278 H 1688.49 -1.37384 0.856579 0
M  V30 18279 H 1690.48 -3.96103 -0.829719 0
M  V30 18280 H 1689.05 -2.93056 -1.08799 0
M  V30 18281 H 1688.27 -3.73373 1.26437 0
M  V30 18282 H 1689.56 -4.94873 1.18231 0
M  V30 18283 H 1688.96 -5.29936 -1.97949 0
M  V30 18284 H 1687.51 -6.22979 -1.91676 0
M  V30 18285 N 1690.95 -0.754982 -1.38339 0
M  V30 18286 C 1691.91 -0.136457 -2.28793 0
M  V30 18287 C 1692.91 0.646016 -1.47252 0
M  V30 18288 O 1694.1 0.472077 -1.67681 0
M  V30 18289 C 1691.23 0.815058 -3.31013 0
M  V30 18290 H 1692.42 -0.933619 -2.84997 0
M  V30 18291 H 1689.98 -0.522082 -1.47323 0
M  V30 18292 H 1690.71 1.63785 -2.79902 0
M  V30 18293 H 1690.5 0.256363 -3.91261 0
M  V30 18294 H 1691.99 1.24378 -3.98648 0
M  V30 18295 N 1692.42 1.49318 -0.504168 0
M  V30 18296 C 1693.39 2.27703 0.26157 0
M  V30 18297 C 1694.39 1.3385 0.891114 0
M  V30 18298 O 1695.58 1.56981 0.755156 0
M  V30 18299 C 1692.71 3.11912 1.37564 0
M  V30 18300 H 1693.9 2.96855 -0.426292 0
M  V30 18301 H 1691.46 1.54135 -0.259236 0
M  V30 18302 H 1692.19 2.47332 2.09755 0
M  V30 18303 H 1691.98 3.8092 0.929641 0
M  V30 18304 H 1693.47 3.71106 1.91494 0
M  V30 18305 N 1693.9 0.238138 1.5579 0
M  V30 18306 C 1695.15 -0.388263 1.98335 0
M  V30 18307 C 1695.47 -1.59104 1.12743 0
M  V30 18308 O 1694.74 -1.9479 0.208201 0
M  V30 18309 H 1693.32 -0.14644 0.732505 0
M  V30 18310 H 1695.98 0.334891 1.92001 0
M  V30 18311 H 1695.08 -0.703359 3.04071 0
M  V30 18312 N 1695.38 -1.57561 -0.0350783 0
M  V30 18313 C 1696.33 -2.02627 -1.04528 0
M  V30 18314 C 1697.31 -0.914525 -1.32383 0
M  V30 18315 O 1698.51 -1.17843 -1.32068 0
M  V30 18316 C 1695.64 -2.50425 -2.34824 0
M  V30 18317 C 1694.72 -3.68408 -2.10086 0
M  V30 18318 N 1695.11 -4.8134 -1.55387 0
M  V30 18319 C 1693.41 -3.75666 -2.40398 0
M  V30 18320 C 1694.11 -5.62998 -1.46314 0
M  V30 18321 N 1693.09 -5.07933 -1.93662 0
M  V30 18322 H 1696.89 -2.87366 -0.616284 0
M  V30 18323 H 1694.4 -1.60594 -0.241499 0
M  V30 18324 H 1696.4 -2.80968 -3.07998 0
M  V30 18325 H 1695.06 -1.67089 -2.78408 0
M  V30 18326 H 1696.07 -5.029 -1.2374 0
M  V30 18327 H 1692.75 -3.03119 -2.87098 0
M  V30 18328 H 1694.14 -6.63714 -1.04564 0
M  V30 18329 N 1696.86 0.307236 -1.54576 0
M  V30 18330 C 1698.09 1.06233 -1.77545 0
M  V30 18331 C 1698.5 1.81153 -0.5319 0
M  V30 18332 O 1697.86 1.75573 0.498044 0
M  V30 18333 C 1697.91 2.04775 -2.97908 0
M  V30 18334 O 1697.63 1.32896 -4.17457 0
M  V30 18335 C 1699.13 2.92373 -3.33216 0
M  V30 18336 H 1696.35 0.315318 -0.592297 0
M  V30 18337 H 1698.9 0.348403 -2.0151 0
M  V30 18338 H 1697.05 2.71679 -2.76169 0
M  V30 18339 H 1697.46 1.99022 -4.85274 0
M  V30 18340 H 1698.94 3.5738 -4.20694 0
M  V30 18341 H 1699.42 3.60343 -2.51097 0
M  V30 18342 H 1700.02 2.31009 -3.57093 0
M  V30 18343 N 1698.34 1.46926 0.570122 0
M  V30 18344 C 1699.58 1.52585 1.32523 0
M  V30 18345 C 1699.91 0.184291 1.94127 0
M  V30 18346 O 1699.18 -0.790478 1.79244 0
M  V30 18347 H 1697.76 0.562019 0.492081 0
M  V30 18348 H 1700.42 1.83141 0.666746 0
M  V30 18349 H 1699.51 2.28541 2.12545 0
M  V30 18350 N 1699.82 -0.815801 1.34842 0
M  V30 18351 C 1701.23 -1.38911 1.24742 0
M  V30 18352 C 1701.58 -1.95807 -0.124101 0
M  V30 18353 O 1700.7 -1.906 -1.02472 0
M  V30 18354 C 1701.3 -2.52532 2.25861 0
M  V30 18355 C 1699.86 -3.05751 2.1953 0
M  V30 18356 C 1699 -1.78661 2.12075 0
M  V30 18357 H 1701.95 -0.619601 1.46105 0
M  V30 18358 H 1701.98 -3.30826 1.87974 0
M  V30 18359 H 1701.49 -2.11092 3.25671 0
M  V30 18360 H 1699.59 -3.51678 1.23099 0
M  V30 18361 H 1699.7 -3.64358 3.11095 0
M  V30 18362 H 1698.07 -1.99844 1.57907 0
M  V30 18363 H 1698.85 -1.39385 3.1373 0
M  V30 18364 N 1701.29 -1.18689 -1.03686 0
M  V30 18365 C 1702.22 -0.94094 -2.13702 0
M  V30 18366 C 1703.2 0.12277 -1.69656 0
M  V30 18367 O 1704.39 -0.0306085 -1.94176 0
M  V30 18368 C 1701.52 -0.470054 -3.44104 0
M  V30 18369 C 1700.47 -1.47468 -4.01792 0
M  V30 18370 C 1699.8 -0.861174 -5.2772 0
M  V30 18371 C 1701.1 -2.85254 -4.37524 0
M  V30 18372 H 1702.79 -1.86102 -2.34534 0
M  V30 18373 H 1700.34 -0.896207 -1.12713 0
M  V30 18374 H 1702.29 -0.28533 -4.20433 0
M  V30 18375 H 1701.02 0.485604 -3.2297 0
M  V30 18376 H 1699.68 -1.64641 -3.2755 0
M  V30 18377 H 1699.32 0.10179 -5.02897 0
M  V30 18378 H 1699.02 -1.53196 -5.67278 0
M  V30 18379 H 1700.55 -0.687066 -6.06722 0
M  V30 18380 H 1701.96 -2.71711 -5.04823 0
M  V30 18381 H 1700.36 -3.49051 -4.88143 0
M  V30 18382 H 1701.43 -3.38516 -3.47181 0
M  V30 18383 N 1702.77 1.22662 -0.989529 0
M  V30 18384 C 1703.72 2.22262 -0.508279 0
M  V30 18385 C 1704.71 1.55276 0.421694 0
M  V30 18386 O 1705.9 1.75239 0.249062 0
M  V30 18387 C 1703.03 3.42833 0.179058 0
M  V30 18388 C 1702.11 4.17032 -0.771021 0
M  V30 18389 N 1702.5 4.68046 -1.91746 0
M  V30 18390 C 1700.8 4.42131 -0.586208 0
M  V30 18391 C 1701.5 5.24592 -2.51352 0
M  V30 18392 N 1700.48 5.13056 -1.79652 0
M  V30 18393 H 1704.28 2.59343 -1.3827 0
M  V30 18394 H 1701.79 1.38295 -0.85136 0
M  V30 18395 H 1703.79 4.13372 0.541196 0
M  V30 18396 H 1702.45 3.07266 1.04965 0
M  V30 18397 H 1703.46 4.64107 -2.29836 0
M  V30 18398 H 1700.14 4.16818 0.238604 0
M  V30 18399 H 1701.53 5.74623 -3.48221 0
M  V30 18400 N 1704.25 0.762308 1.37937 0
M  V30 18401 C 1705.2 0.140412 2.30372 0
M  V30 18402 C 1706.17 -0.700152 1.50622 0
M  V30 18403 O 1707.35 -0.654474 1.79224 0
M  V30 18404 C 1704.49 -0.740056 3.37071 0
M  V30 18405 C 1703.6 0.116084 4.31844 0
M  V30 18406 C 1702.74 -0.768203 5.25616 0
M  V30 18407 C 1701.78 0.0910442 6.12032 0
M  V30 18408 N 1700.92 -0.75069 6.98075 0
M  V30 18409 H 1705.76 0.934224 2.82977 0
M  V30 18410 H 1703.29 0.472316 1.39311 0
M  V30 18411 H 1705.25 -1.26525 3.97551 0
M  V30 18412 H 1703.88 -1.49956 2.85855 0
M  V30 18413 H 1702.93 0.758999 3.72751 0
M  V30 18414 H 1704.24 0.779285 4.92675 0
M  V30 18415 H 1703.4 -1.36024 5.91255 0
M  V30 18416 H 1702.14 -1.46511 4.65173 0
M  V30 18417 H 1701.14 0.695687 5.45381 0
M  V30 18418 H 1702.37 0.785145 6.74546 0
M  V30 18419 H 1700.31 -1.43239 6.40171 0
M  V30 18420 H 1700.23 -0.144579 7.55862 0
M  V30 18421 H 1701.5 -1.32742 7.68114 0
M  V30 18422 N 1705.73 -1.49049 0.51208 0
M  V30 18423 C 1706.97 -2.04383 -0.0267124 0
M  V30 18424 C 1707.33 -1.3823 -1.33253 0
M  V30 18425 O 1708.53 -1.84348 -1.95625 0
M  V30 18426 C 1706.8 -3.57021 -0.164593 0
M  V30 18427 S 1708.36 -4.33868 -0.656034 0
M  V30 18428 H 1705.18 -0.710991 0.00350589 0
M  V30 18429 H 1707.78 -1.82973 0.68857 0
M  V30 18430 H 1706.49 -4.02707 0.790913 0
M  V30 18431 H 1706.02 -3.82854 -0.904787 0
M  V30 18432 H 1708.03 -4.57403 -1.92347 0
M  V30 18433 N 1707.21 -0.246397 -1.55662 0
M  V30 18434 C 1708.48 0.42879 -1.90842 0
M  V30 18435 C 1708.86 1.75905 -1.16707 0
M  V30 18436 O 1708.21 2.26723 -0.284391 0
M  V30 18437 C 1708.42 0.597368 -3.4385 0
M  V30 18438 C 1709.77 0.893477 -4.15093 0
M  V30 18439 O 1710.79 0.683251 -3.49586 0
M  V30 18440 O 1709.65 1.2938 -5.30964 0
M  V30 18441 H 1706.75 0.230145 -0.794331 0
M  V30 18442 H 1709.29 -0.290426 -1.67196 0
M  V30 18443 H 1708.06 -0.339952 -3.8982 0
M  V30 18444 H 1707.69 1.36714 -3.73356 0
M  V30 18445 N 1708.68 1.57577 0.026722 0
M  V30 18446 C 1709.93 1.8856 0.716115 0
M  V30 18447 C 1710.25 0.845223 1.76395 0
M  V30 18448 O 1711.45 1.04435 2.5061 0
M  V30 18449 C 1709.91 3.34631 1.32476 0
M  V30 18450 C 1709.52 4.46904 0.313149 0
M  V30 18451 C 1711.26 3.74759 1.9939 0
M  V30 18452 C 1709.17 5.84038 0.930274 0
M  V30 18453 H 1708.1 0.703531 0.271221 0
M  V30 18454 H 1710.75 1.83476 -0.0294388 0
M  V30 18455 H 1709.13 3.34466 2.1201 0
M  V30 18456 H 1710.3 4.58542 -0.455647 0
M  V30 18457 H 1708.62 4.15624 -0.254028 0
M  V30 18458 H 1711.22 4.74534 2.46418 0
M  V30 18459 H 1711.56 3.06875 2.81307 0
M  V30 18460 H 1712.09 3.77108 1.26628 0
M  V30 18461 H 1708.83 6.55327 0.150466 0
M  V30 18462 H 1708.35 5.76116 1.66886 0
M  V30 18463 H 1710.03 6.30842 1.43692 0
M  V30 18464 N 1710.16 -0.299034 1.54737 0
M  V30 18465 C 1711.39 -1.05138 1.77847 0
M  V30 18466 C 1711.8 -1.81359 0.53902 0
M  V30 18467 O 1711.14 -1.76742 -0.500783 0
M  V30 18468 C 1711.2 -2.07681 2.93443 0
M  V30 18469 C 1710.87 -1.50636 4.3146 0
M  V30 18470 C 1711.87 -0.935378 5.11416 0
M  V30 18471 C 1709.55 -1.5414 4.78065 0
M  V30 18472 C 1711.54 -0.407022 6.36099 0
M  V30 18473 C 1709.23 -1.00917 6.0271 0
M  V30 18474 C 1710.23 -0.442956 6.81562 0
M  V30 18475 O 1709.92 0.081192 8.03859 0
M  V30 18476 H 1709.65 -0.317487 0.596807 0
M  V30 18477 H 1712.2 -0.343249 2.02512 0
M  V30 18478 H 1710.43 -2.82179 2.64408 0
M  V30 18479 H 1712.12 -2.68832 3.04112 0
M  V30 18480 H 1712.89 -0.901197 4.76554 0
M  V30 18481 H 1708.77 -1.9715 4.16717 0
M  V30 18482 H 1712.31 0.035577 6.97591 0
M  V30 18483 H 1708.21 -1.04051 6.37059 0
M  V30 18484 H 1708.98 -0.031922 8.18494 0
M  V30 18485 N 1711.64 -1.47227 -0.562322 0
M  V30 18486 C 1712.57 -1.55383 -1.6849 0
M  V30 18487 C 1713.58 -0.440437 -1.56729 0
M  V30 18488 O 1714.77 -0.709803 -1.63781 0
M  V30 18489 C 1711.87 -1.43723 -3.06915 0
M  V30 18490 C 1711.05 -2.69541 -3.4448 0
M  V30 18491 C 1710.11 -2.5179 -4.62048 0
M  V30 18492 O 1709.13 -3.25587 -4.66885 0
M  V30 18493 N 1710.33 -1.59282 -5.5822 0
M  V30 18494 H 1713.1 -2.52181 -1.61941 0
M  V30 18495 H 1710.66 -1.43541 -0.748832 0
M  V30 18496 H 1712.65 -1.2959 -3.83391 0
M  V30 18497 H 1711.22 -0.550272 -3.07719 0
M  V30 18498 H 1710.44 -2.98472 -2.57504 0
M  V30 18499 H 1711.73 -3.53079 -3.66351 0
M  V30 18500 H 1711.13 -0.984666 -5.57064 0
M  V30 18501 H 1709.68 -1.51103 -6.34043 0
M  V30 18502 N 1713.12 0.808639 -1.35273 0
M  V30 18503 C 1714.34 1.60219 -1.31699 0
M  V30 18504 C 1714.77 1.87816 0.103386 0
M  V30 18505 O 1714.13 1.46389 1.06957 0
M  V30 18506 C 1714.17 2.9116 -2.12739 0
M  V30 18507 O 1713.28 3.83891 -1.5067 0
M  V30 18508 H 1712.62 0.486742 -0.45164 0
M  V30 18509 H 1715.15 1.00378 -1.78284 0
M  V30 18510 H 1715.16 3.40602 -2.2462 0
M  V30 18511 H 1713.83 2.70399 -3.16002 0
M  V30 18512 H 1712.41 3.42437 -1.47618 0
M  V30 18513 N 1714.6 1.19237 1.03055 0
M  V30 18514 C 1715.54 0.928588 2.11296 0
M  V30 18515 C 1716.51 -0.135941 1.65543 0
M  V30 18516 O 1717.7 0.00584847 1.90799 0
M  V30 18517 C 1714.84 0.471532 3.41863 0
M  V30 18518 C 1713.95 1.60264 4.01173 0
M  V30 18519 C 1713.09 1.09729 5.19743 0
M  V30 18520 C 1712.13 2.2024 5.71105 0
M  V30 18521 N 1711.26 1.71024 6.80952 0
M  V30 18522 H 1716.1 1.85536 2.33196 0
M  V30 18523 H 1713.64 0.925029 1.14375 0
M  V30 18524 H 1715.6 0.187949 4.16776 0
M  V30 18525 H 1714.23 -0.41825 3.20079 0
M  V30 18526 H 1713.28 2.00147 3.23489 0
M  V30 18527 H 1714.59 2.43531 4.35309 0
M  V30 18528 H 1713.75 0.768832 6.01809 0
M  V30 18529 H 1712.48 0.234324 4.87137 0
M  V30 18530 H 1711.49 2.53918 4.87653 0
M  V30 18531 H 1712.71 3.06989 6.05751 0
M  V30 18532 H 1710.66 0.870334 6.50201 0
M  V30 18533 H 1710.58 2.47882 7.14206 0
M  V30 18534 H 1711.85 1.41137 7.66616 0
M  V30 18535 N 1716.07 -1.22136 0.99602 0
M  V30 18536 C 1716.98 -2.27869 0.557927 0
M  V30 18537 C 1718 -1.69462 -0.394781 0
M  V30 18538 O 1719.18 -1.99704 -0.26084 0
M  V30 18539 C 1716.24 -3.46501 -0.117434 0
M  V30 18540 C 1715.3 -4.20213 0.878627 0
M  V30 18541 C 1714.54 -5.33181 0.2354 0
M  V30 18542 O 1714.76 -5.62093 -0.969954 0
M  V30 18543 O 1713.69 -5.94486 0.941828 0
M  V30 18544 H 1717.52 -2.67517 1.43765 0
M  V30 18545 H 1715.1 -1.28362 0.764428 0
M  V30 18546 H 1716.99 -4.18476 -0.49559 0
M  V30 18547 H 1715.66 -3.08772 -0.971674 0
M  V30 18548 H 1714.57 -3.50497 1.30777 0
M  V30 18549 H 1715.9 -4.6183 1.70217 0
M  V30 18550 N 1717.55 -0.769612 -1.37531 0
M  V30 18551 C 1718.52 -0.160716 -2.28636 0
M  V30 18552 C 1719.52 0.630362 -1.47929 0
M  V30 18553 O 1720.71 0.454265 -1.68173 0
M  V30 18554 C 1717.84 0.779904 -3.31859 0
M  V30 18555 H 1719.03 -0.963794 -2.83991 0
M  V30 18556 H 1716.58 -0.537678 -1.46761 0
M  V30 18557 H 1717.32 1.60807 -2.81623 0
M  V30 18558 H 1717.1 0.21485 -3.91511 0
M  V30 18559 H 1718.59 1.20143 -3.99944 0
M  V30 18560 N 1719.03 1.48775 -0.519977 0
M  V30 18561 C 1720.28 2.02092 0.0177154 0
M  V30 18562 C 1720.6 1.40024 1.35714 0
M  V30 18563 O 1719.87 0.562115 1.87662 0
M  V30 18564 H 1718.45 0.746939 0.00953578 0
M  V30 18565 H 1721.11 1.82595 -0.681535 0
M  V30 18566 H 1720.21 3.11815 0.133431 0
M  V30 18567 N 1720.51 0.254649 1.55529 0
M  V30 18568 C 1721.44 -0.674506 2.1905 0
M  V30 18569 C 1722.45 -1.13297 1.16909 0
M  V30 18570 O 1723.64 -1.0584 1.43736 0
M  V30 18571 C 1720.74 -1.92951 2.78609 0
M  V30 18572 C 1719.92 -1.62123 4.06245 0
M  V30 18573 C 1718.97 -2.72661 4.50047 0
M  V30 18574 O 1718 -2.39717 5.1626 0
M  V30 18575 N 1719.2 -4.02315 4.18477 0
M  V30 18576 H 1721.97 -0.130956 2.99414 0
M  V30 18577 H 1719.53 0.0749176 1.61727 0
M  V30 18578 H 1721.52 -2.66155 3.04866 0
M  V30 18579 H 1720.09 -2.38265 2.02358 0
M  V30 18580 H 1719.31 -0.723991 3.87495 0
M  V30 18581 H 1720.6 -1.39 4.89445 0
M  V30 18582 H 1720 -4.3191 3.65336 0
M  V30 18583 H 1718.55 -4.7196 4.49552 0
M  V30 18584 N 1721.99 -1.57589 -0.0183649 0
M  V30 18585 C 1723.4 -1.55152 -0.374183 0
M  V30 18586 C 1723.6 -0.98217 -1.75942 0
M  V30 18587 O 1722.66 -0.607905 -2.45073 0
M  V30 18588 C 1723.97 -2.99519 -0.266231 0
M  V30 18589 C 1725.52 -3.1112 -0.342527 0
M  V30 18590 C 1725.99 -4.57239 -0.263905 0
M  V30 18591 N 1727.49 -4.62077 -0.322372 0
M  V30 18592 C 1728.22 -5.72693 -0.284594 0
M  V30 18593 N 1727.72 -6.92516 -0.198482 0
M  V30 18594 N 1729.51 -5.611 -0.335111 0
M  V30 18595 H 1721.66 -1.92945 0.888033 0
M  V30 18596 H 1723.92 -0.885432 0.338695 0
M  V30 18597 H 1723.63 -3.44942 0.686123 0
M  V30 18598 H 1723.5 -3.62127 -1.05565 0
M  V30 18599 H 1725.89 -2.65638 -1.28532 0
M  V30 18600 H 1725.97 -2.51324 0.476435 0
M  V30 18601 H 1725.62 -5.03391 0.675263 0
M  V30 18602 H 1725.55 -5.14959 -1.10111 0
M  V30 18603 H 1728.04 -3.75872 -0.391004 0
M  V30 18604 H 1728.35 -7.72602 -0.175048 0
M  V30 18605 H 1726.69 -6.94806 -0.164374 0
M  V30 18606 H 1729.89 -4.66384 -0.400452 0
M  V30 18607 H 1730.06 -6.47295 -0.302203 0
M  V30 18608 N 1723.46 0.290824 -1.54893 0
M  V30 18609 C 1724.39 1.36354 -1.89551 0
M  V30 18610 C 1725.38 1.52403 -0.75546 0
M  V30 18611 O 1726.56 1.65743 -1.01208 0
M  V30 18612 C 1723.69 2.72609 -2.15178 0
M  V30 18613 C 1722.64 2.71313 -3.31019 0
M  V30 18614 C 1721.97 4.10952 -3.42085 0
M  V30 18615 C 1723.27 2.32153 -4.6787 0
M  V30 18616 H 1724.96 1.07597 -2.79398 0
M  V30 18617 H 1722.51 0.516154 -1.34432 0
M  V30 18618 H 1724.46 3.47749 -2.3801 0
M  V30 18619 H 1723.19 3.02913 -1.22112 0
M  V30 18620 H 1721.85 1.9863 -3.08126 0
M  V30 18621 H 1721.49 4.38449 -2.46518 0
M  V30 18622 H 1721.19 4.10984 -4.1996 0
M  V30 18623 H 1722.72 4.87857 -3.67189 0
M  V30 18624 H 1724.13 2.97011 -4.90364 0
M  V30 18625 H 1722.53 2.4338 -5.48531 0
M  V30 18626 H 1723.6 1.27279 -4.67897 0
M  V30 18627 N 1724.94 1.47523 0.554506 0
M  V30 18628 C 1725.91 1.59761 1.64345 0
M  V30 18629 C 1726.91 0.472516 1.53701 0
M  V30 18630 O 1728.1 0.737659 1.57811 0
M  V30 18631 C 1725.23 1.54467 3.03896 0
M  V30 18632 H 1726.42 2.56834 1.54842 0
M  V30 18633 H 1723.97 1.35753 0.774643 0
M  V30 18634 H 1724.71 0.587789 3.18929 0
M  V30 18635 H 1724.49 2.36123 3.13031 0
M  V30 18636 H 1725.98 1.66174 3.83113 0
M  V30 18637 N 1726.42 -0.801453 1.357 0
M  V30 18638 C 1727.65 -1.59001 1.32386 0
M  V30 18639 C 1728.06 -1.88548 -0.0975432 0
M  V30 18640 O 1727.42 -1.49199 -1.05099 0
M  V30 18641 C 1727.47 -2.91822 2.13359 0
M  V30 18642 O 1727.19 -2.63554 3.49958 0
M  V30 18643 C 1728.69 -3.86169 2.17689 0
M  V30 18644 H 1725.91 -0.493557 0.45458 0
M  V30 18645 H 1728.46 -0.995616 1.78627 0
M  V30 18646 H 1726.61 -3.47763 1.70704 0
M  V30 18647 H 1727.03 -3.48397 3.92071 0
M  V30 18648 H 1728.5 -4.76461 2.78727 0
M  V30 18649 H 1728.98 -4.23134 1.17704 0
M  V30 18650 H 1729.58 -3.36163 2.60527 0
M  V30 18651 N 1727.9 -1.19782 -1.02421 0
M  V30 18652 C 1728.86 -0.941631 -2.08964 0
M  V30 18653 C 1729.86 0.0797747 -1.60602 0
M  V30 18654 O 1731.05 -0.155473 -1.73505 0
M  V30 18655 C 1728.18 -0.416114 -3.38351 0
M  V30 18656 H 1729.38 -1.88661 -2.33125 0
M  V30 18657 H 1726.93 -1.01212 -1.19104 0
M  V30 18658 H 1727.66 0.53469 -3.19862 0
M  V30 18659 H 1727.45 -1.15262 -3.74776 0
M  V30 18660 H 1728.94 -0.256114 -4.16814 0
M  V30 18661 N 1729.38 1.21606 -1.00248 0
M  V30 18662 C 1730.31 2.22528 -0.505624 0
M  V30 18663 C 1731.29 1.56553 0.439305 0
M  V30 18664 O 1732.47 1.84979 0.362615 0
M  V30 18665 C 1729.6 3.37655 0.26586 0
M  V30 18666 C 1728.65 4.21874 -0.626492 0
M  V30 18667 S 1729.48 4.9314 -2.08743 0
M  V30 18668 C 1730.63 6.11699 -1.32571 0
M  V30 18669 H 1730.87 2.64329 -1.36079 0
M  V30 18670 H 1728.4 1.31434 -0.810219 0
M  V30 18671 H 1730.36 4.04402 0.70491 0
M  V30 18672 H 1729.02 2.94342 1.09642 0
M  V30 18673 H 1728.21 5.0399 -0.0323809 0
M  V30 18674 H 1727.81 3.60308 -1.00271 0
M  V30 18675 H 1730.11 6.74853 -0.598298 0
M  V30 18676 H 1731.05 6.75541 -2.12249 0
M  V30 18677 H 1731.46 5.58293 -0.834785 0
M  V30 18678 N 1730.86 0.776895 1.37121 0
M  V30 18679 C 1731.8 0.164838 2.30211 0
M  V30 18680 C 1732.77 -0.684137 1.51356 0
M  V30 18681 O 1733.96 -0.635428 1.79908 0
M  V30 18682 C 1731.1 -0.704263 3.37837 0
M  V30 18683 C 1730.21 0.161881 4.31697 0
M  V30 18684 C 1729.35 -0.712411 5.26401 0
M  V30 18685 C 1728.38 0.155953 6.11901 0
M  V30 18686 N 1727.52 -0.676607 6.98832 0
M  V30 18687 H 1732.36 0.964185 2.81971 0
M  V30 18688 H 1729.9 0.487065 1.38802 0
M  V30 18689 H 1731.86 -1.22302 3.98871 0
M  V30 18690 H 1730.49 -1.46916 2.87429 0
M  V30 18691 H 1729.54 0.798491 3.71925 0
M  V30 18692 H 1730.85 0.831496 4.91821 0
M  V30 18693 H 1730 -1.29745 5.92664 0
M  V30 18694 H 1728.74 -1.41569 4.66701 0
M  V30 18695 H 1727.75 0.753493 5.44612 0
M  V30 18696 H 1728.97 0.856645 6.73675 0
M  V30 18697 H 1726.92 -1.36441 6.41654 0
M  V30 18698 H 1726.84 -0.0644017 7.55973 0
M  V30 18699 H 1728.1 -1.24588 7.69479 0
M  V30 18700 N 1732.33 -1.48497 0.527859 0
M  V30 18701 C 1733.26 -2.32414 -0.224891 0
M  V30 18702 C 1734.24 -1.41959 -0.93711 0
M  V30 18703 O 1735.43 -1.70847 -0.923302 0
M  V30 18704 C 1732.56 -3.23106 -1.27356 0
M  V30 18705 C 1731.51 -4.2257 -0.679611 0
M  V30 18706 C 1730.84 -5.02381 -1.83077 0
M  V30 18707 C 1732.14 -5.21144 0.347269 0
M  V30 18708 H 1733.83 -2.95598 0.475632 0
M  V30 18709 H 1731.38 -1.42148 0.230182 0
M  V30 18710 H 1733.33 -3.80639 -1.8081 0
M  V30 18711 H 1732.06 -2.57919 -2.00363 0
M  V30 18712 H 1730.72 -3.66221 -0.166608 0
M  V30 18713 H 1730.36 -4.3362 -2.54918 0
M  V30 18714 H 1730.06 -5.697 -1.43929 0
M  V30 18715 H 1731.59 -5.62765 -2.36914 0
M  V30 18716 H 1733 -5.73213 -0.100107 0
M  V30 18717 H 1731.4 -5.96503 0.656021 0
M  V30 18718 H 1732.47 -4.6841 1.25379 0
M  V30 18719 N 1733.81 -0.262893 -1.55392 0
M  V30 18720 C 1735.06 0.35666 -1.98928 0
M  V30 18721 C 1735.38 1.5729 -1.1526 0
M  V30 18722 O 1734.65 1.94435 -0.239164 0
M  V30 18723 H 1733.23 0.134768 -0.734742 0
M  V30 18724 H 1735.89 -0.365394 -1.91444 0
M  V30 18725 H 1734.99 0.654895 -3.05152 0
M  V30 18726 N 1735.29 1.57597 0.0100073 0
M  V30 18727 C 1736.54 1.90129 0.696935 0
M  V30 18728 C 1736.86 0.862514 1.7433 0
M  V30 18729 O 1736.12 -0.134054 1.9524 0
M  V30 18730 C 1736.42 3.29416 1.38635 0
M  V30 18731 C 1736.08 4.484 0.474144 0
M  V30 18732 C 1734.75 4.80683 0.222956 0
M  V30 18733 C 1737.1 5.20971 -0.154514 0
M  V30 18734 C 1734.43 5.82915 -0.665351 0
M  V30 18735 C 1736.78 6.24148 -1.03064 0
M  V30 18736 C 1735.44 6.54895 -1.2911 0
M  V30 18737 H 1734.71 0.695732 0.255027 0
M  V30 18738 H 1737.36 1.91451 -0.0433713 0
M  V30 18739 H 1735.66 3.24172 2.20045 0
M  V30 18740 H 1737.36 3.51843 1.92373 0
M  V30 18741 H 1733.95 4.2317 0.680087 0
M  V30 18742 H 1738.14 4.96293 0.0265512 0
M  V30 18743 H 1733.39 6.05103 -0.875259 0
M  V30 18744 H 1737.57 6.79516 -1.52417 0
M  V30 18745 H 1735.19 7.33931 -1.98113 0
M  V30 18746 N 1736.77 -0.282606 1.55045 0
M  V30 18747 C 1737.99 -1.03825 1.79542 0
M  V30 18748 C 1738.42 -1.79503 0.562165 0
M  V30 18749 O 1737.78 -1.7461 -0.487946 0
M  V30 18750 C 1737.82 -1.98007 3.01373 0
M  V30 18751 O 1736.93 -3.06621 2.75785 0
M  V30 18752 H 1736.27 -0.297333 0.593708 0
M  V30 18753 H 1738.8 -0.314434 2.02169 0
M  V30 18754 H 1738.81 -2.40138 3.29845 0
M  V30 18755 H 1737.48 -1.42335 3.90786 0
M  V30 18756 H 1736.06 -2.68874 2.58382 0
M  V30 18757 N 1738.25 -1.47815 -0.546675 0
M  V30 18758 C 1739.66 -1.33566 -0.873628 0
M  V30 18759 C 1739.86 -0.334067 -1.98711 0
M  V30 18760 O 1738.92 0.250675 -2.51253 0
M  V30 18761 C 1740.23 -2.73171 -1.25691 0
M  V30 18762 C 1741.78 -2.81535 -1.36774 0
M  V30 18763 C 1742.25 -4.21804 -1.78454 0
M  V30 18764 N 1743.74 -4.24396 -1.85586 0
M  V30 18765 C 1744.48 -5.29854 -2.19186 0
M  V30 18766 N 1743.98 -6.45606 -2.51326 0
M  V30 18767 N 1745.77 -5.17237 -2.2005 0
M  V30 18768 H 1737.92 -2.11564 0.188285 0
M  V30 18769 H 1740.18 -0.947754 0.0215773 0
M  V30 18770 H 1739.89 -3.47946 -0.512485 0
M  V30 18771 H 1739.76 -3.05622 -2.21077 0
M  V30 18772 H 1742.15 -2.07025 -2.10297 0
M  V30 18773 H 1742.23 -2.52724 -0.395504 0
M  V30 18774 H 1741.87 -4.96823 -1.05498 0
M  V30 18775 H 1741.8 -4.48046 -2.76699 0
M  V30 18776 H 1744.3 -3.40895 -1.63092 0
M  V30 18777 H 1744.61 -7.21825 -2.76022 0
M  V30 18778 H 1742.95 -6.48909 -2.48883 0
M  V30 18779 H 1746.14 -4.2583 -1.94387 0
M  V30 18780 H 1746.32 -5.99529 -2.45905 0
M  V30 18781 N 1739.72 0.794246 -1.36123 0
M  V30 18782 C 1741.13 1.36909 -1.26936 0
M  V30 18783 C 1741.49 1.9598 0.0929337 0
M  V30 18784 O 1740.61 1.92206 0.994266 0
M  V30 18785 C 1741.21 2.48906 -2.2985 0
M  V30 18786 C 1739.76 3.0222 -2.24366 0
M  V30 18787 C 1738.91 1.75264 -2.1489 0
M  V30 18788 H 1741.86 0.596278 -1.47072 0
M  V30 18789 H 1741.88 3.27794 -1.93213 0
M  V30 18790 H 1741.4 2.05884 -3.28988 0
M  V30 18791 H 1739.5 3.49675 -1.28679 0
M  V30 18792 H 1739.61 3.59363 -3.16852 0
M  V30 18793 H 1737.97 1.97306 -1.61066 0
M  V30 18794 H 1738.76 1.34377 -3.15908 0
M  V30 18795 N 1741.2 1.20323 1.01785 0
M  V30 18796 C 1742.45 1.02417 1.75734 0
M  V30 18797 C 1742.8 -0.439244 1.87319 0
M  V30 18798 O 1742.1 -1.32182 1.38703 0
M  V30 18799 C 1742.29 1.63984 3.1756 0
M  V30 18800 C 1742.12 3.1616 3.19802 0
M  V30 18801 C 1740.89 3.85129 3.27114 0
M  V30 18802 C 1743.09 4.13399 3.0595 0
M  V30 18803 N 1741.07 5.24604 3.18847 0
M  V30 18804 C 1742.44 5.39543 3.05439 0
M  V30 18805 C 1744.49 4.04615 2.90158 0
M  V30 18806 C 1743.2 6.57917 2.90755 0
M  V30 18807 C 1745.22 5.2261 2.76827 0
M  V30 18808 C 1744.59 6.47658 2.7698 0
M  V30 18809 H 1740.68 0.428994 0.653826 0
M  V30 18810 H 1743.27 1.52474 1.21078 0
M  V30 18811 H 1741.44 1.16512 3.70512 0
M  V30 18812 H 1743.17 1.39406 3.79932 0
M  V30 18813 H 1739.93 3.3598 3.33788 0
M  V30 18814 H 1740.35 5.97618 3.18091 0
M  V30 18815 H 1744.99 3.08745 2.88853 0
M  V30 18816 H 1742.71 7.5396 2.90808 0
M  V30 18817 H 1746.3 5.17623 2.65626 0
M  V30 18818 H 1745.18 7.37426 2.66781 0
M  V30 18819 N 1742.68 -1.21073 1.00892 0
M  V30 18820 C 1744.09 -1.71982 0.726576 0
M  V30 18821 C 1744.44 -1.81071 -0.755486 0
M  V30 18822 O 1743.57 -1.46797 -1.58996 0
M  V30 18823 C 1744.16 -3.12354 1.31226 0
M  V30 18824 C 1742.72 -3.60605 1.07895 0
M  V30 18825 C 1741.87 -2.38024 1.42267 0
M  V30 18826 H 1744.82 -1.06195 1.17934 0
M  V30 18827 H 1744.84 -3.74026 0.6989 0
M  V30 18828 H 1744.35 -3.05707 2.39092 0
M  V30 18829 H 1742.45 -3.72596 0.0176168 0
M  V30 18830 H 1742.57 -4.45854 1.7536 0
M  V30 18831 H 1740.93 -2.40396 0.841531 0
M  V30 18832 H 1741.71 -2.34024 2.51173 0
M  V30 18833 N 1744.16 -0.784156 -1.36707 0
M  V30 18834 C 1745.07 -0.179959 -2.33909 0
M  V30 18835 C 1746.08 0.665092 -1.60787 0
M  V30 18836 O 1747.26 0.582111 -1.92804 0
M  V30 18837 C 1744.33 0.679323 -3.3998 0
M  V30 18838 C 1743.39 -0.183618 -4.28907 0
M  V30 18839 C 1742.62 0.634747 -5.29912 0
M  V30 18840 O 1742.84 1.87107 -5.38839 0
M  V30 18841 O 1741.78 0.0374113 -6.01888 0
M  V30 18842 H 1745.6 -0.983499 -2.87334 0
M  V30 18843 H 1743.19 -0.545521 -1.39084 0
M  V30 18844 H 1745.07 1.16948 -4.04847 0
M  V30 18845 H 1743.74 1.46084 -2.88862 0
M  V30 18846 H 1742.65 -0.720419 -3.67098 0
M  V30 18847 H 1743.98 -0.928522 -4.83363 0
M  V30 18848 N 1745.64 1.48215 -0.535727 0
M  V30 18849 C 1746.6 2.28206 0.213212 0
M  V30 18850 C 1747.6 1.3571 0.862522 0
M  V30 18851 O 1748.79 1.58547 0.721688 0
M  V30 18852 C 1745.92 3.1476 1.30917 0
M  V30 18853 H 1747.11 2.95884 -0.489163 0
M  V30 18854 H 1744.67 1.53551 -0.291872 0
M  V30 18855 H 1745.4 2.51726 2.04462 0
M  V30 18856 H 1745.19 3.82806 0.848633 0
M  V30 18857 H 1746.68 3.75085 1.83579 0
M  V30 18858 N 1747.11 0.27113 1.5525 0
M  V30 18859 C 1748.05 -0.659325 2.18468 0
M  V30 18860 C 1749.03 -1.15515 1.14433 0
M  V30 18861 O 1750.21 -1.22885 1.42939 0
M  V30 18862 C 1747.34 -1.89873 2.80474 0
M  V30 18863 C 1746.38 -1.53872 3.97776 0
M  V30 18864 S 1747.22 -0.620335 5.31895 0
M  V30 18865 C 1748.37 -1.86821 5.97368 0
M  V30 18866 H 1748.6 -0.122165 2.97049 0
M  V30 18867 H 1746.14 0.0554132 1.54301 0
M  V30 18868 H 1748.1 -2.61014 3.16831 0
M  V30 18869 H 1746.76 -2.40703 2.01794 0
M  V30 18870 H 1745.95 -2.46087 4.39838 0
M  V30 18871 H 1745.55 -0.907534 3.62822 0
M  V30 18872 H 1747.84 -2.81261 6.16359 0
M  V30 18873 H 1748.79 -1.49066 6.92232 0
M  V30 18874 H 1749.19 -2.03133 5.26685 0
M  V30 18875 N 1748.59 -1.576 -0.00164943 0
M  V30 18876 C 1749.52 -2.05167 -1.02173 0
M  V30 18877 C 1750.54 -0.969293 -1.308 0
M  V30 18878 O 1751.73 -1.24612 -1.27805 0
M  V30 18879 C 1748.83 -2.43525 -2.35688 0
M  V30 18880 C 1748 -3.74475 -2.26025 0
M  V30 18881 C 1747.06 -3.99719 -3.42215 0
M  V30 18882 O 1746.08 -4.70408 -3.20476 0
M  V30 18883 N 1747.29 -3.47486 -4.65009 0
M  V30 18884 H 1750.05 -2.93299 -0.616095 0
M  V30 18885 H 1747.61 -1.60792 -0.189066 0
M  V30 18886 H 1749.6 -2.57528 -3.12188 0
M  V30 18887 H 1748.17 -1.6092 -2.67999 0
M  V30 18888 H 1747.39 -3.70564 -1.34447 0
M  V30 18889 H 1748.68 -4.60328 -2.16739 0
M  V30 18890 H 1748.08 -2.9024 -4.85569 0
M  V30 18891 H 1746.64 -3.66822 -5.38781 0
M  V30 18892 N 1750.07 0.274379 -1.55193 0
M  V30 18893 C 1751 1.34336 -1.90987 0
M  V30 18894 C 1751.98 1.51594 -0.771582 0
M  V30 18895 O 1753.17 1.6466 -1.0296 0
M  V30 18896 C 1750.3 2.70312 -2.18057 0
M  V30 18897 C 1749.25 2.67787 -3.33878 0
M  V30 18898 C 1748.58 4.07301 -3.46425 0
M  V30 18899 C 1749.88 2.27178 -4.70306 0
M  V30 18900 H 1751.57 1.04627 -2.80524 0
M  V30 18901 H 1749.12 0.501867 -1.34971 0
M  V30 18902 H 1751.07 3.45205 -2.41685 0
M  V30 18903 H 1749.79 3.01601 -1.25318 0
M  V30 18904 H 1748.45 1.95351 -3.10216 0
M  V30 18905 H 1748.1 4.3581 -2.51155 0
M  V30 18906 H 1747.8 4.06507 -4.24295 0
M  V30 18907 H 1749.32 4.83935 -3.72343 0
M  V30 18908 H 1750.74 2.91794 -4.93487 0
M  V30 18909 H 1749.14 2.37548 -5.51082 0
M  V30 18910 H 1750.21 1.22309 -4.69221 0
M  V30 18911 N 1751.55 1.48103 0.538828 0
M  V30 18912 C 1752.8 1.54925 1.29156 0
M  V30 18913 C 1753.11 0.224177 1.94311 0
M  V30 18914 O 1754.32 0.170559 2.70964 0
M  V30 18915 C 1752.77 2.73184 2.34304 0
M  V30 18916 C 1752.38 4.12297 1.75257 0
M  V30 18917 C 1754.12 2.89313 3.10642 0
M  V30 18918 C 1752.03 5.2183 2.78294 0
M  V30 18919 H 1750.96 0.576723 0.485702 0
M  V30 18920 H 1753.61 1.74418 0.570142 0
M  V30 18921 H 1751.99 2.47107 3.09441 0
M  V30 18922 H 1753.17 4.48355 1.06368 0
M  V30 18923 H 1751.48 4.0121 1.11442 0
M  V30 18924 H 1754.08 3.68313 3.87621 0
M  V30 18925 H 1754.42 1.98438 3.65962 0
M  V30 18926 H 1754.96 3.15248 2.42618 0
M  V30 18927 H 1751.7 6.14642 2.27805 0
M  V30 18928 H 1751.22 4.90269 3.45537 0
M  V30 18929 H 1752.89 5.49567 3.41446 0
M  V30 18930 N 1753.03 -0.787016 1.36542 0
M  V30 18931 C 1754.25 -1.57588 1.34065 0
M  V30 18932 C 1754.67 -1.88641 -0.0775397 0
M  V30 18933 O 1754.03 -1.50306 -1.03511 0
M  V30 18934 C 1754.08 -2.89543 2.16442 0
M  V30 18935 O 1753.8 -2.59828 3.52734 0
M  V30 18936 C 1755.3 -3.83838 2.21773 0
M  V30 18937 H 1752.52 -0.488708 0.459789 0
M  V30 18938 H 1755.06 -0.976614 1.79673 0
M  V30 18939 H 1753.22 -3.45933 1.74383 0
M  V30 18940 H 1753.63 -3.44219 3.95744 0
M  V30 18941 H 1755.11 -4.73478 2.83765 0
M  V30 18942 H 1755.58 -4.21862 1.22185 0
M  V30 18943 H 1756.19 -3.33381 2.64078 0
M  V30 18944 N 1754.5 -1.20861 -1.01145 0
M  V30 18945 C 1755.75 -1.0199 -1.74478 0
M  V30 18946 C 1756.07 0.4484 -1.89775 0
M  V30 18947 O 1755.34 1.32386 -1.44398 0
M  V30 18948 H 1753.92 -0.37439 -0.646406 0
M  V30 18949 H 1756.59 -1.5206 -1.21917 0
M  V30 18950 H 1755.68 -1.48251 -2.74642 0
M  V30 18951 N 1755.98 1.20536 -1.01532 0
M  V30 18952 C 1756.91 2.22683 -0.542658 0
M  V30 18953 C 1757.93 1.5844 0.374267 0
M  V30 18954 O 1759.12 1.77661 0.172818 0
M  V30 18955 C 1756.22 3.38117 0.230168 0
M  V30 18956 C 1755.39 4.3195 -0.688356 0
M  V30 18957 C 1754.45 5.26187 0.0366686 0
M  V30 18958 O 1753.47 5.66182 -0.585418 0
M  V30 18959 N 1754.68 5.65481 1.31193 0
M  V30 18960 H 1757.44 2.63864 -1.42111 0
M  V30 18961 H 1755 1.35065 -0.892703 0
M  V30 18962 H 1756.99 3.98164 0.724408 0
M  V30 18963 H 1755.56 2.95837 1.00991 0
M  V30 18964 H 1754.78 3.69889 -1.36292 0
M  V30 18965 H 1756.07 4.91564 -1.3131 0
M  V30 18966 H 1755.47 5.34998 1.83829 0
M  V30 18967 H 1754.03 6.27842 1.75092 0
M  V30 18968 N 1757.46 0.791395 1.36289 0
M  V30 18969 C 1758.87 0.427611 1.81737 0
M  V30 18970 C 1759.22 -1.04868 1.65822 0
M  V30 18971 O 1758.35 -1.81379 1.18028 0
M  V30 18972 C 1758.94 0.769378 3.29949 0
M  V30 18973 C 1757.5 0.458397 3.73598 0
M  V30 18974 C 1756.65 1.00299 2.58526 0
M  V30 18975 H 1759.6 0.98437 1.24482 0
M  V30 18976 H 1759.62 0.061211 3.80451 0
M  V30 18977 H 1759.13 1.8439 3.415 0
M  V30 18978 H 1757.23 -0.608006 3.67606 0
M  V30 18979 H 1757.35 0.980392 4.68962 0
M  V30 18980 H 1755.71 0.426106 2.5111 0
M  V30 18981 H 1756.49 2.08331 2.72861 0
M  V30 18982 N 1758.94 -1.47929 0.54358 0
M  V30 18983 C 1759.89 -2.3151 -0.224935 0
M  V30 18984 C 1760.88 -1.4208 -0.922473 0
M  V30 18985 O 1762.09 -1.58917 -0.845309 0
M  V30 18986 H 1758.46 -0.746424 -0.0914091 0
M  V30 18987 H 1760.43 -2.94192 0.499381 0
M  V30 18988 C 1759.18 -3.24439 -1.25038 0
M  V30 18989 H 1758.51 -3.93207 -0.723059 0
M  V30 18990 H 1759.95 -3.8578 -1.75927 0
M  V30 18991 C 1758.4 -2.46998 -2.29115 0
M  V30 18992 O 1758.93 -2.20457 -3.358 0
M  V30 18993 N 1757.14 -2.08249 -2.02684 0
M  V30 18994 H 1756.69 -2.30034 -1.15941 0
M  V30 18995 H 1756.65 -1.56748 -2.72539 0
M  V30 18996 N 1760.42 -0.27936 -1.55104 0
M  V30 18997 C 1761.35 0.64773 -2.18814 0
M  V30 18998 C 1762.33 1.14907 -1.15044 0
M  V30 18999 O 1763.51 1.22126 -1.43588 0
M  V30 19000 C 1760.64 1.88383 -2.81477 0
M  V30 19001 C 1759.69 1.51761 -3.98586 0
M  V30 19002 S 1760.52 0.592119 -5.32216 0
M  V30 19003 C 1761.67 1.8365 -5.98351 0
M  V30 19004 H 1761.91 0.10641 -2.9711 0
M  V30 19005 H 1759.44 -0.0635953 -1.54269 0
M  V30 19006 H 1761.4 2.5933 -3.18211 0
M  V30 19007 H 1760.06 2.39629 -2.03068 0
M  V30 19008 H 1759.25 2.43751 -4.41137 0
M  V30 19009 H 1758.85 0.88828 -3.63298 0
M  V30 19010 H 1761.15 2.77989 -6.17842 0
M  V30 19011 H 1762.09 1.45393 -6.93013 0
M  V30 19012 H 1762.5 2.00337 -5.27755 0
M  V30 19013 N 1761.9 1.57599 -0.0067085 0
M  V30 19014 C 1763.12 1.95545 0.69115 0
M  V30 19015 C 1763.55 0.882014 1.66139 0
M  V30 19016 O 1762.9 -0.159242 1.80599 0
M  V30 19017 C 1762.95 3.3259 1.39342 0
M  V30 19018 O 1762.06 3.27368 2.50806 0
M  V30 19019 H 1761.4 0.638188 0.183336 0
M  V30 19020 H 1763.93 2.04506 -0.0618957 0
M  V30 19021 H 1763.94 3.6831 1.75532 0
M  V30 19022 H 1762.61 4.10269 0.682072 0
M  V30 19023 H 1761.19 3.03334 2.16894 0
M  V30 19024 N 1763.37 -0.266145 1.55336 0
M  V30 19025 C 1764.34 -1.31242 1.87904 0
M  V30 19026 C 1765.34 -1.42022 0.754083 0
M  V30 19027 O 1766.53 -1.41054 1.02222 0
M  V30 19028 C 1763.66 -2.69285 2.09041 0
M  V30 19029 H 1764.85 -1.03592 2.81441 0
M  V30 19030 H 1762.4 -0.504537 1.47933 0
M  V30 19031 H 1763.14 -3.02106 1.17909 0
M  V30 19032 H 1762.92 -2.62846 2.90954 0
M  V30 19033 H 1764.41 -3.4487 2.35488 0
M  V30 19034 N 1764.85 -1.48386 -0.530967 0
M  V30 19035 C 1766.08 -1.60269 -1.31638 0
M  V30 19036 C 1766.5 -0.262789 -1.86255 0
M  V30 19037 O 1765.86 0.765389 -1.64352 0
M  V30 19038 C 1765.91 -2.65163 -2.44379 0
M  V30 19039 O 1765.01 -2.22254 -3.47386 0
M  V30 19040 H 1764.35 -0.537456 -0.38992 0
M  V30 19041 H 1766.88 -1.94366 -0.639 0
M  V30 19042 H 1766.89 -2.86405 -2.90579 0
M  V30 19043 H 1765.57 -3.62439 -2.03987 0
M  V30 19044 H 1764.14 -2.11221 -3.07311 0
M  V30 19045 N 1766.33 0.779763 -1.36958 0
M  V30 19046 C 1767.29 1.87439 -1.31906 0
M  V30 19047 C 1768.29 1.59222 -0.224739 0
M  V30 19048 O 1769.48 1.67453 -0.480109 0
M  V30 19049 C 1766.61 3.24419 -1.04716 0
M  V30 19050 H 1767.81 1.93333 -2.29265 0
M  V30 19051 H 1765.36 0.978634 -1.21871 0
M  V30 19052 H 1766.1 3.24205 -0.0785442 0
M  V30 19053 H 1765.88 3.4629 -1.83917 0
M  V30 19054 H 1767.37 4.04491 -1.0381 0
M  V30 19055 N 1767.81 1.21396 1.00503 0
M  V30 19056 C 1768.74 0.916483 2.08988 0
M  V30 19057 C 1769.72 -0.135972 1.6203 0
M  V30 19058 O 1770.9 -0.00701537 1.88499 0
M  V30 19059 C 1768.03 0.376122 3.36605 0
M  V30 19060 C 1767.08 1.41137 4.0247 0
M  V30 19061 S 1767.91 2.98055 4.44886 0
M  V30 19062 C 1769.06 2.45626 5.7569 0
M  V30 19063 H 1769.3 1.83517 2.33899 0
M  V30 19064 H 1766.83 1.0437 1.13782 0
M  V30 19065 H 1768.79 0.0709239 4.10439 0
M  V30 19066 H 1767.45 -0.52125 3.09745 0
M  V30 19067 H 1766.64 0.982903 4.94323 0
M  V30 19068 H 1766.24 1.66465 3.34911 0
M  V30 19069 H 1768.54 1.8611 6.51436 0
M  V30 19070 H 1769.48 3.3592 6.23348 0
M  V30 19071 H 1769.89 1.87337 5.32508 0
M  V30 19072 N 1769.29 -1.19996 1.0217 0
M  V30 19073 C 1770.22 -2.25206 0.616818 0
M  V30 19074 C 1771.2 -1.66013 -0.370653 0
M  V30 19075 O 1772.38 -1.92519 -0.254956 0
M  V30 19076 C 1769.51 -3.47276 -0.0405129 0
M  V30 19077 C 1768.47 -4.19096 0.868479 0
M  V30 19078 C 1767.79 -5.34645 0.0766447 0
M  V30 19079 C 1769.09 -4.7468 2.1789 0
M  V30 19080 H 1770.79 -2.59328 1.49632 0
M  V30 19081 H 1768.33 -1.24655 0.720917 0
M  V30 19082 H 1770.28 -4.20063 -0.335355 0
M  V30 19083 H 1769.01 -3.12333 -0.954759 0
M  V30 19084 H 1767.67 -3.48181 1.1474 0
M  V30 19085 H 1767.32 -4.95946 -0.839411 0
M  V30 19086 H 1767.02 -5.83628 0.682041 0
M  V30 19087 H 1768.54 -6.10233 -0.211624 0
M  V30 19088 H 1769.95 -5.39259 1.94608 0
M  V30 19089 H 1768.35 -5.34121 2.7356 0
M  V30 19090 H 1769.42 -3.93141 2.83845 0
M  V30 19091 N 1770.76 -0.798611 -1.35867 0
M  V30 19092 C 1771.99 -0.386378 -2.03769 0
M  V30 19093 C 1772.41 0.992154 -1.59806 0
M  V30 19094 O 1771.77 1.64094 -0.770895 0
M  V30 19095 C 1771.82 -0.468859 -3.57539 0
M  V30 19096 O 1770.92 0.520742 -4.09099 0
M  V30 19097 H 1770.26 -0.162597 -0.643784 0
M  V30 19098 H 1772.79 -1.08228 -1.73631 0
M  V30 19099 H 1772.8 -0.335775 -4.06616 0
M  V30 19100 H 1771.48 -1.47441 -3.88888 0
M  V30 19101 H 1770.06 0.348559 -3.71267 0
M  V30 19102 N 1772.24 1.47639 -0.551417 0
M  V30 19103 C 1773.47 2.06578 -0.0298471 0
M  V30 19104 C 1773.88 1.40538 1.26672 0
M  V30 19105 O 1773.22 0.493957 1.76934 0
M  V30 19106 C 1773.28 3.5868 0.242667 0
M  V30 19107 C 1772.95 4.46726 -0.963597 0
M  V30 19108 C 1773.95 4.85195 -1.86766 0
M  V30 19109 C 1771.63 4.88324 -1.17664 0
M  V30 19110 C 1773.62 5.64056 -2.96849 0
M  V30 19111 C 1771.31 5.66951 -2.28058 0
M  V30 19112 C 1772.31 6.04727 -3.17482 0
M  V30 19113 O 1772 6.81771 -4.25963 0
M  V30 19114 H 1771.73 0.674806 -0.0401627 0
M  V30 19115 H 1774.28 1.90714 -0.762724 0
M  V30 19116 H 1772.51 3.72736 1.02978 0
M  V30 19117 H 1774.2 3.99661 0.708914 0
M  V30 19118 H 1774.97 4.53662 -1.7151 0
M  V30 19119 H 1770.85 4.58391 -0.489796 0
M  V30 19120 H 1774.39 5.93461 -3.66675 0
M  V30 19121 H 1770.29 5.97897 -2.43289 0
M  V30 19122 H 1771.06 7.00156 -4.23938 0
M  V30 19123 N 1773.72 0.287581 1.54954 0
M  V30 19124 C 1774.97 -0.32561 1.99865 0
M  V30 19125 C 1775.3 -1.54921 1.176 0
M  V30 19126 O 1774.55 -1.94262 0.236802 0
M  V30 19127 C 1774.85 -0.739779 3.4966 0
M  V30 19128 C 1774.52 0.380573 4.49291 0
M  V30 19129 C 1773.18 0.688172 4.76254 0
M  V30 19130 C 1775.53 1.13489 5.08694 0
M  V30 19131 C 1772.86 1.75344 5.59885 0
M  V30 19132 C 1775.21 2.18998 5.93484 0
M  V30 19133 C 1773.87 2.50379 6.18762 0
M  V30 19134 H 1773.14 -0.119149 0.731358 0
M  V30 19135 H 1775.79 0.403889 1.87192 0
M  V30 19136 H 1774.1 -1.54915 3.59873 0
M  V30 19137 H 1775.79 -1.22518 3.81825 0
M  V30 19138 H 1772.38 0.130718 4.28401 0
M  V30 19139 H 1776.57 0.910505 4.87877 0
M  V30 19140 H 1771.82 2.00145 5.77713 0
M  V30 19141 H 1776 2.77913 6.38543 0
M  V30 19142 H 1773.62 3.33057 6.83357 0
M  V30 19143 N 1775.2 -1.57593 0.0150662 0
M  V30 19144 C 1776.15 -2.0936 -0.971443 0
M  V30 19145 C 1777.12 -0.992416 -1.33193 0
M  V30 19146 O 1778.3 -1.26577 -1.42769 0
M  V30 19147 C 1775.44 -2.61386 -2.25324 0
M  V30 19148 C 1774.55 -3.85462 -1.95046 0
M  V30 19149 C 1773.69 -4.25934 -3.17418 0
M  V30 19150 C 1772.73 -5.42805 -2.82894 0
M  V30 19151 N 1771.86 -5.78499 -3.97848 0
M  V30 19152 H 1776.7 -2.93373 -0.523068 0
M  V30 19153 H 1774.24 -1.45018 -0.246605 0
M  V30 19154 H 1776.2 -2.89635 -3.00279 0
M  V30 19155 H 1774.83 -1.80225 -2.67804 0
M  V30 19156 H 1773.88 -3.64029 -1.10394 0
M  V30 19157 H 1775.19 -4.70505 -1.6561 0
M  V30 19158 H 1774.35 -4.55544 -4.00705 0
M  V30 19159 H 1773.09 -3.3963 -3.50004 0
M  V30 19160 H 1772.09 -5.12903 -1.98016 0
M  V30 19161 H 1773.32 -6.30797 -2.51539 0
M  V30 19162 H 1771.26 -4.95152 -4.30303 0
M  V30 19163 H 1771.18 -6.5815 -3.71988 0
M  V30 19164 H 1772.45 -6.12708 -4.8188 0
M  V30 19165 N 1776.68 0.257904 -1.55475 0
M  V30 19166 C 1778.09 0.82782 -1.67344 0
M  V30 19167 C 1778.44 1.8646 -0.610494 0
M  V30 19168 O 1777.56 2.15005 0.245275 0
M  V30 19169 C 1778.16 1.5083 -3.03374 0
M  V30 19170 C 1776.72 2.02605 -3.17219 0
M  V30 19171 C 1775.86 0.873303 -2.63189 0
M  V30 19172 H 1778.82 0.0339334 -1.58664 0
M  V30 19173 H 1778.84 2.3759 -2.97205 0
M  V30 19174 H 1778.35 0.753469 -3.80716 0
M  V30 19175 H 1776.45 2.81002 -2.4468 0
M  V30 19176 H 1776.56 2.23099 -4.23985 0
M  V30 19177 H 1774.93 1.27082 -2.20731 0
M  V30 19178 H 1775.71 0.131739 -3.43047 0
M  V30 19179 N 1778.15 1.48666 0.52309 0
M  V30 19180 C 1779.08 1.666 1.63605 0
M  V30 19181 C 1780.07 0.514803 1.62123 0
M  V30 19182 O 1781.25 0.748138 1.79211 0
M  V30 19183 C 1778.38 1.71199 3.02172 0
M  V30 19184 C 1777.33 2.85888 3.18515 0
M  V30 19185 C 1776.66 2.75582 4.58213 0
M  V30 19186 C 1777.96 4.27104 3.00631 0
M  V30 19187 H 1779.65 2.59776 1.48851 0
M  V30 19188 H 1777.2 1.25014 0.714667 0
M  V30 19189 H 1779.15 1.82333 3.79911 0
M  V30 19190 H 1777.88 0.746066 3.17964 0
M  V30 19191 H 1776.54 2.7432 2.43195 0
M  V30 19192 H 1776.18 1.76944 4.7085 0
M  V30 19193 H 1775.88 3.52545 4.70091 0
M  V30 19194 H 1777.41 2.88693 5.38041 0
M  V30 19195 H 1778.82 4.3947 3.68157 0
M  V30 19196 H 1777.22 5.05119 3.23999 0
M  V30 19197 H 1778.29 4.43087 1.96982 0
M  V30 19198 N 1779.63 -0.772489 1.37369 0
M  V30 19199 C 1780.56 -1.89969 1.35772 0
M  V30 19200 C 1781.54 -1.68586 0.226452 0
M  V30 19201 O 1782.73 -1.89454 0.426692 0
M  V30 19202 C 1779.86 -3.27242 1.16319 0
M  V30 19203 C 1778.81 -3.63187 2.2645 0
M  V30 19204 C 1778.14 -4.98992 1.92121 0
M  V30 19205 C 1779.44 -3.70013 3.6863 0
M  V30 19206 H 1781.13 -1.91564 2.30095 0
M  V30 19207 H 1778.68 -0.920241 1.10759 0
M  V30 19208 H 1780.63 -4.05734 1.13832 0
M  V30 19209 H 1779.36 -3.26078 0.184513 0
M  V30 19210 H 1778.01 -2.87001 2.28091 0
M  V30 19211 H 1777.66 -4.94368 0.927848 0
M  V30 19212 H 1777.36 -5.24012 2.65867 0
M  V30 19213 H 1778.89 -5.79886 1.91219 0
M  V30 19214 H 1780.3 -4.38659 3.69122 0
M  V30 19215 H 1778.7 -4.06529 4.41423 0
M  V30 19216 H 1779.77 -2.70694 4.02309 0
M  V30 19217 N 1781.11 -1.21927 -0.998575 0
M  V30 19218 C 1782.39 -0.949034 -1.71034 0
M  V30 19219 C 1782.77 0.537429 -2.04144 0
M  V30 19220 O 1782.12 1.50398 -1.72026 0
M  V30 19221 C 1782.33 -1.84076 -2.96508 0
M  V30 19222 C 1783.67 -2.09345 -3.69405 0
M  V30 19223 O 1784.7 -1.81477 -3.06504 0
M  V30 19224 O 1783.56 -2.56513 -4.82559 0
M  V30 19225 H 1780.65 -0.356423 -0.746252 0
M  V30 19226 H 1783.2 -1.32886 -1.05543 0
M  V30 19227 H 1781.97 -2.84647 -2.68499 0
M  V30 19228 H 1781.59 -1.46215 -3.69739 0
M  V30 19229 N 1782.59 1.19452 -1.02805 0
M  V30 19230 C 1783.83 1.89662 -0.734839 0
M  V30 19231 C 1784.19 1.78072 0.728567 0
M  V30 19232 O 1783.48 1.16172 1.52363 0
M  V30 19233 C 1783.68 3.3941 -1.11964 0
M  V30 19234 C 1783.51 3.65573 -2.61891 0
M  V30 19235 C 1782.28 3.83649 -3.28849 0
M  V30 19236 C 1784.47 3.67197 -3.60098 0
M  V30 19237 N 1782.46 3.97434 -4.67888 0
M  V30 19238 C 1783.83 3.86544 -4.84751 0
M  V30 19239 C 1785.88 3.50219 -3.53908 0
M  V30 19240 C 1784.58 3.90672 -6.0396 0
M  V30 19241 C 1786.61 3.55624 -4.72531 0
M  V30 19242 C 1785.97 3.75455 -5.95997 0
M  V30 19243 H 1782.07 0.713192 -0.320751 0
M  V30 19244 H 1784.66 1.43565 -1.31519 0
M  V30 19245 H 1782.83 3.84232 -0.567503 0
M  V30 19246 H 1784.56 3.97136 -0.778765 0
M  V30 19247 H 1781.31 3.82504 -2.79263 0
M  V30 19248 H 1781.74 4.08178 -5.40111 0
M  V30 19249 H 1786.38 3.33843 -2.59439 0
M  V30 19250 H 1784.1 4.0584 -6.98799 0
M  V30 19251 H 1787.68 3.43778 -4.69369 0
M  V30 19252 H 1786.56 3.79511 -6.86252 0
M  V30 19253 N 1784.07 0.805805 1.35442 0
M  V30 19254 C 1785 0.230077 2.32364 0
M  V30 19255 C 1785.98 -0.644034 1.57436 0
M  V30 19256 O 1787.16 -0.574467 1.85509 0
M  V30 19257 C 1784.29 -0.622814 3.4167 0
M  V30 19258 C 1783.25 0.152739 4.27727 0
M  V30 19259 C 1782.57 -0.821803 5.28347 0
M  V30 19260 C 1783.87 1.35128 5.04517 0
M  V30 19261 H 1785.57 1.03983 2.80763 0
M  V30 19262 H 1783.11 0.501467 1.34986 0
M  V30 19263 H 1785.07 -1.03564 4.08476 0
M  V30 19264 H 1783.79 -1.46544 2.91877 0
M  V30 19265 H 1782.45 0.546732 3.625 0
M  V30 19266 H 1782.1 -1.65991 4.74822 0
M  V30 19267 H 1781.8 -0.307209 5.86796 0
M  V30 19268 H 1783.32 -1.23285 5.98024 0
M  V30 19269 H 1784.73 1.01337 5.64273 0
M  V30 19270 H 1783.13 1.80031 5.72459 0
M  V30 19271 H 1784.2 2.13833 4.35205 0
M  V30 19272 N 1785.54 -1.47344 0.559239 0
M  V30 19273 C 1786.96 -1.58088 0.219155 0
M  V30 19274 C 1787.16 -1.55758 -1.27834 0
M  V30 19275 O 1786.22 -1.46207 -2.05864 0
M  V30 19276 C 1787.53 -2.88507 0.847606 0
M  V30 19277 C 1789.08 -3.02094 0.819022 0
M  V30 19278 C 1789.55 -4.35216 1.42658 0
M  V30 19279 N 1791.04 -4.41857 1.38986 0
M  V30 19280 C 1791.78 -5.43429 1.82956 0
M  V30 19281 N 1791.27 -6.51801 2.34792 0
M  V30 19282 N 1793.07 -5.34486 1.74015 0
M  V30 19283 H 1785.22 -1.47102 1.53215 0
M  V30 19284 H 1787.48 -0.700228 0.63905 0
M  V30 19285 H 1787.19 -2.95954 1.90011 0
M  V30 19286 H 1787.06 -3.75648 0.341841 0
M  V30 19287 H 1789.45 -2.94243 -0.224794 0
M  V30 19288 H 1789.53 -2.1649 1.36257 0
M  V30 19289 H 1789.17 -4.43824 2.46947 0
M  V30 19290 H 1789.1 -5.19556 0.858462 0
M  V30 19291 H 1791.59 -3.64133 1.01071 0
M  V30 19292 H 1791.91 -7.25482 2.66262 0
M  V30 19293 H 1790.25 -6.52685 2.38804 0
M  V30 19294 H 1793.44 -4.48721 1.33294 0
M  V30 19295 H 1793.62 -6.13506 2.086 0
M  V30 19296 N 1787.02 -0.295795 -1.54799 0
M  V30 19297 C 1788.25 0.317763 -2.04445 0
M  V30 19298 C 1788.67 1.47915 -1.17331 0
M  V30 19299 O 1788.02 1.81425 -0.197811 0
M  V30 19300 C 1788.07 0.778995 -3.53007 0
M  V30 19301 O 1787.79 -0.33616 -4.36808 0
M  V30 19302 C 1789.3 1.45824 -4.18629 0
M  V30 19303 H 1786.52 0.0697871 -0.667361 0
M  V30 19304 H 1789.06 -0.433911 -1.99844 0
M  V30 19305 H 1787.21 1.4807 -3.57986 0
M  V30 19306 H 1787.63 0.0219928 -5.24495 0
M  V30 19307 H 1789.1 1.73218 -5.24118 0
M  V30 19308 H 1789.58 2.3966 -3.68049 0
M  V30 19309 H 1790.19 0.799847 -4.17711 0
M  V30 19310 N 1788.5 1.57583 -0.0234236 0
M  V30 19311 C 1789.41 2.13328 0.976138 0
M  V30 19312 C 1790.43 1.08414 1.36097 0
M  V30 19313 O 1791.6 1.40441 1.44354 0
M  V30 19314 C 1788.67 2.64469 2.24181 0
M  V30 19315 C 1787.73 3.84076 1.91793 0
M  V30 19316 C 1786.96 4.32768 3.12326 0
M  V30 19317 O 1787.19 3.80663 4.24797 0
M  V30 19318 O 1786.12 5.24676 2.94956 0
M  V30 19319 H 1789.95 2.99001 0.532166 0
M  V30 19320 H 1787.53 1.48098 0.196838 0
M  V30 19321 H 1789.41 2.97456 2.98492 0
M  V30 19322 H 1788.09 1.81881 2.6777 0
M  V30 19323 H 1786.99 3.56023 1.14883 0
M  V30 19324 H 1788.33 4.67808 1.53024 0
M  V30 19325 N 1789.98 -0.249655 1.5561 0
M  V30 19326 C 1790.93 -1.32883 1.90906 0
M  V30 19327 C 1791.92 -1.49965 0.787832 0
M  V30 19328 O 1793.13 -1.51473 0.972422 0
M  V30 19329 H 1789.5 -0.444907 0.606269 0
M  V30 19330 H 1791.47 -1.00379 2.8101 0
M  V30 19331 C 1790.22 -2.67782 2.21784 0
M  V30 19332 H 1789.55 -2.55436 3.07559 0
M  V30 19333 H 1790.99 -3.42175 2.50385 0
M  V30 19334 C 1789.44 -3.20664 1.03325 0
M  V30 19335 O 1789.97 -4.00724 0.279822 0
M  V30 19336 N 1788.18 -2.78655 0.824614 0
M  V30 19337 H 1787.73 -2.1366 1.43899 0
M  V30 19338 H 1787.69 -3.14382 0.03369 0
M  V30 19339 N 1791.46 -1.48941 -0.515198 0
M  V30 19340 C 1792.37 -1.67271 -1.64492 0
M  V30 19341 C 1793.38 -0.555222 -1.64904 0
M  V30 19342 O 1794.56 -0.828161 -1.83585 0
M  V30 19343 C 1791.62 -1.722 -3.00912 0
M  V30 19344 C 1790.69 -2.95683 -3.11239 0
M  V30 19345 C 1789.92 -3.00368 -4.41152 0
M  V30 19346 O 1790.14 -2.13041 -5.29122 0
M  V30 19347 O 1789.08 -3.92691 -4.56155 0
M  V30 19348 H 1792.9 -2.62947 -1.51962 0
M  V30 19349 H 1790.49 -1.32515 -0.68993 0
M  V30 19350 H 1792.37 -1.77877 -3.82018 0
M  V30 19351 H 1791.04 -0.796995 -3.13735 0
M  V30 19352 H 1789.95 -2.95531 -2.29374 0
M  V30 19353 H 1791.28 -3.87617 -3.03338 0
M  V30 19354 N 1792.94 0.765193 -1.37777 0
M  V30 19355 C 1793.87 1.89247 -1.36777 0
M  V30 19356 C 1794.85 1.68463 -0.235389 0
M  V30 19357 O 1796.03 1.89225 -0.436733 0
M  V30 19358 C 1793.16 3.2662 -1.18053 0
M  V30 19359 C 1792.12 3.61981 -2.28372 0
M  V30 19360 C 1791.44 4.97967 -1.94765 0
M  V30 19361 C 1792.74 3.68053 -3.70587 0
M  V30 19362 H 1794.44 1.90341 -2.31108 0
M  V30 19363 H 1791.98 0.914355 -1.11245 0
M  V30 19364 H 1793.93 4.05125 -1.15982 0
M  V30 19365 H 1792.66 3.25976 -0.201803 0
M  V30 19366 H 1791.32 2.85788 -2.2961 0
M  V30 19367 H 1790.97 4.93869 -0.954052 0
M  V30 19368 H 1790.67 5.22594 -2.68642 0
M  V30 19369 H 1792.19 5.78864 -1.94292 0
M  V30 19370 H 1793.6 4.36696 -3.71443 0
M  V30 19371 H 1792 4.04183 -4.43572 0
M  V30 19372 H 1793.07 2.68556 -4.03739 0
M  V30 19373 N 1794.41 1.22455 0.992094 0
M  V30 19374 C 1795.36 0.962645 2.06681 0
M  V30 19375 C 1796.35 -0.0870288 1.60664 0
M  V30 19376 O 1797.54 0.123596 1.76568 0
M  V30 19377 C 1794.67 0.54316 3.38976 0
M  V30 19378 C 1793.75 1.62761 3.91625 0
M  V30 19379 N 1794.15 2.85548 4.17488 0
M  V30 19380 C 1792.44 1.49948 4.20038 0
M  V30 19381 C 1793.14 3.55677 4.60292 0
M  V30 19382 N 1792.12 2.83152 4.64032 0
M  V30 19383 H 1795.92 1.89534 2.24619 0
M  V30 19384 H 1793.44 1.1222 1.1739 0
M  V30 19385 H 1795.43 0.336841 4.15537 0
M  V30 19386 H 1794.09 -0.382629 3.22438 0
M  V30 19387 H 1795.1 3.21968 4.05657 0
M  V30 19388 H 1791.78 0.639937 4.12566 0
M  V30 19389 H 1793.17 4.60878 4.88918 0
M  V30 19390 N 1795.89 -1.18905 1.03437 0
M  V30 19391 C 1797.14 -1.88354 0.732598 0
M  V30 19392 C 1797.46 -1.80353 -0.741474 0
M  V30 19393 O 1796.73 -1.21764 -1.53461 0
M  V30 19394 H 1795.31 -0.697272 0.267995 0
M  V30 19395 H 1797.97 -1.44329 1.30978 0
M  V30 19396 H 1797.07 -2.94551 1.03181 0
M  V30 19397 N 1797.37 -0.812977 -1.35013 0
M  V30 19398 C 1798.28 -0.229534 -2.33474 0
M  V30 19399 C 1799.3 0.630837 -1.62162 0
M  V30 19400 O 1800.47 0.541083 -1.93995 0
M  V30 19401 C 1797.54 0.607055 -3.41344 0
M  V30 19402 C 1796.6 -0.274554 -4.28421 0
M  V30 19403 C 1795.83 0.522202 -5.31139 0
M  V30 19404 O 1796.05 1.75636 -5.42686 0
M  V30 19405 O 1794.99 -0.0902666 -6.01832 0
M  V30 19406 H 1798.81 -1.04423 -2.85183 0
M  V30 19407 H 1796.4 -0.5749 -1.37896 0
M  V30 19408 H 1798.28 1.08335 -4.07236 0
M  V30 19409 H 1796.96 1.39924 -2.91895 0
M  V30 19410 H 1795.86 -0.798124 -3.65487 0
M  V30 19411 H 1797.2 -1.03084 -4.81284 0
M  V30 19412 N 1798.85 1.47045 -0.567045 0
M  V30 19413 C 1799.79 2.30135 0.175115 0
M  V30 19414 C 1800.76 1.39665 0.899049 0
M  V30 19415 O 1801.95 1.68623 0.892809 0
M  V30 19416 C 1799.09 3.23827 1.19289 0
M  V30 19417 C 1798.2 4.29392 0.474011 0
M  V30 19418 C 1797.34 5.10226 1.47793 0
M  V30 19419 C 1796.38 6.07554 0.744584 0
M  V30 19420 N 1795.51 6.81313 1.69581 0
M  V30 19421 H 1800.35 2.93075 -0.539529 0
M  V30 19422 H 1797.89 1.44451 -0.277889 0
M  V30 19423 H 1799.85 3.76579 1.79567 0
M  V30 19424 H 1798.48 2.6273 1.87544 0
M  V30 19425 H 1797.53 3.7962 -0.243494 0
M  V30 19426 H 1798.84 4.987 -0.100022 0
M  V30 19427 H 1798 5.67176 2.15397 0
M  V30 19428 H 1796.74 4.40842 2.08589 0
M  V30 19429 H 1795.74 5.49773 0.0546832 0
M  V30 19430 H 1796.97 6.78951 0.142235 0
M  V30 19431 H 1794.91 6.14651 2.29216 0
M  V30 19432 H 1794.83 7.46826 1.17418 0
M  V30 19433 H 1796.1 7.42831 2.36268 0
M  V30 19434 N 1800.33 0.304 1.5464 0
M  V30 19435 C 1801.26 -0.563854 2.2659 0
M  V30 19436 C 1802.24 -1.13547 1.26653 0
M  V30 19437 O 1803.42 -1.16425 1.55431 0
M  V30 19438 C 1800.55 -1.73437 3.00894 0
M  V30 19439 C 1799.51 -1.29297 4.08003 0
M  V30 19440 C 1798.83 -2.54888 4.70038 0
M  V30 19441 C 1800.13 -0.422027 5.20592 0
M  V30 19442 H 1801.83 0.0362569 2.99378 0
M  V30 19443 H 1799.37 0.0188781 1.43988 0
M  V30 19444 H 1801.32 -2.34762 3.4995 0
M  V30 19445 H 1800.05 -2.36076 2.25689 0
M  V30 19446 H 1798.71 -0.702757 3.59801 0
M  V30 19447 H 1798.36 -3.15848 3.9147 0
M  V30 19448 H 1798.06 -2.26054 5.42378 0
M  V30 19449 H 1799.58 -3.17011 5.21859 0
M  V30 19450 H 1800.99 -0.941036 5.65524 0
M  V30 19451 H 1799.39 -0.227323 5.99669 0
M  V30 19452 H 1800.46 0.55212 4.81746 0
M  V30 19453 N 1801.8 -1.57568 0.0317802 0
M  V30 19454 C 1803.05 -1.91531 -0.645004 0
M  V30 19455 C 1803.37 -0.909042 -1.72515 0
M  V30 19456 O 1802.64 0.0490427 -1.95839 0
M  V30 19457 H 1801.22 -0.706976 -0.241236 0
M  V30 19458 H 1803.88 -1.94735 0.0802108 0
M  V30 19459 H 1802.98 -2.92221 -1.09604 0
M  V30 19460 N 1803.28 0.241399 -1.5574 0
M  V30 19461 C 1804.53 0.965816 -1.79007 0
M  V30 19462 C 1804.88 1.82752 -0.601607 0
M  V30 19463 O 1804.18 1.87271 0.404993 0
M  V30 19464 C 1804.37 1.8552 -3.05478 0
M  V30 19465 C 1804.2 1.08108 -4.36512 0
M  V30 19466 C 1802.97 0.783962 -4.99181 0
M  V30 19467 C 1805.17 0.455982 -5.12275 0
M  V30 19468 N 1803.15 -0.0136458 -6.13898 0
M  V30 19469 C 1804.52 -0.205944 -6.19658 0
M  V30 19470 C 1806.58 0.367003 -4.96546 0
M  V30 19471 C 1805.28 -0.94831 -7.13021 0
M  V30 19472 C 1807.3 -0.361846 -5.90292 0
M  V30 19473 C 1806.67 -1.01239 -6.97087 0
M  V30 19474 H 1802.77 0.334342 -0.706923 0
M  V30 19475 H 1805.35 0.238447 -1.93234 0
M  V30 19476 H 1803.52 2.55455 -2.9257 0
M  V30 19477 H 1805.25 2.51559 -3.17017 0
M  V30 19478 H 1802.01 1.09711 -4.60717 0
M  V30 19479 H 1802.43 -0.400704 -6.75813 0
M  V30 19480 H 1807.07 0.85562 -4.14052 0
M  V30 19481 H 1804.79 -1.44851 -7.95012 0
M  V30 19482 H 1808.38 -0.431432 -5.80198 0
M  V30 19483 H 1807.26 -1.56736 -7.68377 0
M  V30 19484 N 1804.76 1.49212 0.507292 0
M  V30 19485 C 1806.17 1.51655 1.08892 0
M  V30 19486 C 1806.52 0.299163 1.93906 0
M  V30 19487 O 1805.65 -0.591635 2.08155 0
M  V30 19488 C 1806.24 2.7481 1.98154 0
M  V30 19489 C 1804.8 2.80051 2.51492 0
M  V30 19490 C 1803.95 2.45486 1.28966 0
M  V30 19491 H 1806.9 1.56 0.291488 0
M  V30 19492 H 1806.92 2.54615 2.82757 0
M  V30 19493 H 1806.43 3.63396 1.36253 0
M  V30 19494 H 1804.53 1.95729 3.1705 0
M  V30 19495 H 1804.65 3.82064 2.89075 0
M  V30 19496 H 1803.01 1.97128 1.61284 0
M  V30 19497 H 1803.79 3.36339 0.687821 0
M  V30 19498 N 1806.24 -0.757876 1.38181 0
M  V30 19499 C 1807.17 -1.88108 1.3095 0
M  V30 19500 C 1808.18 -1.61272 0.222551 0
M  V30 19501 O 1809.37 -1.71931 0.479782 0
M  V30 19502 C 1806.47 -3.2365 1.00518 0
M  V30 19503 C 1805.65 -3.78024 2.20037 0
M  V30 19504 C 1804.7 -4.92073 1.86416 0
M  V30 19505 O 1803.73 -5.0693 2.58864 0
M  V30 19506 N 1804.93 -5.74728 0.816553 0
M  V30 19507 H 1807.7 -1.94823 2.27737 0
M  V30 19508 H 1805.26 -0.937616 1.31986 0
M  V30 19509 H 1807.25 -3.97483 0.760861 0
M  V30 19510 H 1805.82 -3.12348 0.125418 0
M  V30 19511 H 1805.04 -2.95807 2.60561 0
M  V30 19512 H 1806.33 -4.11085 2.99811 0
M  V30 19513 H 1805.73 -5.65289 0.215659 0
M  V30 19514 H 1804.28 -6.48728 0.63211 0
M  V30 19515 N 1807.72 -1.22979 -0.985586 0
M  V30 19516 C 1808.95 -1.08372 -1.75895 0
M  V30 19517 C 1809.35 0.368113 -1.85584 0
M  V30 19518 O 1808.7 1.26663 -1.3305 0
M  V30 19519 C 1808.76 -1.62873 -3.20488 0
M  V30 19520 C 1808.42 -3.11572 -3.34323 0
M  V30 19521 C 1809.42 -4.08923 -3.21058 0
M  V30 19522 C 1807.11 -3.51176 -3.59139 0
M  V30 19523 C 1809.1 -5.43862 -3.32404 0
M  V30 19524 C 1806.79 -4.86262 -3.70125 0
M  V30 19525 C 1807.78 -5.82414 -3.56767 0
M  V30 19526 O 1807.47 -7.15046 -3.67374 0
M  V30 19527 H 1807.2 -0.380128 -0.558998 0
M  V30 19528 H 1809.76 -1.63191 -1.24731 0
M  V30 19529 H 1807.99 -1.0247 -3.72876 0
M  V30 19530 H 1809.68 -1.43819 -3.79567 0
M  V30 19531 H 1810.44 -3.79669 -3.01789 0
M  V30 19532 H 1806.32 -2.76853 -3.6861 0
M  V30 19533 H 1809.87 -6.18894 -3.21895 0
M  V30 19534 H 1805.76 -5.15194 -3.88903 0
M  V30 19535 H 1806.53 -7.22725 -3.84202 0
M  V30 19536 N 1809.19 1.18355 -1.04066 0
M  V30 19537 C 1810.14 2.24033 -0.625447 0
M  V30 19538 C 1811.14 1.65792 0.347754 0
M  V30 19539 O 1812.34 1.78711 0.215045 0
M  V30 19540 H 1808.72 0.729132 -0.184039 0
M  V30 19541 H 1810.69 2.56362 -1.52712 0
M  V30 19542 C 1809.44 3.477 -0.00432692 0
M  V30 19543 H 1808.76 3.92812 -0.744237 0
M  V30 19544 H 1810.2 4.23268 0.24898 0
M  V30 19545 C 1808.66 3.13022 1.24574 0
M  V30 19546 O 1809.19 3.26759 2.33649 0
M  V30 19547 N 1807.4 2.67347 1.13902 0
M  V30 19548 H 1806.94 2.5637 0.251417 0
M  V30 19549 H 1806.9 2.44517 1.97633 0
M  V30 19550 N 1810.67 0.820125 1.3458 0
M  V30 19551 C 1811.92 0.416646 1.99087 0
M  V30 19552 C 1812.27 -1.00844 1.63855 0
M  V30 19553 O 1811.57 -1.69226 0.898501 0
M  V30 19554 C 1811.76 0.552817 3.53099 0
M  V30 19555 C 1811.59 1.98958 4.03293 0
M  V30 19556 C 1810.36 2.62087 4.32017 0
M  V30 19557 C 1812.56 2.95595 4.20866 0
M  V30 19558 N 1810.54 3.97033 4.68229 0
M  V30 19559 C 1811.91 4.15442 4.60226 0
M  V30 19560 C 1813.97 2.92248 4.03107 0
M  V30 19561 C 1812.67 5.32393 4.83683 0
M  V30 19562 C 1814.69 4.08413 4.27729 0
M  V30 19563 C 1814.06 5.27011 4.67374 0
M  V30 19564 H 1810.16 0.200509 0.755857 0
M  V30 19565 H 1812.74 1.06423 1.6304 0
M  V30 19566 H 1810.91 -0.0648568 3.88346 0
M  V30 19567 H 1812.64 0.122608 4.04514 0
M  V30 19568 H 1809.4 2.13346 4.22824 0
M  V30 19569 H 1809.82 4.66547 4.90574 0
M  V30 19570 H 1814.46 2.01699 3.71588 0
M  V30 19571 H 1812.18 6.23503 5.14071 0
M  V30 19572 H 1815.77 4.0722 4.15528 0
M  V30 19573 H 1814.65 6.15405 4.86052 0
M  V30 19574 N 1812.15 -1.46743 0.574835 0
M  V30 19575 C 1813.38 -2.06805 0.0627992 0
M  V30 19576 C 1813.79 -1.42482 -1.23872 0
M  V30 19577 O 1813.15 -0.527375 -1.74714 0
M  V30 19578 C 1813.2 -3.61307 -0.117983 0
M  V30 19579 O 1812.92 -4.23222 1.13201 0
M  V30 19580 C 1814.42 -4.3828 -0.665277 0
M  V30 19581 H 1811.64 -0.668835 0.0538616 0
M  V30 19582 H 1814.19 -1.88488 0.793265 0
M  V30 19583 H 1812.34 -3.79078 -0.798641 0
M  V30 19584 H 1812.76 -5.15992 0.940853 0
M  V30 19585 H 1814.23 -5.47004 -0.740985 0
M  V30 19586 H 1814.71 -4.05777 -1.68052 0
M  V30 19587 H 1815.31 -4.25295 -0.0197462 0
M  V30 19588 N 1813.63 -0.312197 -1.54477 0
M  V30 19589 C 1815.04 0.178189 -1.85848 0
M  V30 19590 C 1815.39 1.52534 -1.23401 0
M  V30 19591 O 1814.52 2.09661 -0.535822 0
M  V30 19592 C 1815.11 0.330099 -3.37188 0
M  V30 19593 C 1813.67 0.764703 -3.6855 0
M  V30 19594 C 1812.82 -0.120348 -2.77039 0
M  V30 19595 H 1815.77 -0.532853 -1.49487 0
M  V30 19596 H 1815.79 1.16287 -3.62295 0
M  V30 19597 H 1815.3 -0.650527 -3.82609 0
M  V30 19598 H 1813.4 1.75548 -3.28654 0
M  V30 19599 H 1813.51 0.576331 -4.75621 0
M  V30 19600 H 1811.88 0.402229 -2.51504 0
M  V30 19601 H 1812.66 -1.09753 -3.25283 0
M  V30 19602 N 1815.11 1.57549 -0.040136 0
M  V30 19603 C 1816.05 2.12048 0.955943 0
M  V30 19604 C 1817.05 1.04965 1.32962 0
M  V30 19605 O 1818.25 1.23387 1.31056 0
M  V30 19606 H 1814.63 0.677616 0.326099 0
M  V30 19607 H 1816.6 2.94658 0.471075 0
M  V30 19608 C 1815.35 2.67157 2.22537 0
M  V30 19609 H 1814.67 3.4921 1.9466 0
M  V30 19610 H 1816.11 3.08924 2.90417 0
M  V30 19611 C 1814.57 1.60413 2.96259 0
M  V30 19612 O 1815.1 1.01042 3.88785 0
M  V30 19613 N 1813.31 1.32196 2.58791 0
M  V30 19614 H 1812.85 1.80663 1.83626 0
M  V30 19615 H 1812.81 0.610023 3.08425 0
M  V30 19616 N 1816.58 -0.233136 1.55866 0
M  V30 19617 C 1817.81 -0.980602 1.82754 0
M  V30 19618 C 1818.23 -1.77624 0.618988 0
M  V30 19619 O 1817.59 -1.76074 -0.432148 0
M  V30 19620 C 1817.64 -1.88319 3.07519 0
M  V30 19621 O 1816.74 -2.97692 2.85401 0
M  V30 19622 H 1816.09 -0.278295 0.602867 0
M  V30 19623 H 1818.62 -0.249956 2.03067 0
M  V30 19624 H 1818.63 -2.29523 3.37318 0
M  V30 19625 H 1817.3 -1.29831 3.95116 0
M  V30 19626 H 1815.88 -2.60517 2.66805 0
M  V30 19627 N 1818.06 -1.49479 -0.499372 0
M  V30 19628 C 1819.03 -1.6575 -1.58302 0
M  V30 19629 C 1820.03 -0.529236 -1.51841 0
M  V30 19630 O 1821.22 -0.795721 -1.54964 0
M  V30 19631 C 1818.35 -1.65639 -2.97954 0
M  V30 19632 H 1819.54 -2.62404 -1.45203 0
M  V30 19633 H 1817.09 -1.38535 -0.723725 0
M  V30 19634 H 1817.83 -0.705752 -3.16527 0
M  V30 19635 H 1817.61 -2.47578 -3.04051 0
M  V30 19636 H 1819.1 -1.80279 -3.76682 0
M  V30 19637 N 1819.54 0.750537 -1.38581 0
M  V30 19638 C 1820.96 1.05401 -1.19845 0
M  V30 19639 C 1821.16 2.0144 -0.0492317 0
M  V30 19640 O 1820.21 2.45169 0.604037 0
M  V30 19641 C 1821.53 1.63117 -2.52613 0
M  V30 19642 C 1823.07 1.75274 -2.59322 0
M  V30 19643 C 1823.55 2.36401 -3.92273 0
M  V30 19644 N 1825.04 2.43829 -3.9383 0
M  V30 19645 C 1825.78 2.92028 -4.93465 0
M  V30 19646 N 1825.27 3.4024 -6.03497 0
M  V30 19647 N 1827.06 2.91096 -4.80853 0
M  V30 19648 H 1819.22 0.113286 -2.12098 0
M  V30 19649 H 1821.48 0.112886 -0.941255 0
M  V30 19650 H 1821.18 1.00017 -3.37179 0
M  V30 19651 H 1821.06 2.62138 -2.71226 0
M  V30 19652 H 1823.45 2.375 -1.7515 0
M  V30 19653 H 1823.53 0.74949 -2.44574 0
M  V30 19654 H 1823.17 1.74807 -4.7687 0
M  V30 19655 H 1823.1 3.37373 -4.04335 0
M  V30 19656 H 1825.59 2.09734 -3.14357 0
M  V30 19657 H 1825.9 3.75482 -6.7545 0
M  V30 19658 H 1824.25 3.38289 -6.07113 0
M  V30 19659 H 1827.44 2.52744 -3.94003 0
M  V30 19660 H 1827.61 3.28346 -5.58653 0
M  V30 19661 N 1821.02 1.235 0.979051 0
M  V30 19662 C 1822.24 1.09551 1.76106 0
M  V30 19663 C 1822.67 -0.348792 1.84838 0
M  V30 19664 O 1822.03 -1.25231 1.31099 0
M  V30 19665 C 1822.08 1.7272 3.16544 0
M  V30 19666 O 1821.18 0.990263 4.00334 0
M  V30 19667 H 1820.52 0.383909 0.541766 0
M  V30 19668 H 1823.05 1.63581 1.22892 0
M  V30 19669 H 1823.06 1.78014 3.67117 0
M  V30 19670 H 1821.74 2.77813 3.09504 0
M  V30 19671 H 1820.31 1.01436 3.58839 0
M  V30 19672 N 1822.5 -1.17802 1.04693 0
M  V30 19673 C 1823.41 -2.25298 0.654072 0
M  V30 19674 C 1824.42 -1.70984 -0.32255 0
M  V30 19675 O 1825.6 -2.0063 -0.175904 0
M  V30 19676 C 1822.66 -3.46687 0.0296345 0
M  V30 19677 C 1821.73 -4.16108 1.05606 0
M  V30 19678 C 1820.96 -5.31702 0.461329 0
M  V30 19679 O 1821.18 -5.65701 -0.730679 0
M  V30 19680 O 1820.12 -5.89956 1.19312 0
M  V30 19681 H 1823.94 -2.61179 1.54982 0
M  V30 19682 H 1821.53 -1.25005 0.818182 0
M  V30 19683 H 1823.41 -4.20201 -0.317654 0
M  V30 19684 H 1822.08 -3.12615 -0.839839 0
M  V30 19685 H 1820.99 -3.44635 1.45526 0
M  V30 19686 H 1822.32 -4.54195 1.89651 0
M  V30 19687 N 1823.98 -0.827251 -1.34143 0
M  V30 19688 C 1825.22 -0.41656 -1.9776 0
M  V30 19689 C 1825.54 1.02488 -1.65895 0
M  V30 19690 O 1824.81 1.71219 -0.951891 0
M  V30 19691 H 1823.39 -0.151044 -0.73157 0
M  V30 19692 H 1826.06 -1.05765 -1.63706 0
M  V30 19693 H 1825.15 -0.539101 -3.07409 0
M  V30 19694 N 1825.45 1.46436 -0.582609 0
M  V30 19695 C 1826.86 1.86047 -0.156012 0
M  V30 19696 C 1827.22 1.48619 1.28089 0
M  V30 19697 O 1826.34 0.90104 1.96749 0
M  V30 19698 C 1826.94 3.37671 -0.276358 0
M  V30 19699 C 1825.49 3.76279 0.0953682 0
M  V30 19700 C 1824.64 2.70454 -0.612348 0
M  V30 19701 H 1827.59 1.37592 -0.790834 0
M  V30 19702 H 1827.61 3.77223 0.498312 0
M  V30 19703 H 1827.13 3.64881 -1.32225 0
M  V30 19704 H 1825.23 3.54687 1.1414 0
M  V30 19705 H 1825.34 4.78276 -0.280881 0
M  V30 19706 H 1823.7 2.54646 -0.0526182 0
M  V30 19707 H 1824.49 3.00504 -1.65989 0
M  V30 19708 N 1826.93 0.320385 1.54309 0
M  V30 19709 C 1827.86 -0.539789 2.27175 0
M  V30 19710 C 1828.84 -1.12198 1.2785 0
M  V30 19711 O 1830.03 -1.1477 1.56657 0
M  V30 19712 C 1827.16 -1.70236 3.02716 0
M  V30 19713 C 1826.11 -1.24962 4.09351 0
M  V30 19714 C 1825.44 -2.49888 4.72715 0
M  V30 19715 C 1826.74 -0.366788 5.21011 0
M  V30 19716 H 1828.43 0.0680079 2.99323 0
M  V30 19717 H 1825.98 0.0341488 1.4396 0
M  V30 19718 H 1827.93 -2.31037 3.5242 0
M  V30 19719 H 1826.65 -2.33669 2.2818 0
M  V30 19720 H 1825.31 -0.664556 3.60526 0
M  V30 19721 H 1824.96 -3.11679 3.94798 0
M  V30 19722 H 1824.66 -2.20288 5.44745 0
M  V30 19723 H 1826.19 -3.11458 5.25192 0
M  V30 19724 H 1827.6 -0.881001 5.6649 0
M  V30 19725 H 1826 -0.163707 5.99877 0
M  V30 19726 H 1827.07 0.603185 4.81134 0
M  V30 19727 N 1828.41 -1.57525 0.0484906 0
M  V30 19728 C 1829.82 -1.80221 -0.487592 0
M  V30 19729 C 1830.17 -0.96049 -1.71082 0
M  V30 19730 O 1829.3 -0.17632 -2.1568 0
M  V30 19731 C 1829.89 -3.26864 -0.89136 0
M  V30 19732 C 1828.45 -3.50487 -1.37244 0
M  V30 19733 C 1827.6 -2.75129 -0.346348 0
M  V30 19734 H 1830.55 -1.5631 0.274392 0
M  V30 19735 H 1830.57 -3.37637 -1.75446 0
M  V30 19736 H 1830.08 -3.881 -0.000880924 0
M  V30 19737 H 1828.18 -2.94528 -2.2822 0
M  V30 19738 H 1828.3 -4.592 -1.36645 0
M  V30 19739 H 1826.66 -2.41185 -0.818653 0
M  V30 19740 H 1827.44 -3.3909 0.536 0
M  V30 19741 N 1829.89 0.224867 -1.55988 0
M  V30 19742 C 1831.16 0.973884 -1.69632 0
M  V30 19743 C 1831.54 2.02547 -0.594791 0
M  V30 19744 O 1830.89 2.24995 0.398679 0
M  V30 19745 C 1831.1 1.58732 -3.10814 0
M  V30 19746 C 1832.45 2.08084 -3.70117 0
M  V30 19747 O 1833.47 1.68633 -3.13754 0
M  V30 19748 O 1832.33 2.80586 -4.68971 0
M  V30 19749 H 1829.43 0.454716 -0.690769 0
M  V30 19750 H 1831.97 0.216911 -1.68308 0
M  V30 19751 H 1830.75 0.827834 -3.82443 0
M  V30 19752 H 1830.37 2.40992 -3.16241 0
M  V30 19753 N 1831.37 1.49742 0.491438 0
M  V30 19754 C 1832.59 1.63703 1.27343 0
M  V30 19755 C 1833.02 0.312079 1.85493 0
M  V30 19756 O 1832.37 -0.721545 1.66323 0
M  V30 19757 C 1832.42 2.71549 2.37262 0
M  V30 19758 O 1831.53 2.31387 3.41371 0
M  V30 19759 H 1830.87 0.547605 0.375533 0
M  V30 19760 H 1833.4 1.95991 0.587243 0
M  V30 19761 H 1833.41 2.94009 2.82883 0
M  V30 19762 H 1832.08 3.6772 1.94306 0
M  V30 19763 H 1830.66 2.19295 3.01603 0
M  V30 19764 N 1832.84 -0.743177 1.38977 0
M  V30 19765 C 1834.09 -1.49959 1.35486 0
M  V30 19766 C 1834.41 -1.94933 -0.0512044 0
M  V30 19767 O 1833.68 -1.684 -1.0009 0
M  V30 19768 H 1832.26 -0.556277 0.498562 0
M  V30 19769 H 1834.93 -0.882776 1.73762 0
M  V30 19770 H 1834.02 -2.38559 2.01237 0
M  V30 19771 N 1834.32 -1.24018 -0.972487 0
M  V30 19772 C 1835.74 -1.00454 -1.24021 0
M  V30 19773 C 1835.94 0.289568 -1.99409 0
M  V30 19774 O 1834.99 1.00696 -2.31552 0
M  V30 19775 C 1836.31 -2.21651 -2.03202 0
M  V30 19776 C 1837.86 -2.26225 -2.16312 0
M  V30 19777 C 1838.33 -3.47031 -2.98888 0
M  V30 19778 N 1839.82 -3.47318 -3.06471 0
M  V30 19779 C 1840.56 -4.3745 -3.70709 0
M  V30 19780 N 1840.05 -5.37829 -4.36705 0
M  V30 19781 N 1841.85 -4.25173 -3.67674 0
M  V30 19782 H 1834 -2.07187 -0.467668 0
M  V30 19783 H 1836.26 -0.908955 -0.269267 0
M  V30 19784 H 1835.97 -3.15608 -1.55191 0
M  V30 19785 H 1835.84 -2.2338 -3.03943 0
M  V30 19786 H 1838.23 -1.32803 -2.63529 0
M  V30 19787 H 1838.31 -2.28525 -1.14936 0
M  V30 19788 H 1837.95 -4.40765 -2.52366 0
M  V30 19789 H 1837.88 -3.41974 -4.00452 0
M  V30 19790 H 1840.37 -2.74695 -2.59521 0
M  V30 19791 H 1840.69 -6.02846 -4.83525 0
M  V30 19792 H 1839.03 -5.41721 -4.35389 0
M  V30 19793 H 1842.22 -3.45992 -3.15289 0
M  V30 19794 H 1842.39 -4.95617 -4.17454 0
M  V30 19795 N 1835.8 1.17245 -1.05316 0
M  V30 19796 C 1837.05 1.87813 -0.765112 0
M  V30 19797 C 1837.38 1.80907 0.706147 0
M  V30 19798 O 1836.65 1.21793 1.51647 0
M  V30 19799 C 1836.94 3.3779 -1.24779 0
M  V30 19800 C 1836.79 3.53441 -2.78208 0
M  V30 19801 C 1838.11 4.31857 -0.847805 0
M  V30 19802 H 1835.23 0.681979 -0.279415 0
M  V30 19803 H 1837.87 1.37869 -1.30737 0
M  V30 19804 H 1836.02 3.80456 -0.786487 0
M  V30 19805 H 1837.69 3.19782 -3.32472 0
M  V30 19806 H 1835.94 2.95678 -3.17423 0
M  V30 19807 H 1836.61 4.58725 -3.07043 0
M  V30 19808 H 1839.08 3.97039 -1.24496 0
M  V30 19809 H 1837.96 5.35326 -1.21313 0
M  V30 19810 H 1838.22 4.41403 0.248104 0
M  V30 19811 N 1837.28 0.834353 1.33702 0
M  V30 19812 C 1838.5 0.440268 2.02673 0
M  V30 19813 C 1838.93 -0.949435 1.6238 0
M  V30 19814 O 1838.29 -1.61993 0.814131 0
M  V30 19815 C 1838.33 0.563489 3.5617 0
M  V30 19816 O 1837.44 -0.412093 4.10336 0
M  V30 19817 H 1836.78 0.179609 0.639247 0
M  V30 19818 H 1839.31 1.12794 1.70701 0
M  V30 19819 H 1839.32 0.443464 4.05583 0
M  V30 19820 H 1837.99 1.577 3.84842 0
M  V30 19821 H 1836.57 -0.250001 3.72061 0
M  V30 19822 N 1838.76 -1.46125 0.590367 0
M  V30 19823 C 1840 -2.02346 0.0788814 0
M  V30 19824 C 1840.33 -1.46093 -1.28402 0
M  V30 19825 O 1839.59 -0.618875 -1.85657 0
M  V30 19826 C 1839.89 -3.57388 -0.0287217 0
M  V30 19827 C 1839.55 -4.32716 1.26758 0
M  V30 19828 C 1838.21 -4.53014 1.62271 0
M  V30 19829 C 1840.57 -4.7591 2.12507 0
M  V30 19830 C 1837.89 -5.13759 2.83318 0
M  V30 19831 C 1840.25 -5.37992 3.32787 0
M  V30 19832 C 1838.91 -5.56516 3.68573 0
M  V30 19833 H 1838.18 -0.740438 0.0288647 0
M  V30 19834 H 1840.83 -1.75402 0.768538 0
M  V30 19835 H 1839.13 -3.83513 -0.801551 0
M  V30 19836 H 1840.83 -3.98575 -0.440356 0
M  V30 19837 H 1837.42 -4.17219 0.981133 0
M  V30 19838 H 1841.6 -4.59977 1.86373 0
M  V30 19839 H 1836.86 -5.26291 3.11172 0
M  V30 19840 H 1841.03 -5.70418 3.99495 0
M  V30 19841 H 1838.66 -6.03355 4.62458 0
M  V30 19842 N 1840.23 -0.328564 -1.54137 0
M  V30 19843 C 1841.16 0.527734 -2.27458 0
M  V30 19844 C 1842.15 1.11518 -1.28444 0
M  V30 19845 O 1843.33 1.13938 -1.57264 0
M  V30 19846 C 1840.46 1.68628 -3.03615 0
M  V30 19847 C 1839.41 1.22789 -4.10008 0
M  V30 19848 C 1838.74 2.47378 -4.74034 0
M  V30 19849 C 1840.04 0.339152 -5.21198 0
M  V30 19850 H 1841.73 -0.0838808 -2.99282 0
M  V30 19851 H 1839.28 -0.0417829 -1.43939 0
M  V30 19852 H 1841.23 2.29165 -3.5364 0
M  V30 19853 H 1839.96 2.32456 -2.29416 0
M  V30 19854 H 1838.62 0.645427 -3.60874 0
M  V30 19855 H 1838.26 3.09581 -3.96445 0
M  V30 19856 H 1837.96 2.17396 -5.45905 0
M  V30 19857 H 1839.49 3.08668 -5.26836 0
M  V30 19858 H 1840.9 0.850947 -5.6695 0
M  V30 19859 H 1839.3 0.131892 -5.99955 0
M  V30 19860 H 1840.37 -0.628692 -4.80807 0
M  V30 19861 N 1841.71 1.57497 -0.0568439 0
M  V30 19862 C 1842.96 1.92533 0.614452 0
M  V30 19863 C 1843.28 0.936373 1.71047 0
M  V30 19864 O 1842.55 -0.0178803 1.95892 0
M  V30 19865 H 1841.13 0.710724 0.229958 0
M  V30 19866 H 1843.79 1.94583 -0.111181 0
M  V30 19867 H 1842.89 2.93928 1.04941 0
M  V30 19868 N 1843.19 -0.216591 1.56105 0
M  V30 19869 C 1844.12 -1.27155 1.95841 0
M  V30 19870 C 1845.1 -1.48626 0.827313 0
M  V30 19871 O 1846.29 -1.60725 1.09 0
M  V30 19872 C 1843.42 -2.62032 2.27939 0
M  V30 19873 C 1842.37 -2.55211 3.43586 0
M  V30 19874 C 1841.7 -3.94163 3.61303 0
M  V30 19875 C 1843 -2.09566 4.78413 0
M  V30 19876 H 1844.69 -0.941435 2.84214 0
M  V30 19877 H 1842.24 -0.451427 1.36741 0
M  V30 19878 H 1844.19 -3.35997 2.5433 0
M  V30 19879 H 1842.91 -2.96742 1.36426 0
M  V30 19880 H 1841.57 -1.83703 3.17252 0
M  V30 19881 H 1841.22 -4.26188 2.67156 0
M  V30 19882 H 1840.92 -3.90479 4.3909 0
M  V30 19883 H 1842.44 -4.69782 3.90047 0
M  V30 19884 H 1843.86 -2.73277 5.03977 0
M  V30 19885 H 1842.26 -2.16931 5.59518 0
M  V30 19886 H 1843.33 -1.0481 4.73437 0
M  V30 19887 N 1844.67 -1.5 -0.48349 0
M  V30 19888 C 1845.95 -1.50879 -1.24478 0
M  V30 19889 C 1846.33 -0.246393 -2.09657 0
M  V30 19890 O 1845.67 0.77066 -2.15112 0
M  V30 19891 C 1845.88 -2.79762 -2.08648 0
M  V30 19892 C 1847.23 -3.29941 -2.67253 0
M  V30 19893 O 1848.26 -2.80999 -2.18901 0
M  V30 19894 O 1847.11 -4.15224 -3.55319 0
M  V30 19895 H 1844.21 -0.604649 -0.564206 0
M  V30 19896 H 1846.75 -1.6228 -0.496325 0
M  V30 19897 H 1845.53 -3.63123 -1.45799 0
M  V30 19898 H 1845.15 -2.71306 -2.90652 0
M  V30 19899 N 1846.15 0.735796 -1.39369 0
M  V30 19900 C 1847.08 1.86303 -1.4076 0
M  V30 19901 C 1848.06 1.67926 -0.27107 0
M  V30 19902 O 1849.24 1.88257 -0.476773 0
M  V30 19903 C 1846.37 3.24043 -1.24955 0
M  V30 19904 C 1845.33 3.57055 -2.35999 0
M  V30 19905 C 1844.65 4.93723 -2.05284 0
M  V30 19906 C 1845.95 3.60109 -3.7831 0
M  V30 19907 H 1847.65 1.85396 -2.35093 0
M  V30 19908 H 1845.19 0.890552 -1.1316 0
M  V30 19909 H 1847.15 4.02574 -1.24549 0
M  V30 19910 H 1845.87 3.25475 -0.270902 0
M  V30 19911 H 1844.53 2.80853 -2.35621 0
M  V30 19912 H 1844.18 4.91734 -1.05859 0
M  V30 19913 H 1843.88 5.16779 -2.79667 0
M  V30 19914 H 1845.4 5.74612 -2.06527 0
M  V30 19915 H 1846.81 4.28718 -3.80622 0
M  V30 19916 H 1845.21 3.94683 -4.52046 0
M  V30 19917 H 1846.28 2.59932 -4.09345 0
M  V30 19918 N 1847.63 1.24532 0.965897 0
M  V30 19919 C 1848.9 0.994047 1.68458 0
M  V30 19920 C 1849.28 -0.483115 2.05497 0
M  V30 19921 O 1848.63 -1.45784 1.75953 0
M  V30 19922 C 1848.84 1.91872 2.91524 0
M  V30 19923 C 1850.19 2.19066 3.63724 0
M  V30 19924 O 1851.21 1.8954 3.01584 0
M  V30 19925 O 1850.07 2.69217 4.75589 0
M  V30 19926 H 1847.17 0.376083 0.73654 0
M  V30 19927 H 1849.71 1.35638 1.01982 0
M  V30 19928 H 1848.48 2.91665 2.60858 0
M  V30 19929 H 1848.11 1.55966 3.65732 0
M  V30 19930 N 1849.1 -1.16685 1.05936 0
M  V30 19931 C 1850.07 -2.19155 0.671098 0
M  V30 19932 C 1851.07 -1.5832 -0.281305 0
M  V30 19933 O 1852.26 -1.74082 -0.0641708 0
M  V30 19934 C 1849.39 -3.40897 -0.0131101 0
M  V30 19935 H 1850.58 -2.55019 1.57815 0
M  V30 19936 H 1848.13 -1.30897 0.854147 0
M  V30 19937 H 1848.87 -3.10587 -0.933077 0
M  V30 19938 H 1848.65 -3.86304 0.671687 0
M  V30 19939 H 1850.14 -4.16722 -0.270606 0
M  V30 19940 N 1850.58 -0.841432 -1.33258 0
M  V30 19941 C 1851.51 -0.233859 -2.28004 0
M  V30 19942 C 1852.53 0.586872 -1.51854 0
M  V30 19943 O 1853.72 0.413523 -1.73644 0
M  V30 19944 C 1850.82 0.68919 -3.31818 0
M  V30 19945 C 1849.99 -0.0927681 -4.37302 0
M  V30 19946 C 1849.05 0.754015 -5.2077 0
M  V30 19947 O 1848.07 0.192293 -5.68875 0
M  V30 19948 N 1849.28 2.07095 -5.42302 0
M  V30 19949 H 1852.04 -1.04794 -2.80782 0
M  V30 19950 H 1849.6 -0.70014 -1.45978 0
M  V30 19951 H 1851.59 1.26071 -3.84562 0
M  V30 19952 H 1850.16 1.40397 -2.79298 0
M  V30 19953 H 1849.38 -0.845677 -3.85022 0
M  V30 19954 H 1850.67 -0.63036 -5.0488 0
M  V30 19955 H 1850.07 2.55082 -5.04925 0
M  V30 19956 H 1848.63 2.5909 -5.98093 0
M  V30 19957 N 1852.06 1.4581 -0.598108 0
M  V30 19958 C 1852.99 2.28611 0.164271 0
M  V30 19959 C 1854 1.39406 0.840827 0
M  V30 19960 O 1855.19 1.63867 0.707805 0
M  V30 19961 C 1852.29 3.14883 1.25306 0
M  V30 19962 C 1851.47 4.32308 0.66546 0
M  V30 19963 C 1850.53 4.99862 1.64392 0
M  V30 19964 O 1849.55 5.56963 1.17393 0
M  V30 19965 N 1850.75 4.98278 2.97825 0
M  V30 19966 H 1853.52 2.94681 -0.546181 0
M  V30 19967 H 1851.08 1.55893 -0.436933 0
M  V30 19968 H 1853.07 3.5694 1.90724 0
M  V30 19969 H 1851.64 2.50785 1.86616 0
M  V30 19970 H 1850.86 3.93848 -0.166567 0
M  V30 19971 H 1852.15 5.08171 0.252938 0
M  V30 19972 H 1851.55 4.53159 3.38619 0
M  V30 19973 H 1850.1 5.44228 3.58691 0
M  V30 19974 N 1853.54 0.336733 1.53961 0
M  V30 19975 C 1854.5 -0.510638 2.23439 0
M  V30 19976 C 1855.5 -1.03304 1.23227 0
M  V30 19977 O 1856.69 -0.923373 1.47714 0
M  V30 19978 C 1853.82 -1.71063 2.94873 0
M  V30 19979 H 1855.02 0.0969205 2.99743 0
M  V30 19980 H 1852.57 0.0879867 1.56052 0
M  V30 19981 H 1853.3 -2.35707 2.22739 0
M  V30 19982 H 1853.09 -1.34331 3.68371 0
M  V30 19983 H 1854.58 -2.31182 3.47771 0
M  V30 19984 N 1855.02 -1.57465 0.0651956 0
M  V30 19985 C 1856.43 -1.56917 -0.291414 0
M  V30 19986 C 1856.63 -1.07405 -1.70489 0
M  V30 19987 O 1855.69 -0.736958 -2.41506 0
M  V30 19988 C 1857 -3.00509 -0.107088 0
M  V30 19989 C 1858.55 -3.12498 -0.177127 0
M  V30 19990 C 1859.02 -4.57995 -0.0211616 0
M  V30 19991 N 1860.51 -4.63136 -0.0769824 0
M  V30 19992 C 1861.25 -5.73397 0.0193783 0
M  V30 19993 N 1860.75 -6.92594 0.168885 0
M  V30 19994 N 1862.54 -5.62088 -0.0372133 0
M  V30 19995 H 1854.69 -1.87966 0.989061 0
M  V30 19996 H 1856.95 -0.866234 0.385154 0
M  V30 19997 H 1856.66 -3.4082 0.868005 0
M  V30 19998 H 1856.53 -3.67214 -0.86221 0
M  V30 19999 H 1858.92 -2.72078 -1.1427 0
M  V30 20000 H 1859 -2.48445 0.608986 0
M  V30 20001 H 1858.64 -4.99104 0.941151 0
M  V30 20002 H 1858.57 -5.20072 -0.826597 0
M  V30 20003 H 1861.07 -3.77416 -0.191213 0
M  V30 20004 H 1861.38 -7.72443 0.234737 0
M  V30 20005 H 1859.72 -6.947 0.204159 0
M  V30 20006 H 1862.91 -4.67851 -0.152669 0
M  V30 20007 H 1863.09 -6.47987 0.0413392 0
M  V30 20008 N 1856.49 0.20831 -1.56217 0
M  V30 20009 C 1857.74 0.932104 -1.8011 0
M  V30 20010 C 1858.07 1.83453 -0.637061 0
M  V30 20011 O 1857.35 1.91081 0.363066 0
M  V30 20012 C 1857.63 1.7597 -3.14176 0
M  V30 20013 C 1857.48 0.882874 -4.4105 0
M  V30 20014 C 1858.8 2.7349 -3.44806 0
M  V30 20015 H 1855.92 0.337428 -0.655218 0
M  V30 20016 H 1858.56 0.2002 -1.88942 0
M  V30 20017 H 1856.71 2.38369 -3.06778 0
M  V30 20018 H 1858.39 0.274607 -4.60482 0
M  V30 20019 H 1856.63 0.188921 -4.33388 0
M  V30 20020 H 1857.3 1.49662 -5.31324 0
M  V30 20021 H 1859.78 2.21225 -3.52418 0
M  V30 20022 H 1858.65 3.28489 -4.39757 0
M  V30 20023 H 1858.91 3.51887 -2.67635 0
M  V30 20024 N 1857.97 1.50255 0.475528 0
M  V30 20025 C 1859.22 1.60704 1.22551 0
M  V30 20026 C 1859.54 0.307375 1.92562 0
M  V30 20027 O 1858.81 -0.674885 1.83908 0
M  V30 20028 H 1857.39 0.592176 0.455343 0
M  V30 20029 H 1860.05 1.8701 0.548926 0
M  V30 20030 H 1859.15 2.41596 1.9758 0
M  V30 20031 N 1859.45 -0.728395 1.39758 0
M  V30 20032 C 1860.38 -1.85288 1.34911 0
M  V30 20033 C 1861.39 -1.60763 0.25671 0
M  V30 20034 O 1862.58 -1.70875 0.516143 0
M  V30 20035 C 1859.68 -3.21445 1.07361 0
M  V30 20036 C 1858.86 -3.73272 2.28006 0
M  V30 20037 C 1857.92 -4.88008 1.96812 0
M  V30 20038 O 1856.94 -5.01325 2.69559 0
M  V30 20039 N 1858.14 -5.72867 0.938278 0
M  V30 20040 H 1860.91 -1.89949 2.31818 0
M  V30 20041 H 1858.47 -0.909409 1.33945 0
M  V30 20042 H 1860.46 -3.9578 0.845002 0
M  V30 20043 H 1859.03 -3.12012 0.191644 0
M  V30 20044 H 1858.25 -2.90214 2.66777 0
M  V30 20045 H 1859.54 -4.04633 3.08463 0
M  V30 20046 H 1858.94 -5.64704 0.335517 0
M  V30 20047 H 1857.49 -6.47241 0.769572 0
M  V30 20048 N 1860.93 -1.25042 -0.959279 0
M  V30 20049 C 1862.17 -1.10684 -1.70647 0
M  V30 20050 C 1862.53 0.349371 -1.89201 0
M  V30 20051 O 1861.82 1.25413 -1.44852 0
M  V30 20052 C 1862.02 -1.78948 -3.09374 0
M  V30 20053 C 1861.84 -3.31058 -3.04353 0
M  V30 20054 C 1860.61 -4.00297 -3.08367 0
M  V30 20055 C 1862.81 -4.27526 -2.85878 0
M  V30 20056 N 1860.79 -5.3922 -2.93454 0
M  V30 20057 C 1862.17 -5.53502 -2.79349 0
M  V30 20058 C 1864.22 -4.17998 -2.70523 0
M  V30 20059 C 1862.92 -6.7104 -2.59033 0
M  V30 20060 C 1864.95 -5.35222 -2.51577 0
M  V30 20061 C 1864.31 -6.60136 -2.45764 0
M  V30 20062 H 1860.41 -0.4597 -0.632613 0
M  V30 20063 H 1862.99 -1.58077 -1.13665 0
M  V30 20064 H 1861.17 -1.34057 -3.64532 0
M  V30 20065 H 1862.9 -1.57374 -3.72848 0
M  V30 20066 H 1859.65 -3.51523 -3.17378 0
M  V30 20067 H 1860.08 -6.12114 -2.89215 0
M  V30 20068 H 1864.72 -3.22175 -2.73794 0
M  V30 20069 H 1862.44 -7.66977 -2.54504 0
M  V30 20070 H 1866.02 -5.29707 -2.40627 0
M  V30 20071 H 1864.9 -7.49315 -2.31294 0
M  V30 20072 N 1862.41 1.16121 -1.06553 0
M  V30 20073 C 1863.34 2.22761 -0.699976 0
M  V30 20074 C 1864.32 1.67274 0.308783 0
M  V30 20075 O 1865.5 1.93333 0.183328 0
M  V30 20076 C 1862.63 3.47187 -0.0884044 0
M  V30 20077 C 1861.59 4.15584 -1.02343 0
M  V30 20078 C 1860.91 5.33992 -0.275022 0
M  V30 20079 C 1862.21 4.66266 -2.35358 0
M  V30 20080 H 1863.91 2.53595 -1.59153 0
M  V30 20081 H 1861.45 1.21893 -0.766686 0
M  V30 20082 H 1863.41 4.21019 0.17922 0
M  V30 20083 H 1862.13 3.15661 0.838181 0
M  V30 20084 H 1860.79 3.43683 -1.27584 0
M  V30 20085 H 1860.44 4.9872 0.654765 0
M  V30 20086 H 1860.14 5.80695 -0.898181 0
M  V30 20087 H 1861.66 6.10598 -0.0150056 0
M  V30 20088 H 1863.07 5.31665 -2.14488 0
M  V30 20089 H 1861.47 5.236 -2.93195 0
M  V30 20090 H 1862.54 3.82335 -2.98241 0
M  V30 20091 N 1863.88 0.848487 1.3281 0
M  V30 20092 C 1864.81 0.303885 2.31514 0
M  V30 20093 C 1865.8 -0.593621 1.59406 0
M  V30 20094 O 1866.98 -0.515158 1.87243 0
M  V30 20095 C 1864.11 -0.5138 3.43478 0
M  V30 20096 C 1863.06 0.28874 4.27025 0
M  V30 20097 C 1862.39 -0.653297 5.30694 0
M  V30 20098 C 1863.69 1.51111 4.99963 0
M  V30 20099 H 1865.38 1.12862 2.77313 0
M  V30 20100 H 1862.93 0.544158 1.33323 0
M  V30 20101 H 1864.88 -0.905164 4.11564 0
M  V30 20102 H 1863.61 -1.37184 2.96392 0
M  V30 20103 H 1862.27 0.661782 3.60577 0
M  V30 20104 H 1861.91 -1.50801 4.79863 0
M  V30 20105 H 1861.61 -0.120368 5.87477 0
M  V30 20106 H 1863.14 -1.04197 6.01644 0
M  V30 20107 H 1864.55 1.19237 5.60763 0
M  V30 20108 H 1862.95 1.98152 5.66441 0
M  V30 20109 H 1864.02 2.2757 4.28182 0
M  V30 20110 N 1865.36 -1.4549 0.605832 0
M  V30 20111 C 1866.29 -2.3328 -0.101377 0
M  V30 20112 C 1867.27 -1.46727 -0.860543 0
M  V30 20113 O 1868.46 -1.75501 -0.831441 0
M  V30 20114 C 1865.59 -3.29403 -1.1005 0
M  V30 20115 C 1864.54 -4.25578 -0.45466 0
M  V30 20116 C 1863.87 -5.11379 -1.5619 0
M  V30 20117 C 1865.17 -5.18571 0.623028 0
M  V30 20118 H 1866.86 -2.92661 0.631653 0
M  V30 20119 H 1864.41 -1.40728 0.305208 0
M  V30 20120 H 1866.36 -3.89688 -1.60379 0
M  V30 20121 H 1865.09 -2.68177 -1.8641 0
M  V30 20122 H 1863.74 -3.66589 0.027752 0
M  V30 20123 H 1863.39 -4.46523 -2.31574 0
M  V30 20124 H 1863.09 -5.76528 -1.13529 0
M  V30 20125 H 1864.62 -5.74532 -2.0675 0
M  V30 20126 H 1866.03 -5.72937 0.203881 0
M  V30 20127 H 1864.43 -5.92187 0.971292 0
M  V30 20128 H 1865.5 -4.61106 1.50032 0
M  V30 20129 N 1866.84 -0.344893 -1.5378 0
M  V30 20130 C 1868.09 0.251208 -2.00936 0
M  V30 20131 C 1868.42 1.50449 -1.23269 0
M  V30 20132 O 1867.67 1.93249 -0.308738 0
M  V30 20133 C 1867.97 0.609495 -3.52165 0
M  V30 20134 C 1867.64 -0.547063 -4.47569 0
M  V30 20135 C 1866.3 -0.864456 -4.73372 0
M  V30 20136 C 1868.65 -1.3229 -5.04132 0
M  V30 20137 C 1865.98 -1.96003 -5.52991 0
M  V30 20138 C 1868.33 -2.40874 -5.84947 0
M  V30 20139 C 1866.99 -2.73171 -6.09043 0
M  V30 20140 H 1866.26 0.0919233 -0.735276 0
M  V30 20141 H 1868.91 -0.473086 -1.85564 0
M  V30 20142 H 1867.22 1.41452 -3.65375 0
M  V30 20143 H 1868.91 1.08262 -3.86109 0
M  V30 20144 H 1865.5 -0.289626 -4.2762 0
M  V30 20145 H 1869.69 -1.09095 -4.84161 0
M  V30 20146 H 1864.94 -2.21449 -5.69886 0
M  V30 20147 H 1869.12 -3.01421 -6.27789 0
M  V30 20148 H 1866.74 -3.5819 -6.70525 0
M  V30 20149 N 1868.32 1.57428 -0.0735454 0
M  V30 20150 C 1869.25 2.15849 0.890584 0
M  V30 20151 C 1870.23 1.086 1.3092 0
M  V30 20152 O 1871.41 1.36643 1.37994 0
M  V30 20153 C 1868.54 2.72153 2.15755 0
M  V30 20154 C 1867.5 3.84584 1.87827 0
M  V30 20155 C 1866.82 4.27498 3.21169 0
M  V30 20156 C 1868.12 5.08746 1.18217 0
M  V30 20157 H 1869.82 2.96663 0.403904 0
M  V30 20158 H 1867.36 1.42703 0.192836 0
M  V30 20159 H 1869.32 3.11668 2.83621 0
M  V30 20160 H 1868.04 1.88562 2.66668 0
M  V30 20161 H 1866.7 3.45575 1.22366 0
M  V30 20162 H 1866.35 3.40827 3.69927 0
M  V30 20163 H 1866.05 5.03288 3.03273 0
M  V30 20164 H 1867.57 4.69631 3.9023 0
M  V30 20165 H 1868.99 5.45566 1.76155 0
M  V30 20166 H 1867.38 5.89825 1.10573 0
M  V30 20167 H 1868.45 4.84631 0.161525 0
M  V30 20168 N 1869.8 -0.200022 1.56326 0
M  V30 20169 C 1871.04 -0.919355 1.79979 0
M  V30 20170 C 1871.37 -1.83997 0.645767 0
M  V30 20171 O 1870.64 -1.92994 -0.336186 0
M  V30 20172 H 1869.22 -0.342469 0.66387 0
M  V30 20173 H 1871.88 -0.206713 1.93801 0
M  V30 20174 H 1870.97 -1.51341 2.72951 0
M  V30 20175 N 1871.27 -1.50505 -0.467553 0
M  V30 20176 C 1872.52 -1.60911 -1.21617 0
M  V30 20177 C 1872.84 -0.31663 -1.9302 0
M  V30 20178 O 1874.04 -0.299645 -2.69841 0
M  V30 20179 C 1872.5 -2.84052 -2.21003 0
M  V30 20180 C 1872.11 -4.20189 -1.55386 0
M  V30 20181 C 1873.85 -3.03805 -2.96484 0
M  V30 20182 C 1871.76 -5.34514 -2.5308 0
M  V30 20183 H 1870.69 -0.59924 -0.457633 0
M  V30 20184 H 1873.34 -1.7694 -0.486276 0
M  V30 20185 H 1871.72 -2.6159 -2.97299 0
M  V30 20186 H 1872.89 -4.5292 -0.848552 0
M  V30 20187 H 1871.21 -4.0607 -0.921725 0
M  V30 20188 H 1873.81 -3.86387 -3.69606 0
M  V30 20189 H 1874.15 -2.15672 -3.56078 0
M  V30 20190 H 1874.68 -3.26465 -2.27301 0
M  V30 20191 H 1871.42 -6.24811 -1.9822 0
M  V30 20192 H 1870.94 -5.06197 -3.21752 0
M  V30 20193 H 1872.62 -5.65232 -3.14836 0
M  V30 20194 N 1872.75 0.720973 -1.40142 0
M  V30 20195 C 1873.72 1.81676 -1.39737 0
M  V30 20196 C 1874.72 1.58125 -0.292068 0
M  V30 20197 O 1875.91 1.65266 -0.550699 0
M  V30 20198 C 1873.04 3.19685 -1.18381 0
M  V30 20199 H 1874.23 1.83435 -2.37259 0
M  V30 20200 H 1871.78 0.926064 -1.25912 0
M  V30 20201 H 1872.52 3.2358 -0.21598 0
M  V30 20202 H 1872.3 3.38178 -1.98439 0
M  V30 20203 H 1873.79 3.99724 -1.20873 0
M  V30 20204 N 1874.23 1.25549 0.952634 0
M  V30 20205 C 1875.16 1.08592 2.06712 0
M  V30 20206 C 1876.14 -0.00560571 1.70099 0
M  V30 20207 O 1877.33 0.164299 1.93504 0
M  V30 20208 C 1874.46 0.705984 3.40049 0
M  V30 20209 C 1873.41 1.74797 3.90679 0
M  V30 20210 C 1872.74 1.22266 5.20533 0
M  V30 20211 C 1874.04 3.14717 4.16834 0
M  V30 20212 H 1875.73 2.01816 2.21157 0
M  V30 20213 H 1873.28 0.971723 1.06271 0
M  V30 20214 H 1875.23 0.57428 4.17469 0
M  V30 20215 H 1873.95 -0.261964 3.25548 0
M  V30 20216 H 1872.61 1.86815 3.1543 0
M  V30 20217 H 1872.26 0.244887 5.02404 0
M  V30 20218 H 1871.96 1.9191 5.55377 0
M  V30 20219 H 1873.48 1.10339 6.00548 0
M  V30 20220 H 1874.9 3.05842 4.84906 0
M  V30 20221 H 1873.3 3.81849 4.62938 0
M  V30 20222 H 1874.37 3.61629 3.23037 0
M  V30 20223 N 1875.71 -1.15554 1.07168 0
M  V30 20224 C 1876.64 -2.22387 0.71178 0
M  V30 20225 C 1877.62 -1.67435 -0.299908 0
M  V30 20226 O 1878.8 -1.93427 -0.173073 0
M  V30 20227 C 1875.93 -3.47136 0.106815 0
M  V30 20228 C 1874.89 -4.15035 1.04545 0
M  V30 20229 C 1874.21 -5.33839 0.303337 0
M  V30 20230 C 1875.51 -4.65011 2.37827 0
M  V30 20231 H 1877.21 -2.52748 1.60496 0
M  V30 20232 H 1874.75 -1.21485 0.773139 0
M  V30 20233 H 1876.71 -4.21108 -0.15689 0
M  V30 20234 H 1875.43 -3.16101 -0.821429 0
M  V30 20235 H 1874.09 -3.43001 1.29405 0
M  V30 20236 H 1873.74 -4.9906 -0.628308 0
M  V30 20237 H 1873.44 -5.8021 0.928964 0
M  V30 20238 H 1874.96 -6.10582 0.0473869 0
M  V30 20239 H 1876.38 -5.3052 2.17305 0
M  V30 20240 H 1874.77 -5.22038 2.95967 0
M  V30 20241 H 1875.84 -3.80748 3.00264 0
M  V30 20242 N 1877.19 -0.855519 -1.32358 0
M  V30 20243 C 1878.43 -0.460002 -1.97514 0
M  V30 20244 C 1878.77 0.982052 -1.67539 0
M  V30 20245 O 1878.04 1.68925 -0.964091 0
M  V30 20246 C 1878.32 -0.70064 -3.53218 0
M  V30 20247 C 1878.18 -2.19118 -3.9282 0
M  V30 20248 C 1879.5 -0.157597 -4.39818 0
M  V30 20249 H 1876.62 -0.168606 -0.717455 0
M  V30 20250 H 1879.26 -1.0741 -1.56726 0
M  V30 20251 H 1877.41 -0.177937 -3.88092 0
M  V30 20252 H 1879.08 -2.78002 -3.6812 0
M  V30 20253 H 1877.32 -2.66934 -3.41948 0
M  V30 20254 H 1877.99 -2.31024 -5.0133 0
M  V30 20255 H 1880.47 -0.604597 -4.11684 0
M  V30 20256 H 1879.35 -0.355532 -5.47747 0
M  V30 20257 H 1879.61 0.939679 -4.31998 0
M  V30 20258 N 1878.67 1.45167 -0.61354 0
M  V30 20259 C 1879.63 2.29016 0.0919454 0
M  V30 20260 C 1880.63 1.40091 0.789373 0
M  V30 20261 O 1881.82 1.6215 0.636631 0
M  V30 20262 C 1878.95 3.21257 1.14048 0
M  V30 20263 H 1880.14 2.92875 -0.645317 0
M  V30 20264 H 1877.7 1.51788 -0.372855 0
M  V30 20265 H 1878.43 2.6221 1.90831 0
M  V30 20266 H 1878.22 3.86766 0.644523 0
M  V30 20267 H 1879.71 3.84288 1.63439 0
M  V30 20268 N 1880.14 0.353044 1.53595 0
M  V30 20269 C 1881.37 -0.241665 2.05484 0
M  V30 20270 C 1881.79 -1.43458 1.2274 0
M  V30 20271 O 1881.14 -1.80566 0.26501 0
M  V30 20272 C 1881.19 -0.647442 3.55655 0
M  V30 20273 O 1880.92 0.498047 4.3526 0
M  V30 20274 C 1882.42 -1.30187 4.23753 0
M  V30 20275 H 1879.64 -0.0449704 0.669491 0
M  V30 20276 H 1882.18 0.507783 1.98095 0
M  V30 20277 H 1880.34 -1.34682 3.63235 0
M  V30 20278 H 1880.75 0.172685 5.24216 0
M  V30 20279 H 1882.22 -1.53646 5.30186 0
M  V30 20280 H 1882.7 -2.25835 3.7669 0
M  V30 20281 H 1883.31 -0.644265 4.20392 0
M  V30 20282 N 1881.62 -1.57387 0.0818932 0
M  V30 20283 C 1882.55 -2.16318 -0.879124 0
M  V30 20284 C 1883.53 -1.09293 -1.30342 0
M  V30 20285 O 1884.72 -1.37373 -1.37267 0
M  V30 20286 C 1881.85 -2.73293 -2.14308 0
M  V30 20287 C 1880.8 -3.85575 -1.85785 0
M  V30 20288 C 1880.13 -4.29195 -3.18897 0
M  V30 20289 C 1881.43 -5.09365 -1.15517 0
M  V30 20290 H 1883.12 -2.96873 -0.388166 0
M  V30 20291 H 1880.67 -1.42803 -0.185265 0
M  V30 20292 H 1882.62 -3.13168 -2.81964 0
M  V30 20293 H 1881.34 -1.89974 -2.65664 0
M  V30 20294 H 1880 -3.46219 -1.20532 0
M  V30 20295 H 1879.65 -3.42784 -3.68114 0
M  V30 20296 H 1879.35 -5.04889 -3.006 0
M  V30 20297 H 1880.88 -4.71694 -3.87734 0
M  V30 20298 H 1882.29 -5.46493 -1.73259 0
M  V30 20299 H 1880.69 -5.90403 -1.07444 0
M  V30 20300 H 1881.76 -4.8471 -0.135822 0
M  V30 20301 N 1883.1 0.191729 -1.56429 0
M  V30 20302 C 1884.35 0.909797 -1.80464 0
M  V30 20303 C 1884.67 1.83652 -0.655516 0
M  V30 20304 O 1883.94 1.93169 0.325946 0
M  V30 20305 H 1882.52 0.338944 -0.665677 0
M  V30 20306 H 1885.18 0.196432 -1.93908 0
M  V30 20307 H 1884.28 1.49891 -2.7375 0
M  V30 20308 N 1884.58 1.50751 0.459565 0
M  V30 20309 C 1885.51 1.73389 1.56392 0
M  V30 20310 C 1886.49 0.583101 1.59793 0
M  V30 20311 O 1887.67 0.823474 1.75876 0
M  V30 20312 C 1884.8 1.83861 2.94639 0
M  V30 20313 C 1883.76 2.9914 3.06103 0
M  V30 20314 C 1883.08 2.94768 4.46112 0
M  V30 20315 C 1884.38 4.39471 2.82246 0
M  V30 20316 H 1886.08 2.65856 1.37699 0
M  V30 20317 H 1883.62 1.27933 0.661001 0
M  V30 20318 H 1885.58 1.98283 3.71836 0
M  V30 20319 H 1884.3 0.880254 3.14514 0
M  V30 20320 H 1882.96 2.84388 2.31342 0
M  V30 20321 H 1882.61 1.96755 4.62922 0
M  V30 20322 H 1882.31 3.72166 4.54716 0
M  V30 20323 H 1883.83 3.11254 5.25313 0
M  V30 20324 H 1885.25 4.54689 3.49186 0
M  V30 20325 H 1883.64 5.18406 3.02283 0
M  V30 20326 H 1884.71 4.51043 1.78012 0
M  V30 20327 N 1886.06 -0.713531 1.40522 0
M  V30 20328 C 1887.28 -1.50766 1.42423 0
M  V30 20329 C 1887.71 -1.88082 0.0262417 0
M  V30 20330 O 1887.06 -1.5341 -0.966185 0
M  V30 20331 C 1887.11 -2.75813 2.32291 0
M  V30 20332 O 1886.22 -3.726 1.76758 0
M  V30 20333 H 1885.56 -0.454473 0.484098 0
M  V30 20334 H 1888.09 -0.878583 1.84776 0
M  V30 20335 H 1888.1 -3.2432 2.47549 0
M  V30 20336 H 1886.77 -2.47988 3.33878 0
M  V30 20337 H 1885.35 -3.31455 1.70857 0
M  V30 20338 N 1887.53 -1.26053 -0.945962 0
M  V30 20339 C 1888.47 -1.02985 -2.0476 0
M  V30 20340 C 1889.48 0.00812739 -1.62798 0
M  V30 20341 O 1890.67 -0.231411 -1.76994 0
M  V30 20342 C 1887.77 -0.536609 -3.34625 0
M  V30 20343 C 1886.94 -1.64273 -4.0538 0
M  V30 20344 C 1886 -1.14836 -5.13516 0
M  V30 20345 O 1885.03 -1.84449 -5.38486 0
M  V30 20346 N 1886.23 0.00576017 -5.805 0
M  V30 20347 H 1888.99 -1.97845 -2.25117 0
M  V30 20348 H 1886.55 -1.17375 -1.11512 0
M  V30 20349 H 1888.55 -0.19017 -4.04253 0
M  V30 20350 H 1887.12 0.318275 -3.10976 0
M  V30 20351 H 1886.34 -2.16034 -3.29732 0
M  V30 20352 H 1887.62 -2.3856 -4.49407 0
M  V30 20353 H 1887.02 0.587225 -5.62644 0
M  V30 20354 H 1885.58 0.293161 -6.5114 0
M  V30 20355 N 1889.01 1.14984 -1.07779 0
M  V30 20356 C 1890.43 1.3786 -0.804164 0
M  V30 20357 C 1890.63 1.92682 0.589572 0
M  V30 20358 O 1889.68 2.13537 1.34752 0
M  V30 20359 C 1891 2.34559 -1.88156 0
M  V30 20360 C 1892.54 2.48212 -1.90683 0
M  V30 20361 C 1893.02 3.48205 -2.97519 0
M  V30 20362 N 1894.51 3.55743 -2.96649 0
M  V30 20363 C 1895.25 4.32946 -3.75959 0
M  V30 20364 N 1894.74 5.13446 -4.65129 0
M  V30 20365 N 1896.53 4.28079 -3.64287 0
M  V30 20366 H 1888.69 0.777434 -1.97661 0
M  V30 20367 H 1890.95 0.404419 -0.857409 0
M  V30 20368 H 1890.65 2.014 -2.88324 0
M  V30 20369 H 1890.53 3.34389 -1.74539 0
M  V30 20370 H 1892.92 2.80665 -0.911642 0
M  V30 20371 H 1893 1.48365 -2.08378 0
M  V30 20372 H 1892.64 3.16485 -3.9724 0
M  V30 20373 H 1892.57 4.47817 -2.77069 0
M  V30 20374 H 1895.06 2.98291 -2.32014 0
M  V30 20375 H 1895.37 5.69612 -5.22267 0
M  V30 20376 H 1893.72 5.12737 -4.69176 0
M  V30 20377 H 1896.91 3.64257 -2.93997 0
M  V30 20378 H 1897.08 4.87996 -4.26337 0
M  V30 20379 N 1890.49 0.862526 1.31902 0
M  V30 20380 C 1891.42 0.328423 2.31179 0
M  V30 20381 C 1892.4 -0.57668 1.60026 0
M  V30 20382 O 1893.59 -0.49527 1.87778 0
M  V30 20383 C 1890.72 -0.47734 3.44004 0
M  V30 20384 C 1889.67 0.334015 4.26695 0
M  V30 20385 C 1889 -0.596973 5.31357 0
M  V30 20386 C 1890.3 1.56405 4.98332 0
M  V30 20387 H 1891.99 1.15797 2.761 0
M  V30 20388 H 1889.54 0.558268 1.32738 0
M  V30 20389 H 1891.49 -0.861461 4.12501 0
M  V30 20390 H 1890.21 -1.34033 2.9783 0
M  V30 20391 H 1888.87 0.699989 3.59855 0
M  V30 20392 H 1888.52 -1.45703 4.81435 0
M  V30 20393 H 1888.22 -0.0580517 5.87571 0
M  V30 20394 H 1889.74 -0.978099 6.02715 0
M  V30 20395 H 1891.16 1.25178 5.59467 0
M  V30 20396 H 1889.55 2.04149 5.64308 0
M  V30 20397 H 1890.62 2.32099 4.25744 0
M  V30 20398 N 1891.97 -1.4484 0.62123 0
M  V30 20399 C 1893.22 -2.02133 0.121784 0
M  V30 20400 C 1893.54 -1.48784 -1.25274 0
M  V30 20401 O 1892.8 -0.658116 -1.84302 0
M  V30 20402 C 1893.1 -3.57369 0.0470922 0
M  V30 20403 C 1892.76 -4.2993 1.35908 0
M  V30 20404 C 1891.43 -4.4947 1.71843 0
M  V30 20405 C 1893.78 -4.71295 2.22554 0
M  V30 20406 C 1891.11 -5.07634 2.94151 0
M  V30 20407 C 1893.46 -5.30812 3.44124 0
M  V30 20408 C 1892.12 -5.48573 3.80294 0
M  V30 20409 H 1891.39 -0.739659 0.044564 0
M  V30 20410 H 1894.04 -1.73732 0.805571 0
M  V30 20411 H 1892.34 -3.85127 -0.720022 0
M  V30 20412 H 1894.04 -3.99419 -0.355713 0
M  V30 20413 H 1890.63 -4.15044 1.06941 0
M  V30 20414 H 1894.81 -4.5592 1.96088 0
M  V30 20415 H 1890.07 -5.19572 3.22265 0
M  V30 20416 H 1894.24 -5.61816 4.11504 0
M  V30 20417 H 1891.87 -5.93409 4.75152 0
M  V30 20418 N 1893.45 -0.361184 -1.53405 0
M  V30 20419 C 1894.67 0.233383 -2.06083 0
M  V30 20420 C 1895.1 1.42029 -1.23326 0
M  V30 20421 O 1894.45 1.79551 -0.251249 0
M  V30 20422 C 1894.5 0.609243 -3.55416 0
M  V30 20423 O 1893.61 1.70705 -3.75411 0
M  V30 20424 H 1892.95 0.035021 -0.663076 0
M  V30 20425 H 1895.48 -0.520514 -1.97868 0
M  V30 20426 H 1895.49 0.881483 -3.98364 0
M  V30 20427 H 1894.16 -0.25866 -4.15095 0
M  V30 20428 H 1892.74 1.4307 -3.44362 0
M  V30 20429 N 1894.92 1.57341 -0.0902386 0
M  V30 20430 C 1896.17 1.93352 0.574273 0
M  V30 20431 C 1896.49 0.97374 1.6964 0
M  V30 20432 O 1897.69 1.22737 2.42173 0
M  V30 20433 C 1896.15 3.43536 1.07289 0
M  V30 20434 C 1895.76 4.47996 -0.0192163 0
M  V30 20435 C 1897.5 3.88516 1.71042 0
M  V30 20436 C 1895.41 5.89329 0.494487 0
M  V30 20437 H 1894.34 0.721711 0.218287 0
M  V30 20438 H 1896.99 1.82753 -0.165456 0
M  V30 20439 H 1895.37 3.49271 1.86616 0
M  V30 20440 H 1896.54 4.53899 -0.794527 0
M  V30 20441 H 1894.86 4.12595 -0.561628 0
M  V30 20442 H 1897.46 4.91505 2.1054 0
M  V30 20443 H 1897.8 3.26896 2.57769 0
M  V30 20444 H 1898.33 3.85462 0.983058 0
M  V30 20445 H 1895.07 6.54638 -0.336054 0
M  V30 20446 H 1894.59 5.86908 1.23691 0
M  V30 20447 H 1896.27 6.39763 0.965014 0
M  V30 20448 N 1896.4 -0.183431 1.56529 0
M  V30 20449 C 1897.82 -0.534734 1.50375 0
M  V30 20450 C 1898.02 -1.85267 0.792359 0
M  V30 20451 O 1897.07 -2.50095 0.3477 0
M  V30 20452 C 1898.39 -0.578686 2.95079 0
M  V30 20453 C 1899.94 -0.66672 3.05817 0
M  V30 20454 C 1900.41 -0.741676 4.51955 0
M  V30 20455 N 1901.9 -0.804892 4.56153 0
M  V30 20456 C 1902.64 -0.883257 5.66556 0
M  V30 20457 N 1902.13 -0.923203 6.86621 0
M  V30 20458 N 1903.93 -0.921346 5.54498 0
M  V30 20459 H 1896.08 0.68092 2.0119 0
M  V30 20460 H 1898.34 0.244029 0.916053 0
M  V30 20461 H 1898.05 0.320816 3.50234 0
M  V30 20462 H 1897.92 -1.42937 3.49068 0
M  V30 20463 H 1900.31 -1.55665 2.50704 0
M  V30 20464 H 1900.39 0.210402 2.54933 0
M  V30 20465 H 1900.03 0.143948 5.07696 0
M  V30 20466 H 1899.96 -1.63477 5.00583 0
M  V30 20467 H 1902.45 -0.782796 3.69704 0
M  V30 20468 H 1902.77 -0.983835 7.66512 0
M  V30 20469 H 1901.11 -0.891683 6.89256 0
M  V30 20470 H 1904.3 -0.887056 4.59618 0
M  V30 20471 H 1904.47 -0.978957 6.40563 0
M  V30 20472 N 1897.88 -1.50992 -0.451564 0
M  V30 20473 C 1898.83 -1.67662 -1.5451 0
M  V30 20474 C 1899.81 -0.53081 -1.51892 0
M  V30 20475 O 1901.01 -0.786103 -1.58586 0
M  V30 20476 C 1898.14 -1.79204 -2.92815 0
M  V30 20477 C 1897.22 -2.99524 -3.00244 0
M  V30 20478 N 1897.61 -4.22917 -2.77443 0
M  V30 20479 C 1895.91 -2.98485 -3.31395 0
M  V30 20480 C 1896.61 -5.04058 -2.90346 0
M  V30 20481 N 1895.59 -4.3841 -3.21399 0
M  V30 20482 H 1899.39 -2.60742 -1.35612 0
M  V30 20483 H 1896.9 -1.48444 -0.658639 0
M  V30 20484 H 1898.9 -1.89254 -3.71468 0
M  V30 20485 H 1897.56 -0.872954 -3.12745 0
M  V30 20486 H 1898.57 -4.52096 -2.52645 0
M  V30 20487 H 1895.25 -2.16153 -3.57189 0
M  V30 20488 H 1896.64 -6.12238 -2.76792 0
M  V30 20489 N 1899.36 0.706069 -1.40899 0
M  V30 20490 C 1900.77 1.01535 -1.23137 0
M  V30 20491 C 1900.97 2.01181 -0.113293 0
M  V30 20492 O 1900.03 2.46966 0.525732 0
M  V30 20493 C 1901.34 1.54998 -2.57674 0
M  V30 20494 C 1902.89 1.66935 -2.64767 0
M  V30 20495 C 1903.37 2.23802 -3.99596 0
M  V30 20496 N 1904.86 2.31176 -4.01388 0
M  V30 20497 C 1905.59 2.76181 -5.02506 0
M  V30 20498 N 1905.09 3.20868 -6.14016 0
M  V30 20499 N 1906.88 2.7565 -4.89871 0
M  V30 20500 H 1899.03 0.045751 -2.12351 0
M  V30 20501 H 1901.3 0.0828835 -0.94437 0
M  V30 20502 H 1901 0.892393 -3.4019 0
M  V30 20503 H 1900.88 2.53377 -2.79428 0
M  V30 20504 H 1903.26 2.31808 -1.82617 0
M  V30 20505 H 1903.34 0.671301 -2.46834 0
M  V30 20506 H 1902.99 1.59547 -4.8219 0
M  V30 20507 H 1902.92 3.24339 -4.14864 0
M  V30 20508 H 1905.41 1.99627 -3.2087 0
M  V30 20509 H 1905.72 3.53803 -6.87054 0
M  V30 20510 H 1904.07 3.18803 -6.17568 0
M  V30 20511 H 1907.26 2.40081 -4.01844 0
M  V30 20512 H 1907.43 3.10407 -5.68816 0
M  V30 20513 N 1900.84 1.26553 0.939264 0
M  V30 20514 C 1902.06 1.15098 1.72532 0
M  V30 20515 C 1902.49 -0.289811 1.85854 0
M  V30 20516 O 1901.84 -1.20997 1.35017 0
M  V30 20517 C 1901.89 1.82703 3.10889 0
M  V30 20518 O 1901 1.11712 3.96981 0
M  V30 20519 H 1900.34 0.40095 0.529278 0
M  V30 20520 H 1902.87 1.67408 1.17625 0
M  V30 20521 H 1902.88 1.89603 3.61268 0
M  V30 20522 H 1901.55 2.87519 3.00509 0
M  V30 20523 H 1900.13 1.12801 3.5543 0
M  V30 20524 N 1902.31 -1.14411 1.08387 0
M  V30 20525 C 1903.24 -2.21619 0.735327 0
M  V30 20526 C 1904.23 -1.67744 -0.282132 0
M  V30 20527 O 1905.41 -1.936 -0.152547 0
M  V30 20528 C 1902.54 -3.47003 0.143628 0
M  V30 20529 C 1901.49 -4.13903 1.08941 0
M  V30 20530 C 1900.82 -5.33487 0.359941 0
M  V30 20531 C 1902.12 -4.62463 2.42746 0
M  V30 20532 H 1903.81 -2.51031 1.63168 0
M  V30 20533 H 1901.36 -1.20658 0.785981 0
M  V30 20534 H 1903.31 -4.21251 -0.112217 0
M  V30 20535 H 1902.04 -3.16955 -0.787856 0
M  V30 20536 H 1900.7 -3.4161 1.33035 0
M  V30 20537 H 1900.34 -4.99699 -0.57534 0
M  V30 20538 H 1900.04 -5.79192 0.990451 0
M  V30 20539 H 1901.57 -6.10497 0.112145 0
M  V30 20540 H 1902.98 -5.28185 2.22919 0
M  V30 20541 H 1901.38 -5.18869 3.01488 0
M  V30 20542 H 1902.45 -3.77542 3.04286 0
M  V30 20543 N 1903.79 -0.869509 -1.31443 0
M  V30 20544 C 1904.74 -0.296524 -2.26064 0
M  V30 20545 C 1905.73 0.566171 -1.5061 0
M  V30 20546 O 1906.92 0.413124 -1.72111 0
M  V30 20547 C 1904.05 0.501397 -3.39619 0
M  V30 20548 C 1903.13 -0.374516 -4.22443 0
M  V30 20549 N 1903.52 -1.46777 -4.84035 0
M  V30 20550 C 1901.82 -0.16687 -4.45688 0
M  V30 20551 C 1902.52 -2.00787 -5.45948 0
M  V30 20552 N 1901.5 -1.30494 -5.27705 0
M  V30 20553 H 1905.3 -1.1321 -2.71221 0
M  V30 20554 H 1902.82 -0.71722 -1.45704 0
M  V30 20555 H 1904.81 0.928409 -4.06431 0
M  V30 20556 H 1903.47 1.33459 -2.96005 0
M  V30 20557 H 1904.48 -1.85069 -4.83704 0
M  V30 20558 H 1901.16 0.630411 -4.12713 0
M  V30 20559 H 1902.55 -2.9251 -6.04887 0
M  V30 20560 N 1905.27 1.44508 -0.628902 0
M  V30 20561 C 1906.69 1.56863 -0.294332 0
M  V30 20562 C 1906.89 1.6168 1.20257 0
M  V30 20563 O 1905.94 1.55862 1.98653 0
M  V30 20564 C 1907.26 2.84134 -0.984291 0
M  V30 20565 C 1908.8 2.97843 -0.962223 0
M  V30 20566 C 1909.28 4.27914 -1.6326 0
M  V30 20567 N 1910.77 4.34722 -1.59909 0
M  V30 20568 C 1911.5 5.34081 -2.08675 0
M  V30 20569 N 1911 6.39857 -2.65623 0
M  V30 20570 N 1912.79 5.25575 -1.99317 0
M  V30 20571 H 1904.94 1.39624 -1.60059 0
M  V30 20572 H 1907.21 0.66894 -0.671731 0
M  V30 20573 H 1906.91 2.86551 -2.03915 0
M  V30 20574 H 1906.79 3.73589 -0.520679 0
M  V30 20575 H 1909.17 2.9498 0.0841512 0
M  V30 20576 H 1909.26 2.09742 -1.4643 0
M  V30 20577 H 1908.9 4.31536 -2.67842 0
M  V30 20578 H 1908.83 5.14868 -1.10537 0
M  V30 20579 H 1911.32 3.58896 -1.18329 0
M  V30 20580 H 1911.63 7.11952 -3.00572 0
M  V30 20581 H 1909.98 6.40548 -2.69672 0
M  V30 20582 H 1913.17 4.4185 -1.54551 0
M  V30 20583 H 1913.34 6.02855 -2.37634 0
M  V30 20584 N 1906.75 0.369315 1.53212 0
M  V30 20585 C 1907.7 -0.491919 2.2263 0
M  V30 20586 C 1908.68 -1.0457 1.22286 0
M  V30 20587 O 1909.88 -0.975125 1.47717 0
M  V30 20588 C 1907 -1.62916 3.02181 0
M  V30 20589 C 1906.09 -1.08808 4.09904 0
M  V30 20590 N 1906.48 -0.270291 5.05077 0
M  V30 20591 C 1904.78 -1.36253 4.24678 0
M  V30 20592 C 1905.48 0.0263875 5.81694 0
M  V30 20593 N 1904.46 -0.572239 5.4058 0
M  V30 20594 H 1908.26 0.139657 2.93568 0
M  V30 20595 H 1905.77 0.177531 1.61427 0
M  V30 20596 H 1907.77 -2.25837 3.50433 0
M  V30 20597 H 1906.43 -2.26376 2.32774 0
M  V30 20598 H 1907.44 0.0908158 5.1782 0
M  V30 20599 H 1904.12 -1.99964 3.66498 0
M  V30 20600 H 1905.51 0.687735 6.68371 0
M  V30 20601 N 1908.23 -1.57291 0.0985816 0
M  V30 20602 C 1909.45 -1.99242 -0.575966 0
M  V30 20603 C 1909.88 -0.977378 -1.60714 0
M  V30 20604 O 1909.24 0.053677 -1.81221 0
M  V30 20605 C 1909.28 -3.40148 -1.19714 0
M  V30 20606 O 1908.39 -3.41434 -2.31293 0
M  V30 20607 H 1907.73 -0.647791 -0.145816 0
M  V30 20608 H 1910.26 -2.03798 0.181023 0
M  V30 20609 H 1910.27 -3.77918 -1.5376 0
M  V30 20610 H 1908.94 -4.13548 -0.441714 0
M  V30 20611 H 1907.52 -3.15464 -1.98839 0
M  V30 20612 N 1909.71 0.175127 -1.56624 0
M  V30 20613 C 1910.66 1.22142 -1.92523 0
M  V30 20614 C 1911.64 1.39995 -0.793112 0
M  V30 20615 O 1912.83 1.4203 -1.05625 0
M  V30 20616 C 1909.96 2.56174 -2.28538 0
M  V30 20617 C 1909.05 2.42031 -3.48255 0
M  V30 20618 N 1909.44 1.97597 -4.65606 0
M  V30 20619 C 1907.74 2.72869 -3.52787 0
M  V30 20620 C 1908.44 1.95826 -5.47747 0
M  V30 20621 N 1907.41 2.38086 -4.88688 0
M  V30 20622 H 1911.21 0.869519 -2.80743 0
M  V30 20623 H 1908.73 0.383427 -1.57809 0
M  V30 20624 H 1910.73 3.31775 -2.5245 0
M  V30 20625 H 1909.39 2.92171 -1.41656 0
M  V30 20626 H 1910.4 1.67994 -4.89896 0
M  V30 20627 H 1907.07 3.12929 -2.76373 0
M  V30 20628 H 1908.46 1.63202 -6.51778 0
M  V30 20629 N 1911.18 1.5123 0.44355 0
M  V30 20630 C 1912.43 1.63267 1.19114 0
M  V30 20631 C 1912.75 0.348151 1.91867 0
M  V30 20632 O 1912.02 -0.635724 1.85298 0
M  V30 20633 H 1910.6 0.601701 0.442679 0
M  V30 20634 H 1913.26 1.88132 0.509134 0
M  V30 20635 H 1912.36 2.45732 1.92411 0
M  V30 20636 N 1912.66 -0.698586 1.41271 0
M  V30 20637 C 1914.07 -1.2784 1.36066 0
M  V30 20638 C 1914.42 -1.96154 0.0422934 0
M  V30 20639 O 1913.55 -1.98599 -0.859498 0
M  V30 20640 C 1914.14 -2.32481 2.46451 0
M  V30 20641 C 1912.7 -2.86046 2.44652 0
M  V30 20642 C 1911.85 -1.60045 2.26453 0
M  V30 20643 H 1914.8 -0.493547 1.5083 0
M  V30 20644 H 1914.82 -3.13705 2.15335 0
M  V30 20645 H 1914.33 -1.82732 3.4239 0
M  V30 20646 H 1912.43 -3.3998 1.52461 0
M  V30 20647 H 1912.55 -3.36682 3.40855 0
M  V30 20648 H 1910.91 -1.85742 1.74275 0
M  V30 20649 H 1911.69 -1.12295 3.24414 0
M  V30 20650 N 1914.14 -1.27049 -0.93254 0
M  V30 20651 C 1915.07 -1.05151 -2.03656 0
M  V30 20652 C 1916.08 -0.00913996 -1.62797 0
M  V30 20653 O 1917.27 -0.25017 -1.76738 0
M  V30 20654 C 1914.37 -0.572071 -3.34037 0
M  V30 20655 C 1913.55 -1.68563 -4.03615 0
M  V30 20656 C 1912.61 -1.20276 -5.12269 0
M  V30 20657 O 1911.63 -1.9015 -5.36499 0
M  V30 20658 N 1912.83 -0.0558099 -5.80473 0
M  V30 20659 H 1915.6 -2.00221 -2.23006 0
M  V30 20660 H 1913.16 -1.18551 -1.1026 0
M  V30 20661 H 1915.15 -0.233036 -4.04029 0
M  V30 20662 H 1913.72 0.285274 -3.11296 0
M  V30 20663 H 1912.94 -2.19519 -3.27422 0
M  V30 20664 H 1914.23 -2.43313 -4.46852 0
M  V30 20665 H 1913.63 0.527516 -5.63235 0
M  V30 20666 H 1912.18 0.224082 -6.51415 0
M  V30 20667 N 1915.62 1.13835 -1.08993 0
M  V30 20668 C 1916.86 1.8501 -0.823256 0
M  V30 20669 C 1917.19 1.83279 0.65107 0
M  V30 20670 O 1916.45 1.26293 1.49495 0
M  V30 20671 C 1916.75 3.32997 -1.29798 0
M  V30 20672 C 1916.41 3.54912 -2.78115 0
M  V30 20673 C 1915.07 3.60602 -3.18622 0
M  V30 20674 C 1917.43 3.63247 -3.73766 0
M  V30 20675 C 1914.75 3.72154 -4.53562 0
M  V30 20676 C 1917.11 3.76326 -5.0849 0
M  V30 20677 C 1915.77 3.80267 -5.48592 0
M  V30 20678 H 1915.04 0.677 -0.301251 0
M  V30 20679 H 1917.69 1.34423 -1.36392 0
M  V30 20680 H 1915.99 3.85906 -0.677026 0
M  V30 20681 H 1917.69 3.86507 -1.06832 0
M  V30 20682 H 1914.28 3.51136 -2.45767 0
M  V30 20683 H 1918.46 3.58135 -3.43588 0
M  V30 20684 H 1913.72 3.7347 -4.84077 0
M  V30 20685 H 1917.89 3.81717 -5.82465 0
M  V30 20686 H 1915.52 3.8897 -6.53151 0
M  V30 20687 N 1917.1 0.876467 1.3098 0
M  V30 20688 C 1918.34 0.489671 1.96078 0
M  V30 20689 C 1918.66 -0.962603 1.69585 0
M  V30 20690 O 1917.93 -1.67568 1.01478 0
M  V30 20691 H 1916.51 0.178091 0.72546 0
M  V30 20692 H 1919.18 1.11768 1.59668 0
M  V30 20693 H 1918.27 0.652822 3.05196 0
M  V30 20694 N 1918.57 -1.44173 0.636557 0
M  V30 20695 C 1919.8 -2.06866 0.148751 0
M  V30 20696 C 1920.22 -1.47295 -1.16987 0
M  V30 20697 O 1919.58 -0.576466 -1.71891 0
M  V30 20698 C 1919.63 -3.60561 0.0533064 0
M  V30 20699 O 1918.73 -4.00361 -0.989163 0
M  V30 20700 H 1918.07 -0.658243 0.087251 0
M  V30 20701 H 1920.6 -1.84956 0.874772 0
M  V30 20702 H 1920.61 -4.07775 -0.135499 0
M  V30 20703 H 1919.29 -4.033 1.01599 0
M  V30 20704 H 1917.87 -3.64769 -0.77449 0
M  V30 20705 N 1920.05 -0.377435 -1.53014 0
M  V30 20706 C 1920.96 0.471045 -2.29822 0
M  V30 20707 C 1921.98 1.0821 -1.36259 0
M  V30 20708 O 1923.15 1.09048 -1.69324 0
M  V30 20709 C 1920.22 1.58917 -3.08134 0
M  V30 20710 C 1919.28 1.00444 -4.17384 0
M  V30 20711 C 1918.51 2.06928 -4.91952 0
M  V30 20712 O 1918.74 3.2824 -4.66492 0
M  V30 20713 O 1917.67 1.69321 -5.77593 0
M  V30 20714 H 1921.5 -0.154333 -3.03308 0
M  V30 20715 H 1919.08 -0.141478 -1.48729 0
M  V30 20716 H 1920.96 2.23899 -3.56997 0
M  V30 20717 H 1919.64 2.19973 -2.37473 0
M  V30 20718 H 1918.54 0.3182 -3.72744 0
M  V30 20719 H 1919.88 0.438266 -4.90245 0
M  V30 20720 N 1921.53 1.57237 -0.106922 0
M  V30 20721 C 1922.78 1.95064 0.554803 0
M  V30 20722 C 1923.11 0.989597 1.67095 0
M  V30 20723 O 1922.38 0.0246857 1.94484 0
M  V30 20724 C 1922.67 3.42924 1.09887 0
M  V30 20725 C 1922.52 4.49798 -0.0130257 0
M  V30 20726 C 1923.84 3.92358 1.99356 0
M  V30 20727 H 1920.96 0.709287 0.200204 0
M  V30 20728 H 1923.6 1.89145 -0.180032 0
M  V30 20729 H 1921.75 3.48098 1.7251 0
M  V30 20730 H 1923.42 4.56729 -0.647804 0
M  V30 20731 H 1921.67 4.28472 -0.677825 0
M  V30 20732 H 1922.34 5.50485 0.40868 0
M  V30 20733 H 1924.81 3.89411 1.46622 0
M  V30 20734 H 1923.69 4.9636 2.34346 0
M  V30 20735 H 1923.95 3.32343 2.91549 0
M  V30 20736 N 1923.01 -0.166818 1.56715 0
M  V30 20737 C 1923.92 -1.22632 1.99996 0
M  V30 20738 C 1924.93 -1.4818 0.912068 0
M  V30 20739 O 1926.11 -1.6024 1.22005 0
M  V30 20740 C 1923.18 -2.54444 2.35498 0
M  V30 20741 C 1922.24 -2.36718 3.58138 0
M  V30 20742 C 1921.47 -3.62244 3.91937 0
M  V30 20743 O 1921.69 -4.67609 3.26646 0
M  V30 20744 O 1920.63 -3.56087 4.85269 0
M  V30 20745 H 1924.45 -0.888926 2.90399 0
M  V30 20746 H 1922.04 -0.374032 1.44642 0
M  V30 20747 H 1923.92 -3.32191 2.59281 0
M  V30 20748 H 1922.59 -2.87753 1.48256 0
M  V30 20749 H 1921.5 -1.56987 3.39567 0
M  V30 20750 H 1922.83 -2.08332 4.45936 0
M  V30 20751 N 1924.49 -1.51463 -0.435524 0
M  V30 20752 C 1925.42 -1.75856 -1.53613 0
M  V30 20753 C 1926.4 -0.608449 -1.58846 0
M  V30 20754 O 1927.58 -0.85135 -1.74544 0
M  V30 20755 C 1924.71 -1.88525 -2.91677 0
M  V30 20756 C 1923.67 -3.03972 -3.01305 0
M  V30 20757 C 1922.99 -3.01828 -4.41366 0
M  V30 20758 C 1924.29 -4.43905 -2.75219 0
M  V30 20759 H 1925.99 -2.68013 -1.33452 0
M  V30 20760 H 1923.53 -1.28968 -0.640564 0
M  V30 20761 H 1925.49 -2.04173 -3.68634 0
M  V30 20762 H 1924.21 -0.930179 -3.13074 0
M  V30 20763 H 1922.87 -2.88033 -2.26788 0
M  V30 20764 H 1922.52 -2.04095 -4.59733 0
M  V30 20765 H 1922.22 -3.79353 -4.48737 0
M  V30 20766 H 1923.74 -3.19572 -5.20294 0
M  V30 20767 H 1925.15 -4.60187 -3.41908 0
M  V30 20768 H 1923.55 -5.2315 -2.93998 0
M  V30 20769 H 1924.62 -4.53818 -1.70814 0
M  V30 20770 N 1925.96 0.691085 -1.4164 0
M  V30 20771 C 1927.38 1.00223 -1.24207 0
M  V30 20772 C 1927.58 2.0105 -0.134625 0
M  V30 20773 O 1926.64 2.4751 0.499509 0
M  V30 20774 C 1927.95 1.52256 -2.59304 0
M  V30 20775 C 1929.5 1.64117 -2.66523 0
M  V30 20776 C 1929.97 2.19551 -4.01947 0
M  V30 20777 N 1931.46 2.26906 -4.03817 0
M  V30 20778 C 1932.2 2.70835 -5.05407 0
M  V30 20779 N 1931.69 3.14337 -6.17385 0
M  V30 20780 N 1933.49 2.70439 -4.92767 0
M  V30 20781 H 1925.64 0.0232257 -2.12387 0
M  V30 20782 H 1927.9 0.0728626 -0.945196 0
M  V30 20783 H 1927.61 0.856261 -3.41117 0
M  V30 20784 H 1927.48 2.50399 -2.821 0
M  V30 20785 H 1929.87 2.29858 -1.85066 0
M  V30 20786 H 1929.95 0.645083 -2.47532 0
M  V30 20787 H 1929.59 1.54424 -4.83855 0
M  V30 20788 H 1929.52 3.1992 -4.18281 0
M  V30 20789 H 1932.01 1.96212 -3.22969 0
M  V30 20790 H 1932.33 3.46496 -6.90768 0
M  V30 20791 H 1930.67 3.12235 -6.20914 0
M  V30 20792 H 1933.86 2.35806 -4.04368 0
M  V30 20793 H 1934.04 3.04357 -5.72076 0
M  V30 20794 N 1927.44 1.27542 0.925789 0
M  V30 20795 C 1928.39 1.07085 2.01288 0
M  V30 20796 C 1929.38 -0.0017417 1.609 0
M  V30 20797 O 1930.57 0.217017 1.75665 0
M  V30 20798 C 1927.7 0.72208 3.3562 0
M  V30 20799 C 1926.78 1.83291 3.82446 0
M  V30 20800 N 1927.17 3.07277 4.01764 0
M  V30 20801 C 1925.47 1.72002 4.11499 0
M  V30 20802 C 1926.17 3.79576 4.40791 0
M  V30 20803 N 1925.15 3.07351 4.48371 0
M  V30 20804 H 1928.95 2.01175 2.14257 0
M  V30 20805 H 1926.47 1.18285 1.11277 0
M  V30 20806 H 1928.46 0.556635 4.13167 0
M  V30 20807 H 1927.12 -0.211174 3.24013 0
M  V30 20808 H 1928.13 3.43018 3.88019 0
M  V30 20809 H 1924.81 0.857729 4.08594 0
M  V30 20810 H 1926.2 4.86147 4.63801 0
M  V30 20811 N 1928.92 -1.13255 1.09595 0
M  V30 20812 C 1930.15 -1.88952 0.855104 0
M  V30 20813 C 1930.57 -1.78668 -0.588174 0
M  V30 20814 O 1929.93 -1.13544 -1.41341 0
M  V30 20815 C 1929.98 -3.36461 1.29717 0
M  V30 20816 O 1929.08 -4.09863 0.456717 0
M  V30 20817 H 1928.42 -0.587432 0.309547 0
M  V30 20818 H 1930.95 -1.43282 1.46053 0
M  V30 20819 H 1930.96 -3.87291 1.28333 0
M  V30 20820 H 1929.64 -3.43263 2.34826 0
M  V30 20821 H 1928.21 -3.69042 0.535026 0
M  V30 20822 O 1930.44 -1.01647 -1.255 0
M  V30 20823 H 1931.13 -0.676497 -1.81503 0
M  V30 END ATOM
M  V30 BEGIN BOND
M  V30 END BOND
M  V30 END CTAB
M  END
$$$$
