drugbank_target|Q14289 Protein-tyrosine kinase 2-beta (DB01097; DB01645; DB08341; DB11817; DB12010)
 OpenBabel12092119423D

  0  0  0     0  0            999 V3000
M  V30 BEGIN CTAB
M  V30 COUNTS 16316 16491 0 0 0
M  V30 BEGIN ATOM
M  V30 1 H -0.908 1.98254 -0.117106 0
M  V30 2 N 0 1.576 0 0
M  V30 3 C 0.933 2.03868 1.02534 0
M  V30 4 C 1.911 0.928543 1.3348 0
M  V30 5 O 3.095 1.19667 1.45644 0
M  V30 6 C 0.222 2.43627 2.35294 0
M  V30 7 C -0.732 3.65373 2.2001 0
M  V30 8 S 0.101 5.13292 1.52614 0
M  V30 9 C 1.257 5.56322 2.86805 0
M  V30 10 H 1.49 2.90518 0.631377 0
M  V30 11 H -0.977 1.52953 0.210867 0
M  V30 12 H 0.981 2.67203 3.11629 0
M  V30 13 H -0.358 1.57376 2.7183 0
M  V30 14 H -1.165 3.90944 3.18086 0
M  V30 15 H -1.563 3.418 1.51819 0
M  V30 16 H 0.729 5.58782 3.83104 0
M  V30 17 H 1.672 6.56266 2.65933 0
M  V30 18 H 2.08 4.83886 2.90714 0
M  V30 19 N 1.4781 -0.272755 1.55222 0
M  V30 20 C 2.7031 -1.02683 1.80197 0
M  V30 21 C 3.1281 -1.79142 0.573551 0
M  V30 22 O 2.4861 -1.74917 -0.476849 0
M  V30 23 C 2.5341 -1.9609 3.02624 0
M  V30 24 O 1.6381 -3.04863 2.77727 0
M  V30 25 H 0.9791 -0.293557 0.595584 0
M  V30 26 H 3.5091 -0.30159 2.02365 0
M  V30 27 H 3.5191 -2.38039 3.31363 0
M  V30 28 H 2.1941 -1.39851 3.91682 0
M  V30 29 H 0.7711 -2.67228 2.60084 0
M  V30 30 N 2.9562 -1.48159 -0.537278 0
M  V30 31 C 4.2042 -1.55497 -1.29094 0
M  V30 32 C 4.5252 -0.227454 -1.93669 0
M  V30 33 O 3.7952 0.750386 -1.80959 0
M  V30 34 H 2.3752 -0.572832 -0.47945 0
M  V30 35 H 5.0372 -1.84579 -0.625818 0
M  V30 36 H 4.1332 -2.33216 -2.07405 0
M  V30 37 N 4.4343 0.785586 -1.36625 0
M  V30 38 C 5.6803 1.54591 -1.31261 0
M  V30 39 C 6.0133 1.93906 0.106823 0
M  V30 40 O 5.2883 1.63007 1.06108 0
M  V30 41 C 5.5713 2.82038 -2.23889 0
M  V30 42 C 5.4243 2.49066 -3.74548 0
M  V30 43 C 6.7433 3.83887 -2.15217 0
M  V30 44 H 3.8623 0.560846 -0.478143 0
M  V30 45 H 6.5043 0.902278 -1.67209 0
M  V30 46 H 4.6543 3.36961 -1.93363 0
M  V30 47 H 6.3263 2.00164 -4.15611 0
M  V30 48 H 4.5693 1.81954 -3.93796 0
M  V30 49 H 5.2403 3.40109 -4.34776 0
M  V30 50 H 7.7163 3.38421 -2.42096 0
M  V30 51 H 6.5923 4.70806 -2.82193 0
M  V30 52 H 6.8533 4.27131 -1.14068 0
M  V30 53 N 5.9124 1.20967 1.01018 0
M  V30 54 C 7.1374 1.0503 1.78839 0
M  V30 55 C 7.5624 -0.395752 1.8389 0
M  V30 56 O 6.9204 -1.28529 1.27867 0
M  V30 57 C 6.9684 1.64602 3.2084 0
M  V30 58 O 6.0724 0.887988 4.02726 0
M  V30 59 H 5.4134 0.369987 0.551367 0
M  V30 60 H 7.9434 1.60399 1.27018 0
M  V30 61 H 7.9534 1.68607 3.71532 0
M  V30 62 H 6.6284 2.69841 3.16479 0
M  V30 63 H 5.2054 0.922648 3.61305 0
M  V30 64 N 7.3905 -1.2043 1.01659 0
M  V30 65 C 8.3005 -2.2689 0.596484 0
M  V30 66 C 9.3165 -1.70107 -0.36599 0
M  V30 67 O 10.4925 -2.00117 -0.226942 0
M  V30 68 C 7.5575 -3.4665 -0.0586659 0
M  V30 69 C 6.6185 -4.18662 0.949751 0
M  V30 70 C 5.8515 -5.32705 0.32577 0
M  V30 71 O 6.0745 -5.63656 -0.874509 0
M  V30 72 O 5.0085 -5.92803 1.04249 0
M  V30 73 H 8.8345 -2.65041 1.4828 0
M  V30 74 H 6.4195 -1.27048 0.786082 0
M  V30 75 H 8.3015 -4.19256 -0.424564 0
M  V30 76 H 6.9765 -3.10375 -0.91918 0
M  V30 77 H 5.8835 -3.48229 1.36702 0
M  V30 78 H 7.2165 -4.58878 1.78023 0
M  V30 79 N 8.8686 -0.792821 -1.36206 0
M  V30 80 C 10.2796 -0.429513 -1.81692 0
M  V30 81 C 10.6306 1.04695 -1.65932 0
M  V30 82 O 9.7556 1.81256 -1.18218 0
M  V30 83 C 10.3506 -0.772831 -3.29868 0
M  V30 84 C 8.9096 -0.462307 -3.7355 0
M  V30 85 C 8.0566 -1.00569 -2.5842 0
M  V30 86 H 11.0076 -0.985672 -1.24379 0
M  V30 87 H 11.0286 -0.0651928 -3.80444 0
M  V30 88 H 10.5406 -1.84747 -3.41307 0
M  V30 89 H 8.6416 0.604158 -3.67669 0
M  V30 90 H 8.7546 -0.985299 -4.68859 0
M  V30 91 H 7.1186 -0.428734 -2.51066 0
M  V30 92 H 7.9016 -2.08616 -2.72643 0
M  V30 93 N 10.3467 1.47872 -0.545128 0
M  V30 94 C 11.2767 2.32661 0.197793 0
M  V30 95 C 12.2577 1.43041 0.920504 0
M  V30 96 O 13.4427 1.71912 0.90333 0
M  V30 97 C 10.5727 3.24569 1.23582 0
M  V30 98 C 9.5267 4.23333 0.630323 0
M  V30 99 C 8.8527 5.0448 1.77211 0
M  V30 100 C 10.1527 5.20704 -0.407974 0
M  V30 101 H 11.8467 2.95024 -0.510045 0
M  V30 102 H 9.3927 1.4187 -0.246731 0
M  V30 103 H 11.3457 3.8272 1.76362 0
M  V30 104 H 10.0697 2.60236 1.97344 0
M  V30 105 H 8.7287 3.6639 0.123922 0
M  V30 106 H 8.3767 4.36561 2.49847 0
M  V30 107 H 8.0767 5.71339 1.37281 0
M  V30 108 H 9.6007 5.65487 2.3034 0
M  V30 109 H 11.0147 5.7329 0.033305 0
M  V30 110 H 9.4117 5.95699 -0.725486 0
M  V30 111 H 10.4817 4.66917 -1.30828 0
M  V30 112 N 11.8248 0.280983 1.55075 0
M  V30 113 C 13.0498 -0.340154 2.04592 0
M  V30 114 C 13.4748 -1.48246 1.15779 0
M  V30 115 O 12.8328 -1.80614 0.15761 0
M  V30 116 C 12.8808 -0.793104 3.5177 0
M  V30 117 O 11.9848 -1.89981 3.66034 0
M  V30 118 H 11.3258 -0.0694289 0.66036 0
M  V30 119 H 13.8558 0.416993 2.00306 0
M  V30 120 H 13.8658 -1.08729 3.93245 0
M  V30 121 H 12.5408 0.0426163 4.15878 0
M  V30 122 H 11.1178 -1.60771 3.36463 0
M  V30 123 N 13.3029 -1.57598 0.00835791 0
M  V30 124 C 14.7189 -1.55764 -0.347822 0
M  V30 125 C 14.9189 -1.01186 -1.74252 0
M  V30 126 O 13.9749 -0.649371 -2.44007 0
M  V30 127 C 15.2879 -2.99927 -0.215407 0
M  V30 128 C 16.8359 -3.11656 -0.289725 0
M  V30 129 C 17.3109 -4.57621 -0.18634 0
M  V30 130 N 18.8019 -4.62557 -0.243978 0
M  V30 131 C 19.5369 -5.73094 -0.18745 0
M  V30 132 N 19.0329 -6.92753 -0.0810331 0
M  V30 133 N 20.8259 -5.61588 -0.239925 0
M  V30 134 H 12.9769 -1.91411 0.92062 0
M  V30 135 H 15.2399 -0.879562 0.353659 0
M  V30 136 H 14.9459 -3.43729 0.744512 0
M  V30 137 H 14.8199 -3.63865 -0.994097 0
M  V30 138 H 17.2069 -2.67779 -1.24009 0
M  V30 139 H 17.2879 -2.5048 0.51898 0
M  V30 140 H 16.9319 -5.02174 0.760519 0
M  V30 141 H 16.8619 -5.16752 -1.01364 0
M  V30 142 H 19.3529 -3.76481 -0.327217 0
M  V30 143 H 19.6659 -7.72787 -0.0440241 0
M  V30 144 H 18.0109 -6.94984 -0.0465419 0
M  V30 145 H 21.2019 -4.66996 -0.321317 0
M  V30 146 H 21.3749 -6.47714 -0.192407 0
M  V30 147 N 14.781 0.264519 -1.55364 0
M  V30 148 C 16.027 0.99646 -1.76631 0
M  V30 149 C 16.36 1.85632 -0.570478 0
M  V30 150 O 15.635 1.89647 0.43175 0
M  V30 151 C 15.918 1.87187 -3.07625 0
M  V30 152 C 15.771 1.04138 -4.37579 0
M  V30 153 C 17.09 2.85749 -3.34717 0
M  V30 154 H 14.209 0.360841 -0.642622 0
M  V30 155 H 16.851 0.268218 -1.88097 0
M  V30 156 H 15.001 2.49279 -2.9798 0
M  V30 157 H 16.673 0.440517 -4.59192 0
M  V30 158 H 14.916 0.345115 -4.32425 0
M  V30 159 H 15.587 1.68729 -5.2558 0
M  V30 160 H 18.063 2.33793 -3.4421 0
M  V30 161 H 16.939 3.44136 -4.27623 0
M  V30 162 H 17.2 3.61311 -2.54768 0
M  V30 163 N 16.2591 1.48442 0.529413 0
M  V30 164 C 17.2061 1.63007 1.63394 0
M  V30 165 C 18.1761 0.47212 1.59249 0
M  V30 166 O 19.3611 0.695673 1.77666 0
M  V30 167 C 16.5011 1.6763 3.01653 0
M  V30 168 C 15.6141 2.94535 3.16027 0
M  V30 169 C 14.7491 2.90316 4.44849 0
M  V30 170 C 13.7881 4.11923 4.52754 0
M  V30 171 N 12.9251 4.05777 5.72965 0
M  V30 172 H 17.7651 2.5733 1.50285 0
M  V30 173 H 15.3021 1.27613 0.731656 0
M  V30 174 H 17.2601 1.68292 3.81751 0
M  V30 175 H 15.8901 0.76797 3.13532 0
M  V30 176 H 14.9421 3.03615 2.29177 0
M  V30 177 H 16.2541 3.84512 3.17729 0
M  V30 178 H 15.4081 2.89382 5.33238 0
M  V30 179 H 14.1471 1.98068 4.45668 0
M  V30 180 H 13.1521 4.13131 3.62771 0
M  V30 181 H 14.3771 5.0533 4.53672 0
M  V30 182 H 12.3231 3.16351 5.74681 0
M  V30 183 H 12.2401 4.8946 5.76164 0
M  V30 184 H 13.5081 4.08904 6.6364 0
M  V30 185 N 17.7372 -0.778329 1.37039 0
M  V30 186 C 18.6672 -1.90546 1.34962 0
M  V30 187 C 19.6482 -1.68681 0.219274 0
M  V30 188 O 20.8332 -1.89634 0.418624 0
M  V30 189 C 17.9632 -3.27734 1.14925 0
M  V30 190 C 16.9172 -3.64147 2.24902 0
M  V30 191 C 16.2432 -4.99806 1.89996 0
M  V30 192 C 17.5432 -3.71579 3.67051 0
M  V30 193 H 19.2372 -1.92541 2.29277 0
M  V30 194 H 16.7832 -0.924948 1.10366 0
M  V30 195 H 18.7362 -4.06215 1.12104 0
M  V30 196 H 17.4602 -3.26154 0.170631 0
M  V30 197 H 16.1192 -2.8797 2.26868 0
M  V30 198 H 15.7672 -4.94759 0.906796 0
M  V30 199 H 15.4672 -5.25139 2.63634 0
M  V30 200 H 16.9912 -5.80694 1.88749 0
M  V30 201 H 18.4052 -4.40227 3.67251 0
M  V30 202 H 16.8022 -4.08405 4.39688 0
M  V30 203 H 17.8722 -2.72404 4.01154 0
M  V30 204 N 19.2153 -1.21501 -1.00376 0
M  V30 205 C 20.4633 -1.03095 -1.73827 0
M  V30 206 C 20.7843 0.436341 -1.90055 0
M  V30 207 O 20.0543 1.31466 -1.45236 0
M  V30 208 H 18.6343 -0.378487 -0.644016 0
M  V30 209 H 21.2963 -1.52831 -1.20949 0
M  V30 210 H 20.3923 -1.49991 -2.73695 0
M  V30 211 N 20.6934 1.19889 -1.02296 0
M  V30 212 C 21.9214 1.9339 -0.735399 0
M  V30 213 C 22.3364 1.75148 0.704887 0
M  V30 214 O 21.6934 1.06954 1.47875 0
M  V30 215 C 21.7444 3.45313 -1.06962 0
M  V30 216 O 21.4654 3.62964 -2.45334 0
M  V30 217 C 22.9664 4.35948 -0.804021 0
M  V30 218 H 20.1864 0.61448 -0.269546 0
M  V30 219 H 22.7304 1.522 -1.36585 0
M  V30 220 H 20.8854 3.84359 -0.484455 0
M  V30 221 H 21.2994 4.56886 -2.57595 0
M  V30 222 H 22.7734 5.41174 -1.0879 0
M  V30 223 H 23.2504 4.3842 0.261691 0
M  V30 224 H 23.8564 4.02574 -1.37164 0
M  V30 225 N 22.1715 0.800033 1.35784 0
M  V30 226 C 23.1015 0.220184 2.3246 0
M  V30 227 C 24.0825 -0.65073 1.57161 0
M  V30 228 O 25.2675 -0.582359 1.85263 0
M  V30 229 C 22.3975 -0.637353 3.41402 0
M  V30 230 C 21.3515 0.134531 4.27789 0
M  V30 231 C 20.6775 -0.844285 5.27992 0
M  V30 232 C 21.9775 1.32979 5.05088 0
M  V30 233 H 23.6715 1.02787 2.81203 0
M  V30 234 H 21.2175 0.495717 1.35199 0
M  V30 235 H 23.1705 -1.05302 4.08031 0
M  V30 236 H 21.8945 -1.47785 2.91251 0
M  V30 237 H 20.5535 0.531296 3.6273 0
M  V30 238 H 20.2015 -1.68011 4.74111 0
M  V30 239 H 19.9015 -0.332184 5.8666 0
M  V30 240 H 21.4255 -1.2583 5.97494 0
M  V30 241 H 22.8395 0.98934 5.64699 0
M  V30 242 H 21.2365 1.77593 5.7322 0
M  V30 243 H 22.3065 2.11978 4.36111 0
M  V30 244 N 23.6496 -1.47581 0.552962 0
M  V30 245 C 25.0656 -1.5818 0.212424 0
M  V30 246 C 25.2656 -1.55213 -1.28496 0
M  V30 247 O 24.3216 -1.45329 -2.06484 0
M  V30 248 C 25.6346 -2.88865 0.835318 0
M  V30 249 C 27.1826 -3.0244 0.806156 0
M  V30 250 C 27.6576 -4.35819 1.40804 0
M  V30 251 N 29.1486 -4.42444 1.37103 0
M  V30 252 C 29.8836 -5.44202 1.80641 0
M  V30 253 N 29.3796 -6.52795 2.32015 0
M  V30 254 N 31.1726 -5.35222 1.71738 0
M  V30 255 H 23.3236 -1.47753 1.52587 0
M  V30 256 H 25.5866 -0.702941 0.636064 0
M  V30 257 H 25.2926 -2.9676 1.88749 0
M  V30 258 H 25.1666 -3.7579 0.325848 0
M  V30 259 H 27.5536 -2.94144 -0.237317 0
M  V30 260 H 27.6346 -2.17068 1.35334 0
M  V30 261 H 27.2786 -4.44871 2.45056 0
M  V30 262 H 27.2086 -5.19916 0.836338 0
M  V30 263 H 29.6996 -3.6456 0.995202 0
M  V30 264 H 30.0126 -7.26609 2.63171 0
M  V30 265 H 28.3576 -6.53696 2.36023 0
M  V30 266 H 31.5486 -4.49284 1.31382 0
M  V30 267 H 31.7216 -6.14389 2.05987 0
M  V30 268 N 25.1277 -0.289203 -1.54924 0
M  V30 269 C 26.5437 0.0645403 -1.59469 0
M  V30 270 C 26.7437 1.53419 -1.30632 0
M  V30 271 O 25.7997 2.2852 -1.074 0
M  V30 272 C 27.1127 -0.32278 -2.98963 0
M  V30 273 C 28.6607 -0.270564 -3.11828 0
M  V30 274 C 29.1357 -0.632532 -4.53611 0
M  V30 275 N 30.6267 -0.584617 -4.59496 0
M  V30 276 C 31.3617 -0.837314 -5.67254 0
M  V30 277 N 30.8577 -1.15536 -6.83098 0
M  V30 278 N 32.6507 -0.765166 -5.56868 0
M  V30 279 H 24.8017 -1.24714 -1.71931 0
M  V30 280 H 27.0647 -0.504809 -0.802416 0
M  V30 281 H 26.7707 -1.34541 -3.24948 0
M  V30 282 H 26.6447 0.32944 -3.75759 0
M  V30 283 H 29.0317 0.742805 -2.85598 0
M  V30 284 H 29.1127 -0.957242 -2.37214 0
M  V30 285 H 28.7567 -1.64365 -4.80569 0
M  V30 286 H 28.6867 0.07609 -5.26545 0
M  V30 287 H 31.1777 -0.349248 -3.76283 0
M  V30 288 H 31.4907 -1.33447 -7.61191 0
M  V30 289 H 29.8357 -1.19328 -6.84679 0
M  V30 290 H 33.0267 -0.516432 -4.65243 0
M  V30 291 H 33.1997 -0.965477 -6.40767 0
M  V30 292 N 26.6058 1.57591 -0.0167156 0
M  V30 293 C 28.0168 1.79201 0.523834 0
M  V30 294 C 28.3678 0.925796 1.72984 0
M  V30 295 O 27.4928 0.132792 2.15992 0
M  V30 296 C 28.0878 3.25 0.957091 0
M  V30 297 C 26.6468 3.47648 1.44283 0
M  V30 298 C 25.7938 2.74374 0.401757 0
M  V30 299 H 28.7448 1.56831 -0.242816 0
M  V30 300 H 28.7658 3.34031 1.82219 0
M  V30 301 H 28.2778 3.88019 0.0791415 0
M  V30 302 H 26.3788 2.89866 2.34113 0
M  V30 303 H 26.4918 4.56352 1.45877 0
M  V30 304 H 24.8558 2.39485 0.867121 0
M  V30 305 H 25.6388 3.40102 -0.467513 0
M  V30 306 N 28.0839 -0.256276 1.55502 0
M  V30 307 C 28.9939 -1.33882 1.92647 0
M  V30 308 C 30.0099 -1.53159 0.825727 0
M  V30 309 O 31.1859 -1.66963 1.12629 0
M  V30 310 C 28.2509 -2.6751 2.20543 0
M  V30 311 C 27.3119 -2.56836 3.43997 0
M  V30 312 C 26.5449 -3.84092 3.70553 0
M  V30 313 O 26.7679 -4.85545 2.99336 0
M  V30 314 O 25.7019 -3.83288 4.64084 0
M  V30 315 H 29.5279 -1.05374 2.84833 0
M  V30 316 H 27.1129 -0.456237 1.42263 0
M  V30 317 H 28.9949 -3.46492 2.39835 0
M  V30 318 H 27.6699 -2.9577 1.31536 0
M  V30 319 H 26.5769 -1.76172 3.30021 0
M  V30 320 H 27.9099 -2.33523 4.33275 0
M  V30 321 N 29.562 -1.4872 -0.521534 0
M  V30 322 C 30.81 -1.56857 -1.27437 0
M  V30 323 C 31.131 -0.247982 -1.93417 0
M  V30 324 O 30.401 0.731151 -1.81744 0
M  V30 325 H 28.981 -0.577885 -0.473347 0
M  V30 326 H 31.643 -1.85233 -0.606205 0
M  V30 327 H 30.739 -2.35402 -2.0492 0
M  V30 328 N 31.0401 0.771051 -1.3745 0
M  V30 329 C 32.4511 1.34737 -1.29239 0
M  V30 330 C 32.8021 1.96109 0.0596908 0
M  V30 331 O 31.9271 1.93865 0.961534 0
M  V30 332 C 32.5221 2.44973 -2.34037 0
M  V30 333 C 31.0811 2.98372 -2.29458 0
M  V30 334 C 30.2281 1.71595 -2.17831 0
M  V30 335 H 33.1791 0.571256 -1.48062 0
M  V30 336 H 33.2001 3.24471 -1.98744 0
M  V30 337 H 32.7121 2.00276 -3.32432 0
M  V30 338 H 30.8131 3.47443 -1.34589 0
M  V30 339 H 30.9261 3.53939 -3.229 0
M  V30 340 H 29.2901 1.94547 -1.64388 0
M  V30 341 H 30.0731 1.29001 -3.18141 0
M  V30 342 N 32.5182 1.22032 0.997298 0
M  V30 343 C 33.4812 0.987909 2.06816 0
M  V30 344 C 34.4812 -0.0440084 1.6074 0
M  V30 345 O 35.6712 0.194053 1.73116 0
M  V30 346 C 32.8032 0.49132 3.37341 0
M  V30 347 H 33.9962 1.93803 2.28868 0
M  V30 348 H 31.5492 1.03838 1.16822 0
M  V30 349 H 32.2842 -0.463364 3.20973 0
M  V30 350 H 32.0692 1.23575 3.72118 0
M  V30 351 H 33.5592 0.348824 4.16141 0
M  V30 352 N 33.9963 -1.19345 1.0293 0
M  V30 353 C 34.9063 -2.26245 0.620515 0
M  V30 354 C 35.9223 -1.70486 -0.347928 0
M  V30 355 O 37.0983 -2.00347 -0.205704 0
M  V30 356 C 34.1633 -3.46693 -0.0218957 0
M  V30 357 C 33.2243 -4.17632 0.994102 0
M  V30 358 C 32.4573 -5.32329 0.382253 0
M  V30 359 O 32.6803 -5.64552 -0.814676 0
M  V30 360 O 31.6143 -5.91664 1.10531 0
M  V30 361 H 35.4403 -2.63453 1.51083 0
M  V30 362 H 33.0253 -1.26207 0.799513 0
M  V30 363 H 34.9073 -4.19683 -0.380072 0
M  V30 364 H 33.5823 -3.11333 -0.886209 0
M  V30 365 H 32.4893 -3.4676 1.40387 0
M  V30 366 H 33.8223 -4.56964 1.8288 0
M  V30 367 N 35.4744 -0.807222 -1.35358 0
M  V30 368 C 36.8854 -0.44876 -1.81226 0
M  V30 369 C 37.2364 1.02929 -1.67033 0
M  V30 370 O 36.3614 1.79991 -1.20133 0
M  V30 371 C 36.9564 -0.807774 -3.2903 0
M  V30 372 C 35.5154 -0.501901 -3.73039 0
M  V30 373 C 34.6624 -1.03304 -2.57339 0
M  V30 374 H 37.6134 -0.998808 -1.23327 0
M  V30 375 H 37.6344 -0.10554 -3.80354 0
M  V30 376 H 37.1464 -1.88357 -3.39328 0
M  V30 377 H 35.2474 0.565128 -3.68289 0
M  V30 378 H 35.3604 -1.03497 -4.67787 0
M  V30 379 H 33.7244 -0.455339 -2.50597 0
M  V30 380 H 34.5074 -2.11496 -2.70415 0
M  V30 381 N 36.9525 1.47285 -0.560781 0
M  V30 382 C 37.8855 2.27009 0.232821 0
M  V30 383 C 38.8635 1.34273 0.917039 0
M  V30 384 O 40.0475 1.63659 0.935315 0
M  V30 385 C 37.1745 3.11406 1.33206 0
M  V30 386 C 36.2205 4.19746 0.756019 0
M  V30 387 S 37.0535 5.34003 -0.400165 0
M  V30 388 C 38.2095 6.21964 0.700805 0
M  V30 389 H 38.4425 2.93971 -0.443683 0
M  V30 390 H 35.9755 1.50446 -0.347181 0
M  V30 391 H 37.9335 3.60601 1.96156 0
M  V30 392 H 36.5945 2.438 1.98041 0
M  V30 393 H 35.7875 4.78541 1.5816 0
M  V30 394 H 35.3895 3.73451 0.202619 0
M  V30 395 H 37.6815 6.58529 1.59202 0
M  V30 396 H 38.6245 7.07941 0.150126 0
M  V30 397 H 39.0325 5.5566 0.995083 0
M  V30 398 N 38.4306 0.297415 1.54768 0
M  V30 399 C 39.6766 -0.313376 2.00364 0
M  V30 400 C 40.0096 -1.53815 1.18553 0
M  V30 401 O 39.2846 -1.92739 0.261103 0
M  V30 402 C 39.5676 -0.673525 3.53745 0
M  V30 403 C 39.4206 0.560133 4.46299 0
M  V30 404 C 40.7396 -1.50143 4.13697 0
M  V30 405 H 37.8586 -0.112428 0.728374 0
M  V30 406 H 40.5006 0.4088 1.8555 0
M  V30 407 H 38.6506 -1.28881 3.665 0
M  V30 408 H 40.3226 1.19863 4.45455 0
M  V30 409 H 38.5656 1.19405 4.17043 0
M  V30 410 H 39.2366 0.26405 5.51368 0
M  V30 411 H 41.7126 -0.981588 4.04356 0
M  V30 412 H 40.5886 -1.72221 5.21182 0
M  V30 413 H 40.8496 -2.48952 3.65343 0
M  V30 414 N 39.9087 -1.5758 0.0250728 0
M  V30 415 C 41.1547 -1.91917 -0.655413 0
M  V30 416 C 41.4877 -0.901433 -1.72011 0
M  V30 417 O 40.7627 0.0764069 -1.9435 0
M  V30 418 C 41.0457 -3.36751 -1.27558 0
M  V30 419 C 40.8987 -4.49258 -0.220719 0
M  V30 420 C 42.2177 -3.81469 -2.19475 0
M  V30 421 H 39.3367 -0.697925 -0.23679 0
M  V30 422 H 41.9787 -1.89825 0.0815036 0
M  V30 423 H 40.1287 -3.38664 -1.90365 0
M  V30 424 H 41.8007 -4.59478 0.409601 0
M  V30 425 H 40.0437 -4.31415 0.454264 0
M  V30 426 H 40.7147 -5.47618 -0.694175 0
M  V30 427 H 43.1907 -3.81266 -1.66659 0
M  V30 428 H 42.0667 -4.83512 -2.59822 0
M  V30 429 H 42.3277 -3.16744 -3.08424 0
M  V30 430 N 41.3868 0.248026 -1.55636 0
M  V30 431 C 42.6328 0.97767 -1.77678 0
M  V30 432 C 42.9658 1.85016 -0.590135 0
M  V30 433 O 42.2408 1.90095 0.411611 0
M  V30 434 C 42.5238 1.83914 -3.09593 0
M  V30 435 C 42.3768 0.99491 -4.38659 0
M  V30 436 C 43.6958 2.82183 -3.37729 0
M  V30 437 H 40.8148 0.354005 -0.646413 0
M  V30 438 H 43.4568 0.248253 -1.88371 0
M  V30 439 H 41.6068 2.46104 -3.00608 0
M  V30 440 H 43.2788 0.391789 -4.59633 0
M  V30 441 H 41.5218 0.299231 -4.32767 0
M  V30 442 H 42.1928 1.63145 -5.2734 0
M  V30 443 H 44.6688 2.30129 -3.4667 0
M  V30 444 H 43.5448 3.39582 -4.31249 0
M  V30 445 H 43.8058 3.58588 -2.58586 0
M  V30 446 N 42.8649 1.48995 0.513639 0
M  V30 447 C 44.2759 1.5119 1.09537 0
M  V30 448 C 44.6269 0.290906 1.94031 0
M  V30 449 O 43.7519 -0.60049 2.07902 0
M  V30 450 C 44.3469 2.73964 1.99322 0
M  V30 451 C 42.9059 2.78978 2.52682 0
M  V30 452 C 42.0529 2.44934 1.30009 0
M  V30 453 H 45.0039 1.55875 0.298125 0
M  V30 454 H 45.0249 2.53409 2.83838 0
M  V30 455 H 44.5369 3.62813 1.37799 0
M  V30 456 H 42.6379 1.94378 3.1788 0
M  V30 457 H 42.7509 3.8083 2.90698 0
M  V30 458 H 41.1149 1.9644 1.62122 0
M  V30 459 H 41.8979 3.36043 0.702131 0
M  V30 460 N 44.343 -0.763751 1.37857 0
M  V30 461 C 45.589 -1.52483 1.33704 0
M  V30 462 C 45.922 -1.94051 -0.0759612 0
M  V30 463 O 45.197 -1.64675 -1.03501 0
M  V30 464 C 45.48 -2.78441 2.28348 0
M  V30 465 C 45.333 -2.43075 3.78463 0
M  V30 466 C 46.652 -3.80415 2.21298 0
M  V30 467 H 43.771 -0.553169 0.487005 0
M  V30 468 H 46.413 -0.875562 1.68624 0
M  V30 469 H 44.563 -3.33842 1.987 0
M  V30 470 H 46.235 -1.93527 4.18742 0
M  V30 471 H 44.478 -1.75666 3.96641 0
M  V30 472 H 45.149 -3.33149 4.40132 0
M  V30 473 H 47.625 -3.34527 2.47449 0
M  V30 474 H 46.501 -4.66257 2.89647 0
M  V30 475 H 46.762 -4.25262 1.20849 0
M  V30 476 N 45.8211 -1.22559 -0.990812 0
M  V30 477 C 47.0981 -0.959875 -1.70428 0
M  V30 478 C 47.4781 0.524455 -2.04481 0
M  V30 479 O 46.8261 1.49302 -1.72977 0
M  V30 480 C 47.0361 -1.85955 -2.95333 0
M  V30 481 C 48.3841 -2.11687 -3.68068 0
M  V30 482 O 49.4081 -1.8342 -3.05345 0
M  V30 483 O 48.2671 -2.59572 -4.80921 0
M  V30 484 H 45.3611 -0.361154 -0.743974 0
M  V30 485 H 47.9071 -1.33554 -1.04697 0
M  V30 486 H 46.6791 -2.86346 -2.66687 0
M  V30 487 H 46.3021 -1.4856 -3.68803 0
M  V30 488 N 47.2992 1.18797 -1.03562 0
M  V30 489 C 48.5452 1.8893 -0.737113 0
M  V30 490 C 48.8782 1.79837 0.732956 0
M  V30 491 O 48.1532 1.19525 1.5344 0
M  V30 492 C 48.4362 3.39607 -1.19745 0
M  V30 493 C 48.2892 3.57537 -2.72924 0
M  V30 494 C 49.6082 4.33069 -0.783526 0
M  V30 495 H 46.7272 0.686057 -0.269249 0
M  V30 496 H 49.3692 1.39797 -1.28673 0
M  V30 497 H 47.5192 3.81583 -0.729855 0
M  V30 498 H 49.1912 3.24688 -3.27682 0
M  V30 499 H 47.4342 3.00363 -3.12993 0
M  V30 500 H 48.1052 4.63238 -3.00191 0
M  V30 501 H 50.5812 3.98846 -1.18581 0
M  V30 502 H 49.4572 5.3707 -1.13343 0
M  V30 503 H 49.7182 4.40986 0.313681 0
M  V30 504 N 48.7773 0.814389 1.34928 0
M  V30 505 C 49.6873 0.231978 2.3345 0
M  V30 506 C 50.7033 -0.629139 1.62228 0
M  V30 507 O 51.8793 -0.539052 1.94052 0
M  V30 508 C 48.9443 -0.603482 3.41407 0
M  V30 509 C 48.0053 0.279037 4.28392 0
M  V30 510 C 47.2383 -0.516643 5.31193 0
M  V30 511 O 47.4613 -1.75068 5.4287 0
M  V30 512 O 46.3953 0.0965652 6.01823 0
M  V30 513 H 50.2213 1.04721 2.85074 0
M  V30 514 H 47.8063 0.576343 1.37836 0
M  V30 515 H 49.6883 -1.07908 4.0735 0
M  V30 516 H 48.3633 -1.39618 2.92042 0
M  V30 517 H 47.2703 0.801948 3.65403 0
M  V30 518 H 48.6033 1.03588 4.81176 0
M  V30 519 N 50.2554 -1.46986 0.568584 0
M  V30 520 C 51.2024 -2.30153 -0.172707 0
M  V30 521 C 52.1724 -1.39759 -0.897586 0
M  V30 522 O 53.3574 -1.68716 -0.891044 0
M  V30 523 C 50.4974 -3.23952 -1.1895 0
M  V30 524 C 49.6104 -4.29441 -0.469517 0
M  V30 525 C 48.7454 -5.1038 -1.47259 0
M  V30 526 C 47.7844 -6.07632 -0.738225 0
M  V30 527 N 46.9214 -6.8149 -1.68868 0
M  V30 528 H 51.7614 -2.93019 0.542596 0
M  V30 529 H 49.2984 -1.44422 0.279401 0
M  V30 530 H 51.2564 -3.76767 -1.79173 0
M  V30 531 H 49.8864 -2.62926 -1.87269 0
M  V30 532 H 48.9384 -3.79594 0.247467 0
M  V30 533 H 50.2504 -4.98689 0.105241 0
M  V30 534 H 49.4044 -5.67402 -2.14803 0
M  V30 535 H 48.1434 -4.4106 -2.08128 0
M  V30 536 H 47.1484 -5.49778 -0.0489293 0
M  V30 537 H 48.3734 -6.78966 -0.135129 0
M  V30 538 H 46.3194 -6.14891 -2.28573 0
M  V30 539 H 46.2364 -7.46948 -1.16636 0
M  V30 540 H 47.5044 -7.43078 -2.3549 0
M  V30 541 N 51.7335 -0.305618 -1.54608 0
M  V30 542 C 52.6435 0.57778 -2.27374 0
M  V30 543 C 53.6595 1.14451 -1.31061 0
M  V30 544 O 54.8355 1.16831 -1.6405 0
M  V30 545 C 51.9005 1.73123 -3.00382 0
M  V30 546 C 50.9615 1.19812 -4.12242 0
M  V30 547 C 50.1945 2.2966 -4.81759 0
M  V30 548 O 50.4175 3.49651 -4.50666 0
M  V30 549 O 49.3515 1.96091 -5.69062 0
M  V30 550 H 53.1775 -0.012624 -3.03697 0
M  V30 551 H 50.7625 -0.0719184 -1.49227 0
M  V30 552 H 52.6445 2.40315 -3.4616 0
M  V30 553 H 51.3195 2.30815 -2.26949 0
M  V30 554 H 50.2265 0.491798 -3.70853 0
M  V30 555 H 51.5595 0.666566 -4.87666 0
M  V30 556 N 53.2116 1.57565 -0.0334293 0
M  V30 557 C 54.4886 1.83282 0.683163 0
M  V30 558 C 54.8686 0.91823 1.90084 0
M  V30 559 O 54.2166 -0.025113 2.28486 0
M  V30 560 C 54.4266 3.32599 1.0573 0
M  V30 561 C 55.7746 3.99179 1.44711 0
M  V30 562 O 56.7986 3.3712 1.15015 0
M  V30 563 O 55.6576 5.08565 2.0006 0
M  V30 564 H 52.7516 0.755869 0.335546 0
M  V30 565 H 55.2976 1.69589 -0.0614402 0
M  V30 566 H 54.0696 3.90834 0.190828 0
M  V30 567 H 53.6926 3.51415 1.85993 0
M  V30 568 N 54.6897 -0.239769 1.55765 0
M  V30 569 C 55.9357 -0.968234 1.78194 0
M  V30 570 C 56.2687 -1.84701 0.599938 0
M  V30 571 O 55.5437 -1.9031 -0.401524 0
M  V30 572 C 55.8267 -1.8227 3.10564 0
M  V30 573 C 55.6797 -0.971633 4.3918 0
M  V30 574 C 56.9987 -2.80388 3.39221 0
M  V30 575 H 54.1177 -0.350572 0.648281 0
M  V30 576 H 56.7597 -0.238259 1.885 0
M  V30 577 H 54.9097 -2.44507 3.01908 0
M  V30 578 H 56.5817 -0.367408 4.59835 0
M  V30 579 H 54.8247 -0.276276 4.32919 0
M  V30 580 H 55.4957 -1.60346 5.28198 0
M  V30 581 H 57.9717 -2.28287 3.47885 0
M  V30 582 H 56.8477 -3.3729 4.33044 0
M  V30 583 H 57.1087 -3.57212 2.60484 0
M  V30 584 N 56.1678 -1.49265 -0.50573 0
M  V30 585 C 57.5838 -1.35923 -0.836486 0
M  V30 586 C 57.7838 -0.388704 -1.97715 0
M  V30 587 O 56.8398 0.181336 -2.51848 0
M  V30 588 C 58.1528 -2.76531 -1.18115 0
M  V30 589 C 59.7008 -2.85197 -1.28964 0
M  V30 590 C 60.1758 -4.26561 -1.66761 0
M  V30 591 N 61.6668 -4.2935 -1.73819 0
M  V30 592 C 62.4018 -5.35693 -2.045 0
M  V30 593 N 61.8978 -6.52287 -2.33438 0
M  V30 594 N 63.6908 -5.23105 -2.05711 0
M  V30 595 H 55.8418 -2.10965 0.246519 0
M  V30 596 H 58.1048 -0.9468 0.0476887 0
M  V30 597 H 57.8108 -3.49226 -0.416398 0
M  V30 598 H 57.6848 -3.11599 -2.1257 0
M  V30 599 H 60.0718 -2.12742 -2.04511 0
M  V30 600 H 60.1528 -2.53718 -0.325704 0
M  V30 601 H 59.7968 -4.99541 -0.917656 0
M  V30 602 H 59.7268 -4.55502 -2.64246 0
M  V30 603 H 62.2178 -3.4526 -1.53635 0
M  V30 604 H 62.5308 -7.29158 -2.56024 0
M  V30 605 H 60.8758 -6.55521 -2.30905 0
M  V30 606 H 64.0668 -4.31026 -1.82577 0
M  V30 607 H 64.2398 -6.06078 -2.29289 0
M  V30 608 N 57.6459 0.756429 -1.3826 0
M  V30 609 C 58.8949 1.51082 -1.3363 0
M  V30 610 C 59.2079 1.95467 0.0720068 0
M  V30 611 O 60.4139 2.7043 0.240834 0
M  V30 612 C 58.8699 2.72893 -2.34644 0
M  V30 613 C 58.4779 2.35544 -3.81081 0
M  V30 614 C 60.2219 3.50791 -2.39052 0
M  V30 615 C 58.1289 3.53948 -4.73787 0
M  V30 616 H 57.0589 0.56727 -0.49671 0
M  V30 617 H 59.7099 0.827147 -1.638 0
M  V30 618 H 58.0919 3.43227 -1.97513 0
M  V30 619 H 59.2659 1.72894 -4.27135 0
M  V30 620 H 57.5809 1.70786 -3.79764 0
M  V30 621 H 60.1779 4.38823 -3.05513 0
M  V30 622 H 60.5209 3.91745 -1.40861 0
M  V30 623 H 61.0539 2.87467 -2.74968 0
M  V30 624 H 57.7929 3.18064 -5.73163 0
M  V30 625 H 57.3129 4.15651 -4.32428 0
M  V30 626 H 58.9919 4.20566 -4.91663 0
M  V30 627 N 59.124 1.23083 0.984299 0
M  V30 628 C 60.054 1.03292 2.09411 0
M  V30 629 C 61.035 -0.048923 1.7003 0
M  V30 630 O 62.22 0.114967 1.93859 0
M  V30 631 C 59.35 0.619155 3.41736 0
M  V30 632 C 58.304 1.64791 3.95004 0
M  V30 633 C 57.63 1.0897 5.23478 0
M  V30 634 C 58.93 3.03999 4.24714 0
M  V30 635 H 60.624 1.96119 2.26225 0
M  V30 636 H 58.17 0.944344 1.08711 0
M  V30 637 H 60.123 0.467777 4.18796 0
M  V30 638 H 58.847 -0.344786 3.24775 0
M  V30 639 H 57.506 1.78721 3.20085 0
M  V30 640 H 57.154 0.11686 5.02864 0
M  V30 641 H 56.854 1.77704 5.60085 0
M  V30 642 H 58.378 0.950093 6.03163 0
M  V30 643 H 59.792 2.93393 4.92538 0
M  V30 644 H 58.189 3.69936 4.72512 0
M  V30 645 H 59.259 3.53285 3.32142 0
M  V30 646 N 60.6021 -1.18246 1.0419 0
M  V30 647 C 61.5491 -2.2192 0.634037 0
M  V30 648 C 62.5191 -1.62179 -0.358765 0
M  V30 649 O 63.7041 -1.89122 -0.252466 0
M  V30 650 C 60.8441 -3.451 0.00445535 0
M  V30 651 C 59.9571 -4.19174 1.04487 0
M  V30 652 C 59.0921 -5.29813 0.383676 0
M  V30 653 C 58.1311 -5.9566 1.4091 0
M  V30 654 N 57.2681 -6.97834 0.772784 0
M  V30 655 H 62.1081 -2.56164 1.52263 0
M  V30 656 H 59.6451 -1.25843 0.761701 0
M  V30 657 H 61.6031 -4.15485 -0.377919 0
M  V30 658 H 60.2331 -3.11472 -0.847652 0
M  V30 659 H 59.2851 -3.47604 1.54518 0
M  V30 660 H 60.5971 -4.64267 1.82368 0
M  V30 661 H 59.7511 -6.06677 -0.0528366 0
M  V30 662 H 58.4901 -4.85825 -0.427208 0
M  V30 663 H 57.4951 -5.17535 1.85574 0
M  V30 664 H 58.7201 -6.4173 2.22171 0
M  V30 665 H 56.6661 -6.55998 -0.0177708 0
M  V30 666 H 56.5831 -7.41186 1.48928 0
M  V30 667 H 57.8511 -7.78665 0.36071 0
M  V30 668 N 62.0802 -0.821533 -1.34494 0
M  V30 669 C 63.3262 -0.409552 -1.98622 0
M  V30 670 C 63.6592 1.0244 -1.64984 0
M  V30 671 O 62.9342 1.71325 -0.920758 0
M  V30 672 C 63.2172 -0.610458 -3.54888 0
M  V30 673 C 63.0702 -2.09043 -3.98273 0
M  V30 674 C 64.3892 -0.0455379 -4.40076 0
M  V30 675 H 61.5082 -0.15028 -0.721516 0
M  V30 676 H 64.1502 -1.03384 -1.59411 0
M  V30 677 H 62.3002 -0.079044 -3.8842 0
M  V30 678 H 63.9722 -2.68537 -3.75081 0
M  V30 679 H 62.2152 -2.58139 -3.48635 0
M  V30 680 H 62.8862 -2.18182 -5.07051 0
M  V30 681 H 65.3622 -0.499557 -4.1309 0
M  V30 682 H 64.2382 -0.215922 -5.48475 0
M  V30 683 H 64.4992 1.04939 -4.29465 0
M  V30 684 N 63.5583 1.46682 -0.576371 0
M  V30 685 C 64.7983 2.04306 -0.0621356 0
M  V30 686 C 65.1623 1.4389 1.2712 0
M  V30 687 O 66.3633 1.92675 1.87429 0
M  V30 688 C 64.6343 3.57399 0.00927922 0
M  V30 689 S 66.1933 4.36309 0.466859 0
M  V30 690 H 63.0113 0.710167 -0.0344016 0
M  V30 691 H 65.6133 1.79807 -0.767437 0
M  V30 692 H 64.3173 3.98889 -0.965178 0
M  V30 693 H 63.8483 3.86424 0.737547 0
M  V30 694 H 65.8633 4.6533 1.72287 0
M  V30 695 N 65.0364 0.313813 1.54444 0
M  V30 696 C 66.2834 -0.291675 2.00388 0
M  V30 697 C 66.6114 -1.52904 1.2021 0
M  V30 698 O 65.8664 -1.93833 0.269707 0
M  V30 699 C 66.1654 -0.680386 3.50864 0
M  V30 700 C 65.8314 0.456699 4.48581 0
M  V30 701 C 64.4934 0.768824 4.75018 0
M  V30 702 C 66.8454 1.22098 5.06697 0
M  V30 703 C 64.1734 1.84812 5.56831 0
M  V30 704 C 66.5254 2.29029 5.89685 0
M  V30 705 C 65.1894 2.60834 6.14428 0
M  V30 706 H 64.4594 -0.106732 0.733273 0
M  V30 707 H 67.1064 0.43557 1.86481 0
M  V30 708 H 65.4114 -1.48791 3.62448 0
M  V30 709 H 67.1084 -1.16026 3.83847 0
M  V30 710 H 63.6984 0.203337 4.28117 0
M  V30 711 H 67.8824 0.993096 4.86263 0
M  V30 712 H 63.1384 2.09912 5.74236 0
M  V30 713 H 67.3124 2.887 6.33739 0
M  V30 714 H 64.9394 3.44596 6.77612 0
M  V30 715 N 66.5145 -1.57545 0.0417849 0
M  V30 716 C 67.7445 -1.96339 -0.642995 0
M  V30 717 C 68.1525 -0.917536 -1.65463 0
M  V30 718 O 67.4955 0.107747 -1.83384 0
M  V30 719 C 67.5575 -3.31333 -1.39494 0
M  V30 720 C 67.2215 -4.53796 -0.540204 0
M  V30 721 C 68.2185 -5.19553 0.189806 0
M  V30 722 C 65.9035 -5.0006 -0.473886 0
M  V30 723 C 67.8975 -6.29904 0.974674 0
M  V30 724 C 65.5845 -6.10289 0.314677 0
M  V30 725 C 66.5825 -6.75072 1.03765 0
M  V30 726 O 66.2705 -7.83183 1.81327 0
M  V30 727 H 66.0025 -0.651241 -0.181277 0
M  V30 728 H 68.5565 -2.05148 0.101665 0
M  V30 729 H 66.7865 -3.19052 -2.18502 0
M  V30 730 H 68.4755 -3.54942 -1.96904 0
M  V30 731 H 69.2415 -4.84774 0.147981 0
M  V30 732 H 65.1205 -4.49433 -1.0262 0
M  V30 733 H 68.6645 -6.80401 1.5395 0
M  V30 734 H 64.5615 -6.44506 0.358174 0
M  V30 735 H 65.3295 -7.99913 1.73438 0
M  V30 736 N 67.9926 0.231505 -1.5589 0
M  V30 737 C 69.2176 0.978689 -1.82856 0
M  V30 738 C 69.6426 1.77559 -0.620846 0
M  V30 739 O 69.0006 1.76119 0.430305 0
M  V30 740 C 69.0486 1.87997 -3.07716 0
M  V30 741 O 68.1526 2.97393 -2.85712 0
M  V30 742 H 67.4936 0.277663 -0.603158 0
M  V30 743 H 70.0236 0.24783 -2.03093 0
M  V30 744 H 70.0336 2.2917 -3.37558 0
M  V30 745 H 68.7086 1.29417 -3.95252 0
M  V30 746 H 67.2856 2.60238 -2.67078 0
M  V30 747 N 69.4707 1.49531 0.497807 0
M  V30 748 C 70.4187 1.66926 1.61983 0
M  V30 749 C 71.4127 0.535167 1.60724 0
M  V30 750 O 72.6187 0.714896 1.65195 0
M  V30 751 H 68.9937 0.526415 0.537021 0
M  V30 752 H 70.9647 2.61098 1.44465 0
M  V30 753 C 69.7137 1.75602 3.00099 0
M  V30 754 H 69.0367 2.62244 3.01775 0
M  V30 755 H 70.4767 1.91807 3.78135 0
M  V30 756 C 68.9357 0.501543 3.33146 0
M  V30 757 O 69.4657 -0.371342 3.9998 0
M  V30 758 N 67.6717 0.363531 2.88317 0
M  V30 759 H 67.2187 1.07485 2.34104 0
M  V30 760 H 67.1767 -0.474728 3.10795 0
M  V30 761 N 70.9488 -0.749086 1.3866 0
M  V30 762 C 72.1738 -1.54344 1.38538 0
M  V30 763 C 72.5988 -1.88088 -0.0216655 0
M  V30 764 O 71.9568 -1.50899 -1.00494 0
M  V30 765 C 72.0048 -2.8164 2.25192 0
M  V30 766 O 71.1088 -3.7698 1.67212 0
M  V30 767 H 70.4498 -0.466654 0.472367 0
M  V30 768 H 72.9798 -0.925355 1.82478 0
M  V30 769 H 72.9898 -3.30519 2.3921 0
M  V30 770 H 71.6648 -2.56411 3.27454 0
M  V30 771 H 70.2418 -3.35699 1.6236 0
M  V30 772 N 72.4269 -1.23603 -0.977757 0
M  V30 773 C 73.6739 -1.06971 -1.71941 0
M  V30 774 C 74.0019 0.393009 -1.90488 0
M  V30 775 O 73.2569 1.30719 -1.4564 0
M  V30 776 C 73.5559 -1.7433 -3.11999 0
M  V30 777 C 73.2219 -3.24252 -3.13323 0
M  V30 778 C 71.8839 -3.65156 -3.13392 0
M  V30 779 C 74.2359 -4.20141 -3.08433 0
M  V30 780 C 71.5639 -5.00403 -3.0629 0
M  V30 781 C 73.9159 -5.55384 -3.02873 0
M  V30 782 C 72.5799 -5.95647 -3.01265 0
M  V30 783 H 71.8499 -0.391433 -0.629175 0
M  V30 784 H 74.4969 -1.53572 -1.14403 0
M  V30 785 H 72.8019 -1.20096 -3.7294 0
M  V30 786 H 74.4989 -1.58936 -3.68158 0
M  V30 787 H 71.0889 -2.91692 -3.14029 0
M  V30 788 H 75.2729 -3.89547 -3.07517 0
M  V30 789 H 70.5289 -5.3081 -3.03399 0
M  V30 790 H 74.7029 -6.29398 -2.98046 0
M  V30 791 H 72.3299 -7.0041 -2.95516 0
M  V30 792 N 73.905 1.17692 -1.04816 0
M  V30 793 C 74.853 2.23632 -0.63966 0
M  V30 794 C 75.847 1.6601 0.337219 0
M  V30 795 O 77.053 1.78844 0.203693 0
M  V30 796 H 73.428 0.727949 -0.188665 0
M  V30 797 H 75.399 2.55387 -1.54337 0
M  V30 798 C 74.148 3.4769 -0.0264051 0
M  V30 799 H 73.471 3.92331 -0.769164 0
M  V30 800 H 74.911 4.23418 0.222098 0
M  V30 801 C 73.37 3.13807 1.22584 0
M  V30 802 O 73.9 3.28236 2.31569 0
M  V30 803 N 72.106 2.68065 1.12202 0
M  V30 804 H 71.653 2.56525 0.235133 0
M  V30 805 H 71.611 2.45767 1.96076 0
M  V30 806 N 75.3831 0.828654 1.34056 0
M  V30 807 C 76.7941 0.477534 1.8049 0
M  V30 808 C 77.1451 -1.00258 1.6865 0
M  V30 809 O 76.2701 -1.78057 1.22982 0
M  V30 810 C 76.8651 0.860018 3.27703 0
M  V30 811 C 75.4241 0.561185 3.72193 0
M  V30 812 C 74.5711 1.07385 2.55663 0
M  V30 813 H 77.5221 1.0183 1.21722 0
M  V30 814 H 77.5431 0.166038 3.80138 0
M  V30 815 H 77.0551 1.93731 3.36288 0
M  V30 816 H 75.1561 -0.506465 3.69142 0
M  V30 817 H 75.2691 1.10926 4.66082 0
M  V30 818 H 73.6331 0.495149 2.49841 0
M  V30 819 H 74.4161 2.15771 2.67016 0
M  V30 820 N 76.8612 -1.46375 0.584142 0
M  V30 821 C 78.1092 -2.01978 0.0701287 0
M  V30 822 C 78.4302 -1.4579 -1.295 0
M  V30 823 O 77.7002 -0.64314 -1.85042 0
M  V30 824 H 76.2802 -0.746648 0.0229345 0
M  V30 825 H 78.9422 -1.79461 0.760245 0
M  V30 826 H 78.0382 -3.121 0.0022064 0
M  V30 827 N 78.3393 -0.321999 -1.54275 0
M  V30 828 C 79.2863 0.544664 -2.24281 0
M  V30 829 C 80.2563 1.1129 -1.23303 0
M  V30 830 O 81.4413 1.15354 -1.51981 0
M  V30 831 C 78.5813 1.70045 -3.00298 0
M  V30 832 C 77.6943 1.16159 -4.1609 0
M  V30 833 C 76.8293 2.28293 -4.79641 0
M  V30 834 C 75.8683 1.71648 -5.8754 0
M  V30 835 N 75.0053 2.77438 -6.44959 0
M  V30 836 H 79.8453 -0.0588907 -2.97942 0
M  V30 837 H 77.3823 -0.0408345 -1.47043 0
M  V30 838 H 79.3403 2.38054 -3.42616 0
M  V30 839 H 77.9703 2.27531 -2.28975 0
M  V30 840 H 77.0223 0.373092 -3.78566 0
M  V30 841 H 78.3343 0.707087 -4.93763 0
M  V30 842 H 77.4883 3.0421 -5.2492 0
M  V30 843 H 76.2273 2.77079 -4.01346 0
M  V30 844 H 75.2323 0.942282 -5.41665 0
M  V30 845 H 76.4573 1.23741 -6.67731 0
M  V30 846 H 74.4033 3.25519 -5.69538 0
M  V30 847 H 74.3203 2.36547 -7.1804 0
M  V30 848 H 75.5883 3.53189 -6.94894 0
M  V30 849 N 79.8174 1.5752 -0.0501392 0
M  V30 850 C 80.7654 2.12651 0.942459 0
M  V30 851 C 81.7594 1.05807 1.32292 0
M  V30 852 O 82.9654 1.24217 1.3027 0
M  V30 853 H 79.3404 0.679673 0.321789 0
M  V30 854 H 81.3114 2.94951 0.452356 0
M  V30 855 C 80.0604 2.68565 2.20836 0
M  V30 856 H 79.3834 3.50439 1.92439 0
M  V30 857 H 80.8234 3.10761 2.8845 0
M  V30 858 C 79.2824 1.62291 2.95234 0
M  V30 859 O 79.8124 1.03508 3.88135 0
M  V30 860 N 78.0184 1.33836 2.57946 0
M  V30 861 H 77.5654 1.81826 1.82475 0
M  V30 862 H 77.5234 0.629595 3.08032 0
M  V30 863 N 81.2955 -0.223234 1.56011 0
M  V30 864 C 82.5425 -0.947875 1.78946 0
M  V30 865 C 82.8705 -1.844 0.618608 0
M  V30 866 O 82.1255 -1.91629 -0.397093 0
M  V30 867 C 82.4245 -1.81948 3.0762 0
M  V30 868 C 82.0905 -1.07672 4.37856 0
M  V30 869 C 80.7525 -0.871544 4.73242 0
M  V30 870 C 83.1045 -0.552081 5.18268 0
M  V30 871 C 80.4325 -0.129791 5.86556 0
M  V30 872 C 82.7845 0.17632 6.32354 0
M  V30 873 C 81.4485 0.39277 6.66343 0
M  V30 874 H 80.7185 -0.346852 0.654809 0
M  V30 875 H 83.3655 -0.216171 1.90276 0
M  V30 876 H 81.6705 -2.61899 2.91404 0
M  V30 877 H 83.3675 -2.38227 3.22566 0
M  V30 878 H 79.9575 -1.24662 4.1007 0
M  V30 879 H 84.1415 -0.698076 4.91366 0
M  V30 880 H 79.3975 0.048153 6.11381 0
M  V30 881 H 83.5715 0.590367 6.93893 0
M  V30 882 H 81.1985 0.969466 7.53993 0
M  V30 883 N 82.7736 -1.49793 -0.48987 0
M  V30 884 C 83.7206 -1.67281 -1.59014 0
M  V30 885 C 84.6906 -0.514177 -1.57941 0
M  V30 886 O 85.8756 -0.742533 -1.75759 0
M  V30 887 C 83.0156 -1.75569 -2.97102 0
M  V30 888 C 82.1286 -3.0281 -3.08107 0
M  V30 889 C 81.2636 -3.02008 -4.36995 0
M  V30 890 C 80.3026 -4.23782 -4.41673 0
M  V30 891 N 79.4396 -4.20826 -5.62005 0
M  V30 892 H 84.2796 -2.61224 -1.43409 0
M  V30 893 H 81.8166 -1.29508 -0.697565 0
M  V30 894 H 83.7746 -1.78354 -3.77155 0
M  V30 895 H 82.4046 -0.850827 -3.11385 0
M  V30 896 H 81.4566 -3.09584 -2.21047 0
M  V30 897 H 82.7686 -3.92801 -3.07423 0
M  V30 898 H 81.9226 -3.03418 -5.25378 0
M  V30 899 H 80.6616 -2.09815 -4.4026 0
M  V30 900 H 79.6666 -4.22604 -3.5169 0
M  V30 901 H 80.8916 -5.17181 -4.40115 0
M  V30 902 H 78.8376 -3.31476 -5.66091 0
M  V30 903 H 78.7546 -5.04564 -5.62984 0
M  V30 904 H 80.0226 -4.26355 -6.52565 0
M  V30 905 N 84.2517 0.741722 -1.39055 0
M  V30 906 C 85.1817 1.869 -1.39966 0
M  V30 907 C 86.1627 1.6804 -0.26392 0
M  V30 908 O 87.3477 1.88458 -0.468755 0
M  V30 909 C 84.4777 3.24572 -1.23574 0
M  V30 910 C 83.4317 3.58056 -2.34477 0
M  V30 911 C 82.7577 4.94593 -2.0318 0
M  V30 912 C 84.0577 3.61716 -3.76774 0
M  V30 913 H 85.7517 1.86395 -2.34302 0
M  V30 914 H 83.2977 0.895361 -1.1278 0
M  V30 915 H 85.2507 4.031 -1.22834 0
M  V30 916 H 83.9747 3.25587 -0.257045 0
M  V30 917 H 82.6337 2.81854 -2.34423 0
M  V30 918 H 82.2817 4.92181 -1.03765 0
M  V30 919 H 81.9817 5.17964 -2.77465 0
M  V30 920 H 83.5057 5.75486 -2.04079 0
M  V30 921 H 84.9197 4.30335 -3.78794 0
M  V30 922 H 83.3167 3.96603 -4.50362 0
M  V30 923 H 84.3867 2.61672 -4.08235 0
M  V30 924 N 85.7298 1.2412 0.971189 0
M  V30 925 C 86.9758 1.08041 1.71625 0
M  V30 926 C 87.3088 -0.380407 1.90438 0
M  V30 927 O 86.5838 -1.28127 1.46334 0
M  V30 928 C 86.8668 1.81682 3.10908 0
M  V30 929 C 86.7198 3.35493 2.99608 0
M  V30 930 C 88.0388 1.58671 4.10501 0
M  V30 931 H 85.1578 0.39388 0.622919 0
M  V30 932 H 87.7998 1.52743 1.13003 0
M  V30 933 H 85.9498 1.43684 3.60953 0
M  V30 934 H 87.6218 3.83068 2.57015 0
M  V30 935 H 85.8648 3.64052 2.35899 0
M  V30 936 H 86.5358 3.82217 3.98264 0
M  V30 937 H 89.0118 1.91719 3.69301 0
M  V30 938 H 87.8878 2.1266 5.06031 0
M  V30 939 H 88.1488 0.524161 4.38982 0
M  V30 940 N 87.2079 -1.17134 1.05439 0
M  V30 941 C 88.1549 -2.21235 0.657539 0
M  V30 942 C 89.1249 -1.62551 -0.341543 0
M  V30 943 O 90.3099 -1.89379 -0.232393 0
M  V30 944 C 87.4499 -3.45076 0.0410575 0
M  V30 945 C 86.5629 -4.18042 1.08927 0
M  V30 946 C 85.6979 -5.29376 0.439848 0
M  V30 947 C 84.7369 -5.94132 1.4722 0
M  V30 948 N 83.8739 -6.96975 0.846756 0
M  V30 949 H 88.7139 -2.54534 1.54972 0
M  V30 950 H 86.2509 -1.25028 0.775006 0
M  V30 951 H 88.2089 -4.15862 -0.33383 0
M  V30 952 H 86.8389 -3.12353 -0.814568 0
M  V30 953 H 85.8909 -3.45945 1.58196 0
M  V30 954 H 87.2029 -4.62306 1.87282 0
M  V30 955 H 86.3569 -6.06699 0.0115125 0
M  V30 956 H 85.0959 -4.86251 -0.375656 0
M  V30 957 H 84.1009 -5.15538 1.91052 0
M  V30 958 H 85.3259 -6.39337 2.28965 0
M  V30 959 H 83.2719 -6.5598 0.0518075 0
M  V30 960 H 83.1889 -7.39565 1.5678 0
M  V30 961 H 84.4569 -7.78239 0.443277 0
M  V30 962 N 88.686 -0.835752 -1.33615 0
M  V30 963 C 89.926 -0.43599 -1.99696 0
M  V30 964 C 90.29 0.98557 -1.64774 0
M  V30 965 O 91.491 1.48889 -2.23798 0
M  V30 966 C 89.762 -0.646721 -3.515 0
M  V30 967 S 91.321 -0.341715 -4.37467 0
M  V30 968 H 88.139 -0.164136 -0.691795 0
M  V30 969 H 90.741 -1.08436 -1.62671 0
M  V30 970 H 89.445 -1.68077 -3.74404 0
M  V30 971 H 88.976 0.0159173 -3.93397 0
M  V30 972 H 90.991 0.839708 -4.89043 0
M  V30 973 N 90.1641 1.46063 -0.591896 0
M  V30 974 C 91.3921 2.06717 -0.0868936 0
M  V30 975 C 91.8071 1.43916 1.22203 0
M  V30 976 O 91.1641 0.547698 1.74088 0
M  V30 977 C 91.2151 3.6142 0.0758725 0
M  V30 978 O 90.9361 4.21874 -1.18126 0
M  V30 979 C 92.4371 4.39025 0.61416 0
M  V30 980 H 89.6571 0.668162 -0.0616518 0
M  V30 981 H 92.2011 1.8755 -0.815175 0
M  V30 982 H 90.3561 3.79983 0.754413 0
M  V30 983 H 90.7701 5.14861 -1.00092 0
M  V30 984 H 92.2441 5.4783 0.677193 0
M  V30 985 H 92.7211 4.07708 1.63312 0
M  V30 986 H 93.3271 4.2529 -0.0298142 0
M  V30 987 N 91.6422 0.330177 1.54103 0
M  V30 988 C 92.8882 -0.270806 2.00984 0
M  V30 989 C 93.2212 -1.51265 1.21789 0
M  V30 990 O 92.4962 -1.92142 0.301927 0
M  V30 991 C 92.7792 -0.598339 3.55094 0
M  V30 992 C 92.6322 0.654674 4.4501 0
M  V30 993 C 93.9512 -1.41334 4.16789 0
M  V30 994 H 91.0702 -0.0969531 0.730595 0
M  V30 995 H 93.7122 0.448066 1.84641 0
M  V30 996 H 91.8622 -1.21078 3.69151 0
M  V30 997 H 93.5342 1.29285 4.42813 0
M  V30 998 H 91.7772 1.28224 4.14416 0
M  V30 999 H 92.4482 0.380944 5.50684 0
M  V30 1000 H 94.9242 -0.895597 4.06347 0
M  V30 1001 H 93.8002 -1.61127 5.24718 0
M  V30 1002 H 94.0612 -2.41146 3.70541 0
M  V30 1003 N 93.1203 -1.57491 0.0584922 0
M  V30 1004 C 94.0523 -2.08916 -0.942694 0
M  V30 1005 C 95.0653 -1.0185 -1.27006 0
M  V30 1006 O 96.2543 -1.29398 -1.22957 0
M  V30 1007 C 93.3543 -2.52341 -2.26224 0
M  V30 1008 C 92.5273 -3.82827 -2.1157 0
M  V30 1009 C 91.5863 -4.12487 -3.26712 0
M  V30 1010 O 90.6123 -4.82295 -3.02292 0
M  V30 1011 N 91.8143 -3.64978 -4.5141 0
M  V30 1012 H 94.5793 -2.95437 -0.503722 0
M  V30 1013 H 92.1403 -1.61397 -0.12757 0
M  V30 1014 H 94.1323 -2.69254 -3.02133 0
M  V30 1015 H 92.7023 -1.7103 -2.61663 0
M  V30 1016 H 91.9223 -3.75425 -1.20208 0
M  V30 1017 H 93.2103 -4.68263 -1.99015 0
M  V30 1018 H 92.6083 -3.08558 -4.7414 0
M  V30 1019 H 91.1653 -3.87115 -5.2439 0
M  V30 1020 N 94.5984 0.214957 -1.56127 0
M  V30 1021 C 95.8264 0.955092 -1.83536 0
M  V30 1022 C 96.2414 1.77677 -0.638472 0
M  V30 1023 O 95.5984 1.78219 0.392968 0
M  V30 1024 C 95.6494 1.86734 -3.09536 0
M  V30 1025 O 95.3704 1.07887 -4.24608 0
M  V30 1026 C 96.8714 2.72082 -3.4998 0
M  V30 1027 H 94.0914 0.279611 -0.609966 0
M  V30 1028 H 96.6354 0.228197 -2.03223 0
M  V30 1029 H 94.7904 2.5481 -2.91806 0
M  V30 1030 H 95.2044 1.69872 -4.9623 0
M  V30 1031 H 96.6784 3.31782 -4.41163 0
M  V30 1032 H 97.1554 3.44806 -2.7204 0
M  V30 1033 H 97.7614 2.09409 -3.70173 0
M  V30 1034 N 96.0765 1.50051 0.48192 0
M  V30 1035 C 96.9865 1.7089 1.60728 0
M  V30 1036 C 98.0025 0.591788 1.63627 0
M  V30 1037 O 99.1785 0.868817 1.81696 0
M  V30 1038 C 96.2435 1.78855 2.97005 0
M  V30 1039 C 95.3045 3.02537 3.04581 0
M  V30 1040 C 94.5375 3.10112 4.34357 0
M  V30 1041 O 94.7605 2.24765 5.24249 0
M  V30 1042 O 93.6945 4.02747 4.47301 0
M  V30 1043 H 97.5205 2.66264 1.46072 0
M  V30 1044 H 95.1055 1.34018 0.660264 0
M  V30 1045 H 96.9875 1.86336 3.77964 0
M  V30 1046 H 95.6625 0.866628 3.11883 0
M  V30 1047 H 94.5695 3.00563 2.22739 0
M  V30 1048 H 95.9025 3.94272 2.94636 0
M  V30 1049 N 97.5546 -0.734337 1.39446 0
M  V30 1050 C 98.8036 -1.48937 1.36017 0
M  V30 1051 C 99.1166 -1.95557 -0.0409005 0
M  V30 1052 O 100.323 -2.70779 -0.19778 0
M  V30 1053 C 98.7786 -2.69125 2.38955 0
M  V30 1054 C 98.3866 -2.29452 3.8478 0
M  V30 1055 C 100.131 -3.46944 2.44603 0
M  V30 1056 C 98.0376 -3.46366 4.79358 0
M  V30 1057 H 96.9676 -0.559296 0.505672 0
M  V30 1058 H 99.6186 -0.800983 1.65095 0
M  V30 1059 H 98.0006 -3.40041 2.02948 0
M  V30 1060 H 99.1746 -1.66077 4.29831 0
M  V30 1061 H 97.4896 -1.64723 3.82433 0
M  V30 1062 H 100.087 -4.33907 3.12456 0
M  V30 1063 H 100.43 -3.89454 1.47076 0
M  V30 1064 H 100.963 -2.83056 2.79507 0
M  V30 1065 H 97.7016 -3.08905 5.78151 0
M  V30 1066 H 97.2216 -4.08719 4.38986 0
M  V30 1067 H 98.9006 -4.12691 4.98292 0
M  V30 1068 N 99.0327 -1.24633 -0.964593 0
M  V30 1069 C 100.449 -1.01239 -1.2338 0
M  V30 1070 C 100.649 0.2769 -1.99588 0
M  V30 1071 O 99.7047 0.992241 -2.32187 0
M  V30 1072 C 101.018 -2.22937 -2.01791 0
M  V30 1073 C 102.566 -2.27594 -2.14872 0
M  V30 1074 C 103.041 -3.48921 -2.96678 0
M  V30 1075 N 104.532 -3.49257 -3.04259 0
M  V30 1076 C 105.267 -4.39795 -3.67924 0
M  V30 1077 N 104.763 -5.40591 -4.33281 0
M  V30 1078 N 106.556 -4.275 -3.64966 0
M  V30 1079 H 98.7067 -2.0748 -0.454502 0
M  V30 1080 H 100.97 -0.910647 -0.26349 0
M  V30 1081 H 100.676 -3.16587 -1.53184 0
M  V30 1082 H 100.55 -2.25306 -3.02518 0
M  V30 1083 H 102.937 -1.34473 -2.6268 0
M  V30 1084 H 103.018 -2.2925 -1.13482 0
M  V30 1085 H 102.662 -4.42359 -2.49562 0
M  V30 1086 H 102.592 -3.4451 -3.98272 0
M  V30 1087 H 105.083 -2.76337 -2.57771 0
M  V30 1088 H 105.396 -6.05904 -4.79687 0
M  V30 1089 H 103.741 -5.44475 -4.3194 0
M  V30 1090 H 106.932 -3.47987 -3.13086 0
M  V30 1091 H 107.105 -4.98258 -4.14298 0
M  V30 1092 N 100.511 1.16574 -1.06058 0
M  V30 1093 C 101.421 2.2452 -0.680282 0
M  V30 1094 C 102.437 1.71348 0.302604 0
M  V30 1095 O 103.613 2.00822 0.152513 0
M  V30 1096 C 100.678 3.46629 -0.0700315 0
M  V30 1097 C 99.7388 4.14849 -1.10448 0
M  V30 1098 C 98.9718 5.31129 -0.523256 0
M  V30 1099 O 99.1948 5.66514 0.664709 0
M  V30 1100 O 98.1288 5.88526 -1.26179 0
M  V30 1101 H 101.955 2.59355 -1.58015 0
M  V30 1102 H 99.5398 1.24043 -0.832694 0
M  V30 1103 H 101.422 4.20543 0.268667 0
M  V30 1104 H 100.097 3.13573 0.803353 0
M  V30 1105 H 99.0038 3.42916 -1.49532 0
M  V30 1106 H 100.337 4.51954 -1.94931 0
M  V30 1107 N 101.989 0.842826 1.3317 0
M  V30 1108 C 103.238 0.436738 1.96915 0
M  V30 1109 C 103.551 -1.01025 1.67491 0
M  V30 1110 O 104.757 -1.5212 2.24881 0
M  V30 1111 C 103.213 0.730021 3.52418 0
M  V30 1112 C 102.821 2.19195 3.90714 0
M  V30 1113 C 104.565 0.391076 4.22695 0
M  V30 1114 C 102.472 2.42907 5.39212 0
M  V30 1115 H 101.402 0.15958 0.736919 0
M  V30 1116 H 104.053 1.03196 1.51733 0
M  V30 1117 H 102.435 0.0643755 3.95948 0
M  V30 1118 H 103.609 2.8984 3.58231 0
M  V30 1119 H 101.924 2.49425 3.33431 0
M  V30 1120 H 104.521 0.545817 5.31907 0
M  V30 1121 H 104.864 -0.666294 4.10933 0
M  V30 1122 H 105.397 1.01212 3.84709 0
M  V30 1123 H 102.136 3.47224 5.55982 0
M  V30 1124 H 101.656 1.76827 5.73142 0
M  V30 1125 H 103.335 2.2626 6.06148 0
M  V30 1126 N 103.467 -1.45747 0.599634 0
M  V30 1127 C 104.716 -2.01502 0.0893511 0
M  V30 1128 C 105.029 -1.4748 -1.28488 0
M  V30 1129 O 106.235 -1.95161 -1.88745 0
M  V30 1130 C 104.691 -3.59735 0.109082 0
M  V30 1131 C 104.299 -4.22754 1.48267 0
M  V30 1132 C 106.043 -4.23085 -0.346374 0
M  V30 1133 C 103.95 -5.73115 1.45921 0
M  V30 1134 H 102.88 -0.753417 0.0296347 0
M  V30 1135 H 105.531 -1.67303 0.753788 0
M  V30 1136 H 103.913 -3.91087 -0.621854 0
M  V30 1137 H 105.087 -4.02987 2.23468 0
M  V30 1138 H 103.402 -3.71567 1.87955 0
M  V30 1139 H 105.999 -5.33327 -0.38298 0
M  V30 1140 H 106.342 -3.93201 -1.36743 0
M  V30 1141 H 106.875 -3.9642 0.331038 0
M  V30 1142 H 103.614 -6.07685 2.45762 0
M  V30 1143 H 103.134 -5.95097 0.749665 0
M  V30 1144 H 104.813 -6.3616 1.17941 0
M  V30 1145 N 104.945 -0.338344 -1.53925 0
M  V30 1146 C 106.173 0.261298 -2.05243 0
M  V30 1147 C 106.588 1.44625 -1.21363 0
M  V30 1148 O 105.945 1.80811 -0.247736 0
M  V30 1149 C 105.996 0.681412 -3.5502 0
M  V30 1150 O 105.717 -0.456414 -4.35716 0
M  V30 1151 C 107.218 1.34232 -4.22489 0
M  V30 1152 H 104.438 0.0513685 -0.669031 0
M  V30 1153 H 106.982 -0.488822 -1.98572 0
M  V30 1154 H 105.137 1.38148 -3.61931 0
M  V30 1155 H 105.551 -0.122564 -5.24357 0
M  V30 1156 H 107.025 1.58708 -5.28693 0
M  V30 1157 H 107.502 2.29426 -3.74514 0
M  V30 1158 H 108.108 0.684424 -4.19757 0
M  V30 1159 N 106.423 1.57458 -0.0668435 0
M  V30 1160 C 107.648 1.9804 0.616027 0
M  V30 1161 C 108.073 0.944771 1.62652 0
M  V30 1162 O 107.431 -0.0902094 1.81075 0
M  V30 1163 C 107.479 3.37665 1.26549 0
M  V30 1164 O 106.583 3.36701 2.38131 0
M  V30 1165 H 105.924 0.644719 0.158849 0
M  V30 1166 H 108.454 2.04121 -0.139891 0
M  V30 1167 H 108.464 3.7474 1.6135 0
M  V30 1168 H 107.139 4.12573 0.525016 0
M  V30 1169 H 105.716 3.1139 2.0516 0
M  V30 1170 N 107.901 -0.206675 1.56239 0
M  V30 1171 C 109.15 -0.926964 1.79138 0
M  V30 1172 C 109.463 -1.84901 0.638043 0
M  V30 1173 O 110.669 -2.60906 0.751033 0
M  V30 1174 C 109.125 -1.6986 3.17294 0
M  V30 1175 C 108.733 -0.821956 4.40395 0
M  V30 1176 C 110.477 -2.40922 3.4951 0
M  V30 1177 C 108.384 -1.59179 5.69575 0
M  V30 1178 H 107.314 -0.349864 0.667915 0
M  V30 1179 H 109.965 -0.180487 1.8261 0
M  V30 1180 H 108.347 -2.48853 3.08039 0
M  V30 1181 H 109.521 -0.0715019 4.60745 0
M  V30 1182 H 107.836 -0.222741 4.15804 0
M  V30 1183 H 110.433 -2.99047 4.43255 0
M  V30 1184 H 110.776 -3.14542 2.72707 0
M  V30 1185 H 111.309 -1.68905 3.60161 0
M  V30 1186 H 108.048 -0.898589 6.49312 0
M  V30 1187 H 107.568 -2.31648 5.53262 0
M  V30 1188 H 109.247 -2.14862 6.10281 0
M  V30 1189 N 109.379 -1.50304 -0.473955 0
M  V30 1190 C 110.309 -1.71886 -1.58042 0
M  V30 1191 C 111.29 -0.567799 -1.60344 0
M  V30 1192 O 112.475 -0.806623 -1.76656 0
M  V30 1193 C 109.605 -1.81036 -2.96384 0
M  V30 1194 C 108.559 -2.962 -3.08949 0
M  V30 1195 C 107.885 -2.9049 -4.48909 0
M  V30 1196 C 109.185 -4.36752 -2.86434 0
M  V30 1197 H 110.879 -2.64527 -1.40234 0
M  V30 1198 H 108.425 -1.27295 -0.673201 0
M  V30 1199 H 110.378 -1.94719 -3.73714 0
M  V30 1200 H 109.102 -0.850147 -3.15341 0
M  V30 1201 H 107.761 -2.82164 -2.3405 0
M  V30 1202 H 107.409 -1.92321 -4.64781 0
M  V30 1203 H 107.109 -3.67802 -4.58253 0
M  V30 1204 H 108.633 -3.06218 -5.28264 0
M  V30 1205 H 110.047 -4.5133 -3.53517 0
M  V30 1206 H 108.444 -5.15493 -3.07225 0
M  V30 1207 H 109.514 -4.49321 -1.82316 0
M  V30 1208 N 110.857 0.726932 -1.39834 0
M  V30 1209 C 111.787 1.85405 -1.41941 0
M  V30 1210 C 112.768 1.67751 -0.281728 0
M  V30 1211 O 113.953 1.8795 -0.488717 0
M  V30 1212 C 111.083 3.23243 -1.2701 0
M  V30 1213 C 110.037 3.55549 -2.38262 0
M  V30 1214 C 109.363 4.9241 -2.08415 0
M  V30 1215 C 110.663 3.577 -3.80589 0
M  V30 1216 H 112.357 1.83899 -2.36266 0
M  V30 1217 H 109.903 0.883349 -1.13723 0
M  V30 1218 H 111.856 4.01775 -1.27103 0
M  V30 1219 H 110.58 3.25296 -0.291564 0
M  V30 1220 H 109.239 2.79351 -2.37399 0
M  V30 1221 H 108.887 4.91052 -1.0898 0
M  V30 1222 H 108.587 5.14992 -2.82943 0
M  V30 1223 H 110.111 5.73289 -2.10171 0
M  V30 1224 H 111.525 4.26293 -3.83337 0
M  V30 1225 H 109.922 3.91804 -4.54543 0
M  V30 1226 H 110.992 2.57328 -4.10987 0
M  V30 1227 N 112.336 1.25143 0.95797 0
M  V30 1228 C 113.561 1.12521 1.74223 0
M  V30 1229 C 113.986 -0.317402 1.85403 0
M  V30 1230 O 113.344 -1.2299 1.33204 0
M  V30 1231 C 113.392 1.78062 3.1357 0
M  V30 1232 O 112.496 1.058 3.98598 0
M  V30 1233 H 111.837 0.39304 0.535178 0
M  V30 1234 H 114.367 1.65641 1.201 0
M  V30 1235 H 114.377 1.84213 3.64046 0
M  V30 1236 H 113.052 2.83021 3.04749 0
M  V30 1237 H 111.629 1.07506 3.57067 0
M  V30 1238 N 113.814 -1.1601 1.06675 0
M  V30 1239 C 115.062 -1.86264 0.784229 0
M  V30 1240 C 115.383 -1.82328 -0.691488 0
M  V30 1241 O 114.653 -1.25947 -1.50047 0
M  V30 1242 H 113.233 -0.689621 0.28711 0
M  V30 1243 H 115.895 -1.40664 1.34906 0
M  V30 1244 H 114.991 -2.91595 1.11259 0
M  V30 1245 N 115.292 -0.849877 -1.32721 0
M  V30 1246 C 116.708 -0.539102 -1.50219 0
M  V30 1247 C 116.908 0.931271 -1.78689 0
M  V30 1248 O 115.964 1.71455 -1.85363 0
M  V30 1249 C 117.277 -1.42196 -2.64954 0
M  V30 1250 C 118.825 -1.42189 -2.78839 0
M  V30 1251 C 119.3 -2.28985 -3.96648 0
M  V30 1252 N 120.791 -2.26754 -4.03902 0
M  V30 1253 C 121.526 -2.90644 -4.94281 0
M  V30 1254 N 121.022 -3.63629 -5.897 0
M  V30 1255 N 122.815 -2.80057 -4.87365 0
M  V30 1256 H 114.966 -1.80156 -1.12506 0
M  V30 1257 H 117.229 -0.769217 -0.554085 0
M  V30 1258 H 116.935 -2.46733 -2.50631 0
M  V30 1259 H 116.809 -1.10591 -3.60624 0
M  V30 1260 H 119.196 -0.38419 -2.92588 0
M  V30 1261 H 119.277 -1.77807 -1.83898 0
M  V30 1262 H 118.921 -3.32819 -3.83658 0
M  V30 1263 H 118.851 -1.90702 -4.90857 0
M  V30 1264 H 121.342 -1.73688 -3.3562 0
M  V30 1265 H 121.655 -4.09558 -6.55349 0
M  V30 1266 H 120 -3.67737 -5.89741 0
M  V30 1267 H 123.191 -2.22593 -4.11789 0
M  V30 1268 H 123.364 -3.30132 -5.57599 0
M  V30 1269 N 116.77 1.45427 -0.607355 0
M  V30 1270 C 118.019 2.01452 -0.100036 0
M  V30 1271 C 118.332 1.48159 1.27704 0
M  V30 1272 O 119.538 1.96159 1.87707 0
M  V30 1273 C 117.994 3.59672 -0.128158 0
M  V30 1274 C 117.602 4.21962 -1.50507 0
M  V30 1275 C 119.346 4.23262 0.323932 0
M  V30 1276 C 117.253 5.72333 -1.48959 0
M  V30 1277 H 116.183 0.75325 -0.0336299 0
M  V30 1278 H 118.834 1.66901 -0.76265 0
M  V30 1279 H 117.216 3.91411 0.601105 0
M  V30 1280 H 118.39 4.01796 -2.25602 0
M  V30 1281 H 116.705 3.70565 -1.89923 0
M  V30 1282 H 119.302 5.33522 0.354691 0
M  V30 1283 H 119.645 3.93921 1.34656 0
M  V30 1284 H 120.178 3.96239 -0.352056 0
M  V30 1285 H 116.917 6.06373 -2.48981 0
M  V30 1286 H 116.437 5.94691 -0.781214 0
M  V30 1287 H 118.116 6.35525 -1.21313 0
M  V30 1288 N 118.248 0.346503 1.53744 0
M  V30 1289 C 119.496 -0.248612 2.00565 0
M  V30 1290 C 119.817 -1.5083 1.23593 0
M  V30 1291 O 119.087 -1.92858 0.343912 0
M  V30 1292 H 117.667 -0.0948564 0.740953 0
M  V30 1293 H 120.329 0.468341 1.89189 0
M  V30 1294 H 119.425 -0.488994 3.08245 0
M  V30 1295 N 119.726 -1.57421 0.075193 0
M  V30 1296 C 121.137 -1.81021 -0.456964 0
M  V30 1297 C 121.488 -0.98936 -1.69429 0
M  V30 1298 O 120.613 -0.212865 -2.15351 0
M  V30 1299 C 121.208 -3.28329 -0.83581 0
M  V30 1300 C 119.767 -3.52764 -1.31281 0
M  V30 1301 C 118.914 -2.75676 -0.299648 0
M  V30 1302 H 121.865 -1.55822 0.300856 0
M  V30 1303 H 121.886 -3.40564 -1.69696 0
M  V30 1304 H 121.398 -3.88046 0.0649238 0
M  V30 1305 H 119.499 -2.98355 -2.23193 0
M  V30 1306 H 119.612 -4.61451 -1.28839 0
M  V30 1307 H 117.976 -2.42538 -0.777641 0
M  V30 1308 H 118.759 -3.38132 0.593417 0
M  V30 1309 N 121.204 0.198386 -1.56346 0
M  V30 1310 C 122.152 1.26538 -1.95169 0
M  V30 1311 C 123.146 1.47295 -0.836685 0
M  V30 1312 O 124.352 1.48195 -1.02167 0
M  V30 1313 H 120.727 0.424744 -0.620561 0
M  V30 1314 H 122.698 0.910904 -2.84157 0
M  V30 1315 C 121.447 2.6035 -2.30463 0
M  V30 1316 H 120.77 2.45192 -3.15786 0
M  V30 1317 H 122.21 3.33762 -2.61494 0
M  V30 1318 C 120.669 3.17096 -1.13806 0
M  V30 1319 O 121.199 3.99588 -0.41135 0
M  V30 1320 N 119.405 2.75795 -0.915736 0
M  V30 1321 H 118.952 2.08816 -1.50843 0
M  V30 1322 H 118.91 3.14101 -0.136979 0
M  V30 1323 N 122.682 1.50554 0.465978 0
M  V30 1324 C 123.931 1.61038 1.21448 0
M  V30 1325 C 124.244 0.31865 1.92987 0
M  V30 1326 O 125.45 0.302469 2.6981 0
M  V30 1327 C 123.906 2.84283 2.20706 0
M  V30 1328 C 123.514 4.20352 1.54946 0
M  V30 1329 C 125.258 3.04115 2.96166 0
M  V30 1330 C 123.165 5.34778 2.5252 0
M  V30 1331 H 122.095 0.599718 0.457005 0
M  V30 1332 H 124.746 1.7699 0.484424 0
M  V30 1333 H 123.128 2.61901 2.97025 0
M  V30 1334 H 124.302 4.53008 0.843811 0
M  V30 1335 H 122.617 4.06167 0.917475 0
M  V30 1336 H 125.214 3.86774 3.69202 0
M  V30 1337 H 125.557 2.16045 3.55852 0
M  V30 1338 H 126.09 3.26702 2.26959 0
M  V30 1339 H 122.829 6.25018 1.97566 0
M  V30 1340 H 122.349 5.06534 3.21222 0
M  V30 1341 H 124.028 5.65561 3.14245 0
M  V30 1342 N 124.16 -0.719506 1.40217 0
M  V30 1343 C 125.576 -1.02707 1.22161 0
M  V30 1344 C 125.776 -2.0128 0.0940557 0
M  V30 1345 O 124.832 -2.46452 -0.549318 0
M  V30 1346 C 126.145 -1.57454 2.56181 0
M  V30 1347 C 127.693 -1.69458 2.63159 0
M  V30 1348 C 128.168 -2.27611 3.97438 0
M  V30 1349 N 129.659 -2.35002 3.99159 0
M  V30 1350 C 130.394 -2.80972 4.99842 0
M  V30 1351 N 129.89 -3.26723 6.10921 0
M  V30 1352 N 131.683 -2.80321 4.87213 0
M  V30 1353 H 123.834 -0.0660492 2.12297 0
M  V30 1354 H 126.097 -0.0919077 0.943534 0
M  V30 1355 H 125.803 -0.924873 3.39321 0
M  V30 1356 H 125.677 -2.56036 2.76993 0
M  V30 1357 H 128.064 -2.33543 1.80393 0
M  V30 1358 H 128.145 -0.694867 2.46181 0
M  V30 1359 H 127.789 -1.6415 4.80643 0
M  V30 1360 H 127.719 -3.2829 4.11744 0
M  V30 1361 H 130.21 -2.02685 3.18947 0
M  V30 1362 H 130.523 -3.60355 6.8364 0
M  V30 1363 H 128.868 -3.24692 6.14492 0
M  V30 1364 H 132.059 -2.43912 3.9953 0
M  V30 1365 H 132.232 -3.15831 5.65822 0
M  V30 1366 N 125.638 -1.25649 -0.95132 0
M  V30 1367 C 126.568 -1.08808 -2.06599 0
M  V30 1368 C 127.549 0.00382547 -1.701 0
M  V30 1369 O 128.734 -0.166325 -1.93486 0
M  V30 1370 C 125.864 -0.709542 -3.39975 0
M  V30 1371 C 124.818 -1.75206 -3.90496 0
M  V30 1372 C 124.144 -1.22811 -5.20405 0
M  V30 1373 C 125.444 -3.15153 -4.16504 0
M  V30 1374 H 127.138 -2.02048 -2.20946 0
M  V30 1375 H 124.684 -0.972835 -1.06169 0
M  V30 1376 H 126.637 -0.578649 -4.17408 0
M  V30 1377 H 125.361 0.258556 -3.25575 0
M  V30 1378 H 124.02 -1.87145 -3.15234 0
M  V30 1379 H 123.668 -0.250145 -5.02378 0
M  V30 1380 H 123.368 -1.92492 -5.55176 0
M  V30 1381 H 124.892 -1.10968 -6.00432 0
M  V30 1382 H 126.306 -3.06349 -4.84586 0
M  V30 1383 H 124.703 -3.82333 -4.62538 0
M  V30 1384 H 125.773 -3.61966 -3.22658 0
M  V30 1385 N 127.117 1.15442 -1.07289 0
M  V30 1386 C 128.08 2.18358 -0.696591 0
M  V30 1387 C 129.08 1.58637 0.262837 0
M  V30 1388 O 130.27 1.74145 0.0438809 0
M  V30 1389 C 127.402 3.4089 -0.0266151 0
M  V30 1390 H 128.595 2.53162 -1.60776 0
M  V30 1391 H 126.148 1.29893 -0.869342 0
M  V30 1392 H 126.883 3.11653 0.896822 0
M  V30 1393 H 126.668 3.85495 -0.716657 0
M  V30 1394 H 128.158 4.17009 0.222028 0
M  V30 1395 N 128.595 0.856903 1.32268 0
M  V30 1396 C 129.505 0.306131 2.32594 0
M  V30 1397 C 130.521 -0.577209 1.64147 0
M  V30 1398 O 131.697 -0.477043 1.95669 0
M  V30 1399 C 128.762 -0.494561 3.43154 0
M  V30 1400 C 127.823 0.415186 4.27288 0
M  V30 1401 C 127.056 -0.347387 5.32568 0
M  V30 1402 O 127.279 -1.57708 5.48165 0
M  V30 1403 O 126.213 0.287982 6.01211 0
M  V30 1404 H 130.039 1.13737 2.81598 0
M  V30 1405 H 127.624 0.619902 1.35932 0
M  V30 1406 H 129.506 -0.948944 4.10576 0
M  V30 1407 H 128.181 -1.30257 2.96336 0
M  V30 1408 H 127.088 0.917793 3.62667 0
M  V30 1409 H 128.421 1.18844 4.77637 0
M  V30 1410 N 130.073 -1.45103 0.615059 0
M  V30 1411 C 131.313 -2.04069 0.116282 0
M  V30 1412 C 131.677 -1.4721 -1.2326 0
M  V30 1413 O 132.878 -1.97577 -1.82255 0
M  V30 1414 C 131.149 -3.57298 0.085482 0
M  V30 1415 S 132.708 -4.37394 -0.351015 0
M  V30 1416 H 129.526 -0.709006 0.0532183 0
M  V30 1417 H 132.128 -1.77709 0.81484 0
M  V30 1418 H 130.832 -3.9619 1.0706 0
M  V30 1419 H 130.363 -3.88244 -0.634835 0
M  V30 1420 H 132.378 -4.69734 -1.59889 0
M  V30 1421 N 131.551 -0.354651 -1.53558 0
M  V30 1422 C 132.781 0.239167 -2.05211 0
M  V30 1423 C 133.189 1.43879 -1.22863 0
M  V30 1424 O 132.532 1.81857 -0.259565 0
M  V30 1425 C 132.594 0.707251 -3.52474 0
M  V30 1426 C 132.258 -0.374212 -4.55465 0
M  V30 1427 C 133.255 -1.22054 -5.0537 0
M  V30 1428 C 130.94 -0.531323 -4.99482 0
M  V30 1429 C 132.934 -2.20942 -5.97882 0
M  V30 1430 C 130.621 -1.52358 -5.91802 0
M  V30 1431 C 131.619 -2.36108 -6.40892 0
M  V30 1432 O 131.307 -3.33643 -7.31394 0
M  V30 1433 H 131.039 0.0479716 -0.674296 0
M  V30 1434 H 133.593 -0.508121 -1.99016 0
M  V30 1435 H 131.823 1.50596 -3.56171 0
M  V30 1436 H 133.512 1.22285 -3.87042 0
M  V30 1437 H 134.278 -1.1103 -4.7212 0
M  V30 1438 H 130.157 0.110738 -4.60867 0
M  V30 1439 H 133.701 -2.86348 -6.36121 0
M  V30 1440 H 129.598 -1.63434 -6.24467 0
M  V30 1441 H 130.366 -3.29244 -7.4936 0
M  V30 1442 N 133.029 1.57378 -0.0835403 0
M  V30 1443 C 134.277 1.93547 0.581718 0
M  V30 1444 C 134.598 0.96524 1.69435 0
M  V30 1445 O 133.868 0.0153369 1.95894 0
M  V30 1446 H 132.448 0.714521 0.217874 0
M  V30 1447 H 135.11 1.94366 -0.144158 0
M  V30 1448 H 134.206 2.95665 0.999423 0
M  V30 1449 N 134.507 -0.190092 1.56449 0
M  V30 1450 C 135.437 -1.23816 1.97969 0
M  V30 1451 C 136.418 -1.47201 0.852395 0
M  V30 1452 O 137.603 -1.58854 1.1171 0
M  V30 1453 C 134.733 -2.5813 2.3235 0
M  V30 1454 C 133.687 -2.49348 3.47864 0
M  V30 1455 C 133.013 -3.8798 3.67934 0
M  V30 1456 C 134.313 -2.01424 4.81898 0
M  V30 1457 H 136.007 -0.89311 2.85769 0
M  V30 1458 H 133.553 -0.428177 1.37487 0
M  V30 1459 H 135.506 -3.31637 2.59991 0
M  V30 1460 H 134.23 -2.94386 1.41438 0
M  V30 1461 H 132.889 -1.78297 3.20321 0
M  V30 1462 H 132.537 -4.21597 2.74344 0
M  V30 1463 H 132.237 -3.82978 4.45648 0
M  V30 1464 H 133.761 -4.63101 3.97957 0
M  V30 1465 H 135.175 -2.64693 5.08538 0
M  V30 1466 H 133.572 -2.07413 5.63116 0
M  V30 1467 H 134.642 -0.967677 4.75146 0
M  V30 1468 N 135.985 -1.50799 -0.457987 0
M  V30 1469 C 137.401 -1.38515 -0.792819 0
M  V30 1470 C 137.601 -0.451409 -1.96379 0
M  V30 1471 O 136.657 0.10112 -2.52297 0
M  V30 1472 C 137.97 -2.80149 -1.09258 0
M  V30 1473 C 139.518 -2.89156 -1.19825 0
M  V30 1474 C 139.993 -4.31651 -1.53106 0
M  V30 1475 N 141.484 -4.34662 -1.60072 0
M  V30 1476 C 142.219 -5.41928 -1.87354 0
M  V30 1477 N 141.715 -6.59384 -2.12568 0
M  V30 1478 N 143.508 -5.29385 -1.88965 0
M  V30 1479 H 135.659 -2.10073 0.313511 0
M  V30 1480 H 137.922 -0.944803 0.0777862 0
M  V30 1481 H 137.628 -3.50374 -0.305084 0
M  V30 1482 H 137.502 -3.18204 -2.02549 0
M  V30 1483 H 139.889 -2.19141 -1.97639 0
M  V30 1484 H 139.97 -2.54626 -0.244821 0
M  V30 1485 H 139.614 -5.02208 -0.758266 0
M  V30 1486 H 139.544 -4.63678 -2.49621 0
M  V30 1487 H 142.035 -3.49973 -1.42573 0
M  V30 1488 H 142.348 -7.36934 -2.32696 0
M  V30 1489 H 140.693 -6.62535 -2.09933 0
M  V30 1490 H 143.884 -4.36616 -1.68772 0
M  V30 1491 H 144.057 -6.13066 -2.09891 0
M  V30 1492 N 137.463 0.71206 -1.40597 0
M  V30 1493 C 138.393 1.83889 -1.43899 0
M  V30 1494 C 139.374 1.67442 -0.299504 0
M  V30 1495 O 140.559 1.87421 -0.508624 0
M  V30 1496 C 137.689 3.21877 -1.30431 0
M  V30 1497 C 136.643 3.53002 -2.42019 0
M  V30 1498 C 135.969 4.90172 -2.13626 0
M  V30 1499 C 137.269 3.53643 -3.84362 0
M  V30 1500 H 138.963 1.81383 -2.38203 0
M  V30 1501 H 136.509 0.871237 -1.14654 0
M  V30 1502 H 138.462 4.00404 -1.31357 0
M  V30 1503 H 137.186 3.24968 -0.326049 0
M  V30 1504 H 135.845 2.76818 -2.40349 0
M  V30 1505 H 135.493 4.89869 -1.14182 0
M  V30 1506 H 135.193 5.11962 -2.88389 0
M  V30 1507 H 136.717 5.71028 -2.1624 0
M  V30 1508 H 138.131 4.22203 -3.87837 0
M  V30 1509 H 136.528 3.86961 -4.58673 0
M  V30 1510 H 137.598 2.52954 -4.13693 0
M  V30 1511 N 138.941 1.26152 0.944643 0
M  V30 1512 C 139.888 1.07408 2.04285 0
M  V30 1513 C 140.858 -0.0198413 1.66088 0
M  V30 1514 O 142.043 0.139264 1.90291 0
M  V30 1515 C 139.183 0.70945 3.37729 0
M  V30 1516 C 138.296 1.87926 3.88983 0
M  V30 1517 C 137.431 1.45807 5.10797 0
M  V30 1518 C 136.47 2.5964 5.54305 0
M  V30 1519 N 135.607 2.18226 6.67324 0
M  V30 1520 H 140.447 2.01389 2.1965 0
M  V30 1521 H 137.984 1.00275 1.07626 0
M  V30 1522 H 139.942 0.478948 4.14442 0
M  V30 1523 H 138.572 -0.193389 3.2222 0
M  V30 1524 H 137.624 2.22279 3.08701 0
M  V30 1525 H 138.936 2.73377 4.17213 0
M  V30 1526 H 138.09 1.18781 5.94959 0
M  V30 1527 H 136.829 0.574414 4.84305 0
M  V30 1528 H 135.834 2.87399 4.68702 0
M  V30 1529 H 137.059 3.48599 5.828 0
M  V30 1530 H 135.005 1.3229 6.42523 0
M  V30 1531 H 134.922 2.97221 6.95123 0
M  V30 1532 H 136.19 1.94403 7.54869 0
M  V30 1533 N 140.419 -1.14872 1.07899 0
M  V30 1534 C 141.369 -2.17809 0.674027 0
M  V30 1535 C 142.353 -1.58008 -0.303699 0
M  V30 1536 O 143.545 -1.76616 -0.11654 0
M  V30 1537 C 140.674 -3.43208 0.0793318 0
M  V30 1538 C 139.76 -4.10051 1.08253 0
M  V30 1539 N 140.151 -4.52296 2.2641 0
M  V30 1540 C 138.449 -4.36469 0.917124 0
M  V30 1541 C 139.15 -5.04199 2.901 0
M  V30 1542 N 138.126 -4.98088 2.17736 0
M  V30 1543 H 141.928 -2.48207 1.57386 0
M  V30 1544 H 139.442 -1.315 0.952976 0
M  V30 1545 H 141.439 -4.16272 -0.228719 0
M  V30 1546 H 140.099 -3.14291 -0.815551 0
M  V30 1547 H 141.11 -4.45504 2.64096 0
M  V30 1548 H 137.787 -4.17432 0.0756078 0
M  V30 1549 H 139.177 -5.46802 3.90458 0
M  V30 1550 N 141.898 -0.863906 -1.31812 0
M  V30 1551 C 142.831 -0.259963 -2.26714 0
M  V30 1552 C 143.809 0.607392 -1.50829 0
M  V30 1553 O 144.993 0.562155 -1.79922 0
M  V30 1554 C 142.12 0.632456 -3.32743 0
M  V30 1555 C 141.166 -0.162743 -4.26189 0
M  V30 1556 S 141.999 -1.53726 -5.12961 0
M  V30 1557 C 143.155 -0.650803 -6.22507 0
M  V30 1558 H 143.388 -1.06445 -2.77591 0
M  V30 1559 H 140.921 -0.662071 -1.39485 0
M  V30 1560 H 142.879 1.14167 -3.94305 0
M  V30 1561 H 141.54 1.41083 -2.80632 0
M  V30 1562 H 140.733 0.517366 -5.01338 0
M  V30 1563 H 140.335 -0.60385 -3.69093 0
M  V30 1564 H 142.627 0.141134 -6.77353 0
M  V30 1565 H 143.57 -1.37322 -6.94657 0
M  V30 1566 H 143.978 -0.221041 -5.64067 0
M  V30 1567 N 143.376 1.44774 -0.622745 0
M  V30 1568 C 144.323 2.30635 0.0871679 0
M  V30 1569 C 145.293 1.42994 0.845097 0
M  V30 1570 O 146.478 1.71907 0.827812 0
M  V30 1571 C 143.618 3.28144 1.06844 0
M  V30 1572 C 142.731 4.30888 0.309809 0
M  V30 1573 C 141.866 5.15494 1.28215 0
M  V30 1574 C 140.905 6.09953 0.512198 0
M  V30 1575 N 140.042 6.87287 1.43458 0
M  V30 1576 H 144.882 2.90803 -0.650974 0
M  V30 1577 H 142.419 1.43286 -0.33281 0
M  V30 1578 H 144.377 3.83157 1.65066 0
M  V30 1579 H 143.007 2.69695 1.77382 0
M  V30 1580 H 142.059 3.78414 -0.388181 0
M  V30 1581 H 143.371 4.97955 -0.290254 0
M  V30 1582 H 142.525 5.74983 1.93596 0
M  V30 1583 H 141.264 4.48481 1.91614 0
M  V30 1584 H 140.269 5.49581 -0.155151 0
M  V30 1585 H 141.494 6.78999 -0.116958 0
M  V30 1586 H 139.44 6.2295 2.05594 0
M  V30 1587 H 139.357 7.50763 0.888335 0
M  V30 1588 H 140.625 7.51306 2.07749 0
M  V30 1589 N 144.854 0.36279 1.53368 0
M  V30 1590 C 146.079 -0.231226 2.06107 0
M  V30 1591 C 146.504 -1.419 1.23474 0
M  V30 1592 O 145.862 -1.79524 0.253128 0
M  V30 1593 C 145.91 -0.605523 3.5548 0
M  V30 1594 O 145.014 -1.70312 3.7559 0
M  V30 1595 H 144.355 -0.034327 0.663112 0
M  V30 1596 H 146.885 0.522584 1.97814 0
M  V30 1597 H 146.895 -0.877314 3.98456 0
M  V30 1598 H 145.57 0.263004 4.15068 0
M  V30 1599 H 144.147 -1.4271 3.44512 0
M  V30 1600 N 146.332 -1.57332 0.0918853 0
M  V30 1601 C 147.609 -1.85691 -0.614668 0
M  V30 1602 C 147.989 -0.988146 -1.86545 0
M  V30 1603 O 147.337 -0.0597055 -2.28422 0
M  V30 1604 C 147.547 -3.36294 -0.933126 0
M  V30 1605 C 148.895 -4.04275 -1.29796 0
M  V30 1606 O 149.919 -3.41157 -1.02424 0
M  V30 1607 O 148.778 -5.1564 -1.81047 0
M  V30 1608 H 145.872 -0.767802 -0.307261 0
M  V30 1609 H 148.418 -1.69244 0.12434 0
M  V30 1610 H 147.19 -3.91273 -0.0456404 0
M  V30 1611 H 146.813 -3.58076 -1.72822 0
M  V30 1612 N 147.81 0.181792 -1.56548 0
M  V30 1613 C 148.72 1.24538 -1.98815 0
M  V30 1614 C 149.736 1.49045 -0.897861 0
M  V30 1615 O 150.912 1.61399 -1.20467 0
M  V30 1616 C 147.977 2.56683 -2.33055 0
M  V30 1617 C 147.038 2.40131 -3.55859 0
M  V30 1618 C 146.271 3.65975 -3.88456 0
M  V30 1619 O 146.494 4.70711 -3.22161 0
M  V30 1620 O 145.428 3.6071 -4.81842 0
M  V30 1621 H 149.254 0.916647 -2.89536 0
M  V30 1622 H 146.839 0.387842 -1.44278 0
M  V30 1623 H 148.721 3.34655 -2.56094 0
M  V30 1624 H 147.396 2.89157 -1.45498 0
M  V30 1625 H 146.303 1.60226 -3.38051 0
M  V30 1626 H 147.636 2.12585 -4.43924 0
M  V30 1627 N 149.288 1.51039 0.449983 0
M  V30 1628 C 150.537 1.62317 1.19733 0
M  V30 1629 C 150.85 0.339101 1.92638 0
M  V30 1630 O 152.056 0.331069 2.69474 0
M  V30 1631 C 150.512 2.86608 2.17678 0
M  V30 1632 C 150.12 4.21972 1.50479 0
M  V30 1633 C 151.864 3.07239 2.92924 0
M  V30 1634 C 149.771 5.37426 2.46834 0
M  V30 1635 H 148.701 0.604532 0.450619 0
M  V30 1636 H 151.352 1.77494 0.465625 0
M  V30 1637 H 149.734 2.65037 2.94231 0
M  V30 1638 H 150.908 4.53878 0.795716 0
M  V30 1639 H 149.223 4.07117 0.874344 0
M  V30 1640 H 151.82 3.90668 3.65079 0
M  V30 1641 H 152.163 2.19807 3.5354 0
M  V30 1642 H 152.696 3.29091 2.23481 0
M  V30 1643 H 149.435 6.27079 1.90926 0
M  V30 1644 H 148.955 5.09912 3.15832 0
M  V30 1645 H 150.634 5.68862 3.08228 0
M  V30 1646 N 150.766 -0.704594 1.40972 0
M  V30 1647 C 151.716 -1.81051 1.38581 0
M  V30 1648 C 152.7 -1.58759 0.261585 0
M  V30 1649 O 153.892 -1.69745 0.501556 0
M  V30 1650 C 151.021 -3.19279 1.26157 0
M  V30 1651 C 150.107 -3.47296 2.43405 0
M  V30 1652 N 150.498 -3.46064 3.68881 0
M  V30 1653 C 148.796 -3.77804 2.37023 0
M  V30 1654 C 149.497 -3.72733 4.46592 0
M  V30 1655 N 148.473 -3.9203 3.76581 0
M  V30 1656 H 152.275 -1.78448 2.33525 0
M  V30 1657 H 149.789 -0.904198 1.349 0
M  V30 1658 H 151.786 -3.98488 1.22526 0
M  V30 1659 H 150.446 -3.231 0.321902 0
M  V30 1660 H 151.457 -3.26656 4.01891 0
M  V30 1661 H 148.134 -3.8905 1.51481 0
M  V30 1662 H 149.524 -3.77993 5.55492 0
M  V30 1663 N 152.244 -1.26651 -0.937939 0
M  V30 1664 C 153.49 -1.13562 -1.68746 0
M  V30 1665 C 153.845 0.317241 -1.89767 0
M  V30 1666 O 153.138 1.22939 -1.46957 0
M  V30 1667 C 153.332 -1.84168 -3.06295 0
M  V30 1668 C 153.161 -3.36171 -2.98696 0
M  V30 1669 C 151.931 -4.05468 -3.01535 0
M  V30 1670 C 154.129 -4.32312 -2.78588 0
M  V30 1671 N 152.111 -5.44118 -2.84269 0
M  V30 1672 C 153.482 -5.58159 -2.69924 0
M  V30 1673 C 155.537 -4.22524 -2.63396 0
M  V30 1674 C 154.24 -6.75335 -2.47618 0
M  V30 1675 C 156.266 -5.39411 -2.42466 0
M  V30 1676 C 155.628 -6.64208 -2.34536 0
M  V30 1677 H 151.727 -0.470361 -0.624728 0
M  V30 1678 H 154.311 -1.59982 -1.10968 0
M  V30 1679 H 152.482 -1.40219 -3.62206 0
M  V30 1680 H 154.214 -1.63674 -3.70126 0
M  V30 1681 H 150.969 -3.56854 -3.11372 0
M  V30 1682 H 151.393 -6.1693 -2.78795 0
M  V30 1683 H 156.035 -3.26771 -2.68292 0
M  V30 1684 H 153.753 -7.71182 -2.41463 0
M  V30 1685 H 157.339 -5.33711 -2.31611 0
M  V30 1686 H 156.219 -7.53129 -2.18555 0
M  V30 1687 N 153.722 1.14298 -1.08507 0
M  V30 1688 C 154.652 2.21542 -0.737646 0
M  V30 1689 C 155.633 1.67773 0.280377 0
M  V30 1690 O 156.818 1.93616 0.150521 0
M  V30 1691 C 153.948 3.46988 -0.147259 0
M  V30 1692 C 152.902 4.13789 -1.09374 0
M  V30 1693 C 152.228 5.33449 -0.365524 0
M  V30 1694 C 153.528 4.62208 -2.4323 0
M  V30 1695 H 155.222 2.5086 -1.6343 0
M  V30 1696 H 152.768 1.20576 -0.787243 0
M  V30 1697 H 154.721 4.21262 0.107808 0
M  V30 1698 H 153.445 3.17037 0.784538 0
M  V30 1699 H 152.104 3.4147 -1.33393 0
M  V30 1700 H 151.752 4.99759 0.57011 0
M  V30 1701 H 151.452 5.79088 -0.996512 0
M  V30 1702 H 152.976 6.10485 -0.118534 0
M  V30 1703 H 154.39 5.27952 -2.23472 0
M  V30 1704 H 152.787 5.18553 -3.02031 0
M  V30 1705 H 153.857 3.77224 -3.04681 0
M  V30 1706 N 155.201 0.870884 1.31352 0
M  V30 1707 C 156.151 0.298889 2.26032 0
M  V30 1708 C 157.135 -0.564595 1.50669 0
M  V30 1709 O 158.327 -0.411323 1.72154 0
M  V30 1710 C 155.456 -0.497842 3.39671 0
M  V30 1711 C 154.542 0.378937 4.22404 0
M  V30 1712 N 154.933 1.47284 4.83881 0
M  V30 1713 C 153.231 0.171535 4.4567 0
M  V30 1714 C 153.932 2.01359 5.45738 0
M  V30 1715 N 152.908 1.31047 5.27568 0
M  V30 1716 H 156.71 1.13494 2.71102 0
M  V30 1717 H 154.224 0.718745 1.45629 0
M  V30 1718 H 156.221 -0.924155 4.06528 0
M  V30 1719 H 154.881 -1.33149 2.96144 0
M  V30 1720 H 155.892 1.85575 4.8351 0
M  V30 1721 H 152.569 -0.626091 4.12779 0
M  V30 1722 H 153.959 2.93143 6.0458 0
M  V30 1723 N 156.679 -1.44442 0.630414 0
M  V30 1724 C 158.09 -1.85434 0.217063 0
M  V30 1725 C 158.441 -1.52748 -1.23136 0
M  V30 1726 O 157.566 -0.965205 -1.93682 0
M  V30 1727 C 158.161 -3.36581 0.387168 0
M  V30 1728 C 156.72 -3.76389 0.0283297 0
M  V30 1729 C 155.867 -2.68296 0.700889 0
M  V30 1730 H 158.818 -1.34919 0.83562 0
M  V30 1731 H 158.839 -3.78657 -0.374086 0
M  V30 1732 H 158.351 -3.60339 1.44144 0
M  V30 1733 H 156.452 -3.58246 -1.02423 0
M  V30 1734 H 156.565 -4.77095 0.437892 0
M  V30 1735 H 154.929 -2.54335 0.136267 0
M  V30 1736 H 155.712 -2.94887 1.75774 0
M  V30 1737 N 158.157 -0.370918 -1.53173 0
M  V30 1738 C 159.089 0.507823 -2.23503 0
M  V30 1739 C 160.102 1.04182 -1.251 0
M  V30 1740 O 161.291 0.947286 -1.5129 0
M  V30 1741 C 158.391 1.71447 -2.92334 0
M  V30 1742 C 157.564 1.31105 -4.17289 0
M  V30 1743 C 156.623 2.38035 -4.69282 0
M  V30 1744 O 155.649 2.00204 -5.32829 0
M  V30 1745 N 156.851 3.69697 -4.47554 0
M  V30 1746 H 159.616 -0.0946382 -2.99551 0
M  V30 1747 H 157.177 -0.196358 -1.60705 0
M  V30 1748 H 159.169 2.42469 -3.24023 0
M  V30 1749 H 157.739 2.22368 -2.19707 0
M  V30 1750 H 156.959 0.430462 -3.91843 0
M  V30 1751 H 158.247 1.0179 -4.98514 0
M  V30 1752 H 157.645 4.03205 -3.9679 0
M  V30 1753 H 156.202 4.36807 -4.8378 0
M  V30 1754 N 159.635 1.57281 -0.100228 0
M  V30 1755 C 160.568 2.09976 0.893612 0
M  V30 1756 C 161.546 1.01155 1.27304 0
M  V30 1757 O 162.73 1.28687 1.37739 0
M  V30 1758 C 159.857 2.58098 2.19324 0
M  V30 1759 C 158.903 3.78626 1.96328 0
M  V30 1760 S 159.736 5.21959 1.19662 0
M  V30 1761 C 160.892 5.73435 2.50844 0
M  V30 1762 H 161.125 2.93946 0.44534 0
M  V30 1763 H 158.658 1.53985 0.113167 0
M  V30 1764 H 160.616 2.8648 2.94005 0
M  V30 1765 H 159.277 1.74344 2.61272 0
M  V30 1766 H 158.47 4.10382 2.92579 0
M  V30 1767 H 158.072 3.50763 1.29775 0
M  V30 1768 H 160.364 5.82015 3.46792 0
M  V30 1769 H 161.307 6.7185 2.23659 0
M  V30 1770 H 161.715 5.01395 2.59352 0
M  V30 1771 N 161.113 -0.173488 1.56642 0
M  V30 1772 C 162.341 -0.906095 1.86004 0
M  V30 1773 C 162.756 -1.75921 0.685355 0
M  V30 1774 O 162.113 -1.79198 -0.345578 0
M  V30 1775 C 162.164 -1.78462 3.14378 0
M  V30 1776 O 161.885 -0.965914 4.27319 0
M  V30 1777 C 163.386 -2.62707 3.57071 0
M  V30 1778 H 160.606 -0.263341 0.617165 0
M  V30 1779 H 163.15 -0.174236 2.03756 0
M  V30 1780 H 161.305 -2.46984 2.98459 0
M  V30 1781 H 161.719 -1.56655 5.00559 0
M  V30 1782 H 163.193 -3.19969 4.49804 0
M  V30 1783 H 163.67 -3.37472 2.81086 0
M  V30 1784 H 164.276 -1.99521 3.75595 0
M  V30 1785 N 162.591 -1.51276 -0.441967 0
M  V30 1786 C 163.837 -1.63958 -1.19355 0
M  V30 1787 C 164.17 -0.352543 -1.90973 0
M  V30 1788 O 163.445 0.647627 -1.83401 0
M  V30 1789 C 163.728 -2.83979 -2.21422 0
M  V30 1790 C 163.581 -4.22646 -1.53918 0
M  V30 1791 C 164.9 -2.99521 -3.22451 0
M  V30 1792 H 162.019 -0.596709 -0.432559 0
M  V30 1793 H 164.661 -1.83748 -0.483398 0
M  V30 1794 H 162.811 -2.67237 -2.81987 0
M  V30 1795 H 164.483 -4.51045 -0.967256 0
M  V30 1796 H 162.726 -4.25558 -0.841615 0
M  V30 1797 H 163.397 -5.02609 -2.28229 0
M  V30 1798 H 165.873 -3.14944 -2.71937 0
M  V30 1799 H 164.749 -3.85072 -3.91166 0
M  V30 1800 H 165.01 -2.11391 -3.88287 0
M  V30 1801 N 164.069 0.697108 -1.41344 0
M  V30 1802 C 165.317 1.45426 -1.40341 0
M  V30 1803 C 165.638 1.94996 -0.0128787 0
M  V30 1804 O 164.908 1.71599 0.945027 0
M  V30 1805 H 163.488 0.539594 -0.516573 0
M  V30 1806 H 166.15 0.825201 -1.76569 0
M  V30 1807 H 165.246 2.31817 -2.08967 0
M  V30 1808 N 165.547 1.27147 0.931209 0
M  V30 1809 C 166.457 1.11372 2.06478 0
M  V30 1810 C 167.473 0.044645 1.73943 0
M  V30 1811 O 168.649 0.250417 1.99837 0
M  V30 1812 C 165.714 0.758838 3.38294 0
M  V30 1813 C 164.775 1.90841 3.84549 0
M  V30 1814 C 164.008 1.57036 5.10074 0
M  V30 1815 O 164.231 0.476645 5.68405 0
M  V30 1816 O 163.165 2.40839 5.51616 0
M  V30 1817 H 166.991 2.06493 2.22698 0
M  V30 1818 H 164.576 1.06301 1.04978 0
M  V30 1819 H 166.458 0.574098 4.17471 0
M  V30 1820 H 165.133 -0.162879 3.2329 0
M  V30 1821 H 164.04 2.14819 3.06274 0
M  V30 1822 H 165.373 2.81021 4.04089 0
M  V30 1823 N 167.025 -1.13721 1.09112 0
M  V30 1824 C 168.271 -1.85198 0.826414 0
M  V30 1825 C 168.604 -1.83129 -0.646319 0
M  V30 1826 O 167.879 -1.2671 -1.47563 0
M  V30 1827 C 168.162 -3.33507 1.35812 0
M  V30 1828 C 168.015 -3.44108 2.89672 0
M  V30 1829 C 169.334 -4.28838 0.989256 0
M  V30 1830 H 166.453 -0.67243 0.301675 0
M  V30 1831 H 169.095 -1.33499 1.35197 0
M  V30 1832 H 167.245 -3.77666 0.911082 0
M  V30 1833 H 168.917 -3.08684 3.428 0
M  V30 1834 H 167.16 -2.85087 3.26967 0
M  V30 1835 H 167.831 -4.48388 3.21951 0
M  V30 1836 H 170.307 -3.92734 1.37475 0
M  V30 1837 H 169.183 -5.31051 1.38838 0
M  V30 1838 H 169.444 -4.4198 -0.102924 0
M  V30 1839 N 168.503 -0.877838 -1.30888 0
M  V30 1840 C 169.435 -0.296607 -2.27273 0
M  V30 1841 C 170.448 0.544799 -1.53414 0
M  V30 1842 O 171.637 0.365511 -1.74718 0
M  V30 1843 C 168.737 0.597481 -3.33592 0
M  V30 1844 C 167.91 -0.213251 -4.3688 0
M  V30 1845 C 166.969 0.610208 -5.2265 0
M  V30 1846 O 165.995 0.035441 -5.69189 0
M  V30 1847 N 167.197 1.92071 -5.47804 0
M  V30 1848 H 169.962 -1.12492 -2.77787 0
M  V30 1849 H 167.523 -0.740105 -1.43993 0
M  V30 1850 H 169.515 1.15425 -3.87891 0
M  V30 1851 H 168.085 1.32647 -2.83061 0
M  V30 1852 H 167.305 -0.951466 -3.82545 0
M  V30 1853 H 168.593 -0.769262 -5.02951 0
M  V30 1854 H 167.991 2.4107 -5.11763 0
M  V30 1855 H 166.548 2.42508 -6.05007 0
M  V30 1856 N 169.982 1.44106 -0.638065 0
M  V30 1857 C 171.259 1.95453 -0.0759321 0
M  V30 1858 C 171.639 1.57984 1.40015 0
M  V30 1859 O 170.987 0.857361 2.11806 0
M  V30 1860 C 171.197 3.47655 -0.306132 0
M  V30 1861 C 172.545 4.24114 -0.203008 0
M  V30 1862 O 173.569 3.55405 -0.237871 0
M  V30 1863 O 172.428 5.46381 -0.113827 0
M  V30 1864 H 169.522 0.826797 0.0183332 0
M  V30 1865 H 172.068 1.54122 -0.710251 0
M  V30 1866 H 170.84 3.68 -1.3301 0
M  V30 1867 H 170.463 3.95949 0.361991 0
M  V30 1868 N 171.46 0.379036 1.52974 0
M  V30 1869 C 172.407 -0.461048 2.26148 0
M  V30 1870 C 173.377 -1.06637 1.27349 0
M  V30 1871 O 174.562 -1.09633 1.56157 0
M  V30 1872 C 171.702 -1.58782 3.06402 0
M  V30 1873 C 170.815 -1.00636 4.20115 0
M  V30 1874 C 169.95 -2.10334 4.87784 0
M  V30 1875 C 168.989 -1.49724 5.93506 0
M  V30 1876 N 168.126 -2.5331 6.54812 0
M  V30 1877 H 172.966 0.169429 2.97518 0
M  V30 1878 H 170.503 0.0953806 1.4679 0
M  V30 1879 H 172.461 -2.25174 3.51215 0
M  V30 1880 H 171.091 -2.18876 2.37261 0
M  V30 1881 H 170.143 -0.232332 3.7969 0
M  V30 1882 H 171.455 -0.523343 4.96047 0
M  V30 1883 H 170.609 -2.84519 5.35849 0
M  V30 1884 H 169.348 -2.61992 4.11353 0
M  V30 1885 H 168.353 -0.740598 5.44789 0
M  V30 1886 H 169.578 -0.988732 6.71864 0
M  V30 1887 H 167.524 -3.04156 5.81227 0
M  V30 1888 H 167.441 -2.09734 7.26325 0
M  V30 1889 H 168.709 -3.27155 7.07524 0
M  V30 1890 N 172.938 -1.57226 0.108567 0
M  V30 1891 C 174.168 -1.9889 -0.559142 0
M  V30 1892 C 174.576 -0.986889 -1.61422 0
M  V30 1893 O 173.919 0.0298705 -1.83676 0
M  V30 1894 C 173.981 -3.36952 -1.25315 0
M  V30 1895 C 173.645 -4.55679 -0.347248 0
M  V30 1896 C 174.642 -5.18281 0.409996 0
M  V30 1897 C 172.327 -5.0162 -0.261367 0
M  V30 1898 C 174.321 -6.25203 1.24096 0
M  V30 1899 C 172.008 -6.08405 0.573238 0
M  V30 1900 C 173.006 -6.70063 1.32304 0
M  V30 1901 O 172.694 -7.74788 2.14381 0
M  V30 1902 H 172.426 -0.658343 -0.153492 0
M  V30 1903 H 174.98 -2.04532 0.188584 0
M  V30 1904 H 173.21 -3.28032 -2.04773 0
M  V30 1905 H 174.899 -3.62974 -1.81673 0
M  V30 1906 H 175.665 -4.8371 0.353457 0
M  V30 1907 H 171.544 -4.53381 -0.834656 0
M  V30 1908 H 175.088 -6.73259 1.82669 0
M  V30 1909 H 170.985 -6.42406 0.631208 0
M  V30 1910 H 171.753 -7.91837 2.07209 0
M  V30 1911 N 174.416 0.165178 -1.56732 0
M  V30 1912 C 175.326 1.22423 -2.00125 0
M  V30 1913 C 176.342 1.48084 -0.913619 0
M  V30 1914 O 177.518 1.60112 -1.22172 0
M  V30 1915 C 174.583 2.54197 -2.35764 0
M  V30 1916 C 173.644 2.36343 -3.58386 0
M  V30 1917 C 172.877 3.61834 -3.92316 0
M  V30 1918 O 173.1 4.67267 -3.27135 0
M  V30 1919 O 172.034 3.55579 -4.85641 0
M  V30 1920 H 175.86 0.885886 -2.90492 0
M  V30 1921 H 173.445 0.372518 -1.44681 0
M  V30 1922 H 175.327 3.3192 -2.59629 0
M  V30 1923 H 174.002 2.87598 -1.48557 0
M  V30 1924 H 172.909 1.56632 -3.39731 0
M  V30 1925 H 174.242 2.07865 -4.46154 0
M  V30 1926 N 175.894 1.51508 0.433938 0
M  V30 1927 C 177.134 1.66006 1.19253 0
M  V30 1928 C 177.498 0.369868 1.88404 0
M  V30 1929 O 178.699 0.39066 2.65946 0
M  V30 1930 C 176.97 2.83229 2.17981 0
M  V30 1931 S 178.529 3.18075 3.02281 0
M  V30 1932 H 175.347 0.584821 0.404358 0
M  V30 1933 H 177.949 1.89425 0.48357 0
M  V30 1934 H 176.653 3.75407 1.65824 0
M  V30 1935 H 176.184 2.6201 2.93453 0
M  V30 1936 H 178.199 2.64772 4.19655 0
M  V30 1937 N 177.372 -0.689602 1.41712 0
M  V30 1938 C 178.302 -1.81577 1.46806 0
M  V30 1939 C 179.283 -1.66945 0.326105 0
M  V30 1940 O 180.468 -1.86588 0.538377 0
M  V30 1941 C 177.598 -3.19762 1.35535 0
M  V30 1942 C 176.552 -3.49107 2.47605 0
M  V30 1943 C 175.878 -4.86711 2.21397 0
M  V30 1944 C 177.178 -3.47483 3.89939 0
M  V30 1945 H 178.872 -1.7757 2.41058 0
M  V30 1946 H 176.418 -0.852887 1.16025 0
M  V30 1947 H 178.371 -3.98263 1.3771 0
M  V30 1948 H 177.095 -3.24409 0.377708 0
M  V30 1949 H 175.754 -2.72959 2.44722 0
M  V30 1950 H 175.402 -4.8799 1.21961 0
M  V30 1951 H 175.102 -5.0731 2.96497 0
M  V30 1952 H 176.626 -5.67515 2.25297 0
M  V30 1953 H 178.04 -4.1598 3.94505 0
M  V30 1954 H 176.437 -3.79615 4.64771 0
M  V30 1955 H 177.507 -2.46341 4.17665 0
M  V30 1956 N 178.85 -1.27639 -0.924453 0
M  V30 1957 C 179.8 -1.07295 -2.01176 0
M  V30 1958 C 180.784 5.77352e-05 -1.609 0
M  V30 1959 O 181.976 -0.218855 -1.75642 0
M  V30 1960 C 179.105 -0.725592 -3.35544 0
M  V30 1961 C 178.191 -1.83691 -3.82254 0
M  V30 1962 N 178.582 -3.07697 -4.01443 0
M  V30 1963 C 176.88 -1.72433 -4.11319 0
M  V30 1964 C 177.581 -3.80037 -4.40394 0
M  V30 1965 N 176.557 -3.0782 -4.48049 0
M  V30 1966 H 180.359 -2.01399 -2.14046 0
M  V30 1967 H 177.873 -1.18401 -1.11153 0
M  V30 1968 H 179.87 -0.560959 -4.13109 0
M  V30 1969 H 178.53 0.207782 -3.24034 0
M  V30 1970 H 179.541 -3.43424 -3.8766 0
M  V30 1971 H 176.218 -0.862005 -4.08504 0
M  V30 1972 H 177.608 -4.86632 -4.63291 0
M  V30 1973 N 180.328 1.1314 -1.09713 0
M  V30 1974 C 181.574 1.84757 -0.836224 0
M  V30 1975 C 181.907 1.8347 0.636598 0
M  V30 1976 O 181.182 1.27491 1.46889 0
M  V30 1977 C 181.465 3.32782 -1.37578 0
M  V30 1978 C 181.318 3.42567 -2.91493 0
M  V30 1979 C 182.637 4.28307 -1.01198 0
M  V30 1980 H 179.756 0.67082 -0.305236 0
M  V30 1981 H 182.398 1.3278 -1.35903 0
M  V30 1982 H 180.548 3.77177 -0.931097 0
M  V30 1983 H 182.22 3.06862 -3.44432 0
M  V30 1984 H 180.463 2.83349 -3.28475 0
M  V30 1985 H 181.134 4.46674 -3.24324 0
M  V30 1986 H 183.61 3.91999 -1.39556 0
M  V30 1987 H 182.486 5.30307 -1.41653 0
M  V30 1988 H 182.747 4.42029 0.0794833 0
M  V30 1989 N 181.806 0.884767 1.30421 0
M  V30 1990 C 182.716 0.355398 2.31892 0
M  V30 1991 C 183.732 -0.542261 1.65335 0
M  V30 1992 O 184.908 -0.435432 1.96637 0
M  V30 1993 C 181.973 -0.421661 3.44126 0
M  V30 1994 C 181.034 0.505727 4.26311 0
M  V30 1995 C 180.267 -0.234343 5.33185 0
M  V30 1996 O 180.49 -1.46045 5.51386 0
M  V30 1997 O 179.424 0.415443 6.00465 0
M  V30 1998 H 183.25 1.19685 2.79122 0
M  V30 1999 H 180.835 0.648596 1.34587 0
M  V30 2000 H 182.717 -0.861641 4.12497 0
M  V30 2001 H 181.392 -1.23942 2.99032 0
M  V30 2002 H 180.299 0.994513 3.60639 0
M  V30 2003 H 181.632 1.28948 4.75009 0
M  V30 2004 N 183.284 -1.43765 0.645699 0
M  V30 2005 C 184.247 -2.29163 -0.0409488 0
M  V30 2006 C 185.247 -1.41813 -0.757996 0
M  V30 2007 O 186.437 -1.63527 -0.600382 0
M  V30 2008 C 183.569 -3.23716 -1.06869 0
M  V30 2009 H 184.762 -2.91366 0.710345 0
M  V30 2010 H 182.315 -1.5092 0.406547 0
M  V30 2011 H 183.05 -2.66393 -1.84947 0
M  V30 2012 H 182.835 -3.88105 -0.558277 0
M  V30 2013 H 184.325 -3.87831 -1.54845 0
M  V30 2014 N 184.763 -0.387143 -1.52771 0
M  V30 2015 C 185.673 0.456442 -2.30117 0
M  V30 2016 C 186.689 1.07342 -1.36944 0
M  V30 2017 O 187.865 1.07971 -1.70013 0
M  V30 2018 C 184.93 1.56957 -3.09136 0
M  V30 2019 C 183.991 0.977916 -4.18014 0
M  V30 2020 C 183.224 2.038 -4.93256 0
M  V30 2021 O 183.447 3.25271 -4.68567 0
M  V30 2022 O 182.381 1.6565 -5.78657 0
M  V30 2023 H 186.207 -0.17359 -3.03203 0
M  V30 2024 H 183.792 -0.150919 -1.48636 0
M  V30 2025 H 185.674 2.21628 -3.58412 0
M  V30 2026 H 184.349 2.18461 -2.38865 0
M  V30 2027 H 183.256 0.294525 -3.72939 0
M  V30 2028 H 184.589 0.407128 -4.90513 0
M  V30 2029 N 186.241 1.57166 -0.116904 0
M  V30 2030 C 187.487 1.96206 0.536166 0
M  V30 2031 C 187.842 0.99915 1.64422 0
M  V30 2032 O 187.135 0.0288195 1.91578 0
M  V30 2033 C 187.329 3.39508 1.11664 0
M  V30 2034 C 187.158 4.49651 0.0663474 0
M  V30 2035 C 185.928 5.03982 -0.36474 0
M  V30 2036 C 188.126 5.09322 -0.713829 0
M  V30 2037 N 186.108 5.97699 -1.40102 0
M  V30 2038 C 187.479 5.98963 -1.60136 0
M  V30 2039 C 189.534 4.91989 -0.764948 0
M  V30 2040 C 188.237 6.73128 -2.53556 0
M  V30 2041 C 190.263 5.66833 -1.68685 0
M  V30 2042 C 189.625 6.56158 -2.56196 0
M  V30 2043 H 185.724 0.764203 0.165886 0
M  V30 2044 H 188.308 1.93623 -0.204535 0
M  V30 2045 H 186.479 3.42743 1.82707 0
M  V30 2046 H 188.211 3.65677 1.73386 0
M  V30 2047 H 184.966 4.73592 0.027252 0
M  V30 2048 H 185.39 6.49262 -1.91802 0
M  V30 2049 H 190.032 4.22676 -0.102501 0
M  V30 2050 H 187.75 7.41689 -3.20816 0
M  V30 2051 H 191.336 5.55427 -1.73181 0
M  V30 2052 H 190.216 7.13057 -3.26372 0
M  V30 2053 N 187.719 -0.156864 1.56817 0
M  V30 2054 C 189.135 -0.50916 1.5126 0
M  V30 2055 C 189.335 -1.83897 0.823658 0
M  V30 2056 O 188.391 -2.49469 0.390055 0
M  V30 2057 C 189.704 -0.52857 2.96018 0
M  V30 2058 C 191.252 -0.614771 3.06903 0
M  V30 2059 C 191.727 -0.664938 4.53147 0
M  V30 2060 N 193.218 -0.727433 4.57452 0
M  V30 2061 C 193.953 -0.787067 5.67973 0
M  V30 2062 N 193.449 -0.806649 6.88088 0
M  V30 2063 N 195.242 -0.827195 5.5598 0
M  V30 2064 H 187.393 0.714935 2.00006 0
M  V30 2065 H 189.656 0.259526 0.911784 0
M  V30 2066 H 189.362 0.380154 3.49639 0
M  V30 2067 H 189.236 -1.36998 3.51442 0
M  V30 2068 H 191.623 -1.51392 2.53307 0
M  V30 2069 H 191.704 0.253597 2.5454 0
M  V30 2070 H 191.348 0.230011 5.07379 0
M  V30 2071 H 191.278 -1.54966 5.03282 0
M  V30 2072 H 193.769 -0.719998 3.70978 0
M  V30 2073 H 194.082 -0.853727 7.6807 0
M  V30 2074 H 192.427 -0.774687 6.90669 0
M  V30 2075 H 195.618 -0.808998 4.61056 0
M  V30 2076 H 195.791 -0.870206 6.4213 0
M  V30 2077 N 189.197 -1.51736 -0.425897 0
M  V30 2078 C 190.427 -1.68549 -1.19476 0
M  V30 2079 C 190.835 -0.387288 -1.85194 0
M  V30 2080 O 190.178 0.645142 -1.71999 0
M  V30 2081 C 190.24 -2.75275 -2.31223 0
M  V30 2082 C 189.904 -4.17534 -1.8578 0
M  V30 2083 C 190.901 -5.01936 -1.35485 0
M  V30 2084 C 188.586 -4.6369 -1.93123 0
M  V30 2085 C 190.58 -6.30559 -0.931347 0
M  V30 2086 C 188.267 -5.92307 -1.50384 0
M  V30 2087 C 189.265 -6.75569 -1.00473 0
M  V30 2088 O 188.953 -8.0178 -0.583452 0
M  V30 2089 H 188.685 -0.568525 -0.365725 0
M  V30 2090 H 191.239 -1.98982 -0.509444 0
M  V30 2091 H 189.469 -2.40182 -3.03067 0
M  V30 2092 H 191.158 -2.80853 -2.93047 0
M  V30 2093 H 191.924 -4.67475 -1.29197 0
M  V30 2094 H 187.803 -3.98997 -2.30916 0
M  V30 2095 H 191.347 -6.95498 -0.541084 0
M  V30 2096 H 187.244 -6.2628 -1.56346 0
M  V30 2097 H 188.012 -8.1543 -0.708275 0
M  V30 2098 N 190.675 0.682077 -1.42076 0
M  V30 2099 C 191.952 1.43755 -1.32642 0
M  V30 2100 C 192.332 2.11063 0.0396611 0
M  V30 2101 O 191.68 2.02701 1.05474 0
M  V30 2102 C 191.89 2.44596 -2.48946 0
M  V30 2103 C 193.238 3.09454 -2.9073 0
M  V30 2104 O 194.262 2.54922 -2.48783 0
M  V30 2105 O 193.121 4.08253 -3.63307 0
M  V30 2106 H 190.215 0.640857 -0.522715 0
M  V30 2107 H 192.761 0.711415 -1.54068 0
M  V30 2108 H 191.533 1.93609 -3.40046 0
M  V30 2109 H 191.156 3.24701 -2.29467 0
M  V30 2110 N 192.153 1.28127 0.917671 0
M  V30 2111 C 193.083 1.14248 2.03641 0
M  V30 2112 C 194.064 0.0412748 1.7005 0
M  V30 2113 O 195.249 0.217566 1.92977 0
M  V30 2114 C 192.379 0.799431 3.37974 0
M  V30 2115 C 191.333 1.85497 3.85713 0
M  V30 2116 C 190.659 1.36565 5.16966 0
M  V30 2117 C 191.959 3.26085 4.08002 0
M  V30 2118 H 193.653 2.07835 2.15511 0
M  V30 2119 H 191.199 1.00064 1.03553 0
M  V30 2120 H 193.152 0.689114 4.15727 0
M  V30 2121 H 191.876 -0.172145 3.26146 0
M  V30 2122 H 190.535 1.95437 3.10161 0
M  V30 2123 H 190.183 0.383253 5.01538 0
M  V30 2124 H 189.883 2.07143 5.49878 0
M  V30 2125 H 191.407 1.26848 5.97279 0
M  V30 2126 H 192.821 3.19089 4.76293 0
M  V30 2127 H 191.218 3.94462 4.52238 0
M  V30 2128 H 192.288 3.70394 3.12948 0
M  V30 2129 N 193.631 -1.12557 1.10312 0
M  V30 2130 C 194.563 -2.17971 0.708625 0
M  V30 2131 C 195.576 -1.60806 -0.254027 0
M  V30 2132 O 196.765 -1.78458 -0.0386891 0
M  V30 2133 C 193.865 -3.38891 0.0248198 0
M  V30 2134 C 193.038 -4.25548 1.01132 0
M  V30 2135 C 192.097 -5.24972 0.35924 0
M  V30 2136 O 191.123 -5.60174 1.00965 0
M  V30 2137 N 192.325 -5.73747 -0.882847 0
M  V30 2138 H 195.09 -2.52427 1.61557 0
M  V30 2139 H 192.651 -1.27967 0.991771 0
M  V30 2140 H 194.643 -4.02485 -0.422852 0
M  V30 2141 H 193.213 -3.02596 -0.784514 0
M  V30 2142 H 192.433 -3.58589 1.6373 0
M  V30 2143 H 193.721 -4.80294 1.67914 0
M  V30 2144 H 193.119 -5.4731 -1.43065 0
M  V30 2145 H 191.676 -6.39234 -1.27369 0
M  V30 2146 N 195.109 -0.891671 -1.2995 0
M  V30 2147 C 196.358 -0.509521 -1.95158 0
M  V30 2148 C 196.671 0.947388 -1.71125 0
M  V30 2149 O 197.877 1.43669 -2.30372 0
M  V30 2150 C 196.333 -0.860315 -3.49466 0
M  V30 2151 C 195.941 -2.33545 -3.8231 0
M  V30 2152 C 197.685 -0.547687 -4.20952 0
M  V30 2153 C 195.592 -2.62752 -5.29826 0
M  V30 2154 H 194.522 -0.18682 -0.730489 0
M  V30 2155 H 197.173 -1.08756 -1.47798 0
M  V30 2156 H 195.555 -0.211285 -3.95436 0
M  V30 2157 H 196.729 -3.02936 -3.47227 0
M  V30 2158 H 195.044 -2.61629 -3.23944 0
M  V30 2159 H 197.641 -0.742854 -5.29515 0
M  V30 2160 H 197.984 0.51332 -4.13123 0
M  V30 2161 H 198.517 -1.1542 -3.80688 0
M  V30 2162 H 195.256 -3.6762 -5.42712 0
M  V30 2163 H 194.776 -1.97977 -5.66185 0
M  V30 2164 H 196.455 -2.48601 -5.97333 0
M  V30 2165 N 196.587 1.43421 -0.653314 0
M  V30 2166 C 198.003 1.56341 -0.320886 0
M  V30 2167 C 198.203 1.63696 1.17499 0
M  V30 2168 O 197.259 1.59208 1.95982 0
M  V30 2169 C 198.572 2.82424 -1.03233 0
M  V30 2170 C 200.12 2.96168 -1.01259 0
M  V30 2171 C 200.595 4.25084 -1.70492 0
M  V30 2172 N 202.086 4.31948 -1.67257 0
M  V30 2173 C 202.821 5.30466 -2.17701 0
M  V30 2174 N 202.317 6.35261 -2.76434 0
M  V30 2175 N 204.11 5.2212 -2.082 0
M  V30 2176 H 196.261 1.3689 -1.62403 0
M  V30 2177 H 198.524 0.657455 -0.682977 0
M  V30 2178 H 198.23 2.83053 -2.08744 0
M  V30 2179 H 198.104 3.72653 -0.583948 0
M  V30 2180 H 200.491 2.9508 0.0341235 0
M  V30 2181 H 200.572 2.07229 -1.49966 0
M  V30 2182 H 200.216 4.26932 -2.7512 0
M  V30 2183 H 200.146 5.1292 -1.19251 0
M  V30 2184 H 202.637 3.56838 -1.24398 0
M  V30 2185 H 202.95 7.06754 -3.12601 0
M  V30 2186 H 201.295 6.35884 -2.80495 0
M  V30 2187 H 204.486 4.39166 -1.62021 0
M  V30 2188 H 204.659 5.98739 -2.47822 0
M  V30 2189 N 198.065 0.39524 1.52563 0
M  V30 2190 C 199.295 -0.184675 2.05773 0
M  V30 2191 C 199.703 -1.40571 1.26635 0
M  V30 2192 O 199.046 -1.81105 0.30769 0
M  V30 2193 C 199.108 -0.613551 3.54226 0
M  V30 2194 C 198.772 0.49484 4.54313 0
M  V30 2195 C 199.769 1.3541 5.01956 0
M  V30 2196 C 197.454 0.663565 4.97898 0
M  V30 2197 C 199.448 2.36716 5.91814 0
M  V30 2198 C 197.135 1.67996 5.87555 0
M  V30 2199 C 198.133 2.53017 6.34406 0
M  V30 2200 O 197.821 3.52917 7.22291 0
M  V30 2201 H 197.553 -0.030077 0.675331 0
M  V30 2202 H 200.107 0.560708 1.97599 0
M  V30 2203 H 198.337 -1.411 3.60038 0
M  V30 2204 H 200.026 -1.11981 3.90148 0
M  V30 2205 H 200.792 1.23509 4.6901 0
M  V30 2206 H 196.671 0.0114913 4.60999 0
M  V30 2207 H 200.215 3.03113 6.28306 0
M  V30 2208 H 196.112 1.79933 6.19915 0
M  V30 2209 H 196.88 3.48996 7.40367 0
M  V30 2210 N 199.544 -1.57102 0.125237 0
M  V30 2211 C 200.474 -2.18659 -0.819174 0
M  V30 2212 C 201.455 -1.12843 -1.27281 0
M  V30 2213 O 202.64 -1.41104 -1.33429 0
M  V30 2214 C 199.77 -2.79096 -2.06695 0
M  V30 2215 C 198.724 -3.90548 -1.75088 0
M  V30 2216 C 198.05 -4.37821 -3.06948 0
M  V30 2217 C 199.35 -5.12356 -1.01435 0
M  V30 2218 H 201.044 -2.9783 -0.306202 0
M  V30 2219 H 198.59 -1.4326 -0.145839 0
M  V30 2220 H 200.543 -3.2082 -2.73226 0
M  V30 2221 H 199.267 -1.97223 -2.60328 0
M  V30 2222 H 197.926 -3.49409 -1.10944 0
M  V30 2223 H 197.574 -3.52799 -3.58527 0
M  V30 2224 H 197.274 -5.12982 -2.86571 0
M  V30 2225 H 198.798 -4.822 -3.74587 0
M  V30 2226 H 200.212 -5.5106 -1.58132 0
M  V30 2227 H 198.609 -5.9314 -0.911319 0
M  V30 2228 H 199.679 -4.849 -0.00218681 0
M  V30 2229 N 201.022 0.148545 -1.56898 0
M  V30 2230 C 202.433 0.708766 -1.72723 0
M  V30 2231 C 202.784 1.81734 -0.739395 0
M  V30 2232 O 201.909 2.16194 0.0943169 0
M  V30 2233 C 202.504 1.29245 -3.13179 0
M  V30 2234 C 201.063 1.79925 -3.30611 0
M  V30 2235 C 200.21 0.687111 -2.68652 0
M  V30 2236 H 203.161 -0.0771063 -1.58513 0
M  V30 2237 H 203.182 2.16224 -3.13093 0
M  V30 2238 H 202.694 0.485382 -3.85053 0
M  V30 2239 H 200.795 2.63203 -2.63732 0
M  V30 2240 H 200.908 1.92903 -4.38549 0
M  V30 2241 H 199.272 1.11335 -2.29078 0
M  V30 2242 H 200.055 -0.108483 -3.43129 0
M  V30 2243 N 202.5 1.5196 0.417844 0
M  V30 2244 C 203.41 1.77554 1.53336 0
M  V30 2245 C 204.426 0.660655 1.6097 0
M  V30 2246 O 205.602 0.945099 1.77848 0
M  V30 2247 C 202.667 1.91291 2.89152 0
M  V30 2248 C 201.728 3.15183 2.91475 0
M  V30 2249 C 200.961 3.28256 4.20813 0
M  V30 2250 O 201.184 2.46798 5.14244 0
M  V30 2251 O 200.118 4.21356 4.29817 0
M  V30 2252 H 203.944 2.7222 1.34647 0
M  V30 2253 H 201.529 1.36698 0.602828 0
M  V30 2254 H 203.411 2.02199 3.69721 0
M  V30 2255 H 202.086 0.998129 3.07927 0
M  V30 2256 H 200.993 3.09739 2.09791 0
M  V30 2257 H 202.326 4.06414 2.77648 0
M  V30 2258 N 203.978 -0.674533 1.42435 0
M  V30 2259 C 205.255 -1.4305 1.33402 0
M  V30 2260 C 205.635 -2.11081 -0.0284674 0
M  V30 2261 O 204.983 -2.03257 -1.04397 0
M  V30 2262 C 205.193 -2.43272 2.50239 0
M  V30 2263 C 206.541 -3.07907 2.92367 0
M  V30 2264 O 207.565 -2.53599 2.50132 0
M  V30 2265 O 206.424 -4.0632 3.65467 0
M  V30 2266 H 203.518 -0.638076 0.526106 0
M  V30 2267 H 206.064 -0.703235 1.54443 0
M  V30 2268 H 204.836 -1.91803 3.41068 0
M  V30 2269 H 204.459 -3.23479 2.31186 0
M  V30 2270 N 205.456 -1.28612 -0.910864 0
M  V30 2271 C 206.703 -1.15934 -1.66029 0
M  V30 2272 C 207.031 0.291483 -1.92303 0
M  V30 2273 O 206.286 1.22816 -1.52364 0
M  V30 2274 C 206.585 -1.90624 -3.0232 0
M  V30 2275 C 206.251 -3.40405 -2.95695 0
M  V30 2276 C 204.913 -3.81255 -2.93595 0
M  V30 2277 C 207.265 -4.359 -2.85728 0
M  V30 2278 C 204.593 -5.15936 -2.79334 0
M  V30 2279 C 206.945 -5.70657 -2.73007 0
M  V30 2280 C 205.609 -6.10779 -2.69267 0
M  V30 2281 H 204.879 -0.424234 -0.607541 0
M  V30 2282 H 207.526 -1.5942 -1.06101 0
M  V30 2283 H 205.831 -1.39696 -3.6605 0
M  V30 2284 H 207.528 -1.78228 -3.59215 0
M  V30 2285 H 204.118 -3.07927 -2.98125 0
M  V30 2286 H 208.302 -4.053 -2.86436 0
M  V30 2287 H 203.558 -5.46146 -2.74835 0
M  V30 2288 H 207.732 -6.44311 -2.64264 0
M  V30 2289 H 205.359 -7.1509 -2.57974 0
M  V30 2290 N 206.934 1.1197 -1.10907 0
M  V30 2291 C 207.867 2.16998 -0.706192 0
M  V30 2292 C 208.845 1.59903 0.294897 0
M  V30 2293 O 210.029 1.87513 0.192636 0
M  V30 2294 C 207.156 3.38673 -0.0427664 0
M  V30 2295 C 206.202 4.14414 -1.00811 0
M  V30 2296 S 207.035 4.72079 -2.52789 0
M  V30 2297 C 208.191 5.97083 -1.87731 0
M  V30 2298 H 208.424 2.50837 -1.59587 0
M  V30 2299 H 205.957 1.23508 -0.926555 0
M  V30 2300 H 207.915 4.09142 0.333668 0
M  V30 2301 H 206.576 3.03105 0.823788 0
M  V30 2302 H 205.769 5.016 -0.491259 0
M  V30 2303 H 205.371 3.49678 -1.3267 0
M  V30 2304 H 207.663 6.66599 -1.21044 0
M  V30 2305 H 208.606 6.53403 -2.72892 0
M  V30 2306 H 209.014 5.4837 -1.33979 0
M  V30 2307 N 208.412 0.89855 1.29475 0
M  V30 2308 C 209.322 0.379974 2.31502 0
M  V30 2309 C 210.338 -0.524695 1.659 0
M  V30 2310 O 211.514 -0.414551 1.97087 0
M  V30 2311 C 208.579 -0.385138 3.44554 0
M  V30 2312 C 207.64 0.550914 4.2575 0
M  V30 2313 C 206.873 -0.177778 5.33404 0
M  V30 2314 O 207.096 -1.40189 5.52904 0
M  V30 2315 O 206.03 0.479106 5.9999 0
M  V30 2316 H 209.856 1.22639 2.77837 0
M  V30 2317 H 207.441 0.662834 1.33891 0
M  V30 2318 H 209.323 -0.817841 4.13388 0
M  V30 2319 H 207.998 -1.20763 3.0033 0
M  V30 2320 H 206.905 1.03271 3.59564 0
M  V30 2321 H 208.238 1.33979 4.73614 0
M  V30 2322 N 209.89 -1.43072 0.660911 0
M  V30 2323 C 211.115 -2.06584 0.183805 0
M  V30 2324 C 211.54 -1.49257 -1.14472 0
M  V30 2325 O 210.898 -0.605528 -1.70889 0
M  V30 2326 C 210.946 -3.60418 0.114434 0
M  V30 2327 O 210.05 -4.01981 -0.921137 0
M  V30 2328 H 209.391 -0.656669 0.0983994 0
M  V30 2329 H 211.921 -1.83447 0.906006 0
M  V30 2330 H 211.931 -4.07946 -0.0663394 0
M  V30 2331 H 210.606 -4.01519 1.08422 0
M  V30 2332 H 209.183 -3.66029 -0.71253 0
M  V30 2333 N 211.368 -0.403325 -1.52352 0
M  V30 2334 C 212.298 0.416205 -2.29761 0
M  V30 2335 C 213.279 1.05123 -1.33728 0
M  V30 2336 O 214.464 1.06134 -1.62632 0
M  V30 2337 C 211.594 1.53624 -3.11475 0
M  V30 2338 C 210.548 1.02653 -4.15507 0
M  V30 2339 C 209.874 2.23971 -4.85532 0
M  V30 2340 C 211.174 0.08463 -5.22231 0
M  V30 2341 H 212.868 -0.229701 -2.98518 0
M  V30 2342 H 210.414 -0.111913 -1.43564 0
M  V30 2343 H 212.367 2.1165 -3.64393 0
M  V30 2344 H 211.091 2.20994 -2.40477 0
M  V30 2345 H 209.75 0.46871 -3.63591 0
M  V30 2346 H 209.398 2.89883 -4.11068 0
M  V30 2347 H 209.098 1.90521 -5.55856 0
M  V30 2348 H 210.622 2.82614 -5.41259 0
M  V30 2349 H 212.036 0.573509 -5.70424 0
M  V30 2350 H 210.433 -0.160783 -5.99885 0
M  V30 2351 H 211.503 -0.86237 -4.7717 0
M  V30 2352 N 212.846 1.57033 -0.133567 0
M  V30 2353 C 213.793 2.16074 0.811208 0
M  V30 2354 C 214.763 1.08979 1.2535 0
M  V30 2355 O 215.948 1.36958 1.32843 0
M  V30 2356 C 213.088 2.77595 2.05024 0
M  V30 2357 C 212.201 3.99042 1.65498 0
M  V30 2358 C 211.336 4.48603 2.84479 0
M  V30 2359 C 210.375 5.62547 2.41262 0
M  V30 2360 N 209.512 6.06787 3.53206 0
M  V30 2361 H 214.352 2.96477 0.300906 0
M  V30 2362 H 211.889 1.46462 0.136822 0
M  V30 2363 H 213.847 3.11402 2.77642 0
M  V30 2364 H 212.477 1.99859 2.53488 0
M  V30 2365 H 211.529 3.71302 0.826981 0
M  V30 2366 H 212.841 4.81629 1.29748 0
M  V30 2367 H 211.995 4.84395 3.65303 0
M  V30 2368 H 210.734 3.64995 3.23465 0
M  V30 2369 H 209.739 5.26345 1.58874 0
M  V30 2370 H 210.964 6.47931 2.03377 0
M  V30 2371 H 208.91 5.26117 3.91838 0
M  V30 2372 H 208.827 6.84266 3.21427 0
M  V30 2373 H 210.095 6.4722 4.34427 0
M  V30 2374 N 214.325 -0.140222 1.56975 0
M  V30 2375 C 215.235 -1.19223 2.02047 0
M  V30 2376 C 216.251 -1.46612 0.937062 0
M  V30 2377 O 217.427 -1.58148 1.24704 0
M  V30 2378 C 214.492 -2.50414 2.39778 0
M  V30 2379 C 213.553 -2.30612 3.621 0
M  V30 2380 C 212.786 -3.55547 3.98023 0
M  V30 2381 O 213.009 -4.62004 3.34528 0
M  V30 2382 O 211.943 -3.47808 4.91237 0
M  V30 2383 H 215.769 -0.839559 2.91865 0
M  V30 2384 H 213.354 -0.349453 1.45256 0
M  V30 2385 H 215.236 -3.27747 2.64877 0
M  V30 2386 H 213.911 -2.85198 1.53114 0
M  V30 2387 H 212.818 -1.51207 3.4218 0
M  V30 2388 H 214.151 -2.00741 4.49404 0
M  V30 2389 N 215.803 -1.52179 -0.40978 0
M  V30 2390 C 217.08 -1.56769 -1.16974 0
M  V30 2391 C 217.46 -0.348322 -2.08206 0
M  V30 2392 O 216.808 0.664862 -2.18613 0
M  V30 2393 C 217.018 -2.89603 -1.9476 0
M  V30 2394 C 218.366 -3.42579 -2.50849 0
M  V30 2395 O 219.39 -2.91338 -2.04941 0
M  V30 2396 O 218.249 -4.32054 -3.34652 0
M  V30 2397 H 215.343 -0.631439 -0.534054 0
M  V30 2398 H 217.889 -1.64507 -0.416613 0
M  V30 2399 H 216.661 -3.698 -1.27921 0
M  V30 2400 H 216.284 -2.85155 -2.77079 0
M  V30 2401 N 217.281 0.66697 -1.42791 0
M  V30 2402 C 218.697 0.981027 -1.25889 0
M  V30 2403 C 218.897 2.00793 -0.168695 0
M  V30 2404 O 217.953 2.48321 0.45747 0
M  V30 2405 C 219.266 1.47838 -2.61848 0
M  V30 2406 C 220.814 1.59575 -2.69267 0
M  V30 2407 C 221.289 2.12704 -4.05612 0
M  V30 2408 N 222.78 2.20026 -4.07606 0
M  V30 2409 C 223.515 2.62227 -5.09926 0
M  V30 2410 N 223.011 3.03824 -6.22626 0
M  V30 2411 N 224.804 2.62045 -4.97281 0
M  V30 2412 H 216.955 -0.0127891 -2.12396 0
M  V30 2413 H 219.218 0.0568258 -0.946295 0
M  V30 2414 H 218.924 0.798299 -3.4252 0
M  V30 2415 H 218.798 2.45579 -2.86305 0
M  V30 2416 H 221.185 2.26687 -1.88936 0
M  V30 2417 H 221.266 0.60302 -2.48591 0
M  V30 2418 H 220.91 1.46198 -4.86404 0
M  V30 2419 H 220.84 3.12782 -4.23645 0
M  V30 2420 H 223.331 1.90708 -3.2625 0
M  V30 2421 H 223.644 3.34734 -6.96544 0
M  V30 2422 H 221.989 3.01662 -6.26119 0
M  V30 2423 H 225.18 2.28916 -4.08308 0
M  V30 2424 H 225.353 2.94613 -5.77154 0
M  V30 2425 N 218.759 1.29093 0.90403 0
M  V30 2426 C 219.987 1.19689 1.68766 0
M  V30 2427 C 220.402 -0.243113 1.87228 0
M  V30 2428 O 219.759 -1.16326 1.40621 0
M  V30 2429 C 219.81 1.90144 3.07453 0
M  V30 2430 O 219.531 3.2852 2.89838 0
M  V30 2431 C 221.032 1.87162 4.01852 0
M  V30 2432 H 218.252 0.415035 0.527244 0
M  V30 2433 H 220.796 1.7039 1.13082 0
M  V30 2434 H 218.951 1.43289 3.59926 0
M  V30 2435 H 219.365 3.63944 3.77684 0
M  V30 2436 H 220.839 2.41032 4.96596 0
M  V30 2437 H 221.316 0.84617 4.30972 0
M  V30 2438 H 221.922 2.33741 3.5531 0
M  V30 2439 N 220.237 -1.11381 1.11499 0
M  V30 2440 C 221.465 -1.86934 0.88675 0
M  V30 2441 C 221.88 -1.80195 -0.563476 0
M  V30 2442 O 221.237 -1.18367 -1.38908 0
M  V30 2443 C 221.288 -3.35722 1.34064 0
M  V30 2444 O 221.009 -3.4232 2.73401 0
M  V30 2445 C 222.51 -4.2818 1.14791 0
M  V30 2446 H 219.73 -0.591117 0.317523 0
M  V30 2447 H 222.274 -1.40865 1.48248 0
M  V30 2448 H 220.429 -3.79294 0.788355 0
M  V30 2449 H 220.843 -4.34971 2.93087 0
M  V30 2450 H 222.317 -5.30817 1.5145 0
M  V30 2451 H 222.794 -4.39113 0.0875279 0
M  V30 2452 H 223.4 -3.90402 1.68721 0
M  V30 2453 N 221.715 -0.905404 -1.28997 0
M  V30 2454 C 222.645 -0.404212 -2.29975 0
M  V30 2455 C 223.626 0.523784 -1.61835 0
M  V30 2456 O 224.811 0.433298 -1.89304 0
M  V30 2457 C 221.941 0.364042 -3.45387 0
M  V30 2458 C 220.895 -0.474048 -4.25367 0
M  V30 2459 C 220.221 0.422045 -5.33032 0
M  V30 2460 C 221.521 -1.72696 -4.92923 0
M  V30 2461 H 223.215 -1.24807 -2.72146 0
M  V30 2462 H 220.761 -0.601585 -1.30832 0
M  V30 2463 H 222.714 0.725447 -4.15109 0
M  V30 2464 H 221.438 1.24174 -3.02074 0
M  V30 2465 H 220.097 -0.81786 -3.57361 0
M  V30 2466 H 219.745 1.29804 -4.85963 0
M  V30 2467 H 219.445 -0.135057 -5.87445 0
M  V30 2468 H 220.969 0.779517 -6.05604 0
M  V30 2469 H 222.383 -1.43495 -5.55051 0
M  V30 2470 H 220.78 -2.22582 -5.57295 0
M  V30 2471 H 221.85 -2.45964 -4.17887 0
M  V30 2472 N 223.193 1.4272 -0.668489 0
M  V30 2473 C 224.123 2.335 -0.000100175 0
M  V30 2474 C 225.104 1.50328 0.795964 0
M  V30 2475 O 226.289 1.78949 0.754385 0
M  V30 2476 C 223.419 3.33874 0.956302 0
M  V30 2477 C 222.373 4.27152 0.269278 0
M  V30 2478 C 221.699 5.17684 1.33818 0
M  V30 2479 C 222.999 5.15373 -0.847805 0
M  V30 2480 H 224.693 2.89639 -0.758244 0
M  V30 2481 H 222.239 1.39269 -0.366079 0
M  V30 2482 H 224.192 3.9629 1.43292 0
M  V30 2483 H 222.916 2.76025 1.74579 0
M  V30 2484 H 221.575 3.66123 -0.187042 0
M  V30 2485 H 221.223 4.56165 2.1195 0
M  V30 2486 H 220.923 5.80918 0.883659 0
M  V30 2487 H 222.447 5.82974 1.81586 0
M  V30 2488 H 223.861 5.7151 -0.452681 0
M  V30 2489 H 222.258 5.87407 -1.22773 0
M  V30 2490 H 223.328 4.5415 -1.69929 0
M  V30 2491 N 224.671 0.411399 1.52136 0
M  V30 2492 C 225.901 -0.16284 2.05957 0
M  V30 2493 C 226.309 -1.3922 1.28119 0
M  V30 2494 O 225.652 -1.80768 0.326881 0
M  V30 2495 C 225.714 -0.575946 3.54856 0
M  V30 2496 C 225.378 0.542998 4.53763 0
M  V30 2497 C 226.375 1.40726 5.00492 0
M  V30 2498 C 224.06 0.716337 4.97166 0
M  V30 2499 C 226.054 2.4298 5.8927 0
M  V30 2500 C 223.741 1.74218 5.8574 0
M  V30 2501 C 224.739 2.59731 6.31687 0
M  V30 2502 O 224.427 3.60558 7.18507 0
M  V30 2503 H 224.159 -0.0229125 0.675612 0
M  V30 2504 H 226.713 0.581634 1.96993 0
M  V30 2505 H 224.943 -1.37274 3.61515 0
M  V30 2506 H 226.632 -1.07836 3.91313 0
M  V30 2507 H 227.398 1.28476 4.67674 0
M  V30 2508 H 223.277 0.0603857 4.6096 0
M  V30 2509 H 226.821 3.0976 6.25055 0
M  V30 2510 H 222.718 1.86498 6.17971 0
M  V30 2511 H 223.486 3.56829 7.36624 0
M  V30 2512 N 226.149 -1.5696 0.141893 0
M  V30 2513 C 227.396 -1.9596 -0.510492 0
M  V30 2514 C 227.724 -1.02648 -1.65208 0
M  V30 2515 O 226.979 -0.0546947 -1.95624 0
M  V30 2516 C 227.278 -3.41242 -1.06249 0
M  V30 2517 C 226.944 -4.50882 -0.0398791 0
M  V30 2518 C 225.606 -4.80595 0.241247 0
M  V30 2519 C 227.958 -5.17058 0.65578 0
M  V30 2520 C 225.286 -5.73792 1.22393 0
M  V30 2521 C 227.638 -6.11313 1.62724 0
M  V30 2522 C 226.302 -6.39407 1.91612 0
M  V30 2523 H 225.572 -0.717068 -0.186802 0
M  V30 2524 H 228.219 -1.90142 0.227643 0
M  V30 2525 H 226.524 -3.43866 -1.87785 0
M  V30 2526 H 228.221 -3.68742 -1.57576 0
M  V30 2527 H 224.811 -4.27754 -0.269174 0
M  V30 2528 H 228.995 -4.94239 0.451779 0
M  V30 2529 H 224.251 -5.93853 1.45424 0
M  V30 2530 H 228.425 -6.61668 2.17183 0
M  V30 2531 H 226.052 -7.11427 2.6791 0
M  V30 2532 N 227.627 0.131896 -1.57047 0
M  V30 2533 C 228.857 0.855219 -1.88068 0
M  V30 2534 C 229.265 1.74557 -0.729817 0
M  V30 2535 O 228.608 1.81083 0.308962 0
M  V30 2536 C 228.67 1.75119 -3.13964 0
M  V30 2537 C 228.334 1.03646 -4.45091 0
M  V30 2538 C 229.331 0.383276 -5.18485 0
M  V30 2539 C 227.016 1.02148 -4.91804 0
M  V30 2540 C 229.01 -0.275347 -6.36805 0
M  V30 2541 C 226.697 0.359047 -6.10044 0
M  V30 2542 C 227.695 -0.288222 -6.82392 0
M  V30 2543 O 227.383 -0.94011 -7.98384 0
M  V30 2544 H 227.115 0.251864 -0.627328 0
M  V30 2545 H 229.669 0.124782 -2.05021 0
M  V30 2546 H 227.899 2.52295 -2.9306 0
M  V30 2547 H 229.588 2.3478 -3.31109 0
M  V30 2548 H 230.354 0.386562 -4.83457 0
M  V30 2549 H 226.233 1.5147 -4.35405 0
M  V30 2550 H 229.777 -0.781148 -6.93213 0
M  V30 2551 H 225.674 0.35348 -6.44531 0
M  V30 2552 H 226.442 -0.84329 -8.14144 0
M  V30 2553 N 229.106 1.52395 0.401703 0
M  V30 2554 C 230.038 1.72505 1.50912 0
M  V30 2555 C 231.051 0.605468 1.51122 0
M  V30 2556 O 232.24 0.880828 1.55254 0
M  V30 2557 C 229.34 1.75711 2.89791 0
M  V30 2558 C 228.513 3.04824 3.1369 0
M  V30 2559 C 227.572 2.99743 4.32482 0
M  V30 2560 O 226.598 3.73635 4.29402 0
M  V30 2561 N 227.8 2.18047 5.37992 0
M  V30 2562 H 230.565 2.68049 1.34052 0
M  V30 2563 H 228.126 1.50724 0.591084 0
M  V30 2564 H 230.118 1.69834 3.6734 0
M  V30 2565 H 228.688 0.876092 3.00072 0
M  V30 2566 H 227.908 3.2429 2.24119 0
M  V30 2567 H 229.196 3.90221 3.26504 0
M  V30 2568 H 228.594 1.57456 5.43345 0
M  V30 2569 H 227.151 2.18021 6.14256 0
M  V30 2570 N 230.584 -0.659388 1.43143 0
M  V30 2571 C 231.516 -1.7849 1.43784 0
M  V30 2572 C 232.529 -1.5932 0.334787 0
M  V30 2573 O 233.718 -1.68155 0.598842 0
M  V30 2574 C 230.818 -3.15828 1.22906 0
M  V30 2575 C 229.991 -3.61711 2.45934 0
M  V30 2576 C 229.05 -4.77831 2.20371 0
M  V30 2577 O 228.076 -4.87586 2.93681 0
M  V30 2578 N 229.278 -5.67611 1.21647 0
M  V30 2579 H 232.043 -1.7842 2.40803 0
M  V30 2580 H 229.604 -0.84302 1.3822 0
M  V30 2581 H 231.596 -3.91189 1.03697 0
M  V30 2582 H 230.166 -3.10707 0.343542 0
M  V30 2583 H 229.386 -2.76861 2.80609 0
M  V30 2584 H 230.674 -3.89112 3.27825 0
M  V30 2585 H 230.072 -5.62397 0.610449 0
M  V30 2586 H 228.629 -6.42719 1.08423 0
M  V30 2587 N 232.062 -1.29571 -0.897171 0
M  V30 2588 C 232.992 -1.17473 -2.01798 0
M  V30 2589 C 233.973 -0.068323 -1.69963 0
M  V30 2590 O 235.158 -0.248239 -1.92607 0
M  V30 2591 C 232.288 -0.853099 -3.36659 0
M  V30 2592 C 231.242 -1.9161 -3.82713 0
M  V30 2593 C 230.568 -1.44773 -5.14728 0
M  V30 2594 C 231.868 -3.32535 -4.02763 0
M  V30 2595 H 233.562 -2.11237 -2.12177 0
M  V30 2596 H 231.108 -1.01699 -1.01948 0
M  V30 2597 H 233.061 -0.755165 -4.14578 0
M  V30 2598 H 231.785 0.120236 -3.26379 0
M  V30 2599 H 230.444 -2.00346 -3.07013 0
M  V30 2600 H 230.092 -0.462995 -5.00865 0
M  V30 2601 H 229.792 -2.15865 -5.46513 0
M  V30 2602 H 231.316 -1.36334 -5.95185 0
M  V30 2603 H 232.73 -3.26626 -4.71156 0
M  V30 2604 H 231.127 -4.01607 -4.45905 0
M  V30 2605 H 232.197 -3.75326 -3.07016 0
M  V30 2606 N 233.54 1.10788 -1.12088 0
M  V30 2607 C 234.956 1.34691 -0.856186 0
M  V30 2608 C 235.156 1.94791 0.515615 0
M  V30 2609 O 234.212 2.18524 1.26505 0
M  V30 2610 C 235.525 2.27208 -1.9697 0
M  V30 2611 C 237.073 2.40755 -2.00016 0
M  V30 2612 C 237.548 3.36598 -3.1059 0
M  V30 2613 N 239.039 3.44164 -3.10008 0
M  V30 2614 C 239.774 4.18284 -3.92206 0
M  V30 2615 N 239.27 4.95322 -4.84384 0
M  V30 2616 N 241.063 4.13865 -3.80357 0
M  V30 2617 H 233.214 0.70144 -2.00483 0
M  V30 2618 H 235.477 0.371405 -0.872217 0
M  V30 2619 H 235.183 1.90251 -2.958 0
M  V30 2620 H 235.057 3.27485 -1.87172 0
M  V30 2621 H 237.444 2.76982 -1.01808 0
M  V30 2622 H 237.525 1.40305 -2.13888 0
M  V30 2623 H 237.169 3.01096 -4.09028 0
M  V30 2624 H 237.099 4.36918 -2.93956 0
M  V30 2625 H 239.59 2.8922 -2.43228 0
M  V30 2626 H 239.903 5.49267 -5.43623 0
M  V30 2627 H 238.248 4.94459 -4.884 0
M  V30 2628 H 241.439 3.52773 -3.07683 0
M  V30 2629 H 241.612 4.71372 -4.44649 0
M  V30 2630 N 235.018 0.912232 1.28515 0
M  V30 2631 C 235.966 0.389597 2.29314 0
M  V30 2632 C 236.96 -0.517915 1.61289 0
M  V30 2633 O 238.166 -0.399328 1.75515 0
M  V30 2634 H 234.541 0.107386 0.744293 0
M  V30 2635 H 236.512 1.25286 2.70825 0
M  V30 2636 C 235.261 -0.356496 3.45868 0
M  V30 2637 H 234.584 0.332608 3.98414 0
M  V30 2638 H 236.024 -0.686851 4.184 0
M  V30 2639 C 234.483 -1.56383 2.98406 0
M  V30 2640 O 235.013 -2.66294 3.00749 0
M  V30 2641 N 233.219 -1.41029 2.54085 0
M  V30 2642 H 232.766 -0.516089 2.52377 0
M  V30 2643 H 232.724 -2.21939 2.22689 0
M  V30 2644 N 236.496 -1.42363 0.676048 0
M  V30 2645 C 237.773 -1.95183 0.127726 0
M  V30 2646 C 238.153 -1.61641 -1.35777 0
M  V30 2647 O 237.501 -0.913216 -2.09458 0
M  V30 2648 C 237.711 -3.46721 0.398199 0
M  V30 2649 C 239.059 -4.23427 0.315383 0
M  V30 2650 O 240.083 -3.54649 0.332016 0
M  V30 2651 O 238.942 -5.45888 0.25865 0
M  V30 2652 H 236.036 -0.826992 0.00359427 0
M  V30 2653 H 238.582 -1.52184 0.750864 0
M  V30 2654 H 237.354 -3.64344 1.4272 0
M  V30 2655 H 236.977 -3.96769 -0.256885 0
M  V30 2656 N 237.974 -0.419461 -1.51915 0
M  V30 2657 C 239.204 0.151915 -2.06041 0
M  V30 2658 C 239.612 1.38539 -1.28855 0
M  V30 2659 O 238.955 1.80592 -0.336463 0
M  V30 2660 C 239.017 0.557119 -3.55157 0
M  V30 2661 C 238.681 -0.567054 -4.53468 0
M  V30 2662 C 239.678 -1.43379 -4.99738 0
M  V30 2663 C 237.363 -0.742693 -4.96779 0
M  V30 2664 C 239.357 -2.46102 -5.87973 0
M  V30 2665 C 237.044 -1.77322 -5.84808 0
M  V30 2666 C 238.042 -2.63078 -6.30301 0
M  V30 2667 O 237.73 -3.64364 -7.16585 0
M  V30 2668 H 237.462 0.0193293 -0.675724 0
M  V30 2669 H 240.016 -0.592073 -1.96682 0
M  V30 2670 H 238.246 1.35355 -3.62238 0
M  V30 2671 H 239.935 1.05759 -3.9188 0
M  V30 2672 H 240.701 -1.30954 -4.66986 0
M  V30 2673 H 236.58 -0.0848307 -4.60922 0
M  V30 2674 H 240.124 -3.13071 -6.23404 0
M  V30 2675 H 236.021 -1.89773 -6.16974 0
M  V30 2676 H 236.789 -3.60731 -7.34721 0
M  V30 2677 N 239.452 1.56882 -0.150215 0
M  V30 2678 C 240.385 2.12712 0.826358 0
M  V30 2679 C 241.363 1.05154 1.24022 0
M  V30 2680 O 242.547 1.33004 1.33575 0
M  V30 2681 C 239.674 2.64945 2.11002 0
M  V30 2682 C 238.72 3.8468 1.84183 0
M  V30 2683 S 239.553 5.25502 1.02995 0
M  V30 2684 C 240.709 5.81125 2.32474 0
M  V30 2685 H 240.942 2.95214 0.351598 0
M  V30 2686 H 238.475 1.54267 0.0641211 0
M  V30 2687 H 240.433 2.95689 2.84742 0
M  V30 2688 H 239.094 1.82568 2.55593 0
M  V30 2689 H 238.287 4.19482 2.79375 0
M  V30 2690 H 237.889 3.54714 1.1855 0
M  V30 2691 H 240.181 5.92753 3.281 0
M  V30 2692 H 241.124 6.78625 2.02171 0
M  V30 2693 H 241.532 5.09392 2.43269 0
M  V30 2694 N 240.93 -0.123565 1.57115 0
M  V30 2695 C 241.862 -1.17739 1.96648 0
M  V30 2696 C 242.875 -1.37906 0.865201 0
M  V30 2697 O 244.064 -1.37062 1.14351 0
M  V30 2698 C 241.164 -2.53821 2.24562 0
M  V30 2699 C 240.337 -2.54317 3.55867 0
M  V30 2700 C 239.396 -3.72112 3.72047 0
M  V30 2701 O 238.422 -3.55907 4.44206 0
M  V30 2702 N 239.624 -4.90498 3.10471 0
M  V30 2703 H 242.389 -0.841147 2.87654 0
M  V30 2704 H 239.95 -0.31289 1.58848 0
M  V30 2705 H 241.942 -3.31175 2.32606 0
M  V30 2706 H 240.512 -2.79645 1.39705 0
M  V30 2707 H 239.732 -1.62711 3.59053 0
M  V30 2708 H 241.02 -2.51701 4.42181 0
M  V30 2709 H 240.418 -5.06567 2.51806 0
M  V30 2710 H 238.975 -5.65544 3.24043 0
M  V30 2711 N 242.408 -1.52605 -0.393616 0
M  V30 2712 C 243.824 -1.41753 -0.733357 0
M  V30 2713 C 244.024 -0.534293 -1.94287 0
M  V30 2714 O 243.08 -0.0059787 -2.52499 0
M  V30 2715 C 244.393 -2.84531 -0.972772 0
M  V30 2716 C 245.941 -2.93978 -1.07453 0
M  V30 2717 C 246.416 -4.37756 -1.3466 0
M  V30 2718 N 247.907 -4.4106 -1.41492 0
M  V30 2719 C 248.642 -5.49387 -1.642 0
M  V30 2720 N 248.138 -6.67806 -1.8441 0
M  V30 2721 N 249.931 -5.36923 -1.66342 0
M  V30 2722 H 242.082 -2.08555 0.402328 0
M  V30 2723 H 244.345 -0.940654 0.117789 0
M  V30 2724 H 244.051 -3.51353 -0.156204 0
M  V30 2725 H 243.925 -3.26508 -1.88871 0
M  V30 2726 H 246.312 -2.27326 -1.88167 0
M  V30 2727 H 246.393 -2.55435 -0.136605 0
M  V30 2728 H 246.037 -5.04972 -0.544581 0
M  V30 2729 H 245.967 -4.73848 -2.2973 0
M  V30 2730 H 248.458 -3.55705 -1.27601 0
M  V30 2731 H 248.771 -7.46141 -2.01231 0
M  V30 2732 H 247.116 -6.70843 -1.81644 0
M  V30 2733 H 250.307 -4.43381 -1.50102 0
M  V30 2734 H 250.48 -6.21416 -1.837 0
M  V30 2735 N 243.887 0.651787 -1.4349 0
M  V30 2736 C 245.117 1.43728 -1.48411 0
M  V30 2737 C 245.525 1.8893 -0.10103 0
M  V30 2738 O 244.868 1.60182 0.899307 0
M  V30 2739 C 244.93 2.70411 -2.36893 0
M  V30 2740 C 244.594 2.4714 -3.8441 0
M  V30 2741 C 245.591 2.10271 -4.75481 0
M  V30 2742 C 243.276 2.6142 -4.28912 0
M  V30 2743 C 245.27 1.87982 -6.0905 0
M  V30 2744 C 242.957 2.38746 -5.62533 0
M  V30 2745 C 243.955 2.02083 -6.5242 0
M  V30 2746 O 243.643 1.79647 -7.8357 0
M  V30 2747 H 243.375 0.447962 -0.506267 0
M  V30 2748 H 245.929 0.80624 -1.88915 0
M  V30 2749 H 244.159 3.36079 -1.91278 0
M  V30 2750 H 245.848 3.32364 -2.33 0
M  V30 2751 H 246.614 1.98814 -4.42378 0
M  V30 2752 H 242.493 2.88931 -3.59222 0
M  V30 2753 H 246.037 1.5929 -6.7917 0
M  V30 2754 H 241.934 2.49806 -5.95203 0
M  V30 2755 H 242.702 1.9406 -7.95162 0
M  V30 2756 N 245.365 1.30045 0.890287 0
M  V30 2757 C 246.328 1.15963 1.977 0
M  V30 2758 C 247.328 0.0923777 1.60534 0
M  V30 2759 O 248.518 0.340071 1.70848 0
M  V30 2760 C 245.65 0.775451 3.31963 0
M  V30 2761 H 246.843 2.12502 2.11619 0
M  V30 2762 H 244.396 1.13366 1.07601 0
M  V30 2763 H 245.131 -0.189671 3.23745 0
M  V30 2764 H 244.916 1.54668 3.60306 0
M  V30 2765 H 246.406 0.700251 4.11687 0
M  V30 2766 N 246.843 -1.10192 1.12674 0
M  V30 2767 C 248.068 -1.86523 0.906853 0
M  V30 2768 C 248.493 -1.80221 -0.538711 0
M  V30 2769 O 247.851 -1.17396 -1.38158 0
M  V30 2770 C 247.899 -3.32758 1.3894 0
M  V30 2771 O 247.003 -4.08449 0.5695 0
M  V30 2772 H 246.344 -0.578678 0.325619 0
M  V30 2773 H 248.874 -1.39203 1.49946 0
M  V30 2774 H 248.884 -3.83608 1.38958 0
M  V30 2775 H 247.559 -3.36661 2.44197 0
M  V30 2776 H 246.136 -3.67427 0.636528 0
M  V30 2777 N 248.321 -0.919034 -1.28029 0
M  V30 2778 C 249.268 -0.410005 -2.27129 0
M  V30 2779 C 250.238 0.518405 -1.57803 0
M  V30 2780 O 251.423 0.439451 -1.8567 0
M  V30 2781 C 248.563 0.339054 -3.4343 0
M  V30 2782 C 247.676 -0.622468 -4.27492 0
M  V30 2783 C 246.811 0.145567 -5.31001 0
M  V30 2784 C 245.85 -0.809226 -6.06727 0
M  V30 2785 N 244.987 -0.0743728 -7.02061 0
M  V30 2786 H 249.827 -1.26011 -2.70047 0
M  V30 2787 H 247.364 -0.632663 -1.328 0
M  V30 2788 H 249.322 0.789586 -4.0966 0
M  V30 2789 H 247.952 1.15346 -3.01488 0
M  V30 2790 H 247.004 -1.19153 -3.61257 0
M  V30 2791 H 248.316 -1.35252 -4.80113 0
M  V30 2792 H 247.47 0.656417 -6.03139 0
M  V30 2793 H 246.209 0.908643 -4.79161 0
M  V30 2794 H 245.214 -1.3314 -5.33436 0
M  V30 2795 H 246.439 -1.57194 -6.60656 0
M  V30 2796 H 244.385 0.670616 -6.52563 0
M  V30 2797 H 244.302 -0.744157 -7.52329 0
M  V30 2798 H 245.57 0.416109 -7.78389 0
M  V30 2799 N 249.799 1.42003 -0.683588 0
M  V30 2800 C 251.045 2.01712 -0.209825 0
M  V30 2801 C 251.378 1.53968 1.18353 0
M  V30 2802 O 250.653 0.745661 1.79639 0
M  V30 2803 C 250.936 3.59202 -0.254197 0
M  V30 2804 C 250.789 4.17102 -1.68363 0
M  V30 2805 C 252.108 4.38344 0.392709 0
M  V30 2806 H 249.227 0.732891 -0.0777189 0
M  V30 2807 H 251.869 1.68909 -0.87004 0
M  V30 2808 H 250.019 3.87278 0.307954 0
M  V30 2809 H 251.691 3.99946 -2.29871 0
M  V30 2810 H 249.934 3.72597 -2.22157 0
M  V30 2811 H 250.605 5.26249 -1.6663 0
M  V30 2812 H 253.081 4.16011 -0.0859162 0
M  V30 2813 H 251.957 5.47901 0.331063 0
M  V30 2814 H 252.218 4.16887 1.47164 0
M  V30 2815 N 251.277 0.427512 1.51691 0
M  V30 2816 C 252.502 -0.143601 2.06902 0
M  V30 2817 C 252.927 -1.36536 1.29382 0
M  V30 2818 O 252.285 -1.78289 0.329043 0
M  V30 2819 C 252.333 -0.454207 3.57728 0
M  V30 2820 O 251.437 -1.54228 3.82475 0
M  V30 2821 H 250.778 -0.00617128 0.663971 0
M  V30 2822 H 253.308 0.606014 1.95419 0
M  V30 2823 H 253.318 -0.707525 4.01818 0
M  V30 2824 H 251.993 0.438812 4.13579 0
M  V30 2825 H 250.57 -1.2797 3.50254 0
M  V30 2826 N 252.755 -1.56801 0.158532 0
M  V30 2827 C 253.665 -2.20916 -0.789518 0
M  V30 2828 C 254.681 -1.1969 -1.26294 0
M  V30 2829 O 255.857 -1.52308 -1.31773 0
M  V30 2830 C 252.922 -2.82727 -2.00665 0
M  V30 2831 C 251.983 -3.99114 -1.58134 0
M  V30 2832 C 251.216 -4.57968 -2.74045 0
M  V30 2833 O 251.439 -4.15704 -3.90572 0
M  V30 2834 O 250.373 -5.48047 -2.48855 0
M  V30 2835 H 254.199 -3.02464 -0.273681 0
M  V30 2836 H 251.784 -1.4924 -0.0690548 0
M  V30 2837 H 253.666 -3.21968 -2.71872 0
M  V30 2838 H 252.341 -2.04184 -2.51179 0
M  V30 2839 H 251.248 -3.64567 -0.839155 0
M  V30 2840 H 252.581 -4.79212 -1.12325 0
M  V30 2841 N 254.233 0.115231 -1.57178 0
M  V30 2842 C 255.481 0.820727 -1.84685 0
M  V30 2843 C 255.802 1.80237 -0.744279 0
M  V30 2844 O 255.072 1.94529 0.231375 0
M  V30 2845 H 253.652 0.306084 -0.681411 0
M  V30 2846 H 256.314 0.101656 -1.94635 0
M  V30 2847 H 255.41 1.36366 -2.80733 0
M  V30 2848 N 255.711 1.52812 0.385517 0
M  V30 2849 C 256.644 1.72592 1.49289 0
M  V30 2850 C 257.622 0.573819 1.52138 0
M  V30 2851 O 258.806 0.80404 1.70492 0
M  V30 2852 C 255.933 1.78669 2.87741 0
M  V30 2853 C 254.979 3.00455 3.02703 0
M  V30 2854 S 255.812 4.60366 2.73538 0
M  V30 2855 C 256.968 4.69263 4.14177 0
M  V30 2856 H 257.201 2.66248 1.32285 0
M  V30 2857 H 254.734 1.43148 0.578611 0
M  V30 2858 H 256.692 1.82855 3.67524 0
M  V30 2859 H 255.353 0.861 3.02069 0
M  V30 2860 H 254.546 3.01258 4.04054 0
M  V30 2861 H 254.148 2.94278 2.30817 0
M  V30 2862 H 256.44 4.48092 5.08153 0
M  V30 2863 H 257.383 5.71276 4.18388 0
M  V30 2864 H 257.791 3.98072 4.00249 0
M  V30 2865 N 257.189 -0.644168 1.43834 0
M  V30 2866 C 258.152 -1.73857 1.49353 0
M  V30 2867 C 259.152 -1.56315 0.377112 0
M  V30 2868 O 260.342 -1.62048 0.639226 0
M  V30 2869 C 257.474 -3.12819 1.35488 0
M  V30 2870 H 258.667 -1.70342 2.46827 0
M  V30 2871 H 256.22 -0.856652 1.30733 0
M  V30 2872 H 256.955 -3.2194 0.390569 0
M  V30 2873 H 256.74 -3.26958 2.16428 0
M  V30 2874 H 258.23 -3.92606 1.42302 0
M  V30 2875 N 258.668 -1.30515 -0.883378 0
M  V30 2876 C 259.598 -1.19607 -2.00541 0
M  V30 2877 C 260.579 -0.086346 -1.69881 0
M  V30 2878 O 261.764 -0.268654 -1.92333 0
M  V30 2879 C 258.894 -0.888758 -3.35736 0
M  V30 2880 C 257.848 -1.95659 -3.8066 0
M  V30 2881 C 257.174 -1.50224 -5.13164 0
M  V30 2882 C 258.474 -3.36788 -3.99213 0
M  V30 2883 H 260.168 -2.13476 -2.09925 0
M  V30 2884 H 257.714 -1.02775 -1.00863 0
M  V30 2885 H 259.667 -0.799094 -4.13754 0
M  V30 2886 H 258.391 0.0856125 -3.26488 0
M  V30 2887 H 257.05 -2.03591 -3.04871 0
M  V30 2888 H 256.698 -0.516092 -5.00345 0
M  V30 2889 H 256.398 -2.2165 -5.44192 0
M  V30 2890 H 257.922 -1.42639 -5.93706 0
M  V30 2891 H 259.336 -3.31605 -4.67665 0
M  V30 2892 H 257.733 -4.06314 -4.41621 0
M  V30 2893 H 258.803 -3.78561 -3.03017 0
M  V30 2894 N 260.146 1.09593 -1.13257 0
M  V30 2895 C 261.078 2.16015 -0.766167 0
M  V30 2896 C 262.091 1.61423 0.211303 0
M  V30 2897 O 263.28 1.78498 -0.00863946 0
M  V30 2898 C 260.38 3.38706 -0.114662 0
M  V30 2899 C 259.553 4.22717 -1.12379 0
M  V30 2900 C 258.612 5.23835 -0.498301 0
M  V30 2901 O 257.638 5.573 -1.15781 0
M  V30 2902 N 258.84 5.75886 0.730417 0
M  V30 2903 H 261.605 2.48055 -1.68193 0
M  V30 2904 H 259.166 1.25292 -1.02535 0
M  V30 2905 H 261.158 4.03464 0.315991 0
M  V30 2906 H 259.728 3.04569 0.704011 0
M  V30 2907 H 258.948 3.54122 -1.73179 0
M  V30 2908 H 260.236 4.75673 -1.80589 0
M  V30 2909 H 259.634 5.50911 1.28504 0
M  V30 2910 H 258.191 6.42387 1.10376 0
M  V30 2911 N 261.624 0.925811 1.2754 0
M  V30 2912 C 262.554 0.440748 2.29303 0
M  V30 2913 C 263.535 -0.497971 1.62648 0
M  V30 2914 O 264.72 -0.403126 1.8997 0
M  V30 2915 C 261.85 -0.309048 3.45922 0
M  V30 2916 C 260.804 0.54166 4.24559 0
M  V30 2917 C 260.13 -0.337191 5.33636 0
M  V30 2918 C 261.43 1.80516 4.90114 0
M  V30 2919 H 263.124 1.29121 2.70126 0
M  V30 2920 H 260.67 0.622323 1.29858 0
M  V30 2921 H 262.623 -0.659315 4.1621 0
M  V30 2922 H 261.347 -1.19352 3.04011 0
M  V30 2923 H 260.006 0.874609 3.56014 0
M  V30 2924 H 259.654 -1.22056 4.87966 0
M  V30 2925 H 259.354 0.228497 5.87156 0
M  V30 2926 H 260.878 -0.683072 6.06767 0
M  V30 2927 H 262.292 1.52307 5.52698 0
M  V30 2928 H 260.689 2.3142 5.53683 0
M  V30 2929 H 261.759 2.52581 4.13921 0
M  V30 2930 N 263.102 -1.41638 0.69111 0
M  V30 2931 C 264.35 -2.00902 0.219758 0
M  V30 2932 C 264.671 -1.54994 -1.18329 0
M  V30 2933 O 263.941 -0.778628 -1.79762 0
M  V30 2934 H 262.521 -0.74289 0.0782558 0
M  V30 2935 H 265.183 -1.73327 0.891271 0
M  V30 2936 H 264.279 -3.11224 0.233708 0
M  V30 2937 N 264.58 -0.43555 -1.51462 0
M  V30 2938 C 265.82 0.130708 -2.03982 0
M  V30 2939 C 266.184 1.40117 -1.31268 0
M  V30 2940 O 267.385 2.04755 -1.74152 0
M  V30 2941 C 265.656 0.346102 -3.5572 0
M  V30 2942 S 267.215 0.876022 -4.29967 0
M  V30 2943 H 264.033 0.0326881 -0.710248 0
M  V30 2944 H 266.635 -0.594544 -1.8624 0
M  V30 2945 H 265.339 -0.584911 -4.0621 0
M  V30 2946 H 264.87 1.09849 -3.77752 0
M  V30 2947 H 266.885 2.15379 -4.47019 0
M  V30 2948 N 266.058 1.56714 -0.166846 0
M  V30 2949 C 266.988 2.20754 0.760913 0
M  V30 2950 C 267.969 1.16178 1.24244 0
M  V30 2951 O 269.154 1.44592 1.29641 0
M  V30 2952 C 266.284 2.84478 1.99223 0
M  V30 2953 C 265.238 3.95053 1.64672 0
M  V30 2954 C 264.564 4.45805 2.95232 0
M  V30 2955 C 265.864 5.14865 0.878155 0
M  V30 2956 H 267.558 2.98537 0.22713 0
M  V30 2957 H 265.104 1.43596 0.107805 0
M  V30 2958 H 267.057 3.27951 2.64624 0
M  V30 2959 H 265.781 2.04056 2.55007 0
M  V30 2960 H 264.44 3.52228 1.01641 0
M  V30 2961 H 264.088 3.62181 3.49047 0
M  V30 2962 H 263.788 5.204 2.7287 0
M  V30 2963 H 265.312 4.91962 3.6167 0
M  V30 2964 H 266.726 5.55059 1.43466 0
M  V30 2965 H 265.123 5.95348 0.753738 0
M  V30 2966 H 266.193 4.84735 -0.126377 0
M  V30 2967 N 267.536 -0.106894 1.57237 0
M  V30 2968 C 268.446 -1.14911 2.0453 0
M  V30 2969 C 269.462 -1.44592 0.96795 0
M  V30 2970 O 270.638 -1.55468 1.2803 0
M  V30 2971 C 267.703 -2.45272 2.45036 0
M  V30 2972 C 266.764 -2.22879 3.66911 0
M  V30 2973 C 265.997 -3.47024 4.05475 0
M  V30 2974 O 266.22 -4.54804 3.44252 0
M  V30 2975 O 265.154 -3.3731 4.98504 0
M  V30 2976 H 268.98 -0.777461 2.9358 0
M  V30 2977 H 266.565 -0.318563 1.45964 0
M  V30 2978 H 268.447 -3.22055 2.71769 0
M  V30 2979 H 267.122 -2.81886 1.59129 0
M  V30 2980 H 266.029 -1.43915 3.45311 0
M  V30 2981 H 267.362 -1.91163 4.53561 0
M  V30 2982 N 269.014 -1.53014 -0.377408 0
M  V30 2983 C 269.944 -1.81589 -1.46791 0
M  V30 2984 C 270.925 -0.668622 -1.56408 0
M  V30 2985 O 272.11 -0.917337 -1.71168 0
M  V30 2986 C 269.24 -1.99519 -2.8427 0
M  V30 2987 C 268.194 -3.15249 -2.89486 0
M  V30 2988 C 267.52 -3.18451 -4.29527 0
M  V30 2989 C 268.82 -4.54084 -2.58079 0
M  V30 2990 H 270.514 -2.7291 -1.23127 0
M  V30 2991 H 268.06 -1.31319 -0.590883 0
M  V30 2992 H 270.013 -2.18092 -3.60575 0
M  V30 2993 H 268.737 -1.04897 -3.09296 0
M  V30 2994 H 267.396 -2.96477 -2.15631 0
M  V30 2995 H 267.044 -2.2149 -4.5161 0
M  V30 2996 H 266.744 -3.962 -4.33934 0
M  V30 2997 H 268.268 -3.39193 -5.07721 0
M  V30 2998 H 269.682 -4.72899 -3.24098 0
M  V30 2999 H 268.079 -5.33987 -2.7382 0
M  V30 3000 H 269.149 -4.60006 -1.53372 0
M  V30 3001 N 270.492 0.636531 -1.44174 0
M  V30 3002 C 271.908 0.954104 -1.27941 0
M  V30 3003 C 272.108 2.0039 -0.211248 0
M  V30 3004 O 271.164 2.49236 0.404695 0
M  V30 3005 C 272.477 1.4225 -2.64925 0
M  V30 3006 C 274.025 1.53827 -2.72592 0
M  V30 3007 C 274.5 2.04053 -4.10032 0
M  V30 3008 N 275.991 2.11331 -4.12182 0
M  V30 3009 C 276.726 2.51352 -5.15374 0
M  V30 3010 N 276.222 2.90549 -6.2893 0
M  V30 3011 N 278.015 2.51438 -5.02728 0
M  V30 3012 H 270.166 -0.0578386 -2.12321 0
M  V30 3013 H 272.429 0.0367406 -0.947288 0
M  V30 3014 H 272.135 0.725466 -3.44136 0
M  V30 3015 H 272.009 2.39451 -2.9145 0
M  V30 3016 H 274.396 2.22628 -1.93702 0
M  V30 3017 H 274.477 0.550154 -2.49814 0
M  V30 3018 H 274.121 1.35848 -4.89395 0
M  V30 3019 H 274.051 3.03726 -4.30184 0
M  V30 3020 H 276.542 1.83745 -3.30222 0
M  V30 3021 H 276.855 3.19884 -7.03487 0
M  V30 3022 H 275.2 2.88313 -6.32377 0
M  V30 3023 H 278.391 2.20203 -4.13072 0
M  V30 3024 H 278.564 2.82304 -5.83274 0
M  V30 3025 N 271.97 1.30982 0.876444 0
M  V30 3026 C 273.386 1.09498 1.16113 0
M  V30 3027 C 273.586 -0.13875 2.01022 0
M  V30 3028 O 272.642 -0.829935 2.38471 0
M  V30 3029 C 273.955 2.36308 1.85954 0
M  V30 3030 C 275.503 2.41856 1.98683 0
M  V30 3031 C 275.978 3.6853 2.71937 0
M  V30 3032 N 277.469 3.69387 2.79477 0
M  V30 3033 C 278.204 4.64096 3.36753 0
M  V30 3034 N 277.7 5.69155 3.95012 0
M  V30 3035 N 279.493 4.51626 3.3465 0
M  V30 3036 H 271.644 2.10118 0.310494 0
M  V30 3037 H 273.907 0.926634 0.200131 0
M  V30 3038 H 273.613 3.26388 1.31011 0
M  V30 3039 H 273.487 2.4561 2.86278 0
M  V30 3040 H 275.874 1.52249 2.52793 0
M  V30 3041 H 275.955 2.36523 0.9742 0
M  V30 3042 H 275.599 4.58499 2.18496 0
M  V30 3043 H 275.529 3.71127 3.73593 0
M  V30 3044 H 278.02 2.93438 2.38123 0
M  V30 3045 H 278.333 6.3751 4.36808 0
M  V30 3046 H 276.678 5.72937 3.93406 0
M  V30 3047 H 279.869 3.68728 2.8837 0
M  V30 3048 H 280.042 5.25614 3.7899 0
M  V30 3049 N 273.449 -1.08991 1.13837 0
M  V30 3050 C 274.696 -1.81258 0.902882 0
M  V30 3051 C 275.024 -1.85936 -0.570803 0
M  V30 3052 O 274.279 -1.3267 -1.43865 0
M  V30 3053 C 274.578 -3.27042 1.44147 0
M  V30 3054 C 274.244 -3.4249 2.93276 0
M  V30 3055 C 272.906 -3.46414 3.33992 0
M  V30 3056 C 275.258 -3.4666 3.892 0
M  V30 3057 C 272.586 -3.52091 4.69307 0
M  V30 3058 C 274.938 -3.53872 5.24364 0
M  V30 3059 C 273.602 -3.56066 5.646 0
M  V30 3060 H 272.872 -0.663268 0.330388 0
M  V30 3061 H 275.519 -1.28368 1.42105 0
M  V30 3062 H 273.824 -3.82599 0.844097 0
M  V30 3063 H 275.521 -3.81499 1.23528 0
M  V30 3064 H 272.111 -3.40124 2.60794 0
M  V30 3065 H 276.295 -3.42865 3.58828 0
M  V30 3066 H 271.551 -3.52079 4.9985 0
M  V30 3067 H 275.725 -3.56043 5.98503 0
M  V30 3068 H 273.352 -3.60218 6.69438 0
M  V30 3069 N 274.927 -0.932562 -1.27047 0
M  V30 3070 C 276.174 -0.575559 -1.94148 0
M  V30 3071 C 276.502 0.883984 -1.73251 0
M  V30 3072 O 275.757 1.64655 -1.0577 0
M  V30 3073 C 276.056 -0.853713 -3.47054 0
M  V30 3074 C 275.722 -2.29577 -3.88079 0
M  V30 3075 C 274.384 -2.68999 -3.9899 0
M  V30 3076 C 276.736 -3.23331 -4.08787 0
M  V30 3077 C 274.064 -4.01289 -4.28 0
M  V30 3078 C 276.416 -4.55207 -4.39282 0
M  V30 3079 C 275.08 -4.94457 -4.48407 0
M  V30 3080 H 274.35 -0.210612 -0.710439 0
M  V30 3081 H 276.997 -1.17744 -1.51025 0
M  V30 3082 H 275.302 -0.169204 -3.91434 0
M  V30 3083 H 276.999 -0.55639 -3.97121 0
M  V30 3084 H 273.589 -1.97994 -3.80127 0
M  V30 3085 H 277.773 -2.94074 -3.99793 0
M  V30 3086 H 273.029 -4.31374 -4.33275 0
M  V30 3087 H 277.203 -5.27852 -4.54252 0
M  V30 3088 H 274.83 -5.96994 -4.7064 0
M  V30 3089 N 276.405 1.4127 -0.698611 0
M  V30 3090 C 277.352 2.30773 -0.0352094 0
M  V30 3091 C 278.322 1.47273 0.768111 0
M  V30 3092 O 279.507 1.76053 0.735524 0
M  V30 3093 C 276.647 3.33346 0.893 0
M  V30 3094 C 275.76 4.31924 0.0809695 0
M  V30 3095 C 274.895 5.21566 1.0071 0
M  V30 3096 C 273.934 6.11811 0.188155 0
M  V30 3097 N 273.071 6.93926 1.06825 0
M  V30 3098 H 277.911 2.86943 -0.804207 0
M  V30 3099 H 275.448 1.4132 -0.408294 0
M  V30 3100 H 277.406 3.91368 1.44523 0
M  V30 3101 H 276.036 2.78719 1.62836 0
M  V30 3102 H 275.088 3.75825 -0.588224 0
M  V30 3103 H 276.4 4.95716 -0.553801 0
M  V30 3104 H 275.554 5.84437 1.62845 0
M  V30 3105 H 274.293 4.58008 1.67572 0
M  V30 3106 H 273.298 5.47986 -0.446254 0
M  V30 3107 H 274.523 6.77425 -0.476716 0
M  V30 3108 H 272.469 6.32973 1.72283 0
M  V30 3109 H 272.386 7.54416 0.489123 0
M  V30 3110 H 273.654 7.61262 1.67632 0
M  V30 3111 N 277.883 0.443576 1.51229 0
M  V30 3112 C 279.16 -0.181038 1.9476 0
M  V30 3113 C 279.54 -1.59523 1.38259 0
M  V30 3114 O 278.888 -2.2122 0.572198 0
M  V30 3115 C 279.098 -0.152422 3.48667 0
M  V30 3116 C 280.446 -0.354923 4.23114 0
M  V30 3117 O 281.47 -0.230257 3.55455 0
M  V30 3118 O 280.329 -0.603674 5.43156 0
M  V30 3119 H 277.423 -0.1266 0.817252 0
M  V30 3120 H 279.969 0.502004 1.62105 0
M  V30 3121 H 278.741 0.836022 3.82265 0
M  V30 3122 H 278.364 -0.878107 3.87782 0
M  V30 3123 N 279.361 -1.56624 0.175154 0
M  V30 3124 C 280.294 -2.14 -0.792412 0
M  V30 3125 C 281.272 -1.07114 -1.22333 0
M  V30 3126 O 282.456 -1.35112 -1.31442 0
M  V30 3127 C 279.583 -2.68268 -2.0676 0
M  V30 3128 C 278.629 -3.87562 -1.7804 0
M  V30 3129 S 279.462 -5.27074 -0.946222 0
M  V30 3130 C 280.618 -5.8475 -2.23199 0
M  V30 3131 H 280.851 -2.95736 -0.304588 0
M  V30 3132 H 278.384 -1.54349 -0.0395705 0
M  V30 3133 H 280.342 -3.00182 -2.80002 0
M  V30 3134 H 279.003 -1.86612 -2.52656 0
M  V30 3135 H 278.196 -4.23874 -2.72666 0
M  V30 3136 H 277.798 -3.56555 -1.12891 0
M  V30 3137 H 280.09 -5.97898 -3.18629 0
M  V30 3138 H 281.033 -6.81756 -1.91349 0
M  V30 3139 H 281.441 -5.13198 -2.35134 0
M  V30 3140 N 280.839 0.0985539 -1.57292 0
M  V30 3141 C 282.25 0.653457 -1.74891 0
M  V30 3142 C 282.601 1.7929 -0.796838 0
M  V30 3143 O 281.726 2.16385 0.0254886 0
M  V30 3144 C 282.321 1.19216 -3.17133 0
M  V30 3145 C 280.88 1.69316 -3.36168 0
M  V30 3146 C 280.027 0.601294 -2.70702 0
M  V30 3147 H 282.978 -0.127497 -1.58187 0
M  V30 3148 H 282.999 2.06154 -3.19814 0
M  V30 3149 H 282.511 0.362635 -3.86402 0
M  V30 3150 H 280.612 2.5468 -2.71972 0
M  V30 3151 H 280.725 1.78853 -4.44464 0
M  V30 3152 H 279.089 1.0399 -2.32504 0
M  V30 3153 H 279.872 -0.217592 -3.4261 0
M  V30 3154 N 282.317 1.53212 0.369288 0
M  V30 3155 C 283.267 1.75769 1.45222 0
M  V30 3156 C 284.251 0.612136 1.48801 0
M  V30 3157 O 285.443 0.870674 1.54105 0
M  V30 3158 C 282.572 1.94769 2.82701 0
M  V30 3159 C 281.658 3.15315 2.83615 0
M  V30 3160 N 282.049 4.37295 2.54178 0
M  V30 3161 C 280.347 3.15962 3.14776 0
M  V30 3162 C 281.048 5.19015 2.62675 0
M  V30 3163 N 280.024 4.55142 2.97232 0
M  V30 3164 H 283.826 2.67691 1.2132 0
M  V30 3165 H 281.34 1.51787 0.577438 0
M  V30 3166 H 283.337 2.09056 3.60696 0
M  V30 3167 H 281.997 1.04073 3.07569 0
M  V30 3168 H 283.008 4.65091 2.27839 0
M  V30 3169 H 279.685 2.35144 3.44983 0
M  V30 3170 H 281.075 6.26305 2.43294 0
M  V30 3171 N 283.795 -0.628877 1.44509 0
M  V30 3172 C 284.743 -1.76193 1.51852 0
M  V30 3173 C 285.737 -1.64849 0.390042 0
M  V30 3174 O 286.943 -1.709 0.565082 0
M  V30 3175 H 283.318 -0.581728 0.476547 0
M  V30 3176 H 285.289 -1.67123 2.47209 0
M  V30 3177 C 284.038 -3.14533 1.48204 0
M  V30 3178 H 283.361 -3.23911 2.34354 0
M  V30 3179 H 284.801 -3.93701 1.57402 0
M  V30 3180 C 283.26 -3.36287 0.203142 0
M  V30 3181 O 283.79 -3.9509 -0.725745 0
M  V30 3182 N 281.996 -2.90408 0.105563 0
M  V30 3183 H 281.543 -2.42739 0.862301 0
M  V30 3184 H 281.501 -3.05339 -0.749371 0
M  V30 3185 N 285.273 -1.31445 -0.869486 0
M  V30 3186 C 286.236 -1.19094 -1.9583 0
M  V30 3187 C 287.236 -0.117906 -1.60367 0
M  V30 3188 O 288.426 -0.367208 -1.70286 0
M  V30 3189 C 285.558 -0.828165 -3.30688 0
M  V30 3190 H 286.751 -2.15842 -2.08212 0
M  V30 3191 H 284.304 -1.15063 -1.05784 0
M  V30 3192 H 285.039 0.138142 -3.24006 0
M  V30 3193 H 284.824 -1.6038 -3.578 0
M  V30 3194 H 286.314 -0.765658 -4.10521 0
M  V30 3195 N 286.751 1.08385 -1.14413 0
M  V30 3196 C 287.681 2.17321 -0.854044 0
M  V30 3197 C 288.662 1.69024 0.191049 0
M  V30 3198 O 289.847 1.94141 0.0476779 0
M  V30 3199 C 286.977 3.45719 -0.330983 0
M  V30 3200 C 285.931 4.07409 -1.31155 0
M  V30 3201 C 285.257 5.30762 -0.64778 0
M  V30 3202 C 286.557 4.48665 -2.67388 0
M  V30 3203 H 288.251 2.41845 -1.76498 0
M  V30 3204 H 285.797 1.16233 -0.850051 0
M  V30 3205 H 287.75 4.21241 -0.115645 0
M  V30 3206 H 286.474 3.2075 0.615381 0
M  V30 3207 H 285.133 3.33919 -1.51306 0
M  V30 3208 H 284.781 5.02078 0.304398 0
M  V30 3209 H 284.481 5.72992 -1.30207 0
M  V30 3210 H 286.005 6.08998 -0.441972 0
M  V30 3211 H 287.419 5.15364 -2.51143 0
M  V30 3212 H 285.816 5.01814 -3.29093 0
M  V30 3213 H 286.886 3.60543 -3.24248 0
M  V30 3214 N 288.23 0.939286 1.26551 0
M  V30 3215 C 289.507 0.5038 1.89001 0
M  V30 3216 C 289.887 -1.01854 1.84903 0
M  V30 3217 O 289.235 -1.87773 1.30206 0
M  V30 3218 C 289.445 1.063 3.32417 0
M  V30 3219 C 290.793 1.13051 4.09273 0
M  V30 3220 O 291.817 1.01345 3.41479 0
M  V30 3221 O 290.676 1.31233 5.30509 0
M  V30 3222 H 287.77 0.163897 0.810597 0
M  V30 3223 H 290.316 1.03173 1.34735 0
M  V30 3224 H 289.088 2.10665 3.29752 0
M  V30 3225 H 288.711 0.517408 3.94219 0
M  V30 3226 N 289.708 -1.40897 0.706093 0
M  V30 3227 C 290.655 -2.30751 0.0474474 0
M  V30 3228 C 291.625 -1.47678 -0.76029 0
M  V30 3229 O 292.81 -1.76441 -0.726177 0
M  V30 3230 C 289.95 -3.33815 -0.875309 0
M  V30 3231 C 289.063 -4.31961 -0.0580623 0
M  V30 3232 C 288.198 -5.22093 -0.979425 0
M  V30 3233 C 287.237 -6.11902 -0.155706 0
M  V30 3234 N 286.374 -6.94482 -1.03144 0
M  V30 3235 H 291.214 -2.86513 0.819413 0
M  V30 3236 H 288.751 -1.41102 0.415783 0
M  V30 3237 H 290.709 -3.92129 -1.42446 0
M  V30 3238 H 289.339 -2.79579 -1.61356 0
M  V30 3239 H 288.391 -3.75507 0.608147 0
M  V30 3240 H 289.703 -4.95415 0.580082 0
M  V30 3241 H 288.857 -5.85292 -1.59744 0
M  V30 3242 H 287.596 -4.5889 -1.65141 0
M  V30 3243 H 286.601 -5.47742 0.475309 0
M  V30 3244 H 287.826 -6.77162 0.512635 0
M  V30 3245 H 285.772 -6.33877 -1.68924 0
M  V30 3246 H 285.689 -7.54665 -0.449108 0
M  V30 3247 H 286.957 -7.6214 -1.63593 0
M  V30 3248 N 291.186 -0.45159 -1.50991 0
M  V30 3249 C 292.133 0.352625 -2.2809 0
M  V30 3250 C 293.103 1.0044 -1.32291 0
M  V30 3251 O 294.288 1.02058 -1.6121 0
M  V30 3252 C 291.428 1.43983 -3.13629 0
M  V30 3253 C 290.541 0.804772 -4.24438 0
M  V30 3254 C 289.676 1.86822 -4.97263 0
M  V30 3255 C 288.715 1.21236 -5.99973 0
M  V30 3256 N 287.852 2.2178 -6.66152 0
M  V30 3257 H 292.692 -0.311186 -2.96371 0
M  V30 3258 H 290.229 -0.165308 -1.46168 0
M  V30 3259 H 292.187 2.08161 -3.61559 0
M  V30 3260 H 290.817 2.07307 -2.47434 0
M  V30 3261 H 289.869 0.0509129 -3.80366 0
M  V30 3262 H 291.181 0.286076 -4.97979 0
M  V30 3263 H 290.335 2.58628 -5.48813 0
M  V30 3264 H 289.074 2.42068 -4.23385 0
M  V30 3265 H 288.079 0.479828 -5.47702 0
M  V30 3266 H 289.304 0.667051 -6.75816 0
M  V30 3267 H 287.25 2.76079 -5.95077 0
M  V30 3268 H 287.167 1.74841 -7.35504 0
M  V30 3269 H 288.435 2.93026 -7.22327 0
M  V30 3270 N 292.664 1.56529 -0.183458 0
M  V30 3271 C 293.889 2.02064 0.467428 0
M  V30 3272 C 294.314 1.06282 1.55196 0
M  V30 3273 O 293.672 0.0443565 1.81246 0
M  V30 3274 C 293.72 3.46122 1.01153 0
M  V30 3275 O 292.824 3.53437 2.12499 0
M  V30 3276 H 292.165 0.654726 0.110588 0
M  V30 3277 H 294.695 2.02521 -0.290917 0
M  V30 3278 H 294.705 3.85676 1.33108 0
M  V30 3279 H 293.38 4.15331 0.217533 0
M  V30 3280 H 291.957 3.2575 1.81497 0
M  V30 3281 N 294.142 -0.090211 1.57342 0
M  V30 3282 C 295.09 -1.12792 2.03422 0
M  V30 3283 C 296.084 -1.41182 0.936166 0
M  V30 3284 O 297.29 -1.40805 1.12133 0
M  V30 3285 H 293.665 -0.380986 0.648347 0
M  V30 3286 H 295.636 -0.71299 2.89757 0
M  V30 3287 C 294.385 -2.43855 2.47851 0
M  V30 3288 H 293.708 -2.22855 3.31927 0
M  V30 3289 H 295.148 -3.14955 2.83865 0
M  V30 3290 C 293.607 -3.08503 1.3538 0
M  V30 3291 O 294.137 -3.95805 0.685641 0
M  V30 3292 N 292.343 -2.68831 1.10355 0
M  V30 3293 H 291.89 -1.97929 1.64869 0
M  V30 3294 H 291.848 -3.12412 0.353031 0
M  V30 3295 N 295.62 -1.53406 -0.361157 0
M  V30 3296 C 296.867 -1.69802 -1.10333 0
M  V30 3297 C 297.195 -0.452087 -1.89173 0
M  V30 3298 O 296.45 0.566017 -1.87336 0
M  V30 3299 C 296.749 -2.90211 -2.08596 0
M  V30 3300 C 296.415 -4.26539 -1.46203 0
M  V30 3301 C 295.077 -4.6361 -1.28915 0
M  V30 3302 C 297.429 -5.113 -1.01101 0
M  V30 3303 C 294.757 -5.83075 -0.651157 0
M  V30 3304 C 297.109 -6.31415 -0.387007 0
M  V30 3305 C 295.773 -6.67195 -0.201657 0
M  V30 3306 H 295.043 -0.621351 -0.403737 0
M  V30 3307 H 297.69 -1.87598 -0.384609 0
M  V30 3308 H 295.995 -2.66946 -2.86788 0
M  V30 3309 H 297.692 -3.00091 -2.65982 0
M  V30 3310 H 294.282 -3.97352 -1.60653 0
M  V30 3311 H 298.466 -4.83206 -1.13249 0
M  V30 3312 H 293.722 -6.09385 -0.496006 0
M  V30 3313 H 297.896 -6.96394 -0.0293563 0
M  V30 3314 H 295.523 -7.59628 0.294766 0
M  V30 3315 N 297.098 0.621204 -1.44841 0
M  V30 3316 C 298.008 1.7612 -1.5498 0
M  V30 3317 C 299.024 1.68477 -0.434927 0
M  V30 3318 O 300.2 1.89076 -0.693693 0
M  V30 3319 C 297.265 3.1254 -1.50065 0
M  V30 3320 C 296.326 3.31741 -2.72482 0
M  V30 3321 C 295.559 4.61653 -2.67792 0
M  V30 3322 O 295.782 5.431 -1.74352 0
M  V30 3323 O 294.716 4.83271 -3.58794 0
M  V30 3324 H 298.542 1.70518 -2.51311 0
M  V30 3325 H 296.127 0.783643 -1.27198 0
M  V30 3326 H 298.009 3.93844 -1.49882 0
M  V30 3327 H 296.684 3.18663 -0.568806 0
M  V30 3328 H 295.591 2.50077 -2.7823 0
M  V30 3329 H 296.924 3.30486 -3.64746 0
M  V30 3330 N 298.576 1.31904 0.862503 0
M  V30 3331 C 299.506 1.22782 1.98612 0
M  V30 3332 C 300.487 0.113362 1.69722 0
M  V30 3333 O 301.672 0.299218 1.91881 0
M  V30 3334 C 298.802 0.942058 3.34279 0
M  V30 3335 C 297.756 2.0169 3.77499 0
M  V30 3336 C 297.082 1.58369 5.10709 0
M  V30 3337 C 298.382 3.43096 3.93805 0
M  V30 3338 H 300.076 2.16788 2.06502 0
M  V30 3339 H 297.622 1.04366 0.992154 0
M  V30 3340 H 299.575 0.864818 4.1243 0
M  V30 3341 H 298.299 -0.0336603 3.26583 0
M  V30 3342 H 296.958 2.08416 3.01593 0
M  V30 3343 H 296.606 0.595628 4.99461 0
M  V30 3344 H 296.306 2.30279 5.40597 0
M  V30 3345 H 297.83 1.52067 5.91361 0
M  V30 3346 H 299.244 3.39003 4.62331 0
M  V30 3347 H 297.641 4.13288 4.35101 0
M  V30 3348 H 298.711 3.83334 2.96957 0
M  V30 3349 N 300.054 -1.07777 1.14986 0
M  V30 3350 C 300.984 -2.16865 0.865557 0
M  V30 3351 C 301.965 -1.69123 -0.182083 0
M  V30 3352 O 303.15 -1.94164 -0.0373815 0
M  V30 3353 C 300.28 -3.45539 0.349313 0
M  V30 3354 C 299.234 -4.06708 1.33313 0
M  V30 3355 C 298.56 -5.30411 0.675918 0
M  V30 3356 C 299.86 -4.47241 2.69764 0
M  V30 3357 H 301.554 -2.40905 1.77778 0
M  V30 3358 H 299.1 -1.15781 0.856203 0
M  V30 3359 H 301.053 -4.21174 0.137983 0
M  V30 3360 H 299.777 -3.21072 -0.598362 0
M  V30 3361 H 298.436 -3.33112 1.53075 0
M  V30 3362 H 298.084 -5.02232 -0.277767 0
M  V30 3363 H 297.784 -5.72293 1.33244 0
M  V30 3364 H 299.308 -6.08755 0.474262 0
M  V30 3365 H 300.722 -5.14025 2.53873 0
M  V30 3366 H 299.119 -5.00062 3.3175 0
M  V30 3367 H 300.189 -3.58818 3.26156 0
M  V30 3368 N 301.532 -0.945985 -1.26051 0
M  V30 3369 C 302.442 -0.465633 -2.29933 0
M  V30 3370 C 303.458 0.462761 -1.67733 0
M  V30 3371 O 304.634 0.341118 -1.9849 0
M  V30 3372 C 301.699 0.256994 -3.45746 0
M  V30 3373 C 300.76 -0.708549 -4.23412 0
M  V30 3374 C 299.993 -0.0203135 -5.33696 0
M  V30 3375 O 300.216 1.19571 -5.57726 0
M  V30 3376 O 299.15 -0.701459 -5.97799 0
M  V30 3377 H 302.976 -1.32866 -2.73094 0
M  V30 3378 H 300.561 -0.712071 -1.31339 0
M  V30 3379 H 302.443 0.663852 -4.16138 0
M  V30 3380 H 301.118 1.09533 -3.04605 0
M  V30 3381 H 300.025 -1.16545 -3.55483 0
M  V30 3382 H 301.358 -1.51465 -4.68315 0
M  V30 3383 N 303.011 1.40521 -0.713556 0
M  V30 3384 C 303.958 2.30723 -0.059684 0
M  V30 3385 C 304.928 1.48079 0.752448 0
M  V30 3386 O 306.113 1.76823 0.71681 0
M  V30 3387 C 303.253 3.34274 0.857594 0
M  V30 3388 C 302.366 4.31986 0.0351536 0
M  V30 3389 C 301.501 5.22605 0.951724 0
M  V30 3390 C 300.54 6.11976 0.123253 0
M  V30 3391 N 299.677 6.9502 0.99459 0
M  V30 3392 H 304.517 2.86074 -0.834596 0
M  V30 3393 H 302.054 1.40879 -0.42326 0
M  V30 3394 H 304.012 3.92879 1.40364 0
M  V30 3395 H 302.642 2.8043 1.59871 0
M  V30 3396 H 301.694 3.7518 -0.628052 0
M  V30 3397 H 303.006 4.95101 -0.606347 0
M  V30 3398 H 302.16 5.86131 1.56638 0
M  V30 3399 H 300.899 4.59759 1.62705 0
M  V30 3400 H 299.904 5.47482 -0.50435 0
M  V30 3401 H 301.129 6.76881 -0.548539 0
M  V30 3402 H 299.075 6.34764 1.6556 0
M  V30 3403 H 298.992 7.54892 0.40908 0
M  V30 3404 H 300.26 7.62997 1.59549 0
M  V30 3405 N 304.489 0.459591 1.5075 0
M  V30 3406 C 305.399 -0.34613 2.32033 0
M  V30 3407 C 306.415 -1.00686 1.41909 0
M  V30 3408 O 307.591 -0.997361 1.7497 0
M  V30 3409 C 304.656 -1.42029 3.16273 0
M  V30 3410 C 303.717 -0.777362 4.22203 0
M  V30 3411 C 302.95 -1.80034 5.02418 0
M  V30 3412 O 303.173 -3.02544 4.83553 0
M  V30 3413 O 302.107 -1.37853 5.85901 0
M  V30 3414 H 305.933 0.318054 3.0203 0
M  V30 3415 H 303.518 0.221663 1.47746 0
M  V30 3416 H 305.4 -2.04275 3.68578 0
M  V30 3417 H 304.075 -2.06815 2.49016 0
M  V30 3418 H 302.982 -0.116256 3.73919 0
M  V30 3419 H 304.315 -0.172634 4.91897 0
M  V30 3420 N 305.967 -1.56429 0.191757 0
M  V30 3421 C 307.213 -1.97777 -0.448554 0
M  V30 3422 C 307.546 -1.07847 -1.61501 0
M  V30 3423 O 306.821 -0.129774 -1.94067 0
M  V30 3424 C 307.104 -3.48362 -0.911906 0
M  V30 3425 C 306.957 -4.4907 0.256136 0
M  V30 3426 C 308.276 -4.02561 -1.77857 0
M  V30 3427 H 305.395 -0.719071 -0.161572 0
M  V30 3428 H 308.037 -1.87896 0.282007 0
M  V30 3429 H 306.187 -3.56914 -1.53442 0
M  V30 3430 H 307.859 -4.5256 0.893733 0
M  V30 3431 H 306.102 -4.24181 0.908436 0
M  V30 3432 H 306.773 -5.51889 -0.11053 0
M  V30 3433 H 309.249 -3.96767 -1.25359 0
M  V30 3434 H 308.125 -5.08301 -2.07174 0
M  V30 3435 H 308.386 -3.47616 -2.73158 0
M  V30 3436 N 307.445 0.0818655 -1.57387 0
M  V30 3437 C 308.693 0.781368 -1.86384 0
M  V30 3438 C 309.014 1.78618 -0.782342 0
M  V30 3439 O 308.284 1.94976 0.190061 0
M  V30 3440 H 306.864 0.291562 -0.687751 0
M  V30 3441 H 309.526 0.060348 -1.94807 0
M  V30 3442 H 308.622 1.3038 -2.83562 0
M  V30 3443 N 308.923 1.53595 0.353017 0
M  V30 3444 C 309.853 1.83902 1.43883 0
M  V30 3445 C 310.834 0.693421 1.55324 0
M  V30 3446 O 312.019 0.944452 1.69687 0
M  V30 3447 C 309.149 2.04016 2.8106 0
M  V30 3448 C 308.103 3.19814 2.84434 0
M  V30 3449 C 307.429 3.25244 4.24406 0
M  V30 3450 C 308.729 4.58133 2.50822 0
M  V30 3451 H 310.423 2.74835 1.1877 0
M  V30 3452 H 307.969 1.32242 0.569917 0
M  V30 3453 H 309.922 2.238 3.57059 0
M  V30 3454 H 308.646 1.09804 3.07588 0
M  V30 3455 H 307.305 2.9987 2.10887 0
M  V30 3456 H 306.953 2.28646 4.48029 0
M  V30 3457 H 306.653 4.03054 4.27576 0
M  V30 3458 H 308.177 3.47228 5.0226 0
M  V30 3459 H 309.591 4.77995 3.16534 0
M  V30 3460 H 307.988 5.38276 2.6529 0
M  V30 3461 H 309.058 4.62387 1.46034 0
M  V30 3462 N 310.401 -0.613514 1.45168 0
M  V30 3463 C 311.678 -1.37263 1.39349 0
M  V30 3464 C 312.058 -2.11012 0.0610848 0
M  V30 3465 O 311.406 -2.07502 -0.956825 0
M  V30 3466 C 311.616 -2.3244 2.60332 0
M  V30 3467 C 312.964 -2.9523 3.05163 0
M  V30 3468 O 313.988 -2.42762 2.60663 0
M  V30 3469 O 312.847 -3.90454 3.82372 0
M  V30 3470 H 309.941 -0.615188 0.552696 0
M  V30 3471 H 312.487 -0.637097 1.57287 0
M  V30 3472 H 311.259 -1.77164 3.48896 0
M  V30 3473 H 310.882 -3.13383 2.44698 0
M  V30 3474 N 311.879 -1.3236 -0.855495 0
M  V30 3475 C 312.809 -1.23833 -1.97958 0
M  V30 3476 C 313.79 -0.122361 -1.69659 0
M  V30 3477 O 314.975 -0.30939 -1.9172 0
M  V30 3478 C 312.105 -0.959772 -3.33775 0
M  V30 3479 C 311.059 -2.03689 -3.76424 0
M  V30 3480 C 310.385 -1.61075 -5.09862 0
M  V30 3481 C 311.685 -3.4518 -3.9198 0
M  V30 3482 H 313.379 -2.1788 -2.0535 0
M  V30 3483 H 310.925 -1.04891 -0.986605 0
M  V30 3484 H 312.878 -0.886678 -4.11966 0
M  V30 3485 H 311.602 0.0163404 -3.26596 0
M  V30 3486 H 310.261 -2.10012 -3.00484 0
M  V30 3487 H 309.909 -0.622107 -4.99138 0
M  V30 3488 H 309.609 -2.33143 -5.39368 0
M  V30 3489 H 311.133 -1.55201 -5.90546 0
M  V30 3490 H 312.547 -3.4145 -4.60526 0
M  V30 3491 H 310.944 -4.1559 -4.32903 0
M  V30 3492 H 312.014 -3.84903 -2.94919 0
M  V30 3493 N 313.357 1.07166 -1.15556 0
M  V30 3494 C 314.604 1.79798 -0.931604 0
M  V30 3495 C 314.932 1.8682 0.54115 0
M  V30 3496 O 314.187 1.34942 1.41736 0
M  V30 3497 C 314.486 3.24707 -1.49332 0
M  V30 3498 C 314.152 3.37781 -2.98688 0
M  V30 3499 C 312.814 3.41057 -3.39461 0
M  V30 3500 C 315.166 3.40424 -3.94665 0
M  V30 3501 C 312.494 3.4458 -4.74849 0
M  V30 3502 C 314.846 3.45485 -5.29927 0
M  V30 3503 C 313.51 3.47039 -5.70193 0
M  V30 3504 H 312.78 0.657928 -0.340898 0
M  V30 3505 H 315.427 1.26091 -1.44129 0
M  V30 3506 H 313.732 3.81208 -0.904859 0
M  V30 3507 H 315.429 3.79486 -1.29582 0
M  V30 3508 H 312.019 3.35932 -2.66172 0
M  V30 3509 H 316.203 3.37113 -3.64237 0
M  V30 3510 H 311.459 3.44083 -5.05388 0
M  V30 3511 H 315.633 3.46476 -6.04092 0
M  V30 3512 H 313.26 3.49522 -6.75084 0
M  V30 3513 N 314.835 0.952656 1.25548 0
M  V30 3514 C 316.082 0.606373 1.93208 0
M  V30 3515 C 316.41 -0.85631 1.74636 0
M  V30 3516 O 315.665 -1.62951 1.08376 0
M  V30 3517 C 315.964 0.908818 3.45652 0
M  V30 3518 C 315.63 2.35722 3.84378 0
M  V30 3519 C 314.292 2.75312 3.9466 0
M  V30 3520 C 316.644 3.29793 4.03591 0
M  V30 3521 C 313.972 4.08047 4.21562 0
M  V30 3522 C 316.324 4.62138 4.31985 0
M  V30 3523 C 314.988 5.01528 4.40484 0
M  V30 3524 H 314.258 0.221888 0.706998 0
M  V30 3525 H 316.905 1.20132 1.49133 0
M  V30 3526 H 315.21 0.231456 3.91116 0
M  V30 3527 H 316.907 0.619498 3.96186 0
M  V30 3528 H 313.497 2.04017 3.76928 0
M  V30 3529 H 317.681 3.00397 3.95064 0
M  V30 3530 H 312.937 4.38212 4.26357 0
M  V30 3531 H 317.111 5.35012 4.45797 0
M  V30 3532 H 314.738 6.04406 4.61083 0
M  V30 3533 N 316.313 -1.40141 0.720998 0
M  V30 3534 C 317.724 -1.83678 0.334553 0
M  V30 3535 C 318.075 -1.6027 -1.13173 0
M  V30 3536 O 317.2 -1.08643 -1.87152 0
M  V30 3537 C 317.795 -3.33437 0.600437 0
M  V30 3538 C 316.354 -3.75447 0.267642 0
M  V30 3539 C 315.501 -2.63296 0.870097 0
M  V30 3540 H 318.452 -1.29331 0.919732 0
M  V30 3541 H 318.473 -3.80269 -0.132517 0
M  V30 3542 H 317.985 -3.50442 1.66768 0
M  V30 3543 H 316.086 -3.64035 -0.794329 0
M  V30 3544 H 316.199 -4.73344 0.74042 0
M  V30 3545 H 314.563 -2.52954 0.297739 0
M  V30 3546 H 315.346 -2.83112 1.94172 0
M  V30 3547 N 317.792 -0.46758 -1.50504 0
M  V30 3548 C 318.739 0.328413 -2.28452 0
M  V30 3549 C 319.709 0.990313 -1.33349 0
M  V30 3550 O 320.894 1.00343 -1.62284 0
M  V30 3551 C 318.034 1.40648 -3.15138 0
M  V30 3552 C 317.147 0.759709 -4.25267 0
M  V30 3553 C 316.282 1.81537 -4.99217 0
M  V30 3554 C 315.321 1.14866 -6.01226 0
M  V30 3555 N 314.458 2.14702 -6.68467 0
M  V30 3556 H 319.298 -0.342603 -2.96024 0
M  V30 3557 H 316.835 -0.180801 -1.45985 0
M  V30 3558 H 318.793 2.04315 -3.63746 0
M  V30 3559 H 317.423 2.04671 -2.49619 0
M  V30 3560 H 316.475 0.0105671 -3.80399 0
M  V30 3561 H 317.787 0.233243 -4.98254 0
M  V30 3562 H 316.941 2.52793 -5.51526 0
M  V30 3563 H 315.68 2.37564 -4.25928 0
M  V30 3564 H 314.685 0.42171 -5.4818 0
M  V30 3565 H 315.91 0.595334 -6.76485 0
M  V30 3566 H 313.856 2.69752 -5.97972 0
M  V30 3567 H 313.773 1.6703 -7.37317 0
M  V30 3568 H 315.041 2.85348 -7.25394 0
M  V30 3569 N 319.27 1.56325 -0.20005 0
M  V30 3570 C 320.202 2.16555 0.750771 0
M  V30 3571 C 321.215 1.12871 1.1732 0
M  V30 3572 O 322.404 1.39943 1.10807 0
M  V30 3573 C 319.504 2.71684 2.02586 0
M  V30 3574 C 318.677 4.00321 1.76244 0
M  V30 3575 C 317.736 4.40227 2.88248 0
M  V30 3576 O 316.762 5.07552 2.57642 0
M  V30 3577 N 317.964 4.04138 4.16717 0
M  V30 3578 H 320.729 2.98772 0.235685 0
M  V30 3579 H 318.29 1.6189 -0.0182594 0
M  V30 3580 H 320.282 2.95363 2.76664 0
M  V30 3581 H 318.852 1.93893 2.45202 0
M  V30 3582 H 318.072 3.84723 0.85919 0
M  V30 3583 H 319.36 4.84279 1.56048 0
M  V30 3584 H 318.758 3.49993 4.44434 0
M  V30 3585 H 317.315 4.32756 4.87407 0
M  V30 3586 N 320.748 -0.0735177 1.57428 0
M  V30 3587 C 321.681 -1.11932 1.98863 0
M  V30 3588 C 322.659 -1.37666 0.865266 0
M  V30 3589 O 323.843 -1.51068 1.12742 0
M  V30 3590 C 320.97 -2.46403 2.32386 0
M  V30 3591 C 320.016 -2.36815 3.54713 0
M  V30 3592 S 320.849 -1.76392 5.05614 0
M  V30 3593 C 322.005 -3.12444 5.42337 0
M  V30 3594 H 322.238 -0.766212 2.87257 0
M  V30 3595 H 319.771 -0.281987 1.51803 0
M  V30 3596 H 321.729 -3.23755 2.52375 0
M  V30 3597 H 320.39 -2.78876 1.44524 0
M  V30 3598 H 319.583 -3.35977 3.7568 0
M  V30 3599 H 319.185 -1.67598 3.34345 0
M  V30 3600 H 321.477 -4.08753 5.40303 0
M  V30 3601 H 322.42 -2.96258 6.43146 0
M  V30 3602 H 322.828 -3.1297 4.69798 0
M  V30 3603 N 322.226 -1.5378 -0.344866 0
M  V30 3604 C 323.158 -1.77988 -1.44406 0
M  V30 3605 C 324.171 -0.661138 -1.48771 0
M  V30 3606 O 325.36 -0.937842 -1.51877 0
M  V30 3607 C 322.46 -1.86345 -2.8307 0
M  V30 3608 C 321.633 -3.16256 -3.0216 0
M  V30 3609 C 320.692 -3.15588 -4.21059 0
M  V30 3610 O 319.718 -3.89314 -4.15239 0
M  V30 3611 N 320.92 -2.37864 -5.29529 0
M  V30 3612 H 323.685 -2.72839 -1.24012 0
M  V30 3613 H 321.246 -1.52814 -0.534737 0
M  V30 3614 H 323.238 -1.83351 -3.60783 0
M  V30 3615 H 321.808 -0.986858 -2.96614 0
M  V30 3616 H 321.028 -3.32385 -2.11929 0
M  V30 3617 H 322.316 -4.0207 -3.11797 0
M  V30 3618 H 321.714 -1.77514 -5.37127 0
M  V30 3619 H 320.271 -2.40668 -6.05741 0
M  V30 3620 N 323.704 0.605807 -1.45491 0
M  V30 3621 C 324.614 1.74466 -1.56839 0
M  V30 3622 C 325.63 1.68006 -0.452772 0
M  V30 3623 O 326.806 1.8833 -0.713708 0
M  V30 3624 C 323.871 3.10931 -1.53371 0
M  V30 3625 C 322.932 3.28832 -2.75986 0
M  V30 3626 C 322.165 4.58787 -2.72673 0
M  V30 3627 O 322.388 5.4122 -1.80102 0
M  V30 3628 O 321.322 4.79438 -3.63899 0
M  V30 3629 H 325.148 1.67843 -2.53106 0
M  V30 3630 H 322.733 0.770108 -1.28022 0
M  V30 3631 H 324.615 3.92233 -1.54051 0
M  V30 3632 H 323.29 3.18042 -0.602572 0
M  V30 3633 H 322.197 2.47112 -2.80867 0
M  V30 3634 H 323.53 3.26599 -3.68231 0
M  V30 3635 N 325.182 1.32811 0.848464 0
M  V30 3636 C 326.13 1.22231 1.97895 0
M  V30 3637 C 327.124 0.125749 1.68933 0
M  V30 3638 O 328.33 0.289083 1.77663 0
M  V30 3639 H 324.705 0.379058 0.649476 0
M  V30 3640 H 326.676 2.17828 2.03945 0
M  V30 3641 C 325.425 0.968572 3.33937 0
M  V30 3642 H 324.748 1.80458 3.56756 0
M  V30 3643 H 326.188 0.934808 4.13567 0
M  V30 3644 C 324.647 -0.328628 3.35293 0
M  V30 3645 O 325.177 -1.33848 3.78745 0
M  V30 3646 N 323.383 -0.352788 2.88451 0
M  V30 3647 H 322.93 0.469541 2.53285 0
M  V30 3648 H 322.888 -1.22057 2.89741 0
M  V30 3649 N 326.66 -1.06551 1.16123 0
M  V30 3650 C 327.59 -2.15935 0.88851 0
M  V30 3651 C 328.571 -1.69306 -0.164135 0
M  V30 3652 O 329.756 -1.94193 -0.0167857 0
M  V30 3653 C 326.886 -3.45149 0.385942 0
M  V30 3654 C 325.84 -4.05271 1.3762 0
M  V30 3655 C 325.166 -5.29664 0.732137 0
M  V30 3656 C 326.466 -4.44355 2.74493 0
M  V30 3657 H 328.16 -2.39006 1.80323 0
M  V30 3658 H 325.706 -1.14866 0.868435 0
M  V30 3659 H 327.659 -4.21004 0.182647 0
M  V30 3660 H 326.383 -3.21689 -0.564274 0
M  V30 3661 H 325.042 -3.3147 1.56599 0
M  V30 3662 H 324.69 -5.02499 -0.224483 0
M  V30 3663 H 324.39 -5.70848 1.39307 0
M  V30 3664 H 325.914 -6.08218 0.538802 0
M  V30 3665 H 327.328 -5.11303 2.59311 0
M  V30 3666 H 325.725 -4.96515 3.37035 0
M  V30 3667 H 326.795 -3.55339 3.29943 0
M  V30 3668 N 328.138 -0.959301 -1.25041 0
M  V30 3669 C 329.085 -0.482057 -2.2571 0
M  V30 3670 C 330.055 0.467939 -1.59372 0
M  V30 3671 O 331.24 0.380159 -1.86974 0
M  V30 3672 C 328.38 0.229623 -3.44335 0
M  V30 3673 C 327.493 -0.758156 -4.25295 0
M  V30 3674 C 326.628 -0.0234403 -5.31195 0
M  V30 3675 C 325.667 -1.00184 -6.03846 0
M  V30 3676 N 324.804 -0.29769 -7.01469 0
M  V30 3677 H 329.644 -1.34538 -2.65901 0
M  V30 3678 H 327.181 -0.674592 -1.3072 0
M  V30 3679 H 329.139 0.658856 -4.11965 0
M  V30 3680 H 327.769 1.05696 -3.05005 0
M  V30 3681 H 326.821 -1.30586 -3.57284 0
M  V30 3682 H 328.133 -1.50458 -4.75567 0
M  V30 3683 H 327.287 0.464201 -6.04922 0
M  V30 3684 H 326.026 0.755741 -4.81809 0
M  V30 3685 H 325.031 -1.50044 -5.2893 0
M  V30 3686 H 326.256 -1.78133 -6.55321 0
M  V30 3687 H 324.202 0.462668 -6.54366 0
M  V30 3688 H 324.119 -0.983128 -7.4958 0
M  V30 3689 H 325.387 0.16826 -7.79318 0
M  V30 3690 N 329.616 1.39756 -0.72842 0
M  V30 3691 C 331.027 1.83498 -0.344289 0
M  V30 3692 C 331.378 1.60868 1.12321 0
M  V30 3693 O 330.503 1.09634 1.86573 0
M  V30 3694 C 331.098 3.33114 -0.618112 0
M  V30 3695 C 329.657 3.753 -0.287549 0
M  V30 3696 C 328.804 2.62831 -0.884048 0
M  V30 3697 H 331.755 1.28842 -0.926578 0
M  V30 3698 H 331.776 3.80334 0.112349 0
M  V30 3699 H 331.288 3.49553 -1.68625 0
M  V30 3700 H 329.389 3.64451 0.775012 0
M  V30 3701 H 329.502 4.72945 -0.765512 0
M  V30 3702 H 327.866 2.52792 -0.311149 0
M  V30 3703 H 328.649 2.82078 -1.95671 0
M  V30 3704 N 331.094 0.475555 1.50254 0
M  V30 3705 C 332.041 -0.316293 2.28622 0
M  V30 3706 C 333.011 -0.983227 1.33873 0
M  V30 3707 O 334.196 -0.994805 1.62814 0
M  V30 3708 C 331.336 -1.38975 3.1588 0
M  V30 3709 C 330.449 -0.737146 4.25664 0
M  V30 3710 C 329.584 -1.78887 5.00173 0
M  V30 3711 C 328.623 -1.11676 6.01826 0
M  V30 3712 N 327.76 -2.11154 6.69596 0
M  V30 3713 H 332.6 0.358297 2.95838 0
M  V30 3714 H 330.137 0.188541 1.45887 0
M  V30 3715 H 332.095 -2.02383 3.64825 0
M  V30 3716 H 330.725 -2.03344 2.50701 0
M  V30 3717 H 329.777 0.0096065 3.80399 0
M  V30 3718 H 331.089 -0.206816 4.98371 0
M  V30 3719 H 330.243 -2.49865 5.52859 0
M  V30 3720 H 328.982 -2.35302 4.27182 0
M  V30 3721 H 327.987 -0.392633 5.48396 0
M  V30 3722 H 329.212 -0.55945 6.76792 0
M  V30 3723 H 327.158 -2.66577 5.99394 0
M  V30 3724 H 327.075 -1.63118 7.38193 0
M  V30 3725 H 328.343 -2.81497 7.26897 0
M  V30 3726 N 332.573 -1.56217 0.208337 0
M  V30 3727 C 333.505 -2.1695 -0.739276 0
M  V30 3728 C 334.518 -1.13492 -1.1672 0
M  V30 3729 O 335.707 -1.40529 -1.10063 0
M  V30 3730 C 332.807 -2.72755 -2.01142 0
M  V30 3731 C 331.98 -4.0125 -1.74118 0
M  V30 3732 C 331.039 -4.41749 -2.85909 0
M  V30 3733 O 330.065 -5.08912 -2.54946 0
M  V30 3734 N 331.267 -4.06342 -4.14568 0
M  V30 3735 H 334.032 -2.98893 -0.219837 0
M  V30 3736 H 331.593 -1.61878 0.0268445 0
M  V30 3737 H 333.585 -2.96826 -2.75094 0
M  V30 3738 H 332.155 -1.95191 -2.4417 0
M  V30 3739 H 331.375 -3.85173 -0.838775 0
M  V30 3740 H 332.663 -4.851 -1.53477 0
M  V30 3741 H 332.061 -3.52345 -4.42571 0
M  V30 3742 H 330.618 -4.35335 -4.85105 0
M  V30 3743 N 334.051 0.0651679 -1.57465 0
M  V30 3744 C 335.298 0.763063 -1.87573 0
M  V30 3745 C 335.626 1.77242 -0.800961 0
M  V30 3746 O 334.881 1.94651 0.202316 0
M  V30 3747 C 335.18 1.50081 -3.24362 0
M  V30 3748 C 334.846 0.630816 -4.46466 0
M  V30 3749 C 333.508 0.391082 -4.79608 0
M  V30 3750 C 335.86 0.0279465 -5.21193 0
M  V30 3751 C 333.188 -0.460894 -5.84887 0
M  V30 3752 C 335.54 -0.811522 -6.27373 0
M  V30 3753 C 334.204 -1.06106 -6.59013 0
M  V30 3754 H 333.474 0.279224 -0.686378 0
M  V30 3755 H 336.121 0.0236726 -1.91485 0
M  V30 3756 H 334.426 2.31258 -3.16271 0
M  V30 3757 H 336.123 2.04571 -3.44894 0
M  V30 3758 H 332.713 0.8278 -4.2053 0
M  V30 3759 H 336.897 0.200262 -4.95896 0
M  V30 3760 H 332.153 -0.662907 -6.07796 0
M  V30 3761 H 336.327 -1.28537 -6.84435 0
M  V30 3762 H 333.954 -1.723 -7.40417 0
M  V30 3763 N 335.529 1.53961 0.336706 0
M  V30 3764 C 336.945 1.44378 0.680241 0
M  V30 3765 C 337.145 0.606034 1.9217 0
M  V30 3766 O 336.201 0.099688 2.52303 0
M  V30 3767 C 337.514 2.87945 0.8665 0
M  V30 3768 C 339.062 2.97763 0.964682 0
M  V30 3769 C 339.537 4.42453 1.18321 0
M  V30 3770 N 341.028 4.46008 1.25025 0
M  V30 3771 C 341.763 5.55102 1.43697 0
M  V30 3772 N 341.259 6.7419 1.59498 0
M  V30 3773 N 343.052 5.42727 1.463 0
M  V30 3774 H 335.203 2.06918 -0.479455 0
M  V30 3775 H 337.466 0.935634 -0.152619 0
M  V30 3776 H 337.172 3.51691 0.0256937 0
M  V30 3777 H 337.046 3.33293 1.76623 0
M  V30 3778 H 339.433 2.34153 1.796 0
M  V30 3779 H 339.514 2.55766 0.041708 0
M  V30 3780 H 339.158 5.06645 0.356788 0
M  V30 3781 H 339.088 4.82048 2.11985 0
M  V30 3782 H 341.579 3.60196 1.14312 0
M  V30 3783 H 341.892 7.53095 1.734 0
M  V30 3784 H 340.237 6.77123 1.56621 0
M  V30 3785 H 343.428 4.48647 1.33543 0
M  V30 3786 H 343.601 6.27806 1.6051 0
M  V30 3787 N 337.007 -0.598083 1.45811 0
M  V30 3788 C 337.954 -1.7082 1.55207 0
M  V30 3789 C 338.924 -1.61278 0.39732 0
M  V30 3790 O 340.109 -1.80717 0.612038 0
M  V30 3791 C 337.249 -3.09144 1.53376 0
M  V30 3792 C 336.362 -3.29423 2.79472 0
M  V30 3793 C 335.497 -4.57907 2.69248 0
M  V30 3794 C 334.536 -4.71476 3.90354 0
M  V30 3795 N 333.673 -5.9127 3.78608 0
M  V30 3796 H 338.513 -1.62125 2.50039 0
M  V30 3797 H 336.05 -0.790389 1.24062 0
M  V30 3798 H 338.008 -3.89186 1.50301 0
M  V30 3799 H 336.638 -3.16773 0.620876 0
M  V30 3800 H 335.69 -2.43091 2.92594 0
M  V30 3801 H 337.002 -3.3532 3.69272 0
M  V30 3802 H 336.156 -5.46157 2.64192 0
M  V30 3803 H 334.895 -4.54423 1.77063 0
M  V30 3804 H 333.9 -3.81648 3.95759 0
M  V30 3805 H 335.125 -4.76751 4.83617 0
M  V30 3806 H 333.071 -5.88813 2.89199 0
M  V30 3807 H 332.988 -5.98369 4.6205 0
M  V30 3808 H 334.256 -6.81992 3.77501 0
M  V30 3809 N 338.485 -1.33259 -0.841409 0
M  V30 3810 C 339.418 -1.1764 -1.95541 0
M  V30 3811 C 340.396 -0.072501 -1.62438 0
M  V30 3812 O 341.58 -0.23427 -1.87039 0
M  V30 3813 C 338.707 -0.803794 -3.29024 0
M  V30 3814 C 337.753 -1.91482 -3.81099 0
M  V30 3815 S 338.586 -3.52538 -4.03085 0
M  V30 3816 C 339.742 -3.17279 -5.39523 0
M  V30 3817 H 339.975 -2.11941 -2.08491 0
M  V30 3818 H 337.508 -1.18072 -0.9949 0
M  V30 3819 H 339.466 -0.595592 -4.06156 0
M  V30 3820 H 338.127 0.120574 -3.13868 0
M  V30 3821 H 337.32 -1.60742 -4.7768 0
M  V30 3822 H 336.922 -2.07956 -3.10854 0
M  V30 3823 H 339.214 -2.67946 -6.22263 0
M  V30 3824 H 340.157 -4.1293 -5.75234 0
M  V30 3825 H 340.565 -2.53943 -5.04156 0
M  V30 3826 N 339.963 1.05934 -1.16686 0
M  V30 3827 C 341.212 1.78188 -0.945085 0
M  V30 3828 C 341.525 1.88338 0.528021 0
M  V30 3829 O 342.731 2.57258 0.867799 0
M  V30 3830 C 341.187 3.20277 -1.64167 0
M  V30 3831 C 340.795 3.18281 -3.15279 0
M  V30 3832 C 342.539 3.97039 -1.502 0
M  V30 3833 C 340.446 4.55112 -3.7766 0
M  V30 3834 H 339.376 0.667866 -0.349959 0
M  V30 3835 H 342.027 1.18794 -1.39858 0
M  V30 3836 H 340.409 3.79952 -1.11589 0
M  V30 3837 H 341.583 2.68167 -3.74731 0
M  V30 3838 H 339.898 2.55018 -3.29173 0
M  V30 3839 H 342.495 4.98194 -1.94183 0
M  V30 3840 H 342.838 4.13845 -0.451461 0
M  V30 3841 H 343.371 3.43894 -1.99954 0
M  V30 3842 H 340.11 4.43512 -4.82677 0
M  V30 3843 H 339.63 5.05406 -3.22994 0
M  V30 3844 H 341.309 5.24064 -3.79428 0
M  V30 3845 N 341.441 0.965919 1.2453 0
M  V30 3846 C 342.373 0.452465 2.2469 0
M  V30 3847 C 343.386 -0.437821 1.56802 0
M  V30 3848 O 344.575 -0.244283 1.76821 0
M  V30 3849 C 341.675 -0.366258 3.36915 0
M  V30 3850 C 340.848 0.513701 4.34373 0
M  V30 3851 C 339.907 -0.248716 5.25612 0
M  V30 3852 O 338.933 0.356745 5.68081 0
M  V30 3853 N 340.135 -1.53877 5.59734 0
M  V30 3854 H 342.9 1.31361 2.69378 0
M  V30 3855 H 340.461 0.837541 1.38553 0
M  V30 3856 H 342.453 -0.884297 3.94921 0
M  V30 3857 H 341.023 -1.12832 2.91526 0
M  V30 3858 H 340.243 1.21273 3.75082 0
M  V30 3859 H 341.531 1.11391 4.96457 0
M  V30 3860 H 340.929 -2.05243 5.27154 0
M  V30 3861 H 339.486 -2.00254 6.20275 0
M  V30 3862 N 342.919 -1.39368 0.735821 0
M  V30 3863 C 343.851 -2.2913 0.0567723 0
M  V30 3864 C 344.864 -1.46859 -0.702589 0
M  V30 3865 O 346.053 -1.69925 -0.546616 0
M  V30 3866 C 343.153 -3.25492 -0.943823 0
M  V30 3867 C 342.326 -4.36709 -0.24581 0
M  V30 3868 C 341.385 -5.13376 -1.15463 0
M  V30 3869 O 340.411 -5.65683 -0.631803 0
M  V30 3870 N 341.613 -5.24656 -2.48427 0
M  V30 3871 H 344.378 -2.88047 0.827582 0
M  V30 3872 H 341.939 -1.50957 0.585112 0
M  V30 3873 H 343.931 -3.73657 -1.55443 0
M  V30 3874 H 342.501 -2.676 -1.61583 0
M  V30 3875 H 341.721 -3.9041 0.545286 0
M  V30 3876 H 343.009 -5.08244 0.237891 0
M  V30 3877 H 342.407 -4.83679 -2.93379 0
M  V30 3878 H 340.964 -5.76258 -3.04582 0
M  V30 3879 N 344.397 -0.483516 -1.5 0
M  V30 3880 C 345.625 0.0644831 -2.06799 0
M  V30 3881 C 346.04 1.32399 -1.34596 0
M  V30 3882 O 345.397 1.77626 -0.418946 0
M  V30 3883 C 345.448 0.339927 -3.59898 0
M  V30 3884 O 345.169 -0.869635 -4.29382 0
M  V30 3885 C 346.67 0.933515 -4.33359 0
M  V30 3886 H 343.89 -0.0126333 -0.670881 0
M  V30 3887 H 346.434 -0.675864 -1.93009 0
M  V30 3888 H 344.589 1.03022 -3.7345 0
M  V30 3889 H 345.003 -0.62179 -5.20801 0
M  V30 3890 H 346.477 1.07593 -5.41413 0
M  V30 3891 H 346.954 1.92685 -3.94676 0
M  V30 3892 H 347.56 0.281221 -4.24369 0
M  V30 3893 N 345.875 1.56104 -0.216619 0
M  V30 3894 C 347.122 1.98172 0.416416 0
M  V30 3895 C 347.45 1.10413 1.60122 0
M  V30 3896 O 346.705 0.147967 1.9514 0
M  V30 3897 C 347.004 3.45923 0.898464 0
M  V30 3898 C 346.67 4.50559 -0.175288 0
M  V30 3899 C 345.332 4.78897 -0.470271 0
M  V30 3900 C 347.684 5.1334 -0.901728 0
M  V30 3901 C 345.012 5.67299 -1.4963 0
M  V30 3902 C 347.364 6.02853 -1.91705 0
M  V30 3903 C 346.028 6.29537 -2.21901 0
M  V30 3904 H 345.298 0.725164 0.152377 0
M  V30 3905 H 347.945 1.88839 -0.318103 0
M  V30 3906 H 346.25 3.52434 1.71165 0
M  V30 3907 H 347.947 3.75841 1.39803 0
M  V30 3908 H 344.537 4.28551 0.0647806 0
M  V30 3909 H 348.721 4.91521 -0.687072 0
M  V30 3910 H 343.977 5.86239 -1.73592 0
M  V30 3911 H 348.151 6.50552 -2.48505 0
M  V30 3912 H 345.778 6.97835 -3.01548 0
M  V30 3913 N 347.353 -0.0568162 1.57498 0
M  V30 3914 C 348.285 -1.09292 2.01464 0
M  V30 3915 C 349.298 -1.34112 0.922913 0
M  V30 3916 O 350.487 -1.32089 1.20062 0
M  V30 3917 C 347.587 -2.44068 2.35125 0
M  V30 3918 C 346.76 -2.38995 3.66333 0
M  V30 3919 C 345.819 -3.55997 3.87495 0
M  V30 3920 O 344.845 -3.36746 4.58901 0
M  V30 3921 N 346.047 -4.76888 3.30996 0
M  V30 3922 H 348.812 -0.718386 2.90963 0
M  V30 3923 H 346.373 -0.245235 1.60032 0
M  V30 3924 H 348.365 -3.21011 2.46443 0
M  V30 3925 H 346.935 -2.73468 1.5144 0
M  V30 3926 H 346.155 -1.47336 3.65631 0
M  V30 3927 H 347.443 -2.3272 4.52458 0
M  V30 3928 H 346.841 -4.95431 2.73065 0
M  V30 3929 H 345.398 -5.51291 3.47738 0
M  V30 3930 N 348.832 -1.54138 -0.328536 0
M  V30 3931 C 349.764 -1.79509 -1.4251 0
M  V30 3932 C 350.777 -0.67688 -1.48061 0
M  V30 3933 O 351.966 -0.953898 -1.50874 0
M  V30 3934 C 349.066 -1.89337 -2.81078 0
M  V30 3935 C 348.239 -3.19443 -2.98789 0
M  V30 3936 C 347.298 -3.20036 -4.17688 0
M  V30 3937 O 346.324 -3.93697 -4.11086 0
M  V30 3938 N 347.526 -2.43467 -5.26976 0
M  V30 3939 H 350.291 -2.74139 -1.21111 0
M  V30 3940 H 347.852 -1.53373 -0.518499 0
M  V30 3941 H 349.844 -1.87167 -3.58818 0
M  V30 3942 H 348.414 -1.01826 -2.95551 0
M  V30 3943 H 347.634 -3.34614 -2.08391 0
M  V30 3944 H 348.922 -4.05354 -3.07515 0
M  V30 3945 H 348.32 -1.83201 -5.35214 0
M  V30 3946 H 346.877 -2.4708 -6.03154 0
M  V30 3947 N 350.31 0.590341 -1.46126 0
M  V30 3948 C 351.54 1.37304 -1.54373 0
M  V30 3949 C 351.948 1.88332 -0.181071 0
M  V30 3950 O 351.291 1.63852 0.830559 0
M  V30 3951 C 351.353 2.6012 -2.48149 0
M  V30 3952 C 351.017 2.30613 -3.94546 0
M  V30 3953 C 352.014 1.89915 -4.83971 0
M  V30 3954 C 349.699 2.42993 -4.39613 0
M  V30 3955 C 351.693 1.61981 -6.16475 0
M  V30 3956 C 349.38 2.14672 -5.72153 0
M  V30 3957 C 350.378 1.7423 -6.60404 0
M  V30 3958 O 350.066 1.46251 -7.90485 0
M  V30 3959 H 349.798 0.426086 -0.524811 0
M  V30 3960 H 352.352 0.72539 -1.92165 0
M  V30 3961 H 350.582 3.27664 -2.05361 0
M  V30 3962 H 352.271 3.22182 -2.46887 0
M  V30 3963 H 353.037 1.79872 -4.50412 0
M  V30 3964 H 348.916 2.73435 -3.71153 0
M  V30 3965 H 352.46 1.30341 -6.85315 0
M  V30 3966 H 348.357 2.24337 -6.05263 0
M  V30 3967 H 349.125 1.6016 -8.02677 0
M  V30 3968 N 351.788 1.33704 0.83433 0
M  V30 3969 C 352.751 1.24244 1.92603 0
M  V30 3970 C 353.751 0.160383 1.59998 0
M  V30 3971 O 354.941 0.412228 1.69252 0
M  V30 3972 C 352.073 0.91555 3.28376 0
M  V30 3973 H 353.266 2.21287 2.02416 0
M  V30 3974 H 350.819 1.17827 1.02696 0
M  V30 3975 H 351.554 -0.0521886 3.24258 0
M  V30 3976 H 351.339 1.69811 3.53422 0
M  V30 3977 H 352.829 0.874231 4.08347 0
M  V30 3978 N 353.266 -1.05314 1.17247 0
M  V30 3979 C 354.491 -1.82509 0.985148 0
M  V30 3980 C 354.916 -1.82343 -0.461788 0
M  V30 3981 O 354.274 -1.23151 -1.33055 0
M  V30 3982 C 354.322 -3.26566 1.52929 0
M  V30 3983 O 353.426 -4.05666 0.742225 0
M  V30 3984 H 352.767 -0.564347 0.349869 0
M  V30 3985 H 355.297 -1.32718 1.55715 0
M  V30 3986 H 355.307 -3.77369 1.55103 0
M  V30 3987 H 353.982 -3.26001 2.58256 0
M  V30 3988 H 352.559 -3.64397 0.791794 0
M  V30 3989 N 354.744 -0.972509 -1.24016 0
M  V30 3990 C 355.674 -0.525548 -2.27509 0
M  V30 3991 C 356.655 0.437262 -1.64384 0
M  V30 3992 O 357.84 0.332343 -1.91335 0
M  V30 3993 C 354.97 0.180448 -3.46831 0
M  V30 3994 C 353.924 -0.698859 -4.22256 0
M  V30 3995 C 353.25 0.138903 -5.3452 0
M  V30 3996 C 354.55 -1.98582 -4.83076 0
M  V30 3997 H 356.244 -1.39058 -2.65148 0
M  V30 3998 H 353.79 -0.67009 -1.27459 0
M  V30 3999 H 355.743 0.504387 -4.18371 0
M  V30 4000 H 354.467 1.07987 -3.08231 0
M  V30 4001 H 353.126 -1.00614 -3.52523 0
M  V30 4002 H 352.774 1.03862 -4.9216 0
M  V30 4003 H 352.474 -0.446259 -5.85903 0
M  V30 4004 H 353.998 0.457404 -6.08884 0
M  V30 4005 H 355.412 -1.72715 -5.46665 0
M  V30 4006 H 353.809 -2.5181 -5.44713 0
M  V30 4007 H 354.879 -2.67769 -4.04262 0
M  V30 4008 N 356.222 1.38976 -0.743202 0
M  V30 4009 C 357.638 1.53984 -0.419664 0
M  V30 4010 C 357.838 1.70837 1.0685 0
M  V30 4011 O 356.894 1.7135 1.8546 0
M  V30 4012 C 358.207 2.75287 -1.20985 0
M  V30 4013 C 359.755 2.89129 -1.19889 0
M  V30 4014 C 360.23 4.13381 -1.97181 0
M  V30 4015 N 361.721 4.20437 -1.94389 0
M  V30 4016 C 362.456 5.15547 -2.50996 0
M  V30 4017 N 361.952 6.16395 -3.16274 0
M  V30 4018 N 363.745 5.07822 -2.40984 0
M  V30 4019 H 355.896 1.26285 -1.7078 0
M  V30 4020 H 358.159 0.612689 -0.723406 0
M  V30 4021 H 357.865 2.69204 -2.26323 0
M  V30 4022 H 357.739 3.68184 -0.819759 0
M  V30 4023 H 360.126 2.947 -0.153606 0
M  V30 4024 H 360.207 1.97272 -1.62841 0
M  V30 4025 H 359.851 4.08572 -3.01714 0
M  V30 4026 H 359.781 5.04298 -1.51629 0
M  V30 4027 H 362.272 3.48205 -1.46839 0
M  V30 4028 H 362.585 6.85443 -3.56915 0
M  V30 4029 H 360.93 6.16758 -3.20367 0
M  V30 4030 H 364.121 4.27973 -1.89622 0
M  V30 4031 H 364.294 5.81767 -2.85397 0
M  V30 4032 N 357.7 0.491464 1.49741 0
M  V30 4033 C 358.61 -0.296835 2.32715 0
M  V30 4034 C 359.626 -0.976536 1.44013 0
M  V30 4035 O 360.802 -0.960023 1.77047 0
M  V30 4036 C 357.867 -1.35288 3.19215 0
M  V30 4037 C 356.928 -0.687632 4.23757 0
M  V30 4038 C 356.161 -1.69336 5.06123 0
M  V30 4039 O 356.384 -2.92219 4.89861 0
M  V30 4040 O 355.318 -1.25394 5.88693 0
M  V30 4041 H 359.144 0.382048 3.01287 0
M  V30 4042 H 356.729 0.252953 1.47243 0
M  V30 4043 H 358.611 -1.96411 3.72828 0
M  V30 4044 H 357.286 -2.01487 2.53347 0
M  V30 4045 H 356.193 -0.0369159 3.74082 0
M  V30 4046 H 357.526 -0.0682566 4.92153 0
M  V30 4047 N 359.178 -1.55987 0.224894 0
M  V30 4048 C 360.088 -2.24066 -0.69511 0
M  V30 4049 C 361.104 -1.24939 -1.21104 0
M  V30 4050 O 362.28 -1.5776 -1.25195 0
M  V30 4051 C 359.345 -2.90983 -1.88493 0
M  V30 4052 C 358.406 -4.05462 -1.41064 0
M  V30 4053 C 357.639 -4.69179 -2.54375 0
M  V30 4054 O 357.862 -4.31895 -3.72589 0
M  V30 4055 O 356.796 -5.58108 -2.25386 0
M  V30 4056 H 360.622 -3.03353 -0.145149 0
M  V30 4057 H 358.207 -1.49399 -0.00569476 0
M  V30 4058 H 360.089 -3.33209 -2.57972 0
M  V30 4059 H 358.764 -2.14653 -2.42293 0
M  V30 4060 H 357.671 -3.67798 -0.683774 0
M  V30 4061 H 359.004 -4.83545 -0.918985 0
M  V30 4062 N 360.656 0.0484629 -1.57525 0
M  V30 4063 C 361.566 1.07241 -2.08654 0
M  V30 4064 C 362.582 1.409 -1.02095 0
M  V30 4065 O 363.758 1.50609 -1.33712 0
M  V30 4066 C 360.823 2.36008 -2.5397 0
M  V30 4067 C 359.884 2.09108 -3.7493 0
M  V30 4068 C 359.117 3.31736 -4.18075 0
M  V30 4069 O 359.34 4.41714 -3.60895 0
M  V30 4070 O 358.274 3.18576 -5.10679 0
M  V30 4071 H 362.1 0.667965 -2.96263 0
M  V30 4072 H 359.685 0.26417 -1.47046 0
M  V30 4073 H 361.567 3.11747 -2.83535 0
M  V30 4074 H 360.242 2.75786 -1.69481 0
M  V30 4075 H 359.149 1.31 -3.50414 0
M  V30 4076 H 360.482 1.74198 -4.60343 0
M  V30 4077 N 362.134 1.5431 0.320358 0
M  V30 4078 C 363.374 1.74395 1.0661 0
M  V30 4079 C 363.738 0.508602 1.85141 0
M  V30 4080 O 364.939 0.586856 2.62316 0
M  V30 4081 C 363.21 2.98619 1.96371 0
M  V30 4082 S 364.769 3.39621 2.77854 0
M  V30 4083 H 361.587 0.613204 0.359863 0
M  V30 4084 H 364.189 1.9249 0.341727 0
M  V30 4085 H 362.893 3.86673 1.3752 0
M  V30 4086 H 362.424 2.83055 2.73209 0
M  V30 4087 H 364.439 2.95172 3.98858 0
M  V30 4088 N 363.613 -0.582584 1.46437 0
M  V30 4089 C 364.859 -1.34278 1.51978 0
M  V30 4090 C 365.192 -1.93446 0.170973 0
M  V30 4091 O 364.467 -1.76481 -0.817608 0
M  V30 4092 C 364.75 -2.47203 2.61845 0
M  V30 4093 C 364.603 -1.93069 4.06257 0
M  V30 4094 C 365.922 -3.49247 2.67795 0
M  V30 4095 H 363.041 -0.486876 0.553282 0
M  V30 4096 H 365.683 -0.654437 1.78374 0
M  V30 4097 H 363.833 -3.0592 2.39469 0
M  V30 4098 H 365.505 -1.38808 4.3992 0
M  V30 4099 H 363.748 -1.23898 4.1573 0
M  V30 4100 H 364.419 -2.74586 4.7886 0
M  V30 4101 H 366.895 -3.00411 2.8791 0
M  V30 4102 H 365.771 -4.25719 3.46489 0
M  V30 4103 H 366.032 -4.06482 1.73852 0
M  V30 4104 N 365.091 -1.34144 -0.827227 0
M  V30 4105 C 366.024 -1.19707 -1.94282 0
M  V30 4106 C 367.002 -0.0897256 -1.62352 0
M  V30 4107 O 368.186 -0.254095 -1.8678 0
M  V30 4108 C 365.313 -0.838646 -3.28153 0
M  V30 4109 C 364.359 -1.95514 -3.79047 0
M  V30 4110 S 365.192 -3.56793 -3.99323 0
M  V30 4111 C 366.348 -3.22983 -5.36127 0
M  V30 4112 H 366.581 -2.1414 -2.06231 0
M  V30 4113 H 364.114 -1.19121 -0.982321 0
M  V30 4114 H 366.072 -0.638637 -4.05502 0
M  V30 4115 H 364.733 0.0872776 -3.13979 0
M  V30 4116 H 363.926 -1.658 -4.75948 0
M  V30 4117 H 363.528 -2.11241 -3.08631 0
M  V30 4118 H 365.82 -2.74531 -6.19386 0
M  V30 4119 H 366.763 -4.19008 -5.70822 0
M  V30 4120 H 367.171 -2.59276 -5.01434 0
M  V30 4121 N 366.569 1.04691 -1.17803 0
M  V30 4122 C 367.516 2.12557 -0.899343 0
M  V30 4123 C 368.486 1.65339 0.158771 0
M  V30 4124 O 369.671 1.90789 0.0204797 0
M  V30 4125 C 366.811 3.42481 -0.424315 0
M  V30 4126 C 365.924 4.03346 -1.54713 0
M  V30 4127 C 365.059 5.21208 -1.02546 0
M  V30 4128 C 364.098 5.74089 -2.12339 0
M  V30 4129 N 363.235 6.83247 -1.61612 0
M  V30 4130 H 368.075 2.35734 -1.823 0
M  V30 4131 H 365.612 1.1564 -0.909159 0
M  V30 4132 H 367.57 4.16996 -0.130421 0
M  V30 4133 H 366.2 3.19471 0.462377 0
M  V30 4134 H 365.252 3.2622 -1.95664 0
M  V30 4135 H 366.564 4.38628 -2.37501 0
M  V30 4136 H 365.718 6.02812 -0.685718 0
M  V30 4137 H 364.457 4.87414 -0.167084 0
M  V30 4138 H 363.462 4.91111 -2.47165 0
M  V30 4139 H 364.687 6.0993 -2.98601 0
M  V30 4140 H 362.633 6.5134 -0.780533 0
M  V30 4141 H 362.55 7.17559 -2.38003 0
M  V30 4142 H 363.818 7.68491 -1.30545 0
M  V30 4143 N 368.047 0.979072 1.23499 0
M  V30 4144 C 369.294 0.647219 1.91878 0
M  V30 4145 C 369.622 -0.819074 1.76413 0
M  V30 4146 O 368.877 -1.60616 1.11808 0
M  V30 4147 C 369.176 0.981932 3.43646 0
M  V30 4148 C 368.842 2.43822 3.79291 0
M  V30 4149 C 367.504 2.83622 3.88731 0
M  V30 4150 C 369.856 3.3828 3.96505 0
M  V30 4151 C 367.184 4.16897 4.12812 0
M  V30 4152 C 369.536 4.71197 4.22085 0
M  V30 4153 C 368.2 5.10758 4.29747 0
M  V30 4154 H 367.47 0.236834 0.702133 0
M  V30 4155 H 370.117 1.23268 1.46551 0
M  V30 4156 H 368.422 0.314365 3.90537 0
M  V30 4157 H 370.119 0.703395 3.94783 0
M  V30 4158 H 366.709 2.11966 3.72516 0
M  V30 4159 H 370.893 3.0871 3.88603 0
M  V30 4160 H 366.149 4.47157 4.16966 0
M  V30 4161 H 370.323 5.44348 4.34348 0
M  V30 4162 H 367.95 6.1405 4.48159 0
M  V30 4163 N 369.525 -1.3858 0.750561 0
M  V30 4164 C 370.772 -2.00184 0.305373 0
M  V30 4165 C 371.1 -1.59575 -1.11203 0
M  V30 4166 O 370.355 -0.823236 -1.77542 0
M  V30 4167 C 370.654 -3.55455 0.372373 0
M  V30 4168 C 370.32 -4.15765 1.745 0
M  V30 4169 C 368.982 -4.31951 2.12065 0
M  V30 4170 C 371.334 -4.49067 2.64553 0
M  V30 4171 C 368.662 -4.78734 3.39162 0
M  V30 4172 C 371.014 -4.97265 3.91038 0
M  V30 4173 C 369.678 -5.11658 4.28676 0
M  V30 4174 H 368.948 -0.732526 0.111744 0
M  V30 4175 H 371.595 -1.65673 0.960451 0
M  V30 4176 H 369.9 -3.90084 -0.366272 0
M  V30 4177 H 371.597 -4.00999 0.00953918 0
M  V30 4178 H 368.187 -4.03579 1.44297 0
M  V30 4179 H 372.371 -4.36166 2.36796 0
M  V30 4180 H 367.627 -4.88062 3.68246 0
M  V30 4181 H 371.801 -5.22003 4.60962 0
M  V30 4182 H 369.428 -5.47668 5.27222 0
M  V30 4183 N 371.003 -0.499398 -1.49478 0
M  V30 4184 C 371.951 0.293604 -2.3074 0
M  V30 4185 C 372.945 0.96427 -1.39277 0
M  V30 4186 O 374.151 0.892141 -1.56336 0
M  V30 4187 H 370.526 0.113541 -0.743379 0
M  V30 4188 H 372.497 -0.411772 -2.95545 0
M  V30 4189 C 371.246 1.3462 -3.20582 0
M  V30 4190 H 370.569 0.83954 -3.90886 0
M  V30 4191 H 372.009 1.87308 -3.80384 0
M  V30 4192 C 370.468 2.36351 -2.40083 0
M  V30 4193 O 370.998 3.422 -2.10385 0
M  V30 4194 N 369.204 2.0878 -2.02137 0
M  V30 4195 H 368.751 1.22723 -2.26488 0
M  V30 4196 H 368.709 2.77075 -1.48583 0
M  V30 4197 N 372.481 1.55866 -0.233164 0
M  V30 4198 C 373.709 2.02998 0.399905 0
M  V30 4199 C 374.124 1.11274 1.52524 0
M  V30 4200 O 373.481 0.124528 1.82075 0
M  V30 4201 C 373.532 3.4958 0.920639 0
M  V30 4202 O 373.253 4.37808 -0.159834 0
M  V30 4203 C 374.754 4.12411 1.62578 0
M  V30 4204 H 371.974 0.664006 0.0966281 0
M  V30 4205 H 374.518 2.0143 -0.353013 0
M  V30 4206 H 372.673 3.51727 1.62379 0
M  V30 4207 H 373.087 5.23981 0.23337 0
M  V30 4208 H 374.561 5.16711 1.94201 0
M  V30 4209 H 375.038 3.5809 2.54299 0
M  V30 4210 H 375.644 4.14148 0.967553 0
M  V30 4211 N 373.959 -0.0401083 1.57549 0
M  V30 4212 C 374.889 -1.04384 2.08869 0
M  V30 4213 C 375.87 -1.38407 0.988817 0
M  V30 4214 O 377.055 -1.47483 1.26342 0
M  V30 4215 C 374.185 -2.34808 2.55895 0
M  V30 4216 C 373.139 -2.15057 3.70047 0
M  V30 4217 C 372.465 -3.51145 4.03239 0
M  V30 4218 C 373.765 -1.54576 4.98902 0
M  V30 4219 H 375.459 -0.616666 2.92981 0
M  V30 4220 H 373.005 -0.295184 1.40942 0
M  V30 4221 H 374.958 -3.05346 2.90417 0
M  V30 4222 H 373.682 -2.79565 1.68853 0
M  V30 4223 H 372.341 -1.46954 3.35857 0
M  V30 4224 H 371.989 -3.93529 3.13279 0
M  V30 4225 H 371.689 -3.38758 4.80122 0
M  V30 4226 H 373.213 -4.23062 4.40285 0
M  V30 4227 H 374.627 -2.15017 5.31451 0
M  V30 4228 H 373.024 -1.52796 5.80322 0
M  V30 4229 H 374.094 -0.51039 4.82206 0
M  V30 4230 N 375.437 -1.54477 -0.31217 0
M  V30 4231 C 376.4 -1.83923 -1.36766 0
M  V30 4232 C 377.4 -0.711563 -1.44199 0
M  V30 4233 O 378.59 -0.979866 -1.44029 0
M  V30 4234 C 375.722 -2.0095 -2.75376 0
M  V30 4235 H 376.915 -2.78239 -1.11906 0
M  V30 4236 H 374.468 -1.46369 -0.548257 0
M  V30 4237 H 375.203 -1.08883 -3.05475 0
M  V30 4238 H 374.988 -2.83018 -2.71373 0
M  V30 4239 H 376.478 -2.2514 -3.51713 0
M  V30 4240 N 376.915 0.57481 -1.46744 0
M  V30 4241 C 378.163 1.33009 -1.52161 0
M  V30 4242 C 378.484 1.94185 -0.178092 0
M  V30 4243 O 377.754 1.7899 0.796196 0
M  V30 4244 H 376.334 0.493873 -0.560445 0
M  V30 4245 H 378.996 0.672589 -1.82927 0
M  V30 4246 H 378.092 2.13273 -2.27862 0
M  V30 4247 N 378.394 1.34581 0.820102 0
M  V30 4248 C 379.641 1.27096 1.57648 0
M  V30 4249 C 379.969 -0.158317 1.93855 0
M  V30 4250 O 379.224 -1.12028 1.60463 0
M  V30 4251 C 379.523 2.10997 2.8847 0
M  V30 4252 C 379.189 3.59966 2.71543 0
M  V30 4253 C 377.851 4.00575 2.66634 0
M  V30 4254 C 380.203 4.54548 2.55021 0
M  V30 4255 C 377.531 5.33953 2.43128 0
M  V30 4256 C 379.883 5.88109 2.33047 0
M  V30 4257 C 378.547 6.27878 2.26552 0
M  V30 4258 H 377.817 0.465078 0.576874 0
M  V30 4259 H 380.464 1.6635 0.948671 0
M  V30 4260 H 378.769 1.6458 3.55557 0
M  V30 4261 H 380.466 2.0255 3.46084 0
M  V30 4262 H 377.056 3.27733 2.76205 0
M  V30 4263 H 381.24 4.24069 2.57835 0
M  V30 4264 H 376.496 5.63781 2.3656 0
M  V30 4265 H 380.67 6.60985 2.19251 0
M  V30 4266 H 378.297 7.31162 2.081 0
M  V30 4267 N 379.872 -1.04064 1.18357 0
M  V30 4268 C 380.835 -2.10243 0.912707 0
M  V30 4269 C 381.835 -1.60477 -0.101928 0
M  V30 4270 O 383.025 -1.73703 0.131517 0
M  V30 4271 C 380.157 -3.38893 0.369387 0
M  V30 4272 H 381.35 -2.35706 1.85426 0
M  V30 4273 H 378.903 -1.20489 0.995594 0
M  V30 4274 H 379.638 -3.19094 -0.578776 0
M  V30 4275 H 379.423 -3.76331 1.1008 0
M  V30 4276 H 380.913 -4.17128 0.198575 0
M  V30 4277 N 381.35 -0.985608 -1.22978 0
M  V30 4278 C 382.298 -0.522631 -2.26652 0
M  V30 4279 C 383.292 0.422998 -1.64034 0
M  V30 4280 O 384.498 0.296319 -1.77544 0
M  V30 4281 H 380.873 -0.150597 -0.736766 0
M  V30 4282 H 382.844 -1.40863 -2.63059 0
M  V30 4283 C 381.593 0.154238 -3.47358 0
M  V30 4284 H 380.916 -0.564329 -3.95797 0
M  V30 4285 H 382.356 0.441744 -4.21693 0
M  V30 4286 C 380.815 1.38719 -3.07016 0
M  V30 4287 O 381.345 2.48307 -3.15764 0
M  V30 4288 N 379.551 1.25975 -2.61875 0
M  V30 4289 H 379.098 0.368068 -2.54957 0
M  V30 4290 H 379.056 2.08578 -2.3525 0
M  V30 4291 N 382.828 1.3818 -0.7579 0
M  V30 4292 C 384.077 1.99261 -0.312744 0
M  V30 4293 C 384.39 1.60846 1.11301 0
M  V30 4294 O 385.596 2.14929 1.65885 0
M  V30 4295 C 384.052 3.56294 -0.50821 0
M  V30 4296 C 383.66 4.03657 -1.94333 0
M  V30 4297 C 385.404 4.24313 -0.125982 0
M  V30 4298 C 383.311 5.53347 -2.08712 0
M  V30 4299 H 382.241 0.745456 -0.113185 0
M  V30 4300 H 384.892 1.57889 -0.935056 0
M  V30 4301 H 383.274 3.95575 0.183353 0
M  V30 4302 H 384.448 3.75655 -2.66871 0
M  V30 4303 H 382.763 3.48376 -2.28086 0
M  V30 4304 H 385.36 5.34279 -0.212125 0
M  V30 4305 H 385.703 4.05962 0.921964 0
M  V30 4306 H 386.236 3.90285 -0.769563 0
M  V30 4307 H 382.975 5.76607 -3.11777 0
M  V30 4308 H 382.495 5.83078 -1.4064 0
M  V30 4309 H 384.174 6.19111 -1.87912 0
M  V30 4310 N 384.306 0.507319 1.49211 0
M  V30 4311 C 385.583 -0.0982702 1.95353 0
M  V30 4312 C 385.963 -1.53516 1.449 0
M  V30 4313 O 385.311 -2.18594 0.66551 0
M  V30 4314 C 385.521 -0.00440283 3.49 0
M  V30 4315 C 386.869 -0.175147 4.24239 0
M  V30 4316 O 387.893 -0.0792891 3.56112 0
M  V30 4317 O 386.752 -0.37276 5.45227 0
M  V30 4318 H 383.846 -0.0918236 0.821887 0
M  V30 4319 H 386.392 0.570307 1.5983 0
M  V30 4320 H 385.164 0.997402 3.78375 0
M  V30 4321 H 384.787 -0.712845 3.91158 0
M  V30 4322 N 385.784 -1.5574 0.241426 0
M  V30 4323 C 386.716 -2.18469 -0.693091 0
M  V30 4324 C 387.729 -1.15942 -1.14286 0
M  V30 4325 O 388.918 -1.42832 -1.07058 0
M  V30 4326 C 386.018 -2.7696 -1.95311 0
M  V30 4327 C 385.191 -4.04853 -1.65568 0
M  V30 4328 C 384.25 -4.47715 -2.76474 0
M  V30 4329 O 383.276 -5.14205 -2.44094 0
M  V30 4330 N 384.478 -4.15044 -4.05855 0
M  V30 4331 H 387.243 -2.99292 -0.156388 0
M  V30 4332 H 384.804 -1.61784 0.0611752 0
M  V30 4333 H 386.796 -3.02594 -2.68736 0
M  V30 4334 H 385.366 -2.00326 -2.39975 0
M  V30 4335 H 384.586 -3.86865 -0.756886 0
M  V30 4336 H 385.874 -4.88246 -1.43153 0
M  V30 4337 H 385.272 -3.61654 -4.34998 0
M  V30 4338 H 383.829 -4.45526 -4.75762 0
M  V30 4339 N 387.262 0.0317525 -1.57568 0
M  V30 4340 C 388.172 1.05021 -2.0978 0
M  V30 4341 C 389.188 1.39809 -1.03583 0
M  V30 4342 O 390.364 1.49182 -1.35302 0
M  V30 4343 C 387.429 2.33301 -2.56459 0
M  V30 4344 C 386.49 2.0512 -3.77127 0
M  V30 4345 C 385.723 3.27283 -4.2157 0
M  V30 4346 O 385.946 4.37861 -3.65559 0
M  V30 4347 O 384.88 3.13141 -5.14029 0
M  V30 4348 H 388.706 0.636505 -2.96955 0
M  V30 4349 H 386.291 0.248559 -1.47318 0
M  V30 4350 H 388.173 3.08722 -2.86825 0
M  V30 4351 H 386.848 2.73973 -1.72397 0
M  V30 4352 H 385.755 1.27276 -3.51784 0
M  V30 4353 H 387.088 1.69305 -4.62165 0
M  V30 4354 N 388.74 1.54641 0.303973 0
M  V30 4355 C 389.968 1.77768 1.05858 0
M  V30 4356 C 390.383 0.535722 1.8104 0
M  V30 4357 O 389.74 -0.494337 1.75677 0
M  V30 4358 C 389.791 2.9834 2.04146 0
M  V30 4359 O 389.512 4.17736 1.32015 0
M  V30 4360 C 391.013 3.33832 2.91669 0
M  V30 4361 H 388.233 0.592961 0.314067 0
M  V30 4362 H 390.777 2.01583 0.344149 0
M  V30 4363 H 388.932 2.76742 2.71096 0
M  V30 4364 H 389.346 4.85693 1.97998 0
M  V30 4365 H 390.82 4.21448 3.56491 0
M  V30 4366 H 391.297 2.51857 3.59812 0
M  V30 4367 H 391.903 3.57579 2.30254 0
M  V30 4368 N 390.218 -0.567019 1.47046 0
M  V30 4369 C 391.448 -1.34831 1.56538 0
M  V30 4370 C 391.856 -1.8802 0.21101 0
M  V30 4371 O 391.199 -1.65152 -0.804387 0
M  V30 4372 C 391.261 -2.56139 2.52256 0
M  V30 4373 C 390.925 -2.24307 3.98165 0
M  V30 4374 C 391.922 -1.82192 4.86931 0
M  V30 4375 C 389.607 -2.35968 4.43423 0
M  V30 4376 C 391.601 -1.52153 6.18973 0
M  V30 4377 C 389.288 -2.05542 5.75496 0
M  V30 4378 C 390.286 -1.63701 6.63092 0
M  V30 4379 O 389.974 -1.33657 7.92711 0
M  V30 4380 H 389.706 -0.417683 0.531523 0
M  V30 4381 H 392.26 -0.694726 1.93294 0
M  V30 4382 H 390.49 -3.24356 2.10548 0
M  V30 4383 H 392.179 -3.18214 2.51982 0
M  V30 4384 H 392.945 -1.72684 4.53217 0
M  V30 4385 H 388.824 -2.67495 3.75456 0
M  V30 4386 H 392.368 -1.19421 6.87302 0
M  V30 4387 H 388.265 -2.14679 6.08755 0
M  V30 4388 H 389.033 -1.4737 8.05124 0
M  V30 4389 N 391.696 -1.35014 -0.812953 0
M  V30 4390 C 393.112 -1.14914 -1.10757 0
M  V30 4391 C 393.312 0.0426818 -2.01455 0
M  V30 4392 O 392.368 0.715212 -2.42159 0
M  V30 4393 C 393.681 -2.44911 -1.74468 0
M  V30 4394 C 395.229 -2.5106 -1.86917 0
M  V30 4395 C 395.704 -3.81085 -2.54044 0
M  V30 4396 N 397.195 -3.82301 -2.61535 0
M  V30 4397 C 397.93 -4.79634 -3.14227 0
M  V30 4398 N 397.426 -5.87353 -3.67407 0
M  V30 4399 N 399.219 -4.67078 -3.12721 0
M  V30 4400 H 391.37 -2.1136 -0.20989 0
M  V30 4401 H 393.633 -0.935128 -0.155692 0
M  V30 4402 H 393.339 -3.32267 -1.15289 0
M  V30 4403 H 393.213 -2.58989 -2.74234 0
M  V30 4404 H 395.6 -1.64137 -2.45241 0
M  V30 4405 H 395.681 -2.40901 -0.860242 0
M  V30 4406 H 395.325 -4.68402 -1.96372 0
M  V30 4407 H 395.255 -3.88529 -3.55461 0
M  V30 4408 H 397.746 -3.04465 -2.23851 0
M  V30 4409 H 398.059 -6.57624 -4.05894 0
M  V30 4410 H 396.404 -5.91054 -3.65623 0
M  V30 4411 H 399.595 -3.82067 -2.70449 0
M  V30 4412 H 399.768 -5.43098 -3.53481 0
M  V30 4413 N 393.175 1.03435 -1.18907 0
M  V30 4414 C 394.415 1.78302 -0.999391 0
M  V30 4415 C 394.779 1.86353 0.462219 0
M  V30 4416 O 395.98 2.57489 0.771543 0
M  V30 4417 C 394.251 3.17362 -1.64365 0
M  V30 4418 S 395.81 4.08488 -1.6026 0
M  V30 4419 H 392.628 0.613861 -0.358742 0
M  V30 4420 H 395.23 1.23979 -1.51161 0
M  V30 4421 H 393.934 3.09116 -2.69955 0
M  V30 4422 H 393.465 3.76762 -1.13199 0
M  V30 4423 H 395.48 4.92274 -0.622932 0
M  V30 4424 N 394.653 0.992116 1.22453 0
M  V30 4425 C 395.563 0.55065 2.28046 0
M  V30 4426 C 396.579 -0.400189 1.69335 0
M  V30 4427 O 397.755 -0.267215 1.99619 0
M  V30 4428 C 394.82 -0.128496 3.46462 0
M  V30 4429 C 393.881 0.865208 4.20491 0
M  V30 4430 C 393.114 0.218377 5.33253 0
M  V30 4431 O 393.337 -0.987894 5.6178 0
M  V30 4432 O 392.271 0.922845 5.94783 0
M  V30 4433 H 396.097 1.4291 2.67975 0
M  V30 4434 H 393.682 0.760326 1.28606 0
M  V30 4435 H 395.564 -0.508947 4.18315 0
M  V30 4436 H 394.239 -0.981526 3.0846 0
M  V30 4437 H 393.146 1.29658 3.50913 0
M  V30 4438 H 394.479 1.68741 4.62371 0
M  V30 4439 N 396.131 -1.37776 0.765217 0
M  V30 4440 C 397.061 -2.32945 0.160953 0
M  V30 4441 C 398.042 -1.55454 -0.690516 0
M  V30 4442 O 399.227 -1.83721 -0.629318 0
M  V30 4443 C 396.357 -3.39669 -0.724031 0
M  V30 4444 C 395.311 -4.27992 0.0256173 0
M  V30 4445 C 394.637 -5.25673 -0.978383 0
M  V30 4446 C 395.937 -5.08309 1.20082 0
M  V30 4447 H 397.631 -2.83728 0.955969 0
M  V30 4448 H 395.177 -1.36416 0.461149 0
M  V30 4449 H 397.13 -4.05219 -1.15652 0
M  V30 4450 H 395.854 -2.87396 -1.5515 0
M  V30 4451 H 394.513 -3.63964 0.438812 0
M  V30 4452 H 394.161 -4.69682 -1.80022 0
M  V30 4453 H 393.861 -5.85625 -0.481378 0
M  V30 4454 H 395.385 -5.94098 -1.40995 0
M  V30 4455 H 396.799 -5.67034 0.845307 0
M  V30 4456 H 395.196 -5.77554 1.62947 0
M  V30 4457 H 396.266 -4.41365 2.00811 0
M  V30 4458 N 397.609 -0.515225 -1.4894 0
M  V30 4459 C 398.858 0.0261361 -2.01683 0
M  V30 4460 C 399.171 1.36719 -1.39883 0
M  V30 4461 O 400.377 1.99606 -1.84037 0
M  V30 4462 C 398.833 0.0970111 -3.59769 0
M  V30 4463 C 398.441 -1.23825 -4.30548 0
M  V30 4464 C 400.185 0.587981 -4.20408 0
M  V30 4465 C 398.092 -1.12877 -5.80528 0
M  V30 4466 H 397.022 0.0135398 -0.753878 0
M  V30 4467 H 399.673 -0.656787 -1.71343 0
M  V30 4468 H 398.055 0.844694 -3.86886 0
M  V30 4469 H 399.229 -2.00034 -4.15118 0
M  V30 4470 H 397.544 -1.66379 -3.81716 0
M  V30 4471 H 400.141 0.68763 -5.3026 0
M  V30 4472 H 400.484 1.59026 -3.84729 0
M  V30 4473 H 401.017 -0.103582 -3.97665 0
M  V30 4474 H 397.756 -2.10575 -6.20756 0
M  V30 4475 H 397.276 -0.407799 -5.98412 0
M  V30 4476 H 398.955 -0.813332 -6.41868 0
M  V30 4477 N 399.087 1.5561 -0.249682 0
M  V30 4478 C 400.019 2.18834 0.681496 0
M  V30 4479 C 401.032 1.16546 1.1367 0
M  V30 4480 O 402.221 1.43397 1.06299 0
M  V30 4481 C 399.321 2.77992 1.9384 0
M  V30 4482 C 398.494 4.05725 1.63419 0
M  V30 4483 C 397.553 4.49174 2.74096 0
M  V30 4484 O 396.579 5.15492 2.41364 0
M  V30 4485 N 397.781 4.17191 4.03649 0
M  V30 4486 H 400.546 2.9937 0.140514 0
M  V30 4487 H 398.107 1.6175 -0.0697541 0
M  V30 4488 H 400.099 3.04015 2.67127 0
M  V30 4489 H 398.669 2.01596 2.38909 0
M  V30 4490 H 397.889 3.87261 0.736358 0
M  V30 4491 H 399.177 4.88999 1.40562 0
M  V30 4492 H 398.575 3.63955 4.33074 0
M  V30 4493 H 397.132 4.48043 4.73393 0
M  V30 4494 N 400.565 -0.0233959 1.57583 0
M  V30 4495 C 401.813 -0.711654 1.89156 0
M  V30 4496 C 402.134 -1.75591 0.848096 0
M  V30 4497 O 401.404 -1.95547 -0.117566 0
M  V30 4498 H 399.984 -0.265835 0.698098 0
M  V30 4499 H 402.646 0.0119948 1.94896 0
M  V30 4500 H 401.742 -1.19766 2.88206 0
M  V30 4501 N 402.043 -1.548 -0.295768 0
M  V30 4502 C 403.289 -1.75517 -1.02789 0
M  V30 4503 C 403.644 -0.537266 -1.84746 0
M  V30 4504 O 402.937 0.470299 -1.85738 0
M  V30 4505 C 403.131 -2.98797 -1.961 0
M  V30 4506 C 402.96 -4.3246 -1.23321 0
M  V30 4507 C 401.73 -4.96131 -0.95822 0
M  V30 4508 C 403.928 -5.10365 -0.635024 0
M  V30 4509 N 401.91 -6.1357 -0.201257 0
M  V30 4510 C 403.281 -6.19999 -0.0110937 0
M  V30 4511 C 405.336 -4.94957 -0.540594 0
M  V30 4512 C 404.039 -7.15904 0.698136 0
M  V30 4513 C 406.065 -5.91197 0.154992 0
M  V30 4514 C 405.427 -7.00203 0.767752 0
M  V30 4515 H 401.526 -0.694786 -0.358882 0
M  V30 4516 H 404.11 -1.92281 -0.305943 0
M  V30 4517 H 402.281 -2.83448 -2.6554 0
M  V30 4518 H 404.013 -3.08017 -2.62502 0
M  V30 4519 H 400.768 -4.56595 -1.25771 0
M  V30 4520 H 401.192 -6.76802 0.16389 0
M  V30 4521 H 405.834 -4.10803 -1.00003 0
M  V30 4522 H 403.552 -7.99595 1.16933 0
M  V30 4523 H 407.138 -5.81353 0.228069 0
M  V30 4524 H 406.018 -7.73393 1.29743 0
M  V30 4525 N 403.521 0.559213 -1.47345 0
M  V30 4526 C 404.469 1.68747 -1.60085 0
M  V30 4527 C 405.463 1.628 -0.46825 0
M  V30 4528 O 406.669 1.68009 -0.645977 0
M  V30 4529 H 403.044 0.558329 -0.503759 0
M  V30 4530 H 405.015 1.55138 -2.54902 0
M  V30 4531 C 403.764 3.07103 -1.63042 0
M  V30 4532 H 403.087 3.12361 -2.49541 0
M  V30 4533 H 404.527 3.85743 -1.76006 0
M  V30 4534 C 402.986 3.34935 -0.363357 0
M  V30 4535 O 403.516 3.98102 0.536416 0
M  V30 4536 N 401.722 2.89574 -0.244 0
M  V30 4537 H 401.269 2.38348 -0.977133 0
M  V30 4538 H 401.227 3.08566 0.602836 0
M  V30 4539 N 404.999 1.35443 0.805782 0
M  V30 4540 C 406.248 1.28097 1.55801 0
M  V30 4541 C 406.561 -0.142428 1.95081 0
M  V30 4542 O 407.767 -0.33817 2.69386 0
M  V30 4543 C 406.223 2.24653 2.81174 0
M  V30 4544 C 405.831 3.72342 2.49129 0
M  V30 4545 C 407.575 2.2625 3.59181 0
M  V30 4546 C 405.482 4.60719 3.70799 0
M  V30 4547 H 404.412 0.475937 0.584808 0
M  V30 4548 H 407.063 1.60712 0.885661 0
M  V30 4549 H 405.445 1.85011 3.50124 0
M  V30 4550 H 406.619 4.20624 1.88181 0
M  V30 4551 H 404.934 3.73361 1.84366 0
M  V30 4552 H 407.531 2.89495 4.49552 0
M  V30 4553 H 407.874 1.26647 3.96568 0
M  V30 4554 H 408.407 2.64426 2.97193 0
M  V30 4555 H 405.146 5.61324 3.3852 0
M  V30 4556 H 404.666 4.17163 4.3097 0
M  V30 4557 H 406.345 4.76182 4.38018 0
M  V30 4558 N 406.477 -1.02803 1.19454 0
M  V30 4559 C 407.705 -1.79841 1.02297 0
M  V30 4560 C 408.12 -1.83879 -0.428259 0
M  V30 4561 O 407.477 -1.28345 -1.29745 0
M  V30 4562 C 407.528 -3.24852 1.58598 0
M  V30 4563 O 407.249 -3.21097 2.98041 0
M  V30 4564 C 408.75 -4.18485 1.46236 0
M  V30 4565 H 405.97 -0.565936 0.360496 0
M  V30 4566 H 408.514 -1.2948 1.58288 0
M  V30 4567 H 406.669 -3.72401 1.06753 0
M  V30 4568 H 407.083 -4.12033 3.24545 0
M  V30 4569 H 408.557 -5.18121 1.90407 0
M  V30 4570 H 409.034 -4.37254 0.41301 0
M  V30 4571 H 409.64 -3.76811 1.97215 0
M  V30 4572 N 407.956 -0.998596 -1.21925 0
M  V30 4573 C 409.202 -0.678667 -1.91107 0
M  V30 4574 C 409.535 0.78791 -1.77498 0
M  V30 4575 O 408.81 1.57043 -1.1475 0
M  V30 4576 C 409.093 -1.09245 -3.43129 0
M  V30 4577 C 408.946 -2.61801 -3.6576 0
M  V30 4578 C 410.265 -0.649984 -4.35274 0
M  V30 4579 H 407.384 -0.248025 -0.694012 0
M  V30 4580 H 410.026 -1.24314 -1.43688 0
M  V30 4581 H 408.176 -0.612171 -3.83647 0
M  V30 4582 H 409.848 -3.17543 -3.34611 0
M  V30 4583 H 408.091 -3.03609 -3.09845 0
M  V30 4584 H 408.762 -2.85804 -4.7225 0
M  V30 4585 H 411.238 -1.0626 -4.02303 0
M  V30 4586 H 410.114 -0.967743 -5.40302 0
M  V30 4587 H 410.375 0.449139 -4.39813 0
M  V30 4588 N 409.434 1.37368 -0.772513 0
M  V30 4589 C 410.711 1.93839 -0.26188 0
M  V30 4590 C 411.091 1.7061 1.24319 0
M  V30 4591 O 410.439 1.05534 2.02669 0
M  V30 4592 C 410.649 3.43154 -0.636102 0
M  V30 4593 C 411.997 4.20249 -0.606324 0
M  V30 4594 O 413.021 3.5152 -0.575538 0
M  V30 4595 O 411.88 5.42809 -0.634086 0
M  V30 4596 H 408.974 0.82478 -0.0605555 0
M  V30 4597 H 411.52 1.4665 -0.853917 0
M  V30 4598 H 410.292 3.53647 -1.6748 0
M  V30 4599 H 409.915 3.97596 -0.0170516 0
M  V30 4600 N 410.912 0.523116 1.48665 0
M  V30 4601 C 411.842 -0.23231 2.32342 0
M  V30 4602 C 412.823 -0.941637 1.41659 0
M  V30 4603 O 414.008 -0.928751 1.70552 0
M  V30 4604 C 411.138 -1.28387 3.22698 0
M  V30 4605 C 410.092 -0.693098 4.22351 0
M  V30 4606 C 409.418 -1.8468 5.01794 0
M  V30 4607 C 410.718 0.33063 5.21252 0
M  V30 4608 H 412.412 0.466192 2.95748 0
M  V30 4609 H 409.958 0.225643 1.42221 0
M  V30 4610 H 411.911 -1.82024 3.80059 0
M  V30 4611 H 410.635 -2.01186 2.57278 0
M  V30 4612 H 409.294 -0.178299 3.66166 0
M  V30 4613 H 408.942 -2.56301 4.32804 0
M  V30 4614 H 408.642 -1.45747 5.69238 0
M  V30 4615 H 410.166 -2.38709 5.62006 0
M  V30 4616 H 411.58 -0.118407 5.73178 0
M  V30 4617 H 409.977 0.636974 5.9671 0
M  V30 4618 H 411.047 1.23883 4.68808 0
M  V30 4619 N 412.39 -1.55475 0.257931 0
M  V30 4620 C 413.636 -1.99502 -0.364266 0
M  V30 4621 C 413.969 -1.146 -1.56782 0
M  V30 4622 O 413.244 -0.211968 -1.93342 0
M  V30 4623 C 413.527 -3.51917 -0.763333 0
M  V30 4624 C 413.38 -4.4758 0.446371 0
M  V30 4625 C 414.699 -4.09742 -1.60623 0
M  V30 4626 H 411.818 -0.725277 -0.130929 0
M  V30 4627 H 414.46 -1.8653 0.361446 0
M  V30 4628 H 412.61 -3.63101 -1.38166 0
M  V30 4629 H 414.282 -4.48362 1.08487 0
M  V30 4630 H 412.525 -4.19947 1.08753 0
M  V30 4631 H 413.196 -5.51862 0.123645 0
M  V30 4632 H 415.672 -4.01727 -1.08418 0
M  V30 4633 H 414.548 -5.16631 -1.85429 0
M  V30 4634 H 414.809 -3.58889 -2.58169 0
M  V30 4635 N 413.868 0.0150385 -1.57593 0
M  V30 4636 C 415.117 0.702115 -1.89085 0
M  V30 4637 C 415.43 1.75764 -0.858277 0
M  V30 4638 O 416.636 2.49829 -1.0629 0
M  V30 4639 C 415.092 1.29992 -3.35604 0
M  V30 4640 C 414.7 0.280007 -4.47124 0
M  V30 4641 C 416.444 1.96606 -3.76227 0
M  V30 4642 C 414.351 0.886949 -5.84711 0
M  V30 4643 H 413.281 0.265997 -0.705522 0
M  V30 4644 H 415.932 -0.0430408 -1.8345 0
M  V30 4645 H 414.314 2.09525 -3.36029 0
M  V30 4646 H 415.488 -0.489631 -4.58191 0
M  V30 4647 H 413.803 -0.284835 -4.15425 0
M  V30 4648 H 416.4 2.42893 -4.76347 0
M  V30 4649 H 416.743 2.79024 -3.08952 0
M  V30 4650 H 417.276 1.23828 -3.78036 0
M  V30 4651 H 414.015 0.101876 -6.55421 0
M  V30 4652 H 413.535 1.6261 -5.77337 0
M  V30 4653 H 415.214 1.39011 -6.3189 0
M  V30 4654 N 415.346 1.54954 0.287554 0
M  V30 4655 C 416.594 1.74528 1.01904 0
M  V30 4656 C 416.915 0.541349 1.87335 0
M  V30 4657 O 416.185 -0.444108 1.908 0
M  V30 4658 H 414.765 0.643576 0.379235 0
M  V30 4659 H 417.427 1.92333 0.315294 0
M  V30 4660 H 416.523 2.64015 1.6644 0
M  V30 4661 N 416.824 -0.551391 1.4764 0
M  V30 4662 C 418.235 -1.13349 1.48354 0
M  V30 4663 C 418.586 -1.94709 0.241432 0
M  V30 4664 O 417.711 -2.06306 -0.653205 0
M  V30 4665 C 418.306 -2.0623 2.68802 0
M  V30 4666 C 416.865 -2.597 2.72457 0
M  V30 4667 C 416.012 -1.36201 2.41546 0
M  V30 4668 H 418.963 -0.337698 1.55065 0
M  V30 4669 H 418.984 -2.90196 2.46103 0
M  V30 4670 H 418.496 -1.46987 3.59188 0
M  V30 4671 H 416.597 -3.22724 1.86225 0
M  V30 4672 H 416.71 -3.00296 3.73308 0
M  V30 4673 H 415.074 -1.67068 1.9225 0
M  V30 4674 H 415.857 -0.787425 3.34147 0
M  V30 4675 N 418.302 -1.35869 -0.798587 0
M  V30 4676 C 419.249 -1.29446 -1.91082 0
M  V30 4677 C 420.219 -0.16487 -1.6528 0
M  V30 4678 O 421.404 -0.349888 -1.87564 0
M  V30 4679 C 418.544 -1.0804 -3.27752 0
M  V30 4680 C 417.657 -2.29993 -3.65687 0
M  V30 4681 C 416.792 -2.01673 -4.91428 0
M  V30 4682 C 415.831 -3.19636 -5.22015 0
M  V30 4683 N 414.968 -2.91039 -6.38937 0
M  V30 4684 H 419.808 -2.24553 -1.95907 0
M  V30 4685 H 417.345 -1.11615 -0.958148 0
M  V30 4686 H 419.303 -0.936586 -4.06551 0
M  V30 4687 H 417.933 -0.16592 -3.22373 0
M  V30 4688 H 416.985 -2.55211 -2.82085 0
M  V30 4689 H 418.297 -3.18052 -3.84245 0
M  V30 4690 H 417.451 -1.84168 -5.78072 0
M  V30 4691 H 416.19 -1.10911 -4.74921 0
M  V30 4692 H 415.195 -3.37709 -4.33858 0
M  V30 4693 H 416.42 -4.11211 -5.40447 0
M  V30 4694 H 414.366 -2.0288 -6.2384 0
M  V30 4695 H 414.283 -3.72635 -6.57784 0
M  V30 4696 H 415.551 -2.77093 -7.28587 0
M  V30 4697 N 419.78 1.02168 -1.19998 0
M  V30 4698 C 421.028 1.75338 -1.00504 0
M  V30 4699 C 421.349 1.89387 0.464506 0
M  V30 4700 O 420.619 1.43268 1.33608 0
M  V30 4701 H 419.199 0.649564 -0.368885 0
M  V30 4702 H 421.861 1.23205 -1.51018 0
M  V30 4703 H 420.957 2.75892 -1.45912 0
M  V30 4704 N 421.258 1.00505 1.21394 0
M  V30 4705 C 422.507 0.683159 1.89778 0
M  V30 4706 C 422.82 -0.789471 1.7896 0
M  V30 4707 O 424.026 -1.22344 2.42372 0
M  V30 4708 C 422.482 1.17146 3.40301 0
M  V30 4709 C 422.09 2.67017 3.5973 0
M  V30 4710 C 423.834 0.924461 4.14311 0
M  V30 4711 C 421.741 3.09387 5.04017 0
M  V30 4712 H 420.671 0.25183 0.710702 0
M  V30 4713 H 423.322 1.21622 1.37406 0
M  V30 4714 H 421.704 0.566451 3.91928 0
M  V30 4715 H 422.878 3.32968 3.18542 0
M  V30 4716 H 421.193 2.89732 2.99073 0
M  V30 4717 H 423.79 1.21658 5.20676 0
M  V30 4718 H 424.133 -0.139286 4.16067 0
M  V30 4719 H 424.666 1.49226 3.6875 0
M  V30 4720 H 421.405 4.14989 5.07409 0
M  V30 4721 H 420.925 2.48149 5.46061 0
M  V30 4722 H 422.604 3.01371 5.72525 0
M  V30 4723 N 422.737 -1.36956 0.779787 0
M  V30 4724 C 424.153 -1.52817 0.460342 0
M  V30 4725 C 424.353 -1.7361 -1.02283 0
M  V30 4726 O 423.409 -1.76207 -1.80852 0
M  V30 4727 C 424.722 -2.71983 1.28241 0
M  V30 4728 C 426.27 -2.85849 1.27512 0
M  V30 4729 C 426.745 -4.08008 2.08072 0
M  V30 4730 N 428.236 -4.15135 2.05467 0
M  V30 4731 C 428.971 -5.08711 2.64577 0
M  V30 4732 N 428.467 -6.07792 3.32506 0
M  V30 4733 N 430.26 -5.01254 2.54363 0
M  V30 4734 H 422.411 -1.21713 1.74068 0
M  V30 4735 H 424.674 -0.593294 0.739396 0
M  V30 4736 H 424.38 -2.63109 2.33381 0
M  V30 4737 H 424.254 -3.65882 0.917088 0
M  V30 4738 H 426.641 -2.94189 0.231686 0
M  V30 4739 H 426.722 -1.92886 1.68014 0
M  V30 4740 H 426.366 -4.00429 3.12441 0
M  V30 4741 H 426.296 -5.001 1.64947 0
M  V30 4742 H 428.787 -3.44189 1.5602 0
M  V30 4743 H 429.1 -6.75739 3.74963 0
M  V30 4744 H 427.445 -6.08047 3.36606 0
M  V30 4745 H 430.636 -4.22795 2.00902 0
M  V30 4746 H 430.809 -5.73995 3.00722 0
M  V30 4747 N 424.215 -0.530993 -1.48385 0
M  V30 4748 C 425.147 0.268353 -2.27624 0
M  V30 4749 C 426.16 0.903525 -1.35426 0
M  V30 4750 O 427.349 0.781796 -1.60469 0
M  V30 4751 C 424.449 1.39535 -3.08842 0
M  V30 4752 C 423.622 0.861913 -4.28824 0
M  V30 4753 C 422.681 1.87016 -4.91845 0
M  V30 4754 O 421.707 1.4267 -5.5103 0
M  V30 4755 N 422.909 3.20238 -4.84178 0
M  V30 4756 H 425.674 -0.41123 -2.96865 0
M  V30 4757 H 423.235 -0.365387 -1.57723 0
M  V30 4758 H 425.227 2.06803 -3.47871 0
M  V30 4759 H 423.797 1.97859 -2.42014 0
M  V30 4760 H 423.017 0.0132126 -3.94198 0
M  V30 4761 H 424.305 0.484415 -5.06489 0
M  V30 4762 H 423.703 3.58932 -4.37246 0
M  V30 4763 H 422.26 3.83136 -5.27305 0
M  V30 4764 N 425.693 1.55336 -0.266172 0
M  V30 4765 C 426.623 2.25146 0.618981 0
M  V30 4766 C 427.604 1.23845 1.16604 0
M  V30 4767 O 428.789 1.52544 1.20183 0
M  V30 4768 C 425.919 2.96572 1.80728 0
M  V30 4769 C 424.873 4.04726 1.39215 0
M  V30 4770 C 424.199 4.63678 2.66283 0
M  V30 4771 C 425.499 5.19407 0.548942 0
M  V30 4772 H 427.193 2.99377 0.0368116 0
M  V30 4773 H 424.739 1.43991 0.0162651 0
M  V30 4774 H 426.692 3.44116 2.43232 0
M  V30 4775 H 425.416 2.19861 2.41514 0
M  V30 4776 H 424.075 3.57979 0.790351 0
M  V30 4777 H 423.723 3.83646 3.25308 0
M  V30 4778 H 423.423 5.367 2.39222 0
M  V30 4779 H 424.947 5.13967 3.29651 0
M  V30 4780 H 426.361 5.63059 1.07876 0
M  V30 4781 H 424.758 5.98936 0.373593 0
M  V30 4782 H 425.828 4.8295 -0.434394 0
M  V30 4783 N 427.171 -0.0066808 1.57599 0
M  V30 4784 C 428.399 -0.704087 1.94551 0
M  V30 4785 C 428.814 -1.67677 0.867746 0
M  V30 4786 O 428.171 -1.8185 -0.153925 0
M  V30 4787 C 428.222 -1.44177 3.31505 0
M  V30 4788 O 427.943 -0.508097 4.35144 0
M  V30 4789 C 429.444 -2.23429 3.82876 0
M  V30 4790 H 426.664 -0.196523 0.641576 0
M  V30 4791 H 429.208 0.042453 2.04456 0
M  V30 4792 H 427.363 -2.13999 3.22929 0
M  V30 4793 H 427.777 -1.02782 5.14331 0
M  V30 4794 H 429.251 -2.70552 4.8115 0
M  V30 4795 H 429.728 -3.05818 3.15233 0
M  V30 4796 H 430.334 -1.58636 3.94607 0
M  V30 4797 N 428.649 -1.55105 -0.279332 0
M  V30 4798 C 429.874 -1.7976 -1.03446 0
M  V30 4799 C 430.299 -0.565952 -1.79384 0
M  V30 4800 O 429.657 0.484259 -1.74713 0
M  V30 4801 C 429.705 -3.0179 -1.97371 0
M  V30 4802 O 428.809 -2.76432 -3.06038 0
M  V30 4803 H 428.15 -0.594334 -0.29608 0
M  V30 4804 H 430.68 -2.02235 -0.310165 0
M  V30 4805 H 430.69 -3.30351 -2.39441 0
M  V30 4806 H 429.365 -3.91085 -1.4151 0
M  V30 4807 H 427.942 -2.58949 -2.68328 0
M  V30 4808 N 430.127 0.543554 -1.4793 0
M  V30 4809 C 431.059 1.665 -1.57513 0
M  V30 4810 C 432.072 1.56156 -0.460333 0
M  V30 4811 O 433.261 1.62865 -0.730573 0
M  V30 4812 C 430.361 3.05063 -1.47614 0
M  V30 4813 C 429.534 3.41024 -2.739 0
M  V30 4814 C 428.593 4.58809 -2.57645 0
M  V30 4815 O 427.619 4.62707 -3.31498 0
M  V30 4816 N 428.821 5.56149 -1.66368 0
M  V30 4817 H 431.586 1.5872 -2.5422 0
M  V30 4818 H 429.147 0.730517 -1.44482 0
M  V30 4819 H 431.139 3.81712 -1.34455 0
M  V30 4820 H 429.709 3.06994 -0.589359 0
M  V30 4821 H 428.929 2.53687 -3.01723 0
M  V30 4822 H 430.217 3.61831 -3.57709 0
M  V30 4823 H 429.615 5.55767 -1.05543 0
M  V30 4824 H 428.172 6.32071 -1.59154 0
M  V30 4825 N 431.605 1.3629 0.791371 0
M  V30 4826 C 432.882 1.20962 1.53712 0
M  V30 4827 C 433.262 -0.205021 2.10102 0
M  V30 4828 O 432.61 -1.21042 1.93807 0
M  V30 4829 C 432.82 2.29002 2.63361 0
M  V30 4830 C 434.168 2.65572 3.31295 0
M  V30 4831 O 435.192 2.2803 2.73643 0
M  V30 4832 O 434.051 3.3018 4.35481 0
M  V30 4833 H 431.145 0.47086 0.679867 0
M  V30 4834 H 433.691 1.48016 0.830021 0
M  V30 4835 H 432.463 3.2382 2.19674 0
M  V30 4836 H 432.086 2.03303 3.41692 0
M  V30 4837 N 433.083 -1.0153 1.20538 0
M  V30 4838 C 434.046 -2.0826 0.957098 0
M  V30 4839 C 435.046 -1.60657 -0.0678655 0
M  V30 4840 O 436.236 -1.73385 0.168332 0
M  V30 4841 C 433.368 -3.38033 0.441188 0
M  V30 4842 H 434.561 -2.31719 1.90384 0
M  V30 4843 H 432.114 -1.1835 1.02093 0
M  V30 4844 H 432.849 -3.20249 -0.510961 0
M  V30 4845 H 432.634 -3.73911 1.18038 0
M  V30 4846 H 434.124 -4.16613 0.287009 0
M  V30 4847 N 434.561 -1.01147 -1.20859 0
M  V30 4848 C 435.508 -0.577354 -2.23462 0
M  V30 4849 C 436.478 0.399922 -1.61214 0
M  V30 4850 O 437.663 0.300515 -1.88419 0
M  V30 4851 C 434.803 0.083372 -3.44999 0
M  V30 4852 C 433.916 -0.937856 -4.21697 0
M  V30 4853 C 433.051 -0.248717 -5.30617 0
M  V30 4854 C 432.09 -1.25705 -5.99053 0
M  V30 4855 N 431.227 -0.594939 -6.99575 0
M  V30 4856 H 436.067 -1.45695 -2.59956 0
M  V30 4857 H 433.604 -0.729428 -1.27741 0
M  V30 4858 H 435.562 0.483535 -4.14388 0
M  V30 4859 H 434.192 0.926645 -3.09214 0
M  V30 4860 H 433.244 -1.45622 -3.51423 0
M  V30 4861 H 434.556 -1.70493 -4.68757 0
M  V30 4862 H 433.71 0.207215 -6.06346 0
M  V30 4863 H 432.449 0.55071 -4.84581 0
M  V30 4864 H 431.454 -1.72343 -5.2209 0
M  V30 4865 H 432.679 -2.05767 -6.47176 0
M  V30 4866 H 430.625 0.184713 -6.5574 0
M  V30 4867 H 430.542 -1.30017 -7.44736 0
M  V30 4868 H 431.81 -0.162427 -7.79331 0
M  V30 4869 N 436.039 1.36541 -0.78704 0
M  V30 4870 C 437.45 1.81873 -0.421807 0
M  V30 4871 C 437.801 1.65487 1.05397 0
M  V30 4872 O 436.926 1.17448 1.81755 0
M  V30 4873 C 437.521 3.30192 -0.758841 0
M  V30 4874 C 436.08 3.73743 -0.446468 0
M  V30 4875 C 435.227 2.58844 -0.994728 0
M  V30 4876 H 438.178 1.24796 -0.98039 0
M  V30 4877 H 438.199 3.80468 -0.0490648 0
M  V30 4878 H 437.711 3.42087 -1.83299 0
M  V30 4879 H 435.812 3.6741 0.619739 0
M  V30 4880 H 435.925 4.69272 -0.965415 0
M  V30 4881 H 434.289 2.51245 -0.418087 0
M  V30 4882 H 435.072 2.73525 -2.07458 0
M  V30 4883 N 437.518 0.538854 1.48102 0
M  V30 4884 C 438.746 0.0123136 2.06896 0
M  V30 4885 C 439.161 -1.27312 1.39417 0
M  V30 4886 O 438.518 -1.75949 0.484582 0
M  V30 4887 C 438.569 -0.206118 3.60912 0
M  V30 4888 O 438.29 1.0284 4.25859 0
M  V30 4889 C 439.791 -0.772033 4.36526 0
M  V30 4890 H 437.011 0.0375239 0.66995 0
M  V30 4891 H 439.555 0.747032 1.90367 0
M  V30 4892 H 437.71 -0.89091 3.77017 0
M  V30 4893 H 438.124 0.814654 5.18135 0
M  V30 4894 H 439.598 -0.874251 5.45033 0
M  V30 4895 H 440.075 -1.77904 4.01555 0
M  V30 4896 H 440.681 -0.123526 4.25121 0
M  V30 4897 N 438.996 -1.55193 0.274407 0
M  V30 4898 C 440.236 -2.01488 -0.343778 0
M  V30 4899 C 440.6 -1.1586 -1.53103 0
M  V30 4900 O 441.801 -1.51732 -2.2188 0
M  V30 4901 C 440.072 -3.50134 -0.717021 0
M  V30 4902 S 441.631 -4.18417 -1.32184 0
M  V30 4903 H 438.449 -0.70291 -0.106948 0
M  V30 4904 H 441.051 -1.91446 0.396075 0
M  V30 4905 H 439.755 -4.10104 0.155947 0
M  V30 4906 H 439.286 -3.64159 -1.48835 0
M  V30 4907 H 441.301 -4.21984 -2.61044 0
M  V30 4908 N 440.474 -0.00167713 -1.576 0
M  V30 4909 C 441.404 0.988091 -2.11563 0
M  V30 4910 C 442.385 1.35736 -1.02517 0
M  V30 4911 O 443.57 1.44082 -1.30208 0
M  V30 4912 C 440.7 2.27941 -2.62031 0
M  V30 4913 C 439.654 2.0517 -3.75619 0
M  V30 4914 C 438.98 3.4033 -4.12407 0
M  V30 4915 C 440.28 1.41294 -5.02825 0
M  V30 4916 H 441.974 0.538771 -2.94513 0
M  V30 4917 H 439.52 0.257712 -1.41675 0
M  V30 4918 H 441.473 2.97539 -2.9841 0
M  V30 4919 H 440.197 2.74989 -1.76205 0
M  V30 4920 H 438.856 1.37998 -3.39635 0
M  V30 4921 H 438.504 3.85085 -3.23603 0
M  V30 4922 H 438.204 3.25909 -4.88935 0
M  V30 4923 H 439.728 4.1124 -4.51347 0
M  V30 4924 H 441.142 2.00851 -5.36965 0
M  V30 4925 H 439.539 1.37356 -5.84169 0
M  V30 4926 H 440.609 0.382362 -4.8339 0
M  V30 4927 N 441.952 1.55251 0.271103 0
M  V30 4928 C 442.915 1.87484 1.31842 0
M  V30 4929 C 443.915 0.749545 1.42262 0
M  V30 4930 O 445.105 1.01771 1.4138 0
M  V30 4931 C 442.237 2.0818 2.69951 0
M  V30 4932 H 443.43 2.81108 1.0449 0
M  V30 4933 H 440.983 1.47771 0.509258 0
M  V30 4934 H 441.718 1.16944 3.02481 0
M  V30 4935 H 441.503 2.90114 2.63774 0
M  V30 4936 H 442.993 2.34385 3.4562 0
M  V30 4937 N 443.43 -0.535701 1.48216 0
M  V30 4938 C 444.34 -1.66785 1.64985 0
M  V30 4939 C 445.356 -1.65654 0.532414 0
M  V30 4940 O 446.532 -1.8471 0.80275 0
M  V30 4941 C 443.597 -3.0326 1.68031 0
M  V30 4942 C 442.658 -3.1529 2.9136 0
M  V30 4943 C 441.891 -4.45255 2.94252 0
M  V30 4944 O 442.114 -5.32011 2.05719 0
M  V30 4945 O 441.048 -4.6153 3.86359 0
M  V30 4946 H 444.874 -1.55576 2.60825 0
M  V30 4947 H 442.459 -0.70815 1.31551 0
M  V30 4948 H 444.341 -3.84436 1.72589 0
M  V30 4949 H 443.016 -3.14805 0.753628 0
M  V30 4950 H 441.923 -2.3343 2.92337 0
M  V30 4951 H 443.256 -3.08658 3.83394 0
M  V30 4952 N 444.908 -1.36708 -0.784132 0
M  V30 4953 C 446.155 -1.31231 -1.54222 0
M  V30 4954 C 446.483 0.106864 -1.94206 0
M  V30 4955 O 445.738 1.07734 -1.63376 0
M  V30 4956 C 446.037 -2.18571 -2.82774 0
M  V30 4957 C 445.703 -3.67039 -2.61903 0
M  V30 4958 C 444.365 -4.07503 -2.55919 0
M  V30 4959 C 446.717 -4.61149 -2.4288 0
M  V30 4960 C 444.045 -5.40211 -2.28886 0
M  V30 4961 C 446.397 -5.94081 -2.17373 0
M  V30 4962 C 445.061 -6.33664 -2.09825 0
M  V30 4963 H 444.331 -0.48021 -0.56434 0
M  V30 4964 H 446.978 -1.68807 -0.904233 0
M  V30 4965 H 445.283 -1.73949 -3.51068 0
M  V30 4966 H 446.98 -2.11655 -3.40592 0
M  V30 4967 H 443.57 -3.34941 -2.67418 0
M  V30 4968 H 447.754 -4.30756 -2.46501 0
M  V30 4969 H 443.01 -5.69855 -2.21529 0
M  V30 4970 H 447.184 -6.66566 -2.01649 0
M  V30 4971 H 444.811 -7.36423 -1.88641 0
M  V30 4972 N 446.386 1.0089 -1.21074 0
M  V30 4973 C 447.333 2.09588 -0.966512 0
M  V30 4974 C 448.303 1.65761 0.106089 0
M  V30 4975 O 449.488 1.90758 -0.0402287 0
M  V30 4976 C 446.628 3.40958 -0.533058 0
M  V30 4977 C 445.741 3.9822 -1.67467 0
M  V30 4978 C 444.876 5.17682 -1.19076 0
M  V30 4979 C 443.915 5.67043 -2.30496 0
M  V30 4980 N 443.052 6.77759 -1.83267 0
M  V30 4981 H 447.892 2.29815 -1.89708 0
M  V30 4982 H 445.429 1.12689 -0.945489 0
M  V30 4983 H 447.387 4.1637 -0.263019 0
M  V30 4984 H 446.017 3.20781 0.360505 0
M  V30 4985 H 445.069 3.1983 -2.05944 0
M  V30 4986 H 446.381 4.3085 -2.51336 0
M  V30 4987 H 445.535 6.00326 -0.877151 0
M  V30 4988 H 444.274 4.86635 -0.322066 0
M  V30 4989 H 443.279 4.82999 -2.62664 0
M  V30 4990 H 444.504 6.00121 -3.17855 0
M  V30 4991 H 442.45 6.48527 -0.987356 0
M  V30 4992 H 442.367 7.09624 -2.60711 0
M  V30 4993 H 443.635 7.63949 -1.54928 0
M  V30 4994 N 447.864 1.01787 1.20321 0
M  V30 4995 C 448.796 0.547357 2.22568 0
M  V30 4996 C 449.809 -0.370922 1.58518 0
M  V30 4997 O 450.998 -0.169067 1.77698 0
M  V30 4998 C 448.098 -0.223031 3.38165 0
M  V30 4999 C 447.271 0.697472 4.31803 0
M  V30 5000 C 446.33 -0.025562 5.26194 0
M  V30 5001 O 445.356 0.597367 5.66057 0
M  V30 5002 N 446.558 -1.29999 5.65757 0
M  V30 5003 H 449.323 1.42668 2.63564 0
M  V30 5004 H 446.884 0.895552 1.34876 0
M  V30 5005 H 448.876 -0.716002 3.98316 0
M  V30 5006 H 447.446 -1.00366 2.9605 0
M  V30 5007 H 446.666 1.37073 3.69601 0
M  V30 5008 H 447.954 1.32347 4.91286 0
M  V30 5009 H 447.352 -1.827 5.35385 0
M  V30 5010 H 445.909 -1.73766 6.28211 0
M  V30 5011 N 449.342 -1.36122 0.79427 0
M  V30 5012 C 450.591 -1.98361 0.365464 0
M  V30 5013 C 450.904 -1.6374 -1.06997 0
M  V30 5014 O 452.11 -2.19251 -1.60129 0
M  V30 5015 C 450.566 -3.54821 0.602496 0
M  V30 5016 C 450.174 -3.98362 2.04967 0
M  V30 5017 C 451.918 -4.2383 0.238437 0
M  V30 5018 C 449.825 -5.47619 2.2331 0
M  V30 5019 H 448.755 -0.742193 0.13291 0
M  V30 5020 H 451.406 -1.55354 0.976589 0
M  V30 5021 H 449.788 -3.95922 -0.078409 0
M  V30 5022 H 450.962 -3.68447 2.76737 0
M  V30 5023 H 449.277 -3.42206 2.37243 0
M  V30 5024 H 451.874 -5.33529 0.353705 0
M  V30 5025 H 452.217 -4.08264 -0.814006 0
M  V30 5026 H 452.75 -3.88108 0.872769 0
M  V30 5027 H 449.489 -5.68138 3.26955 0
M  V30 5028 H 449.009 -5.79145 1.5605 0
M  V30 5029 H 450.688 -6.13911 2.0426 0
M  V30 5030 N 450.82 -0.546701 -1.47814 0
M  V30 5031 C 452.236 -0.205717 -1.58269 0
M  V30 5032 C 452.436 1.29153 -1.54667 0
M  V30 5033 O 451.492 2.07098 -1.44453 0
M  V30 5034 C 452.805 -0.823065 -2.89216 0
M  V30 5035 C 454.353 -0.793328 -3.02779 0
M  V30 5036 C 454.828 -1.38955 -4.36412 0
M  V30 5037 N 456.319 -1.35227 -4.43021 0
M  V30 5038 C 457.054 -1.78333 -5.44963 0
M  V30 5039 N 456.55 -2.29246 -6.53772 0
M  V30 5040 N 458.343 -1.69467 -5.35945 0
M  V30 5041 H 450.494 -1.5196 -1.48398 0
M  V30 5042 H 452.757 -0.633078 -0.705632 0
M  V30 5043 H 452.463 -1.8749 -2.97558 0
M  V30 5044 H 452.337 -0.309915 -3.75925 0
M  V30 5045 H 454.724 0.249784 -2.94041 0
M  V30 5046 H 454.805 -1.34412 -2.17639 0
M  V30 5047 H 454.449 -2.43168 -4.45906 0
M  V30 5048 H 454.379 -0.814291 -5.20266 0
M  V30 5049 H 456.87 -0.979739 -3.64979 0
M  V30 5050 H 457.183 -2.60089 -7.27718 0
M  V30 5051 H 455.528 -2.3325 -6.5469 0
M  V30 5052 H 458.719 -1.29477 -4.49837 0
M  V30 5053 H 458.892 -2.03381 -6.15256 0
M  V30 5054 N 452.299 1.55045 -0.282633 0
M  V30 5055 C 453.524 2.04628 0.337977 0
M  V30 5056 C 453.949 1.15937 1.48123 0
M  V30 5057 O 453.307 0.159532 1.80597 0
M  V30 5058 C 453.355 3.51854 0.78936 0
M  V30 5059 O 452.459 3.66236 1.89592 0
M  V30 5060 H 451.8 0.660434 0.0687261 0
M  V30 5061 H 454.33 2.00261 -0.419124 0
M  V30 5062 H 454.34 3.93361 1.08311 0
M  V30 5063 H 453.015 4.15873 -0.0470419 0
M  V30 5064 H 451.592 3.36633 1.60413 0
M  V30 5065 N 453.777 0.010035 1.57597 0
M  V30 5066 C 455.026 -0.671945 1.90178 0
M  V30 5067 C 455.339 -1.74376 0.886131 0
M  V30 5068 O 456.545 -2.48107 1.10252 0
M  V30 5069 C 455.001 -1.24636 3.3763 0
M  V30 5070 C 454.609 -0.208838 4.47513 0
M  V30 5071 C 456.353 -1.90595 3.79307 0
M  V30 5072 C 454.26 -0.793814 5.86048 0
M  V30 5073 H 453.19 -0.25474 0.709665 0
M  V30 5074 H 455.841 0.0722206 1.83358 0
M  V30 5075 H 454.223 -2.04152 3.3932 0
M  V30 5076 H 455.397 0.562463 4.57354 0
M  V30 5077 H 453.712 0.350889 4.14919 0
M  V30 5078 H 456.309 -2.35284 4.80151 0
M  V30 5079 H 456.652 -2.74074 3.13352 0
M  V30 5080 H 457.185 -1.17798 3.79958 0
M  V30 5081 H 453.924 0.00240855 6.555 0
M  V30 5082 H 453.444 -1.53404 5.79851 0
M  V30 5083 H 455.123 -1.2894 6.34022 0
M  V30 5084 N 455.255 -1.55392 -0.262866 0
M  V30 5085 C 456.671 -1.47459 -0.610582 0
M  V30 5086 C 456.871 -0.697031 -1.8906 0
M  V30 5087 O 455.927 -0.219952 -2.5154 0
M  V30 5088 C 457.24 -2.91751 -0.728131 0
M  V30 5089 C 458.788 -3.02027 -0.821517 0
M  V30 5090 C 459.263 -4.47594 -0.97076 0
M  V30 5091 N 460.754 -4.51465 -1.03603 0
M  V30 5092 C 461.489 -5.61326 -1.17049 0
M  V30 5093 N 460.985 -6.81032 -1.2715 0
M  V30 5094 N 462.778 -5.49089 -1.20239 0
M  V30 5095 H 454.929 -2.04395 0.577632 0
M  V30 5096 H 457.192 -0.927287 0.197086 0
M  V30 5097 H 456.898 -3.51413 0.142132 0
M  V30 5098 H 456.772 -3.4134 -1.6052 0
M  V30 5099 H 459.159 -2.42456 -1.68224 0
M  V30 5100 H 459.24 -2.55674 0.0803688 0
M  V30 5101 H 458.884 -5.07771 -0.114655 0
M  V30 5102 H 458.814 -4.91613 -1.88745 0
M  V30 5103 H 461.305 -3.6524 -0.96996 0
M  V30 5104 H 461.618 -7.60511 -1.37271 0
M  V30 5105 H 459.963 -6.83824 -1.24136 0
M  V30 5106 H 463.154 -4.54507 -1.11985 0
M  V30 5107 H 463.327 -6.34749 -1.30373 0
M  V30 5108 N 456.733 0.527833 -1.48498 0
M  V30 5109 C 457.973 1.29401 -1.58224 0
M  V30 5110 C 458.337 1.90348 -0.251327 0
M  V30 5111 O 459.538 2.67868 -0.223588 0
M  V30 5112 C 457.809 2.35266 -2.69044 0
M  V30 5113 S 459.368 3.2158 -2.98549 0
M  V30 5114 H 456.186 0.440138 -0.558391 0
M  V30 5115 H 458.788 0.601079 -1.8603 0
M  V30 5116 H 457.492 1.88975 -3.64303 0
M  V30 5117 H 457.023 3.09263 -2.43146 0
M  V30 5118 H 459.038 4.35391 -2.38011 0
M  V30 5119 N 458.211 1.37122 0.776871 0
M  V30 5120 C 459.141 1.35164 1.90402 0
M  V30 5121 C 460.122 0.221069 1.68657 0
M  V30 5122 O 461.307 0.420642 1.8959 0
M  V30 5123 C 458.437 1.15274 3.27611 0
M  V30 5124 C 457.391 2.25289 3.63908 0
M  V30 5125 C 456.717 1.90527 4.99603 0
M  V30 5126 C 458.017 3.67446 3.71188 0
M  V30 5127 H 459.711 2.29482 1.92297 0
M  V30 5128 H 457.257 1.10465 0.923773 0
M  V30 5129 H 459.21 1.12536 4.06096 0
M  V30 5130 H 457.934 0.174102 3.26136 0
M  V30 5131 H 456.593 2.27174 2.87728 0
M  V30 5132 H 456.241 0.91206 4.94662 0
M  V30 5133 H 455.941 2.64193 5.24858 0
M  V30 5134 H 457.465 1.89367 5.80493 0
M  V30 5135 H 458.879 3.67719 4.39836 0
M  V30 5136 H 457.276 4.40123 4.07936 0
M  V30 5137 H 458.346 4.01443 2.71977 0
M  V30 5138 N 459.689 -1.00246 1.21608 0
M  V30 5139 C 461.1 -1.55511 1.03312 0
M  V30 5140 C 461.451 -1.91946 -0.406332 0
M  V30 5141 O 460.576 -1.73753 -1.28992 0
M  V30 5142 C 461.171 -2.82576 1.86913 0
M  V30 5143 C 459.73 -3.34318 1.72941 0
M  V30 5144 C 458.877 -2.07487 1.83968 0
M  V30 5145 H 461.828 -0.824638 1.35593 0
M  V30 5146 H 461.849 -3.54559 1.38087 0
M  V30 5147 H 461.361 -2.56026 2.91672 0
M  V30 5148 H 459.462 -3.65797 0.70877 0
M  V30 5149 H 459.575 -4.05566 2.55055 0
M  V30 5150 H 457.939 -2.20603 1.27304 0
M  V30 5151 H 458.722 -1.83346 2.9024 0
M  V30 5152 N 461.167 -1.02423 -1.1978 0
M  V30 5153 C 462.097 -0.62157 -2.25075 0
M  V30 5154 C 463.078 0.367148 -1.6609 0
M  V30 5155 O 464.263 0.250892 -1.92573 0
M  V30 5156 C 461.393 0.0331826 -3.47284 0
M  V30 5157 C 460.347 -0.877323 -4.18912 0
M  V30 5158 C 459.673 -0.0879296 -5.34628 0
M  V30 5159 C 460.973 -2.18892 -4.74219 0
M  V30 5160 H 462.667 -1.50179 -2.59011 0
M  V30 5161 H 460.213 -0.723547 -1.24502 0
M  V30 5162 H 462.166 0.326488 -4.20133 0
M  V30 5163 H 460.89 0.948164 -3.12534 0
M  V30 5164 H 459.549 -1.15475 -3.47938 0
M  V30 5165 H 459.197 0.828941 -4.96123 0
M  V30 5166 H 458.897 -0.694359 -5.83483 0
M  V30 5167 H 460.421 0.198743 -6.10276 0
M  V30 5168 H 461.835 -1.95746 -5.38847 0
M  V30 5169 H 460.232 -2.74686 -5.33542 0
M  V30 5170 H 461.302 -2.84674 -3.92541 0
M  V30 5171 N 462.645 1.35699 -0.801477 0
M  V30 5172 C 463.555 2.33661 -0.209691 0
M  V30 5173 C 464.571 1.6162 0.644591 0
M  V30 5174 O 465.747 1.93529 0.557545 0
M  V30 5175 C 462.812 3.40816 0.636033 0
M  V30 5176 C 461.873 4.28639 -0.238147 0
M  V30 5177 C 461.106 5.30676 0.567307 0
M  V30 5178 O 461.329 5.41174 1.8024 0
M  V30 5179 O 460.263 6.01887 -0.0391336 0
M  V30 5180 H 464.089 2.8606 -1.01996 0
M  V30 5181 H 461.674 1.38379 -0.563164 0
M  V30 5182 H 463.556 4.06301 1.11791 0
M  V30 5183 H 462.231 2.90696 1.42399 0
M  V30 5184 H 461.138 3.66152 -0.767044 0
M  V30 5185 H 462.471 4.82143 -0.989915 0
M  V30 5186 N 464.123 0.554532 1.47522 0
M  V30 5187 C 465.033 -0.197865 2.33764 0
M  V30 5188 C 466.049 -0.914576 1.48025 0
M  V30 5189 O 467.225 -0.884067 1.80959 0
M  V30 5190 C 464.29 -1.21628 3.24665 0
M  V30 5191 C 463.351 -0.507283 4.26292 0
M  V30 5192 C 462.584 -1.47718 5.1285 0
M  V30 5193 O 462.807 -2.7118 5.01814 0
M  V30 5194 O 461.741 -1.00313 5.93482 0
M  V30 5195 H 465.567 0.50949 2.99396 0
M  V30 5196 H 463.152 0.315176 1.46038 0
M  V30 5197 H 465.034 -1.80421 3.80823 0
M  V30 5198 H 463.709 -1.9056 2.61665 0
M  V30 5199 H 462.616 0.121778 3.73902 0
M  V30 5200 H 463.949 0.140544 4.91999 0
M  V30 5201 N 465.601 -1.54893 0.290851 0
M  V30 5202 C 466.849 -1.99538 -0.320756 0
M  V30 5203 C 467.17 -1.18075 -1.55188 0
M  V30 5204 O 466.44 -0.274162 -1.93972 0
M  V30 5205 H 465.02 -0.737052 -0.121507 0
M  V30 5206 H 467.682 -1.90755 0.399832 0
M  V30 5207 H 466.778 -3.06282 -0.599802 0
M  V30 5208 N 467.08 -0.0183926 -1.57589 0
M  V30 5209 C 468.012 0.995557 -2.06449 0
M  V30 5210 C 469.025 1.29556 -0.985849 0
M  V30 5211 O 470.214 1.2621 -1.26227 0
M  V30 5212 C 467.314 2.32572 -2.46502 0
M  V30 5213 C 466.487 2.21245 -3.77319 0
M  V30 5214 C 465.546 3.37104 -4.04039 0
M  V30 5215 O 464.572 3.14468 -4.74445 0
M  V30 5216 N 465.774 4.60553 -3.53372 0
M  V30 5217 H 468.539 0.578746 -2.94059 0
M  V30 5218 H 466.1 0.168603 -1.6102 0
M  V30 5219 H 468.092 3.08887 -2.61478 0
M  V30 5220 H 466.662 2.65931 -1.64315 0
M  V30 5221 H 465.882 1.29723 -3.72244 0
M  V30 5222 H 467.17 2.10868 -4.63047 0
M  V30 5223 H 466.568 4.81839 -2.96391 0
M  V30 5224 H 465.125 5.34072 -3.73644 0
M  V30 5225 N 468.558 1.5553 0.254621 0
M  V30 5226 C 469.521 1.88872 1.29846 0
M  V30 5227 C 470.521 0.764591 1.41459 0
M  V30 5228 O 471.711 1.03265 1.40293 0
M  V30 5229 C 468.843 2.11032 2.67728 0
M  V30 5230 H 470.036 2.82201 1.01502 0
M  V30 5231 H 467.589 1.48303 0.493556 0
M  V30 5232 H 468.324 1.20146 3.01223 0
M  V30 5233 H 468.109 2.92895 2.60682 0
M  V30 5234 H 469.599 2.38038 3.43115 0
M  V30 5235 N 470.036 -0.519951 1.48776 0
M  V30 5236 C 471.282 -1.27711 1.57536 0
M  V30 5237 C 471.615 -1.92547 0.252866 0
M  V30 5238 O 470.89 -1.7979 -0.742021 0
M  V30 5239 C 471.173 -2.35875 2.72094 0
M  V30 5240 C 471.026 -1.75664 4.1408 0
M  V30 5241 C 472.345 -3.37575 2.82367 0
M  V30 5242 H 469.464 -0.462971 0.573434 0
M  V30 5243 H 472.106 -0.578194 1.80989 0
M  V30 5244 H 470.256 -2.95488 2.52228 0
M  V30 5245 H 471.928 -1.20025 4.45412 0
M  V30 5246 H 470.171 -1.06154 4.20611 0
M  V30 5247 H 470.842 -2.54029 4.90075 0
M  V30 5248 H 473.318 -2.87929 3.00393 0
M  V30 5249 H 472.194 -4.1064 3.64233 0
M  V30 5250 H 472.455 -3.98743 1.90936 0
M  V30 5251 N 471.514 -1.37532 -0.769588 0
M  V30 5252 C 472.444 -1.36172 -1.89682 0
M  V30 5253 C 473.425 -0.23001 -1.68538 0
M  V30 5254 O 474.61 -0.43069 -1.89364 0
M  V30 5255 C 471.74 -1.1701 -3.26995 0
M  V30 5256 C 470.694 -2.27216 -3.62708 0
M  V30 5257 C 470.02 -1.93174 -4.98586 0
M  V30 5258 C 471.32 -3.6941 -3.69234 0
M  V30 5259 H 473.014 -2.30499 -1.91078 0
M  V30 5260 H 470.56 -1.10953 -0.917902 0
M  V30 5261 H 472.513 -1.14688 -4.05493 0
M  V30 5262 H 471.237 -0.191395 -3.26039 0
M  V30 5263 H 469.896 -2.28697 -2.86519 0
M  V30 5264 H 469.544 -0.938281 -4.94171 0
M  V30 5265 H 469.244 -2.66973 -5.23449 0
M  V30 5266 H 470.768 -1.92443 -5.79481 0
M  V30 5267 H 472.182 -3.70047 -4.37879 0
M  V30 5268 H 470.579 -4.4228 -4.05597 0
M  V30 5269 H 471.649 -4.0288 -2.69844 0
M  V30 5270 N 472.992 0.995999 -1.22138 0
M  V30 5271 C 473.924 2.08745 -0.946485 0
M  V30 5272 C 474.937 1.62633 0.0737356 0
M  V30 5273 O 476.126 1.77782 -0.159886 0
M  V30 5274 C 473.226 3.36516 -0.401305 0
M  V30 5275 C 472.399 4.11672 -1.47801 0
M  V30 5276 C 471.458 5.17728 -0.940461 0
M  V30 5277 O 470.484 5.45482 -1.62596 0
M  V30 5278 N 471.686 5.80005 0.239723 0
M  V30 5279 H 474.451 2.32908 -1.88611 0
M  V30 5280 H 472.012 1.16152 -1.12785 0
M  V30 5281 H 474.004 4.04691 -0.0270837 0
M  V30 5282 H 472.574 3.0944 0.443354 0
M  V30 5283 H 471.794 3.38171 -2.02568 0
M  V30 5284 H 473.082 4.58657 -2.20253 0
M  V30 5285 H 472.48 5.5982 0.813518 0
M  V30 5286 H 471.037 6.4943 0.555361 0
M  V30 5287 N 474.47 1.03057 1.19235 0
M  V30 5288 C 475.4 0.633497 2.24742 0
M  V30 5289 C 476.381 -0.358335 1.66283 0
M  V30 5290 O 477.566 -0.240676 1.92703 0
M  V30 5291 C 474.696 -0.0147648 3.47297 0
M  V30 5292 C 473.65 0.899527 4.18441 0
M  V30 5293 C 472.976 0.116281 5.34574 0
M  V30 5294 C 474.276 2.21404 4.73051 0
M  V30 5295 H 475.97 1.5155 2.58211 0
M  V30 5296 H 473.516 0.73014 1.24117 0
M  V30 5297 H 475.469 -0.304202 4.20301 0
M  V30 5298 H 474.193 -0.931577 3.13032 0
M  V30 5299 H 472.852 1.17319 3.47321 0
M  V30 5300 H 472.5 -0.802619 4.96555 0
M  V30 5301 H 472.2 0.725293 5.83107 0
M  V30 5302 H 473.724 -0.166376 6.10373 0
M  V30 5303 H 475.138 1.98601 5.37802 0
M  V30 5304 H 473.535 2.77512 5.32078 0
M  V30 5305 H 474.605 2.86752 3.91026 0
M  V30 5306 N 475.948 -1.35272 0.808662 0
M  V30 5307 C 477.196 -1.98316 0.389233 0
M  V30 5308 C 477.517 -1.64465 -1.04767 0
M  V30 5309 O 476.787 -0.928175 -1.72516 0
M  V30 5310 H 475.367 -0.733585 0.140935 0
M  V30 5311 H 478.029 -1.6515 1.03496 0
M  V30 5312 H 477.125 -3.08123 0.496631 0
M  V30 5313 N 477.426 -0.562348 -1.47226 0
M  V30 5314 C 478.675 -0.038041 -2.01664 0
M  V30 5315 C 478.988 1.32199 -1.44162 0
M  V30 5316 O 480.194 1.9365 -1.90294 0
M  V30 5317 C 478.65 -0.0174958 -3.59896 0
M  V30 5318 C 478.258 -1.3746 -4.2639 0
M  V30 5319 C 480.002 0.453934 -4.22066 0
M  V30 5320 C 477.909 -1.31289 -5.76643 0
M  V30 5321 H 476.839 -0.0104511 -0.753928 0
M  V30 5322 H 479.49 -0.710966 -1.69167 0
M  V30 5323 H 477.872 0.721182 -3.89378 0
M  V30 5324 H 479.046 -2.1314 -4.08544 0
M  V30 5325 H 477.361 -1.78438 -3.7623 0
M  V30 5326 H 479.958 0.518584 -5.32179 0
M  V30 5327 H 480.301 1.46706 -3.89594 0
M  V30 5328 H 480.834 -0.230044 -3.97134 0
M  V30 5329 H 477.573 -2.30217 -6.13743 0
M  V30 5330 H 477.093 -0.597973 -5.96812 0
M  V30 5331 H 478.772 -1.01713 -6.38955 0
M  V30 5332 N 478.904 1.54736 -0.299062 0
M  V30 5333 C 479.814 2.27127 0.587413 0
M  V30 5334 C 480.83 1.30575 1.15005 0
M  V30 5335 O 482.006 1.63554 1.17525 0
M  V30 5336 C 479.071 2.99645 1.74395 0
M  V30 5337 C 478.132 4.11731 1.21559 0
M  V30 5338 C 477.365 4.80781 2.317 0
M  V30 5339 O 477.588 4.4918 3.51558 0
M  V30 5340 O 476.522 5.68226 1.98501 0
M  V30 5341 H 480.348 3.037 0.000250109 0
M  V30 5342 H 477.933 1.49256 -0.0655919 0
M  V30 5343 H 479.815 3.45138 2.4178 0
M  V30 5344 H 478.49 2.25969 2.31775 0
M  V30 5345 H 477.397 3.70641 0.507514 0
M  V30 5346 H 478.73 4.87379 0.687233 0
M  V30 5347 N 480.382 0.0267497 1.57577 0
M  V30 5348 C 481.63 -0.651116 1.91324 0
M  V30 5349 C 481.951 -1.72804 0.90353 0
M  V30 5350 O 481.221 -1.95822 -0.0552946 0
M  V30 5351 H 479.801 -0.243491 0.706202 0
M  V30 5352 H 482.463 0.0739935 1.94759 0
M  V30 5353 H 481.559 -1.10536 2.9187 0
M  V30 5354 N 481.861 -1.55662 -0.24637 0
M  V30 5355 C 482.824 -1.89558 -1.28842 0
M  V30 5356 C 483.824 -0.772082 -1.41052 0
M  V30 5357 O 485.014 -1.04007 -1.39743 0
M  V30 5358 C 482.146 -2.12449 -2.66605 0
M  V30 5359 H 483.339 -2.82735 -1.00004 0
M  V30 5360 H 480.892 -1.48562 -0.485684 0
M  V30 5361 H 481.627 -1.21742 -3.00582 0
M  V30 5362 H 481.412 -2.94273 -2.59125 0
M  V30 5363 H 482.902 -2.39854 -3.41847 0
M  V30 5364 N 483.339 0.512053 -1.4905 0
M  V30 5365 C 484.75 1.09376 -1.51307 0
M  V30 5366 C 485.101 1.94 -0.292971 0
M  V30 5367 O 484.226 2.07965 0.598277 0
M  V30 5368 C 484.821 1.99031 -2.74176 0
M  V30 5369 C 483.38 2.52385 -2.79247 0
M  V30 5370 C 482.527 1.29749 -2.45073 0
M  V30 5371 H 485.478 0.296467 -1.55906 0
M  V30 5372 H 485.499 2.83569 -2.53711 0
M  V30 5373 H 485.011 1.37412 -3.62959 0
M  V30 5374 H 483.112 3.17673 -1.94716 0
M  V30 5375 H 483.225 2.90293 -3.81139 0
M  V30 5376 H 481.589 1.61912 -1.96612 0
M  V30 5377 H 482.372 0.698555 -3.36118 0
M  V30 5378 N 484.817 1.37938 0.762283 0
M  V30 5379 C 485.749 1.30349 1.88525 0
M  V30 5380 C 486.762 0.217402 1.61342 0
M  V30 5381 O 487.951 0.474291 1.72084 0
M  V30 5382 C 485.051 0.994844 3.23969 0
M  V30 5383 C 484.224 2.18829 3.78725 0
M  V30 5384 C 483.283 1.84844 4.92665 0
M  V30 5385 O 482.309 2.57244 5.07754 0
M  V30 5386 N 483.511 0.798201 5.74986 0
M  V30 5387 H 486.276 2.27114 1.95549 0
M  V30 5388 H 483.837 1.31686 0.941825 0
M  V30 5389 H 485.829 0.748168 3.97724 0
M  V30 5390 H 484.399 0.115446 3.12387 0
M  V30 5391 H 483.619 2.59615 2.96637 0
M  V30 5392 H 484.907 2.98497 4.1204 0
M  V30 5393 H 484.305 0.197611 5.65355 0
M  V30 5394 H 482.862 0.611396 6.48926 0
M  V30 5395 N 486.295 -0.989507 1.22664 0
M  V30 5396 C 487.258 -2.06183 1.00106 0
M  V30 5397 C 488.258 -1.60765 -0.0337726 0
M  V30 5398 O 489.448 -1.72989 0.205072 0
M  V30 5399 C 486.58 -3.37021 0.51279 0
M  V30 5400 H 487.773 -2.27629 1.95256 0
M  V30 5401 H 485.326 -1.16158 1.0458 0
M  V30 5402 H 486.061 -3.21261 -0.442917 0
M  V30 5403 H 485.846 -3.71323 1.25942 0
M  V30 5404 H 487.336 -4.1591 0.375315 0
M  V30 5405 N 487.773 -1.03688 -1.18687 0
M  V30 5406 C 488.703 -0.645407 -2.24403 0
M  V30 5407 C 489.684 0.349511 -1.66471 0
M  V30 5408 O 490.869 0.230453 -1.92828 0
M  V30 5409 C 487.999 -0.00365337 -3.473 0
M  V30 5410 C 486.953 -0.921705 -4.17958 0
M  V30 5411 C 486.279 -0.144629 -5.34504 0
M  V30 5412 C 487.579 -2.23909 -4.71871 0
M  V30 5413 H 489.273 -1.52917 -2.57404 0
M  V30 5414 H 486.819 -0.736711 -1.23728 0
M  V30 5415 H 488.772 0.281908 -4.20456 0
M  V30 5416 H 487.496 0.914963 -3.13522 0
M  V30 5417 H 486.155 -1.19159 -3.46694 0
M  V30 5418 H 485.803 0.776274 -4.96974 0
M  V30 5419 H 485.503 -0.756206 -5.82714 0
M  V30 5420 H 487.027 0.134004 -6.10453 0
M  V30 5421 H 488.441 -2.0145 -5.36741 0
M  V30 5422 H 486.838 -2.8033 -5.30599 0
M  V30 5423 H 487.908 -2.88822 -3.895 0
M  V30 5424 N 489.251 1.34841 -0.815825 0
M  V30 5425 C 490.476 2.03261 -0.41226 0
M  V30 5426 C 490.901 1.61055 0.971751 0
M  V30 5427 O 490.259 0.7917 1.63101 0
M  V30 5428 C 490.307 3.56914 -0.514289 0
M  V30 5429 O 489.411 4.09728 0.468675 0
M  V30 5430 H 488.752 0.641664 -0.170771 0
M  V30 5431 H 491.282 1.72241 -1.10427 0
M  V30 5432 H 491.292 4.06156 -0.387457 0
M  V30 5433 H 489.967 3.86982 -1.52375 0
M  V30 5434 H 488.544 3.71681 0.301316 0
M  V30 5435 N 490.729 0.570148 1.46925 0
M  V30 5436 C 491.978 0.0487352 2.01641 0
M  V30 5437 C 492.291 -1.31433 1.44861 0
M  V30 5438 O 493.497 -1.92638 1.91318 0
M  V30 5439 C 491.953 0.0365817 3.59881 0
M  V30 5440 C 491.561 1.39719 4.25655 0
M  V30 5441 C 493.305 -0.431545 4.22301 0
M  V30 5442 C 491.212 1.34345 5.75939 0
M  V30 5443 H 490.142 0.0144492 0.753862 0
M  V30 5444 H 492.793 0.719928 1.68788 0
M  V30 5445 H 491.175 -0.700522 3.89755 0
M  V30 5446 H 492.349 2.15303 4.07408 0
M  V30 5447 H 490.664 1.80431 3.75278 0
M  V30 5448 H 493.261 -0.490354 5.32447 0
M  V30 5449 H 493.604 -1.44638 3.90366 0
M  V30 5450 H 494.137 0.251102 3.97007 0
M  V30 5451 H 490.876 2.33469 6.12513 0
M  V30 5452 H 490.396 0.629615 5.96486 0
M  V30 5453 H 492.075 1.051 6.38407 0
M  V30 5454 N 492.207 -1.54576 0.307264 0
M  V30 5455 C 493.154 -2.23751 -0.56604 0
M  V30 5456 C 494.124 -1.22235 -1.12462 0
M  V30 5457 O 495.309 -1.50873 -1.16799 0
M  V30 5458 C 492.449 -2.98661 -1.72903 0
M  V30 5459 C 491.562 -4.14963 -1.20124 0
M  V30 5460 C 490.697 -4.77441 -2.3286 0
M  V30 5461 C 489.736 -5.85875 -1.77247 0
M  V30 5462 N 488.873 -6.42282 -2.8358 0
M  V30 5463 H 493.713 -2.97984 0.0304578 0
M  V30 5464 H 491.25 -1.47076 0.0268015 0
M  V30 5465 H 493.208 -3.40329 -2.41313 0
M  V30 5466 H 491.838 -2.26793 -2.29706 0
M  V30 5467 H 490.89 -3.78193 -0.409198 0
M  V30 5468 H 492.202 -4.93066 -0.754171 0
M  V30 5469 H 491.356 -5.21993 -3.09205 0
M  V30 5470 H 490.095 -3.98684 -2.80896 0
M  V30 5471 H 489.1 -5.40741 -0.993926 0
M  V30 5472 H 490.325 -6.6652 -1.30107 0
M  V30 5473 H 488.271 -5.66406 -3.30939 0
M  V30 5474 H 488.188 -7.1575 -2.43388 0
M  V30 5475 H 489.456 -6.91492 -3.59804 0
M  V30 5476 N 493.685 -0.035106 -1.57561 0
M  V30 5477 C 494.913 0.652258 -1.9635 0
M  V30 5478 C 495.328 1.65317 -0.911897 0
M  V30 5479 O 494.685 1.82194 0.105657 0
M  V30 5480 C 494.736 1.35337 -3.35211 0
M  V30 5481 O 494.457 0.392548 -4.36338 0
M  V30 5482 C 495.958 2.13199 -3.88666 0
M  V30 5483 H 493.178 0.179444 -0.646561 0
M  V30 5484 H 495.722 -0.0966459 -2.04271 0
M  V30 5485 H 493.877 2.05362 -3.28489 0
M  V30 5486 H 494.291 0.891097 -5.16875 0
M  V30 5487 H 495.765 2.577 -4.88154 0
M  V30 5488 H 496.242 2.97353 -3.23231 0
M  V30 5489 H 496.848 1.48118 -3.98674 0
M  V30 5490 N 495.163 1.55791 0.238111 0
M  V30 5491 C 496.388 1.8244 0.986432 0
M  V30 5492 C 496.813 0.613314 1.7782 0
M  V30 5493 O 496.171 -0.437767 1.75935 0
M  V30 5494 C 496.219 3.06917 1.893 0
M  V30 5495 O 495.323 2.84449 2.98601 0
M  V30 5496 H 494.664 0.601975 0.280218 0
M  V30 5497 H 497.194 2.02987 0.256437 0
M  V30 5498 H 497.204 3.36583 2.30598 0
M  V30 5499 H 495.879 3.947 1.31091 0
M  V30 5500 H 494.456 2.65972 2.61368 0
M  V30 5501 N 496.642 -0.504142 1.49319 0
M  V30 5502 C 497.867 -1.28729 1.62615 0
M  V30 5503 C 498.292 -1.85752 0.296309 0
M  V30 5504 O 497.65 -1.65704 -0.735649 0
M  V30 5505 C 497.698 -2.39561 2.69524 0
M  V30 5506 O 496.802 -3.43324 2.28478 0
M  V30 5507 H 496.143 -0.380172 0.544395 0
M  V30 5508 H 498.673 -0.603872 1.95485 0
M  V30 5509 H 498.683 -2.8537 2.91595 0
M  V30 5510 H 497.358 -1.97423 3.66056 0
M  V30 5511 H 495.935 -3.03455 2.16725 0
M  V30 5512 N 498.12 -1.38341 -0.754957 0
M  V30 5513 C 499.05 -1.38176 -1.88227 0
M  V30 5514 C 500.031 -0.247873 -1.68284 0
M  V30 5515 O 501.216 -0.45075 -1.88896 0
M  V30 5516 C 498.346 -1.20471 -3.25736 0
M  V30 5517 C 497.3 -2.3105 -3.60278 0
M  V30 5518 C 496.626 -1.98452 -4.96509 0
M  V30 5519 C 497.926 -3.73305 -3.65295 0
M  V30 5520 H 499.62 -2.32512 -1.88622 0
M  V30 5521 H 497.166 -1.1192 -0.906082 0
M  V30 5522 H 499.119 -1.18982 -4.04254 0
M  V30 5523 H 497.843 -0.225965 -3.25817 0
M  V30 5524 H 496.502 -2.31723 -2.84078 0
M  V30 5525 H 496.15 -0.990641 -4.93148 0
M  V30 5526 H 495.85 -2.7251 -5.20588 0
M  V30 5527 H 497.374 -1.98578 -5.77407 0
M  V30 5528 H 498.788 -3.7467 -4.3393 0
M  V30 5529 H 497.185 -4.46557 -4.00883 0
M  V30 5530 H 498.255 -4.05719 -2.65556 0
M  V30 5531 N 499.598 0.982988 -1.23187 0
M  V30 5532 C 500.561 2.05649 -1.01198 0
M  V30 5533 C 501.561 1.6078 0.0252464 0
M  V30 5534 O 502.751 1.72878 -0.214243 0
M  V30 5535 C 499.883 3.36744 -0.530656 0
M  V30 5536 H 501.076 2.2659 -1.96461 0
M  V30 5537 H 498.629 1.15602 -1.05195 0
M  V30 5538 H 499.364 3.21492 0.425873 0
M  V30 5539 H 499.149 3.7065 -1.2791 0
M  V30 5540 H 500.639 4.15705 -0.397366 0
M  V30 5541 N 501.076 1.04316 1.18135 0
M  V30 5542 C 501.986 0.646876 2.25505 0
M  V30 5543 C 503.002 -0.328008 1.7088 0
M  V30 5544 O 504.178 -0.182309 2.00573 0
M  V30 5545 C 501.243 0.0185664 3.46695 0
M  V30 5546 C 500.304 1.04277 4.16443 0
M  V30 5547 C 499.537 0.444352 5.31847 0
M  V30 5548 O 499.76 -0.748735 5.65465 0
M  V30 5549 O 498.694 1.17428 5.90334 0
M  V30 5550 H 502.52 1.54147 2.61672 0
M  V30 5551 H 500.105 0.814188 1.25265 0
M  V30 5552 H 501.987 -0.331068 4.20097 0
M  V30 5553 H 500.662 -0.849814 3.12346 0
M  V30 5554 H 499.569 1.44425 3.45098 0
M  V30 5555 H 500.902 1.882 4.54798 0
M  V30 5556 N 502.554 -1.34406 0.822964 0
M  V30 5557 C 503.517 -2.2783 0.250271 0
M  V30 5558 C 504.517 -1.50288 -0.571854 0
M  V30 5559 O 505.707 -1.69825 -0.387952 0
M  V30 5560 C 502.839 -3.34663 -0.649137 0
M  V30 5561 H 504.032 -2.79992 1.07444 0
M  V30 5562 H 501.585 -1.44539 0.594829 0
M  V30 5563 H 502.32 -2.87714 -1.49637 0
M  V30 5564 H 502.105 -3.92052 -0.0611199 0
M  V30 5565 H 503.595 -4.04349 -1.04363 0
M  V30 5566 N 504.032 -0.577932 -1.46621 0
M  V30 5567 C 504.942 0.160651 -2.34049 0
M  V30 5568 C 505.958 0.890911 -1.49462 0
M  V30 5569 O 507.134 0.855166 -1.82343 0
M  V30 5570 C 504.199 1.16447 -3.26559 0
M  V30 5571 C 503.26 0.4394 -4.27045 0
M  V30 5572 C 502.493 1.3954 -5.15135 0
M  V30 5573 O 502.716 2.63162 -5.06065 0
M  V30 5574 O 501.65 0.908585 -5.95003 0
M  V30 5575 H 505.476 -0.557057 -2.98547 0
M  V30 5576 H 503.061 -0.338369 -1.45518 0
M  V30 5577 H 504.943 1.7434 -3.83645 0
M  V30 5578 H 503.618 1.86373 -2.64663 0
M  V30 5579 H 502.525 -0.181247 -3.73661 0
M  V30 5580 H 503.858 -0.218799 -4.91713 0
M  V30 5581 N 505.51 1.54411 -0.315457 0
M  V30 5582 C 506.458 2.25514 0.569771 0
M  V30 5583 C 507.452 1.2663 1.12522 0
M  V30 5584 O 508.658 1.44434 1.07419 0
M  V30 5585 H 505.033 0.724257 0.202376 0
M  V30 5586 H 507.004 2.98354 -0.0522895 0
M  V30 5587 C 505.753 3.02004 1.72305 0
M  V30 5588 H 505.076 3.77906 1.30488 0
M  V30 5589 H 506.516 3.55014 2.31821 0
M  V30 5590 C 504.975 2.09822 2.63583 0
M  V30 5591 O 505.505 1.67574 3.65078 0
M  V30 5592 N 503.711 1.75478 2.31637 0
M  V30 5593 H 503.258 2.10032 1.49145 0
M  V30 5594 H 503.216 1.14079 2.92973 0
M  V30 5595 N 506.988 0.0434614 1.5754 0
M  V30 5596 C 507.921 -0.968729 2.06618 0
M  V30 5597 C 508.899 -1.30868 0.965 0
M  V30 5598 O 510.083 -1.42288 1.23638 0
M  V30 5599 C 507.21 -2.28486 2.50023 0
M  V30 5600 C 506.256 -2.09851 3.71302 0
M  V30 5601 S 507.089 -1.38401 5.17306 0
M  V30 5602 C 508.245 -2.71354 5.64019 0
M  V30 5603 H 508.478 -0.551021 2.92149 0
M  V30 5604 H 506.011 -0.168607 1.53477 0
M  V30 5605 H 507.969 -3.04142 2.75695 0
M  V30 5606 H 506.63 -2.67387 1.64812 0
M  V30 5607 H 505.823 -3.07184 3.99567 0
M  V30 5608 H 505.425 -1.42336 3.45856 0
M  V30 5609 H 507.717 -3.67549 5.69134 0
M  V30 5610 H 508.66 -2.47734 6.6335 0
M  V30 5611 H 509.068 -2.77259 4.91719 0
M  V30 5612 N 508.466 -1.55915 -0.229846 0
M  V30 5613 C 509.429 -1.90914 -1.26824 0
M  V30 5614 C 510.429 -0.786999 -1.40225 0
M  V30 5615 O 511.619 -1.05484 -1.38632 0
M  V30 5616 C 508.751 -2.15264 -2.64337 0
M  V30 5617 H 509.944 -2.8378 -0.969998 0
M  V30 5618 H 507.497 -1.49069 -0.4699 0
M  V30 5619 H 508.232 -1.24923 -2.99274 0
M  V30 5620 H 508.017 -2.97005 -2.55989 0
M  V30 5621 H 509.507 -2.43467 -3.39284 0
M  V30 5622 N 509.944 0.496216 -1.49584 0
M  V30 5623 C 511.221 1.25755 -1.49816 0
M  V30 5624 C 511.601 2.09859 -0.228572 0
M  V30 5625 O 510.949 2.14449 0.788908 0
M  V30 5626 C 511.159 2.11017 -2.7798 0
M  V30 5627 C 512.507 2.70047 -3.27658 0
M  V30 5628 O 513.531 2.21281 -2.79129 0
M  V30 5629 O 512.39 3.58834 -4.1219 0
M  V30 5630 H 509.484 0.569322 -0.599834 0
M  V30 5631 H 512.03 0.510094 -1.61852 0
M  V30 5632 H 510.802 1.48879 -3.61871 0
M  V30 5633 H 510.425 2.92947 -2.68827 0
M  V30 5634 N 511.423 1.38739 0.74761 0
M  V30 5635 C 512.353 1.39173 1.87492 0
M  V30 5636 C 513.334 0.256794 1.6815 0
M  V30 5637 O 514.519 0.460762 1.88655 0
M  V30 5638 C 511.649 1.22197 3.25093 0
M  V30 5639 C 510.603 2.32957 3.59047 0
M  V30 5640 C 509.929 2.01082 4.95449 0
M  V30 5641 C 511.229 3.75237 3.6331 0
M  V30 5642 H 512.923 2.3351 1.87386 0
M  V30 5643 H 510.469 1.12399 0.900134 0
M  V30 5644 H 512.422 1.21124 4.03617 0
M  V30 5645 H 511.146 0.243241 3.25693 0
M  V30 5646 H 509.805 2.33226 2.82845 0
M  V30 5647 H 509.453 1.01678 4.92616 0
M  V30 5648 H 509.153 2.75267 5.19136 0
M  V30 5649 H 510.677 2.01638 5.76346 0
M  V30 5650 H 512.091 3.76966 4.31937 0
M  V30 5651 H 510.488 4.48677 3.98509 0
M  V30 5652 H 511.558 4.07122 2.634 0
M  V30 5653 N 512.901 -0.976442 1.23707 0
M  V30 5654 C 514.15 -1.71254 1.06559 0
M  V30 5655 C 514.463 -1.91528 -0.397024 0
M  V30 5656 O 515.669 -2.62625 -0.688518 0
M  V30 5657 C 514.125 -3.08207 1.8584 0
M  V30 5658 C 513.733 -2.95806 3.36456 0
M  V30 5659 C 515.477 -3.85749 1.77194 0
M  V30 5660 C 513.384 -4.28015 4.08114 0
M  V30 5661 H 512.314 -0.642171 0.395136 0
M  V30 5662 H 514.965 -1.08877 1.4771 0
M  V30 5663 H 513.347 -3.71363 1.37498 0
M  V30 5664 H 514.521 -2.41716 3.92314 0
M  V30 5665 H 512.836 -2.31736 3.45959 0
M  V30 5666 H 515.433 -4.83633 2.28041 0
M  V30 5667 H 515.776 -4.09752 0.735477 0
M  V30 5668 H 516.309 -3.29303 2.23169 0
M  V30 5669 H 513.048 -4.09208 5.12083 0
M  V30 5670 H 512.568 -4.81955 3.57043 0
M  V30 5671 H 514.247 -4.96681 4.14629 0
M  V30 5672 N 514.379 -1.04941 -1.1758 0
M  V30 5673 C 515.656 -0.671918 -1.83697 0
M  V30 5674 C 516.036 0.847929 -1.93322 0
M  V30 5675 O 515.384 1.75287 -1.46583 0
M  V30 5676 C 515.594 -1.35797 -3.21497 0
M  V30 5677 C 516.942 -1.4944 -3.97433 0
M  V30 5678 O 517.966 -1.31678 -3.30967 0
M  V30 5679 O 516.825 -1.78463 -5.1654 0
M  V30 5680 H 513.919 -0.236212 -0.792548 0
M  V30 5681 H 516.465 -1.14884 -1.24899 0
M  V30 5682 H 515.237 -2.39498 -3.09446 0
M  V30 5683 H 514.86 -0.870236 -3.8796 0
M  V30 5684 N 515.857 1.33968 -0.830081 0
M  V30 5685 C 517.105 1.97672 -0.420734 0
M  V30 5686 C 517.426 1.66111 1.02138 0
M  V30 5687 O 516.696 0.955503 1.71017 0
M  V30 5688 H 515.276 0.73125 -0.152587 0
M  V30 5689 H 517.938 1.63483 -1.0611 0
M  V30 5690 H 517.034 3.07294 -0.545588 0
M  V30 5691 N 517.335 0.585699 1.46312 0
M  V30 5692 C 518.565 0.0780166 2.06453 0
M  V30 5693 C 518.973 -1.2336 1.43454 0
M  V30 5694 O 518.316 -1.75734 0.535086 0
M  V30 5695 C 518.378 -0.158951 3.59148 0
M  V30 5696 C 518.042 1.06752 4.44357 0
M  V30 5697 C 519.039 1.98031 4.80708 0
M  V30 5698 C 516.724 1.2902 4.85447 0
M  V30 5699 C 518.718 3.09924 5.5698 0
M  V30 5700 C 516.405 2.41218 5.61478 0
M  V30 5701 C 517.403 3.31499 5.97158 0
M  V30 5702 O 517.091 4.41747 6.71651 0
M  V30 5703 H 516.823 0.0558894 0.673686 0
M  V30 5704 H 519.377 0.806994 1.88883 0
M  V30 5705 H 517.607 -0.942575 3.75037 0
M  V30 5706 H 519.296 -0.615513 4.01206 0
M  V30 5707 H 520.062 1.82043 4.49539 0
M  V30 5708 H 515.941 0.596567 4.57124 0
M  V30 5709 H 519.485 3.80415 5.84748 0
M  V30 5710 H 515.382 2.57167 5.9206 0
M  V30 5711 H 516.15 4.40152 6.90079 0
M  V30 5712 N 518.813 -1.54241 0.323641 0
M  V30 5713 C 520.053 -2.0248 -0.279502 0
M  V30 5714 C 520.417 -1.20672 -1.49339 0
M  V30 5715 O 521.618 -1.58715 -2.1694 0
M  V30 5716 C 519.889 -3.52238 -0.605266 0
M  V30 5717 S 521.448 -4.22411 -1.18805 0
M  V30 5718 H 518.266 -0.705957 -0.0845313 0
M  V30 5719 H 520.868 -1.90089 0.456781 0
M  V30 5720 H 519.572 -4.094 0.286339 0
M  V30 5721 H 519.103 -3.6871 -1.37174 0
M  V30 5722 H 521.118 -4.30075 -2.47487 0
M  V30 5723 N 520.291 -0.0518155 -1.57515 0
M  V30 5724 C 521.707 0.304735 -1.56664 0
M  V30 5725 C 521.907 1.71395 -1.05953 0
M  V30 5726 O 520.963 2.42123 -0.716414 0
M  V30 5727 C 522.276 0.132614 -3.00407 0
M  V30 5728 C 523.824 0.20367 -3.12337 0
M  V30 5729 C 524.299 0.0600706 -4.57961 0
M  V30 5730 N 525.79 0.116326 -4.63054 0
M  V30 5731 C 526.525 0.0293363 -5.73392 0
M  V30 5732 N 526.021 -0.110038 -6.92713 0
M  V30 5733 N 527.814 0.0849651 -5.62036 0
M  V30 5734 H 519.965 -0.973056 -1.888 0
M  V30 5735 H 522.228 -0.377781 -0.869474 0
M  V30 5736 H 521.934 -0.839019 -3.41546 0
M  V30 5737 H 521.808 0.893376 -3.66468 0
M  V30 5738 H 524.195 1.16578 -2.71097 0
M  V30 5739 H 524.276 -0.587857 -2.48954 0
M  V30 5740 H 523.92 -0.898715 -4.99886 0
M  V30 5741 H 523.85 0.87075 -5.19351 0
M  V30 5742 H 526.341 0.22327 -3.7724 0
M  V30 5743 H 526.654 -0.169104 -7.72615 0
M  V30 5744 H 524.999 -0.145132 -6.94848 0
M  V30 5745 H 528.19 0.192411 -4.67704 0
M  V30 5746 H 528.363 0.0137131 -6.47999 0
M  V30 5747 N 521.769 1.56035 0.221574 0
M  V30 5748 C 522.699 1.95434 1.2778 0
M  V30 5749 C 523.68 0.822564 1.48889 0
M  V30 5750 O 524.865 1.08486 1.61072 0
M  V30 5751 C 521.995 2.27102 2.62759 0
M  V30 5752 C 520.949 3.4277 2.56306 0
M  V30 5753 C 520.275 3.60043 3.95314 0
M  V30 5754 C 521.575 4.77742 2.11093 0
M  V30 5755 H 523.269 2.83912 0.950504 0
M  V30 5756 H 520.815 1.36596 0.455791 0
M  V30 5757 H 522.768 2.53256 3.36807 0
M  V30 5758 H 521.492 1.35478 2.97176 0
M  V30 5759 H 520.151 3.16664 1.84715 0
M  V30 5760 H 519.799 2.65794 4.27039 0
M  V30 5761 H 519.499 4.37841 3.91879 0
M  V30 5762 H 521.023 3.88545 4.71025 0
M  V30 5763 H 522.437 5.03102 2.74885 0
M  V30 5764 H 520.834 5.58823 2.18716 0
M  V30 5765 H 521.904 4.731 1.06321 0
M  V30 5766 N 523.247 -0.488276 1.49845 0
M  V30 5767 C 524.179 -1.60539 1.63584 0
M  V30 5768 C 525.192 -1.5434 0.517972 0
M  V30 5769 O 526.381 -1.60041 0.790516 0
M  V30 5770 C 523.481 -2.99374 1.58835 0
M  V30 5771 C 522.654 -3.30624 2.86368 0
M  V30 5772 C 521.713 -4.4893 2.74496 0
M  V30 5773 O 520.739 -4.50085 3.48443 0
M  V30 5774 N 521.941 -5.49591 1.86894 0
M  V30 5775 H 524.706 -1.49176 2.59936 0
M  V30 5776 H 522.267 -0.67639 1.47094 0
M  V30 5777 H 524.259 -3.76459 1.48529 0
M  V30 5778 H 522.829 -3.04595 0.702892 0
M  V30 5779 H 522.049 -2.42314 3.1093 0
M  V30 5780 H 523.337 -3.48305 3.70892 0
M  V30 5781 H 522.735 -5.51467 1.26097 0
M  V30 5782 H 521.292 -6.25728 1.82503 0
M  V30 5783 N 524.725 -1.39134 -0.740242 0
M  V30 5784 C 525.973 -1.35803 -1.49673 0
M  V30 5785 C 526.294 0.0470897 -1.94943 0
M  V30 5786 O 525.564 0.997347 -1.68611 0
M  V30 5787 H 524.144 -0.499736 -0.555224 0
M  V30 5788 H 526.806 -1.73947 -0.879107 0
M  V30 5789 H 525.902 -2.0174 -2.38133 0
M  V30 5790 N 526.204 0.969867 -1.24223 0
M  V30 5791 C 527.114 2.09806 -1.0497 0
M  V30 5792 C 528.13 1.73998 0.00886455 0
M  V30 5793 O 529.306 2.00513 -0.188848 0
M  V30 5794 C 526.371 3.40467 -0.654452 0
M  V30 5795 C 525.432 3.90236 -1.78926 0
M  V30 5796 C 524.665 5.14662 -1.41277 0
M  V30 5797 O 524.888 5.69602 -0.301632 0
M  V30 5798 O 523.822 5.58761 -2.23763 0
M  V30 5799 H 527.648 2.28942 -1.99548 0
M  V30 5800 H 525.233 1.08197 -1.03023 0
M  V30 5801 H 527.115 4.19039 -0.445452 0
M  V30 5802 H 525.79 3.22636 0.262216 0
M  V30 5803 H 524.697 3.12735 -2.05299 0
M  V30 5804 H 526.03 4.1254 -2.68462 0
M  V30 5805 N 527.682 1.05563 1.17022 0
M  V30 5806 C 528.632 0.630007 2.19123 0
M  V30 5807 C 529.616 -0.335472 1.57364 0
M  V30 5808 O 530.808 -0.1521 1.76345 0
M  V30 5809 C 527.937 0.0101676 3.43298 0
M  V30 5810 C 527.023 0.999698 4.12149 0
M  V30 5811 N 527.414 2.17251 4.56766 0
M  V30 5812 C 525.712 0.829 4.38228 0
M  V30 5813 C 526.413 2.79883 5.09942 0
M  V30 5814 N 525.389 2.07656 5.02374 0
M  V30 5815 H 529.191 1.52353 2.51328 0
M  V30 5816 H 526.705 0.926288 1.33393 0
M  V30 5817 H 528.702 -0.312541 4.15727 0
M  V30 5818 H 527.362 -0.878707 3.12584 0
M  V30 5819 H 528.373 2.55067 4.50734 0
M  V30 5820 H 525.05 -0.00850974 4.17499 0
M  V30 5821 H 526.44 3.79362 5.54558 0
M  V30 5822 N 529.16 -1.33526 0.837174 0
M  V30 5823 C 530.092 -2.28077 0.226579 0
M  V30 5824 C 531.105 -1.51666 -0.591717 0
M  V30 5825 O 532.294 -1.73511 -0.419064 0
M  V30 5826 C 529.394 -3.31597 -0.69978 0
M  V30 5827 C 528.567 -4.37329 0.0788067 0
M  V30 5828 C 527.626 -5.20526 -0.770637 0
M  V30 5829 O 526.652 -5.68811 -0.210453 0
M  V30 5830 N 527.854 -5.41639 -2.08825 0
M  V30 5831 H 530.619 -2.81115 1.03897 0
M  V30 5832 H 528.18 -1.46201 0.695476 0
M  V30 5833 H 530.172 -3.84158 -1.27298 0
M  V30 5834 H 528.742 -2.78848 -1.41288 0
M  V30 5835 H 527.962 -3.8529 0.833381 0
M  V30 5836 H 529.25 -5.05079 0.614238 0
M  V30 5837 H 528.648 -5.04108 -2.56693 0
M  V30 5838 H 527.205 -5.97263 -2.60998 0
M  V30 5839 N 530.638 -0.59345 -1.46 0
M  V30 5840 C 531.886 -0.082988 -2.0193 0
M  V30 5841 C 532.207 1.28569 -1.46612 0
M  V30 5842 O 531.477 1.84629 -0.654909 0
M  V30 5843 H 530.057 -0.0276882 -0.746487 0
M  V30 5844 H 532.719 -0.771657 -1.78973 0
M  V30 5845 H 531.815 -0.022079 -3.12092 0
M  V30 5846 N 532.116 1.54067 -0.331816 0
M  V30 5847 C 533.341 2.05599 0.272705 0
M  V30 5848 C 533.766 1.2059 1.44359 0
M  V30 5849 O 533.124 0.216907 1.79998 0
M  V30 5850 C 533.172 3.54188 0.677021 0
M  V30 5851 O 532.276 3.72082 1.77844 0
M  V30 5852 H 531.617 0.662286 0.0476801 0
M  V30 5853 H 534.147 1.98826 -0.482624 0
M  V30 5854 H 534.157 3.96608 0.957415 0
M  V30 5855 H 532.832 4.15513 -0.179325 0
M  V30 5856 H 531.409 3.41566 1.49622 0
M  V30 5857 N 533.594 0.0601682 1.57485 0
M  V30 5858 C 534.524 -0.90889 2.15085 0
M  V30 5859 C 535.505 -1.31838 1.07484 0
M  V30 5860 O 536.69 -1.3915 1.35466 0
M  V30 5861 C 533.82 -2.18059 2.7031 0
M  V30 5862 C 532.774 -1.91088 3.82974 0
M  V30 5863 C 532.1 -3.24789 4.24754 0
M  V30 5864 C 533.4 -1.22535 5.07723 0
M  V30 5865 H 535.094 -0.429093 2.96309 0
M  V30 5866 H 532.64 -0.204952 1.42534 0
M  V30 5867 H 534.593 -2.86258 3.09248 0
M  V30 5868 H 533.317 -2.6826 1.8629 0
M  V30 5869 H 531.976 -1.25297 3.44523 0
M  V30 5870 H 531.624 -3.72809 3.37672 0
M  V30 5871 H 531.324 -3.07538 5.00694 0
M  V30 5872 H 532.848 -3.94205 4.66299 0
M  V30 5873 H 534.262 -1.80783 5.4405 0
M  V30 5874 H 532.659 -1.1558 5.88864 0
M  V30 5875 H 533.729 -0.202692 4.84476 0
M  V30 5876 N 535.072 -1.5615 -0.213296 0
M  V30 5877 C 536.321 -1.78743 -0.93455 0
M  V30 5878 C 536.634 -0.630199 -1.8517 0
M  V30 5879 O 537.84 -0.739966 -2.61222 0
M  V30 5880 C 536.296 -3.16571 -1.71203 0
M  V30 5881 C 535.904 -4.40043 -0.840617 0
M  V30 5882 C 537.648 -3.48485 -2.42401 0
M  V30 5883 C 535.555 -5.68895 -1.61592 0
M  V30 5884 H 534.485 -0.666426 -0.352692 0
M  V30 5885 H 537.136 -1.82532 -0.188227 0
M  V30 5886 H 535.518 -3.06981 -2.50157 0
M  V30 5887 H 536.692 -4.6071 -0.0910326 0
M  V30 5888 H 535.007 -4.15706 -0.240365 0
M  V30 5889 H 537.604 -4.41983 -3.00924 0
M  V30 5890 H 537.947 -2.71371 -3.15695 0
M  V30 5891 H 538.48 -3.59442 -1.7043 0
M  V30 5892 H 535.219 -6.48925 -0.926106 0
M  V30 5893 H 534.739 -5.52275 -2.33991 0
M  V30 5894 H 536.418 -6.09365 -2.17447 0
M  V30 5895 N 536.55 0.480323 -1.50102 0
M  V30 5896 C 537.799 1.22979 -1.59872 0
M  V30 5897 C 538.112 1.93282 -0.30022 0
M  V30 5898 O 539.318 2.70086 -0.276709 0
M  V30 5899 C 537.774 2.23408 -2.82164 0
M  V30 5900 C 537.382 1.5895 -4.18854 0
M  V30 5901 C 539.126 2.99055 -3.01275 0
M  V30 5902 C 537.033 2.57611 -5.32344 0
M  V30 5903 H 535.963 0.462707 -0.59533 0
M  V30 5904 H 538.614 0.501291 -1.7652 0
M  V30 5905 H 536.996 2.99511 -2.59055 0
M  V30 5906 H 538.17 0.887 -4.52182 0
M  V30 5907 H 536.485 0.956191 -4.05273 0
M  V30 5908 H 539.082 3.72876 -3.83233 0
M  V30 5909 H 539.425 3.57897 -2.12639 0
M  V30 5910 H 539.958 2.30066 -3.24522 0
M  V30 5911 H 536.697 2.03521 -6.23105 0
M  V30 5912 H 536.217 3.26041 -5.03445 0
M  V30 5913 H 537.896 3.19627 -5.62537 0
M  V30 5914 N 538.028 1.39524 0.732853 0
M  V30 5915 C 538.978 1.34905 1.83806 0
M  V30 5916 C 539.962 0.229546 1.59254 0
M  V30 5917 O 541.154 0.467255 1.70721 0
M  V30 5918 C 538.283 1.19699 3.21756 0
M  V30 5919 C 537.369 2.36359 3.5213 0
M  V30 5920 N 537.76 3.61834 3.53426 0
M  V30 5921 C 536.058 2.29363 3.82503 0
M  V30 5922 C 536.759 4.38992 3.81655 0
M  V30 5923 N 535.735 3.68606 3.99538 0
M  V30 5924 H 539.537 2.29882 1.83116 0
M  V30 5925 H 537.051 1.33051 0.931194 0
M  V30 5926 H 539.048 1.14472 4.00876 0
M  V30 5927 H 537.708 0.256739 3.23683 0
M  V30 5928 H 538.719 3.95228 3.34686 0
M  V30 5929 H 535.396 1.43612 3.92023 0
M  V30 5930 H 536.786 5.47763 3.89108 0
M  V30 5931 N 539.506 -0.963266 1.24736 0
M  V30 5932 C 540.917 -1.52145 1.08207 0
M  V30 5933 C 541.268 -1.93142 -0.345061 0
M  V30 5934 O 540.393 -1.77769 -1.23399 0
M  V30 5935 C 540.988 -2.76486 1.95808 0
M  V30 5936 C 539.547 -3.28646 1.8349 0
M  V30 5937 C 538.694 -2.01529 1.90476 0
M  V30 5938 H 541.645 -0.781083 1.38148 0
M  V30 5939 H 541.666 -3.49986 1.49297 0
M  V30 5940 H 541.178 -2.46617 2.99669 0
M  V30 5941 H 539.279 -3.63357 0.824787 0
M  V30 5942 H 539.392 -3.97246 2.67829 0
M  V30 5943 H 537.756 -2.16442 1.34258 0
M  V30 5944 H 538.539 -1.7402 2.95926 0
M  V30 5945 N 540.985 -1.06182 -1.16461 0
M  V30 5946 C 542.401 -0.785065 -1.38956 0
M  V30 5947 C 542.601 0.616103 -1.9185 0
M  V30 5948 O 541.657 1.37686 -2.11657 0
M  V30 5949 C 542.97 -1.84902 -2.37132 0
M  V30 5950 C 544.518 -1.8724 -2.50819 0
M  V30 5951 C 544.993 -2.92686 -3.52277 0
M  V30 5952 N 546.484 -2.91712 -3.59803 0
M  V30 5953 C 547.219 -3.69949 -4.38093 0
M  V30 5954 N 546.715 -4.58 -5.19815 0
M  V30 5955 N 548.508 -3.58346 -4.33064 0
M  V30 5956 H 540.659 -1.96569 -0.804634 0
M  V30 5957 H 542.922 -0.851747 -0.416211 0
M  V30 5958 H 542.628 -2.85518 -2.0536 0
M  V30 5959 H 542.502 -1.69908 -3.36766 0
M  V30 5960 H 544.889 -0.872827 -2.81897 0
M  V30 5961 H 544.97 -2.06311 -1.51226 0
M  V30 5962 H 544.614 -3.92835 -3.21937 0
M  V30 5963 H 544.544 -2.70864 -4.51598 0
M  V30 5964 H 547.035 -2.27876 -3.01464 0
M  V30 5965 H 547.348 -5.14357 -5.76764 0
M  V30 5966 H 545.693 -4.62056 -5.19162 0
M  V30 5967 H 548.884 -2.88943 -3.68279 0
M  V30 5968 H 549.057 -4.19563 -4.93833 0
M  V30 5969 N 542.463 1.3308 -0.844243 0
M  V30 5970 C 543.41 2.29104 -0.279323 0
M  V30 5971 C 544.38 1.54577 0.607882 0
M  V30 5972 O 545.565 1.8285 0.545009 0
M  V30 5973 C 542.705 3.40927 0.53508 0
M  V30 5974 C 541.818 4.30354 -0.376749 0
M  V30 5975 C 540.953 5.29297 0.449276 0
M  V30 5976 C 539.992 6.10365 -0.460606 0
M  V30 5977 N 539.129 7.01335 0.327612 0
M  V30 5978 H 543.969 2.76817 -1.10346 0
M  V30 5979 H 541.506 1.36203 -0.555611 0
M  V30 5980 H 543.464 4.04469 1.02278 0
M  V30 5981 H 542.094 2.94391 1.32414 0
M  V30 5982 H 541.146 3.67485 -0.982791 0
M  V30 5983 H 542.458 4.87067 -1.07549 0
M  V30 5984 H 541.612 5.98392 1.00058 0
M  V30 5985 H 540.351 4.73174 1.18143 0
M  V30 5986 H 539.356 5.40182 -1.02388 0
M  V30 5987 H 540.581 6.68571 -1.1912 0
M  V30 5988 H 538.527 6.47655 1.04305 0
M  V30 5989 H 538.444 7.55355 -0.3123 0
M  V30 5990 H 539.712 7.74731 0.86098 0
M  V30 5991 N 543.941 0.601185 1.45683 0
M  V30 5992 C 545.218 0.0261659 1.95582 0
M  V30 5993 C 545.598 -1.4399 1.5437 0
M  V30 5994 O 544.946 -2.13919 0.80318 0
M  V30 5995 C 545.156 0.217557 3.48321 0
M  V30 5996 C 546.504 0.0950076 4.24494 0
M  V30 5997 O 547.528 0.147345 3.55895 0
M  V30 5998 O 546.387 -0.025261 5.46494 0
M  V30 5999 H 543.481 -0.0393688 0.826062 0
M  V30 6000 H 546.027 0.670798 1.55879 0
M  V30 6001 H 544.799 1.23601 3.71266 0
M  V30 6002 H 544.422 -0.46264 3.94899 0
M  V30 6003 N 545.419 -1.53889 0.339982 0
M  V30 6004 C 546.667 -2.00458 -0.257112 0
M  V30 6005 C 546.988 -1.22953 -1.51353 0
M  V30 6006 O 546.258 -0.335734 -1.93002 0
M  V30 6007 H 544.838 -0.740544 -0.0979965 0
M  V30 6008 H 547.5 -1.89386 0.460317 0
M  V30 6009 H 546.596 -3.08035 -0.502057 0
M  V30 6010 N 546.897 -0.0685191 -1.57451 0
M  V30 6011 C 547.807 0.914677 -2.16034 0
M  V30 6012 C 548.823 1.32938 -1.12265 0
M  V30 6013 O 549.999 1.40275 -1.44516 0
M  V30 6014 C 547.064 2.16519 -2.70777 0
M  V30 6015 C 546.125 1.80721 -3.89408 0
M  V30 6016 C 545.358 2.9981 -4.41531 0
M  V30 6017 O 545.581 4.13727 -3.92666 0
M  V30 6018 O 544.515 2.79817 -5.32903 0
M  V30 6019 H 548.341 0.446364 -3.00402 0
M  V30 6020 H 545.926 0.154367 -1.486 0
M  V30 6021 H 547.808 2.89856 -3.05878 0
M  V30 6022 H 546.483 2.62454 -1.89471 0
M  V30 6023 H 545.39 1.04646 -3.59166 0
M  V30 6024 H 546.723 1.39571 -4.71997 0
M  V30 6025 N 548.375 1.56261 0.205012 0
M  V30 6026 C 549.322 1.93754 1.25411 0
M  V30 6027 C 550.292 0.796826 1.45739 0
M  V30 6028 O 551.477 1.05414 1.59036 0
M  V30 6029 C 548.617 2.27383 2.59598 0
M  V30 6030 C 547.73 3.5447 2.46931 0
M  V30 6031 C 546.865 3.77468 3.73753 0
M  V30 6032 C 545.904 4.98014 3.55877 0
M  V30 6033 N 545.041 5.17316 4.74688 0
M  V30 6034 H 549.881 2.83203 0.92737 0
M  V30 6035 H 547.418 1.40158 0.446574 0
M  V30 6036 H 549.376 2.44895 3.37761 0
M  V30 6037 H 548.006 1.41088 2.90335 0
M  V30 6038 H 547.058 3.45061 1.60116 0
M  V30 6039 H 548.37 4.42789 2.29651 0
M  V30 6040 H 547.524 3.95165 4.60358 0
M  V30 6041 H 546.263 2.87461 3.93976 0
M  V30 6042 H 545.268 4.80249 2.67657 0
M  V30 6043 H 546.493 5.8952 3.37109 0
M  V30 6044 H 544.439 4.30255 4.95194 0
M  V30 6045 H 544.356 5.99796 4.60197 0
M  V30 6046 H 545.624 5.39463 5.62672 0
M  V30 6047 N 549.853 -0.472356 1.50355 0
M  V30 6048 C 551.269 -0.806001 1.37753 0
M  V30 6049 C 551.469 -1.968 0.432649 0
M  V30 6050 O 550.525 -2.52189 -0.12519 0
M  V30 6051 C 551.838 -1.11926 2.79093 0
M  V30 6052 C 553.386 -1.22579 2.87999 0
M  V30 6053 C 553.861 -1.57218 4.3017 0
M  V30 6054 N 555.352 -1.64212 4.33115 0
M  V30 6055 C 556.087 -1.92517 5.40116 0
M  V30 6056 N 555.583 -2.1885 6.57325 0
M  V30 6057 N 557.376 -1.94008 5.27558 0
M  V30 6058 H 549.527 0.293451 2.10363 0
M  V30 6059 H 551.79 0.0687672 0.945503 0
M  V30 6060 H 551.496 -0.338504 3.50067 0
M  V30 6061 H 551.37 -2.05577 3.16256 0
M  V30 6062 H 553.757 -1.99722 2.17245 0
M  V30 6063 H 553.838 -0.269107 2.54381 0
M  V30 6064 H 553.482 -0.806154 5.01461 0
M  V30 6065 H 553.412 -2.54034 4.61275 0
M  V30 6066 H 555.903 -1.45906 3.48597 0
M  V30 6067 H 556.216 -2.39718 7.3468 0
M  V30 6068 H 554.561 -2.16245 6.60502 0
M  V30 6069 H 557.752 -1.72931 4.34986 0
M  V30 6070 H 557.925 -2.15731 6.11035 0
M  V30 6071 N 551.331 -1.39911 -0.725443 0
M  V30 6072 C 552.279 -1.39552 -1.86086 0
M  V30 6073 C 553.273 -0.277334 -1.67114 0
M  V30 6074 O 554.479 -0.447865 -1.74339 0
M  V30 6075 H 550.854 -0.435993 -0.612711 0
M  V30 6076 H 552.825 -2.35305 -1.83505 0
M  V30 6077 C 551.574 -1.26529 -3.2386 0
M  V30 6078 H 550.897 -2.11845 -3.3906 0
M  V30 6079 H 552.337 -1.30336 -4.03471 0
M  V30 6080 C 550.796 0.0254168 -3.3689 0
M  V30 6081 O 551.326 0.992048 -3.89257 0
M  V30 6082 N 549.532 0.0916528 -2.90455 0
M  V30 6083 H 549.079 -0.695675 -2.48028 0
M  V30 6084 H 549.037 0.954745 -2.99553 0
M  V30 6085 N 552.809 0.956637 -1.25245 0
M  V30 6086 C 554.034 1.74104 -1.12706 0
M  V30 6087 C 554.459 1.85436 0.315429 0
M  V30 6088 O 553.817 1.33334 1.22848 0
M  V30 6089 C 553.865 3.1338 -1.78396 0
M  V30 6090 O 552.969 3.98485 -1.06224 0
M  V30 6091 H 552.31 0.53476 -0.393609 0
M  V30 6092 H 554.84 1.19924 -1.65769 0
M  V30 6093 H 554.85 3.6385 -1.846 0
M  V30 6094 H 553.525 3.04448 -2.83345 0
M  V30 6095 H 552.102 3.56952 -1.07886 0
M  V30 6096 N 554.287 1.06798 1.15896 0
M  V30 6097 C 555.217 0.704677 2.22613 0
M  V30 6098 C 556.198 -0.305252 1.67339 0
M  V30 6099 O 557.383 -0.179247 1.93371 0
M  V30 6100 C 554.513 0.0957325 3.47168 0
M  V30 6101 C 553.467 1.0322 4.15367 0
M  V30 6102 C 552.793 0.286293 5.33933 0
M  V30 6103 C 554.093 2.36341 4.65768 0
M  V30 6104 H 555.787 1.59688 2.53259 0
M  V30 6105 H 553.333 0.769257 1.21731 0
M  V30 6106 H 555.286 -0.170333 4.21056 0
M  V30 6107 H 554.01 -0.831516 3.15838 0
M  V30 6108 H 552.669 1.28309 3.43413 0
M  V30 6109 H 552.317 -0.644237 4.98857 0
M  V30 6110 H 552.017 0.910436 5.80504 0
M  V30 6111 H 553.541 0.0278938 6.10594 0
M  V30 6112 H 554.955 2.1561 5.31211 0
M  V30 6113 H 553.352 2.94299 5.2298 0
M  V30 6114 H 554.422 2.99047 3.81705 0
M  V30 6115 N 555.766 -1.3263 0.851289 0
M  V30 6116 C 557.177 -1.79653 0.5081 0
M  V30 6117 C 557.528 -1.70327 -0.973815 0
M  V30 6118 O 556.653 -1.25986 -1.75944 0
M  V30 6119 C 557.248 -3.26196 0.915515 0
M  V30 6120 C 555.807 -3.71187 0.624277 0
M  V30 6121 C 554.954 -2.53804 1.11709 0
M  V30 6122 H 557.905 -1.19976 1.03882 0
M  V30 6123 H 557.926 -3.79801 0.230535 0
M  V30 6124 H 557.438 -3.32952 1.99411 0
M  V30 6125 H 555.539 -3.69948 -0.443737 0
M  V30 6126 H 555.652 -4.64132 1.18821 0
M  V30 6127 H 554.016 -2.48964 0.537484 0
M  V30 6128 H 554.799 -2.63315 2.20272 0
M  V30 6129 N 557.244 -0.608902 -1.45362 0
M  V30 6130 C 558.176 0.147318 -2.28726 0
M  V30 6131 C 559.189 0.830468 -1.40025 0
M  V30 6132 O 560.378 0.695636 -1.64387 0
M  V30 6133 C 557.478 1.22968 -3.15804 0
M  V30 6134 C 556.651 0.633391 -4.3279 0
M  V30 6135 C 555.71 1.60682 -5.01067 0
M  V30 6136 O 554.736 1.13261 -5.57818 0
M  V30 6137 N 555.938 2.94123 -5.00472 0
M  V30 6138 H 558.703 -0.568014 -2.94268 0
M  V30 6139 H 556.264 -0.448479 -1.55564 0
M  V30 6140 H 558.256 1.88072 -3.58345 0
M  V30 6141 H 556.826 1.84752 -2.52162 0
M  V30 6142 H 556.046 -0.195762 -3.93714 0
M  V30 6143 H 557.334 0.215255 -5.08344 0
M  V30 6144 H 556.732 3.3525 -4.55657 0
M  V30 6145 H 555.289 3.54646 -5.46872 0
M  V30 6146 N 558.722 1.53707 -0.348139 0
M  V30 6147 C 559.971 2.0017 0.247992 0
M  V30 6148 C 560.284 1.23983 1.51286 0
M  V30 6149 O 561.49 1.60946 2.18652 0
M  V30 6150 C 559.946 3.56515 0.492459 0
M  V30 6151 C 559.554 4.41562 -0.756777 0
M  V30 6152 C 561.298 4.11381 1.0472 0
M  V30 6153 C 559.205 5.89426 -0.482856 0
M  V30 6154 H 558.135 0.747806 0.0964452 0
M  V30 6155 H 560.786 1.77532 -0.464179 0
M  V30 6156 H 559.168 3.75236 1.26545 0
M  V30 6157 H 560.342 4.34615 -1.53122 0
M  V30 6158 H 558.657 3.97711 -1.23348 0
M  V30 6159 H 561.254 5.19468 1.26717 0
M  V30 6160 H 561.597 3.64885 2.00411 0
M  V30 6161 H 562.13 3.96389 0.334801 0
M  V30 6162 H 558.869 6.40164 -1.40962 0
M  V30 6163 H 558.389 5.99264 0.253416 0
M  V30 6164 H 560.068 6.4692 -0.101816 0
M  V30 6165 N 560.2 0.0768682 1.57412 0
M  V30 6166 C 561.611 -0.455037 1.8107 0
M  V30 6167 C 561.962 -1.69323 0.991162 0
M  V30 6168 O 561.087 -2.15328 0.215156 0
M  V30 6169 C 561.682 -0.832316 3.28417 0
M  V30 6170 C 560.241 -1.30906 3.52903 0
M  V30 6171 C 559.388 -0.296714 2.75708 0
M  V30 6172 H 562.339 0.302514 1.5579 0
M  V30 6173 H 562.36 -1.69333 3.40744 0
M  V30 6174 H 561.872 0.0690532 3.88039 0
M  V30 6175 H 559.973 -2.22875 2.98592 0
M  V30 6176 H 560.086 -1.28348 4.61588 0
M  V30 6177 H 558.45 -0.775059 2.42621 0
M  V30 6178 H 559.233 0.597015 3.38069 0
M  V30 6179 N 561.678 -1.56367 -0.196722 0
M  V30 6180 C 562.611 -1.89475 -1.2718 0
M  V30 6181 C 563.589 -0.754667 -1.44026 0
M  V30 6182 O 564.773 -1.00551 -1.59442 0
M  V30 6183 C 561.9 -2.12352 -2.63864 0
M  V30 6184 C 560.946 -3.35053 -2.63897 0
M  V30 6185 S 561.779 -4.90228 -2.15492 0
M  V30 6186 C 562.935 -5.16171 -3.54004 0
M  V30 6187 H 563.168 -2.80365 -0.989075 0
M  V30 6188 H 560.701 -1.49125 -0.40014 0
M  V30 6189 H 562.659 -2.26214 -3.42545 0
M  V30 6190 H 561.32 -1.22214 -2.89349 0
M  V30 6191 H 560.513 -3.48182 -3.64397 0
M  V30 6192 H 560.115 -3.20176 -1.93296 0
M  V30 6193 H 562.407 -5.06591 -4.49857 0
M  V30 6194 H 563.35 -6.17938 -3.45771 0
M  V30 6195 H 563.758 -4.43814 -3.48841 0
M  V30 6196 N 563.156 0.464375 -1.50603 0
M  V30 6197 C 564.086 1.56944 -1.72889 0
M  V30 6198 C 565.067 1.59979 -0.577997 0
M  V30 6199 O 566.252 1.76138 -0.817855 0
M  V30 6200 C 563.382 2.95225 -1.8292 0
M  V30 6201 C 562.336 3.07056 -2.98162 0
M  V30 6202 C 561.662 4.47051 -2.93343 0
M  V30 6203 C 562.962 2.83648 -4.38567 0
M  V30 6204 H 564.656 1.38547 -2.65415 0
M  V30 6205 H 562.202 0.665082 -1.27721 0
M  V30 6206 H 564.155 3.72467 -1.97095 0
M  V30 6207 H 562.879 3.14793 -0.870209 0
M  V30 6208 H 561.538 2.32248 -2.83648 0
M  V30 6209 H 561.186 4.63547 -1.95276 0
M  V30 6210 H 560.886 4.55902 -3.70712 0
M  V30 6211 H 562.41 5.26304 -3.09575 0
M  V30 6212 H 563.824 3.50636 -4.53572 0
M  V30 6213 H 562.221 3.03937 -5.17438 0
M  V30 6214 H 563.291 1.79451 -4.50472 0
M  V30 6215 N 564.634 1.40294 0.718013 0
M  V30 6216 C 565.582 1.40536 1.85344 0
M  V30 6217 C 566.576 0.286192 1.66965 0
M  V30 6218 O 567.782 0.457105 1.74099 0
M  V30 6219 H 564.157 0.439236 0.61039 0
M  V30 6220 H 566.128 2.36275 1.82255 0
M  V30 6221 C 564.877 1.28245 3.23185 0
M  V30 6222 H 564.2 2.1364 3.37932 0
M  V30 6223 H 565.64 1.32474 4.02774 0
M  V30 6224 C 564.099 -0.0075503 3.36899 0
M  V30 6225 O 564.629 -0.971391 3.89778 0
M  V30 6226 N 562.835 -0.0762479 2.905 0
M  V30 6227 H 562.382 0.708819 2.47656 0
M  V30 6228 H 562.34 -0.938846 3.00055 0
M  V30 6229 N 566.112 -0.949982 1.2575 0
M  V30 6230 C 567.042 -2.06483 1.09028 0
M  V30 6231 C 568.023 -1.701 -0.00201532 0
M  V30 6232 O 569.208 -1.93469 0.168383 0
M  V30 6233 C 566.338 -3.39899 0.71316 0
M  V30 6234 C 565.292 -3.90309 1.75621 0
M  V30 6235 C 564.618 -5.20274 1.23365 0
M  V30 6236 C 565.918 -4.16169 3.15596 0
M  V30 6237 H 567.612 -2.20731 2.02283 0
M  V30 6238 H 565.158 -1.06066 0.973964 0
M  V30 6239 H 567.111 -4.17346 0.58309 0
M  V30 6240 H 565.835 -3.25602 -0.255091 0
M  V30 6241 H 564.494 -3.15035 1.8748 0
M  V30 6242 H 564.142 -5.02351 0.255491 0
M  V30 6243 H 563.842 -5.54971 1.93082 0
M  V30 6244 H 565.366 -6.00314 1.11607 0
M  V30 6245 H 566.78 -4.84259 3.06864 0
M  V30 6246 H 565.177 -4.62131 3.82825 0
M  V30 6247 H 566.247 -3.22273 3.6231 0
M  V30 6248 N 567.59 -1.07411 -1.15328 0
M  V30 6249 C 568.5 -0.706438 -2.23711 0
M  V30 6250 C 569.516 0.282586 -1.7169 0
M  V30 6251 O 570.692 0.129066 -2.00986 0
M  V30 6252 C 567.757 -0.11048 -3.46524 0
M  V30 6253 C 566.818 -1.15282 -4.13532 0
M  V30 6254 C 566.051 -0.585205 -5.30482 0
M  V30 6255 O 566.274 0.598549 -5.67251 0
M  V30 6256 O 565.208 -1.33039 -5.87013 0
M  V30 6257 H 569.034 -1.61031 -2.57493 0
M  V30 6258 H 566.619 -0.847113 -1.23062 0
M  V30 6259 H 568.501 0.21957 -4.20828 0
M  V30 6260 H 567.176 0.766703 -3.14489 0
M  V30 6261 H 566.083 -1.53523 -3.41147 0
M  V30 6262 H 567.416 -2.00192 -4.49649 0
M  V30 6263 N 569.068 1.32177 -0.85831 0
M  V30 6264 C 570.031 2.27086 -0.310588 0
M  V30 6265 C 571.031 1.51751 0.531806 0
M  V30 6266 O 572.221 1.70794 0.34279 0
M  V30 6267 C 569.353 3.36266 0.560179 0
M  V30 6268 H 570.546 2.77045 -1.1483 0
M  V30 6269 H 568.099 1.42911 -0.632942 0
M  V30 6270 H 568.834 2.9158 1.41956 0
M  V30 6271 H 568.619 3.92077 -0.0428473 0
M  V30 6272 H 570.109 4.06974 0.936056 0
M  V30 6273 N 570.547 0.616602 1.45037 0
M  V30 6274 C 571.963 0.280994 1.57107 0
M  V30 6275 C 572.163 -1.21627 1.60653 0
M  V30 6276 O 571.219 -1.9997 1.54169 0
M  V30 6277 C 572.532 0.960116 2.8496 0
M  V30 6278 C 574.08 0.936884 2.98649 0
M  V30 6279 C 574.555 1.59619 4.29285 0
M  V30 6280 N 576.046 1.5621 4.36065 0
M  V30 6281 C 576.781 2.04131 5.35834 0
M  V30 6282 N 576.277 2.60177 6.4209 0
M  V30 6283 N 578.07 1.94845 5.27249 0
M  V30 6284 H 570.221 1.58867 1.40979 0
M  V30 6285 H 572.484 0.666024 0.674623 0
M  V30 6286 H 572.19 2.01473 2.88273 0
M  V30 6287 H 572.064 0.488921 3.74018 0
M  V30 6288 H 574.451 -0.109209 2.94898 0
M  V30 6289 H 574.532 1.44643 2.10979 0
M  V30 6290 H 574.176 2.64166 4.33796 0
M  V30 6291 H 574.106 1.06159 5.15789 0
M  V30 6292 H 576.597 1.15276 3.59889 0
M  V30 6293 H 576.91 2.94513 7.1448 0
M  V30 6294 H 575.255 2.64221 6.42816 0
M  V30 6295 H 578.446 1.50792 4.43147 0
M  V30 6296 H 578.619 2.32504 6.04852 0
M  V30 6297 N 572.025 -1.5352 0.356285 0
M  V30 6298 C 573.441 -1.59599 0.00485267 0
M  V30 6299 C 573.641 -1.37179 -1.47595 0
M  V30 6300 O 572.697 -1.17234 -2.23635 0
M  V30 6301 C 574.01 -2.97277 0.452454 0
M  V30 6302 C 575.558 -3.10357 0.405881 0
M  V30 6303 C 576.033 -4.50432 0.829148 0
M  V30 6304 N 577.524 -4.5652 0.783838 0
M  V30 6305 C 578.259 -5.63077 1.08315 0
M  V30 6306 N 577.755 -6.77429 1.45126 0
M  V30 6307 N 579.548 -5.53014 1.00655 0
M  V30 6308 H 571.699 -1.66346 1.32071 0
M  V30 6309 H 573.962 -0.77971 0.539218 0
M  V30 6310 H 573.668 -3.18792 1.48542 0
M  V30 6311 H 573.542 -3.76836 -0.165762 0
M  V30 6312 H 575.929 -2.88558 -0.617934 0
M  V30 6313 H 576.01 -2.32828 1.05947 0
M  V30 6314 H 575.654 -4.72968 1.85103 0
M  V30 6315 H 575.584 -5.26378 0.152906 0
M  V30 6316 H 578.075 -3.74408 0.512513 0
M  V30 6317 H 578.388 -7.54669 1.66415 0
M  V30 6318 H 576.733 -6.78844 1.48983 0
M  V30 6319 H 579.924 -4.62557 0.718215 0
M  V30 6320 H 580.097 -6.35964 1.24315 0
M  V30 6321 N 573.503 -0.0852151 -1.57369 0
M  V30 6322 C 574.728 0.592872 -1.98746 0
M  V30 6323 C 575.153 1.61538 -0.963689 0
M  V30 6324 O 574.511 1.81168 0.069071 0
M  V30 6325 C 574.559 1.22599 -3.39119 0
M  V30 6326 O 573.663 2.34185 -3.39457 0
M  V30 6327 H 573.004 0.151314 -0.646529 0
M  V30 6328 H 575.534 -0.163703 -2.03944 0
M  V30 6329 H 575.544 1.56965 -3.76598 0
M  V30 6330 H 574.219 0.476831 -4.13158 0
M  V30 6331 H 572.796 2.01512 -3.13763 0
M  V30 6332 N 574.981 1.5647 0.188427 0
M  V30 6333 C 575.931 1.91479 1.23774 0
M  V30 6334 C 576.915 0.78119 1.40664 0
M  V30 6335 O 578.107 1.04414 1.42922 0
M  V30 6336 C 575.236 2.26354 2.58106 0
M  V30 6337 C 574.322 3.46186 2.44981 0
M  V30 6338 N 574.713 4.63911 2.01546 0
M  V30 6339 C 573.011 3.50456 2.75856 0
M  V30 6340 C 573.712 5.46064 2.00472 0
M  V30 6341 N 572.688 4.86648 2.42229 0
M  V30 6342 H 576.49 2.79994 0.893339 0
M  V30 6343 H 574.004 1.57477 0.39682 0
M  V30 6344 H 576.001 2.49622 3.33908 0
M  V30 6345 H 574.661 1.39168 2.93364 0
M  V30 6346 H 575.672 4.88451 1.7215 0
M  V30 6347 H 572.349 2.73704 3.15265 0
M  V30 6348 H 573.739 6.50368 1.68734 0
M  V30 6349 N 576.459 -0.456382 1.50847 0
M  V30 6350 C 577.389 -1.56025 1.73719 0
M  V30 6351 C 578.37 -1.5967 0.586473 0
M  V30 6352 O 579.555 -1.75702 0.827185 0
M  V30 6353 C 576.685 -2.94251 1.84483 0
M  V30 6354 C 575.639 -3.05471 2.99786 0
M  V30 6355 C 574.965 -4.45489 2.95709 0
M  V30 6356 C 576.265 -2.81318 4.40065 0
M  V30 6357 H 577.959 -1.37138 2.66146 0
M  V30 6358 H 575.505 -0.658299 1.28072 0
M  V30 6359 H 577.458 -3.71417 1.99067 0
M  V30 6360 H 576.182 -3.14328 0.886891 0
M  V30 6361 H 574.841 -2.30741 2.84876 0
M  V30 6362 H 574.489 -4.62505 1.97732 0
M  V30 6363 H 574.189 -4.53929 3.73125 0
M  V30 6364 H 575.713 -5.24655 3.12362 0
M  V30 6365 H 577.127 -3.48226 4.55425 0
M  V30 6366 H 575.524 -3.01188 5.19043 0
M  V30 6367 H 576.594 -1.7706 4.51418 0
M  V30 6368 N 577.937 -1.40673 -0.710563 0
M  V30 6369 C 579.162 -1.42741 -1.50465 0
M  V30 6370 C 579.587 -0.0302116 -1.88076 0
M  V30 6371 O 578.945 0.962945 -1.53613 0
M  V30 6372 C 578.993 -2.32873 -2.75322 0
M  V30 6373 O 578.097 -1.77544 -3.72226 0
M  V30 6374 H 577.438 -0.485056 -0.45345 0
M  V30 6375 H 579.968 -1.84961 -0.874681 0
M  V30 6376 H 579.978 -2.48233 -3.23797 0
M  V30 6377 H 578.653 -3.34401 -2.47283 0
M  V30 6378 H 577.23 -1.71556 -3.31093 0
M  V30 6379 N 579.415 0.9433 -1.26252 0
M  V30 6380 C 580.325 2.07532 -1.09397 0
M  V30 6381 C 581.341 1.73977 -0.0280449 0
M  V30 6382 O 582.517 2.00067 -0.231337 0
M  V30 6383 C 579.582 3.39002 -0.726523 0
M  V30 6384 C 578.643 3.86353 -1.87163 0
M  V30 6385 C 577.876 5.11549 -1.52162 0
M  V30 6386 O 578.099 5.68834 -0.422385 0
M  V30 6387 O 577.033 5.53889 -2.35565 0
M  V30 6388 H 580.859 2.24658 -2.04359 0
M  V30 6389 H 578.444 1.05988 -1.05295 0
M  V30 6390 H 580.326 4.18 -0.534236 0
M  V30 6391 H 579.001 3.2312 0.193721 0
M  V30 6392 H 577.908 3.0831 -2.11886 0
M  V30 6393 H 579.241 4.06752 -2.77152 0
M  V30 6394 N 580.893 1.08022 1.14757 0
M  V30 6395 C 582.118 0.82895 1.90114 0
M  V30 6396 C 582.543 -0.612772 1.77839 0
M  V30 6397 O 581.901 -1.42895 1.11583 0
M  V30 6398 C 581.949 1.25062 3.38219 0
M  V30 6399 O 581.053 0.400119 4.10454 0
M  V30 6400 H 580.394 0.301412 0.591648 0
M  V30 6401 H 582.924 1.44062 1.45284 0
M  V30 6402 H 582.934 1.22977 3.89025 0
M  V30 6403 H 581.609 2.30067 3.46471 0
M  V30 6404 H 580.186 0.484052 3.69745 0
M  V30 6405 N 582.371 -1.3172 0.865308 0
M  V30 6406 C 583.611 -1.98675 0.480365 0
M  V30 6407 C 583.975 -1.66929 -0.948621 0
M  V30 6408 O 585.176 -2.27059 -1.43867 0
M  V30 6409 C 583.447 -3.49972 0.724858 0
M  V30 6410 S 585.006 -4.36598 0.439078 0
M  V30 6411 H 581.824 -0.687967 0.179506 0
M  V30 6412 H 584.426 -1.60215 1.12033 0
M  V30 6413 H 583.13 -3.70567 1.76375 0
M  V30 6414 H 582.661 -3.93335 0.0717173 0
M  V30 6415 H 584.676 -4.90792 -0.730564 0
M  V30 6416 N 583.85 -0.624285 -1.44708 0
M  V30 6417 C 585.075 -0.131171 -2.06985 0
M  V30 6418 C 585.5 1.18234 -1.46295 0
M  V30 6419 O 584.858 1.72375 -0.561842 0
M  V30 6420 C 584.906 -0.0226724 -3.60593 0
M  V30 6421 O 584.01 1.02314 -3.99507 0
M  V30 6422 H 583.351 -0.0816556 -0.65896 0
M  V30 6423 H 585.88 -0.859027 -1.85693 0
M  V30 6424 H 585.891 0.170138 -4.07645 0
M  V30 6425 H 584.566 -0.981685 -4.04148 0
M  V30 6426 H 583.143 0.805452 -3.64097 0
M  V30 6427 N 585.328 1.53329 -0.364422 0
M  V30 6428 C 586.577 2.00421 0.226747 0
M  V30 6429 C 586.89 1.25581 1.49963 0
M  V30 6430 O 588.096 1.63256 2.16933 0
M  V30 6431 C 586.552 3.57017 0.454618 0
M  V30 6432 C 586.16 4.40734 -0.803568 0
M  V30 6433 C 587.904 4.12468 1.00351 0
M  V30 6434 C 585.811 5.8888 -0.545345 0
M  V30 6435 H 584.741 0.748787 0.0885082 0
M  V30 6436 H 587.392 1.7703 -0.482983 0
M  V30 6437 H 585.774 3.76558 1.22558 0
M  V30 6438 H 586.948 4.32967 -1.57723 0
M  V30 6439 H 585.263 3.96381 -1.27559 0
M  V30 6440 H 587.86 5.20783 1.212 0
M  V30 6441 H 588.203 3.6699 1.9653 0
M  V30 6442 H 588.736 3.96721 0.29274 0
M  V30 6443 H 585.475 6.38633 -1.47743 0
M  V30 6444 H 584.995 5.99499 0.189842 0
M  V30 6445 H 586.674 6.46776 -0.170425 0
M  V30 6446 N 586.806 0.0935595 1.57322 0
M  V30 6447 C 587.716 -0.880192 2.17462 0
M  V30 6448 C 588.732 -1.31135 1.14366 0
M  V30 6449 O 589.908 -1.37958 1.46729 0
M  V30 6450 C 586.973 -2.12184 2.74188 0
M  V30 6451 C 586.034 -1.74503 3.92234 0
M  V30 6452 C 585.267 -2.92748 4.46245 0
M  V30 6453 O 585.49 -4.07427 3.99198 0
M  V30 6454 O 584.424 -2.71303 5.37288 0
M  V30 6455 H 588.25 -0.398516 3.01074 0
M  V30 6456 H 585.835 -0.130707 1.48827 0
M  V30 6457 H 587.717 -2.84953 3.10451 0
M  V30 6458 H 586.392 -2.59407 1.93623 0
M  V30 6459 H 585.299 -0.989186 3.60785 0
M  V30 6460 H 586.632 -1.32044 4.74157 0
M  V30 6461 N 588.284 -1.56567 -0.180126 0
M  V30 6462 C 589.509 -1.85975 -0.918041 0
M  V30 6463 C 589.934 -0.678888 -1.75422 0
M  V30 6464 O 589.292 0.372168 -1.77439 0
M  V30 6465 C 589.34 -3.13731 -1.77779 0
M  V30 6466 O 588.444 -2.95335 -2.87838 0
M  V30 6467 H 587.785 -0.61196 -0.257683 0
M  V30 6468 H 590.315 -2.03798 -0.180923 0
M  V30 6469 H 590.325 -3.4491 -2.17948 0
M  V30 6470 H 589 -3.99293 -1.16352 0
M  V30 6471 H 587.577 -2.7549 -2.51316 0
M  V30 6472 N 589.762 0.448376 -1.51087 0
M  V30 6473 C 591.039 1.20926 -1.53741 0
M  V30 6474 C 591.419 2.09025 -0.295222 0
M  V30 6475 O 590.767 2.16851 0.720283 0
M  V30 6476 C 590.977 2.02067 -2.84552 0
M  V30 6477 C 592.325 2.59486 -3.36084 0
M  V30 6478 O 593.349 2.12289 -2.86028 0
M  V30 6479 O 592.208 3.45539 -4.23397 0
M  V30 6480 H 589.302 0.549951 -0.617643 0
M  V30 6481 H 591.848 0.458344 -1.63393 0
M  V30 6482 H 590.62 1.37291 -3.66425 0
M  V30 6483 H 590.243 2.84246 -2.78011 0
M  V30 6484 N 591.24 1.41047 0.703093 0
M  V30 6485 C 592.489 1.39301 1.4587 0
M  V30 6486 C 592.802 0.00267077 1.956 0
M  V30 6487 O 594.008 -0.137414 2.71152 0
M  V30 6488 C 592.464 2.44891 2.63735 0
M  V30 6489 C 592.072 3.89796 2.20824 0
M  V30 6490 C 593.816 2.5227 3.41409 0
M  V30 6491 C 591.723 4.86955 3.35602 0
M  V30 6492 H 590.653 0.518005 0.547893 0
M  V30 6493 H 593.304 1.66839 0.764009 0
M  V30 6494 H 591.686 2.10472 3.35436 0
M  V30 6495 H 592.86 4.33424 1.56461 0
M  V30 6496 H 591.175 3.86008 1.56163 0
M  V30 6497 H 593.772 3.22044 4.26839 0
M  V30 6498 H 594.115 1.55714 3.86081 0
M  V30 6499 H 594.648 2.85742 2.7676 0
M  V30 6500 H 591.387 5.84888 2.9595 0
M  V30 6501 H 590.907 4.47982 3.98839 0
M  V30 6502 H 592.586 5.07361 4.01489 0
M  V30 6503 N 592.718 -0.936591 1.26751 0
M  V30 6504 C 593.948 -1.71509 1.15188 0
M  V30 6505 C 594.356 -1.86885 -0.295037 0
M  V30 6506 O 593.699 -1.37915 -1.21347 0
M  V30 6507 C 593.761 -3.13853 1.75318 0
M  V30 6508 C 593.425 -3.21845 3.24445 0
M  V30 6509 C 594.422 -3.04771 4.21201 0
M  V30 6510 C 592.107 -3.45088 3.64992 0
M  V30 6511 C 594.101 -3.10816 5.56482 0
M  V30 6512 C 591.788 -3.50767 5.00405 0
M  V30 6513 C 592.786 -3.33648 5.9596 0
M  V30 6514 O 592.474 -3.39045 7.28906 0
M  V30 6515 H 592.206 -0.543658 0.401761 0
M  V30 6516 H 594.76 -1.18234 1.67958 0
M  V30 6517 H 592.99 -3.6857 1.17016 0
M  V30 6518 H 594.679 -3.73634 1.58596 0
M  V30 6519 H 595.445 -2.86665 3.91214 0
M  V30 6520 H 591.324 -3.57467 2.91098 0
M  V30 6521 H 594.868 -2.97372 6.31043 0
M  V30 6522 H 590.765 -3.68396 5.30052 0
M  V30 6523 H 591.533 -3.55558 7.37238 0
M  V30 6524 N 594.196 -1.08629 -1.14182 0
M  V30 6525 C 595.159 -0.722027 -2.1753 0
M  V30 6526 C 596.159 0.244305 -1.58933 0
M  V30 6527 O 597.349 0.0235545 -1.74184 0
M  V30 6528 C 594.481 -0.0663966 -3.40835 0
M  V30 6529 H 595.674 -1.63719 -2.51269 0
M  V30 6530 H 593.227 -0.884442 -1.28869 0
M  V30 6531 H 593.962 0.860389 -3.12678 0
M  V30 6532 H 593.747 -0.761598 -3.84632 0
M  V30 6533 H 595.237 0.173346 -4.1724 0
M  V30 6534 N 595.674 1.31259 -0.872281 0
M  V30 6535 C 596.584 2.32221 -0.333255 0
M  V30 6536 C 597.6 1.6481 0.558013 0
M  V30 6537 O 598.776 1.96212 0.454175 0
M  V30 6538 C 595.841 3.43708 0.454479 0
M  V30 6539 C 594.902 4.26774 -0.465024 0
M  V30 6540 C 594.135 5.32937 0.28521 0
M  V30 6541 O 594.358 5.49968 1.513 0
M  V30 6542 O 593.292 6.00834 -0.358126 0
M  V30 6543 H 597.118 2.80252 -1.17016 0
M  V30 6544 H 594.703 1.352 -0.635724 0
M  V30 6545 H 596.585 4.11656 0.900963 0
M  V30 6546 H 595.26 2.97836 1.26789 0
M  V30 6547 H 594.167 3.61571 -0.960055 0
M  V30 6548 H 595.5 4.76217 -1.2441 0
M  V30 6549 N 597.152 0.631951 1.44375 0
M  V30 6550 C 598.401 0.134214 2.01253 0
M  V30 6551 C 598.714 -1.25171 1.50305 0
M  V30 6552 O 599.92 -1.8435 1.99317 0
M  V30 6553 C 598.376 0.189187 3.59402 0
M  V30 6554 C 597.984 1.57647 4.19346 0
M  V30 6555 C 599.728 -0.252044 4.23751 0
M  V30 6556 C 597.635 1.58651 5.69722 0
M  V30 6557 H 596.565 0.0464101 0.75257 0
M  V30 6558 H 599.216 0.790868 1.65582 0
M  V30 6559 H 597.598 -0.534584 3.92375 0
M  V30 6560 H 598.772 2.32389 3.97909 0
M  V30 6561 H 597.087 1.96186 3.67288 0
M  V30 6562 H 599.684 -0.264084 5.34047 0
M  V30 6563 H 600.027 -1.27951 3.96149 0
M  V30 6564 H 600.56 0.41926 3.95584 0
M  V30 6565 H 597.299 2.59237 6.0206 0
M  V30 6566 H 596.819 0.882039 5.93279 0
M  V30 6567 H 598.498 1.32082 6.33375 0
M  V30 6568 N 598.631 -1.53133 0.372548 0
M  V30 6569 C 600.042 -1.86404 -0.105155 0
M  V30 6570 C 600.393 -1.29289 -1.47576 0
M  V30 6571 O 599.518 -0.617646 -2.07398 0
M  V30 6572 C 600.113 -3.38223 -0.197588 0
M  V30 6573 C 598.672 -3.71266 -0.619556 0
M  V30 6574 C 597.819 -2.76353 0.228919 0
M  V30 6575 H 600.77 -1.47282 0.591077 0
M  V30 6576 H 600.791 -3.66577 -1.01987 0
M  V30 6577 H 600.303 -3.79763 0.800099 0
M  V30 6578 H 598.404 -3.35287 -1.62522 0
M  V30 6579 H 598.517 -4.77515 -0.389332 0
M  V30 6580 H 596.881 -2.52888 -0.303271 0
M  V30 6581 H 597.664 -3.20728 1.22428 0
M  V30 6582 N 600.109 -0.101901 -1.5727 0
M  V30 6583 C 601.386 0.602832 -1.86079 0
M  V30 6584 C 601.766 1.85912 -1 0
M  V30 6585 O 601.114 2.28379 -0.0742488 0
M  V30 6586 C 601.324 0.911694 -3.36881 0
M  V30 6587 C 602.672 1.2722 -4.05093 0
M  V30 6588 O 603.696 1.0025 -3.41802 0
M  V30 6589 O 602.555 1.7776 -5.16782 0
M  V30 6590 H 599.649 0.302366 -0.769743 0
M  V30 6591 H 602.195 -0.135113 -1.69161 0
M  V30 6592 H 600.967 0.0207256 -3.91295 0
M  V30 6593 H 600.59 1.70538 -3.59169 0
M  V30 6594 N 601.587 1.56661 0.17182 0
M  V30 6595 C 602.497 1.99604 1.2327 0
M  V30 6596 C 603.513 0.907333 1.4847 0
M  V30 6597 O 604.689 1.21492 1.60629 0
M  V30 6598 C 601.754 2.34685 2.55194 0
M  V30 6599 C 600.815 3.57381 2.3786 0
M  V30 6600 C 600.048 3.90779 3.63494 0
M  V30 6601 O 600.271 3.25152 4.6865 0
M  V30 6602 O 599.205 4.84129 3.57634 0
M  V30 6603 H 603.031 2.90114 0.898192 0
M  V30 6604 H 600.616 1.44522 0.378647 0
M  V30 6605 H 602.498 2.5822 3.33017 0
M  V30 6606 H 601.173 1.47336 2.88225 0
M  V30 6607 H 600.08 3.39064 1.5807 0
M  V30 6608 H 601.413 4.45268 2.09754 0
M  V30 6609 N 603.065 -0.440357 1.51323 0
M  V30 6610 C 604.293 -1.21255 1.67645 0
M  V30 6611 C 604.708 -1.85088 0.37252 0
M  V30 6612 O 604.065 -1.70582 -0.648683 0
M  V30 6613 C 604.116 -2.29881 2.78993 0
M  V30 6614 O 603.837 -1.68659 4.04334 0
M  V30 6615 C 605.338 -3.20214 3.06558 0
M  V30 6616 H 602.558 -0.36558 0.562666 0
M  V30 6617 H 605.102 -0.52214 1.97722 0
M  V30 6618 H 603.257 -2.94643 2.51524 0
M  V30 6619 H 603.671 -2.40426 4.6615 0
M  V30 6620 H 605.145 -3.92575 3.88058 0
M  V30 6621 H 605.622 -3.80794 2.18844 0
M  V30 6622 H 606.228 -2.61156 3.35675 0
M  V30 6623 N 604.543 -1.41418 -0.695603 0
M  V30 6624 C 605.473 -1.46035 -1.82197 0
M  V30 6625 C 606.454 -0.319025 -1.67082 0
M  V30 6626 O 607.639 -0.530462 -1.86815 0
M  V30 6627 C 604.769 -1.34179 -3.20333 0
M  V30 6628 C 603.723 -2.46123 -3.50154 0
M  V30 6629 C 603.049 -2.19332 -4.87645 0
M  V30 6630 C 604.349 -3.88463 -3.49133 0
M  V30 6631 H 606.043 -2.40303 -1.78591 0
M  V30 6632 H 603.589 -1.15663 -0.857797 0
M  V30 6633 H 605.542 -1.36021 -3.98844 0
M  V30 6634 H 604.266 -0.363952 -3.24566 0
M  V30 6635 H 602.925 -2.43563 -2.73994 0
M  V30 6636 H 602.573 -1.19891 -4.88503 0
M  V30 6637 H 602.273 -2.94344 -5.08562 0
M  V30 6638 H 603.797 -2.22889 -5.68465 0
M  V30 6639 H 605.211 -3.92738 -4.17648 0
M  V30 6640 H 603.608 -4.63158 -3.81582 0
M  V30 6641 H 604.678 -4.16617 -2.48109 0
M  V30 6642 N 606.021 0.929856 -1.27246 0
M  V30 6643 C 607.437 1.20542 -1.04603 0
M  V30 6644 C 607.637 2.00276 0.221754 0
M  V30 6645 O 606.693 2.34835 0.927833 0
M  V30 6646 C 608.006 1.95566 -2.28417 0
M  V30 6647 C 609.554 2.08513 -2.33433 0
M  V30 6648 C 610.029 2.86943 -3.5697 0
M  V30 6649 N 611.52 2.94512 -3.57515 0
M  V30 6650 C 612.255 3.55656 -4.49774 0
M  V30 6651 N 611.751 4.18209 -5.52334 0
M  V30 6652 N 613.544 3.53038 -4.37402 0
M  V30 6653 H 605.695 0.397113 -2.08655 0
M  V30 6654 H 607.958 0.238277 -0.917566 0
M  V30 6655 H 607.664 1.44395 -3.20691 0
M  V30 6656 H 607.538 2.9619 -2.33563 0
M  V30 6657 H 609.925 2.58872 -1.41666 0
M  V30 6658 H 610.006 1.07117 -2.32292 0
M  V30 6659 H 609.65 2.37268 -4.49072 0
M  V30 6660 H 609.58 3.8862 -3.55362 0
M  V30 6661 H 612.071 2.50053 -2.83341 0
M  V30 6662 H 612.384 4.62796 -6.18902 0
M  V30 6663 H 610.729 4.16761 -5.56179 0
M  V30 6664 H 613.92 3.0337 -3.56489 0
M  V30 6665 H 614.093 4.004 -5.09493 0
M  V30 6666 N 607.499 1.09233 1.13605 0
M  V30 6667 C 608.915 0.82163 1.36826 0
M  V30 6668 C 609.115 -0.565021 1.93416 0
M  V30 6669 O 608.171 -1.32026 2.15234 0
M  V30 6670 C 609.484 1.91124 2.32147 0
M  V30 6671 C 611.032 1.93824 2.45767 0
M  V30 6672 C 611.507 3.01923 3.44393 0
M  V30 6673 N 612.998 3.01149 3.51942 0
M  V30 6674 C 613.733 3.81434 4.2813 0
M  V30 6675 N 613.229 4.71621 5.07489 0
M  V30 6676 N 615.022 3.69702 4.23411 0
M  V30 6677 H 607.173 1.98633 0.752234 0
M  V30 6678 H 609.436 0.862482 0.393482 0
M  V30 6679 H 609.142 2.90862 1.97717 0
M  V30 6680 H 609.016 1.78777 3.32142 0
M  V30 6681 H 611.403 0.94726 2.79483 0
M  V30 6682 H 611.484 2.10248 1.45703 0
M  V30 6683 H 611.128 4.01232 3.11408 0
M  V30 6684 H 611.058 2.82742 4.44257 0
M  V30 6685 H 613.549 2.35789 2.95317 0
M  V30 6686 H 613.862 5.29468 5.62924 0
M  V30 6687 H 612.207 4.75658 5.06729 0
M  V30 6688 H 615.398 2.98606 3.60489 0
M  V30 6689 H 615.571 4.32509 4.82535 0
M  V30 6690 N 608.977 -1.30795 0.87923 0
M  V30 6691 C 610.388 -1.78535 0.546093 0
M  V30 6692 C 610.739 -1.72354 -0.937467 0
M  V30 6693 O 609.864 -1.2969 -1.73233 0
M  V30 6694 C 610.459 -3.24181 0.9845 0
M  V30 6695 C 609.018 -3.69779 0.702871 0
M  V30 6696 C 608.165 -2.51377 1.17068 0
M  V30 6697 H 611.116 -1.17746 1.06403 0
M  V30 6698 H 611.137 -3.79227 0.311045 0
M  V30 6699 H 610.649 -3.28647 2.06429 0
M  V30 6700 H 608.75 -3.70806 -0.365166 0
M  V30 6701 H 608.863 -4.61507 1.28639 0
M  V30 6702 H 607.227 -2.47768 0.590172 0
M  V30 6703 H 608.01 -2.58584 2.25808 0
M  V30 6704 N 610.455 -0.639598 -1.44038 0
M  V30 6705 C 611.703 -0.147188 -2.01563 0
M  V30 6706 C 612.024 1.2384 -1.50628 0
M  V30 6707 O 611.294 1.82452 -0.713316 0
M  V30 6708 H 609.874 -0.0514231 -0.745228 0
M  V30 6709 H 612.536 -0.828205 -1.76428 0
M  V30 6710 H 611.632 -0.121358 -3.11864 0
M  V30 6711 N 611.933 1.52934 -0.380664 0
M  V30 6712 C 613.181 2.01069 0.203874 0
M  V30 6713 C 613.502 1.26922 1.4804 0
M  V30 6714 O 612.772 0.386787 1.92044 0
M  V30 6715 H 611.352 0.742882 0.0783279 0
M  V30 6716 H 614.014 1.88099 -0.510368 0
M  V30 6717 H 613.11 3.09258 0.42021 0
M  V30 6718 N 613.412 0.11024 1.57214 0
M  V30 6719 C 614.823 -0.416527 1.81994 0
M  V30 6720 C 615.174 -1.67183 1.02686 0
M  V30 6721 O 614.299 -2.14823 0.260782 0
M  V30 6722 C 614.894 -0.762466 3.30109 0
M  V30 6723 C 613.453 -1.23391 3.556 0
M  V30 6724 C 612.6 -0.238166 2.76275 0
M  V30 6725 H 615.551 0.335491 1.55113 0
M  V30 6726 H 615.572 -1.62068 3.44259 0
M  V30 6727 H 615.084 0.151346 3.87805 0
M  V30 6728 H 613.185 -2.16492 3.03253 0
M  V30 6729 H 613.298 -1.18528 4.64207 0
M  V30 6730 H 611.662 -0.723421 2.4421 0
M  V30 6731 H 612.445 0.668591 3.36727 0
M  V30 6732 N 614.89 -1.56749 -0.16351 0
M  V30 6733 C 615.822 -1.93587 -1.22705 0
M  V30 6734 C 616.835 -0.829824 -1.40063 0
M  V30 6735 O 618.024 -1.10826 -1.39928 0
M  V30 6736 C 615.124 -2.1803 -2.59454 0
M  V30 6737 C 614.297 -3.4928 -2.63292 0
M  V30 6738 C 613.356 -3.62457 -3.8146 0
M  V30 6739 O 612.382 -4.35004 -3.67096 0
M  V30 6740 N 613.584 -2.97888 -4.9824 0
M  V30 6741 H 616.349 -2.8542 -0.914081 0
M  V30 6742 H 613.91 -1.58 -0.353214 0
M  V30 6743 H 615.902 -2.24102 -3.36987 0
M  V30 6744 H 614.472 -1.32543 -2.8311 0
M  V30 6745 H 613.692 -3.54795 -1.71796 0
M  V30 6746 H 614.98 -4.35632 -2.62873 0
M  V30 6747 H 614.378 -2.38833 -5.12811 0
M  V30 6748 H 612.935 -3.09545 -5.73607 0
M  V30 6749 N 616.368 0.432326 -1.51554 0
M  V30 6750 C 617.598 1.2019 -1.68042 0
M  V30 6751 C 618.006 1.85356 -0.379434 0
M  V30 6752 O 617.349 1.71724 0.652427 0
M  V30 6753 C 617.411 2.32387 -2.74292 0
M  V30 6754 C 617.075 1.87548 -4.16743 0
M  V30 6755 C 618.072 1.37611 -5.01357 0
M  V30 6756 C 615.757 1.95087 -4.62868 0
M  V30 6757 C 617.751 0.958069 -6.30159 0
M  V30 6758 C 615.438 1.52894 -5.91664 0
M  V30 6759 C 616.436 1.03336 -6.75137 0
M  V30 6760 O 616.124 0.617435 -8.01525 0
M  V30 6761 H 615.856 0.368132 -0.56697 0
M  V30 6762 H 618.41 0.517875 -1.98764 0
M  V30 6763 H 616.64 3.04082 -2.38895 0
M  V30 6764 H 618.329 2.94235 -2.79608 0
M  V30 6765 H 619.095 1.31178 -4.66923 0
M  V30 6766 H 614.974 2.32606 -3.98015 0
M  V30 6767 H 618.518 0.570562 -6.95263 0
M  V30 6768 H 614.415 1.58999 -6.25611 0
M  V30 6769 H 615.183 0.742835 -8.15122 0
M  V30 6770 N 617.846 1.41785 0.688094 0
M  V30 6771 C 619.094 1.41264 1.4453 0
M  V30 6772 C 619.415 0.0252946 1.94984 0
M  V30 6773 O 618.685 -0.934081 1.72197 0
M  V30 6774 H 617.265 0.519998 0.536294 0
M  V30 6775 H 619.927 1.7709 0.813941 0
M  V30 6776 H 619.023 2.10439 2.30482 0
M  V30 6777 N 619.324 -0.923095 1.27737 0
M  V30 6778 C 620.573 -1.66581 1.13727 0
M  V30 6779 C 620.886 -1.9304 -0.315433 0
M  V30 6780 O 622.092 -2.65309 -0.57651 0
M  V30 6781 C 620.548 -3.00047 1.98745 0
M  V30 6782 C 620.156 -2.8127 3.48699 0
M  V30 6783 C 621.9 -3.77887 1.93395 0
M  V30 6784 C 619.807 -4.1032 4.25901 0
M  V30 6785 H 618.737 -0.624834 0.422017 0
M  V30 6786 H 621.388 -1.02514 1.52194 0
M  V30 6787 H 619.77 -3.65197 1.53125 0
M  V30 6788 H 620.944 -2.24859 4.02213 0
M  V30 6789 H 619.259 -2.16854 3.55476 0
M  V30 6790 H 621.856 -4.73526 2.48348 0
M  V30 6791 H 622.199 -4.06264 0.908605 0
M  V30 6792 H 622.732 -3.19541 2.36935 0
M  V30 6793 H 619.471 -3.8712 5.28978 0
M  V30 6794 H 618.991 -4.66377 3.77163 0
M  V30 6795 H 620.67 -4.78648 4.35321 0
M  V30 6796 N 620.802 -1.09834 -1.13024 0
M  V30 6797 C 621.765 -0.745058 -2.16752 0
M  V30 6798 C 622.765 0.227435 -1.59183 0
M  V30 6799 O 623.955 0.0050786 -1.74199 0
M  V30 6800 C 621.087 -0.102543 -3.40746 0
M  V30 6801 H 622.28 -1.66375 -2.49518 0
M  V30 6802 H 619.833 -0.898061 -1.27924 0
M  V30 6803 H 620.568 0.827177 -3.13573 0
M  V30 6804 H 620.353 -0.80235 -3.83803 0
M  V30 6805 H 621.843 0.129082 -4.174 0
M  V30 6806 N 622.28 1.30327 -0.886154 0
M  V30 6807 C 623.696 1.48676 -0.580323 0
M  V30 6808 C 623.896 1.81189 0.881639 0
M  V30 6809 O 622.952 1.90021 1.66278 0
M  V30 6810 C 624.265 2.60932 -1.49449 0
M  V30 6811 C 625.813 2.74812 -1.49824 0
M  V30 6812 C 626.288 3.90183 -2.39836 0
M  V30 6813 N 627.779 3.97495 -2.37806 0
M  V30 6814 C 628.514 4.86078 -3.04165 0
M  V30 6815 N 628.01 5.79448 -3.79753 0
M  V30 6816 N 629.803 4.79456 -2.93391 0
M  V30 6817 H 621.954 1.07495 -1.8319 0
M  V30 6818 H 624.217 0.532661 -0.784204 0
M  V30 6819 H 623.923 2.43731 -2.5355 0
M  V30 6820 H 623.797 3.57437 -1.20494 0
M  V30 6821 H 626.184 2.91418 -0.464731 0
M  V30 6822 H 626.265 1.78924 -1.82811 0
M  V30 6823 H 625.909 3.74334 -3.43273 0
M  V30 6824 H 625.839 4.85411 -2.04166 0
M  V30 6825 H 628.33 3.30703 -1.82877 0
M  V30 6826 H 628.643 6.43805 -4.27475 0
M  V30 6827 H 626.988 5.79376 -3.8386 0
M  V30 6828 H 630.179 4.05494 -2.33864 0
M  V30 6829 H 630.352 5.48283 -3.45383 0
M  V30 6830 N 623.758 0.647228 1.43697 0
M  V30 6831 C 624.668 -0.0487997 2.34549 0
M  V30 6832 C 625.684 -0.818586 1.53542 0
M  V30 6833 O 626.86 -0.767195 1.86215 0
M  V30 6834 C 623.925 -1.00734 3.31743 0
M  V30 6835 C 622.986 -0.23515 4.28655 0
M  V30 6836 C 622.219 -1.14803 5.21206 0
M  V30 6837 O 622.442 -2.38717 5.18045 0
M  V30 6838 O 621.376 -0.623667 5.9866 0
M  V30 6839 H 625.202 0.698863 2.9555 0
M  V30 6840 H 622.787 0.407412 1.43738 0
M  V30 6841 H 624.669 -1.55837 3.91526 0
M  V30 6842 H 623.344 -1.73534 2.73254 0
M  V30 6843 H 622.251 0.359319 3.7237 0
M  V30 6844 H 623.584 0.453152 4.9011 0
M  V30 6845 N 625.236 -1.5273 0.388769 0
M  V30 6846 C 626.513 -1.93981 -0.251133 0
M  V30 6847 C 626.893 -1.32418 -1.64404 0
M  V30 6848 O 626.241 -0.492074 -2.23139 0
M  V30 6849 C 626.451 -3.47891 -0.27802 0
M  V30 6850 C 627.799 -4.21559 -0.507229 0
M  V30 6851 O 628.823 -3.54394 -0.358252 0
M  V30 6852 O 627.682 -5.40626 -0.799094 0
M  V30 6853 H 624.776 -0.812157 -0.15598 0
M  V30 6854 H 627.322 -1.63809 0.443237 0
M  V30 6855 H 626.094 -3.8503 0.697669 0
M  V30 6856 H 625.717 -3.84364 -1.01733 0
M  V30 6857 N 626.714 -0.118576 -1.57153 0
M  V30 6858 C 627.96 0.540326 -1.95469 0
M  V30 6859 C 628.293 1.66356 -1.00196 0
M  V30 6860 O 627.568 1.94461 -0.039104 0
M  V30 6861 C 627.851 1.07342 -3.43729 0
M  V30 6862 C 627.704 -0.0463732 -4.49776 0
M  V30 6863 C 629.023 1.96442 -3.93826 0
M  V30 6864 H 626.142 0.19494 -0.710751 0
M  V30 6865 H 628.784 -0.19405 -1.89006 0
M  V30 6866 H 626.934 1.69925 -3.49368 0
M  V30 6867 H 628.606 -0.681648 -4.56236 0
M  V30 6868 H 626.849 -0.709574 -4.27957 0
M  V30 6869 H 627.52 0.367856 -5.50773 0
M  V30 6870 H 629.996 1.43731 -3.90488 0
M  V30 6871 H 628.872 2.3066 -4.98084 0
M  V30 6872 H 629.133 2.89077 -3.34495 0
M  V30 6873 N 628.193 1.56834 0.155195 0
M  V30 6874 C 629.439 1.83169 0.870467 0
M  V30 6875 C 629.772 0.698929 1.81187 0
M  V30 6876 O 629.047 -0.298035 1.92203 0
M  V30 6877 C 629.33 3.19965 1.65211 0
M  V30 6878 C 629.183 4.43792 0.732744 0
M  V30 6879 C 630.502 3.53885 2.61636 0
M  V30 6880 H 627.621 0.666288 0.315006 0
M  V30 6881 H 630.263 1.89513 0.135988 0
M  V30 6882 H 628.413 3.14687 2.27825 0
M  V30 6883 H 630.085 4.61148 0.118236 0
M  V30 6884 H 628.328 4.3378 0.0417906 0
M  V30 6885 H 628.999 5.36095 1.31552 0
M  V30 6886 H 631.475 3.5972 2.09143 0
M  V30 6887 H 630.351 4.50648 3.13381 0
M  V30 6888 H 630.612 2.79418 3.42605 0
M  V30 6889 N 629.671 -0.424282 1.51781 0
M  V30 6890 C 630.601 -1.52305 1.7699 0
M  V30 6891 C 631.582 -1.5839 0.620209 0
M  V30 6892 O 632.767 -1.73908 0.864268 0
M  V30 6893 C 629.897 -2.90271 1.90683 0
M  V30 6894 C 628.851 -2.99043 3.06198 0
M  V30 6895 C 628.177 -4.39116 3.05092 0
M  V30 6896 C 629.477 -2.7192 4.45934 0
M  V30 6897 H 631.171 -1.31461 2.68995 0
M  V30 6898 H 628.717 -0.630985 1.29439 0
M  V30 6899 H 630.67 -3.6711 2.06901 0
M  V30 6900 H 629.394 -3.12376 0.953365 0
M  V30 6901 H 628.053 -2.24646 2.89706 0
M  V30 6902 H 627.701 -4.58207 2.07498 0
M  V30 6903 H 627.401 -4.45912 3.82669 0
M  V30 6904 H 628.925 -5.17911 3.2342 0
M  V30 6905 H 630.339 -3.38487 4.62709 0
M  V30 6906 H 628.736 -2.90111 5.25315 0
M  V30 6907 H 629.806 -1.67445 4.55072 0
M  V30 6908 N 631.149 -1.42148 -0.680565 0
M  V30 6909 C 632.097 -1.45401 -1.81552 0
M  V30 6910 C 633.091 -0.33036 -1.66147 0
M  V30 6911 O 634.297 -0.503103 -1.72826 0
M  V30 6912 H 630.672 -0.455265 -0.59853 0
M  V30 6913 H 632.643 -2.41024 -1.75926 0
M  V30 6914 C 631.392 -1.36769 -3.19671 0
M  V30 6915 H 630.715 -2.22525 -3.32149 0
M  V30 6916 H 632.155 -1.43106 -3.9912 0
M  V30 6917 C 630.614 -0.0817752 -3.36801 0
M  V30 6918 O 631.144 0.867707 -3.92216 0
M  V30 6919 N 629.35 -0.000799811 -2.906 0
M  V30 6920 H 628.897 -0.774231 -2.4569 0
M  V30 6921 H 628.855 0.858961 -3.02439 0
M  V30 6922 N 632.627 0.916307 -1.28225 0
M  V30 6923 C 634.043 1.19425 -1.05876 0
M  V30 6924 C 634.243 2.005 0.2005 0
M  V30 6925 O 633.299 2.35806 0.902873 0
M  V30 6926 C 634.612 1.93133 -2.30478 0
M  V30 6927 C 636.16 2.06026 -2.35632 0
M  V30 6928 C 636.635 2.83141 -3.59994 0
M  V30 6929 N 638.126 2.90704 -3.60618 0
M  V30 6930 C 638.861 3.50865 -4.53521 0
M  V30 6931 N 638.357 4.12327 -5.56739 0
M  V30 6932 N 640.15 3.48379 -4.41122 0
M  V30 6933 H 632.301 0.37496 -2.09064 0
M  V30 6934 H 634.564 0.228531 -0.920042 0
M  V30 6935 H 634.27 1.40985 -3.22205 0
M  V30 6936 H 634.144 2.93696 -2.36691 0
M  V30 6937 H 636.531 2.57355 -1.44404 0
M  V30 6938 H 636.612 1.04647 -2.33415 0
M  V30 6939 H 636.256 2.32492 -4.51564 0
M  V30 6940 H 636.186 3.84829 -3.59464 0
M  V30 6941 H 638.677 2.47034 -2.85977 0
M  V30 6942 H 638.99 4.56205 -6.23776 0
M  V30 6943 H 637.335 4.10839 -5.60568 0
M  V30 6944 H 640.526 2.99572 -3.59686 0
M  V30 6945 H 640.699 3.94974 -5.13712 0
M  V30 6946 N 634.105 1.10431 1.1244 0
M  V30 6947 C 635.354 0.841539 1.83306 0
M  V30 6948 C 635.667 -0.634961 1.85007 0
M  V30 6949 O 636.873 -1.01363 2.51869 0
M  V30 6950 C 635.329 1.45565 3.29149 0
M  V30 6951 C 634.937 2.96544 3.35806 0
M  V30 6952 C 636.681 1.27227 4.04986 0
M  V30 6953 C 634.588 3.5099 4.75983 0
M  V30 6954 H 633.518 0.311156 0.686803 0
M  V30 6955 H 636.169 1.32829 1.26604 0
M  V30 6956 H 634.551 0.896574 3.85717 0
M  V30 6957 H 635.725 3.58766 2.89177 0
M  V30 6958 H 634.04 3.14036 2.73442 0
M  V30 6959 H 636.637 1.65348 5.08492 0
M  V30 6960 H 636.98 0.213834 4.1575 0
M  V30 6961 H 637.513 1.79941 3.54776 0
M  V30 6962 H 634.252 4.56499 4.70413 0
M  V30 6963 H 633.772 2.93535 5.23065 0
M  V30 6964 H 635.451 3.48808 5.44924 0
M  V30 6965 N 635.583 -1.29855 0.893053 0
M  V30 6966 C 636.513 -2.3035 0.382249 0
M  V30 6967 C 637.494 -1.61328 -0.539203 0
M  V30 6968 O 638.679 -1.88882 -0.451342 0
M  V30 6969 C 635.809 -3.45024 -0.396983 0
M  V30 6970 C 634.763 -4.258 0.433437 0
M  V30 6971 C 634.089 -5.32605 -0.472889 0
M  V30 6972 C 635.389 -4.94549 1.67984 0
M  V30 6973 H 637.083 -2.73325 1.22205 0
M  V30 6974 H 634.629 -1.314 0.589073 0
M  V30 6975 H 636.582 -4.14398 -0.765024 0
M  V30 6976 H 635.306 -3.00875 -1.2705 0
M  V30 6977 H 633.965 -3.58125 0.783723 0
M  V30 6978 H 633.613 -4.84702 -1.34435 0
M  V30 6979 H 633.313 -5.87547 0.0789958 0
M  V30 6980 H 634.837 -6.04832 -0.837269 0
M  V30 6981 H 636.251 -5.56395 1.38192 0
M  V30 6982 H 634.648 -5.59393 2.17254 0
M  V30 6983 H 635.718 -4.20215 2.41965 0
M  V30 6984 N 637.061 -0.65484 -1.43351 0
M  V30 6985 C 638.309 -0.168559 -2.01396 0
M  V30 6986 C 638.63 1.22235 -1.51933 0
M  V30 6987 O 637.9 1.81685 -0.732627 0
M  V30 6988 H 636.48 -0.0593244 -0.744641 0
M  V30 6989 H 639.142 -0.846871 -1.75539 0
M  V30 6990 H 638.238 -0.154428 -3.11718 0
M  V30 6991 N 638.539 1.52521 -0.396863 0
M  V30 6992 C 639.449 2.30403 0.44178 0
M  V30 6993 C 640.465 1.37625 1.06468 0
M  V30 6994 O 641.641 1.70697 1.06886 0
M  V30 6995 C 638.706 3.1013 1.54986 0
M  V30 6996 C 637.767 4.18628 0.951279 0
M  V30 6997 C 637 4.94543 2.00655 0
M  V30 6998 O 637.223 4.70629 3.22281 0
M  V30 6999 O 636.157 5.797 1.61962 0
M  V30 7000 H 639.983 3.03087 -0.192892 0
M  V30 7001 H 637.568 1.48537 -0.16038 0
M  V30 7002 H 639.45 3.59816 2.19341 0
M  V30 7003 H 638.125 2.40251 2.16935 0
M  V30 7004 H 637.032 3.73119 0.270773 0
M  V30 7005 H 638.365 4.90763 0.375887 0
M  V30 7006 N 640.017 0.126909 1.57088 0
M  V30 7007 C 641.265 -0.528123 1.95078 0
M  V30 7008 C 641.586 -1.66708 1.0116 0
M  V30 7009 O 640.856 -1.95777 0.0693527 0
M  V30 7010 H 639.436 -0.198087 0.720257 0
M  V30 7011 H 642.098 0.197703 1.93895 0
M  V30 7012 H 641.194 -0.917507 2.98309 0
M  V30 7013 N 641.495 -1.56914 -0.146875 0
M  V30 7014 C 642.742 -1.83356 -0.859467 0
M  V30 7015 C 643.07 -0.707811 -1.81164 0
M  V30 7016 O 642.325 0.303155 -1.93338 0
M  V30 7017 C 642.624 -3.16128 -1.66727 0
M  V30 7018 C 642.29 -4.42586 -0.861881 0
M  V30 7019 C 640.952 -4.76929 -0.639687 0
M  V30 7020 C 643.304 -5.20344 -0.298643 0
M  V30 7021 C 640.632 -5.86491 0.156451 0
M  V30 7022 C 642.984 -6.30742 0.484536 0
M  V30 7023 C 641.648 -6.63635 0.717306 0
M  V30 7024 H 640.918 -0.670947 -0.314501 0
M  V30 7025 H 643.565 -1.91104 -0.123108 0
M  V30 7026 H 641.87 -3.03831 -2.47374 0
M  V30 7027 H 643.567 -3.33802 -2.2221 0
M  V30 7028 H 640.157 -4.15662 -1.04513 0
M  V30 7029 H 644.341 -4.94186 -0.457585 0
M  V30 7030 H 639.597 -6.10419 0.346292 0
M  V30 7031 H 643.771 -6.90188 0.928105 0
M  V30 7032 H 641.398 -7.48367 1.33607 0
M  V30 7033 N 642.974 0.416227 -1.52004 0
M  V30 7034 C 644.221 1.16383 -1.65714 0
M  V30 7035 C 644.549 1.9068 -0.383594 0
M  V30 7036 O 643.804 1.85174 0.633185 0
M  V30 7037 C 644.103 2.18923 -2.82502 0
M  V30 7038 C 643.769 1.61485 -4.20991 0
M  V30 7039 C 642.431 1.45545 -4.58661 0
M  V30 7040 C 644.783 1.19468 -5.07323 0
M  V30 7041 C 642.111 0.860937 -5.80349 0
M  V30 7042 C 644.463 0.614386 -6.29609 0
M  V30 7043 C 643.127 0.442056 -6.66035 0
M  V30 7044 H 642.397 0.425875 -0.606392 0
M  V30 7045 H 645.044 0.45199 -1.8609 0
M  V30 7046 H 643.349 2.96225 -2.56433 0
M  V30 7047 H 645.046 2.76628 -2.90307 0
M  V30 7048 H 641.636 1.74873 -3.91302 0
M  V30 7049 H 645.82 1.30596 -4.78809 0
M  V30 7050 H 641.076 0.715372 -6.072 0
M  V30 7051 H 645.25 0.280393 -6.95835 0
M  V30 7052 H 642.877 -0.0207218 -7.60197 0
M  V30 7053 N 644.452 1.42507 0.673017 0
M  V30 7054 C 645.7 1.42789 1.43023 0
M  V30 7055 C 646.021 0.0459738 1.94946 0
M  V30 7056 O 645.291 -0.915765 1.73178 0
M  V30 7057 H 643.871 0.525657 0.530748 0
M  V30 7058 H 646.533 1.77944 0.795113 0
M  V30 7059 H 645.629 2.12872 2.28237 0
M  V30 7060 N 645.93 -0.909495 1.28709 0
M  V30 7061 C 646.84 -2.04558 1.14861 0
M  V30 7062 C 647.856 -1.73842 0.0741621 0
M  V30 7063 O 649.032 -1.99383 0.2843 0
M  V30 7064 C 646.097 -3.36957 0.816148 0
M  V30 7065 C 645.158 -3.81255 1.97341 0
M  V30 7066 C 644.391 -5.07335 1.65671 0
M  V30 7067 O 644.614 -5.67514 0.573053 0
M  V30 7068 O 643.548 -5.47449 2.50167 0
M  V30 7069 H 647.374 -2.19161 2.10243 0
M  V30 7070 H 644.959 -1.03159 1.08068 0
M  V30 7071 H 646.841 -4.16436 0.644873 0
M  V30 7072 H 645.516 -3.2352 -0.107983 0
M  V30 7073 H 644.423 -3.02584 2.19986 0
M  V30 7074 H 645.756 -3.99261 2.87839 0
M  V30 7075 N 647.408 -1.11026 -1.11852 0
M  V30 7076 C 648.654 -0.857729 -1.83768 0
M  V30 7077 C 648.987 0.615143 -1.842 0
M  V30 7078 O 648.262 1.45391 -1.29196 0
M  V30 7079 C 648.545 -1.41453 -3.31154 0
M  V30 7080 C 648.398 -2.95471 -3.39142 0
M  V30 7081 C 649.717 -1.0619 -4.27097 0
M  V30 7082 H 646.836 -0.313044 -0.667212 0
M  V30 7083 H 649.478 -1.37443 -1.31185 0
M  V30 7084 H 647.628 -0.975052 -3.76065 0
M  V30 7085 H 649.3 -3.4799 -3.02821 0
M  V30 7086 H 647.543 -3.31759 -2.79497 0
M  V30 7087 H 648.214 -3.29515 -4.42859 0
M  V30 7088 H 650.69 -1.44122 -3.90344 0
M  V30 7089 H 649.566 -1.47832 -5.28618 0
M  V30 7090 H 649.827 0.0278912 -4.42091 0
M  V30 7091 N 648.886 1.2938 -0.899927 0
M  V30 7092 C 650.116 1.99402 -0.540601 0
M  V30 7093 C 650.524 1.67534 0.87914 0
M  V30 7094 O 649.867 0.916821 1.59186 0
M  V30 7095 C 649.929 3.53514 -0.653326 0
M  V30 7096 C 649.593 4.08937 -2.04009 0
M  V30 7097 C 650.59 4.23815 -3.01126 0
M  V30 7098 C 648.275 4.43962 -2.34953 0
M  V30 7099 C 650.269 4.72951 -4.27313 0
M  V30 7100 C 647.956 4.92795 -3.61382 0
M  V30 7101 C 648.954 5.07244 -4.57376 0
M  V30 7102 O 648.642 5.55017 -5.8156 0
M  V30 7103 H 648.374 0.64383 -0.206057 0
M  V30 7104 H 650.928 1.65878 -1.21134 0
M  V30 7105 H 649.158 3.86628 0.0744449 0
M  V30 7106 H 650.847 4.04767 -0.303118 0
M  V30 7107 H 651.613 3.97043 -2.78535 0
M  V30 7108 H 647.492 4.31974 -1.60994 0
M  V30 7109 H 651.036 4.84144 -5.02245 0
M  V30 7110 H 646.933 5.19004 -3.83804 0
M  V30 7111 H 647.701 5.73331 -5.84153 0
M  V30 7112 N 650.364 0.662433 1.43002 0
M  V30 7113 C 651.274 -0.0239199 2.34588 0
M  V30 7114 C 652.29 -0.802255 1.54402 0
M  V30 7115 O 653.466 -0.747401 1.87018 0
M  V30 7116 C 650.531 -0.972098 3.32793 0
M  V30 7117 C 649.592 -0.189673 4.28881 0
M  V30 7118 C 648.825 -1.09269 5.22395 0
M  V30 7119 O 649.048 -2.33209 5.20547 0
M  V30 7120 O 647.982 -0.560136 5.99288 0
M  V30 7121 H 651.808 0.730171 2.94792 0
M  V30 7122 H 649.393 0.422635 1.43297 0
M  V30 7123 H 651.275 -1.51676 3.93157 0
M  V30 7124 H 649.95 -1.70626 2.75079 0
M  V30 7125 H 648.857 0.398794 3.71968 0
M  V30 7126 H 650.19 0.50511 4.89601 0
M  V30 7127 N 651.842 -1.52309 0.404946 0
M  V30 7128 C 653.09 -2.01368 -0.17186 0
M  V30 7129 C 653.411 -1.29261 -1.46002 0
M  V30 7130 O 652.681 -0.41729 -1.91404 0
M  V30 7131 H 651.261 -0.744034 -0.0664993 0
M  V30 7132 H 653.923 -1.87263 0.540228 0
M  V30 7133 H 653.019 -3.09888 -0.370957 0
M  V30 7134 N 653.32 -0.135238 -1.57019 0
M  V30 7135 C 654.566 0.519563 -1.96032 0
M  V30 7136 C 654.899 1.65284 -1.01955 0
M  V30 7137 O 654.174 1.94408 -0.059727 0
M  V30 7138 C 654.457 1.0369 -3.44848 0
M  V30 7139 C 654.31 -0.0940754 -4.49702 0
M  V30 7140 C 655.629 1.92254 -3.95887 0
M  V30 7141 H 652.748 0.18739 -0.712779 0
M  V30 7142 H 655.39 -0.214086 -1.8879 0
M  V30 7143 H 653.54 1.66209 -3.5115 0
M  V30 7144 H 655.212 -0.73 -4.55487 0
M  V30 7145 H 653.455 -0.754924 -4.27181 0
M  V30 7146 H 654.126 0.309419 -5.51132 0
M  V30 7147 H 656.602 1.39581 -3.9199 0
M  V30 7148 H 655.478 2.25364 -5.00502 0
M  V30 7149 H 655.739 2.85513 -3.37543 0
M  V30 7150 N 654.798 1.5699 0.138552 0
M  V30 7151 C 656.028 1.87704 0.863184 0
M  V30 7152 C 656.436 0.722411 1.74865 0
M  V30 7153 O 655.779 -0.316636 1.80951 0
M  V30 7154 C 655.841 3.13219 1.76449 0
M  V30 7155 C 655.505 4.44648 1.05532 0
M  V30 7156 C 656.502 5.18318 0.405252 0
M  V30 7157 C 654.187 4.91367 1.04231 0
M  V30 7158 C 656.181 6.36916 -0.24835 0
M  V30 7159 C 653.868 6.09887 0.384904 0
M  V30 7160 C 654.866 6.82508 -0.259292 0
M  V30 7161 O 654.554 7.98775 -0.906258 0
M  V30 7162 H 654.286 0.626255 0.254521 0
M  V30 7163 H 656.84 2.04966 0.133472 0
M  V30 7164 H 655.07 2.91988 2.53535 0
M  V30 7165 H 656.759 3.30111 2.36181 0
M  V30 7166 H 657.525 4.83289 0.407053 0
M  V30 7167 H 653.404 4.34759 1.53315 0
M  V30 7168 H 656.948 6.93538 -0.751755 0
M  V30 7169 H 652.845 6.44376 0.380799 0
M  V30 7170 H 653.613 8.14494 -0.80877 0
M  V30 7171 N 656.276 -0.40816 1.52223 0
M  V30 7172 C 657.504 -1.17672 1.70179 0
M  V30 7173 C 657.919 -1.84257 0.411696 0
M  V30 7174 O 657.276 -1.7192 -0.612354 0
M  V30 7175 C 657.327 -2.23911 2.83806 0
M  V30 7176 O 657.048 -1.60044 4.0782 0
M  V30 7177 C 658.549 -3.1364 3.13281 0
M  V30 7178 H 655.769 -0.353562 0.570293 0
M  V30 7179 H 658.313 -0.480083 1.98785 0
M  V30 7180 H 656.468 -2.89242 2.57717 0
M  V30 7181 H 656.882 -2.30484 4.71145 0
M  V30 7182 H 658.356 -3.84255 3.96298 0
M  V30 7183 H 658.833 -3.76066 2.26872 0
M  V30 7184 H 659.439 -2.53977 3.41139 0
M  V30 7185 N 657.755 -1.42862 -0.66545 0
M  V30 7186 C 658.703 -1.47319 -1.8 0
M  V30 7187 C 659.697 -0.347963 -1.65788 0
M  V30 7188 O 660.903 -0.521406 -1.72283 0
M  V30 7189 H 657.278 -0.461588 -0.593667 0
M  V30 7190 H 659.249 -2.42876 -1.7336 0
M  V30 7191 C 657.998 -1.40152 -3.18203 0
M  V30 7192 H 657.321 -2.26035 -3.2977 0
M  V30 7193 H 658.761 -1.47331 -3.9758 0
M  V30 7194 C 657.22 -0.117493 -3.36695 0
M  V30 7195 O 657.75 0.826058 -3.93115 0
M  V30 7196 N 655.956 -0.0316218 -2.90583 0
M  V30 7197 H 655.503 -0.800247 -2.44855 0
M  V30 7198 H 655.461 0.826835 -3.03333 0
M  V30 7199 N 659.233 0.902656 -1.29189 0
M  V30 7200 C 660.183 1.99326 -1.10695 0
M  V30 7201 C 661.167 1.60877 -0.0272521 0
M  V30 7202 O 662.359 1.75245 -0.248635 0
M  V30 7203 C 659.488 3.34265 -0.78244 0
M  V30 7204 C 658.574 3.79081 -1.90153 0
M  V30 7205 N 658.965 3.96162 -3.14466 0
M  V30 7206 C 657.263 4.08333 -1.79389 0
M  V30 7207 C 657.964 4.3388 -3.87458 0
M  V30 7208 N 656.94 4.42759 -3.15381 0
M  V30 7209 H 660.742 2.10597 -2.05003 0
M  V30 7210 H 658.256 1.09127 -1.20271 0
M  V30 7211 H 660.253 4.12097 -0.630996 0
M  V30 7212 H 658.913 3.2434 0.152754 0
M  V30 7213 H 659.924 3.81775 -3.49954 0
M  V30 7214 H 656.601 4.06982 -0.931217 0
M  V30 7215 H 657.991 4.54965 -4.94425 0
M  V30 7216 N 660.711 1.11618 1.11262 0
M  V30 7217 C 661.658 0.7762 2.17356 0
M  V30 7218 C 662.628 -0.253152 1.6416 0
M  V30 7219 O 663.813 -0.129655 1.90359 0
M  V30 7220 C 660.953 0.227581 3.44349 0
M  V30 7221 C 660.066 1.31372 4.1154 0
M  V30 7222 C 659.201 0.72544 5.26223 0
M  V30 7223 C 658.24 1.7913 5.85302 0
M  V30 7224 N 657.377 1.22237 6.91377 0
M  V30 7225 H 662.217 1.68508 2.45783 0
M  V30 7226 H 659.754 0.841475 1.20655 0
M  V30 7227 H 661.712 -0.108483 4.17059 0
M  V30 7228 H 660.342 -0.644486 3.16301 0
M  V30 7229 H 659.394 1.7667 3.36885 0
M  V30 7230 H 660.706 2.12005 4.51504 0
M  V30 7231 H 659.86 0.339541 6.05749 0
M  V30 7232 H 658.599 -0.112188 4.87571 0
M  V30 7233 H 657.604 2.18648 5.04453 0
M  V30 7234 H 658.829 2.63199 6.26022 0
M  V30 7235 H 656.775 0.406423 6.5474 0
M  V30 7236 H 656.692 1.9654 7.30006 0
M  V30 7237 H 657.96 0.863426 7.74703 0
M  V30 7238 N 662.189 -1.289 0.906776 0
M  V30 7239 C 663.437 -1.94883 0.535266 0
M  V30 7240 C 663.758 -1.71784 -0.922791 0
M  V30 7241 O 663.028 -1.05359 -1.65156 0
M  V30 7242 H 661.608 -0.721109 0.194962 0
M  V30 7243 H 664.27 -1.57018 1.15461 0
M  V30 7244 H 663.366 -3.03591 0.723821 0
M  V30 7245 N 663.667 -0.670007 -1.42649 0
M  V30 7246 C 664.577 0.0114788 -2.34597 0
M  V30 7247 C 665.593 0.794055 -1.54825 0
M  V30 7248 O 666.769 0.737472 -1.87412 0
M  V30 7249 C 663.834 0.954436 -3.33304 0
M  V30 7250 C 662.895 0.166925 -4.28975 0
M  V30 7251 C 662.128 1.06497 -5.22967 0
M  V30 7252 O 662.351 2.30446 -5.21777 0
M  V30 7253 O 661.285 0.528347 -5.99577 0
M  V30 7254 H 665.111 -0.745794 -2.944 0
M  V30 7255 H 662.696 -0.430228 -1.43071 0
M  V30 7256 H 664.578 1.49589 -3.93956 0
M  V30 7257 H 663.253 1.69164 -2.7598 0
M  V30 7258 H 662.16 -0.418515 -3.71752 0
M  V30 7259 H 663.493 -0.531067 -4.89327 0
M  V30 7260 N 665.145 1.52092 -0.413018 0
M  V30 7261 C 666.092 2.27119 0.410558 0
M  V30 7262 C 667.062 1.29692 1.03774 0
M  V30 7263 O 668.247 1.58561 1.06128 0
M  V30 7264 C 665.387 3.09863 1.51918 0
M  V30 7265 C 664.5 4.22252 0.912528 0
M  V30 7266 C 663.635 4.92348 1.99417 0
M  V30 7267 C 662.674 5.96694 1.36466 0
M  V30 7268 N 661.811 6.60292 2.38661 0
M  V30 7269 H 666.651 2.97067 -0.235661 0
M  V30 7270 H 664.188 1.46542 -0.128055 0
M  V30 7271 H 666.146 3.56144 2.17295 0
M  V30 7272 H 664.776 2.42078 2.13537 0
M  V30 7273 H 663.828 3.80113 0.147697 0
M  V30 7274 H 665.14 4.9709 0.412717 0
M  V30 7275 H 664.294 5.42054 2.72512 0
M  V30 7276 H 663.033 4.17087 2.52764 0
M  V30 7277 H 662.038 5.46304 0.61906 0
M  V30 7278 H 663.263 6.73899 0.838827 0
M  V30 7279 H 661.209 5.87858 2.91134 0
M  V30 7280 H 661.126 7.30816 1.93503 0
M  V30 7281 H 662.394 7.14635 3.11314 0
M  V30 7282 N 666.623 0.143563 1.56945 0
M  V30 7283 C 667.872 -0.50835 1.95189 0
M  V30 7284 C 668.185 -1.66239 1.03073 0
M  V30 7285 O 669.391 -2.3787 1.30882 0
M  V30 7286 C 667.847 -0.955735 3.46978 0
M  V30 7287 C 667.455 0.171183 4.47673 0
M  V30 7288 C 669.199 -1.57763 3.94095 0
M  V30 7289 C 667.106 -0.294279 5.90667 0
M  V30 7290 H 666.036 -0.193679 0.728701 0
M  V30 7291 H 668.687 0.227357 1.82086 0
M  V30 7292 H 667.069 -1.7466 3.55401 0
M  V30 7293 H 668.243 0.948049 4.50942 0
M  V30 7294 H 666.558 0.701273 4.10452 0
M  V30 7295 H 669.155 -1.93745 4.98364 0
M  V30 7296 H 669.498 -2.46531 3.35452 0
M  V30 7297 H 670.031 -0.851728 3.88575 0
M  V30 7298 H 666.77 0.557939 6.53121 0
M  V30 7299 H 666.29 -1.0371 5.90766 0
M  V30 7300 H 667.969 -0.747426 6.42668 0
M  V30 7301 N 668.101 -1.57061 -0.130224 0
M  V30 7302 C 669.049 -2.00486 -1.17933 0
M  V30 7303 C 670.043 -0.899933 -1.43519 0
M  V30 7304 O 671.249 -1.08514 -1.43613 0
M  V30 7305 H 667.624 -0.638441 -0.397363 0
M  V30 7306 H 669.595 -2.87848 -0.786501 0
M  V30 7307 C 668.344 -2.41565 -2.50084 0
M  V30 7308 H 667.667 -3.26148 -2.31231 0
M  V30 7309 H 669.107 -2.75757 -3.22078 0
M  V30 7310 C 667.566 -1.27485 -3.11848 0
M  V30 7311 O 668.096 -0.584688 -3.97422 0
M  V30 7312 N 666.302 -1.03478 -2.71552 0
M  V30 7313 H 665.849 -1.59779 -2.02061 0
M  V30 7314 H 665.807 -0.27341 -3.13209 0
M  V30 7315 N 669.579 0.400081 -1.52437 0
M  V30 7316 C 670.825 1.14788 -1.67187 0
M  V30 7317 C 671.158 1.89928 -0.405074 0
M  V30 7318 O 670.433 1.85118 0.596804 0
M  V30 7319 C 670.716 2.13507 -2.89977 0
M  V30 7320 C 670.569 1.42204 -4.2673 0
M  V30 7321 C 671.888 3.14069 -3.083 0
M  V30 7322 H 669.007 0.415939 -0.608411 0
M  V30 7323 H 671.649 0.432542 -1.85011 0
M  V30 7324 H 669.799 2.7451 -2.74912 0
M  V30 7325 H 671.471 0.842503 -4.53541 0
M  V30 7326 H 669.714 0.723939 -4.27717 0
M  V30 7327 H 670.385 2.14281 -5.08712 0
M  V30 7328 H 672.861 2.63148 -3.22323 0
M  V30 7329 H 671.737 3.80398 -3.95713 0
M  V30 7330 H 671.998 3.82309 -2.22018 0
M  V30 7331 N 671.057 1.43213 0.657864 0
M  V30 7332 C 672.02 1.47687 1.75275 0
M  V30 7333 C 673.02 0.362179 1.56668 0
M  V30 7334 O 674.21 0.623734 1.62651 0
M  V30 7335 C 671.342 1.32497 3.14098 0
M  V30 7336 H 672.535 2.4519 1.7269 0
M  V30 7337 H 670.088 1.2991 0.869087 0
M  V30 7338 H 670.823 0.359831 3.22298 0
M  V30 7339 H 670.608 2.13299 3.29008 0
M  V30 7340 H 672.098 1.38549 3.93946 0
M  V30 7341 N 672.536 -0.895792 1.29666 0
M  V30 7342 C 673.782 -1.64908 1.18039 0
M  V30 7343 C 674.115 -1.9236 -0.266682 0
M  V30 7344 O 673.39 -1.53682 -1.19214 0
M  V30 7345 C 673.673 -2.99574 1.99819 0
M  V30 7346 C 673.526 -2.79163 3.52687 0
M  V30 7347 C 674.845 -4.00358 1.82761 0
M  V30 7348 H 671.964 -0.598437 0.430165 0
M  V30 7349 H 674.606 -1.03736 1.59182 0
M  V30 7350 H 672.756 -3.51786 1.64859 0
M  V30 7351 H 674.428 -2.33821 3.9765 0
M  V30 7352 H 672.671 -2.13871 3.77414 0
M  V30 7353 H 673.342 -3.74871 4.05186 0
M  V30 7354 H 675.818 -3.57268 2.13304 0
M  V30 7355 H 674.694 -4.92514 2.42325 0
M  V30 7356 H 674.955 -4.35096 0.783839 0
M  V30 7357 N 674.014 -1.12206 -1.10668 0
M  V30 7358 C 674.961 -0.787716 -2.16942 0
M  V30 7359 C 675.931 0.244442 -1.64291 0
M  V30 7360 O 677.116 0.119558 -1.90425 0
M  V30 7361 C 674.256 -0.24584 -3.44223 0
M  V30 7362 C 673.369 -1.33552 -4.10838 0
M  V30 7363 C 672.504 -0.753337 -5.25831 0
M  V30 7364 C 671.543 -1.82231 -5.84344 0
M  V30 7365 N 670.68 -1.25902 -6.90719 0
M  V30 7366 H 675.52 -1.69809 -2.44885 0
M  V30 7367 H 673.057 -0.847862 -1.20207 0
M  V30 7368 H 675.015 0.0863639 -4.17111 0
M  V30 7369 H 673.645 0.627702 -3.16638 0
M  V30 7370 H 672.697 -1.78454 -3.35944 0
M  V30 7371 H 674.009 -2.14396 -4.50373 0
M  V30 7372 H 673.163 -0.37166 -6.05561 0
M  V30 7373 H 671.902 0.0863297 -4.87624 0
M  V30 7374 H 670.907 -2.2132 -5.03287 0
M  V30 7375 H 672.132 -2.66515 -6.24617 0
M  V30 7376 H 670.078 -0.44114 -6.54515 0
M  V30 7377 H 669.995 -2.00408 -7.28953 0
M  V30 7378 H 671.263 -0.904498 -7.74235 0
M  V30 7379 N 675.492 1.28418 -0.913599 0
M  V30 7380 C 676.72 1.99106 -0.562536 0
M  V30 7381 C 677.135 1.68273 0.856137 0
M  V30 7382 O 676.492 0.935401 1.56705 0
M  V30 7383 C 676.543 3.5338 -0.761903 0
M  V30 7384 O 676.264 3.83127 -2.12475 0
M  V30 7385 C 677.765 4.41328 -0.417651 0
M  V30 7386 H 674.985 0.635798 -0.214481 0
M  V30 7387 H 677.529 1.63618 -1.22676 0
M  V30 7388 H 675.684 3.8713 -0.144676 0
M  V30 7389 H 676.098 4.77763 -2.16431 0
M  V30 7390 H 677.572 5.48642 -0.607919 0
M  V30 7391 H 678.049 4.34422 0.646108 0
M  V30 7392 H 678.655 4.13074 -1.01241 0
M  V30 7393 N 676.97 0.677563 1.42291 0
M  V30 7394 C 678.21 0.204894 2.0337 0
M  V30 7395 C 678.574 -1.16744 1.5243 0
M  V30 7396 O 679.775 -1.73492 2.05314 0
M  V30 7397 C 678.046 0.240742 3.56588 0
M  V30 7398 S 679.605 -0.16052 4.38506 0
M  V30 7399 H 676.423 0.0839932 0.706021 0
M  V30 7400 H 679.025 0.891332 1.73999 0
M  V30 7401 H 677.729 1.24184 3.91161 0
M  V30 7402 H 677.26 -0.465439 3.90637 0
M  V30 7403 H 679.275 -1.39315 4.76241 0
M  V30 7404 N 678.448 -1.51871 0.421078 0
M  V30 7405 C 679.395 -2.27334 -0.398508 0
M  V30 7406 C 680.365 -1.30241 -1.03085 0
M  V30 7407 O 681.55 -1.59121 -1.05285 0
M  V30 7408 C 678.69 -3.10664 -1.50272 0
M  V30 7409 C 677.803 -4.2273 -0.890122 0
M  V30 7410 C 676.938 -4.93399 -1.96803 0
M  V30 7411 C 675.977 -5.97409 -1.333 0
M  V30 7412 N 675.114 -6.61548 -2.35156 0
M  V30 7413 H 679.954 -2.96938 0.251411 0
M  V30 7414 H 677.491 -1.46472 0.135825 0
M  V30 7415 H 679.449 -3.57292 -2.15403 0
M  V30 7416 H 678.079 -2.43207 -2.1225 0
M  V30 7417 H 677.131 -3.80186 -0.127537 0
M  V30 7418 H 678.443 -4.97302 -0.386349 0
M  V30 7419 H 677.597 -5.43491 -2.69633 0
M  V30 7420 H 676.336 -4.18421 -2.50549 0
M  V30 7421 H 675.341 -5.46624 -0.59008 0
M  V30 7422 H 676.566 -6.74335 -0.803076 0
M  V30 7423 H 674.512 -5.89394 -2.88012 0
M  V30 7424 H 674.429 -7.31832 -1.89624 0
M  V30 7425 H 675.697 -7.16276 -3.0752 0
M  V30 7426 N 679.926 -0.151884 -1.56866 0
M  V30 7427 C 680.873 0.785936 -2.17006 0
M  V30 7428 C 681.843 1.2407 -1.10435 0
M  V30 7429 O 683.028 1.31235 -1.38499 0
M  V30 7430 C 680.168 2.01771 -2.79969 0
M  V30 7431 C 679.281 1.6083 -4.00946 0
M  V30 7432 C 678.416 2.79224 -4.51893 0
M  V30 7433 C 677.455 2.3468 -5.65324 0
M  V30 7434 N 676.592 3.461 -6.10867 0
M  V30 7435 H 681.432 0.266286 -2.96808 0
M  V30 7436 H 678.969 0.11972 -1.46612 0
M  V30 7437 H 680.927 2.73989 -3.14621 0
M  V30 7438 H 679.557 2.51139 -2.02803 0
M  V30 7439 H 678.609 0.783592 -3.72242 0
M  V30 7440 H 679.921 1.24119 -4.83111 0
M  V30 7441 H 679.075 3.59625 -4.88625 0
M  V30 7442 H 677.814 3.19183 -3.68746 0
M  V30 7443 H 676.819 1.52721 -5.28163 0
M  V30 7444 H 678.044 1.95801 -6.5026 0
M  V30 7445 H 675.99 3.85671 -5.30654 0
M  V30 7446 H 675.907 3.1342 -6.87971 0
M  V30 7447 H 677.175 4.26844 -6.52246 0
M  V30 7448 N 681.404 1.57128 0.121893 0
M  V30 7449 C 682.681 1.75664 0.860327 0
M  V30 7450 C 683.061 0.726585 1.98202 0
M  V30 7451 O 682.409 -0.24999 2.27128 0
M  V30 7452 C 682.619 3.20571 1.37968 0
M  V30 7453 C 683.967 3.82988 1.83317 0
M  V30 7454 O 684.991 3.24156 1.47654 0
M  V30 7455 O 683.85 4.86393 2.49168 0
M  V30 7456 H 680.944 0.719153 0.408348 0
M  V30 7457 H 683.49 1.6937 0.105859 0
M  V30 7458 H 682.262 3.87056 0.57477 0
M  V30 7459 H 681.885 3.31392 2.19694 0
M  V30 7460 N 682.882 -0.391992 1.52647 0
M  V30 7461 C 684.122 -1.1463 1.69232 0
M  V30 7462 C 684.486 -1.87312 0.421684 0
M  V30 7463 O 685.687 -2.64768 0.463852 0
M  V30 7464 C 683.958 -2.10088 2.89133 0
M  V30 7465 S 685.517 -2.93395 3.2629 0
M  V30 7466 H 682.335 -0.388076 0.59575 0
M  V30 7467 H 684.937 -0.431149 1.90687 0
M  V30 7468 H 683.641 -1.55408 3.79837 0
M  V30 7469 H 683.172 -2.86116 2.70003 0
M  V30 7470 H 685.187 -4.12193 2.76244 0
M  V30 7471 N 684.36 -1.4356 -0.65026 0
M  V30 7472 C 685.588 -1.48779 -1.43779 0
M  V30 7473 C 686.003 -0.106593 -1.88499 0
M  V30 7474 O 685.36 0.883766 -1.59674 0
M  V30 7475 C 685.411 -2.43618 -2.67081 0
M  V30 7476 O 685.132 -3.76367 -2.24231 0
M  V30 7477 C 686.633 -2.5811 -3.60409 0
M  V30 7478 H 683.853 -0.50521 -0.441593 0
M  V30 7479 H 686.397 -1.88332 -0.796941 0
M  V30 7480 H 684.552 -2.07253 -3.273 0
M  V30 7481 H 684.966 -4.27394 -3.0403 0
M  V30 7482 H 686.44 -3.28539 -4.43583 0
M  V30 7483 H 686.917 -1.627 -4.07953 0
M  V30 7484 H 687.523 -2.95298 -3.0607 0
M  V30 7485 N 685.838 0.888903 -1.30139 0
M  V30 7486 C 686.768 2.01046 -1.18755 0
M  V30 7487 C 687.749 1.69916 -0.0791438 0
M  V30 7488 O 688.934 1.92445 -0.260498 0
M  V30 7489 C 686.064 3.36109 -0.874518 0
M  V30 7490 C 685.018 3.81486 -1.94043 0
M  V30 7491 C 684.344 5.13796 -1.48047 0
M  V30 7492 C 685.644 4.00637 -3.35093 0
M  V30 7493 H 687.338 2.10828 -2.12584 0
M  V30 7494 H 684.884 1.01298 -1.02346 0
M  V30 7495 H 686.837 4.14089 -0.781548 0
M  V30 7496 H 685.561 3.26449 0.0994519 0
M  V30 7497 H 684.22 3.05731 -2.02297 0
M  V30 7498 H 683.868 5.0056 -0.494878 0
M  V30 7499 H 683.568 5.45127 -2.19341 0
M  V30 7500 H 685.092 5.94305 -1.40121 0
M  V30 7501 H 686.506 4.69067 -3.2962 0
M  V30 7502 H 684.903 4.43339 -4.04438 0
M  V30 7503 H 685.973 3.0462 -3.77273 0
M  V30 7504 N 687.317 1.12792 1.10072 0
M  V30 7505 C 688.594 0.796867 1.78632 0
M  V30 7506 C 688.974 -0.712739 1.98704 0
M  V30 7507 O 688.322 -1.64773 1.5831 0
M  V30 7508 C 688.532 1.57622 3.11378 0
M  V30 7509 C 689.88 1.76463 3.86194 0
M  V30 7510 O 690.904 1.54165 3.2111 0
M  V30 7511 O 689.763 2.13623 5.03018 0
M  V30 7512 H 686.857 0.290248 0.774394 0
M  V30 7513 H 689.403 1.23215 1.16688 0
M  V30 7514 H 688.175 2.60246 2.92212 0
M  V30 7515 H 687.798 1.13543 3.81043 0
M  V30 7516 N 688.795 -1.27931 0.920396 0
M  V30 7517 C 689.743 -2.29061 0.404191 0
M  V30 7518 C 690.737 -1.61615 -0.507634 0
M  V30 7519 O 691.943 -1.75765 -0.388144 0
M  V30 7520 H 688.318 -0.743594 0.112123 0
M  V30 7521 H 690.289 -2.70021 1.27008 0
M  V30 7522 C 689.038 -3.46088 -0.334466 0
M  V30 7523 H 688.361 -3.98194 0.35797 0
M  V30 7524 H 689.801 -4.18829 -0.660196 0
M  V30 7525 C 688.26 -2.99396 -1.54479 0
M  V30 7526 O 688.79 -3.02439 -2.64374 0
M  V30 7527 N 686.996 -2.54978 -1.39408 0
M  V30 7528 H 686.543 -2.52701 -0.500009 0
M  V30 7529 H 686.501 -2.24098 -2.20516 0
M  V30 7530 N 690.273 -0.685099 -1.4193 0
M  V30 7531 C 691.22 -0.0131869 -2.30796 0
M  V30 7532 C 692.19 0.782129 -1.46533 0
M  V30 7533 O 693.375 0.75229 -1.75343 0
M  V30 7534 C 690.515 0.924768 -3.32479 0
M  V30 7535 C 689.628 0.122181 -4.31827 0
M  V30 7536 C 688.763 1.05682 -5.20581 0
M  V30 7537 C 687.802 0.246526 -6.11603 0
M  V30 7538 N 686.939 1.13442 -6.92875 0
M  V30 7539 H 691.779 -0.776789 -2.87698 0
M  V30 7540 H 689.316 -0.394791 -1.41703 0
M  V30 7541 H 691.274 1.48251 -3.89971 0
M  V30 7542 H 689.904 1.65488 -2.77152 0
M  V30 7543 H 688.956 -0.552335 -3.76369 0
M  V30 7544 H 690.268 -0.506473 -4.96222 0
M  V30 7545 H 689.422 1.68415 -5.82856 0
M  V30 7546 H 688.161 1.71935 -4.56388 0
M  V30 7547 H 687.166 -0.393944 -5.48387 0
M  V30 7548 H 688.391 -0.412053 -6.77849 0
M  V30 7549 H 686.337 1.78316 -6.313 0
M  V30 7550 H 686.254 0.561089 -7.53915 0
M  V30 7551 H 687.522 1.74889 -7.59628 0
M  V30 7552 N 691.751 1.51645 -0.429126 0
M  V30 7553 C 692.661 2.31288 0.392809 0
M  V30 7554 C 693.677 1.39852 1.03525 0
M  V30 7555 O 694.853 1.72926 1.03241 0
M  V30 7556 C 691.918 3.13347 1.48372 0
M  V30 7557 C 690.979 4.20551 0.862268 0
M  V30 7558 C 690.212 4.98688 1.9012 0
M  V30 7559 O 690.435 4.77359 3.12225 0
M  V30 7560 O 689.369 5.83005 1.4963 0
M  V30 7561 H 693.195 3.02609 -0.257138 0
M  V30 7562 H 690.78 1.48163 -0.191851 0
M  V30 7563 H 692.662 3.64387 2.1166 0
M  V30 7564 H 691.337 2.44799 2.1179 0
M  V30 7565 H 690.244 3.73609 0.191568 0
M  V30 7566 H 691.577 4.91449 0.271704 0
M  V30 7567 N 693.229 0.160201 1.56784 0
M  V30 7568 C 694.176 -0.774416 2.1742 0
M  V30 7569 C 695.146 -1.23483 1.11091 0
M  V30 7570 O 696.331 -1.30499 1.39193 0
M  V30 7571 C 693.471 -2.00283 2.81035 0
M  V30 7572 C 692.584 -1.58701 4.01793 0
M  V30 7573 C 691.719 -2.76824 4.53367 0
M  V30 7574 C 690.758 -2.31679 5.66561 0
M  V30 7575 N 689.895 -3.42856 6.12694 0
M  V30 7576 H 694.735 -0.250542 2.96945 0
M  V30 7577 H 692.272 -0.111943 1.46673 0
M  V30 7578 H 694.23 -2.72316 3.16069 0
M  V30 7579 H 692.86 -2.5006 2.04132 0
M  V30 7580 H 691.912 -0.76384 3.72652 0
M  V30 7581 H 693.224 -1.21555 4.83762 0
M  V30 7582 H 692.378 -3.57029 4.90525 0
M  V30 7583 H 691.117 -3.17223 3.70433 0
M  V30 7584 H 690.122 -1.49917 5.28966 0
M  V30 7585 H 691.347 -1.9235 6.5129 0
M  V30 7586 H 689.293 -3.82852 5.32692 0
M  V30 7587 H 689.21 -3.09767 6.89624 0
M  V30 7588 H 690.478 -4.23379 6.545 0
M  V30 7589 N 694.707 -1.5719 -0.113559 0
M  V30 7590 C 695.954 -1.85138 -0.820382 0
M  V30 7591 C 696.282 -0.74608 -1.79622 0
M  V30 7592 O 695.537 0.262077 -1.93937 0
M  V30 7593 C 695.836 -3.19593 -1.59984 0
M  V30 7594 C 695.502 -4.44315 -0.767809 0
M  V30 7595 C 694.164 -4.78179 -0.538379 0
M  V30 7596 C 696.516 -5.2086 -0.188203 0
M  V30 7597 C 693.844 -5.86028 0.28082 0
M  V30 7598 C 696.196 -6.29572 0.618217 0
M  V30 7599 C 694.86 -6.61964 0.857912 0
M  V30 7600 H 694.13 -0.677467 -0.300199 0
M  V30 7601 H 696.777 -1.91322 -0.0825443 0
M  V30 7602 H 695.082 -3.0901 -2.40874 0
M  V30 7603 H 696.779 -3.3844 -2.1508 0
M  V30 7604 H 693.369 -4.17786 -0.956724 0
M  V30 7605 H 697.553 -4.95045 -0.352658 0
M  V30 7606 H 692.809 -6.09547 0.475693 0
M  V30 7607 H 696.983 -6.88064 1.0743 0
M  V30 7608 H 694.61 -7.45365 1.49451 0
M  V30 7609 N 696.185 0.383891 -1.52853 0
M  V30 7610 C 697.118 1.49105 -1.72751 0
M  V30 7611 C 698.096 1.52077 -0.575438 0
M  V30 7612 O 699.28 1.70406 -0.805854 0
M  V30 7613 C 696.407 2.87551 -1.78975 0
M  V30 7614 C 695.453 3.02383 -3.00777 0
M  V30 7615 S 696.286 2.73048 -4.60657 0
M  V30 7616 C 697.442 4.13678 -4.69704 0
M  V30 7617 H 697.675 1.32002 -2.66388 0
M  V30 7618 H 695.208 0.577088 -1.4321 0
M  V30 7619 H 697.166 3.6733 -1.83246 0
M  V30 7620 H 695.827 3.01977 -0.864215 0
M  V30 7621 H 695.02 4.03733 -3.01688 0
M  V30 7622 H 694.622 2.30504 -2.94523 0
M  V30 7623 H 696.914 5.07676 -4.48633 0
M  V30 7624 H 697.857 4.1778 -5.71721 0
M  V30 7625 H 698.265 3.99825 -3.98497 0
M  V30 7626 N 697.663 1.43903 0.642637 0
M  V30 7627 C 698.888 1.49758 1.43483 0
M  V30 7628 C 699.313 0.119911 1.87717 0
M  V30 7629 O 698.671 -0.888558 1.58033 0
M  V30 7630 C 698.719 2.45744 2.63898 0
M  V30 7631 O 697.823 1.95101 3.63331 0
M  V30 7632 H 697.164 0.506138 0.429791 0
M  V30 7633 H 699.694 1.88923 0.785438 0
M  V30 7634 H 699.704 2.63399 3.11584 0
M  V30 7635 H 698.379 3.45818 2.31046 0
M  V30 7636 H 696.956 1.87158 3.22531 0
M  V30 7637 N 699.141 -0.881989 1.30609 0
M  V30 7638 C 700.051 -2.02076 1.19174 0
M  V30 7639 C 701.067 -1.73645 0.11102 0
M  V30 7640 O 702.243 -1.98735 0.326528 0
M  V30 7641 C 699.308 -3.3515 0.887438 0
M  V30 7642 C 698.369 -3.76983 2.05383 0
M  V30 7643 C 697.602 -5.03707 1.76395 0
M  V30 7644 O 697.825 -5.66171 0.693302 0
M  V30 7645 O 696.759 -5.42019 2.61723 0
M  V30 7646 H 700.585 -2.14652 2.14845 0
M  V30 7647 H 698.17 -1.00843 1.10232 0
M  V30 7648 H 700.052 -4.14975 0.73306 0
M  V30 7649 H 698.727 -3.23676 -0.0393354 0
M  V30 7650 H 697.634 -2.97849 2.26355 0
M  V30 7651 H 698.967 -3.93066 2.96243 0
M  V30 7652 N 700.619 -1.13374 -1.09472 0
M  V30 7653 C 701.582 -0.813639 -2.14272 0
M  V30 7654 C 702.582 0.176677 -1.59826 0
M  V30 7655 O 703.772 -0.0503441 -1.74127 0
M  V30 7656 C 700.904 -0.210897 -3.40247 0
M  V30 7657 H 702.097 -1.74229 -2.44099 0
M  V30 7658 H 699.65 -0.938304 -1.25002 0
M  V30 7659 H 700.385 0.726998 -3.16046 0
M  V30 7660 H 700.17 -0.924048 -3.81056 0
M  V30 7661 H 701.66 -0.00377603 -4.176 0
M  V30 7662 N 702.098 1.27442 -0.927168 0
M  V30 7663 C 703.344 1.94679 -0.568164 0
M  V30 7664 C 703.677 1.72697 0.888219 0
M  V30 7665 O 702.952 1.05573 1.63354 0
M  V30 7666 C 703.235 3.4882 -0.894253 0
M  V30 7667 C 703.088 3.80146 -2.40435 0
M  V30 7668 C 704.407 4.38281 -0.399766 0
M  V30 7669 H 701.526 0.707071 -0.207892 0
M  V30 7670 H 704.168 1.50568 -1.15885 0
M  V30 7671 H 702.318 3.86522 -0.391566 0
M  V30 7672 H 703.99 3.52238 -2.97869 0
M  V30 7673 H 702.233 3.26716 -2.85375 0
M  V30 7674 H 702.904 4.87835 -2.58304 0
M  V30 7675 H 705.38 4.07726 -0.83058 0
M  V30 7676 H 704.256 5.44955 -0.656885 0
M  V30 7677 H 704.517 4.36521 0.700153 0
M  V30 7678 N 703.576 0.692616 1.41565 0
M  V30 7679 C 704.825 0.219452 2.00503 0
M  V30 7680 C 705.138 -1.18683 1.55479 0
M  V30 7681 O 706.344 -1.75731 2.06956 0
M  V30 7682 C 704.8 0.341451 3.58277 0
M  V30 7683 C 704.408 1.75291 4.12283 0
M  V30 7684 C 706.152 -0.0720899 4.24439 0
M  V30 7685 C 704.059 1.82673 5.62481 0
M  V30 7686 H 702.989 0.0782874 0.749925 0
M  V30 7687 H 705.64 0.860386 1.62079 0
M  V30 7688 H 704.022 -0.367683 3.94289 0
M  V30 7689 H 705.196 2.49057 3.87695 0
M  V30 7690 H 703.511 2.11587 3.58636 0
M  V30 7691 H 706.108 -0.0373385 5.34687 0
M  V30 7692 H 706.451 -1.11034 4.0122 0
M  V30 7693 H 706.984 0.586663 3.9345 0
M  V30 7694 H 703.723 2.84539 5.90523 0
M  V30 7695 H 703.243 1.13288 5.89004 0
M  V30 7696 H 704.922 1.58827 6.27203 0
M  V30 7697 N 705.054 -1.51416 0.437162 0
M  V30 7698 C 705.987 -2.24309 -0.419602 0
M  V30 7699 C 706.965 -1.26236 -1.02485 0
M  V30 7700 O 708.149 -1.5537 -1.06735 0
M  V30 7701 C 705.276 -2.99335 -1.58482 0
M  V30 7702 C 704.322 -4.12064 -1.10027 0
M  V30 7703 S 705.155 -5.35483 -0.0424476 0
M  V30 7704 C 706.311 -6.14047 -1.21234 0
M  V30 7705 H 706.544 -2.96632 0.199259 0
M  V30 7706 H 704.077 -1.528 0.22168 0
M  V30 7707 H 706.035 -3.43159 -2.25282 0
M  V30 7708 H 704.696 -2.26602 -2.17509 0
M  V30 7709 H 703.889 -4.63836 -1.97161 0
M  V30 7710 H 703.491 -3.70499 -0.510507 0
M  V30 7711 H 705.783 -6.43123 -2.13072 0
M  V30 7712 H 706.726 -7.04279 -0.734582 0
M  V30 7713 H 707.134 -5.45538 -1.45082 0
M  V30 7714 N 706.532 -0.168513 -1.56696 0
M  V30 7715 C 707.479 0.762875 -2.17828 0
M  V30 7716 C 708.449 1.22892 -1.11745 0
M  V30 7717 O 709.634 1.29759 -1.39883 0
M  V30 7718 C 706.774 1.9879 -2.82093 0
M  V30 7719 C 705.887 1.56568 -4.02629 0
M  V30 7720 C 705.022 2.74416 -4.54829 0
M  V30 7721 C 704.061 2.28671 -5.67782 0
M  V30 7722 N 703.198 3.39602 -6.14504 0
M  V30 7723 H 708.038 0.23479 -2.97074 0
M  V30 7724 H 705.575 0.104163 -1.46731 0
M  V30 7725 H 707.533 2.70636 -3.17509 0
M  V30 7726 H 706.163 2.48973 -2.05456 0
M  V30 7727 H 705.215 0.744067 -3.73052 0
M  V30 7728 H 706.527 1.18988 -4.844 0
M  V30 7729 H 705.681 3.54423 -4.92412 0
M  V30 7730 H 704.42 3.15254 -3.7211 0
M  V30 7731 H 703.425 1.4711 -5.29753 0
M  V30 7732 H 704.65 1.88894 -6.52301 0
M  V30 7733 H 702.596 3.80021 -5.34715 0
M  V30 7734 H 702.513 3.06105 -6.91257 0
M  V30 7735 H 703.781 4.19902 -6.56737 0
M  V30 7736 N 708.01 1.57248 0.105221 0
M  V30 7737 C 708.958 2.02337 1.14728 0
M  V30 7738 C 709.952 0.922652 1.42069 0
M  V30 7739 O 711.158 1.10785 1.41869 0
M  V30 7740 H 707.533 0.644682 0.387155 0
M  V30 7741 H 709.504 2.89063 0.740607 0
M  V30 7742 C 708.253 2.45513 2.46209 0
M  V30 7743 H 707.576 3.29785 2.26013 0
M  V30 7744 H 709.016 2.80846 3.1765 0
M  V30 7745 C 707.475 1.3243 3.09781 0
M  V30 7746 O 708.005 0.647841 3.96442 0
M  V30 7747 N 706.211 1.07785 2.69872 0
M  V30 7748 H 705.758 1.62973 1.99493 0
M  V30 7749 H 705.716 0.323204 3.12734 0
M  V30 7750 N 709.488 -0.375779 1.53054 0
M  V30 7751 C 710.418 -1.46598 1.81745 0
M  V30 7752 C 711.399 -1.56337 0.670286 0
M  V30 7753 O 712.584 -1.71071 0.919158 0
M  V30 7754 C 709.714 -2.84058 1.99821 0
M  V30 7755 C 708.668 -2.8915 3.15557 0
M  V30 7756 C 707.994 -4.29187 3.18908 0
M  V30 7757 C 709.294 -2.57595 4.54359 0
M  V30 7758 H 710.988 -1.22837 2.73041 0
M  V30 7759 H 708.534 -0.589485 1.31381 0
M  V30 7760 H 710.487 -3.60342 2.18475 0
M  V30 7761 H 709.211 -3.09184 1.05226 0
M  V30 7762 H 707.87 -2.15316 2.96706 0
M  V30 7763 H 707.518 -4.51374 2.2197 0
M  V30 7764 H 707.218 -4.33512 3.96662 0
M  V30 7765 H 708.742 -5.07359 3.39734 0
M  V30 7766 H 710.156 -3.23595 4.73243 0
M  V30 7767 H 708.553 -2.73252 5.34279 0
M  V30 7768 H 709.623 -1.52882 4.60169 0
M  V30 7769 N 710.966 -1.44241 -0.634997 0
M  V30 7770 C 712.243 -1.37296 -1.39317 0
M  V30 7771 C 712.623 -0.0297532 -2.11079 0
M  V30 7772 O 711.971 0.987524 -2.06059 0
M  V30 7773 C 712.181 -2.56853 -2.36279 0
M  V30 7774 C 713.529 -3.00747 -2.99728 0
M  V30 7775 O 714.553 -2.5703 -2.46605 0
M  V30 7776 O 713.412 -3.76533 -3.96087 0
M  V30 7777 H 710.506 -0.543503 -0.623325 0
M  V30 7778 H 713.052 -1.56324 -0.660376 0
M  V30 7779 H 711.824 -3.46228 -1.82324 0
M  V30 7780 H 711.447 -2.40019 -3.16981 0
M  V30 7781 N 712.444 0.87505 -1.31075 0
M  V30 7782 C 713.394 1.96933 -1.14898 0
M  V30 7783 C 714.378 1.60783 -0.0613703 0
M  V30 7784 O 715.57 1.74678 -0.285751 0
M  V30 7785 C 712.699 3.3253 -0.853166 0
M  V30 7786 C 711.785 3.74963 -1.98151 0
M  V30 7787 N 712.176 3.89403 -3.22799 0
M  V30 7788 C 710.474 4.04436 -1.8801 0
M  V30 7789 C 711.175 4.25563 -3.96574 0
M  V30 7790 N 710.151 4.3597 -3.24701 0
M  V30 7791 H 713.953 2.06201 -2.09424 0
M  V30 7792 H 711.467 1.06551 -1.22558 0
M  V30 7793 H 713.464 4.10666 -0.718266 0
M  V30 7794 H 712.124 3.24592 0.0839218 0
M  V30 7795 H 713.135 3.74266 -3.57974 0
M  V30 7796 H 709.812 4.04915 -1.01733 0
M  V30 7797 H 711.202 4.44375 -5.03965 0
M  V30 7798 N 713.922 1.13953 1.08869 0
M  V30 7799 C 715.333 0.916649 1.62648 0
M  V30 7800 C 715.684 -0.545589 1.88462 0
M  V30 7801 O 714.809 -1.41351 1.63856 0
M  V30 7802 C 715.404 1.65751 2.95486 0
M  V30 7803 C 713.963 1.48034 3.46068 0
M  V30 7804 C 713.11 1.68305 2.20383 0
M  V30 7805 H 716.061 1.292 0.921572 0
M  V30 7806 H 716.082 1.11794 3.63707 0
M  V30 7807 H 715.594 2.72171 2.76667 0
M  V30 7808 H 713.695 0.439416 3.7 0
M  V30 7809 H 713.808 2.24719 4.23129 0
M  V30 7810 H 712.172 1.10833 2.29321 0
M  V30 7811 H 712.955 2.76057 2.04077 0
M  V30 7812 N 715.4 -1.26948 0.933913 0
M  V30 7813 C 716.35 -2.24306 0.408779 0
M  V30 7814 C 717.334 -1.53243 -0.490435 0
M  V30 7815 O 718.526 -1.73956 -0.326866 0
M  V30 7816 C 715.655 -3.41695 -0.331578 0
M  V30 7817 C 714.741 -4.20053 0.58451 0
M  V30 7818 N 715.132 -4.76122 1.70709 0
M  V30 7819 C 713.43 -4.44303 0.388703 0
M  V30 7820 C 714.131 -5.35267 2.27737 0
M  V30 7821 N 713.107 -5.20548 1.56622 0
M  V30 7822 H 716.909 -2.65244 1.26582 0
M  V30 7823 H 714.423 -1.4195 0.788919 0
M  V30 7824 H 716.42 -4.10552 -0.724774 0
M  V30 7825 H 715.08 -3.02286 -1.18547 0
M  V30 7826 H 716.091 -4.73884 2.08937 0
M  V30 7827 H 712.768 -4.15341 -0.424016 0
M  V30 7828 H 714.158 -5.89563 3.22282 0
M  V30 7829 N 716.879 -0.700114 -1.41195 0
M  V30 7830 C 718.128 -0.230082 -2.00383 0
M  V30 7831 C 718.441 1.17857 -1.56106 0
M  V30 7832 O 719.647 1.74631 -2.07885 0
M  V30 7833 C 718.103 -0.360447 -3.5809 0
M  V30 7834 C 717.711 -1.77475 -4.11347 0
M  V30 7835 C 719.455 0.0495799 -4.24471 0
M  V30 7836 C 717.362 -1.85653 -5.61504 0
M  V30 7837 H 716.292 -0.0822633 -0.749499 0
M  V30 7838 H 718.943 -0.868969 -1.6162 0
M  V30 7839 H 717.325 0.346768 -3.94479 0
M  V30 7840 H 718.499 -2.51109 -3.86369 0
M  V30 7841 H 716.814 -2.13486 -3.57509 0
M  V30 7842 H 719.411 0.00898219 -5.34699 0
M  V30 7843 H 719.754 1.08904 -4.01803 0
M  V30 7844 H 720.287 -0.607521 -3.93134 0
M  V30 7845 H 717.026 -2.87667 -5.89006 0
M  V30 7846 H 716.546 -1.1641 -5.88395 0
M  V30 7847 H 718.225 -1.62151 -6.26351 0
M  V30 7848 N 718.357 1.51182 -0.445186 0
M  V30 7849 C 719.603 2.02452 0.11882 0
M  V30 7850 C 719.936 1.32824 1.41673 0
M  V30 7851 O 719.211 0.445637 1.89326 0
M  V30 7852 C 719.494 3.5859 0.329475 0
M  V30 7853 C 719.347 4.38823 -0.987638 0
M  V30 7854 C 720.666 4.26241 1.09575 0
M  V30 7855 H 717.785 0.735819 0.0417092 0
M  V30 7856 H 720.427 1.80747 -0.585718 0
M  V30 7857 H 718.577 3.77214 0.9296 0
M  V30 7858 H 720.249 4.3183 -1.62235 0
M  V30 7859 H 718.492 4.03594 -1.59041 0
M  V30 7860 H 719.163 5.46257 -0.794192 0
M  V30 7861 H 721.639 4.11934 0.587328 0
M  V30 7862 H 720.515 5.35354 1.21191 0
M  V30 7863 H 720.776 3.87635 2.12584 0
M  V30 7864 N 719.835 0.176821 1.56605 0
M  V30 7865 C 720.782 -0.751312 2.18229 0
M  V30 7866 C 721.752 -1.22297 1.12395 0
M  V30 7867 O 722.937 -1.29015 1.40569 0
M  V30 7868 C 720.077 -1.97291 2.83143 0
M  V30 7869 C 719.19 -1.54431 4.03454 0
M  V30 7870 C 718.325 -2.72 4.56278 0
M  V30 7871 C 717.364 -2.25657 5.68986 0
M  V30 7872 N 716.501 -3.36338 6.16296 0
M  V30 7873 H 721.341 -0.219033 2.97194 0
M  V30 7874 H 718.878 -0.0963803 1.46784 0
M  V30 7875 H 720.836 -2.68949 3.1894 0
M  V30 7876 H 719.466 -2.4788 2.06773 0
M  V30 7877 H 718.518 -0.724273 3.73441 0
M  V30 7878 H 719.83 -1.16417 4.85024 0
M  V30 7879 H 718.984 -3.51806 4.94285 0
M  V30 7880 H 717.723 -3.13277 3.73777 0
M  V30 7881 H 716.728 -1.44299 5.30526 0
M  V30 7882 H 717.953 -1.85432 6.53293 0
M  V30 7883 H 715.899 -3.7718 5.36723 0
M  V30 7884 H 715.816 -3.02435 6.9287 0
M  V30 7885 H 717.084 -4.16413 6.58954 0
M  V30 7886 N 721.313 -1.57302 -0.09688 0
M  V30 7887 C 722.243 -2.0497 -1.11846 0
M  V30 7888 C 723.224 -0.938278 -1.41882 0
M  V30 7889 O 724.409 -1.20943 -1.51942 0
M  V30 7890 C 721.539 -2.47264 -2.43881 0
M  V30 7891 C 720.493 -3.62053 -2.28257 0
M  V30 7892 C 719.819 -3.90318 -3.65453 0
M  V30 7893 C 721.119 -4.93005 -1.72461 0
M  V30 7894 H 722.813 -2.90567 -0.721888 0
M  V30 7895 H 720.359 -1.39786 -0.345803 0
M  V30 7896 H 722.312 -2.7922 -3.15617 0
M  V30 7897 H 721.036 -1.58664 -2.8547 0
M  V30 7898 H 719.695 -3.30341 -1.58967 0
M  V30 7899 H 719.343 -2.98889 -4.04567 0
M  V30 7900 H 719.043 -4.67597 -3.55846 0
M  V30 7901 H 720.567 -4.24747 -4.3866 0
M  V30 7902 H 721.981 -5.23354 -2.34036 0
M  V30 7903 H 720.378 -5.74436 -1.73618 0
M  V30 7904 H 721.448 -4.80053 -0.683898 0
M  V30 7905 N 722.791 0.367657 -1.53252 0
M  V30 7906 C 724.04 1.10782 -1.68554 0
M  V30 7907 C 724.353 1.90523 -0.442765 0
M  V30 7908 O 725.559 2.6729 -0.47629 0
M  V30 7909 C 724.015 2.01863 -2.97959 0
M  V30 7910 C 723.623 1.27443 -4.29491 0
M  V30 7911 C 725.367 2.75883 -3.22628 0
M  V30 7912 C 723.274 2.17414 -5.49987 0
M  V30 7913 H 722.204 0.417272 -0.628013 0
M  V30 7914 H 724.855 0.368971 -1.79752 0
M  V30 7915 H 723.237 2.7947 -2.80558 0
M  V30 7916 H 724.411 0.549138 -4.57516 0
M  V30 7917 H 722.726 0.652935 -4.11249 0
M  V30 7918 H 725.323 3.43421 -4.09837 0
M  V30 7919 H 725.666 3.41138 -2.38601 0
M  V30 7920 H 726.199 2.0536 -3.40693 0
M  V30 7921 H 722.938 1.5674 -6.36485 0
M  V30 7922 H 722.458 2.87799 -5.26243 0
M  V30 7923 H 724.137 2.77019 -5.84696 0
M  V30 7924 N 724.269 1.44576 0.627338 0
M  V30 7925 C 725.517 1.47267 1.38408 0
M  V30 7926 C 725.838 0.107971 1.94701 0
M  V30 7927 O 725.108 -0.860206 1.76004 0
M  V30 7928 H 723.688 0.542276 0.513756 0
M  V30 7929 H 726.35 1.80383 0.738099 0
M  V30 7930 H 725.446 2.20025 2.21349 0
M  V30 7931 N 725.747 -0.868086 1.31537 0
M  V30 7932 C 726.996 -1.61607 1.20689 0
M  V30 7933 C 727.309 -1.94204 -0.233275 0
M  V30 7934 O 728.515 -2.67515 -0.463465 0
M  V30 7935 C 726.971 -2.91348 2.11292 0
M  V30 7936 C 726.579 -2.66227 3.60315 0
M  V30 7937 C 728.323 -3.69344 2.09249 0
M  V30 7938 C 726.23 -3.91887 4.42921 0
M  V30 7939 H 725.16 -0.606373 0.448138 0
M  V30 7940 H 727.811 -0.959666 1.56405 0
M  V30 7941 H 726.193 -3.58374 1.68477 0
M  V30 7942 H 727.367 -2.07597 4.11388 0
M  V30 7943 H 725.682 -2.01582 3.64354 0
M  V30 7944 H 728.279 -4.62567 2.68209 0
M  V30 7945 H 728.622 -4.02044 1.0801 0
M  V30 7946 H 729.155 -3.09205 2.50274 0
M  V30 7947 H 725.894 -3.64336 5.44922 0
M  V30 7948 H 725.414 -4.49961 3.96605 0
M  V30 7949 H 727.093 -4.59754 4.55231 0
M  V30 7950 N 727.225 -1.14528 -1.08264 0
M  V30 7951 C 728.474 -0.908992 -1.80056 0
M  V30 7952 C 728.787 0.565859 -1.87236 0
M  V30 7953 O 729.993 0.919454 -2.55457 0
M  V30 7954 C 728.449 -1.57681 -3.23519 0
M  V30 7955 C 728.057 -3.08803 -3.24569 0
M  V30 7956 C 729.801 -1.4217 -3.99985 0
M  V30 7957 C 727.708 -3.68414 -4.62629 0
M  V30 7958 H 726.638 -0.336432 -0.674781 0
M  V30 7959 H 729.289 -1.37437 -1.21587 0
M  V30 7960 H 727.671 -1.03911 -3.82124 0
M  V30 7961 H 728.845 -3.69252 -2.75663 0
M  V30 7962 H 727.16 -3.23968 -2.61598 0
M  V30 7963 H 729.757 -1.84106 -5.02005 0
M  V30 7964 H 730.1 -0.367989 -4.1467 0
M  V30 7965 H 730.633 -1.92984 -3.47853 0
M  V30 7966 H 727.372 -4.73644 -4.53147 0
M  V30 7967 H 726.892 -3.12746 -5.11811 0
M  V30 7968 H 728.571 -3.68793 -5.31602 0
M  V30 7969 N 728.703 1.26451 -0.940633 0
M  V30 7970 C 729.613 2.30128 -0.455881 0
M  V30 7971 C 730.629 1.67536 0.469867 0
M  V30 7972 O 731.805 1.98344 0.349529 0
M  V30 7973 C 728.87 3.45634 0.271648 0
M  V30 7974 C 727.931 4.23709 -0.690594 0
M  V30 7975 C 727.164 5.337 0.00231047 0
M  V30 7976 O 727.387 5.57215 1.21935 0
M  V30 7977 O 726.321 5.98091 -0.676111 0
M  V30 7978 H 730.147 2.73655 -1.31707 0
M  V30 7979 H 727.732 1.3164 -0.706497 0
M  V30 7980 H 729.614 4.15853 0.681486 0
M  V30 7981 H 728.289 3.04138 1.10824 0
M  V30 7982 H 727.196 3.55974 -1.15037 0
M  V30 7983 H 728.529 4.68953 -1.49478 0
M  V30 7984 N 730.181 0.707592 1.40822 0
M  V30 7985 C 731.091 0.0507246 2.34545 0
M  V30 7986 C 732.107 -0.752727 1.56876 0
M  V30 7987 O 733.283 -0.687524 1.89302 0
M  V30 7988 C 730.348 -0.865731 3.35717 0
M  V30 7989 C 729.409 -0.0531313 4.29267 0
M  V30 7990 C 728.642 -0.925939 5.25606 0
M  V30 7991 O 728.865 -2.16531 5.27703 0
M  V30 7992 O 727.799 -0.369194 6.00767 0
M  V30 7993 H 731.625 0.823587 2.9232 0
M  V30 7994 H 729.21 0.46801 1.4188 0
M  V30 7995 H 731.092 -1.39091 3.97783 0
M  V30 7996 H 729.767 -1.61788 2.80368 0
M  V30 7997 H 728.674 0.516931 3.70511 0
M  V30 7998 H 730.007 0.660617 4.87747 0
M  V30 7999 N 731.66 -1.50943 0.453197 0
M  V30 8000 C 732.57 -2.31884 -0.355963 0
M  V30 8001 C 733.586 -1.41481 -1.01287 0
M  V30 8002 O 734.762 -1.74546 -1.00477 0
M  V30 8003 C 731.827 -3.15668 -1.43369 0
M  V30 8004 C 730.888 -4.2187 -0.795253 0
M  V30 8005 C 730.121 -5.0165 -1.82162 0
M  V30 8006 O 730.344 -4.82266 -3.04592 0
M  V30 8007 O 729.278 -5.85311 -1.40336 0
M  V30 8008 H 733.104 -3.02162 0.305248 0
M  V30 8009 H 730.689 -1.47839 0.215398 0
M  V30 8010 H 732.571 -3.67709 -2.05836 0
M  V30 8011 H 731.246 -2.48137 -2.07869 0
M  V30 8012 H 730.153 -3.73867 -0.132106 0
M  V30 8013 H 731.486 -4.9182 -0.193484 0
M  V30 8014 N 733.138 -0.185124 -1.56509 0
M  V30 8015 C 734.549 0.329221 -1.83774 0
M  V30 8016 C 734.9 1.62093 -1.10545 0
M  V30 8017 O 734.025 2.13334 -0.36298 0
M  V30 8018 C 734.62 0.604099 -3.33371 0
M  V30 8019 C 733.179 1.06284 -3.61083 0
M  V30 8020 C 732.326 0.10608 -2.77097 0
M  V30 8021 H 735.277 -0.409116 -1.53336 0
M  V30 8022 H 735.298 1.45458 -3.51599 0
M  V30 8023 H 734.81 -0.336201 -3.86641 0
M  V30 8024 H 732.911 2.01777 -3.13236 0
M  V30 8025 H 733.024 0.962453 -4.69333 0
M  V30 8026 H 731.388 0.606082 -2.47384 0
M  V30 8027 H 732.171 -0.828486 -3.33153 0
M  V30 8028 N 734.616 1.57351 0.0885366 0
M  V30 8029 C 735.844 1.90631 0.804196 0
M  V30 8030 C 736.259 0.779474 1.71958 0
M  V30 8031 O 735.616 -0.248179 1.80805 0
M  V30 8032 C 735.667 3.23568 1.61202 0
M  V30 8033 O 735.388 4.31917 0.733447 0
M  V30 8034 C 736.889 3.70753 2.43016 0
M  V30 8035 H 734.109 0.630501 0.229585 0
M  V30 8036 H 736.653 2.044 0.0638092 0
M  V30 8037 H 734.808 3.11377 2.30485 0
M  V30 8038 H 735.222 5.08297 1.29361 0
M  V30 8039 H 736.696 4.66447 2.9518 0
M  V30 8040 H 737.173 2.98922 3.2178 0
M  V30 8041 H 737.779 3.85834 1.7892 0
M  V30 8042 N 736.094 -0.359525 1.53444 0
M  V30 8043 C 737.34 -1.09958 1.71116 0
M  V30 8044 C 737.695 -1.8681 0.460414 0
M  V30 8045 O 736.988 -1.83635 -0.5467 0
M  V30 8046 C 737.182 -2.08287 2.90433 0
M  V30 8047 C 737.011 -1.41098 4.26991 0
M  V30 8048 C 735.781 -1.16255 4.91745 0
M  V30 8049 C 737.979 -0.845517 5.07302 0
M  V30 8050 N 735.961 -0.454798 6.12213 0
M  V30 8051 C 737.332 -0.267455 6.19423 0
M  V30 8052 C 739.387 -0.744797 4.92298 0
M  V30 8053 C 738.09 0.401511 7.18179 0
M  V30 8054 C 740.116 -0.0896013 5.91332 0
M  V30 8055 C 739.478 0.47756 7.02779 0
M  V30 8056 H 735.577 -0.387305 0.679352 0
M  V30 8057 H 738.161 -0.38519 1.90852 0
M  V30 8058 H 736.332 -2.77034 2.72226 0
M  V30 8059 H 738.064 -2.75015 2.96899 0
M  V30 8060 H 734.819 -1.44544 4.51003 0
M  V30 8061 H 735.243 -0.116108 6.769 0
M  V30 8062 H 739.885 -1.16905 4.06317 0
M  V30 8063 H 737.603 0.837694 8.03746 0
M  V30 8064 H 741.189 -0.0125162 5.81799 0
M  V30 8065 H 740.069 0.976522 7.78096 0
M  V30 8066 N 737.572 -1.44907 -0.619662 0
M  V30 8067 C 738.821 -1.47569 -1.37501 0
M  V30 8068 C 739.134 -0.116707 -1.95252 0
M  V30 8069 O 740.34 -0.020909 -2.71492 0
M  V30 8070 C 738.796 -2.59851 -2.49009 0
M  V30 8071 C 738.404 -4.02008 -1.97722 0
M  V30 8072 C 740.148 -2.71746 -3.2612 0
M  V30 8073 C 738.055 -5.05693 -3.0664 0
M  V30 8074 H 736.985 -0.549068 -0.51676 0
M  V30 8075 H 739.636 -1.71009 -0.665437 0
M  V30 8076 H 738.018 -2.29671 -3.22594 0
M  V30 8077 H 739.192 -4.41809 -1.30925 0
M  V30 8078 H 737.507 -3.94456 -1.33392 0
M  V30 8079 H 740.104 -3.46382 -4.07337 0
M  V30 8080 H 740.447 -1.77959 -3.76346 0
M  V30 8081 H 740.98 -3.01392 -2.5963 0
M  V30 8082 H 737.719 -6.01148 -2.61345 0
M  V30 8083 H 737.239 -4.70473 -3.72042 0
M  V30 8084 H 738.918 -5.29906 -3.71226 0
M  V30 8085 N 739.05 0.861098 -1.31996 0
M  V30 8086 C 740.299 1.60965 -1.21545 0
M  V30 8087 C 740.612 1.94325 0.222972 0
M  V30 8088 O 741.818 2.67757 0.449272 0
M  V30 8089 C 740.274 2.90223 -2.12834 0
M  V30 8090 C 739.882 2.64313 -3.61722 0
M  V30 8091 C 741.626 3.68229 -2.11205 0
M  V30 8092 C 739.533 3.89532 -4.44993 0
M  V30 8093 H 738.463 0.603988 -0.451348 0
M  V30 8094 H 741.114 0.951358 -1.56912 0
M  V30 8095 H 739.496 3.57475 -1.70375 0
M  V30 8096 H 740.67 2.05413 -4.12483 0
M  V30 8097 H 738.985 1.99647 -3.65418 0
M  V30 8098 H 741.582 4.61138 -2.70658 0
M  V30 8099 H 741.925 4.01466 -1.1014 0
M  V30 8100 H 742.458 3.07873 -2.51911 0
M  V30 8101 H 739.197 3.61441 -5.46846 0
M  V30 8102 H 738.717 4.47851 -3.98985 0
M  V30 8103 H 740.396 4.57334 -4.57663 0
M  V30 8104 N 740.528 1.15101 1.07655 0
M  V30 8105 C 741.461 0.788522 2.14144 0
M  V30 8106 C 742.439 -0.233635 1.60913 0
M  V30 8107 O 743.623 -0.120908 1.88112 0
M  V30 8108 C 740.75 0.172033 3.38263 0
M  V30 8109 C 739.796 1.16559 4.10264 0
M  V30 8110 S 740.629 2.70627 4.62084 0
M  V30 8111 C 741.785 2.10389 5.8948 0
M  V30 8112 H 742.018 1.69047 2.44561 0
M  V30 8113 H 739.551 0.973033 1.19881 0
M  V30 8114 H 741.509 -0.177223 4.10117 0
M  V30 8115 H 740.17 -0.707468 3.06029 0
M  V30 8116 H 739.363 0.6824 4.99359 0
M  V30 8117 H 738.965 1.45923 3.44358 0
M  V30 8118 H 741.257 1.46405 6.61492 0
M  V30 8119 H 742.2 2.97639 6.42508 0
M  V30 8120 H 742.608 1.54816 5.42856 0
M  V30 8121 N 742.006 -1.2595 0.947325 0
M  V30 8122 C 742.916 -2.29883 0.468079 0
M  V30 8123 C 743.932 -1.67783 -0.460975 0
M  V30 8124 O 745.108 -1.98526 -0.339006 0
M  V30 8125 C 742.173 -3.45773 -0.253315 0
M  V30 8126 C 741.234 -4.23337 0.713054 0
M  V30 8127 C 740.467 -5.33694 0.025993 0
M  V30 8128 O 740.69 -5.57853 -1.18978 0
M  V30 8129 O 739.624 -5.97724 0.70782 0
M  V30 8130 H 743.45 -2.72952 1.33156 0
M  V30 8131 H 741.035 -1.31263 0.713468 0
M  V30 8132 H 742.917 -4.16209 -0.659423 0
M  V30 8133 H 741.592 -3.04721 -1.09209 0
M  V30 8134 H 740.499 -3.55359 1.16923 0
M  V30 8135 H 741.832 -4.68154 1.51963 0
M  V30 8136 N 743.484 -0.715051 -1.40445 0
M  V30 8137 C 744.414 -0.0768699 -2.33373 0
M  V30 8138 C 745.395 0.746109 -1.52863 0
M  V30 8139 O 746.58 0.695142 -1.81332 0
M  V30 8140 C 743.71 0.846014 -3.36838 0
M  V30 8141 C 742.664 0.128694 -4.27806 0
M  V30 8142 C 741.99 1.16726 -5.21804 0
M  V30 8143 C 743.29 -1.01679 -5.12307 0
M  V30 8144 H 744.984 -0.853061 -2.8699 0
M  V30 8145 H 742.53 -0.41167 -1.3799 0
M  V30 8146 H 744.483 1.30185 -4.00786 0
M  V30 8147 H 743.207 1.6541 -2.81615 0
M  V30 8148 H 741.866 -0.307314 -3.6531 0
M  V30 8149 H 741.514 1.96838 -4.62887 0
M  V30 8150 H 741.214 0.692188 -5.83509 0
M  V30 8151 H 742.738 1.62321 -5.88629 0
M  V30 8152 H 744.152 -0.640337 -5.69713 0
M  V30 8153 H 742.549 -1.4202 -5.83053 0
M  V30 8154 H 743.619 -1.84769 -4.48317 0
M  V30 8155 N 744.962 1.50701 -0.461195 0
M  V30 8156 C 746.192 2.06381 0.0950376 0
M  V30 8157 C 746.6 1.32627 1.34933 0
M  V30 8158 O 745.943 0.386137 1.79596 0
M  V30 8159 C 746.005 3.56558 0.458965 0
M  V30 8160 C 745.669 4.51732 -0.691891 0
M  V30 8161 C 746.666 4.95594 -1.57105 0
M  V30 8162 C 744.351 4.94542 -0.879407 0
M  V30 8163 C 746.345 5.80963 -2.62223 0
M  V30 8164 C 744.032 5.79695 -1.93382 0
M  V30 8165 C 745.03 6.22806 -2.80359 0
M  V30 8166 O 744.718 7.06265 -3.83986 0
M  V30 8167 H 744.45 0.676 0.000687488 0
M  V30 8168 H 747.004 1.94974 -0.646087 0
M  V30 8169 H 745.234 3.65832 1.25314 0
M  V30 8170 H 746.923 3.94647 0.949124 0
M  V30 8171 H 747.689 4.63197 -1.43783 0
M  V30 8172 H 743.568 4.60513 -0.211907 0
M  V30 8173 H 747.112 6.14533 -3.30143 0
M  V30 8174 H 743.009 6.11506 -2.06715 0
M  V30 8175 H 743.777 7.24494 -3.80855 0
M  V30 8176 N 746.441 0.193421 1.56409 0
M  V30 8177 C 747.852 -0.319471 1.83946 0
M  V30 8178 C 748.203 -1.61505 1.11403 0
M  V30 8179 O 747.328 -2.13139 0.374289 0
M  V30 8180 C 747.923 -0.586411 3.33686 0
M  V30 8181 C 746.482 -1.04368 3.61641 0
M  V30 8182 C 745.629 -0.0913834 2.77149 0
M  V30 8183 H 748.58 0.417242 1.53117 0
M  V30 8184 H 748.601 -1.43591 3.52366 0
M  V30 8185 H 748.113 0.356701 3.86457 0
M  V30 8186 H 746.214 -2.00113 3.14302 0
M  V30 8187 H 746.327 -0.937549 4.69837 0
M  V30 8188 H 744.691 -0.592954 2.47702 0
M  V30 8189 H 745.474 0.846142 3.32709 0
M  V30 8190 N 747.919 -1.57396 -0.0801906 0
M  V30 8191 C 749.149 -1.90778 -0.792924 0
M  V30 8192 C 749.557 -0.786814 -1.72064 0
M  V30 8193 O 748.9 0.249259 -1.82001 0
M  V30 8194 C 748.962 -3.19552 -1.64702 0
M  V30 8195 C 748.626 -4.48259 -0.889567 0
M  V30 8196 C 749.623 -5.19465 -0.212602 0
M  V30 8197 C 747.308 -4.94896 -0.859229 0
M  V30 8198 C 749.302 -6.35555 0.484566 0
M  V30 8199 C 746.989 -6.10895 -0.158284 0
M  V30 8200 C 747.987 -6.81075 0.512421 0
M  V30 8201 O 747.675 -7.94862 1.20209 0
M  V30 8202 H 747.407 -0.63527 -0.231103 0
M  V30 8203 H 749.961 -2.0532 -0.0573081 0
M  V30 8204 H 748.191 -3.01196 -2.42524 0
M  V30 8205 H 749.88 -3.38649 -2.23767 0
M  V30 8206 H 750.646 -4.84467 -0.227403 0
M  V30 8207 H 746.525 -4.4015 -1.37073 0
M  V30 8208 H 750.069 -6.9027 1.00864 0
M  V30 8209 H 745.966 -6.45345 -0.141381 0
M  V30 8210 H 746.734 -8.10932 1.11051 0
M  V30 8211 N 749.397 0.351382 -1.53633 0
M  V30 8212 C 750.645 1.09034 -1.70165 0
M  V30 8213 C 750.966 1.89413 -0.463422 0
M  V30 8214 O 750.236 1.888 0.522624 0
M  V30 8215 H 748.816 0.405522 -0.627344 0
M  V30 8216 H 751.478 0.394554 -1.90865 0
M  V30 8217 H 750.574 1.77215 -2.56907 0
M  V30 8218 N 750.875 1.45233 0.611969 0
M  V30 8219 C 751.785 1.56098 1.7513 0
M  V30 8220 C 752.801 0.445646 1.68196 0
M  V30 8221 O 753.977 0.705718 1.88631 0
M  V30 8222 C 751.042 1.52052 3.11579 0
M  V30 8223 C 750.103 2.74589 3.29999 0
M  V30 8224 C 749.336 2.70726 4.59938 0
M  V30 8225 O 749.559 1.77806 5.41979 0
M  V30 8226 O 748.493 3.61864 4.80976 0
M  V30 8227 H 752.319 2.52392 1.68914 0
M  V30 8228 H 749.904 1.27695 0.775528 0
M  V30 8229 H 751.786 1.52387 3.92882 0
M  V30 8230 H 750.461 0.589085 3.18295 0
M  V30 8231 H 749.368 2.79817 2.48301 0
M  V30 8232 H 750.701 3.66843 3.28157 0
M  V30 8233 N 752.353 -0.854086 1.3245 0
M  V30 8234 C 753.283 -1.97827 1.24044 0
M  V30 8235 C 754.264 -1.69646 0.124166 0
M  V30 8236 O 755.449 -1.91687 0.31143 0
M  V30 8237 C 752.579 -3.33673 0.963324 0
M  V30 8238 C 751.533 -3.76207 2.04089 0
M  V30 8239 C 750.859 -5.0969 1.61618 0
M  V30 8240 C 752.159 -3.91612 3.45597 0
M  V30 8241 H 753.853 -2.05118 2.18099 0
M  V30 8242 H 751.399 -0.985489 1.04996 0
M  V30 8243 H 753.352 -4.11871 0.891061 0
M  V30 8244 H 752.076 -3.26597 -0.0128649 0
M  V30 8245 H 750.735 -3.0026 2.10332 0
M  V30 8246 H 750.383 -4.99072 0.627418 0
M  V30 8247 H 750.083 -5.3912 2.33717 0
M  V30 8248 H 751.607 -5.90381 1.55829 0
M  V30 8249 H 753.021 -4.60163 3.4194 0
M  V30 8250 H 751.418 -4.3246 4.16051 0
M  V30 8251 H 752.488 -2.9451 3.85217 0
M  V30 8252 N 753.831 -1.1567 -1.07043 0
M  V30 8253 C 755.079 -0.931673 -1.79344 0
M  V30 8254 C 755.4 0.542421 -1.87304 0
M  V30 8255 O 754.67 1.39418 -1.37621 0
M  V30 8256 H 753.25 -0.34171 -0.664262 0
M  V30 8257 H 755.912 -1.45795 -1.29344 0
M  V30 8258 H 755.008 -1.34379 -2.81689 0
M  V30 8259 N 755.309 1.25446 -0.953992 0
M  V30 8260 C 756.259 2.23627 -0.444413 0
M  V30 8261 C 757.243 1.54004 0.465993 0
M  V30 8262 O 758.435 1.74454 0.29915 0
M  V30 8263 C 755.564 3.42179 0.277175 0
M  V30 8264 C 754.65 4.1907 -0.651263 0
M  V30 8265 N 755.041 4.73346 -1.78262 0
M  V30 8266 C 753.339 4.43628 -0.459338 0
M  V30 8267 C 754.04 5.31576 -2.36224 0
M  V30 8268 N 753.016 5.17991 -1.64884 0
M  V30 8269 H 756.818 2.63197 -1.30785 0
M  V30 8270 H 754.332 1.40677 -0.811402 0
M  V30 8271 H 756.329 4.11653 0.659367 0
M  V30 8272 H 754.989 3.04134 1.13723 0
M  V30 8273 H 756 4.705 -2.1645 0
M  V30 8274 H 752.677 4.15963 0.357885 0
M  V30 8275 H 754.067 5.84361 -3.3162 0
M  V30 8276 N 756.787 0.722489 1.40064 0
M  V30 8277 C 758.017 0.274439 2.04769 0
M  V30 8278 C 758.425 -1.09125 1.54559 0
M  V30 8279 O 757.768 -1.69834 0.700149 0
M  V30 8280 C 757.83 0.184091 3.59028 0
M  V30 8281 C 757.494 1.48619 4.32159 0
M  V30 8282 C 758.491 2.42947 4.59644 0
M  V30 8283 C 756.176 1.74703 4.7094 0
M  V30 8284 C 758.17 3.616 5.24904 0
M  V30 8285 C 755.857 2.93636 5.3593 0
M  V30 8286 C 756.855 3.86907 5.62843 0
M  V30 8287 O 756.543 5.03753 6.26489 0
M  V30 8288 H 756.275 0.119847 0.665292 0
M  V30 8289 H 758.829 0.983352 1.80331 0
M  V30 8290 H 757.059 -0.580821 3.82313 0
M  V30 8291 H 758.748 -0.230306 4.05246 0
M  V30 8292 H 759.514 2.24062 4.30141 0
M  V30 8293 H 755.393 1.02955 4.49356 0
M  V30 8294 H 758.937 4.34418 5.45827 0
M  V30 8295 H 754.834 3.12428 5.64853 0
M  V30 8296 H 755.602 5.03922 6.44984 0
M  V30 8297 N 758.265 -1.50454 0.469181 0
M  V30 8298 C 759.195 -2.31353 -0.31592 0
M  V30 8299 C 760.176 -1.38172 -0.992094 0
M  V30 8300 O 761.361 -1.67093 -0.989633 0
M  V30 8301 C 758.491 -3.1786 -1.39937 0
M  V30 8302 C 757.445 -4.19578 -0.844909 0
M  V30 8303 C 756.771 -4.9481 -2.0265 0
M  V30 8304 C 758.071 -5.22106 0.142499 0
M  V30 8305 H 759.765 -2.97237 0.359269 0
M  V30 8306 H 757.311 -1.42942 0.174224 0
M  V30 8307 H 759.264 -3.7325 -1.95607 0
M  V30 8308 H 757.988 -2.49858 -2.1033 0
M  V30 8309 H 756.647 -3.65285 -0.310189 0
M  V30 8310 H 756.295 -4.23282 -2.71737 0
M  V30 8311 H 755.995 -5.63613 -1.66174 0
M  V30 8312 H 757.519 -5.53035 -2.58815 0
M  V30 8313 H 758.933 -5.72378 -0.324966 0
M  V30 8314 H 757.33 -5.98618 0.421441 0
M  V30 8315 H 758.4 -4.7297 1.06901 0
M  V30 8316 N 759.743 -0.201713 -1.56304 0
M  V30 8317 C 760.653 0.728296 -2.23009 0
M  V30 8318 C 761.669 1.22945 -1.23128 0
M  V30 8319 O 762.845 1.27523 -1.55884 0
M  V30 8320 C 759.91 1.92792 -2.88153 0
M  V30 8321 C 758.971 1.47068 -4.03323 0
M  V30 8322 C 758.204 2.61312 -4.65351 0
M  V30 8323 O 758.427 3.7896 -4.26317 0
M  V30 8324 O 757.361 2.33646 -5.54701 0
M  V30 8325 H 761.187 0.190166 -3.03104 0
M  V30 8326 H 758.772 0.0278725 -1.49374 0
M  V30 8327 H 760.654 2.6289 -3.29343 0
M  V30 8328 H 759.329 2.45452 -2.11033 0
M  V30 8329 H 758.236 0.738299 -3.66742 0
M  V30 8330 H 759.569 0.990666 -4.82127 0
M  V30 8331 N 761.222 1.57436 0.0718424 0
M  V30 8332 C 762.638 1.53792 0.426628 0
M  V30 8333 C 762.838 0.921887 1.79174 0
M  V30 8334 O 761.894 0.524374 2.46995 0
M  V30 8335 C 763.207 2.98443 0.367739 0
M  V30 8336 C 764.755 3.09778 0.447928 0
M  V30 8337 C 765.23 4.5608 0.418946 0
M  V30 8338 N 766.721 4.60716 0.479022 0
M  V30 8339 C 767.456 5.71397 0.47881 0
M  V30 8340 N 766.952 6.91443 0.433417 0
M  V30 8341 N 768.745 5.59639 0.525364 0
M  V30 8342 H 760.896 1.95848 -0.822033 0
M  V30 8343 H 763.159 0.896418 -0.308447 0
M  V30 8344 H 762.865 3.47072 -0.56865 0
M  V30 8345 H 762.739 3.58335 1.17795 0
M  V30 8346 H 765.126 2.61122 1.37474 0
M  V30 8347 H 765.207 2.52796 -0.390857 0
M  V30 8348 H 764.851 5.05393 -0.504016 0
M  V30 8349 H 764.781 5.10925 1.27526 0
M  V30 8350 H 767.272 3.74328 0.518355 0
M  V30 8351 H 767.585 7.71562 0.43718 0
M  V30 8352 H 765.93 6.93847 0.400106 0
M  V30 8353 H 769.121 4.64756 0.558519 0
M  V30 8354 H 769.294 6.45896 0.52173 0
M  V30 8355 N 762.7 -0.34323 1.53817 0
M  V30 8356 C 763.648 -1.44176 1.82527 0
M  V30 8357 C 764.642 -1.54452 0.695772 0
M  V30 8358 O 765.848 -1.57072 0.879114 0
M  V30 8359 H 762.223 -0.480729 0.578277 0
M  V30 8360 H 764.194 -1.17176 2.74431 0
M  V30 8361 C 762.943 -2.80695 2.05197 0
M  V30 8362 H 762.266 -2.73554 2.91561 0
M  V30 8363 H 763.706 -3.56679 2.29251 0
M  V30 8364 C 762.165 -3.26322 0.837589 0
M  V30 8365 O 762.695 -4.01683 0.0371631 0
M  V30 8366 N 760.901 -2.83128 0.654724 0
M  V30 8367 H 760.448 -2.21965 1.30725 0
M  V30 8368 H 760.406 -3.14011 -0.156345 0
M  V30 8369 N 764.178 -1.45556 -0.604258 0
M  V30 8370 C 765.125 -1.54482 -1.71476 0
M  V30 8371 C 766.095 -0.390479 -1.61445 0
M  V30 8372 O 767.28 -0.604371 -1.80975 0
M  V30 8373 C 764.42 -1.52064 -3.09791 0
M  V30 8374 C 763.533 -2.78073 -3.30604 0
M  V30 8375 C 762.668 -2.67304 -4.59044 0
M  V30 8376 C 761.707 -3.88352 -4.73127 0
M  V30 8377 N 760.844 -3.76098 -5.9287 0
M  V30 8378 H 765.684 -2.49349 -1.63184 0
M  V30 8379 H 763.221 -1.23725 -0.795641 0
M  V30 8380 H 765.179 -1.48649 -3.89819 0
M  V30 8381 H 763.809 -0.607442 -3.17033 0
M  V30 8382 H 762.861 -2.91561 -2.44329 0
M  V30 8383 H 764.173 -3.67847 -3.36883 0
M  V30 8384 H 763.327 -2.61875 -5.47272 0
M  V30 8385 H 762.066 -1.75135 -4.55169 0
M  V30 8386 H 761.071 -3.94137 -3.83322 0
M  V30 8387 H 762.296 -4.81591 -4.78797 0
M  V30 8388 H 760.242 -2.867 -5.90033 0
M  V30 8389 H 760.159 -4.59509 -6.00323 0
M  V30 8390 H 761.427 -3.74607 -6.83586 0
M  V30 8391 N 765.656 0.84705 -1.32902 0
M  V30 8392 C 766.604 1.97765 -1.22441 0
M  V30 8393 C 767.598 1.68919 -0.127546 0
M  V30 8394 O 768.804 1.77633 -0.290973 0
M  V30 8395 H 765.179 0.649072 -0.379748 0
M  V30 8396 H 767.15 2.03713 -2.18044 0
M  V30 8397 C 765.899 3.33834 -0.972125 0
M  V30 8398 H 765.222 3.56564 -1.80837 0
M  V30 8399 H 766.662 4.13467 -0.939209 0
M  V30 8400 C 765.121 3.35328 0.325059 0
M  V30 8401 O 765.651 3.78887 1.33445 0
M  V30 8402 N 763.857 2.88488 0.349718 0
M  V30 8403 H 763.404 2.53234 -0.472236 0
M  V30 8404 H 763.362 2.8987 1.21748 0
M  V30 8405 N 767.134 1.16236 1.06428 0
M  V30 8406 C 768.359 0.967688 1.83441 0
M  V30 8407 C 768.784 -0.479167 1.81894 0
M  V30 8408 O 768.142 -1.34224 1.21875 0
M  V30 8409 C 768.19 1.49806 3.2801 0
M  V30 8410 O 767.294 0.703481 4.06356 0
M  V30 8411 H 766.635 0.344468 0.56766 0
M  V30 8412 H 769.165 1.54442 1.34197 0
M  V30 8413 H 769.175 1.51495 3.78831 0
M  V30 8414 H 767.85 2.55133 3.2845 0
M  V30 8415 H 766.427 0.756986 3.65136 0
M  V30 8416 N 768.612 -1.24939 0.960631 0
M  V30 8417 C 769.542 -2.28 0.503815 0
M  V30 8418 C 770.523 -1.63959 -0.452928 0
M  V30 8419 O 771.708 -1.91009 -0.350585 0
M  V30 8420 C 768.838 -3.46643 -0.213535 0
M  V30 8421 C 767.792 -4.22903 0.658535 0
M  V30 8422 C 767.118 -5.34363 -0.189902 0
M  V30 8423 C 768.418 -4.84949 1.93963 0
M  V30 8424 H 770.112 -2.66462 1.36521 0
M  V30 8425 H 767.658 -1.28093 0.657897 0
M  V30 8426 H 769.611 -4.1787 -0.544286 0
M  V30 8427 H 768.335 -3.07187 -1.10923 0
M  V30 8428 H 766.994 -3.53467 0.972455 0
M  V30 8429 H 766.642 -4.91147 -1.08553 0
M  V30 8430 H 766.342 -5.86302 0.390331 0
M  V30 8431 H 767.866 -6.0842 -0.515484 0
M  V30 8432 H 769.28 -5.48288 1.67491 0
M  V30 8433 H 767.677 -5.47091 2.46601 0
M  V30 8434 H 768.747 -4.06799 2.639 0
M  V30 8435 N 770.09 -0.729906 -1.39679 0
M  V30 8436 C 771.037 -0.0866063 -2.30637 0
M  V30 8437 C 772.007 0.735115 -1.48947 0
M  V30 8438 O 773.192 0.696125 -1.77648 0
M  V30 8439 C 770.332 0.818524 -3.35252 0
M  V30 8440 C 769.445 -0.0152635 -4.31997 0
M  V30 8441 C 768.58 0.890669 -5.2368 0
M  V30 8442 C 767.619 0.0518246 -6.12078 0
M  V30 8443 N 766.756 0.913411 -6.96133 0
M  V30 8444 H 771.596 -0.867925 -2.85081 0
M  V30 8445 H 769.133 -0.439673 -1.40376 0
M  V30 8446 H 771.091 1.3577 -3.9449 0
M  V30 8447 H 769.721 1.56587 -2.82277 0
M  V30 8448 H 768.773 -0.671794 -3.74421 0
M  V30 8449 H 770.085 -0.664086 -4.9436 0
M  V30 8450 H 769.239 1.49787 -5.87919 0
M  V30 8451 H 767.978 1.57328 -4.61627 0
M  V30 8452 H 766.983 -0.568209 -5.46856 0
M  V30 8453 H 768.208 -0.627497 -6.76195 0
M  V30 8454 H 766.154 1.58141 -6.36653 0
M  V30 8455 H 766.071 0.320952 -7.55318 0
M  V30 8456 H 767.339 1.50633 -7.64807 0
M  V30 8457 N 771.568 1.50203 -0.477153 0
M  V30 8458 C 772.814 2.02658 0.0758507 0
M  V30 8459 C 773.147 1.358 1.38824 0
M  V30 8460 O 772.422 0.485696 1.88338 0
M  V30 8461 C 772.705 3.59208 0.253339 0
M  V30 8462 C 772.558 4.36629 -1.0805 0
M  V30 8463 C 773.877 4.28469 1.00509 0
M  V30 8464 H 770.996 0.736538 0.0260921 0
M  V30 8465 H 773.638 1.79464 -0.623925 0
M  V30 8466 H 771.788 3.79101 0.849378 0
M  V30 8467 H 773.46 4.28292 -1.71358 0
M  V30 8468 H 771.703 4.0013 -1.67566 0
M  V30 8469 H 772.374 5.44449 -0.909883 0
M  V30 8470 H 774.85 4.13087 0.499818 0
M  V30 8471 H 773.726 5.37804 1.09808 0
M  V30 8472 H 773.987 3.92057 2.04314 0
M  V30 8473 N 773.046 0.209999 1.56195 0
M  V30 8474 C 773.976 -0.699746 2.22769 0
M  V30 8475 C 774.957 -1.20993 1.1956 0
M  V30 8476 O 776.142 -1.25605 1.48112 0
M  V30 8477 C 773.272 -1.91302 2.89863 0
M  V30 8478 C 772.226 -1.53715 3.99444 0
M  V30 8479 C 771.552 -2.82826 4.53777 0
M  V30 8480 C 772.852 -0.735836 5.17091 0
M  V30 8481 H 774.546 -0.144716 2.9905 0
M  V30 8482 H 772.092 -0.0681645 1.43839 0
M  V30 8483 H 774.045 -2.5548 3.35124 0
M  V30 8484 H 772.769 -2.49283 2.11011 0
M  V30 8485 H 771.428 -0.918892 3.54897 0
M  V30 8486 H 771.076 -3.38927 3.71669 0
M  V30 8487 H 770.776 -2.58415 5.27727 0
M  V30 8488 H 772.3 -3.47966 5.01749 0
M  V30 8489 H 773.714 -1.28105 5.58804 0
M  V30 8490 H 772.111 -0.589272 5.972 0
M  V30 8491 H 773.181 0.260004 4.84202 0
M  V30 8492 N 774.524 -1.57472 -0.0634922 0
M  V30 8493 C 775.752 -1.91887 -0.773767 0
M  V30 8494 C 776.167 -0.806733 -1.70696 0
M  V30 8495 O 775.524 0.219383 -1.81177 0
M  V30 8496 C 775.575 -3.26092 -1.56034 0
M  V30 8497 O 775.296 -4.33029 -0.66464 0
M  V30 8498 C 776.797 -3.74573 -2.37087 0
M  V30 8499 H 774.017 -0.634074 -0.219525 0
M  V30 8500 H 776.561 -2.04476 -0.0312828 0
M  V30 8501 H 774.716 -3.15004 -2.25502 0
M  V30 8502 H 775.13 -5.10291 -1.21258 0
M  V30 8503 H 776.604 -4.71084 -2.87722 0
M  V30 8504 H 777.081 -3.04003 -3.16984 0
M  V30 8505 H 777.687 -3.88631 -1.72759 0
M  V30 8506 N 776.003 0.335068 -1.53997 0
M  V30 8507 C 776.933 1.41727 -1.85568 0
M  V30 8508 C 777.914 1.54505 -0.7115 0
M  V30 8509 O 779.099 1.68573 -0.964191 0
M  V30 8510 C 776.229 2.7866 -2.07282 0
M  V30 8511 C 775.183 2.80682 -3.23112 0
M  V30 8512 C 774.509 4.20581 -3.30175 0
M  V30 8513 C 775.809 2.45458 -4.61029 0
M  V30 8514 H 777.503 1.15555 -2.76202 0
M  V30 8515 H 775.049 0.554445 -1.32898 0
M  V30 8516 H 777.002 3.54423 -2.27952 0
M  V30 8517 H 775.726 3.06286 -1.13387 0
M  V30 8518 H 774.385 2.07373 -3.02311 0
M  V30 8519 H 774.033 4.4533 -2.33859 0
M  V30 8520 H 773.733 4.22843 -4.08016 0
M  V30 8521 H 775.257 4.98174 -3.53066 0
M  V30 8522 H 776.671 3.10934 -4.81656 0
M  V30 8523 H 775.068 2.5899 -5.41336 0
M  V30 8524 H 776.138 1.40628 -4.6406 0
M  V30 8525 N 777.481 1.45874 0.596531 0
M  V30 8526 C 778.727 1.5069 1.35722 0
M  V30 8527 C 779.06 0.152506 1.936 0
M  V30 8528 O 778.335 -0.834411 1.75692 0
M  V30 8529 C 778.618 2.59474 2.4969 0
M  V30 8530 C 778.471 4.04396 1.96937 0
M  V30 8531 C 779.79 2.64451 3.51787 0
M  V30 8532 H 776.909 0.548611 0.492133 0
M  V30 8533 H 779.551 1.77741 0.671428 0
M  V30 8534 H 777.701 2.36539 3.08191 0
M  V30 8535 H 779.373 4.38576 1.43 0
M  V30 8536 H 777.616 4.14529 1.27859 0
M  V30 8537 H 778.287 4.76218 2.79143 0
M  V30 8538 H 780.763 2.85031 3.03145 0
M  V30 8539 H 779.639 3.42411 4.29006 0
M  V30 8540 H 779.9 1.69965 4.08123 0
M  V30 8541 N 778.959 -0.83999 1.33349 0
M  V30 8542 C 779.889 -1.965 1.26135 0
M  V30 8543 C 780.87 -1.69505 0.142152 0
M  V30 8544 O 782.055 -1.91346 0.331743 0
M  V30 8545 C 779.185 -3.32632 0.99866 0
M  V30 8546 C 778.139 -3.74021 2.08068 0
M  V30 8547 C 777.465 -5.07947 1.67014 0
M  V30 8548 C 778.765 -3.87925 3.49731 0
M  V30 8549 H 780.459 -2.02793 2.20262 0
M  V30 8550 H 778.005 -0.974297 1.06035 0
M  V30 8551 H 779.958 -4.10903 0.934696 0
M  V30 8552 H 778.682 -3.26593 0.0217759 0
M  V30 8553 H 777.341 -2.98012 2.13505 0
M  V30 8554 H 776.989 -4.98378 0.680316 0
M  V30 8555 H 776.689 -5.36611 2.39422 0
M  V30 8556 H 778.213 -5.88695 1.62082 0
M  V30 8557 H 779.627 -4.5651 3.46802 0
M  V30 8558 H 778.024 -4.28023 4.20614 0
M  V30 8559 H 779.094 -2.90407 3.88319 0
M  V30 8560 N 780.437 -1.16799 -1.0581 0
M  V30 8561 C 781.667 -0.975454 -1.82122 0
M  V30 8562 C 782.075 0.479584 -1.83021 0
M  V30 8563 O 781.418 1.34471 -1.25153 0
M  V30 8564 C 781.48 -1.43209 -3.29744 0
M  V30 8565 C 781.144 -2.908 -3.5254 0
M  V30 8566 C 782.141 -3.88775 -3.45181 0
M  V30 8567 C 779.826 -3.28832 -3.79703 0
M  V30 8568 C 781.82 -5.22782 -3.64661 0
M  V30 8569 C 779.507 -4.63007 -3.98832 0
M  V30 8570 C 780.505 -5.59791 -3.91309 0
M  V30 8571 O 780.193 -6.9154 -4.09911 0
M  V30 8572 H 779.925 -0.345655 -0.580947 0
M  V30 8573 H 782.479 -1.55355 -1.34365 0
M  V30 8574 H 780.709 -0.797504 -3.78387 0
M  V30 8575 H 782.398 -1.2062 -3.87564 0
M  V30 8576 H 783.164 -3.60738 -3.2418 0
M  V30 8577 H 779.043 -2.54073 -3.84666 0
M  V30 8578 H 782.587 -5.98312 -3.58705 0
M  V30 8579 H 778.484 -4.90752 -4.19324 0
M  V30 8580 H 779.252 -6.98188 -4.27172 0
M  V30 8581 N 781.915 1.24427 -0.967243 0
M  V30 8582 C 783.14 1.9708 -0.646069 0
M  V30 8583 C 783.565 1.71272 0.777665 0
M  V30 8584 O 782.923 0.976179 1.52776 0
M  V30 8585 C 782.971 3.48501 -0.926266 0
M  V30 8586 O 782.075 4.12398 -0.0114653 0
M  V30 8587 H 781.416 0.617423 -0.244304 0
M  V30 8588 H 783.946 1.58215 -1.29727 0
M  V30 8589 H 783.956 3.98885 -0.857619 0
M  V30 8590 H 782.631 3.66613 -1.96386 0
M  V30 8591 H 781.208 3.72661 -0.133396 0
M  V30 8592 N 783.393 0.737304 1.3929 0
M  V30 8593 C 784.323 0.113988 2.33222 0
M  V30 8594 C 785.304 -0.721695 1.54031 0
M  V30 8595 O 786.489 -0.666206 1.82415 0
M  V30 8596 C 783.619 -0.792319 3.38141 0
M  V30 8597 C 782.573 -0.0606178 4.27957 0
M  V30 8598 C 781.899 -1.08409 5.23595 0
M  V30 8599 C 783.199 1.09817 5.10625 0
M  V30 8600 H 784.893 0.898611 2.85596 0
M  V30 8601 H 782.439 0.433571 1.37318 0
M  V30 8602 H 784.392 -1.23793 4.02807 0
M  V30 8603 H 783.116 -1.60908 2.84211 0
M  V30 8604 H 781.775 0.365393 3.64775 0
M  V30 8605 H 781.423 -1.89449 4.6596 0
M  V30 8606 H 781.123 -0.599269 5.84536 0
M  V30 8607 H 782.647 -1.52936 5.91137 0
M  V30 8608 H 784.061 0.730892 5.68622 0
M  V30 8609 H 782.458 1.51278 5.80719 0
M  V30 8610 H 783.528 1.91878 4.45321 0
M  V30 8611 N 784.871 -1.49948 0.485112 0
M  V30 8612 C 785.803 -2.26691 -0.338222 0
M  V30 8613 C 786.816 -1.32584 -0.944742 0
M  V30 8614 O 788.005 -1.57989 -0.830772 0
M  V30 8615 C 785.105 -3.04405 -1.48966 0
M  V30 8616 C 784.278 -4.25971 -0.993371 0
M  V30 8617 C 783.337 -4.85861 -2.02052 0
M  V30 8618 O 782.363 -5.46382 -1.59547 0
M  V30 8619 N 783.565 -4.74101 -3.34975 0
M  V30 8620 H 786.33 -2.97989 0.319748 0
M  V30 8621 H 783.891 -1.58772 0.316714 0
M  V30 8622 H 785.883 -3.41348 -2.17403 0
M  V30 8623 H 784.453 -2.35815 -2.05207 0
M  V30 8624 H 783.673 -3.93971 -0.134424 0
M  V30 8625 H 784.961 -5.0476 -0.639934 0
M  V30 8626 H 784.359 -4.26002 -3.72208 0
M  V30 8627 H 782.916 -5.15274 -3.9917 0
M  V30 8628 N 786.349 -0.21828 -1.56081 0
M  V30 8629 C 787.598 0.414644 -1.97392 0
M  V30 8630 C 787.911 1.61132 -1.10887 0
M  V30 8631 O 789.117 2.31355 -1.42082 0
M  V30 8632 C 787.573 0.789099 -3.51143 0
M  V30 8633 C 787.181 -0.384578 -4.46346 0
M  V30 8634 C 788.925 1.38781 -4.01173 0
M  V30 8635 C 786.832 0.0121288 -5.91399 0
M  V30 8636 H 785.762 0.158691 -0.737111 0
M  V30 8637 H 788.413 -0.313974 -1.80794 0
M  V30 8638 H 786.795 1.57505 -3.6333 0
M  V30 8639 H 787.969 -1.16212 -4.45905 0
M  V30 8640 H 786.284 -0.896306 -4.06639 0
M  V30 8641 H 788.881 1.69746 -5.07041 0
M  V30 8642 H 789.224 2.30245 -3.46833 0
M  V30 8643 H 789.757 0.665364 -3.92196 0
M  V30 8644 H 786.496 -0.868917 -6.49715 0
M  V30 8645 H 786.016 0.754053 -5.95041 0
M  V30 8646 H 787.695 0.439949 -6.45502 0
M  V30 8647 N 787.827 1.57504 0.0551401 0
M  V30 8648 C 789.067 1.89895 0.756252 0
M  V30 8649 C 789.431 0.813983 1.73892 0
M  V30 8650 O 790.632 1.02145 2.48636 0
M  V30 8651 C 788.903 3.27494 1.43116 0
M  V30 8652 S 790.462 3.81669 2.16504 0
M  V30 8653 H 787.28 0.665173 0.251129 0
M  V30 8654 H 789.882 1.95496 0.0117193 0
M  V30 8655 H 788.586 4.04345 0.702391 0
M  V30 8656 H 788.117 3.25132 2.21479 0
M  V30 8657 H 790.132 3.58295 3.43277 0
M  V30 8658 N 789.305 -0.326896 1.54172 0
M  V30 8659 C 790.252 -1.40216 1.83325 0
M  V30 8660 C 791.222 -1.51538 0.680107 0
M  V30 8661 O 792.407 -1.66811 0.926206 0
M  V30 8662 C 789.547 -2.76626 2.0633 0
M  V30 8663 C 788.66 -2.73963 3.34019 0
M  V30 8664 C 787.795 -4.02198 3.47002 0
M  V30 8665 C 786.834 -3.93828 4.68578 0
M  V30 8666 N 785.971 -5.13787 4.78506 0
M  V30 8667 H 790.811 -1.14656 2.7506 0
M  V30 8668 H 788.348 -0.555089 1.36225 0
M  V30 8669 H 790.306 -3.55922 2.17659 0
M  V30 8670 H 788.936 -3.00503 1.1789 0
M  V30 8671 H 787.988 -1.86677 3.31445 0
M  V30 8672 H 789.3 -2.6366 4.2342 0
M  V30 8673 H 788.454 -4.89923 3.57855 0
M  V30 8674 H 787.193 -4.15302 2.55687 0
M  V30 8675 H 786.198 -3.04487 4.57786 0
M  V30 8676 H 787.423 -3.82292 5.61275 0
M  V30 8677 H 785.369 -5.27403 3.90105 0
M  V30 8678 H 785.286 -5.05807 5.61868 0
M  V30 8679 H 786.554 -6.03236 4.93686 0
M  V30 8680 N 790.784 -1.46188 -0.588786 0
M  V30 8681 C 791.747 -1.55882 -1.68029 0
M  V30 8682 C 792.747 -0.436515 -1.54762 0
M  V30 8683 O 793.937 -0.700626 -1.59489 0
M  V30 8684 C 791.069 -1.47332 -3.07418 0
M  V30 8685 H 792.262 -2.5315 -1.60795 0
M  V30 8686 H 789.815 -1.33908 -0.806116 0
M  V30 8687 H 790.55 -0.513193 -3.20214 0
M  V30 8688 H 790.335 -2.28753 -3.18456 0
M  V30 8689 H 791.825 -1.57187 -3.86887 0
M  V30 8690 N 792.262 0.832906 -1.33792 0
M  V30 8691 C 793.195 1.94788 -1.18882 0
M  V30 8692 C 794.173 1.62389 -0.0828426 0
M  V30 8693 O 795.357 1.86886 -0.246175 0
M  V30 8694 C 792.484 3.28506 -0.824728 0
M  V30 8695 C 791.53 3.79872 -1.93905 0
M  V30 8696 S 792.363 4.00832 -3.55097 0
M  V30 8697 C 793.519 5.37492 -3.20708 0
M  V30 8698 H 793.752 2.07137 -2.13264 0
M  V30 8699 H 791.285 0.987362 -1.18704 0
M  V30 8700 H 793.243 4.05769 -0.621442 0
M  V30 8701 H 791.904 3.13939 0.100587 0
M  V30 8702 H 791.097 4.76647 -1.6378 0
M  V30 8703 H 790.699 3.09524 -2.09931 0
M  V30 8704 H 792.991 6.20544 -2.71903 0
M  V30 8705 H 793.934 5.72593 -4.16584 0
M  V30 8706 H 794.342 5.02529 -2.57148 0
M  V30 8707 N 793.74 1.17359 1.05189 0
M  V30 8708 C 794.703 0.892604 2.11105 0
M  V30 8709 C 795.703 -0.117236 1.60372 0
M  V30 8710 O 796.893 0.114936 1.7382 0
M  V30 8711 C 794.025 0.337032 3.3923 0
M  V30 8712 H 795.218 1.83169 2.37464 0
M  V30 8713 H 792.771 0.984051 1.21434 0
M  V30 8714 H 793.506 -0.609198 3.18527 0
M  V30 8715 H 793.291 1.06484 3.77364 0
M  V30 8716 H 794.781 0.158763 4.17298 0
M  V30 8717 N 795.218 -1.23913 0.973828 0
M  V30 8718 C 796.448 -1.95911 0.655938 0
M  V30 8719 C 796.856 -1.72375 -0.779967 0
M  V30 8720 O 796.199 -1.00807 -1.5357 0
M  V30 8721 C 796.261 -3.49103 0.858324 0
M  V30 8722 C 795.925 -3.96347 2.27504 0
M  V30 8723 C 796.922 -4.05537 3.25324 0
M  V30 8724 C 794.607 -4.29509 2.60437 0
M  V30 8725 C 796.601 -4.47233 4.5416 0
M  V30 8726 C 794.288 -4.70887 3.89498 0
M  V30 8727 C 795.286 -4.79714 4.86172 0
M  V30 8728 O 794.974 -5.20166 6.1293 0
M  V30 8729 H 794.706 -0.630721 0.243244 0
M  V30 8730 H 797.26 -1.58534 1.30599 0
M  V30 8731 H 795.49 -3.86405 0.151097 0
M  V30 8732 H 797.179 -4.02311 0.538592 0
M  V30 8733 H 797.945 -3.80128 3.0121 0
M  V30 8734 H 793.824 -4.21853 1.85906 0
M  V30 8735 H 797.368 -4.54038 5.29618 0
M  V30 8736 H 793.265 -4.95744 4.1341 0
M  V30 8737 H 794.033 -5.38298 6.16586 0
M  V30 8738 N 796.696 -0.74468 -1.38897 0
M  V30 8739 C 797.626 -0.126355 -2.33158 0
M  V30 8740 C 798.607 0.713517 -1.54412 0
M  V30 8741 O 799.792 0.656523 -1.82766 0
M  V30 8742 C 796.922 0.774375 -3.38557 0
M  V30 8743 C 795.876 0.0379214 -4.27983 0
M  V30 8744 C 795.202 1.05631 -5.24162 0
M  V30 8745 C 796.502 -1.12523 -5.10035 0
M  V30 8746 H 798.196 -0.913744 -2.85116 0
M  V30 8747 H 795.742 -0.440847 -1.37086 0
M  V30 8748 H 797.695 1.21655 -4.03458 0
M  V30 8749 H 796.419 1.59399 -2.85061 0
M  V30 8750 H 795.078 -0.384733 -3.64576 0
M  V30 8751 H 794.726 1.86975 -4.66958 0
M  V30 8752 H 794.426 0.568261 -5.84846 0
M  V30 8753 H 795.95 1.49799 -5.9194 0
M  V30 8754 H 797.364 -0.761037 -5.68226 0
M  V30 8755 H 795.761 -1.54355 -5.79909 0
M  V30 8756 H 796.831 -1.94237 -4.44297 0
M  V30 8757 N 798.174 1.49689 -0.493057 0
M  V30 8758 C 799.084 2.32746 0.294358 0
M  V30 8759 C 800.1 1.44117 0.975003 0
M  V30 8760 O 801.276 1.77149 0.958138 0
M  V30 8761 C 798.341 3.19358 1.34949 0
M  V30 8762 C 797.402 4.2383 0.683122 0
M  V30 8763 C 796.635 5.06303 1.68798 0
M  V30 8764 O 796.858 4.90172 2.91698 0
M  V30 8765 O 795.792 5.88826 1.24768 0
M  V30 8766 H 799.618 3.01247 -0.385254 0
M  V30 8767 H 797.203 1.47216 -0.254519 0
M  V30 8768 H 799.085 3.73037 1.96014 0
M  V30 8769 H 797.76 2.53561 2.01217 0
M  V30 8770 H 796.667 3.74086 0.0329351 0
M  V30 8771 H 798 4.9216 0.0630192 0
M  V30 8772 N 799.652 0.226554 1.55963 0
M  V30 8773 C 800.877 -0.411527 2.03276 0
M  V30 8774 C 801.302 -1.52206 1.10521 0
M  V30 8775 O 800.66 -1.81054 0.0943217 0
M  V30 8776 C 800.708 -0.915694 3.4878 0
M  V30 8777 O 799.812 -2.02672 3.59163 0
M  V30 8778 H 799.153 -0.0924907 0.657527 0
M  V30 8779 H 801.683 0.346656 2.01642 0
M  V30 8780 H 801.693 -1.22421 3.892 0
M  V30 8781 H 800.368 -0.102915 4.15773 0
M  V30 8782 H 798.945 -1.72445 3.30632 0
M  V30 8783 N 801.13 -1.57531 -0.0467866 0
M  V30 8784 C 802.379 -1.87632 -0.740069 0
M  V30 8785 C 802.692 -0.822691 -1.77457 0
M  V30 8786 O 803.898 -1.01235 -2.5192 0
M  V30 8787 C 802.354 -3.32917 -1.36727 0
M  V30 8788 C 801.962 -4.46469 -0.370035 0
M  V30 8789 C 803.706 -3.72189 -2.04146 0
M  V30 8790 C 801.613 -5.82806 -1.00457 0
M  V30 8791 H 800.543 -0.70002 -0.280158 0
M  V30 8792 H 803.194 -1.83499 0.00607151 0
M  V30 8793 H 801.576 -3.31739 -2.16252 0
M  V30 8794 H 802.75 -4.59085 0.397217 0
M  V30 8795 H 801.065 -4.15914 0.201079 0
M  V30 8796 H 803.662 -4.71357 -2.52441 0
M  V30 8797 H 804.005 -3.03268 -2.85192 0
M  V30 8798 H 804.538 -3.75465 -1.3142 0
M  V30 8799 H 801.277 -6.55083 -0.233907 0
M  V30 8800 H 800.797 -5.73944 -1.74209 0
M  V30 8801 H 802.476 -6.28961 -1.51713 0
M  V30 8802 N 802.608 0.318715 -1.54344 0
M  V30 8803 C 803.556 1.41254 -1.84798 0
M  V30 8804 C 804.55 1.53325 -0.720256 0
M  V30 8805 O 805.756 1.55653 -0.903992 0
M  V30 8806 H 802.131 0.471468 -0.585851 0
M  V30 8807 H 804.102 1.12795 -2.7626 0
M  V30 8808 C 802.851 2.77395 -2.09637 0
M  V30 8809 H 802.174 2.68881 -2.95876 0
M  V30 8810 H 803.614 3.52987 -2.34896 0
M  V30 8811 C 802.073 3.24948 -0.889398 0
M  V30 8812 O 802.603 4.01573 -0.101063 0
M  V30 8813 N 800.809 2.82051 -0.699684 0
M  V30 8814 H 800.356 2.19858 -1.3424 0
M  V30 8815 H 800.314 3.1422 0.106368 0
M  V30 8816 N 804.086 1.46499 0.581025 0
M  V30 8817 C 805.326 1.53456 1.35021 0
M  V30 8818 C 805.69 0.182542 1.9113 0
M  V30 8819 O 806.891 0.126874 2.685 0
M  V30 8820 C 805.162 2.60387 2.44812 0
M  V30 8821 S 806.721 2.86762 3.32134 0
M  V30 8822 H 803.539 0.54216 0.459982 0
M  V30 8823 H 806.141 1.83742 0.667754 0
M  V30 8824 H 804.845 3.57253 2.01986 0
M  V30 8825 H 804.376 2.31839 3.17828 0
M  V30 8826 H 806.391 2.2216 4.43688 0
M  V30 8827 N 805.565 -0.825799 1.34232 0
M  V30 8828 C 806.811 -1.58419 1.26614 0
M  V30 8829 C 807.144 -1.93503 -0.164341 0
M  V30 8830 O 806.419 -1.59785 -1.109 0
M  V30 8831 C 806.702 -2.8856 2.15418 0
M  V30 8832 C 806.555 -2.60075 3.66989 0
M  V30 8833 C 807.874 -3.90107 2.03726 0
M  V30 8834 H 804.993 -0.574794 0.461282 0
M  V30 8835 H 807.635 -0.951519 1.64457 0
M  V30 8836 H 805.785 -3.42553 1.83275 0
M  V30 8837 H 807.457 -2.12414 4.09485 0
M  V30 8838 H 805.7 -1.93565 3.88221 0
M  V30 8839 H 806.371 -3.52866 4.24488 0
M  V30 8840 H 808.847 -3.45459 2.31942 0
M  V30 8841 H 807.723 -4.78976 2.68092 0
M  V30 8842 H 807.984 -4.30329 1.01337 0
M  V30 8843 N 807.043 -1.17915 -1.04565 0
M  V30 8844 C 807.993 -0.869634 -2.10764 0
M  V30 8845 C 808.977 0.158502 -1.60117 0
M  V30 8846 O 810.169 -0.04483 -1.76943 0
M  V30 8847 C 807.298 -0.391642 -3.41059 0
M  V30 8848 C 806.384 -1.45156 -3.98485 0
M  V30 8849 N 806.775 -2.6667 -4.29792 0
M  V30 8850 C 805.073 -1.3109 -4.263 0
M  V30 8851 C 805.774 -3.34823 -4.75677 0
M  V30 8852 N 804.75 -2.62203 -4.76183 0
M  V30 8853 H 808.552 -1.79342 -2.32838 0
M  V30 8854 H 806.066 -1.0688 -1.22272 0
M  V30 8855 H 808.063 -0.151428 -4.16625 0
M  V30 8856 H 806.723 0.525862 -3.20413 0
M  V30 8857 H 807.734 -3.0358 -4.19594 0
M  V30 8858 H 804.411 -0.455545 -4.15007 0
M  V30 8859 H 805.801 -4.38645 -5.0896 0
M  V30 8860 N 808.521 1.23394 -0.980386 0
M  V30 8861 C 809.937 1.43961 -0.689008 0
M  V30 8862 C 810.137 1.87229 0.744809 0
M  V30 8863 O 809.193 2.01831 1.51725 0
M  V30 8864 C 810.506 2.49128 -1.68392 0
M  V30 8865 C 812.054 2.62941 -1.69796 0
M  V30 8866 C 812.529 3.71317 -2.68118 0
M  V30 8867 N 814.02 3.7876 -2.66636 0
M  V30 8868 C 814.755 4.62176 -3.39383 0
M  V30 8869 N 814.251 5.49682 -4.21688 0
M  V30 8870 N 816.044 4.56372 -3.28147 0
M  V30 8871 H 808.195 0.936106 -1.90659 0
M  V30 8872 H 810.458 0.473023 -0.821555 0
M  V30 8873 H 810.164 2.24252 -2.70931 0
M  V30 8874 H 810.038 3.47514 -1.46675 0
M  V30 8875 H 812.425 2.87168 -0.679617 0
M  V30 8876 H 812.506 1.64871 -1.95579 0
M  V30 8877 H 812.15 3.4784 -3.70095 0
M  V30 8878 H 812.08 4.68929 -2.3961 0
M  V30 8879 H 814.571 3.16226 -2.06904 0
M  V30 8880 H 814.884 6.10323 -4.74053 0
M  V30 8881 H 813.229 5.49306 -4.25779 0
M  V30 8882 H 816.42 3.87029 -2.63299 0
M  V30 8883 H 816.593 5.21153 -3.85102 0
M  V30 8884 N 809.999 0.752036 1.385 0
M  V30 8885 C 811.276 0.233075 1.94206 0
M  V30 8886 C 811.656 -1.26838 1.68746 0
M  V30 8887 O 811.004 -2.04214 1.02513 0
M  V30 8888 C 811.214 0.58509 3.44061 0
M  V30 8889 C 812.562 0.543871 4.21102 0
M  V30 8890 O 813.586 0.523291 3.52335 0
M  V30 8891 O 812.445 0.553436 5.4369 0
M  V30 8892 H 809.539 0.0483049 0.825588 0
M  V30 8893 H 812.085 0.832053 1.47902 0
M  V30 8894 H 810.857 1.62212 3.56094 0
M  V30 8895 H 810.48 -0.0419738 3.97578 0
M  V30 8896 N 811.477 -1.49425 0.500989 0
M  V30 8897 C 812.726 -2.01649 -0.04538 0
M  V30 8898 C 813.039 -1.38572 -1.38047 0
M  V30 8899 O 814.245 -1.82124 -2.01353 0
M  V30 8900 C 812.701 -3.5966 -0.131337 0
M  V30 8901 C 812.309 -4.3171 1.19711 0
M  V30 8902 C 814.053 -4.19828 -0.628071 0
M  V30 8903 C 811.96 -5.81579 1.07332 0
M  V30 8904 H 810.89 -0.753715 -0.0207329 0
M  V30 8905 H 813.541 -1.71962 0.640407 0
M  V30 8906 H 811.923 -3.86063 -0.881574 0
M  V30 8907 H 813.097 -4.17008 1.96064 0
M  V30 8908 H 811.412 -3.83286 1.62729 0
M  V30 8909 H 814.009 -5.2958 -0.738198 0
M  V30 8910 H 814.352 -3.83194 -1.6269 0
M  V30 8911 H 814.885 -3.97746 0.0656314 0
M  V30 8912 H 811.624 -6.22738 2.04642 0
M  V30 8913 H 811.144 -5.98774 0.350679 0
M  V30 8914 H 812.823 -6.42614 0.752047 0
M  V30 8915 N 812.955 -0.234822 -1.55841 0
M  V30 8916 C 813.918 0.656378 -2.196 0
M  V30 8917 C 814.918 1.11179 -1.16171 0
M  V30 8918 O 816.108 1.01845 -1.41326 0
M  V30 8919 C 813.24 1.90072 -2.82993 0
M  V30 8920 H 814.433 0.100281 -2.99732 0
M  V30 8921 H 811.986 0.0147613 -1.56293 0
M  V30 8922 H 812.721 2.49836 -2.06767 0
M  V30 8923 H 812.506 1.5825 -3.58747 0
M  V30 8924 H 813.996 2.53538 -3.31826 0
M  V30 8925 N 814.433 1.57553 0.0384317 0
M  V30 8926 C 815.679 1.89121 0.732199 0
M  V30 8927 C 816.012 0.831404 1.75503 0
M  V30 8928 O 815.287 -0.154642 1.93884 0
M  V30 8929 C 815.57 3.31338 1.41021 0
M  V30 8930 C 815.423 4.48004 0.401532 0
M  V30 8931 C 816.742 3.72318 2.34665 0
M  V30 8932 H 813.861 0.687819 0.264715 0
M  V30 8933 H 816.503 1.89999 -0.00496279 0
M  V30 8934 H 814.653 3.3072 2.03854 0
M  V30 8935 H 816.325 4.60755 -0.224159 0
M  V30 8936 H 814.568 4.32895 -0.280092 0
M  V30 8937 H 815.239 5.44377 0.91423 0
M  V30 8938 H 817.715 3.74243 1.81883 0
M  V30 8939 H 816.591 4.72652 2.7909 0
M  V30 8940 H 816.852 3.04062 3.20934 0
M  V30 8941 N 815.911 -0.310526 1.54511 0
M  V30 8942 C 817.327 -0.655637 1.45511 0
M  V30 8943 C 817.527 -1.91114 0.638564 0
M  V30 8944 O 816.583 -2.52098 0.142497 0
M  V30 8945 C 817.896 -0.817501 2.89374 0
M  V30 8946 C 819.444 -0.914003 2.99358 0
M  V30 8947 C 819.919 -1.10794 4.44397 0
M  V30 8948 N 821.41 -1.17437 4.48066 0
M  V30 8949 C 822.145 -1.34255 5.57461 0
M  V30 8950 N 821.641 -1.48032 6.768 0
M  V30 8951 N 823.434 -1.37067 5.45132 0
M  V30 8952 H 815.585 0.514506 2.06074 0
M  V30 8953 H 817.848 0.168478 0.932909 0
M  V30 8954 H 817.554 0.034003 3.51684 0
M  V30 8955 H 817.428 -1.7094 3.36243 0
M  V30 8956 H 819.815 -1.756 2.37168 0
M  V30 8957 H 819.896 0.00170958 2.558 0
M  V30 8958 H 819.54 -0.270743 5.07178 0
M  V30 8959 H 819.47 -2.03773 4.85576 0
M  V30 8960 H 821.961 -1.08181 3.62084 0
M  V30 8961 H 822.274 -1.60593 7.5593 0
M  V30 8962 H 820.619 -1.45105 6.79683 0
M  V30 8963 H 823.81 -1.25909 4.50849 0
M  V30 8964 H 823.983 -1.49831 6.3044 0
M  V30 8965 N 817.389 -1.46805 -0.573248 0
M  V30 8966 C 818.337 -1.58468 -1.70267 0
M  V30 8967 C 819.331 -0.452694 -1.63239 0
M  V30 8968 O 820.537 -0.629915 -1.68618 0
M  V30 8969 H 816.912 -0.498408 -0.56311 0
M  V30 8970 H 818.883 -2.5341 -1.57563 0
M  V30 8971 C 817.632 -1.60104 -3.08645 0
M  V30 8972 H 816.955 -2.4655 -3.14727 0
M  V30 8973 H 818.395 -1.72318 -3.87405 0
M  V30 8974 C 816.854 -0.33138 -3.35266 0
M  V30 8975 O 817.384 0.57438 -3.97572 0
M  V30 8976 N 815.59 -0.216358 -2.89793 0
M  V30 8977 H 815.137 -0.954345 -2.3927 0
M  V30 8978 H 815.095 0.632253 -3.07977 0
M  V30 8979 N 818.867 0.818669 -1.34668 0
M  V30 8980 C 820.116 1.57017 -1.26604 0
M  V30 8981 C 820.429 1.94936 0.161036 0
M  V30 8982 O 821.635 2.69051 0.36386 0
M  V30 8983 C 820.091 2.83305 -2.2196 0
M  V30 8984 C 819.699 2.52671 -3.69948 0
M  V30 8985 C 821.443 3.61324 -2.22813 0
M  V30 8986 C 819.35 3.75178 -4.5716 0
M  V30 8987 H 818.28 0.589323 -0.470335 0
M  V30 8988 H 820.931 0.900956 -1.59859 0
M  V30 8989 H 819.313 3.51874 -1.81661 0
M  V30 8990 H 820.487 1.92186 -4.18809 0
M  V30 8991 H 818.802 1.8792 -3.71584 0
M  V30 8992 H 821.399 4.52294 -2.85192 0
M  V30 8993 H 821.742 3.97759 -1.22857 0
M  V30 8994 H 822.275 2.99703 -2.61578 0
M  V30 8995 H 819.014 3.43861 -5.58068 0
M  V30 8996 H 818.534 4.34931 -4.13031 0
M  V30 8997 H 820.213 4.42542 -4.71981 0
M  V30 8998 N 820.346 1.18468 1.03938 0
M  V30 8999 C 821.276 0.936389 2.13902 0
M  V30 9000 C 822.257 -0.126381 1.6963 0
M  V30 9001 O 823.442 0.0264757 1.94182 0
M  V30 9002 C 820.572 0.462729 3.44204 0
M  V30 9003 C 819.526 1.46613 4.02105 0
M  V30 9004 C 818.852 0.84994 5.27902 0
M  V30 9005 C 820.152 2.84323 4.3813 0
M  V30 9006 H 821.846 1.85602 2.3493 0
M  V30 9007 H 819.392 0.893806 1.12903 0
M  V30 9008 H 821.345 0.276382 4.20493 0
M  V30 9009 H 820.069 -0.492477 3.22866 0
M  V30 9010 H 818.728 1.63944 3.27899 0
M  V30 9011 H 818.376 -0.112493 5.02874 0
M  V30 9012 H 818.076 1.51988 5.67603 0
M  V30 9013 H 819.6 0.674152 6.06867 0
M  V30 9014 H 821.014 2.70636 5.054 0
M  V30 9015 H 819.411 3.48012 4.88884 0
M  V30 9016 H 820.481 3.37776 3.47901 0
M  V30 9017 N 821.824 -1.22873 0.986916 0
M  V30 9018 C 823.07 -1.91746 0.660401 0
M  V30 9019 C 823.403 -1.76738 -0.804812 0
M  V30 9020 O 822.678 -1.13246 -1.58131 0
M  V30 9021 C 822.961 -3.44156 1.05966 0
M  V30 9022 C 822.814 -3.68242 2.58298 0
M  V30 9023 C 824.133 -4.35874 0.60842 0
M  V30 9024 H 821.252 -0.696347 0.241391 0
M  V30 9025 H 823.894 -1.44867 1.22937 0
M  V30 9026 H 822.044 -3.84213 0.575534 0
M  V30 9027 H 823.716 -3.37626 3.14335 0
M  V30 9028 H 821.959 -3.12728 3.00638 0
M  V30 9029 H 822.63 -4.74956 2.81285 0
M  V30 9030 H 825.106 -4.03299 1.02417 0
M  V30 9031 H 823.982 -5.41201 0.916142 0
M  V30 9032 H 824.243 -4.39364 -0.491086 0
M  V30 9033 N 823.302 -0.75937 -1.38099 0
M  V30 9034 C 824.265 -0.14372 -2.28749 0
M  V30 9035 C 825.265 0.641338 -1.47457 0
M  V30 9036 O 826.455 0.466751 -1.67831 0
M  V30 9037 C 823.587 0.804545 -3.3127 0
M  V30 9038 H 824.78 -0.942663 -2.847 0
M  V30 9039 H 822.333 -0.526757 -1.47156 0
M  V30 9040 H 823.068 1.62895 -2.80421 0
M  V30 9041 H 822.853 0.243939 -3.9134 0
M  V30 9042 H 824.343 1.23111 -3.99041 0
M  V30 9043 N 824.78 1.49157 -0.508906 0
M  V30 9044 C 826.005 2.07376 0.0315182 0
M  V30 9045 C 826.43 1.36575 1.2934 0
M  V30 9046 O 825.788 0.424963 1.76249 0
M  V30 9047 C 825.836 3.59661 0.260118 0
M  V30 9048 O 824.94 3.90255 1.33322 0
M  V30 9049 H 824.281 0.663334 -0.029739 0
M  V30 9050 H 826.811 1.91857 -0.710791 0
M  V30 9051 H 826.821 4.05056 0.489225 0
M  V30 9052 H 825.496 4.10601 -0.661794 0
M  V30 9053 H 824.073 3.56661 1.08844 0
M  V30 9054 N 826.258 0.243083 1.55714 0
M  V30 9055 C 827.669 -0.260788 1.8487 0
M  V30 9056 C 828.02 -1.57879 1.16485 0
M  V30 9057 O 827.145 -2.1184 0.441908 0
M  V30 9058 C 827.74 -0.479954 3.35383 0
M  V30 9059 C 826.299 -0.928096 3.64778 0
M  V30 9060 C 825.446 -0.00316416 2.773 0
M  V30 9061 H 828.397 0.465743 1.51712 0
M  V30 9062 H 828.418 -1.32308 3.56756 0
M  V30 9063 H 827.93 0.479468 3.85127 0
M  V30 9064 H 826.031 -1.90012 3.20509 0
M  V30 9065 H 826.144 -0.7876 4.72582 0
M  V30 9066 H 824.508 -0.513849 2.49463 0
M  V30 9067 H 825.291 0.951562 3.29849 0
M  V30 9068 N 827.736 -1.57571 -0.0300757 0
M  V30 9069 C 828.646 -2.09892 -1.04798 0
M  V30 9070 C 829.662 -1.03732 -1.39698 0
M  V30 9071 O 830.838 -1.35461 -1.49038 0
M  V30 9072 C 827.903 -2.56707 -2.33028 0
M  V30 9073 C 826.964 -3.77345 -2.04718 0
M  V30 9074 C 826.197 -4.21918 -3.26834 0
M  V30 9075 O 826.42 -3.66025 -4.37472 0
M  V30 9076 O 825.354 -5.14362 -3.12594 0
M  V30 9077 H 829.18 -2.97023 -0.633344 0
M  V30 9078 H 826.765 -1.47344 -0.246991 0
M  V30 9079 H 828.647 -2.87154 -3.08417 0
M  V30 9080 H 827.322 -1.72688 -2.73789 0
M  V30 9081 H 826.229 -3.51919 -1.26901 0
M  V30 9082 H 827.562 -4.62345 -1.68813 0
M  V30 9083 N 829.214 0.302327 -1.54673 0
M  V30 9084 C 830.454 1.04568 -1.75627 0
M  V30 9085 C 830.818 1.84535 -0.530175 0
M  V30 9086 O 832.019 2.61613 -0.61743 0
M  V30 9087 C 830.29 1.92873 -3.0089 0
M  V30 9088 S 831.849 2.73872 -3.4284 0
M  V30 9089 H 828.667 0.352682 -0.617362 0
M  V30 9090 H 831.269 0.319239 -1.92876 0
M  V30 9091 H 829.973 1.32998 -3.88252 0
M  V30 9092 H 829.504 2.69887 -2.86225 0
M  V30 9093 H 831.519 3.95386 -2.99807 0
M  V30 9094 N 830.692 1.47107 0.565454 0
M  V30 9095 C 831.938 1.53535 1.32495 0
M  V30 9096 C 832.271 0.193537 1.93233 0
M  V30 9097 O 831.546 -0.796956 1.77423 0
M  V30 9098 C 831.829 2.64712 2.4413 0
M  V30 9099 C 831.682 4.08482 1.88314 0
M  V30 9100 C 833.001 2.71853 3.46098 0
M  V30 9101 H 830.12 0.558926 0.480386 0
M  V30 9102 H 832.762 1.79125 0.633575 0
M  V30 9103 H 830.912 2.43023 3.03104 0
M  V30 9104 H 832.584 4.4151 1.33665 0
M  V30 9105 H 830.827 4.17148 1.19037 0
M  V30 9106 H 831.498 4.82032 2.68978 0
M  V30 9107 H 833.974 2.91397 2.97031 0
M  V30 9108 H 832.85 3.51433 4.21646 0
M  V30 9109 H 833.111 1.78584 4.04426 0
M  V30 9110 N 832.17 -0.811516 1.35101 0
M  V30 9111 C 833.117 -1.92308 1.27617 0
M  V30 9112 C 834.087 -1.6543 0.149091 0
M  V30 9113 O 835.272 -1.8789 0.331974 0
M  V30 9114 C 832.412 -3.28768 1.04908 0
M  V30 9115 C 831.525 -3.67865 2.26493 0
M  V30 9116 C 830.66 -4.9333 1.96974 0
M  V30 9117 C 829.699 -5.25041 3.1464 0
M  V30 9118 N 828.836 -6.41685 2.84929 0
M  V30 9119 H 833.676 -1.98041 2.22674 0
M  V30 9120 H 831.213 -0.968755 1.10696 0
M  V30 9121 H 833.171 -4.07426 0.897749 0
M  V30 9122 H 831.801 -3.22517 0.135151 0
M  V30 9123 H 830.853 -2.84507 2.52507 0
M  V30 9124 H 832.165 -3.87263 3.14371 0
M  V30 9125 H 831.319 -5.79803 1.78643 0
M  V30 9126 H 830.058 -4.75958 1.06374 0
M  V30 9127 H 829.063 -4.3706 3.33554 0
M  V30 9128 H 830.288 -5.44346 4.06035 0
M  V30 9129 H 828.234 -6.25747 1.96918 0
M  V30 9130 H 828.151 -6.6131 3.66341 0
M  V30 9131 H 829.419 -7.31198 2.70128 0
M  V30 9132 N 833.648 -1.19017 -1.03309 0
M  V30 9133 C 834.578 -0.94772 -2.13402 0
M  V30 9134 C 835.559 0.117383 -1.69694 0
M  V30 9135 O 836.744 -0.0367733 -1.94165 0
M  V30 9136 C 833.874 -0.480977 -3.43953 0
M  V30 9137 C 832.828 -1.48743 -4.01322 0
M  V30 9138 C 832.154 -0.877924 -5.27443 0
M  V30 9139 C 833.454 -2.86642 -4.36616 0
M  V30 9140 H 835.148 -1.86846 -2.33942 0
M  V30 9141 H 832.694 -0.899781 -1.12427 0
M  V30 9142 H 834.647 -0.298677 -4.2034 0
M  V30 9143 H 833.371 0.475348 -3.23122 0
M  V30 9144 H 832.03 -1.65681 -3.27025 0
M  V30 9145 H 831.678 0.0858232 -5.02927 0
M  V30 9146 H 831.378 -1.54996 -5.66789 0
M  V30 9147 H 832.902 -0.706326 -6.06501 0
M  V30 9148 H 834.316 -2.73312 -5.03958 0
M  V30 9149 H 832.713 -3.50599 -4.87032 0
M  V30 9150 H 833.783 -3.39617 -3.46105 0
M  V30 9151 N 835.127 1.22348 -0.993418 0
M  V30 9152 C 836.375 1.90733 -0.668246 0
M  V30 9153 C 836.696 1.77732 0.802261 0
M  V30 9154 O 835.966 1.16486 1.57505 0
M  V30 9155 H 834.546 0.705966 -0.244174 0
M  V30 9156 H 837.208 1.48691 -1.26004 0
M  V30 9157 H 836.304 2.97883 -0.931239 0
M  V30 9158 N 836.605 0.766683 1.37694 0
M  V30 9159 C 837.882 0.25366 1.93948 0
M  V30 9160 C 838.262 -1.25041 1.70082 0
M  V30 9161 O 837.61 -2.03115 1.04674 0
M  V30 9162 C 837.82 0.621549 3.43421 0
M  V30 9163 C 839.168 0.588504 4.20502 0
M  V30 9164 O 840.192 0.560632 3.5176 0
M  V30 9165 O 839.051 0.61107 5.43073 0
M  V30 9166 H 836.145 0.0570586 0.825029 0
M  V30 9167 H 838.691 0.847693 1.47011 0
M  V30 9168 H 837.463 1.65979 3.54354 0
M  V30 9169 H 837.086 0.000197027 3.976 0
M  V30 9170 N 838.083 -1.48885 0.516809 0
M  V30 9171 C 839.33 -2.02488 -0.0220602 0
M  V30 9172 C 839.658 -1.39513 -1.35523 0
M  V30 9173 O 838.913 -0.52558 -1.8851 0
M  V30 9174 C 839.212 -3.56801 -0.206798 0
M  V30 9175 C 838.878 -4.38496 1.05035 0
M  V30 9176 C 837.54 -4.60538 1.39492 0
M  V30 9177 C 839.892 -4.85909 1.88525 0
M  V30 9178 C 837.22 -5.2724 2.57361 0
M  V30 9179 C 839.572 -5.53909 3.05561 0
M  V30 9180 C 838.236 -5.74193 3.4038 0
M  V30 9181 H 837.506 -0.740956 -0.00807238 0
M  V30 9182 H 840.153 -1.79014 0.680168 0
M  V30 9183 H 838.458 -3.79042 -0.991687 0
M  V30 9184 H 840.155 -3.95885 -0.638447 0
M  V30 9185 H 836.745 -4.2159 0.771984 0
M  V30 9186 H 840.929 -4.68694 1.63218 0
M  V30 9187 H 836.185 -5.41145 2.84556 0
M  V30 9188 H 840.359 -5.89619 3.7057 0
M  V30 9189 H 837.986 -6.25652 4.31814 0
M  V30 9190 N 839.561 -0.251338 -1.55583 0
M  V30 9191 C 840.809 0.371434 -1.98657 0
M  V30 9192 C 841.13 1.58143 -1.14087 0
M  V30 9193 O 840.4 1.94607 -0.224708 0
M  V30 9194 H 838.98 0.140225 -0.733721 0
M  V30 9195 H 841.642 -0.351157 -1.9171 0
M  V30 9196 H 840.738 0.677554 -3.04657 0
M  V30 9197 N 841.039 1.57585 0.0217189 0
M  V30 9198 C 841.969 2.10073 1.01939 0
M  V30 9199 C 842.95 1.0049 1.37243 0
M  V30 9200 O 844.135 1.28055 1.45999 0
M  V30 9201 C 841.265 2.58618 2.31806 0
M  V30 9202 C 840.219 3.72531 2.10724 0
M  V30 9203 C 839.545 4.07309 3.46415 0
M  V30 9204 C 840.845 5.00672 1.48743 0
M  V30 9205 H 842.539 2.9368 0.582432 0
M  V30 9206 H 840.085 1.41277 0.278715 0
M  V30 9207 H 842.038 2.9396 3.01936 0
M  V30 9208 H 840.762 1.72104 2.77575 0
M  V30 9209 H 839.421 3.37549 1.43025 0
M  V30 9210 H 839.069 3.17851 3.89846 0
M  V30 9211 H 838.769 4.84042 3.33132 0
M  V30 9212 H 840.293 4.45192 4.17895 0
M  V30 9213 H 841.707 5.33925 2.088 0
M  V30 9214 H 840.104 5.82065 1.46013 0
M  V30 9215 H 841.174 4.82769 0.45408 0
M  V30 9216 N 842.517 -0.29412 1.54831 0
M  V30 9217 C 843.742 -1.05156 1.78765 0
M  V30 9218 C 844.167 -1.79916 0.548809 0
M  V30 9219 O 843.525 -1.74243 -0.500909 0
M  V30 9220 C 843.573 -2.00242 2.99893 0
M  V30 9221 O 842.677 -3.08662 2.73499 0
M  V30 9222 H 842.018 -0.301737 0.591482 0
M  V30 9223 H 844.548 -0.329449 2.0193 0
M  V30 9224 H 844.558 -2.42583 3.28051 0
M  V30 9225 H 843.233 -1.45235 3.89717 0
M  V30 9226 H 841.81 -2.70786 2.56377 0
M  V30 9227 N 843.995 -1.47404 -0.557645 0
M  V30 9228 C 845.411 -1.32913 -0.88353 0
M  V30 9229 C 845.611 -0.31929 -1.98954 0
M  V30 9230 O 844.667 0.26934 -2.51059 0
M  V30 9231 C 845.98 -2.72229 -1.27718 0
M  V30 9232 C 847.528 -2.8051 -1.38863 0
M  V30 9233 C 848.003 -4.20466 -1.81583 0
M  V30 9234 N 849.494 -4.23005 -1.88735 0
M  V30 9235 C 850.229 -5.2821 -2.23118 0
M  V30 9236 N 849.725 -6.4372 -2.56117 0
M  V30 9237 N 851.518 -5.15588 -2.23888 0
M  V30 9238 H 843.669 -2.11698 0.172557 0
M  V30 9239 H 845.932 -0.947889 0.0145334 0
M  V30 9240 H 845.638 -3.47556 -0.538329 0
M  V30 9241 H 845.512 -3.03971 -2.23342 0
M  V30 9242 H 847.899 -2.05457 -2.11829 0
M  V30 9243 H 847.98 -2.52423 -0.414274 0
M  V30 9244 H 847.624 -4.96025 -1.09187 0
M  V30 9245 H 847.554 -4.45977 -2.80021 0
M  V30 9246 H 850.045 -3.39674 -1.65621 0
M  V30 9247 H 850.358 -7.19754 -2.81378 0
M  V30 9248 H 848.703 -6.47041 -2.53698 0
M  V30 9249 H 851.894 -4.24374 -1.97546 0
M  V30 9250 H 852.067 -5.97685 -2.50353 0
M  V30 9251 N 845.473 0.80434 -1.35529 0
M  V30 9252 C 846.703 1.59052 -1.31856 0
M  V30 9253 C 847.111 1.88905 0.105549 0
M  V30 9254 O 846.454 1.49422 1.06858 0
M  V30 9255 C 846.516 2.94626 -2.06 0
M  V30 9256 C 846.18 2.87576 -3.55175 0
M  V30 9257 C 847.177 2.60856 -4.49722 0
M  V30 9258 C 844.862 3.06623 -3.97854 0
M  V30 9259 C 846.856 2.53262 -5.84925 0
M  V30 9260 C 844.543 2.98652 -5.33151 0
M  V30 9261 C 845.541 2.72007 -6.26499 0
M  V30 9262 O 845.229 2.64003 -7.59314 0
M  V30 9263 H 844.961 0.500486 -0.454411 0
M  V30 9264 H 847.515 1.0074 -1.78999 0
M  V30 9265 H 845.745 3.5493 -1.53498 0
M  V30 9266 H 847.434 3.55785 -1.95376 0
M  V30 9267 H 848.2 2.45858 -4.18066 0
M  V30 9268 H 844.079 3.26372 -3.2558 0
M  V30 9269 H 847.623 2.32386 -6.57756 0
M  V30 9270 H 843.52 3.13208 -5.64421 0
M  V30 9271 H 844.288 2.79595 -7.69265 0
M  V30 9272 N 846.951 1.19563 1.02676 0
M  V30 9273 C 848.2 0.993864 1.75514 0
M  V30 9274 C 848.513 -0.475882 1.89723 0
M  V30 9275 O 849.719 -0.796525 2.59553 0
M  V30 9276 C 848.175 1.72937 3.15628 0
M  V30 9277 C 847.783 3.23937 3.09466 0
M  V30 9278 C 849.527 1.61092 3.92746 0
M  V30 9279 C 847.434 3.90067 4.44524 0
M  V30 9280 H 846.364 0.368244 0.657961 0
M  V30 9281 H 849.015 1.43081 1.14891 0
M  V30 9282 H 847.397 1.22025 3.76731 0
M  V30 9283 H 848.571 3.81983 2.57731 0
M  V30 9284 H 846.886 3.3608 2.45843 0
M  V30 9285 H 849.483 2.07848 4.92649 0
M  V30 9286 H 849.826 0.565415 4.12442 0
M  V30 9287 H 850.359 2.09361 3.3825 0
M  V30 9288 H 847.098 4.94725 4.30032 0
M  V30 9289 H 846.618 3.36809 4.96306 0
M  V30 9290 H 848.297 3.93736 5.13401 0
M  V30 9291 N 848.429 -1.21819 0.999893 0
M  V30 9292 C 849.339 -2.27691 0.565159 0
M  V30 9293 C 850.355 -1.69587 -0.389398 0
M  V30 9294 O 851.531 -1.99786 -0.254499 0
M  V30 9295 C 848.596 -3.46537 -0.106432 0
M  V30 9296 C 847.657 -4.19932 0.891964 0
M  V30 9297 C 846.89 -5.33103 0.252327 0
M  V30 9298 O 847.113 -5.62398 -0.952103 0
M  V30 9299 O 846.047 -5.94184 0.960698 0
M  V30 9300 H 849.873 -2.67059 1.44613 0
M  V30 9301 H 847.458 -1.28119 0.768499 0
M  V30 9302 H 849.34 -4.18631 -0.482301 0
M  V30 9303 H 848.015 -3.09079 -0.961865 0
M  V30 9304 H 846.922 -3.5008 1.3189 0
M  V30 9305 H 848.255 -4.61287 1.71682 0
M  V30 9306 N 849.908 -0.773975 -1.37286 0
M  V30 9307 C 851.185 -0.263942 -1.93811 0
M  V30 9308 C 851.565 1.24138 -1.70743 0
M  V30 9309 O 850.913 2.02557 -1.05749 0
M  V30 9310 C 851.123 -0.639753 -3.43086 0
M  V30 9311 C 852.471 -0.610796 -4.20184 0
M  V30 9312 O 853.495 -0.579278 -3.51458 0
M  V30 9313 O 852.354 -0.639862 -5.42741 0
M  V30 9314 H 849.448 -0.0614331 -0.824715 0
M  V30 9315 H 851.994 -0.855477 -1.46559 0
M  V30 9316 H 850.766 -1.67856 -3.53469 0
M  V30 9317 H 850.389 -0.0212827 -3.97594 0
M  V30 9318 N 851.386 1.48609 -0.524698 0
M  V30 9319 C 852.296 2.33318 0.244923 0
M  V30 9320 C 853.312 1.46153 0.944214 0
M  V30 9321 O 854.488 1.79141 0.920347 0
M  V30 9322 C 851.553 3.22149 1.28144 0
M  V30 9323 C 850.614 4.25184 0.593068 0
M  V30 9324 C 849.847 5.0977 1.5802 0
M  V30 9325 O 850.07 4.96249 2.81235 0
M  V30 9326 O 849.004 5.9134 1.1225 0
M  V30 9327 H 852.83 3.00362 -0.449066 0
M  V30 9328 H 850.415 1.46643 -0.285689 0
M  V30 9329 H 852.297 3.77111 1.88057 0
M  V30 9330 H 850.972 2.57772 1.95793 0
M  V30 9331 H 849.879 3.74071 -0.0464214 0
M  V30 9332 H 851.212 4.92183 -0.0413893 0
M  V30 9333 N 852.864 0.259585 1.55447 0
M  V30 9334 C 854.141 -0.412595 1.91199 0
M  V30 9335 C 854.521 -1.74909 1.18194 0
M  V30 9336 O 853.869 -2.26474 0.303603 0
M  V30 9337 C 854.079 -0.568195 3.44344 0
M  V30 9338 C 855.427 -0.858253 4.15836 0
M  V30 9339 O 856.451 -0.653588 3.50152 0
M  V30 9340 O 855.31 -1.24874 5.32042 0
M  V30 9341 H 852.404 -0.223403 0.796254 0
M  V30 9342 H 854.95 0.30459 1.66944 0
M  V30 9343 H 853.722 0.372989 3.89518 0
M  V30 9344 H 853.345 -1.33544 3.74502 0
M  V30 9345 N 854.342 -1.57594 -0.0133615 0
M  V30 9346 C 855.572 -1.93969 -0.711295 0
M  V30 9347 C 855.98 -0.859084 -1.68572 0
M  V30 9348 O 855.323 0.171842 -1.82894 0
M  V30 9349 C 855.385 -3.2625 -1.51001 0
M  V30 9350 C 855.049 -4.51628 -0.698645 0
M  V30 9351 C 856.046 -5.19899 0.00791185 0
M  V30 9352 C 853.731 -4.98095 -0.648553 0
M  V30 9353 C 855.725 -6.32928 0.753691 0
M  V30 9354 C 853.412 -6.11017 0.10096 0
M  V30 9355 C 854.41 -6.78289 0.800828 0
M  V30 9356 O 854.098 -7.89048 1.53814 0
M  V30 9357 H 853.83 -0.6445 -0.203951 0
M  V30 9358 H 856.384 -2.05378 0.0298267 0
M  V30 9359 H 854.614 -3.11211 -2.29531 0
M  V30 9360 H 856.303 -3.47835 -2.09202 0
M  V30 9361 H 857.069 -4.84995 -0.0217192 0
M  V30 9362 H 852.948 -4.45568 -1.18282 0
M  V30 9363 H 856.492 -6.85371 1.3005 0
M  V30 9364 H 852.389 -6.45364 0.132459 0
M  V30 9365 H 853.157 -8.05492 1.45345 0
M  V30 9366 N 855.82 0.285905 -1.54985 0
M  V30 9367 C 857.05 1.03626 -1.78732 0
M  V30 9368 C 857.458 1.80896 -0.554377 0
M  V30 9369 O 856.801 1.77161 0.48578 0
M  V30 9370 C 856.863 2.05185 -2.95193 0
M  V30 9371 C 856.527 1.46973 -4.32722 0
M  V30 9372 C 857.524 0.891986 -5.12191 0
M  V30 9373 C 855.209 1.50081 -4.79355 0
M  V30 9374 C 857.203 0.353078 -6.36421 0
M  V30 9375 C 854.89 0.958037 -6.03544 0
M  V30 9376 C 855.888 0.385157 -6.81913 0
M  V30 9377 O 855.576 -0.149341 -8.03761 0
M  V30 9378 H 855.308 0.312416 -0.599477 0
M  V30 9379 H 857.862 0.326067 -2.02795 0
M  V30 9380 H 856.092 2.79928 -2.66791 0
M  V30 9381 H 857.781 2.66244 -3.0638 0
M  V30 9382 H 858.547 0.860762 -4.77301 0
M  V30 9383 H 854.426 1.9361 -4.18373 0
M  V30 9384 H 857.97 -0.0947181 -6.97536 0
M  V30 9385 H 853.867 0.986458 -6.37918 0
M  V30 9386 H 854.635 -0.0374719 -8.18491 0
M  V30 9387 N 857.298 1.47698 0.54982 0
M  V30 9388 C 858.245 1.60739 1.65625 0
M  V30 9389 C 859.215 0.450129 1.59884 0
M  V30 9390 O 860.4 0.671123 1.78607 0
M  V30 9391 C 857.54 1.63457 3.03934 0
M  V30 9392 C 856.653 2.90152 3.20056 0
M  V30 9393 C 855.788 2.84157 4.48807 0
M  V30 9394 C 854.827 4.05644 4.58387 0
M  V30 9395 N 853.964 3.97843 5.78503 0
M  V30 9396 H 858.804 2.55234 1.53817 0
M  V30 9397 H 856.341 1.26593 0.749173 0
M  V30 9398 H 858.299 1.63015 3.84034 0
M  V30 9399 H 856.929 0.724689 3.1456 0
M  V30 9400 H 855.981 3.00428 2.33339 0
M  V30 9401 H 857.293 3.80097 3.22998 0
M  V30 9402 H 856.447 2.82006 5.37175 0
M  V30 9403 H 855.186 1.91908 4.48356 0
M  V30 9404 H 854.191 4.08092 3.6843 0
M  V30 9405 H 855.416 4.9903 4.60593 0
M  V30 9406 H 853.362 3.08401 5.78986 0
M  V30 9407 H 853.279 4.81473 5.82855 0
M  V30 9408 H 854.547 3.99719 6.69212 0
M  V30 9409 N 858.776 -0.797141 1.35954 0
M  V30 9410 C 859.739 -1.89104 1.29508 0
M  V30 9411 C 860.739 -1.59495 0.204444 0
M  V30 9412 O 861.929 -1.68051 0.458746 0
M  V30 9413 C 859.061 -3.25726 1.00576 0
M  V30 9414 H 860.254 -1.96237 2.26785 0
M  V30 9415 H 857.807 -0.994075 1.20614 0
M  V30 9416 H 858.542 -3.24279 0.0372519 0
M  V30 9417 H 858.327 -3.48604 1.79492 0
M  V30 9418 H 859.817 -4.0578 0.986508 0
M  V30 9419 N 860.254 -1.20106 -1.0204 0
M  V30 9420 C 861.479 -1.0351 -1.79723 0
M  V30 9421 C 861.904 0.411328 -1.83548 0
M  V30 9422 O 861.262 1.29608 -1.26773 0
M  V30 9423 C 861.31 -1.61876 -3.22224 0
M  V30 9424 O 860.414 -0.853813 -4.03465 0
M  V30 9425 H 859.755 -0.365299 -0.554484 0
M  V30 9426 H 862.285 -1.59316 -1.28373 0
M  V30 9427 H 862.295 -1.65451 -3.72948 0
M  V30 9428 H 860.97 -2.67148 -3.18755 0
M  V30 9429 H 859.547 -0.891983 -3.62075 0
M  V30 9430 N 861.732 1.21287 -1.00634 0
M  V30 9431 C 862.978 1.90671 -0.690822 0
M  V30 9432 C 863.311 1.77996 0.776592 0
M  V30 9433 O 862.586 1.15748 1.5631 0
M  V30 9434 C 862.869 3.42426 -1.11428 0
M  V30 9435 C 862.722 3.64086 -2.64124 0
M  V30 9436 C 864.041 4.34851 -0.677686 0
M  V30 9437 H 861.16 0.692419 -0.252439 0
M  V30 9438 H 863.802 1.42893 -1.25226 0
M  V30 9439 H 861.952 3.83249 -0.636586 0
M  V30 9440 H 863.624 3.32582 -3.19667 0
M  V30 9441 H 861.867 3.07906 -3.05576 0
M  V30 9442 H 862.538 4.7042 -2.88806 0
M  V30 9443 H 865.014 4.01619 -1.0882 0
M  V30 9444 H 863.89 5.39675 -1.00213 0
M  V30 9445 H 864.151 4.4009 0.421125 0
M  V30 9446 N 863.21 0.781244 1.36873 0
M  V30 9447 C 864.438 0.361566 2.03716 0
M  V30 9448 C 864.853 -1.01937 1.58916 0
M  V30 9449 O 864.21 -1.65237 0.774783 0
M  V30 9450 C 864.261 0.406391 3.59208 0
M  V30 9451 O 863.982 1.73286 4.02372 0
M  V30 9452 C 865.483 -0.0236894 4.43294 0
M  V30 9453 H 862.703 0.150133 0.653988 0
M  V30 9454 H 865.247 1.05781 1.75016 0
M  V30 9455 H 863.402 -0.241364 3.86647 0
M  V30 9456 H 863.816 1.67804 4.96933 0
M  V30 9457 H 865.29 0.0588205 5.51969 0
M  V30 9458 H 865.767 -1.07529 4.25833 0
M  V30 9459 H 866.373 0.59624 4.211 0
M  V30 9460 N 864.689 -1.48329 0.532571 0
M  V30 9461 C 866.105 -1.58458 0.190605 0
M  V30 9462 C 866.305 -1.53427 -1.30623 0
M  V30 9463 O 865.361 -1.4247 -2.08467 0
M  V30 9464 C 866.674 -2.89989 0.79543 0
M  V30 9465 C 868.222 -3.03523 0.7644 0
M  V30 9466 C 868.697 -4.37718 1.34785 0
M  V30 9467 N 870.188 -4.44292 1.30993 0
M  V30 9468 C 870.923 -5.4664 1.73124 0
M  V30 9469 N 870.419 -6.5593 2.22997 0
M  V30 9470 N 872.212 -5.37538 1.64346 0
M  V30 9471 H 864.363 -1.49842 1.50537 0
M  V30 9472 H 866.626 -0.71164 0.626316 0
M  V30 9473 H 866.332 -2.99333 1.84642 0
M  V30 9474 H 866.206 -3.76203 0.27403 0
M  V30 9475 H 868.593 -2.93789 -0.277831 0
M  V30 9476 H 868.674 -2.18912 1.3233 0
M  V30 9477 H 868.318 -4.48206 2.38902 0
M  V30 9478 H 868.248 -5.21019 0.764609 0
M  V30 9479 H 870.739 -3.65897 0.944868 0
M  V30 9480 H 871.052 -7.30167 2.53133 0
M  V30 9481 H 869.397 -6.56886 2.26992 0
M  V30 9482 H 872.588 -4.51052 1.25178 0
M  V30 9483 H 872.761 -6.17169 1.97501 0
M  V30 9484 N 866.167 -0.267825 -1.55308 0
M  V30 9485 C 867.097 0.616585 -2.25212 0
M  V30 9486 C 868.078 1.16472 -1.23969 0
M  V30 9487 O 869.263 1.20021 -1.52672 0
M  V30 9488 C 866.393 1.80412 -2.96764 0
M  V30 9489 C 865.347 1.38784 -4.04874 0
M  V30 9490 C 864.673 2.65789 -4.63961 0
M  V30 9491 C 865.973 0.543415 -5.19465 0
M  V30 9492 H 867.667 0.0336257 -2.99381 0
M  V30 9493 H 865.213 0.0147328 -1.43992 0
M  V30 9494 H 867.166 2.42866 -3.44375 0
M  V30 9495 H 865.89 2.4128 -2.20118 0
M  V30 9496 H 864.549 0.786541 -3.58063 0
M  V30 9497 H 864.197 3.24899 -3.83992 0
M  V30 9498 H 863.897 2.38651 -5.36954 0
M  V30 9499 H 865.421 3.29104 -5.14318 0
M  V30 9500 H 866.835 1.07277 -5.63174 0
M  V30 9501 H 865.232 0.367219 -5.98975 0
M  V30 9502 H 866.302 -0.439534 -4.82904 0
M  V30 9503 N 867.645 1.57599 0.00500368 0
M  V30 9504 C 869.056 1.78462 0.54848 0
M  V30 9505 C 869.407 0.901869 1.74243 0
M  V30 9506 O 868.532 0.103014 2.16155 0
M  V30 9507 C 869.127 3.2365 1.00179 0
M  V30 9508 C 867.686 3.45627 1.49061 0
M  V30 9509 C 866.833 2.73794 0.439531 0
M  V30 9510 H 869.784 1.57151 -0.22118 0
M  V30 9511 H 869.805 3.31488 1.86805 0
M  V30 9512 H 869.317 3.87873 0.132607 0
M  V30 9513 H 867.418 2.86612 2.38085 0
M  V30 9514 H 867.531 4.54298 1.52152 0
M  V30 9515 H 865.895 2.38267 0.900043 0
M  V30 9516 H 866.678 3.40714 -0.420599 0
M  V30 9517 N 869.123 -0.277682 1.55134 0
M  V30 9518 C 870.372 -1.00766 1.74726 0
M  V30 9519 C 870.685 -1.87617 0.553092 0
M  V30 9520 O 871.891 -2.64058 0.631318 0
M  V30 9521 C 870.347 -1.84147 3.09221 0
M  V30 9522 C 869.955 -1.02186 4.3619 0
M  V30 9523 C 871.699 -2.56604 3.38164 0
M  V30 9524 C 869.606 -1.84978 5.61727 0
M  V30 9525 H 868.536 -0.379948 0.651273 0
M  V30 9526 H 871.187 -0.263543 1.81598 0
M  V30 9527 H 869.569 -2.62637 2.96375 0
M  V30 9528 H 870.743 -0.281459 4.5994 0
M  V30 9529 H 869.058 -0.412054 4.14356 0
M  V30 9530 H 871.655 -3.18942 4.29162 0
M  V30 9531 H 871.998 -3.26647 2.58085 0
M  V30 9532 H 872.531 -1.85147 3.52087 0
M  V30 9533 H 869.27 -1.19365 6.4454 0
M  V30 9534 H 868.79 -2.56628 5.42128 0
M  V30 9535 H 870.469 -2.42458 5.99853 0
M  V30 9536 N 870.601 -1.47988 -0.541979 0
M  V30 9537 C 871.548 -1.61615 -1.6477 0
M  V30 9538 C 872.518 -0.458602 -1.59644 0
M  V30 9539 O 873.703 -0.680585 -1.78249 0
M  V30 9540 C 870.843 -1.65066 -3.03063 0
M  V30 9541 C 869.956 -2.91845 -3.18513 0
M  V30 9542 C 869.091 -2.86534 -4.47294 0
M  V30 9543 C 868.13 -4.0807 -4.5623 0
M  V30 9544 N 867.267 -4.00905 -5.76385 0
M  V30 9545 H 872.107 -2.56046 -1.52461 0
M  V30 9546 H 869.644 -1.26989 -0.742449 0
M  V30 9547 H 871.602 -1.65049 -3.83164 0
M  V30 9548 H 870.232 -0.74136 -3.14171 0
M  V30 9549 H 869.284 -3.01661 -2.31743 0
M  V30 9550 H 870.596 -3.81804 -3.20978 0
M  V30 9551 H 869.75 -2.84851 -5.35672 0
M  V30 9552 H 868.489 -1.94283 -4.47332 0
M  V30 9553 H 867.494 -4.10041 -3.66261 0
M  V30 9554 H 868.719 -5.01465 -4.5794 0
M  V30 9555 H 866.665 -3.11467 -5.77342 0
M  V30 9556 H 866.582 -4.84557 -5.80293 0
M  V30 9557 H 867.85 -4.03263 -6.67083 0
M  V30 9558 N 872.079 0.78992 -1.36375 0
M  V30 9559 C 873.325 1.54939 -1.31778 0
M  V30 9560 C 873.68 1.92128 0.102327 0
M  V30 9561 O 872.973 1.59823 1.05675 0
M  V30 9562 C 873.167 2.83698 -2.17371 0
M  V30 9563 C 872.996 2.59093 -3.67561 0
M  V30 9564 C 871.766 2.5414 -4.36739 0
M  V30 9565 C 873.964 2.28325 -4.60838 0
M  V30 9566 N 871.946 2.21427 -5.72576 0
M  V30 9567 C 873.317 2.05596 -5.84919 0
M  V30 9568 C 875.372 2.14328 -4.49409 0
M  V30 9569 C 874.075 1.70285 -6.98853 0
M  V30 9570 C 876.101 1.80415 -5.63209 0
M  V30 9571 C 875.463 1.58533 -6.86328 0
M  V30 9572 H 871.562 0.568011 -0.537483 0
M  V30 9573 H 874.146 0.923183 -1.71422 0
M  V30 9574 H 872.317 3.44187 -1.79972 0
M  V30 9575 H 874.049 3.49425 -2.04167 0
M  V30 9576 H 870.804 2.69368 -3.89535 0
M  V30 9577 H 871.228 2.07818 -6.44314 0
M  V30 9578 H 875.87 2.29935 -3.54809 0
M  V30 9579 H 873.588 1.53415 -7.93404 0
M  V30 9580 H 877.174 1.70269 -5.56327 0
M  V30 9581 H 876.054 1.32677 -7.72895 0
M  V30 9582 N 873.557 1.20646 1.01402 0
M  V30 9583 C 874.49 0.900926 2.09663 0
M  V30 9584 C 875.468 -0.14801 1.61925 0
M  V30 9585 O 876.652 -0.0210235 1.88488 0
M  V30 9586 C 873.779 0.351097 3.36875 0
M  V30 9587 C 872.825 1.38142 4.03508 0
M  V30 9588 S 873.658 2.94741 4.47089 0
M  V30 9589 C 874.814 2.41341 5.77499 0
M  V30 9590 H 875.047 1.81773 2.35257 0
M  V30 9591 H 872.58 1.03521 1.14555 0
M  V30 9592 H 874.538 0.0404201 4.1048 0
M  V30 9593 H 873.199 -0.544255 3.09349 0
M  V30 9594 H 872.392 0.94614 4.9504 0
M  V30 9595 H 871.994 1.63971 3.36139 0
M  V30 9596 H 874.286 1.81263 6.52802 0
M  V30 9597 H 875.229 3.31278 6.25828 0
M  V30 9598 H 875.637 1.83374 5.33886 0
M  V30 9599 N 875.035 -1.20752 1.01276 0
M  V30 9600 C 876.26 -1.94547 0.718769 0
M  V30 9601 C 876.685 -1.7404 -0.713563 0
M  V30 9602 O 876.043 -1.03221 -1.49047 0
M  V30 9603 C 876.091 -3.44823 1.05497 0
M  V30 9604 O 875.195 -4.12072 0.164516 0
M  V30 9605 H 874.536 -0.607931 0.267051 0
M  V30 9606 H 877.066 -1.53292 1.35509 0
M  V30 9607 H 877.076 -3.95427 1.00507 0
M  V30 9608 H 875.751 -3.59072 2.09858 0
M  V30 9609 H 874.328 -3.71909 0.271615 0
M  V30 9610 N 876.513 -0.788492 -1.36457 0
M  V30 9611 C 877.924 -0.423742 -1.81828 0
M  V30 9612 C 878.275 1.05221 -1.65599 0
M  V30 9613 O 877.4 1.8163 -1.17641 0
M  V30 9614 C 877.995 -0.762354 -3.30112 0
M  V30 9615 C 876.554 -0.450445 -3.73695 0
M  V30 9616 C 875.701 -0.997482 -2.58738 0
M  V30 9617 H 878.652 -0.981718 -1.24692 0
M  V30 9618 H 878.673 -0.0531136 -3.80463 0
M  V30 9619 H 878.185 -1.83662 -3.41891 0
M  V30 9620 H 876.286 0.615829 -3.67476 0
M  V30 9621 H 876.399 -0.970408 -4.69169 0
M  V30 9622 H 874.763 -0.420761 -2.51201 0
M  V30 9623 H 875.546 -2.07749 -2.73304 0
M  V30 9624 N 877.991 1.48044 -0.54043 0
M  V30 9625 C 878.901 2.33565 0.220163 0
M  V30 9626 C 879.917 1.47146 0.928659 0
M  V30 9627 O 881.093 1.80107 0.901295 0
M  V30 9628 C 878.158 3.2349 1.2472 0
M  V30 9629 C 877.219 4.25789 0.547938 0
M  V30 9630 C 876.452 5.11417 1.52605 0
M  V30 9631 O 876.675 4.99204 2.75956 0
M  V30 9632 O 875.609 5.92498 1.05972 0
M  V30 9633 H 879.435 2.99868 -0.480898 0
M  V30 9634 H 877.02 1.46332 -0.301226 0
M  V30 9635 H 878.902 3.79084 1.84047 0
M  V30 9636 H 877.577 2.59835 1.93048 0
M  V30 9637 H 876.484 3.74001 -0.0860941 0
M  V30 9638 H 877.817 4.92111 -0.0935896 0
M  V30 9639 N 879.47 0.276058 1.55163 0
M  V30 9640 C 880.695 -0.346648 2.04483 0
M  V30 9641 C 881.12 -1.48613 1.15308 0
M  V30 9642 O 880.478 -1.80663 0.151875 0
M  V30 9643 C 880.526 -0.804268 3.51517 0
M  V30 9644 O 879.63 -1.91143 3.65429 0
M  V30 9645 H 878.971 -0.0715251 0.660136 0
M  V30 9646 H 881.501 0.410631 2.00437 0
M  V30 9647 H 881.511 -1.09977 3.92898 0
M  V30 9648 H 880.186 0.0294123 4.1589 0
M  V30 9649 H 878.763 -1.61839 3.3595 0
M  V30 9650 N 880.948 -1.576 0.00335426 0
M  V30 9651 C 882.197 -1.89892 -0.680001 0
M  V30 9652 C 882.51 -0.878731 -1.7475 0
M  V30 9653 O 883.716 -1.09199 -2.48572 0
M  V30 9654 C 882.172 -3.37098 -1.26066 0
M  V30 9655 C 881.78 -4.4742 -0.227807 0
M  V30 9656 C 883.524 -3.78495 -1.92202 0
M  V30 9657 C 881.431 -5.85706 -0.81865 0
M  V30 9658 H 880.361 -0.708578 -0.257746 0
M  V30 9659 H 883.012 -1.83387 0.0644472 0
M  V30 9660 H 881.394 -3.38451 -2.05589 0
M  V30 9661 H 882.568 -4.57589 0.54307 0
M  V30 9662 H 880.883 -4.15064 0.333297 0
M  V30 9663 H 883.48 -4.7915 -2.37318 0
M  V30 9664 H 883.823 -3.12187 -2.75399 0
M  V30 9665 H 884.356 -3.79456 -1.19408 0
M  V30 9666 H 881.095 -6.55495 -0.0253787 0
M  V30 9667 H 880.615 -5.79196 -1.55861 0
M  V30 9668 H 882.294 -6.33469 -1.31627 0
M  V30 9669 N 882.426 0.269451 -1.5528 0
M  V30 9670 C 883.374 1.35303 -1.89198 0
M  V30 9671 C 884.368 1.50956 -0.768671 0
M  V30 9672 O 885.574 1.52699 -0.953054 0
M  V30 9673 H 881.949 0.452591 -0.600554 0
M  V30 9674 H 883.92 1.03949 -2.79709 0
M  V30 9675 C 882.669 2.70585 -2.18356 0
M  V30 9676 H 881.992 2.59332 -3.04281 0
M  V30 9677 H 883.432 3.45335 -2.46007 0
M  V30 9678 C 881.891 3.21954 -0.992327 0
M  V30 9679 O 882.421 4.01048 -0.228769 0
M  V30 9680 N 880.627 2.79682 -0.789062 0
M  V30 9681 H 880.174 2.15475 -1.41167 0
M  V30 9682 H 880.132 3.14399 0.00634776 0
M  V30 9683 N 883.904 1.48273 0.534124 0
M  V30 9684 C 885.151 1.56079 1.29017 0
M  V30 9685 C 885.479 0.232912 1.931 0
M  V30 9686 O 884.734 -0.77642 1.79639 0
M  V30 9687 C 885.033 2.64468 2.40398 0
M  V30 9688 C 884.699 4.07034 1.93995 0
M  V30 9689 C 883.361 4.45838 1.81058 0
M  V30 9690 C 885.713 4.96395 1.58877 0
M  V30 9691 C 883.041 5.71812 1.31331 0
M  V30 9692 C 885.393 6.22854 1.10614 0
M  V30 9693 C 884.057 6.60518 0.962895 0
M  V30 9694 H 883.327 0.571135 0.472108 0
M  V30 9695 H 885.974 1.81973 0.5965 0
M  V30 9696 H 884.279 2.32419 3.15418 0
M  V30 9697 H 885.976 2.67725 2.98537 0
M  V30 9698 H 882.566 3.76387 2.05015 0
M  V30 9699 H 886.75 4.67096 1.67734 0
M  V30 9700 H 882.006 5.99722 1.18924 0
M  V30 9701 H 886.18 6.91495 0.825095 0
M  V30 9702 H 883.807 7.58019 0.575369 0
M  V30 9703 N 885.382 -0.782676 1.36792 0
M  V30 9704 C 886.798 -1.08169 1.17352 0
M  V30 9705 C 886.998 -2.015 0.0022037 0
M  V30 9706 O 886.054 -2.43692 -0.661093 0
M  V30 9707 C 887.367 -1.68969 2.48737 0
M  V30 9708 C 888.915 -1.81278 2.55161 0
M  V30 9709 C 889.39 -2.45492 3.86649 0
M  V30 9710 N 890.881 -2.52954 3.88032 0
M  V30 9711 C 891.616 -3.03465 4.86515 0
M  V30 9712 N 891.112 -3.54232 5.95392 0
M  V30 9713 N 892.905 -3.02239 4.73928 0
M  V30 9714 H 885.056 -0.162757 2.11775 0
M  V30 9715 H 887.319 -0.134823 0.938364 0
M  V30 9716 H 887.025 -1.07859 3.34753 0
M  V30 9717 H 886.899 -2.68397 2.65034 0
M  V30 9718 H 889.286 -2.41524 1.69559 0
M  V30 9719 H 889.367 -0.806367 2.42758 0
M  V30 9720 H 889.011 -1.85889 4.7266 0
M  V30 9721 H 888.941 -3.46718 3.96351 0
M  V30 9722 H 891.432 -2.17014 3.09376 0
M  V30 9723 H 891.745 -3.91145 6.66503 0
M  V30 9724 H 890.09 -3.52366 5.99052 0
M  V30 9725 H 893.281 -2.61871 3.87996 0
M  V30 9726 H 893.454 -3.41295 5.50837 0
M  V30 9727 N 886.86 -1.21182 -1.00761 0
M  V30 9728 C 888.276 -0.968607 -1.26847 0
M  V30 9729 C 888.476 0.346561 -1.98497 0
M  V30 9730 O 887.532 1.07287 -2.28573 0
M  V30 9731 C 888.845 -2.1574 -2.09467 0
M  V30 9732 C 890.393 -2.19937 -2.22703 0
M  V30 9733 C 890.868 -3.38328 -3.08704 0
M  V30 9734 N 892.359 -3.38398 -3.16293 0
M  V30 9735 C 893.094 -4.26653 -3.83086 0
M  V30 9736 N 892.59 -5.25101 -4.5193 0
M  V30 9737 N 894.383 -4.14469 -3.797 0
M  V30 9738 H 886.534 -2.05763 -0.526816 0
M  V30 9739 H 888.797 -0.90087 -0.29519 0
M  V30 9740 H 888.503 -3.11034 -1.64167 0
M  V30 9741 H 888.377 -2.14584 -3.10216 0
M  V30 9742 H 890.764 -1.25201 -2.67224 0
M  V30 9743 H 890.845 -2.25139 -1.21433 0
M  V30 9744 H 890.489 -4.33356 -2.64886 0
M  V30 9745 H 890.419 -3.30364 -4.10082 0
M  V30 9746 H 892.91 -2.67149 -2.67282 0
M  V30 9747 H 893.223 -5.8875 -5.00592 0
M  V30 9748 H 891.568 -5.29029 -4.50726 0
M  V30 9749 H 894.759 -3.3682 -3.25069 0
M  V30 9750 H 894.932 -4.83458 -4.31477 0
M  V30 9751 N 888.338 1.20213 -1.01915 0
M  V30 9752 C 889.585 1.89647 -0.709955 0
M  V30 9753 C 889.913 1.7901 0.760631 0
M  V30 9754 O 889.168 1.17028 1.56853 0
M  V30 9755 C 889.467 3.40232 -1.09438 0
M  V30 9756 C 889.133 3.7107 -2.5616 0
M  V30 9757 C 887.795 3.79196 -2.96249 0
M  V30 9758 C 890.147 3.85169 -3.51133 0
M  V30 9759 C 887.475 3.98882 -4.30244 0
M  V30 9760 C 889.827 4.06365 -4.8482 0
M  V30 9761 C 888.491 4.12722 -5.24611 0
M  V30 9762 H 887.761 0.693967 -0.259791 0
M  V30 9763 H 890.408 1.42419 -1.2802 0
M  V30 9764 H 888.713 3.89292 -0.442596 0
M  V30 9765 H 890.41 3.92257 -0.832811 0
M  V30 9766 H 887 3.65346 -2.24099 0
M  V30 9767 H 891.184 3.78243 -3.21319 0
M  V30 9768 H 886.44 4.02039 -4.60624 0
M  V30 9769 H 890.614 4.16216 -5.58334 0
M  V30 9770 H 888.241 4.27728 -6.28453 0
M  V30 9771 N 889.816 0.795718 1.36037 0
M  V30 9772 C 891.044 0.383153 2.03321 0
M  V30 9773 C 891.459 -1.00246 1.59988 0
M  V30 9774 O 890.816 -1.64406 0.792265 0
M  V30 9775 C 890.867 0.444467 3.58757 0
M  V30 9776 O 890.588 1.77544 4.00512 0
M  V30 9777 C 892.089 0.0233291 4.43294 0
M  V30 9778 H 889.309 0.157061 0.652359 0
M  V30 9779 H 891.853 1.07632 1.73884 0
M  V30 9780 H 890.008 -0.200341 3.86882 0
M  V30 9781 H 890.422 1.73065 4.95125 0
M  V30 9782 H 891.896 0.117361 5.51875 0
M  V30 9783 H 892.373 -1.03007 4.2695 0
M  V30 9784 H 892.979 0.64087 4.20444 0
M  V30 9785 N 891.294 -1.47756 0.548274 0
M  V30 9786 C 892.522 -2.06884 0.0254873 0
M  V30 9787 C 892.937 -1.40225 -1.26422 0
M  V30 9788 O 892.294 -0.495776 -1.75637 0
M  V30 9789 C 892.345 -3.61036 -0.183134 0
M  V30 9790 O 892.066 -4.25195 1.05549 0
M  V30 9791 C 893.567 -4.37008 -0.744222 0
M  V30 9792 H 890.787 -0.669697 0.041789 0
M  V30 9793 H 893.331 -1.89888 0.759138 0
M  V30 9794 H 891.486 -3.77576 -0.866886 0
M  V30 9795 H 891.9 -5.17606 0.847629 0
M  V30 9796 H 893.374 -5.45579 -0.839529 0
M  V30 9797 H 893.851 -4.0268 -1.75344 0
M  V30 9798 H 894.457 -4.25191 -0.0964542 0
M  V30 9799 N 892.772 -0.284283 -1.55015 0
M  V30 9800 C 893.735 0.586182 -2.21577 0
M  V30 9801 C 894.735 1.07427 -1.1965 0
M  V30 9802 O 895.925 0.972977 -1.44495 0
M  V30 9803 C 893.057 1.80973 -2.88897 0
M  V30 9804 H 894.25 0.00487253 -2.999 0
M  V30 9805 H 891.803 -0.0349696 -1.56261 0
M  V30 9806 H 892.538 2.43131 -2.14611 0
M  V30 9807 H 892.323 1.46757 -3.636 0
M  V30 9808 H 893.813 2.42853 -3.39724 0
M  V30 9809 N 894.251 1.57596 -0.0117121 0
M  V30 9810 C 895.476 1.95764 0.684938 0
M  V30 9811 C 895.901 0.887285 1.65858 0
M  V30 9812 O 895.259 -0.153508 1.80649 0
M  V30 9813 C 895.307 3.33031 1.38285 0
M  V30 9814 O 894.411 3.28163 2.49765 0
M  V30 9815 H 893.752 0.638767 0.181309 0
M  V30 9816 H 896.282 2.04486 -0.0683883 0
M  V30 9817 H 896.292 3.68866 1.74362 0
M  V30 9818 H 894.967 4.10483 0.669043 0
M  V30 9819 H 893.544 3.04021 2.15929 0
M  V30 9820 N 895.729 -0.261212 1.5542 0
M  V30 9821 C 897.006 -1.01321 1.67312 0
M  V30 9822 C 897.386 -2.0388 0.547356 0
M  V30 9823 O 896.734 -2.24003 -0.451083 0
M  V30 9824 C 896.944 -1.65943 3.07024 0
M  V30 9825 C 898.292 -2.16666 3.65159 0
M  V30 9826 O 899.316 -1.75909 3.09733 0
M  V30 9827 O 898.175 -2.91455 4.62294 0
M  V30 9828 H 895.269 -0.470714 0.679968 0
M  V30 9829 H 897.815 -0.256133 1.67756 0
M  V30 9830 H 896.587 -0.916868 3.80407 0
M  V30 9831 H 896.21 -2.48308 3.1053 0
M  V30 9832 N 897.207 -1.48554 -0.526253 0
M  V30 9833 C 898.453 -1.56994 -1.28378 0
M  V30 9834 C 898.786 -0.244701 -1.92652 0
M  V30 9835 O 898.061 0.749636 -1.79473 0
M  V30 9836 C 898.344 -2.71092 -2.37026 0
M  V30 9837 C 898.197 -4.13331 -1.77418 0
M  V30 9838 C 899.516 -2.80934 -3.38769 0
M  V30 9839 H 896.635 -0.571466 -0.465398 0
M  V30 9840 H 899.277 -1.80742 -0.585861 0
M  V30 9841 H 897.427 -2.50973 -2.96555 0
M  V30 9842 H 899.099 -4.44899 -1.21912 0
M  V30 9843 H 897.342 -4.20158 -1.07936 0
M  V30 9844 H 898.013 -4.88994 -2.56104 0
M  V30 9845 H 900.489 -2.9917 -2.892 0
M  V30 9846 H 899.365 -3.62489 -4.12181 0
M  V30 9847 H 899.626 -1.89244 -3.99549 0
M  V30 9848 N 898.685 0.775411 -1.37205 0
M  V30 9849 C 899.931 1.53533 -1.33414 0
M  V30 9850 C 900.286 1.92225 0.0819435 0
M  V30 9851 O 899.579 1.60935 1.03974 0
M  V30 9852 C 899.773 2.81377 -2.20367 0
M  V30 9853 C 899.602 2.5518 -3.70288 0
M  V30 9854 C 898.372 2.49493 -4.3941 0
M  V30 9855 C 900.57 2.23425 -4.63234 0
M  V30 9856 N 898.552 2.15341 -5.74892 0
M  V30 9857 C 899.923 1.99381 -5.87067 0
M  V30 9858 C 901.978 2.09549 -4.51657 0
M  V30 9859 C 900.681 1.62863 -7.0062 0
M  V30 9860 C 902.707 1.74431 -5.65091 0
M  V30 9861 C 902.069 1.51245 -6.87971 0
M  V30 9862 H 898.168 0.562278 -0.543477 0
M  V30 9863 H 900.752 0.90495 -1.72391 0
M  V30 9864 H 898.923 3.42259 -1.83612 0
M  V30 9865 H 900.655 3.4724 -2.07861 0
M  V30 9866 H 897.41 2.65221 -3.9237 0
M  V30 9867 H 897.834 2.00972 -6.46482 0
M  V30 9868 H 902.476 2.26159 -3.57228 0
M  V30 9869 H 900.194 1.44991 -7.94986 0
M  V30 9870 H 903.78 1.64359 -5.58102 0
M  V30 9871 H 902.66 1.24472 -7.74259 0
M  V30 9872 N 900.163 1.21714 1.00117 0
M  V30 9873 C 901.096 0.923113 2.08696 0
M  V30 9874 C 902.074 -0.130827 1.62073 0
M  V30 9875 O 903.258 -0.00103064 1.885 0
M  V30 9876 C 900.385 0.386807 3.36484 0
M  V30 9877 C 899.431 1.42414 4.0202 0
M  V30 9878 S 900.264 2.99466 4.43937 0
M  V30 9879 C 901.42 2.47452 5.74907 0
M  V30 9880 H 901.653 1.84258 2.33315 0
M  V30 9881 H 899.186 1.0473 1.1345 0
M  V30 9882 H 901.144 0.0839547 4.10414 0
M  V30 9883 H 899.805 -0.511413 3.09909 0
M  V30 9884 H 898.998 0.998593 4.94008 0
M  V30 9885 H 898.6 1.67527 3.34381 0
M  V30 9886 H 900.892 1.88177 6.50842 0
M  V30 9887 H 901.835 3.37898 6.22279 0
M  V30 9888 H 902.243 1.89027 5.31911 0
M  V30 9889 N 901.641 -1.19671 1.02551 0
M  V30 9890 C 902.888 -1.89268 0.720002 0
M  V30 9891 C 903.216 -1.79411 -0.751127 0
M  V30 9892 O 902.471 -1.17859 -1.5623 0
M  V30 9893 C 902.77 -3.39647 1.11241 0
M  V30 9894 C 902.436 -3.69706 2.58125 0
M  V30 9895 C 901.098 -3.7762 2.98256 0
M  V30 9896 C 903.45 -3.83301 3.53171 0
M  V30 9897 C 900.778 -3.96594 4.32354 0
M  V30 9898 C 903.13 -4.03788 4.86968 0
M  V30 9899 C 901.794 -4.09934 5.26793 0
M  V30 9900 H 901.064 -0.692579 0.263467 0
M  V30 9901 H 903.711 -1.41738 1.28774 0
M  V30 9902 H 902.016 -3.89052 0.463234 0
M  V30 9903 H 903.713 -3.91809 0.853602 0
M  V30 9904 H 900.303 -3.64152 2.26033 0
M  V30 9905 H 904.487 -3.76534 3.2332 0
M  V30 9906 H 899.743 -3.9959 4.6275 0
M  V30 9907 H 903.917 -4.1325 5.60533 0
M  V30 9908 H 901.544 -4.24389 6.30712 0
M  V30 9909 N 903.119 -0.802921 -1.35613 0
M  V30 9910 C 904.082 -0.216422 -2.28176 0
M  V30 9911 C 905.082 0.594101 -1.49422 0
M  V30 9912 O 906.272 0.41312 -1.6923 0
M  V30 9913 C 903.404 0.698746 -3.33662 0
M  V30 9914 H 904.597 -1.03276 -2.81557 0
M  V30 9915 H 902.15 -0.573307 -1.45406 0
M  V30 9916 H 902.885 1.53891 -2.85461 0
M  V30 9917 H 902.67 0.119314 -3.91918 0
M  V30 9918 H 904.16 1.10354 -4.02755 0
M  V30 9919 N 904.597 1.47463 -0.556102 0
M  V30 9920 C 905.843 2.02775 -0.0316806 0
M  V30 9921 C 906.176 1.42967 1.3143 0
M  V30 9922 O 905.451 0.584847 1.85499 0
M  V30 9923 C 905.734 3.60046 0.0625742 0
M  V30 9924 C 905.587 4.30288 -1.31043 0
M  V30 9925 C 906.906 4.33195 0.776553 0
M  V30 9926 H 904.025 0.736886 -0.0129869 0
M  V30 9927 H 906.667 1.75904 -0.718177 0
M  V30 9928 H 904.817 3.83071 0.647231 0
M  V30 9929 H 906.489 4.18607 -1.9382 0
M  V30 9930 H 904.732 3.90685 -1.8854 0
M  V30 9931 H 905.403 5.38861 -1.1972 0
M  V30 9932 H 907.879 4.15156 0.280147 0
M  V30 9933 H 906.755 5.42869 0.81146 0
M  V30 9934 H 907.016 4.02336 1.83244 0
M  V30 9935 N 906.075 0.2925 1.54862 0
M  V30 9936 C 907.315 -0.32024 2.01876 0
M  V30 9937 C 907.679 -1.5174 1.17639 0
M  V30 9938 O 908.88 -2.20094 1.54312 0
M  V30 9939 C 907.151 -0.67611 3.50947 0
M  V30 9940 S 908.71 -1.27292 4.19931 0
M  V30 9941 H 905.528 -0.0987374 0.704111 0
M  V30 9942 H 908.13 0.41839 1.90971 0
M  V30 9943 H 906.834 0.203797 4.09894 0
M  V30 9944 H 906.365 -1.44575 3.65871 0
M  V30 9945 H 908.38 -2.56102 4.25002 0
M  V30 9946 N 907.553 -1.57587 0.0200696 0
M  V30 9947 C 908.486 -2.05157 -0.999295 0
M  V30 9948 C 909.464 -0.945466 -1.32286 0
M  V30 9949 O 910.648 -1.21512 -1.44108 0
M  V30 9950 C 907.775 -2.46604 -2.32173 0
M  V30 9951 C 906.821 -3.68146 -2.15339 0
M  V30 9952 S 907.654 -5.15194 -1.46065 0
M  V30 9953 C 908.81 -5.59929 -2.79697 0
M  V30 9954 H 909.043 -2.91299 -0.59433 0
M  V30 9955 H 906.576 -1.53209 -0.191372 0
M  V30 9956 H 908.534 -2.7115 -3.08201 0
M  V30 9957 H 907.195 -1.60825 -2.69804 0
M  V30 9958 H 906.388 -3.94963 -3.13082 0
M  V30 9959 H 905.99 -3.43705 -1.47454 0
M  V30 9960 H 908.282 -5.63615 -3.75957 0
M  V30 9961 H 909.225 -6.59599 -2.57555 0
M  V30 9962 H 909.633 -4.87549 -2.84528 0
M  V30 9963 N 909.032 0.252966 -1.55557 0
M  V30 9964 C 910.278 0.979092 -1.78284 0
M  V30 9965 C 910.633 1.83194 -0.588009 0
M  V30 9966 O 909.926 1.86965 0.418899 0
M  V30 9967 C 910.12 1.87785 -3.04091 0
M  V30 9968 C 909.949 1.11349 -4.35697 0
M  V30 9969 C 908.719 0.821038 -4.98585 0
M  V30 9970 C 910.917 0.494039 -5.11922 0
M  V30 9971 N 908.899 0.0319767 -6.13892 0
M  V30 9972 C 910.27 -0.159888 -6.19794 0
M  V30 9973 C 912.325 0.403894 -4.96259 0
M  V30 9974 C 911.028 -0.895295 -7.13706 0
M  V30 9975 C 913.054 -0.317968 -5.90545 0
M  V30 9976 C 912.416 -0.960555 -6.9782 0
M  V30 9977 H 908.515 0.339586 -0.704419 0
M  V30 9978 H 911.099 0.252801 -1.93052 0
M  V30 9979 H 909.27 2.57623 -2.90663 0
M  V30 9980 H 911.002 2.53908 -3.15139 0
M  V30 9981 H 907.757 1.13132 -4.59889 0
M  V30 9982 H 908.181 -0.35047 -6.76092 0
M  V30 9983 H 912.823 0.886366 -4.13405 0
M  V30 9984 H 910.541 -1.38939 -7.96066 0
M  V30 9985 H 914.127 -0.388302 -5.80503 0
M  V30 9986 H 913.007 -1.51022 -7.69521 0
M  V30 9987 N 910.51 1.48831 0.518367 0
M  V30 9988 C 911.42 1.6692 1.64848 0
M  V30 9989 C 912.436 0.551711 1.65022 0
M  V30 9990 O 913.612 0.824251 1.83761 0
M  V30 9991 C 910.677 1.71559 3.01278 0
M  V30 9992 C 909.738 2.9502 3.11868 0
M  V30 9993 C 908.971 2.99428 4.4179 0
M  V30 9994 O 909.194 2.11914 5.29574 0
M  V30 9995 O 908.128 3.91719 4.5699 0
M  V30 9996 H 911.954 2.62623 1.52521 0
M  V30 9997 H 909.539 1.32368 0.692749 0
M  V30 9998 H 911.421 1.77064 3.82396 0
M  V30 9999 H 910.096 0.790316 3.13904 0
M  V30 10000 H 909.003 2.95042 2.30003 0
M  V30 10001 H 910.336 3.8697 3.04163 0
M  V30 10002 N 911.988 -0.768124 1.37614 0
M  V30 10003 C 913.237 -1.5221 1.32345 0
M  V30 10004 C 913.55 -1.95399 -0.0885761 0
M  V30 10005 O 914.756 -2.70216 -0.263752 0
M  V30 10006 C 913.212 -2.74872 2.32322 0
M  V30 10007 C 912.82 -2.38767 3.79071 0
M  V30 10008 C 914.564 -3.52805 2.36069 0
M  V30 10009 C 912.471 -3.57953 4.7077 0
M  V30 10010 H 911.401 -0.571461 0.491883 0
M  V30 10011 H 914.052 -0.841004 1.63093 0
M  V30 10012 H 912.434 -3.44889 1.94596 0
M  V30 10013 H 913.608 -1.7651 4.25654 0
M  V30 10014 H 911.923 -1.74 3.78303 0
M  V30 10015 H 914.52 -4.41397 3.01782 0
M  V30 10016 H 914.863 -3.92925 1.37535 0
M  V30 10017 H 915.396 -2.89788 2.72521 0
M  V30 10018 H 912.135 -3.22911 5.70446 0
M  V30 10019 H 911.655 -4.19302 4.28889 0
M  V30 10020 H 913.334 -4.2472 4.8808 0
M  V30 10021 N 913.466 -1.22244 -0.994698 0
M  V30 10022 C 914.396 -1.01513 -2.10279 0
M  V30 10023 C 915.377 0.0633365 -1.69982 0
M  V30 10024 O 916.562 -0.0985268 -1.9395 0
M  V30 10025 C 913.692 -0.59016 -3.42249 0
M  V30 10026 C 912.646 -1.61436 -3.96387 0
M  V30 10027 C 911.972 -1.04528 -5.24383 0
M  V30 10028 C 913.272 -3.00388 -4.27276 0
M  V30 10029 H 914.966 -1.94194 -2.2788 0
M  V30 10030 H 912.512 -0.935094 -1.09508 0
M  V30 10031 H 914.465 -0.432254 -4.19177 0
M  V30 10032 H 913.189 0.372308 -3.24471 0
M  V30 10033 H 911.848 -1.76001 -3.21589 0
M  V30 10034 H 911.496 -0.0742225 -5.02945 0
M  V30 10035 H 911.196 -1.72949 -5.61571 0
M  V30 10036 H 912.72 -0.898922 -6.03947 0
M  V30 10037 H 914.134 -2.89207 -4.95007 0
M  V30 10038 H 912.531 -3.65916 -4.75631 0
M  V30 10039 H 913.601 -3.50456 -3.35125 0
M  V30 10040 N 914.944 1.19125 -1.03184 0
M  V30 10041 C 916.169 1.93379 -0.749628 0
M  V30 10042 C 916.594 1.75153 0.685785 0
M  V30 10043 O 915.952 1.05579 1.47386 0
M  V30 10044 C 916 3.43101 -1.1097 0
M  V30 10045 O 915.104 4.11758 -0.230053 0
M  V30 10046 H 914.445 0.603605 -0.276689 0
M  V30 10047 H 916.975 1.51116 -1.37931 0
M  V30 10048 H 916.985 3.93778 -1.06785 0
M  V30 10049 H 915.66 3.55688 -2.15544 0
M  V30 10050 H 914.237 3.7143 -0.330748 0
M  V30 10051 N 916.422 0.810101 1.35185 0
M  V30 10052 C 917.669 0.392117 1.98667 0
M  V30 10053 C 917.997 -1.0416 1.64259 0
M  V30 10054 O 917.252 -1.73795 0.899647 0
M  V30 10055 C 917.551 0.526561 3.535 0
M  V30 10056 C 917.217 1.92411 4.07785 0
M  V30 10057 C 915.879 2.30644 4.22323 0
M  V30 10058 C 918.231 2.83827 4.37141 0
M  V30 10059 C 915.559 3.59655 4.63536 0
M  V30 10060 C 917.911 4.12287 4.79794 0
M  V30 10061 C 916.575 4.50515 4.92536 0
M  V30 10062 H 915.845 0.143486 0.726975 0
M  V30 10063 H 918.492 1.03157 1.61341 0
M  V30 10064 H 916.797 -0.19633 3.91308 0
M  V30 10065 H 918.494 0.183871 4.00578 0
M  V30 10066 H 915.084 1.61707 3.96924 0
M  V30 10067 H 919.268 2.55536 4.25459 0
M  V30 10068 H 914.524 3.89117 4.71591 0
M  V30 10069 H 918.698 4.83221 5.01468 0
M  V30 10070 H 916.325 5.50535 5.24229 0
M  V30 10071 N 917.9 -1.47166 0.563914 0
M  V30 10072 C 919.148 -2.02056 0.0422873 0
M  V30 10073 C 919.469 -1.43992 -1.31497 0
M  V30 10074 O 918.739 -0.617578 -1.85911 0
M  V30 10075 H 917.319 -0.746893 0.0126427 0
M  V30 10076 H 919.981 -1.80492 0.735441 0
M  V30 10077 H 919.077 -3.12073 -0.0408044 0
M  V30 10078 N 919.378 -0.300708 -1.54705 0
M  V30 10079 C 920.325 0.57552 -2.23509 0
M  V30 10080 C 921.295 1.12979 -1.21758 0
M  V30 10081 O 922.48 1.17437 -1.50377 0
M  V30 10082 C 919.62 1.74167 -2.97926 0
M  V30 10083 C 918.733 1.21882 -4.1445 0
M  V30 10084 C 917.868 2.34881 -4.7645 0
M  V30 10085 C 916.907 1.79729 -5.85119 0
M  V30 10086 N 916.044 2.863 -6.41075 0
M  V30 10087 H 920.884 -0.0178257 -2.97995 0
M  V30 10088 H 918.421 -0.0205666 -1.47086 0
M  V30 10089 H 920.379 2.42753 -3.39303 0
M  V30 10090 H 919.009 2.30665 -2.25817 0
M  V30 10091 H 918.061 0.425227 -3.78016 0
M  V30 10092 H 919.373 0.775065 -4.92741 0
M  V30 10093 H 918.527 3.11415 -5.20678 0
M  V30 10094 H 917.266 2.82584 -3.97489 0
M  V30 10095 H 916.271 1.01684 -5.40315 0
M  V30 10096 H 917.496 1.32931 -6.65963 0
M  V30 10097 H 915.442 3.33337 -5.64998 0
M  V30 10098 H 915.359 2.46419 -7.14712 0
M  V30 10099 H 916.627 3.62732 -6.89961 0
M  V30 10100 N 920.856 1.57574 -0.0284266 0
M  V30 10101 C 921.788 2.07079 0.982391 0
M  V30 10102 C 922.801 0.994078 1.28926 0
M  V30 10103 O 923.99 1.27028 1.25404 0
M  V30 10104 C 921.09 2.47978 2.30998 0
M  V30 10105 C 920.263 3.7872 2.18838 0
M  V30 10106 C 919.322 4.06177 3.34524 0
M  V30 10107 O 918.348 4.76438 3.11441 0
M  V30 10108 N 919.55 3.56297 4.58293 0
M  V30 10109 H 922.315 2.94421 0.560011 0
M  V30 10110 H 919.876 1.61124 0.158347 0
M  V30 10111 H 921.868 2.63439 3.07216 0
M  V30 10112 H 920.438 1.66005 2.64879 0
M  V30 10113 H 919.658 3.73062 1.27351 0
M  V30 10114 H 920.946 4.6438 2.07915 0
M  V30 10115 H 920.344 2.99453 4.79942 0
M  V30 10116 H 918.901 3.77038 5.31682 0
M  V30 10117 N 922.334 -0.244713 1.55689 0
M  V30 10118 C 923.745 -0.813603 1.6804 0
M  V30 10119 C 924.096 -1.85936 0.626281 0
M  V30 10120 O 923.221 -2.15206 -0.227038 0
M  V30 10121 C 923.816 -1.48252 3.04642 0
M  V30 10122 C 922.375 -1.99908 3.18926 0
M  V30 10123 C 921.522 -0.850958 2.6392 0
M  V30 10124 H 924.473 -0.0204805 1.58687 0
M  V30 10125 H 924.494 -2.35062 2.99209 0
M  V30 10126 H 924.006 -0.721164 3.81341 0
M  V30 10127 H 922.107 -2.78918 2.47054 0
M  V30 10128 H 922.22 -2.19497 4.25862 0
M  V30 10129 H 920.584 -1.25206 2.21801 0
M  V30 10130 H 921.367 -0.10265 3.43146 0
M  V30 10131 N 923.813 -1.49104 -0.510467 0
M  V30 10132 C 925.06 -1.58112 -1.26518 0
M  V30 10133 C 925.388 -0.263603 -1.92705 0
M  V30 10134 O 924.643 0.747743 -1.80852 0
M  V30 10135 C 924.942 -2.68259 -2.36161 0
M  V30 10136 C 924.608 -4.10069 -1.87495 0
M  V30 10137 C 923.27 -4.48662 -1.73942 0
M  V30 10138 C 925.622 -4.98859 -1.5096 0
M  V30 10139 C 922.95 -5.73829 -1.22217 0
M  V30 10140 C 925.302 -6.24535 -1.00691 0
M  V30 10141 C 923.966 -6.61967 -0.857691 0
M  V30 10142 H 923.236 -0.578574 -0.462962 0
M  V30 10143 H 925.883 -1.82899 -0.567475 0
M  V30 10144 H 924.188 -2.37407 -3.11681 0
M  V30 10145 H 925.885 -2.7244 -2.9424 0
M  V30 10146 H 922.475 -3.79601 -1.99001 0
M  V30 10147 H 926.659 -4.69706 -1.60282 0
M  V30 10148 H 921.915 -6.01539 -1.09368 0
M  V30 10149 H 926.089 -6.9272 -0.71498 0
M  V30 10150 H 923.716 -7.58839 -0.454702 0
M  V30 10151 N 925.291 0.760815 -1.38019 0
M  V30 10152 C 926.538 1.51973 -1.3383 0
M  V30 10153 C 926.866 1.9436 0.0738855 0
M  V30 10154 O 926.121 1.65181 1.04946 0
M  V30 10155 C 926.42 2.79024 -2.23339 0
M  V30 10156 C 926.086 2.55636 -3.71431 0
M  V30 10157 C 924.748 2.48966 -4.11788 0
M  V30 10158 C 927.1 2.35018 -4.65205 0
M  V30 10159 C 924.428 2.19684 -5.44018 0
M  V30 10160 C 926.78 2.07258 -5.97685 0
M  V30 10161 C 925.444 1.9904 -6.37134 0
M  V30 10162 H 924.714 0.556108 -0.489719 0
M  V30 10163 H 927.361 0.87545 -1.70318 0
M  V30 10164 H 925.666 3.48065 -1.79883 0
M  V30 10165 H 927.363 3.36951 -2.17405 0
M  V30 10166 H 923.953 2.61695 -3.39432 0
M  V30 10167 H 928.137 2.39154 -4.34878 0
M  V30 10168 H 923.393 2.11825 -5.73533 0
M  V30 10169 H 927.567 1.90307 -6.69893 0
M  V30 10170 H 925.194 1.76115 -7.39519 0
M  V30 10171 N 926.769 1.22769 0.988202 0
M  V30 10172 C 928.015 1.06672 1.73184 0
M  V30 10173 C 928.37 -0.393434 1.88334 0
M  V30 10174 O 927.663 -1.2876 1.41885 0
M  V30 10175 C 927.857 1.71679 3.13466 0
M  V30 10176 C 927.686 3.23864 3.11997 0
M  V30 10177 C 926.456 3.92991 3.17626 0
M  V30 10178 C 928.654 4.20737 2.95778 0
M  V30 10179 N 926.636 5.32224 3.05959 0
M  V30 10180 C 928.007 5.46831 2.92191 0
M  V30 10181 C 930.062 4.1157 2.80205 0
M  V30 10182 C 928.765 6.64811 2.74624 0
M  V30 10183 C 930.791 5.29205 2.64 0
M  V30 10184 C 930.153 6.5422 2.61104 0
M  V30 10185 H 926.252 0.44481 0.64317 0
M  V30 10186 H 928.836 1.55381 1.17323 0
M  V30 10187 H 927.007 1.25513 3.67561 0
M  V30 10188 H 928.739 1.48629 3.76419 0
M  V30 10189 H 925.494 3.4402 3.25495 0
M  V30 10190 H 925.918 6.05197 3.03423 0
M  V30 10191 H 930.56 3.15697 2.81239 0
M  V30 10192 H 928.278 7.60828 2.72336 0
M  V30 10193 H 931.864 5.23947 2.52925 0
M  V30 10194 H 930.744 7.43713 2.48719 0
M  V30 10195 N 928.247 -1.18576 1.03814 0
M  V30 10196 C 929.177 -2.24334 0.647795 0
M  V30 10197 C 930.158 -1.66508 -0.34774 0
M  V30 10198 O 931.343 -1.92852 -0.228401 0
M  V30 10199 C 928.473 -3.47299 0.00734922 0
M  V30 10200 C 927.427 -4.17859 0.926152 0
M  V30 10201 C 926.753 -5.34489 0.150317 0
M  V30 10202 C 928.053 -4.71632 2.24411 0
M  V30 10203 H 929.747 -2.57241 1.53191 0
M  V30 10204 H 927.293 -1.23649 0.738028 0
M  V30 10205 H 929.246 -4.20486 -0.277434 0
M  V30 10206 H 927.97 -3.13619 -0.911626 0
M  V30 10207 H 926.629 -3.46567 1.19528 0
M  V30 10208 H 926.277 -4.97056 -0.770985 0
M  V30 10209 H 925.977 -5.82633 0.762407 0
M  V30 10210 H 927.501 -6.10467 -0.127508 0
M  V30 10211 H 928.915 -5.36526 2.02021 0
M  V30 10212 H 927.312 -5.303 2.80894 0
M  V30 10213 H 928.382 -3.89192 2.89236 0
M  V30 10214 N 929.725 -0.817259 -1.34754 0
M  V30 10215 C 930.635 -0.236946 -2.334 0
M  V30 10216 C 931.651 0.625685 -1.62361 0
M  V30 10217 O 932.827 0.534921 -1.94166 0
M  V30 10218 C 929.892 0.596215 -3.41535 0
M  V30 10219 C 928.953 -0.288154 -4.28332 0
M  V30 10220 C 928.186 0.505337 -5.31302 0
M  V30 10221 O 928.409 1.73912 -5.43241 0
M  V30 10222 O 927.343 -0.109374 -6.01801 0
M  V30 10223 H 931.169 -1.05327 -2.84851 0
M  V30 10224 H 928.754 -0.579275 -1.37713 0
M  V30 10225 H 930.636 1.07041 -4.07578 0
M  V30 10226 H 929.311 1.38997 -2.92338 0
M  V30 10227 H 928.218 -0.809724 -3.65232 0
M  V30 10228 H 929.551 -1.04612 -4.80955 0
M  V30 10229 N 931.203 1.46865 -0.571711 0
M  V30 10230 C 932.151 2.31897 0.180714 0
M  V30 10231 C 933.145 1.43815 0.895191 0
M  V30 10232 O 934.351 1.60501 0.814828 0
M  V30 10233 H 930.726 0.748032 0.077148 0
M  V30 10234 H 932.697 2.93185 -0.555432 0
M  V30 10235 C 931.446 3.26766 1.18824 0
M  V30 10236 H 930.769 3.94515 0.64789 0
M  V30 10237 H 932.209 3.89067 1.68532 0
M  V30 10238 C 930.668 2.51325 2.2436 0
M  V30 10239 O 931.198 2.26825 3.31532 0
M  V30 10240 N 929.404 2.12079 1.98673 0
M  V30 10241 H 928.951 2.32204 1.1153 0
M  V30 10242 H 928.909 1.61921 2.69498 0
M  V30 10243 N 932.681 0.308908 1.54543 0
M  V30 10244 C 933.628 -0.563659 2.23811 0
M  V30 10245 C 934.598 -1.12332 1.22355 0
M  V30 10246 O 935.783 -1.16638 1.50997 0
M  V30 10247 C 932.923 -1.72585 2.98845 0
M  V30 10248 C 932.036 -1.19682 4.1509 0
M  V30 10249 C 931.171 -2.32351 4.77688 0
M  V30 10250 C 930.21 -1.76623 5.86064 0
M  V30 10251 N 929.347 -2.82896 6.42584 0
M  V30 10252 H 934.187 0.0336288 2.97981 0
M  V30 10253 H 931.724 0.0283666 1.47073 0
M  V30 10254 H 933.682 -2.40951 3.40586 0
M  V30 10255 H 932.312 -2.29464 2.27037 0
M  V30 10256 H 931.364 -0.405173 3.78236 0
M  V30 10257 H 932.676 -0.748923 4.93146 0
M  V30 10258 H 931.83 -3.0865 5.22322 0
M  V30 10259 H 930.569 -2.80472 3.98982 0
M  V30 10260 H 929.574 -0.988171 5.40847 0
M  V30 10261 H 930.799 -1.29398 6.66658 0
M  V30 10262 H 928.745 -3.30336 5.66758 0
M  V30 10263 H 928.662 -2.42626 7.16009 0
M  V30 10264 H 929.93 -3.59068 6.91875 0
M  V30 10265 N 934.159 -1.57557 0.0367827 0
M  V30 10266 C 935.436 -1.83427 -0.679261 0
M  V30 10267 C 935.816 -0.922274 -1.89888 0
M  V30 10268 O 935.164 0.02025 -2.28491 0
M  V30 10269 C 935.374 -3.32823 -1.05022 0
M  V30 10270 C 936.722 -3.99486 -1.43861 0
M  V30 10271 O 937.746 -3.37364 -1.14297 0
M  V30 10272 O 936.605 -5.0899 -1.98977 0
M  V30 10273 H 933.699 -0.756581 -0.333936 0
M  V30 10274 H 936.245 -1.69575 0.0650494 0
M  V30 10275 H 935.017 -3.90874 -0.182509 0
M  V30 10276 H 934.64 -3.5181 -1.85244 0
M  V30 10277 N 935.637 0.236453 -1.55816 0
M  V30 10278 C 936.883 0.964439 -1.784 0
M  V30 10279 C 937.216 1.84573 -0.603868 0
M  V30 10280 O 936.491 1.90395 0.397473 0
M  V30 10281 C 936.774 1.81608 -3.10951 0
M  V30 10282 C 936.627 0.962283 -4.39386 0
M  V30 10283 C 937.946 2.79665 -3.39817 0
M  V30 10284 H 935.065 0.349192 -0.649026 0
M  V30 10285 H 937.707 0.234247 -1.8855 0
M  V30 10286 H 935.857 2.43864 -3.02428 0
M  V30 10287 H 937.529 0.35762 -4.59912 0
M  V30 10288 H 935.772 0.267062 -4.32977 0
M  V30 10289 H 936.443 1.59222 -5.28538 0
M  V30 10290 H 938.919 2.27546 -3.4837 0
M  V30 10291 H 937.795 3.36367 -4.33761 0
M  V30 10292 H 938.056 3.56657 -2.61244 0
M  V30 10293 N 937.115 1.49373 0.502552 0
M  V30 10294 C 938.364 1.58028 1.25339 0
M  V30 10295 C 938.677 0.271494 1.93707 0
M  V30 10296 O 939.883 0.236584 2.70467 0
M  V30 10297 C 938.339 2.78817 2.27572 0
M  V30 10298 C 937.947 4.16448 1.65151 0
M  V30 10299 C 939.691 2.96802 3.03494 0
M  V30 10300 C 937.598 5.28461 2.65486 0
M  V30 10301 H 936.528 0.588396 0.471494 0
M  V30 10302 H 939.179 1.75756 0.52744 0
M  V30 10303 H 937.561 2.5458 3.03323 0
M  V30 10304 H 938.735 4.50816 0.954029 0
M  V30 10305 H 937.05 4.03809 1.01625 0
M  V30 10306 H 939.647 3.77656 3.78524 0
M  V30 10307 H 939.99 2.07303 3.61014 0
M  V30 10308 H 940.523 3.21071 2.34858 0
M  V30 10309 H 937.262 6.20015 2.12749 0
M  V30 10310 H 936.782 4.9855 3.33479 0
M  V30 10311 H 938.461 5.5773 3.27943 0
M  V30 10312 N 938.594 -0.753485 1.38421 0
M  V30 10313 C 939.842 -1.50962 1.34368 0
M  V30 10314 C 940.163 -1.94889 -0.0656895 0
M  V30 10315 O 939.433 -1.67652 -1.01339 0
M  V30 10316 H 938.013 -0.559967 0.494415 0
M  V30 10317 H 940.675 -0.895665 1.73101 0
M  V30 10318 H 939.771 -2.40048 1.99458 0
M  V30 10319 N 940.072 -1.23292 -0.981677 0
M  V30 10320 C 941.318 -1.06582 -1.72535 0
M  V30 10321 C 941.651 0.396538 -1.90108 0
M  V30 10322 O 940.926 1.29363 -1.45243 0
M  V30 10323 C 941.209 -1.7904 -3.12437 0
M  V30 10324 C 941.062 -3.32941 -3.02441 0
M  V30 10325 C 942.381 -1.55185 -4.11832 0
M  V30 10326 H 939.5 -0.388585 -0.626236 0
M  V30 10327 H 942.142 -1.51779 -1.14293 0
M  V30 10328 H 940.292 -1.40619 -3.62158 0
M  V30 10329 H 941.964 -3.80875 -2.60254 0
M  V30 10330 H 940.207 -3.62039 -2.38977 0
M  V30 10331 H 940.878 -3.78827 -4.0149 0
M  V30 10332 H 943.354 -1.88581 -3.70913 0
M  V30 10333 H 942.23 -2.08362 -5.07815 0
M  V30 10334 H 942.491 -0.486925 -4.3941 0
M  V30 10335 N 941.55 1.18024 -1.04442 0
M  V30 10336 C 942.48 2.23988 -0.659683 0
M  V30 10337 C 943.461 1.6669 0.338904 0
M  V30 10338 O 944.646 1.92971 0.21817 0
M  V30 10339 C 941.776 3.4729 -0.0257672 0
M  V30 10340 C 940.73 4.17362 -0.948299 0
M  V30 10341 C 940.056 5.34401 -0.17866 0
M  V30 10342 C 941.356 4.70435 -2.26909 0
M  V30 10343 H 943.05 2.56425 -1.54553 0
M  V30 10344 H 940.596 1.23256 -0.744575 0
M  V30 10345 H 942.549 4.20627 0.255131 0
M  V30 10346 H 941.273 3.14098 0.894981 0
M  V30 10347 H 939.932 3.45928 -1.21364 0
M  V30 10348 H 939.58 4.97458 0.744614 0
M  V30 10349 H 939.28 5.8222 -0.793294 0
M  V30 10350 H 940.804 6.10526 0.0951315 0
M  V30 10351 H 942.218 5.35447 -2.04864 0
M  V30 10352 H 940.615 5.28803 -2.83703 0
M  V30 10353 H 941.685 3.87653 -2.91296 0
M  V30 10354 N 943.028 0.824394 1.34319 0
M  V30 10355 C 943.938 0.24932 2.33271 0
M  V30 10356 C 944.954 -0.617066 1.62691 0
M  V30 10357 O 946.13 -0.524616 1.94447 0
M  V30 10358 C 943.195 -0.578094 3.41846 0
M  V30 10359 C 942.256 0.310866 4.28173 0
M  V30 10360 C 941.489 -0.477153 5.31563 0
M  V30 10361 O 941.712 -1.71028 5.44156 0
M  V30 10362 O 940.646 0.141287 6.01734 0
M  V30 10363 H 944.472 1.06837 2.84288 0
M  V30 10364 H 942.057 0.58657 1.37403 0
M  V30 10365 H 943.939 -1.04878 4.0814 0
M  V30 10366 H 942.614 -1.37444 2.93071 0
M  V30 10367 H 941.521 0.829081 3.64797 0
M  V30 10368 H 942.854 1.07161 4.80393 0
M  V30 10369 N 944.506 -1.46559 0.579492 0
M  V30 10370 C 945.453 -2.30275 -0.155598 0
M  V30 10371 C 946.423 -1.40422 -0.887175 0
M  V30 10372 O 947.608 -1.69373 -0.878481 0
M  V30 10373 C 944.748 -3.24827 -1.16539 0
M  V30 10374 C 943.861 -4.29778 -0.43759 0
M  V30 10375 C 942.996 -5.11461 -1.43462 0
M  V30 10376 C 942.035 -6.08164 -0.693048 0
M  V30 10377 N 941.172 -6.82726 -1.63799 0
M  V30 10378 H 946.012 -2.92607 0.564356 0
M  V30 10379 H 943.549 -1.44211 0.290126 0
M  V30 10380 H 945.507 -3.78088 -1.76368 0
M  V30 10381 H 944.137 -2.64311 -1.8531 0
M  V30 10382 H 943.189 -3.794 0.27567 0
M  V30 10383 H 944.501 -4.98597 0.142298 0
M  V30 10384 H 943.655 -5.68982 -2.1058 0
M  V30 10385 H 942.394 -4.42595 -2.04844 0
M  V30 10386 H 941.399 -5.49799 -0.00807093 0
M  V30 10387 H 942.624 -6.79047 -0.0846678 0
M  V30 10388 H 940.57 -6.16572 -2.23997 0
M  V30 10389 H 940.487 -7.47795 -1.11082 0
M  V30 10390 H 941.755 -7.44807 -2.29962 0
M  V30 10391 N 945.984 -0.3171 -1.54377 0
M  V30 10392 C 947.232 0.286842 -2.00054 0
M  V30 10393 C 947.553 1.53161 -1.20692 0
M  V30 10394 O 946.823 1.93479 -0.307045 0
M  V30 10395 H 945.403 0.108979 -0.739008 0
M  V30 10396 H 948.065 -0.432152 -1.90049 0
M  V30 10397 H 947.161 0.547729 -3.07256 0
M  V30 10398 N 947.462 1.57535 -0.0451378 0
M  V30 10399 C 948.739 1.83785 0.669523 0
M  V30 10400 C 949.119 0.932331 1.89396 0
M  V30 10401 O 948.467 -0.00813229 2.28499 0
M  V30 10402 C 948.677 3.33376 1.03255 0
M  V30 10403 C 950.025 4.00243 1.41741 0
M  V30 10404 O 951.049 3.37965 1.12507 0
M  V30 10405 O 949.908 5.10038 1.96275 0
M  V30 10406 H 947.002 0.758342 0.329919 0
M  V30 10407 H 949.548 1.69538 -0.0740415 0
M  V30 10408 H 948.32 3.90965 0.161777 0
M  V30 10409 H 947.943 3.52787 1.83376 0
M  V30 10410 N 948.94 -0.228186 1.55939 0
M  V30 10411 C 950.356 -0.577583 1.48782 0
M  V30 10412 C 950.556 -1.87461 0.738972 0
M  V30 10413 O 949.612 -2.50988 0.275929 0
M  V30 10414 C 950.925 -0.662961 2.93301 0
M  V30 10415 C 952.473 -0.754035 3.03782 0
M  V30 10416 C 952.948 -0.870815 4.49645 0
M  V30 10417 N 954.439 -0.935208 4.53661 0
M  V30 10418 C 955.174 -1.04516 5.63794 0
M  V30 10419 N 954.67 -1.11948 6.83696 0
M  V30 10420 N 956.463 -1.07978 5.51631 0
M  V30 10421 H 948.614 0.623018 2.03057 0
M  V30 10422 H 950.877 0.217692 0.922667 0
M  V30 10423 H 950.583 0.220375 3.51009 0
M  V30 10424 H 950.457 -1.52876 3.44831 0
M  V30 10425 H 952.844 -1.62782 2.46143 0
M  V30 10426 H 952.925 0.137301 2.55431 0
M  V30 10427 H 952.569 -0.0015186 5.079 0
M  V30 10428 H 952.499 -1.77747 4.95695 0
M  V30 10429 H 954.99 -0.88836 3.6731 0
M  V30 10430 H 955.303 -1.20297 7.6338 0
M  V30 10431 H 953.648 -1.08873 6.8642 0
M  V30 10432 H 956.839 -1.01833 4.56889 0
M  V30 10433 H 957.012 -1.16202 6.37496 0
M  V30 10434 N 950.418 -1.49637 -0.494624 0
M  V30 10435 C 951.348 -1.69692 -1.60396 0
M  V30 10436 C 952.329 -0.545648 -1.61111 0
M  V30 10437 O 953.514 -0.782202 -1.77751 0
M  V30 10438 C 950.644 -1.76934 -2.9885 0
M  V30 10439 C 949.598 -2.91915 -3.13001 0
M  V30 10440 C 948.924 -2.84276 -4.5287 0
M  V30 10441 C 950.224 -4.32764 -2.92426 0
M  V30 10442 H 951.918 -2.6257 -1.43866 0
M  V30 10443 H 949.464 -1.26355 -0.690679 0
M  V30 10444 H 951.417 -1.8955 -3.76362 0
M  V30 10445 H 950.141 -0.806609 -3.16483 0
M  V30 10446 H 948.8 -2.78911 -2.37916 0
M  V30 10447 H 948.448 -1.85897 -4.67388 0
M  V30 10448 H 948.148 -3.61452 -4.63278 0
M  V30 10449 H 949.672 -2.98909 -5.32434 0
M  V30 10450 H 951.086 -4.46415 -3.59703 0
M  V30 10451 H 949.483 -5.1121 -3.143 0
M  V30 10452 H 950.553 -4.46765 -1.88491 0
M  V30 10453 N 951.896 0.746133 -1.38819 0
M  V30 10454 C 953.307 1.32384 -1.31648 0
M  V30 10455 C 953.658 1.96185 0.0243086 0
M  V30 10456 O 952.783 1.95567 0.92641 0
M  V30 10457 C 953.378 2.40712 -2.38418 0
M  V30 10458 C 951.937 2.94185 -2.34803 0
M  V30 10459 C 951.084 1.67639 -2.20891 0
M  V30 10460 H 954.035 0.544457 -1.49068 0
M  V30 10461 H 954.056 3.20833 -2.04564 0
M  V30 10462 H 953.568 1.94247 -3.3599 0
M  V30 10463 H 951.669 3.44959 -1.40834 0
M  V30 10464 H 951.782 3.48057 -3.29231 0
M  V30 10465 H 950.146 1.9155 -1.67871 0
M  V30 10466 H 950.929 1.23242 -3.20416 0
M  V30 10467 N 953.375 1.23811 0.975125 0
M  V30 10468 C 954.322 1.02394 2.06843 0
M  V30 10469 C 955.292 -0.060337 1.6599 0
M  V30 10470 O 956.477 0.0928187 1.90574 0
M  V30 10471 C 953.617 0.626882 3.39359 0
M  V30 10472 C 952.73 1.78385 3.9345 0
M  V30 10473 C 951.865 1.33307 5.14201 0
M  V30 10474 C 950.904 2.46045 5.60471 0
M  V30 10475 N 950.041 2.01888 6.72448 0
M  V30 10476 H 954.881 1.95973 2.24496 0
M  V30 10477 H 952.418 0.976206 1.10039 0
M  V30 10478 H 954.376 0.377742 4.15486 0
M  V30 10479 H 953.006 -0.271907 3.21653 0
M  V30 10480 H 952.058 2.14685 3.14029 0
M  V30 10481 H 953.37 2.63122 4.23755 0
M  V30 10482 H 952.524 1.04237 5.97678 0
M  V30 10483 H 951.263 0.456143 4.85562 0
M  V30 10484 H 950.268 2.75884 4.75571 0
M  V30 10485 H 951.493 3.34283 5.91127 0
M  V30 10486 H 949.439 1.16583 6.45558 0
M  V30 10487 H 949.356 2.80182 7.02164 0
M  V30 10488 H 950.624 1.75937 7.59386 0
M  V30 10489 N 954.853 -1.17469 1.05066 0
M  V30 10490 C 956.264 -1.69334 0.786304 0
M  V30 10491 C 956.615 -1.83604 -0.691671 0
M  V30 10492 O 955.74 -1.52269 -1.53763 0
M  V30 10493 C 956.335 -3.07572 1.42074 0
M  V30 10494 C 954.894 -3.56609 1.20446 0
M  V30 10495 C 954.041 -2.329 1.50508 0
M  V30 10496 H 956.992 -1.02003 1.21577 0
M  V30 10497 H 957.013 -3.71352 0.829334 0
M  V30 10498 H 956.525 -2.97154 2.49642 0
M  V30 10499 H 954.626 -3.72306 0.147968 0
M  V30 10500 H 954.739 -4.39446 1.90852 0
M  V30 10501 H 953.103 -2.37305 0.925124 0
M  V30 10502 H 953.886 -2.25093 2.59207 0
M  V30 10503 N 956.331 -0.831506 -1.3388 0
M  V30 10504 C 957.608 -0.345907 -1.92517 0
M  V30 10505 C 957.988 1.16784 -1.75854 0
M  V30 10506 O 957.336 1.97889 -1.14245 0
M  V30 10507 C 957.546 -0.784692 -3.40064 0
M  V30 10508 C 958.894 -0.78846 -4.17215 0
M  V30 10509 O 959.918 -0.727823 -3.48685 0
M  V30 10510 O 958.777 -0.869481 -5.39539 0
M  V30 10511 H 955.871 -0.0963568 -0.821367 0
M  V30 10512 H 958.417 -0.916868 -1.42799 0
M  V30 10513 H 957.189 -1.82697 -3.46031 0
M  V30 10514 H 956.812 -0.189897 -3.97146 0
M  V30 10515 N 957.809 1.4625 -0.587256 0
M  V30 10516 C 958.739 2.33132 0.131076 0
M  V30 10517 C 959.72 1.45619 0.879158 0
M  V30 10518 O 960.905 1.74428 0.853723 0
M  V30 10519 C 958.035 3.27975 1.14236 0
M  V30 10520 C 956.989 4.24965 0.508819 0
M  V30 10521 C 956.315 5.09349 1.62689 0
M  V30 10522 C 957.615 5.19322 -0.55694 0
M  V30 10523 H 959.309 2.93442 -0.594333 0
M  V30 10524 H 956.855 1.41106 -0.287263 0
M  V30 10525 H 958.808 3.87614 1.65328 0
M  V30 10526 H 957.532 2.65781 1.8981 0
M  V30 10527 H 956.191 3.66595 0.0189337 0
M  V30 10528 H 955.839 4.43537 2.37242 0
M  V30 10529 H 955.539 5.75036 1.20861 0
M  V30 10530 H 957.063 5.71852 2.14049 0
M  V30 10531 H 958.477 5.73151 -0.130903 0
M  V30 10532 H 956.874 5.93376 -0.895801 0
M  V30 10533 H 957.944 4.62979 -1.44148 0
M  V30 10534 N 959.287 0.325282 1.54207 0
M  V30 10535 C 960.527 -0.277347 2.0251 0
M  V30 10536 C 960.891 -1.49211 1.20831 0
M  V30 10537 O 962.092 -2.16771 1.58945 0
M  V30 10538 C 960.363 -0.601517 3.52302 0
M  V30 10539 S 961.922 -1.18356 4.22537 0
M  V30 10540 H 958.74 -0.08378 0.706047 0
M  V30 10541 H 961.342 0.458804 1.9004 0
M  V30 10542 H 960.046 0.290696 4.09369 0
M  V30 10543 H 959.577 -1.36782 3.68855 0
M  V30 10544 H 961.592 -2.47029 4.30338 0
M  V30 10545 N 960.765 -1.57509 0.0534917 0
M  V30 10546 C 962.176 -1.80374 -0.481867 0
M  V30 10547 C 962.527 -0.965917 -1.70776 0
M  V30 10548 O 961.652 -0.183167 -2.15623 0
M  V30 10549 C 962.247 -3.27146 -0.880978 0
M  V30 10550 C 960.806 -3.50921 -1.3613 0
M  V30 10551 C 959.953 -2.75237 -0.337611 0
M  V30 10552 H 962.904 -1.56222 0.279353 0
M  V30 10553 H 962.925 -3.38193 -1.74373 0
M  V30 10554 H 962.437 -3.88098 0.011441 0
M  V30 10555 H 960.538 -2.95251 -2.27283 0
M  V30 10556 H 960.651 -4.59632 -1.35186 0
M  V30 10557 H 959.015 -2.41444 -0.810991 0
M  V30 10558 H 959.798 -3.38918 0.546763 0
M  V30 10559 N 962.243 0.219913 -1.56058 0
M  V30 10560 C 963.654 0.786766 -1.69313 0
M  V30 10561 C 964.005 1.84916 -0.655782 0
M  V30 10562 O 963.13 2.1554 0.192772 0
M  V30 10563 C 963.725 1.43387 -3.06962 0
M  V30 10564 C 962.284 1.94809 -3.22066 0
M  V30 10565 C 961.431 0.808863 -2.65241 0
M  V30 10566 H 964.382 -0.00476777 -1.58699 0
M  V30 10567 H 964.403 2.30272 -3.02911 0
M  V30 10568 H 963.915 0.660405 -3.8244 0
M  V30 10569 H 962.016 2.74952 -2.5146 0
M  V30 10570 H 962.129 2.12694 -4.293 0
M  V30 10571 H 960.493 1.21661 -2.23765 0
M  V30 10572 H 961.276 0.0480458 -3.43266 0
M  V30 10573 N 963.721 1.49897 0.486681 0
M  V30 10574 C 964.967 1.60342 1.2417 0
M  V30 10575 C 965.3 0.295694 1.91936 0
M  V30 10576 O 964.575 -0.701788 1.81398 0
M  V30 10577 C 964.858 2.77281 2.29755 0
M  V30 10578 C 964.711 4.1789 1.66397 0
M  V30 10579 C 966.03 2.89817 3.31201 0
M  V30 10580 H 963.149 0.583605 0.450083 0
M  V30 10581 H 965.791 1.82232 0.537734 0
M  V30 10582 H 963.941 2.58748 2.89796 0
M  V30 10583 H 965.613 4.47975 1.10073 0
M  V30 10584 H 963.856 4.22872 0.967579 0
M  V30 10585 H 964.527 4.95612 2.43049 0
M  V30 10586 H 967.003 3.06732 2.81167 0
M  V30 10587 H 965.879 3.7329 4.02425 0
M  V30 10588 H 966.14 1.9977 3.94391 0
M  V30 10589 N 965.199 -0.738761 1.39212 0
M  V30 10590 C 966.129 -1.86602 1.40364 0
M  V30 10591 C 967.11 -1.67984 0.267495 0
M  V30 10592 O 968.295 -1.88358 0.472765 0
M  V30 10593 C 965.425 -3.24308 1.24265 0
M  V30 10594 C 964.379 -3.57557 2.35239 0
M  V30 10595 C 963.705 -4.94159 2.04233 0
M  V30 10596 C 965.005 -3.60914 3.77543 0
M  V30 10597 H 966.699 -1.85896 2.34698 0
M  V30 10598 H 964.245 -0.892959 1.1297 0
M  V30 10599 H 966.198 -4.02838 1.23692 0
M  V30 10600 H 964.922 -3.25531 0.263974 0
M  V30 10601 H 963.581 -2.81354 2.35022 0
M  V30 10602 H 963.229 -4.91959 1.04813 0
M  V30 10603 H 962.929 -5.17373 2.78567 0
M  V30 10604 H 964.453 -5.7505 2.05303 0
M  V30 10605 H 965.867 -4.29528 3.79709 0
M  V30 10606 H 964.264 -3.95644 4.51205 0
M  V30 10607 H 965.334 -2.60803 4.08791 0
M  V30 10608 N 966.677 -1.24326 -0.968545 0
M  V30 10609 C 967.907 -1.10786 -1.74385 0
M  V30 10610 C 968.315 0.342503 -1.86074 0
M  V30 10611 O 967.658 1.24817 -1.34782 0
M  V30 10612 C 967.72 -1.67274 -3.18213 0
M  V30 10613 C 967.384 -3.1615 -3.29998 0
M  V30 10614 C 968.381 -4.13309 -3.15392 0
M  V30 10615 C 966.066 -3.56092 -3.54265 0
M  V30 10616 C 968.06 -5.48392 -3.24878 0
M  V30 10617 C 965.747 -4.91316 -3.63389 0
M  V30 10618 C 966.745 -5.87275 -3.48707 0
M  V30 10619 O 966.433 -7.20041 -3.57485 0
M  V30 10620 H 966.165 -0.387795 -0.553706 0
M  V30 10621 H 968.719 -1.64894 -1.22471 0
M  V30 10622 H 966.949 -1.07598 -3.71429 0
M  V30 10623 H 968.638 -1.49036 -3.77549 0
M  V30 10624 H 969.404 -3.83792 -2.96528 0
M  V30 10625 H 965.283 -2.81907 -3.6476 0
M  V30 10626 H 968.827 -6.23271 -3.13335 0
M  V30 10627 H 964.724 -5.20505 -3.81766 0
M  V30 10628 H 965.492 -7.27951 -3.74205 0
M  V30 10629 N 968.156 1.1691 -1.05688 0
M  V30 10630 C 969.384 1.91204 -0.790485 0
M  V30 10631 C 969.799 1.77095 0.654434 0
M  V30 10632 O 969.156 1.11146 1.44751 0
M  V30 10633 C 969.207 3.42108 -1.16808 0
M  V30 10634 O 968.928 3.55788 -2.55629 0
M  V30 10635 C 970.429 4.33466 -0.92855 0
M  V30 10636 H 967.649 0.606508 -0.287035 0
M  V30 10637 H 970.193 1.48225 -1.40888 0
M  V30 10638 H 968.348 3.82814 -0.59434 0
M  V30 10639 H 968.762 4.49321 -2.70575 0
M  V30 10640 H 970.236 5.37836 -1.24245 0
M  V30 10641 H 970.713 4.38989 0.136016 0
M  V30 10642 H 971.319 3.98481 -1.48638 0
M  V30 10643 N 969.634 0.838594 1.33437 0
M  V30 10644 C 970.564 0.286672 2.31734 0
M  V30 10645 C 971.545 -0.605451 1.5896 0
M  V30 10646 O 972.73 -0.529059 1.86854 0
M  V30 10647 C 969.86 -0.539311 3.43087 0
M  V30 10648 C 968.814 0.256997 4.27228 0
M  V30 10649 C 968.14 -0.692718 5.30194 0
M  V30 10650 C 969.44 1.47391 5.01072 0
M  V30 10651 H 971.134 1.10798 2.78144 0
M  V30 10652 H 968.68 0.534235 1.33723 0
M  V30 10653 H 970.633 -0.935724 4.1088 0
M  V30 10654 H 969.357 -1.39383 2.95364 0
M  V30 10655 H 968.016 0.634967 3.61059 0
M  V30 10656 H 967.664 -1.54363 4.78729 0
M  V30 10657 H 967.364 -0.164023 5.87371 0
M  V30 10658 H 968.888 -1.08665 6.00853 0
M  V30 10659 H 970.302 1.15067 5.61634 0
M  V30 10660 H 968.699 1.93937 5.67898 0
M  V30 10661 H 969.769 2.24382 4.29861 0
M  V30 10662 N 971.112 -1.45937 0.595003 0
M  V30 10663 C 972.045 -2.27491 -0.179775 0
M  V30 10664 C 973.023 -1.36376 -0.88545 0
M  V30 10665 O 974.207 -1.65797 -0.896863 0
M  V30 10666 C 971.334 -3.1443 -1.25902 0
M  V30 10667 C 970.38 -4.21396 -0.657847 0
M  V30 10668 S 971.213 -5.32923 0.524689 0
M  V30 10669 C 972.369 -6.2343 -0.555452 0
M  V30 10670 H 972.602 -2.92855 0.512173 0
M  V30 10671 H 970.135 -1.49595 0.382199 0
M  V30 10672 H 972.093 -3.65081 -1.87687 0
M  V30 10673 H 970.754 -2.48356 -1.92297 0
M  V30 10674 H 969.947 -4.82102 -1.46948 0
M  V30 10675 H 969.549 -3.73822 -0.115403 0
M  V30 10676 H 971.841 -6.62066 -1.43789 0
M  V30 10677 H 972.784 -7.08098 0.0151431 0
M  V30 10678 H 973.192 -5.57831 -0.865125 0
M  V30 10679 N 972.59 -0.333456 -1.54032 0
M  V30 10680 C 973.818 0.267813 -2.05159 0
M  V30 10681 C 974.233 1.4501 -1.20903 0
M  V30 10682 O 973.59 1.80888 -0.241994 0
M  V30 10683 C 973.641 0.69268 -3.54802 0
M  V30 10684 O 973.362 -0.442579 -4.35859 0
M  V30 10685 C 974.863 1.35572 -4.2206 0
M  V30 10686 H 972.083 0.0534924 -0.668864 0
M  V30 10687 H 974.627 -0.482515 -1.98726 0
M  V30 10688 H 972.782 1.39297 -3.6149 0
M  V30 10689 H 973.196 -0.105915 -5.24393 0
M  V30 10690 H 974.67 1.60385 -5.28186 0
M  V30 10691 H 975.147 2.30614 -3.73783 0
M  V30 10692 H 975.753 0.697748 -4.19537 0
M  V30 10693 N 974.068 1.57479 -0.061844 0
M  V30 10694 C 975.484 1.56855 0.294753 0
M  V30 10695 C 975.684 1.07042 1.70717 0
M  V30 10696 O 974.74 0.731817 2.41662 0
M  V30 10697 C 976.053 3.00486 0.113484 0
M  V30 10698 C 977.601 3.1246 0.183778 0
M  V30 10699 C 978.076 4.5799 0.0309092 0
M  V30 10700 N 979.567 4.63119 0.0868393 0
M  V30 10701 C 980.302 5.734 -0.00717446 0
M  V30 10702 N 979.798 6.92628 -0.154144 0
M  V30 10703 N 981.591 5.62078 0.0491763 0
M  V30 10704 H 973.742 1.88176 -0.985058 0
M  V30 10705 H 976.005 0.867051 -0.383309 0
M  V30 10706 H 975.711 3.41004 -0.86075 0
M  V30 10707 H 975.585 3.67029 0.870023 0
M  V30 10708 H 977.972 2.71834 1.14849 0
M  V30 10709 H 978.053 2.48574 -0.603697 0
M  V30 10710 H 977.697 4.99303 -0.930526 0
M  V30 10711 H 977.627 5.19895 0.837664 0
M  V30 10712 H 980.118 3.77374 0.199245 0
M  V30 10713 H 980.431 7.72492 -0.218296 0
M  V30 10714 H 978.776 6.94742 -0.189372 0
M  V30 10715 H 981.967 4.67817 0.162626 0
M  V30 10716 H 982.14 6.47994 -0.0275478 0
M  V30 10717 N 975.546 -0.211634 1.56173 0
M  V30 10718 C 976.786 -0.941505 1.81425 0
M  V30 10719 C 977.15 -1.8113 0.636862 0
M  V30 10720 O 978.351 -2.57568 0.768907 0
M  V30 10721 C 976.622 -1.75002 3.11623 0
M  V30 10722 S 978.181 -2.53418 3.58225 0
M  V30 10723 H 974.999 -0.316088 0.636875 0
M  V30 10724 H 977.601 -0.206244 1.94409 0
M  V30 10725 H 976.305 -1.10136 3.95346 0
M  V30 10726 H 975.836 -2.5274 3.01473 0
M  V30 10727 H 977.851 -3.77234 3.22349 0
M  V30 10728 N 977.024 -1.50153 -0.478725 0
M  V30 10729 C 978.27 -1.61968 -1.23036 0
M  V30 10730 C 978.625 -0.312529 -1.89845 0
M  V30 10731 O 977.918 0.688995 -1.78783 0
M  V30 10732 C 978.112 -2.73208 -2.30417 0
M  V30 10733 C 977.941 -4.14614 -1.74142 0
M  V30 10734 C 976.711 -4.81116 -1.54452 0
M  V30 10735 C 978.909 -4.99111 -1.24066 0
M  V30 10736 N 976.891 -6.06763 -0.933399 0
M  V30 10737 C 978.262 -6.15419 -0.752286 0
M  V30 10738 C 980.317 -4.84943 -1.12849 0
M  V30 10739 C 979.02 -7.19116 -0.162808 0
M  V30 10740 C 981.046 -5.88809 -0.552955 0
M  V30 10741 C 980.408 -7.0436 -0.0749195 0
M  V30 10742 H 976.507 -0.646894 -0.439377 0
M  V30 10743 H 979.091 -1.87244 -0.53364 0
M  V30 10744 H 977.262 -2.49667 -2.97525 0
M  V30 10745 H 978.994 -2.74423 -2.97446 0
M  V30 10746 H 975.749 -4.38282 -1.7946 0
M  V30 10747 H 976.173 -6.73906 -0.64647 0
M  V30 10748 H 980.815 -3.959 -1.48402 0
M  V30 10749 H 978.533 -8.0784 0.204943 0
M  V30 10750 H 982.119 -5.7991 -0.468633 0
M  V30 10751 H 980.999 -7.83357 0.363455 0
M  V30 10752 N 978.502 0.731368 -1.39602 0
M  V30 10753 C 979.779 1.48308 -1.27531 0
M  V30 10754 C 980.159 2.10795 0.113482 0
M  V30 10755 O 979.507 1.98886 1.12501 0
M  V30 10756 C 979.717 2.53156 -2.40235 0
M  V30 10757 C 981.065 3.19436 -2.79725 0
M  V30 10758 O 982.089 2.6347 -2.39712 0
M  V30 10759 O 980.948 4.20714 -3.48801 0
M  V30 10760 H 978.042 0.658753 -0.499973 0
M  V30 10761 H 980.588 0.764884 -1.51485 0
M  V30 10762 H 979.36 2.05387 -3.33064 0
M  V30 10763 H 978.983 3.3253 -2.17966 0
M  V30 10764 N 979.98 1.24838 0.961938 0
M  V30 10765 C 981.21 1.11709 1.73795 0
M  V30 10766 C 981.618 -0.33263 1.86253 0
M  V30 10767 O 980.961 -1.24101 1.35443 0
M  V30 10768 C 981.023 1.68959 3.17322 0
M  V30 10769 C 980.687 3.17895 3.28316 0
M  V30 10770 C 981.684 4.14975 3.13196 0
M  V30 10771 C 979.369 3.57966 3.52372 0
M  V30 10772 C 981.363 5.50107 3.21965 0
M  V30 10773 C 979.05 4.93237 3.60778 0
M  V30 10774 C 980.048 5.89116 3.45588 0
M  V30 10775 O 979.736 7.21927 3.53662 0
M  V30 10776 H 979.468 0.390726 0.551642 0
M  V30 10777 H 982.022 1.65541 1.21594 0
M  V30 10778 H 980.252 1.09567 3.70853 0
M  V30 10779 H 981.941 1.51036 3.76753 0
M  V30 10780 H 982.707 3.85359 2.94489 0
M  V30 10781 H 978.586 2.83837 3.63259 0
M  V30 10782 H 982.13 6.24924 3.10025 0
M  V30 10783 H 978.027 5.22522 3.79 0
M  V30 10784 H 978.795 7.29925 3.7034 0
M  V30 10785 N 981.458 -1.16348 1.06306 0
M  V30 10786 C 982.735 -1.829 0.69331 0
M  V30 10787 C 983.115 -1.94298 -0.82531 0
M  V30 10788 O 982.463 -1.48619 -1.73565 0
M  V30 10789 C 982.673 -3.1989 1.3954 0
M  V30 10790 C 984.021 -3.95662 1.54068 0
M  V30 10791 O 985.045 -3.29408 1.35532 0
M  V30 10792 O 983.904 -5.14422 1.84479 0
M  V30 10793 H 980.998 -0.789738 0.245445 0
M  V30 10794 H 983.544 -1.23549 1.16334 0
M  V30 10795 H 982.316 -3.06629 2.43093 0
M  V30 10796 H 981.939 -3.86918 0.915453 0
M  V30 10797 N 982.937 -0.845659 -1.3299 0
M  V30 10798 C 984.348 -0.50048 -1.79867 0
M  V30 10799 C 984.699 0.981027 -1.69913 0
M  V30 10800 O 983.824 1.76477 -1.25239 0
M  V30 10801 C 984.419 -0.901679 -3.26581 0
M  V30 10802 C 982.978 -0.608536 -3.71448 0
M  V30 10803 C 982.125 -1.10632 -2.54275 0
M  V30 10804 H 985.076 -1.03372 -1.20416 0
M  V30 10805 H 985.097 -0.214433 -3.79895 0
M  V30 10806 H 984.609 -1.97998 -3.33794 0
M  V30 10807 H 982.71 0.459416 -3.69757 0
M  V30 10808 H 982.823 -1.16853 -4.64631 0
M  V30 10809 H 981.187 -0.526925 -2.4919 0
M  V30 10810 H 981.97 -2.19154 -2.64247 0
M  V30 10811 N 984.415 1.45619 -0.602734 0
M  V30 10812 C 985.64 2.07157 -0.100429 0
M  V30 10813 C 986.065 1.44524 1.20393 0
M  V30 10814 O 985.423 0.536191 1.7319 0
M  V30 10815 C 985.471 3.60587 0.0308604 0
M  V30 10816 O 984.575 3.97944 1.08234 0
M  V30 10817 H 983.916 0.6601 -0.0718643 0
M  V30 10818 H 986.446 1.86948 -0.831366 0
M  V30 10819 H 986.456 4.07348 0.230634 0
M  V30 10820 H 985.131 4.05561 -0.921581 0
M  V30 10821 H 983.708 3.62862 0.859414 0
M  V30 10822 N 985.893 0.34162 1.53853 0
M  V30 10823 C 987.17 -0.310664 1.93117 0
M  V30 10824 C 987.55 -1.68398 1.273 0
M  V30 10825 O 986.898 -2.24546 0.423225 0
M  V30 10826 C 987.108 -0.384867 3.46871 0
M  V30 10827 C 988.456 -0.636621 4.198 0
M  V30 10828 O 989.48 -0.467061 3.53125 0
M  V30 10829 O 988.339 -0.964962 5.37913 0
M  V30 10830 H 985.433 -0.180881 0.806977 0
M  V30 10831 H 987.979 0.392656 1.65095 0
M  V30 10832 H 986.751 0.57894 3.86994 0
M  V30 10833 H 986.374 -1.13505 3.81054 0
M  V30 10834 N 987.371 -1.57444 0.0701946 0
M  V30 10835 C 988.787 -1.57009 -0.286431 0
M  V30 10836 C 988.987 -1.07946 -1.70147 0
M  V30 10837 O 988.043 -0.744622 -2.41271 0
M  V30 10838 C 989.356 -3.00542 -0.0975466 0
M  V30 10839 C 990.904 -3.12553 -0.167205 0
M  V30 10840 C 991.379 -4.58 -0.00662047 0
M  V30 10841 N 992.87 -4.63158 -0.0622778 0
M  V30 10842 C 993.605 -5.73388 0.0375831 0
M  V30 10843 N 993.101 -6.92537 0.190873 0
M  V30 10844 N 994.894 -5.62097 -0.0193672 0
M  V30 10845 H 987.045 -1.87651 0.995023 0
M  V30 10846 H 989.308 -0.865006 0.387902 0
M  V30 10847 H 989.014 -3.40543 0.878822 0
M  V30 10848 H 988.888 -3.67485 -0.850547 0
M  V30 10849 H 991.275 -2.72439 -1.13406 0
M  V30 10850 H 991.356 -2.48251 0.616871 0
M  V30 10851 H 991 -4.98803 0.956992 0
M  V30 10852 H 990.93 -5.20332 -0.810081 0
M  V30 10853 H 993.421 -3.77475 -0.179229 0
M  V30 10854 H 993.734 -7.72365 0.25926 0
M  V30 10855 H 992.079 -6.94632 0.226214 0
M  V30 10856 H 995.27 -4.67897 -0.137815 0
M  V30 10857 H 995.443 -6.4797 0.0619121 0
M  V30 10858 N 988.849 0.203349 -1.56283 0
M  V30 10859 C 990.26 0.768764 -1.70138 0
M  V30 10860 C 990.611 1.8421 -0.675358 0
M  V30 10861 O 989.736 2.15732 0.1699 0
M  V30 10862 C 990.331 1.40123 -3.08466 0
M  V30 10863 C 988.89 1.91382 -3.24114 0
M  V30 10864 C 988.037 0.780685 -2.66084 0
M  V30 10865 H 990.988 -0.0215997 -1.58685 0
M  V30 10866 H 991.009 2.27046 -3.05336 0
M  V30 10867 H 990.521 0.619805 -3.83119 0
M  V30 10868 H 988.622 2.7227 -2.54362 0
M  V30 10869 H 988.735 2.08128 -4.31531 0
M  V30 10870 H 987.099 1.19281 -2.25042 0
M  V30 10871 H 987.882 0.0116351 -3.43298 0
M  V30 10872 N 990.327 1.50405 0.470755 0
M  V30 10873 C 991.743 1.37838 0.804534 0
M  V30 10874 C 991.943 0.434743 1.96754 0
M  V30 10875 O 990.999 -0.122507 2.52203 0
M  V30 10876 C 992.312 2.79212 1.11629 0
M  V30 10877 C 993.86 2.88129 1.22272 0
M  V30 10878 C 994.335 4.30337 1.5676 0
M  V30 10879 N 995.826 4.3329 1.63751 0
M  V30 10880 C 996.561 5.4032 1.91942 0
M  V30 10881 N 996.057 6.57558 2.18151 0
M  V30 10882 N 997.85 5.27764 1.93446 0
M  V30 10883 H 990.001 2.10332 -0.295689 0
M  V30 10884 H 992.264 0.945429 -0.0697733 0
M  V30 10885 H 991.97 3.50103 0.334778 0
M  V30 10886 H 991.844 3.16475 2.0524 0
M  V30 10887 H 994.231 2.17457 1.9949 0
M  V30 10888 H 994.312 2.54409 0.2664 0
M  V30 10889 H 993.956 5.01547 0.800817 0
M  V30 10890 H 993.886 4.61545 2.53543 0
M  V30 10891 H 996.377 3.48752 1.45535 0
M  V30 10892 H 996.69 7.34935 2.38936 0
M  V30 10893 H 995.035 6.60732 2.15542 0
M  V30 10894 H 998.226 4.35169 1.72468 0
M  V30 10895 H 998.399 6.11264 2.15081 0
M  V30 10896 N 991.805 -0.723954 1.39988 0
M  V30 10897 C 993.052 -1.48371 1.37812 0
M  V30 10898 C 993.38 -1.94487 -0.0223285 0
M  V30 10899 O 992.635 -1.67906 -1.00529 0
M  V30 10900 C 992.934 -2.73004 2.30659 0
M  V30 10901 C 992.6 -2.45698 3.78078 0
M  V30 10902 C 991.262 -2.37961 4.18244 0
M  V30 10903 C 993.614 -2.22601 4.71273 0
M  V30 10904 C 990.942 -2.05183 5.49652 0
M  V30 10905 C 993.294 -1.91339 6.0297 0
M  V30 10906 C 991.958 -1.82078 6.42187 0
M  V30 10907 H 991.228 -0.542929 0.504291 0
M  V30 10908 H 993.875 -0.829986 1.72579 0
M  V30 10909 H 992.18 -3.43174 1.89048 0
M  V30 10910 H 993.877 -3.31068 2.26263 0
M  V30 10911 H 990.467 -2.52603 3.46251 0
M  V30 10912 H 994.651 -2.2754 4.41066 0
M  V30 10913 H 989.907 -1.96544 5.78948 0
M  V30 10914 H 994.081 -1.72479 6.74703 0
M  V30 10915 H 991.708 -1.56446 7.43928 0
M  V30 10916 N 993.283 -1.25346 -0.955304 0
M  V30 10917 C 994.511 -1.12793 -1.73451 0
M  V30 10918 C 994.926 0.318344 -1.86097 0
M  V30 10919 O 994.283 1.21897 -1.35821 0
M  V30 10920 C 994.334 -1.77603 -3.14864 0
M  V30 10921 O 994.055 -3.16577 -3.02837 0
M  V30 10922 C 995.556 -1.70821 -4.09066 0
M  V30 10923 H 992.776 -0.393457 -0.543537 0
M  V30 10924 H 995.32 -1.65696 -1.19855 0
M  V30 10925 H 993.475 -1.28673 -3.65407 0
M  V30 10926 H 993.889 -3.48433 -3.92039 0
M  V30 10927 H 995.363 -2.2083 -5.05903 0
M  V30 10928 H 995.84 -0.671858 -4.34031 0
M  V30 10929 H 996.446 -2.19237 -3.64438 0
M  V30 10930 N 994.761 1.15782 -1.06922 0
M  V30 10931 C 995.671 2.24008 -0.696948 0
M  V30 10932 C 996.687 1.71569 0.289862 0
M  V30 10933 O 997.863 2.00929 0.137585 0
M  V30 10934 C 994.928 3.46568 -0.0957895 0
M  V30 10935 C 993.989 4.14017 -1.13528 0
M  V30 10936 C 993.222 5.30725 -0.562713 0
M  V30 10937 O 993.445 5.66992 0.62259 0
M  V30 10938 O 992.379 5.87572 -1.30549 0
M  V30 10939 H 996.205 2.58174 -1.59938 0
M  V30 10940 H 993.79 1.2342 -0.841889 0
M  V30 10941 H 995.672 4.20731 0.237407 0
M  V30 10942 H 994.347 3.14161 0.780027 0
M  V30 10943 H 993.254 3.41795 -1.52076 0
M  V30 10944 H 994.587 4.50493 -1.98285 0
M  V30 10945 N 996.239 0.8527 1.3254 0
M  V30 10946 C 997.169 0.311234 2.31416 0
M  V30 10947 C 998.15 -0.588557 1.59593 0
M  V30 10948 O 999.335 -0.509211 1.87405 0
M  V30 10949 C 996.465 -0.502892 3.4364 0
M  V30 10950 C 995.419 0.302296 4.26931 0
M  V30 10951 C 994.745 -0.636445 5.30899 0
M  V30 10952 C 996.045 1.52697 4.99481 0
M  V30 10953 H 997.739 1.13742 2.76953 0
M  V30 10954 H 995.285 0.548389 1.33149 0
M  V30 10955 H 997.238 -0.892092 4.11849 0
M  V30 10956 H 995.962 -1.36242 2.96826 0
M  V30 10957 H 994.621 0.673226 3.60365 0
M  V30 10958 H 994.269 -1.49277 4.80339 0
M  V30 10959 H 993.969 -0.101716 5.87512 0
M  V30 10960 H 995.493 -1.02286 6.01972 0
M  V30 10961 H 996.907 1.21017 5.60382 0
M  V30 10962 H 995.304 1.9995 5.65809 0
M  V30 10963 H 996.374 2.28929 4.27457 0
M  V30 10964 N 997.718 -1.45297 0.610449 0
M  V30 10965 C 998.964 -2.02518 0.106917 0
M  V30 10966 C 999.297 -1.47747 -1.26034 0
M  V30 10967 O 998.572 -0.65329 -1.832 0
M  V30 10968 C 998.855 -3.6003 0.0710975 0
M  V30 10969 C 998.708 -4.25128 1.46922 0
M  V30 10970 C 1000.03 -4.35778 -0.61524 0
M  V30 10971 H 997.146 -0.735896 0.040327 0
M  V30 10972 H 999.788 -1.73117 0.782968 0
M  V30 10973 H 997.938 -3.85209 -0.504611 0
M  V30 10974 H 999.61 -4.11125 2.09223 0
M  V30 10975 H 997.853 -3.83418 2.02911 0
M  V30 10976 H 998.524 -5.34046 1.39637 0
M  V30 10977 H 1001 -4.1591 -0.125871 0
M  V30 10978 H 999.876 -5.45506 -0.609419 0
M  V30 10979 H 1000.14 -4.08859 -1.68186 0
M  V30 10980 N 999.196 -0.349774 -1.5367 0
M  V30 10981 C 1000.44 0.245095 -2.02925 0
M  V30 10982 C 1000.8 1.4727 -1.23189 0
M  V30 10983 O 1002 2.14215 -1.62374 0
M  V30 10984 C 1000.27 0.545392 -3.53214 0
M  V30 10985 S 1001.83 1.11619 -4.24366 0
M  V30 10986 H 998.649 0.0725368 -0.70729 0
M  V30 10987 H 1001.25 -0.488979 -1.89286 0
M  V30 10988 H 999.955 -0.355786 -4.08855 0
M  V30 10989 H 999.486 1.30897 -3.70985 0
M  V30 10990 H 1001.5 2.40151 -4.34214 0
M  V30 10991 N 1000.67 1.57404 -0.0785433 0
M  V30 10992 C 1001.9 1.98492 0.601292 0
M  V30 10993 C 1002.32 0.956832 1.61945 0
M  V30 10994 O 1001.68 -0.0767502 1.81137 0
M  V30 10995 C 1001.73 3.38596 1.24036 0
M  V30 10996 O 1000.83 3.38461 2.35622 0
M  V30 10997 H 1000.17 0.645882 0.154054 0
M  V30 10998 H 1002.7 2.04012 -0.155056 0
M  V30 10999 H 1002.71 3.75929 1.5856 0
M  V30 11000 H 1001.39 4.12952 0.494341 0
M  V30 11001 H 999.967 3.12906 2.02841 0
M  V30 11002 N 1002.15 -0.195058 1.56388 0
M  V30 11003 C 1003.08 -1.24444 1.97575 0
M  V30 11004 C 1004.06 -1.47471 0.847717 0
M  V30 11005 O 1005.25 -1.59208 1.11205 0
M  V30 11006 C 1002.38 -2.58866 2.31529 0
M  V30 11007 C 1001.33 -2.50451 3.47071 0
M  V30 11008 C 1000.66 -3.89146 3.667 0
M  V30 11009 C 1001.96 -2.02953 4.81256 0
M  V30 11010 H 1003.65 -0.902178 2.85484 0
M  V30 11011 H 1001.2 -0.43254 1.3735 0
M  V30 11012 H 1003.15 -3.3246 2.58936 0
M  V30 11013 H 1001.87 -2.94833 1.40502 0
M  V30 11014 H 1000.53 -1.79313 3.19754 0
M  V30 11015 H 1000.18 -4.22466 2.73004 0
M  V30 11016 H 999.882 -3.84391 4.44429 0
M  V30 11017 H 1001.41 -4.64363 3.96484 0
M  V30 11018 H 1002.82 -2.66306 5.07695 0
M  V30 11019 H 1001.22 -2.092 5.62455 0
M  V30 11020 H 1002.29 -0.982757 4.74837 0
M  V30 11021 N 1003.63 -1.50653 -0.462772 0
M  V30 11022 C 1004.85 -1.66103 -1.24196 0
M  V30 11023 C 1005.28 -0.347421 -1.84864 0
M  V30 11024 O 1004.64 0.689673 -1.6767 0
M  V30 11025 C 1004.69 -2.76027 -2.32037 0
M  V30 11026 O 1003.79 -2.37859 -3.36893 0
M  V30 11027 H 1003.13 -0.554672 -0.365014 0
M  V30 11028 H 1005.66 -1.97076 -0.549734 0
M  V30 11029 H 1005.67 -2.99354 -2.77221 0
M  V30 11030 H 1004.35 -3.71361 -1.87253 0
M  V30 11031 H 1002.92 -2.2501 -2.97363 0
M  V30 11032 N 1005.11 0.71652 -1.4037 0
M  V30 11033 C 1006.39 1.46947 -1.29097 0
M  V30 11034 C 1006.77 2.10903 0.0911182 0
M  V30 11035 O 1006.11 2.00068 1.10385 0
M  V30 11036 C 1006.32 2.50594 -2.42907 0
M  V30 11037 C 1007.67 3.16451 -2.83097 0
M  V30 11038 O 1008.7 2.60913 -2.42493 0
M  V30 11039 O 1007.55 4.16991 -3.53244 0
M  V30 11040 H 1004.65 0.653413 -0.506932 0
M  V30 11041 H 1007.19 0.748774 -1.52287 0
M  V30 11042 H 1005.97 2.01843 -3.35224 0
M  V30 11043 H 1005.59 3.302 -2.21481 0
M  V30 11044 N 1006.59 1.25851 0.948643 0
M  V30 11045 C 1007.83 1.11119 1.69648 0
M  V30 11046 C 1008.17 -0.345995 1.91093 0
M  V30 11047 O 1007.44 -1.25467 1.48621 0
M  V30 11048 C 1007.72 1.87261 3.0758 0
M  V30 11049 C 1007.58 3.40842 2.93507 0
M  V30 11050 C 1008.9 1.6605 4.07573 0
M  V30 11051 H 1006.01 0.405052 0.615713 0
M  V30 11052 H 1008.66 1.54756 1.10229 0
M  V30 11053 H 1006.81 1.50172 3.58303 0
M  V30 11054 H 1008.48 3.87641 2.50064 0
M  V30 11055 H 1006.72 3.68248 2.29294 0
M  V30 11056 H 1007.39 3.89339 3.91305 0
M  V30 11057 H 1009.87 1.98348 3.65783 0
M  V30 11058 H 1008.74 2.21753 5.02113 0
M  V30 11059 H 1009.01 0.603256 4.37965 0
M  V30 11060 N 1008.06 -1.15214 1.07534 0
M  V30 11061 C 1009.29 -1.89647 0.819614 0
M  V30 11062 C 1009.7 -1.78365 -0.631072 0
M  V30 11063 O 1009.05 -1.1346 -1.44474 0
M  V30 11064 C 1009.11 -3.40573 1.1511 0
M  V30 11065 C 1008.77 -3.7564 2.60276 0
M  V30 11066 C 1009.77 -3.76507 3.58523 0
M  V30 11067 C 1007.45 -4.05891 2.95901 0
M  V30 11068 C 1009.45 -4.07133 4.9043 0
M  V30 11069 C 1007.13 -4.36182 4.28005 0
M  V30 11070 C 1008.13 -4.36785 5.25079 0
M  V30 11071 O 1007.82 -4.66348 6.54809 0
M  V30 11072 H 1007.55 -0.607836 0.295822 0
M  V30 11073 H 1010.11 -1.46895 1.43565 0
M  V30 11074 H 1008.34 -3.83734 0.478033 0
M  V30 11075 H 1010.03 -3.96299 0.877615 0
M  V30 11076 H 1010.79 -3.53233 3.32342 0
M  V30 11077 H 1006.67 -4.0458 2.20989 0
M  V30 11078 H 1010.21 -4.07519 5.66193 0
M  V30 11079 H 1006.11 -4.58924 4.53937 0
M  V30 11080 H 1006.88 -4.84105 6.59988 0
M  V30 11081 N 1009.54 -0.859717 -1.32086 0
M  V30 11082 C 1010.47 -0.265258 -2.2766 0
M  V30 11083 C 1011.49 0.565889 -1.52648 0
M  V30 11084 O 1012.68 0.389554 -1.74197 0
M  V30 11085 C 1009.78 0.643397 -3.32737 0
M  V30 11086 C 1008.95 -0.153024 -4.37132 0
M  V30 11087 C 1008.01 0.682176 -5.21759 0
M  V30 11088 O 1007.03 0.113878 -5.69086 0
M  V30 11089 N 1008.24 1.99602 -5.45105 0
M  V30 11090 H 1011 -1.08653 -2.79311 0
M  V30 11091 H 1008.56 -0.720191 -1.45 0
M  V30 11092 H 1010.55 1.20759 -3.86263 0
M  V30 11093 H 1009.12 1.36535 -2.81206 0
M  V30 11094 H 1008.34 -0.898657 -3.8382 0
M  V30 11095 H 1009.63 -0.699877 -5.03963 0
M  V30 11096 H 1009.03 2.481 -5.08393 0
M  V30 11097 H 1007.59 2.50823 -6.01607 0
M  V30 11098 N 1011.02 1.44971 -0.618145 0
M  V30 11099 C 1011.95 2.27748 0.143561 0
M  V30 11100 C 1012.93 1.37768 0.863642 0
M  V30 11101 O 1014.12 1.67203 0.870373 0
M  V30 11102 C 1011.24 3.16394 1.20883 0
M  V30 11103 C 1010.29 4.22389 0.590724 0
M  V30 11104 S 1011.12 5.32021 -0.609406 0
M  V30 11105 C 1012.28 6.24235 0.456199 0
M  V30 11106 H 1012.51 2.92003 -0.558699 0
M  V30 11107 H 1010.04 1.48968 -0.40595 0
M  V30 11108 H 1012 3.6802 1.81855 0
M  V30 11109 H 1010.66 2.51384 1.88322 0
M  V30 11110 H 1009.86 4.84379 1.3926 0
M  V30 11111 H 1009.46 3.73958 0.055917 0
M  V30 11112 H 1011.75 6.64269 1.33238 0
M  V30 11113 H 1012.69 7.07985 -0.127794 0
M  V30 11114 H 1013.1 5.59137 0.776269 0
M  V30 11115 N 1012.5 0.357919 1.53482 0
M  V30 11116 C 1013.41 -0.500273 2.29204 0
M  V30 11117 C 1014.42 -1.09936 1.3487 0
M  V30 11118 O 1015.6 -1.11195 1.67921 0
M  V30 11119 C 1012.67 -1.62828 3.06085 0
M  V30 11120 C 1011.73 -1.05751 4.16071 0
M  V30 11121 C 1010.96 -2.13176 4.89277 0
M  V30 11122 O 1011.18 -3.34153 4.62274 0
M  V30 11123 O 1010.12 -1.76663 5.7539 0
M  V30 11124 H 1013.94 0.115696 3.0348 0
M  V30 11125 H 1011.53 0.122527 1.48897 0
M  V30 11126 H 1013.41 -2.28427 3.54117 0
M  V30 11127 H 1012.08 -2.22979 2.34653 0
M  V30 11128 H 1010.99 -0.365642 3.72309 0
M  V30 11129 H 1012.32 -0.500661 4.89647 0
M  V30 11130 N 1013.98 -1.5736 0.0868897 0
M  V30 11131 C 1014.92 -2.13571 -0.874996 0
M  V30 11132 C 1015.89 -1.0521 -1.2853 0
M  V30 11133 O 1017.08 -1.32954 -1.3685 0
M  V30 11134 C 1014.22 -2.71386 -2.13175 0
M  V30 11135 C 1013.33 -3.93953 -1.77272 0
M  V30 11136 C 1012.47 -4.3996 -2.97671 0
M  V30 11137 C 1011.51 -5.55137 -2.57856 0
M  V30 11138 N 1010.64 -5.96034 -3.71064 0
M  V30 11139 H 1015.48 -2.95453 -0.388789 0
M  V30 11140 H 1013.02 -1.45992 -0.180242 0
M  V30 11141 H 1014.98 -3.03022 -2.86764 0
M  V30 11142 H 1013.61 -1.92245 -2.5931 0
M  V30 11143 H 1012.66 -3.68683 -0.936845 0
M  V30 11144 H 1013.97 -4.77565 -1.43989 0
M  V30 11145 H 1013.13 -4.73337 -3.79522 0
M  V30 11146 H 1011.86 -3.55232 -3.34158 0
M  V30 11147 H 1010.87 -5.21397 -1.7443 0
M  V30 11148 H 1012.09 -6.41608 -2.22522 0
M  V30 11149 H 1010.04 -5.14253 -4.07284 0
M  V30 11150 H 1009.96 -6.74423 -3.41599 0
M  V30 11151 H 1011.23 -6.34038 -4.53449 0
M  V30 11152 N 1015.45 0.186762 -1.56489 0
M  V30 11153 C 1016.73 0.932229 -1.71956 0
M  V30 11154 C 1017.11 2.01037 -0.644006 0
M  V30 11155 O 1016.46 2.259 0.343694 0
M  V30 11156 C 1016.67 1.51106 -3.14592 0
M  V30 11157 C 1018.02 1.98997 -3.75081 0
M  V30 11158 O 1019.04 1.60931 -3.17773 0
M  V30 11159 O 1017.9 2.69067 -4.75673 0
M  V30 11160 H 1014.99 0.437736 -0.701652 0
M  V30 11161 H 1017.54 0.175803 -1.68787 0
M  V30 11162 H 1016.31 0.734327 -3.84348 0
M  V30 11163 H 1015.94 2.33209 -3.22024 0
M  V30 11164 N 1016.93 1.50896 0.454776 0
M  V30 11165 C 1018.18 1.61936 1.20248 0
M  V30 11166 C 1018.49 0.332983 1.92745 0
M  V30 11167 O 1019.7 0.322512 2.69578 0
M  V30 11168 C 1018.16 2.85916 2.18587 0
M  V30 11169 C 1017.76 4.21492 1.51818 0
M  V30 11170 C 1019.51 3.06307 2.93898 0
M  V30 11171 C 1017.42 5.3664 2.48539 0
M  V30 11172 H 1016.35 0.603098 0.452536 0
M  V30 11173 H 1019 1.77345 0.471257 0
M  V30 11174 H 1017.38 2.64101 2.95071 0
M  V30 11175 H 1018.55 4.53623 0.810123 0
M  V30 11176 H 1016.87 4.06837 0.887265 0
M  V30 11177 H 1019.46 3.89507 3.66317 0
M  V30 11178 H 1019.81 2.18683 3.54236 0
M  V30 11179 H 1020.34 3.2838 2.24525 0
M  V30 11180 H 1017.08 6.26469 1.92916 0
M  V30 11181 H 1016.6 5.08907 3.17449 0
M  V30 11182 H 1018.28 5.67881 3.10033 0
M  V30 11183 N 1018.41 -0.709066 1.40748 0
M  V30 11184 C 1019.37 -1.80485 1.41272 0
M  V30 11185 C 1020.37 -1.57872 0.305463 0
M  V30 11186 O 1021.56 -1.64793 0.564691 0
M  V30 11187 C 1018.7 -3.1867 1.21087 0
M  V30 11188 H 1019.89 -1.81417 2.38805 0
M  V30 11189 H 1017.44 -0.915356 1.26692 0
M  V30 11190 H 1018.18 -3.23385 0.243406 0
M  V30 11191 H 1017.96 -3.36484 2.01299 0
M  V30 11192 H 1019.45 -3.98685 1.24257 0
M  V30 11193 N 1019.89 -1.26353 -0.941956 0
M  V30 11194 C 1020.82 -1.02163 -2.04054 0
M  V30 11195 C 1021.8 0.0533514 -1.62512 0
M  V30 11196 O 1022.98 -0.0889063 -1.8829 0
M  V30 11197 C 1020.11 -0.546908 -3.34255 0
M  V30 11198 C 1019.16 -1.61433 -3.94768 0
M  V30 11199 S 1019.99 -3.20306 -4.29144 0
M  V30 11200 C 1021.15 -2.746 -5.62446 0
M  V30 11201 H 1021.38 -1.9518 -2.24259 0
M  V30 11202 H 1018.91 -1.10024 -1.08324 0
M  V30 11203 H 1020.87 -0.279673 -4.09546 0
M  V30 11204 H 1019.53 0.36297 -3.11996 0
M  V30 11205 H 1018.72 -1.23315 -4.88681 0
M  V30 11206 H 1018.33 -1.8329 -3.26007 0
M  V30 11207 H 1020.62 -2.19015 -6.41123 0
M  V30 11208 H 1021.56 -3.67202 -6.05449 0
M  V30 11209 H 1021.97 -2.1419 -5.22286 0
M  V30 11210 N 1021.37 1.14642 -1.08144 0
M  V30 11211 C 1022.28 2.23257 -0.720668 0
M  V30 11212 C 1023.29 1.71866 0.271648 0
M  V30 11213 O 1024.47 2.01064 0.116266 0
M  V30 11214 C 1021.53 3.46447 -0.132542 0
M  V30 11215 C 1020.6 4.12789 -1.17913 0
M  V30 11216 C 1019.83 5.30099 -0.618971 0
M  V30 11217 O 1020.05 5.6762 0.562418 0
M  V30 11218 O 1018.99 5.86154 -1.36774 0
M  V30 11219 H 1022.81 2.56463 -1.62667 0
M  V30 11220 H 1020.4 1.22521 -0.854932 0
M  V30 11221 H 1022.28 4.20959 0.19277 0
M  V30 11222 H 1020.95 3.14971 0.746662 0
M  V30 11223 H 1019.86 3.40163 -1.55693 0
M  V30 11224 H 1021.19 4.48365 -2.03051 0
M  V30 11225 N 1022.85 0.866709 1.31628 0
M  V30 11226 C 1023.78 0.277328 2.27516 0
M  V30 11227 C 1024.79 -0.557786 1.52946 0
M  V30 11228 O 1025.98 -0.38031 1.74402 0
M  V30 11229 C 1023.08 -0.625742 3.33073 0
M  V30 11230 C 1022.25 0.176204 4.37045 0
M  V30 11231 C 1021.31 -0.654497 5.22114 0
M  V30 11232 O 1020.34 -0.0836961 5.69138 0
M  V30 11233 N 1021.54 -1.96708 5.46156 0
M  V30 11234 H 1024.3 1.10133 2.78731 0
M  V30 11235 H 1021.87 0.72787 1.44616 0
M  V30 11236 H 1023.86 -1.18709 3.86898 0
M  V30 11237 H 1022.43 -1.35042 2.81926 0
M  V30 11238 H 1021.65 0.918999 3.83338 0
M  V30 11239 H 1022.94 0.726594 5.03585 0
M  V30 11240 H 1022.33 -2.454 5.09701 0
M  V30 11241 H 1020.89 -2.47629 6.02929 0
M  V30 11242 N 1024.32 -1.44642 0.625825 0
M  V30 11243 C 1025.23 -2.34451 -0.0836134 0
M  V30 11244 C 1026.25 -1.5231 -0.841289 0
M  V30 11245 O 1027.43 -1.85056 -0.794754 0
M  V30 11246 C 1024.49 -3.30211 -1.05648 0
M  V30 11247 C 1023.55 -4.28259 -0.298759 0
M  V30 11248 C 1022.78 -5.19444 -1.22528 0
M  V30 11249 O 1023.01 -5.14444 -2.46382 0
M  V30 11250 O 1021.94 -5.97668 -0.71247 0
M  V30 11251 H 1025.77 -2.96555 0.654912 0
M  V30 11252 H 1023.35 -1.44327 0.386029 0
M  V30 11253 H 1025.23 -3.8917 -1.61632 0
M  V30 11254 H 1023.91 -2.70648 -1.77571 0
M  V30 11255 H 1022.82 -3.72863 0.304001 0
M  V30 11256 H 1024.15 -4.90728 0.380345 0
M  V30 11257 N 1025.8 -0.366053 -1.5329 0
M  V30 11258 C 1027.22 -0.0150149 -1.59593 0
M  V30 11259 C 1027.42 1.46719 -1.38116 0
M  V30 11260 O 1026.47 2.22884 -1.18656 0
M  V30 11261 C 1027.79 -0.471374 -2.96982 0
M  V30 11262 C 1029.33 -0.425634 -3.10092 0
M  V30 11263 C 1029.81 -0.857812 -4.49895 0
M  V30 11264 N 1031.3 -0.81289 -4.56011 0
M  V30 11265 C 1032.04 -1.11898 -5.62376 0
M  V30 11266 N 1031.53 -1.49436 -6.76491 0
M  V30 11267 N 1033.32 -1.04174 -5.52362 0
M  V30 11268 H 1025.48 -1.33127 -1.65502 0
M  V30 11269 H 1027.74 -0.544172 -0.776261 0
M  V30 11270 H 1027.44 -1.50569 -3.1784 0
M  V30 11271 H 1027.32 0.141764 -3.76934 0
M  V30 11272 H 1029.71 0.599548 -2.88945 0
M  V30 11273 H 1029.79 -1.07427 -2.32149 0
M  V30 11274 H 1029.43 -1.88111 -4.7178 0
M  V30 11275 H 1029.36 -0.186419 -5.2627 0
M  V30 11276 H 1031.85 -0.536343 -3.74075 0
M  V30 11277 H 1032.16 -1.71217 -7.53594 0
M  V30 11278 H 1030.51 -1.53302 -6.77882 0
M  V30 11279 H 1033.7 -0.747654 -4.62091 0
M  V30 11280 H 1033.87 -1.28362 -6.35159 0
M  V30 11281 N 1027.28 1.57312 -0.0952337 0
M  V30 11282 C 1028.23 2.15263 0.881167 0
M  V30 11283 C 1029.22 1.09552 1.29208 0
M  V30 11284 O 1030.43 1.27897 1.26659 0
M  V30 11285 H 1026.8 0.688611 0.302191 0
M  V30 11286 H 1028.77 2.96126 0.367694 0
M  V30 11287 C 1027.52 2.74779 2.13053 0
M  V30 11288 H 1026.85 3.55807 1.82323 0
M  V30 11289 H 1028.29 3.18895 2.79431 0
M  V30 11290 C 1026.74 1.7068 2.90465 0
M  V30 11291 O 1027.27 1.14582 3.85011 0
M  V30 11292 N 1025.48 1.41169 2.54007 0
M  V30 11293 H 1025.03 1.86977 1.77193 0
M  V30 11294 H 1024.99 0.717559 3.06102 0
M  V30 11295 N 1028.76 -0.17846 1.56586 0
M  V30 11296 C 1029.72 -1.20479 1.94981 0
M  V30 11297 C 1030.72 -1.37561 0.832677 0
M  V30 11298 O 1031.91 -1.35089 1.09984 0
M  V30 11299 C 1029.04 -2.57117 2.23839 0
M  V30 11300 H 1030.24 -0.876173 2.86816 0
M  V30 11301 H 1027.79 -0.420635 1.50534 0
M  V30 11302 H 1028.52 -2.95005 1.34695 0
M  V30 11303 H 1028.31 -2.46086 3.05261 0
M  V30 11304 H 1029.8 -3.31096 2.5449 0
M  V30 11305 N 1030.24 -1.51135 -0.446768 0
M  V30 11306 C 1031.65 -1.39101 -0.782504 0
M  V30 11307 C 1031.85 -0.46599 -1.96038 0
M  V30 11308 O 1030.91 0.0823679 -2.52366 0
M  V30 11309 C 1032.22 -2.80953 -1.07173 0
M  V30 11310 C 1033.77 -2.90038 -1.17673 0
M  V30 11311 C 1034.24 -4.32777 -1.49894 0
M  V30 11312 N 1035.73 -4.3584 -1.56837 0
M  V30 11313 C 1036.47 -5.43305 -1.83322 0
M  V30 11314 N 1035.97 -6.60945 -2.07662 0
M  V30 11315 N 1037.76 -5.30775 -1.85026 0
M  V30 11316 H 1029.91 -2.09835 0.329114 0
M  V30 11317 H 1032.17 -0.944199 0.0848054 0
M  V30 11318 H 1031.88 -3.50591 -0.279037 0
M  V30 11319 H 1031.75 -3.197 -2.00179 0
M  V30 11320 H 1034.14 -2.20603 -1.96005 0
M  V30 11321 H 1034.22 -2.54801 -0.225892 0
M  V30 11322 H 1033.86 -5.02757 -0.720924 0
M  V30 11323 H 1033.79 -4.6552 -2.46168 0
M  V30 11324 H 1036.29 -3.51023 -1.39968 0
M  V30 11325 H 1036.6 -7.38643 -2.27214 0
M  V30 11326 H 1034.94 -6.64077 -2.05003 0
M  V30 11327 H 1038.13 -4.37858 -1.65523 0
M  V30 11328 H 1038.31 -6.14609 -2.05329 0
M  V30 11329 N 1031.71 0.701592 -1.41122 0
M  V30 11330 C 1032.94 1.48833 -1.43291 0
M  V30 11331 C 1033.35 1.89168 -0.0348668 0
M  V30 11332 O 1032.69 1.56937 0.9548 0
M  V30 11333 C 1032.76 2.78533 -2.27287 0
M  V30 11334 C 1032.42 2.60438 -3.75528 0
M  V30 11335 C 1033.42 2.26778 -4.67833 0
M  V30 11336 C 1031.1 2.76266 -4.19503 0
M  V30 11337 C 1033.1 2.09176 -6.021 0
M  V30 11338 C 1030.78 2.58281 -5.53836 0
M  V30 11339 C 1031.78 2.24786 -6.4495 0
M  V30 11340 O 1031.47 2.06952 -7.76805 0
M  V30 11341 H 1031.2 0.465401 -0.490284 0
M  V30 11342 H 1033.76 0.871843 -1.85979 0
M  V30 11343 H 1031.99 3.42566 -1.79403 0
M  V30 11344 H 1033.67 3.40312 -2.21229 0
M  V30 11345 H 1034.44 2.1417 -4.35151 0
M  V30 11346 H 1030.32 3.01322 -3.48893 0
M  V30 11347 H 1033.86 1.82955 -6.73181 0
M  V30 11348 H 1029.76 2.70478 -5.86099 0
M  V30 11349 H 1030.53 2.21762 -7.87886 0
M  V30 11350 N 1033.19 1.2685 0.935242 0
M  V30 11351 C 1034.61 1.04091 1.20984 0
M  V30 11352 C 1034.81 -0.230242 2.0018 0
M  V30 11353 O 1033.86 -0.93778 2.3444 0
M  V30 11354 C 1035.18 2.27586 1.96533 0
M  V30 11355 C 1036.72 2.32547 2.09501 0
M  V30 11356 C 1037.2 3.55751 2.88454 0
M  V30 11357 N 1038.69 3.56263 2.96025 0
M  V30 11358 C 1039.43 4.48262 3.57559 0
M  V30 11359 N 1038.92 5.50557 4.20546 0
M  V30 11360 N 1040.71 4.35901 3.5489 0
M  V30 11361 H 1032.87 2.08484 0.405954 0
M  V30 11362 H 1035.13 0.916548 0.242164 0
M  V30 11363 H 1034.83 3.20076 1.45753 0
M  V30 11364 H 1034.71 2.32305 2.97177 0
M  V30 11365 H 1037.1 1.40568 2.5947 0
M  V30 11366 H 1037.18 2.31836 1.08101 0
M  V30 11367 H 1036.82 4.48063 2.3917 0
M  V30 11368 H 1036.75 3.53711 3.90123 0
M  V30 11369 H 1039.24 2.82278 2.51252 0
M  V30 11370 H 1039.55 6.16935 4.65415 0
M  V30 11371 H 1037.9 5.54407 4.19115 0
M  V30 11372 H 1041.09 3.552 3.04879 0
M  V30 11373 H 1041.26 5.07792 4.02557 0
M  V30 11374 N 1034.67 -1.14067 1.0875 0
M  V30 11375 C 1035.9 -1.89041 0.840902 0
M  V30 11376 C 1036.31 -1.78768 -0.60725 0
M  V30 11377 O 1035.67 -1.14945 -1.41753 0
M  V30 11378 C 1035.72 -3.38891 1.25838 0
M  V30 11379 O 1035.44 -3.48886 2.64972 0
M  V30 11380 C 1036.94 -4.30852 1.04315 0
M  V30 11381 H 1034.16 -0.598685 0.303014 0
M  V30 11382 H 1036.71 -1.44438 1.44769 0
M  V30 11383 H 1034.86 -3.81103 0.695627 0
M  V30 11384 H 1035.28 -4.41989 2.82393 0
M  V30 11385 H 1036.75 -5.34353 1.38461 0
M  V30 11386 H 1037.23 -4.39196 -0.0195784 0
M  V30 11387 H 1037.83 -3.944 1.59151 0
M  V30 11388 N 1036.15 -0.873678 -1.31166 0
M  V30 11389 C 1037.56 -0.53852 -1.78765 0
M  V30 11390 C 1037.91 0.944765 -1.71955 0
M  V30 11391 O 1037.04 1.73781 -1.28954 0
M  V30 11392 C 1037.63 -0.970749 -3.24595 0
M  V30 11393 C 1036.19 -0.687189 -3.70074 0
M  V30 11394 C 1035.34 -1.16001 -2.51871 0
M  V30 11395 H 1038.29 -1.05903 -1.18196 0
M  V30 11396 H 1038.31 -0.294966 -3.79355 0
M  V30 11397 H 1037.82 -2.05034 -3.29519 0
M  V30 11398 H 1035.92 0.380881 -3.70648 0
M  V30 11399 H 1036.03 -1.26682 -4.62048 0
M  V30 11400 H 1034.4 -0.579663 -2.48016 0
M  V30 11401 H 1035.18 -2.2471 -2.59539 0
M  V30 11402 N 1037.63 1.44308 -0.633487 0
M  V30 11403 C 1038.57 2.30694 0.0700257 0
M  V30 11404 C 1039.54 1.43618 0.834447 0
M  V30 11405 O 1040.73 1.72517 0.815014 0
M  V30 11406 C 1037.87 3.28929 1.04403 0
M  V30 11407 C 1036.98 4.31106 0.277779 0
M  V30 11408 C 1036.12 5.16433 1.24381 0
M  V30 11409 C 1035.16 6.10317 0.466855 0
M  V30 11410 N 1034.29 6.88335 1.38347 0
M  V30 11411 H 1039.13 2.90311 -0.672567 0
M  V30 11412 H 1036.67 1.43034 -0.343449 0
M  V30 11413 H 1038.63 3.84373 1.62214 0
M  V30 11414 H 1037.26 2.71006 1.75372 0
M  V30 11415 H 1036.31 3.78115 -0.416292 0
M  V30 11416 H 1037.62 4.97725 -0.327251 0
M  V30 11417 H 1036.78 5.76406 1.89318 0
M  V30 11418 H 1035.51 4.49893 1.88276 0
M  V30 11419 H 1034.52 5.49451 -0.195989 0
M  V30 11420 H 1035.74 6.78894 -0.167414 0
M  V30 11421 H 1033.69 6.24461 2.00959 0
M  V30 11422 H 1033.61 7.51402 0.832517 0
M  V30 11423 H 1034.88 7.52829 2.0216 0
M  V30 11424 N 1039.1 0.374177 1.53094 0
M  V30 11425 C 1040.35 -0.213981 2.00562 0
M  V30 11426 C 1040.67 -1.4916 1.26533 0
M  V30 11427 O 1041.87 -2.15889 1.64634 0
M  V30 11428 C 1040.33 -0.431876 3.57299 0
M  V30 11429 C 1039.94 0.831615 4.40214 0
M  V30 11430 C 1041.68 -0.977222 4.13099 0
M  V30 11431 C 1039.59 0.582831 5.88521 0
M  V30 11432 H 1038.52 -0.0837386 0.749336 0
M  V30 11433 H 1041.17 0.494245 1.76719 0
M  V30 11434 H 1039.55 -1.20158 3.7733 0
M  V30 11435 H 1040.72 1.60477 4.31953 0
M  V30 11436 H 1039.04 1.30081 3.9556 0
M  V30 11437 H 1041.64 -1.17881 5.21544 0
M  V30 11438 H 1041.98 -1.94189 3.68234 0
M  V30 11439 H 1042.51 -0.267473 3.969 0
M  V30 11440 H 1039.25 1.51807 6.37679 0
M  V30 11441 H 1038.77 -0.151666 5.99608 0
M  V30 11442 H 1040.45 0.211604 6.46654 0
M  V30 11443 N 1040.58 -1.57259 0.103575 0
M  V30 11444 C 1041.51 -2.17509 -0.84923 0
M  V30 11445 C 1042.49 -1.11079 -1.28824 0
M  V30 11446 O 1043.68 -1.39252 -1.35361 0
M  V30 11447 C 1040.81 -2.76221 -2.10522 0
M  V30 11448 C 1039.76 -3.88098 -1.80454 0
M  V30 11449 C 1039.09 -4.33549 -3.12952 0
M  V30 11450 C 1040.39 -5.10909 -1.08486 0
M  V30 11451 H 1042.08 -2.9738 -0.347217 0
M  V30 11452 H 1039.63 -1.43045 -0.165568 0
M  V30 11453 H 1041.58 -3.17024 -2.77621 0
M  V30 11454 H 1040.31 -1.93617 -2.63021 0
M  V30 11455 H 1038.96 -3.47847 -1.15749 0
M  V30 11456 H 1038.61 -3.47825 -3.63355 0
M  V30 11457 H 1038.31 -5.08984 -2.93614 0
M  V30 11458 H 1039.84 -4.76992 -3.81196 0
M  V30 11459 H 1041.25 -5.48828 -1.65711 0
M  V30 11460 H 1039.65 -5.91828 -0.992973 0
M  V30 11461 H 1040.72 -4.84851 -0.0690108 0
M  V30 11462 N 1042.06 0.170153 -1.56679 0
M  V30 11463 C 1042.97 1.23057 -1.99735 0
M  V30 11464 C 1043.99 1.48374 -0.908912 0
M  V30 11465 O 1045.16 1.60499 -1.21663 0
M  V30 11466 C 1042.23 2.54944 -2.34956 0
M  V30 11467 C 1041.29 2.3748 -3.57634 0
M  V30 11468 C 1040.52 3.63078 -3.91165 0
M  V30 11469 O 1040.74 4.68304 -3.2565 0
M  V30 11470 O 1039.68 3.57119 -4.8451 0
M  V30 11471 H 1043.5 0.895104 -2.9021 0
M  V30 11472 H 1041.09 0.377109 -1.44562 0
M  V30 11473 H 1042.97 3.32742 -2.58574 0
M  V30 11474 H 1041.65 2.88068 -1.47643 0
M  V30 11475 H 1040.55 1.57709 -3.39232 0
M  V30 11476 H 1041.89 2.0928 -4.45491 0
M  V30 11477 N 1043.54 1.5137 0.438746 0
M  V30 11478 C 1044.95 1.56462 1.01866 0
M  V30 11479 C 1045.3 0.387244 1.9234 0
M  V30 11480 O 1044.43 -0.496131 2.10636 0
M  V30 11481 C 1045.02 2.83557 1.85421 0
M  V30 11482 C 1043.58 2.91224 2.38464 0
M  V30 11483 C 1042.73 2.51109 1.17641 0
M  V30 11484 H 1045.68 1.57167 0.220072 0
M  V30 11485 H 1045.7 2.6724 2.70857 0
M  V30 11486 H 1045.21 3.69229 1.19546 0
M  V30 11487 H 1043.31 2.09979 3.07798 0
M  V30 11488 H 1043.42 3.94844 2.71358 0
M  V30 11489 H 1041.79 2.04276 1.5213 0
M  V30 11490 H 1042.57 3.39125 0.533785 0
M  V30 11491 N 1045.02 -0.694098 1.41492 0
M  V30 11492 C 1046.24 -1.48286 1.44288 0
M  V30 11493 C 1046.66 -1.88737 0.0485783 0
M  V30 11494 O 1046.02 -1.56881 -0.932449 0
M  V30 11495 C 1046.07 -2.74446 2.3529 0
M  V30 11496 O 1045.79 -2.35698 3.69294 0
M  V30 11497 C 1047.29 -3.68175 2.46905 0
M  V30 11498 H 1044.51 -0.45692 0.491391 0
M  V30 11499 H 1047.05 -0.854477 1.85793 0
M  V30 11500 H 1045.21 -3.33518 1.9709 0
M  V30 11501 H 1045.62 -3.17029 4.17843 0
M  V30 11502 H 1047.1 -4.53476 3.14743 0
M  V30 11503 H 1047.57 -4.12763 1.50078 0
M  V30 11504 H 1048.18 -3.15006 2.85747 0
M  V30 11505 N 1046.49 -1.27344 -0.928501 0
M  V30 11506 C 1047.46 -1.10043 -2.01055 0
M  V30 11507 C 1048.46 -0.0446793 -1.60738 0
M  V30 11508 O 1049.65 -0.289202 -1.71783 0
M  V30 11509 C 1046.78 -0.676559 -3.34119 0
M  V30 11510 H 1047.97 -2.06126 -2.17835 0
M  V30 11511 H 1045.53 -1.10121 -1.10919 0
M  V30 11512 H 1046.26 0.285697 -3.23039 0
M  V30 11513 H 1046.05 -1.43903 -3.64739 0
M  V30 11514 H 1047.54 -0.577725 -4.13584 0
M  V30 11515 N 1047.97 1.13488 -1.09353 0
M  V30 11516 C 1049.22 1.84748 -0.829126 0
M  V30 11517 C 1049.55 1.83485 0.645247 0
M  V30 11518 O 1048.8 1.26767 1.49093 0
M  V30 11519 C 1049.1 3.32584 -1.30854 0
M  V30 11520 C 1048.77 3.54028 -2.7924 0
M  V30 11521 C 1047.43 3.59588 -3.19765 0
M  V30 11522 C 1049.78 3.62058 -3.74918 0
M  V30 11523 C 1047.11 3.70712 -4.54741 0
M  V30 11524 C 1049.46 3.7471 -5.09682 0
M  V30 11525 C 1048.13 3.78523 -5.49797 0
M  V30 11526 H 1047.4 0.67604 -0.303399 0
M  V30 11527 H 1050.04 1.33989 -1.36818 0
M  V30 11528 H 1048.35 3.85689 -0.689275 0
M  V30 11529 H 1050.04 3.86166 -1.08059 0
M  V30 11530 H 1046.63 3.50354 -2.4688 0
M  V30 11531 H 1050.82 3.57043 -3.44723 0
M  V30 11532 H 1046.07 3.71931 -4.8526 0
M  V30 11533 H 1050.25 3.79866 -5.83674 0
M  V30 11534 H 1047.88 3.86895 -6.54382 0
M  V30 11535 N 1049.45 0.880621 1.30701 0
M  V30 11536 C 1050.38 0.301443 2.27209 0
M  V30 11537 C 1051.4 -0.541533 1.53529 0
M  V30 11538 O 1052.59 -0.361791 1.74795 0
M  V30 11539 C 1049.69 -0.59038 3.33718 0
M  V30 11540 C 1048.86 0.222549 4.36833 0
M  V30 11541 C 1047.92 -0.599083 5.22779 0
M  V30 11542 O 1046.94 -0.0233267 5.69195 0
M  V30 11543 N 1048.15 -1.90904 5.48211 0
M  V30 11544 H 1050.91 1.13083 2.77547 0
M  V30 11545 H 1048.47 0.743168 1.43835 0
M  V30 11546 H 1050.46 -1.14599 3.88135 0
M  V30 11547 H 1049.03 -1.32044 2.83343 0
M  V30 11548 H 1048.25 0.959606 3.82342 0
M  V30 11549 H 1049.54 0.779965 5.02786 0
M  V30 11550 H 1048.94 -2.3998 5.12275 0
M  V30 11551 H 1047.5 -2.4122 6.05521 0
M  V30 11552 N 1050.93 -1.4397 0.641131 0
M  V30 11553 C 1051.84 -2.34526 -0.058742 0
M  V30 11554 C 1052.86 -1.53194 -0.825088 0
M  V30 11555 O 1054.03 -1.85888 -0.775081 0
M  V30 11556 C 1051.1 -3.31313 -1.02139 0
M  V30 11557 C 1050.16 -4.28552 -0.253319 0
M  V30 11558 C 1049.39 -5.20715 -1.17012 0
M  V30 11559 O 1049.61 -5.17028 -2.40911 0
M  V30 11560 O 1048.55 -5.9839 -0.649039 0
M  V30 11561 H 1052.37 -2.95843 0.686329 0
M  V30 11562 H 1049.96 -1.43909 0.401316 0
M  V30 11563 H 1051.84 -3.90862 -1.57496 0
M  V30 11564 H 1050.52 -2.72516 -1.7469 0
M  V30 11565 H 1049.42 -3.72519 0.343531 0
M  V30 11566 H 1050.76 -4.90297 0.432372 0
M  V30 11567 N 1052.41 -0.382291 -1.52893 0
M  V30 11568 C 1053.82 0.0932841 -1.86467 0
M  V30 11569 C 1054.17 1.4675 -1.30226 0
M  V30 11570 O 1053.29 2.07001 -0.63084 0
M  V30 11571 C 1053.89 0.176048 -3.38342 0
M  V30 11572 C 1052.45 0.595904 -3.71653 0
M  V30 11573 C 1051.6 -0.246511 -2.76202 0
M  V30 11574 H 1054.55 -0.600443 -1.46903 0
M  V30 11575 H 1054.57 0.996512 -3.67219 0
M  V30 11576 H 1054.08 -0.824264 -3.79246 0
M  V30 11577 H 1052.18 1.60384 -3.36315 0
M  V30 11578 H 1052.29 0.358919 -4.77754 0
M  V30 11579 H 1050.66 0.287162 -2.53076 0
M  V30 11580 H 1051.44 -1.24467 -3.19942 0
M  V30 11581 N 1053.89 1.57202 -0.111913 0
M  V30 11582 C 1055.3 1.82039 0.414591 0
M  V30 11583 C 1055.65 1.02863 1.67074 0
M  V30 11584 O 1054.77 0.263068 2.14795 0
M  V30 11585 C 1055.37 3.3019 0.758953 0
M  V30 11586 C 1053.93 3.55732 1.23012 0
M  V30 11587 C 1053.07 2.76301 0.235226 0
M  V30 11588 H 1056.02 1.55078 -0.337142 0
M  V30 11589 H 1056.05 3.44431 1.61701 0
M  V30 11590 H 1055.56 3.87788 -0.155473 0
M  V30 11591 H 1053.66 3.03483 2.16169 0
M  V30 11592 H 1053.77 4.64333 1.18034 0
M  V30 11593 H 1052.14 2.44287 0.720822 0
M  V30 11594 H 1052.92 3.36655 -0.672173 0
M  V30 11595 N 1055.36 -0.161842 1.56767 0
M  V30 11596 C 1056.77 -0.723385 1.72116 0
M  V30 11597 C 1057.13 -1.82355 0.723961 0
M  V30 11598 O 1056.25 -2.16107 -0.112643 0
M  V30 11599 C 1056.85 -1.31895 3.12072 0
M  V30 11600 C 1055.4 -1.82722 3.29074 0
M  V30 11601 C 1054.55 -0.709863 2.6806 0
M  V30 11602 H 1057.5 0.0636647 1.58572 0
M  V30 11603 H 1057.52 -2.18871 3.11249 0
M  V30 11604 H 1057.04 -0.51801 3.84627 0
M  V30 11605 H 1055.14 -2.6543 2.61491 0
M  V30 11606 H 1055.25 -1.96614 4.36898 0
M  V30 11607 H 1053.61 -1.13273 2.28126 0
M  V30 11608 H 1054.4 0.0793884 3.43208 0
M  V30 11609 N 1056.84 -1.516 -0.430713 0
M  V30 11610 C 1057.79 -1.73392 -1.52328 0
M  V30 11611 C 1058.76 -0.575758 -1.55802 0
M  V30 11612 O 1059.94 -0.810931 -1.72709 0
M  V30 11613 C 1057.08 -1.87092 -2.89984 0
M  V30 11614 C 1056.2 -3.14668 -2.95987 0
M  V30 11615 C 1055.33 -3.18923 -4.24807 0
M  V30 11616 C 1054.37 -4.40787 -4.24703 0
M  V30 11617 N 1053.51 -4.42556 -5.45059 0
M  V30 11618 H 1058.35 -2.6665 -1.33048 0
M  V30 11619 H 1055.88 -1.32146 -0.646207 0
M  V30 11620 H 1057.84 -1.93017 -3.69865 0
M  V30 11621 H 1056.47 -0.972363 -3.07807 0
M  V30 11622 H 1055.52 -3.1802 -2.08728 0
M  V30 11623 H 1056.84 -4.04562 -2.91772 0
M  V30 11624 H 1055.99 -3.23801 -5.13067 0
M  V30 11625 H 1054.73 -2.2693 -4.31688 0
M  V30 11626 H 1053.73 -4.36079 -3.34836 0
M  V30 11627 H 1054.96 -5.34053 -4.19481 0
M  V30 11628 H 1052.91 -3.53435 -5.52648 0
M  V30 11629 H 1052.82 -5.26267 -5.42751 0
M  V30 11630 H 1054.09 -4.51634 -6.35332 0
M  V30 11631 N 1058.32 0.686584 -1.41858 0
M  V30 11632 C 1059.73 1.26682 -1.37145 0
M  V30 11633 C 1060.08 1.96112 -0.058922 0
M  V30 11634 O 1059.21 1.99321 0.842629 0
M  V30 11635 C 1059.8 2.30383 -2.48413 0
M  V30 11636 C 1058.36 2.83961 -2.47069 0
M  V30 11637 C 1057.51 1.58119 -2.27802 0
M  V30 11638 H 1060.46 0.480742 -1.51243 0
M  V30 11639 H 1060.48 3.11868 -2.17987 0
M  V30 11640 H 1059.99 1.79822 -3.43927 0
M  V30 11641 H 1058.09 3.38675 -1.55338 0
M  V30 11642 H 1058.21 3.3378 -3.43697 0
M  V30 11643 H 1056.57 1.84258 -1.75844 0
M  V30 11644 H 1057.35 1.09541 -3.25355 0
M  V30 11645 N 1059.8 1.27835 0.921735 0
M  V30 11646 C 1061.02 1.17465 1.70929 0
M  V30 11647 C 1061.45 -0.264171 1.86236 0
M  V30 11648 O 1060.81 -1.19124 1.36671 0
M  V30 11649 C 1060.85 1.8697 3.08342 0
M  V30 11650 O 1059.96 1.17173 3.95404 0
M  V30 11651 H 1059.3 0.408206 0.523702 0
M  V30 11652 H 1061.83 1.69013 1.15307 0
M  V30 11653 H 1061.84 1.94564 3.58621 0
M  V30 11654 H 1060.51 2.91633 2.96518 0
M  V30 11655 H 1059.09 1.17688 3.53842 0
M  V30 11656 N 1061.28 -1.12907 1.09954 0
M  V30 11657 C 1062.69 -1.363 0.830326 0
M  V30 11658 C 1062.89 -1.93772 -0.552694 0
M  V30 11659 O 1061.95 -2.1607 -1.30652 0
M  V30 11660 C 1063.26 -2.30925 1.92598 0
M  V30 11661 C 1064.81 -2.44528 1.95385 0
M  V30 11662 C 1065.28 -3.42464 3.0411 0
M  V30 11663 N 1066.77 -3.50018 3.03384 0
M  V30 11664 C 1067.51 -4.25693 3.84152 0
M  V30 11665 N 1067.01 -5.04476 4.74843 0
M  V30 11666 N 1068.8 -4.21049 3.7239 0
M  V30 11667 H 1060.95 -0.739571 1.99108 0
M  V30 11668 H 1063.21 -0.387983 0.86497 0
M  V30 11669 H 1062.92 -1.95861 2.92115 0
M  V30 11670 H 1062.79 -3.30997 1.80889 0
M  V30 11671 H 1065.18 -2.78875 0.965037 0
M  V30 11672 H 1065.26 -1.44361 2.11172 0
M  V30 11673 H 1064.9 -3.08847 4.03207 0
M  V30 11674 H 1064.83 -4.42448 2.85565 0
M  V30 11675 H 1067.33 -2.93809 2.37665 0
M  V30 11676 H 1067.64 -5.59541 5.33042 0
M  V30 11677 H 1065.98 -5.0369 4.78875 0
M  V30 11678 H 1069.17 -3.5858 3.00895 0
M  V30 11679 H 1069.35 -4.79771 4.35572 0
M  V30 11680 N 1062.75 -0.88754 -1.30232 0
M  V30 11681 C 1064.16 -0.55745 -1.78184 0
M  V30 11682 C 1064.52 0.926474 -1.72948 0
M  V30 11683 O 1063.64 1.72403 -1.3079 0
M  V30 11684 C 1064.24 -1.00512 -3.23547 0
M  V30 11685 C 1062.79 -0.726402 -3.69324 0
M  V30 11686 C 1061.94 -1.18666 -2.50627 0
M  V30 11687 H 1064.89 -1.07151 -1.17066 0
M  V30 11688 H 1064.91 -0.335185 -3.79021 0
M  V30 11689 H 1064.43 -2.08517 -3.27326 0
M  V30 11690 H 1062.53 0.341548 -3.71031 0
M  V30 11691 H 1062.64 -1.31575 -4.60679 0
M  V30 11692 H 1061 -0.605936 -2.47387 0
M  V30 11693 H 1061.79 -2.2745 -2.57141 0
M  V30 11694 N 1064.23 1.43628 -0.648757 0
M  V30 11695 C 1065.18 2.30755 0.0455536 0
M  V30 11696 C 1066.15 1.44495 0.819168 0
M  V30 11697 O 1067.33 1.73372 0.79667 0
M  V30 11698 C 1064.47 3.30017 1.00908 0
M  V30 11699 C 1063.59 4.31376 0.232039 0
M  V30 11700 C 1062.72 5.17723 1.18897 0
M  V30 11701 C 1061.76 6.10778 0.402096 0
M  V30 11702 N 1060.9 6.89763 1.31038 0
M  V30 11703 H 1065.74 2.89581 -0.70332 0
M  V30 11704 H 1063.28 1.42662 -0.3586 0
M  V30 11705 H 1065.23 3.86072 1.58128 0
M  V30 11706 H 1063.86 2.72851 1.72488 0
M  V30 11707 H 1062.92 3.77652 -0.456373 0
M  V30 11708 H 1064.23 4.9735 -0.380023 0
M  V30 11709 H 1063.38 5.78381 1.83194 0
M  V30 11710 H 1062.12 4.51864 1.83494 0
M  V30 11711 H 1061.13 5.49212 -0.254255 0
M  V30 11712 H 1062.35 6.78678 -0.239411 0
M  V30 11713 H 1060.3 6.26557 1.94324 0
M  V30 11714 H 1060.21 7.52243 0.752774 0
M  V30 11715 H 1061.48 7.54931 1.94164 0
M  V30 11716 N 1065.71 0.390394 1.52688 0
M  V30 11717 C 1066.94 -0.191207 2.05713 0
M  V30 11718 C 1067.35 -1.40973 1.26188 0
M  V30 11719 O 1066.69 -1.81202 0.301938 0
M  V30 11720 C 1066.75 -0.624794 3.54029 0
M  V30 11721 C 1066.42 0.480413 4.54468 0
M  V30 11722 C 1067.41 1.33816 5.02384 0
M  V30 11723 C 1065.1 0.647754 4.98106 0
M  V30 11724 C 1067.09 2.34836 5.92563 0
M  V30 11725 C 1064.78 1.66129 5.88085 0
M  V30 11726 C 1065.78 2.51001 6.35206 0
M  V30 11727 O 1065.47 3.50622 7.23408 0
M  V30 11728 H 1065.2 -0.032221 0.675232 0
M  V30 11729 H 1067.75 0.554431 1.97776 0
M  V30 11730 H 1065.98 -1.42243 3.59589 0
M  V30 11731 H 1067.67 -1.13219 3.8979 0
M  V30 11732 H 1068.44 1.22019 4.694 0
M  V30 11733 H 1064.32 -0.00314511 4.61 0
M  V30 11734 H 1067.86 3.01117 6.29265 0
M  V30 11735 H 1063.76 1.77964 6.20483 0
M  V30 11736 H 1064.53 3.46644 7.41472 0
M  V30 11737 N 1067.19 -1.57141 0.120249 0
M  V30 11738 C 1068.6 -1.5784 -0.236335 0
M  V30 11739 C 1068.8 -1.13304 -1.66626 0
M  V30 11740 O 1067.86 -0.821004 -2.3878 0
M  V30 11741 C 1069.17 -3.007 -0.00188211 0
M  V30 11742 C 1070.72 -3.12927 -0.0676838 0
M  V30 11743 C 1071.2 -4.57789 0.139092 0
M  V30 11744 N 1072.69 -4.63122 0.085104 0
M  V30 11745 C 1073.42 -5.72978 0.219983 0
M  V30 11746 N 1072.92 -6.91579 0.411102 0
M  V30 11747 N 1074.71 -5.61874 0.159469 0
M  V30 11748 H 1066.86 -1.84391 1.05422 0
M  V30 11749 H 1069.13 -0.852228 0.415225 0
M  V30 11750 H 1068.83 -3.37575 0.986718 0
M  V30 11751 H 1068.71 -3.70005 -0.733203 0
M  V30 11752 H 1071.09 -2.75909 -1.04681 0
M  V30 11753 H 1071.17 -2.46162 0.695538 0
M  V30 11754 H 1070.82 -4.95506 1.1152 0
M  V30 11755 H 1070.75 -5.22646 -0.644131 0
M  V30 11756 H 1073.24 -3.77854 -0.0590479 0
M  V30 11757 H 1073.55 -7.71149 0.504851 0
M  V30 11758 H 1071.9 -6.9356 0.447091 0
M  V30 11759 H 1075.09 -4.68099 0.0111131 0
M  V30 11760 H 1075.26 -6.47445 0.268028 0
M  V30 11761 N 1068.67 0.153526 -1.5685 0
M  V30 11762 C 1070.08 0.714247 -1.72498 0
M  V30 11763 C 1070.43 1.81968 -0.733621 0
M  V30 11764 O 1069.55 2.16163 0.10118 0
M  V30 11765 C 1070.15 1.30238 -3.12767 0
M  V30 11766 C 1068.71 1.80974 -3.30038 0
M  V30 11767 C 1067.85 0.695638 -2.68433 0
M  V30 11768 H 1070.81 -0.0720733 -1.58536 0
M  V30 11769 H 1070.83 2.17217 -3.12405 0
M  V30 11770 H 1070.34 0.497605 -3.84897 0
M  V30 11771 H 1068.44 2.64039 -2.62895 0
M  V30 11772 H 1068.55 1.94294 -4.37934 0
M  V30 11773 H 1066.92 1.12061 -2.28723 0
M  V30 11774 H 1067.7 -0.0975885 -3.43161 0
M  V30 11775 N 1070.14 1.51827 0.422667 0
M  V30 11776 C 1071.56 1.57533 1.00201 0
M  V30 11777 C 1071.91 0.407623 1.91919 0
M  V30 11778 O 1071.03 -0.473763 2.1115 0
M  V30 11779 C 1071.63 2.85508 1.82403 0
M  V30 11780 C 1070.19 2.93737 2.35362 0
M  V30 11781 C 1069.33 2.52343 1.14971 0
M  V30 11782 H 1072.28 1.57391 0.20339 0
M  V30 11783 H 1072.3 2.70097 2.68007 0
M  V30 11784 H 1071.82 3.70477 1.15623 0
M  V30 11785 H 1069.92 2.13231 3.05554 0
M  V30 11786 H 1070.03 3.977 2.67155 0
M  V30 11787 H 1068.39 2.05878 1.49955 0
M  V30 11788 H 1069.18 3.39672 0.497786 0
M  V30 11789 N 1071.62 -0.679052 1.4222 0
M  V30 11790 C 1073.03 -1.25953 1.37815 0
M  V30 11791 C 1073.38 -1.96077 0.0693215 0
M  V30 11792 O 1072.51 -1.99765 -0.832047 0
M  V30 11793 C 1073.1 -2.29063 2.49631 0
M  V30 11794 C 1071.66 -2.82647 2.48571 0
M  V30 11795 C 1070.81 -1.56909 2.28637 0
M  V30 11796 H 1073.76 -0.472714 1.51496 0
M  V30 11797 H 1073.78 -3.10708 2.19638 0
M  V30 11798 H 1073.29 -1.77996 3.44876 0
M  V30 11799 H 1071.4 -3.37846 1.57132 0
M  V30 11800 H 1071.51 -3.31952 3.45463 0
M  V30 11801 H 1069.87 -1.83323 1.76819 0
M  V30 11802 H 1070.66 -1.07814 3.25931 0
M  V30 11803 N 1073.1 -1.28322 -0.914942 0
M  V30 11804 C 1074.03 -1.07947 -2.02188 0
M  V30 11805 C 1075.05 -0.0315743 -1.62769 0
M  V30 11806 O 1076.23 -0.274503 -1.76377 0
M  V30 11807 C 1073.33 -0.61805 -3.33217 0
M  V30 11808 C 1072.51 -1.74109 -4.01254 0
M  V30 11809 C 1071.57 -1.27325 -5.10563 0
M  V30 11810 O 1070.59 -1.97526 -5.33828 0
M  V30 11811 N 1071.79 -0.1358 -5.80341 0
M  V30 11812 H 1074.56 -2.03275 -2.20225 0
M  V30 11813 H 1072.12 -1.20059 -1.08616 0
M  V30 11814 H 1074.11 -0.288693 -4.03669 0
M  V30 11815 H 1072.68 0.242348 -3.11659 0
M  V30 11816 H 1071.9 -2.2401 -3.24366 0
M  V30 11817 H 1073.19 -2.49448 -4.43456 0
M  V30 11818 H 1072.59 0.449846 -5.63909 0
M  V30 11819 H 1071.15 0.134289 -6.51662 0
M  V30 11820 N 1074.58 1.12322 -1.10551 0
M  V30 11821 C 1075.81 1.87679 -0.87087 0
M  V30 11822 C 1076.22 1.79711 0.578733 0
M  V30 11823 O 1075.58 1.17185 1.39907 0
M  V30 11824 C 1075.63 3.36846 -1.31213 0
M  V30 11825 O 1075.35 3.44626 -2.70489 0
M  V30 11826 C 1076.85 4.29138 -1.11156 0
M  V30 11827 H 1074.07 0.593788 -0.3125 0
M  V30 11828 H 1076.62 1.42116 -1.47048 0
M  V30 11829 H 1074.77 3.79948 -0.756169 0
M  V30 11830 H 1075.18 4.37441 -2.89389 0
M  V30 11831 H 1076.66 5.32082 -1.46944 0
M  V30 11832 H 1077.14 4.39171 -0.0502963 0
M  V30 11833 H 1077.74 3.91818 -1.65405 0
M  V30 11834 N 1076.06 0.894434 1.2976 0
M  V30 11835 C 1077 0.357958 2.29829 0
M  V30 11836 C 1078 -0.540093 1.6056 0
M  V30 11837 O 1079.2 -0.423478 1.74948 0
M  V30 11838 H 1075.58 0.0971183 0.745702 0
M  V30 11839 H 1077.55 1.21542 2.72526 0
M  V30 11840 C 1076.3 -0.404126 3.45343 0
M  V30 11841 H 1075.62 0.277671 3.98835 0
M  V30 11842 H 1077.06 -0.744446 4.17413 0
M  V30 11843 C 1075.52 -1.6048 2.96222 0
M  V30 11844 O 1076.05 -2.70414 2.97051 0
M  V30 11845 N 1074.26 -1.44517 2.52117 0
M  V30 11846 H 1073.8 -0.55082 2.51642 0
M  V30 11847 H 1073.76 -2.24987 2.1961 0
M  V30 11848 N 1077.53 -1.43282 0.656365 0
M  V30 11849 C 1078.46 -2.33492 -0.0196962 0
M  V30 11850 C 1079.45 -1.49647 -0.80868 0
M  V30 11851 O 1080.63 -1.78303 -0.769529 0
M  V30 11852 C 1077.76 -3.33052 -0.984574 0
M  V30 11853 C 1076.71 -4.26908 -0.305483 0
M  V30 11854 C 1076.04 -5.16531 -1.38202 0
M  V30 11855 C 1077.34 -5.16073 0.804081 0
M  V30 11856 H 1079.03 -2.90272 0.733661 0
M  V30 11857 H 1076.58 -1.39574 0.354259 0
M  V30 11858 H 1078.53 -3.9506 -1.46647 0
M  V30 11859 H 1077.26 -2.74535 -1.76913 0
M  V30 11860 H 1075.92 -3.66268 0.155995 0
M  V30 11861 H 1075.56 -4.54351 -2.1581 0
M  V30 11862 H 1075.26 -5.80148 -0.932878 0
M  V30 11863 H 1076.79 -5.81414 -1.86522 0
M  V30 11864 H 1078.2 -5.71873 0.404212 0
M  V30 11865 H 1076.6 -5.88427 1.17789 0
M  V30 11866 H 1077.67 -4.55574 1.66073 0
M  V30 11867 N 1079.01 -0.398486 -1.52479 0
M  V30 11868 C 1079.94 0.423498 -2.29627 0
M  V30 11869 C 1080.92 1.05547 -1.33394 0
M  V30 11870 O 1082.11 1.0665 -1.62294 0
M  V30 11871 C 1079.24 1.54612 -3.10986 0
M  V30 11872 C 1078.19 1.03971 -4.15179 0
M  V30 11873 C 1077.52 2.25512 -4.84818 0
M  V30 11874 C 1078.82 0.10121 -5.22202 0
M  V30 11875 H 1080.51 -0.220222 -2.98589 0
M  V30 11876 H 1078.06 -0.107355 -1.43599 0
M  V30 11877 H 1080.01 2.12806 -3.63719 0
M  V30 11878 H 1078.74 2.21756 -2.39774 0
M  V30 11879 H 1077.4 0.480251 -3.63441 0
M  V30 11880 H 1077.04 2.91187 -4.10145 0
M  V30 11881 H 1076.74 1.92285 -5.55248 0
M  V30 11882 H 1078.27 2.84331 -5.40359 0
M  V30 11883 H 1079.68 0.591617 -5.70239 0
M  V30 11884 H 1078.08 -0.141737 -5.99933 0
M  V30 11885 H 1079.15 -0.847216 -4.77441 0
M  V30 11886 N 1080.49 1.57075 -0.12858 0
M  V30 11887 C 1081.45 2.14643 0.803813 0
M  V30 11888 C 1082.45 1.08363 1.18803 0
M  V30 11889 O 1083.64 1.34093 1.11197 0
M  V30 11890 C 1080.78 2.6945 2.08829 0
M  V30 11891 H 1081.97 2.98362 0.303347 0
M  V30 11892 H 1079.52 1.55833 0.120735 0
M  V30 11893 H 1080.26 1.89345 2.63285 0
M  V30 11894 H 1080.04 3.47187 1.82218 0
M  V30 11895 H 1081.53 3.13865 2.7546 0
M  V30 11896 N 1081.97 -0.145205 1.5693 0
M  V30 11897 C 1083.38 -0.705089 1.72874 0
M  V30 11898 C 1083.73 -1.81577 0.743261 0
M  V30 11899 O 1082.86 -2.16214 -0.0897153 0
M  V30 11900 C 1083.45 -1.28578 3.13454 0
M  V30 11901 C 1082.01 -1.79221 3.30994 0
M  V30 11902 C 1081.16 -0.681392 2.68798 0
M  V30 11903 H 1084.11 0.0804798 1.58496 0
M  V30 11904 H 1084.13 -2.15558 3.13552 0
M  V30 11905 H 1083.64 -0.477186 3.85155 0
M  V30 11906 H 1081.74 -2.62642 2.64292 0
M  V30 11907 H 1081.86 -1.91969 4.38959 0
M  V30 11908 H 1080.22 -1.10847 2.29314 0
M  V30 11909 H 1081 0.115786 3.43105 0
M  V30 11910 N 1083.45 -1.52049 -0.414609 0
M  V30 11911 C 1084.39 -1.74998 -1.5048 0
M  V30 11912 C 1085.36 -0.592251 -1.55182 0
M  V30 11913 O 1086.55 -0.829203 -1.7184 0
M  V30 11914 C 1083.69 -1.90157 -2.87983 0
M  V30 11915 C 1082.8 -3.17789 -2.92633 0
M  V30 11916 C 1081.94 -3.23411 -4.21401 0
M  V30 11917 C 1080.98 -4.45267 -4.20004 0
M  V30 11918 N 1080.11 -4.48312 -5.40334 0
M  V30 11919 H 1084.95 -2.68046 -1.30212 0
M  V30 11920 H 1082.49 -1.32824 -0.632154 0
M  V30 11921 H 1084.45 -1.96929 -3.67797 0
M  V30 11922 H 1083.08 -1.00496 -3.06758 0
M  V30 11923 H 1082.13 -3.20216 -2.05343 0
M  V30 11924 H 1083.44 -4.07634 -2.87465 0
M  V30 11925 H 1082.6 -3.29224 -5.09604 0
M  V30 11926 H 1081.34 -2.31495 -4.29257 0
M  V30 11927 H 1080.34 -4.39606 -3.30192 0
M  V30 11928 H 1081.57 -5.38472 -4.13793 0
M  V30 11929 H 1079.51 -3.59277 -5.48868 0
M  V30 11930 H 1079.43 -5.31994 -5.37139 0
M  V30 11931 H 1080.7 -4.58347 -6.30506 0
M  V30 11932 N 1084.93 0.6715 -1.42579 0
M  V30 11933 C 1085.86 1.79693 -1.49107 0
M  V30 11934 C 1086.84 1.66516 -0.347338 0
M  V30 11935 O 1088.02 1.85887 -0.562094 0
M  V30 11936 C 1085.15 3.1801 -1.39596 0
M  V30 11937 C 1084.11 3.45926 -2.5203 0
M  V30 11938 C 1083.43 4.83852 -2.27577 0
M  V30 11939 C 1084.73 3.4249 -3.94333 0
M  V30 11940 H 1086.43 1.74486 -2.433 0
M  V30 11941 H 1083.97 0.838042 -1.17102 0
M  V30 11942 H 1085.92 3.96478 -1.42771 0
M  V30 11943 H 1084.65 3.23901 -0.418989 0
M  V30 11944 H 1083.31 2.6982 -2.48178 0
M  V30 11945 H 1082.96 4.86398 -1.28165 0
M  V30 11946 H 1082.66 5.03493 -3.02934 0
M  V30 11947 H 1084.18 5.646 -2.32506 0
M  V30 11948 H 1085.59 4.10922 -3.9977 0
M  V30 11949 H 1083.99 3.73666 -4.69568 0
M  V30 11950 H 1085.06 2.41002 -4.20768 0
M  V30 11951 N 1086.4 1.28806 0.908124 0
M  V30 11952 C 1087.34 1.09018 2.01613 0
M  V30 11953 C 1088.35 0.0402059 1.6275 0
M  V30 11954 O 1089.54 0.283853 1.76229 0
M  V30 11955 C 1086.64 0.635712 3.32884 0
M  V30 11956 C 1085.81 1.76235 4.00325 0
M  V30 11957 C 1084.87 1.3003 5.09881 0
M  V30 11958 O 1083.9 2.00354 5.32773 0
M  V30 11959 N 1085.1 0.166575 5.80261 0
M  V30 11960 H 1087.86 2.0444 2.19144 0
M  V30 11961 H 1085.42 1.20633 1.07978 0
M  V30 11962 H 1087.42 0.310097 4.0351 0
M  V30 11963 H 1085.99 -0.225816 3.11783 0
M  V30 11964 H 1085.21 2.25727 3.23173 0
M  V30 11965 H 1086.49 2.51796 4.42127 0
M  V30 11966 H 1085.89 -0.419934 5.64139 0
M  V30 11967 H 1084.45 -0.0997281 6.51724 0
M  V30 11968 N 1087.88 -1.11734 1.11145 0
M  V30 11969 C 1089.13 -1.83405 0.858413 0
M  V30 11970 C 1089.46 -1.84488 -0.615975 0
M  V30 11971 O 1088.71 -1.29123 -1.47057 0
M  V30 11972 C 1089.01 -3.3046 1.36129 0
M  V30 11973 C 1088.68 -3.4954 2.84837 0
M  V30 11974 C 1087.34 -3.54456 3.25445 0
M  V30 11975 C 1089.69 -3.56048 3.8063 0
M  V30 11976 C 1087.02 -3.63431 4.60581 0
M  V30 11977 C 1089.37 -3.66554 5.15579 0
M  V30 11978 C 1088.03 -3.69728 5.55749 0
M  V30 11979 H 1087.3 -0.671128 0.314115 0
M  V30 11980 H 1089.95 -1.31795 1.38933 0
M  V30 11981 H 1088.26 -3.84544 0.750547 0
M  V30 11982 H 1089.95 -3.84398 1.14188 0
M  V30 11983 H 1086.54 -3.46382 2.52423 0
M  V30 11984 H 1090.73 -3.51513 3.5036 0
M  V30 11985 H 1085.98 -3.64164 4.91116 0
M  V30 11986 H 1090.16 -3.70532 5.89643 0
M  V30 11987 H 1087.78 -3.76435 6.60455 0
M  V30 11988 N 1089.36 -0.901303 -1.29284 0
M  V30 11989 C 1090.29 -0.337552 -2.26701 0
M  V30 11990 C 1091.3 0.517039 -1.54371 0
M  V30 11991 O 1092.49 0.333937 -1.75349 0
M  V30 11992 C 1089.59 0.537214 -3.34615 0
M  V30 11993 C 1088.77 -0.292017 -4.36424 0
M  V30 11994 C 1087.83 0.515837 -5.23666 0
M  V30 11995 O 1086.85 -0.0672303 -5.6916 0
M  V30 11996 N 1088.05 1.82159 -5.51179 0
M  V30 11997 H 1090.82 -1.17484 -2.75713 0
M  V30 11998 H 1088.38 -0.765957 -1.42635 0
M  V30 11999 H 1090.37 1.0841 -3.8991 0
M  V30 12000 H 1088.94 1.2752 -2.85408 0
M  V30 12001 H 1088.16 -1.02031 -3.80767 0
M  V30 12002 H 1089.45 -0.859855 -5.01482 0
M  V30 12003 H 1088.85 2.318 -5.16028 0
M  V30 12004 H 1087.4 2.31556 -6.09282 0
M  V30 12005 N 1090.84 1.42931 -0.663954 0
M  V30 12006 C 1092.08 2.01982 -0.182007 0
M  V30 12007 C 1092.42 1.52323 1.20463 0
M  V30 12008 O 1091.69 0.720834 1.80649 0
M  V30 12009 C 1091.97 3.59518 -0.204671 0
M  V30 12010 C 1091.83 4.19382 -1.62599 0
M  V30 12011 C 1093.15 4.37762 0.45308 0
M  V30 12012 H 1090.27 0.733892 -0.0676115 0
M  V30 12013 H 1092.91 1.70092 -0.84668 0
M  V30 12014 H 1091.06 3.86816 0.361295 0
M  V30 12015 H 1092.73 4.03076 -2.24337 0
M  V30 12016 H 1090.97 3.75623 -2.17001 0
M  V30 12017 H 1091.64 5.28496 -1.59362 0
M  V30 12018 H 1094.12 4.1609 -0.0285774 0
M  V30 12019 H 1093 5.47392 0.406538 0
M  V30 12020 H 1093.26 4.1482 1.52895 0
M  V30 12021 N 1092.32 0.406567 1.52266 0
M  V30 12022 C 1093.73 -0.063607 1.86592 0
M  V30 12023 C 1094.08 -1.4466 1.32544 0
M  V30 12024 O 1093.2 -2.05971 0.663692 0
M  V30 12025 C 1093.8 -0.122198 3.3858 0
M  V30 12026 C 1092.36 -0.536701 3.72554 0
M  V30 12027 C 1091.5 0.290422 2.75775 0
M  V30 12028 H 1094.45 0.623738 1.45929 0
M  V30 12029 H 1094.48 -0.937964 3.68758 0
M  V30 12030 H 1093.99 0.884495 3.77887 0
M  V30 12031 H 1092.09 -1.55013 3.38824 0
M  V30 12032 H 1092.2 -0.282867 4.78264 0
M  V30 12033 H 1090.57 -0.246864 2.53501 0
M  V30 12034 H 1091.35 1.29541 3.17921 0
M  V30 12035 N 1093.79 -1.57004 0.136909 0
M  V30 12036 C 1094.7 -2.19807 -0.819887 0
M  V30 12037 C 1095.72 -1.17939 -1.27932 0
M  V30 12038 O 1096.9 -1.50478 -1.3386 0
M  V30 12039 C 1093.96 -2.79935 -2.04542 0
M  V30 12040 C 1093.02 -3.96897 -1.6362 0
M  V30 12041 C 1092.26 -4.54148 -2.80331 0
M  V30 12042 O 1092.48 -4.10282 -3.96264 0
M  V30 12043 O 1091.41 -5.44565 -2.56384 0
M  V30 12044 H 1095.24 -3.02058 -0.315337 0
M  V30 12045 H 1092.82 -1.49131 -0.0896151 0
M  V30 12046 H 1094.71 -3.18191 -2.76283 0
M  V30 12047 H 1093.38 -2.00703 -2.53969 0
M  V30 12048 H 1092.29 -3.63376 -0.889316 0
M  V30 12049 H 1093.62 -4.77618 -1.18918 0
M  V30 12050 N 1095.27 0.136881 -1.57004 0
M  V30 12051 C 1096.52 0.8461 -1.83536 0
M  V30 12052 C 1096.84 1.81246 -0.71937 0
M  V30 12053 O 1096.11 1.94191 0.258161 0
M  V30 12054 H 1094.69 0.315446 -0.677128 0
M  V30 12055 H 1097.35 0.128469 -1.94476 0
M  V30 12056 H 1096.45 1.40221 -2.78827 0
M  V30 12057 N 1096.75 1.52266 0.40654 0
M  V30 12058 C 1097.68 1.78755 1.50229 0
M  V30 12059 C 1098.66 0.638652 1.57655 0
M  V30 12060 O 1099.85 0.884505 1.72888 0
M  V30 12061 C 1096.98 1.94057 2.88026 0
M  V30 12062 C 1095.93 3.09667 2.95449 0
M  V30 12063 C 1095.26 3.10196 4.35526 0
M  V30 12064 C 1096.56 4.49077 2.66697 0
M  V30 12065 H 1098.25 2.70511 1.28313 0
M  V30 12066 H 1095.8 1.30167 0.615836 0
M  V30 12067 H 1097.75 2.11171 3.64671 0
M  V30 12068 H 1096.47 0.989755 3.11242 0
M  V30 12069 H 1095.13 2.92308 2.2125 0
M  V30 12070 H 1094.78 2.12831 4.55754 0
M  V30 12071 H 1094.48 3.87847 4.41416 0
M  V30 12072 H 1096 3.29443 5.14101 0
M  V30 12073 H 1097.42 4.66628 3.33064 0
M  V30 12074 H 1095.82 5.28665 2.8396 0
M  V30 12075 H 1096.89 4.56995 1.62122 0
M  V30 12076 N 1098.23 -0.663929 1.42933 0
M  V30 12077 C 1099.47 -1.43583 1.45476 0
M  V30 12078 C 1099.83 -1.91862 0.0728387 0
M  V30 12079 O 1101.03 -2.68786 -0.0270249 0
M  V30 12080 C 1099.3 -2.59316 2.45947 0
M  V30 12081 S 1100.86 -3.48004 2.6728 0
M  V30 12082 H 1097.68 -0.490261 0.514942 0
M  V30 12083 H 1100.28 -0.771834 1.79619 0
M  V30 12084 H 1098.99 -2.22104 3.45106 0
M  V30 12085 H 1098.52 -3.30577 2.13266 0
M  V30 12086 H 1100.53 -4.55677 1.96399 0
M  V30 12087 N 1099.71 -1.29285 -0.901281 0
M  V30 12088 C 1100.67 -1.14283 -1.98676 0
M  V30 12089 C 1101.67 -0.0787641 -1.60607 0
M  V30 12090 O 1102.86 -0.325574 -1.71131 0
M  V30 12091 C 1099.99 -0.747279 -3.32609 0
M  V30 12092 H 1101.18 -2.10701 -2.13413 0
M  V30 12093 H 1098.74 -1.12449 -1.08558 0
M  V30 12094 H 1099.47 0.217111 -3.23572 0
M  V30 12095 H 1099.26 -1.51608 -3.61604 0
M  V30 12096 H 1100.75 -0.665322 -4.12266 0
M  V30 12097 N 1101.18 1.11143 -1.11736 0
M  V30 12098 C 1102.41 1.87285 -0.891007 0
M  V30 12099 C 1102.83 1.79758 0.553971 0
M  V30 12100 O 1102.19 1.16221 1.39149 0
M  V30 12101 C 1102.24 3.33924 -1.36114 0
M  V30 12102 O 1101.34 4.08917 -0.534851 0
M  V30 12103 H 1100.69 0.581418 -0.320701 0
M  V30 12104 H 1103.22 1.40469 -1.4876 0
M  V30 12105 H 1103.23 3.84772 -1.35701 0
M  V30 12106 H 1101.9 3.38719 -2.41334 0
M  V30 12107 H 1100.48 3.67954 -0.605355 0
M  V30 12108 N 1102.66 0.908147 1.28804 0
M  V30 12109 C 1103.89 0.553431 1.9988 0
M  V30 12110 C 1104.31 -0.856714 1.67458 0
M  V30 12111 O 1103.67 -1.57163 0.903849 0
M  V30 12112 C 1103.72 0.762688 3.52442 0
M  V30 12113 O 1102.82 -0.180924 4.12003 0
M  V30 12114 H 1102.16 0.215237 0.628147 0
M  V30 12115 H 1104.69 1.22205 1.64095 0
M  V30 12116 H 1104.7 0.670612 4.02451 0
M  V30 12117 H 1103.38 1.79071 3.75375 0
M  V30 12118 H 1101.96 -0.0405897 3.72878 0
M  V30 12119 N 1104.14 -1.42577 0.671525 0
M  V30 12120 C 1105.55 -1.84736 0.270084 0
M  V30 12121 C 1105.9 -1.56212 -1.18711 0
M  V30 12122 O 1105.03 -1.02028 -1.90838 0
M  V30 12123 C 1105.62 -3.35334 0.483409 0
M  V30 12124 C 1104.18 -3.76154 0.136119 0
M  V30 12125 C 1103.33 -2.66179 0.777444 0
M  V30 12126 H 1106.28 -1.3247 0.873919 0
M  V30 12127 H 1106.3 -3.79573 -0.265483 0
M  V30 12128 H 1105.81 -3.56063 1.54405 0
M  V30 12129 H 1103.91 -3.61033 -0.921209 0
M  V30 12130 H 1104.03 -4.75645 0.574356 0
M  V30 12131 H 1102.39 -2.53841 0.209055 0
M  V30 12132 H 1103.17 -2.89732 1.84148 0
M  V30 12133 N 1105.62 -0.414636 -1.52048 0
M  V30 12134 C 1106.85 0.158686 -2.06291 0
M  V30 12135 C 1107.26 1.38397 -1.2842 0
M  V30 12136 O 1106.62 1.79351 -0.337539 0
M  V30 12137 C 1106.67 0.503634 -3.57975 0
M  V30 12138 O 1106.39 -0.672996 -4.329 0
M  V30 12139 C 1107.89 1.13009 -4.28653 0
M  V30 12140 H 1105.11 0.0179622 -0.67076 0
M  V30 12141 H 1107.66 -0.587177 -1.95889 0
M  V30 12142 H 1105.81 1.19939 -3.68366 0
M  V30 12143 H 1106.22 -0.383735 -5.23094 0
M  V30 12144 H 1107.7 1.32162 -5.35945 0
M  V30 12145 H 1108.18 2.10476 -3.85482 0
M  V30 12146 H 1108.78 0.474379 -4.22646 0
M  V30 12147 N 1107.1 1.56929 -0.145233 0
M  V30 12148 C 1108.03 2.19685 0.791263 0
M  V30 12149 C 1109.01 1.14455 1.25833 0
M  V30 12150 O 1110.19 1.42791 1.31622 0
M  V30 12151 C 1107.32 2.81705 2.03124 0
M  V30 12152 C 1106.28 3.92746 1.70101 0
M  V30 12153 C 1105.6 4.41694 3.01347 0
M  V30 12154 C 1106.9 5.13606 0.949025 0
M  V30 12155 H 1108.6 2.98196 0.26825 0
M  V30 12156 H 1106.14 1.43434 0.127584 0
M  V30 12157 H 1108.1 3.24273 2.69119 0
M  V30 12158 H 1106.82 2.00523 2.57795 0
M  V30 12159 H 1105.48 3.50794 1.06486 0
M  V30 12160 H 1105.13 3.57336 3.54006 0
M  V30 12161 H 1104.83 5.1659 2.80016 0
M  V30 12162 H 1106.35 4.86931 3.68416 0
M  V30 12163 H 1107.76 5.53029 1.51102 0
M  V30 12164 H 1106.16 5.94252 0.835711 0
M  V30 12165 H 1107.23 4.84863 -0.0595631 0
M  V30 12166 N 1108.58 -0.128553 1.57075 0
M  V30 12167 C 1109.8 -0.85245 1.88523 0
M  V30 12168 C 1110.22 -1.73886 0.735459 0
M  V30 12169 O 1109.58 -1.80114 -0.294113 0
M  V30 12170 C 1109.63 -1.69384 3.19361 0
M  V30 12171 O 1109.35 -0.84313 4.2991 0
M  V30 12172 C 1110.85 -2.52373 3.64449 0
M  V30 12173 H 1108.07 -0.245556 0.624454 0
M  V30 12174 H 1110.61 -0.115807 2.04172 0
M  V30 12175 H 1108.77 -2.38335 3.0541 0
M  V30 12176 H 1109.18 -1.42255 5.0484 0
M  V30 12177 H 1110.66 -3.06955 4.58784 0
M  V30 12178 H 1111.13 -3.29283 2.90636 0
M  V30 12179 H 1111.74 -1.88681 3.81155 0
M  V30 12180 N 1110.05 -1.5248 -0.398459 0
M  V30 12181 C 1111.28 -1.71221 -1.17039 0
M  V30 12182 C 1111.7 -0.425515 -1.83224 0
M  V30 12183 O 1111.06 0.617938 -1.70444 0
M  V30 12184 C 1111.11 -2.8562 -2.20121 0
M  V30 12185 O 1110.21 -2.51934 -3.26501 0
M  V30 12186 H 1109.55 -0.569654 -0.34116 0
M  V30 12187 H 1112.08 -1.99231 -0.465652 0
M  V30 12188 H 1112.09 -3.10842 -2.64275 0
M  V30 12189 H 1110.77 -3.78969 -1.71334 0
M  V30 12190 H 1109.35 -2.3742 -2.87552 0
M  V30 12191 N 1111.53 0.65634 -1.43283 0
M  V30 12192 C 1112.94 1.23744 -1.39801 0
M  V30 12193 C 1113.29 1.95942 -0.100507 0
M  V30 12194 O 1112.42 2.01063 0.800161 0
M  V30 12195 C 1113.01 2.25062 -2.53244 0
M  V30 12196 C 1111.57 2.78657 -2.53036 0
M  V30 12197 C 1110.72 1.53251 -2.31105 0
M  V30 12198 H 1113.67 0.448553 -1.52229 0
M  V30 12199 H 1113.69 3.07174 -2.24553 0
M  V30 12200 H 1113.2 1.72487 -3.47664 0
M  V30 12201 H 1111.3 3.35304 -1.62487 0
M  V30 12202 H 1111.42 3.26414 -3.507 0
M  V30 12203 H 1109.78 1.80487 -1.79713 0
M  V30 12204 H 1110.56 1.02615 -3.27605 0
M  V30 12205 N 1113.01 1.29761 0.894412 0
M  V30 12206 C 1113.94 1.09666 2.00121 0
M  V30 12207 C 1114.92 0.00700077 1.62598 0
M  V30 12208 O 1116.1 0.158728 1.87831 0
M  V30 12209 C 1113.23 0.670588 3.31995 0
M  V30 12210 C 1112.28 1.75974 3.88504 0
M  V30 12211 S 1113.11 3.36013 4.1696 0
M  V30 12212 C 1114.27 2.95285 5.51867 0
M  V30 12213 H 1114.5 2.03369 2.1686 0
M  V30 12214 H 1112.03 1.13968 1.04166 0
M  V30 12215 H 1113.99 0.431481 4.08226 0
M  V30 12216 H 1112.65 -0.246924 3.13128 0
M  V30 12217 H 1111.84 1.41367 4.83768 0
M  V30 12218 H 1111.45 1.95264 3.1898 0
M  V30 12219 H 1113.74 2.42659 6.32553 0
M  V30 12220 H 1114.68 3.8942 5.91403 0
M  V30 12221 H 1115.09 2.33426 5.13977 0
M  V30 12222 N 1114.49 -1.10549 1.12324 0
M  V30 12223 C 1115.4 -2.20428 0.803032 0
M  V30 12224 C 1116.41 -1.72756 -0.207674 0
M  V30 12225 O 1117.59 -2.01357 -0.0415623 0
M  V30 12226 C 1114.65 -3.45716 0.261032 0
M  V30 12227 C 1113.72 -4.08129 1.33152 0
M  V30 12228 C 1112.95 -5.27436 0.815288 0
M  V30 12229 O 1113.17 -5.69317 -0.351361 0
M  V30 12230 O 1112.11 -5.80674 1.58434 0
M  V30 12231 H 1115.93 -2.50249 1.72073 0
M  V30 12232 H 1113.52 -1.19263 0.899815 0
M  V30 12233 H 1115.4 -4.21384 -0.0364007 0
M  V30 12234 H 1114.07 -3.17525 -0.629249 0
M  V30 12235 H 1112.98 -3.3415 1.6821 0
M  V30 12236 H 1114.31 -4.4052 2.19552 0
M  V30 12237 N 1115.97 -0.914965 -1.28321 0
M  V30 12238 C 1117.2 -0.563835 -1.98757 0
M  V30 12239 C 1117.6 0.859528 -1.68549 0
M  V30 12240 O 1116.95 1.58105 -0.935336 0
M  V30 12241 C 1117.01 -0.694539 -3.52727 0
M  V30 12242 C 1116.67 -2.08767 -4.06528 0
M  V30 12243 C 1117.67 -3.06052 -4.20272 0
M  V30 12244 C 1115.35 -2.40118 -4.4119 0
M  V30 12245 C 1117.35 -4.32803 -4.67932 0
M  V30 12246 C 1115.04 -3.67108 -4.88544 0
M  V30 12247 C 1116.03 -4.63265 -5.01871 0
M  V30 12248 O 1115.72 -5.87997 -5.48192 0
M  V30 12249 H 1115.45 -0.213557 -0.641381 0
M  V30 12250 H 1118.01 -1.23062 -1.64453 0
M  V30 12251 H 1116.24 0.0293186 -3.86689 0
M  V30 12252 H 1117.93 -0.350335 -4.04385 0
M  V30 12253 H 1118.69 -2.8315 -3.93765 0
M  V30 12254 H 1114.57 -1.66025 -4.30066 0
M  V30 12255 H 1118.12 -5.07861 -4.78249 0
M  V30 12256 H 1114.01 -3.89834 -5.14489 0
M  V30 12257 H 1114.78 -5.90804 -5.66474 0
M  V30 12258 N 1117.44 1.42219 -0.679077 0
M  V30 12259 C 1118.85 1.8459 -0.279877 0
M  V30 12260 C 1119.21 1.56839 1.17881 0
M  V30 12261 O 1118.33 1.03039 1.90294 0
M  V30 12262 C 1118.93 3.35072 -0.501185 0
M  V30 12263 C 1117.48 3.76076 -0.156065 0
M  V30 12264 C 1116.63 2.65763 -0.791549 0
M  V30 12265 H 1119.58 1.32005 -0.880932 0
M  V30 12266 H 1119.6 3.79708 0.245349 0
M  V30 12267 H 1119.12 3.55239 -1.56291 0
M  V30 12268 H 1117.22 3.61516 0.90205 0
M  V30 12269 H 1117.33 4.75334 -0.599572 0
M  V30 12270 H 1115.69 2.53726 -0.222514 0
M  V30 12271 H 1116.48 2.88751 -1.85682 0
M  V30 12272 N 1118.92 0.422693 1.51826 0
M  V30 12273 C 1120.15 -0.15017 2.06856 0
M  V30 12274 C 1120.57 -1.36946 1.28948 0
M  V30 12275 O 1119.93 -1.78393 0.32338 0
M  V30 12276 C 1119.98 -0.465563 3.57582 0
M  V30 12277 O 1119.08 -1.55442 3.81984 0
M  V30 12278 H 1118.42 -0.00827931 0.663948 0
M  V30 12279 H 1120.95 0.599806 1.95611 0
M  V30 12280 H 1120.96 -0.720279 4.01592 0
M  V30 12281 H 1119.64 0.425679 4.13716 0
M  V30 12282 H 1118.21 -1.29081 3.49846 0
M  V30 12283 N 1120.4 -1.5685 0.153553 0
M  V30 12284 C 1121.81 -1.83074 -0.36618 0
M  V30 12285 C 1122.16 -1.07257 -1.64288 0
M  V30 12286 O 1121.29 -0.319925 -2.14022 0
M  V30 12287 C 1121.88 -3.32086 -0.671142 0
M  V30 12288 C 1120.44 -3.58868 -1.13537 0
M  V30 12289 C 1119.59 -2.76827 -0.161887 0
M  V30 12290 H 1122.54 -1.54129 0.378139 0
M  V30 12291 H 1122.56 -3.48598 -1.52512 0
M  V30 12292 H 1122.07 -3.8724 0.258234 0
M  V30 12293 H 1120.17 -3.09107 -2.08047 0
M  V30 12294 H 1120.29 -4.67299 -1.05682 0
M  V30 12295 H 1118.65 -2.46112 -0.6558 0
M  V30 12296 H 1119.43 -3.34755 0.761195 0
M  V30 12297 N 1121.88 0.120221 -1.57141 0
M  V30 12298 C 1123.12 0.829449 -1.85062 0
M  V30 12299 C 1123.46 1.79585 -0.739116 0
M  V30 12300 O 1122.73 1.92819 0.255147 0
M  V30 12301 C 1123.01 1.58042 -3.23566 0
M  V30 12302 C 1122.87 0.633706 -4.45314 0
M  V30 12303 C 1124.19 2.53688 -3.59625 0
M  V30 12304 H 1121.31 0.300086 -0.67314 0
M  V30 12305 H 1123.95 0.0937393 -1.89769 0
M  V30 12306 H 1122.1 2.20758 -3.19684 0
M  V30 12307 H 1123.77 0.0154836 -4.61297 0
M  V30 12308 H 1122.01 -0.054846 -4.33765 0
M  V30 12309 H 1122.68 1.19577 -5.38893 0
M  V30 12310 H 1125.16 2.01078 -3.6429 0
M  V30 12311 H 1124.04 3.03265 -4.57516 0
M  V30 12312 H 1124.3 3.36296 -2.8698 0
M  V30 12313 N 1123.36 1.52689 0.390367 0
M  V30 12314 C 1124.3 1.78007 1.4972 0
M  V30 12315 C 1125.3 0.647948 1.56518 0
M  V30 12316 O 1126.5 0.830398 1.59701 0
M  V30 12317 H 1122.88 0.56322 0.498284 0
M  V30 12318 H 1124.85 2.70698 1.25559 0
M  V30 12319 C 1123.6 1.96469 2.86872 0
M  V30 12320 H 1122.92 2.83012 2.82391 0
M  V30 12321 H 1124.36 2.18174 3.6356 0
M  V30 12322 C 1122.82 0.736847 3.28743 0
M  V30 12323 O 1123.35 -0.0863743 4.01607 0
M  V30 12324 N 1121.56 0.56735 2.85008 0
M  V30 12325 H 1121.1 1.23838 2.2588 0
M  V30 12326 H 1121.06 -0.252831 3.13382 0
M  V30 12327 N 1124.83 -0.648732 1.43629 0
M  V30 12328 C 1126.06 -1.44117 1.49148 0
M  V30 12329 C 1126.48 -1.87767 0.111952 0
M  V30 12330 O 1125.84 -1.57655 -0.895249 0
M  V30 12331 C 1125.89 -2.64938 2.44623 0
M  V30 12332 O 1124.99 -3.64155 1.93559 0
M  V30 12333 H 1124.34 -0.431933 0.504312 0
M  V30 12334 H 1126.87 -0.793439 1.88589 0
M  V30 12335 H 1126.88 -3.12698 2.62076 0
M  V30 12336 H 1125.55 -2.3251 3.44836 0
M  V30 12337 H 1124.13 -3.23322 1.85789 0
M  V30 12338 N 1126.31 -1.30234 -0.887518 0
M  V30 12339 C 1127.24 -1.18969 -2.00919 0
M  V30 12340 C 1128.22 -0.080952 -1.69907 0
M  V30 12341 O 1129.41 -0.262546 -1.92417 0
M  V30 12342 C 1126.54 -0.878094 -3.36016 0
M  V30 12343 C 1125.49 -1.94449 -3.81279 0
M  V30 12344 C 1124.82 -1.48594 -5.13638 0
M  V30 12345 C 1126.12 -3.35519 -4.00281 0
M  V30 12346 H 1127.81 -2.12808 -2.10602 0
M  V30 12347 H 1125.36 -1.02454 -1.01189 0
M  V30 12348 H 1127.31 -0.785954 -4.14006 0
M  V30 12349 H 1126.04 0.0959779 -3.26459 0
M  V30 12350 H 1124.69 -2.02622 -3.05516 0
M  V30 12351 H 1124.34 -0.500204 -5.00507 0
M  V30 12352 H 1124.04 -2.19921 -5.44893 0
M  V30 12353 H 1125.57 -1.40754 -5.94156 0
M  V30 12354 H 1126.98 -3.30119 -4.68716 0
M  V30 12355 H 1125.38 -4.0491 -4.42909 0
M  V30 12356 H 1126.45 -3.77597 -3.04218 0
M  V30 12357 N 1127.79 1.09952 -1.12909 0
M  V30 12358 C 1128.74 2.14591 -0.77037 0
M  V30 12359 C 1129.72 1.59204 0.233021 0
M  V30 12360 O 1130.92 1.7696 0.0377599 0
M  V30 12361 C 1128.05 3.42514 -0.232117 0
M  V30 12362 C 1127.13 4.04823 -1.26409 0
M  V30 12363 N 1127.52 4.41763 -2.46331 0
M  V30 12364 C 1125.82 4.31951 -1.11062 0
M  V30 12365 C 1126.52 4.90778 -3.12269 0
M  V30 12366 N 1125.5 4.87896 -2.39704 0
M  V30 12367 H 1129.3 2.40951 -1.68285 0
M  V30 12368 H 1126.81 1.27125 -1.0106 0
M  V30 12369 H 1128.81 4.16878 0.0430853 0
M  V30 12370 H 1127.47 3.17612 0.674757 0
M  V30 12371 H 1128.48 4.33299 -2.83677 0
M  V30 12372 H 1125.16 4.16681 -0.261456 0
M  V30 12373 H 1126.55 5.28868 -4.14425 0
M  V30 12374 N 1129.27 0.921757 1.27833 0
M  V30 12375 C 1130.5 0.575202 1.98744 0
M  V30 12376 C 1130.91 -0.845405 1.68815 0
M  V30 12377 O 1130.27 -1.56106 0.94536 0
M  V30 12378 C 1130.32 0.784389 3.52888 0
M  V30 12379 O 1130.04 2.1491 3.81766 0
M  V30 12380 C 1131.54 0.445744 4.41053 0
M  V30 12381 H 1128.76 0.218525 0.634419 0
M  V30 12382 H 1131.31 1.23715 1.62834 0
M  V30 12383 H 1129.46 0.169323 3.8703 0
M  V30 12384 H 1129.87 2.19469 4.76375 0
M  V30 12385 H 1131.35 0.64284 5.48244 0
M  V30 12386 H 1131.83 -0.618433 4.34824 0
M  V30 12387 H 1132.43 1.03869 4.12421 0
M  V30 12388 N 1130.75 -1.41857 0.686609 0
M  V30 12389 C 1132.16 -1.84439 0.289662 0
M  V30 12390 C 1132.51 -1.57462 -1.17047 0
M  V30 12391 O 1131.63 -1.04046 -1.89745 0
M  V30 12392 C 1132.23 -3.34802 0.518948 0
M  V30 12393 C 1130.79 -3.75988 0.176007 0
M  V30 12394 C 1129.93 -2.65339 0.805632 0
M  V30 12395 H 1132.89 -1.31536 0.88792 0
M  V30 12396 H 1132.91 -3.79833 -0.225209 0
M  V30 12397 H 1132.42 -3.54405 1.58173 0
M  V30 12398 H 1130.52 -3.61989 -0.882865 0
M  V30 12399 H 1130.63 -4.75009 0.624772 0
M  V30 12400 H 1129 -2.53605 0.235966 0
M  V30 12401 H 1129.78 -2.87762 1.8721 0
M  V30 12402 N 1132.22 -0.430739 -1.51599 0
M  V30 12403 C 1133.64 0.0339139 -1.86669 0
M  V30 12404 C 1133.99 1.42533 -1.34829 0
M  V30 12405 O 1133.11 2.04889 -0.696376 0
M  V30 12406 C 1133.71 0.0683174 -3.38731 0
M  V30 12407 C 1132.27 0.477363 -3.73361 0
M  V30 12408 C 1131.41 -0.334258 -2.75278 0
M  V30 12409 H 1134.36 -0.646875 -1.44918 0
M  V30 12410 H 1134.38 0.879179 -3.70204 0
M  V30 12411 H 1133.9 -0.944501 -3.76432 0
M  V30 12412 H 1132 1.49603 -3.41247 0
M  V30 12413 H 1132.11 0.206744 -4.78654 0
M  V30 12414 H 1130.47 0.206503 -2.53861 0
M  V30 12415 H 1131.26 -1.34583 -3.1582 0
M  V30 12416 N 1133.7 1.56767 -0.161869 0
M  V30 12417 C 1134.63 2.20511 0.767918 0
M  V30 12418 C 1135.61 1.15783 1.24612 0
M  V30 12419 O 1136.8 1.44179 1.301 0
M  V30 12420 C 1133.93 2.83844 2.00125 0
M  V30 12421 C 1132.88 3.94528 1.65926 0
M  V30 12422 C 1132.21 4.44866 2.96646 0
M  V30 12423 C 1133.51 5.14583 0.894497 0
M  V30 12424 H 1135.2 2.98464 0.236607 0
M  V30 12425 H 1132.75 1.43561 0.112363 0
M  V30 12426 H 1134.7 3.27109 2.65664 0
M  V30 12427 H 1133.43 2.03246 2.55654 0
M  V30 12428 H 1132.08 3.51904 1.02759 0
M  V30 12429 H 1131.73 3.61071 3.50196 0
M  V30 12430 H 1131.43 5.19531 2.74521 0
M  V30 12431 H 1132.96 4.90812 3.6323 0
M  V30 12432 H 1134.37 5.54601 1.45228 0
M  V30 12433 H 1132.77 5.95105 0.772636 0
M  V30 12434 H 1133.84 4.84773 -0.110986 0
M  V30 12435 N 1135.18 -0.111886 1.57202 0
M  V30 12436 C 1136.13 -1.14287 1.97288 0
M  V30 12437 C 1137.11 -1.36686 0.848868 0
M  V30 12438 O 1138.31 -1.37659 1.11261 0
M  V30 12439 C 1135.44 -2.46759 2.38673 0
M  V30 12440 C 1134.52 -2.27805 3.57723 0
M  V30 12441 N 1134.91 -1.78679 4.73189 0
M  V30 12442 C 1133.21 -2.58435 3.63494 0
M  V30 12443 C 1133.91 -1.736 5.55192 0
M  V30 12444 N 1132.89 -2.18205 4.97883 0
M  V30 12445 H 1136.69 -0.755711 2.84018 0
M  V30 12446 H 1134.2 -0.31954 1.59225 0
M  V30 12447 H 1136.2 -3.21335 2.65611 0
M  V30 12448 H 1134.86 -2.86227 1.53311 0
M  V30 12449 H 1135.87 -1.48121 4.96267 0
M  V30 12450 H 1132.55 -3.0154 2.88755 0
M  V30 12451 H 1133.94 -1.36812 6.57824 0
M  V30 12452 N 1136.66 -1.52894 -0.382264 0
M  V30 12453 C 1138.07 -1.42295 -0.722802 0
M  V30 12454 C 1138.27 -0.548717 -1.93885 0
M  V30 12455 O 1137.33 -0.0247431 -2.52488 0
M  V30 12456 C 1138.64 -2.85246 -0.9516 0
M  V30 12457 C 1140.19 -2.94768 -1.05265 0
M  V30 12458 C 1140.67 -4.38745 -1.31404 0
M  V30 12459 N 1142.16 -4.421 -1.38211 0
M  V30 12460 C 1142.89 -5.50592 -1.60113 0
M  V30 12461 N 1142.39 -6.69158 -1.79442 0
M  V30 12462 N 1144.18 -5.38145 -1.62347 0
M  V30 12463 H 1136.33 -2.0825 0.417816 0
M  V30 12464 H 1138.6 -0.939753 0.124776 0
M  V30 12465 H 1138.3 -3.51459 -0.130088 0
M  V30 12466 H 1138.18 -3.27903 -1.86439 0
M  V30 12467 H 1140.56 -2.28718 -1.86472 0
M  V30 12468 H 1140.64 -2.55529 -0.117619 0
M  V30 12469 H 1140.29 -5.05363 -0.507038 0
M  V30 12470 H 1140.22 -4.75542 -2.26202 0
M  V30 12471 H 1142.71 -3.56644 -1.24954 0
M  V30 12472 H 1143.02 -7.47615 -1.95681 0
M  V30 12473 H 1141.37 -6.72175 -1.76653 0
M  V30 12474 H 1144.56 -4.44485 -1.46803 0
M  V30 12475 H 1144.73 -6.22764 -1.79077 0
M  V30 12476 N 1138.14 0.641106 -1.43971 0
M  V30 12477 C 1139.09 1.74699 -1.46507 0
M  V30 12478 C 1140.07 1.57437 -0.332037 0
M  V30 12479 O 1141.26 1.67343 -0.576663 0
M  V30 12480 C 1138.39 3.13344 -1.40252 0
M  V30 12481 C 1137.48 3.3611 -2.58632 0
M  V30 12482 N 1137.87 3.29291 -3.83929 0
M  V30 12483 C 1136.17 3.66873 -2.53615 0
M  V30 12484 C 1136.87 3.52472 -4.62751 0
M  V30 12485 N 1135.84 3.74868 -3.93668 0
M  V30 12486 H 1139.65 1.67869 -2.41241 0
M  V30 12487 H 1137.16 0.843217 -1.38793 0
M  V30 12488 H 1139.16 3.92636 -1.40153 0
M  V30 12489 H 1137.82 3.21346 -0.46549 0
M  V30 12490 H 1138.83 3.08431 -4.16041 0
M  V30 12491 H 1135.51 3.81917 -1.68659 0
M  V30 12492 H 1136.9 3.52876 -5.71776 0
M  V30 12493 N 1139.62 1.30703 0.880598 0
M  V30 12494 C 1140.56 1.17369 2.00817 0
M  V30 12495 C 1141.56 0.0845159 1.69189 0
M  V30 12496 O 1142.76 0.245673 1.78316 0
M  V30 12497 H 1139.14 0.363107 0.658527 0
M  V30 12498 H 1141.11 2.12789 2.09197 0
M  V30 12499 C 1139.86 0.886851 3.362 0
M  V30 12500 H 1139.18 1.71704 3.61051 0
M  V30 12501 H 1140.62 0.83368 4.15723 0
M  V30 12502 C 1139.08 -0.410293 3.34392 0
M  V30 12503 O 1139.61 -1.43044 3.75368 0
M  V30 12504 N 1137.82 -0.423023 2.87505 0
M  V30 12505 H 1137.36 0.407637 2.54354 0
M  V30 12506 H 1137.32 -1.29086 2.86678 0
M  V30 12507 N 1141.09 -1.09351 1.1349 0
M  V30 12508 C 1142.34 -1.81812 0.898452 0
M  V30 12509 C 1142.67 -1.85525 -0.573959 0
M  V30 12510 O 1141.95 -1.32403 -1.42477 0
M  V30 12511 C 1142.23 -3.27921 1.48794 0
M  V30 12512 C 1142.08 -3.32476 3.02952 0
M  V30 12513 C 1143.4 -4.24625 1.15678 0
M  V30 12514 H 1140.52 -0.660074 0.327829 0
M  V30 12515 H 1143.16 -1.28091 1.40331 0
M  V30 12516 H 1141.31 -3.738 1.05858 0
M  V30 12517 H 1142.99 -2.94994 3.54649 0
M  V30 12518 H 1141.23 -2.72037 3.37903 0
M  V30 12519 H 1141.9 -4.35409 3.39298 0
M  V30 12520 H 1144.38 -3.87036 1.52781 0
M  V30 12521 H 1143.25 -5.25194 1.59571 0
M  V30 12522 H 1143.51 -4.42044 0.0705933 0
M  V30 12523 N 1142.57 -0.928524 -1.27343 0
M  V30 12524 C 1143.82 -0.569392 -1.9433 0
M  V30 12525 C 1144.15 0.889481 -1.7297 0
M  V30 12526 O 1143.4 1.6499 -1.05247 0
M  V30 12527 C 1143.7 -0.84269 -3.47323 0
M  V30 12528 C 1143.37 -2.28344 -3.88806 0
M  V30 12529 C 1142.03 -2.67731 -3.99842 0
M  V30 12530 C 1144.38 -3.22031 -4.09811 0
M  V30 12531 C 1141.71 -3.99928 -4.29272 0
M  V30 12532 C 1144.06 -4.5381 -4.40725 0
M  V30 12533 C 1142.72 -4.93031 -4.49975 0
M  V30 12534 H 1141.99 -0.208355 -0.711104 0
M  V30 12535 H 1144.64 -1.17264 -1.51398 0
M  V30 12536 H 1142.95 -0.156775 -3.91486 0
M  V30 12537 H 1144.64 -0.543779 -3.97296 0
M  V30 12538 H 1141.23 -1.96787 -3.80753 0
M  V30 12539 H 1145.42 -2.92803 -4.00724 0
M  V30 12540 H 1140.67 -4.29996 -4.34642 0
M  V30 12541 H 1144.85 -5.26407 -4.55926 0
M  V30 12542 H 1142.47 -5.95497 -4.72533 0
M  V30 12543 N 1144.05 1.41491 -0.694123 0
M  V30 12544 C 1145 2.30783 -0.0278824 0
M  V30 12545 C 1145.97 1.47028 0.772783 0
M  V30 12546 O 1147.15 1.75819 0.74111 0
M  V30 12547 C 1144.29 3.33061 0.903579 0
M  V30 12548 C 1143.4 4.31896 0.0946823 0
M  V30 12549 C 1142.54 5.21243 1.02365 0
M  V30 12550 C 1141.58 6.11748 0.207578 0
M  V30 12551 N 1140.72 6.93583 1.09028 0
M  V30 12552 H 1145.56 2.87197 -0.795092 0
M  V30 12553 H 1143.09 1.41449 -0.403806 0
M  V30 12554 H 1145.05 3.90907 1.45765 0
M  V30 12555 H 1143.68 2.782 1.6372 0
M  V30 12556 H 1142.73 3.76009 -0.576289 0
M  V30 12557 H 1144.04 4.95889 -0.538059 0
M  V30 12558 H 1143.2 5.83917 1.647 0
M  V30 12559 H 1141.94 4.57473 1.69025 0
M  V30 12560 H 1140.94 5.48125 -0.428854 0
M  V30 12561 H 1142.17 6.77573 -0.455206 0
M  V30 12562 H 1140.11 6.32422 1.74292 0
M  V30 12563 H 1140.03 7.54257 0.513073 0
M  V30 12564 H 1141.3 7.60726 1.70048 0
M  V30 12565 N 1145.53 0.438773 1.51369 0
M  V30 12566 C 1146.94 0.0911416 1.5934 0
M  V30 12567 C 1147.14 -1.39962 1.44958 0
M  V30 12568 O 1146.2 -2.16968 1.29155 0
M  V30 12569 C 1147.51 0.612531 2.94395 0
M  V30 12570 C 1149.06 0.573098 3.07709 0
M  V30 12571 C 1149.54 1.07149 4.4529 0
M  V30 12572 N 1151.03 1.02953 4.51614 0
M  V30 12573 C 1151.76 1.38602 5.56397 0
M  V30 12574 N 1151.26 1.81543 6.68591 0
M  V30 12575 N 1153.05 1.30409 5.46763 0
M  V30 12576 H 1145.2 1.40872 1.58962 0
M  V30 12577 H 1147.46 0.580589 0.749414 0
M  V30 12578 H 1147.17 1.65562 3.10294 0
M  V30 12579 H 1147.04 0.0382375 3.77181 0
M  V30 12580 H 1149.43 -0.461006 2.91477 0
M  V30 12581 H 1149.51 1.18381 2.26759 0
M  V30 12582 H 1149.16 2.10406 4.62268 0
M  V30 12583 H 1149.09 0.437297 5.24781 0
M  V30 12584 H 1151.58 0.714208 3.7109 0
M  V30 12585 H 1151.89 2.06977 7.44567 0
M  V30 12586 H 1150.24 1.8547 6.69795 0
M  V30 12587 H 1153.43 0.967272 4.57997 0
M  V30 12588 H 1153.6 1.5852 6.28312 0
M  V30 12589 N 1147.01 -1.56678 0.170181 0
M  V30 12590 C 1147.96 -2.14503 -0.772818 0
M  V30 12591 C 1148.94 -1.07896 -1.19362 0
M  V30 12592 O 1150.13 -1.34021 -1.15617 0
M  V30 12593 C 1147.26 -2.78844 -2.00253 0
M  V30 12594 C 1146.35 -3.92607 -1.60377 0
M  V30 12595 N 1146.74 -4.97464 -0.914519 0
M  V30 12596 C 1145.04 -4.03746 -1.89487 0
M  V30 12597 C 1145.74 -5.77248 -0.718343 0
M  V30 12598 N 1144.71 -5.2881 -1.25942 0
M  V30 12599 H 1148.51 -2.92941 -0.237231 0
M  V30 12600 H 1146.03 -1.62371 -0.0305396 0
M  V30 12601 H 1148.03 -3.18646 -2.68831 0
M  V30 12602 H 1146.69 -2.01886 -2.54307 0
M  V30 12603 H 1147.7 -5.14724 -0.572692 0
M  V30 12604 H 1144.37 -3.3789 -2.45227 0
M  V30 12605 H 1145.76 -6.71676 -0.173373 0
M  V30 12606 N 1148.48 0.103547 -1.57259 0
M  V30 12607 C 1149.71 0.82624 -1.90232 0
M  V30 12608 C 1150.13 1.71902 -0.763641 0
M  V30 12609 O 1149.49 1.79043 0.285181 0
M  V30 12610 C 1149.54 1.62265 -3.22029 0
M  V30 12611 O 1148.64 2.73091 -3.09023 0
M  V30 12612 H 1147.98 0.227528 -0.6238 0
M  V30 12613 H 1150.51 0.081307 -2.04438 0
M  V30 12614 H 1150.52 2.00865 -3.5513 0
M  V30 12615 H 1149.2 0.967383 -4.04493 0
M  V30 12616 H 1147.78 2.3758 -2.8742 0
M  V30 12617 N 1149.96 1.53094 0.37415 0
M  V30 12618 C 1150.89 1.73697 1.48002 0
M  V30 12619 C 1151.87 0.585109 1.51708 0
M  V30 12620 O 1153.06 0.816688 1.6989 0
M  V30 12621 C 1150.18 1.80802 2.86406 0
M  V30 12622 C 1149.23 3.02696 3.00462 0
M  V30 12623 S 1150.06 4.62386 2.70109 0
M  V30 12624 C 1151.22 4.72328 4.10679 0
M  V30 12625 H 1151.45 2.67223 1.30303 0
M  V30 12626 H 1148.98 1.43574 0.567957 0
M  V30 12627 H 1150.94 1.85581 3.66155 0
M  V30 12628 H 1149.6 0.883425 3.01421 0
M  V30 12629 H 1148.8 3.04252 4.01804 0
M  V30 12630 H 1148.4 2.95985 2.28624 0
M  V30 12631 H 1150.69 4.51856 5.04809 0
M  V30 12632 H 1151.63 5.7437 4.14131 0
M  V30 12633 H 1152.04 4.01035 3.9728 0
M  V30 12634 N 1151.44 -0.633461 1.44309 0
M  V30 12635 C 1152.86 -0.951379 1.28144 0
M  V30 12636 C 1153.06 -2.00344 0.215512 0
M  V30 12637 O 1152.11 -2.49321 -0.399389 0
M  V30 12638 C 1153.42 -1.41686 2.65227 0
M  V30 12639 C 1154.97 -1.53247 2.72918 0
M  V30 12640 C 1155.45 -2.03179 4.10466 0
M  V30 12641 N 1156.94 -2.10453 4.1263 0
M  V30 12642 C 1157.67 -2.50254 5.15907 0
M  V30 12643 N 1157.17 -2.89209 6.29547 0
M  V30 12644 N 1158.96 -2.50368 5.03262 0
M  V30 12645 H 1151.11 0.0623574 2.12308 0
M  V30 12646 H 1153.38 -0.0347244 0.947364 0
M  V30 12647 H 1153.08 -0.71814 3.4429 0
M  V30 12648 H 1152.96 -2.3883 2.91959 0
M  V30 12649 H 1155.34 -2.22216 1.94176 0
M  V30 12650 H 1155.42 -0.544836 2.4993 0
M  V30 12651 H 1155.07 -1.34806 4.89683 0
M  V30 12652 H 1155 -3.02809 4.3083 0
M  V30 12653 H 1157.49 -1.83042 3.30612 0
M  V30 12654 H 1157.8 -3.18386 7.04166 0
M  V30 12655 H 1156.15 -2.86966 6.32989 0
M  V30 12656 H 1159.34 -2.19324 4.13539 0
M  V30 12657 H 1159.51 -2.81062 5.83873 0
M  V30 12658 N 1152.92 -1.31168 -0.873655 0
M  V30 12659 C 1153.83 -1.20458 -2.01313 0
M  V30 12660 C 1154.84 -0.122074 -1.73571 0
M  V30 12661 O 1156.02 -0.339176 -1.98523 0
M  V30 12662 C 1153.09 -0.90876 -3.34578 0
M  V30 12663 C 1152.15 -2.07779 -3.75668 0
M  V30 12664 C 1151.38 -1.79599 -5.02573 0
M  V30 12665 O 1151.6 -0.729338 -5.65718 0
M  V30 12666 O 1150.54 -2.65169 -5.40341 0
M  V30 12667 H 1154.36 -2.16207 -2.13279 0
M  V30 12668 H 1151.95 -1.10871 -1.00139 0
M  V30 12669 H 1153.83 -0.759469 -4.145 0
M  V30 12670 H 1152.5 0.0187249 -3.23695 0
M  V30 12671 H 1151.41 -2.28247 -2.96402 0
M  V30 12672 H 1152.74 -2.9874 -3.91172 0
M  V30 12673 N 1154.4 1.08748 -1.14068 0
M  V30 12674 C 1155.31 2.19123 -0.837998 0
M  V30 12675 C 1156.32 1.73065 0.180164 0
M  V30 12676 O 1157.5 2.01398 0.00952285 0
M  V30 12677 C 1154.56 3.45257 -0.316 0
M  V30 12678 C 1153.62 4.05959 -1.39628 0
M  V30 12679 C 1152.86 5.26072 -0.899095 0
M  V30 12680 O 1153.08 5.69804 0.260744 0
M  V30 12681 O 1152.01 5.7808 -1.67652 0
M  V30 12682 H 1155.84 2.4748 -1.76033 0
M  V30 12683 H 1153.43 1.17816 -0.918675 0
M  V30 12684 H 1155.31 4.21389 -0.0306425 0
M  V30 12685 H 1153.98 3.18486 0.578654 0
M  V30 12686 H 1152.89 3.31432 -1.73505 0
M  V30 12687 H 1154.22 4.36971 -2.26533 0
M  V30 12688 N 1155.87 0.935264 1.26849 0
M  V30 12689 C 1157.15 0.497797 1.8916 0
M  V30 12690 C 1157.53 -1.02441 1.84578 0
M  V30 12691 O 1156.88 -1.88185 1.29609 0
M  V30 12692 C 1157.09 1.05244 3.32753 0
M  V30 12693 C 1158.44 1.11751 4.0963 0
M  V30 12694 O 1159.46 1.0026 3.41799 0
M  V30 12695 O 1158.32 1.29548 5.30923 0
M  V30 12696 H 1155.41 0.161322 0.811113 0
M  V30 12697 H 1157.96 1.02744 1.35062 0
M  V30 12698 H 1156.73 2.09617 3.30419 0
M  V30 12699 H 1156.36 0.504889 3.94381 0
M  V30 12700 N 1157.35 -1.41121 0.701616 0
M  V30 12701 C 1158.6 -2.0113 0.235147 0
M  V30 12702 C 1158.93 -1.55587 -1.16718 0
M  V30 12703 O 1158.18 -0.760615 -1.80314 0
M  V30 12704 C 1158.48 -3.5654 0.247781 0
M  V30 12705 C 1158.15 -4.21616 1.59846 0
M  V30 12706 C 1156.81 -4.39106 1.96822 0
M  V30 12707 C 1159.16 -4.58048 2.48679 0
M  V30 12708 C 1156.49 -4.90307 3.22205 0
M  V30 12709 C 1158.84 -5.10642 3.734 0
M  V30 12710 C 1157.51 -5.26343 4.10512 0
M  V30 12711 H 1156.78 -0.735987 0.0860462 0
M  V30 12712 H 1159.42 -1.68932 0.901898 0
M  V30 12713 H 1157.73 -3.88564 -0.502528 0
M  V30 12714 H 1159.42 -4.00787 -0.130766 0
M  V30 12715 H 1156.01 -4.08381 1.30088 0
M  V30 12716 H 1160.2 -4.44184 2.21391 0
M  V30 12717 H 1155.45 -5.00647 3.50945 0
M  V30 12718 H 1159.63 -5.37811 4.42416 0
M  V30 12719 H 1157.26 -5.65779 5.07738 0
M  V30 12720 N 1158.83 -0.446794 -1.51134 0
M  V30 12721 C 1160.08 0.118047 -2.01354 0
M  V30 12722 C 1160.39 1.42953 -1.33505 0
M  V30 12723 O 1161.6 2.07788 -1.74747 0
M  V30 12724 C 1160.05 0.260912 -3.58953 0
M  V30 12725 C 1159.66 -1.0407 -4.35745 0
M  V30 12726 C 1161.41 0.779014 -4.17291 0
M  V30 12727 C 1159.31 -0.862958 -5.8507 0
M  V30 12728 H 1158.24 0.0478915 -0.752478 0
M  V30 12729 H 1160.89 -0.577997 -1.74159 0
M  V30 12730 H 1159.28 1.02018 -3.82633 0
M  V30 12731 H 1160.45 -1.80903 -4.23805 0
M  V30 12732 H 1158.77 -1.48805 -3.88904 0
M  V30 12733 H 1161.36 0.928636 -5.26574 0
M  V30 12734 H 1161.71 1.76399 -3.7708 0
M  V30 12735 H 1162.24 0.0778022 -3.97724 0
M  V30 12736 H 1158.98 -1.82059 -6.2971 0
M  V30 12737 H 1158.5 -0.134588 -5.99649 0
M  V30 12738 H 1160.18 -0.51989 -6.44908 0
M  V30 12739 N 1160.31 1.56586 -0.178487 0
M  V30 12740 C 1161.24 2.155 0.780543 0
M  V30 12741 C 1162.25 1.11244 1.18864 0
M  V30 12742 O 1163.44 1.38403 1.12725 0
M  V30 12743 C 1160.54 2.68867 2.0631 0
M  V30 12744 C 1159.72 3.97854 1.81744 0
M  V30 12745 C 1158.77 4.36213 2.94287 0
M  V30 12746 O 1157.8 5.03954 2.64612 0
M  V30 12747 N 1159 3.98356 4.22247 0
M  V30 12748 H 1161.77 2.98419 0.276836 0
M  V30 12749 H 1159.33 1.61899 0.00405241 0
M  V30 12750 H 1161.32 2.91522 2.80708 0
M  V30 12751 H 1159.89 1.90496 2.47851 0
M  V30 12752 H 1159.11 3.83502 0.912127 0
M  V30 12753 H 1160.4 4.82083 1.62707 0
M  V30 12754 H 1159.8 3.43835 4.49215 0
M  V30 12755 H 1158.35 4.25998 4.93325 0
M  V30 12756 N 1161.79 -0.095206 1.57312 0
M  V30 12757 C 1163.2 -0.649733 1.7503 0
M  V30 12758 C 1163.55 -1.7912 0.800652 0
M  V30 12759 O 1162.67 -2.1639 -0.0208831 0
M  V30 12760 C 1163.27 -1.18541 3.17386 0
M  V30 12761 C 1161.83 -1.686 3.36528 0
M  V30 12762 C 1160.97 -0.595531 2.7083 0
M  V30 12763 H 1163.93 0.130863 1.5816 0
M  V30 12764 H 1163.95 -2.05473 3.20252 0
M  V30 12765 H 1163.46 -0.35441 3.86478 0
M  V30 12766 H 1161.56 -2.541 2.72514 0
M  V30 12767 H 1161.67 -1.77907 4.44844 0
M  V30 12768 H 1160.04 -1.03495 2.32725 0
M  V30 12769 H 1160.82 0.224883 3.42563 0
M  V30 12770 N 1163.26 -1.53291 -0.366026 0
M  V30 12771 C 1164.49 -1.73665 -1.13381 0
M  V30 12772 C 1164.91 -0.464284 -1.8228 0
M  V30 12773 O 1164.27 0.581645 -1.71717 0
M  V30 12774 C 1164.32 -2.90225 -2.14013 0
M  V30 12775 O 1163.42 -2.58803 -3.21084 0
M  V30 12776 H 1162.77 -0.576762 -0.329 0
M  V30 12777 H 1165.3 -2.00174 -0.423287 0
M  V30 12778 H 1165.31 -3.16378 -2.57622 0
M  V30 12779 H 1163.98 -3.82518 -1.63257 0
M  V30 12780 H 1162.56 -2.43466 -2.82451 0
M  V30 12781 N 1164.74 0.6258 -1.44643 0
M  V30 12782 C 1165.97 1.41726 -1.51422 0
M  V30 12783 C 1166.39 1.87565 -0.14181 0
M  V30 12784 O 1165.75 1.59059 0.870054 0
M  V30 12785 C 1165.8 2.61012 -2.48807 0
M  V30 12786 O 1164.9 3.61029 -1.99328 0
M  V30 12787 H 1164.24 0.423855 -0.511119 0
M  V30 12788 H 1166.77 0.763336 -1.89827 0
M  V30 12789 H 1166.78 3.08489 -2.67018 0
M  V30 12790 H 1165.46 2.26995 -3.48491 0
M  V30 12791 H 1164.04 3.20325 -1.90909 0
M  V30 12792 N 1166.22 1.31629 0.866686 0
M  V30 12793 C 1167.64 1.10358 1.15296 0
M  V30 12794 C 1167.84 -0.123807 2.01119 0
M  V30 12795 O 1166.89 -0.81219 2.39081 0
M  V30 12796 C 1168.21 2.37684 1.84193 0
M  V30 12797 C 1169.75 2.43326 1.9688 0
M  V30 12798 C 1170.23 3.70541 2.69191 0
M  V30 12799 N 1171.72 3.71454 2.76724 0
M  V30 12800 C 1172.45 4.66585 3.33295 0
M  V30 12801 N 1171.95 5.72075 3.90771 0
M  V30 12802 N 1173.74 4.541 3.31284 0
M  V30 12803 H 1165.89 2.10343 0.29487 0
M  V30 12804 H 1168.16 0.928096 0.193239 0
M  V30 12805 H 1167.86 3.27352 1.28582 0
M  V30 12806 H 1167.74 2.47731 2.84445 0
M  V30 12807 H 1170.12 1.54124 2.51654 0
M  V30 12808 H 1170.21 2.3724 0.956596 0
M  V30 12809 H 1169.85 4.60111 2.15083 0
M  V30 12810 H 1169.78 3.73894 3.70825 0
M  V30 12811 H 1172.27 2.952 2.35936 0
M  V30 12812 H 1172.58 6.40738 4.32058 0
M  V30 12813 H 1170.93 5.75844 3.89138 0
M  V30 12814 H 1174.12 3.70861 2.85622 0
M  V30 12815 H 1174.29 5.28416 3.75074 0
M  V30 12816 N 1167.7 -1.08142 1.14644 0
M  V30 12817 C 1168.61 -2.18675 0.849607 0
M  V30 12818 C 1169.63 -1.73158 -0.170983 0
M  V30 12819 O 1170.8 -2.014 0.0011579 0
M  V30 12820 C 1167.87 -3.45084 0.334305 0
M  V30 12821 C 1166.93 -4.05213 1.41779 0
M  V30 12822 C 1166.16 -5.25588 0.926981 0
M  V30 12823 O 1166.38 -5.69934 -0.230522 0
M  V30 12824 O 1165.32 -5.77183 1.70715 0
M  V30 12825 H 1169.14 -2.46542 1.77343 0
M  V30 12826 H 1166.73 -1.17328 0.924911 0
M  V30 12827 H 1168.61 -4.21367 0.0529893 0
M  V30 12828 H 1167.29 -3.18788 -0.561755 0
M  V30 12829 H 1166.19 -3.30507 1.7526 0
M  V30 12830 H 1167.53 -4.35764 2.28847 0
M  V30 12831 N 1169.18 -0.941978 -1.26351 0
M  V30 12832 C 1170.09 -0.45833 -2.30079 0
M  V30 12833 C 1171.1 0.468084 -1.67586 0
M  V30 12834 O 1172.28 0.347418 -1.98381 0
M  V30 12835 C 1169.34 0.26797 -3.45663 0
M  V30 12836 C 1168.41 -0.695102 -4.23635 0
M  V30 12837 C 1167.64 -0.003369 -5.337 0
M  V30 12838 O 1167.86 1.21342 -5.57344 0
M  V30 12839 O 1166.8 -0.682476 -5.98018 0
M  V30 12840 H 1170.62 -1.31998 -2.73514 0
M  V30 12841 H 1168.21 -0.707897 -1.31564 0
M  V30 12842 H 1170.09 0.677061 -4.15925 0
M  V30 12843 H 1168.76 1.105 -3.04256 0
M  V30 12844 H 1167.67 -1.15415 -3.55851 0
M  V30 12845 H 1169 -1.49977 -4.68794 0
M  V30 12846 N 1170.66 1.40747 -0.709091 0
M  V30 12847 C 1171.62 2.29118 -0.0611607 0
M  V30 12848 C 1172.62 1.45049 0.694081 0
M  V30 12849 O 1173.81 1.66039 0.526952 0
M  V30 12850 C 1170.94 3.28154 0.923447 0
M  V30 12851 H 1172.13 2.87913 -0.839413 0
M  V30 12852 H 1169.69 1.4896 -0.473363 0
M  V30 12853 H 1170.42 2.74366 1.72899 0
M  V30 12854 H 1170.21 3.90207 0.384862 0
M  V30 12855 H 1171.7 3.94343 1.37417 0
M  V30 12856 N 1172.13 0.454803 1.50895 0
M  V30 12857 C 1173.07 -0.383826 2.25963 0
M  V30 12858 C 1174.08 -0.971263 1.30653 0
M  V30 12859 O 1175.27 -0.862434 1.56283 0
M  V30 12860 C 1172.37 -1.55069 3.01342 0
M  V30 12861 C 1171.54 -1.07899 4.23883 0
M  V30 12862 C 1170.6 -2.118 4.81692 0
M  V30 12863 O 1169.63 -1.70523 5.43057 0
M  V30 12864 N 1170.83 -3.44459 4.67256 0
M  V30 12865 H 1173.59 0.259646 2.98573 0
M  V30 12866 H 1171.15 0.284661 1.59378 0
M  V30 12867 H 1173.15 -2.24236 3.36898 0
M  V30 12868 H 1171.72 -2.09917 2.31633 0
M  V30 12869 H 1170.94 -0.213773 3.9362 0
M  V30 12870 H 1172.22 -0.741501 5.03368 0
M  V30 12871 H 1171.62 -3.80716 4.18416 0
M  V30 12872 H 1170.18 -4.0947 5.07127 0
M  V30 12873 N 1173.61 -1.56489 0.186789 0
M  V30 12874 C 1174.54 -2.15911 -0.769104 0
M  V30 12875 C 1175.56 -1.11872 -1.18273 0
M  V30 12876 O 1176.75 -1.38999 -1.1199 0
M  V30 12877 C 1173.85 -2.69957 -2.04882 0
M  V30 12878 C 1173.02 -3.98812 -1.79631 0
M  V30 12879 C 1172.08 -4.37767 -2.9197 0
M  V30 12880 O 1171.1 -5.0535 -2.61935 0
M  V30 12881 N 1172.31 -4.0059 -4.20128 0
M  V30 12882 H 1175.07 -2.98561 -0.261007 0
M  V30 12883 H 1172.63 -1.61899 0.00453357 0
M  V30 12884 H 1174.62 -2.93006 -2.79158 0
M  V30 12885 H 1173.19 -1.91808 -2.46837 0
M  V30 12886 H 1172.41 -3.8398 -0.891776 0
M  V30 12887 H 1173.7 -4.82939 -1.60148 0
M  V30 12888 H 1173.1 -3.46213 -4.47385 0
M  V30 12889 H 1171.66 -4.28608 -4.91059 0
M  V30 12890 N 1175.09 0.086862 -1.5736 0
M  V30 12891 C 1176.02 1.10538 -2.05678 0
M  V30 12892 C 1177 1.41281 -0.947293 0
M  V30 12893 O 1178.19 1.51169 -1.21908 0
M  V30 12894 C 1175.32 2.42302 -2.48812 0
M  V30 12895 C 1174.27 2.25948 -3.63499 0
M  V30 12896 C 1173.6 3.62961 -3.92637 0
M  V30 12897 C 1174.9 1.69319 -4.94094 0
M  V30 12898 H 1176.59 0.703371 -2.91021 0
M  V30 12899 H 1174.14 0.336895 -1.40004 0
M  V30 12900 H 1176.09 3.13833 -2.81224 0
M  V30 12901 H 1174.81 2.84454 -1.60479 0
M  V30 12902 H 1173.47 1.5686 -3.31347 0
M  V30 12903 H 1173.12 4.02656 -3.01459 0
M  V30 12904 H 1172.82 3.52862 -4.69853 0
M  V30 12905 H 1174.34 4.35946 -4.27531 0
M  V30 12906 H 1175.76 2.30699 -5.24834 0
M  V30 12907 H 1174.15 1.69957 -5.7553 0
M  V30 12908 H 1175.22 0.653318 -4.80479 0
M  V30 12909 N 1176.57 1.53483 0.357892 0
M  V30 12910 C 1177.81 1.71233 1.09776 0
M  V30 12911 C 1178.17 0.462401 1.86761 0
M  V30 12912 O 1177.46 -0.544746 1.83693 0
M  V30 12913 C 1177.66 2.90654 2.07978 0
M  V30 12914 C 1177.48 4.27141 1.40644 0
M  V30 12915 C 1176.25 4.91868 1.15732 0
M  V30 12916 C 1178.45 5.07392 0.840118 0
M  V30 12917 N 1176.43 6.12261 0.448282 0
M  V30 12918 C 1177.81 6.19451 0.260863 0
M  V30 12919 C 1179.86 4.92377 0.739558 0
M  V30 12920 C 1178.56 7.18135 -0.409153 0
M  V30 12921 C 1180.59 5.91341 0.0833084 0
M  V30 12922 C 1179.95 7.02728 -0.485038 0
M  V30 12923 H 1176.05 0.679764 0.386582 0
M  V30 12924 H 1178.63 1.90893 0.383158 0
M  V30 12925 H 1176.81 2.7252 2.76744 0
M  V30 12926 H 1178.54 2.97192 2.74698 0
M  V30 12927 H 1175.29 4.51157 1.44064 0
M  V30 12928 H 1175.72 6.76912 0.108905 0
M  V30 12929 H 1180.36 4.06441 1.16472 0
M  V30 12930 H 1178.08 8.03657 -0.846247 0
M  V30 12931 H 1181.66 5.818 0.00632482 0
M  V30 12932 H 1180.54 7.77992 -0.984802 0
M  V30 12933 N 1178.05 -0.61812 1.44973 0
M  V30 12934 C 1178.96 -1.7579 1.55355 0
M  V30 12935 C 1179.97 -1.68384 0.438512 0
M  V30 12936 O 1181.15 -1.88928 0.697715 0
M  V30 12937 C 1178.21 -3.1222 1.50729 0
M  V30 12938 C 1177.27 -3.3116 2.73188 0
M  V30 12939 C 1176.51 -4.61082 2.68774 0
M  V30 12940 O 1176.73 -5.42728 1.75507 0
M  V30 12941 O 1175.66 -4.82506 3.59821 0
M  V30 12942 H 1179.49 -1.69983 2.51674 0
M  V30 12943 H 1177.07 -0.780934 1.27365 0
M  V30 12944 H 1178.96 -3.93524 1.5072 0
M  V30 12945 H 1177.63 -3.18541 0.575587 0
M  V30 12946 H 1176.54 -2.49485 2.78762 0
M  V30 12947 H 1177.87 -3.29709 3.65449 0
M  V30 12948 N 1179.52 -1.32087 -0.859693 0
M  V30 12949 C 1180.49 -1.20546 -1.94939 0
M  V30 12950 C 1181.49 -0.12982 -1.60275 0
M  V30 12951 O 1182.68 -0.379853 -1.70008 0
M  V30 12952 C 1179.81 -0.852717 -3.30063 0
M  V30 12953 H 1181 -2.17384 -2.06602 0
M  V30 12954 H 1178.55 -1.15846 -1.04926 0
M  V30 12955 H 1179.29 0.114059 -3.24099 0
M  V30 12956 H 1179.07 -1.63035 -3.56598 0
M  V30 12957 H 1180.56 -0.796145 -4.09941 0
M  V30 12958 N 1181 1.07532 -1.15215 0
M  V30 12959 C 1181.91 2.18222 -0.861192 0
M  V30 12960 C 1182.93 1.73246 0.161798 0
M  V30 12961 O 1184.1 2.01397 -0.0118386 0
M  V30 12962 C 1181.17 3.44902 -0.352601 0
M  V30 12963 C 1180.23 4.04455 -1.43926 0
M  V30 12964 C 1179.46 5.25089 -0.954841 0
M  V30 12965 O 1179.69 5.70048 0.200294 0
M  V30 12966 O 1178.62 5.76269 -1.73774 0
M  V30 12967 H 1182.45 2.45599 -1.78648 0
M  V30 12968 H 1180.03 1.16835 -0.93112 0
M  V30 12969 H 1181.91 4.21333 -0.0753347 0
M  V30 12970 H 1180.59 3.19082 0.544841 0
M  V30 12971 H 1179.49 3.29573 -1.7701 0
M  V30 12972 H 1180.83 4.34544 -2.31155 0
M  V30 12973 N 1182.48 0.948665 1.2585 0
M  V30 12974 C 1183.43 0.462904 2.2611 0
M  V30 12975 C 1184.4 -0.481433 1.5897 0
M  V30 12976 O 1185.58 -0.395997 1.86645 0
M  V30 12977 C 1182.72 -0.258808 3.44128 0
M  V30 12978 C 1181.84 0.722072 4.25923 0
M  V30 12979 C 1180.97 -0.0215958 5.31196 0
M  V30 12980 C 1180.01 0.950612 6.04673 0
M  V30 12981 N 1179.15 0.238209 7.01696 0
M  V30 12982 H 1183.99 1.32279 2.67032 0
M  V30 12983 H 1181.52 0.663485 1.31287 0
M  V30 12984 H 1183.48 -0.693759 4.11391 0
M  V30 12985 H 1182.11 -1.08278 3.04098 0
M  V30 12986 H 1181.16 1.27552 3.58378 0
M  V30 12987 H 1182.48 1.46421 4.76825 0
M  V30 12988 H 1181.63 -0.51547 6.04506 0
M  V30 12989 H 1180.37 -0.796563 4.81151 0
M  V30 12990 H 1179.37 1.45554 5.30183 0
M  V30 12991 H 1180.6 1.72571 6.56808 0
M  V30 12992 H 1178.54 -0.518129 6.53951 0
M  V30 12993 H 1178.46 0.919542 7.50387 0
M  V30 12994 H 1179.73 -0.234325 7.79148 0
M  V30 12995 N 1183.96 -1.40369 0.716545 0
M  V30 12996 C 1185.2 -2.01167 0.256846 0
M  V30 12997 C 1185.54 -1.56689 -1.14727 0
M  V30 12998 O 1184.81 -0.787384 -1.7785 0
M  V30 12999 C 1185.1 -3.58511 0.337963 0
M  V30 13000 C 1184.95 -4.13059 1.78052 0
M  V30 13001 C 1186.27 -4.39142 -0.290295 0
M  V30 13002 H 1183.39 -0.730877 0.0948028 0
M  V30 13003 H 1186.03 -1.66833 0.909225 0
M  V30 13004 H 1184.18 -3.87891 -0.217482 0
M  V30 13005 H 1185.85 -3.94472 2.39143 0
M  V30 13006 H 1184.09 -3.67311 2.30793 0
M  V30 13007 H 1184.76 -5.22217 1.78867 0
M  V30 13008 H 1187.24 -4.15697 0.182987 0
M  V30 13009 H 1186.12 -5.48524 -0.203097 0
M  V30 13010 H 1186.38 -4.20209 -1.37394 0
M  V30 13011 N 1185.44 -0.462799 -1.50652 0
M  V30 13012 C 1186.38 0.335664 -2.28346 0
M  V30 13013 C 1187.35 0.994541 -1.33034 0
M  V30 13014 O 1188.54 1.00857 -1.61964 0
M  V30 13015 C 1185.68 1.41648 -3.1469 0
M  V30 13016 C 1184.79 0.773207 -4.25024 0
M  V30 13017 C 1183.93 1.83121 -4.98638 0
M  V30 13018 C 1182.97 1.16774 -6.00858 0
M  V30 13019 N 1182.1 2.16823 -6.67782 0
M  V30 13020 H 1186.94 -0.333202 -2.96131 0
M  V30 13021 H 1184.48 -0.176166 -1.46041 0
M  V30 13022 H 1186.44 2.05468 -3.63096 0
M  V30 13023 H 1185.07 2.05462 -2.48968 0
M  V30 13024 H 1184.12 0.0226444 -3.80393 0
M  V30 13025 H 1185.43 0.249061 -4.98178 0
M  V30 13026 H 1184.59 2.54543 -5.5072 0
M  V30 13027 H 1183.32 2.38915 -4.25172 0
M  V30 13028 H 1182.33 0.439112 -5.48044 0
M  V30 13029 H 1183.55 0.616809 -6.76293 0
M  V30 13030 H 1181.5 2.71649 -5.97112 0
M  V30 13031 H 1181.42 1.69371 -7.36783 0
M  V30 13032 H 1182.69 2.8765 -7.24484 0
M  V30 13033 N 1186.91 1.56388 -0.195085 0
M  V30 13034 C 1187.85 2.14992 0.765096 0
M  V30 13035 C 1188.83 1.08663 1.20959 0
M  V30 13036 O 1190.01 1.36775 1.29711 0
M  V30 13037 C 1187.14 2.7088 2.03327 0
M  V30 13038 C 1186.18 3.89797 1.7309 0
M  V30 13039 S 1187.02 5.28236 0.879025 0
M  V30 13040 C 1188.17 5.87545 2.15734 0
M  V30 13041 H 1188.4 2.961 0.266902 0
M  V30 13042 H 1185.94 1.54387 0.0199116 0
M  V30 13043 H 1187.9 3.03723 2.76157 0
M  V30 13044 H 1186.56 1.89814 2.50259 0
M  V30 13045 H 1185.75 4.27312 2.67246 0
M  V30 13046 H 1185.35 3.57964 1.08342 0
M  V30 13047 H 1187.64 6.01907 3.10989 0
M  V30 13048 H 1188.59 6.84137 1.82652 0
M  V30 13049 H 1188.99 5.16151 2.2858 0
M  V30 13050 N 1188.39 -0.0785156 1.57404 0
M  V30 13051 C 1189.81 -0.433143 1.5361 0
M  V30 13052 C 1190.01 -1.79564 0.914283 0
M  V30 13053 O 1189.06 -2.47215 0.513899 0
M  V30 13054 C 1190.38 -0.380387 2.98284 0
M  V30 13055 C 1191.93 -0.461056 3.09586 0
M  V30 13056 C 1192.4 -0.438276 4.55898 0
M  V30 13057 N 1193.89 -0.498548 4.60509 0
M  V30 13058 C 1194.63 -0.503028 5.71189 0
M  V30 13059 N 1194.12 -0.462724 6.91253 0
M  V30 13060 N 1195.92 -0.549083 5.59412 0
M  V30 13061 H 1188.07 0.813724 1.96195 0
M  V30 13062 H 1190.33 0.304644 0.897717 0
M  V30 13063 H 1190.04 0.553932 3.4731 0
M  V30 13064 H 1189.91 -1.19313 3.57833 0
M  V30 13065 H 1192.3 -1.3858 2.60537 0
M  V30 13066 H 1192.38 0.380138 2.5296 0
M  V30 13067 H 1192.02 0.482588 5.05602 0
M  V30 13068 H 1191.95 -1.29691 5.1038 0
M  V30 13069 H 1194.44 -0.534219 3.74105 0
M  V30 13070 H 1194.76 -0.469883 7.7137 0
M  V30 13071 H 1193.1 -0.429515 6.93672 0
M  V30 13072 H 1196.29 -0.578215 4.64515 0
M  V30 13073 H 1196.46 -0.549105 6.45669 0
M  V30 13074 N 1189.87 -1.5367 -0.349747 0
M  V30 13075 C 1190.8 -1.77528 -1.4497 0
M  V30 13076 C 1191.82 -0.656412 -1.4898 0
M  V30 13077 O 1193 -0.933016 -1.52174 0
M  V30 13078 C 1190.1 -1.85445 -2.8366 0
M  V30 13079 C 1189.28 -3.15295 -3.03163 0
M  V30 13080 C 1188.34 -3.1425 -4.22059 0
M  V30 13081 O 1187.36 -3.87994 -4.16472 0
M  V30 13082 N 1188.56 -2.36181 -5.30282 0
M  V30 13083 H 1191.33 -2.72444 -1.24877 0
M  V30 13084 H 1188.89 -1.52644 -0.539586 0
M  V30 13085 H 1190.88 -1.82204 -3.61364 0
M  V30 13086 H 1189.45 -0.977436 -2.96926 0
M  V30 13087 H 1188.67 -3.31711 -2.12983 0
M  V30 13088 H 1189.96 -4.01078 -3.13072 0
M  V30 13089 H 1189.36 -1.75808 -5.37688 0
M  V30 13090 H 1187.92 -2.38744 -6.06502 0
M  V30 13091 N 1191.35 0.610423 -1.45298 0
M  V30 13092 C 1192.6 1.36558 -1.48441 0
M  V30 13093 C 1192.91 1.95173 -0.129137 0
M  V30 13094 O 1194.12 2.71473 -0.0381956 0
M  V30 13095 C 1192.57 2.47349 -2.61431 0
M  V30 13096 C 1192.18 1.95158 -4.03258 0
M  V30 13097 C 1193.92 3.24383 -2.73817 0
M  V30 13098 C 1191.83 3.03414 -5.07635 0
M  V30 13099 H 1190.76 0.513253 -0.552347 0
M  V30 13100 H 1193.41 0.654535 -1.7143 0
M  V30 13101 H 1191.79 3.21125 -2.31721 0
M  V30 13102 H 1192.97 1.2811 -4.42634 0
M  V30 13103 H 1191.28 1.30878 -3.95297 0
M  V30 13104 H 1193.88 4.05123 -3.48969 0
M  V30 13105 H 1194.22 3.75205 -1.80352 0
M  V30 13106 H 1194.76 2.57705 -3.03039 0
M  V30 13107 H 1191.5 2.57512 -6.028 0
M  V30 13108 H 1191.02 3.69039 -4.72833 0
M  V30 13109 H 1192.69 3.67844 -5.32259 0
M  V30 13110 N 1192.83 1.32541 0.852676 0
M  V30 13111 C 1193.76 1.24254 1.97694 0
M  V30 13112 C 1194.74 0.125971 1.69633 0
M  V30 13113 O 1195.92 0.31347 1.91653 0
M  V30 13114 C 1193.05 0.966874 3.3357 0
M  V30 13115 C 1192.01 2.0449 3.75989 0
M  V30 13116 C 1191.33 1.6216 5.09518 0
M  V30 13117 C 1192.63 3.46013 3.91244 0
M  V30 13118 H 1194.33 2.18317 2.04886 0
M  V30 13119 H 1191.87 1.05101 0.984371 0
M  V30 13120 H 1193.83 0.895444 4.11776 0
M  V30 13121 H 1192.55 -0.0093893 3.26599 0
M  V30 13122 H 1191.21 2.10651 3.00036 0
M  V30 13123 H 1190.86 0.632729 4.99005 0
M  V30 13124 H 1190.56 2.3429 5.38871 0
M  V30 13125 H 1192.08 1.56457 5.90215 0
M  V30 13126 H 1193.49 3.4243 4.59799 0
M  V30 13127 H 1191.89 4.1651 4.32017 0
M  V30 13128 H 1192.96 3.8553 2.941 0
M  V30 13129 N 1194.3 -1.0692 1.15784 0
M  V30 13130 C 1195.58 -1.76367 0.845825 0
M  V30 13131 C 1195.96 -2.00594 -0.657672 0
M  V30 13132 O 1195.31 -1.62794 -1.60345 0
M  V30 13133 C 1195.52 -3.06913 1.66149 0
M  V30 13134 C 1196.87 -3.81181 1.87046 0
M  V30 13135 O 1197.89 -3.16737 1.62961 0
M  V30 13136 O 1196.75 -4.96936 2.27413 0
M  V30 13137 H 1193.84 -0.766095 0.311493 0
M  V30 13138 H 1196.39 -1.13246 1.26386 0
M  V30 13139 H 1195.16 -2.84924 2.68205 0
M  V30 13140 H 1194.79 -3.77767 1.24007 0
M  V30 13141 N 1195.78 -0.955326 -1.25345 0
M  V30 13142 C 1196.73 -0.474888 -2.25862 0
M  V30 13143 C 1197.7 0.472996 -1.59223 0
M  V30 13144 O 1198.88 0.386094 -1.86853 0
M  V30 13145 C 1196.02 0.240554 -3.44261 0
M  V30 13146 C 1195.14 -0.74465 -4.25534 0
M  V30 13147 C 1194.27 -0.00657513 -5.312 0
M  V30 13148 C 1193.31 -0.982666 -6.04161 0
M  V30 13149 N 1192.45 -0.275418 -7.0156 0
M  V30 13150 H 1197.29 -1.33693 -2.66327 0
M  V30 13151 H 1194.83 -0.670439 -1.30933 0
M  V30 13152 H 1196.78 0.671933 -4.11753 0
M  V30 13153 H 1195.41 1.06664 -3.04668 0
M  V30 13154 H 1194.47 -1.29451 -3.57696 0
M  V30 13155 H 1195.78 -1.48948 -4.76042 0
M  V30 13156 H 1194.93 0.483404 -6.04771 0
M  V30 13157 H 1193.67 0.771035 -4.81567 0
M  V30 13158 H 1192.68 -1.48364 -5.29404 0
M  V30 13159 H 1193.9 -1.76052 -6.55883 0
M  V30 13160 H 1191.85 0.483441 -6.54216 0
M  V30 13161 H 1191.76 -0.959324 -7.49889 0
M  V30 13162 H 1193.03 0.193002 -7.79261 0
M  V30 13163 N 1197.26 1.39987 -0.723979 0
M  V30 13164 C 1198.19 2.2917 -0.0373445 0
M  V30 13165 C 1199.21 1.46258 0.715015 0
M  V30 13166 O 1200.4 1.69455 0.561003 0
M  V30 13167 C 1197.5 3.2468 0.971384 0
M  V30 13168 C 1196.67 4.36485 0.282826 0
M  V30 13169 C 1195.73 5.12379 1.19811 0
M  V30 13170 O 1194.75 5.65127 0.67974 0
M  V30 13171 N 1195.96 5.22531 2.52866 0
M  V30 13172 H 1198.72 2.88738 -0.803131 0
M  V30 13173 H 1196.28 1.51448 -0.572292 0
M  V30 13174 H 1198.27 3.72326 1.58606 0
M  V30 13175 H 1196.84 2.6622 1.63846 0
M  V30 13176 H 1196.06 3.90859 -0.512167 0
M  V30 13177 H 1197.35 5.08427 -0.194793 0
M  V30 13178 H 1196.75 4.81174 2.97469 0
M  V30 13179 H 1195.31 5.73655 3.09457 0
M  V30 13180 N 1198.74 0.470782 1.50404 0
M  V30 13181 C 1199.67 -0.359838 2.26358 0
M  V30 13182 C 1200.68 -0.95735 1.31676 0
M  V30 13183 O 1201.87 -0.84581 1.57189 0
M  V30 13184 C 1198.97 -1.51864 3.02969 0
M  V30 13185 C 1198.15 -1.03397 4.25003 0
M  V30 13186 C 1197.21 -2.06679 4.83911 0
M  V30 13187 O 1196.23 -1.64754 5.44835 0
M  V30 13188 N 1197.43 -3.39484 4.70883 0
M  V30 13189 H 1200.2 0.291299 2.98281 0
M  V30 13190 H 1197.76 0.301549 1.59067 0
M  V30 13191 H 1199.75 -2.2065 3.39258 0
M  V30 13192 H 1198.32 -2.07448 2.33846 0
M  V30 13193 H 1197.54 -0.172012 3.93825 0
M  V30 13194 H 1198.83 -0.68807 5.04126 0
M  V30 13195 H 1198.23 -3.76256 4.22431 0
M  V30 13196 H 1196.78 -4.04068 5.11441 0
M  V30 13197 N 1200.22 -1.56282 0.203376 0
M  V30 13198 C 1201.16 -2.19473 -0.714164 0
M  V30 13199 C 1202.13 -1.14454 -1.20372 0
M  V30 13200 O 1203.32 -1.42739 -1.26611 0
M  V30 13201 C 1200.46 -2.86451 -1.92457 0
M  V30 13202 C 1199.57 -4.06017 -1.47561 0
M  V30 13203 C 1198.71 -4.60829 -2.64216 0
M  V30 13204 C 1197.75 -5.72734 -2.15967 0
M  V30 13205 N 1196.88 -6.21916 -3.25829 0
M  V30 13206 H 1201.72 -2.97523 -0.168558 0
M  V30 13207 H 1199.26 -1.46926 -0.0714525 0
M  V30 13208 H 1201.22 -3.23459 -2.63496 0
M  V30 13209 H 1199.85 -2.10951 -2.44335 0
M  V30 13210 H 1198.9 -3.74617 -0.660784 0
M  V30 13211 H 1200.21 -4.8693 -1.08168 0
M  V30 13212 H 1199.37 -5.00185 -3.43366 0
M  V30 13213 H 1198.11 -3.7904 -3.06887 0
M  V30 13214 H 1197.11 -5.32899 -1.35273 0
M  V30 13215 H 1198.34 -6.56346 -1.74316 0
M  V30 13216 H 1196.28 -5.43047 -3.68016 0
M  V30 13217 H 1196.2 -6.97904 -2.90631 0
M  V30 13218 H 1197.47 -6.65927 -4.05168 0
M  V30 13219 N 1201.7 0.070167 -1.57444 0
M  V30 13220 C 1202.63 1.10996 -2.0053 0
M  V30 13221 C 1203.64 1.3489 -0.91151 0
M  V30 13222 O 1204.83 1.33102 -1.18938 0
M  V30 13223 C 1201.93 2.46053 -2.33048 0
M  V30 13224 C 1201.1 2.42092 -3.64294 0
M  V30 13225 C 1200.16 3.5927 -3.84463 0
M  V30 13226 O 1199.19 3.40625 -4.5603 0
M  V30 13227 N 1200.39 4.79677 -3.26941 0
M  V30 13228 H 1203.15 0.743029 -2.90343 0
M  V30 13229 H 1200.72 0.258794 -1.59818 0
M  V30 13230 H 1202.71 3.23089 -2.43712 0
M  V30 13231 H 1201.28 2.74742 -1.49116 0
M  V30 13232 H 1200.5 1.5043 -3.64368 0
M  V30 13233 H 1201.79 2.36548 -4.50469 0
M  V30 13234 H 1201.18 4.97729 -2.68855 0
M  V30 13235 H 1199.74 5.54219 -3.43051 0
M  V30 13236 N 1203.17 1.53854 0.341593 0
M  V30 13237 C 1204.11 1.76797 1.44284 0
M  V30 13238 C 1205.08 0.617157 1.50432 0
M  V30 13239 O 1206.27 0.85254 1.68119 0
M  V30 13240 C 1203.4 1.86837 2.82506 0
M  V30 13241 C 1202.44 3.09001 2.93974 0
M  V30 13242 S 1203.27 4.68012 2.60241 0
M  V30 13243 C 1204.43 4.80933 4.00567 0
M  V30 13244 H 1204.66 2.69927 1.24606 0
M  V30 13245 H 1202.2 1.44747 0.537375 0
M  V30 13246 H 1204.15 1.93306 3.62137 0
M  V30 13247 H 1202.82 0.947162 2.99479 0
M  V30 13248 H 1202.01 3.12707 3.9526 0
M  V30 13249 H 1201.61 3.00768 2.22294 0
M  V30 13250 H 1203.9 4.62462 4.95111 0
M  V30 13251 H 1204.85 5.83025 4.01855 0
M  V30 13252 H 1205.25 4.09372 3.88684 0
M  V30 13253 N 1204.65 -0.602709 1.4562 0
M  V30 13254 C 1205.9 -1.36359 1.50113 0
M  V30 13255 C 1206.23 -1.93663 0.144297 0
M  V30 13256 O 1205.51 -1.75337 -0.841851 0
M  V30 13257 C 1205.79 -2.50788 2.58413 0
M  V30 13258 C 1205.64 -1.98649 4.03557 0
M  V30 13259 C 1206.96 -3.52905 2.62957 0
M  V30 13260 H 1204.08 -0.494455 0.54652 0
M  V30 13261 H 1206.72 -0.678957 1.77455 0
M  V30 13262 H 1204.87 -3.09191 2.3523 0
M  V30 13263 H 1206.54 -1.44857 4.37966 0
M  V30 13264 H 1204.79 -1.29615 4.13984 0
M  V30 13265 H 1205.46 -2.81159 4.7503 0
M  V30 13266 H 1207.93 -3.0435 2.83743 0
M  V30 13267 H 1206.81 -4.30454 3.40589 0
M  V30 13268 H 1207.07 -4.0884 1.68233 0
M  V30 13269 N 1206.13 -1.32992 -0.845635 0
M  V30 13270 C 1207.04 -1.24701 -1.98713 0
M  V30 13271 C 1208.06 -0.158864 -1.73273 0
M  V30 13272 O 1209.23 -0.381209 -1.97759 0
M  V30 13273 C 1206.3 -0.979524 -3.32575 0
M  V30 13274 C 1205.36 -2.15701 -3.71176 0
M  V30 13275 C 1204.59 -1.90219 -4.98651 0
M  V30 13276 O 1204.81 -0.849171 -5.64044 0
M  V30 13277 O 1203.75 -2.76571 -5.34595 0
M  V30 13278 H 1207.57 -2.20683 -2.08645 0
M  V30 13279 H 1205.16 -1.12971 -0.97765 0
M  V30 13280 H 1207.04 -0.847219 -4.12796 0
M  V30 13281 H 1205.72 -0.0499398 -3.23661 0
M  V30 13282 H 1204.62 -2.34483 -2.91494 0
M  V30 13283 H 1205.96 -3.0697 -3.84747 0
M  V30 13284 N 1207.61 1.06304 -1.1635 0
M  V30 13285 C 1208.88 1.75916 -0.855166 0
M  V30 13286 C 1209.26 2.0094 0.647024 0
M  V30 13287 O 1208.61 1.63642 1.59479 0
M  V30 13288 C 1208.82 3.06028 -1.67774 0
M  V30 13289 C 1210.17 3.80184 -1.89065 0
M  V30 13290 O 1211.19 3.15868 -1.64639 0
M  V30 13291 O 1210.05 4.95723 -2.30045 0
M  V30 13292 H 1207.15 0.764432 -0.315551 0
M  V30 13293 H 1209.69 1.12574 -1.26985 0
M  V30 13294 H 1208.47 2.83498 -2.69712 0
M  V30 13295 H 1208.09 3.77104 -1.26009 0
M  V30 13296 N 1209.09 0.96196 1.24836 0
M  V30 13297 C 1210.32 0.637214 1.96528 0
M  V30 13298 C 1210.72 -0.79638 1.71623 0
M  V30 13299 O 1210.07 -1.54524 0.993372 0
M  V30 13300 C 1210.13 0.824972 3.49906 0
M  V30 13301 C 1209.79 2.23711 3.985 0
M  V30 13302 C 1210.79 3.21439 4.08623 0
M  V30 13303 C 1208.47 2.56327 4.31974 0
M  V30 13304 C 1210.47 4.49872 4.51546 0
M  V30 13305 C 1208.16 3.84987 4.74582 0
M  V30 13306 C 1209.15 4.81572 4.84332 0
M  V30 13307 O 1208.84 6.07938 5.25991 0
M  V30 13308 H 1208.57 0.237214 0.633013 0
M  V30 13309 H 1211.13 1.29081 1.59773 0
M  V30 13310 H 1209.36 0.114219 3.86531 0
M  V30 13311 H 1211.05 0.500179 4.02806 0
M  V30 13312 H 1211.81 2.97569 3.82985 0
M  V30 13313 H 1207.69 1.81872 4.23608 0
M  V30 13314 H 1211.24 5.25261 4.59071 0
M  V30 13315 H 1207.13 4.08661 4.99666 0
M  V30 13316 H 1207.9 6.11421 5.44157 0
M  V30 13317 N 1210.56 -1.39601 0.731392 0
M  V30 13318 C 1211.5 -2.29147 0.0494974 0
M  V30 13319 C 1212.51 -1.46635 -0.707248 0
M  V30 13320 O 1213.7 -1.6975 -0.552008 0
M  V30 13321 C 1210.8 -3.25191 -0.954152 0
M  V30 13322 C 1209.97 -4.36629 -0.259674 0
M  V30 13323 C 1209.03 -5.13007 -1.17092 0
M  V30 13324 O 1208.06 -5.65479 -0.64976 0
M  V30 13325 N 1209.26 -5.23865 -2.50092 0
M  V30 13326 H 1212.02 -2.88308 0.818433 0
M  V30 13327 H 1209.58 -1.51142 0.580316 0
M  V30 13328 H 1211.58 -3.73161 -1.56629 0
M  V30 13329 H 1210.15 -2.67085 -1.62432 0
M  V30 13330 H 1209.37 -3.90582 0.532888 0
M  V30 13331 H 1210.65 -5.08317 0.221753 0
M  V30 13332 H 1210.05 -4.82745 -2.94913 0
M  V30 13333 H 1208.61 -5.75288 -3.0641 0
M  V30 13334 N 1212.04 -0.478751 -1.50152 0
M  V30 13335 C 1213.29 0.0657809 -2.03294 0
M  V30 13336 C 1213.64 1.36719 -1.35373 0
M  V30 13337 O 1212.94 1.8567 -0.473005 0
M  V30 13338 C 1213.13 0.297535 -3.56159 0
M  V30 13339 C 1212.96 -0.979859 -4.38895 0
M  V30 13340 C 1211.73 -1.52535 -4.81727 0
M  V30 13341 C 1213.93 -1.8773 -4.78813 0
M  V30 13342 N 1211.91 -2.75097 -5.48812 0
M  V30 13343 C 1213.28 -2.94876 -5.45388 0
M  V30 13344 C 1215.34 -1.88676 -4.60767 0
M  V30 13345 C 1214.04 -4.02968 -5.95827 0
M  V30 13346 C 1216.06 -2.95728 -5.12151 0
M  V30 13347 C 1215.43 -4.01594 -5.78707 0
M  V30 13348 H 1211.53 -0.0161501 -0.781833 0
M  V30 13349 H 1214.11 -0.648664 -1.83577 0
M  V30 13350 H 1212.28 0.981023 -3.75806 0
M  V30 13351 H 1214.01 0.837091 -3.95948 0
M  V30 13352 H 1210.77 -1.07349 -4.61273 0
M  V30 13353 H 1211.19 -3.37359 -5.86956 0
M  V30 13354 H 1215.83 -1.08143 -4.08736 0
M  V30 13355 H 1213.55 -4.84312 -6.46891 0
M  V30 13356 H 1217.14 -2.97453 -5.00013 0
M  V30 13357 H 1216.02 -4.83067 -6.17751 0
M  V30 13358 N 1213.52 1.56172 -0.211661 0
M  V30 13359 C 1214.45 2.22843 0.697375 0
M  V30 13360 C 1215.43 1.19689 1.20866 0
M  V30 13361 O 1216.62 1.48245 1.25447 0
M  V30 13362 C 1213.75 2.90067 1.90993 0
M  V30 13363 C 1212.7 3.99608 1.5329 0
M  V30 13364 C 1212.03 4.54078 2.82343 0
M  V30 13365 C 1213.33 5.17169 0.730333 0
M  V30 13366 H 1215.02 2.99065 0.141533 0
M  V30 13367 H 1212.57 1.43846 0.0666337 0
M  V30 13368 H 1214.52 3.35396 2.55123 0
M  V30 13369 H 1213.24 2.11276 2.49058 0
M  V30 13370 H 1211.9 3.54995 0.915115 0
M  V30 13371 H 1211.55 3.72029 3.38531 0
M  V30 13372 H 1211.25 5.28001 2.57853 0
M  V30 13373 H 1212.77 5.02119 3.47432 0
M  V30 13374 H 1214.19 5.5894 1.2751 0
M  V30 13375 H 1212.59 5.97262 0.582916 0
M  V30 13376 H 1213.66 4.84174 -0.265157 0
M  V30 13377 N 1215 -0.0618163 1.57479 0
M  V30 13378 C 1216.41 -0.416827 1.54061 0
M  V30 13379 C 1216.61 -1.78584 0.933277 0
M  V30 13380 O 1215.67 -2.46656 0.54009 0
M  V30 13381 C 1216.98 -0.348728 2.98671 0
M  V30 13382 C 1218.53 -0.428194 3.10057 0
M  V30 13383 C 1219.01 -0.389898 4.56337 0
M  V30 13384 N 1220.5 -0.449677 4.61012 0
M  V30 13385 C 1221.23 -0.442418 5.71691 0
M  V30 13386 N 1220.73 -0.389381 6.91705 0
M  V30 13387 N 1222.52 -0.489719 5.59963 0
M  V30 13388 H 1214.67 0.834487 1.9532 0
M  V30 13389 H 1216.94 0.314149 0.894435 0
M  V30 13390 H 1216.64 0.590738 3.46703 0
M  V30 13391 H 1216.52 -1.15511 3.59078 0
M  V30 13392 H 1218.9 -1.35808 2.61992 0
M  V30 13393 H 1218.98 0.406946 2.52542 0
M  V30 13394 H 1218.63 0.536186 5.05062 0
M  V30 13395 H 1218.56 -1.24271 5.11727 0
M  V30 13396 H 1221.05 -0.49451 3.74651 0
M  V30 13397 H 1221.36 -0.388042 7.71825 0
M  V30 13398 H 1219.71 -0.355918 6.94088 0
M  V30 13399 H 1222.9 -0.528915 4.65102 0
M  V30 13400 H 1223.07 -0.480592 6.46215 0
M  V30 13401 N 1216.48 -1.54033 -0.333429 0
M  V30 13402 C 1217.41 -1.79056 -1.43079 0
M  V30 13403 C 1218.42 -0.672176 -1.48276 0
M  V30 13404 O 1219.61 -0.949103 -1.51176 0
M  V30 13405 C 1216.71 -1.88443 -2.81678 0
M  V30 13406 C 1215.88 -3.18493 -2.99802 0
M  V30 13407 C 1214.94 -3.18708 -4.18702 0
M  V30 13408 O 1213.97 -3.92389 -4.12334 0
M  V30 13409 N 1215.17 -2.41792 -5.27747 0
M  V30 13410 H 1217.94 -2.73753 -1.21981 0
M  V30 13411 H 1215.5 -1.53207 -0.523365 0
M  V30 13412 H 1217.49 -1.86027 -3.59411 0
M  V30 13413 H 1216.06 -1.00887 -2.95872 0
M  V30 13414 H 1215.28 -3.33951 -2.09453 0
M  V30 13415 H 1216.57 -4.04376 -3.088 0
M  V30 13416 H 1215.96 -1.81501 -5.35793 0
M  V30 13417 H 1214.52 -2.45163 -6.03936 0
M  V30 13418 N 1217.95 0.594978 -1.45938 0
M  V30 13419 C 1218.86 1.73296 -1.58132 0
M  V30 13420 C 1219.88 1.67665 -0.465245 0
M  V30 13421 O 1221.06 1.87794 -0.727684 0
M  V30 13422 C 1218.12 3.09783 -1.55677 0
M  V30 13423 C 1217.18 3.26772 -2.78422 0
M  V30 13424 C 1216.42 4.56748 -2.76075 0
M  V30 13425 O 1216.64 5.39867 -1.84119 0
M  V30 13426 O 1215.57 4.76721 -3.67452 0
M  V30 13427 H 1219.4 1.65957 -2.54346 0
M  V30 13428 H 1216.98 0.760572 -1.28591 0
M  V30 13429 H 1218.87 3.91077 -1.56961 0
M  V30 13430 H 1217.54 3.17585 -0.626191 0
M  V30 13431 H 1216.45 2.45018 -2.82696 0
M  V30 13432 H 1217.78 3.23853 -3.70648 0
M  V30 13433 N 1219.43 1.33438 0.838571 0
M  V30 13434 C 1220.34 1.25753 1.98049 0
M  V30 13435 C 1221.36 0.168051 1.73187 0
M  V30 13436 O 1222.53 0.391691 1.97554 0
M  V30 13437 C 1219.6 0.997148 3.32051 0
M  V30 13438 C 1218.66 2.17667 3.70027 0
M  V30 13439 C 1217.89 1.92861 4.97635 0
M  V30 13440 O 1218.12 0.879072 5.63585 0
M  V30 13441 O 1217.05 2.79402 5.33121 0
M  V30 13442 H 1220.88 2.21786 2.07472 0
M  V30 13443 H 1218.46 1.13488 0.971645 0
M  V30 13444 H 1220.34 0.869099 4.1234 0
M  V30 13445 H 1219.02 0.0671036 3.2363 0
M  V30 13446 H 1217.93 2.36025 2.90246 0
M  V30 13447 H 1219.26 3.09006 3.83114 0
M  V30 13448 N 1220.91 -1.05686 1.16912 0
M  V30 13449 C 1221.86 -2.13312 0.88129 0
M  V30 13450 C 1222.83 -1.65199 -0.172783 0
M  V30 13451 O 1224.01 -1.90765 -0.0366542 0
M  V30 13452 C 1221.15 -3.42829 0.395264 0
M  V30 13453 C 1220.27 -4.04643 1.51288 0
M  V30 13454 C 1219.4 -5.22059 0.981238 0
M  V30 13455 C 1218.44 -5.75869 2.07464 0
M  V30 13456 N 1217.58 -6.84592 1.55813 0
M  V30 13457 H 1222.42 -2.37271 1.80295 0
M  V30 13458 H 1219.95 -1.16407 0.899322 0
M  V30 13459 H 1221.91 -4.17092 0.0950633 0
M  V30 13460 H 1220.54 -3.19068 -0.489445 0
M  V30 13461 H 1219.59 -3.27867 1.92891 0
M  V30 13462 H 1220.91 -4.40626 2.33774 0
M  V30 13463 H 1220.06 -6.03372 0.634586 0
M  V30 13464 H 1218.8 -4.87538 0.125754 0
M  V30 13465 H 1217.8 -4.93188 2.42992 0
M  V30 13466 H 1219.03 -6.12439 2.93419 0
M  V30 13467 H 1216.97 -6.51978 0.725283 0
M  V30 13468 H 1216.89 -7.19551 2.31911 0
M  V30 13469 H 1218.16 -7.6957 1.24025 0
M  V30 13470 N 1222.39 -0.968567 -1.24324 0
M  V30 13471 C 1223.61 -0.648166 -1.97012 0
M  V30 13472 C 1224.04 0.775842 -1.71354 0
M  V30 13473 O 1223.4 1.52672 -0.977804 0
M  V30 13474 C 1223.44 -0.929974 -3.48402 0
M  V30 13475 O 1222.55 -0.015854 -4.12397 0
M  V30 13476 H 1221.89 -0.244961 -0.617163 0
M  V30 13477 H 1224.42 -1.29895 -1.58077 0
M  V30 13478 H 1224.43 -0.861863 -3.98793 0
M  V30 13479 H 1223.1 -1.96776 -3.66404 0
M  V30 13480 H 1221.68 -0.137361 -3.72647 0
M  V30 13481 N 1223.87 1.39211 -0.738786 0
M  V30 13482 C 1224.8 2.33209 -0.11647 0
M  V30 13483 C 1225.78 1.54108 0.720056 0
M  V30 13484 O 1226.96 1.82486 0.664264 0
M  V30 13485 C 1224.09 3.38226 0.78872 0
M  V30 13486 C 1223.05 4.27963 0.0560636 0
M  V30 13487 C 1222.37 5.2371 1.07852 0
M  V30 13488 C 1223.67 5.10508 -1.1036 0
M  V30 13489 H 1225.37 2.85501 -0.901649 0
M  V30 13490 H 1222.91 1.37272 -0.435032 0
M  V30 13491 H 1224.87 4.02938 1.23364 0
M  V30 13492 H 1223.59 2.84382 1.60606 0
M  V30 13493 H 1222.25 3.64735 -0.369274 0
M  V30 13494 H 1221.9 4.66161 1.88953 0
M  V30 13495 H 1221.6 5.846 0.593048 0
M  V30 13496 H 1223.12 5.91299 1.52307 0
M  V30 13497 H 1224.53 5.68544 -0.736943 0
M  V30 13498 H 1222.93 5.80558 -1.51895 0
M  V30 13499 H 1224 4.45117 -1.92352 0
M  V30 13500 N 1225.34 0.486708 1.49896 0
M  V30 13501 C 1226.62 -0.125183 1.95199 0
M  V30 13502 C 1227 -1.55498 1.42771 0
M  V30 13503 O 1226.35 -2.1949 0.635322 0
M  V30 13504 C 1226.56 -0.0524982 3.48961 0
M  V30 13505 C 1227.91 -0.233595 4.23957 0
M  V30 13506 O 1228.93 -0.128357 3.55969 0
M  V30 13507 O 1227.79 -0.447862 5.44662 0
M  V30 13508 H 1224.88 -0.103141 0.820543 0
M  V30 13509 H 1227.43 0.548226 1.60601 0
M  V30 13510 H 1226.2 0.945163 3.79714 0
M  V30 13511 H 1225.83 -0.766683 3.90138 0
M  V30 13512 N 1226.82 -1.56058 0.219941 0
M  V30 13513 C 1228.23 -1.84462 -0.288203 0
M  V30 13514 C 1228.59 -1.14128 -1.59591 0
M  V30 13515 O 1227.71 -0.410411 -2.12473 0
M  V30 13516 C 1228.31 -3.34634 -0.529689 0
M  V30 13517 C 1226.86 -3.63361 -0.982145 0
M  V30 13518 C 1226.01 -2.77265 -0.0443292 0
M  V30 13519 H 1228.96 -1.52387 0.44317 0
M  V30 13520 H 1228.98 -3.54752 -1.3759 0
M  V30 13521 H 1228.5 -3.85796 0.422243 0
M  V30 13522 H 1226.6 -3.17653 -1.94749 0
M  V30 13523 H 1226.71 -4.71361 -0.857668 0
M  V30 13524 H 1225.07 -2.48672 -0.550825 0
M  V30 13525 H 1225.86 -3.31225 0.902491 0
M  V30 13526 N 1228.3 0.053464 -1.57509 0
M  V30 13527 C 1229.23 1.09391 -2.00272 0
M  V30 13528 C 1230.21 1.36553 -0.882727 0
M  V30 13529 O 1231.4 1.4962 -1.14657 0
M  V30 13530 C 1228.52 2.43424 -2.35505 0
M  V30 13531 C 1227.57 2.32278 -3.577 0
M  V30 13532 S 1228.4 1.69939 -5.0782 0
M  V30 13533 C 1229.56 3.05512 -5.46272 0
M  V30 13534 H 1229.79 0.729569 -2.88209 0
M  V30 13535 H 1227.32 0.262633 -1.5215 0
M  V30 13536 H 1229.28 3.20515 -2.56477 0
M  V30 13537 H 1227.94 2.77013 -1.48064 0
M  V30 13538 H 1227.14 3.31165 -3.79928 0
M  V30 13539 H 1226.74 1.63327 -3.36453 0
M  V30 13540 H 1229.03 4.0184 -5.45464 0
M  V30 13541 H 1229.97 2.88043 -6.46867 0
M  V30 13542 H 1230.38 3.06962 -4.73745 0
M  V30 13543 N 1229.78 1.54207 0.325255 0
M  V30 13544 C 1231.03 1.72587 1.06497 0
M  V30 13545 C 1231.36 0.497228 1.87727 0
M  V30 13546 O 1230.63 -0.505804 1.87808 0
M  V30 13547 C 1230.92 3.00046 1.99109 0
M  V30 13548 C 1230.77 4.33158 1.21221 0
M  V30 13549 C 1232.09 3.23251 2.98658 0
M  V30 13550 H 1229.21 0.627974 0.38577 0
M  V30 13551 H 1231.85 1.869 0.34179 0
M  V30 13552 H 1230 2.87973 2.60775 0
M  V30 13553 H 1231.67 4.57111 0.620289 0
M  V30 13554 H 1229.91 4.30739 0.514462 0
M  V30 13555 H 1230.59 5.18558 1.89214 0
M  V30 13556 H 1233.06 3.34774 2.47114 0
M  V30 13557 H 1231.94 4.13796 3.60645 0
M  V30 13558 H 1232.2 2.40401 3.71026 0
M  V30 13559 N 1231.26 -0.58723 1.46251 0
M  V30 13560 C 1232.49 -1.36976 1.54665 0
M  V30 13561 C 1232.9 -1.88293 0.185079 0
M  V30 13562 O 1232.24 -1.64028 -0.82707 0
M  V30 13563 C 1232.3 -2.59591 2.48702 0
M  V30 13564 C 1231.96 -2.29773 3.95036 0
M  V30 13565 C 1232.96 -1.88885 4.84374 0
M  V30 13566 C 1230.65 -2.42057 4.40129 0
M  V30 13567 C 1232.64 -1.60669 6.16818 0
M  V30 13568 C 1230.33 -2.13454 5.72609 0
M  V30 13569 C 1231.33 -1.72824 6.60773 0
M  V30 13570 O 1231.01 -1.44569 7.90794 0
M  V30 13571 H 1230.75 -0.424968 0.525717 0
M  V30 13572 H 1233.3 -0.721298 1.92319 0
M  V30 13573 H 1231.53 -3.27226 2.06058 0
M  V30 13574 H 1233.22 -3.21656 2.47573 0
M  V30 13575 H 1233.98 -1.78913 4.50794 0
M  V30 13576 H 1229.86 -2.72644 3.71734 0
M  V30 13577 H 1233.41 -1.28882 6.85591 0
M  V30 13578 H 1229.3 -2.23048 6.05739 0
M  V30 13579 H 1230.07 -1.58452 8.03016 0
M  V30 13580 N 1232.74 -1.33881 -0.831482 0
M  V30 13581 C 1233.67 -1.19089 -1.94661 0
M  V30 13582 C 1234.65 -0.0845706 -1.6238 0
M  V30 13583 O 1235.83 -0.248163 -1.86859 0
M  V30 13584 C 1232.96 -0.828223 -3.28418 0
M  V30 13585 C 1232 -1.94309 -3.79666 0
M  V30 13586 S 1232.84 -3.55524 -4.00454 0
M  V30 13587 C 1233.99 -3.21279 -5.3715 0
M  V30 13588 H 1234.23 -2.13484 -2.0691 0
M  V30 13589 H 1231.76 -1.18809 -0.986098 0
M  V30 13590 H 1233.72 -0.625759 -4.05702 0
M  V30 13591 H 1232.38 0.0972457 -3.13949 0
M  V30 13592 H 1231.57 -1.64288 -4.76472 0
M  V30 13593 H 1231.17 -2.1026 -3.093 0
M  V30 13594 H 1233.46 -2.72563 -6.20255 0
M  V30 13595 H 1234.41 -4.17193 -5.7215 0
M  V30 13596 H 1234.82 -2.57683 -5.02255 0
M  V30 13597 N 1234.21 1.05064 -1.1747 0
M  V30 13598 C 1235.16 2.14948 -0.888815 0
M  V30 13599 C 1236.16 1.68761 0.147038 0
M  V30 13600 O 1237.36 1.8 -0.000164278 0
M  V30 13601 H 1233.74 0.701898 -0.269894 0
M  V30 13602 H 1235.71 2.36265 -1.82268 0
M  V30 13603 C 1234.46 3.45154 -0.420006 0
M  V30 13604 H 1233.78 3.81096 -1.20854 0
M  V30 13605 H 1235.22 4.23209 -0.258866 0
M  V30 13606 C 1233.68 3.25671 0.862551 0
M  V30 13607 O 1234.21 3.5235 1.92906 0
M  V30 13608 N 1232.41 2.79048 0.81121 0
M  V30 13609 H 1231.96 2.57537 -0.0569025 0
M  V30 13610 H 1231.92 2.66392 1.66981 0
M  V30 13611 N 1235.69 0.975146 1.23809 0
M  V30 13612 C 1236.97 0.557725 1.8748 0
M  V30 13613 C 1237.35 -0.965164 1.87744 0
M  V30 13614 O 1236.7 -1.83966 1.35531 0
M  V30 13615 C 1236.91 1.15777 3.29236 0
M  V30 13616 C 1238.25 1.24726 4.05868 0
M  V30 13617 O 1239.28 1.11084 3.38436 0
M  V30 13618 O 1238.14 1.46373 5.26533 0
M  V30 13619 H 1235.23 0.187045 0.80557 0
M  V30 13620 H 1237.78 1.06989 1.31725 0
M  V30 13621 H 1236.55 2.20023 3.23583 0
M  V30 13622 H 1236.17 0.630103 3.92575 0
M  V30 13623 N 1237.17 -1.38817 0.746158 0
M  V30 13624 C 1238.12 -2.30521 0.113517 0
M  V30 13625 C 1239.09 -1.49795 -0.717682 0
M  V30 13626 O 1240.27 -1.78448 -0.675345 0
M  V30 13627 C 1237.41 -3.36185 -0.779343 0
M  V30 13628 C 1236.52 -4.3195 0.0656784 0
M  V30 13629 C 1235.66 -5.24684 -0.829492 0
M  V30 13630 C 1234.7 -6.12097 0.0196112 0
M  V30 13631 N 1233.84 -6.97152 -0.832107 0
M  V30 13632 H 1238.68 -2.84048 0.901136 0
M  V30 13633 H 1236.21 -1.39853 0.456025 0
M  V30 13634 H 1238.17 -3.96048 -1.31156 0
M  V30 13635 H 1236.8 -2.84085 -1.53282 0
M  V30 13636 H 1235.85 -3.73611 0.715445 0
M  V30 13637 H 1237.16 -4.93551 0.721735 0
M  V30 13638 H 1236.32 -5.89627 -1.42915 0
M  V30 13639 H 1235.06 -4.63431 -1.5193 0
M  V30 13640 H 1234.06 -5.46156 0.631991 0
M  V30 13641 H 1235.29 -6.75416 0.706369 0
M  V30 13642 H 1233.23 -6.38456 -1.507 0
M  V30 13643 H 1233.15 -7.55642 -0.232782 0
M  V30 13644 H 1234.42 -7.66513 -1.41697 0
M  V30 13645 N 1238.65 -0.49465 -1.49636 0
M  V30 13646 C 1239.87 0.051305 -2.07337 0
M  V30 13647 C 1240.3 1.30637 -1.35335 0
M  V30 13648 O 1239.66 1.76647 -0.408126 0
M  V30 13649 C 1239.7 0.294425 -3.59396 0
M  V30 13650 O 1238.81 1.3704 -3.88965 0
M  V30 13651 H 1238.15 -0.023408 -0.663587 0
M  V30 13652 H 1240.68 -0.692451 -1.92526 0
M  V30 13653 H 1240.69 0.527854 -4.04571 0
M  V30 13654 H 1239.36 -0.622583 -4.11214 0
M  V30 13655 H 1237.94 1.12242 -3.55607 0
M  V30 13656 N 1240.13 1.55939 -0.228214 0
M  V30 13657 C 1241.54 1.84612 0.278417 0
M  V30 13658 C 1241.89 1.14973 1.58983 0
M  V30 13659 O 1241.01 0.421673 2.12252 0
M  V30 13660 C 1241.61 3.3491 0.511935 0
M  V30 13661 C 1240.17 3.63876 0.962861 0
M  V30 13662 C 1239.31 2.77284 0.0296246 0
M  V30 13663 H 1242.26 1.52149 -0.451245 0
M  V30 13664 H 1242.29 3.55477 1.35707 0
M  V30 13665 H 1241.8 3.85567 -0.442697 0
M  V30 13666 H 1239.9 3.18682 1.93062 0
M  V30 13667 H 1240.01 4.71809 0.832659 0
M  V30 13668 H 1238.38 2.48961 0.53763 0
M  V30 13669 H 1239.16 3.30742 -0.920044 0
M  V30 13670 N 1241.6 -0.0451101 1.57535 0
M  V30 13671 C 1242.53 -1.05046 2.08537 0
M  V30 13672 C 1243.52 -1.3872 0.984418 0
M  V30 13673 O 1244.7 -1.47884 1.25873 0
M  V30 13674 C 1241.83 -2.3562 2.55148 0
M  V30 13675 C 1240.78 -2.16231 3.69362 0
M  V30 13676 C 1240.11 -3.52423 4.02122 0
M  V30 13677 C 1241.41 -1.56159 4.98409 0
M  V30 13678 H 1243.1 -0.625965 2.92783 0
M  V30 13679 H 1240.65 -0.299657 1.40848 0
M  V30 13680 H 1242.6 -3.06266 2.89446 0
M  V30 13681 H 1241.33 -2.80099 1.67964 0
M  V30 13682 H 1239.99 -1.4802 3.35389 0
M  V30 13683 H 1239.63 -3.94522 3.12028 0
M  V30 13684 H 1239.33 -3.4028 4.79044 0
M  V30 13685 H 1240.86 -4.24458 4.38939 0
M  V30 13686 H 1242.27 -2.16703 5.30766 0
M  V30 13687 H 1240.67 -1.54638 5.79834 0
M  V30 13688 H 1241.74 -0.525698 4.82042 0
M  V30 13689 N 1243.08 -1.54377 -0.317073 0
M  V30 13690 C 1244.31 -1.76865 -1.07362 0
M  V30 13691 C 1244.73 -0.520354 -1.81488 0
M  V30 13692 O 1244.08 0.509213 -1.75252 0
M  V30 13693 C 1244.13 -2.96598 -2.06668 0
M  V30 13694 O 1243.85 -4.16602 -1.35552 0
M  V30 13695 C 1245.36 -3.31348 -2.94489 0
M  V30 13696 H 1242.58 -0.590277 -0.319083 0
M  V30 13697 H 1245.12 -2.01284 -0.361227 0
M  V30 13698 H 1243.27 -2.74433 -2.73432 0
M  V30 13699 H 1243.69 -4.83996 -2.02108 0
M  V30 13700 H 1245.16 -4.1841 -3.60051 0
M  V30 13701 H 1245.64 -2.48797 -3.61935 0
M  V30 13702 H 1246.25 -3.55614 -2.33278 0
M  V30 13703 N 1244.56 0.579466 -1.4656 0
M  V30 13704 C 1245.97 1.1616 -1.46164 0
M  V30 13705 C 1246.32 1.95134 -0.20423 0
M  V30 13706 O 1245.45 2.05022 0.692457 0
M  V30 13707 C 1246.04 2.11322 -2.64818 0
M  V30 13708 C 1244.6 2.64852 -2.67452 0
M  V30 13709 C 1243.75 1.40786 -2.38903 0
M  V30 13710 H 1246.7 0.367229 -1.54393 0
M  V30 13711 H 1246.72 2.94839 -2.4052 0
M  V30 13712 H 1246.23 1.53815 -3.56318 0
M  V30 13713 H 1244.33 3.26219 -1.80032 0
M  V30 13714 H 1244.45 3.07366 -3.67509 0
M  V30 13715 H 1242.81 1.70707 -1.89027 0
M  V30 13716 H 1243.59 0.851049 -3.32584 0
M  V30 13717 N 1246.04 1.3432 0.824371 0
M  V30 13718 C 1246.95 1.27847 1.96704 0
M  V30 13719 C 1247.96 0.18641 1.72999 0
M  V30 13720 O 1249.14 0.412623 1.97128 0
M  V30 13721 C 1246.21 1.03231 3.30975 0
M  V30 13722 C 1245.27 2.21579 3.67697 0
M  V30 13723 C 1244.5 1.98128 4.95561 0
M  V30 13724 O 1244.72 0.938798 5.62621 0
M  V30 13725 O 1243.66 2.85041 5.30128 0
M  V30 13726 H 1247.48 2.23974 2.05108 0
M  V30 13727 H 1245.07 1.14512 0.959554 0
M  V30 13728 H 1246.95 0.912784 4.11395 0
M  V30 13729 H 1245.62 0.101425 3.23541 0
M  V30 13730 H 1244.53 2.3909 2.87727 0
M  V30 13731 H 1245.86 3.13052 3.79815 0
M  V30 13732 N 1247.52 -1.0444 1.18026 0
M  V30 13733 C 1248.46 -2.12365 0.903865 0
M  V30 13734 C 1249.43 -1.65373 -0.155252 0
M  V30 13735 O 1250.62 -1.90793 -0.016419 0
M  V30 13736 C 1247.76 -3.4239 0.431603 0
M  V30 13737 C 1246.87 -4.03016 1.55571 0
M  V30 13738 C 1246.01 -5.20988 1.03655 0
M  V30 13739 C 1245.05 -5.73636 2.1356 0
M  V30 13740 N 1244.18 -6.82901 1.63066 0
M  V30 13741 H 1249.02 -2.35346 1.82802 0
M  V30 13742 H 1246.56 -1.15447 0.911618 0
M  V30 13743 H 1248.52 -4.16967 0.139296 0
M  V30 13744 H 1247.15 -3.19569 -0.455576 0
M  V30 13745 H 1246.2 -3.25803 1.96358 0
M  V30 13746 H 1247.51 -4.38122 2.38434 0
M  V30 13747 H 1246.67 -6.02665 0.698546 0
M  V30 13748 H 1245.4 -4.87377 0.177457 0
M  V30 13749 H 1244.41 -4.90583 2.4821 0
M  V30 13750 H 1245.63 -6.09293 2.99899 0
M  V30 13751 H 1243.58 -6.51172 0.794394 0
M  V30 13752 H 1243.5 -7.1705 2.3953 0
M  V30 13753 H 1244.77 -7.68211 1.32181 0
M  V30 13754 N 1248.99 -0.981699 -1.2329 0
M  V30 13755 C 1249.9 -0.531296 -2.28505 0
M  V30 13756 C 1250.92 0.414531 -1.6899 0
M  V30 13757 O 1252.1 0.284129 -1.99386 0
M  V30 13758 C 1249.16 0.157864 -3.4634 0
M  V30 13759 C 1248.22 -0.829527 -4.21209 0
M  V30 13760 C 1247.46 -0.17316 -5.33419 0
M  V30 13761 O 1247.68 1.03549 -5.60922 0
M  V30 13762 O 1246.61 -0.872385 -5.95544 0
M  V30 13763 H 1250.44 -1.40633 -2.69177 0
M  V30 13764 H 1248.02 -0.749395 -1.29246 0
M  V30 13765 H 1249.91 0.544394 -4.17869 0
M  V30 13766 H 1248.58 1.00764 -3.07617 0
M  V30 13767 H 1247.49 -1.26678 -3.51999 0
M  V30 13768 H 1248.82 -1.64815 -4.63785 0
M  V30 13769 N 1250.47 1.3842 -0.753509 0
M  V30 13770 C 1251.72 2.00415 -0.310091 0
M  V30 13771 C 1252.05 1.59675 1.10532 0
M  V30 13772 O 1251.33 0.834261 1.757 0
M  V30 13773 C 1251.61 3.57488 -0.432897 0
M  V30 13774 C 1251.46 4.08193 -1.88941 0
M  V30 13775 C 1252.78 4.39757 0.173763 0
M  V30 13776 H 1249.9 0.728107 -0.114147 0
M  V30 13777 H 1252.54 1.64363 -0.953138 0
M  V30 13778 H 1250.69 3.88331 0.114563 0
M  V30 13779 H 1252.36 3.87993 -2.49517 0
M  V30 13780 H 1250.61 3.61063 -2.4045 0
M  V30 13781 H 1251.28 5.17291 -1.9265 0
M  V30 13782 H 1253.75 4.15066 -0.293137 0
M  V30 13783 H 1252.63 5.4887 0.057594 0
M  V30 13784 H 1252.89 4.23704 1.26205 0
M  V30 13785 N 1251.95 0.502579 1.49372 0
M  V30 13786 C 1253.2 -0.0412993 2.02058 0
M  V30 13787 C 1253.52 -1.37338 1.38431 0
M  V30 13788 O 1252.79 -1.88305 0.540175 0
M  V30 13789 H 1251.37 -0.0182522 0.746777 0
M  V30 13790 H 1254.03 0.660179 1.83378 0
M  V30 13791 H 1253.13 -0.169812 3.11638 0
M  V30 13792 N 1253.43 -1.55816 0.23648 0
M  V30 13793 C 1254.66 -2.02789 -0.39501 0
M  V30 13794 C 1255.07 -1.1153 -1.52832 0
M  V30 13795 O 1254.41 -0.120084 -1.83307 0
M  V30 13796 C 1254.47 -3.46052 -0.974066 0
M  V30 13797 C 1254.14 -4.56993 0.0256825 0
M  V30 13798 C 1255.13 -5.13208 0.831477 0
M  V30 13799 C 1252.82 -5.0208 0.148759 0
M  V30 13800 C 1254.81 -6.12994 1.74691 0
M  V30 13801 C 1252.5 -6.017 1.0677 0
M  V30 13802 C 1253.5 -6.57035 1.86531 0
M  V30 13803 O 1253.18 -7.54714 2.76878 0
M  V30 13804 H 1252.92 -0.668672 -0.0992687 0
M  V30 13805 H 1255.47 -2.02312 0.354826 0
M  V30 13806 H 1253.7 -3.43645 -1.77327 0
M  V30 13807 H 1255.39 -3.76586 -1.51453 0
M  V30 13808 H 1256.16 -4.79214 0.746922 0
M  V30 13809 H 1252.03 -4.58679 -0.461976 0
M  V30 13810 H 1255.58 -6.56111 2.36989 0
M  V30 13811 H 1251.48 -6.35115 1.15322 0
M  V30 13812 H 1252.24 -7.72292 2.71122 0
M  V30 13813 N 1254.91 0.036755 -1.57557 0
M  V30 13814 C 1255.84 1.03939 -2.09091 0
M  V30 13815 C 1256.82 1.38196 -0.991761 0
M  V30 13816 O 1258 1.47214 -1.26656 0
M  V30 13817 C 1255.13 2.34263 -2.56394 0
M  V30 13818 C 1254.09 2.14269 -3.70504 0
M  V30 13819 C 1253.41 3.50286 -4.03985 0
M  V30 13820 C 1254.71 1.53514 -4.9923 0
M  V30 13821 H 1256.41 0.610429 -2.93111 0
M  V30 13822 H 1253.95 0.292183 -1.41005 0
M  V30 13823 H 1255.91 3.04727 -2.91066 0
M  V30 13824 H 1254.63 2.79205 -1.69447 0
M  V30 13825 H 1253.29 1.46239 -3.36169 0
M  V30 13826 H 1252.94 3.92861 -3.14116 0
M  V30 13827 H 1252.64 3.37735 -4.80842 0
M  V30 13828 H 1254.16 4.22124 -4.41184 0
M  V30 13829 H 1255.57 2.13885 -5.31908 0
M  V30 13830 H 1253.97 1.51561 -5.80646 0
M  V30 13831 H 1255.04 0.500126 -4.82314 0
M  V30 13832 N 1256.39 1.54543 0.308881 0
M  V30 13833 C 1257.3 1.87994 1.4034 0
M  V30 13834 C 1258.31 0.773294 1.55872 0
M  V30 13835 O 1259.49 1.069 1.70688 0
M  V30 13836 C 1256.55 2.11341 2.74838 0
M  V30 13837 C 1255.61 3.35086 2.68358 0
M  V30 13838 C 1254.85 3.5731 3.96441 0
M  V30 13839 O 1255.07 2.82692 4.9542 0
M  V30 13840 O 1254 4.50814 3.98811 0
M  V30 13841 H 1257.83 2.81094 1.14976 0
M  V30 13842 H 1255.41 1.40634 0.504236 0
M  V30 13843 H 1257.3 2.27943 3.54429 0
M  V30 13844 H 1255.97 1.21427 3.00062 0
M  V30 13845 H 1254.88 3.23855 1.87267 0
M  V30 13846 H 1256.21 4.25104 2.48087 0
M  V30 13847 N 1257.86 -0.571685 1.46866 0
M  V30 13848 C 1259.11 -1.32948 1.52745 0
M  V30 13849 C 1259.44 -1.93631 0.183694 0
M  V30 13850 O 1258.69 -1.77605 -0.821886 0
M  V30 13851 C 1258.99 -2.47051 2.58264 0
M  V30 13852 C 1258.66 -2.04291 4.01965 0
M  V30 13853 C 1257.32 -1.92345 4.41086 0
M  V30 13854 C 1259.67 -1.71458 4.9219 0
M  V30 13855 C 1257 -1.4584 5.68285 0
M  V30 13856 C 1259.35 -1.26429 6.19837 0
M  V30 13857 C 1258.02 -1.13068 6.57854 0
M  V30 13858 H 1257.29 -0.48649 0.558935 0
M  V30 13859 H 1259.93 -0.642618 1.80396 0
M  V30 13860 H 1258.24 -3.21231 2.24316 0
M  V30 13861 H 1259.94 -3.05254 2.6004 0
M  V30 13862 H 1256.53 -2.14527 3.71047 0
M  V30 13863 H 1260.71 -1.79567 4.62676 0
M  V30 13864 H 1255.97 -1.34148 5.96502 0
M  V30 13865 H 1260.14 -1.00081 6.89171 0
M  V30 13866 H 1257.77 -0.768094 7.5631 0
M  V30 13867 N 1259.34 -1.34755 -0.817236 0
M  V30 13868 C 1260.57 -1.30522 -1.60536 0
M  V30 13869 C 1260.98 0.119541 -1.88421 0
M  V30 13870 O 1260.34 1.06833 -1.47962 0
M  V30 13871 C 1260.39 -2.09939 -2.94292 0
M  V30 13872 O 1260.11 -3.46858 -2.67621 0
M  V30 13873 C 1261.61 -2.13168 -3.88683 0
M  V30 13874 H 1258.83 -0.448789 -0.498828 0
M  V30 13875 H 1261.38 -1.77453 -1.01639 0
M  V30 13876 H 1259.53 -1.66634 -3.49731 0
M  V30 13877 H 1259.95 -3.87979 -3.52949 0
M  V30 13878 H 1261.42 -2.73147 -4.79682 0
M  V30 13879 H 1261.9 -1.12758 -4.24479 0
M  V30 13880 H 1262.5 -2.56587 -3.39181 0
M  V30 13881 N 1260.82 1.03812 -1.18578 0
M  V30 13882 C 1262.07 1.76706 -0.980776 0
M  V30 13883 C 1262.39 1.88729 0.490562 0
M  V30 13884 O 1261.66 1.41413 1.35569 0
M  V30 13885 H 1260.24 0.654586 -0.359898 0
M  V30 13886 H 1262.9 1.25274 -1.49306 0
M  V30 13887 H 1262 2.77876 -1.42096 0
M  V30 13888 N 1262.3 0.988223 1.22768 0
M  V30 13889 C 1263.71 0.697281 1.7319 0
M  V30 13890 C 1264.06 -0.786111 1.79763 0
M  V30 13891 O 1263.18 -1.61465 1.44077 0
M  V30 13892 C 1263.78 1.25905 3.14537 0
M  V30 13893 C 1262.34 1.01759 3.62384 0
M  V30 13894 C 1261.49 1.38207 2.40404 0
M  V30 13895 H 1264.44 1.16114 1.08181 0
M  V30 13896 H 1264.46 0.635315 3.75159 0
M  V30 13897 H 1263.97 2.33869 3.09721 0
M  V30 13898 H 1262.07 -0.045627 3.72572 0
M  V30 13899 H 1262.18 1.67767 4.48766 0
M  V30 13900 H 1260.55 0.800607 2.4179 0
M  V30 13901 H 1261.33 2.47165 2.38253 0
M  V30 13902 N 1263.78 -1.38018 0.760839 0
M  V30 13903 C 1265.19 -1.82645 0.387022 0
M  V30 13904 C 1265.54 -1.63445 -1.08536 0
M  V30 13905 O 1264.66 -1.13958 -1.83963 0
M  V30 13906 C 1265.26 -3.3158 0.69569 0
M  V30 13907 C 1263.82 -3.74527 0.375063 0
M  V30 13908 C 1262.96 -2.60696 0.94515 0
M  V30 13909 H 1265.91 -1.26644 0.956396 0
M  V30 13910 H 1265.94 -3.80493 -0.0235511 0
M  V30 13911 H 1265.45 -3.45522 1.76737 0
M  V30 13912 H 1263.55 -3.6616 -0.689741 0
M  V30 13913 H 1263.66 -4.71029 0.875685 0
M  V30 13914 H 1262.03 -2.51997 0.370065 0
M  V30 13915 H 1262.81 -2.77434 2.02201 0
M  V30 13916 N 1265.25 -0.510493 -1.49103 0
M  V30 13917 C 1266.19 0.299697 -2.27232 0
M  V30 13918 C 1267.2 0.922102 -1.34168 0
M  V30 13919 O 1268.39 0.803836 -1.59376 0
M  V30 13920 C 1265.49 1.43778 -3.06889 0
M  V30 13921 C 1264.66 0.920927 -4.27595 0
M  V30 13922 C 1263.72 1.93777 -4.89221 0
M  V30 13923 O 1262.75 1.5025 -5.49011 0
M  V30 13924 N 1263.95 3.2688 -4.79718 0
M  V30 13925 H 1266.71 -0.37028 -2.97404 0
M  V30 13926 H 1264.27 -0.343617 -1.58212 0
M  V30 13927 H 1266.27 2.11577 -3.44988 0
M  V30 13928 H 1264.84 2.01175 -2.39264 0
M  V30 13929 H 1264.06 0.0675358 -3.94142 0
M  V30 13930 H 1265.34 0.554168 -5.05773 0
M  V30 13931 H 1264.74 3.64924 -4.32258 0
M  V30 13932 H 1263.3 3.90366 -5.21974 0
M  V30 13933 N 1266.73 1.55688 -0.24474 0
M  V30 13934 C 1267.68 2.21289 0.655723 0
M  V30 13935 C 1268.65 1.17606 1.17295 0
M  V30 13936 O 1269.83 1.46045 1.22782 0
M  V30 13937 C 1266.97 2.91453 1.84794 0
M  V30 13938 C 1266.09 4.09787 1.36744 0
M  V30 13939 C 1265.22 4.67672 2.51905 0
M  V30 13940 C 1264.26 5.78259 2.00706 0
M  V30 13941 N 1263.4 6.30336 3.09225 0
M  V30 13942 H 1268.24 2.97865 0.0896156 0
M  V30 13943 H 1265.77 1.47064 0.0324725 0
M  V30 13944 H 1267.73 3.30331 2.54828 0
M  V30 13945 H 1266.36 2.17355 2.38656 0
M  V30 13946 H 1265.41 3.76237 0.561228 0
M  V30 13947 H 1266.73 4.89627 0.952199 0
M  V30 13948 H 1265.88 5.09113 3.29984 0
M  V30 13949 H 1264.62 3.87044 2.9673 0
M  V30 13950 H 1263.62 5.36298 1.21097 0
M  V30 13951 H 1264.85 6.60737 1.56853 0
M  V30 13952 H 1262.8 5.52614 3.53489 0
M  V30 13953 H 1262.71 7.05364 2.72025 0
M  V30 13954 H 1263.98 6.76435 3.8737 0
M  V30 13955 N 1268.21 -0.0283989 1.57574 0
M  V30 13956 C 1269.62 -0.574912 1.77628 0
M  V30 13957 C 1269.97 -1.75563 0.875903 0
M  V30 13958 O 1269.1 -2.16284 0.0709141 0
M  V30 13959 C 1269.69 -1.04972 3.22128 0
M  V30 13960 C 1268.25 -1.54175 3.43376 0
M  V30 13961 C 1267.4 -0.480127 2.73112 0
M  V30 13962 H 1270.35 0.197826 1.57462 0
M  V30 13963 H 1270.37 -1.91705 3.28678 0
M  V30 13964 H 1269.88 -0.190173 3.87634 0
M  V30 13965 H 1267.98 -2.42313 2.83046 0
M  V30 13966 H 1268.1 -1.58879 4.51989 0
M  V30 13967 H 1266.46 -0.935314 2.36905 0
M  V30 13968 H 1267.24 0.369973 3.41301 0
M  V30 13969 N 1269.69 -1.54705 -0.300681 0
M  V30 13970 C 1271.1 -1.64998 -0.873654 0
M  V30 13971 C 1271.45 -0.558842 -1.88073 0
M  V30 13972 O 1270.57 0.304474 -2.14247 0
M  V30 13973 C 1271.17 -2.99099 -1.59138 0
M  V30 13974 C 1269.73 -3.11512 -2.11276 0
M  V30 13975 C 1268.88 -2.60681 -0.945551 0
M  V30 13976 H 1271.83 -1.5851 -0.0776752 0
M  V30 13977 H 1271.85 -2.9054 -2.45696 0
M  V30 13978 H 1271.36 -3.78493 -0.858172 0
M  V30 13979 H 1269.46 -2.36838 -2.87643 0
M  V30 13980 H 1269.57 -4.17672 -2.34707 0
M  V30 13981 H 1267.94 -2.17143 -1.33121 0
M  V30 13982 H 1268.72 -3.42553 -0.226291 0
M  V30 13983 N 1271.17 0.563888 -1.47167 0
M  V30 13984 C 1272.58 0.889156 -1.32537 0
M  V30 13985 C 1272.78 1.99088 -0.310854 0
M  V30 13986 O 1271.84 2.50943 0.27998 0
M  V30 13987 C 1273.15 1.28871 -2.71685 0
M  V30 13988 C 1274.7 1.40051 -2.79919 0
M  V30 13989 C 1275.17 1.83364 -4.19692 0
M  V30 13990 N 1276.67 1.90526 -4.22201 0
M  V30 13991 C 1277.4 2.25355 -5.2726 0
M  V30 13992 N 1276.9 2.58844 -6.42629 0
M  V30 13993 N 1278.69 2.26071 -5.14634 0
M  V30 13994 H 1270.84 -0.163581 -2.11769 0
M  V30 13995 H 1273.1 -0.0105151 -0.947942 0
M  V30 13996 H 1272.81 0.553057 -3.47324 0
M  V30 13997 H 1272.68 2.24629 -3.03021 0
M  V30 13998 H 1275.07 2.12698 -2.04557 0
M  V30 13999 H 1275.15 0.424971 -2.52245 0
M  V30 14000 H 1274.8 1.11289 -4.95557 0
M  V30 14001 H 1274.73 2.81909 -4.44786 0
M  V30 14002 H 1277.22 1.67059 -3.38968 0
M  V30 14003 H 1277.53 2.84427 -7.18555 0
M  V30 14004 H 1275.87 2.56439 -6.4596 0
M  V30 14005 H 1279.07 1.99343 -4.23533 0
M  V30 14006 H 1279.24 2.52885 -5.96618 0
M  V30 14007 N 1272.64 1.35187 0.810078 0
M  V30 14008 C 1273.57 1.30481 1.93641 0
M  V30 14009 C 1274.56 0.179875 1.69146 0
M  V30 14010 O 1275.74 0.374284 1.90559 0
M  V30 14011 C 1272.87 1.07251 3.30325 0
M  V30 14012 C 1271.82 2.16348 3.69293 0
M  V30 14013 C 1271.15 1.78288 5.04101 0
M  V30 14014 C 1272.45 3.58285 3.80038 0
M  V30 14015 H 1274.14 2.24725 1.97836 0
M  V30 14016 H 1271.69 1.08179 0.950436 0
M  V30 14017 H 1273.64 1.02599 4.08719 0
M  V30 14018 H 1272.37 0.0945203 3.26463 0
M  V30 14019 H 1271.03 2.2009 2.93182 0
M  V30 14020 H 1270.67 0.791163 4.96739 0
M  V30 14021 H 1270.37 2.51315 5.31144 0
M  V30 14022 H 1271.9 1.75155 5.84938 0
M  V30 14023 H 1273.31 3.56884 4.48672 0
M  V30 14024 H 1271.71 4.30044 4.18548 0
M  V30 14025 H 1272.78 3.94691 2.81685 0
M  V30 14026 N 1274.12 -1.03182 1.19127 0
M  V30 14027 C 1275.37 -1.76184 0.990134 0
M  V30 14028 C 1275.69 -1.88986 -0.480546 0
M  V30 14029 O 1274.96 -1.4213 -1.34817 0
M  V30 14030 H 1273.54 -0.652668 0.363364 0
M  V30 14031 H 1276.2 -1.24481 1.49968 0
M  V30 14032 H 1275.3 -2.77119 1.43568 0
M  V30 14033 N 1275.6 -0.99472 -1.22242 0
M  V30 14034 C 1276.56 -0.551619 -2.22463 0
M  V30 14035 C 1277.56 0.366498 -1.56568 0
M  V30 14036 O 1278.75 0.158204 -1.7348 0
M  V30 14037 C 1275.89 0.197416 -3.40328 0
M  V30 14038 H 1277.08 -1.43795 -2.63179 0
M  V30 14039 H 1274.63 -0.782121 -1.35324 0
M  V30 14040 H 1275.37 1.09965 -3.05087 0
M  V30 14041 H 1275.15 -0.461829 -3.89371 0
M  V30 14042 H 1276.64 0.495534 -4.1465 0
M  V30 14043 N 1277.08 1.37613 -0.768148 0
M  V30 14044 C 1278.01 2.28935 -0.110234 0
M  V30 14045 C 1279.02 1.48459 0.668122 0
M  V30 14046 O 1280.21 1.71154 0.506808 0
M  V30 14047 C 1277.31 3.27606 0.867598 0
M  V30 14048 C 1276.49 4.37163 0.143819 0
M  V30 14049 C 1275.54 5.15931 1.03449 0
M  V30 14050 O 1274.57 5.67003 0.499605 0
M  V30 14051 N 1275.77 5.30311 2.36114 0
M  V30 14052 H 1278.54 2.86037 -0.894585 0
M  V30 14053 H 1276.1 1.4955 -0.620185 0
M  V30 14054 H 1278.09 3.77183 1.4668 0
M  V30 14055 H 1276.66 2.71298 1.55294 0
M  V30 14056 H 1275.88 3.89031 -0.636257 0
M  V30 14057 H 1277.17 5.0755 -0.356446 0
M  V30 14058 H 1276.57 4.90394 2.82011 0
M  V30 14059 H 1275.12 5.83209 2.9105 0
M  V30 14060 N 1278.56 0.518393 1.4883 0
M  V30 14061 C 1279.78 -0.0183131 2.07392 0
M  V30 14062 C 1280.21 -1.28468 1.37396 0
M  V30 14063 O 1279.56 -1.75975 0.436177 0
M  V30 14064 C 1279.61 -0.237211 3.59819 0
M  V30 14065 O 1278.72 -1.30835 3.91096 0
M  V30 14066 H 1278.06 0.0339621 0.663131 0
M  V30 14067 H 1280.59 0.722993 1.914 0
M  V30 14068 H 1280.6 -0.463424 4.0536 0
M  V30 14069 H 1279.27 0.687925 4.10171 0
M  V30 14070 H 1277.85 -1.06571 3.57347 0
M  V30 14071 N 1280.03 -1.55556 0.252993 0
M  V30 14072 C 1281.28 -1.98267 -0.370571 0
M  V30 14073 C 1281.6 -1.14449 -1.58622 0
M  V30 14074 O 1282.8 -1.472 -2.28132 0
M  V30 14075 C 1281.26 -3.52813 -0.710685 0
M  V30 14076 C 1280.87 -4.45379 0.483908 0
M  V30 14077 C 1282.61 -4.04165 -1.2981 0
M  V30 14078 C 1280.52 -5.91279 0.119611 0
M  V30 14079 H 1279.45 -0.740463 -0.142232 0
M  V30 14080 H 1282.1 -1.8005 0.354169 0
M  V30 14081 H 1280.48 -3.66748 -1.49372 0
M  V30 14082 H 1281.65 -4.43206 1.26116 0
M  V30 14083 H 1279.97 -4.04542 0.986664 0
M  V30 14084 H 1282.57 -5.10696 -1.5841 0
M  V30 14085 H 1282.91 -3.51875 -2.22462 0
M  V30 14086 H 1283.44 -3.93581 -0.577836 0
M  V30 14087 H 1280.18 -6.47619 1.01343 0
M  V30 14088 H 1279.7 -5.96573 -0.621318 0
M  V30 14089 H 1281.38 -6.46322 -0.296052 0
M  V30 14090 N 1281.51 0.0200419 -1.57587 0
M  V30 14091 C 1282.44 1.0456 -2.0396 0
M  V30 14092 C 1283.46 1.31922 -0.953962 0
M  V30 14093 O 1284.65 1.2925 -1.23112 0
M  V30 14094 C 1281.75 2.38514 -2.40758 0
M  V30 14095 C 1280.92 2.3038 -3.71812 0
M  V30 14096 C 1279.98 3.46856 -3.95698 0
M  V30 14097 O 1279 3.25944 -4.66636 0
M  V30 14098 N 1280.21 4.69033 -3.42036 0
M  V30 14099 H 1282.97 0.650282 -2.9256 0
M  V30 14100 H 1280.53 0.207818 -1.60561 0
M  V30 14101 H 1282.52 3.15172 -2.53868 0
M  V30 14102 H 1281.09 2.69859 -1.57781 0
M  V30 14103 H 1280.31 1.38762 -3.6897 0
M  V30 14104 H 1281.6 2.22097 -4.57767 0
M  V30 14105 H 1281 4.88923 -2.84553 0
M  V30 14106 H 1279.56 5.43025 -3.6051 0
M  V30 14107 N 1282.99 1.54862 0.292472 0
M  V30 14108 C 1284.4 1.65459 0.864891 0
M  V30 14109 C 1284.75 0.568808 1.87774 0
M  V30 14110 O 1283.88 -0.293107 2.14406 0
M  V30 14111 C 1284.47 2.99939 1.5755 0
M  V30 14112 C 1283.03 3.12628 2.09621 0
M  V30 14113 C 1282.18 2.61179 0.931713 0
M  V30 14114 H 1285.13 1.58549 0.0692679 0
M  V30 14115 H 1285.15 2.91839 2.44152 0
M  V30 14116 H 1284.66 3.78943 0.838088 0
M  V30 14117 H 1282.76 2.3836 2.86383 0
M  V30 14118 H 1282.88 4.18911 2.32488 0
M  V30 14119 H 1281.24 2.17846 1.31967 0
M  V30 14120 H 1282.02 3.42669 0.208121 0
M  V30 14121 N 1284.47 -0.556076 1.47464 0
M  V30 14122 C 1285.7 -1.33858 1.57764 0
M  V30 14123 C 1286.11 -1.87415 0.22825 0
M  V30 14124 O 1285.47 -1.65054 -0.778674 0
M  V30 14125 C 1285.52 -2.5077 2.60378 0
M  V30 14126 O 1285.24 -1.99426 3.90078 0
M  V30 14127 C 1286.74 -3.42965 2.80873 0
M  V30 14128 H 1283.96 -0.408003 0.532705 0
M  V30 14129 H 1286.51 -0.673501 1.93091 0
M  V30 14130 H 1284.66 -3.13214 2.27982 0
M  V30 14131 H 1285.07 -2.75759 4.46158 0
M  V30 14132 H 1286.55 -4.21412 3.56533 0
M  V30 14133 H 1287.03 -3.96579 1.88737 0
M  V30 14134 H 1287.63 -2.86336 3.14471 0
M  V30 14135 N 1285.95 -1.35615 -0.802897 0
M  V30 14136 C 1286.91 -1.28705 -1.89651 0
M  V30 14137 C 1287.91 -0.197681 -1.5958 0
M  V30 14138 O 1289.1 -0.451618 -1.68244 0
M  V30 14139 C 1286.23 -0.991941 -3.26149 0
M  V30 14140 H 1287.43 -2.25951 -1.97196 0
M  V30 14141 H 1284.98 -1.20192 -0.999179 0
M  V30 14142 H 1285.71 -0.0235051 -3.24291 0
M  V30 14143 H 1285.5 -1.78013 -3.49362 0
M  V30 14144 H 1286.99 -0.969298 -4.06195 0
M  V30 14145 N 1287.43 1.02549 -1.19673 0
M  V30 14146 C 1288.37 2.13015 -0.934209 0
M  V30 14147 C 1289.37 1.69035 0.111208 0
M  V30 14148 O 1290.57 1.79959 -0.0383449 0
M  V30 14149 H 1286.95 0.696015 -0.284722 0
M  V30 14150 H 1288.92 2.32346 -1.87238 0
M  V30 14151 C 1287.67 3.44185 -0.493124 0
M  V30 14152 H 1286.99 3.78447 -1.28911 0
M  V30 14153 H 1288.43 4.22565 -0.348577 0
M  V30 14154 C 1286.89 3.27427 0.793277 0
M  V30 14155 O 1287.42 3.56362 1.85388 0
M  V30 14156 N 1285.63 2.80706 0.751837 0
M  V30 14157 H 1285.17 2.57359 -0.111517 0
M  V30 14158 H 1285.13 2.69874 1.61292 0
M  V30 14159 N 1288.9 1.00119 1.21713 0
M  V30 14160 C 1289.83 0.578504 2.2622 0
M  V30 14161 C 1290.81 -0.398777 1.6536 0
M  V30 14162 O 1292 -0.287596 1.92059 0
M  V30 14163 C 1289.13 -0.0994508 3.47158 0
M  V30 14164 C 1288.08 0.79722 4.2051 0
M  V30 14165 C 1287.41 -0.0141125 5.34698 0
M  V30 14166 C 1288.71 2.09802 4.7831 0
M  V30 14167 H 1290.4 1.45208 2.6183 0
M  V30 14168 H 1287.95 0.699656 1.2586 0
M  V30 14169 H 1289.9 -0.406605 4.19434 0
M  V30 14170 H 1288.63 -1.00763 3.10667 0
M  V30 14171 H 1287.29 1.08814 3.50079 0
M  V30 14172 H 1286.93 -0.923468 4.9445 0
M  V30 14173 H 1286.63 0.582883 5.84702 0
M  V30 14174 H 1288.16 -0.31517 6.09786 0
M  V30 14175 H 1289.57 1.85427 5.42485 0
M  V30 14176 H 1287.97 2.64455 5.38687 0
M  V30 14177 H 1289.04 2.77132 3.97902 0
M  V30 14178 N 1290.38 -1.37203 0.775435 0
M  V30 14179 C 1291.66 -1.93783 0.266005 0
M  V30 14180 C 1292.04 -1.70875 -1.23956 0
M  V30 14181 O 1291.39 -1.05965 -2.02444 0
M  V30 14182 C 1291.6 -3.43018 0.643404 0
M  V30 14183 C 1292.94 -4.20119 0.615267 0
M  V30 14184 O 1293.97 -3.51396 0.583018 0
M  V30 14185 O 1292.83 -5.42673 0.645637 0
M  V30 14186 H 1289.92 -0.824649 0.0623107 0
M  V30 14187 H 1292.47 -1.46468 0.857036 0
M  V30 14188 H 1291.24 -3.5329 1.68232 0
M  V30 14189 H 1290.86 -3.97592 0.0255138 0
M  V30 14190 N 1291.86 -0.526279 -1.48553 0
M  V30 14191 C 1293.28 -0.183886 -1.58537 0
M  V30 14192 C 1293.48 1.31272 -1.52872 0
M  V30 14193 O 1292.53 2.09069 -1.41585 0
M  V30 14194 C 1293.84 -0.78313 -2.90323 0
M  V30 14195 C 1295.39 -0.751527 -3.03844 0
M  V30 14196 C 1295.87 -1.32928 -4.38285 0
M  V30 14197 N 1297.36 -1.29109 -4.44843 0
M  V30 14198 C 1298.09 -1.70806 -5.47369 0
M  V30 14199 N 1297.59 -2.20215 -6.56869 0
M  V30 14200 N 1299.38 -1.62065 -5.3823 0
M  V30 14201 H 1291.53 -1.499 -1.50478 0
M  V30 14202 H 1293.8 -0.623294 -0.714289 0
M  V30 14203 H 1293.5 -1.83371 -3.00113 0
M  V30 14204 H 1293.38 -0.25808 -3.76316 0
M  V30 14205 H 1295.76 0.290282 -2.93669 0
M  V30 14206 H 1295.84 -1.314 -2.19471 0
M  V30 14207 H 1295.49 -2.37 -4.49214 0
M  V30 14208 H 1295.42 -0.742516 -5.21339 0
M  V30 14209 H 1297.91 -0.929348 -3.66294 0
M  V30 14210 H 1298.22 -2.50035 -7.31233 0
M  V30 14211 H 1296.57 -2.24206 -6.57842 0
M  V30 14212 H 1299.76 -1.23265 -4.51579 0
M  V30 14213 H 1299.93 -1.94883 -6.18001 0
M  V30 14214 N 1293.34 1.5542 -0.261239 0
M  V30 14215 C 1294.57 2.03687 0.363225 0
M  V30 14216 C 1294.98 1.14007 1.50492 0
M  V30 14217 O 1294.34 0.157349 1.8182 0
M  V30 14218 C 1294.39 3.51184 0.857435 0
M  V30 14219 O 1294.11 4.37449 -0.238776 0
M  V30 14220 C 1295.61 4.15277 1.55113 0
M  V30 14221 H 1292.83 0.665641 0.0846356 0
M  V30 14222 H 1295.37 2.00761 -0.389288 0
M  V30 14223 H 1293.53 3.54599 1.56008 0
M  V30 14224 H 1293.94 5.24316 0.138821 0
M  V30 14225 H 1295.42 5.20129 1.8485 0
M  V30 14226 H 1295.89 3.62619 2.47799 0
M  V30 14227 H 1296.5 4.15826 0.892695 0
M  V30 14228 N 1294.82 -0.0116844 1.57596 0
M  V30 14229 C 1296.09 -0.735344 1.81251 0
M  V30 14230 C 1296.47 -1.92634 0.863446 0
M  V30 14231 O 1295.82 -2.28321 -0.0905028 0
M  V30 14232 C 1296.03 -1.15206 3.29437 0
M  V30 14233 C 1297.38 -1.56078 3.94873 0
M  V30 14234 O 1298.4 -1.24618 3.3369 0
M  V30 14235 O 1297.26 -2.14534 5.0263 0
M  V30 14236 H 1294.36 -0.357044 0.745955 0
M  V30 14237 H 1296.9 0.0128733 1.69695 0
M  V30 14238 H 1295.67 -0.302619 3.90128 0
M  V30 14239 H 1295.3 -1.95975 3.45947 0
M  V30 14240 N 1296.29 -1.55015 -0.284256 0
M  V30 14241 C 1297.57 -1.6579 -1.03794 0
M  V30 14242 C 1297.95 -0.517029 -2.04671 0
M  V30 14243 O 1297.3 0.484287 -2.23309 0
M  V30 14244 C 1297.51 -3.04527 -1.70483 0
M  V30 14245 C 1298.86 -3.61903 -2.22062 0
M  V30 14246 O 1299.88 -3.07087 -1.80488 0
M  V30 14247 O 1298.74 -4.57917 -2.98286 0
M  V30 14248 H 1295.83 -0.672906 -0.480757 0
M  V30 14249 H 1298.38 -1.67357 -0.281009 0
M  V30 14250 H 1297.15 -3.79004 -0.973238 0
M  V30 14251 H 1296.77 -3.0681 -2.5289 0
M  V30 14252 N 1297.77 0.548248 -1.47757 0
M  V30 14253 C 1298.7 1.66409 -1.63799 0
M  V30 14254 C 1299.68 1.62973 -0.487211 0
M  V30 14255 O 1300.87 1.80455 -0.717612 0
M  V30 14256 C 1298 3.05035 -1.66046 0
M  V30 14257 C 1296.95 3.23322 -2.80441 0
M  V30 14258 C 1296.28 4.62824 -2.67765 0
M  V30 14259 C 1297.58 3.07837 -4.2194 0
M  V30 14260 H 1299.27 1.53239 -2.57212 0
M  V30 14261 H 1296.82 0.735783 -1.23783 0
M  V30 14262 H 1298.77 3.82951 -1.75859 0
M  V30 14263 H 1297.49 3.19185 -0.69199 0
M  V30 14264 H 1296.15 2.47816 -2.70153 0
M  V30 14265 H 1295.8 4.73786 -1.68927 0
M  V30 14266 H 1295.5 4.76007 -3.44515 0
M  V30 14267 H 1297.03 5.42864 -2.7952 0
M  V30 14268 H 1298.44 3.75563 -4.33157 0
M  V30 14269 H 1296.84 3.32525 -4.99547 0
M  V30 14270 H 1297.91 2.04474 -4.3968 0
M  V30 14271 N 1299.25 1.36039 0.795694 0
M  V30 14272 C 1300.5 1.30112 1.5556 0
M  V30 14273 C 1300.83 -0.121197 1.93821 0
M  V30 14274 O 1300.1 -1.07313 1.62216 0
M  V30 14275 C 1300.39 2.21792 2.8369 0
M  V30 14276 C 1300.24 3.72691 2.51836 0
M  V30 14277 C 1301.56 2.12365 3.85472 0
M  V30 14278 H 1298.68 0.473971 0.564376 0
M  V30 14279 H 1301.32 1.66536 0.91465 0
M  V30 14280 H 1299.47 1.9086 3.38386 0
M  V30 14281 H 1301.14 4.14115 2.0324 0
M  V30 14282 H 1299.38 3.92436 1.84869 0
M  V30 14283 H 1300.06 4.32242 3.43323 0
M  V30 14284 H 1302.53 2.3958 3.40207 0
M  V30 14285 H 1301.41 2.78695 4.72885 0
M  V30 14286 H 1301.67 1.10898 4.27965 0
M  V30 14287 N 1300.73 -1.01913 1.20215 0
M  V30 14288 C 1301.96 -1.78817 1.0348 0
M  V30 14289 C 1302.37 -1.84499 -0.419152 0
M  V30 14290 O 1301.71 -1.29506 -1.30284 0
M  V30 14291 C 1301.77 -3.24858 1.53973 0
M  V30 14292 C 1301.44 -3.42788 3.02234 0
M  V30 14293 C 1302.43 -3.32213 3.99914 0
M  V30 14294 C 1300.12 -3.68687 3.41138 0
M  V30 14295 C 1302.11 -3.47276 5.34489 0
M  V30 14296 C 1299.8 -3.83394 4.7587 0
M  V30 14297 C 1300.8 -3.72693 5.72354 0
M  V30 14298 O 1300.48 -3.86953 7.04643 0
M  V30 14299 H 1300.22 -0.569268 0.364568 0
M  V30 14300 H 1302.77 -1.29184 1.59689 0
M  V30 14301 H 1301 -3.7556 0.921478 0
M  V30 14302 H 1302.69 -3.83388 1.33297 0
M  V30 14303 H 1303.46 -3.12145 3.71202 0
M  V30 14304 H 1299.33 -3.76104 2.66583 0
M  V30 14305 H 1302.88 -3.3884 6.09782 0
M  V30 14306 H 1298.78 -4.02962 5.04273 0
M  V30 14307 H 1299.54 -4.03986 7.11855 0
M  V30 14308 N 1302.21 -1.00763 -1.2118 0
M  V30 14309 C 1303.14 -0.590493 -2.2591 0
M  V30 14310 C 1304.12 0.390002 -1.65569 0
M  V30 14311 O 1305.3 0.277406 -1.92208 0
M  V30 14312 C 1302.43 0.0810388 -3.47205 0
M  V30 14313 C 1301.39 -0.81951 -4.20081 0
M  V30 14314 C 1300.71 -0.014244 -5.34698 0
M  V30 14315 C 1302.01 -2.12336 -4.7719 0
M  V30 14316 H 1303.71 -1.46595 -2.61056 0
M  V30 14317 H 1301.25 -0.706321 -1.25487 0
M  V30 14318 H 1303.21 0.384355 -4.19644 0
M  V30 14319 H 1301.93 0.991145 -3.11197 0
M  V30 14320 H 1300.59 -1.10669 -3.49497 0
M  V30 14321 H 1300.24 0.897233 -4.94933 0
M  V30 14322 H 1299.94 -0.613883 -5.84384 0
M  V30 14323 H 1301.46 0.282827 -6.09945 0
M  V30 14324 H 1302.87 -1.88301 -5.41494 0
M  V30 14325 H 1301.27 -2.67308 -5.37277 0
M  V30 14326 H 1302.34 -2.79238 -3.96427 0
M  V30 14327 N 1303.68 1.3679 -0.7827 0
M  V30 14328 C 1304.63 2.32019 -0.164358 0
M  V30 14329 C 1305.63 1.55476 0.672571 0
M  V30 14330 O 1306.83 1.7079 0.568406 0
M  V30 14331 H 1303.21 0.751214 -0.0343697 0
M  V30 14332 H 1305.18 2.81741 -0.983077 0
M  V30 14333 C 1303.93 3.4075 0.691727 0
M  V30 14334 H 1303.25 3.99759 0.0570885 0
M  V30 14335 H 1304.69 4.09719 1.09117 0
M  V30 14336 C 1303.15 2.81753 1.84708 0
M  V30 14337 O 1303.68 2.73378 2.94325 0
M  V30 14338 N 1301.89 2.39138 1.6511 0
M  V30 14339 H 1301.43 2.46149 0.759487 0
M  V30 14340 H 1301.39 2.0001 2.42576 0
M  V30 14341 N 1305.16 0.53415 1.48272 0
M  V30 14342 C 1306.41 0.00157492 2.028 0
M  V30 14343 C 1306.74 -1.33538 1.41001 0
M  V30 14344 O 1306.02 -1.86347 0.557245 0
M  V30 14345 C 1306.3 -0.116016 3.59913 0
M  V30 14346 C 1306.15 1.2464 4.32186 0
M  V30 14347 C 1307.47 -0.840775 4.31994 0
M  V30 14348 H 1304.59 0.00204634 0.736997 0
M  V30 14349 H 1307.23 0.691985 1.76951 0
M  V30 14350 H 1305.38 -0.704027 3.82068 0
M  V30 14351 H 1307.05 1.87584 4.21438 0
M  V30 14352 H 1305.3 1.8272 3.93441 0
M  V30 14353 H 1305.97 1.11708 5.40579 0
M  V30 14354 H 1308.44 -0.341746 4.14694 0
M  V30 14355 H 1307.32 -0.89196 5.41604 0
M  V30 14356 H 1307.58 -1.89197 3.99571 0
M  V30 14357 N 1306.64 -1.55279 0.269478 0
M  V30 14358 C 1307.57 -2.18397 -0.66165 0
M  V30 14359 C 1308.55 -1.1431 -1.15637 0
M  V30 14360 O 1309.74 -1.42808 -1.23037 0
M  V30 14361 C 1306.86 -2.80272 -1.90172 0
M  V30 14362 C 1305.91 -3.97612 -1.54295 0
M  V30 14363 S 1306.74 -5.31828 -0.625995 0
M  V30 14364 C 1307.9 -5.97169 -1.87456 0
M  V30 14365 H 1308.13 -2.97036 -0.125326 0
M  V30 14366 H 1305.66 -1.54306 0.0537711 0
M  V30 14367 H 1307.62 -3.16553 -2.61351 0
M  V30 14368 H 1306.28 -2.01538 -2.40918 0
M  V30 14369 H 1305.48 -4.39576 -2.46555 0
M  V30 14370 H 1305.08 -3.62725 -0.911395 0
M  V30 14371 H 1307.37 -6.16059 -2.81917 0
M  V30 14372 H 1308.31 -6.92073 -1.49803 0
M  V30 14373 H 1308.72 -5.26469 -2.03693 0
M  V30 14374 N 1308.12 0.00332656 -1.576 0
M  V30 14375 C 1309.03 1.01221 -2.1164 0
M  V30 14376 C 1310.04 1.37918 -1.06088 0
M  V30 14377 O 1311.22 1.46717 -1.37971 0
M  V30 14378 C 1308.29 2.28638 -2.60626 0
M  V30 14379 C 1307.35 1.98284 -3.80765 0
M  V30 14380 C 1306.58 3.19626 -4.27405 0
M  V30 14381 O 1306.8 4.31196 -3.73398 0
M  V30 14382 O 1305.74 3.03819 -5.19594 0
M  V30 14383 H 1309.56 0.582839 -2.98055 0
M  V30 14384 H 1307.15 0.221947 -1.47742 0
M  V30 14385 H 1309.03 3.03498 -2.92347 0
M  V30 14386 H 1307.7 2.70819 -1.7731 0
M  V30 14387 H 1306.61 1.2091 -3.54022 0
M  V30 14388 H 1307.94 1.60942 -4.65144 0
M  V30 14389 N 1309.6 1.55164 0.276031 0
M  V30 14390 C 1310.53 1.90844 1.34539 0
M  V30 14391 C 1311.51 0.769968 1.51676 0
M  V30 14392 O 1312.69 1.02785 1.64769 0
M  V30 14393 C 1309.82 2.17769 2.70543 0
M  V30 14394 C 1308.78 3.33592 2.68142 0
M  V30 14395 C 1308.1 3.45991 4.07669 0
M  V30 14396 C 1309.4 4.70064 2.27678 0
M  V30 14397 H 1311.1 2.80412 1.04926 0
M  V30 14398 H 1308.64 1.34918 0.503303 0
M  V30 14399 H 1310.6 2.41317 3.45462 0
M  V30 14400 H 1309.32 1.24997 3.01734 0
M  V30 14401 H 1307.98 3.10007 1.95681 0
M  V30 14402 H 1307.63 2.50691 4.36077 0
M  V30 14403 H 1307.33 4.23862 4.06958 0
M  V30 14404 H 1308.85 3.71828 4.84331 0
M  V30 14405 H 1310.26 4.93176 2.92319 0
M  V30 14406 H 1308.66 5.50829 2.38134 0
M  V30 14407 H 1309.73 4.69091 1.22808 0
M  V30 14408 N 1311.07 -0.540404 1.48045 0
M  V30 14409 C 1312.32 -1.2987 1.55762 0
M  V30 14410 C 1312.65 -1.92877 0.226307 0
M  V30 14411 O 1311.93 -1.7875 -0.766727 0
M  V30 14412 C 1312.21 -2.39602 2.68817 0
M  V30 14413 C 1312.06 -1.81354 4.1162 0
M  V30 14414 C 1313.38 -3.41434 2.77688 0
M  V30 14415 H 1310.5 -0.47083 0.566999 0
M  V30 14416 H 1313.14 -0.603081 1.80175 0
M  V30 14417 H 1311.29 -2.98936 2.48132 0
M  V30 14418 H 1312.97 -1.26151 4.43716 0
M  V30 14419 H 1311.21 -1.1194 4.19108 0
M  V30 14420 H 1311.88 -2.60758 4.86528 0
M  V30 14421 H 1314.36 -2.92042 2.96396 0
M  V30 14422 H 1313.23 -4.15621 3.5854 0
M  V30 14423 H 1313.49 -4.01336 1.85422 0
M  V30 14424 N 1312.55 -1.36459 -0.788468 0
M  V30 14425 C 1313.97 -1.16893 -1.08666 0
M  V30 14426 C 1314.17 0.00633808 -2.01499 0
M  V30 14427 O 1313.22 0.671417 -2.4341 0
M  V30 14428 C 1314.54 -2.48018 -1.70022 0
M  V30 14429 C 1316.09 -2.5439 -1.82358 0
M  V30 14430 C 1316.56 -3.85605 -2.47129 0
M  V30 14431 N 1318.05 -3.86956 -2.54597 0
M  V30 14432 C 1318.79 -4.85224 -3.05525 0
M  V30 14433 N 1318.28 -5.93885 -3.56753 0
M  V30 14434 N 1320.08 -4.72643 -3.04246 0
M  V30 14435 H 1312.23 -2.11705 -0.171733 0
M  V30 14436 H 1314.49 -0.937784 -0.1388 0
M  V30 14437 H 1314.2 -3.34292 -1.09277 0
M  V30 14438 H 1314.07 -2.63894 -2.69518 0
M  V30 14439 H 1316.46 -1.68534 -2.4224 0
M  V30 14440 H 1316.54 -2.42414 -0.816651 0
M  V30 14441 H 1316.18 -4.71868 -1.87891 0
M  V30 14442 H 1316.11 -3.94878 -3.48395 0
M  V30 14443 H 1318.6 -3.08453 -2.18323 0
M  V30 14444 H 1318.92 -6.64839 -3.93966 0
M  V30 14445 H 1317.26 -5.97553 -3.54902 0
M  V30 14446 H 1320.45 -3.86883 -2.63513 0
M  V30 14447 H 1320.62 -5.49385 -3.43627 0
M  V30 14448 N 1314.03 1.01274 -1.20754 0
M  V30 14449 C 1314.99 2.08056 -0.961528 0
M  V30 14450 C 1315.99 1.60671 0.0644461 0
M  V30 14451 O 1317.18 1.73349 -0.172022 0
M  V30 14452 C 1314.32 3.37938 -0.448381 0
M  V30 14453 H 1315.51 2.31314 -1.90877 0
M  V30 14454 H 1313.06 1.18133 -1.02344 0
M  V30 14455 H 1313.8 3.20357 0.504144 0
M  V30 14456 H 1313.58 3.73659 -1.18833 0
M  V30 14457 H 1315.07 4.16551 -0.295876 0
M  V30 14458 N 1315.51 1.01404 1.20644 0
M  V30 14459 C 1316.76 0.702949 1.90227 0
M  V30 14460 C 1317.09 -0.765243 1.78487 0
M  V30 14461 O 1316.36 -1.55569 1.16741 0
M  V30 14462 C 1316.65 1.13606 3.4171 0
M  V30 14463 C 1316.5 2.66437 3.62397 0
M  V30 14464 C 1317.82 0.705361 4.34411 0
M  V30 14465 H 1314.94 0.256842 0.690797 0
M  V30 14466 H 1317.58 1.26133 1.42093 0
M  V30 14467 H 1315.73 0.660977 3.82836 0
M  V30 14468 H 1317.4 3.21778 3.3054 0
M  V30 14469 H 1315.64 3.0753 3.05954 0
M  V30 14470 H 1316.32 2.91795 4.68572 0
M  V30 14471 H 1318.79 1.11375 4.00918 0
M  V30 14472 H 1317.67 1.03647 5.39026 0
M  V30 14473 H 1317.93 -0.393094 4.40349 0
M  V30 14474 N 1316.99 -1.36373 0.789944 0
M  V30 14475 C 1317.92 -2.32616 0.202944 0
M  V30 14476 C 1318.9 -1.56674 -0.662364 0
M  V30 14477 O 1320.08 -1.84826 -0.596078 0
M  V30 14478 C 1317.21 -3.4092 -0.662646 0
M  V30 14479 C 1316.17 -4.27877 0.102811 0
M  V30 14480 C 1315.49 -5.27352 -0.883407 0
M  V30 14481 C 1316.79 -5.0606 1.29231 0
M  V30 14482 H 1318.49 -2.81958 1.00699 0
M  V30 14483 H 1316.03 -1.35562 0.48568 0
M  V30 14484 H 1317.99 -4.07239 -1.08324 0
M  V30 14485 H 1316.71 -2.90147 -1.4994 0
M  V30 14486 H 1315.37 -3.63114 0.504389 0
M  V30 14487 H 1315.02 -4.72853 -1.71521 0
M  V30 14488 H 1314.72 -5.86398 -0.375669 0
M  V30 14489 H 1316.24 -5.96545 -1.30256 0
M  V30 14490 H 1317.66 -5.65417 0.947446 0
M  V30 14491 H 1316.05 -5.74521 1.73338 0
M  V30 14492 H 1317.12 -4.37671 2.08739 0
M  V30 14493 N 1318.47 -0.542005 -1.47987 0
M  V30 14494 C 1319.38 0.217677 -2.33588 0
M  V30 14495 C 1320.39 0.927093 -1.47245 0
M  V30 14496 O 1321.57 0.899378 -1.80203 0
M  V30 14497 C 1318.63 1.24376 -3.23622 0
M  V30 14498 C 1317.69 0.543407 -4.25847 0
M  V30 14499 C 1316.93 1.5206 -5.11579 0
M  V30 14500 O 1317.15 2.75425 -4.99497 0
M  V30 14501 O 1316.08 1.05341 -5.9261 0
M  V30 14502 H 1319.91 -0.484089 -2.99817 0
M  V30 14503 H 1317.49 -0.302783 -1.463 0
M  V30 14504 H 1319.38 1.83644 -3.7928 0
M  V30 14505 H 1318.05 1.92772 -2.6004 0
M  V30 14506 H 1316.96 -0.090074 -3.73992 0
M  V30 14507 H 1318.29 -0.0988264 -4.92101 0
M  V30 14508 N 1319.94 1.55134 -0.277709 0
M  V30 14509 C 1320.87 2.256 0.602232 0
M  V30 14510 C 1321.85 1.24708 1.15681 0
M  V30 14511 O 1323.04 1.53433 1.19046 0
M  V30 14512 C 1320.17 2.97907 1.78519 0
M  V30 14513 C 1319.12 4.0575 1.36203 0
M  V30 14514 C 1318.45 4.65644 2.62829 0
M  V30 14515 C 1319.75 5.19801 0.510327 0
M  V30 14516 H 1321.44 2.99396 0.0145622 0
M  V30 14517 H 1318.99 1.43999 0.00556389 0
M  V30 14518 H 1320.94 3.45915 2.40668 0
M  V30 14519 H 1319.67 2.21649 2.39873 0
M  V30 14520 H 1318.33 3.58557 0.763726 0
M  V30 14521 H 1317.97 3.86053 3.22447 0
M  V30 14522 H 1317.67 5.38463 2.35227 0
M  V30 14523 H 1319.2 5.16403 3.25823 0
M  V30 14524 H 1320.61 5.63845 1.03689 0
M  V30 14525 H 1319.01 5.99197 0.329073 0
M  V30 14526 H 1320.08 4.82614 -0.470273 0
M  V30 14527 N 1321.42 0.00503138 1.57599 0
M  V30 14528 C 1322.37 -0.984754 2.08737 0
M  V30 14529 C 1323.34 -1.33822 0.983915 0
M  V30 14530 O 1324.52 -1.43572 1.25665 0
M  V30 14531 C 1321.66 -2.26984 2.59946 0
M  V30 14532 C 1320.78 -1.97496 3.84212 0
M  V30 14533 C 1319.91 -3.20123 4.23904 0
M  V30 14534 C 1318.95 -2.86344 5.40993 0
M  V30 14535 N 1318.09 -4.01524 5.75954 0
M  V30 14536 H 1322.93 -0.541737 2.93034 0
M  V30 14537 H 1320.46 -0.255834 1.44858 0
M  V30 14538 H 1322.42 -3.02117 2.87717 0
M  V30 14539 H 1321.05 -2.68946 1.78516 0
M  V30 14540 H 1320.1 -1.12709 3.63319 0
M  V30 14541 H 1321.42 -1.68602 4.69441 0
M  V30 14542 H 1320.57 -4.03598 4.52983 0
M  V30 14543 H 1319.31 -3.5216 3.37394 0
M  V30 14544 H 1318.31 -2.01278 5.11632 0
M  V30 14545 H 1319.54 -2.5555 6.29183 0
M  V30 14546 H 1317.49 -4.33447 4.92402 0
M  V30 14547 H 1317.4 -3.76171 6.55768 0
M  V30 14548 H 1318.67 -4.85772 6.09628 0
M  V30 14549 N 1322.9 -1.55308 -0.267798 0
M  V30 14550 C 1323.85 -1.89342 -1.35102 0
M  V30 14551 C 1324.84 -0.770277 -1.50874 0
M  V30 14552 O 1326.05 -0.954679 -1.52597 0
M  V30 14553 H 1322.42 -0.601036 -0.451952 0
M  V30 14554 H 1324.39 -2.7982 -1.03651 0
M  V30 14555 C 1323.14 -2.18644 -2.70352 0
M  V30 14556 H 1322.47 -3.04557 -2.59008 0
M  V30 14557 H 1323.91 -2.46374 -3.45073 0
M  V30 14558 C 1322.36 -0.995753 -3.21848 0
M  V30 14559 O 1322.89 -0.233037 -4.01023 0
M  V30 14560 N 1321.1 -0.792038 -2.79598 0
M  V30 14561 H 1320.65 -1.41396 -2.15325 0
M  V30 14562 H 1320.61 0.00300201 -3.144 0
M  V30 14563 N 1324.38 0.532545 -1.4833 0
M  V30 14564 C 1325.29 1.66433 -1.65339 0
M  V30 14565 C 1326.3 1.65541 -0.535939 0
M  V30 14566 O 1327.48 1.84539 -0.806679 0
M  V30 14567 C 1324.54 3.02901 -1.68676 0
M  V30 14568 C 1323.61 3.14669 -2.92031 0
M  V30 14569 C 1322.84 4.44627 -2.95199 0
M  V30 14570 O 1323.06 5.31572 -2.06851 0
M  V30 14571 O 1322 4.60707 -3.87341 0
M  V30 14572 H 1325.82 1.5502 -2.61156 0
M  V30 14573 H 1323.41 0.705348 -1.31701 0
M  V30 14574 H 1325.29 3.84068 -1.73407 0
M  V30 14575 H 1323.96 3.14644 -0.760327 0
M  V30 14576 H 1322.87 2.32807 -2.92834 0
M  V30 14577 H 1324.2 3.07841 -3.8405 0
M  V30 14578 N 1325.86 1.36875 0.78122 0
M  V30 14579 C 1326.79 1.34559 1.9083 0
M  V30 14580 C 1327.77 0.215713 1.68727 0
M  V30 14581 O 1328.95 0.41462 1.89722 0
M  V30 14582 C 1326.08 1.14233 3.27976 0
M  V30 14583 C 1325.04 2.24132 3.64621 0
M  V30 14584 C 1324.36 1.8894 5.00206 0
M  V30 14585 C 1325.66 3.66266 3.72353 0
M  V30 14586 H 1327.36 2.28871 1.93025 0
M  V30 14587 H 1324.9 1.10171 0.927275 0
M  V30 14588 H 1326.85 1.11246 4.06451 0
M  V30 14589 H 1325.58 0.163747 3.26189 0
M  V30 14590 H 1324.24 2.26259 2.88448 0
M  V30 14591 H 1323.89 0.896351 4.94949 0
M  V30 14592 H 1323.59 2.62525 5.25694 0
M  V30 14593 H 1325.11 1.87523 5.81092 0
M  V30 14594 H 1326.52 3.66321 4.41001 0
M  V30 14595 H 1324.92 4.38825 4.09332 0
M  V30 14596 H 1325.99 4.00578 2.7325 0
M  V30 14597 N 1327.33 -1.00632 1.21289 0
M  V30 14598 C 1328.57 -1.75921 1.04073 0
M  V30 14599 C 1328.94 -1.87381 -0.4186 0
M  V30 14600 O 1330.14 -2.5922 -0.711236 0
M  V30 14601 C 1328.41 -3.1344 1.71727 0
M  V30 14602 S 1329.97 -4.04636 1.6975 0
M  V30 14603 H 1326.79 -0.605321 0.372972 0
M  V30 14604 H 1329.39 -1.20417 1.54013 0
M  V30 14605 H 1328.09 -3.02731 2.77096 0
M  V30 14606 H 1327.62 -3.74017 1.21962 0
M  V30 14607 H 1329.64 -4.90686 0.737656 0
M  V30 14608 N 1328.81 -1.02043 -1.20104 0
M  V30 14609 C 1329.74 -0.552093 -2.22451 0
M  V30 14610 C 1330.76 0.367547 -1.58597 0
M  V30 14611 O 1331.95 0.165285 -1.77733 0
M  V30 14612 C 1329.05 0.215833 -3.38212 0
M  V30 14613 C 1328.22 -0.70666 -4.31654 0
M  V30 14614 C 1327.28 0.0143628 -5.26198 0
M  V30 14615 O 1326.3 -0.609413 -5.65928 0
M  V30 14616 N 1327.51 1.28794 -5.66032 0
M  V30 14617 H 1330.27 -1.43229 -2.6326 0
M  V30 14618 H 1327.83 -0.89842 -1.34685 0
M  V30 14619 H 1329.82 0.707523 -3.98467 0
M  V30 14620 H 1328.39 0.997358 -2.96263 0
M  V30 14621 H 1327.61 -1.37859 -3.69308 0
M  V30 14622 H 1328.9 -1.33392 -4.91003 0
M  V30 14623 H 1328.3 1.8156 -5.35773 0
M  V30 14624 H 1326.86 1.72429 -6.28579 0
M  V30 14625 N 1330.29 1.35952 -0.797165 0
M  V30 14626 C 1331.22 2.32506 -0.215277 0
M  V30 14627 C 1332.2 1.57023 0.654046 0
M  V30 14628 O 1333.39 1.85139 0.586268 0
M  V30 14629 C 1330.52 3.41266 0.644557 0
M  V30 14630 C 1329.47 4.27816 -0.125501 0
M  V30 14631 C 1328.8 5.27813 0.855428 0
M  V30 14632 C 1330.1 5.05367 -1.31913 0
M  V30 14633 H 1331.79 2.8142 -1.02193 0
M  V30 14634 H 1329.34 1.35303 -0.492862 0
M  V30 14635 H 1331.29 4.07808 1.06163 0
M  V30 14636 H 1330.01 2.90938 1.484 0
M  V30 14637 H 1328.67 3.62841 -0.523639 0
M  V30 14638 H 1328.32 4.73755 1.69011 0
M  V30 14639 H 1328.02 5.86589 0.344566 0
M  V30 14640 H 1329.54 5.97227 1.2709 0
M  V30 14641 H 1330.96 5.64907 -0.977418 0
M  V30 14642 H 1329.36 5.73593 -1.76382 0
M  V30 14643 H 1330.43 4.36558 -2.11057 0
M  V30 14644 N 1331.77 0.549846 1.47697 0
M  V30 14645 C 1333.18 0.11453 1.86348 0
M  V30 14646 C 1333.53 -1.31368 1.45729 0
M  V30 14647 O 1332.66 -1.98707 0.856989 0
M  V30 14648 C 1333.25 0.201072 3.38203 0
M  V30 14649 C 1331.81 -0.179162 3.75973 0
M  V30 14650 C 1330.96 0.551951 2.71751 0
M  V30 14651 H 1333.91 0.759989 1.39319 0
M  V30 14652 H 1333.93 -0.582216 3.76019 0
M  V30 14653 H 1333.44 1.24065 3.67736 0
M  V30 14654 H 1331.54 -1.22013 3.52056 0
M  V30 14655 H 1331.65 0.174273 4.78783 0
M  V30 14656 H 1330.02 -0.00411819 2.547 0
M  V30 14657 H 1330.8 1.59254 3.04127 0
M  V30 14658 N 1333.25 -1.54984 0.285932 0
M  V30 14659 C 1334.66 -1.85519 -0.209707 0
M  V30 14660 C 1335.01 -1.20794 -1.54606 0
M  V30 14661 O 1334.13 -0.500159 -2.10541 0
M  V30 14662 C 1334.73 -3.36579 -0.387283 0
M  V30 14663 C 1333.29 -3.67199 -0.827148 0
M  V30 14664 C 1332.43 -2.77203 0.073308 0
M  V30 14665 H 1335.39 -1.5037 0.507404 0
M  V30 14666 H 1335.41 -3.60269 -1.2242 0
M  V30 14667 H 1334.92 -3.83658 0.585493 0
M  V30 14668 H 1333.02 -3.25627 -1.81101 0
M  V30 14669 H 1333.13 -4.74574 -0.656976 0
M  V30 14670 H 1331.5 -2.50785 -0.444859 0
M  V30 14671 H 1332.28 -3.27099 1.04216 0
M  V30 14672 N 1334.72 -0.0133892 -1.57594 0
M  V30 14673 C 1335.63 0.989701 -2.12702 0
M  V30 14674 C 1336.65 1.36785 -1.07545 0
M  V30 14675 O 1337.83 1.45246 -1.39519 0
M  V30 14676 C 1334.89 2.2586 -2.63036 0
M  V30 14677 C 1333.95 1.94234 -3.82847 0
M  V30 14678 C 1333.19 3.15075 -4.30771 0
M  V30 14679 O 1333.41 4.27212 -3.7795 0
M  V30 14680 O 1332.34 2.98291 -5.22787 0
M  V30 14681 H 1336.17 0.551194 -2.98656 0
M  V30 14682 H 1333.75 0.206264 -1.47969 0
M  V30 14683 H 1335.64 3.0038 -2.9555 0
M  V30 14684 H 1334.31 2.68923 -1.80173 0
M  V30 14685 H 1333.22 1.17148 -3.55285 0
M  V30 14686 H 1334.55 1.55999 -4.66824 0
M  V30 14687 N 1336.2 1.55448 0.259558 0
M  V30 14688 C 1337.45 1.76337 0.987396 0
M  V30 14689 C 1337.77 0.57505 1.86328 0
M  V30 14690 O 1337.04 -0.409621 1.9157 0
M  V30 14691 H 1335.62 0.650312 0.367565 0
M  V30 14692 H 1338.28 1.9287 0.280551 0
M  V30 14693 H 1337.38 2.66975 1.61651 0
M  V30 14694 N 1337.68 -0.524672 1.4861 0
M  V30 14695 C 1338.91 -1.30292 1.60335 0
M  V30 14696 C 1339.32 -1.87338 0.264774 0
M  V30 14697 O 1338.66 -1.67388 -0.756756 0
M  V30 14698 C 1338.72 -2.48809 2.59488 0
M  V30 14699 C 1338.39 -2.12811 4.04426 0
M  V30 14700 C 1339.38 -1.68171 4.9195 0
M  V30 14701 C 1337.07 -2.23171 4.5 0
M  V30 14702 C 1339.06 -1.34363 6.23077 0
M  V30 14703 C 1336.75 -1.88975 5.81147 0
M  V30 14704 C 1337.75 -1.44643 6.67508 0
M  V30 14705 O 1337.44 -1.10898 7.96214 0
M  V30 14706 H 1337.17 -0.402288 0.543268 0
M  V30 14707 H 1339.72 -0.63908 1.95205 0
M  V30 14708 H 1337.95 -3.18192 2.19751 0
M  V30 14709 H 1339.64 -3.10866 2.60992 0
M  V30 14710 H 1340.41 -1.59632 4.57977 0
M  V30 14711 H 1336.29 -2.56632 3.82963 0
M  V30 14712 H 1339.83 -0.996875 6.90441 0
M  V30 14713 H 1335.73 -1.97156 6.14654 0
M  V30 14714 H 1336.5 -1.2425 8.09014 0
M  V30 14715 N 1339.16 -1.37287 -0.77395 0
M  V30 14716 C 1340.4 -1.3257 -1.5347 0
M  V30 14717 C 1340.74 0.090346 -1.9399 0
M  V30 14718 O 1340.01 1.04719 -1.63903 0
M  V30 14719 C 1340.3 -2.26277 -2.80126 0
M  V30 14720 C 1340.15 -3.76651 -2.45874 0
M  V30 14721 C 1341.47 -2.18471 -3.82045 0
M  V30 14722 H 1338.59 -0.48289 -0.556764 0
M  V30 14723 H 1341.23 -1.6797 -0.888039 0
M  V30 14724 H 1339.38 -1.96219 -3.35306 0
M  V30 14725 H 1341.05 -4.17296 -1.96626 0
M  V30 14726 H 1339.29 -3.95327 -1.78602 0
M  V30 14727 H 1339.96 -4.3765 -3.36403 0
M  V30 14728 H 1342.44 -2.44962 -3.36352 0
M  V30 14729 H 1341.32 -2.86183 -4.68392 0
M  V30 14730 H 1341.58 -1.17692 -4.26147 0
M  V30 14731 N 1340.64 0.999871 -1.21821 0
M  V30 14732 C 1341.88 1.74098 -1.04009 0
M  V30 14733 C 1342.22 1.89499 0.424716 0
M  V30 14734 O 1341.49 1.43306 1.31505 0
M  V30 14735 C 1341.77 3.1506 -1.74382 0
M  V30 14736 C 1341.63 3.0735 -3.28414 0
M  V30 14737 C 1342.95 4.1409 -1.49055 0
M  V30 14738 H 1340.06 0.631935 -0.379245 0
M  V30 14739 H 1342.71 1.16534 -1.50066 0
M  V30 14740 H 1340.86 3.64206 -1.35227 0
M  V30 14741 H 1342.53 2.65879 -3.76969 0
M  V30 14742 H 1340.77 2.44325 -3.58452 0
M  V30 14743 H 1341.44 4.07069 -3.72825 0
M  V30 14744 H 1343.92 3.73672 -1.83054 0
M  V30 14745 H 1342.79 5.10853 -2.008 0
M  V30 14746 H 1343.06 4.40085 -0.421641 0
M  V30 14747 N 1342.11 1.02678 1.19562 0
M  V30 14748 C 1343.36 0.723086 1.89471 0
M  V30 14749 C 1343.69 -0.746269 1.79289 0
M  V30 14750 O 1342.97 -1.54322 1.18384 0
M  V30 14751 C 1343.25 1.17224 3.40486 0
M  V30 14752 C 1343.1 2.70266 3.5955 0
M  V30 14753 C 1344.42 0.751397 4.33638 0
M  V30 14754 H 1341.54 0.264155 0.688034 0
M  V30 14755 H 1344.18 1.27633 1.40747 0
M  V30 14756 H 1342.33 0.701544 3.82113 0
M  V30 14757 H 1344.01 3.25266 3.27108 0
M  V30 14758 H 1342.25 3.10758 3.02675 0
M  V30 14759 H 1342.92 2.96748 4.65451 0
M  V30 14760 H 1345.4 1.15621 3.99714 0
M  V30 14761 H 1344.27 1.09358 5.37896 0
M  V30 14762 H 1344.53 -0.346367 4.40741 0
M  V30 14763 N 1343.59 -1.35528 0.804364 0
M  V30 14764 C 1344.84 -1.99126 0.384261 0
M  V30 14765 C 1345.17 -1.63668 -1.0453 0
M  V30 14766 O 1344.45 -0.898896 -1.72482 0
M  V30 14767 C 1344.73 -3.55636 0.565278 0
M  V30 14768 C 1344.58 -4.00899 2.03961 0
M  V30 14769 C 1345.9 -4.40099 -0.0104301 0
M  V30 14770 H 1343.02 -0.723369 0.141092 0
M  V30 14771 H 1345.66 -1.60712 1.01348 0
M  V30 14772 H 1343.81 -3.88489 0.0296425 0
M  V30 14773 H 1345.48 -3.78465 2.63746 0
M  V30 14774 H 1343.73 -3.5189 2.53685 0
M  V30 14775 H 1344.4 -5.09785 2.11716 0
M  V30 14776 H 1346.87 -4.13692 0.446985 0
M  V30 14777 H 1345.75 -5.48705 0.146155 0
M  V30 14778 H 1346.01 -4.28096 -1.10392 0
M  V30 14779 N 1345.07 -0.557671 -1.47404 0
M  V30 14780 C 1346.02 0.189765 -2.30019 0
M  V30 14781 C 1346.99 0.907923 -1.3909 0
M  V30 14782 O 1348.17 0.903528 -1.68051 0
M  V30 14783 C 1345.31 1.21348 -3.23061 0
M  V30 14784 C 1344.43 0.501343 -4.29081 0
M  V30 14785 C 1343.56 1.51039 -5.09275 0
M  V30 14786 C 1342.6 0.783254 -6.07068 0
M  V30 14787 N 1341.74 1.73916 -6.80219 0
M  V30 14788 H 1346.58 -0.520856 -2.93413 0
M  V30 14789 H 1344.11 -0.268686 -1.44625 0
M  V30 14790 H 1346.07 1.81961 -3.75428 0
M  V30 14791 H 1344.7 1.89213 -2.61531 0
M  V30 14792 H 1343.75 -0.219317 -3.79767 0
M  V30 14793 H 1345.07 -0.0682656 -4.98753 0
M  V30 14794 H 1344.22 2.19004 -5.65793 0
M  V30 14795 H 1342.96 2.11392 -4.39505 0
M  V30 14796 H 1341.96 0.0896883 -5.49727 0
M  V30 14797 H 1343.19 0.185464 -6.78847 0
M  V30 14798 H 1341.14 2.33125 -6.13179 0
M  V30 14799 H 1341.05 1.22171 -7.46063 0
M  V30 14800 H 1342.32 2.40993 -7.41311 0
M  V30 14801 N 1346.55 1.54831 -0.294147 0
M  V30 14802 C 1347.5 2.24707 0.600795 0
M  V30 14803 C 1348.49 1.25067 1.14257 0
M  V30 14804 O 1349.7 1.42939 1.094 0
M  V30 14805 H 1346.07 0.721399 0.212338 0
M  V30 14806 H 1348.04 2.98398 -0.0111682 0
M  V30 14807 C 1346.79 2.996 1.76451 0
M  V30 14808 H 1346.12 3.76072 1.35684 0
M  V30 14809 H 1347.56 3.51785 2.36692 0
M  V30 14810 C 1346.01 2.0617 2.6645 0
M  V30 14811 O 1346.54 1.62527 3.67353 0
M  V30 14812 N 1344.75 1.7227 2.34033 0
M  V30 14813 H 1344.3 2.07957 1.52025 0
M  V30 14814 H 1344.26 1.10031 2.94518 0
M  V30 14815 N 1348.03 0.0217466 1.57585 0
M  V30 14816 C 1349.27 -0.659463 1.91778 0
M  V30 14817 C 1349.61 -1.72201 0.897801 0
M  V30 14818 O 1348.88 -1.94333 -0.080509 0
M  V30 14819 C 1349.16 -1.28269 3.36481 0
M  V30 14820 C 1349.02 -0.230201 4.49211 0
M  V30 14821 C 1350.34 -2.20279 3.81005 0
M  V30 14822 H 1347.46 -0.238263 0.697424 0
M  V30 14823 H 1350.1 0.0774967 1.89842 0
M  V30 14824 H 1348.25 -1.9108 3.38262 0
M  V30 14825 H 1349.92 0.399901 4.59563 0
M  V30 14826 H 1348.16 0.445157 4.3151 0
M  V30 14827 H 1348.83 -0.705732 5.4747 0
M  V30 14828 H 1351.31 -1.67463 3.80914 0
M  V30 14829 H 1350.19 -2.60842 4.82962 0
M  V30 14830 H 1350.45 -3.09092 3.16093 0
M  V30 14831 N 1349.51 -1.55583 -0.251311 0
M  V30 14832 C 1350.75 -1.76859 -0.978031 0
M  V30 14833 C 1351.07 -0.584924 -1.86021 0
M  V30 14834 O 1350.34 0.399456 -1.91784 0
M  V30 14835 H 1348.92 -0.652252 -0.364111 0
M  V30 14836 H 1351.59 -1.93016 -0.270319 0
M  V30 14837 H 1350.68 -2.67828 -1.60233 0
M  V30 14838 N 1350.98 0.516783 -1.48886 0
M  V30 14839 C 1351.91 1.62897 -1.67292 0
M  V30 14840 C 1352.89 1.61903 -0.521671 0
M  V30 14841 O 1354.08 1.78892 -0.755728 0
M  V30 14842 C 1351.21 3.01444 -1.72478 0
M  V30 14843 C 1350.16 3.173 -2.87236 0
M  V30 14844 C 1349.49 4.5704 -2.77522 0
M  V30 14845 C 1350.79 2.98818 -4.28375 0
M  V30 14846 H 1352.48 1.47748 -2.60405 0
M  V30 14847 H 1350.03 0.709361 -1.25316 0
M  V30 14848 H 1351.98 3.79135 -1.83942 0
M  V30 14849 H 1350.71 3.17645 -0.759538 0
M  V30 14850 H 1349.37 2.4203 -2.75349 0
M  V30 14851 H 1349.01 4.70096 -1.78938 0
M  V30 14852 H 1348.71 4.68593 -3.54534 0
M  V30 14853 H 1350.24 5.36813 -2.90972 0
M  V30 14854 H 1351.65 3.66291 -4.41026 0
M  V30 14855 H 1350.05 3.21854 -5.06488 0
M  V30 14856 H 1351.12 1.95102 -4.43918 0
M  V30 14857 N 1352.46 1.37696 0.766659 0
M  V30 14858 C 1353.69 1.3639 1.55581 0
M  V30 14859 C 1354.1 -0.0495272 1.88735 0
M  V30 14860 O 1353.46 -1.01268 1.51826 0
M  V30 14861 C 1353.51 2.20717 2.86298 0
M  V30 14862 O 1353.23 3.56552 2.54563 0
M  V30 14863 C 1354.73 2.27446 3.80504 0
M  V30 14864 H 1351.95 0.466993 0.481828 0
M  V30 14865 H 1354.5 1.81103 0.949834 0
M  V30 14866 H 1352.65 1.79499 3.43306 0
M  V30 14867 H 1353.07 4.00811 3.38306 0
M  V30 14868 H 1354.54 2.90762 4.69214 0
M  V30 14869 H 1355.02 1.28434 4.20002 0
M  V30 14870 H 1355.62 2.68998 3.29424 0
M  V30 14871 N 1353.94 -0.993397 1.22349 0
M  V30 14872 C 1354.87 -2.10171 1.01737 0
M  V30 14873 C 1355.85 -1.69989 -0.0615276 0
M  V30 14874 O 1357.04 -1.93939 0.100591 0
M  V30 14875 C 1354.17 -3.42186 0.593801 0
M  V30 14876 C 1353.12 -3.96215 1.61858 0
M  V30 14877 C 1352.45 -5.24272 1.05086 0
M  V30 14878 C 1353.75 -4.26956 3.00842 0
M  V30 14879 H 1355.44 -2.27673 1.94436 0
M  V30 14880 H 1352.99 -1.09408 0.936258 0
M  V30 14881 H 1354.94 -4.19131 0.436715 0
M  V30 14882 H 1353.66 -3.2451 -0.368855 0
M  V30 14883 H 1352.32 -3.21401 1.76343 0
M  V30 14884 H 1351.97 -5.02937 0.0795747 0
M  V30 14885 H 1351.67 -5.61387 1.73547 0
M  V30 14886 H 1353.19 -6.03851 0.905349 0
M  V30 14887 H 1354.61 -4.94699 2.89734 0
M  V30 14888 H 1353 -4.75242 3.66422 0
M  V30 14889 H 1354.07 -3.34752 3.50812 0
M  V30 14890 N 1355.42 -1.03311 -1.19015 0
M  V30 14891 C 1356.83 -0.750946 -1.4083 0
M  V30 14892 C 1357.03 0.662704 -1.90291 0
M  V30 14893 O 1356.09 1.42806 -2.08237 0
M  V30 14894 C 1357.4 -1.79064 -2.41571 0
M  V30 14895 C 1358.95 -1.81068 -2.55311 0
M  V30 14896 C 1359.43 -2.84008 -3.59309 0
M  V30 14897 N 1360.92 -2.82852 -3.6681 0
M  V30 14898 C 1361.65 -3.59156 -4.46984 0
M  V30 14899 N 1361.15 -4.45188 -5.30829 0
M  V30 14900 N 1362.94 -3.47679 -4.41674 0
M  V30 14901 H 1355.09 -1.94548 -0.852329 0
M  V30 14902 H 1357.35 -0.841344 -0.436858 0
M  V30 14903 H 1357.06 -2.80425 -2.12261 0
M  V30 14904 H 1356.93 -1.61646 -3.40809 0
M  V30 14905 H 1359.32 -0.803825 -2.83941 0
M  V30 14906 H 1359.4 -2.02562 -1.56212 0
M  V30 14907 H 1359.05 -3.84867 -3.3142 0
M  V30 14908 H 1358.98 -2.59771 -4.58069 0
M  V30 14909 H 1361.47 -2.20457 -3.06932 0
M  V30 14910 H 1361.78 -5.00139 -5.89135 0
M  V30 14911 H 1360.13 -4.49259 -5.30275 0
M  V30 14912 H 1363.32 -2.79876 -3.75216 0
M  V30 14913 H 1363.49 -4.07396 -5.03917 0
M  V30 14914 N 1356.9 1.35099 -0.81154 0
M  V30 14915 C 1357.84 2.29717 -0.223372 0
M  V30 14916 C 1358.81 1.53049 0.645396 0
M  V30 14917 O 1360 1.81467 0.589436 0
M  V30 14918 C 1357.14 3.3952 0.618057 0
M  V30 14919 C 1356.25 4.31145 -0.271693 0
M  V30 14920 C 1355.39 5.28044 0.578214 0
M  V30 14921 C 1354.42 6.11306 -0.311628 0
M  V30 14922 N 1353.56 7.00328 0.498539 0
M  V30 14923 H 1358.4 2.79426 -1.03563 0
M  V30 14924 H 1355.94 1.37518 -0.522231 0
M  V30 14925 H 1357.9 4.01854 1.12111 0
M  V30 14926 H 1356.53 2.91075 1.39554 0
M  V30 14927 H 1355.58 3.69773 -0.892885 0
M  V30 14928 H 1356.89 4.89545 -0.956392 0
M  V30 14929 H 1356.04 5.95774 1.1462 0
M  V30 14930 H 1354.78 4.70152 1.29646 0
M  V30 14931 H 1353.79 5.42518 -0.891849 0
M  V30 14932 H 1355.01 6.71277 -1.02781 0
M  V30 14933 H 1352.96 6.44919 1.20067 0
M  V30 14934 H 1352.88 7.55892 -0.12801 0
M  V30 14935 H 1354.14 7.72401 1.04965 0
M  V30 14936 N 1358.37 0.56548 1.47106 0
M  V30 14937 C 1359.3 -0.16567 2.32912 0
M  V30 14938 C 1360.28 -0.900678 1.44298 0
M  V30 14939 O 1361.47 -0.879523 1.73142 0
M  V30 14940 C 1358.6 -1.19092 3.26243 0
M  V30 14941 C 1357.55 -0.571849 4.24163 0
M  V30 14942 C 1356.88 -1.70233 5.06878 0
M  V30 14943 C 1358.18 0.479785 5.20092 0
M  V30 14944 H 1359.87 0.550705 2.94292 0
M  V30 14945 H 1357.42 0.266284 1.41517 0
M  V30 14946 H 1359.37 -1.71064 3.85117 0
M  V30 14947 H 1358.1 -1.93734 2.62934 0
M  V30 14948 H 1356.76 -0.073353 3.66527 0
M  V30 14949 H 1356.4 -2.438 4.39967 0
M  V30 14950 H 1356.1 -1.29384 5.73178 0
M  V30 14951 H 1357.63 -2.22515 5.68612 0
M  V30 14952 H 1359.04 0.0458042 5.73282 0
M  V30 14953 H 1357.44 0.807615 5.94641 0
M  V30 14954 H 1358.51 1.37259 4.65068 0
M  V30 14955 N 1359.85 -1.54672 0.302354 0
M  V30 14956 C 1361.1 -1.99345 -0.307307 0
M  V30 14957 C 1361.41 -1.19437 -1.549 0
M  V30 14958 O 1362.62 -1.54384 -2.23334 0
M  V30 14959 C 1361.08 -3.54896 -0.59808 0
M  V30 14960 C 1360.68 -4.43614 0.625357 0
M  V30 14961 C 1362.43 -4.08091 -1.16886 0
M  V30 14962 C 1360.34 -5.90599 0.307661 0
M  V30 14963 H 1359.27 -0.744614 -0.118603 0
M  V30 14964 H 1361.92 -1.78832 0.411271 0
M  V30 14965 H 1360.3 -3.71314 -1.37629 0
M  V30 14966 H 1361.47 -4.38969 1.40152 0
M  V30 14967 H 1359.79 -4.01198 1.11487 0
M  V30 14968 H 1362.38 -5.15477 -1.42082 0
M  V30 14969 H 1362.73 -3.58775 -2.11155 0
M  V30 14970 H 1363.26 -3.9522 -0.452329 0
M  V30 14971 H 1360 -6.44067 1.21895 0
M  V30 14972 H 1359.52 -5.98248 -0.431208 0
M  V30 14973 H 1361.2 -6.46937 -0.0902796 0
M  V30 14974 N 1361.33 -0.0301034 -1.57571 0
M  V30 14975 C 1362.58 0.647042 -1.91462 0
M  V30 14976 C 1362.9 1.72612 -0.907206 0
M  V30 14977 O 1362.17 1.95833 0.0511268 0
M  V30 14978 H 1360.75 0.241988 -0.706718 0
M  V30 14979 H 1363.41 -0.0781385 -1.94743 0
M  V30 14980 H 1362.51 1.09915 -2.92105 0
M  V30 14981 N 1362.81 1.55714 0.243056 0
M  V30 14982 C 1364.03 1.82126 0.992219 0
M  V30 14983 C 1364.46 0.607665 1.78014 0
M  V30 14984 O 1363.82 -0.443351 1.75796 0
M  V30 14985 C 1363.86 3.06314 1.90274 0
M  V30 14986 O 1362.97 2.83499 2.99503 0
M  V30 14987 H 1362.31 0.601082 0.282128 0
M  V30 14988 H 1364.84 2.02904 0.262881 0
M  V30 14989 H 1364.85 3.35849 2.31666 0
M  V30 14990 H 1363.52 3.94282 1.32344 0
M  V30 14991 H 1362.1 2.65141 2.62211 0
M  V30 14992 N 1364.29 -0.50888 1.49158 0
M  V30 14993 C 1365.53 -1.26537 1.58481 0
M  V30 14994 C 1365.87 -1.92353 0.267168 0
M  V30 14995 O 1365.14 -1.80336 -0.728639 0
M  V30 14996 C 1365.42 -2.33846 2.73839 0
M  V30 14997 C 1365.28 -1.72582 4.15374 0
M  V30 14998 C 1366.6 -3.35467 2.84868 0
M  V30 14999 H 1363.71 -0.458697 0.576859 0
M  V30 15000 H 1366.36 -0.564728 1.81413 0
M  V30 15001 H 1364.51 -2.93605 2.54417 0
M  V30 15002 H 1366.18 -1.16711 4.46292 0
M  V30 15003 H 1364.42 -1.03025 4.21389 0
M  V30 15004 H 1365.09 -2.5038 4.91949 0
M  V30 15005 H 1367.57 -2.85689 3.02524 0
M  V30 15006 H 1366.44 -4.07922 3.67275 0
M  V30 15007 H 1366.71 -3.97313 1.93894 0
M  V30 15008 N 1365.76 -1.381 -0.759346 0
M  V30 15009 C 1367.04 -1.24517 -1.50847 0
M  V30 15010 C 1367.42 0.155929 -2.10523 0
M  V30 15011 O 1366.77 1.16485 -1.96579 0
M  V30 15012 C 1366.98 -2.35086 -2.57945 0
M  V30 15013 C 1368.33 -2.73232 -3.25007 0
M  V30 15014 O 1369.35 -2.34355 -2.68247 0
M  V30 15015 O 1368.21 -3.40254 -4.27656 0
M  V30 15016 H 1365.3 -0.486599 -0.668693 0
M  V30 15017 H 1367.85 -1.49913 -0.795249 0
M  V30 15018 H 1366.62 -3.28858 -2.12056 0
M  V30 15019 H 1366.25 -2.11222 -3.36854 0
M  V30 15020 N 1367.24 0.986894 -1.22875 0
M  V30 15021 C 1368.52 1.70121 -0.965311 0
M  V30 15022 C 1368.9 2.04648 0.517924 0
M  V30 15023 O 1368.25 1.73453 1.48749 0
M  V30 15024 C 1368.46 2.94738 -1.86897 0
M  V30 15025 C 1369.81 3.6739 -2.12861 0
M  V30 15026 O 1370.83 3.04758 -1.84394 0
M  V30 15027 O 1369.69 4.8009 -2.61106 0
M  V30 15028 H 1366.78 0.742817 -0.363527 0
M  V30 15029 H 1369.33 1.0427 -1.33887 0
M  V30 15030 H 1368.1 2.65771 -2.87196 0
M  V30 15031 H 1367.72 3.68327 -1.49736 0
M  V30 15032 N 1368.72 1.0394 1.18466 0
M  V30 15033 C 1369.65 0.650182 2.24265 0
M  V30 15034 C 1370.63 -0.345968 1.66545 0
M  V30 15035 O 1371.82 -0.226348 1.92876 0
M  V30 15036 C 1368.95 0.0110451 3.47298 0
M  V30 15037 C 1367.9 0.930599 4.17761 0
M  V30 15038 C 1367.23 0.156005 5.34472 0
M  V30 15039 C 1368.53 2.24913 4.71393 0
M  V30 15040 H 1370.22 1.53465 2.57078 0
M  V30 15041 H 1367.77 0.739343 1.23571 0
M  V30 15042 H 1369.72 -0.272959 4.20515 0
M  V30 15043 H 1368.44 -0.908288 3.13716 0
M  V30 15044 H 1367.1 1.19897 3.4644 0
M  V30 15045 H 1366.75 -0.765695 4.97138 0
M  V30 15046 H 1366.45 0.768606 5.82551 0
M  V30 15047 H 1367.97 -0.121011 6.1048 0
M  V30 15048 H 1369.39 2.02592 5.36311 0
M  V30 15049 H 1367.79 2.81459 5.30001 0
M  V30 15050 H 1368.86 2.8965 3.88884 0
M  V30 15051 N 1370.2 -1.34667 0.818693 0
M  V30 15052 C 1371.13 -2.32134 0.252239 0
M  V30 15053 C 1372.11 -1.58044 -0.628982 0
M  V30 15054 O 1373.29 -1.86049 -0.55674 0
M  V30 15055 C 1370.42 -3.42249 -0.590183 0
M  V30 15056 C 1369.38 -4.27562 0.193547 0
M  V30 15057 C 1368.7 -5.29107 -0.771349 0
M  V30 15058 C 1370 -5.03205 1.39936 0
M  V30 15059 H 1371.7 -2.79758 1.06657 0
M  V30 15060 H 1369.24 -1.34502 0.514325 0
M  V30 15061 H 1371.2 -4.09445 -0.996616 0
M  V30 15062 H 1369.92 -2.93262 -1.43752 0
M  V30 15063 H 1368.58 -3.61962 0.581297 0
M  V30 15064 H 1368.23 -4.76384 -1.61453 0
M  V30 15065 H 1367.93 -5.87063 -0.251201 0
M  V30 15066 H 1369.45 -5.99174 -1.17573 0
M  V30 15067 H 1370.87 -5.6328 1.06717 0
M  V30 15068 H 1369.26 -5.70715 1.85485 0
M  V30 15069 H 1370.33 -4.33145 2.17976 0
M  V30 15070 N 1371.68 -0.573274 -1.46804 0
M  V30 15071 C 1373.09 -0.144162 -1.86143 0
M  V30 15072 C 1373.44 1.29033 -1.47801 0
M  V30 15073 O 1372.56 1.97319 -0.888494 0
M  V30 15074 C 1373.16 -0.254851 -3.3784 0
M  V30 15075 C 1371.72 0.119325 -3.76211 0
M  V30 15076 C 1370.86 -0.595115 -2.70839 0
M  V30 15077 H 1373.82 -0.782057 -1.38093 0
M  V30 15078 H 1373.84 0.522321 -3.76898 0
M  V30 15079 H 1373.35 -1.29899 -3.65715 0
M  V30 15080 H 1371.45 1.16396 -3.53953 0
M  V30 15081 H 1371.56 -0.250421 -4.78445 0
M  V30 15082 H 1369.93 -0.0364028 -2.54674 0
M  V30 15083 H 1370.71 -1.64072 -3.01555 0
M  V30 15084 N 1373.15 1.5451 -0.310553 0
M  V30 15085 C 1374.38 2.05204 0.301013 0
M  V30 15086 C 1374.8 1.1859 1.46007 0
M  V30 15087 O 1374.16 0.192081 1.8028 0
M  V30 15088 C 1374.21 3.53221 0.725767 0
M  V30 15089 O 1373.31 3.69596 1.82955 0
M  V30 15090 H 1372.66 0.661566 0.0568026 0
M  V30 15091 H 1375.19 1.99473 -0.455178 0
M  V30 15092 H 1375.2 3.9525 1.01198 0
M  V30 15093 H 1373.87 4.15721 -0.122046 0
M  V30 15094 H 1372.45 3.39472 1.54315 0
M  V30 15095 N 1374.63 0.0384594 1.57553 0
M  V30 15096 C 1375.56 -0.938444 2.13812 0
M  V30 15097 C 1376.54 -1.33307 1.05657 0
M  V30 15098 O 1377.73 -1.41003 1.33535 0
M  V30 15099 C 1374.86 -2.21764 2.67279 0
M  V30 15100 C 1373.81 -1.96347 3.80305 0
M  V30 15101 C 1373.14 -3.30612 4.20238 0
M  V30 15102 C 1374.44 -1.2952 5.05986 0
M  V30 15103 H 1376.13 -0.469887 2.9569 0
M  V30 15104 H 1373.68 -0.224576 1.42238 0
M  V30 15105 H 1375.63 -2.90493 3.05273 0
M  V30 15106 H 1374.36 -2.70802 1.82576 0
M  V30 15107 H 1373.02 -1.30033 3.42764 0
M  V30 15108 H 1372.66 -3.77427 3.32502 0
M  V30 15109 H 1372.36 -3.14409 4.96408 0
M  V30 15110 H 1373.89 -4.00594 4.60822 0
M  V30 15111 H 1375.3 -1.88264 5.41507 0
M  V30 15112 H 1373.7 -1.23685 5.87216 0
M  V30 15113 H 1374.77 -0.269439 4.84151 0
M  V30 15114 N 1376.11 -1.55841 -0.234795 0
M  V30 15115 C 1377.52 -1.68555 -0.802886 0
M  V30 15116 C 1377.87 -0.638107 -1.85533 0
M  V30 15117 O 1377 0.21333 -2.15346 0
M  V30 15118 C 1377.59 -3.0558 -1.46309 0
M  V30 15119 C 1376.15 -3.20192 -1.97874 0
M  V30 15120 C 1375.3 -2.64457 -0.834136 0
M  V30 15121 H 1378.25 -1.58697 -0.0103759 0
M  V30 15122 H 1378.27 -3.007 -2.33152 0
M  V30 15123 H 1377.78 -3.81792 -0.696868 0
M  V30 15124 H 1375.88 -2.48825 -2.77339 0
M  V30 15125 H 1376 -4.27251 -2.1678 0
M  V30 15126 H 1374.36 -2.22593 -1.23791 0
M  V30 15127 H 1375.14 -3.43205 -0.0807988 0
M  V30 15128 N 1377.59 0.500963 -1.49426 0
M  V30 15129 C 1378.81 1.28383 -1.62888 0
M  V30 15130 C 1379.24 1.85688 -0.300262 0
M  V30 15131 O 1378.6 1.6586 0.73212 0
M  V30 15132 C 1378.65 2.38987 -2.70033 0
M  V30 15133 O 1377.75 3.42837 -2.29208 0
M  V30 15134 H 1377.09 0.379012 -0.545202 0
M  V30 15135 H 1379.62 0.59971 -1.95613 0
M  V30 15136 H 1379.63 2.84749 -2.92202 0
M  V30 15137 H 1378.31 1.96643 -3.66475 0
M  V30 15138 H 1376.88 3.02993 -2.1737 0
M  V30 15139 N 1379.07 1.38501 0.752011 0
M  V30 15140 C 1380.29 1.38212 1.54636 0
M  V30 15141 C 1380.72 -0.0256356 1.88083 0
M  V30 15142 O 1380.08 -1.00812 1.50687 0
M  V30 15143 C 1380.12 2.24597 2.82114 0
M  V30 15144 O 1379.23 1.66415 3.77332 0
M  V30 15145 H 1378.57 0.47138 0.46765 0
M  V30 15146 H 1381.1 1.82283 0.929205 0
M  V30 15147 H 1381.11 2.38511 3.31023 0
M  V30 15148 H 1379.78 3.26913 2.57101 0
M  V30 15149 H 1378.36 1.61651 3.36041 0
M  V30 15150 N 1380.55 -0.980364 1.23396 0
M  V30 15151 C 1381.77 -1.76223 1.09363 0
M  V30 15152 C 1382.2 -1.84801 -0.350759 0
M  V30 15153 O 1381.55 -1.30966 -1.2537 0
M  V30 15154 C 1381.6 -3.16728 1.72383 0
M  V30 15155 O 1380.71 -4.00439 0.986002 0
M  V30 15156 H 1380.05 -0.542174 0.383332 0
M  V30 15157 H 1382.58 -1.23066 1.6345 0
M  V30 15158 H 1382.59 -3.67307 1.77623 0
M  V30 15159 H 1381.26 -3.098 2.77483 0
M  V30 15160 H 1379.84 -3.58946 1.01054 0
M  V30 15161 N 1382.02 -1.04567 -1.17913 0
M  V30 15162 C 1383.44 -0.76584 -1.40025 0
M  V30 15163 C 1383.64 0.642484 -1.90983 0
M  V30 15164 O 1382.7 1.40589 -2.0974 0
M  V30 15165 C 1384.01 -1.81616 -2.39658 0
M  V30 15166 C 1385.56 -1.83765 -2.53376 0
M  V30 15167 C 1386.03 -2.87803 -3.56277 0
M  V30 15168 N 1387.52 -2.86726 -3.63789 0
M  V30 15169 C 1388.26 -3.63876 -4.4315 0
M  V30 15170 N 1387.75 -4.50793 -5.26077 0
M  V30 15171 N 1389.55 -3.52344 -4.37962 0
M  V30 15172 H 1381.7 -1.95442 -0.831647 0
M  V30 15173 H 1383.96 -0.84593 -0.42791 0
M  V30 15174 H 1383.67 -2.8266 -2.09275 0
M  V30 15175 H 1383.54 -1.65251 -3.39075 0
M  V30 15176 H 1385.93 -0.833896 -2.83073 0
M  V30 15177 H 1386.01 -2.04208 -1.54055 0
M  V30 15178 H 1385.65 -3.88361 -3.2732 0
M  V30 15179 H 1385.58 -2.64614 -4.55288 0
M  V30 15180 H 1388.07 -2.237 -3.04576 0
M  V30 15181 H 1388.39 -5.0636 -5.83798 0
M  V30 15182 H 1386.73 -4.54858 -5.2548 0
M  V30 15183 H 1389.92 -2.8384 -3.72226 0
M  V30 15184 H 1390.1 -4.12718 -4.99568 0
M  V30 15185 N 1383.5 1.34231 -0.825823 0
M  V30 15186 C 1384.73 2.02417 -0.428348 0
M  V30 15187 C 1385.14 1.62181 0.966573 0
M  V30 15188 O 1384.5 0.828691 1.62601 0
M  V30 15189 C 1384.55 3.57678 -0.524271 0
M  V30 15190 O 1384.27 3.96458 -1.86422 0
M  V30 15191 C 1385.77 4.43132 -0.122069 0
M  V30 15192 H 1382.99 0.648699 -0.171554 0
M  V30 15193 H 1385.54 1.71443 -1.11478 0
M  V30 15194 H 1383.69 3.87232 0.114112 0
M  V30 15195 H 1384.11 4.91147 -1.84051 0
M  V30 15196 H 1385.58 5.51477 -0.240264 0
M  V30 15197 H 1386.06 4.29139 0.934705 0
M  V30 15198 H 1386.66 4.18912 -0.734366 0
M  V30 15199 N 1384.98 0.581051 1.46498 0
M  V30 15200 C 1385.89 -0.155669 2.34083 0
M  V30 15201 C 1386.91 -0.887728 1.49651 0
M  V30 15202 O 1388.08 -0.851284 1.82524 0
M  V30 15203 C 1385.15 -1.15752 3.26806 0
M  V30 15204 C 1384.21 -0.43031 4.27138 0
M  V30 15205 C 1383.44 -1.38443 5.15431 0
M  V30 15206 O 1383.66 -2.62084 5.06624 0
M  V30 15207 O 1382.6 -0.89592 5.95195 0
M  V30 15208 H 1386.42 0.56341 2.98428 0
M  V30 15209 H 1384.01 0.341466 1.45445 0
M  V30 15210 H 1385.89 -1.73523 3.84015 0
M  V30 15211 H 1384.57 -1.85809 2.65059 0
M  V30 15212 H 1383.47 0.1892 3.73621 0
M  V30 15213 H 1384.81 0.229263 4.91666 0
M  V30 15214 N 1386.46 -1.54343 0.318742 0
M  V30 15215 C 1387.71 -1.9966 -0.286146 0
M  V30 15216 C 1388.02 -1.21073 -1.53625 0
M  V30 15217 O 1389.23 -1.56744 -2.21684 0
M  V30 15218 C 1387.68 -3.5551 -0.560405 0
M  V30 15219 C 1387.29 -4.42926 0.672373 0
M  V30 15220 C 1389.03 -4.09307 -1.12551 0
M  V30 15221 C 1386.94 -5.9024 0.370285 0
M  V30 15222 H 1385.87 -0.74583 -0.110698 0
M  V30 15223 H 1388.52 -1.78386 0.430215 0
M  V30 15224 H 1386.9 -3.72753 -1.33683 0
M  V30 15225 H 1388.08 -4.37458 1.448 0
M  V30 15226 H 1386.39 -3.99993 1.15736 0
M  V30 15227 H 1388.99 -5.16955 -1.36607 0
M  V30 15228 H 1389.33 -3.60994 -2.07338 0
M  V30 15229 H 1389.87 -3.95677 -0.410385 0
M  V30 15230 H 1386.6 -6.42738 1.28719 0
M  V30 15231 H 1386.12 -5.98672 -0.367731 0
M  V30 15232 H 1387.8 -6.46996 -0.0216582 0
M  V30 15233 N 1387.94 -0.0468143 -1.5753 0
M  V30 15234 C 1388.85 0.944362 -2.14753 0
M  V30 15235 C 1389.86 1.34473 -1.10422 0
M  V30 15236 O 1391.04 1.42254 -1.42569 0
M  V30 15237 C 1388.1 2.2023 -2.67768 0
M  V30 15238 C 1387.16 1.8607 -3.8688 0
M  V30 15239 C 1386.4 3.05867 -4.37357 0
M  V30 15240 O 1386.62 4.19099 -3.86927 0
M  V30 15241 O 1385.55 2.87134 -5.28997 0
M  V30 15242 H 1389.38 0.48772 -2.99758 0
M  V30 15243 H 1386.96 0.174831 -1.48374 0
M  V30 15244 H 1388.85 2.94044 -3.01855 0
M  V30 15245 H 1387.52 2.65041 -1.85836 0
M  V30 15246 H 1386.43 1.09586 -3.5769 0
M  V30 15247 H 1387.76 1.46062 -4.70028 0
M  V30 15248 N 1389.41 1.55964 0.226527 0
M  V30 15249 C 1390.66 1.78392 0.94977 0
M  V30 15250 C 1390.98 0.614444 1.85066 0
M  V30 15251 O 1390.25 -0.368894 1.92395 0
M  V30 15252 H 1388.83 0.657962 0.353688 0
M  V30 15253 H 1391.5 1.93422 0.239577 0
M  V30 15254 H 1390.59 2.70343 1.55952 0
M  V30 15255 N 1390.89 -0.493031 1.4969 0
M  V30 15256 C 1392.12 -1.27046 1.633 0
M  V30 15257 C 1392.54 -1.86278 0.307534 0
M  V30 15258 O 1391.89 -1.68208 -0.707968 0
M  V30 15259 C 1391.94 -2.39501 2.70779 0
M  V30 15260 O 1391.66 -1.82702 3.98185 0
M  V30 15261 C 1393.17 -3.30744 2.95166 0
M  V30 15262 H 1390.39 -0.385042 0.54953 0
M  V30 15263 H 1392.93 -0.590998 1.95774 0
M  V30 15264 H 1391.08 -3.03263 2.41061 0
M  V30 15265 H 1391.5 -2.56588 4.57452 0
M  V30 15266 H 1392.97 -4.05912 3.74085 0
M  V30 15267 H 1393.45 -3.88217 2.05387 0
M  V30 15268 H 1394.06 -2.72741 3.26332 0
M  V30 15269 N 1392.37 -1.38898 -0.744656 0
M  V30 15270 C 1393.3 -1.32739 -1.8685 0
M  V30 15271 C 1394.32 -0.23793 -1.61052 0
M  V30 15272 O 1395.5 -0.496166 -1.71466 0
M  V30 15273 C 1392.6 -1.03602 -3.22676 0
M  V30 15274 C 1391.78 -2.23634 -3.75908 0
M  V30 15275 C 1390.84 -1.91103 -4.90271 0
M  V30 15276 O 1389.86 -2.6369 -5.04437 0
M  V30 15277 N 1391.06 -0.871358 -5.73923 0
M  V30 15278 H 1393.83 -2.29585 -1.92641 0
M  V30 15279 H 1391.39 -1.32875 -0.924979 0
M  V30 15280 H 1393.38 -0.798755 -3.96739 0
M  V30 15281 H 1391.95 -0.155218 -3.12214 0
M  V30 15282 H 1391.17 -2.63371 -2.93307 0
M  V30 15283 H 1392.46 -3.0372 -4.08205 0
M  V30 15284 H 1391.86 -0.269591 -5.65057 0
M  V30 15285 H 1390.42 -0.693984 -6.48095 0
M  V30 15286 N 1393.85 0.973806 -1.23914 0
M  V30 15287 C 1394.8 2.06734 -1.02614 0
M  V30 15288 C 1395.77 1.65997 0.0585705 0
M  V30 15289 O 1396.95 1.90564 -0.0948467 0
M  V30 15290 C 1394.09 3.39292 -0.630493 0
M  V30 15291 C 1393.2 3.9326 -1.78803 0
M  V30 15292 C 1392.34 5.14059 -1.33854 0
M  V30 15293 C 1391.38 5.60209 -2.46642 0
M  V30 15294 N 1390.51 6.72232 -2.02603 0
M  V30 15295 H 1395.35 2.24287 -1.96212 0
M  V30 15296 H 1392.89 1.09935 -0.977376 0
M  V30 15297 H 1394.85 4.15446 -0.382163 0
M  V30 15298 H 1393.48 3.21682 0.268483 0
M  V30 15299 H 1392.53 3.13801 -2.15019 0
M  V30 15300 H 1393.84 4.23475 -2.63573 0
M  V30 15301 H 1393 5.97567 -1.04873 0
M  V30 15302 H 1391.74 4.85513 -0.46131 0
M  V30 15303 H 1390.74 4.75278 -2.7639 0
M  V30 15304 H 1391.97 5.90771 -3.34912 0
M  V30 15305 H 1389.91 6.45433 -1.17269 0
M  V30 15306 H 1389.83 7.01865 -2.80929 0
M  V30 15307 H 1391.1 7.59198 -1.76745 0
M  V30 15308 N 1395.33 1.05191 1.17357 0
M  V30 15309 C 1396.26 0.673931 2.23563 0
M  V30 15310 C 1397.24 -0.328284 1.66902 0
M  V30 15311 O 1398.42 -0.205878 1.93106 0
M  V30 15312 C 1395.55 0.0478801 3.47267 0
M  V30 15313 C 1394.51 0.974855 4.1675 0
M  V30 15314 C 1393.83 0.212684 5.34277 0
M  V30 15315 C 1395.13 2.299 4.68981 0
M  V30 15316 H 1396.83 1.56183 2.55436 0
M  V30 15317 H 1394.37 0.752408 1.2278 0
M  V30 15318 H 1396.33 -0.228343 4.20781 0
M  V30 15319 H 1395.05 -0.874963 3.14662 0
M  V30 15320 H 1393.71 1.23564 3.45148 0
M  V30 15321 H 1393.36 -0.712924 4.97922 0
M  V30 15322 H 1393.06 0.830351 5.81703 0
M  V30 15323 H 1394.58 -0.056255 6.10574 0
M  V30 15324 H 1395.99 2.08269 5.34132 0
M  V30 15325 H 1394.39 2.87064 5.26986 0
M  V30 15326 H 1395.46 2.93759 3.8579 0
M  V30 15327 N 1396.8 -1.33791 0.83293 0
M  V30 15328 C 1397.73 -2.31853 0.276846 0
M  V30 15329 C 1398.72 -1.58702 -0.612184 0
M  V30 15330 O 1399.9 -1.86629 -0.536975 0
M  V30 15331 C 1397.03 -3.42855 -0.55385 0
M  V30 15332 C 1395.98 -4.27333 0.238884 0
M  V30 15333 C 1395.31 -5.29895 -0.715187 0
M  V30 15334 C 1396.61 -5.01692 1.45265 0
M  V30 15335 H 1398.3 -2.78611 1.09618 0
M  V30 15336 H 1395.85 -1.33949 0.528562 0
M  V30 15337 H 1397.8 -4.10479 -0.953133 0
M  V30 15338 H 1396.53 -2.94771 -1.40634 0
M  V30 15339 H 1395.19 -3.61325 0.619656 0
M  V30 15340 H 1394.83 -4.7807 -1.56391 0
M  V30 15341 H 1394.53 -5.87296 -0.188921 0
M  V30 15342 H 1396.06 -6.00387 -1.11211 0
M  V30 15343 H 1397.47 -5.62117 1.12685 0
M  V30 15344 H 1395.87 -5.68715 1.91528 0
M  V30 15345 H 1396.94 -4.30809 2.22558 0
M  V30 15346 N 1398.28 -0.588812 -1.46187 0
M  V30 15347 C 1399.23 0.153638 -2.32092 0
M  V30 15348 C 1400.22 0.878346 -1.4485 0
M  V30 15349 O 1401.43 0.796042 -1.61441 0
M  V30 15350 H 1397.81 0.0684129 -0.748882 0
M  V30 15351 H 1399.78 -0.58961 -2.92517 0
M  V30 15352 C 1398.53 1.15003 -3.28131 0
M  V30 15353 H 1397.85 0.601804 -3.95245 0
M  V30 15354 H 1399.29 1.6398 -3.91007 0
M  V30 15355 C 1397.75 2.21411 -2.53926 0
M  V30 15356 O 1398.28 3.28862 -2.30679 0
M  V30 15357 N 1396.48 1.96184 -2.14383 0
M  V30 15358 H 1396.03 1.08812 -2.3349 0
M  V30 15359 H 1395.99 2.6759 -1.65055 0
M  V30 15360 N 1399.76 1.54172 -0.326923 0
M  V30 15361 C 1400.71 2.24454 0.537501 0
M  V30 15362 C 1401.68 1.23658 1.10896 0
M  V30 15363 O 1402.86 1.52348 1.14868 0
M  V30 15364 C 1400 3.00839 1.69085 0
M  V30 15365 C 1399.12 4.16459 1.1483 0
M  V30 15366 C 1398.25 4.80368 2.26761 0
M  V30 15367 C 1397.29 5.88085 1.69771 0
M  V30 15368 N 1396.43 6.45842 2.75378 0
M  V30 15369 H 1401.27 2.97921 -0.0684022 0
M  V30 15370 H 1398.8 1.4703 -0.0455287 0
M  V30 15371 H 1400.76 3.43375 2.36959 0
M  V30 15372 H 1399.39 2.297 2.26799 0
M  V30 15373 H 1398.44 3.78683 0.361004 0
M  V30 15374 H 1399.76 4.93986 0.69132 0
M  V30 15375 H 1398.91 5.25889 3.02533 0
M  V30 15376 H 1397.65 4.02228 2.75796 0
M  V30 15377 H 1396.65 5.41963 0.924985 0
M  V30 15378 H 1397.88 6.68123 1.21609 0
M  V30 15379 H 1395.82 5.70574 3.23699 0
M  V30 15380 H 1395.74 7.18792 2.34253 0
M  V30 15381 H 1397.01 6.96018 3.50969 0
M  V30 15382 N 1401.24 0.0551678 1.57503 0
M  V30 15383 C 1402.52 -0.657808 1.84207 0
M  V30 15384 C 1402.9 -1.88798 0.944372 0
M  V30 15385 O 1402.24 -2.28499 0.00641728 0
M  V30 15386 C 1402.45 -1.0113 3.34026 0
M  V30 15387 C 1403.8 -1.39189 4.01138 0
M  V30 15388 O 1404.83 -1.10353 3.38675 0
M  V30 15389 O 1403.68 -1.93023 5.11277 0
M  V30 15390 H 1400.78 -0.325084 0.760427 0
M  V30 15391 H 1403.32 0.0848352 1.69488 0
M  V30 15392 H 1402.1 -0.13688 3.91061 0
M  V30 15393 H 1401.72 -1.81126 3.53948 0
M  V30 15394 N 1402.72 -1.56081 -0.218252 0
M  V30 15395 C 1403.65 -1.95706 -1.27364 0
M  V30 15396 C 1404.63 -0.825731 -1.48713 0
M  V30 15397 O 1405.81 -1.08829 -1.60841 0
M  V30 15398 C 1402.94 -2.2766 -2.62275 0
M  V30 15399 C 1401.9 -3.43314 -2.55576 0
M  V30 15400 C 1401.22 -3.60883 -3.94547 0
M  V30 15401 C 1402.52 -4.7819 -2.10075 0
M  V30 15402 H 1404.22 -2.84113 -0.944459 0
M  V30 15403 H 1401.76 -1.36693 -0.452882 0
M  V30 15404 H 1403.72 -2.53973 -3.36268 0
M  V30 15405 H 1402.44 -1.3611 -2.96887 0
M  V30 15406 H 1401.1 -3.17056 -1.8404 0
M  V30 15407 H 1400.75 -2.66703 -4.26472 0
M  V30 15408 H 1400.45 -4.38674 -3.90946 0
M  V30 15409 H 1401.97 -3.89547 -4.70197 0
M  V30 15410 H 1403.38 -5.03686 -2.73813 0
M  V30 15411 H 1401.78 -5.59287 -2.17527 0
M  V30 15412 H 1402.85 -4.73325 -1.05314 0
M  V30 15413 N 1404.2 0.485086 -1.49949 0
M  V30 15414 C 1405.16 1.56713 -1.67253 0
M  V30 15415 C 1406.16 1.51329 -0.543701 0
M  V30 15416 O 1407.35 1.54198 -0.810472 0
M  V30 15417 C 1404.48 2.9636 -1.68475 0
M  V30 15418 H 1405.67 1.42693 -2.63778 0
M  V30 15419 H 1403.23 0.710473 -1.39219 0
M  V30 15420 H 1403.96 3.1584 -0.735924 0
M  V30 15421 H 1403.75 3.01675 -2.50469 0
M  V30 15422 H 1405.24 3.74945 -1.83865 0
M  V30 15423 N 1405.67 1.39291 0.737279 0
M  V30 15424 C 1406.58 1.40098 1.88175 0
M  V30 15425 C 1407.6 0.296053 1.71463 0
M  V30 15426 O 1408.78 0.537153 1.94105 0
M  V30 15427 C 1405.84 1.24071 3.2374 0
M  V30 15428 C 1404.9 2.44515 3.52861 0
M  V30 15429 C 1404.13 2.29243 4.81958 0
M  V30 15430 O 1404.36 1.2947 5.55512 0
M  V30 15431 O 1403.29 3.18178 5.10927 0
M  V30 15432 H 1407.12 2.36565 1.90449 0
M  V30 15433 H 1404.7 1.20382 0.884786 0
M  V30 15434 H 1406.58 1.17257 4.04758 0
M  V30 15435 H 1405.26 0.30698 3.22241 0
M  V30 15436 H 1404.17 2.56905 2.71939 0
M  V30 15437 H 1405.5 3.36573 3.59137 0
M  V30 15438 N 1407.15 -0.967221 1.24429 0
M  V30 15439 C 1408.08 -2.07966 1.06172 0
M  V30 15440 C 1409.06 -1.70081 -0.0254566 0
M  V30 15441 O 1410.25 -1.93682 0.141705 0
M  V30 15442 C 1407.38 -3.4085 0.666251 0
M  V30 15443 C 1406.33 -3.92692 1.70225 0
M  V30 15444 C 1405.66 -5.21925 1.16183 0
M  V30 15445 C 1406.96 -4.20478 3.09831 0
M  V30 15446 H 1408.65 -2.23497 1.99222 0
M  V30 15447 H 1406.2 -1.07398 0.959255 0
M  V30 15448 H 1408.15 -4.1811 0.52552 0
M  V30 15449 H 1406.87 -3.2522 -0.299939 0
M  V30 15450 H 1405.53 -3.17588 1.83121 0
M  V30 15451 H 1405.18 -5.02655 0.186237 0
M  V30 15452 H 1404.88 -5.57579 1.85416 0
M  V30 15453 H 1406.41 -6.01795 1.03323 0
M  V30 15454 H 1407.82 -4.88442 3.00162 0
M  V30 15455 H 1406.22 -4.67362 3.7642 0
M  V30 15456 H 1407.29 -3.27235 3.57834 0
M  V30 15457 N 1408.63 -1.05812 -1.16797 0
M  V30 15458 C 1409.88 -0.767008 -1.86547 0
M  V30 15459 C 1410.19 0.708979 -1.82299 0
M  V30 15460 O 1411.4 1.11428 -2.4758 0
M  V30 15461 C 1409.85 -1.32186 -3.34746 0
M  V30 15462 C 1409.46 -2.82774 -3.4748 0
M  V30 15463 C 1411.21 -1.10808 -4.09783 0
M  V30 15464 C 1409.11 -3.31529 -4.89737 0
M  V30 15465 H 1408.04 -0.283235 -0.698781 0
M  V30 15466 H 1410.69 -1.27621 -1.31853 0
M  V30 15467 H 1409.08 -0.740453 -3.89016 0
M  V30 15468 H 1410.25 -3.46825 -3.03396 0
M  V30 15469 H 1408.56 -3.02765 -2.85871 0
M  V30 15470 H 1411.16 -1.44728 -5.14741 0
M  V30 15471 H 1411.5 -0.046167 -4.16274 0
M  V30 15472 H 1412.04 -1.65502 -3.61737 0
M  V30 15473 H 1408.78 -4.37177 -4.88422 0
M  V30 15474 H 1408.3 -2.72224 -5.34466 0
M  V30 15475 H 1409.98 -3.26572 -5.58534 0
M  V30 15476 N 1410.11 1.33347 -0.840014 0
M  V30 15477 C 1411.06 2.31113 -0.262617 0
M  V30 15478 C 1412.05 1.58189 0.606023 0
M  V30 15479 O 1413.26 1.73047 0.495457 0
M  V30 15480 H 1409.63 0.74908 -0.0662003 0
M  V30 15481 H 1411.6 2.77318 -1.10169 0
M  V30 15482 C 1410.35 3.43377 0.54658 0
M  V30 15483 H 1409.67 3.99642 -0.112514 0
M  V30 15484 H 1411.11 4.13978 0.91641 0
M  V30 15485 C 1409.57 2.89333 1.72592 0
M  V30 15486 O 1410.1 2.85615 2.82466 0
M  V30 15487 N 1408.31 2.45926 1.54819 0
M  V30 15488 H 1407.86 2.49149 0.654404 0
M  V30 15489 H 1407.81 2.10119 2.33875 0
M  V30 15490 N 1411.59 0.596556 1.45873 0
M  V30 15491 C 1412.53 -0.128713 2.30441 0
M  V30 15492 C 1413.5 -0.870727 1.41448 0
M  V30 15493 O 1414.69 -0.858654 1.70387 0
M  V30 15494 C 1411.83 -1.1274 3.26165 0
M  V30 15495 C 1410.94 -0.387403 4.30259 0
M  V30 15496 C 1410.08 -1.37484 5.131 0
M  V30 15497 C 1409.11 -0.622025 6.08931 0
M  V30 15498 N 1408.25 -1.5582 6.84591 0
M  V30 15499 H 1413.09 0.598466 2.91929 0
M  V30 15500 H 1410.63 0.306936 1.43862 0
M  V30 15501 H 1412.59 -1.71943 3.8012 0
M  V30 15502 H 1411.22 -1.82213 2.66455 0
M  V30 15503 H 1410.27 0.319929 3.79052 0
M  V30 15504 H 1411.58 0.200477 4.98397 0
M  V30 15505 H 1410.73 -2.03926 5.71401 0
M  V30 15506 H 1409.47 -1.99665 4.44955 0
M  V30 15507 H 1408.48 0.0560936 5.49771 0
M  V30 15508 H 1409.7 -0.00541426 6.791 0
M  V30 15509 H 1407.65 -2.16786 6.19145 0
M  V30 15510 H 1407.57 -1.02347 7.4904 0
M  V30 15511 H 1408.83 -2.21254 7.4744 0
M  V30 15512 N 1413.06 -1.53996 0.335095 0
M  V30 15513 C 1414 -2.21007 -0.568424 0
M  V30 15514 C 1414.97 -1.19112 -1.10685 0
M  V30 15515 O 1416.16 -1.47898 -1.1687 0
M  V30 15516 C 1413.29 -2.88086 -1.78113 0
M  V30 15517 C 1412.33 -4.03798 -1.37292 0
M  V30 15518 S 1413.16 -5.34005 -0.399865 0
M  V30 15519 C 1414.32 -6.04582 -1.6196 0
M  V30 15520 H 1414.55 -2.973 0.000770174 0
M  V30 15521 H 1412.09 -1.53939 0.119169 0
M  V30 15522 H 1414.04 -3.27353 -2.4769 0
M  V30 15523 H 1412.71 -2.11575 -2.32153 0
M  V30 15524 H 1411.9 -4.49637 -2.27689 0
M  V30 15525 H 1411.5 -3.66264 -0.75673 0
M  V30 15526 H 1413.79 -6.27462 -2.55534 0
M  V30 15527 H 1414.74 -6.97804 -1.20315 0
M  V30 15528 H 1415.14 -5.34634 -1.81181 0
M  V30 15529 N 1414.54 -0.0635198 -1.57472 0
M  V30 15530 C 1415.96 0.293084 -1.56886 0
M  V30 15531 C 1416.16 1.70603 -1.07224 0
M  V30 15532 O 1415.21 2.41584 -0.734388 0
M  V30 15533 C 1416.53 0.110286 -3.00498 0
M  V30 15534 C 1418.07 0.180453 -3.12479 0
M  V30 15535 C 1418.55 0.0260354 -4.57993 0
M  V30 15536 N 1420.04 0.0819109 -4.63128 0
M  V30 15537 C 1420.78 -0.0132764 -5.73398 0
M  V30 15538 N 1420.27 -0.161514 -6.92612 0
M  V30 15539 N 1422.06 0.0431948 -5.62083 0
M  V30 15540 H 1414.22 -0.98706 -1.88072 0
M  V30 15541 H 1416.48 -0.384232 -0.866643 0
M  V30 15542 H 1416.18 -0.864378 -3.40913 0
M  V30 15543 H 1416.06 0.866117 -3.67122 0
M  V30 15544 H 1418.45 1.1456 -2.71956 0
M  V30 15545 H 1418.53 -0.606342 -2.4851 0
M  V30 15546 H 1418.17 -0.935839 -4.99204 0
M  V30 15547 H 1418.1 0.832131 -5.19984 0
M  V30 15548 H 1420.59 0.195229 -3.77395 0
M  V30 15549 H 1420.9 -0.226517 -7.72468 0
M  V30 15550 H 1419.25 -0.196766 -6.94721 0
M  V30 15551 H 1422.44 0.157648 -4.67834 0
M  V30 15552 H 1422.61 -0.0344435 -6.47991 0
M  V30 15553 N 1416.02 1.56195 0.209972 0
M  V30 15554 C 1416.95 1.96378 1.26324 0
M  V30 15555 C 1417.93 0.833606 1.48273 0
M  V30 15556 O 1419.12 1.0968 1.60262 0
M  V30 15557 C 1416.25 2.29048 2.61064 0
M  V30 15558 C 1415.2 3.44665 2.53752 0
M  V30 15559 C 1414.53 3.6297 3.92628 0
M  V30 15560 C 1415.83 4.79297 2.07536 0
M  V30 15561 H 1417.52 2.8461 0.929379 0
M  V30 15562 H 1415.07 1.36931 0.445627 0
M  V30 15563 H 1417.02 2.55752 3.34916 0
M  V30 15564 H 1415.74 1.37682 2.96161 0
M  V30 15565 H 1414.4 3.18028 1.82356 0
M  V30 15566 H 1414.05 2.68961 4.25052 0
M  V30 15567 H 1413.75 4.40741 3.88614 0
M  V30 15568 H 1415.27 3.92035 4.68125 0
M  V30 15569 H 1416.69 5.05131 2.71138 0
M  V30 15570 H 1415.08 5.60433 2.14557 0
M  V30 15571 H 1416.15 4.73877 1.02802 0
M  V30 15572 N 1417.5 -0.477127 1.50204 0
M  V30 15573 C 1418.46 -1.55824 1.68082 0
M  V30 15574 C 1419.46 -1.51039 0.551719 0
M  V30 15575 O 1420.65 -1.53766 0.818638 0
M  V30 15576 C 1417.78 -2.95462 1.70044 0
M  V30 15577 H 1418.98 -1.41292 2.64531 0
M  V30 15578 H 1416.53 -0.70308 1.39594 0
M  V30 15579 H 1417.26 -3.15445 0.752663 0
M  V30 15580 H 1417.05 -3.00343 2.52065 0
M  V30 15581 H 1418.54 -3.73964 1.85851 0
M  V30 15582 N 1418.98 -1.3968 -0.729882 0
M  V30 15583 C 1419.91 -1.34713 -1.85432 0
M  V30 15584 C 1420.92 -0.254999 -1.60791 0
M  V30 15585 O 1422.11 -0.514324 -1.7093 0
M  V30 15586 C 1419.21 -1.07019 -3.21559 0
M  V30 15587 C 1418.38 -2.27609 -3.73515 0
M  V30 15588 C 1417.44 -1.96292 -4.88217 0
M  V30 15589 O 1416.47 -2.69025 -5.01612 0
M  V30 15590 N 1417.67 -0.932181 -5.72967 0
M  V30 15591 H 1420.44 -2.31616 -1.90195 0
M  V30 15592 H 1418 -1.33849 -0.910834 0
M  V30 15593 H 1419.99 -0.84079 -3.9587 0
M  V30 15594 H 1418.56 -0.188323 -3.12032 0
M  V30 15595 H 1417.78 -2.66468 -2.90497 0
M  V30 15596 H 1419.07 -3.08033 -4.04961 0
M  V30 15597 H 1418.46 -0.329507 -5.6474 0
M  V30 15598 H 1417.02 -0.762684 -6.47322 0
M  V30 15599 N 1420.45 0.960609 -1.2494 0
M  V30 15600 C 1421.39 2.05948 -1.00588 0
M  V30 15601 C 1422.4 1.62777 0.0271261 0
M  V30 15602 O 1423.59 1.77252 -0.210739 0
M  V30 15603 C 1420.69 3.35228 -0.497521 0
M  V30 15604 C 1419.86 4.0727 -1.59531 0
M  V30 15605 C 1418.92 5.14822 -1.08836 0
M  V30 15606 O 1417.95 5.40602 -1.78153 0
M  V30 15607 N 1419.15 5.80453 0.0735067 0
M  V30 15608 H 1421.91 2.27411 -1.95204 0
M  V30 15609 H 1419.47 1.12874 -1.16065 0
M  V30 15610 H 1421.47 4.04447 -0.142979 0
M  V30 15611 H 1420.04 3.10583 0.354546 0
M  V30 15612 H 1419.26 3.32231 -2.12171 0
M  V30 15613 H 1420.54 4.52161 -2.33299 0
M  V30 15614 H 1419.94 5.6192 0.652848 0
M  V30 15615 H 1418.5 6.50754 0.369132 0
M  V30 15616 N 1421.93 1.0643 1.16234 0
M  V30 15617 C 1422.88 0.670457 2.22728 0
M  V30 15618 C 1423.87 -0.31428 1.66459 0
M  V30 15619 O 1425.08 -0.178996 1.79108 0
M  V30 15620 H 1421.46 0.198692 0.725276 0
M  V30 15621 H 1423.43 1.57846 2.53233 0
M  V30 15622 C 1422.18 0.074379 3.4762 0
M  V30 15623 H 1421.5 0.823227 3.91233 0
M  V30 15624 H 1422.94 -0.163652 4.23684 0
M  V30 15625 C 1421.4 -1.18242 3.15469 0
M  V30 15626 O 1421.93 -2.27018 3.314 0
M  V30 15627 N 1420.13 -1.08493 2.69588 0
M  V30 15628 H 1419.68 -0.199714 2.56825 0
M  V30 15629 H 1419.64 -1.92666 2.48449 0
M  V30 15630 N 1423.41 -1.329 0.847073 0
M  V30 15631 C 1424.37 -2.27341 0.291324 0
M  V30 15632 C 1425.37 -1.51295 -0.544653 0
M  V30 15633 O 1426.56 -1.70497 -0.357258 0
M  V30 15634 C 1423.7 -3.35779 -0.588668 0
M  V30 15635 H 1424.89 -2.78009 1.12477 0
M  V30 15636 H 1422.44 -1.43442 0.620803 0
M  V30 15637 H 1423.18 -2.90366 -1.44423 0
M  V30 15638 H 1422.96 -3.92099 0.00960515 0
M  V30 15639 H 1424.45 -4.06166 -0.970526 0
M  V30 15640 N 1424.89 -0.604284 -1.45555 0
M  V30 15641 C 1426.13 -0.0983316 -2.02561 0
M  V30 15642 C 1426.47 1.26659 -1.47211 0
M  V30 15643 O 1425.74 1.83476 -0.645519 0
M  V30 15644 C 1426.03 -0.0558349 -3.60057 0
M  V30 15645 C 1425.88 -1.45119 -4.25747 0
M  V30 15646 C 1427.2 0.633708 -4.35514 0
M  V30 15647 H 1424.32 -0.0372071 -0.73606 0
M  V30 15648 H 1426.96 -0.775623 -1.73448 0
M  V30 15649 H 1425.11 0.520935 -3.84992 0
M  V30 15650 H 1426.78 -2.07478 -4.12008 0
M  V30 15651 H 1425.02 -2.01283 -3.84275 0
M  V30 15652 H 1425.69 -1.37372 -5.34633 0
M  V30 15653 H 1428.17 0.143501 -4.15852 0
M  V30 15654 H 1427.05 0.632538 -5.45243 0
M  V30 15655 H 1427.31 1.69917 -4.08143 0
M  V30 15656 N 1426.37 1.53816 -0.343257 0
M  V30 15657 C 1427.59 2.05326 0.254744 0
M  V30 15658 C 1428.01 1.21824 1.44237 0
M  V30 15659 O 1427.37 0.253507 1.80731 0
M  V30 15660 C 1427.42 3.55235 0.670075 0
M  V30 15661 O 1427.14 4.35568 -0.470322 0
M  V30 15662 C 1428.64 4.22915 1.32882 0
M  V30 15663 H 1425.86 0.669191 0.0492324 0
M  V30 15664 H 1428.4 1.98415 -0.495159 0
M  V30 15665 H 1426.56 3.6237 1.36992 0
M  V30 15666 H 1426.97 5.24315 -0.139303 0
M  V30 15667 H 1428.45 5.29197 1.57019 0
M  V30 15668 H 1428.92 3.75244 2.28229 0
M  V30 15669 H 1429.53 4.19973 0.67102 0
M  V30 15670 N 1427.84 0.0718701 1.57436 0
M  V30 15671 C 1429.07 -0.609701 1.98236 0
M  V30 15672 C 1429.49 -1.6235 0.949959 0
M  V30 15673 O 1428.85 -1.81103 -0.0844281 0
M  V30 15674 C 1428.9 -1.2547 3.38068 0
M  V30 15675 O 1428 -2.37055 3.37459 0
M  V30 15676 H 1427.35 -0.15679 0.645223 0
M  V30 15677 H 1429.88 0.146407 2.04076 0
M  V30 15678 H 1429.89 -1.60152 3.75254 0
M  V30 15679 H 1428.56 -0.511842 4.12738 0
M  V30 15680 H 1427.14 -2.04165 3.12043 0
M  V30 15681 N 1429.32 -1.56304 -0.201686 0
M  V30 15682 C 1430.25 -1.97046 -1.25281 0
M  V30 15683 C 1431.23 -0.841458 -1.47829 0
M  V30 15684 O 1432.42 -1.10529 -1.59678 0
M  V30 15685 C 1429.55 -2.30429 -2.59845 0
M  V30 15686 C 1428.5 -3.46006 -2.5192 0
M  V30 15687 C 1427.83 -3.65047 -3.90697 0
M  V30 15688 C 1429.13 -4.80391 -2.04992 0
M  V30 15689 H 1430.82 -2.85099 -0.914272 0
M  V30 15690 H 1428.37 -1.37166 -0.438359 0
M  V30 15691 H 1430.32 -2.57525 -3.33555 0
M  V30 15692 H 1429.05 -1.39251 -2.95426 0
M  V30 15693 H 1427.7 -3.18991 -1.80667 0
M  V30 15694 H 1427.35 -2.71211 -4.2362 0
M  V30 15695 H 1427.05 -4.42796 -3.86271 0
M  V30 15696 H 1428.58 -3.94512 -4.66039 0
M  V30 15697 H 1429.99 -5.06561 -2.68456 0
M  V30 15698 H 1428.39 -5.61563 -2.11582 0
M  V30 15699 H 1429.46 -4.74416 -1.00288 0
M  V30 15700 N 1430.8 0.469154 -1.50455 0
M  V30 15701 C 1432.03 1.24899 -1.65575 0
M  V30 15702 C 1432.45 1.85009 -0.339581 0
M  V30 15703 O 1431.81 1.67376 0.696774 0
M  V30 15704 C 1431.86 2.33205 -2.75041 0
M  V30 15705 O 1430.96 3.37898 -2.36429 0
M  V30 15706 H 1430.3 0.367362 -0.553119 0
M  V30 15707 H 1432.83 0.558083 -1.96842 0
M  V30 15708 H 1432.84 2.78487 -2.98176 0
M  V30 15709 H 1431.52 1.88826 -3.70564 0
M  V30 15710 H 1430.09 2.98314 -2.23748 0
M  V30 15711 N 1432.28 1.40065 0.722464 0
M  V30 15712 C 1433.19 1.42086 1.86678 0
M  V30 15713 C 1434.2 0.314223 1.71139 0
M  V30 15714 O 1435.38 0.55771 1.93524 0
M  V30 15715 C 1432.45 1.27498 3.22405 0
M  V30 15716 C 1431.51 2.48243 3.50248 0
M  V30 15717 C 1430.74 2.34342 4.79499 0
M  V30 15718 O 1430.96 1.35355 5.54108 0
M  V30 15719 O 1429.9 3.23579 5.07523 0
M  V30 15720 H 1433.72 2.38571 1.87929 0
M  V30 15721 H 1431.31 1.21314 0.871968 0
M  V30 15722 H 1433.19 1.21543 4.03491 0
M  V30 15723 H 1431.86 0.341141 3.21897 0
M  V30 15724 H 1430.77 2.59775 2.69199 0
M  V30 15725 H 1432.1 3.40364 3.55547 0
M  V30 15726 N 1433.76 -0.95397 1.25448 0
M  V30 15727 C 1434.67 -2.08452 1.07634 0
M  V30 15728 C 1435.68 -1.73995 0.013294 0
M  V30 15729 O 1436.86 -2.00256 0.214367 0
M  V30 15730 C 1433.92 -3.39606 0.697756 0
M  V30 15731 C 1432.99 -3.87926 1.83881 0
M  V30 15732 C 1432.22 -5.12821 1.47819 0
M  V30 15733 O 1432.44 -5.69172 0.374143 0
M  V30 15734 O 1431.38 -5.55866 2.3086 0
M  V30 15735 H 1435.2 -2.26382 2.02447 0
M  V30 15736 H 1432.79 -1.06877 1.04392 0
M  V30 15737 H 1434.67 -4.18438 0.498778 0
M  V30 15738 H 1433.34 -3.22944 -0.221108 0
M  V30 15739 H 1432.25 -3.10095 2.09265 0
M  V30 15740 H 1433.58 -4.09087 2.73694 0
M  V30 15741 N 1435.24 -1.07045 -1.15668 0
M  V30 15742 C 1436.48 -0.801045 -1.8805 0
M  V30 15743 C 1436.84 0.660714 -1.80274 0
M  V30 15744 O 1438.04 1.04503 -2.47654 0
M  V30 15745 C 1436.31 -1.2914 -3.33253 0
M  V30 15746 S 1437.87 -1.15221 -4.23402 0
M  V30 15747 H 1434.69 -0.29037 -0.649004 0
M  V30 15748 H 1437.29 -1.36892 -1.39574 0
M  V30 15749 H 1435.99 -2.35003 -3.36455 0
M  V30 15750 H 1435.53 -0.718605 -3.86781 0
M  V30 15751 H 1437.54 -0.087806 -4.96122 0
M  V30 15752 N 1436.71 1.32449 -0.85411 0
M  V30 15753 C 1437.66 2.2889 -0.296341 0
M  V30 15754 C 1438.63 1.55024 0.596378 0
M  V30 15755 O 1439.82 1.8325 0.531406 0
M  V30 15756 C 1436.96 3.41315 0.509729 0
M  V30 15757 C 1436.07 4.30062 -0.40872 0
M  V30 15758 C 1435.2 5.29616 0.409928 0
M  V30 15759 C 1434.24 6.10005 -0.505953 0
M  V30 15760 N 1433.38 7.01559 0.275483 0
M  V30 15761 H 1438.22 2.75989 -1.12401 0
M  V30 15762 H 1435.76 1.35787 -0.565717 0
M  V30 15763 H 1437.71 4.05218 0.992697 0
M  V30 15764 H 1436.34 2.95367 1.30223 0
M  V30 15765 H 1435.4 3.66745 -1.01007 0
M  V30 15766 H 1436.71 4.86255 -1.11165 0
M  V30 15767 H 1435.86 5.99119 0.956083 0
M  V30 15768 H 1434.6 4.74039 1.14623 0
M  V30 15769 H 1433.61 5.39406 -1.064 0
M  V30 15770 H 1434.83 6.67667 -1.24086 0
M  V30 15771 H 1432.78 6.48412 0.994887 0
M  V30 15772 H 1432.69 7.55102 -0.368426 0
M  V30 15773 H 1433.96 7.75349 0.803382 0
M  V30 15774 N 1438.19 0.611994 1.45232 0
M  V30 15775 C 1439.61 0.276005 1.57195 0
M  V30 15776 C 1439.81 -1.22136 1.60266 0
M  V30 15777 O 1438.86 -2.00459 1.53533 0
M  V30 15778 C 1440.18 0.951064 2.85263 0
M  V30 15779 C 1441.72 0.927398 2.98945 0
M  V30 15780 C 1442.2 1.58255 4.2979 0
M  V30 15781 N 1443.69 1.54825 4.36559 0
M  V30 15782 C 1444.43 2.02428 5.3648 0
M  V30 15783 N 1443.92 2.58137 6.42913 0
M  V30 15784 N 1445.71 1.9317 5.27865 0
M  V30 15785 H 1437.87 1.58418 1.41483 0
M  V30 15786 H 1440.13 0.663879 0.676734 0
M  V30 15787 H 1439.83 2.00557 2.88912 0
M  V30 15788 H 1439.71 0.477044 3.74171 0
M  V30 15789 H 1442.1 -0.118571 2.94862 0
M  V30 15790 H 1442.18 1.43973 2.11437 0
M  V30 15791 H 1441.82 2.62787 4.34632 0
M  V30 15792 H 1441.75 1.04521 5.16123 0
M  V30 15793 H 1444.24 1.14133 3.60253 0
M  V30 15794 H 1444.55 2.92243 7.15412 0
M  V30 15795 H 1442.9 2.62179 6.43652 0
M  V30 15796 H 1446.09 1.49384 4.43624 0
M  V30 15797 H 1446.26 2.30582 6.05587 0
M  V30 15798 N 1439.67 -1.53632 0.351409 0
M  V30 15799 C 1440.6 -2.2284 -0.536204 0
M  V30 15800 C 1441.61 -1.23765 -1.05764 0
M  V30 15801 O 1442.8 -1.50073 -0.966449 0
M  V30 15802 C 1439.9 -2.9013 -1.75151 0
M  V30 15803 C 1439.08 -4.15588 -1.36401 0
M  V30 15804 C 1438.14 -4.66217 -2.43984 0
M  V30 15805 O 1437.16 -5.3024 -2.06964 0
M  V30 15806 N 1438.36 -4.42817 -3.75358 0
M  V30 15807 H 1441.13 -2.99647 0.0565368 0
M  V30 15808 H 1438.69 -1.60942 0.175905 0
M  V30 15809 H 1440.68 -3.20913 -2.4657 0
M  V30 15810 H 1439.25 -2.16862 -2.25144 0
M  V30 15811 H 1438.47 -3.91264 -0.480258 0
M  V30 15812 H 1439.76 -4.97179 -1.08121 0
M  V30 15813 H 1439.16 -3.9163 -4.08218 0
M  V30 15814 H 1437.71 -4.78186 -4.42924 0
M  V30 15815 N 1441.15 -0.0802183 -1.57396 0
M  V30 15816 C 1442.08 0.920242 -2.08822 0
M  V30 15817 C 1443.06 1.2858 -0.995281 0
M  V30 15818 O 1444.24 1.39364 -1.26925 0
M  V30 15819 C 1441.37 2.22589 -2.55288 0
M  V30 15820 C 1440.42 2.01128 -3.76098 0
M  V30 15821 S 1441.25 1.2629 -5.20395 0
M  V30 15822 C 1442.4 2.58116 -5.70199 0
M  V30 15823 H 1442.64 0.482685 -2.93355 0
M  V30 15824 H 1440.17 0.13274 -1.53828 0
M  V30 15825 H 1442.13 2.97625 -2.82718 0
M  V30 15826 H 1440.79 2.63468 -1.71008 0
M  V30 15827 H 1439.98 2.97775 -4.06628 0
M  V30 15828 H 1439.58 1.34225 -3.49084 0
M  V30 15829 H 1441.88 3.54166 -5.77558 0
M  V30 15830 H 1442.82 2.32185 -6.68951 0
M  V30 15831 H 1443.23 2.65707 -4.98056 0
M  V30 15832 N 1442.63 1.56409 0.193394 0
M  V30 15833 C 1443.56 1.97707 1.24234 0
M  V30 15834 C 1444.54 0.849286 1.47381 0
M  V30 15835 O 1445.72 1.11374 1.59089 0
M  V30 15836 C 1442.85 2.31804 2.5862 0
M  V30 15837 C 1441.81 3.47337 2.50082 0
M  V30 15838 C 1441.13 3.67114 3.88756 0
M  V30 15839 C 1442.43 4.81472 2.02441 0
M  V30 15840 H 1444.13 2.8558 0.89914 0
M  V30 15841 H 1441.67 1.37396 0.431078 0
M  V30 15842 H 1443.62 2.5929 3.32185 0
M  V30 15843 H 1442.35 1.40816 2.94684 0
M  V30 15844 H 1441.01 3.19944 1.78973 0
M  V30 15845 H 1440.66 2.73454 4.22175 0
M  V30 15846 H 1440.36 4.44838 3.83918 0
M  V30 15847 H 1441.88 3.96978 4.6394 0
M  V30 15848 H 1443.29 5.07978 2.65766 0
M  V30 15849 H 1441.69 5.62677 2.08601 0
M  V30 15850 H 1442.76 4.74941 0.977704 0
M  V30 15851 N 1444.1 -0.461169 1.50702 0
M  V30 15852 C 1445.33 -1.23554 1.65958 0
M  V30 15853 C 1445.75 -1.85584 0.346977 0
M  V30 15854 O 1445.1 -1.69672 -0.672129 0
M  V30 15855 C 1445.15 -2.33704 2.75799 0
M  V30 15856 O 1444.88 -1.74215 4.01971 0
M  V30 15857 C 1446.38 -3.24409 3.02116 0
M  V30 15858 H 1443.6 -0.373299 0.557574 0
M  V30 15859 H 1446.14 -0.549338 1.96984 0
M  V30 15860 H 1444.3 -2.98081 2.47439 0
M  V30 15861 H 1444.71 -2.46827 4.62792 0
M  V30 15862 H 1446.18 -3.97885 3.82611 0
M  V30 15863 H 1446.66 -3.83774 2.13576 0
M  V30 15864 H 1447.27 -2.65757 3.32044 0
M  V30 15865 N 1445.58 -1.40446 -0.715026 0
M  V30 15866 C 1446.54 -1.40506 -1.81082 0
M  V30 15867 C 1447.54 -0.298768 -1.58 0
M  V30 15868 O 1448.73 -0.5577 -1.65031 0
M  V30 15869 C 1445.87 -1.19735 -3.19181 0
M  V30 15870 H 1447.06 -2.38034 -1.82427 0
M  V30 15871 H 1444.61 -1.26303 -0.920718 0
M  V30 15872 H 1445.35 -0.229695 -3.23486 0
M  V30 15873 H 1445.13 -1.99871 -3.37334 0
M  V30 15874 H 1446.62 -1.22566 -3.99208 0
M  V30 15875 N 1447.06 0.947303 -1.25952 0
M  V30 15876 C 1448.28 1.73261 -1.13997 0
M  V30 15877 C 1448.71 1.85666 0.301639 0
M  V30 15878 O 1448.07 1.34244 1.21854 0
M  V30 15879 C 1448.12 3.12046 -1.8072 0
M  V30 15880 O 1447.22 3.97684 -1.09182 0
M  V30 15881 H 1446.56 0.53182 -0.397572 0
M  V30 15882 H 1449.09 1.18689 -1.66656 0
M  V30 15883 H 1449.1 3.62468 -1.87299 0
M  V30 15884 H 1447.78 3.02334 -2.856 0
M  V30 15885 H 1446.35 3.56141 -1.10536 0
M  V30 15886 N 1448.54 1.07657 1.15099 0
M  V30 15887 C 1449.49 0.669428 2.17951 0
M  V30 15888 C 1450.47 -0.307034 1.57943 0
M  V30 15889 O 1451.66 -0.120267 1.76591 0
M  V30 15890 C 1448.79 0.0720873 3.43224 0
M  V30 15891 C 1447.88 1.07388 4.10279 0
M  V30 15892 N 1448.27 2.25455 4.52773 0
M  V30 15893 C 1446.57 0.907909 4.36661 0
M  V30 15894 C 1447.27 2.89035 5.0481 0
M  V30 15895 N 1446.25 2.16684 4.98547 0
M  V30 15896 H 1450.05 1.56862 2.48539 0
M  V30 15897 H 1447.56 0.950198 1.317 0
M  V30 15898 H 1449.56 -0.237505 4.16223 0
M  V30 15899 H 1448.22 -0.822183 3.14118 0
M  V30 15900 H 1449.23 2.63155 4.4606 0
M  V30 15901 H 1445.91 0.0667966 4.17447 0
M  V30 15902 H 1447.3 3.89303 5.47625 0
M  V30 15903 N 1450.02 -1.31994 0.861122 0
M  V30 15904 C 1451.24 -2.01211 0.481865 0
M  V30 15905 C 1451.66 -1.64687 -0.923233 0
M  V30 15906 O 1451.02 -0.87151 -1.60346 0
M  V30 15907 C 1451.07 -3.56162 0.618919 0
M  V30 15908 O 1450.79 -3.91376 1.96868 0
M  V30 15909 C 1452.29 -4.42652 0.239514 0
M  V30 15910 H 1449.51 -0.643922 0.188693 0
M  V30 15911 H 1452.05 -1.68427 1.15985 0
M  V30 15912 H 1450.21 -3.87398 -0.0114042 0
M  V30 15913 H 1450.62 -4.86095 1.97008 0
M  V30 15914 H 1452.1 -5.50646 0.386394 0
M  V30 15915 H 1452.57 -4.31466 -0.820598 0
M  V30 15916 H 1453.18 -4.16818 0.845175 0
M  V30 15917 N 1451.49 -0.619688 -1.44906 0
M  V30 15918 C 1452.42 0.0791121 -2.33366 0
M  V30 15919 C 1453.41 0.846503 -1.47541 0
M  V30 15920 O 1454.59 0.814657 -1.76287 0
M  V30 15921 C 1451.72 1.06901 -3.30438 0
M  V30 15922 C 1450.67 0.41403 -4.25993 0
M  V30 15923 C 1450 1.51303 -5.12846 0
M  V30 15924 C 1451.3 -0.672483 -5.17953 0
M  V30 15925 H 1452.99 -0.659551 -2.92045 0
M  V30 15926 H 1450.54 -0.318623 -1.40431 0
M  V30 15927 H 1452.49 1.56653 -3.912 0
M  V30 15928 H 1451.22 1.83842 -2.69944 0
M  V30 15929 H 1449.88 -0.0627315 -3.66546 0
M  V30 15930 H 1449.52 2.27303 -4.48712 0
M  V30 15931 H 1449.22 1.08022 -5.77586 0
M  V30 15932 H 1450.75 2.01258 -5.76479 0
M  V30 15933 H 1452.16 -0.258542 -5.72717 0
M  V30 15934 H 1450.56 -1.02776 -5.91234 0
M  V30 15935 H 1451.63 -1.54425 -4.59653 0
M  V30 15936 N 1452.97 1.53444 -0.359552 0
M  V30 15937 C 1453.94 2.24173 0.477412 0
M  V30 15938 C 1454.94 1.24747 1.01464 0
M  V30 15939 O 1456.13 1.49069 0.901343 0
M  V30 15940 C 1453.26 2.9738 1.66667 0
M  V30 15941 H 1454.45 2.99566 -0.141407 0
M  V30 15942 H 1452 1.55904 -0.111143 0
M  V30 15943 H 1452.74 2.26214 2.32374 0
M  V30 15944 H 1452.52 3.70325 1.28848 0
M  V30 15945 H 1454.01 3.51165 2.25994 0
M  V30 15946 N 1454.45 0.0885642 1.57351 0
M  V30 15947 C 1455.7 -0.57753 1.94403 0
M  V30 15948 C 1456.03 -1.68238 0.970029 0
M  V30 15949 O 1455.3 -1.945 0.00198684 0
M  V30 15950 C 1455.59 -1.13882 3.41618 0
M  V30 15951 C 1455.44 -0.0394686 4.49783 0
M  V30 15952 C 1456.76 -2.03922 3.90005 0
M  V30 15953 H 1453.88 -0.208468 0.706902 0
M  V30 15954 H 1456.52 0.157945 1.89342 0
M  V30 15955 H 1454.67 -1.76561 3.46061 0
M  V30 15956 H 1456.34 0.594458 4.57454 0
M  V30 15957 H 1454.59 0.627775 4.29234 0
M  V30 15958 H 1455.26 -0.472897 5.49971 0
M  V30 15959 H 1457.73 -1.51156 3.87674 0
M  V30 15960 H 1456.61 -2.40123 4.93591 0
M  V30 15961 H 1456.87 -2.95407 3.28918 0
M  V30 15962 N 1455.93 -1.56509 -0.185096 0
M  V30 15963 C 1457.21 -1.72055 -0.930398 0
M  V30 15964 C 1457.59 -0.646145 -2.00968 0
M  V30 15965 O 1456.93 0.34129 -2.25937 0
M  V30 15966 C 1457.14 -3.14752 -1.50771 0
M  V30 15967 C 1458.49 -3.75292 -1.98597 0
M  V30 15968 O 1459.52 -3.17944 -1.60593 0
M  V30 15969 O 1458.37 -4.7596 -2.68561 0
M  V30 15970 H 1455.47 -0.702118 -0.436989 0
M  V30 15971 H 1458.01 -1.68806 -0.174007 0
M  V30 15972 H 1456.79 -3.84426 -0.730236 0
M  V30 15973 H 1456.41 -3.22272 -2.32866 0
M  V30 15974 N 1457.41 0.45317 -1.50944 0
M  V30 15975 C 1458.37 1.5313 -1.7054 0
M  V30 15976 C 1459.37 1.50142 -0.575678 0
M  V30 15977 O 1460.56 1.52444 -0.842997 0
M  V30 15978 C 1457.69 2.92719 -1.74723 0
M  V30 15979 H 1458.88 1.37066 -2.66745 0
M  V30 15980 H 1456.44 0.680783 -1.40695 0
M  V30 15981 H 1457.17 3.14208 -0.802753 0
M  V30 15982 H 1456.96 2.96295 -2.56811 0
M  V30 15983 H 1458.45 3.7096 -1.91777 0
M  V30 15984 N 1458.88 1.40823 0.707568 0
M  V30 15985 C 1459.83 1.41724 1.82162 0
M  V30 15986 C 1460.8 0.273135 1.63839 0
M  V30 15987 O 1461.99 0.472399 1.84859 0
M  V30 15988 C 1459.13 1.29347 3.19943 0
M  V30 15989 C 1458.24 2.53529 3.49782 0
M  V30 15990 C 1457.37 2.33533 4.77112 0
M  V30 15991 C 1456.41 3.53252 4.9988 0
M  V30 15992 N 1455.55 3.32401 6.18429 0
M  V30 15993 H 1460.39 2.36943 1.80726 0
M  V30 15994 H 1457.93 1.17671 0.882723 0
M  V30 15995 H 1459.89 1.20175 3.99517 0
M  V30 15996 H 1458.52 0.377426 3.20586 0
M  V30 15997 H 1457.57 2.73198 2.64702 0
M  V30 15998 H 1458.88 3.42617 3.62512 0
M  V30 15999 H 1458.03 2.2176 5.64719 0
M  V30 16000 H 1456.77 1.41883 4.66605 0
M  V30 16001 H 1455.78 3.65492 4.10725 0
M  V30 16002 H 1457 4.4584 5.12253 0
M  V30 16003 H 1454.95 2.4344 6.09158 0
M  V30 16004 H 1454.87 4.15059 6.31872 0
M  V30 16005 H 1456.13 3.24377 7.08802 0
M  V30 16006 N 1460.36 -0.94061 1.26453 0
M  V30 16007 C 1461.31 -2.06073 1.07873 0
M  V30 16008 C 1462.3 -1.69399 0.0055001 0
M  V30 16009 O 1463.51 -1.79267 0.162224 0
M  V30 16010 H 1459.89 -0.674748 0.331993 0
M  V30 16011 H 1461.86 -2.18895 2.02799 0
M  V30 16012 C 1460.61 -3.39971 0.729054 0
M  V30 16013 H 1459.93 -3.68667 1.54675 0
M  V30 16014 H 1461.37 -4.1916 0.638844 0
M  V30 16015 C 1459.83 -3.32114 -0.565835 0
M  V30 16016 O 1460.36 -3.68287 -1.60399 0
M  V30 16017 N 1458.56 -2.85218 -0.556679 0
M  V30 16018 H 1458.11 -2.55979 0.288541 0
M  V30 16019 H 1458.07 -2.80344 -1.42318 0
M  V30 16020 N 1461.84 -1.08266 -1.14527 0
M  V30 16021 C 1462.77 -0.732968 -2.21698 0
M  V30 16022 C 1463.75 0.283917 -1.67714 0
M  V30 16023 O 1464.94 0.154607 -1.93584 0
M  V30 16024 C 1462.07 -0.139935 -3.47018 0
M  V30 16025 C 1461.02 -1.08501 -4.14019 0
M  V30 16026 C 1460.35 -0.354263 -5.33525 0
M  V30 16027 C 1461.65 -2.42254 -4.62721 0
M  V30 16028 H 1463.34 -1.629 -2.51205 0
M  V30 16029 H 1460.89 -0.784696 -1.20742 0
M  V30 16030 H 1462.84 0.1167 -4.21238 0
M  V30 16031 H 1461.56 0.791228 -3.16871 0
M  V30 16032 H 1460.22 -1.32672 -3.41751 0
M  V30 16033 H 1459.87 0.580658 -4.99637 0
M  V30 16034 H 1459.57 -0.984287 -5.79297 0
M  V30 16035 H 1461.09 -0.105648 -6.10509 0
M  V30 16036 H 1462.51 -2.22357 -5.28422 0
M  V30 16037 H 1460.91 -3.00935 -5.1919 0
M  V30 16038 H 1461.98 -3.03884 -3.77866 0
M  V30 16039 N 1463.32 1.31536 -0.86811 0
M  V30 16040 C 1464.25 2.31037 -0.33822 0
M  V30 16041 C 1465.23 1.60269 0.569892 0
M  V30 16042 O 1466.42 1.87987 0.487305 0
M  V30 16043 C 1463.55 3.44203 0.462753 0
M  V30 16044 C 1462.5 4.26549 -0.3521 0
M  V30 16045 C 1461.83 5.31605 0.574443 0
M  V30 16046 C 1463.13 4.97665 -1.58516 0
M  V30 16047 H 1464.82 2.75607 -1.16967 0
M  V30 16048 H 1462.37 1.325 -0.56389 0
M  V30 16049 H 1464.32 4.12862 0.843967 0
M  V30 16050 H 1463.04 2.98396 1.32769 0
M  V30 16051 H 1461.7 3.59555 -0.715237 0
M  V30 16052 H 1461.35 4.82048 1.43661 0
M  V30 16053 H 1461.05 5.87591 0.0331436 0
M  V30 16054 H 1462.57 6.03124 0.952541 0
M  V30 16055 H 1463.99 5.58931 -1.27549 0
M  V30 16056 H 1462.38 5.63437 -2.06539 0
M  V30 16057 H 1463.45 4.24756 -2.33902 0
M  V30 16058 N 1464.8 0.627364 1.44575 0
M  V30 16059 C 1466.07 0.0614392 1.95503 0
M  V30 16060 C 1466.45 -1.41182 1.56942 0
M  V30 16061 O 1465.8 -2.12435 0.841634 0
M  V30 16062 C 1466.01 0.280349 3.47872 0
M  V30 16063 C 1467.36 0.171559 4.24253 0
M  V30 16064 O 1468.38 0.211515 3.55571 0
M  V30 16065 O 1467.24 0.0733152 5.46451 0
M  V30 16066 H 1464.34 -0.0244626 0.826638 0
M  V30 16067 H 1466.88 0.698805 1.54644 0
M  V30 16068 H 1465.66 1.30278 3.68976 0
M  V30 16069 H 1465.28 -0.391336 3.95669 0
M  V30 16070 N 1466.28 -1.53251 0.367684 0
M  V30 16071 C 1467.24 -2.24423 -0.465516 0
M  V30 16072 C 1468.24 -1.25283 -1.00801 0
M  V30 16073 O 1469.43 -1.49545 -0.893424 0
M  V30 16074 C 1466.56 -2.9826 -1.65087 0
M  V30 16075 H 1467.75 -2.99487 0.157292 0
M  V30 16076 H 1465.31 -1.55843 0.119409 0
M  V30 16077 H 1466.04 -2.27443 -2.31171 0
M  V30 16078 H 1465.83 -3.71003 -1.26882 0
M  V30 16079 H 1467.32 -3.52358 -2.24128 0
M  V30 16080 N 1467.75 -0.0969077 -1.57302 0
M  V30 16081 C 1469 0.567212 -1.94706 0
M  V30 16082 C 1469.33 1.67721 -0.978937 0
M  V30 16083 O 1468.61 1.94496 -0.0123016 0
M  V30 16084 C 1468.89 1.12069 -3.42217 0
M  V30 16085 C 1468.74 0.015615 -4.49797 0
M  V30 16086 C 1470.06 2.0185 -3.91081 0
M  V30 16087 H 1467.18 0.204716 -0.707997 0
M  V30 16088 H 1469.82 -0.167984 -1.89256 0
M  V30 16089 H 1467.97 1.74723 -3.46993 0
M  V30 16090 H 1469.65 -0.61871 -4.57132 0
M  V30 16091 H 1467.89 -0.650529 -4.28895 0
M  V30 16092 H 1468.56 0.443724 -5.50214 0
M  V30 16093 H 1471.04 1.49098 -3.8847 0
M  V30 16094 H 1469.91 2.37502 -4.94858 0
M  V30 16095 H 1470.17 2.93659 -3.3048 0
M  V30 16096 N 1469.23 1.56605 0.176793 0
M  V30 16097 C 1470.51 1.72546 0.921261 0
M  V30 16098 C 1470.89 0.656794 2.00623 0
M  V30 16099 O 1470.24 -0.329303 2.26115 0
M  V30 16100 C 1470.45 3.15548 1.491 0
M  V30 16101 C 1471.79 3.7634 1.96604 0
M  V30 16102 O 1472.82 3.18791 1.58905 0
M  V30 16103 O 1471.68 4.77377 2.66033 0
M  V30 16104 H 1468.77 0.704425 0.43326 0
M  V30 16105 H 1471.32 1.68895 0.165052 0
M  V30 16106 H 1470.09 3.84808 0.709839 0
M  V30 16107 H 1469.71 3.23502 2.31154 0
M  V30 16108 N 1470.71 -0.445159 1.51182 0
M  V30 16109 C 1471.64 -1.55788 1.68115 0
M  V30 16110 C 1472.65 -1.52793 0.561964 0
M  V30 16111 O 1473.84 -1.57711 0.836029 0
M  V30 16112 C 1470.94 -2.94702 1.67344 0
M  V30 16113 C 1470.12 -3.22286 2.9572 0
M  V30 16114 C 1469.18 -4.40884 2.87241 0
M  V30 16115 O 1468.2 -4.3992 3.61191 0
M  V30 16116 N 1469.4 -5.44013 2.02558 0
M  V30 16117 H 1472.17 -1.4167 2.64102 0
M  V30 16118 H 1469.73 -0.633984 1.48971 0
M  V30 16119 H 1471.72 -3.7205 1.5925 0
M  V30 16120 H 1470.29 -3.02457 0.789842 0
M  V30 16121 H 1469.51 -2.33309 3.17743 0
M  V30 16122 H 1470.8 -3.3754 3.80715 0
M  V30 16123 H 1470.2 -5.47629 1.4184 0
M  V30 16124 H 1468.75 -6.20245 2.0035 0
M  V30 16125 N 1472.19 -1.41197 -0.700089 0
M  V30 16126 C 1473.15 -1.42419 -1.79582 0
M  V30 16127 C 1474.15 -0.31551 -1.57674 0
M  V30 16128 O 1475.34 -0.575173 -1.64431 0
M  V30 16129 C 1472.47 -1.23114 -3.17893 0
M  V30 16130 H 1473.67 -2.39956 -1.79892 0
M  V30 16131 H 1471.22 -1.27273 -0.907271 0
M  V30 16132 H 1471.95 -0.263992 -3.23224 0
M  V30 16133 H 1471.74 -2.03437 -3.35195 0
M  V30 16134 H 1473.23 -1.26793 -3.97886 0
M  V30 16135 N 1473.67 0.933891 -1.2695 0
M  V30 16136 C 1474.61 2.03365 -1.09139 0
M  V30 16137 C 1475.58 1.66099 0.00573029 0
M  V30 16138 O 1476.77 1.90166 -0.155425 0
M  V30 16139 C 1473.91 3.37114 -0.738117 0
M  V30 16140 C 1473.02 3.87372 -1.91224 0
M  V30 16141 C 1472.16 5.0954 -1.50141 0
M  V30 16142 C 1471.19 5.52079 -2.64339 0
M  V30 16143 N 1470.33 6.65446 -2.23887 0
M  V30 16144 H 1475.17 2.17932 -2.03248 0
M  V30 16145 H 1472.71 1.0677 -1.01186 0
M  V30 16146 H 1474.67 4.1402 -0.514141 0
M  V30 16147 H 1473.3 3.22373 0.166007 0
M  V30 16148 H 1472.35 3.06801 -2.24894 0
M  V30 16149 H 1473.66 4.14875 -2.76912 0
M  V30 16150 H 1472.81 5.93928 -1.23831 0
M  V30 16151 H 1471.55 4.838 -0.615539 0
M  V30 16152 H 1470.56 4.66244 -2.9137 0
M  V30 16153 H 1471.78 5.79817 -3.53537 0
M  V30 16154 H 1469.73 6.41376 -1.37744 0
M  V30 16155 H 1469.65 6.92573 -3.03116 0
M  V30 16156 H 1470.91 7.53191 -2.00809 0
M  V30 16157 N 1475.14 1.08871 1.13951 0
M  V30 16158 C 1476.39 0.822504 1.85372 0
M  V30 16159 C 1476.72 -0.650183 1.82993 0
M  V30 16160 O 1476 -1.4783 1.26398 0
M  V30 16161 C 1476.28 1.35107 3.33793 0
M  V30 16162 C 1476.13 2.88945 3.44719 0
M  V30 16163 C 1477.45 0.980203 4.29045 0
M  V30 16164 H 1474.57 0.300255 0.673065 0
M  V30 16165 H 1477.21 1.34914 1.33784 0
M  V30 16166 H 1475.36 0.903108 3.77857 0
M  V30 16167 H 1477.04 3.42148 3.09407 0
M  V30 16168 H 1475.28 3.26365 2.85777 0
M  V30 16169 H 1475.95 3.21004 4.49066 0
M  V30 16170 H 1478.43 1.36646 3.93023 0
M  V30 16171 H 1477.3 1.37717 5.31343 0
M  V30 16172 H 1477.56 -0.112253 4.41957 0
M  V30 16173 N 1476.62 -1.31073 0.875073 0
M  V30 16174 C 1477.55 -2.30855 0.350468 0
M  V30 16175 C 1478.53 -1.60569 -0.561384 0
M  V30 16176 O 1479.72 -1.88242 -0.477329 0
M  V30 16177 C 1476.85 -3.44444 -0.444493 0
M  V30 16178 C 1475.8 -4.26357 0.374716 0
M  V30 16179 C 1475.13 -5.31903 -0.546243 0
M  V30 16180 C 1476.43 -4.96817 1.61153 0
M  V30 16181 H 1478.12 -2.74983 1.18427 0
M  V30 16182 H 1475.67 -1.32199 0.570909 0
M  V30 16183 H 1477.62 -4.13304 -0.82206 0
M  V30 16184 H 1476.34 -2.99096 -1.31185 0
M  V30 16185 H 1475 -3.59171 0.734295 0
M  V30 16186 H 1474.65 -4.82803 -1.41102 0
M  V30 16187 H 1474.35 -5.876 -0.00198173 0
M  V30 16188 H 1475.88 -6.03621 -0.920542 0
M  V30 16189 H 1477.29 -5.58247 1.30511 0
M  V30 16190 H 1475.69 -5.62334 2.09524 0
M  V30 16191 H 1476.76 -4.2351 2.36151 0
M  V30 16192 N 1478.1 -0.635022 -1.4424 0
M  V30 16193 C 1479.06 0.0579377 -2.29127 0
M  V30 16194 C 1480.06 0.768489 -1.41248 0
M  V30 16195 O 1481.25 0.612489 -1.63077 0
M  V30 16196 C 1478.39 1.09266 -3.22914 0
M  V30 16197 H 1479.58 -0.688723 -2.91885 0
M  V30 16198 H 1477.13 -0.395347 -1.51217 0
M  V30 16199 H 1477.87 1.86917 -2.65014 0
M  V30 16200 H 1477.65 0.587036 -3.87681 0
M  V30 16201 H 1479.14 1.57716 -3.86672 0
M  V30 16202 N 1479.58 1.53054 -0.375806 0
M  V30 16203 C 1480.53 2.27576 0.480838 0
M  V30 16204 C 1481.52 1.30948 1.07466 0
M  V30 16205 O 1482.73 1.48538 1.01669 0
M  V30 16206 H 1479.1 0.731641 0.173799 0
M  V30 16207 H 1481.07 2.97919 -0.169327 0
M  V30 16208 C 1479.82 3.08533 1.60321 0
M  V30 16209 H 1479.14 3.82735 1.15558 0
M  V30 16210 H 1480.58 3.63837 2.17712 0
M  V30 16211 C 1479.04 2.20004 2.55147 0
M  V30 16212 O 1479.57 1.81771 3.58221 0
M  V30 16213 N 1477.78 1.84433 2.24573 0
M  V30 16214 H 1477.33 2.15723 1.40788 0
M  V30 16215 H 1477.28 1.25488 2.88271 0
M  V30 16216 N 1481.06 0.105248 1.57248 0
M  V30 16217 C 1481.99 -0.846915 2.176 0
M  V30 16218 C 1482.97 -1.28706 1.11216 0
M  V30 16219 O 1484.15 -1.35213 1.39396 0
M  V30 16220 C 1481.28 -2.10228 2.76445 0
M  V30 16221 C 1480.24 -1.80041 3.8829 0
M  V30 16222 C 1479.56 -3.12491 4.33882 0
M  V30 16223 C 1480.86 -1.07943 5.11024 0
M  V30 16224 H 1482.56 -0.344052 2.97417 0
M  V30 16225 H 1480.1 -0.164045 1.43063 0
M  V30 16226 H 1482.06 -2.77284 3.17319 0
M  V30 16227 H 1480.78 -2.62815 1.93897 0
M  V30 16228 H 1479.44 -1.15379 3.4797 0
M  V30 16229 H 1479.09 -3.62985 3.48211 0
M  V30 16230 H 1478.79 -2.93072 5.09296 0
M  V30 16231 H 1480.31 -3.80688 4.77398 0
M  V30 16232 H 1481.72 -1.65127 5.49004 0
M  V30 16233 H 1480.12 -0.986674 5.91933 0
M  V30 16234 H 1481.19 -0.0638511 4.84858 0
M  V30 16235 N 1482.53 -1.56697 -0.168486 0
M  V30 16236 C 1483.5 -1.95744 -1.19235 0
M  V30 16237 C 1484.5 -0.841419 -1.37028 0
M  V30 16238 O 1485.69 -1.10842 -1.34386 0
M  V30 16239 C 1482.82 -2.25471 -2.55686 0
M  V30 16240 H 1484.01 -2.87368 -0.857892 0
M  V30 16241 H 1481.57 -1.50798 -0.411041 0
M  V30 16242 H 1482.3 -1.36571 -2.94141 0
M  V30 16243 H 1482.09 -3.06822 -2.44137 0
M  V30 16244 H 1483.58 -2.56593 -3.29469 0
M  V30 16245 N 1484.01 0.437135 -1.51416 0
M  V30 16246 C 1484.96 1.52903 -1.69129 0
M  V30 16247 C 1485.95 1.51379 -0.54528 0
M  V30 16248 O 1487.14 1.57828 -0.8012 0
M  V30 16249 C 1484.27 2.91092 -1.8199 0
M  V30 16250 C 1483.35 2.97372 -3.02375 0
M  V30 16251 N 1483.74 2.73395 -4.25545 0
M  V30 16252 C 1482.04 3.28532 -3.01634 0
M  V30 16253 C 1482.74 2.85523 -5.06805 0
M  V30 16254 N 1481.72 3.17201 -4.41457 0
M  V30 16255 H 1485.52 1.33118 -2.62025 0
M  V30 16256 H 1483.04 0.644444 -1.49066 0
M  V30 16257 H 1485.03 3.69645 -1.9279 0
M  V30 16258 H 1483.69 3.11898 -0.902757 0
M  V30 16259 H 1484.7 2.4832 -4.54486 0
M  V30 16260 H 1481.38 3.5511 -2.19552 0
M  V30 16261 H 1482.77 2.70938 -6.14852 0
M  V30 16262 N 1485.49 1.41566 0.692592 0
M  V30 16263 C 1486.9 1.36606 1.27262 0
M  V30 16264 C 1487.25 0.0506082 1.96135 0
M  V30 16265 O 1486.38 -0.851071 1.98962 0
M  V30 16266 C 1486.97 2.47434 2.31434 0
M  V30 16267 C 1485.53 2.45863 2.85006 0
M  V30 16268 C 1484.68 2.2713 1.59083 0
M  V30 16269 H 1487.63 1.51038 0.487149 0
M  V30 16270 H 1487.65 2.16663 3.12789 0
M  V30 16271 H 1487.16 3.43161 1.81278 0
M  V30 16272 H 1485.26 1.53901 3.3933 0
M  V30 16273 H 1485.38 3.42279 3.35234 0
M  V30 16274 H 1483.74 1.75061 1.85002 0
M  V30 16275 H 1484.52 3.24887 1.10919 0
M  V30 16276 N 1486.97 -0.927146 1.27443 0
M  V30 16277 C 1488.38 -1.48984 1.1252 0
M  V30 16278 C 1488.73 -1.94051 -0.289602 0
M  V30 16279 O 1487.86 -1.8123 -1.18257 0
M  V30 16280 C 1488.45 -2.70765 2.03646 0
M  V30 16281 C 1487.01 -3.23256 1.92827 0
M  V30 16282 C 1486.16 -1.95991 1.9617 0
M  V30 16283 H 1489.11 -0.741196 1.40328 0
M  V30 16284 H 1489.13 -3.45567 1.5926 0
M  V30 16285 H 1488.64 -2.37933 3.0661 0
M  V30 16286 H 1486.74 -3.60845 0.928516 0
M  V30 16287 H 1486.85 -3.89413 2.79096 0
M  V30 16288 H 1485.22 -2.12508 1.40402 0
M  V30 16289 H 1486 -1.65473 3.00788 0
M  V30 16290 N 1488.45 -1.09474 -1.13372 0
M  V30 16291 C 1489.41 -0.738173 -2.16988 0
M  V30 16292 C 1490.41 0.232488 -1.5911 0
M  V30 16293 O 1491.6 0.0106093 -1.74197 0
M  V30 16294 C 1488.73 -0.091724 -3.40777 0
M  V30 16295 H 1489.92 -1.65582 -2.50045 0
M  V30 16296 H 1487.48 -0.893994 -1.28209 0
M  V30 16297 H 1488.21 0.837129 -3.13309 0
M  V30 16298 H 1488 -0.790161 -3.84056 0
M  V30 16299 H 1489.49 0.142334 -4.17357 0
M  V30 16300 N 1489.92 1.30607 -0.882012 0
M  V30 16301 C 1490.83 2.31967 -0.350503 0
M  V30 16302 C 1491.85 1.6522 0.54575 0
M  V30 16303 O 1493.03 1.96544 0.439581 0
M  V30 16304 C 1490.09 3.44037 0.428924 0
M  V30 16305 C 1489.15 4.26417 -0.496727 0
M  V30 16306 C 1488.39 5.33135 0.245597 0
M  V30 16307 O 1488.61 5.51077 1.47209 0
M  V30 16308 O 1487.54 6.00551 -0.402767 0
M  V30 16309 H 1491.37 2.79374 -1.19095 0
M  V30 16310 H 1488.95 1.34723 -0.645754 0
M  V30 16311 H 1490.84 4.12314 0.870346 0
M  V30 16312 H 1489.51 2.9877 1.24573 0
M  V30 16313 H 1488.42 3.60848 -0.986899 0
M  V30 16314 H 1489.75 4.7528 -1.27945 0
M  V30 16315 O 1491.44 0.782426 1.41281 0
M  V30 16316 H 1492.13 0.350138 1.90509 0
M  V30 END ATOM
M  V30 BEGIN BOND
M  V30 END BOND
M  V30 END CTAB
M  END
$$$$
