drugbank_target|Q9Y5Y4 Prostaglandin D2 receptor 2 (DB00328; DB00605; DB00770; DB00917; DB01088; DB02056; DB04828; DB12789; DB13036)
 OpenBabel12092120343D

  0  0  0     0  0            999 V3000
M  V30 BEGIN CTAB
M  V30 COUNTS 6192 6264 0 0 0
M  V30 BEGIN ATOM
M  V30 1 H -0.908 1.98254 -0.117106 0
M  V30 2 N 0 1.576 0 0
M  V30 3 C 0.933 2.03868 1.02534 0
M  V30 4 C 1.911 0.928543 1.3348 0
M  V30 5 O 3.095 1.19667 1.45644 0
M  V30 6 C 0.222 2.43627 2.35294 0
M  V30 7 C -0.732 3.65373 2.2001 0
M  V30 8 S 0.101 5.13292 1.52614 0
M  V30 9 C 1.257 5.56322 2.86805 0
M  V30 10 H 1.49 2.90518 0.631377 0
M  V30 11 H -0.977 1.52953 0.210867 0
M  V30 12 H 0.981 2.67203 3.11629 0
M  V30 13 H -0.358 1.57376 2.7183 0
M  V30 14 H -1.165 3.90944 3.18086 0
M  V30 15 H -1.563 3.418 1.51819 0
M  V30 16 H 0.729 5.58782 3.83104 0
M  V30 17 H 1.672 6.56266 2.65933 0
M  V30 18 H 2.08 4.83886 2.90714 0
M  V30 19 N 1.4781 -0.272755 1.55222 0
M  V30 20 C 2.7031 -1.02683 1.80197 0
M  V30 21 C 3.1281 -1.79142 0.573551 0
M  V30 22 O 2.4861 -1.74917 -0.476849 0
M  V30 23 C 2.5341 -1.9609 3.02624 0
M  V30 24 O 1.6381 -3.04863 2.77727 0
M  V30 25 H 0.9791 -0.293557 0.595584 0
M  V30 26 H 3.5091 -0.30159 2.02365 0
M  V30 27 H 3.5191 -2.38039 3.31363 0
M  V30 28 H 2.1941 -1.39851 3.91682 0
M  V30 29 H 0.7711 -2.67228 2.60084 0
M  V30 30 N 2.9562 -1.48159 -0.537278 0
M  V30 31 C 3.9192 -1.61665 -1.62472 0
M  V30 32 C 4.9192 -0.490395 -1.5314 0
M  V30 33 O 6.1092 -0.755998 -1.5694 0
M  V30 34 C 3.2412 -1.57997 -3.02076 0
M  V30 35 H 4.4342 -2.58621 -1.51839 0
M  V30 36 H 1.9872 -1.36647 -0.758771 0
M  V30 37 H 2.7222 -0.624913 -3.18222 0
M  V30 38 H 2.5072 -2.39755 -3.10258 0
M  V30 39 H 3.9972 -1.70627 -3.81151 0
M  V30 40 N 4.4343 0.785586 -1.36625 0
M  V30 41 C 5.3823 1.91978 -1.31329 0
M  V30 42 C 6.3763 1.68162 -0.204416 0
M  V30 43 O 7.5823 1.76122 -0.371645 0
M  V30 44 H 3.9573 0.631087 -0.408942 0
M  V30 45 H 5.9283 1.93562 -2.27104 0
M  V30 46 C 4.6773 3.29055 -1.12329 0
M  V30 47 H 4.0003 3.4795 -1.96903 0
M  V30 48 H 5.4403 4.08756 -1.12671 0
M  V30 49 C 3.8993 3.36461 0.171861 0
M  V30 50 O 4.4293 3.84576 1.16035 0
M  V30 51 N 2.6353 2.89782 0.217846 0
M  V30 52 H 2.1823 2.50819 -0.587183 0
M  V30 53 H 2.1403 2.95119 1.08408 0
M  V30 54 N 5.9124 1.20967 1.01018 0
M  V30 55 C 6.8754 0.965918 2.07853 0
M  V30 56 C 7.8754 -0.0610545 1.60684 0
M  V30 57 O 9.0654 0.175681 1.73312 0
M  V30 58 C 6.1974 0.455513 3.37843 0
M  V30 59 H 7.3904 1.91365 2.3091 0
M  V30 60 H 4.9434 1.02594 1.17916 0
M  V30 61 H 5.6784 -0.497381 3.20463 0
M  V30 62 H 5.4634 1.19622 3.73407 0
M  V30 63 H 6.9534 0.304667 4.16487 0
M  V30 64 N 7.3905 -1.2043 1.01659 0
M  V30 65 C 8.6185 -1.93777 0.725132 0
M  V30 66 C 9.0335 -1.74772 -0.714166 0
M  V30 67 O 8.3905 -1.06169 -1.4844 0
M  V30 68 C 8.4415 -3.45876 1.05129 0
M  V30 69 O 8.1625 -3.6426 2.43406 0
M  V30 70 C 9.6635 -4.36368 0.780891 0
M  V30 71 H 6.8835 -0.615901 0.266284 0
M  V30 72 H 9.4275 -1.52922 1.35776 0
M  V30 73 H 7.5825 -3.8461 0.464065 0
M  V30 74 H 7.9965 -4.58246 2.55169 0
M  V30 75 H 9.4705 -5.41743 1.05918 0
M  V30 76 H 9.9475 -4.38275 -0.284937 0
M  V30 77 H 10.5535 -4.03296 1.35027 0
M  V30 78 N 8.8686 -0.792821 -1.36206 0
M  V30 79 C 9.7986 -0.207853 -2.32573 0
M  V30 80 C 10.7796 0.659055 -1.56813 0
M  V30 81 O 11.9646 0.592176 -1.84951 0
M  V30 82 C 9.0946 0.655449 -3.41059 0
M  V30 83 C 8.0486 -0.111842 -4.27854 0
M  V30 84 C 7.3746 0.872274 -5.27537 0
M  V30 85 C 8.6746 -1.30299 -5.05786 0
M  V30 86 H 10.3686 -1.01294 -2.81744 0
M  V30 87 H 7.9146 -0.48854 -1.3546 0
M  V30 88 H 9.8676 1.07464 -4.07467 0
M  V30 89 H 8.5916 1.49328 -2.90463 0
M  V30 90 H 7.2506 -0.512053 -3.63006 0
M  V30 91 H 6.8986 1.70523 -4.73214 0
M  V30 92 H 6.5986 0.363291 -5.86476 0
M  V30 93 H 8.1226 1.28996 -5.96818 0
M  V30 94 H 9.5366 -0.959379 -5.65216 0
M  V30 95 H 7.9336 -1.7455 -5.74154 0
M  V30 96 H 9.0036 -2.09663 -4.37229 0
M  V30 97 N 10.3467 1.47872 -0.545128 0
M  V30 98 C 11.2937 2.29849 0.2093 0
M  V30 99 C 12.2637 1.38313 0.919707 0
M  V30 100 O 13.4487 1.67277 0.917772 0
M  V30 101 C 10.5887 3.22019 1.24088 0
M  V30 102 C 9.7017 4.2864 0.537778 0
M  V30 103 C 8.8367 5.07973 1.5536 0
M  V30 104 C 7.8757 6.06381 0.8348 0
M  V30 105 N 7.0127 6.78717 1.79688 0
M  V30 106 H 11.8527 2.93845 -0.49591 0
M  V30 107 H 9.3897 1.44848 -0.256389 0
M  V30 108 H 11.3477 3.73868 1.85144 0
M  V30 109 H 9.9777 2.59914 1.91428 0
M  V30 110 H 9.0297 3.7994 -0.187046 0
M  V30 111 H 10.3417 4.98793 -0.0258907 0
M  V30 112 H 9.4957 5.63912 2.23803 0
M  V30 113 H 8.2347 4.37693 2.15118 0
M  V30 114 H 7.2397 5.49631 0.136388 0
M  V30 115 H 8.4647 6.78665 0.24313 0
M  V30 116 H 6.4107 6.11177 2.38326 0
M  V30 117 H 6.3277 7.44998 1.28505 0
M  V30 118 H 7.5957 7.39237 2.47282 0
M  V30 119 N 11.8248 0.280983 1.55075 0
M  V30 120 C 13.2358 -0.215629 1.85451 0
M  V30 121 C 13.5868 -1.54991 1.203 0
M  V30 122 O 12.7118 -2.10699 0.493435 0
M  V30 123 C 13.3068 -0.398026 3.36454 0
M  V30 124 C 11.8658 -0.838866 3.66933 0
M  V30 125 C 11.0128 0.064458 2.77225 0
M  V30 126 H 13.9638 0.502601 1.50531 0
M  V30 127 H 13.9848 -1.23569 3.59876 0
M  V30 128 H 13.4968 0.573241 3.83843 0
M  V30 129 H 11.5978 -1.8214 3.25048 0
M  V30 130 H 11.7108 -0.672123 4.74362 0
M  V30 131 H 10.0748 -0.452863 2.50642 0
M  V30 132 H 10.8578 1.03172 3.2743 0
M  V30 133 N 13.3029 -1.57598 0.00835791 0
M  V30 134 C 14.2329 -2.1198 -0.979113 0
M  V30 135 C 15.2139 -1.03091 -1.35301 0
M  V30 136 O 16.3989 -1.30818 -1.43528 0
M  V30 137 C 13.5289 -2.62995 -2.26828 0
M  V30 138 C 12.4829 -3.76485 -2.03576 0
M  V30 139 C 11.8089 -4.13846 -3.38579 0
M  V30 140 C 13.1089 -5.0342 -1.39161 0
M  V30 141 H 14.8029 -2.94738 -0.526281 0
M  V30 142 H 12.3489 -1.41783 -0.251704 0
M  V30 143 H 14.3019 -2.99669 -2.96271 0
M  V30 144 H 13.0259 -1.7737 -2.7424 0
M  V30 145 H 11.6849 -3.40217 -1.36557 0
M  V30 146 H 11.3329 -3.25232 -3.83709 0
M  V30 147 H 11.0329 -4.90312 -3.23834 0
M  V30 148 H 12.5569 -4.53086 -4.09323 0
M  V30 149 H 13.9709 -5.37812 -1.98573 0
M  V30 150 H 12.3679 -5.84746 -1.34878 0
M  V30 151 H 13.4379 -4.83548 -0.361868 0
M  V30 152 N 14.781 0.264519 -1.55364 0
M  V30 153 C 16.021 1.00254 -1.78125 0
M  V30 154 C 16.385 1.83187 -0.575017 0
M  V30 155 O 17.586 2.60029 -0.681042 0
M  V30 156 C 15.857 1.85478 -3.05504 0
M  V30 157 S 17.416 2.6543 -3.49417 0
M  V30 158 H 14.234 0.337522 -0.625779 0
M  V30 159 H 16.836 0.272111 -1.93597 0
M  V30 160 H 15.54 1.23491 -3.9138 0
M  V30 161 H 15.071 2.62827 -2.92721 0
M  V30 162 H 17.086 3.87958 -3.09359 0
M  V30 163 N 16.2591 1.48442 0.529413 0
M  V30 164 C 17.6701 1.5002 1.11134 0
M  V30 165 C 18.0211 0.27031 1.94329 0
M  V30 166 O 17.1461 -0.622507 2.07253 0
M  V30 167 C 17.7411 2.71834 2.02217 0
M  V30 168 C 16.3001 2.76283 2.55627 0
M  V30 169 C 15.4471 2.43542 1.326 0
M  V30 170 H 18.3981 1.5555 0.314641 0
M  V30 171 H 18.4191 2.50384 2.8651 0
M  V30 172 H 17.9311 3.61331 1.41639 0
M  V30 173 H 16.0321 1.90995 3.19924 0
M  V30 174 H 16.1451 3.77725 2.94721 0
M  V30 175 H 14.5091 1.94709 1.64196 0
M  V30 176 H 15.2921 3.3528 0.737734 0
M  V30 177 N 17.7372 -0.778329 1.37039 0
M  V30 178 C 18.9862 -1.53189 1.3121 0
M  V30 179 C 19.2992 -1.95328 -0.103095 0
M  V30 180 O 20.5052 -2.70012 -0.283826 0
M  V30 181 C 18.9612 -2.76591 2.30272 0
M  V30 182 C 18.5692 -2.41577 3.77286 0
M  V30 183 C 20.3132 -3.5455 2.33441 0
M  V30 184 C 18.2202 -3.61441 4.68096 0
M  V30 185 H 17.1502 -0.5751 0.487622 0
M  V30 186 H 19.8012 -0.853101 1.62464 0
M  V30 187 H 18.1832 -3.46326 1.92027 0
M  V30 188 H 19.3572 -1.79668 4.2433 0
M  V30 189 H 17.6722 -1.76806 3.76999 0
M  V30 190 H 20.2692 -4.43628 2.98493 0
M  V30 191 H 20.6122 -3.93936 1.34611 0
M  V30 192 H 21.1452 -2.91805 2.7036 0
M  V30 193 H 17.8842 -3.27142 5.6803 0
M  V30 194 H 17.4042 -4.22478 4.25761 0
M  V30 195 H 19.0832 -4.28335 4.8491 0
M  V30 196 N 19.2153 -1.21501 -1.00376 0
M  V30 197 C 20.1453 -0.999478 -2.11028 0
M  V30 198 C 21.1263 0.0759671 -1.6993 0
M  V30 199 O 22.3113 -0.0841106 -1.94018 0
M  V30 200 C 19.4413 -0.564709 -3.42678 0
M  V30 201 C 18.3953 -1.58486 -3.97576 0
M  V30 202 C 17.7213 -1.00628 -5.25146 0
M  V30 203 C 19.0213 -2.97204 -4.29496 0
M  V30 204 H 20.7153 -1.92495 -2.29317 0
M  V30 205 H 18.2613 -0.92693 -1.102 0
M  V30 206 H 20.2143 -0.401091 -4.19487 0
M  V30 207 H 18.9383 0.396411 -3.24185 0
M  V30 208 H 17.5973 -1.73606 -3.22888 0
M  V30 209 H 17.2453 -0.0368439 -5.02987 0
M  V30 210 H 16.9453 -1.68771 -5.62841 0
M  V30 211 H 18.4693 -0.854015 -6.04598 0
M  V30 212 H 19.8833 -2.8552 -4.97143 0
M  V30 213 H 18.2803 -3.62372 -4.78338 0
M  V30 214 H 19.3503 -3.47956 -3.3772 0
M  V30 215 N 20.6934 1.19889 -1.02296 0
M  V30 216 C 21.6034 2.26571 -0.608508 0
M  V30 217 C 22.6194 1.70299 0.356964 0
M  V30 218 O 23.7954 2.00235 0.216326 0
M  V30 219 C 20.8604 3.46677 0.0402814 0
M  V30 220 C 19.9214 4.18153 -0.97194 0
M  V30 221 C 19.1544 5.32525 -0.354016 0
M  V30 222 O 19.3774 5.64112 0.844604 0
M  V30 223 O 18.3114 5.92242 -1.07391 0
M  V30 224 H 22.1374 2.64251 -1.49684 0
M  V30 225 H 19.7224 1.26629 -0.792809 0
M  V30 226 H 21.6044 4.19475 0.402324 0
M  V30 227 H 20.2794 3.10858 0.902707 0
M  V30 228 H 19.1864 3.47499 -1.38546 0
M  V30 229 H 20.5194 4.57927 -1.80454 0
M  V30 230 N 22.1715 0.800033 1.35784 0
M  V30 231 C 23.1035 0.163596 2.28615 0
M  V30 232 C 24.1165 -0.633317 1.49976 0
M  V30 233 O 25.3055 -0.466754 1.72289 0
M  V30 234 C 22.4055 -0.790958 3.29541 0
M  V30 235 C 21.5785 -0.0418255 4.3738 0
M  V30 236 C 20.6375 -0.91389 5.18203 0
M  V30 237 O 19.6635 -0.367234 5.68014 0
M  V30 238 N 20.8655 -2.23682 5.35674 0
M  V30 239 H 23.6305 0.96105 2.83873 0
M  V30 240 H 21.1915 0.654894 1.48063 0
M  V30 241 H 23.1835 -1.37844 3.80501 0
M  V30 242 H 21.7535 -1.48925 2.74846 0
M  V30 243 H 20.9735 0.726813 3.87442 0
M  V30 244 H 22.2615 0.474719 5.06581 0
M  V30 245 H 21.6595 -2.70497 4.96838 0
M  V30 246 H 20.2165 -2.77369 5.89839 0
M  V30 247 N 23.6496 -1.47581 0.552962 0
M  V30 248 C 24.5826 -2.26883 -0.244857 0
M  V30 249 C 25.5606 -1.33784 -0.924147 0
M  V30 250 O 26.7446 -1.6316 -0.943981 0
M  V30 251 C 23.8716 -3.10695 -1.34856 0
M  V30 252 C 22.9176 -4.19339 -0.778268 0
M  V30 253 S 23.7506 -5.34207 0.37184 0
M  V30 254 C 24.9066 -6.21584 -0.733779 0
M  V30 255 H 25.1396 -2.94202 0.428087 0
M  V30 256 H 22.6726 -1.50628 0.339197 0
M  V30 257 H 24.6306 -3.59555 -1.98066 0
M  V30 258 H 23.2916 -2.42746 -1.99332 0
M  V30 259 H 22.4846 -4.77695 -1.60696 0
M  V30 260 H 22.0866 -3.73338 -0.222422 0
M  V30 261 H 24.3786 -6.57676 -1.62692 0
M  V30 262 H 25.3216 -7.07851 -0.187668 0
M  V30 263 H 25.7296 -5.55125 -1.02454 0
M  V30 264 N 25.1277 -0.289203 -1.54924 0
M  V30 265 C 26.3527 0.329299 -2.04769 0
M  V30 266 C 26.7777 1.4763 -1.16564 0
M  V30 267 O 26.1357 1.80527 -0.167186 0
M  V30 268 C 26.1837 0.774438 -3.52186 0
M  V30 269 O 25.2877 1.88038 -3.67036 0
M  V30 270 H 24.6287 0.0659259 -0.660719 0
M  V30 271 H 27.1587 -0.42761 -2.00082 0
M  V30 272 H 27.1687 1.06642 -3.93816 0
M  V30 273 H 25.8437 -0.0646707 -4.1585 0
M  V30 274 H 24.4207 1.58985 -3.3731 0
M  V30 275 N 26.6058 1.57591 -0.0167156 0
M  V30 276 C 28.0218 1.55946 0.339557 0
M  V30 277 C 28.2218 1.02109 1.73713 0
M  V30 278 O 27.2778 0.662303 2.43659 0
M  V30 279 C 28.5908 3.00037 0.199499 0
M  V30 280 C 30.1388 3.11805 0.273193 0
M  V30 281 C 30.6138 4.57713 0.162068 0
M  V30 282 N 32.1048 4.6268 0.219444 0
M  V30 283 C 32.8398 5.73185 0.157054 0
M  V30 284 N 32.3358 6.92786 0.0442936 0
M  V30 285 N 34.1288 5.61707 0.21014 0
M  V30 286 H 26.2798 1.90921 -0.930758 0
M  V30 287 H 28.5428 0.877674 -0.358319 0
M  V30 288 H 28.2488 3.4333 -0.76273 0
M  V30 289 H 28.1228 3.64387 0.974786 0
M  V30 290 H 30.5098 2.68433 1.22587 0
M  V30 291 H 30.5908 2.50201 -0.532256 0
M  V30 292 H 30.2348 5.01763 -0.78714 0
M  V30 293 H 30.1648 5.17283 0.986222 0
M  V30 294 H 32.6558 3.76649 0.307246 0
M  V30 295 H 32.9688 7.728 0.00304069 0
M  V30 296 H 31.3138 6.94999 0.00968457 0
M  V30 297 H 34.5048 4.6716 0.296546 0
M  V30 298 H 34.6778 6.47807 0.158054 0
M  V30 299 N 28.0839 -0.256276 1.55502 0
M  V30 300 C 29.0139 -1.32102 1.92539 0
M  V30 301 C 29.9949 -1.50684 0.789194 0
M  V30 302 O 31.1799 -1.63449 1.04872 0
M  V30 303 C 28.3099 -2.67752 2.21192 0
M  V30 304 C 27.2639 -2.63878 3.36975 0
M  V30 305 C 26.5899 -4.03236 3.51147 0
M  V30 306 C 27.8899 -2.21682 4.72921 0
M  V30 307 H 29.5839 -1.01351 2.81724 0
M  V30 308 H 27.1299 -0.486105 1.35547 0
M  V30 309 H 29.0829 -3.42365 2.45691 0
M  V30 310 H 27.8069 -3.0012 1.28824 0
M  V30 311 H 26.4659 -1.91722 3.12471 0
M  V30 312 H 26.1139 -4.32854 2.56216 0
M  V30 313 H 25.8139 -4.01535 4.29003 0
M  V30 314 H 27.3379 -4.79563 3.77957 0
M  V30 315 H 28.7519 -2.86023 4.96854 0
M  V30 316 H 27.1489 -2.3111 5.53812 0
M  V30 317 H 28.2189 -1.16833 4.70615 0
M  V30 318 N 29.562 -1.4872 -0.521534 0
M  V30 319 C 30.494 -1.59968 -1.64143 0
M  V30 320 C 31.507 -0.483463 -1.55456 0
M  V30 321 O 32.696 -0.75467 -1.61762 0
M  V30 322 C 29.796 -1.52127 -3.02838 0
M  V30 323 C 28.969 -2.78932 -3.36921 0
M  V30 324 C 28.028 -2.64428 -4.54933 0
M  V30 325 O 27.054 -3.38331 -4.57735 0
M  V30 326 N 28.256 -1.74606 -5.53618 0
M  V30 327 H 31.021 -2.56548 -1.54929 0
M  V30 328 H 28.582 -1.45551 -0.708988 0
M  V30 329 H 30.574 -1.40106 -3.79674 0
M  V30 330 H 29.144 -0.634868 -3.06085 0
M  V30 331 H 28.364 -3.05455 -2.4918 0
M  V30 332 H 29.652 -3.63041 -3.56481 0
M  V30 333 H 29.05 -1.13782 -5.54139 0
M  V30 334 H 27.607 -1.6852 -6.29638 0
M  V30 335 N 31.0401 0.771051 -1.3745 0
M  V30 336 C 32.2651 1.56529 -1.36065 0
M  V30 337 C 32.6901 1.88029 0.0515859 0
M  V30 338 O 32.0481 1.49282 1.02882 0
M  V30 339 C 32.0961 2.85187 -2.20683 0
M  V30 340 O 31.2001 3.79593 -1.61193 0
M  V30 341 H 30.5411 0.47411 -0.464883 0
M  V30 342 H 33.0711 0.954269 -1.80983 0
M  V30 343 H 33.0811 3.34283 -2.33921 0
M  V30 344 H 31.7561 2.61588 -3.23334 0
M  V30 345 H 30.3331 3.38239 -1.56999 0
M  V30 346 N 32.5182 1.22032 0.997298 0
M  V30 347 C 33.4682 0.953838 2.07089 0
M  V30 348 C 34.4522 -0.0938669 1.60626 0
M  V30 349 O 35.6442 0.116078 1.76619 0
M  V30 350 C 32.7732 0.528726 3.39204 0
M  V30 351 C 31.8592 1.61092 3.92314 0
M  V30 352 N 32.2502 2.83768 4.18699 0
M  V30 353 C 30.5482 1.48158 4.20672 0
M  V30 354 C 31.2492 3.53715 4.61802 0
M  V30 355 N 30.2252 2.81174 4.65233 0
M  V30 356 H 34.0272 1.88577 2.25424 0
M  V30 357 H 31.5412 1.11719 1.17867 0
M  V30 358 H 33.5382 0.31915 4.15677 0
M  V30 359 H 32.1982 -0.39635 3.22272 0
M  V30 360 H 33.2092 3.20238 4.07023 0
M  V30 361 H 29.8862 0.622369 4.12835 0
M  V30 362 H 31.2762 4.58793 4.90875 0
M  V30 363 N 33.9963 -1.19345 1.0293 0
M  V30 364 C 35.2213 -1.93538 0.745511 0
M  V30 365 C 35.6463 -1.75007 -0.689511 0
M  V30 366 O 35.0043 -1.05265 -1.47611 0
M  V30 367 C 35.0523 -3.43336 1.10239 0
M  V30 368 O 34.1563 -4.11806 0.221289 0
M  V30 369 H 33.4973 -0.604193 0.275404 0
M  V30 370 H 36.0273 -1.5141 1.37609 0
M  V30 371 H 36.0373 -3.94004 1.05947 0
M  V30 372 H 34.7123 -3.56146 2.14786 0
M  V30 373 H 33.2893 -3.715 0.322842 0
M  V30 374 N 35.4744 -0.807222 -1.35358 0
M  V30 375 C 36.4224 -0.20614 -2.31685 0
M  V30 376 C 37.4164 0.644445 -1.56663 0
M  V30 377 O 38.6224 0.537538 -1.71786 0
M  V30 378 H 34.9974 -0.0479006 -0.750473 0
M  V30 379 H 36.9684 -1.03369 -2.79924 0
M  V30 380 C 35.7174 0.630212 -3.41941 0
M  V30 381 H 35.0404 -0.0149558 -3.99797 0
M  V30 382 H 36.4804 1.01716 -4.11619 0
M  V30 383 C 34.9394 1.79601 -2.85035 0
M  V30 384 O 35.4694 2.89351 -2.78637 0
M  V30 385 N 33.6754 1.60774 -2.42074 0
M  V30 386 H 33.2224 0.715009 -2.47478 0
M  V30 387 H 33.1804 2.38933 -2.04349 0
M  V30 388 N 36.9525 1.47285 -0.560781 0
M  V30 389 C 38.1805 2.06855 -0.0430262 0
M  V30 390 C 38.5955 1.41291 1.25229 0
M  V30 391 O 37.9525 0.510648 1.7521 0
M  V30 392 C 38.0035 3.61178 0.152518 0
M  V30 393 O 37.7245 4.24285 -1.0915 0
M  V30 394 C 39.2255 4.37624 0.707145 0
M  V30 395 H 36.4455 0.669319 -0.0474652 0
M  V30 396 H 38.9895 1.89237 -0.77521 0
M  V30 397 H 37.1445 3.78298 0.834843 0
M  V30 398 H 37.5585 5.16868 -0.891482 0
M  V30 399 H 39.0325 5.46271 0.793244 0
M  V30 400 H 39.5095 4.04152 1.71923 0
M  V30 401 H 40.1155 4.25257 0.0604027 0
M  V30 402 N 38.4306 0.297415 1.54768 0
M  V30 403 C 39.6556 -0.318435 2.04941 0
M  V30 404 C 40.0806 -1.4701 1.17345 0
M  V30 405 O 39.4386 -1.80436 0.176758 0
M  V30 406 C 39.4866 -0.755749 3.52592 0
M  V30 407 O 38.5906 -1.86088 3.68028 0
M  V30 408 H 37.9316 -0.062421 0.661059 0
M  V30 409 H 40.4616 0.438215 1.99852 0
M  V30 410 H 40.4716 -1.04552 3.94376 0
M  V30 411 H 39.1466 0.0867233 4.1581 0
M  V30 412 H 37.7236 -1.57193 3.38149 0
M  V30 413 N 39.9087 -1.5758 0.0250728 0
M  V30 414 C 41.1577 -1.90811 -0.653767 0
M  V30 415 C 41.4707 -0.90273 -1.73523 0
M  V30 416 O 42.6767 -1.12614 -2.47043 0
M  V30 417 C 41.1327 -3.38804 -1.21409 0
M  V30 418 C 40.7407 -4.47692 -0.166126 0
M  V30 419 C 42.4847 -3.81108 -1.86967 0
M  V30 420 C 40.3917 -5.86779 -0.737856 0
M  V30 421 H 39.3217 -0.712063 -0.247956 0
M  V30 422 H 41.9727 -1.83281 0.0897137 0
M  V30 423 H 40.3547 -3.41252 -2.00905 0
M  V30 424 H 41.5287 -4.56797 0.606079 0
M  V30 425 H 39.8437 -4.14565 0.390466 0
M  V30 426 H 42.4407 -4.82375 -2.30692 0
M  V30 427 H 42.7837 -3.15953 -2.71071 0
M  V30 428 H 43.3167 -3.81065 -1.14167 0
M  V30 429 H 40.0557 -6.55468 0.0649577 0
M  V30 430 H 39.5757 -5.81288 -1.47864 0
M  V30 431 H 41.2547 -6.35223 -1.22884 0
M  V30 432 N 41.3868 0.248026 -1.55636 0
M  V30 433 C 42.8028 0.596483 -1.48035 0
M  V30 434 C 43.0028 1.88386 -0.715039 0
M  V30 435 O 42.0588 2.51319 -0.243944 0
M  V30 436 C 43.3718 0.700258 -2.92433 0
M  V30 437 C 44.9198 0.792659 -3.02797 0
M  V30 438 C 45.3948 0.928005 -4.485 0
M  V30 439 N 46.8858 0.992903 -4.52433 0
M  V30 440 C 47.6208 1.11687 -5.62418 0
M  V30 441 N 47.1168 1.20645 -6.82214 0
M  V30 442 N 48.9098 1.14994 -5.50212 0
M  V30 443 H 41.0608 -0.597109 -2.03834 0
M  V30 444 H 43.3238 -0.205925 -0.925364 0
M  V30 445 H 43.0298 -0.175658 -3.51261 0
M  V30 446 H 42.9038 1.57255 -3.42857 0
M  V30 447 H 45.2908 1.65903 -2.4405 0
M  V30 448 H 45.3718 -0.104762 -2.55585 0
M  V30 449 H 45.0158 0.0661971 -5.07857 0
M  V30 450 H 44.9458 1.84045 -4.93391 0
M  V30 451 H 47.4368 0.935064 -3.66149 0
M  V30 452 H 47.7498 1.30008 -7.61786 0
M  V30 453 H 46.0948 1.17605 -6.84977 0
M  V30 454 H 49.2858 1.07643 -4.55555 0
M  V30 455 H 49.4588 1.24311 -6.35965 0
M  V30 456 N 42.8649 1.48995 0.513639 0
M  V30 457 C 44.0949 1.61297 1.291 0
M  V30 458 C 44.5029 0.278656 1.87137 0
M  V30 459 O 43.8459 -0.744325 1.67945 0
M  V30 460 C 43.9079 2.61326 2.46879 0
M  V30 461 C 43.5719 4.05993 2.09807 0
M  V30 462 C 44.5689 4.93183 1.64519 0
M  V30 463 C 42.2539 4.51642 2.19829 0
M  V30 464 C 44.2479 6.24056 1.2974 0
M  V30 465 C 41.9349 5.82532 1.84662 0
M  V30 466 C 42.9329 6.68562 1.3969 0
M  V30 467 O 42.6209 7.97014 1.04992 0
M  V30 468 H 42.3529 0.546236 0.39825 0
M  V30 469 H 44.9069 1.95673 0.62459 0
M  V30 470 H 43.1369 2.22104 3.16554 0
M  V30 471 H 44.8259 2.6329 3.08923 0
M  V30 472 H 45.5919 4.59147 1.56233 0
M  V30 473 H 41.4709 3.84855 2.53786 0
M  V30 474 H 45.0149 6.91161 0.945659 0
M  V30 475 H 40.9119 6.16099 1.92594 0
M  V30 476 H 41.6799 8.09913 1.18249 0
M  V30 477 N 44.343 -0.763751 1.37857 0
M  V30 478 C 45.592 -1.51789 1.32827 0
M  V30 479 C 45.905 -1.95426 -0.0823719 0
M  V30 480 O 47.111 -2.70298 -0.255172 0
M  V30 481 C 45.567 -2.74133 2.33193 0
M  V30 482 C 45.175 -2.37562 3.79827 0
M  V30 483 C 46.919 -3.52054 2.37188 0
M  V30 484 C 44.826 -3.56456 4.71904 0
M  V30 485 H 43.756 -0.569896 0.493695 0
M  V30 486 H 46.407 -0.835822 1.63359 0
M  V30 487 H 44.789 -3.4427 1.9569 0
M  V30 488 H 45.963 -1.75157 4.26212 0
M  V30 489 H 44.278 -1.72798 3.78853 0
M  V30 490 H 46.875 -4.40437 3.03182 0
M  V30 491 H 47.218 -3.92486 1.38782 0
M  V30 492 H 47.751 -2.88921 2.7344 0
M  V30 493 H 44.49 -3.21099 5.71468 0
M  V30 494 H 44.01 -4.17938 4.30218 0
M  V30 495 H 45.689 -4.23168 4.89426 0
M  V30 496 N 45.8211 -1.22559 -0.990812 0
M  V30 497 C 47.0981 -0.959875 -1.70428 0
M  V30 498 C 47.4781 0.524455 -2.04481 0
M  V30 499 O 46.8261 1.49302 -1.72977 0
M  V30 500 C 47.0361 -1.85955 -2.95333 0
M  V30 501 C 48.3841 -2.11687 -3.68068 0
M  V30 502 O 49.4081 -1.8342 -3.05345 0
M  V30 503 O 48.2671 -2.59572 -4.80921 0
M  V30 504 H 45.3611 -0.361154 -0.743974 0
M  V30 505 H 47.9071 -1.33554 -1.04697 0
M  V30 506 H 46.6791 -2.86346 -2.66687 0
M  V30 507 H 46.3021 -1.4856 -3.68803 0
M  V30 508 N 47.2992 1.18797 -1.03562 0
M  V30 509 C 48.2492 2.20161 -0.592724 0
M  V30 510 C 49.2332 1.56772 0.362133 0
M  V30 511 O 50.4252 1.76062 0.182009 0
M  V30 512 C 47.5542 3.43266 0.0481024 0
M  V30 513 C 46.6402 4.13786 -0.9296 0
M  V30 514 N 47.0312 4.60388 -2.09467 0
M  V30 515 C 45.3292 4.39572 -0.754499 0
M  V30 516 C 46.0302 5.14619 -2.71187 0
M  V30 517 N 45.0062 5.05826 -1.991 0
M  V30 518 H 48.8082 2.53877 -1.48066 0
M  V30 519 H 46.3222 1.34946 -0.903514 0
M  V30 520 H 48.3192 4.15136 0.383058 0
M  V30 521 H 46.9792 3.11048 0.931636 0
M  V30 522 H 47.9902 4.54999 -2.47379 0
M  V30 523 H 44.6672 4.17425 0.0793713 0
M  V30 524 H 46.0572 5.60917 -3.69895 0
M  V30 525 N 48.7773 0.814389 1.34928 0
M  V30 526 C 49.7403 0.235759 2.27984 0
M  V30 527 C 50.7403 -0.581412 1.49921 0
M  V30 528 O 51.9303 -0.398758 1.69575 0
M  V30 529 C 49.0623 -0.670433 3.34242 0
M  V30 530 H 50.2553 1.05659 2.80671 0
M  V30 531 H 47.8083 0.585614 1.44915 0
M  V30 532 H 48.5433 -1.51466 2.86755 0
M  V30 533 H 48.3283 -0.0860822 3.92005 0
M  V30 534 H 49.8183 -1.06935 4.03676 0
M  V30 535 N 50.2554 -1.46986 0.568584 0
M  V30 536 C 51.2184 -2.28624 -0.162366 0
M  V30 537 C 52.2184 -1.37596 -0.832103 0
M  V30 538 O 53.4084 -1.60115 -0.68622 0
M  V30 539 C 50.5404 -3.17596 -1.23878 0
M  V30 540 H 51.7334 -2.94722 0.554899 0
M  V30 541 H 49.2864 -1.52863 0.325976 0
M  V30 542 H 50.0214 -2.56214 -1.98808 0
M  V30 543 H 49.8064 -3.846 -0.763219 0
M  V30 544 H 51.2964 -3.79078 -1.75185 0
M  V30 545 N 51.7335 -0.305618 -1.54608 0
M  V30 546 C 52.9795 0.302746 -2.00528 0
M  V30 547 C 53.3125 1.53184 -1.19367 0
M  V30 548 O 52.5875 1.92598 -0.271321 0
M  V30 549 C 52.8705 0.654756 -3.54097 0
M  V30 550 C 52.7235 -0.583793 -4.45995 0
M  V30 551 C 54.0425 1.47947 -4.14487 0
M  V30 552 H 51.1615 0.108564 -0.72896 0
M  V30 553 H 53.8035 -0.418634 -1.85331 0
M  V30 554 H 51.9535 1.26935 -3.67178 0
M  V30 555 H 53.6255 -1.22224 -4.44814 0
M  V30 556 H 51.8685 -1.21615 -4.16404 0
M  V30 557 H 52.5395 -0.293287 -5.5122 0
M  V30 558 H 55.0155 0.96013 -4.04871 0
M  V30 559 H 53.8915 1.69454 -5.22088 0
M  V30 560 H 54.1525 2.47011 -3.66658 0
M  V30 561 N 53.2116 1.57565 -0.0334293 0
M  V30 562 C 54.1416 2.13511 0.945265 0
M  V30 563 C 55.1226 1.05231 1.33643 0
M  V30 564 O 56.3076 1.33084 1.41429 0
M  V30 565 C 53.4376 2.6657 2.22616 0
M  V30 566 C 52.3916 3.79676 1.97561 0
M  V30 567 C 51.7176 4.1918 3.31952 0
M  V30 568 C 53.0176 5.0557 1.31135 0
M  V30 569 H 54.7116 2.95538 0.479325 0
M  V30 570 H 52.2576 1.42166 0.229115 0
M  V30 571 H 54.2106 3.04344 2.91466 0
M  V30 572 H 52.9346 1.8171 2.71384 0
M  V30 573 H 51.5936 3.42347 1.31127 0
M  V30 574 H 51.2416 3.31296 3.78487 0
M  V30 575 H 50.9416 4.95402 3.15992 0
M  V30 576 H 52.4656 4.59541 4.02063 0
M  V30 577 H 53.8796 5.40903 1.89992 0
M  V30 578 H 52.2766 5.86818 1.25559 0
M  V30 579 H 53.3466 4.84062 0.284894 0
M  V30 580 N 54.6897 -0.239769 1.55765 0
M  V30 581 C 55.6197 -1.30052 1.9393 0
M  V30 582 C 56.6007 -1.49839 0.805132 0
M  V30 583 O 57.7857 -1.62328 1.06599 0
M  V30 584 C 54.9157 -2.65391 2.2402 0
M  V30 585 C 53.8697 -2.60289 3.39755 0
M  V30 586 C 53.1957 -3.99489 3.55405 0
M  V30 587 C 54.4957 -2.16654 4.75246 0
M  V30 588 H 56.1897 -0.983573 2.82783 0
M  V30 589 H 53.7357 -0.471701 1.36055 0
M  V30 590 H 55.6887 -3.3974 2.49308 0
M  V30 591 H 54.4127 -2.98736 1.32 0
M  V30 592 H 53.0717 -1.88398 3.14487 0
M  V30 593 H 52.7197 -4.30112 2.60793 0
M  V30 594 H 52.4197 -3.96962 4.33238 0
M  V30 595 H 53.9437 -4.75528 3.83022 0
M  V30 596 H 55.3577 -2.80737 4.99859 0
M  V30 597 H 53.7547 -2.25223 5.56232 0
M  V30 598 H 54.8247 -1.11835 4.71827 0
M  V30 599 N 56.1678 -1.49265 -0.50573 0
M  V30 600 C 57.1178 -1.6198 -1.60457 0
M  V30 601 C 58.1018 -0.47568 -1.53708 0
M  V30 602 O 59.2938 -0.728392 -1.61318 0
M  V30 603 C 56.4228 -1.68526 -2.99089 0
M  V30 604 C 55.5088 -2.885 -3.10852 0
M  V30 605 N 55.8998 -4.12635 -2.92517 0
M  V30 606 C 54.1978 -2.86338 -3.41945 0
M  V30 607 C 54.8988 -4.93258 -3.08337 0
M  V30 608 N 53.8748 -4.26533 -3.37003 0
M  V30 609 H 57.6768 -2.55681 -1.44928 0
M  V30 610 H 55.1908 -1.45972 -0.711752 0
M  V30 611 H 57.1878 -1.75732 -3.78053 0
M  V30 612 H 55.8478 -0.759584 -3.1569 0
M  V30 613 H 56.8588 -4.42689 -2.68787 0
M  V30 614 H 53.5358 -2.03129 -3.64753 0
M  V30 615 H 54.9258 -6.01856 -2.98695 0
M  V30 616 N 57.6459 0.756429 -1.3826 0
M  V30 617 C 58.8939 1.51248 -1.34047 0
M  V30 618 C 59.2149 1.94875 0.0698372 0
M  V30 619 O 58.4849 1.67436 1.01696 0
M  V30 620 H 57.0649 0.561018 -0.493222 0
M  V30 621 H 59.7269 0.899347 -1.7291 0
M  V30 622 H 58.8229 2.40472 -1.98947 0
M  V30 623 N 59.124 1.23083 0.984299 0
M  V30 624 C 60.054 1.03292 2.09411 0
M  V30 625 C 61.035 -0.048923 1.7003 0
M  V30 626 O 62.22 0.114967 1.93859 0
M  V30 627 C 59.35 0.619155 3.41736 0
M  V30 628 C 58.304 1.64791 3.95004 0
M  V30 629 C 57.63 1.0897 5.23478 0
M  V30 630 C 58.93 3.03999 4.24714 0
M  V30 631 H 60.624 1.96119 2.26225 0
M  V30 632 H 58.17 0.944344 1.08711 0
M  V30 633 H 60.123 0.467777 4.18796 0
M  V30 634 H 58.847 -0.344786 3.24775 0
M  V30 635 H 57.506 1.78721 3.20085 0
M  V30 636 H 57.154 0.11686 5.02864 0
M  V30 637 H 56.854 1.77704 5.60085 0
M  V30 638 H 58.378 0.950093 6.03163 0
M  V30 639 H 59.792 2.93393 4.92538 0
M  V30 640 H 58.189 3.69936 4.72512 0
M  V30 641 H 59.259 3.53285 3.32142 0
M  V30 642 N 60.6021 -1.18246 1.0419 0
M  V30 643 C 61.5651 -2.20128 0.638452 0
M  V30 644 C 62.5651 -1.57885 -0.304805 0
M  V30 645 O 63.7551 -1.73967 -0.0900369 0
M  V30 646 C 60.8871 -3.4084 -0.0637751 0
M  V30 647 H 62.0801 -2.57336 1.54007 0
M  V30 648 H 59.6331 -1.32152 0.834598 0
M  V30 649 H 60.3681 -3.09166 -0.979136 0
M  V30 650 H 60.1531 -3.8726 0.614198 0
M  V30 651 H 61.6431 -4.16274 -0.332512 0
M  V30 652 N 62.0802 -0.821533 -1.34494 0
M  V30 653 C 63.3052 -0.420873 -2.03085 0
M  V30 654 C 63.7302 0.964915 -1.61465 0
M  V30 655 O 63.0882 1.62763 -0.798607 0
M  V30 656 C 63.1362 -0.529414 -3.56693 0
M  V30 657 O 62.2402 0.451302 -4.09923 0
M  V30 658 H 61.5812 -0.173489 -0.640935 0
M  V30 659 H 64.1112 -1.11157 -1.71771 0
M  V30 660 H 64.1212 -0.404671 -4.05988 0
M  V30 661 H 62.7962 -1.54014 -3.86332 0
M  V30 662 H 61.3732 0.285558 -3.71805 0
M  V30 663 N 63.5583 1.46682 -0.576371 0
M  V30 664 C 64.4883 2.33028 0.148397 0
M  V30 665 C 65.4693 1.44961 0.889956 0
M  V30 666 O 66.6543 1.73789 0.866662 0
M  V30 667 C 63.7843 3.27117 1.1667 0
M  V30 668 C 62.7383 4.24575 0.540386 0
M  V30 669 C 62.0643 5.08126 1.6647 0
M  V30 670 C 63.3643 5.19722 -0.518331 0
M  V30 671 H 65.0583 2.93875 -0.572509 0
M  V30 672 H 62.6043 1.41315 -0.276768 0
M  V30 673 H 64.5573 3.86374 1.68204 0
M  V30 674 H 63.2813 2.64364 1.9178 0
M  V30 675 H 61.9403 3.66571 0.0461769 0
M  V30 676 H 61.5883 4.41762 2.40531 0
M  V30 677 H 61.2883 5.74122 1.25131 0
M  V30 678 H 62.8123 5.70246 2.18293 0
M  V30 679 H 64.2263 5.73232 -0.0883058 0
M  V30 680 H 62.6233 5.94026 -0.851679 0
M  V30 681 H 63.6933 4.64037 -1.40703 0
M  V30 682 N 65.0364 0.313813 1.54444 0
M  V30 683 C 65.9664 -0.549454 2.26943 0
M  V30 684 C 66.9474 -1.12741 1.27372 0
M  V30 685 O 68.1324 -1.15436 1.56167 0
M  V30 686 C 65.2624 -1.71523 3.01989 0
M  V30 687 C 64.2164 -1.26703 4.08816 0
M  V30 688 C 63.5424 -2.51898 4.71647 0
M  V30 689 C 64.8424 -0.388962 5.2085 0
M  V30 690 H 66.5364 0.0552661 2.99349 0
M  V30 691 H 64.0824 0.0280207 1.43973 0
M  V30 692 H 66.0354 -2.32535 3.51433 0
M  V30 693 H 64.7594 -2.34639 2.27183 0
M  V30 694 H 63.4184 -0.679896 3.6024 0
M  V30 695 H 63.0664 -3.13356 3.93468 0
M  V30 696 H 62.7664 -2.22605 5.43802 0
M  V30 697 H 64.2904 -3.1369 5.23861 0
M  V30 698 H 65.7044 -0.905107 5.6611 0
M  V30 699 H 64.1014 -0.18924 5.99802 0
M  V30 700 H 65.1714 0.582699 4.81386 0
M  V30 701 N 66.5145 -1.57545 0.0417849 0
M  V30 702 C 67.7625 -1.91937 -0.632829 0
M  V30 703 C 68.0835 -0.919978 -1.71934 0
M  V30 704 O 67.3535 0.0366064 -1.95866 0
M  V30 705 H 65.9335 -0.708493 -0.236742 0
M  V30 706 H 68.5955 -1.9468 0.0925745 0
M  V30 707 H 67.6915 -2.92912 -1.07746 0
M  V30 708 N 67.9926 0.231505 -1.5589 0
M  V30 709 C 68.9226 1.29022 -1.94617 0
M  V30 710 C 69.9036 1.4941 -0.813067 0
M  V30 711 O 71.0886 1.6176 -1.07459 0
M  V30 712 C 68.2186 2.64199 -2.25424 0
M  V30 713 C 67.1726 2.58484 -3.41131 0
M  V30 714 C 66.4986 3.97599 -3.57518 0
M  V30 715 C 67.7986 2.1413 -4.76388 0
M  V30 716 H 69.4926 0.968563 -2.83301 0
M  V30 717 H 67.0386 0.464479 -1.36303 0
M  V30 718 H 68.9916 3.38413 -2.51107 0
M  V30 719 H 67.7156 2.98032 -1.33583 0
M  V30 720 H 66.3746 1.86727 -3.15481 0
M  V30 721 H 66.0226 4.28723 -2.6307 0
M  V30 722 H 65.7226 3.94659 -4.35337 0
M  V30 723 H 67.2466 4.7349 -3.85538 0
M  V30 724 H 68.6606 2.78083 -5.01341 0
M  V30 725 H 67.0576 2.2227 -5.57419 0
M  V30 726 H 68.1276 1.09331 -4.72414 0
M  V30 727 N 69.4707 1.49531 0.497807 0
M  V30 728 C 70.7167 1.59415 1.25358 0
M  V30 729 C 71.0497 0.281422 1.9215 0
M  V30 730 O 70.3247 -0.715249 1.80871 0
M  V30 731 C 70.6077 2.75566 2.3181 0
M  V30 732 C 70.4607 4.16642 1.69498 0
M  V30 733 C 71.7797 2.87347 3.33346 0
M  V30 734 H 68.8987 0.580244 0.454408 0
M  V30 735 H 71.5407 1.81827 0.551262 0
M  V30 736 H 69.6907 2.56587 2.91711 0
M  V30 737 H 71.3627 4.47145 1.13399 0
M  V30 738 H 69.6057 4.22141 0.998978 0
M  V30 739 H 70.2767 4.93792 2.46725 0
M  V30 740 H 72.7527 3.04634 2.83438 0
M  V30 741 H 71.6287 3.70289 4.05188 0
M  V30 742 H 71.8897 1.96834 3.95865 0
M  V30 743 N 70.9488 -0.749086 1.3866 0
M  V30 744 C 71.8588 -1.89358 1.38494 0
M  V30 745 C 72.8748 -1.71708 0.281476 0
M  V30 746 O 74.0508 -1.94554 0.520643 0
M  V30 747 C 71.1158 -3.24782 1.21316 0
M  V30 748 C 70.1768 -3.54926 2.41508 0
M  V30 749 C 69.4098 -4.83888 2.2514 0
M  V30 750 O 69.6328 -5.56592 1.24746 0
M  V30 751 O 68.5668 -5.13612 3.13826 0
M  V30 752 H 72.3928 -1.92452 2.34938 0
M  V30 753 H 69.9778 -0.894981 1.19626 0
M  V30 754 H 71.8598 -4.05739 1.13814 0
M  V30 755 H 70.5348 -3.2249 0.279592 0
M  V30 756 H 69.4418 -2.74112 2.54585 0
M  V30 757 H 70.7748 -3.61983 3.3351 0
M  V30 758 N 72.4269 -1.23603 -0.977757 0
M  V30 759 C 73.3749 -1.01704 -2.09187 0
M  V30 760 C 74.3689 0.0448214 -1.69341 0
M  V30 761 O 75.5749 -0.108902 -1.7967 0
M  V30 762 H 71.9499 -0.311803 -0.684312 0
M  V30 763 H 73.9209 -1.96207 -2.24823 0
M  V30 764 C 72.6699 -0.627746 -3.41986 0
M  V30 765 H 71.9929 -1.43656 -3.73099 0
M  V30 766 H 73.4329 -0.514053 -4.20872 0
M  V30 767 C 71.8919 0.664238 -3.30287 0
M  V30 768 O 72.4219 1.71268 -3.6336 0
M  V30 769 N 70.6279 0.641156 -2.83439 0
M  V30 770 H 70.1749 -0.212376 -2.56723 0
M  V30 771 H 70.1329 1.50583 -2.75993 0
M  V30 772 N 73.905 1.17692 -1.04816 0
M  V30 773 C 75.153 1.87488 -0.754497 0
M  V30 774 C 75.474 1.81205 0.720407 0
M  V30 775 O 74.744 1.23544 1.52032 0
M  V30 776 H 73.324 0.694101 -0.276102 0
M  V30 777 H 75.986 1.42793 -1.32651 0
M  V30 778 H 75.082 2.93328 -1.06606 0
M  V30 779 N 75.3831 0.828654 1.34056 0
M  V30 780 C 76.6291 0.42008 1.98402 0
M  V30 781 C 76.9621 -1.01564 1.65525 0
M  V30 782 O 76.2371 -1.70834 0.929831 0
M  V30 783 C 76.5201 0.62927 3.54559 0
M  V30 784 C 76.3731 2.11152 3.97159 0
M  V30 785 C 77.6921 0.0688756 4.40046 0
M  V30 786 H 74.8111 0.154104 0.720709 0
M  V30 787 H 77.4531 1.04228 1.5886 0
M  V30 788 H 75.6031 0.0996418 3.88372 0
M  V30 789 H 77.2751 2.70522 3.73651 0
M  V30 790 H 75.5181 2.59985 3.47261 0
M  V30 791 H 76.1891 2.20868 5.05887 0
M  V30 792 H 78.6651 0.521458 4.1282 0
M  V30 793 H 77.5411 0.245006 5.48353 0
M  V30 794 H 77.8021 -1.0266 4.30015 0
M  V30 795 N 76.8612 -1.46375 0.584142 0
M  V30 796 C 78.1102 -2.01585 0.0679741 0
M  V30 797 C 78.4232 -1.46109 -1.30045 0
M  V30 798 O 79.6292 -1.93148 -1.90804 0
M  V30 799 C 78.0852 -3.5983 0.0709207 0
M  V30 800 C 77.6932 -4.24303 1.43775 0
M  V30 801 C 79.4372 -4.22693 -0.391228 0
M  V30 802 C 77.3442 -5.74631 1.39834 0
M  V30 803 H 76.2742 -0.753689 0.0216421 0
M  V30 804 H 78.9252 -1.68093 0.736001 0
M  V30 805 H 77.3072 -3.90405 -0.663299 0
M  V30 806 H 78.4812 -4.05335 2.19181 0
M  V30 807 H 76.7962 -3.73539 1.84004 0
M  V30 808 H 79.3932 -5.3289 -0.439524 0
M  V30 809 H 79.7362 -3.91728 -1.40906 0
M  V30 810 H 80.2692 -3.96749 0.288974 0
M  V30 811 H 77.0082 -6.10258 2.39303 0
M  V30 812 H 76.5282 -5.95858 0.686505 0
M  V30 813 H 78.2072 -6.37375 1.11187 0
M  V30 814 N 78.3393 -0.321999 -1.54275 0
M  V30 815 C 79.2693 0.537411 -2.27231 0
M  V30 816 C 80.2503 1.12064 -1.27968 0
M  V30 817 O 81.4353 1.14606 -1.56777 0
M  V30 818 C 78.5653 1.69919 -3.02894 0
M  V30 819 C 77.5193 1.24534 -4.09482 0
M  V30 820 C 76.8453 2.49394 -4.72977 0
M  V30 821 C 78.1453 0.361335 -5.21049 0
M  V30 822 H 79.8393 -0.0711406 -2.99315 0
M  V30 823 H 77.3853 -0.0356555 -1.43956 0
M  V30 824 H 79.3383 2.30668 -3.52662 0
M  V30 825 H 78.0623 2.33431 -2.28424 0
M  V30 826 H 76.7213 0.660782 -3.60596 0
M  V30 827 H 76.3693 3.11265 -3.95124 0
M  V30 828 H 76.0693 2.19718 -5.44975 0
M  V30 829 H 77.5933 3.10908 -5.25517 0
M  V30 830 H 79.0073 0.875072 -5.66582 0
M  V30 831 H 77.4043 0.157428 -5.99893 0
M  V30 832 H 78.4743 -0.60822 -4.8107 0
M  V30 833 N 79.8174 1.5752 -0.0501392 0
M  V30 834 C 81.0644 1.9265 0.623874 0
M  V30 835 C 81.3924 0.928411 1.70912 0
M  V30 836 O 80.6474 -0.0594525 1.9561 0
M  V30 837 C 80.9464 3.34467 1.25963 0
M  V30 838 C 80.6124 4.49883 0.302689 0
M  V30 839 C 79.2744 4.81184 0.0393636 0
M  V30 840 C 81.6264 5.20002 -0.353205 0
M  V30 841 C 78.9544 5.79951 -0.887308 0
M  V30 842 C 81.3064 6.1976 -1.26806 0
M  V30 843 C 79.9704 6.49491 -1.54007 0
M  V30 844 H 79.2404 0.704957 0.228292 0
M  V30 845 H 81.8874 1.91146 -0.116398 0
M  V30 846 H 80.1924 3.32333 2.07514 0
M  V30 847 H 81.8894 3.58928 1.78806 0
M  V30 848 H 78.4794 4.25457 0.518109 0
M  V30 849 H 82.6634 4.96033 -0.162854 0
M  V30 850 H 77.9194 6.01322 -1.10553 0
M  V30 851 H 82.0934 6.73205 -1.78236 0
M  V30 852 H 79.7204 7.25837 -2.25976 0
M  V30 853 N 81.2955 -0.223234 1.56011 0
M  V30 854 C 82.5415 -0.949279 1.79211 0
M  V30 855 C 82.8745 -1.84054 0.619494 0
M  V30 856 O 82.1495 -1.90726 -0.381317 0
M  V30 857 C 82.4325 -1.78965 3.12479 0
M  V30 858 C 82.2855 -0.924997 4.40186 0
M  V30 859 C 83.6045 -2.76774 3.42175 0
M  V30 860 H 80.7235 -0.343676 0.651963 0
M  V30 861 H 83.3655 -0.218253 1.88742 0
M  V30 862 H 81.5155 -2.41291 3.04485 0
M  V30 863 H 83.1875 -0.318615 4.60198 0
M  V30 864 H 81.4305 -0.230344 4.33188 0
M  V30 865 H 82.1015 -1.54735 5.29869 0
M  V30 866 H 84.5775 -2.24584 3.50287 0
M  V30 867 H 83.4535 -3.32678 4.36597 0
M  V30 868 H 83.7145 -3.54429 2.64258 0
M  V30 869 N 82.7736 -1.49793 -0.48987 0
M  V30 870 C 84.0196 -1.60078 -1.24511 0
M  V30 871 C 84.3526 -0.291608 -1.91998 0
M  V30 872 O 83.6276 0.705647 -1.81248 0
M  V30 873 C 83.9106 -2.76791 -2.30345 0
M  V30 874 C 83.7636 -4.17535 -1.67286 0
M  V30 875 C 85.0826 -2.89111 -3.31817 0
M  V30 876 H 82.2016 -0.582645 -0.451324 0
M  V30 877 H 84.8436 -1.82117 -0.541612 0
M  V30 878 H 82.9936 -2.5813 -2.90346 0
M  V30 879 H 84.6656 -4.4774 -1.11026 0
M  V30 880 H 82.9086 -4.22665 -0.976577 0
M  V30 881 H 83.5796 -4.95094 -2.44103 0
M  V30 882 H 86.0556 -3.06133 -2.81819 0
M  V30 883 H 84.9316 -3.72433 -4.03219 0
M  V30 884 H 85.1926 -1.9893 -3.94815 0
M  V30 885 N 84.2517 0.741722 -1.39055 0
M  V30 886 C 85.4997 1.49818 -1.35643 0
M  V30 887 C 85.8207 1.94938 0.0491642 0
M  V30 888 O 85.0907 1.68505 0.999141 0
M  V30 889 H 83.6707 0.555755 -0.499144 0
M  V30 890 H 86.3327 0.880957 -1.73854 0
M  V30 891 H 85.4287 2.38348 -2.01486 0
M  V30 892 N 85.7298 1.2412 0.971189 0
M  V30 893 C 86.9698 1.09066 1.7287 0
M  V30 894 C 87.3338 -0.364794 1.88503 0
M  V30 895 O 88.5348 -0.636748 2.61149 0
M  V30 896 C 86.8058 1.80629 3.08396 0
M  V30 897 S 88.3648 1.81263 3.99611 0
M  V30 898 H 85.1828 0.390145 0.594397 0
M  V30 899 H 87.7848 1.57397 1.15959 0
M  V30 900 H 86.4888 2.85647 2.94676 0
M  V30 901 H 86.0198 1.32617 3.70373 0
M  V30 902 H 88.0348 0.877804 4.88374 0
M  V30 903 N 87.2079 -1.17134 1.05439 0
M  V30 904 C 88.6239 -1.39454 0.776201 0
M  V30 905 C 88.8239 -1.91454 -0.628307 0
M  V30 906 O 87.8799 -2.10777 -1.39031 0
M  V30 907 C 89.1929 -2.38305 1.83388 0
M  V30 908 C 90.7409 -2.52006 1.85639 0
M  V30 909 C 91.2159 -3.54133 2.90437 0
M  V30 910 N 92.7069 -3.61653 2.89415 0
M  V30 911 C 93.4419 -4.4044 3.67152 0
M  V30 912 N 92.9379 -5.22721 4.54681 0
M  V30 913 N 94.7309 -4.35337 3.55581 0
M  V30 914 H 86.8819 -0.817134 1.96053 0
M  V30 915 H 89.1449 -0.421626 0.849079 0
M  V30 916 H 88.8509 -2.07173 2.84204 0
M  V30 917 H 88.7249 -3.37841 1.67761 0
M  V30 918 H 91.1119 -2.82447 0.85486 0
M  V30 919 H 91.1929 -1.52537 2.05344 0
M  V30 920 H 90.8369 -3.24431 3.90777 0
M  V30 921 H 90.7669 -4.53313 2.67983 0
M  V30 922 H 93.2579 -3.02909 2.25952 0
M  V30 923 H 93.5709 -5.80027 5.10674 0
M  V30 924 H 91.9159 -5.22093 4.58741 0
M  V30 925 H 95.1069 -3.70112 2.86592 0
M  V30 926 H 95.2799 -4.96494 4.1641 0
M  V30 927 N 88.686 -0.835752 -1.33615 0
M  V30 928 C 89.619 -0.211815 -2.27215 0
M  V30 929 C 90.597 0.639249 -1.49507 0
M  V30 930 O 91.781 0.600193 -1.78689 0
M  V30 931 C 88.908 0.702893 -3.31326 0
M  V30 932 C 87.954 -0.0723049 -4.26439 0
M  V30 933 S 88.787 -1.42811 -5.16106 0
M  V30 934 C 89.943 -0.518613 -6.23748 0
M  V30 935 H 90.176 -1.00533 -2.79786 0
M  V30 936 H 87.709 -0.632336 -1.40858 0
M  V30 937 H 89.667 1.22505 -3.91794 0
M  V30 938 H 88.328 1.47004 -2.77576 0
M  V30 939 H 87.521 0.62359 -5.00127 0
M  V30 940 H 87.123 -0.525424 -3.70291 0
M  V30 941 H 89.415 0.284778 -6.76901 0
M  V30 942 H 90.358 -1.22556 -6.97413 0
M  V30 943 H 90.766 -0.101344 -5.64409 0
M  V30 944 N 90.1641 1.46063 -0.591896 0
M  V30 945 C 91.5801 1.57561 -0.254288 0
M  V30 946 C 91.7801 1.58565 1.24336 0
M  V30 947 O 90.8361 1.50753 2.02558 0
M  V30 948 C 92.1491 2.86549 -0.911611 0
M  V30 949 C 93.6971 3.00197 -0.886059 0
M  V30 950 C 94.1721 4.31933 -1.5231 0
M  V30 951 N 95.6631 4.38654 -1.48786 0
M  V30 952 C 96.3981 5.39222 -1.95006 0
M  V30 953 N 95.8941 6.46414 -2.49241 0
M  V30 954 N 97.6871 5.3048 -1.85868 0
M  V30 955 H 89.8381 1.43655 -1.56451 0
M  V30 956 H 92.1011 0.68583 -0.654478 0
M  V30 957 H 91.8071 2.91651 -1.96551 0
M  V30 958 H 91.6811 3.74794 -0.425368 0
M  V30 959 H 94.0681 2.9467 0.159246 0
M  V30 960 H 94.1491 2.13403 -1.41041 0
M  V30 961 H 93.7931 4.38217 -2.56765 0
M  V30 962 H 93.7231 5.17516 -0.973891 0
M  V30 963 H 96.2141 3.61793 -1.09151 0
M  V30 964 H 96.5271 7.19376 -2.82344 0
M  V30 965 H 94.8721 6.47208 -2.53272 0
M  V30 966 H 98.0631 4.45643 -1.43248 0
M  V30 967 H 98.2361 6.08711 -2.22204 0
M  V30 968 N 91.6422 0.330177 1.54103 0
M  V30 969 C 92.5742 -0.566902 2.22079 0
M  V30 970 C 93.5872 -1.07462 1.22294 0
M  V30 971 O 94.7762 -0.987065 1.48726 0
M  V30 972 C 91.8762 -1.79138 2.87685 0
M  V30 973 C 91.0492 -1.42123 4.13666 0
M  V30 974 C 90.1082 -2.50394 4.62806 0
M  V30 975 O 89.1342 -2.14261 5.27334 0
M  V30 976 N 90.3362 -3.81433 4.37595 0
M  V30 977 H 93.1012 0.0151844 2.99696 0
M  V30 978 H 90.6622 0.153681 1.61169 0
M  V30 979 H 92.6542 -2.50975 3.1748 0
M  V30 980 H 91.2242 -2.28115 2.13734 0
M  V30 981 H 90.4442 -0.534201 3.90564 0
M  V30 982 H 91.7322 -1.14971 4.9564 0
M  V30 983 H 91.1302 -4.13584 3.8596 0
M  V30 984 H 89.6872 -4.4948 4.72029 0
M  V30 985 N 93.1203 -1.57491 0.0584922 0
M  V30 986 C 94.3483 -1.97296 -0.623037 0
M  V30 987 C 94.7633 -0.936338 -1.63946 0
M  V30 988 O 94.1203 0.0785981 -1.82331 0
M  V30 989 C 94.1713 -3.37183 -1.30345 0
M  V30 990 O 93.8923 -4.36872 -0.32773 0
M  V30 991 C 95.3933 -3.91788 -2.07406 0
M  V30 992 H 92.6133 -0.649153 -0.169826 0
M  V30 993 H 95.1573 -2.04106 0.12696 0
M  V30 994 H 93.3123 -3.31502 -2.00463 0
M  V30 995 H 93.7263 -5.18141 -0.814269 0
M  V30 996 H 95.2003 -4.91926 -2.50425 0
M  V30 997 H 95.6773 -3.27609 -2.92521 0
M  V30 998 H 96.2833 -4.00829 -1.42184 0
M  V30 999 N 94.5984 0.214957 -1.56127 0
M  V30 1000 C 95.8444 0.939762 -1.79712 0
M  V30 1001 C 96.1774 1.83723 -0.629247 0
M  V30 1002 O 95.4524 1.90925 0.371197 0
M  V30 1003 C 95.7354 1.77306 -3.13424 0
M  V30 1004 C 95.5884 0.90164 -4.40671 0
M  V30 1005 C 96.9074 2.74956 -3.43638 0
M  V30 1006 H 94.0264 0.340214 -0.653776 0
M  V30 1007 H 96.6684 0.20824 -1.88855 0
M  V30 1008 H 94.8184 2.39673 -3.0576 0
M  V30 1009 H 96.4904 0.294206 -4.60361 0
M  V30 1010 H 94.7334 0.207368 -4.33304 0
M  V30 1011 H 95.4044 1.51923 -5.30682 0
M  V30 1012 H 97.8804 2.22724 -3.51473 0
M  V30 1013 H 96.7564 3.30358 -4.38355 0
M  V30 1014 H 97.0174 3.53023 -2.66134 0
M  V30 1015 N 96.0765 1.50051 0.48192 0
M  V30 1016 C 97.3225 1.60736 1.2366 0
M  V30 1017 C 97.6555 0.301786 1.91841 0
M  V30 1018 O 96.9305 -0.696025 1.8162 0
M  V30 1019 C 97.2135 2.78009 2.28874 0
M  V30 1020 C 97.0665 4.18416 1.65069 0
M  V30 1021 C 98.3855 2.90867 3.30279 0
M  V30 1022 H 95.5045 0.585031 0.448228 0
M  V30 1023 H 98.1465 1.82402 0.531946 0
M  V30 1024 H 96.2965 2.59667 2.88973 0
M  V30 1025 H 97.9685 4.48322 1.0865 0
M  V30 1026 H 96.2115 4.23177 0.954148 0
M  V30 1027 H 96.8825 4.96381 2.41474 0
M  V30 1028 H 99.3585 3.07623 2.80191 0
M  V30 1029 H 98.2345 3.74566 4.01238 0
M  V30 1030 H 98.4955 2.01021 3.93755 0
M  V30 1031 N 97.5546 -0.734337 1.39446 0
M  V30 1032 C 98.7826 -1.52358 1.39981 0
M  V30 1033 C 99.1976 -1.88799 -0.0054975 0
M  V30 1034 O 98.5546 -1.54146 -0.976998 0
M  V30 1035 C 98.6056 -2.81072 2.27333 0
M  V30 1036 O 98.3266 -2.46178 3.62392 0
M  V30 1037 C 99.8276 -3.75096 2.36259 0
M  V30 1038 H 97.0476 -0.470806 0.478103 0
M  V30 1039 H 99.5916 -0.907339 1.83269 0
M  V30 1040 H 97.7466 -3.39026 1.87457 0
M  V30 1041 H 98.1606 -3.28866 4.08592 0
M  V30 1042 H 99.6346 -4.62305 3.01626 0
M  V30 1043 H 100.112 -4.16892 1.38194 0
M  V30 1044 H 100.718 -3.23061 2.76608 0
M  V30 1045 N 99.0327 -1.24633 -0.964593 0
M  V30 1046 C 100.261 -1.11501 -1.74285 0
M  V30 1047 C 100.676 0.332165 -1.85855 0
M  V30 1048 O 100.033 1.22903 -1.34911 0
M  V30 1049 C 100.084 -1.75258 -3.16175 0
M  V30 1050 O 99.8047 -3.14318 -3.05182 0
M  V30 1051 C 101.306 -1.67776 -4.10324 0
M  V30 1052 H 98.5257 -0.389407 -0.546446 0
M  V30 1053 H 101.07 -1.64801 -1.21083 0
M  V30 1054 H 99.2247 -1.25954 -3.66353 0
M  V30 1055 H 99.6387 -3.4551 -3.94618 0
M  V30 1056 H 101.113 -2.17064 -5.0753 0
M  V30 1057 H 101.59 -0.639584 -4.34518 0
M  V30 1058 H 102.196 -2.16522 -3.66058 0
M  V30 1059 N 100.511 1.16574 -1.06058 0
M  V30 1060 C 101.757 1.87565 -0.78683 0
M  V30 1061 C 102.112 1.80012 0.679214 0
M  V30 1062 O 101.405 1.20327 1.49104 0
M  V30 1063 C 101.599 3.36195 -1.21275 0
M  V30 1064 C 101.428 3.58216 -2.71866 0
M  V30 1065 C 100.198 3.7444 -3.39298 0
M  V30 1066 C 102.396 3.57134 -3.70081 0
M  V30 1067 N 100.378 3.84389 -4.78663 0
M  V30 1068 C 101.749 3.73038 -4.9522 0
M  V30 1069 C 103.804 3.40332 -3.63426 0
M  V30 1070 C 102.507 3.73879 -6.14497 0
M  V30 1071 C 104.533 3.42466 -4.82153 0
M  V30 1072 C 103.895 3.58887 -6.06118 0
M  V30 1073 H 99.9938 0.704081 -0.340284 0
M  V30 1074 H 102.578 1.39885 -1.35426 0
M  V30 1075 H 100.749 3.82522 -0.673179 0
M  V30 1076 H 102.481 3.94839 -0.887917 0
M  V30 1077 H 99.2358 3.74662 -2.89699 0
M  V30 1078 H 99.6598 3.93138 -5.51155 0
M  V30 1079 H 104.302 3.26566 -2.68541 0
M  V30 1080 H 102.02 3.86427 -7.09718 0
M  V30 1081 H 105.606 3.30712 -4.78666 0
M  V30 1082 H 104.486 3.60454 -6.9645 0
M  V30 1083 N 101.989 0.842826 1.3317 0
M  V30 1084 C 103.235 0.441099 1.97945 0
M  V30 1085 C 103.568 -0.998024 1.66593 0
M  V30 1086 O 102.843 -1.69839 0.947898 0
M  V30 1087 C 103.126 0.666841 3.53872 0
M  V30 1088 C 102.979 2.15352 3.94897 0
M  V30 1089 C 104.298 0.115544 4.39948 0
M  V30 1090 H 101.417 0.161739 0.719034 0
M  V30 1091 H 104.059 1.05907 1.57746 0
M  V30 1092 H 102.209 0.140828 3.88245 0
M  V30 1093 H 103.881 2.7447 3.70761 0
M  V30 1094 H 102.124 2.63653 3.44484 0
M  V30 1095 H 102.795 2.26221 5.03516 0
M  V30 1096 H 105.271 0.565213 4.12243 0
M  V30 1097 H 104.147 0.303152 5.48062 0
M  V30 1098 H 104.408 -0.980935 4.3108 0
M  V30 1099 N 103.467 -1.45747 0.599634 0
M  V30 1100 C 104.397 -2.33235 -0.111306 0
M  V30 1101 C 105.378 -1.46359 -0.866781 0
M  V30 1102 O 106.563 -1.75146 -0.838904 0
M  V30 1103 C 103.693 -3.28932 -1.11451 0
M  V30 1104 C 102.647 -4.25381 -0.472772 0
M  V30 1105 C 101.973 -5.1071 -1.58365 0
M  V30 1106 C 103.273 -5.18831 0.600948 0
M  V30 1107 H 104.967 -2.92927 0.61919 0
M  V30 1108 H 102.513 -1.40857 0.299215 0
M  V30 1109 H 104.466 -3.89002 -1.62036 0
M  V30 1110 H 103.19 -2.67381 -1.8755 0
M  V30 1111 H 101.849 -3.66598 0.0121472 0
M  V30 1112 H 101.497 -4.45533 -2.33473 0
M  V30 1113 H 101.197 -5.7604 -1.15982 0
M  V30 1114 H 102.721 -5.73647 -2.09194 0
M  V30 1115 H 104.135 -5.73019 0.179491 0
M  V30 1116 H 102.532 -5.92595 0.946076 0
M  V30 1117 H 103.602 -4.6174 1.48068 0
M  V30 1118 N 104.945 -0.338344 -1.53925 0
M  V30 1119 C 105.895 0.536712 -2.21593 0
M  V30 1120 C 106.879 1.07015 -1.20153 0
M  V30 1121 O 108.071 1.00471 -1.45721 0
M  V30 1122 C 105.2 1.68977 -2.98834 0
M  V30 1123 C 104.286 1.17052 -4.07627 0
M  V30 1124 N 104.677 0.372085 -5.0443 0
M  V30 1125 C 102.975 1.44789 -4.21844 0
M  V30 1126 C 103.676 0.0909171 -5.81629 0
M  V30 1127 N 102.652 0.681131 -5.39316 0
M  V30 1128 H 106.454 -0.0804298 -2.9379 0
M  V30 1129 H 103.968 -0.144943 -1.61752 0
M  V30 1130 H 105.965 2.32857 -3.45808 0
M  V30 1131 H 104.625 2.31024 -2.28162 0
M  V30 1132 H 105.636 0.0136217 -5.17898 0
M  V30 1133 H 102.313 2.07313 -3.62391 0
M  V30 1134 H 103.703 -0.552817 -6.69622 0
M  V30 1135 N 106.423 1.57458 -0.0668435 0
M  V30 1136 C 107.353 2.15468 0.899764 0
M  V30 1137 C 108.334 1.08042 1.31381 0
M  V30 1138 O 109.519 1.36054 1.38574 0
M  V30 1139 C 106.649 2.71232 2.16911 0
M  V30 1140 C 105.603 3.83781 1.89463 0
M  V30 1141 C 104.929 4.26127 3.22986 0
M  V30 1142 C 106.229 5.08238 1.20381 0
M  V30 1143 H 107.923 2.96488 0.416529 0
M  V30 1144 H 105.469 1.4262 0.198908 0
M  V30 1145 H 107.422 3.10458 2.84945 0
M  V30 1146 H 106.146 1.87426 2.67468 0
M  V30 1147 H 104.805 3.45051 1.23836 0
M  V30 1148 H 104.453 3.39249 3.71374 0
M  V30 1149 H 104.153 5.01993 3.05413 0
M  V30 1150 H 105.677 4.67966 3.92225 0
M  V30 1151 H 107.091 5.44811 1.78475 0
M  V30 1152 H 105.488 5.89349 1.13083 0
M  V30 1153 H 106.558 4.84558 0.182153 0
M  V30 1154 N 107.901 -0.206675 1.56239 0
M  V30 1155 C 108.864 -1.23976 1.92776 0
M  V30 1156 C 109.864 -1.39041 0.807729 0
M  V30 1157 O 111.054 -1.37051 1.0753 0
M  V30 1158 C 108.186 -2.61112 2.19165 0
M  V30 1159 H 109.379 -0.927764 2.85189 0
M  V30 1160 H 106.932 -0.447718 1.4975 0
M  V30 1161 H 107.667 -2.97386 1.29352 0
M  V30 1162 H 107.452 -2.51552 3.00772 0
M  V30 1163 H 108.942 -3.35633 2.48476 0
M  V30 1164 N 109.379 -1.50304 -0.473955 0
M  V30 1165 C 110.309 -1.71886 -1.58042 0
M  V30 1166 C 111.29 -0.567799 -1.60344 0
M  V30 1167 O 112.475 -0.806623 -1.76656 0
M  V30 1168 C 109.605 -1.81036 -2.96384 0
M  V30 1169 C 108.559 -2.962 -3.08949 0
M  V30 1170 C 107.885 -2.9049 -4.48909 0
M  V30 1171 C 109.185 -4.36752 -2.86434 0
M  V30 1172 H 110.879 -2.64527 -1.40234 0
M  V30 1173 H 108.425 -1.27295 -0.673201 0
M  V30 1174 H 110.378 -1.94719 -3.73714 0
M  V30 1175 H 109.102 -0.850147 -3.15341 0
M  V30 1176 H 107.761 -2.82164 -2.3405 0
M  V30 1177 H 107.409 -1.92321 -4.64781 0
M  V30 1178 H 107.109 -3.67802 -4.58253 0
M  V30 1179 H 108.633 -3.06218 -5.28264 0
M  V30 1180 H 110.047 -4.5133 -3.53517 0
M  V30 1181 H 108.444 -5.15493 -3.07225 0
M  V30 1182 H 109.514 -4.49321 -1.82316 0
M  V30 1183 N 110.857 0.726932 -1.39834 0
M  V30 1184 C 112.082 1.52121 -1.40976 0
M  V30 1185 C 112.507 1.88098 -0.00826029 0
M  V30 1186 O 111.865 1.52479 0.980807 0
M  V30 1187 C 111.913 2.78021 -2.29644 0
M  V30 1188 O 111.017 3.74272 -1.73188 0
M  V30 1189 H 110.358 0.45908 -0.479731 0
M  V30 1190 H 112.888 0.896207 -1.83927 0
M  V30 1191 H 112.898 3.26671 -2.44438 0
M  V30 1192 H 111.573 2.51169 -3.31492 0
M  V30 1193 H 110.15 3.33073 -1.6768 0
M  V30 1194 N 112.336 1.25143 0.95797 0
M  V30 1195 C 113.613 1.00472 1.67823 0
M  V30 1196 C 113.993 -0.470056 2.058 0
M  V30 1197 O 113.341 -1.44663 1.76875 0
M  V30 1198 C 113.551 1.9372 2.90299 0
M  V30 1199 C 114.899 2.21371 3.62326 0
M  V30 1200 O 115.923 1.91451 3.00375 0
M  V30 1201 O 114.782 2.72231 4.7387 0
M  V30 1202 H 111.876 0.380752 0.734137 0
M  V30 1203 H 114.422 1.36283 1.01119 0
M  V30 1204 H 113.194 2.93316 2.59001 0
M  V30 1205 H 112.817 1.58286 3.64735 0
M  V30 1206 N 113.814 -1.1601 1.06675 0
M  V30 1207 C 114.744 -2.22688 0.702307 0
M  V30 1208 C 115.725 -1.67306 -0.307032 0
M  V30 1209 O 116.91 -1.93352 -0.181305 0
M  V30 1210 C 114.04 -3.47178 0.092038 0
M  V30 1211 C 112.994 -4.15477 1.02777 0
M  V30 1212 C 112.32 -5.33963 0.28061 0
M  V30 1213 C 113.62 -4.66019 2.35846 0
M  V30 1214 H 115.314 -2.53429 1.59419 0
M  V30 1215 H 112.86 -1.21813 0.767961 0
M  V30 1216 H 114.813 -4.21037 -0.174814 0
M  V30 1217 H 113.537 -3.15749 -0.834877 0
M  V30 1218 H 112.196 -3.43549 1.27944 0
M  V30 1219 H 111.844 -4.98788 -0.649545 0
M  V30 1220 H 111.544 -5.806 0.904258 0
M  V30 1221 H 113.068 -6.10596 0.021396 0
M  V30 1222 H 114.482 -5.3144 2.15045 0
M  V30 1223 H 112.879 -5.23293 2.93743 0
M  V30 1224 H 113.949 -3.82023 2.98641 0
M  V30 1225 N 115.292 -0.849877 -1.32721 0
M  V30 1226 C 116.222 -0.306308 -2.31482 0
M  V30 1227 C 117.203 0.591952 -1.59468 0
M  V30 1228 O 118.388 0.513199 -1.87296 0
M  V30 1229 C 115.518 0.510204 -3.43532 0
M  V30 1230 C 114.472 -0.293209 -4.26994 0
M  V30 1231 C 113.798 0.647743 -5.30762 0
M  V30 1232 C 115.098 -1.51634 -4.99804 0
M  V30 1233 H 116.792 -1.13153 -2.77195 0
M  V30 1234 H 114.338 -0.545553 -1.33266 0
M  V30 1235 H 116.291 0.900856 -4.11658 0
M  V30 1236 H 115.015 1.36874 -2.96535 0
M  V30 1237 H 113.674 -0.665555 -3.60508 0
M  V30 1238 H 113.322 1.50299 -4.8002 0
M  V30 1239 H 113.022 0.11422 -5.87489 0
M  V30 1240 H 114.546 1.03567 -6.01753 0
M  V30 1241 H 115.96 -1.19824 -5.60638 0
M  V30 1242 H 114.357 -1.98745 -5.66234 0
M  V30 1243 H 115.427 -2.28018 -4.27943 0
M  V30 1244 N 116.77 1.45427 -0.607355 0
M  V30 1245 C 117.733 2.28974 0.101693 0
M  V30 1246 C 118.733 1.39754 0.795329 0
M  V30 1247 O 119.923 1.61878 0.643527 0
M  V30 1248 C 117.055 3.20768 1.15414 0
M  V30 1249 H 118.248 2.93147 -0.632844 0
M  V30 1250 H 115.801 1.51945 -0.366391 0
M  V30 1251 H 116.536 2.61395 1.91945 0
M  V30 1252 H 116.321 3.86489 0.66098 0
M  V30 1253 H 117.811 3.83589 1.65073 0
M  V30 1254 N 118.248 0.346503 1.53744 0
M  V30 1255 C 119.473 -0.253074 2.0585 0
M  V30 1256 C 119.898 -1.43202 1.21962 0
M  V30 1257 O 119.256 -1.79783 0.234073 0
M  V30 1258 C 119.304 -0.643193 3.54817 0
M  V30 1259 O 118.408 -1.74286 3.73762 0
M  V30 1260 H 117.749 -0.0413583 0.662711 0
M  V30 1261 H 120.279 0.501574 1.98357 0
M  V30 1262 H 120.289 -0.919526 3.97503 0
M  V30 1263 H 118.964 0.218966 4.15323 0
M  V30 1264 H 117.541 -1.46356 3.42979 0
M  V30 1265 N 119.726 -1.57421 0.075193 0
M  V30 1266 C 120.689 -2.11791 -0.876203 0
M  V30 1267 C 121.689 -1.04268 -1.22412 0
M  V30 1268 O 122.879 -1.30242 -1.15684 0
M  V30 1269 C 120.011 -2.62207 -2.17854 0
M  V30 1270 H 121.204 -2.9716 -0.40444 0
M  V30 1271 H 118.757 -1.55333 -0.173557 0
M  V30 1272 H 119.492 -1.803 -2.6956 0
M  V30 1273 H 119.277 -3.40802 -1.93897 0
M  V30 1274 H 120.767 -3.04335 -2.85955 0
M  V30 1275 N 121.204 0.198386 -1.56346 0
M  V30 1276 C 122.429 0.939682 -1.84891 0
M  V30 1277 C 122.854 1.76202 -0.658369 0
M  V30 1278 O 122.212 1.76993 0.392851 0
M  V30 1279 C 122.26 1.81428 -3.11635 0
M  V30 1280 O 121.364 2.91265 -2.91956 0
M  V30 1281 H 120.705 0.264807 -0.608912 0
M  V30 1282 H 123.235 0.204695 -2.03573 0
M  V30 1283 H 123.245 2.21958 -3.42343 0
M  V30 1284 H 121.92 1.21004 -3.97908 0
M  V30 1285 H 120.497 2.54514 -2.72538 0
M  V30 1286 N 122.682 1.50554 0.465978 0
M  V30 1287 C 123.612 1.72722 1.57128 0
M  V30 1288 C 124.593 0.576294 1.6004 0
M  V30 1289 O 125.778 0.81598 1.76225 0
M  V30 1290 C 122.908 1.82605 2.95419 0
M  V30 1291 C 121.862 2.97835 3.07373 0
M  V30 1292 C 121.188 2.92867 4.47363 0
M  V30 1293 C 122.488 4.38265 2.84114 0
M  V30 1294 H 124.182 2.65267 1.38829 0
M  V30 1295 H 121.728 1.2765 0.666441 0
M  V30 1296 H 123.681 1.96698 3.72677 0
M  V30 1297 H 122.405 0.866858 3.14886 0
M  V30 1298 H 121.064 2.83401 2.3255 0
M  V30 1299 H 120.712 1.94783 4.63755 0
M  V30 1300 H 120.412 3.70227 4.56296 0
M  V30 1301 H 121.936 3.09015 5.26633 0
M  V30 1302 H 123.35 4.53198 3.51118 0
M  V30 1303 H 121.747 5.17115 3.04487 0
M  V30 1304 H 122.817 4.50281 1.7993 0
M  V30 1305 N 124.16 -0.719506 1.40217 0
M  V30 1306 C 125.571 -1.29848 1.34151 0
M  V30 1307 C 125.922 -1.96196 0.0131349 0
M  V30 1308 O 125.047 -1.973 -0.88892 0
M  V30 1309 C 125.642 -2.36118 2.42968 0
M  V30 1310 C 124.201 -2.8965 2.40374 0
M  V30 1311 C 123.348 -1.63393 2.24049 0
M  V30 1312 H 126.299 -0.51591 1.5008 0
M  V30 1313 H 126.32 -3.16871 2.10649 0
M  V30 1314 H 125.832 -1.878 3.39636 0
M  V30 1315 H 123.933 -3.42208 1.47392 0
M  V30 1316 H 124.046 -3.4171 3.35814 0
M  V30 1317 H 122.41 -1.88312 1.71495 0
M  V30 1318 H 123.193 -1.17104 3.2271 0
M  V30 1319 N 125.638 -1.25649 -0.95132 0
M  V30 1320 C 126.885 -1.10594 -1.69633 0
M  V30 1321 C 127.213 0.352515 -1.91279 0
M  V30 1322 O 126.468 1.27601 -1.4838 0
M  V30 1323 C 126.767 -1.80909 -3.08231 0
M  V30 1324 C 126.433 -3.30825 -3.06375 0
M  V30 1325 C 125.095 -3.71722 -3.05576 0
M  V30 1326 C 127.447 -4.26589 -2.99452 0
M  V30 1327 C 124.775 -5.06788 -2.95606 0
M  V30 1328 C 127.127 -5.61683 -2.91024 0
M  V30 1329 C 125.791 -6.01904 -2.88562 0
M  V30 1330 H 125.061 -0.404691 -0.620731 0
M  V30 1331 H 127.708 -1.55964 -1.11119 0
M  V30 1332 H 126.013 -1.27979 -3.70309 0
M  V30 1333 H 127.71 -1.6671 -3.64704 0
M  V30 1334 H 124.3 -2.98287 -3.07771 0
M  V30 1335 H 128.484 -3.95982 -2.99185 0
M  V30 1336 H 123.74 -5.37126 -2.92071 0
M  V30 1337 H 127.914 -6.35578 -2.84629 0
M  V30 1338 H 125.541 -7.06521 -2.80593 0
M  V30 1339 N 127.117 1.15442 -1.07289 0
M  V30 1340 C 128.364 1.86213 -0.795668 0
M  V30 1341 C 128.692 1.82291 0.678238 0
M  V30 1342 O 127.947 1.24057 1.51355 0
M  V30 1343 C 128.246 3.3489 -1.24834 0
M  V30 1344 C 127.912 3.59007 -2.72809 0
M  V30 1345 C 126.574 3.65298 -3.13227 0
M  V30 1346 C 128.926 3.68762 -3.68326 0
M  V30 1347 C 126.254 3.78854 -4.4798 0
M  V30 1348 C 128.606 3.83842 -5.0284 0
M  V30 1349 C 127.27 3.88378 -5.4288 0
M  V30 1350 H 126.54 0.681403 -0.291155 0
M  V30 1351 H 129.187 1.36435 -1.34379 0
M  V30 1352 H 127.492 3.8687 -0.619595 0
M  V30 1353 H 129.189 3.88052 -1.01076 0
M  V30 1354 H 125.779 3.5475 -2.40521 0
M  V30 1355 H 129.963 3.63202 -3.38227 0
M  V30 1356 H 125.219 3.80623 -4.78472 0
M  V30 1357 H 129.393 3.90332 -5.76727 0
M  V30 1358 H 127.02 3.98635 -6.47298 0
M  V30 1359 N 128.595 0.856903 1.32268 0
M  V30 1360 C 129.823 0.475439 2.01363 0
M  V30 1361 C 130.238 -0.928486 1.64392 0
M  V30 1362 O 129.595 -1.60624 0.866387 0
M  V30 1363 C 129.646 0.607545 3.56358 0
M  V30 1364 O 129.367 1.95617 3.92002 0
M  V30 1365 C 130.868 0.225382 4.42727 0
M  V30 1366 H 128.088 0.186636 0.644521 0
M  V30 1367 H 130.632 1.15446 1.68797 0
M  V30 1368 H 128.787 -0.0237719 3.87393 0
M  V30 1369 H 129.201 1.95455 4.86721 0
M  V30 1370 H 130.675 0.368813 5.50767 0
M  V30 1371 H 131.152 -0.834369 4.31202 0
M  V30 1372 H 131.758 0.831864 4.17085 0
M  V30 1373 N 130.073 -1.45103 0.615059 0
M  V30 1374 C 131.303 -2.06254 0.119596 0
M  V30 1375 C 131.711 -1.4591 -1.20445 0
M  V30 1376 O 131.054 -0.570384 -1.7462 0
M  V30 1377 C 131.116 -3.59396 -0.0865591 0
M  V30 1378 C 130.78 -4.42116 1.15683 0
M  V30 1379 C 131.777 -4.7662 2.07676 0
M  V30 1380 C 129.462 -4.82749 1.38775 0
M  V30 1381 C 131.456 -5.50622 3.21082 0
M  V30 1382 C 129.143 -5.56504 2.52481 0
M  V30 1383 C 130.141 -5.90358 3.43463 0
M  V30 1384 O 129.829 -6.62615 4.55189 0
M  V30 1385 H 129.561 -0.672423 0.0694512 0
M  V30 1386 H 132.115 -1.87219 0.844885 0
M  V30 1387 H 130.345 -3.76859 -0.866823 0
M  V30 1388 H 132.034 -4.02365 -0.534555 0
M  V30 1389 H 132.8 -4.4578 1.91063 0
M  V30 1390 H 128.679 -4.55829 0.688545 0
M  V30 1391 H 132.223 -5.76965 3.92119 0
M  V30 1392 H 128.12 -5.86759 2.69043 0
M  V30 1393 H 128.888 -6.81071 4.53966 0
M  V30 1394 N 131.551 -0.354651 -1.53558 0
M  V30 1395 C 132.798 0.238443 -2.01091 0
M  V30 1396 C 133.126 1.49663 -1.24222 0
M  V30 1397 O 132.381 1.93049 -0.321003 0
M  V30 1398 C 132.68 0.587121 -3.52545 0
M  V30 1399 C 132.346 -0.575472 -4.47213 0
M  V30 1400 C 131.008 -0.894497 -4.72813 0
M  V30 1401 C 133.36 -1.35489 -5.03281 0
M  V30 1402 C 130.688 -1.99511 -5.51736 0
M  V30 1403 C 133.04 -2.44583 -5.83405 0
M  V30 1404 C 131.704 -2.77033 -6.07296 0
M  V30 1405 H 130.974 0.0872526 -0.735845 0
M  V30 1406 H 133.621 -0.484859 -1.8526 0
M  V30 1407 H 131.926 1.39129 -3.66265 0
M  V30 1408 H 133.623 1.05809 -3.86789 0
M  V30 1409 H 130.213 -0.316774 -4.27428 0
M  V30 1410 H 134.397 -1.12167 -4.83459 0
M  V30 1411 H 129.653 -2.25063 -5.68469 0
M  V30 1412 H 133.827 -3.05401 -6.25862 0
M  V30 1413 H 131.454 -3.6244 -6.68237 0
M  V30 1414 N 133.029 1.57378 -0.0835403 0
M  V30 1415 C 133.959 2.1641 0.87686 0
M  V30 1416 C 134.94 1.09429 1.30228 0
M  V30 1417 O 136.125 1.37516 1.37124 0
M  V30 1418 C 133.255 2.73517 2.14022 0
M  V30 1419 C 132.209 3.85769 1.85381 0
M  V30 1420 C 131.535 4.29529 3.18448 0
M  V30 1421 C 132.835 5.09486 1.14984 0
M  V30 1422 H 134.529 2.96914 0.385059 0
M  V30 1423 H 132.075 1.42823 0.18377 0
M  V30 1424 H 134.028 3.13463 2.81636 0
M  V30 1425 H 132.752 1.90252 2.65465 0
M  V30 1426 H 131.411 3.46345 1.20169 0
M  V30 1427 H 131.059 3.43169 3.67755 0
M  V30 1428 H 130.759 5.05204 3.00071 0
M  V30 1429 H 132.283 4.72099 3.8724 0
M  V30 1430 H 133.697 5.46674 1.72687 0
M  V30 1431 H 132.094 5.90515 1.06826 0
M  V30 1432 H 133.164 4.84724 0.130749 0
M  V30 1433 N 134.507 -0.190092 1.56449 0
M  V30 1434 C 135.47 -1.21925 1.9408 0
M  V30 1435 C 136.47 -1.38176 0.822431 0
M  V30 1436 O 137.66 -1.35903 1.08977 0
M  V30 1437 C 134.792 -2.58773 2.21922 0
M  V30 1438 H 135.985 -0.897464 2.86157 0
M  V30 1439 H 133.538 -0.43181 1.50217 0
M  V30 1440 H 134.273 -2.95998 1.32499 0
M  V30 1441 H 134.058 -2.48348 3.03424 0
M  V30 1442 H 135.548 -3.32978 2.52022 0
M  V30 1443 N 135.985 -1.50799 -0.457987 0
M  V30 1444 C 137.231 -1.62683 -1.21088 0
M  V30 1445 C 137.564 -0.332268 -1.91336 0
M  V30 1446 O 136.839 0.667043 -1.82704 0
M  V30 1447 C 137.122 -2.81615 -2.24422 0
M  V30 1448 C 136.975 -4.20989 -1.58392 0
M  V30 1449 C 138.294 -2.96085 -3.2561 0
M  V30 1450 H 135.413 -0.592087 -0.438864 0
M  V30 1451 H 138.055 -1.83225 -0.50286 0
M  V30 1452 H 136.205 -2.64231 -2.84806 0
M  V30 1453 H 137.877 -4.49994 -1.01504 0
M  V30 1454 H 136.12 -4.24641 -0.886704 0
M  V30 1455 H 136.791 -5.0016 -2.33547 0
M  V30 1456 H 139.267 -3.12042 -2.75262 0
M  V30 1457 H 138.143 -3.80902 -3.95228 0
M  V30 1458 H 138.404 -2.0726 -3.90507 0
M  V30 1459 N 137.463 0.71206 -1.40597 0
M  V30 1460 C 138.711 1.46907 -1.38791 0
M  V30 1461 C 139.032 1.94998 0.00780391 0
M  V30 1462 O 138.302 1.70587 0.963174 0
M  V30 1463 H 136.882 0.545043 -0.51082 0
M  V30 1464 H 139.544 0.843882 -1.75683 0
M  V30 1465 H 138.64 2.34021 -2.06496 0
M  V30 1466 N 138.941 1.26152 0.944643 0
M  V30 1467 C 139.891 1.04081 2.02857 0
M  V30 1468 C 140.875 -0.0256555 1.6088 0
M  V30 1469 O 142.067 0.190884 1.75968 0
M  V30 1470 C 139.196 0.672118 3.36656 0
M  V30 1471 C 138.282 1.77586 3.85128 0
M  V30 1472 N 138.673 3.01272 4.06287 0
M  V30 1473 C 136.971 1.65867 4.1401 0
M  V30 1474 C 137.672 3.72983 4.46384 0
M  V30 1475 N 136.648 3.00653 4.52889 0
M  V30 1476 H 140.45 1.97968 2.17223 0
M  V30 1477 H 137.964 1.16618 1.13022 0
M  V30 1478 H 139.961 0.495166 4.13949 0
M  V30 1479 H 138.621 -0.259307 3.23663 0
M  V30 1480 H 139.632 3.37213 3.93075 0
M  V30 1481 H 136.309 0.796907 4.09824 0
M  V30 1482 H 137.699 4.792 4.70975 0
M  V30 1483 N 140.419 -1.14872 1.07899 0
M  V30 1484 C 141.644 -1.90202 0.826926 0
M  V30 1485 C 142.069 -1.77774 -0.614664 0
M  V30 1486 O 141.427 -1.11431 -1.43013 0
M  V30 1487 C 141.475 -3.38352 1.24702 0
M  V30 1488 O 140.579 -4.10497 0.39575 0
M  V30 1489 H 139.92 -0.591968 0.300782 0
M  V30 1490 H 142.45 -1.45437 1.43907 0
M  V30 1491 H 142.46 -3.89156 1.22563 0
M  V30 1492 H 141.135 -3.46715 2.29698 0
M  V30 1493 H 139.712 -3.69796 0.480117 0
M  V30 1494 N 141.898 -0.863906 -1.31812 0
M  V30 1495 C 143.144 -0.481841 -1.9761 0
M  V30 1496 C 143.499 0.954048 -1.6708 0
M  V30 1497 O 142.792 1.66182 -0.953624 0
M  V30 1498 C 142.986 -0.668547 -3.51091 0
M  V30 1499 C 142.815 -2.12103 -3.96538 0
M  V30 1500 C 141.585 -2.76141 -4.23171 0
M  V30 1501 C 143.783 -3.09265 -4.10925 0
M  V30 1502 N 141.765 -4.12205 -4.54929 0
M  V30 1503 C 143.136 -4.30341 -4.46326 0
M  V30 1504 C 145.191 -3.05337 -3.93286 0
M  V30 1505 C 143.894 -5.48 -4.65928 0
M  V30 1506 C 145.92 -4.22248 -4.14078 0
M  V30 1507 C 145.282 -5.42085 -4.49804 0
M  V30 1508 H 141.381 -0.225238 -0.74886 0
M  V30 1509 H 143.965 -1.11723 -1.59455 0
M  V30 1510 H 142.136 -0.0627898 -3.88349 0
M  V30 1511 H 143.868 -0.255467 -4.03893 0
M  V30 1512 H 140.623 -2.27125 -4.15585 0
M  V30 1513 H 141.047 -4.82416 -4.74978 0
M  V30 1514 H 145.689 -2.138 -3.64759 0
M  V30 1515 H 143.407 -6.40059 -4.93305 0
M  V30 1516 H 146.993 -4.20654 -4.01922 0
M  V30 1517 H 145.873 -6.31044 -4.65567 0
M  V30 1518 N 143.376 1.44774 -0.622745 0
M  V30 1519 C 144.286 2.34433 0.0886031 0
M  V30 1520 C 145.302 1.52131 0.844529 0
M  V30 1521 O 146.478 1.84886 0.798691 0
M  V30 1522 C 143.543 3.29986 1.0635 0
M  V30 1523 C 142.604 4.28195 0.307873 0
M  V30 1524 C 141.837 5.19183 1.23633 0
M  V30 1525 O 142.06 5.13918 2.47476 0
M  V30 1526 O 140.994 5.97515 0.725189 0
M  V30 1527 H 144.82 2.96693 -0.648599 0
M  V30 1528 H 142.405 1.44408 -0.382957 0
M  V30 1529 H 144.287 3.88825 1.6246 0
M  V30 1530 H 142.962 2.70269 1.78146 0
M  V30 1531 H 141.869 3.72927 -0.296064 0
M  V30 1532 H 143.202 4.90808 -0.3699 0
M  V30 1533 N 144.854 0.36279 1.53368 0
M  V30 1534 C 145.784 -0.476976 2.28576 0
M  V30 1535 C 146.765 -1.08631 1.30894 0
M  V30 1536 O 147.95 -1.10409 1.59761 0
M  V30 1537 C 145.08 -1.61828 3.07293 0
M  V30 1538 C 144.034 -1.13633 4.1264 0
M  V30 1539 C 143.36 -2.36766 4.79423 0
M  V30 1540 C 144.66 -0.223061 5.21823 0
M  V30 1541 H 146.354 0.150474 2.99022 0
M  V30 1542 H 143.9 0.0738103 1.43811 0
M  V30 1543 H 145.853 -2.21237 3.58653 0
M  V30 1544 H 144.577 -2.27292 2.34533 0
M  V30 1545 H 143.236 -0.564945 3.62221 0
M  V30 1546 H 142.884 -3.0068 4.03238 0
M  V30 1547 H 142.584 -2.05192 5.50609 0
M  V30 1548 H 144.108 -2.96865 5.33576 0
M  V30 1549 H 145.522 -0.724545 5.68703 0
M  V30 1550 H 143.919 0.001678 6.001 0
M  V30 1551 H 144.989 0.735553 4.79289 0
M  V30 1552 N 146.332 -1.57332 0.0918853 0
M  V30 1553 C 147.58 -1.93853 -0.571446 0
M  V30 1554 C 147.901 -0.974212 -1.6892 0
M  V30 1555 O 147.171 -0.0257254 -1.95883 0
M  V30 1556 H 145.751 -0.715666 -0.214082 0
M  V30 1557 H 148.413 -1.94287 0.154464 0
M  V30 1558 H 147.509 -2.96191 -0.983729 0
M  V30 1559 N 147.81 0.181792 -1.56548 0
M  V30 1560 C 149.038 0.915947 -1.85521 0
M  V30 1561 C 149.453 1.76282 -0.676016 0
M  V30 1562 O 148.81 1.79012 0.355077 0
M  V30 1563 C 148.861 1.80126 -3.13427 0
M  V30 1564 O 148.582 0.988562 -4.26801 0
M  V30 1565 C 150.083 2.64597 -3.55673 0
M  V30 1566 H 147.303 0.26661 -0.61576 0
M  V30 1567 H 149.847 0.185039 -2.03661 0
M  V30 1568 H 148.002 2.48563 -2.97145 0
M  V30 1569 H 148.416 1.59308 -4.99721 0
M  V30 1570 H 149.89 3.2235 -4.48101 0
M  V30 1571 H 150.367 3.38958 -2.79292 0
M  V30 1572 H 150.973 2.0151 -3.74532 0
M  V30 1573 N 149.288 1.51039 0.449983 0
M  V30 1574 C 150.516 1.66869 1.2232 0
M  V30 1575 C 150.931 0.360727 1.85322 0
M  V30 1576 O 150.288 -0.659531 1.70166 0
M  V30 1577 C 150.339 2.77524 2.31652 0
M  V30 1578 O 150.06 4.03252 1.7123 0
M  V30 1579 C 151.561 3.04512 3.2216 0
M  V30 1580 H 148.781 0.560326 0.369155 0
M  V30 1581 H 151.325 1.97385 0.534719 0
M  V30 1582 H 149.48 2.49642 2.96239 0
M  V30 1583 H 149.894 4.64609 2.43389 0
M  V30 1584 H 151.368 3.85551 3.95038 0
M  V30 1585 H 151.845 2.16415 3.8218 0
M  V30 1586 H 152.451 3.34005 2.63288 0
M  V30 1587 N 150.766 -0.704594 1.40972 0
M  V30 1588 C 152.013 -1.46458 1.39844 0
M  V30 1589 C 152.341 -1.94499 0.00447594 0
M  V30 1590 O 151.596 -1.69275 -0.982057 0
M  V30 1591 C 151.895 -2.698 2.34399 0
M  V30 1592 C 151.561 -2.40464 3.81429 0
M  V30 1593 C 150.223 -2.32174 4.21484 0
M  V30 1594 C 152.575 -2.16086 4.74296 0
M  V30 1595 C 149.903 -1.97589 5.52427 0
M  V30 1596 C 152.255 -1.83011 6.05549 0
M  V30 1597 C 150.919 -1.7321 6.44635 0
M  V30 1598 H 150.189 -0.535927 0.511725 0
M  V30 1599 H 152.836 -0.806124 1.73706 0
M  V30 1600 H 151.141 -3.40536 1.93759 0
M  V30 1601 H 152.838 -3.27919 2.30804 0
M  V30 1602 H 149.428 -2.47808 3.49699 0
M  V30 1603 H 153.612 -2.2144 4.4416 0
M  V30 1604 H 148.868 -1.88547 5.81601 0
M  V30 1605 H 153.042 -1.63164 6.77016 0
M  V30 1606 H 150.669 -1.46179 7.46013 0
M  V30 1607 N 152.244 -1.26651 -0.937939 0
M  V30 1608 C 153.484 -1.13611 -1.69917 0
M  V30 1609 C 153.848 0.314687 -1.89404 0
M  V30 1610 O 155.049 0.567285 -2.62746 0
M  V30 1611 C 153.32 -1.88742 -3.03498 0
M  V30 1612 S 154.879 -1.91794 -3.94665 0
M  V30 1613 H 151.697 -0.405767 -0.583844 0
M  V30 1614 H 154.299 -1.60416 -1.11745 0
M  V30 1615 H 153.003 -2.9336 -2.86999 0
M  V30 1616 H 152.534 -1.42391 -3.66727 0
M  V30 1617 H 154.549 -1.00698 -4.85875 0
M  V30 1618 N 153.722 1.14298 -1.08507 0
M  V30 1619 C 154.669 2.19414 -0.715965 0
M  V30 1620 C 155.639 1.63399 0.298326 0
M  V30 1621 O 156.824 1.89929 0.182101 0
M  V30 1622 C 153.964 3.44845 -0.132534 0
M  V30 1623 C 153.077 4.15007 -1.19973 0
M  V30 1624 C 152.212 5.28024 -0.580048 0
M  V30 1625 C 151.251 5.9002 -1.62921 0
M  V30 1626 N 150.388 6.94485 -1.03125 0
M  V30 1627 H 155.228 2.50336 -1.61666 0
M  V30 1628 H 152.765 1.2293 -0.807882 0
M  V30 1629 H 154.723 4.16601 0.223454 0
M  V30 1630 H 153.353 3.14403 0.731467 0
M  V30 1631 H 152.405 3.41629 -1.67313 0
M  V30 1632 H 153.717 4.57178 -1.99473 0
M  V30 1633 H 152.871 6.06455 -0.172364 0
M  V30 1634 H 151.61 4.87076 0.246603 0
M  V30 1635 H 150.615 5.10291 -2.04654 0
M  V30 1636 H 151.84 6.33042 -2.45835 0
M  V30 1637 H 149.786 6.55612 -0.225711 0
M  V30 1638 H 149.703 7.35148 -1.76334 0
M  V30 1639 H 150.971 7.7679 -0.649458 0
M  V30 1640 N 155.201 0.870884 1.31352 0
M  V30 1641 C 156.131 0.343096 2.30966 0
M  V30 1642 C 157.112 -0.566507 1.60389 0
M  V30 1643 O 158.297 -0.483336 1.88089 0
M  V30 1644 C 155.427 -0.455487 3.443 0
M  V30 1645 C 154.381 0.361103 4.26474 0
M  V30 1646 C 153.707 -0.563221 5.31725 0
M  V30 1647 C 155.007 1.59566 4.97329 0
M  V30 1648 H 156.701 1.17548 2.75359 0
M  V30 1649 H 154.247 0.566686 1.32381 0
M  V30 1650 H 156.2 -0.83525 4.13039 0
M  V30 1651 H 154.924 -1.32139 2.98675 0
M  V30 1652 H 153.583 0.722825 3.59403 0
M  V30 1653 H 153.231 -1.42643 4.82351 0
M  V30 1654 H 152.931 -0.0207409 5.87596 0
M  V30 1655 H 154.455 -0.939808 6.03324 0
M  V30 1656 H 155.869 1.28728 5.58661 0
M  V30 1657 H 154.266 2.07728 5.63 0
M  V30 1658 H 155.336 2.34798 4.24262 0
M  V30 1659 N 156.679 -1.44442 0.630414 0
M  V30 1660 C 157.629 -2.27794 -0.0968103 0
M  V30 1661 C 158.613 -1.38624 -0.816834 0
M  V30 1662 O 159.805 -1.62438 -0.70306 0
M  V30 1663 C 156.934 -3.25929 -1.07819 0
M  V30 1664 C 156.02 -4.22588 -0.357826 0
M  V30 1665 N 156.411 -5.0207 0.613169 0
M  V30 1666 C 154.709 -4.41914 -0.602365 0
M  V30 1667 C 155.41 -5.72351 1.03871 0
M  V30 1668 N 154.386 -5.42287 0.377642 0
M  V30 1669 H 158.188 -2.86653 0.648621 0
M  V30 1670 H 155.702 -1.55871 0.455862 0
M  V30 1671 H 157.699 -3.84399 -1.61378 0
M  V30 1672 H 156.359 -2.68631 -1.82393 0
M  V30 1673 H 157.37 -5.08331 0.990947 0
M  V30 1674 H 154.047 -3.95714 -1.33103 0
M  V30 1675 H 155.437 -6.4619 1.84086 0
M  V30 1676 N 158.157 -0.370918 -1.53173 0
M  V30 1677 C 159.382 0.220293 -2.06227 0
M  V30 1678 C 159.807 1.41243 -1.24225 0
M  V30 1679 O 159.165 1.79387 -0.262645 0
M  V30 1680 C 159.213 0.586663 -3.55796 0
M  V30 1681 O 158.317 1.68317 -3.76488 0
M  V30 1682 H 157.658 0.0308099 -0.663285 0
M  V30 1683 H 160.188 -0.533068 -1.97534 0
M  V30 1684 H 160.198 0.85617 -3.98916 0
M  V30 1685 H 158.873 -0.285013 -4.14922 0
M  V30 1686 H 157.45 1.40881 -3.45264 0
M  V30 1687 N 159.635 1.57281 -0.100228 0
M  V30 1688 C 160.86 1.99302 0.573881 0
M  V30 1689 C 161.285 0.979059 1.60611 0
M  V30 1690 O 160.643 -0.0517803 1.81226 0
M  V30 1691 C 160.691 3.40274 1.19358 0
M  V30 1692 O 159.795 3.41676 2.30935 0
M  V30 1693 H 159.136 0.647944 0.145138 0
M  V30 1694 H 161.666 2.03779 -0.183156 0
M  V30 1695 H 161.676 3.78078 1.53365 0
M  V30 1696 H 160.351 4.13594 0.437385 0
M  V30 1697 H 158.928 3.15672 1.98509 0
M  V30 1698 N 161.113 -0.173488 1.56642 0
M  V30 1699 C 162.362 -0.888758 1.81063 0
M  V30 1700 C 162.675 -1.83506 0.67712 0
M  V30 1701 O 163.881 -2.59254 0.806206 0
M  V30 1702 C 162.337 -1.63091 3.20826 0
M  V30 1703 C 161.945 -0.728357 4.4204 0
M  V30 1704 C 163.689 -2.33454 3.54541 0
M  V30 1705 C 161.596 -1.47062 5.72823 0
M  V30 1706 H 160.526 -0.335618 0.675186 0
M  V30 1707 H 163.177 -0.141712 1.82952 0
M  V30 1708 H 161.559 -2.42263 3.13248 0
M  V30 1709 H 162.733 0.0262449 4.60793 0
M  V30 1710 H 161.048 -0.134492 4.16183 0
M  V30 1711 H 163.645 -2.89578 4.49498 0
M  V30 1712 H 163.988 -3.08687 2.79317 0
M  V30 1713 H 164.521 -1.61227 3.63663 0
M  V30 1714 H 161.26 -0.760658 6.51072 0
M  V30 1715 H 160.78 -2.1986 5.58052 0
M  V30 1716 H 162.459 -2.01868 6.14702 0
M  V30 1717 N 162.591 -1.51276 -0.441967 0
M  V30 1718 C 163.838 -1.63715 -1.19179 0
M  V30 1719 C 164.166 -0.351175 -1.91303 0
M  V30 1720 O 163.421 0.664524 -1.84072 0
M  V30 1721 C 163.72 -2.78746 -2.23686 0
M  V30 1722 C 163.386 -4.18189 -1.68607 0
M  V30 1723 C 162.048 -4.56125 -1.53308 0
M  V30 1724 C 164.4 -5.05222 -1.28062 0
M  V30 1725 C 161.728 -5.78804 -0.959317 0
M  V30 1726 C 164.08 -6.28476 -0.721162 0
M  V30 1727 C 162.744 -6.65188 -0.55504 0
M  V30 1728 H 162.014 -0.599076 -0.436106 0
M  V30 1729 H 164.661 -1.85296 -0.48351 0
M  V30 1730 H 162.966 -2.51369 -3.00535 0
M  V30 1731 H 164.663 -2.8557 -2.81515 0
M  V30 1732 H 161.253 -3.88277 -1.8149 0
M  V30 1733 H 165.437 -4.76524 -1.38704 0
M  V30 1734 H 160.693 -6.05899 -0.81833 0
M  V30 1735 H 164.867 -6.95259 -0.398458 0
M  V30 1736 H 162.494 -7.60123 -0.108311 0
M  V30 1737 N 164.069 0.697108 -1.41344 0
M  V30 1738 C 165.316 1.45714 -1.40619 0
M  V30 1739 C 165.644 1.94494 -0.0147907 0
M  V30 1740 O 164.899 1.69794 0.973066 0
M  V30 1741 C 165.198 2.68553 -2.35826 0
M  V30 1742 C 164.864 2.38438 -3.82698 0
M  V30 1743 C 163.526 2.29936 -4.22709 0
M  V30 1744 C 165.878 2.13567 -4.75435 0
M  V30 1745 C 163.206 1.94656 -5.53467 0
M  V30 1746 C 165.558 1.79797 -6.06511 0
M  V30 1747 C 164.222 1.69789 -6.45545 0
M  V30 1748 H 163.492 0.533206 -0.51456 0
M  V30 1749 H 166.139 0.796901 -1.74131 0
M  V30 1750 H 164.444 3.39503 -1.95563 0
M  V30 1751 H 166.141 3.2669 -2.32539 0
M  V30 1752 H 162.731 2.4595 -3.51008 0
M  V30 1753 H 166.915 2.19082 -4.45328 0
M  V30 1754 H 162.171 1.8546 -5.82593 0
M  V30 1755 H 166.345 1.59572 -6.77872 0
M  V30 1756 H 163.972 1.4222 -7.46778 0
M  V30 1757 N 165.547 1.27147 0.931209 0
M  V30 1758 C 166.477 1.12081 2.04842 0
M  V30 1759 C 167.458 0.0232364 1.70084 0
M  V30 1760 O 168.643 0.197085 1.93197 0
M  V30 1761 C 165.773 0.76354 3.38803 0
M  V30 1762 C 164.727 1.81396 3.87659 0
M  V30 1763 C 164.053 1.31075 5.18385 0
M  V30 1764 C 165.353 3.21739 4.11438 0
M  V30 1765 H 167.047 2.05537 2.17703 0
M  V30 1766 H 164.593 0.989603 1.04608 0
M  V30 1767 H 166.546 0.644982 4.16435 0
M  V30 1768 H 165.27 -0.206727 3.25945 0
M  V30 1769 H 163.929 1.92136 3.12217 0
M  V30 1770 H 163.577 0.330037 5.01916 0
M  V30 1771 H 163.277 2.013 5.52044 0
M  V30 1772 H 164.801 1.20506 5.98591 0
M  V30 1773 H 166.215 3.14019 4.79651 0
M  V30 1774 H 164.612 3.89644 4.56397 0
M  V30 1775 H 165.682 3.67054 3.16859 0
M  V30 1776 N 167.025 -1.13721 1.09112 0
M  V30 1777 C 167.973 -2.21103 0.722219 0
M  V30 1778 C 168.967 -1.67147 -0.275374 0
M  V30 1779 O 170.173 -1.79477 -0.137176 0
M  V30 1780 H 166.548 -0.720445 0.215553 0
M  V30 1781 H 168.519 -2.49483 1.63709 0
M  V30 1782 C 167.268 -3.47352 0.15543 0
M  V30 1783 H 166.591 -3.89206 0.914246 0
M  V30 1784 H 168.031 -4.2395 -0.0647967 0
M  V30 1785 C 166.49 -3.1814 -1.10852 0
M  V30 1786 O 167.02 -3.36604 -2.19227 0
M  V30 1787 N 165.226 -2.72045 -1.02176 0
M  V30 1788 H 164.773 -2.57221 -0.139764 0
M  V30 1789 H 164.731 -2.52875 -1.8682 0
M  V30 1790 N 168.503 -0.877838 -1.30888 0
M  V30 1791 C 169.436 -0.283995 -2.26426 0
M  V30 1792 C 170.414 0.591361 -1.51465 0
M  V30 1793 O 171.598 0.54304 -1.80509 0
M  V30 1794 C 168.725 0.597129 -3.33395 0
M  V30 1795 C 167.771 -0.207937 -4.25993 0
M  V30 1796 S 168.604 -1.59158 -5.11301 0
M  V30 1797 C 169.76 -0.716791 -6.21782 0
M  V30 1798 H 169.993 -1.09383 -2.76446 0
M  V30 1799 H 167.526 -0.676828 -1.38775 0
M  V30 1800 H 169.484 1.09978 -3.95493 0
M  V30 1801 H 168.145 1.38099 -2.82113 0
M  V30 1802 H 167.338 0.464163 -5.01858 0
M  V30 1803 H 166.94 -0.642963 -3.68432 0
M  V30 1804 H 169.232 0.0692833 -6.77465 0
M  V30 1805 H 170.175 -1.44682 -6.93161 0
M  V30 1806 H 170.583 -0.280855 -5.63801 0
M  V30 1807 N 169.982 1.44106 -0.638065 0
M  V30 1808 C 171.229 2.01978 -0.14533 0
M  V30 1809 C 171.557 1.50234 1.23532 0
M  V30 1810 O 170.812 0.679548 1.83523 0
M  V30 1811 C 171.111 3.5729 -0.0887327 0
M  V30 1812 C 170.777 4.28317 -1.40909 0
M  V30 1813 C 169.439 4.47437 -1.77069 0
M  V30 1814 C 171.791 4.6867 -2.28031 0
M  V30 1815 C 169.119 5.04171 -3.00047 0
M  V30 1816 C 171.471 5.26766 -3.50286 0
M  V30 1817 C 170.135 5.44104 -3.86661 0
M  V30 1818 H 169.405 0.739089 -0.0531801 0
M  V30 1819 H 172.052 1.72781 -0.825761 0
M  V30 1820 H 170.357 3.8594 0.675095 0
M  V30 1821 H 172.054 3.99807 0.309145 0
M  V30 1822 H 168.644 4.1377 -1.1177 0
M  V30 1823 H 172.828 4.53604 -2.01388 0
M  V30 1824 H 168.084 5.15782 -3.28298 0
M  V30 1825 H 172.258 5.56983 -4.18023 0
M  V30 1826 H 169.885 5.87832 -4.82034 0
M  V30 1827 N 171.46 0.379036 1.52974 0
M  V30 1828 C 172.423 -0.448865 2.24762 0
M  V30 1829 C 173.423 -0.998689 1.26027 0
M  V30 1830 O 174.613 -0.882313 1.50203 0
M  V30 1831 C 171.745 -1.62872 2.99476 0
M  V30 1832 H 172.938 0.179491 2.99362 0
M  V30 1833 H 170.491 0.13096 1.5575 0
M  V30 1834 H 171.226 -2.29479 2.29151 0
M  V30 1835 H 171.011 -1.24128 3.71934 0
M  V30 1836 H 172.501 -2.2151 3.5401 0
M  V30 1837 N 172.938 -1.57226 0.108567 0
M  V30 1838 C 174.163 -1.99604 -0.563303 0
M  V30 1839 C 174.588 -0.987563 -1.6009 0
M  V30 1840 O 173.946 0.0421687 -1.81251 0
M  V30 1841 C 173.994 -3.40902 -1.17552 0
M  V30 1842 O 173.098 -3.42896 -2.2912 0
M  V30 1843 H 172.439 -0.648704 -0.1417 0
M  V30 1844 H 174.969 -2.03679 0.193961 0
M  V30 1845 H 174.979 -3.78886 -1.51357 0
M  V30 1846 H 173.654 -4.1382 -0.415445 0
M  V30 1847 H 172.231 -3.1672 -1.96832 0
M  V30 1848 N 174.416 0.165178 -1.56732 0
M  V30 1849 C 175.664 0.879068 -1.8198 0
M  V30 1850 C 175.985 1.82514 -0.686561 0
M  V30 1851 O 175.255 1.93694 0.293146 0
M  V30 1852 H 173.835 0.327608 -0.671329 0
M  V30 1853 H 176.497 0.163526 -1.94213 0
M  V30 1854 H 175.593 1.45228 -2.76252 0
M  V30 1855 N 175.894 1.51508 0.433938 0
M  V30 1856 C 177.141 1.64345 1.18309 0
M  V30 1857 C 177.469 0.361315 1.91115 0
M  V30 1858 O 176.724 -0.654753 1.84422 0
M  V30 1859 C 177.023 2.79928 2.22205 0
M  V30 1860 C 176.689 4.19078 1.66387 0
M  V30 1861 C 175.351 4.56932 1.50887 0
M  V30 1862 C 177.703 5.05894 1.25381 0
M  V30 1863 C 175.031 5.79305 0.928608 0
M  V30 1864 C 177.383 6.2885 0.687823 0
M  V30 1865 C 176.047 6.65473 0.519755 0
M  V30 1866 H 175.317 0.601381 0.432923 0
M  V30 1867 H 177.964 1.85549 0.473676 0
M  V30 1868 H 176.269 2.52959 2.99197 0
M  V30 1869 H 177.966 2.87059 2.79997 0
M  V30 1870 H 174.556 3.89234 1.79428 0
M  V30 1871 H 178.74 4.77253 1.36175 0
M  V30 1872 H 173.996 6.06324 0.786186 0
M  V30 1873 H 178.17 6.95461 0.361581 0
M  V30 1874 H 175.797 7.6017 0.0679979 0
M  V30 1875 N 177.372 -0.689602 1.41712 0
M  V30 1876 C 178.302 -1.81577 1.46806 0
M  V30 1877 C 179.283 -1.66945 0.326105 0
M  V30 1878 O 180.468 -1.86588 0.538377 0
M  V30 1879 C 177.598 -3.19762 1.35535 0
M  V30 1880 C 176.552 -3.49107 2.47605 0
M  V30 1881 C 175.878 -4.86711 2.21397 0
M  V30 1882 C 177.178 -3.47483 3.89939 0
M  V30 1883 H 178.872 -1.7757 2.41058 0
M  V30 1884 H 176.418 -0.852887 1.16025 0
M  V30 1885 H 178.371 -3.98263 1.3771 0
M  V30 1886 H 177.095 -3.24409 0.377708 0
M  V30 1887 H 175.754 -2.72959 2.44722 0
M  V30 1888 H 175.402 -4.8799 1.21961 0
M  V30 1889 H 175.102 -5.0731 2.96497 0
M  V30 1890 H 176.626 -5.67515 2.25297 0
M  V30 1891 H 178.04 -4.1598 3.94505 0
M  V30 1892 H 176.437 -3.79615 4.64771 0
M  V30 1893 H 177.507 -2.46341 4.17665 0
M  V30 1894 N 178.85 -1.27639 -0.924453 0
M  V30 1895 C 179.78 -1.13166 -2.04244 0
M  V30 1896 C 180.761 -0.032256 -1.70069 0
M  V30 1897 O 181.946 -0.207328 -1.9309 0
M  V30 1898 C 179.076 -0.781496 -3.38393 0
M  V30 1899 C 178.03 -1.83449 -3.86692 0
M  V30 1900 C 177.356 -1.33822 -5.17683 0
M  V30 1901 C 178.656 -3.23917 -4.09726 0
M  V30 1902 H 180.35 -2.06689 -2.1661 0
M  V30 1903 H 177.896 -0.995136 -1.04082 0
M  V30 1904 H 179.849 -0.667057 -4.16087 0
M  V30 1905 H 178.573 0.189439 -3.2605 0
M  V30 1906 H 177.232 -1.93789 -3.11193 0
M  V30 1907 H 176.88 -0.35665 -5.01734 0
M  V30 1908 H 176.58 -2.04224 -5.50968 0
M  V30 1909 H 178.104 -1.23679 -5.97943 0
M  V30 1910 H 179.518 -3.16559 -4.77978 0
M  V30 1911 H 177.915 -3.92059 -4.54324 0
M  V30 1912 H 178.985 -3.68729 -3.14908 0
M  V30 1913 N 180.328 1.1314 -1.09713 0
M  V30 1914 C 181.553 1.88862 -0.857081 0
M  V30 1915 C 181.978 1.78729 0.586304 0
M  V30 1916 O 181.336 1.13692 1.41222 0
M  V30 1917 C 181.384 3.36325 -1.30069 0
M  V30 1918 O 180.488 4.09815 -0.461007 0
M  V30 1919 H 179.829 0.587108 -0.310162 0
M  V30 1920 H 182.359 1.43129 -1.46203 0
M  V30 1921 H 182.369 3.87157 -1.28738 0
M  V30 1922 H 181.044 3.43017 -2.35185 0
M  V30 1923 H 179.621 3.68986 -0.538888 0
M  V30 1924 N 181.806 0.884767 1.30421 0
M  V30 1925 C 182.769 0.356277 2.26414 0
M  V30 1926 C 183.769 -0.501124 1.52792 0
M  V30 1927 O 184.959 -0.30831 1.7145 0
M  V30 1928 C 182.091 -0.492316 3.37326 0
M  V30 1929 H 183.284 1.20389 2.74675 0
M  V30 1930 H 180.837 0.661607 1.41607 0
M  V30 1931 H 181.572 -1.36052 2.94381 0
M  V30 1932 H 181.357 0.121832 3.91911 0
M  V30 1933 H 182.847 -0.853871 4.08777 0
M  V30 1934 N 183.284 -1.43765 0.645699 0
M  V30 1935 C 184.533 -2.01116 0.153412 0
M  V30 1936 C 184.846 -1.51493 -1.23731 0
M  V30 1937 O 186.052 -2.01067 -1.8244 0
M  V30 1938 C 184.508 -3.59206 0.223473 0
M  V30 1939 C 184.116 -4.17823 1.61642 0
M  V30 1940 C 185.86 -4.23972 -0.211597 0
M  V30 1941 C 183.767 -5.68183 1.64081 0
M  V30 1942 H 182.697 -0.752093 0.0535891 0
M  V30 1943 H 185.348 -1.6482 0.806633 0
M  V30 1944 H 183.73 -3.92867 -0.497118 0
M  V30 1945 H 184.904 -3.95674 2.36176 0
M  V30 1946 H 183.219 -3.65399 1.99681 0
M  V30 1947 H 185.816 -5.34275 -0.213112 0
M  V30 1948 H 186.159 -3.97352 -1.24165 0
M  V30 1949 H 186.692 -3.95166 0.456988 0
M  V30 1950 H 183.431 -5.99559 2.64971 0
M  V30 1951 H 182.951 -5.9241 0.938611 0
M  V30 1952 H 184.63 -6.32085 1.3812 0
M  V30 1953 N 184.763 -0.387143 -1.52771 0
M  V30 1954 C 185.988 0.198407 -2.06449 0
M  V30 1955 C 186.413 1.39918 -1.25716 0
M  V30 1956 O 185.771 1.79099 -0.281657 0
M  V30 1957 C 185.819 0.548893 -3.56398 0
M  V30 1958 O 184.923 1.64315 -3.78252 0
M  V30 1959 H 184.264 0.0237731 -0.663574 0
M  V30 1960 H 186.794 -0.553989 -1.96957 0
M  V30 1961 H 186.804 0.813812 -3.99801 0
M  V30 1962 H 185.479 -0.329005 -4.14597 0
M  V30 1963 H 184.056 1.37211 -3.46738 0
M  V30 1964 N 186.241 1.57166 -0.116904 0
M  V30 1965 C 187.171 2.18222 0.830759 0
M  V30 1966 C 188.152 1.12167 1.27877 0
M  V30 1967 O 189.337 1.40394 1.34176 0
M  V30 1968 C 186.467 2.77996 2.08172 0
M  V30 1969 C 185.421 3.89614 1.77157 0
M  V30 1970 C 184.747 4.36187 3.09265 0
M  V30 1971 C 186.047 5.1181 1.04151 0
M  V30 1972 H 187.741 2.97664 0.321992 0
M  V30 1973 H 185.287 1.4318 0.153434 0
M  V30 1974 H 187.24 3.19366 2.74924 0
M  V30 1975 H 185.964 1.9584 2.6137 0
M  V30 1976 H 184.623 3.48816 1.12796 0
M  V30 1977 H 184.271 3.50893 3.60393 0
M  V30 1978 H 183.971 5.11455 2.89288 0
M  V30 1979 H 185.495 4.80207 3.77139 0
M  V30 1980 H 186.909 5.50214 1.61052 0
M  V30 1981 H 185.306 5.92648 0.942762 0
M  V30 1982 H 186.376 4.84892 0.0279022 0
M  V30 1983 N 187.719 -0.156864 1.56817 0
M  V30 1984 C 188.996 -0.899244 1.73704 0
M  V30 1985 C 189.376 -1.99771 0.682254 0
M  V30 1986 O 188.724 -2.26515 -0.300522 0
M  V30 1987 C 188.934 -1.45075 3.17418 0
M  V30 1988 C 190.282 -1.91802 3.7881 0
M  V30 1989 O 191.306 -1.54838 3.20786 0
M  V30 1990 O 190.165 -2.5994 4.80722 0
M  V30 1991 H 187.259 -0.424267 0.709878 0
M  V30 1992 H 189.805 -0.143561 1.69092 0
M  V30 1993 H 188.577 -0.660846 3.85679 0
M  V30 1994 H 188.2 -2.27021 3.26416 0
M  V30 1995 N 189.197 -1.51736 -0.425897 0
M  V30 1996 C 190.613 -1.40166 -0.76326 0
M  V30 1997 C 190.813 -0.492962 -1.95377 0
M  V30 1998 O 189.869 0.0475815 -2.52455 0
M  V30 1999 C 191.182 -2.82403 -1.03291 0
M  V30 2000 C 192.73 -2.91632 -1.13665 0
M  V30 2001 C 193.205 -4.34801 -1.43916 0
M  V30 2002 N 194.696 -4.3796 -1.50816 0
M  V30 2003 C 195.431 -5.4578 -1.75817 0
M  V30 2004 N 194.927 -6.63744 -1.98534 0
M  V30 2005 N 196.72 -5.33274 -1.77694 0
M  V30 2006 H 188.871 -2.09361 0.358 0
M  V30 2007 H 191.134 -0.942941 0.0978094 0
M  V30 2008 H 190.84 -3.50943 -0.230696 0
M  V30 2009 H 190.714 -3.22428 -1.95754 0
M  V30 2010 H 193.101 -2.23284 -1.92947 0
M  V30 2011 H 193.182 -2.55088 -0.190756 0
M  V30 2012 H 192.826 -5.03703 -0.65157 0
M  V30 2013 H 192.756 -4.68868 -2.39729 0
M  V30 2014 H 195.247 -3.52919 -1.35118 0
M  V30 2015 H 195.56 -7.41704 -2.17013 0
M  V30 2016 H 193.905 -6.66839 -1.95832 0
M  V30 2017 H 197.096 -4.40098 -1.59473 0
M  V30 2018 H 197.269 -6.1738 -1.9684 0
M  V30 2019 N 190.675 0.682077 -1.42076 0
M  V30 2020 C 191.915 1.45424 -1.43636 0
M  V30 2021 C 192.279 1.91939 -0.0484001 0
M  V30 2022 O 193.48 2.6873 0.0612514 0
M  V30 2023 C 191.751 2.62427 -2.42625 0
M  V30 2024 S 193.31 3.51379 -2.62827 0
M  V30 2025 H 190.128 0.496779 -0.508657 0
M  V30 2026 H 192.73 0.794645 -1.78621 0
M  V30 2027 H 191.434 2.26481 -3.42249 0
M  V30 2028 H 190.965 3.33266 -2.09039 0
M  V30 2029 H 192.98 4.58141 -1.9058 0
M  V30 2030 N 192.153 1.28127 0.917671 0
M  V30 2031 C 193.083 1.14248 2.03641 0
M  V30 2032 C 194.064 0.0412748 1.7005 0
M  V30 2033 O 195.249 0.217566 1.92977 0
M  V30 2034 C 192.379 0.799431 3.37974 0
M  V30 2035 C 191.333 1.85497 3.85713 0
M  V30 2036 C 190.659 1.36565 5.16966 0
M  V30 2037 C 191.959 3.26085 4.08002 0
M  V30 2038 H 193.653 2.07835 2.15511 0
M  V30 2039 H 191.199 1.00064 1.03553 0
M  V30 2040 H 193.152 0.689114 4.15727 0
M  V30 2041 H 191.876 -0.172145 3.26146 0
M  V30 2042 H 190.535 1.95437 3.10161 0
M  V30 2043 H 190.183 0.383253 5.01538 0
M  V30 2044 H 189.883 2.07143 5.49878 0
M  V30 2045 H 191.407 1.26848 5.97279 0
M  V30 2046 H 192.821 3.19089 4.76293 0
M  V30 2047 H 191.218 3.94462 4.52238 0
M  V30 2048 H 192.288 3.70394 3.12948 0
M  V30 2049 N 193.631 -1.12557 1.10312 0
M  V30 2050 C 194.563 -2.17971 0.708625 0
M  V30 2051 C 195.576 -1.60806 -0.254027 0
M  V30 2052 O 196.765 -1.78458 -0.0386891 0
M  V30 2053 C 193.865 -3.38891 0.0248198 0
M  V30 2054 C 193.038 -4.25548 1.01132 0
M  V30 2055 C 192.097 -5.24972 0.35924 0
M  V30 2056 O 191.123 -5.60174 1.00965 0
M  V30 2057 N 192.325 -5.73747 -0.882847 0
M  V30 2058 H 195.09 -2.52427 1.61557 0
M  V30 2059 H 192.651 -1.27967 0.991771 0
M  V30 2060 H 194.643 -4.02485 -0.422852 0
M  V30 2061 H 193.213 -3.02596 -0.784514 0
M  V30 2062 H 192.433 -3.58589 1.6373 0
M  V30 2063 H 193.721 -4.80294 1.67914 0
M  V30 2064 H 193.119 -5.4731 -1.43065 0
M  V30 2065 H 191.676 -6.39234 -1.27369 0
M  V30 2066 N 195.109 -0.891671 -1.2995 0
M  V30 2067 C 196.355 -0.514261 -1.96171 0
M  V30 2068 C 196.688 0.935506 -1.70182 0
M  V30 2069 O 195.963 1.66204 -1.01028 0
M  V30 2070 C 196.246 -0.797719 -3.51153 0
M  V30 2071 C 196.099 -2.2986 -3.86632 0
M  V30 2072 C 197.418 -0.278749 -4.39216 0
M  V30 2073 H 194.537 -0.188314 -0.712535 0
M  V30 2074 H 197.179 -1.11689 -1.53706 0
M  V30 2075 H 195.329 -0.284826 -3.87455 0
M  V30 2076 H 197.001 -2.88042 -3.60319 0
M  V30 2077 H 195.244 -2.76257 -3.34462 0
M  V30 2078 H 195.915 -2.44753 -4.94773 0
M  V30 2079 H 198.391 -0.717825 -4.09862 0
M  V30 2080 H 197.267 -0.506353 -5.46559 0
M  V30 2081 H 197.528 0.820266 -4.34424 0
M  V30 2082 N 196.587 1.43421 -0.653314 0
M  V30 2083 C 197.833 2.02111 -0.166992 0
M  V30 2084 C 198.166 1.51423 1.21592 0
M  V30 2085 O 197.441 0.707389 1.8118 0
M  V30 2086 C 197.724 3.5966 -0.177948 0
M  V30 2087 C 197.577 4.20579 -1.59478 0
M  V30 2088 C 198.896 4.37413 0.4856 0
M  V30 2089 H 196.015 0.734374 -0.0621557 0
M  V30 2090 H 198.657 1.70717 -0.834016 0
M  V30 2091 H 196.807 3.86537 0.390032 0
M  V30 2092 H 198.479 4.04732 -2.21336 0
M  V30 2093 H 196.722 3.77226 -2.14204 0
M  V30 2094 H 197.393 5.29665 -1.5543 0
M  V30 2095 H 199.869 4.161 0.00234528 0
M  V30 2096 H 198.745 5.47075 0.447207 0
M  V30 2097 H 199.006 4.13672 1.55974 0
M  V30 2098 N 198.065 0.39524 1.52563 0
M  V30 2099 C 199.481 0.0454682 1.59535 0
M  V30 2100 C 199.681 -1.44056 1.4089 0
M  V30 2101 O 198.737 -2.20579 1.22888 0
M  V30 2102 C 200.05 0.527963 2.96029 0
M  V30 2103 C 201.598 0.484733 3.09224 0
M  V30 2104 C 202.073 0.943512 4.48176 0
M  V30 2105 N 203.564 0.899765 4.54377 0
M  V30 2106 C 204.299 1.22609 5.60138 0
M  V30 2107 N 203.795 1.62319 6.73516 0
M  V30 2108 N 205.588 1.14696 5.50274 0
M  V30 2109 H 197.739 1.36261 1.62931 0
M  V30 2110 H 200.002 0.558887 0.765735 0
M  V30 2111 H 199.708 1.56607 3.14908 0
M  V30 2112 H 199.582 -0.0698056 3.77135 0
M  V30 2113 H 201.969 -0.544298 2.90037 0
M  V30 2114 H 202.05 1.11838 2.30056 0
M  V30 2115 H 201.694 1.9708 4.68104 0
M  V30 2116 H 201.624 0.286817 5.25818 0
M  V30 2117 H 204.115 0.607632 3.72983 0
M  V30 2118 H 204.428 1.85567 7.5019 0
M  V30 2119 H 202.773 1.66211 6.74833 0
M  V30 2120 H 205.964 0.835701 4.6058 0
M  V30 2121 H 206.137 1.40459 6.32594 0
M  V30 2122 N 199.544 -1.57102 0.125237 0
M  V30 2123 C 200.955 -1.82384 -0.399142 0
M  V30 2124 C 201.306 -1.04276 -1.66195 0
M  V30 2125 O 200.431 -0.281269 -2.14564 0
M  V30 2126 C 201.026 -3.30821 -0.730932 0
M  V30 2127 C 199.585 -3.56762 -1.19992 0
M  V30 2128 C 198.732 -2.7649 -0.211792 0
M  V30 2129 H 201.683 -1.54786 0.350277 0
M  V30 2130 H 201.704 -3.4579 -1.58775 0
M  V30 2131 H 201.216 -3.87643 0.188345 0
M  V30 2132 H 199.317 -3.05305 -2.13588 0
M  V30 2133 H 199.43 -4.65317 -1.14093 0
M  V30 2134 H 197.794 -2.4489 -0.700085 0
M  V30 2135 H 198.577 -3.36073 0.700691 0
M  V30 2136 N 201.022 0.148545 -1.56898 0
M  V30 2137 C 202.268 0.862694 -1.83536 0
M  V30 2138 C 202.601 1.80889 -0.706604 0
M  V30 2139 O 201.876 1.92328 0.289885 0
M  V30 2140 C 202.159 1.63853 -3.20662 0
M  V30 2141 C 202.012 0.713925 -4.44098 0
M  V30 2142 C 203.331 2.60133 -3.54991 0
M  V30 2143 H 200.45 0.312179 -0.667618 0
M  V30 2144 H 203.092 0.127953 -1.89569 0
M  V30 2145 H 201.242 2.26489 -3.1565 0
M  V30 2146 H 202.914 0.098686 -4.61194 0
M  V30 2147 H 201.157 0.0234019 -4.33794 0
M  V30 2148 H 201.828 1.29278 -5.36648 0
M  V30 2149 H 204.304 2.07616 -3.60603 0
M  V30 2150 H 203.18 3.11468 -4.51972 0
M  V30 2151 H 203.441 3.41417 -2.80868 0
M  V30 2152 N 202.5 1.5196 0.417844 0
M  V30 2153 C 203.746 1.66793 1.16411 0
M  V30 2154 C 204.101 0.388758 1.88432 0
M  V30 2155 O 203.394 -0.616409 1.81414 0
M  V30 2156 C 203.588 2.82269 2.19223 0
M  V30 2157 C 203.417 4.21293 1.57297 0
M  V30 2158 C 202.187 4.86948 1.34944 0
M  V30 2159 C 204.385 5.03704 1.03858 0
M  V30 2160 N 202.367 6.1003 0.688195 0
M  V30 2161 C 203.738 6.1795 0.503742 0
M  V30 2162 C 205.793 4.89095 0.932203 0
M  V30 2163 C 204.496 7.19188 -0.127034 0
M  V30 2164 C 206.522 5.90559 0.315293 0
M  V30 2165 C 205.884 7.0409 -0.208906 0
M  V30 2166 H 201.983 0.66407 0.412959 0
M  V30 2167 H 204.567 1.89242 0.457772 0
M  V30 2168 H 202.738 2.61451 2.87225 0
M  V30 2169 H 204.47 2.86183 2.86149 0
M  V30 2170 H 201.225 4.45156 1.61657 0
M  V30 2171 H 201.649 6.75964 0.374449 0
M  V30 2172 H 206.291 4.01557 1.32332 0
M  V30 2173 H 204.009 8.06359 -0.530231 0
M  V30 2174 H 207.595 5.81327 0.234625 0
M  V30 2175 H 206.475 7.81257 -0.67875 0
M  V30 2176 N 203.978 -0.674533 1.42435 0
M  V30 2177 C 204.941 -1.76986 1.45632 0
M  V30 2178 C 205.941 -1.5708 0.343871 0
M  V30 2179 O 207.131 -1.63367 0.604709 0
M  V30 2180 C 204.263 -3.15623 1.28822 0
M  V30 2181 H 205.456 -1.75539 2.43158 0
M  V30 2182 H 203.009 -0.884189 1.28887 0
M  V30 2183 H 203.744 -3.22696 0.322193 0
M  V30 2184 H 203.529 -3.31475 2.09444 0
M  V30 2185 H 205.019 -3.95537 1.33942 0
M  V30 2186 N 205.456 -1.28612 -0.910864 0
M  V30 2187 C 206.388 -1.08589 -2.01844 0
M  V30 2188 C 207.401 -0.0367419 -1.62759 0
M  V30 2189 O 208.59 -0.280101 -1.76289 0
M  V30 2190 C 205.69 -0.628626 -3.33019 0
M  V30 2191 C 204.863 -1.75382 -4.00699 0
M  V30 2192 C 203.922 -1.28945 -5.10156 0
M  V30 2193 O 202.948 -1.9922 -5.33198 0
M  V30 2194 N 204.15 -0.154224 -5.80295 0
M  V30 2195 H 206.915 -2.03973 -2.19579 0
M  V30 2196 H 204.476 -1.20403 -1.08234 0
M  V30 2197 H 206.468 -0.301508 -4.03575 0
M  V30 2198 H 205.038 0.232451 -3.11735 0
M  V30 2199 H 204.258 -2.25039 -3.23653 0
M  V30 2200 H 205.546 -2.50854 -4.42662 0
M  V30 2201 H 204.944 0.43194 -5.64049 0
M  V30 2202 H 203.501 0.113599 -6.51701 0
M  V30 2203 N 206.934 1.1197 -1.10907 0
M  V30 2204 C 207.882 2.19927 -0.757303 0
M  V30 2205 C 208.876 1.67564 0.248747 0
M  V30 2206 O 210.082 1.79672 0.108605 0
M  V30 2207 H 206.457 0.716925 -0.226987 0
M  V30 2208 H 208.428 2.46847 -1.67658 0
M  V30 2209 C 207.177 3.47061 -0.210671 0
M  V30 2210 H 206.5 3.87703 -0.976049 0
M  V30 2211 H 207.94 4.24 -0.0026584 0
M  V30 2212 C 206.399 3.19864 1.05777 0
M  V30 2213 O 206.929 3.40049 2.13845 0
M  V30 2214 N 205.135 2.73636 0.978349 0
M  V30 2215 H 204.682 2.5741 0.0988246 0
M  V30 2216 H 204.64 2.55815 1.82773 0
M  V30 2217 N 208.412 0.89855 1.29475 0
M  V30 2218 C 209.362 0.346767 2.25348 0
M  V30 2219 C 210.346 -0.532509 1.51833 0
M  V30 2220 O 211.538 -0.374714 1.72988 0
M  V30 2221 C 208.667 -0.425681 3.40651 0
M  V30 2222 C 207.753 0.46845 4.21505 0
M  V30 2223 N 208.144 1.57514 4.80648 0
M  V30 2224 C 206.442 0.26603 4.45206 0
M  V30 2225 C 207.143 2.12889 5.41344 0
M  V30 2226 N 206.119 1.42208 5.24669 0
M  V30 2227 H 209.921 1.19219 2.68634 0
M  V30 2228 H 207.435 0.749473 1.44072 0
M  V30 2229 H 209.432 -0.837716 4.08397 0
M  V30 2230 H 208.092 -1.26838 2.98902 0
M  V30 2231 H 209.103 1.95789 4.79465 0
M  V30 2232 H 205.78 -0.538394 4.14014 0
M  V30 2233 H 207.17 3.05901 5.98226 0
M  V30 2234 N 209.89 -1.43072 0.660911 0
M  V30 2235 C 211.306 -1.56169 0.329173 0
M  V30 2236 C 211.506 -1.64317 -1.16629 0
M  V30 2237 O 210.562 -1.60245 -1.95135 0
M  V30 2238 C 211.875 -2.81873 1.04729 0
M  V30 2239 C 213.423 -2.95627 1.02828 0
M  V30 2240 C 213.898 -4.24174 1.72744 0
M  V30 2241 N 215.389 -4.31055 1.69545 0
M  V30 2242 C 216.124 -5.29304 2.20511 0
M  V30 2243 N 215.62 -6.33786 2.79799 0
M  V30 2244 N 217.413 -5.21008 2.10966 0
M  V30 2245 H 209.564 -1.36027 1.63127 0
M  V30 2246 H 211.827 -0.653823 0.686454 0
M  V30 2247 H 211.533 -2.81942 2.10242 0
M  V30 2248 H 211.407 -3.72338 0.603702 0
M  V30 2249 H 213.794 -2.95094 -0.0184742 0
M  V30 2250 H 213.875 -2.06431 1.51063 0
M  V30 2251 H 213.519 -4.25467 2.7738 0
M  V30 2252 H 213.449 -5.1228 1.2197 0
M  V30 2253 H 215.94 -3.56174 1.26288 0
M  V30 2254 H 216.253 -7.05086 3.16344 0
M  V30 2255 H 214.598 -6.34387 2.83863 0
M  V30 2256 H 217.789 -4.38301 1.64347 0
M  V30 2257 H 217.962 -5.97416 2.50993 0
M  V30 2258 N 211.368 -0.403325 -1.52352 0
M  V30 2259 C 212.596 0.174012 -2.06167 0
M  V30 2260 C 213.011 1.39347 -1.27388 0
M  V30 2261 O 212.368 1.79597 -0.324201 0
M  V30 2262 C 212.419 0.530223 -3.5759 0
M  V30 2263 O 212.14 -0.640806 -4.33388 0
M  V30 2264 C 213.641 1.16192 -4.27802 0
M  V30 2265 H 210.861 0.0229464 -0.670608 0
M  V30 2266 H 213.405 -0.572604 -1.9632 0
M  V30 2267 H 211.56 1.22673 -3.67464 0
M  V30 2268 H 211.974 -0.344851 -5.23365 0
M  V30 2269 H 213.448 1.36141 -5.34948 0
M  V30 2270 H 213.925 2.13335 -3.83907 0
M  V30 2271 H 214.531 0.505775 -4.22282 0
M  V30 2272 N 212.846 1.57033 -0.133567 0
M  V30 2273 C 214.092 1.95976 0.521649 0
M  V30 2274 C 214.425 1.01779 1.65393 0
M  V30 2275 O 213.7 0.0576581 1.94415 0
M  V30 2276 C 213.983 3.44738 1.04057 0
M  V30 2277 C 213.836 4.49711 -0.0892897 0
M  V30 2278 C 215.155 3.95682 1.92675 0
M  V30 2279 H 212.274 0.712579 0.188149 0
M  V30 2280 H 214.916 1.88813 -0.212076 0
M  V30 2281 H 213.066 3.50973 1.66583 0
M  V30 2282 H 214.738 4.55565 -0.725152 0
M  V30 2283 H 212.981 4.27261 -0.750378 0
M  V30 2284 H 213.652 5.51099 0.315284 0
M  V30 2285 H 216.128 3.91841 1.39998 0
M  V30 2286 H 215.004 5.00262 2.25897 0
M  V30 2287 H 215.265 3.37239 2.85872 0
M  V30 2288 N 214.325 -0.140222 1.56975 0
M  V30 2289 C 215.288 -1.15689 1.97861 0
M  V30 2290 C 216.288 -1.3549 0.865974 0
M  V30 2291 O 217.478 -1.32367 1.13246 0
M  V30 2292 C 214.61 -2.51582 2.30042 0
M  V30 2293 H 215.803 -0.805971 2.88867 0
M  V30 2294 H 213.356 -0.383801 1.51515 0
M  V30 2295 H 214.091 -2.91632 1.41849 0
M  V30 2296 H 213.876 -2.38569 3.11171 0
M  V30 2297 H 215.366 -3.24792 2.62488 0
M  V30 2298 N 215.803 -1.52179 -0.40978 0
M  V30 2299 C 216.766 -1.74853 -1.48186 0
M  V30 2300 C 217.766 -0.618417 -1.48433 0
M  V30 2301 O 218.956 -0.886286 -1.49969 0
M  V30 2302 C 216.088 -1.8303 -2.87598 0
M  V30 2303 H 217.281 -2.70559 -1.29374 0
M  V30 2304 H 214.834 -1.42586 -0.640233 0
M  V30 2305 H 215.569 -0.89236 -3.11781 0
M  V30 2306 H 215.354 -2.65187 -2.88822 0
M  V30 2307 H 216.844 -2.02316 -3.65319 0
M  V30 2308 N 217.281 0.66697 -1.42791 0
M  V30 2309 C 218.244 1.76211 -1.46568 0
M  V30 2310 C 219.244 1.56896 -0.352196 0
M  V30 2311 O 220.434 1.63044 -0.613364 0
M  V30 2312 C 217.566 3.14935 -1.30494 0
M  V30 2313 H 218.759 1.74247 -2.44086 0
M  V30 2314 H 216.312 0.877342 -1.29354 0
M  V30 2315 H 217.047 3.2252 -0.339301 0
M  V30 2316 H 216.832 3.30359 -2.11199 0
M  V30 2317 H 218.322 3.94821 -1.36038 0
M  V30 2318 N 218.759 1.29093 0.90403 0
M  V30 2319 C 219.709 1.10482 1.99443 0
M  V30 2320 C 220.693 0.0255401 1.6088 0
M  V30 2321 O 221.885 0.24677 1.75271 0
M  V30 2322 C 219.014 0.778882 3.34348 0
M  V30 2323 C 218.1 1.89749 3.79284 0
M  V30 2324 N 218.491 3.14045 3.96497 0
M  V30 2325 C 216.789 1.78955 4.08523 0
M  V30 2326 C 217.49 3.86996 4.34292 0
M  V30 2327 N 216.466 3.14909 4.43095 0
M  V30 2328 H 220.268 2.04778 2.10815 0
M  V30 2329 H 217.782 1.20155 1.09255 0
M  V30 2330 H 219.779 0.62661 4.12164 0
M  V30 2331 H 218.439 -0.156205 3.24324 0
M  V30 2332 H 219.45 3.49548 3.82148 0
M  V30 2333 H 216.127 0.926886 4.07081 0
M  V30 2334 H 217.517 4.93941 4.55491 0
M  V30 2335 N 220.237 -1.11381 1.11499 0
M  V30 2336 C 221.184 -2.17439 0.773887 0
M  V30 2337 C 222.154 -1.64132 -0.254899 0
M  V30 2338 O 223.339 -1.90345 -0.13168 0
M  V30 2339 C 220.479 -3.44373 0.223917 0
M  V30 2340 C 219.592 -4.1168 1.30934 0
M  V30 2341 C 218.727 -5.263 0.71984 0
M  V30 2342 C 217.766 -5.85493 1.78507 0
M  V30 2343 N 216.903 -6.91507 1.21502 0
M  V30 2344 H 221.743 -2.45962 1.68246 0
M  V30 2345 H 219.28 -1.20744 0.840191 0
M  V30 2346 H 221.238 -4.17047 -0.112921 0
M  V30 2347 H 219.868 -3.16232 -0.647851 0
M  V30 2348 H 218.92 -3.37073 1.76312 0
M  V30 2349 H 220.232 -4.51729 2.11524 0
M  V30 2350 H 219.386 -6.05785 0.333094 0
M  V30 2351 H 218.125 -4.87559 -0.117377 0
M  V30 2352 H 217.13 -5.04686 2.18111 0
M  V30 2353 H 218.355 -6.26301 2.62533 0
M  V30 2354 H 216.301 -6.54783 0.399455 0
M  V30 2355 H 216.218 -7.30214 1.95763 0
M  V30 2356 H 217.486 -7.74795 0.855181 0
M  V30 2357 N 221.715 -0.905404 -1.28997 0
M  V30 2358 C 222.961 -0.535039 -1.95615 0
M  V30 2359 C 223.294 0.917404 -1.71165 0
M  V30 2360 O 222.569 1.65123 -1.02785 0
M  V30 2361 C 222.852 -0.834918 -3.50287 0
M  V30 2362 C 222.705 -2.33948 -3.84172 0
M  V30 2363 C 224.024 -0.325318 -4.38896 0
M  V30 2364 H 221.143 -0.195861 -0.710498 0
M  V30 2365 H 223.785 -1.13313 -1.52513 0
M  V30 2366 H 221.935 -0.325904 -3.87131 0
M  V30 2367 H 223.607 -2.91847 -3.57243 0
M  V30 2368 H 221.85 -2.79789 -3.31513 0
M  V30 2369 H 222.521 -2.49987 -4.92149 0
M  V30 2370 H 224.997 -0.761256 -4.09077 0
M  V30 2371 H 223.873 -0.564295 -5.45992 0
M  V30 2372 H 224.134 0.774144 -4.35269 0
M  V30 2373 N 223.193 1.4272 -0.668489 0
M  V30 2374 C 224.433 2.03497 -0.19194 0
M  V30 2375 C 224.797 1.51684 1.17712 0
M  V30 2376 O 225.998 2.04205 1.74796 0
M  V30 2377 C 224.269 3.56734 -0.218032 0
M  V30 2378 S 225.828 4.38395 0.188438 0
M  V30 2379 H 222.646 0.706542 -0.0794959 0
M  V30 2380 H 225.248 1.74563 -0.880235 0
M  V30 2381 H 223.952 3.91943 -1.2169 0
M  V30 2382 H 223.483 3.90333 0.490303 0
M  V30 2383 H 225.498 4.75345 1.42345 0
M  V30 2384 N 224.671 0.411399 1.52136 0
M  V30 2385 C 225.601 -0.404015 2.29978 0
M  V30 2386 C 226.582 -1.04412 1.34284 0
M  V30 2387 O 227.767 -1.0527 1.63192 0
M  V30 2388 C 224.897 -1.5197 3.12286 0
M  V30 2389 C 223.851 -1.00448 4.16046 0
M  V30 2390 C 223.177 -2.21393 4.86712 0
M  V30 2391 C 224.477 -0.0569336 5.22269 0
M  V30 2392 H 226.171 0.245529 2.98392 0
M  V30 2393 H 223.717 0.119525 1.43503 0
M  V30 2394 H 225.67 -2.09715 3.6551 0
M  V30 2395 H 224.394 -2.19716 2.41646 0
M  V30 2396 H 223.053 -0.449421 3.63835 0
M  V30 2397 H 222.701 -2.87699 4.12599 0
M  V30 2398 H 222.401 -1.87571 5.56858 0
M  V30 2399 H 223.925 -2.7974 5.4275 0
M  V30 2400 H 225.339 -0.54325 5.7072 0
M  V30 2401 H 223.736 0.192594 5.99791 0
M  V30 2402 H 224.806 0.887663 4.76706 0
M  V30 2403 N 226.149 -1.5696 0.141893 0
M  V30 2404 C 227.395 -1.9625 -0.511248 0
M  V30 2405 C 227.728 -1.02654 -1.64851 0
M  V30 2406 O 227.003 -0.0679676 -1.94381 0
M  V30 2407 C 227.286 -3.45285 -1.02227 0
M  V30 2408 C 227.139 -4.49658 0.113138 0
M  V30 2409 C 228.458 -3.96698 -1.90574 0
M  V30 2410 H 225.577 -0.713567 -0.184367 0
M  V30 2411 H 228.219 -1.88698 0.222087 0
M  V30 2412 H 226.369 -3.51852 -1.64719 0
M  V30 2413 H 228.041 -4.55174 0.749302 0
M  V30 2414 H 226.284 -4.26857 0.773026 0
M  V30 2415 H 226.955 -5.51258 -0.286053 0
M  V30 2416 H 229.431 -3.92578 -1.37918 0
M  V30 2417 H 228.307 -5.01453 -2.2324 0
M  V30 2418 H 228.568 -3.3875 -2.84079 0
M  V30 2419 N 227.627 0.131896 -1.57047 0
M  V30 2420 C 228.557 1.16384 -2.02428 0
M  V30 2421 C 229.538 1.43936 -0.90644 0
M  V30 2422 O 230.723 1.54599 -1.17528 0
M  V30 2423 C 227.853 2.49328 -2.4177 0
M  V30 2424 C 226.807 2.36266 -3.56879 0
M  V30 2425 C 226.133 3.74057 -3.8208 0
M  V30 2426 C 227.433 1.834 -4.89042 0
M  V30 2427 H 229.127 0.786433 -2.88887 0
M  V30 2428 H 226.673 0.376855 -1.38981 0
M  V30 2429 H 228.626 3.21759 -2.7212 0
M  V30 2430 H 227.35 2.88934 -1.52266 0
M  V30 2431 H 226.009 1.66286 -3.26718 0
M  V30 2432 H 225.657 4.11125 -2.89803 0
M  V30 2433 H 225.357 3.66174 -4.59554 0
M  V30 2434 H 226.881 4.48012 -4.1487 0
M  V30 2435 H 228.295 2.45636 -5.18011 0
M  V30 2436 H 226.692 1.8637 -5.70426 0
M  V30 2437 H 227.762 0.790662 -4.7841 0
M  V30 2438 N 229.106 1.52395 0.401703 0
M  V30 2439 C 230.352 1.68019 1.14635 0
M  V30 2440 C 230.707 0.408722 1.88009 0
M  V30 2441 O 230 -0.597133 1.82057 0
M  V30 2442 C 230.194 2.84578 2.16217 0
M  V30 2443 C 230.023 4.22938 1.5282 0
M  V30 2444 C 228.793 4.88352 1.29772 0
M  V30 2445 C 230.991 5.04778 0.985094 0
M  V30 2446 N 228.973 6.10726 0.623455 0
M  V30 2447 C 230.344 6.1845 0.438172 0
M  V30 2448 C 232.399 4.90057 0.880275 0
M  V30 2449 C 231.102 7.19013 -0.203306 0
M  V30 2450 C 233.128 5.9086 0.252639 0
M  V30 2451 C 232.49 7.03829 -0.283573 0
M  V30 2452 H 228.589 0.668413 0.405892 0
M  V30 2453 H 231.173 1.89717 0.437674 0
M  V30 2454 H 229.344 2.64483 2.84435 0
M  V30 2455 H 231.076 2.89202 2.83098 0
M  V30 2456 H 227.831 4.46846 1.56926 0
M  V30 2457 H 228.255 6.76323 0.302733 0
M  V30 2458 H 232.897 4.02938 1.28065 0
M  V30 2459 H 230.615 8.05751 -0.615726 0
M  V30 2460 H 234.201 5.81543 0.172954 0
M  V30 2461 H 233.081 7.80493 -0.761575 0
M  V30 2462 N 230.584 -0.659388 1.43143 0
M  V30 2463 C 231.547 -1.75432 1.47501 0
M  V30 2464 C 232.547 -1.56707 0.360512 0
M  V30 2465 O 233.737 -1.62717 0.622002 0
M  V30 2466 C 230.869 -3.14239 1.32162 0
M  V30 2467 H 232.062 -1.7295 2.45006 0
M  V30 2468 H 229.615 -0.870469 1.29817 0
M  V30 2469 H 230.35 -3.22336 0.356401 0
M  V30 2470 H 230.135 -3.29235 2.12948 0
M  V30 2471 H 231.625 -3.94094 1.3813 0
M  V30 2472 N 232.062 -1.29571 -0.897171 0
M  V30 2473 C 232.992 -1.17473 -2.01798 0
M  V30 2474 C 233.973 -0.068323 -1.69963 0
M  V30 2475 O 235.158 -0.248239 -1.92607 0
M  V30 2476 C 232.288 -0.853099 -3.36659 0
M  V30 2477 C 231.242 -1.9161 -3.82713 0
M  V30 2478 C 230.568 -1.44773 -5.14728 0
M  V30 2479 C 231.868 -3.32535 -4.02763 0
M  V30 2480 H 233.562 -2.11237 -2.12177 0
M  V30 2481 H 231.108 -1.01699 -1.01948 0
M  V30 2482 H 233.061 -0.755165 -4.14578 0
M  V30 2483 H 231.785 0.120236 -3.26379 0
M  V30 2484 H 230.444 -2.00346 -3.07013 0
M  V30 2485 H 230.092 -0.462995 -5.00865 0
M  V30 2486 H 229.792 -2.15865 -5.46513 0
M  V30 2487 H 231.316 -1.36334 -5.95185 0
M  V30 2488 H 232.73 -3.26626 -4.71156 0
M  V30 2489 H 231.127 -4.01607 -4.45905 0
M  V30 2490 H 232.197 -3.75326 -3.07016 0
M  V30 2491 N 233.54 1.10788 -1.12088 0
M  V30 2492 C 234.503 2.15207 -0.788577 0
M  V30 2493 C 235.503 1.59609 0.195317 0
M  V30 2494 O 236.693 1.74174 -0.0300193 0
M  V30 2495 C 233.825 3.4047 -0.171174 0
M  V30 2496 H 235.018 2.46116 -1.71368 0
M  V30 2497 H 232.571 1.26089 -0.923652 0
M  V30 2498 H 233.306 3.15176 0.763832 0
M  V30 2499 H 233.091 3.82109 -0.879514 0
M  V30 2500 H 234.581 4.17576 0.04496 0
M  V30 2501 N 235.018 0.912232 1.28515 0
M  V30 2502 C 236.264 0.545405 1.95328 0
M  V30 2503 C 236.597 -0.908313 1.71649 0
M  V30 2504 O 235.872 -1.64575 1.03659 0
M  V30 2505 C 236.155 0.853483 3.4984 0
M  V30 2506 C 236.008 2.35982 3.82926 0
M  V30 2507 C 237.327 0.348589 4.38717 0
M  V30 2508 H 234.446 0.199626 0.709449 0
M  V30 2509 H 237.088 1.1412 1.5191 0
M  V30 2510 H 235.238 0.34643 3.86952 0
M  V30 2511 H 236.91 2.93738 3.55691 0
M  V30 2512 H 235.153 2.81543 3.30024 0
M  V30 2513 H 235.824 2.52593 4.90816 0
M  V30 2514 H 238.3 0.78294 4.08668 0
M  V30 2515 H 237.176 0.593242 5.45685 0
M  V30 2516 H 237.437 -0.751049 4.35674 0
M  V30 2517 N 236.496 -1.42363 0.676048 0
M  V30 2518 C 237.426 -2.33497 0.0124832 0
M  V30 2519 C 238.407 -1.50748 -0.787981 0
M  V30 2520 O 239.592 -1.79346 -0.744884 0
M  V30 2521 C 236.722 -3.34377 -0.938582 0
M  V30 2522 C 235.676 -4.27289 -0.246622 0
M  V30 2523 C 235.002 -5.18386 -1.31071 0
M  V30 2524 C 236.302 -5.14916 0.875125 0
M  V30 2525 H 237.996 -2.89233 0.773593 0
M  V30 2526 H 235.542 -1.39073 0.37346 0
M  V30 2527 H 237.495 -3.97044 -1.41188 0
M  V30 2528 H 236.219 -2.76947 -1.73113 0
M  V30 2529 H 234.878 -3.66018 0.206456 0
M  V30 2530 H 234.526 -4.57282 -2.09528 0
M  V30 2531 H 234.226 -5.81378 -0.852839 0
M  V30 2532 H 235.75 -5.83929 -1.78492 0
M  V30 2533 H 237.164 -5.71262 0.482983 0
M  V30 2534 H 235.561 -5.86747 1.25887 0
M  V30 2535 H 236.631 -4.53242 1.72335 0
M  V30 2536 N 237.974 -0.419461 -1.51915 0
M  V30 2537 C 238.922 0.415502 -2.28859 0
M  V30 2538 C 239.916 1.03674 -1.3397 0
M  V30 2539 O 241.122 0.973757 -1.51387 0
M  V30 2540 H 237.497 0.152786 -0.736315 0
M  V30 2541 H 239.468 -0.254531 -2.97312 0
M  V30 2542 C 238.217 1.51425 -3.12995 0
M  V30 2543 H 237.54 1.04556 -3.85886 0
M  V30 2544 H 238.98 2.07208 -3.6992 0
M  V30 2545 C 237.439 2.48745 -2.27217 0
M  V30 2546 O 237.969 3.52871 -1.9195 0
M  V30 2547 N 236.175 2.19202 -1.90785 0
M  V30 2548 H 235.722 1.34556 -2.19664 0
M  V30 2549 H 235.68 2.84561 -1.33687 0
M  V30 2550 N 239.452 1.56882 -0.150215 0
M  V30 2551 C 240.68 2.00593 0.506948 0
M  V30 2552 C 241.095 1.03033 1.58208 0
M  V30 2553 O 240.452 0.0278396 1.82479 0
M  V30 2554 C 240.503 3.44209 1.10465 0
M  V30 2555 O 240.224 4.3804 0.0724636 0
M  V30 2556 C 241.725 4.03214 1.84211 0
M  V30 2557 H 238.945 0.65795 0.13169 0
M  V30 2558 H 241.489 2.03018 -0.245743 0
M  V30 2559 H 239.644 3.42625 1.80795 0
M  V30 2560 H 240.058 5.22007 0.510793 0
M  V30 2561 H 241.532 5.0569 2.21318 0
M  V30 2562 H 242.009 3.44107 2.72923 0
M  V30 2563 H 242.615 4.08437 1.18572 0
M  V30 2564 N 240.93 -0.123565 1.57115 0
M  V30 2565 C 242.176 -0.833386 1.84885 0
M  V30 2566 C 242.509 -1.79742 0.735292 0
M  V30 2567 O 241.784 -1.92764 -0.25925 0
M  V30 2568 C 242.067 -1.5873 3.23228 0
M  V30 2569 C 241.92 -0.643183 4.45178 0
M  V30 2570 C 243.239 -2.54453 3.59085 0
M  V30 2571 H 240.358 -0.301518 0.6725 0
M  V30 2572 H 243 -0.097778 1.89748 0
M  V30 2573 H 241.15 -2.21438 3.19214 0
M  V30 2574 H 242.822 -0.0253015 4.61293 0
M  V30 2575 H 241.065 0.0456139 4.33776 0
M  V30 2576 H 241.736 -1.20724 5.38637 0
M  V30 2577 H 244.212 -2.01853 3.63861 0
M  V30 2578 H 243.088 -3.04238 4.5687 0
M  V30 2579 H 243.349 -3.36906 2.86264 0
M  V30 2580 N 242.408 -1.52605 -0.393616 0
M  V30 2581 C 243.819 -1.59417 -0.971761 0
M  V30 2582 C 244.17 -0.444173 -1.91106 0
M  V30 2583 O 243.295 0.433382 -2.12016 0
M  V30 2584 C 243.89 -2.88936 -1.76921 0
M  V30 2585 C 242.449 -2.98175 -2.29714 0
M  V30 2586 C 241.596 -2.54491 -1.10135 0
M  V30 2587 H 244.547 -1.57751 -0.173317 0
M  V30 2588 H 244.568 -2.75163 -2.62804 0
M  V30 2589 H 244.08 -3.72616 -1.08532 0
M  V30 2590 H 242.181 -2.19024 -3.01429 0
M  V30 2591 H 242.294 -4.02726 -2.59517 0
M  V30 2592 H 240.658 -2.08702 -1.45999 0
M  V30 2593 H 241.441 -3.4056 -0.432874 0
M  V30 2594 N 243.887 0.651787 -1.4349 0
M  V30 2595 C 245.117 1.43728 -1.48411 0
M  V30 2596 C 245.525 1.8893 -0.10103 0
M  V30 2597 O 244.868 1.60182 0.899307 0
M  V30 2598 C 244.93 2.70411 -2.36893 0
M  V30 2599 C 244.594 2.4714 -3.8441 0
M  V30 2600 C 245.591 2.10271 -4.75481 0
M  V30 2601 C 243.276 2.6142 -4.28912 0
M  V30 2602 C 245.27 1.87982 -6.0905 0
M  V30 2603 C 242.957 2.38746 -5.62533 0
M  V30 2604 C 243.955 2.02083 -6.5242 0
M  V30 2605 O 243.643 1.79647 -7.8357 0
M  V30 2606 H 243.375 0.447962 -0.506267 0
M  V30 2607 H 245.929 0.80624 -1.88915 0
M  V30 2608 H 244.159 3.36079 -1.91278 0
M  V30 2609 H 245.848 3.32364 -2.33 0
M  V30 2610 H 246.614 1.98814 -4.42378 0
M  V30 2611 H 242.493 2.88931 -3.59222 0
M  V30 2612 H 246.037 1.5929 -6.7917 0
M  V30 2613 H 241.934 2.49806 -5.95203 0
M  V30 2614 H 242.702 1.9406 -7.95162 0
M  V30 2615 N 245.365 1.30045 0.890287 0
M  V30 2616 C 246.612 1.18561 1.64163 0
M  V30 2617 C 246.94 -0.260852 1.92743 0
M  V30 2618 O 246.195 -1.20376 1.54299 0
M  V30 2619 C 246.494 1.95409 2.99249 0
M  V30 2620 C 246.16 3.45066 2.90242 0
M  V30 2621 C 244.822 3.85878 2.87492 0
M  V30 2622 C 247.174 4.4039 2.78758 0
M  V30 2623 C 244.502 5.20314 2.7109 0
M  V30 2624 C 246.854 5.74928 2.63894 0
M  V30 2625 C 245.518 6.14986 2.59516 0
M  V30 2626 H 244.788 0.433846 0.600715 0
M  V30 2627 H 247.435 1.61088 1.03552 0
M  V30 2628 H 245.74 1.45501 3.63781 0
M  V30 2629 H 247.437 1.8392 3.56334 0
M  V30 2630 H 244.027 3.12631 2.93189 0
M  V30 2631 H 248.211 4.09806 2.79952 0
M  V30 2632 H 243.467 5.50449 2.66112 0
M  V30 2633 H 247.641 6.48434 2.53981 0
M  V30 2634 H 245.268 7.19104 2.46565 0
M  V30 2635 N 246.843 -1.10192 1.12674 0
M  V30 2636 C 248.089 -1.82475 0.884915 0
M  V30 2637 C 248.422 -1.85093 -0.58773 0
M  V30 2638 O 247.697 -1.3134 -1.43457 0
M  V30 2639 C 247.98 -3.29018 1.46353 0
M  V30 2640 C 247.833 -3.34718 3.00473 0
M  V30 2641 C 249.152 -4.25473 1.12519 0
M  V30 2642 H 246.271 -0.662492 0.322915 0
M  V30 2643 H 248.913 -1.2913 1.39375 0
M  V30 2644 H 247.063 -3.74576 1.03077 0
M  V30 2645 H 248.735 -2.97622 3.52447 0
M  V30 2646 H 246.978 -2.74541 3.35872 0
M  V30 2647 H 247.649 -4.37918 3.36053 0
M  V30 2648 H 250.125 -3.88161 1.499 0
M  V30 2649 H 249.001 -5.26365 1.55663 0
M  V30 2650 H 249.262 -4.42084 0.0377407 0
M  V30 2651 N 248.321 -0.919034 -1.28029 0
M  V30 2652 C 249.568 -0.554934 -1.94748 0
M  V30 2653 C 249.896 0.90231 -1.72304 0
M  V30 2654 O 249.151 1.65767 -1.04018 0
M  V30 2655 C 249.45 -0.816855 -3.4794 0
M  V30 2656 C 249.116 -2.25448 -3.90492 0
M  V30 2657 C 247.778 -2.64752 -4.01821 0
M  V30 2658 C 250.13 -3.18977 -4.12193 0
M  V30 2659 C 247.458 -3.96727 -4.32232 0
M  V30 2660 C 249.81 -4.50523 -4.44086 0
M  V30 2661 C 248.474 -4.89673 -4.53626 0
M  V30 2662 H 247.744 -0.203065 -0.712633 0
M  V30 2663 H 250.391 -1.16136 -1.52265 0
M  V30 2664 H 248.696 -0.127677 -3.91592 0
M  V30 2665 H 250.393 -0.514238 -3.97689 0
M  V30 2666 H 246.983 -1.93952 -3.82205 0
M  V30 2667 H 251.167 -2.89817 -4.02889 0
M  V30 2668 H 246.423 -4.26754 -4.37825 0
M  V30 2669 H 250.597 -5.23005 -4.59825 0
M  V30 2670 H 248.224 -5.91969 -4.76946 0
M  V30 2671 N 249.799 1.42003 -0.683588 0
M  V30 2672 C 251.215 1.55625 -0.353976 0
M  V30 2673 C 251.415 1.66151 1.14 0
M  V30 2674 O 250.471 1.63329 1.92561 0
M  V30 2675 C 251.784 2.80171 -1.092 0
M  V30 2676 C 253.332 2.93954 -1.07518 0
M  V30 2677 C 253.807 4.21372 -1.79471 0
M  V30 2678 N 255.298 4.28303 -1.76381 0
M  V30 2679 C 256.033 5.25729 -2.28904 0
M  V30 2680 N 255.529 6.29254 -2.89846 0
M  V30 2681 N 257.322 5.17586 -2.19228 0
M  V30 2682 H 249.473 1.33415 -1.6527 0
M  V30 2683 H 251.736 0.64282 -0.696769 0
M  V30 2684 H 251.442 2.78561 -2.14701 0
M  V30 2685 H 251.316 3.7133 -0.662862 0
M  V30 2686 H 253.703 2.95086 -0.028475 0
M  V30 2687 H 253.784 2.04002 -1.54328 0
M  V30 2688 H 253.428 4.21001 -2.84114 0
M  V30 2689 H 253.358 5.10275 -1.30104 0
M  V30 2690 H 255.849 3.54119 -1.31939 0
M  V30 2691 H 256.162 6.99964 -3.27522 0
M  V30 2692 H 254.507 6.29791 -2.93919 0
M  V30 2693 H 257.698 4.35631 -1.71299 0
M  V30 2694 H 257.871 5.93348 -2.60466 0
M  V30 2695 N 251.277 0.427512 1.51691 0
M  V30 2696 C 252.554 -0.201684 1.94557 0
M  V30 2697 C 252.934 -1.60981 1.36559 0
M  V30 2698 O 252.282 -2.21814 0.548702 0
M  V30 2699 C 252.492 -0.189394 3.48486 0
M  V30 2700 C 253.84 -0.39978 4.22714 0
M  V30 2701 O 254.864 -0.267945 3.55191 0
M  V30 2702 O 253.723 -0.661249 5.42485 0
M  V30 2703 H 250.817 -0.135261 0.815864 0
M  V30 2704 H 253.363 0.484782 1.62628 0
M  V30 2705 H 252.135 0.795431 3.8313 0
M  V30 2706 H 251.758 -0.919187 3.86829 0
M  V30 2707 N 252.755 -1.56801 0.158532 0
M  V30 2708 C 253.983 -2.00859 -0.496303 0
M  V30 2709 C 254.398 -1.03871 -1.57659 0
M  V30 2710 O 253.755 -0.0375165 -1.82461 0
M  V30 2711 C 253.806 -3.4479 -1.08638 0
M  V30 2712 O 253.527 -4.38072 -0.0492322 0
M  V30 2713 C 255.028 -4.04185 -1.8207 0
M  V30 2714 H 252.248 -0.65864 -0.128199 0
M  V30 2715 H 254.792 -2.02885 0.256506 0
M  V30 2716 H 252.947 -3.43579 -1.78975 0
M  V30 2717 H 253.361 -5.2227 -0.483102 0
M  V30 2718 H 254.835 -5.06857 -2.18633 0
M  V30 2719 H 255.312 -3.45549 -2.71095 0
M  V30 2720 H 255.918 -4.0906 -1.16405 0
M  V30 2721 N 254.233 0.115231 -1.57178 0
M  V30 2722 C 255.482 0.820945 -1.84237 0
M  V30 2723 C 255.795 1.80866 -0.744761 0
M  V30 2724 O 257.001 2.56083 -0.901871 0
M  V30 2725 C 255.457 1.51072 -3.26658 0
M  V30 2726 C 255.065 0.563795 -4.44438 0
M  V30 2727 C 256.809 2.20134 -3.62962 0
M  V30 2728 C 254.716 1.25701 -5.77887 0
M  V30 2729 H 253.646 0.310328 -0.687177 0
M  V30 2730 H 256.297 0.0737134 -1.83352 0
M  V30 2731 H 254.679 2.30471 -3.22024 0
M  V30 2732 H 255.853 -0.197247 -4.60378 0
M  V30 2733 H 254.168 -0.0200638 -4.16395 0
M  V30 2734 H 256.765 2.72696 -4.59936 0
M  V30 2735 H 257.108 2.98107 -2.90582 0
M  V30 2736 H 257.641 1.47619 -3.69396 0
M  V30 2737 H 254.38 0.518493 -6.53446 0
M  V30 2738 H 253.9 1.98997 -5.65827 0
M  V30 2739 H 255.579 1.78915 -6.2177 0
M  V30 2740 N 255.711 1.52812 0.385517 0
M  V30 2741 C 256.936 1.72207 1.15583 0
M  V30 2742 C 257.361 0.441034 1.82857 0
M  V30 2743 O 256.719 -0.603465 1.70962 0
M  V30 2744 C 256.767 2.87476 2.17692 0
M  V30 2745 O 255.871 2.54693 3.24354 0
M  V30 2746 H 255.212 0.572526 0.336319 0
M  V30 2747 H 257.742 1.99618 0.448744 0
M  V30 2748 H 257.752 3.13072 2.6163 0
M  V30 2749 H 256.427 3.80408 1.68115 0
M  V30 2750 H 255.004 2.3985 2.85529 0
M  V30 2751 N 257.189 -0.644168 1.43834 0
M  V30 2752 C 258.605 -0.960875 1.27434 0
M  V30 2753 C 258.805 -2.00499 0.200618 0
M  V30 2754 O 257.861 -2.49018 -0.417906 0
M  V30 2755 C 259.174 -1.43653 2.64167 0
M  V30 2756 C 260.722 -1.55271 2.71772 0
M  V30 2757 C 261.197 -2.06224 4.08944 0
M  V30 2758 N 262.688 -2.13513 4.11055 0
M  V30 2759 C 263.423 -2.54081 5.14033 0
M  V30 2760 N 262.919 -2.9388 6.27381 0
M  V30 2761 N 264.712 -2.54101 5.01387 0
M  V30 2762 H 256.863 0.0465779 2.12349 0
M  V30 2763 H 259.126 -0.0417638 0.94708 0
M  V30 2764 H 258.832 -0.743706 3.43747 0
M  V30 2765 H 258.706 -2.40993 2.90176 0
M  V30 2766 H 261.093 -2.23653 1.92519 0
M  V30 2767 H 261.174 -0.563395 2.49519 0
M  V30 2768 H 260.818 -1.38441 4.88668 0
M  V30 2769 H 260.748 -3.06003 4.28567 0
M  V30 2770 H 263.239 -1.85493 3.29242 0
M  V30 2771 H 263.552 -3.2361 7.01781 0
M  V30 2772 H 261.897 -2.91663 6.30839 0
M  V30 2773 H 265.088 -2.22391 4.11898 0
M  V30 2774 H 265.261 -2.85394 5.81768 0
M  V30 2775 N 258.668 -1.30515 -0.883378 0
M  V30 2776 C 259.598 -1.19607 -2.00541 0
M  V30 2777 C 260.579 -0.086346 -1.69881 0
M  V30 2778 O 261.764 -0.268654 -1.92333 0
M  V30 2779 C 258.894 -0.888758 -3.35736 0
M  V30 2780 C 257.848 -1.95659 -3.8066 0
M  V30 2781 C 257.174 -1.50224 -5.13164 0
M  V30 2782 C 258.474 -3.36788 -3.99213 0
M  V30 2783 H 260.168 -2.13476 -2.09925 0
M  V30 2784 H 257.714 -1.02775 -1.00863 0
M  V30 2785 H 259.667 -0.799094 -4.13754 0
M  V30 2786 H 258.391 0.0856125 -3.26488 0
M  V30 2787 H 257.05 -2.03591 -3.04871 0
M  V30 2788 H 256.698 -0.516092 -5.00345 0
M  V30 2789 H 256.398 -2.2165 -5.44192 0
M  V30 2790 H 257.922 -1.42639 -5.93706 0
M  V30 2791 H 259.336 -3.31605 -4.67665 0
M  V30 2792 H 257.733 -4.06314 -4.41621 0
M  V30 2793 H 258.803 -3.78561 -3.03017 0
M  V30 2794 N 260.146 1.09593 -1.13257 0
M  V30 2795 C 261.423 1.78293 -0.804432 0
M  V30 2796 C 261.803 1.99004 0.70431 0
M  V30 2797 O 261.151 1.59007 1.641 0
M  V30 2798 C 261.361 3.10707 -1.5894 0
M  V30 2799 C 262.709 3.85443 -1.78099 0
M  V30 2800 O 263.733 3.20454 -1.55525 0
M  V30 2801 O 262.592 5.02108 -2.15753 0
M  V30 2802 H 259.686 0.773156 -0.293528 0
M  V30 2803 H 262.232 1.16164 -1.23709 0
M  V30 2804 H 261.004 2.91106 -2.61482 0
M  V30 2805 H 260.627 3.80558 -1.15157 0
M  V30 2806 N 261.624 0.925811 1.2754 0
M  V30 2807 C 262.872 0.564138 1.94067 0
M  V30 2808 C 263.193 -0.897188 1.73134 0
M  V30 2809 O 262.463 -1.63573 1.07799 0
M  V30 2810 H 261.043 0.205645 0.718136 0
M  V30 2811 H 263.705 1.1778 1.55287 0
M  V30 2812 H 262.801 0.76881 3.02483 0
M  V30 2813 N 263.102 -1.41638 0.69111 0
M  V30 2814 C 264.518 -1.55435 0.362224 0
M  V30 2815 C 264.718 -1.66754 -1.13117 0
M  V30 2816 O 263.774 -1.64348 -1.91692 0
M  V30 2817 C 265.087 -2.79588 1.10684 0
M  V30 2818 C 266.635 -2.9338 1.09075 0
M  V30 2819 C 267.11 -4.20414 1.81703 0
M  V30 2820 N 268.601 -4.27362 1.7865 0
M  V30 2821 C 269.336 -5.24507 2.31689 0
M  V30 2822 N 268.832 -6.27708 2.93179 0
M  V30 2823 N 270.625 -5.16416 2.2197 0
M  V30 2824 H 262.776 -1.32536 1.65976 0
M  V30 2825 H 265.039 -0.639115 0.700168 0
M  V30 2826 H 264.745 -2.77419 2.16175 0
M  V30 2827 H 264.619 -3.70973 0.682545 0
M  V30 2828 H 267.006 -2.95067 0.0441238 0
M  V30 2829 H 267.087 -2.0318 1.55407 0
M  V30 2830 H 266.731 -4.19488 2.86343 0
M  V30 2831 H 266.661 -5.09578 1.32808 0
M  V30 2832 H 269.152 -3.53415 1.33815 0
M  V30 2833 H 269.465 -6.98217 3.31229 0
M  V30 2834 H 267.81 -6.28223 2.97255 0
M  V30 2835 H 271.001 -4.34716 1.73607 0
M  V30 2836 H 271.174 -5.91958 2.63609 0
M  V30 2837 N 264.58 -0.43555 -1.51462 0
M  V30 2838 C 265.829 0.133007 -2.01261 0
M  V30 2839 C 266.142 1.43942 -1.32439 0
M  V30 2840 O 267.348 2.09081 -1.73198 0
M  V30 2841 C 265.804 0.287581 -3.58749 0
M  V30 2842 C 265.412 -1.00829 -4.36506 0
M  V30 2843 C 267.156 0.810004 -4.167 0
M  V30 2844 C 265.063 -0.819454 -5.85695 0
M  V30 2845 H 263.993 0.0534822 -0.752101 0
M  V30 2846 H 266.644 -0.565038 -1.74584 0
M  V30 2847 H 265.026 1.04859 -3.81865 0
M  V30 2848 H 266.2 -1.77749 -4.25138 0
M  V30 2849 H 264.515 -1.45911 -3.89999 0
M  V30 2850 H 267.112 0.967743 -5.2587 0
M  V30 2851 H 267.455 1.79196 -3.75758 0
M  V30 2852 H 267.988 0.107357 -3.97655 0
M  V30 2853 H 264.727 -1.77374 -6.31046 0
M  V30 2854 H 264.247 -0.0900208 -5.99732 0
M  V30 2855 H 265.926 -0.471949 -6.45276 0
M  V30 2856 N 266.058 1.56714 -0.166846 0
M  V30 2857 C 266.991 2.13577 0.80375 0
M  V30 2858 C 267.969 1.06464 1.22899 0
M  V30 2859 O 269.153 1.34413 1.32157 0
M  V30 2860 C 266.28 2.67168 2.0818 0
M  V30 2861 C 265.326 3.86612 1.80093 0
M  V30 2862 S 266.159 5.26565 0.97416 0
M  V30 2863 C 267.315 5.83558 2.26297 0
M  V30 2864 H 267.548 2.9557 0.320267 0
M  V30 2865 H 265.081 1.54326 0.0477555 0
M  V30 2866 H 267.039 2.98692 2.8159 0
M  V30 2867 H 265.7 1.85269 2.53642 0
M  V30 2868 H 264.893 4.22422 2.7491 0
M  V30 2869 H 264.495 3.55951 1.14781 0
M  V30 2870 H 266.787 5.962 3.21795 0
M  V30 2871 H 267.73 6.80731 1.94962 0
M  V30 2872 H 268.138 5.11944 2.37853 0
M  V30 2873 N 267.536 -0.106894 1.57237 0
M  V30 2874 C 268.776 -0.818277 1.87306 0
M  V30 2875 C 269.14 -1.76474 0.756371 0
M  V30 2876 O 270.341 -2.5186 0.939155 0
M  V30 2877 C 268.612 -1.53806 3.22612 0
M  V30 2878 S 270.171 -2.28935 3.74345 0
M  V30 2879 H 266.989 -0.272862 0.656557 0
M  V30 2880 H 269.591 -0.075988 1.95352 0
M  V30 2881 H 268.295 -0.834951 4.01817 0
M  V30 2882 H 267.826 -2.32049 3.17674 0
M  V30 2883 H 269.841 -3.54871 3.46815 0
M  V30 2884 N 269.014 -1.53014 -0.377408 0
M  V30 2885 C 270.244 -1.72265 -1.14054 0
M  V30 2886 C 270.652 -0.44601 -1.83868 0
M  V30 2887 O 269.995 0.590095 -1.73964 0
M  V30 2888 C 270.057 -2.82492 -2.22348 0
M  V30 2889 C 269.721 -4.23233 -1.72402 0
M  V30 2890 C 270.718 -5.05992 -1.19448 0
M  V30 2891 C 268.403 -4.696 -1.78273 0
M  V30 2892 C 270.397 -6.33203 -0.730268 0
M  V30 2893 C 268.084 -5.96792 -1.31464 0
M  V30 2894 C 269.082 -6.78424 -0.789297 0
M  V30 2895 O 268.77 -8.0323 -0.328077 0
M  V30 2896 H 268.502 -0.579873 -0.347453 0
M  V30 2897 H 271.056 -2.00502 -0.445882 0
M  V30 2898 H 269.286 -2.49702 -2.95272 0
M  V30 2899 H 270.975 -2.90034 -2.83963 0
M  V30 2900 H 271.741 -4.71349 -1.14259 0
M  V30 2901 H 267.62 -4.06142 -2.18106 0
M  V30 2902 H 271.164 -6.96868 -0.319542 0
M  V30 2903 H 267.061 -6.30937 -1.36342 0
M  V30 2904 H 267.829 -8.1727 -0.448493 0
M  V30 2905 N 270.492 0.636531 -1.44174 0
M  V30 2906 C 271.722 1.42146 -1.49927 0
M  V30 2907 C 272.13 1.88812 -0.121063 0
M  V30 2908 O 271.473 1.61126 0.882267 0
M  V30 2909 C 271.535 2.67883 -2.39748 0
M  V30 2910 C 271.199 2.43048 -3.8701 0
M  V30 2911 C 272.196 2.05216 -4.77684 0
M  V30 2912 C 269.881 2.56856 -4.3166 0
M  V30 2913 C 271.875 1.81512 -6.11009 0
M  V30 2914 C 269.562 2.32766 -5.65034 0
M  V30 2915 C 270.56 1.95152 -6.54526 0
M  V30 2916 O 270.248 1.71326 -7.85431 0
M  V30 2917 H 269.98 0.442567 -0.51099 0
M  V30 2918 H 272.534 0.786158 -1.8976 0
M  V30 2919 H 270.764 3.34032 -1.94832 0
M  V30 2920 H 272.453 3.29874 -2.36513 0
M  V30 2921 H 273.219 1.94111 -4.44462 0
M  V30 2922 H 269.098 2.85104 -3.62266 0
M  V30 2923 H 272.642 1.52077 -6.80822 0
M  V30 2924 H 268.539 2.43479 -5.97819 0
M  V30 2925 H 269.307 1.85616 -7.97176 0
M  V30 2926 N 271.97 1.30982 0.876444 0
M  V30 2927 C 272.918 1.18006 2.00443 0
M  V30 2928 C 273.912 0.0898871 1.69161 0
M  V30 2929 O 275.118 0.251333 1.78237 0
M  V30 2930 H 271.493 0.365196 0.65737 0
M  V30 2931 H 273.464 2.13453 2.0852 0
M  V30 2932 C 272.213 0.897521 3.35916 0
M  V30 2933 H 271.536 1.7285 3.60504 0
M  V30 2934 H 272.976 0.846874 4.15456 0
M  V30 2935 C 271.435 -0.399674 3.34521 0
M  V30 2936 O 271.965 -1.41852 3.7582 0
M  V30 2937 N 270.171 -0.413893 2.87637 0
M  V30 2938 H 269.718 0.41571 2.54224 0
M  V30 2939 H 269.676 -1.28175 2.87086 0
M  V30 2940 N 273.449 -1.08991 1.13837 0
M  V30 2941 C 274.695 -1.81526 0.90422 0
M  V30 2942 C 275.028 -1.85706 -0.568066 0
M  V30 2943 O 274.303 -1.32855 -1.42056 0
M  V30 2944 C 274.586 -3.27447 1.49835 0
M  V30 2945 C 274.439 -3.31512 3.04006 0
M  V30 2946 C 275.758 -4.24256 1.17025 0
M  V30 2947 H 272.877 -0.659029 0.329923 0
M  V30 2948 H 275.519 -1.27644 1.40737 0
M  V30 2949 H 273.669 -3.73462 1.07044 0
M  V30 2950 H 275.341 -2.93867 3.55584 0
M  V30 2951 H 273.584 -2.70963 3.38765 0
M  V30 2952 H 274.255 -4.34329 3.40679 0
M  V30 2953 H 276.731 -3.86549 1.54009 0
M  V30 2954 H 275.607 -5.24684 1.61237 0
M  V30 2955 H 275.868 -4.42019 0.0846274 0
M  V30 2956 N 274.927 -0.932562 -1.27047 0
M  V30 2957 C 275.857 -0.452902 -2.29066 0
M  V30 2958 C 276.838 0.489338 -1.62909 0
M  V30 2959 O 278.023 0.393046 -1.90181 0
M  V30 2960 C 275.153 0.290698 -3.46081 0
M  V30 2961 C 274.107 -0.564168 -4.24265 0
M  V30 2962 C 273.433 0.308886 -5.33807 0
M  V30 2963 C 274.733 -1.83112 -4.89149 0
M  V30 2964 H 276.427 -1.30552 -2.69437 0
M  V30 2965 H 273.973 -0.629201 -1.29526 0
M  V30 2966 H 275.926 0.637233 -4.16554 0
M  V30 2967 H 274.65 1.17738 -3.0464 0
M  V30 2968 H 273.309 -0.893477 -3.55545 0
M  V30 2969 H 272.957 1.19467 -4.88607 0
M  V30 2970 H 272.657 -0.259633 -5.87026 0
M  V30 2971 H 274.181 0.650884 -6.07121 0
M  V30 2972 H 275.595 -1.55236 -5.51883 0
M  V30 2973 H 273.992 -2.34353 -5.52448 0
M  V30 2974 H 275.062 -2.54772 -4.12576 0
M  V30 2975 N 276.405 1.4127 -0.698611 0
M  V30 2976 C 277.335 2.33447 -0.049629 0
M  V30 2977 C 278.316 1.51982 0.763898 0
M  V30 2978 O 279.501 1.80509 0.716257 0
M  V30 2979 C 276.631 3.35828 0.885267 0
M  V30 2980 C 275.585 4.27627 0.178613 0
M  V30 2981 C 274.911 5.20406 1.22807 0
M  V30 2982 C 276.211 5.13459 -0.956933 0
M  V30 2983 H 277.905 2.87966 -0.81951 0
M  V30 2984 H 275.451 1.38461 -0.395538 0
M  V30 2985 H 277.404 3.9924 1.34854 0
M  V30 2986 H 276.128 2.79666 1.68685 0
M  V30 2987 H 274.787 3.65643 -0.26466 0
M  V30 2988 H 274.435 4.60558 2.02226 0
M  V30 2989 H 274.135 5.82661 0.760239 0
M  V30 2990 H 275.659 5.86695 1.69179 0
M  V30 2991 H 277.073 5.70421 -0.573805 0
M  V30 2992 H 275.47 5.8467 -1.35205 0
M  V30 2993 H 276.54 4.50443 -1.79524 0
M  V30 2994 N 277.883 0.443576 1.51229 0
M  V30 2995 C 278.813 -0.355142 2.30783 0
M  V30 2996 C 279.794 -1.0154 1.36468 0
M  V30 2997 O 280.979 -1.01785 1.65389 0
M  V30 2998 C 278.109 -1.45312 3.15439 0
M  V30 2999 C 277.063 -0.916002 4.18083 0
M  V30 3000 C 276.389 -2.1102 4.91299 0
M  V30 3001 C 277.689 0.0538602 5.22272 0
M  V30 3002 H 279.383 0.308767 2.97804 0
M  V30 3003 H 276.929 0.149937 1.43217 0
M  V30 3004 H 278.882 -2.01914 3.69876 0
M  V30 3005 H 277.606 -2.14541 2.46252 0
M  V30 3006 H 276.265 -0.372145 3.64706 0
M  V30 3007 H 275.913 -2.78882 4.18609 0
M  V30 3008 H 275.613 -1.75717 5.60712 0
M  V30 3009 H 277.137 -2.68164 5.48562 0
M  V30 3010 H 278.551 -0.422069 5.71744 0
M  V30 3011 H 276.948 0.319776 5.99247 0
M  V30 3012 H 278.018 0.98858 4.74716 0
M  V30 3013 N 279.361 -1.56624 0.175154 0
M  V30 3014 C 280.309 -2.19468 -0.770495 0
M  V30 3015 C 281.303 -1.15985 -1.23466 0
M  V30 3016 O 282.509 -1.34176 -1.19987 0
M  V30 3017 H 278.884 -0.703095 -0.266761 0
M  V30 3018 H 280.855 -2.97613 -0.216542 0
M  V30 3019 C 279.604 -2.85264 -1.98796 0
M  V30 3020 H 278.927 -3.64623 -1.63983 0
M  V30 3021 H 280.367 -3.327 -2.62843 0
M  V30 3022 C 278.826 -1.85239 -2.81404 0
M  V30 3023 O 279.356 -1.34024 -3.78682 0
M  V30 3024 N 277.562 -1.53911 -2.46495 0
M  V30 3025 H 277.109 -1.95751 -1.67449 0
M  V30 3026 H 277.067 -0.872382 -3.02054 0
M  V30 3027 N 280.839 0.0985539 -1.57292 0
M  V30 3028 C 282.25 0.653457 -1.74891 0
M  V30 3029 C 282.601 1.7929 -0.796838 0
M  V30 3030 O 281.726 2.16385 0.0254886 0
M  V30 3031 C 282.321 1.19216 -3.17133 0
M  V30 3032 C 280.88 1.69316 -3.36168 0
M  V30 3033 C 280.027 0.601294 -2.70702 0
M  V30 3034 H 282.978 -0.127497 -1.58187 0
M  V30 3035 H 282.999 2.06154 -3.19814 0
M  V30 3036 H 282.511 0.362635 -3.86402 0
M  V30 3037 H 280.612 2.5468 -2.71972 0
M  V30 3038 H 280.725 1.78853 -4.44464 0
M  V30 3039 H 279.089 1.0399 -2.32504 0
M  V30 3040 H 279.872 -0.217592 -3.4261 0
M  V30 3041 N 282.317 1.53212 0.369288 0
M  V30 3042 C 283.565 1.68881 1.11012 0
M  V30 3043 C 283.886 0.441285 1.89941 0
M  V30 3044 O 283.156 -0.544623 1.88177 0
M  V30 3045 H 281.736 0.622569 0.412816 0
M  V30 3046 H 284.398 1.90391 0.416802 0
M  V30 3047 H 283.494 2.54822 1.80201 0
M  V30 3048 N 283.795 -0.628877 1.44509 0
M  V30 3049 C 285.206 -1.21054 1.42137 0
M  V30 3050 C 285.557 -1.95715 0.137881 0
M  V30 3051 O 284.682 -2.02554 -0.761645 0
M  V30 3052 C 285.277 -2.20189 2.57493 0
M  V30 3053 C 283.836 -2.73777 2.58308 0
M  V30 3054 C 282.983 -1.48813 2.33987 0
M  V30 3055 H 285.934 -0.41942 1.53057 0
M  V30 3056 H 285.955 -3.02833 2.30375 0
M  V30 3057 H 285.467 -1.6582 3.50892 0
M  V30 3058 H 283.568 -3.32142 1.68856 0
M  V30 3059 H 283.681 -3.19662 3.56865 0
M  V30 3060 H 282.045 -1.77024 1.83124 0
M  V30 3061 H 282.828 -0.963442 3.29504 0
M  V30 3062 N 285.273 -1.31445 -0.869486 0
M  V30 3063 C 286.55 -1.11795 -1.60503 0
M  V30 3064 C 286.93 0.327168 -2.08549 0
M  V30 3065 O 286.278 1.32135 -1.8642 0
M  V30 3066 C 286.488 -2.13258 -2.76265 0
M  V30 3067 C 287.836 -2.45805 -3.46215 0
M  V30 3068 O 288.86 -2.11688 -2.86473 0
M  V30 3069 O 287.719 -3.04228 -4.5399 0
M  V30 3070 H 284.813 -0.430421 -0.706163 0
M  V30 3071 H 287.359 -1.42925 -0.914907 0
M  V30 3072 H 286.131 -3.10461 -2.3818 0
M  V30 3073 H 285.754 -1.83035 -3.52964 0
M  V30 3074 N 286.751 1.08385 -1.14413 0
M  V30 3075 C 288.167 1.32844 -0.884563 0
M  V30 3076 C 288.367 1.95841 0.474181 0
M  V30 3077 O 287.423 2.21158 1.21842 0
M  V30 3078 C 288.736 2.22978 -2.01745 0
M  V30 3079 C 290.284 2.36458 -2.05077 0
M  V30 3080 C 290.759 3.29934 -3.1766 0
M  V30 3081 N 292.25 3.37511 -3.17239 0
M  V30 3082 C 292.985 4.09871 -4.0099 0
M  V30 3083 N 292.481 4.84936 -4.94781 0
M  V30 3084 N 294.274 4.05704 -3.89051 0
M  V30 3085 H 286.425 0.658756 -2.01926 0
M  V30 3086 H 288.688 0.352821 -0.879899 0
M  V30 3087 H 288.394 1.83934 -2.99769 0
M  V30 3088 H 288.268 3.23441 -1.94077 0
M  V30 3089 H 290.655 2.7476 -1.0766 0
M  V30 3090 H 290.736 1.35736 -2.16816 0
M  V30 3091 H 290.38 2.92352 -4.15322 0
M  V30 3092 H 290.31 4.30584 -3.03158 0
M  V30 3093 H 292.801 2.83996 -2.49308 0
M  V30 3094 H 293.114 5.37612 -5.55151 0
M  V30 3095 H 291.459 4.83988 -4.98779 0
M  V30 3096 H 294.65 3.46167 -3.15097 0
M  V30 3097 H 294.823 4.61834 -4.54547 0
M  V30 3098 N 288.23 0.939286 1.26551 0
M  V30 3099 C 289.507 0.5038 1.89001 0
M  V30 3100 C 289.887 -1.01854 1.84903 0
M  V30 3101 O 289.235 -1.87773 1.30206 0
M  V30 3102 C 289.445 1.063 3.32417 0
M  V30 3103 C 290.793 1.13051 4.09273 0
M  V30 3104 O 291.817 1.01345 3.41479 0
M  V30 3105 O 290.676 1.31233 5.30509 0
M  V30 3106 H 287.77 0.163897 0.810597 0
M  V30 3107 H 290.316 1.03173 1.34735 0
M  V30 3108 H 289.088 2.10665 3.29752 0
M  V30 3109 H 288.711 0.517408 3.94219 0
M  V30 3110 N 289.708 -1.40897 0.706093 0
M  V30 3111 C 290.671 -2.29131 0.0562841 0
M  V30 3112 C 291.671 -1.44901 -0.697166 0
M  V30 3113 O 292.861 -1.65926 -0.530484 0
M  V30 3114 C 289.993 -3.27957 -0.93043 0
M  V30 3115 H 291.186 -2.88091 0.833284 0
M  V30 3116 H 288.739 -1.4906 0.470192 0
M  V30 3117 H 289.474 -2.73997 -1.73482 0
M  V30 3118 H 289.259 -3.90124 -0.393166 0
M  V30 3119 H 290.749 -3.94049 -1.38256 0
M  V30 3120 N 291.186 -0.45159 -1.50991 0
M  V30 3121 C 292.414 0.108334 -2.06616 0
M  V30 3122 C 292.829 1.35224 -1.31757 0
M  V30 3123 O 292.186 1.78475 -0.381174 0
M  V30 3124 C 292.237 0.41619 -3.59096 0
M  V30 3125 O 291.958 -0.778361 -4.3113 0
M  V30 3126 C 293.459 1.02523 -4.31282 0
M  V30 3127 H 290.679 0.00159995 -0.670998 0
M  V30 3128 H 293.223 -0.634771 -1.94399 0
M  V30 3129 H 291.378 1.10921 -3.71181 0
M  V30 3130 H 291.792 -0.511181 -5.22003 0
M  V30 3131 H 293.266 1.19053 -5.39009 0
M  V30 3132 H 293.743 2.01013 -3.905 0
M  V30 3133 H 294.349 0.371173 -4.23677 0
M  V30 3134 N 292.664 1.56529 -0.183458 0
M  V30 3135 C 293.904 1.99141 0.460667 0
M  V30 3136 C 294.268 1.06736 1.59597 0
M  V30 3137 O 295.469 1.38538 2.30349 0
M  V30 3138 C 293.74 3.45358 0.919939 0
M  V30 3139 S 295.299 4.09999 1.56354 0
M  V30 3140 H 292.117 0.695479 0.147748 0
M  V30 3141 H 294.719 1.93429 -0.283782 0
M  V30 3142 H 293.423 4.10315 0.0834208 0
M  V30 3143 H 292.954 3.54862 1.69814 0
M  V30 3144 H 294.969 4.06046 2.85203 0
M  V30 3145 N 294.142 -0.090211 1.57342 0
M  V30 3146 C 295.09 -1.12792 2.03422 0
M  V30 3147 C 296.084 -1.41182 0.936166 0
M  V30 3148 O 297.29 -1.40805 1.12133 0
M  V30 3149 H 293.665 -0.380986 0.648347 0
M  V30 3150 H 295.636 -0.71299 2.89757 0
M  V30 3151 C 294.385 -2.43855 2.47851 0
M  V30 3152 H 293.708 -2.22855 3.31927 0
M  V30 3153 H 295.148 -3.14955 2.83865 0
M  V30 3154 C 293.607 -3.08503 1.3538 0
M  V30 3155 O 294.137 -3.95805 0.685641 0
M  V30 3156 N 292.343 -2.68831 1.10355 0
M  V30 3157 H 291.89 -1.97929 1.64869 0
M  V30 3158 H 291.848 -3.12412 0.353031 0
M  V30 3159 N 295.62 -1.53406 -0.361157 0
M  V30 3160 C 296.845 -1.74024 -1.12829 0
M  V30 3161 C 297.27 -0.470069 -1.82132 0
M  V30 3162 O 296.628 0.57619 -1.719 0
M  V30 3163 C 296.676 -2.90903 -2.13091 0
M  V30 3164 O 295.78 -2.59821 -3.20261 0
M  V30 3165 H 295.121 -0.577804 -0.327168 0
M  V30 3166 H 297.651 -2.00307 -0.41693 0
M  V30 3167 H 297.661 -3.17194 -2.56616 0
M  V30 3168 H 296.336 -3.83034 -1.62042 0
M  V30 3169 H 294.913 -2.44362 -2.81677 0
M  V30 3170 N 297.098 0.621204 -1.44841 0
M  V30 3171 C 298.514 0.94048 -1.28946 0
M  V30 3172 C 298.714 2.00154 -0.23249 0
M  V30 3173 O 297.77 2.49651 0.378237 0
M  V30 3174 C 299.083 1.39433 -2.66419 0
M  V30 3175 C 300.631 1.50927 -2.74208 0
M  V30 3176 C 301.106 1.99692 -4.12174 0
M  V30 3177 N 302.597 2.06947 -4.144 0
M  V30 3178 C 303.332 2.45871 -5.1801 0
M  V30 3179 N 302.828 2.83862 -6.31977 0
M  V30 3180 N 304.621 2.46092 -5.05366 0
M  V30 3181 H 296.772 -0.0803548 -2.12248 0
M  V30 3182 H 299.035 0.0266913 -0.947624 0
M  V30 3183 H 298.741 0.688925 -3.44887 0
M  V30 3184 H 298.615 2.36347 -2.93973 0
M  V30 3185 H 301.002 2.20561 -1.96053 0
M  V30 3186 H 301.083 0.523627 -2.50383 0
M  V30 3187 H 300.727 1.30649 -4.90809 0
M  V30 3188 H 300.657 2.99146 -4.33381 0
M  V30 3189 H 303.148 1.80232 -3.32152 0
M  V30 3190 H 303.461 3.12405 -7.0684 0
M  V30 3191 H 301.806 2.8159 -6.35399 0
M  V30 3192 H 304.997 2.1581 -4.15384 0
M  V30 3193 H 305.17 2.76102 -5.86235 0
M  V30 3194 N 298.576 1.31904 0.862503 0
M  V30 3195 C 299.508 1.16005 1.97675 0
M  V30 3196 C 300.521 0.0971234 1.6251 0
M  V30 3197 O 301.71 0.345337 1.75128 0
M  V30 3198 C 298.81 0.751791 3.30456 0
M  V30 3199 C 297.983 1.90133 3.93914 0
M  V30 3200 C 297.042 1.4779 5.05019 0
M  V30 3201 O 296.068 2.18872 5.25437 0
M  V30 3202 N 297.27 0.369491 5.79323 0
M  V30 3203 H 300.035 2.11982 2.11857 0
M  V30 3204 H 297.596 1.24337 1.03691 0
M  V30 3205 H 299.588 0.451084 4.02178 0
M  V30 3206 H 298.158 -0.116593 3.12382 0
M  V30 3207 H 297.378 2.36896 3.15078 0
M  V30 3208 H 298.666 2.67111 4.33047 0
M  V30 3209 H 298.064 -0.222299 5.65263 0
M  V30 3210 H 296.621 0.128354 6.51674 0
M  V30 3211 N 300.054 -1.07777 1.14986 0
M  V30 3212 C 301.3 -1.80557 0.923422 0
M  V30 3213 C 301.633 -1.86298 -0.548337 0
M  V30 3214 O 300.908 -1.34354 -1.40639 0
M  V30 3215 C 301.191 -3.25839 1.53299 0
M  V30 3216 C 301.044 -3.28269 3.07505 0
M  V30 3217 C 302.363 -4.22991 1.21518 0
M  V30 3218 H 299.482 -0.655493 0.336894 0
M  V30 3219 H 302.124 -1.26144 1.42083 0
M  V30 3220 H 300.274 -3.72306 1.10999 0
M  V30 3221 H 301.946 -2.90079 3.58681 0
M  V30 3222 H 300.189 -2.67355 3.4162 0
M  V30 3223 H 300.86 -4.30691 3.45266 0
M  V30 3224 H 303.336 -3.84894 1.581 0
M  V30 3225 H 302.212 -5.22945 1.66793 0
M  V30 3226 H 302.473 -4.41904 0.131505 0
M  V30 3227 N 301.532 -0.945985 -1.26051 0
M  V30 3228 C 302.495 -0.463897 -2.24456 0
M  V30 3229 C 303.495 0.427655 -1.55009 0
M  V30 3230 O 304.685 0.226157 -1.72726 0
M  V30 3231 C 301.817 0.330812 -3.39291 0
M  V30 3232 H 303.01 -1.33357 -2.68619 0
M  V30 3233 H 300.563 -0.728416 -1.38289 0
M  V30 3234 H 301.298 1.21852 -3.00537 0
M  V30 3235 H 301.083 -0.308679 -3.90883 0
M  V30 3236 H 302.573 0.657865 -4.12386 0
M  V30 3237 N 303.011 1.40521 -0.713556 0
M  V30 3238 C 303.941 2.33381 -0.0743864 0
M  V30 3239 C 304.922 1.52784 0.747735 0
M  V30 3240 O 306.107 1.81258 0.697071 0
M  V30 3241 C 303.237 3.36748 0.849598 0
M  V30 3242 C 302.191 4.27793 0.133247 0
M  V30 3243 C 301.517 5.21679 1.17281 0
M  V30 3244 C 302.817 5.12415 -1.01134 0
M  V30 3245 H 304.511 2.87081 -0.850007 0
M  V30 3246 H 302.057 1.38034 -0.410201 0
M  V30 3247 H 304.01 4.00648 1.30612 0
M  V30 3248 H 302.734 2.81439 1.65709 0
M  V30 3249 H 301.393 3.65342 -0.303426 0
M  V30 3250 H 301.041 4.62677 1.9733 0
M  V30 3251 H 300.741 5.83435 0.698397 0
M  V30 3252 H 302.265 5.88456 1.62947 0
M  V30 3253 H 303.679 5.69781 -0.634274 0
M  V30 3254 H 302.076 5.83203 -1.41399 0
M  V30 3255 H 303.146 4.48514 -1.84292 0
M  V30 3256 N 304.489 0.459591 1.5075 0
M  V30 3257 C 305.452 -0.329093 2.26825 0
M  V30 3258 C 306.452 -0.930481 1.31144 0
M  V30 3259 O 307.642 -0.801453 1.54669 0
M  V30 3260 C 304.774 -1.46768 3.07688 0
M  V30 3261 H 305.967 0.337924 2.9799 0
M  V30 3262 H 303.52 0.213336 1.54837 0
M  V30 3263 H 304.255 -2.17009 2.40993 0
M  V30 3264 H 304.04 -1.04238 3.77991 0
M  V30 3265 H 305.53 -2.02433 3.65254 0
M  V30 3266 N 305.967 -1.56429 0.191757 0
M  V30 3267 C 307.213 -1.97777 -0.448554 0
M  V30 3268 C 307.546 -1.07847 -1.61501 0
M  V30 3269 O 306.821 -0.129774 -1.94067 0
M  V30 3270 C 307.104 -3.48362 -0.911906 0
M  V30 3271 C 306.957 -4.4907 0.256136 0
M  V30 3272 C 308.276 -4.02561 -1.77857 0
M  V30 3273 H 305.395 -0.719071 -0.161572 0
M  V30 3274 H 308.037 -1.87896 0.282007 0
M  V30 3275 H 306.187 -3.56914 -1.53442 0
M  V30 3276 H 307.859 -4.5256 0.893733 0
M  V30 3277 H 306.102 -4.24181 0.908436 0
M  V30 3278 H 306.773 -5.51889 -0.11053 0
M  V30 3279 H 309.249 -3.96767 -1.25359 0
M  V30 3280 H 308.125 -5.08301 -2.07174 0
M  V30 3281 H 308.386 -3.47616 -2.73158 0
M  V30 3282 N 307.445 0.0818655 -1.57387 0
M  V30 3283 C 308.67 0.799946 -1.91352 0
M  V30 3284 C 309.095 1.70833 -0.787258 0
M  V30 3285 O 308.453 1.79419 0.26048 0
M  V30 3286 C 308.501 1.57812 -3.24234 0
M  V30 3287 O 307.605 2.68806 -3.12757 0
M  V30 3288 H 306.946 0.21891 -0.626877 0
M  V30 3289 H 309.476 0.0531256 -2.04531 0
M  V30 3290 H 309.486 1.95952 -3.57864 0
M  V30 3291 H 308.161 0.911548 -4.05788 0
M  V30 3292 H 306.738 2.33597 -2.90666 0
M  V30 3293 N 308.923 1.53595 0.353017 0
M  V30 3294 C 309.87 1.80919 1.43308 0
M  V30 3295 C 310.84 0.654288 1.5267 0
M  V30 3296 O 312.025 0.897759 1.6836 0
M  V30 3297 C 309.165 2.01605 2.80089 0
M  V30 3298 C 308.278 3.29321 2.79593 0
M  V30 3299 C 307.413 3.40125 4.0803 0
M  V30 3300 C 306.452 4.61826 4.01725 0
M  V30 3301 N 305.589 4.69716 5.21834 0
M  V30 3302 H 310.429 2.73074 1.19308 0
M  V30 3303 H 307.966 1.35263 0.578131 0
M  V30 3304 H 309.924 2.11586 3.59565 0
M  V30 3305 H 308.554 1.12772 3.0246 0
M  V30 3306 H 307.606 3.28229 1.92276 0
M  V30 3307 H 308.918 4.18884 2.70809 0
M  V30 3308 H 308.072 3.49488 4.95927 0
M  V30 3309 H 306.811 2.48601 4.19582 0
M  V30 3310 H 305.816 4.52552 3.12213 0
M  V30 3311 H 307.041 5.54705 3.91764 0
M  V30 3312 H 304.987 3.81097 5.33948 0
M  V30 3313 H 304.904 5.53202 5.1527 0
M  V30 3314 H 306.172 4.83376 6.11529 0
M  V30 3315 N 310.401 -0.613514 1.45168 0
M  V30 3316 C 311.648 -1.37268 1.48875 0
M  V30 3317 C 311.976 -1.94077 0.128161 0
M  V30 3318 O 311.231 -1.75178 -0.872416 0
M  V30 3319 C 311.53 -2.54347 2.51083 0
M  V30 3320 C 311.196 -2.1572 3.95949 0
M  V30 3321 C 309.858 -2.04899 4.35396 0
M  V30 3322 C 312.21 -1.85485 4.87078 0
M  V30 3323 C 309.538 -1.62057 5.63875 0
M  V30 3324 C 311.89 -1.4413 6.15962 0
M  V30 3325 C 310.554 -1.31863 6.54346 0
M  V30 3326 H 309.824 -0.502299 0.544773 0
M  V30 3327 H 312.471 -0.694021 1.78481 0
M  V30 3328 H 310.776 -3.27524 2.15024 0
M  V30 3329 H 312.473 -3.12577 2.51191 0
M  V30 3330 H 309.063 -2.25066 3.64751 0
M  V30 3331 H 313.247 -1.92745 4.57343 0
M  V30 3332 H 308.503 -1.51177 5.92415 0
M  V30 3333 H 312.677 -1.19778 6.86022 0
M  V30 3334 H 310.304 -0.984392 7.538 0
M  V30 3335 N 311.879 -1.3236 -0.855495 0
M  V30 3336 C 312.809 -1.23833 -1.97958 0
M  V30 3337 C 313.79 -0.122361 -1.69659 0
M  V30 3338 O 314.975 -0.30939 -1.9172 0
M  V30 3339 C 312.105 -0.959772 -3.33775 0
M  V30 3340 C 311.059 -2.03689 -3.76424 0
M  V30 3341 C 310.385 -1.61075 -5.09862 0
M  V30 3342 C 311.685 -3.4518 -3.9198 0
M  V30 3343 H 313.379 -2.1788 -2.0535 0
M  V30 3344 H 310.925 -1.04891 -0.986605 0
M  V30 3345 H 312.878 -0.886678 -4.11966 0
M  V30 3346 H 311.602 0.0163404 -3.26596 0
M  V30 3347 H 310.261 -2.10012 -3.00484 0
M  V30 3348 H 309.909 -0.622107 -4.99138 0
M  V30 3349 H 309.609 -2.33143 -5.39368 0
M  V30 3350 H 311.133 -1.55201 -5.90546 0
M  V30 3351 H 312.547 -3.4145 -4.60526 0
M  V30 3352 H 310.944 -4.1559 -4.32903 0
M  V30 3353 H 312.014 -3.84903 -2.94919 0
M  V30 3354 N 313.357 1.07166 -1.15556 0
M  V30 3355 C 314.287 2.16403 -0.877046 0
M  V30 3356 C 315.268 1.69217 0.173111 0
M  V30 3357 O 316.453 1.94181 0.027084 0
M  V30 3358 C 313.583 3.45349 -0.367632 0
M  V30 3359 C 312.537 4.05995 -1.35468 0
M  V30 3360 C 311.863 5.30045 -0.704038 0
M  V30 3361 C 313.163 4.45804 -2.72132 0
M  V30 3362 H 314.857 2.39959 -1.79053 0
M  V30 3363 H 312.403 1.15325 -0.862331 0
M  V30 3364 H 314.356 4.21095 -0.160317 0
M  V30 3365 H 313.08 3.21385 0.581326 0
M  V30 3366 H 311.739 3.32296 -1.54839 0
M  V30 3367 H 311.387 5.02373 0.251128 0
M  V30 3368 H 311.087 5.71579 -1.36277 0
M  V30 3369 H 312.611 6.08495 -0.50654 0
M  V30 3370 H 314.025 5.12671 -2.56595 0
M  V30 3371 H 312.422 4.98296 -3.34397 0
M  V30 3372 H 313.492 3.57083 -3.28054 0
M  V30 3373 N 314.835 0.952656 1.25548 0
M  V30 3374 C 315.798 0.475794 2.24207 0
M  V30 3375 C 316.798 -0.419428 1.55234 0
M  V30 3376 O 317.988 -0.216994 1.72843 0
M  V30 3377 C 315.12 -0.312814 3.39462 0
M  V30 3378 H 316.313 1.34779 2.67908 0
M  V30 3379 H 313.866 0.735739 1.37901 0
M  V30 3380 H 314.601 -1.20257 3.01179 0
M  V30 3381 H 314.386 0.329404 3.90714 0
M  V30 3382 H 315.876 -0.635986 4.12729 0
M  V30 3383 N 316.313 -1.40141 0.720998 0
M  V30 3384 C 317.56 -2.00787 0.262842 0
M  V30 3385 C 317.888 -1.5718 -1.14563 0
M  V30 3386 O 317.143 -0.785391 -1.79249 0
M  V30 3387 C 317.442 -3.56165 0.296892 0
M  V30 3388 C 317.108 -4.19373 1.65641 0
M  V30 3389 C 315.77 -4.36352 2.02855 0
M  V30 3390 C 318.122 -4.54578 2.54968 0
M  V30 3391 C 315.45 -4.8582 3.28931 0
M  V30 3392 C 317.802 -5.05447 3.80402 0
M  V30 3393 C 316.466 -5.20635 4.17726 0
M  V30 3394 H 315.736 -0.734731 0.0961807 0
M  V30 3395 H 318.383 -1.67673 0.925093 0
M  V30 3396 H 316.688 -3.8922 -0.448932 0
M  V30 3397 H 318.385 -4.00929 -0.0755208 0
M  V30 3398 H 314.975 -4.06549 1.35704 0
M  V30 3399 H 319.159 -4.41091 2.27491 0
M  V30 3400 H 314.415 -4.95764 3.57811 0
M  V30 3401 H 318.589 -5.31663 4.49786 0
M  V30 3402 H 316.216 -5.58728 5.15487 0
M  V30 3403 N 317.792 -0.46758 -1.50504 0
M  V30 3404 C 318.722 0.318381 -2.31319 0
M  V30 3405 C 319.703 0.993564 -1.38066 0
M  V30 3406 O 320.888 0.991411 -1.66987 0
M  V30 3407 C 318.018 1.40275 -3.17711 0
M  V30 3408 C 316.972 0.849373 -4.19487 0
M  V30 3409 C 316.298 2.03177 -4.94594 0
M  V30 3410 C 317.598 -0.136942 -5.2212 0
M  V30 3411 H 319.292 -0.356106 -2.97275 0
M  V30 3412 H 316.838 -0.172703 -1.42961 0
M  V30 3413 H 318.791 1.96004 -3.73042 0
M  V30 3414 H 317.515 2.10596 -2.49634 0
M  V30 3415 H 316.174 0.314076 -3.65252 0
M  V30 3416 H 315.822 2.72187 -4.22993 0
M  V30 3417 H 315.522 1.66774 -5.63436 0
M  V30 3418 H 317.046 2.59403 -5.52759 0
M  V30 3419 H 318.46 0.331056 -5.72343 0
M  V30 3420 H 316.857 -0.41507 -5.98663 0
M  V30 3421 H 317.927 -1.06398 -4.73083 0
M  V30 3422 N 319.27 1.56325 -0.20005 0
M  V30 3423 C 320.516 1.98012 0.438059 0
M  V30 3424 C 320.849 1.08702 1.60927 0
M  V30 3425 O 320.124 0.140064 1.93995 0
M  V30 3426 C 320.407 3.48841 0.893419 0
M  V30 3427 C 320.26 4.48928 -0.279947 0
M  V30 3428 C 321.579 4.03498 1.75719 0
M  V30 3429 H 318.698 0.719918 0.157757 0
M  V30 3430 H 321.34 1.87743 -0.291968 0
M  V30 3431 H 319.49 3.57723 1.51547 0
M  V30 3432 H 321.162 4.52079 -0.91772 0
M  V30 3433 H 319.405 4.23694 -0.930919 0
M  V30 3434 H 320.076 5.5194 0.0812601 0
M  V30 3435 H 322.552 3.97427 1.23253 0
M  V30 3436 H 321.428 5.09393 2.04476 0
M  V30 3437 H 321.689 3.4906 2.71311 0
M  V30 3438 N 320.748 -0.0735177 1.57428 0
M  V30 3439 C 322.159 -0.625551 1.75908 0
M  V30 3440 C 322.51 -1.78 0.825261 0
M  V30 3441 O 321.635 -2.16398 0.00893964 0
M  V30 3442 C 322.23 -1.14155 3.18989 0
M  V30 3443 C 320.789 -1.63946 3.38819 0
M  V30 3444 C 319.936 -0.558151 2.71625 0
M  V30 3445 H 322.887 0.152647 1.57964 0
M  V30 3446 H 322.908 -2.0104 3.23053 0
M  V30 3447 H 322.42 -0.301116 3.8693 0
M  V30 3448 H 320.521 -2.50321 2.7599 0
M  V30 3449 H 320.634 -1.71759 4.47253 0
M  V30 3450 H 318.998 -1.00278 2.34129 0
M  V30 3451 H 319.781 0.272071 3.4222 0
M  V30 3452 N 322.226 -1.5378 -0.344866 0
M  V30 3453 C 323.156 -1.84662 -1.42906 0
M  V30 3454 C 324.137 -0.701648 -1.54955 0
M  V30 3455 O 325.322 -0.953438 -1.69184 0
M  V30 3456 C 322.452 -2.05503 -2.79974 0
M  V30 3457 C 321.406 -3.21318 -2.82734 0
M  V30 3458 C 320.732 -3.2749 -4.22675 0
M  V30 3459 C 322.032 -4.59456 -2.48389 0
M  V30 3460 H 323.726 -2.75461 -1.17311 0
M  V30 3461 H 321.272 -1.32542 -0.562896 0
M  V30 3462 H 323.225 -2.25691 -3.55867 0
M  V30 3463 H 321.949 -1.11434 -3.07002 0
M  V30 3464 H 320.608 -3.00984 -2.09294 0
M  V30 3465 H 320.256 -2.31019 -4.4681 0
M  V30 3466 H 319.956 -4.05316 -4.25433 0
M  V30 3467 H 321.48 -3.49887 -5.00412 0
M  V30 3468 H 322.894 -4.79667 -3.13995 0
M  V30 3469 H 321.291 -5.39675 -2.62432 0
M  V30 3470 H 322.361 -4.63155 -1.4358 0
M  V30 3471 N 323.704 0.605807 -1.45491 0
M  V30 3472 C 324.667 1.69836 -1.5391 0
M  V30 3473 C 325.667 1.55261 -0.418424 0
M  V30 3474 O 326.857 1.60296 -0.681965 0
M  V30 3475 C 323.989 3.09117 -1.43734 0
M  V30 3476 H 325.182 1.63738 -2.51257 0
M  V30 3477 H 322.735 0.821689 -1.32959 0
M  V30 3478 H 323.47 3.20791 -0.475788 0
M  V30 3479 H 323.255 3.21104 -2.25021 0
M  V30 3480 H 324.745 3.88696 -1.52661 0
M  V30 3481 N 325.182 1.32811 0.848464 0
M  V30 3482 C 326.431 1.23075 1.59798 0
M  V30 3483 C 326.744 -0.204419 1.94529 0
M  V30 3484 O 327.95 -0.423701 2.68173 0
M  V30 3485 C 326.406 2.15594 2.88179 0
M  V30 3486 C 326.014 3.64228 2.60849 0
M  V30 3487 C 327.758 2.14709 3.66197 0
M  V30 3488 C 325.665 4.48689 3.85269 0
M  V30 3489 H 324.595 0.457091 0.599653 0
M  V30 3490 H 327.246 1.57813 0.936342 0
M  V30 3491 H 325.628 1.73778 3.55833 0
M  V30 3492 H 326.802 4.14424 2.01467 0
M  V30 3493 H 325.117 3.67306 1.96151 0
M  V30 3494 H 327.714 2.75046 4.58534 0
M  V30 3495 H 328.057 1.13966 4.00397 0
M  V30 3496 H 328.59 2.54837 3.05455 0
M  V30 3497 H 325.329 5.5027 3.56207 0
M  V30 3498 H 324.849 4.03241 4.44024 0
M  V30 3499 H 326.528 4.62006 4.52946 0
M  V30 3500 N 326.66 -1.06551 1.16123 0
M  V30 3501 C 327.909 -1.78687 0.935622 0
M  V30 3502 C 328.222 -1.88056 -0.538001 0
M  V30 3503 O 329.428 -2.56794 -0.88143 0
M  V30 3504 C 327.884 -3.21143 1.62466 0
M  V30 3505 C 327.492 -3.19949 3.13587 0
M  V30 3506 C 329.236 -3.9783 1.48092 0
M  V30 3507 C 327.143 -4.57108 3.75241 0
M  V30 3508 H 326.073 -0.669712 0.346412 0
M  V30 3509 H 328.724 -1.19534 1.39226 0
M  V30 3510 H 327.106 -3.80539 1.09572 0
M  V30 3511 H 328.28 -2.70151 3.73303 0
M  V30 3512 H 326.595 -2.5676 3.27816 0
M  V30 3513 H 329.192 -4.99217 1.91538 0
M  V30 3514 H 329.535 -4.14078 0.429507 0
M  V30 3515 H 330.068 -3.4495 1.98127 0
M  V30 3516 H 326.807 -4.46065 4.80319 0
M  V30 3517 H 326.327 -5.07111 3.20309 0
M  V30 3518 H 328.006 -5.26069 3.76644 0
M  V30 3519 N 328.138 -0.959301 -1.25041 0
M  V30 3520 C 329.101 -0.487677 -2.23952 0
M  V30 3521 C 330.101 0.41119 -1.55454 0
M  V30 3522 O 331.291 0.207825 -1.72956 0
M  V30 3523 C 328.423 0.294807 -3.39623 0
M  V30 3524 H 329.616 -1.36198 -2.67189 0
M  V30 3525 H 327.169 -0.743042 -1.37508 0
M  V30 3526 H 327.904 1.18658 -3.01813 0
M  V30 3527 H 327.689 -0.35012 -3.90534 0
M  V30 3528 H 329.179 0.614089 -4.1306 0
M  V30 3529 N 329.616 1.39756 -0.72842 0
M  V30 3530 C 330.841 2.05472 -0.282159 0
M  V30 3531 C 331.266 1.54549 1.07221 0
M  V30 3532 O 330.624 0.686372 1.67805 0
M  V30 3533 C 330.672 3.59462 -0.286264 0
M  V30 3534 O 329.776 4.05918 0.728298 0
M  V30 3535 H 329.117 0.651226 -0.129618 0
M  V30 3536 H 331.647 1.78915 -0.992499 0
M  V30 3537 H 331.657 4.07798 -0.128373 0
M  V30 3538 H 330.332 3.95889 -1.27456 0
M  V30 3539 H 328.909 3.69012 0.537081 0
M  V30 3540 N 331.094 0.475555 1.50254 0
M  V30 3541 C 332.319 -0.0777042 2.07254 0
M  V30 3542 C 332.744 -1.3235 1.3366 0
M  V30 3543 O 332.102 -1.77152 0.385597 0
M  V30 3544 C 332.15 -0.340169 3.58992 0
M  V30 3545 O 331.254 -1.41982 3.87188 0
M  V30 3546 H 330.595 0.0149556 0.663832 0
M  V30 3547 H 333.125 0.667878 1.93392 0
M  V30 3548 H 333.135 -0.579332 4.03866 0
M  V30 3549 H 331.81 0.570167 4.11973 0
M  V30 3550 H 330.387 -1.16762 3.54148 0
M  V30 3551 N 332.573 -1.56217 0.208337 0
M  V30 3552 C 333.523 -2.16324 -0.720281 0
M  V30 3553 C 334.507 -1.10775 -1.16695 0
M  V30 3554 O 335.699 -1.36801 -1.12314 0
M  V30 3555 C 332.828 -2.83644 -1.93393 0
M  V30 3556 C 331.914 -3.96401 -1.50755 0
M  V30 3557 N 332.305 -4.99546 -0.792937 0
M  V30 3558 C 330.603 -4.08246 -1.79585 0
M  V30 3559 C 331.304 -5.78828 -0.577364 0
M  V30 3560 N 330.28 -5.31723 -1.1301 0
M  V30 3561 H 334.082 -2.93432 -0.165725 0
M  V30 3562 H 331.596 -1.62397 0.00906463 0
M  V30 3563 H 333.593 -3.25107 -2.60981 0
M  V30 3564 H 332.253 -2.08027 -2.49308 0
M  V30 3565 H 333.264 -5.15967 -0.447004 0
M  V30 3566 H 329.941 -3.4377 -2.36915 0
M  V30 3567 H 331.331 -6.71899 -0.00952956 0
M  V30 3568 N 334.051 0.0651679 -1.57465 0
M  V30 3569 C 335.014 1.06117 -2.03155 0
M  V30 3570 C 336.014 1.31204 -0.929632 0
M  V30 3571 O 337.204 1.26813 -1.19432 0
M  V30 3572 C 334.336 2.4032 -2.41783 0
M  V30 3573 H 335.529 0.667231 -2.92383 0
M  V30 3574 H 333.082 0.311075 -1.53173 0
M  V30 3575 H 333.817 2.84532 -1.55601 0
M  V30 3576 H 333.602 2.23451 -3.22199 0
M  V30 3577 H 335.092 3.11898 -2.77685 0
M  V30 3578 N 335.529 1.53961 0.336706 0
M  V30 3579 C 336.492 1.81724 1.39675 0
M  V30 3580 C 337.492 0.688532 1.45313 0
M  V30 3581 O 338.682 0.956829 1.45569 0
M  V30 3582 C 335.814 1.96543 2.78538 0
M  V30 3583 H 337.007 2.76424 1.16318 0
M  V30 3584 H 334.56 1.45478 0.571474 0
M  V30 3585 H 335.295 1.0401 3.07168 0
M  V30 3586 H 335.08 2.78665 2.75841 0
M  V30 3587 H 336.57 2.19516 3.5525 0
M  V30 3588 N 337.007 -0.598083 1.45811 0
M  V30 3589 C 338.253 -1.35882 1.50545 0
M  V30 3590 C 338.586 -1.93616 0.150445 0
M  V30 3591 O 337.861 -1.75604 -0.83628 0
M  V30 3592 C 338.144 -2.49966 2.59208 0
M  V30 3593 C 337.997 -1.97367 4.04186 0
M  V30 3594 C 339.316 -3.52068 2.64076 0
M  V30 3595 H 336.435 -0.492717 0.548087 0
M  V30 3596 H 339.077 -0.673319 1.77669 0
M  V30 3597 H 337.227 -3.08443 2.3621 0
M  V30 3598 H 338.899 -1.43466 4.38423 0
M  V30 3599 H 337.142 -1.283 4.14393 0
M  V30 3600 H 337.813 -2.79649 4.75921 0
M  V30 3601 H 340.289 -3.03448 2.84708 0
M  V30 3602 H 339.165 -4.2937 3.41954 0
M  V30 3603 H 339.426 -4.08304 1.69531 0
M  V30 3604 N 338.485 -1.33259 -0.841409 0
M  V30 3605 C 339.71 -1.2775 -1.63385 0
M  V30 3606 C 340.135 0.149188 -1.87507 0
M  V30 3607 O 339.493 1.10498 -1.43736 0
M  V30 3608 C 339.541 -2.05571 -2.96265 0
M  V30 3609 O 338.645 -1.41257 -3.87453 0
M  V30 3610 H 337.986 -0.439627 -0.497618 0
M  V30 3611 H 340.516 -1.75782 -1.04699 0
M  V30 3612 H 340.526 -2.16241 -3.45982 0
M  V30 3613 H 339.201 -3.09309 -2.7803 0
M  V30 3614 H 337.778 -1.39217 -3.45938 0
M  V30 3615 N 339.963 1.05934 -1.16686 0
M  V30 3616 C 340.893 2.1546 -0.899949 0
M  V30 3617 C 341.874 1.69391 0.155154 0
M  V30 3618 O 343.059 1.94199 0.00648693 0
M  V30 3619 C 340.189 3.44939 -0.404241 0
M  V30 3620 C 339.143 4.04536 -1.39767 0
M  V30 3621 C 338.469 5.29268 -0.760216 0
M  V30 3622 C 339.769 4.42893 -2.76845 0
M  V30 3623 H 341.463 2.38046 -1.81588 0
M  V30 3624 H 339.009 1.14404 -0.874514 0
M  V30 3625 H 340.962 4.20901 -0.204971 0
M  V30 3626 H 339.686 3.21983 0.547206 0
M  V30 3627 H 338.345 3.30635 -1.58355 0
M  V30 3628 H 337.993 5.02611 0.197831 0
M  V30 3629 H 337.693 5.70101 -1.42332 0
M  V30 3630 H 339.217 6.07924 -0.57105 0
M  V30 3631 H 340.631 5.09921 -2.62019 0
M  V30 3632 H 339.028 4.94721 -3.39663 0
M  V30 3633 H 340.098 3.53584 -3.31823 0
M  V30 3634 N 341.441 0.965919 1.2453 0
M  V30 3635 C 342.857 0.67216 1.44756 0
M  V30 3636 C 343.057 -0.766609 1.86347 0
M  V30 3637 O 342.113 -1.5407 2.00047 0
M  V30 3638 C 343.426 1.65473 2.51076 0
M  V30 3639 C 344.974 1.66716 2.64905 0
M  V30 3640 C 345.449 2.63766 3.74421 0
M  V30 3641 N 346.94 2.62198 3.81846 0
M  V30 3642 C 347.675 3.33966 4.66106 0
M  V30 3643 N 347.171 4.15245 5.54566 0
M  V30 3644 N 348.964 3.22799 4.60171 0
M  V30 3645 H 341.115 1.89553 0.958293 0
M  V30 3646 H 343.378 0.815979 0.482579 0
M  V30 3647 H 343.084 2.68296 2.27399 0
M  V30 3648 H 342.958 1.4261 3.49202 0
M  V30 3649 H 345.345 0.646057 2.87941 0
M  V30 3650 H 345.426 1.93642 1.67142 0
M  V30 3651 H 345.07 3.6601 3.52135 0
M  V30 3652 H 345 2.34121 4.71694 0
M  V30 3653 H 347.491 2.032 3.18619 0
M  V30 3654 H 347.804 4.66898 6.15814 0
M  V30 3655 H 346.149 4.1934 5.54237 0
M  V30 3656 H 349.34 2.58764 3.90075 0
M  V30 3657 H 349.513 3.78994 5.25612 0
M  V30 3658 N 342.919 -1.39368 0.735821 0
M  V30 3659 C 343.849 -2.33234 0.111506 0
M  V30 3660 C 344.83 -1.53954 -0.723334 0
M  V30 3661 O 346.015 -1.82344 -0.668147 0
M  V30 3662 C 343.145 -3.38057 -0.795917 0
M  V30 3663 C 342.099 -4.2795 -0.065172 0
M  V30 3664 C 341.425 -5.23479 -1.08967 0
M  V30 3665 C 342.725 -5.10741 1.09273 0
M  V30 3666 H 344.419 -2.85692 0.895571 0
M  V30 3667 H 341.965 -1.37364 0.432109 0
M  V30 3668 H 343.918 -4.02675 -1.24221 0
M  V30 3669 H 342.642 -2.8404 -1.61211 0
M  V30 3670 H 341.301 -3.64813 0.361511 0
M  V30 3671 H 340.949 -4.65758 -1.89944 0
M  V30 3672 H 340.649 -5.84472 -0.605489 0
M  V30 3673 H 342.173 -5.90974 -1.53565 0
M  V30 3674 H 343.587 -5.68699 0.724841 0
M  V30 3675 H 341.984 -5.8088 1.50659 0
M  V30 3676 H 343.054 -4.45525 1.91404 0
M  V30 3677 N 344.397 -0.483516 -1.5 0
M  V30 3678 C 345.329 0.340634 -2.26655 0
M  V30 3679 C 346.342 0.946152 -1.32483 0
M  V30 3680 O 347.531 0.832453 -1.579 0
M  V30 3681 C 344.631 1.4929 -3.04246 0
M  V30 3682 C 343.804 0.997903 -4.25865 0
M  V30 3683 C 342.863 2.02569 -4.85646 0
M  V30 3684 O 341.889 1.60128 -5.46212 0
M  V30 3685 N 343.091 3.3548 -4.73744 0
M  V30 3686 H 345.856 -0.316577 -2.98023 0
M  V30 3687 H 343.417 -0.315024 -1.58806 0
M  V30 3688 H 345.409 2.17766 -3.41116 0
M  V30 3689 H 343.979 2.05458 -2.35597 0
M  V30 3690 H 343.199 0.138617 -3.93956 0
M  V30 3691 H 344.487 0.645305 -5.04691 0
M  V30 3692 H 343.885 3.72661 -4.25605 0
M  V30 3693 H 342.442 3.99718 -5.14848 0
M  V30 3694 N 345.875 1.56104 -0.216619 0
M  V30 3695 C 346.825 2.16703 0.708798 0
M  V30 3696 C 347.809 1.11392 1.16106 0
M  V30 3697 O 349.001 1.37395 1.11587 0
M  V30 3698 C 346.13 2.84666 1.91886 0
M  V30 3699 C 345.216 3.97195 1.48651 0
M  V30 3700 N 345.607 4.99959 0.766434 0
M  V30 3701 C 343.905 4.09193 1.77418 0
M  V30 3702 C 344.606 5.79126 0.546659 0
M  V30 3703 N 343.582 5.32315 1.10188 0
M  V30 3704 H 347.384 2.93516 0.150162 0
M  V30 3705 H 344.898 1.6239 -0.0176768 0
M  V30 3706 H 346.895 3.26486 2.59253 0
M  V30 3707 H 345.555 2.09347 2.48202 0
M  V30 3708 H 346.566 5.16197 0.419634 0
M  V30 3709 H 343.243 3.45021 2.35088 0
M  V30 3710 H 344.633 6.71895 -0.026103 0
M  V30 3711 N 347.353 -0.0568162 1.57498 0
M  V30 3712 C 348.769 -0.411933 1.54192 0
M  V30 3713 C 348.969 -1.78287 0.938942 0
M  V30 3714 O 348.025 -2.46483 0.547919 0
M  V30 3715 C 349.338 -0.339244 2.9878 0
M  V30 3716 C 350.886 -0.418348 3.10192 0
M  V30 3717 C 351.361 -0.375407 4.56459 0
M  V30 3718 N 352.852 -0.435038 4.61153 0
M  V30 3719 C 353.587 -0.424265 5.71828 0
M  V30 3720 N 353.083 -0.367418 6.91825 0
M  V30 3721 N 354.876 -0.471938 5.60115 0
M  V30 3722 H 347.027 0.840684 1.95055 0
M  V30 3723 H 349.29 0.316987 0.893433 0
M  V30 3724 H 348.996 0.601742 3.46514 0
M  V30 3725 H 348.87 -1.14371 3.59443 0
M  V30 3726 H 351.257 -1.34976 2.62422 0
M  V30 3727 H 351.338 0.414962 2.52412 0
M  V30 3728 H 350.982 0.552219 5.04889 0
M  V30 3729 H 350.912 -1.22645 5.12119 0
M  V30 3730 H 353.403 -0.482612 3.74806 0
M  V30 3731 H 353.716 -0.363535 7.71944 0
M  V30 3732 H 352.061 -0.333879 6.94198 0
M  V30 3733 H 355.252 -0.514145 4.65268 0
M  V30 3734 H 355.425 -0.460073 6.46365 0
M  V30 3735 N 348.832 -1.54138 -0.328536 0
M  V30 3736 C 350.08 -1.71765 -1.06496 0
M  V30 3737 C 350.401 -0.49149 -1.88704 0
M  V30 3738 O 349.671 0.494539 -1.89555 0
M  V30 3739 H 348.251 -0.633295 -0.396164 0
M  V30 3740 H 350.913 -1.91429 -0.366176 0
M  V30 3741 H 350.009 -2.5951 -1.73381 0
M  V30 3742 N 350.31 0.590341 -1.46126 0
M  V30 3743 C 351.726 0.912917 -1.30912 0
M  V30 3744 C 351.926 1.99616 -0.274893 0
M  V30 3745 O 350.982 2.50397 0.325197 0
M  V30 3746 C 352.295 1.3375 -2.69317 0
M  V30 3747 C 353.843 1.45077 -2.77348 0
M  V30 3748 C 354.318 1.90904 -4.16317 0
M  V30 3749 N 355.809 1.9811 -4.18696 0
M  V30 3750 C 356.544 2.34828 -5.23109 0
M  V30 3751 N 356.04 2.70393 -6.37856 0
M  V30 3752 N 357.833 2.35317 -5.10473 0
M  V30 3753 H 349.984 -0.125358 -2.1203 0
M  V30 3754 H 352.247 0.00658481 -0.947977 0
M  V30 3755 H 351.953 0.615614 -3.4627 0
M  V30 3756 H 351.827 2.30058 -2.9892 0
M  V30 3757 H 354.214 2.16353 -2.00687 0
M  V30 3758 H 354.295 0.4704 -2.51438 0
M  V30 3759 H 353.939 1.20209 -4.9347 0
M  V30 3760 H 353.869 2.89886 -4.39629 0
M  V30 3761 H 356.36 1.73146 -3.359 0
M  V30 3762 H 356.673 2.97341 -7.13308 0
M  V30 3763 H 355.018 2.68048 -6.41229 0
M  V30 3764 H 358.209 2.0695 -4.19868 0
M  V30 3765 H 358.382 2.63605 -5.9196 0
M  V30 3766 N 351.788 1.33704 0.83433 0
M  V30 3767 C 353.204 1.13137 1.12571 0
M  V30 3768 C 353.404 -0.0747261 2.01361 0
M  V30 3769 O 352.46 -0.753647 2.4099 0
M  V30 3770 C 353.773 2.42105 1.78342 0
M  V30 3771 C 355.321 2.48054 1.90888 0
M  V30 3772 C 355.796 3.76995 2.60075 0
M  V30 3773 N 357.287 3.78092 2.67584 0
M  V30 3774 C 358.022 4.74574 3.21818 0
M  V30 3775 N 357.518 5.81434 3.76705 0
M  V30 3776 N 359.311 4.62044 3.20112 0
M  V30 3777 H 351.462 2.11 0.243489 0
M  V30 3778 H 353.725 0.932532 0.17055 0
M  V30 3779 H 353.431 3.30391 1.20561 0
M  V30 3780 H 353.305 2.54594 2.7832 0
M  V30 3781 H 355.692 1.60215 2.47821 0
M  V30 3782 H 355.773 2.39502 0.898459 0
M  V30 3783 H 355.417 4.65219 2.03799 0
M  V30 3784 H 355.347 3.82825 3.61597 0
M  V30 3785 H 357.838 3.00865 2.28667 0
M  V30 3786 H 358.151 6.51084 4.16305 0
M  V30 3787 H 356.496 5.85163 3.7498 0
M  V30 3788 H 359.687 3.77716 2.76493 0
M  V30 3789 H 359.86 5.37406 3.62076 0
M  V30 3790 N 353.266 -1.05314 1.17247 0
M  V30 3791 C 354.682 -1.30452 0.919473 0
M  V30 3792 C 354.882 -1.9703 -0.42209 0
M  V30 3793 O 353.938 -2.24311 -1.15935 0
M  V30 3794 C 355.251 -2.17551 2.07586 0
M  V30 3795 C 356.799 -2.30937 2.11275 0
M  V30 3796 C 357.274 -3.21396 3.26296 0
M  V30 3797 N 358.765 -3.28981 3.26076 0
M  V30 3798 C 359.5 -3.99095 4.11716 0
M  V30 3799 N 358.996 -4.71648 5.07465 0
M  V30 3800 N 360.789 -3.95247 3.9967 0
M  V30 3801 H 352.94 -0.604988 2.03602 0
M  V30 3802 H 355.203 -0.329368 0.888944 0
M  V30 3803 H 354.909 -1.75921 3.0454 0
M  V30 3804 H 354.783 -3.18182 2.02584 0
M  V30 3805 H 357.17 -2.71809 1.14907 0
M  V30 3806 H 357.251 -1.2994 2.20339 0
M  V30 3807 H 356.895 -2.81238 4.22927 0
M  V30 3808 H 356.825 -4.22395 3.14467 0
M  V30 3809 H 359.316 -2.77286 2.5675 0
M  V30 3810 H 359.629 -5.22705 5.6921 0
M  V30 3811 H 357.974 -4.70594 5.11435 0
M  V30 3812 H 361.165 -3.37691 3.24164 0
M  V30 3813 H 361.338 -4.4962 4.66632 0
M  V30 3814 N 354.744 -0.972509 -1.24016 0
M  V30 3815 C 356.155 -0.67517 -1.74064 0
M  V30 3816 C 356.506 0.808939 -1.78747 0
M  V30 3817 O 355.631 1.63286 -1.42009 0
M  V30 3818 C 356.226 -1.21889 -3.16115 0
M  V30 3819 C 354.785 -0.971358 -3.6365 0
M  V30 3820 C 353.932 -1.35134 -2.42145 0
M  V30 3821 H 356.883 -1.14727 -1.09651 0
M  V30 3822 H 356.904 -0.587489 -3.75937 0
M  V30 3823 H 356.416 -2.29906 -3.12674 0
M  V30 3824 H 354.517 0.0930686 -3.72484 0
M  V30 3825 H 354.63 -1.62039 -4.50866 0
M  V30 3826 H 352.994 -0.769751 -2.4279 0
M  V30 3827 H 353.777 -2.4411 -2.41381 0
M  V30 3828 N 356.222 1.38976 -0.743202 0
M  V30 3829 C 357.47 1.99948 -0.29417 0
M  V30 3830 C 357.791 1.59279 1.12495 0
M  V30 3831 O 357.061 0.844808 1.76748 0
M  V30 3832 H 355.641 0.739473 -0.105774 0
M  V30 3833 H 358.303 1.699 -0.954986 0
M  V30 3834 H 357.399 3.10142 -0.349056 0
M  V30 3835 N 357.7 0.491464 1.49741 0
M  V30 3836 C 359.116 0.146835 1.58923 0
M  V30 3837 C 359.316 -1.34804 1.49767 0
M  V30 3838 O 358.372 -2.12317 1.36667 0
M  V30 3839 C 359.685 0.715157 2.92072 0
M  V30 3840 C 361.233 0.680407 3.05515 0
M  V30 3841 C 361.708 1.22663 4.41269 0
M  V30 3842 N 363.199 1.18691 4.47735 0
M  V30 3843 C 363.934 1.57984 5.51207 0
M  V30 3844 N 363.43 2.04824 6.6183 0
M  V30 3845 N 365.223 1.49459 5.41866 0
M  V30 3846 H 357.374 1.46347 1.53936 0
M  V30 3847 H 359.637 0.606453 0.728642 0
M  V30 3848 H 359.343 1.76317 3.04311 0
M  V30 3849 H 359.217 0.17018 3.76816 0
M  V30 3850 H 361.604 -0.358743 2.92911 0
M  V30 3851 H 361.685 1.26242 2.22478 0
M  V30 3852 H 361.329 2.26451 4.54623 0
M  V30 3853 H 361.259 0.620637 5.2293 0
M  V30 3854 H 363.75 0.843605 3.68364 0
M  V30 3855 H 364.063 2.32901 7.3687 0
M  V30 3856 H 362.408 2.08791 6.62896 0
M  V30 3857 H 365.599 1.12692 4.54333 0
M  V30 3858 H 365.772 1.80406 6.22381 0
M  V30 3859 N 359.178 -1.55987 0.224894 0
M  V30 3860 C 360.425 -1.9839 -0.4059 0
M  V30 3861 C 360.753 -1.11261 -1.59535 0
M  V30 3862 O 360.008 -0.158314 -1.95059 0
M  V30 3863 C 360.307 -3.46394 -0.880106 0
M  V30 3864 C 359.973 -4.5046 0.19918 0
M  V30 3865 C 358.635 -4.7864 0.495661 0
M  V30 3866 C 360.987 -5.12855 0.928939 0
M  V30 3867 C 358.315 -5.66497 1.52636 0
M  V30 3868 C 360.667 -6.01828 1.949 0
M  V30 3869 C 359.331 -6.28351 2.25236 0
M  V30 3870 H 358.601 -0.725961 -0.148529 0
M  V30 3871 H 361.248 -1.88668 0.328113 0
M  V30 3872 H 359.553 -3.53337 -1.69294 0
M  V30 3873 H 361.25 -3.76577 -1.37808 0
M  V30 3874 H 357.84 -4.28579 -0.0420526 0
M  V30 3875 H 362.024 -4.9115 0.713129 0
M  V30 3876 H 357.28 -5.8531 1.76698 0
M  V30 3877 H 361.454 -6.49225 2.51951 0
M  V30 3878 H 359.081 -6.96226 3.05244 0
M  V30 3879 N 360.656 0.0484629 -1.57525 0
M  V30 3880 C 361.902 0.744226 -1.88651 0
M  V30 3881 C 362.235 1.76029 -0.820212 0
M  V30 3882 O 361.51 1.93782 0.166985 0
M  V30 3883 C 361.793 1.43128 -3.30434 0
M  V30 3884 C 361.646 0.43005 -4.47739 0
M  V30 3885 C 362.965 2.37031 -3.70816 0
M  V30 3886 H 360.084 0.269089 -0.68612 0
M  V30 3887 H 362.726 0.00713532 -1.89999 0
M  V30 3888 H 360.876 2.05956 -3.29415 0
M  V30 3889 H 362.548 -0.194816 -4.60888 0
M  V30 3890 H 360.791 -0.252522 -4.33064 0
M  V30 3891 H 361.462 0.948874 -5.43783 0
M  V30 3892 H 363.938 1.84263 -3.73077 0
M  V30 3893 H 362.814 2.82094 -4.70865 0
M  V30 3894 H 363.075 3.22864 -3.02012 0
M  V30 3895 N 362.134 1.5431 0.320358 0
M  V30 3896 C 363.55 1.45091 0.664889 0
M  V30 3897 C 363.75 0.626382 1.91517 0
M  V30 3898 O 362.806 0.126443 2.52183 0
M  V30 3899 C 364.119 2.88848 0.83591 0
M  V30 3900 C 365.667 2.9877 0.933046 0
M  V30 3901 C 366.142 4.43683 1.13621 0
M  V30 3902 N 367.633 4.47309 1.20287 0
M  V30 3903 C 368.368 5.56595 1.37801 0
M  V30 3904 N 367.864 6.75844 1.52338 0
M  V30 3905 N 369.657 5.44248 1.40535 0
M  V30 3906 H 361.808 2.06398 -0.501374 0
M  V30 3907 H 364.071 0.933963 -0.162534 0
M  V30 3908 H 363.777 3.51698 -0.0116092 0
M  V30 3909 H 363.651 3.35148 1.73078 0
M  V30 3910 H 366.038 2.36045 1.77107 0
M  V30 3911 H 366.119 2.55796 0.0145782 0
M  V30 3912 H 365.763 5.06995 0.303032 0
M  V30 3913 H 365.693 4.84269 2.0686 0
M  V30 3914 H 368.184 3.61388 1.10485 0
M  V30 3915 H 368.497 7.54892 1.65403 0
M  V30 3916 H 366.842 6.78746 1.4943 0
M  V30 3917 H 370.033 4.50038 1.28777 0
M  V30 3918 H 370.206 6.29473 1.53842 0
M  V30 3919 N 363.613 -0.582584 1.46437 0
M  V30 3920 C 364.543 -1.70187 1.59871 0
M  V30 3921 C 365.524 -1.64066 0.449042 0
M  V30 3922 O 366.709 -1.82081 0.6753 0
M  V30 3923 C 363.839 -3.08827 1.58881 0
M  V30 3924 C 362.793 -3.29779 2.72819 0
M  V30 3925 C 362.119 -4.68947 2.5689 0
M  V30 3926 C 363.419 -3.17601 4.1464 0
M  V30 3927 H 365.113 -1.592 2.53566 0
M  V30 3928 H 362.659 -0.764472 1.22032 0
M  V30 3929 H 364.612 -3.86951 1.66873 0
M  V30 3930 H 363.336 -3.20713 0.617306 0
M  V30 3931 H 361.995 -2.54054 2.64296 0
M  V30 3932 H 361.643 -4.77599 1.57823 0
M  V30 3933 H 361.343 -4.83919 3.33312 0
M  V30 3934 H 362.867 -5.4924 2.66773 0
M  V30 3935 H 364.281 -3.8557 4.24274 0
M  V30 3936 H 362.678 -3.44094 4.9165 0
M  V30 3937 H 363.748 -2.14681 4.34788 0
M  V30 3938 N 365.091 -1.34144 -0.827227 0
M  V30 3939 C 366.337 -1.26446 -1.58554 0
M  V30 3940 C 366.67 0.1664 -1.93486 0
M  V30 3941 O 365.945 1.1107 -1.59667 0
M  V30 3942 C 366.228 -2.15111 -2.8879 0
M  V30 3943 C 366.081 -3.66712 -2.60465 0
M  V30 3944 C 367.4 -2.03311 -3.90324 0
M  V30 3945 H 364.519 -0.46067 -0.575284 0
M  V30 3946 H 367.161 -1.64356 -0.953269 0
M  V30 3947 H 365.311 -1.8291 -3.42748 0
M  V30 3948 H 366.983 -4.09259 -2.1285 0
M  V30 3949 H 365.226 -3.88014 -1.93978 0
M  V30 3950 H 365.897 -4.24112 -3.53317 0
M  V30 3951 H 368.373 -2.31574 -3.45706 0
M  V30 3952 H 367.249 -2.67582 -4.79261 0
M  V30 3953 H 367.51 -1.00879 -4.30437 0
M  V30 3954 N 366.569 1.04691 -1.17803 0
M  V30 3955 C 367.532 2.10724 -0.901545 0
M  V30 3956 C 368.532 1.6042 0.110437 0
M  V30 3957 O 369.722 1.7377 -0.122303 0
M  V30 3958 C 366.854 3.39084 -0.351409 0
M  V30 3959 H 368.047 2.36686 -1.84174 0
M  V30 3960 H 365.6 1.21015 -0.98919 0
M  V30 3961 H 366.335 3.18782 0.59569 0
M  V30 3962 H 366.12 3.76909 -1.08083 0
M  V30 3963 H 367.61 4.17227 -0.176451 0
M  V30 3964 N 368.047 0.979072 1.23499 0
M  V30 3965 C 369.01 0.523244 2.23147 0
M  V30 3966 C 370.01 -0.386406 1.56088 0
M  V30 3967 O 371.2 -0.180283 1.73265 0
M  V30 3968 C 368.332 -0.240739 3.40049 0
M  V30 3969 H 369.525 1.40432 2.64989 0
M  V30 3970 H 367.078 0.764824 1.36309 0
M  V30 3971 H 367.813 -1.13841 3.03662 0
M  V30 3972 H 367.598 0.412207 3.89927 0
M  V30 3973 H 369.088 -0.548297 4.13985 0
M  V30 3974 N 369.525 -1.3858 0.750561 0
M  V30 3975 C 370.771 -2.00481 0.305825 0
M  V30 3976 C 371.104 -1.5944 -1.10872 0
M  V30 3977 O 370.379 -0.83052 -1.75877 0
M  V30 3978 C 370.662 -3.5758 0.425287 0
M  V30 3979 C 370.515 -4.08594 1.88072 0
M  V30 3980 C 371.834 -4.39719 -0.183122 0
M  V30 3981 H 368.953 -0.728348 0.112598 0
M  V30 3982 H 371.595 -1.64566 0.949638 0
M  V30 3983 H 369.745 -3.88306 -0.122828 0
M  V30 3984 H 371.417 -3.88523 2.48691 0
M  V30 3985 H 369.66 -3.61574 2.39681 0
M  V30 3986 H 370.331 -5.177 1.91548 0
M  V30 3987 H 372.807 -4.15128 0.284303 0
M  V30 3988 H 371.683 -5.48856 -0.0692757 0
M  V30 3989 H 371.944 -4.23434 -1.27106 0
M  V30 3990 N 371.003 -0.499398 -1.49478 0
M  V30 3991 C 372.249 0.0457576 -2.02748 0
M  V30 3992 C 372.582 1.36793 -1.37846 0
M  V30 3993 O 371.857 1.87596 -0.513601 0
M  V30 3994 C 372.14 0.199986 -3.59544 0
M  V30 3995 C 371.993 -1.1452 -4.34977 0
M  V30 3996 C 373.312 0.94137 -4.29914 0
M  V30 3997 H 370.431 0.0151552 -0.736844 0
M  V30 3998 H 373.073 -0.650498 -1.78518 0
M  V30 3999 H 371.223 0.793007 -3.8032 0
M  V30 4000 H 372.895 -1.77697 -4.25701 0
M  V30 4001 H 371.138 -1.73488 -3.97598 0
M  V30 4002 H 371.809 -0.990607 -5.43039 0
M  V30 4003 H 374.285 0.43844 -4.13784 0
M  V30 4004 H 373.161 1.01812 -5.39375 0
M  V30 4005 H 373.422 1.98471 -3.95046 0
M  V30 4006 N 372.481 1.55866 -0.233164 0
M  V30 4007 C 373.444 2.1953 0.658715 0
M  V30 4008 C 374.444 1.16053 1.11303 0
M  V30 4009 O 375.634 1.41218 1.01996 0
M  V30 4010 C 372.766 2.82791 1.90373 0
M  V30 4011 H 373.959 2.99721 0.10347 0
M  V30 4012 H 371.512 1.56291 0.0164245 0
M  V30 4013 H 372.247 2.06501 2.50056 0
M  V30 4014 H 372.032 3.58578 1.58632 0
M  V30 4015 H 373.522 3.31556 2.53891 0
M  V30 4016 N 373.959 -0.0401083 1.57549 0
M  V30 4017 C 374.922 -1.02871 2.04817 0
M  V30 4018 C 375.922 -1.29708 0.950388 0
M  V30 4019 O 377.112 -1.24897 1.21435 0
M  V30 4020 C 374.244 -2.36443 2.45576 0
M  V30 4021 H 375.437 -0.620631 2.93408 0
M  V30 4022 H 372.99 -0.286667 1.53649 0
M  V30 4023 H 373.725 -2.82021 1.60108 0
M  V30 4024 H 373.51 -2.18296 3.25713 0
M  V30 4025 H 375 -3.07441 2.82612 0
M  V30 4026 N 375.437 -1.54477 -0.31217 0
M  V30 4027 C 376.684 -1.73227 -1.04875 0
M  V30 4028 C 377.012 -0.512042 -1.87639 0
M  V30 4029 O 376.267 0.506131 -1.89042 0
M  V30 4030 C 376.566 -2.967 -1.99258 0
M  V30 4031 C 376.232 -4.30974 -1.32559 0
M  V30 4032 C 374.894 -4.67477 -1.141 0
M  V30 4033 C 377.246 -5.14258 -0.847835 0
M  V30 4034 C 374.574 -5.84852 -0.465326 0
M  V30 4035 C 376.926 -6.32327 -0.185931 0
M  V30 4036 C 375.59 -6.67499 0.0107077 0
M  V30 4037 H 374.86 -0.633881 -0.383765 0
M  V30 4038 H 377.507 -1.88727 -0.324731 0
M  V30 4039 H 375.812 -2.75935 -2.7815 0
M  V30 4040 H 377.509 -3.08401 -2.563 0
M  V30 4041 H 374.099 -4.02262 -1.4793 0
M  V30 4042 H 378.283 -4.86565 -0.978192 0
M  V30 4043 H 373.539 -6.10654 -0.301883 0
M  V30 4044 H 377.713 -6.96135 0.192211 0
M  V30 4045 H 375.34 -7.58306 0.536287 0
M  V30 4046 N 376.915 0.57481 -1.46744 0
M  V30 4047 C 377.878 1.66533 -1.57478 0
M  V30 4048 C 378.878 1.54338 -0.451263 0
M  V30 4049 O 380.068 1.58814 -0.715813 0
M  V30 4050 C 377.2 3.05999 -1.50259 0
M  V30 4051 H 378.393 1.58372 -2.54673 0
M  V30 4052 H 375.946 0.793301 -1.34672 0
M  V30 4053 H 376.681 3.19709 -0.543725 0
M  V30 4054 H 376.466 3.16259 -2.31781 0
M  V30 4055 H 377.956 3.8537 -1.60872 0
M  V30 4056 N 378.394 1.34581 0.820102 0
M  V30 4057 C 379.324 1.29038 1.94606 0
M  V30 4058 C 380.305 0.1673 1.69275 0
M  V30 4059 O 381.49 0.360112 1.90832 0
M  V30 4060 C 378.62 1.04793 3.31113 0
M  V30 4061 C 377.574 2.13597 3.70891 0
M  V30 4062 C 376.9 1.74537 5.05412 0
M  V30 4063 C 378.2 3.55451 3.8269 0
M  V30 4064 H 379.894 2.23248 1.99501 0
M  V30 4065 H 377.44 1.0747 0.958449 0
M  V30 4066 H 379.393 0.995592 4.0947 0
M  V30 4067 H 378.117 0.0702565 3.26524 0
M  V30 4068 H 376.776 2.17905 2.9481 0
M  V30 4069 H 376.424 0.754226 4.97313 0
M  V30 4070 H 376.124 2.47361 5.32997 0
M  V30 4071 H 377.648 1.70803 5.86224 0
M  V30 4072 H 379.062 3.5354 4.51312 0
M  V30 4073 H 377.459 4.26922 4.21732 0
M  V30 4074 H 378.529 3.92587 2.84611 0
M  V30 4075 N 379.872 -1.04064 1.18357 0
M  V30 4076 C 381.112 -1.78829 0.989921 0
M  V30 4077 C 381.476 -1.86106 -0.472095 0
M  V30 4078 O 382.677 -2.57076 -0.785187 0
M  V30 4079 C 380.948 -3.1823 1.6268 0
M  V30 4080 S 382.507 -4.09332 1.58091 0
M  V30 4081 H 379.325 -0.615754 0.355482 0
M  V30 4082 H 381.927 -1.24778 1.50501 0
M  V30 4083 H 380.631 -3.10543 2.68311 0
M  V30 4084 H 380.162 -3.77357 1.112 0
M  V30 4085 H 382.177 -4.92598 0.596817 0
M  V30 4086 N 381.35 -0.985608 -1.22978 0
M  V30 4087 C 382.596 -0.667998 -1.92118 0
M  V30 4088 C 382.951 0.790454 -1.75413 0
M  V30 4089 O 382.244 1.56336 -1.10768 0
M  V30 4090 C 382.438 -1.00014 -3.43121 0
M  V30 4091 C 382.267 -2.48933 -3.74516 0
M  V30 4092 C 381.037 -3.15218 -3.94925 0
M  V30 4093 C 383.235 -3.47024 -3.79577 0
M  V30 4094 N 381.217 -4.53689 -4.13569 0
M  V30 4095 C 382.588 -4.70923 -4.03276 0
M  V30 4096 C 384.643 -3.41432 -3.62393 0
M  V30 4097 C 383.346 -5.89914 -4.11574 0
M  V30 4098 C 385.372 -4.59793 -3.71947 0
M  V30 4099 C 384.734 -5.82489 -3.96088 0
M  V30 4100 H 380.833 -0.295589 -0.723983 0
M  V30 4101 H 383.417 -1.26413 -1.4808 0
M  V30 4102 H 381.588 -0.432655 -3.85983 0
M  V30 4103 H 383.32 -0.63927 -3.99619 0
M  V30 4104 H 380.075 -2.65702 -3.92045 0
M  V30 4105 H 380.499 -5.25492 -4.26834 0
M  V30 4106 H 385.141 -2.47594 -3.4272 0
M  V30 4107 H 382.859 -6.84164 -4.30053 0
M  V30 4108 H 386.445 -4.57048 -3.59998 0
M  V30 4109 H 385.325 -6.72546 -4.033 0
M  V30 4110 N 382.828 1.3818 -0.7579 0
M  V30 4111 C 384.076 1.99624 -0.315361 0
M  V30 4112 C 384.397 1.60464 1.10799 0
M  V30 4113 O 383.667 0.863507 1.75842 0
M  V30 4114 H 382.247 0.73831 -0.113611 0
M  V30 4115 H 384.909 1.68878 -0.972952 0
M  V30 4116 H 384.005 3.09754 -0.381931 0
M  V30 4117 N 384.306 0.507319 1.49211 0
M  V30 4118 C 385.717 0.0611118 1.866 0
M  V30 4119 C 386.068 -1.35488 1.41907 0
M  V30 4120 O 385.193 -2.0108 0.799726 0
M  V30 4121 C 385.788 0.104125 3.3864 0
M  V30 4122 C 384.347 -0.28677 3.75306 0
M  V30 4123 C 383.494 0.473893 2.73221 0
M  V30 4124 H 386.445 0.719775 1.41439 0
M  V30 4125 H 386.466 -0.689672 3.74198 0
M  V30 4126 H 385.978 1.13482 3.71138 0
M  V30 4127 H 384.079 -1.32046 3.48417 0
M  V30 4128 H 384.192 0.0370745 4.79086 0
M  V30 4129 H 382.556 -0.0770644 2.54583 0
M  V30 4130 H 383.339 1.50478 3.08563 0
M  V30 4131 N 385.784 -1.5574 0.241426 0
M  V30 4132 C 387.014 -2.02913 -0.38857 0
M  V30 4133 C 387.422 -1.12014 -1.52478 0
M  V30 4134 O 386.765 -0.125903 -1.83268 0
M  V30 4135 C 386.827 -3.4636 -0.963075 0
M  V30 4136 C 386.491 -4.56982 0.0401916 0
M  V30 4137 C 387.488 -5.12941 0.847766 0
M  V30 4138 C 385.173 -5.0203 0.164699 0
M  V30 4139 C 387.167 -6.12437 1.76636 0
M  V30 4140 C 384.854 -6.01358 1.0868 0
M  V30 4141 C 385.852 -6.5644 1.88616 0
M  V30 4142 O 385.54 -7.53831 2.79273 0
M  V30 4143 H 385.272 -0.668983 -0.0971452 0
M  V30 4144 H 387.826 -2.02198 0.361248 0
M  V30 4145 H 386.056 -3.44206 -1.76235 0
M  V30 4146 H 387.745 -3.77065 -1.50257 0
M  V30 4147 H 388.511 -4.78974 0.762133 0
M  V30 4148 H 384.39 -4.58824 -0.447411 0
M  V30 4149 H 387.934 -6.55355 2.39071 0
M  V30 4150 H 383.831 -6.34746 1.17338 0
M  V30 4151 H 384.599 -7.71428 2.73572 0
M  V30 4152 N 387.262 0.0317525 -1.57568 0
M  V30 4153 C 388.212 1.04101 -2.02847 0
M  V30 4154 C 389.196 1.3219 -0.917317 0
M  V30 4155 O 390.388 1.31819 -1.18121 0
M  V30 4156 C 387.517 2.34295 -2.5092 0
M  V30 4157 C 386.603 2.09308 -3.68851 0
M  V30 4158 N 386.994 1.5437 -4.81667 0
M  V30 4159 C 385.292 2.39604 -3.76172 0
M  V30 4160 C 385.993 1.45126 -5.63306 0
M  V30 4161 N 384.969 1.92589 -5.08341 0
M  V30 4162 H 388.771 0.610217 -2.87495 0
M  V30 4163 H 386.285 0.238108 -1.60645 0
M  V30 4164 H 388.282 3.07404 -2.81617 0
M  V30 4165 H 386.942 2.78055 -1.67677 0
M  V30 4166 H 387.953 1.22678 -5.03161 0
M  V30 4167 H 384.63 2.86457 -3.03724 0
M  V30 4168 H 386.02 1.03163 -6.63933 0
M  V30 4169 N 388.74 1.54641 0.303973 0
M  V30 4170 C 389.986 1.74038 1.04109 0
M  V30 4171 C 390.319 0.523051 1.87024 0
M  V30 4172 O 389.594 -0.479874 1.88487 0
M  V30 4173 C 389.877 3.02761 1.94955 0
M  V30 4174 C 389.73 4.34787 1.1524 0
M  V30 4175 C 391.049 3.27336 2.94175 0
M  V30 4176 H 388.168 0.63323 0.377079 0
M  V30 4177 H 390.81 1.87354 0.316001 0
M  V30 4178 H 388.96 2.9154 2.56782 0
M  V30 4179 H 390.632 4.57922 0.557236 0
M  V30 4180 H 388.875 4.31407 0.455053 0
M  V30 4181 H 389.546 5.21116 1.8205 0
M  V30 4182 H 392.022 3.38148 2.42477 0
M  V30 4183 H 390.898 4.18726 3.54908 0
M  V30 4184 H 391.159 2.45491 3.67677 0
M  V30 4185 N 390.218 -0.567019 1.47046 0
M  V30 4186 C 391.465 -1.32462 1.53167 0
M  V30 4187 C 391.793 -1.93571 0.189841 0
M  V30 4188 O 391.048 -1.77865 -0.816243 0
M  V30 4189 C 391.347 -2.4623 2.59047 0
M  V30 4190 C 391.013 -2.03014 4.02612 0
M  V30 4191 C 389.675 -1.90944 4.41694 0
M  V30 4192 C 392.027 -1.69895 4.92732 0
M  V30 4193 C 389.355 -1.44035 5.68745 0
M  V30 4194 C 391.707 -1.2446 6.20236 0
M  V30 4195 C 390.371 -1.10979 6.5821 0
M  V30 4196 H 389.641 -0.484713 0.560477 0
M  V30 4197 H 392.288 -0.636888 1.80599 0
M  V30 4198 H 390.593 -3.20517 2.25335 0
M  V30 4199 H 392.29 -3.04427 2.61008 0
M  V30 4200 H 388.88 -2.13348 3.71726 0
M  V30 4201 H 393.064 -1.78098 4.63244 0
M  V30 4202 H 388.32 -1.32254 5.96925 0
M  V30 4203 H 392.494 -0.978924 6.89485 0
M  V30 4204 H 390.121 -0.744078 7.5655 0
M  V30 4205 N 391.696 -1.35014 -0.812953 0
M  V30 4206 C 392.921 -1.31187 -1.60639 0
M  V30 4207 C 393.346 0.109382 -1.87782 0
M  V30 4208 O 392.704 1.07424 -1.46047 0
M  V30 4209 C 392.752 -2.11809 -2.91838 0
M  V30 4210 O 391.856 -1.49444 -3.8437 0
M  V30 4211 H 391.197 -0.450084 -0.488181 0
M  V30 4212 H 393.727 -1.77963 -1.00947 0
M  V30 4213 H 393.737 -2.23531 -3.41318 0
M  V30 4214 H 392.412 -3.15137 -2.71407 0
M  V30 4215 H 390.989 -1.46524 -3.42907 0
M  V30 4216 N 393.175 1.03435 -1.18907 0
M  V30 4217 C 394.105 2.13503 -0.945448 0
M  V30 4218 C 395.086 1.69682 0.119189 0
M  V30 4219 O 396.271 1.94169 -0.034707 0
M  V30 4220 C 393.401 3.44004 -0.477316 0
M  V30 4221 C 392.355 4.0148 -1.48316 0
M  V30 4222 C 391.681 5.27537 -0.872311 0
M  V30 4223 C 392.981 4.36921 -2.86177 0
M  V30 4224 H 394.675 2.34141 -1.86597 0
M  V30 4225 H 392.221 1.12523 -0.898584 0
M  V30 4226 H 394.174 4.20372 -0.294204 0
M  V30 4227 H 392.898 3.23072 0.478786 0
M  V30 4228 H 391.557 3.27201 -1.65332 0
M  V30 4229 H 391.205 5.02917 0.0911752 0
M  V30 4230 H 390.905 5.66954 -1.54393 0
M  V30 4231 H 392.429 6.06576 -0.699871 0
M  V30 4232 H 393.843 5.04248 -2.72776 0
M  V30 4233 H 392.24 4.87405 -3.50081 0
M  V30 4234 H 393.31 3.46466 -3.39248 0
M  V30 4235 N 394.653 0.992116 1.22453 0
M  V30 4236 C 395.583 0.561677 2.26644 0
M  V30 4237 C 396.564 -0.411055 1.65059 0
M  V30 4238 O 397.749 -0.301861 1.9184 0
M  V30 4239 C 394.879 -0.125247 3.47074 0
M  V30 4240 C 393.833 0.765948 4.21091 0
M  V30 4241 C 393.159 -0.0538484 5.34673 0
M  V30 4242 C 394.459 2.06242 4.79856 0
M  V30 4243 H 396.153 1.43259 2.62902 0
M  V30 4244 H 393.699 0.690283 1.26377 0
M  V30 4245 H 395.652 -0.437764 4.1912 0
M  V30 4246 H 394.376 -1.03069 3.0991 0
M  V30 4247 H 393.035 1.0621 3.50878 0
M  V30 4248 H 392.683 -0.960188 4.9375 0
M  V30 4249 H 392.383 0.539415 5.85119 0
M  V30 4250 H 393.907 -0.360477 6.09535 0
M  V30 4251 H 395.321 1.8139 5.43848 0
M  V30 4252 H 393.718 2.60444 5.40638 0
M  V30 4253 H 394.788 2.74167 3.99951 0
M  V30 4254 N 396.131 -1.37776 0.765217 0
M  V30 4255 C 397.041 -2.34135 0.147666 0
M  V30 4256 C 398.057 -1.59854 -0.687215 0
M  V30 4257 O 399.233 -1.91983 -0.608659 0
M  V30 4258 C 396.298 -3.3901 -0.72617 0
M  V30 4259 C 395.359 -4.2912 0.124417 0
M  V30 4260 C 394.592 -5.28986 -0.707807 0
M  V30 4261 O 394.815 -5.36205 -1.94525 0
M  V30 4262 O 393.749 -6.01779 -0.12046 0
M  V30 4263 H 397.575 -2.88664 0.943758 0
M  V30 4264 H 395.16 -1.39824 0.526277 0
M  V30 4265 H 397.042 -4.03195 -1.22524 0
M  V30 4266 H 395.717 -2.86819 -1.50056 0
M  V30 4267 H 394.624 -3.68057 0.669696 0
M  V30 4268 H 395.957 -4.84598 0.861736 0
M  V30 4269 N 397.609 -0.515225 -1.4894 0
M  V30 4270 C 398.572 0.244681 -2.2789 0
M  V30 4271 C 399.572 0.881166 -1.34507 0
M  V30 4272 O 400.762 0.743497 -1.57537 0
M  V30 4273 C 397.894 1.35247 -3.12923 0
M  V30 4274 H 399.087 -0.448289 -2.96531 0
M  V30 4275 H 396.64 -0.270656 -1.53939 0
M  V30 4276 H 397.375 2.07916 -2.48881 0
M  V30 4277 H 397.16 0.901374 -3.81599 0
M  V30 4278 H 398.65 1.88737 -3.72516 0
M  V30 4279 N 399.087 1.5561 -0.249682 0
M  V30 4280 C 400.503 1.59254 0.105103 0
M  V30 4281 C 400.703 1.26685 1.56694 0
M  V30 4282 O 399.759 1.0155 2.31179 0
M  V30 4283 C 401.072 2.99687 -0.246592 0
M  V30 4284 C 402.62 3.12416 -0.191118 0
M  V30 4285 C 403.095 4.55074 -0.516885 0
M  V30 4286 N 404.586 4.60835 -0.467489 0
M  V30 4287 C 405.321 5.69201 -0.69268 0
M  V30 4288 N 404.817 6.85817 -0.981146 0
M  V30 4289 N 406.61 5.58635 -0.623198 0
M  V30 4290 H 398.761 1.75049 -1.20298 0
M  V30 4291 H 401.024 0.815003 -0.484225 0
M  V30 4292 H 400.73 3.28267 -1.26228 0
M  V30 4293 H 400.604 3.74798 0.424962 0
M  V30 4294 H 402.991 2.83615 0.815247 0
M  V30 4295 H 403.072 2.39573 -0.896563 0
M  V30 4296 H 402.716 4.84596 -1.52082 0
M  V30 4297 H 402.646 5.26181 0.210068 0
M  V30 4298 H 405.137 3.7705 -0.253373 0
M  V30 4299 H 405.45 7.64341 -1.14032 0
M  V30 4300 H 403.795 6.87494 -1.01865 0
M  V30 4301 H 406.986 4.66406 -0.397863 0
M  V30 4302 H 407.159 6.43017 -0.802093 0
M  V30 4303 N 400.565 -0.0233959 1.57583 0
M  V30 4304 C 401.528 -1.00693 2.05897 0
M  V30 4305 C 402.528 -1.28693 0.964092 0
M  V30 4306 O 403.718 -1.23602 1.22753 0
M  V30 4307 C 400.85 -2.33825 2.4807 0
M  V30 4308 H 402.043 -0.589476 2.9405 0
M  V30 4309 H 399.596 -0.270354 1.53944 0
M  V30 4310 H 400.331 -2.80307 1.6309 0
M  V30 4311 H 400.116 -2.1483 3.2801 0
M  V30 4312 H 401.606 -3.04426 2.85857 0
M  V30 4313 N 402.043 -1.548 -0.295768 0
M  V30 4314 C 402.993 -1.82497 -1.3667 0
M  V30 4315 C 403.977 -0.682434 -1.45711 0
M  V30 4316 O 405.169 -0.943207 -1.49775 0
M  V30 4317 C 402.298 -2.08036 -2.73086 0
M  V30 4318 C 401.384 -3.28488 -2.68247 0
M  V30 4319 N 401.775 -4.48924 -2.33025 0
M  V30 4320 C 400.073 -3.3062 -2.99343 0
M  V30 4321 C 400.774 -5.30956 -2.37613 0
M  V30 4322 N 399.75 -4.68805 -2.75178 0
M  V30 4323 H 403.552 -2.73175 -1.0841 0
M  V30 4324 H 401.066 -1.5437 -0.504361 0
M  V30 4325 H 403.063 -2.26027 -3.5031 0
M  V30 4326 H 401.723 -1.18629 -3.02254 0
M  V30 4327 H 402.734 -4.75432 -2.05389 0
M  V30 4328 H 399.411 -2.51336 -3.33371 0
M  V30 4329 H 400.801 -6.37199 -2.13135 0
M  V30 4330 N 403.521 0.559213 -1.47345 0
M  V30 4331 C 404.484 1.64854 -1.59235 0
M  V30 4332 C 405.484 1.53851 -0.467607 0
M  V30 4333 O 406.674 1.58045 -0.732617 0
M  V30 4334 C 403.806 3.04388 -1.53496 0
M  V30 4335 H 404.999 1.55662 -2.56339 0
M  V30 4336 H 402.552 0.778973 -1.35505 0
M  V30 4337 H 403.287 3.19115 -0.577604 0
M  V30 4338 H 403.072 3.13783 -2.35123 0
M  V30 4339 H 404.562 3.83642 -1.6495 0
M  V30 4340 N 404.999 1.35443 0.805782 0
M  V30 4341 C 405.947 1.28465 1.93906 0
M  V30 4342 C 406.941 0.17943 1.68447 0
M  V30 4343 O 408.147 0.345459 1.76654 0
M  V30 4344 H 404.522 0.399528 0.637088 0
M  V30 4345 H 406.493 2.24206 1.96912 0
M  V30 4346 C 405.242 1.07432 3.30687 0
M  V30 4347 H 404.565 1.91716 3.50835 0
M  V30 4348 H 406.005 1.06591 4.10383 0
M  V30 4349 C 404.464 -0.22179 3.36169 0
M  V30 4350 O 404.994 -1.21731 3.82811 0
M  V30 4351 N 403.2 -0.260841 2.89427 0
M  V30 4352 H 402.747 0.549884 2.51663 0
M  V30 4353 H 402.705 -1.12777 2.93477 0
M  V30 4354 N 406.477 -1.02803 1.19454 0
M  V30 4355 C 407.888 -1.57667 0.999899 0
M  V30 4356 C 408.239 -1.91041 -0.446956 0
M  V30 4357 O 407.364 -1.70978 -1.32648 0
M  V30 4358 C 407.959 -2.86477 1.80877 0
M  V30 4359 C 406.518 -3.37911 1.65811 0
M  V30 4360 C 405.665 -2.11343 1.79526 0
M  V30 4361 H 408.616 -0.853214 1.33813 0
M  V30 4362 H 408.637 -3.57408 1.30536 0
M  V30 4363 H 408.149 -2.62155 2.86175 0
M  V30 4364 H 406.25 -3.67218 0.63102 0
M  V30 4365 H 406.363 -4.10885 2.46395 0
M  V30 4366 H 404.727 -2.23254 1.22596 0
M  V30 4367 H 405.51 -1.89461 2.86285 0
M  V30 4368 N 407.956 -0.998596 -1.21925 0
M  V30 4369 C 409.204 -0.676325 -1.90448 0
M  V30 4370 C 409.525 0.794719 -1.78071 0
M  V30 4371 O 408.795 1.5701 -1.17152 0
M  V30 4372 H 407.375 -0.247165 -0.704925 0
M  V30 4373 H 410.037 -1.26633 -1.48156 0
M  V30 4374 H 409.133 -0.943858 -2.97486 0
M  V30 4375 N 409.434 1.37368 -0.772513 0
M  V30 4376 C 410.364 2.32856 -0.173304 0
M  V30 4377 C 411.345 1.55818 0.682262 0
M  V30 4378 O 412.53 1.84052 0.619566 0
M  V30 4379 C 409.66 3.40048 0.706007 0
M  V30 4380 C 408.614 4.27973 -0.0483144 0
M  V30 4381 C 407.94 5.26184 0.950491 0
M  V30 4382 C 409.24 5.07665 -1.22776 0
M  V30 4383 H 410.934 2.83217 -0.971002 0
M  V30 4384 H 408.48 1.3617 -0.468377 0
M  V30 4385 H 410.433 4.05827 1.13501 0
M  V30 4386 H 409.157 2.88214 1.53623 0
M  V30 4387 H 407.816 3.63726 -0.458107 0
M  V30 4388 H 407.464 4.7063 1.77529 0
M  V30 4389 H 407.164 5.85872 0.450314 0
M  V30 4390 H 408.688 5.94838 1.37842 0
M  V30 4391 H 410.102 5.66578 -0.875366 0
M  V30 4392 H 408.499 5.76681 -1.66007 0
M  V30 4393 H 409.569 4.40294 -2.03149 0
M  V30 4394 N 410.912 0.523116 1.48665 0
M  V30 4395 C 412.328 0.180511 1.58576 0
M  V30 4396 C 412.528 -1.31597 1.52592 0
M  V30 4397 O 411.584 -2.0937 1.4114 0
M  V30 4398 C 412.897 0.776949 2.90489 0
M  V30 4399 C 414.445 0.745058 3.04003 0
M  V30 4400 C 414.92 1.31995 4.38567 0
M  V30 4401 N 416.411 1.28162 4.45117 0
M  V30 4402 C 417.146 1.6964 5.47731 0
M  V30 4403 N 416.642 2.18816 6.57337 0
M  V30 4404 N 418.435 1.6092 5.38573 0
M  V30 4405 H 410.586 1.4958 1.50797 0
M  V30 4406 H 412.849 0.621772 0.715614 0
M  V30 4407 H 412.555 1.82732 3.00503 0
M  V30 4408 H 412.429 0.25007 3.7637 0
M  V30 4409 H 414.816 -0.296532 2.93606 0
M  V30 4410 H 414.897 1.30933 2.1975 0
M  V30 4411 H 414.541 2.36043 4.49718 0
M  V30 4412 H 414.471 0.731418 5.21496 0
M  V30 4413 H 416.962 0.92155 3.66491 0
M  V30 4414 H 417.275 2.48478 7.31764 0
M  V30 4415 H 415.62 2.22805 6.58318 0
M  V30 4416 H 418.811 1.22304 4.5184 0
M  V30 4417 H 418.984 1.93567 6.18414 0
M  V30 4418 N 412.39 -1.55475 0.257931 0
M  V30 4419 C 413.801 -1.8511 -0.243135 0
M  V30 4420 C 414.152 -1.17986 -1.5676 0
M  V30 4421 O 413.277 -0.462102 -2.11409 0
M  V30 4422 C 413.872 -3.35826 -0.447929 0
M  V30 4423 C 412.431 -3.65647 -0.893245 0
M  V30 4424 C 411.578 -2.7729 0.0232965 0
M  V30 4425 H 414.529 -1.51261 0.480199 0
M  V30 4426 H 414.55 -3.58002 -1.28898 0
M  V30 4427 H 414.062 -3.84652 0.516196 0
M  V30 4428 H 412.163 -3.22308 -1.86945 0
M  V30 4429 H 412.276 -4.73312 -0.742469 0
M  V30 4430 H 410.64 -2.49942 -0.490021 0
M  V30 4431 H 411.423 -3.28926 0.982994 0
M  V30 4432 N 413.868 0.0150385 -1.57593 0
M  V30 4433 C 414.798 1.01047 -2.10503 0
M  V30 4434 C 415.779 1.36816 -1.01071 0
M  V30 4435 O 416.964 1.45455 -1.28672 0
M  V30 4436 C 414.094 2.30708 -2.59598 0
M  V30 4437 C 413.048 2.09142 -3.73421 0
M  V30 4438 C 412.374 3.44685 -4.08774 0
M  V30 4439 C 413.674 1.46619 -5.01298 0
M  V30 4440 H 415.368 0.569978 -2.93925 0
M  V30 4441 H 412.914 0.272724 -1.41394 0
M  V30 4442 H 414.867 3.00687 -2.95238 0
M  V30 4443 H 413.591 2.76843 -1.73279 0
M  V30 4444 H 412.25 1.41592 -3.38153 0
M  V30 4445 H 411.898 3.88495 -3.195 0
M  V30 4446 H 411.598 3.31077 -4.8545 0
M  V30 4447 H 413.122 4.16004 -4.4696 0
M  V30 4448 H 414.536 2.06535 -5.34805 0
M  V30 4449 H 412.933 1.43544 -5.82679 0
M  V30 4450 H 414.003 0.433611 -4.82957 0
M  V30 4451 N 415.346 1.54954 0.287554 0
M  V30 4452 C 416.592 1.75132 1.02257 0
M  V30 4453 C 416.925 0.542858 1.86458 0
M  V30 4454 O 416.2 -0.459856 1.88986 0
M  V30 4455 C 416.483 3.04812 1.91733 0
M  V30 4456 C 416.336 4.35985 1.10622 0
M  V30 4457 C 417.655 3.30438 2.90687 0
M  V30 4458 H 414.774 0.637194 0.370341 0
M  V30 4459 H 417.416 1.87678 0.296111 0
M  V30 4460 H 415.566 2.94247 2.53675 0
M  V30 4461 H 417.238 4.58487 0.508636 0
M  V30 4462 H 415.481 4.31865 0.409271 0
M  V30 4463 H 416.152 5.23017 1.76513 0
M  V30 4464 H 418.628 3.40701 2.38877 0
M  V30 4465 H 417.504 4.22467 3.50447 0
M  V30 4466 H 417.765 2.49377 3.65053 0
M  V30 4467 N 416.824 -0.551391 1.4764 0
M  V30 4468 C 418.07 -1.30789 1.55774 0
M  V30 4469 C 418.425 -1.91143 0.219562 0
M  V30 4470 O 417.718 -1.7521 -0.775375 0
M  V30 4471 C 417.912 -2.43469 2.61644 0
M  V30 4472 C 417.741 -1.94157 4.05627 0
M  V30 4473 C 416.511 -1.77734 4.7301 0
M  V30 4474 C 418.709 -1.48262 4.92466 0
M  V30 4475 N 416.691 -1.22823 6.01488 0
M  V30 4476 C 418.062 -1.05156 6.11017 0
M  V30 4477 C 420.117 -1.36367 4.78862 0
M  V30 4478 C 418.82 -0.513357 7.17466 0
M  V30 4479 C 420.846 -0.839484 5.85411 0
M  V30 4480 C 420.208 -0.418377 7.03156 0
M  V30 4481 H 416.307 -0.470406 0.624694 0
M  V30 4482 H 418.891 -0.624331 1.84419 0
M  V30 4483 H 417.062 -3.09348 2.34859 0
M  V30 4484 H 418.794 -3.10477 2.59589 0
M  V30 4485 H 415.549 -2.00623 4.29007 0
M  V30 4486 H 415.973 -0.974393 6.69951 0
M  V30 4487 H 420.615 -1.67535 3.88191 0
M  V30 4488 H 418.333 -0.189318 8.07878 0
M  V30 4489 H 421.919 -0.750921 5.76934 0
M  V30 4490 H 420.799 -0.0190538 7.84198 0
M  V30 4491 N 418.302 -1.35869 -0.798587 0
M  V30 4492 C 419.718 -1.16082 -1.09532 0
M  V30 4493 C 419.918 0.0213124 -2.01489 0
M  V30 4494 O 418.974 0.689488 -2.42904 0
M  V30 4495 C 420.287 -2.46748 -1.7186 0
M  V30 4496 C 421.835 -2.53028 -1.84244 0
M  V30 4497 C 422.31 -3.83758 -2.49988 0
M  V30 4498 N 423.801 -3.85053 -2.57465 0
M  V30 4499 C 424.536 -4.8294 -3.09122 0
M  V30 4500 N 424.032 -5.91217 -3.61157 0
M  V30 4501 N 425.825 -4.70369 -3.0775 0
M  V30 4502 H 417.976 -2.11571 -0.187461 0
M  V30 4503 H 420.239 -0.936726 -0.145765 0
M  V30 4504 H 419.945 -3.33471 -1.11759 0
M  V30 4505 H 419.819 -2.61883 -2.71472 0
M  V30 4506 H 422.206 -1.66729 -2.43486 0
M  V30 4507 H 422.287 -2.418 -0.834643 0
M  V30 4508 H 421.931 -4.70459 -1.91393 0
M  V30 4509 H 421.861 -3.92278 -3.5132 0
M  V30 4510 H 424.352 -3.06822 -2.20609 0
M  V30 4511 H 424.665 -6.61892 -3.98896 0
M  V30 4512 H 423.01 -5.94899 -3.59333 0
M  V30 4513 H 426.201 -3.84914 -2.66381 0
M  V30 4514 H 426.374 -5.46816 -3.47701 0
M  V30 4515 N 419.78 1.02168 -1.19998 0
M  V30 4516 C 421.028 1.75338 -1.00504 0
M  V30 4517 C 421.349 1.89387 0.464506 0
M  V30 4518 O 420.619 1.43268 1.33608 0
M  V30 4519 H 419.199 0.649564 -0.368885 0
M  V30 4520 H 421.861 1.23205 -1.51018 0
M  V30 4521 H 420.957 2.75892 -1.45912 0
M  V30 4522 N 421.258 1.00505 1.21394 0
M  V30 4523 C 422.188 0.585684 2.26035 0
M  V30 4524 C 423.169 -0.393525 1.65485 0
M  V30 4525 O 424.354 -0.281497 1.92149 0
M  V30 4526 C 421.484 -0.0884283 3.47187 0
M  V30 4527 C 420.438 0.810567 4.20254 0
M  V30 4528 C 419.764 0.00286382 5.347 0
M  V30 4529 C 421.064 2.1132 4.77641 0
M  V30 4530 H 422.758 1.46039 2.61368 0
M  V30 4531 H 420.304 0.703648 1.25638 0
M  V30 4532 H 422.257 -0.393286 4.19561 0
M  V30 4533 H 420.981 -0.997766 3.10986 0
M  V30 4534 H 419.64 1.09925 3.49731 0
M  V30 4535 H 419.288 -0.907765 4.94741 0
M  V30 4536 H 418.988 0.601444 5.84514 0
M  V30 4537 H 420.512 -0.295808 6.09883 0
M  V30 4538 H 421.926 1.87148 5.41893 0
M  V30 4539 H 420.323 2.66164 5.37845 0
M  V30 4540 H 421.393 2.78393 3.9702 0
M  V30 4541 N 422.737 -1.36956 0.779787 0
M  V30 4542 C 424.148 -1.82094 0.412156 0
M  V30 4543 C 424.499 -1.64926 -1.06273 0
M  V30 4544 O 423.624 -1.16483 -1.82375 0
M  V30 4545 C 424.219 -3.3059 0.741319 0
M  V30 4546 C 422.778 -3.73974 0.426641 0
M  V30 4547 C 421.925 -2.59368 0.980987 0
M  V30 4548 H 424.876 -1.25314 0.973758 0
M  V30 4549 H 424.897 -3.80489 0.028887 0
M  V30 4550 H 424.409 -3.43054 1.81482 0
M  V30 4551 H 422.51 -3.67076 -0.639215 0
M  V30 4552 H 422.623 -4.69778 0.940515 0
M  V30 4553 H 420.987 -2.51463 0.404757 0
M  V30 4554 H 421.77 -2.74621 2.06005 0
M  V30 4555 N 424.215 -0.530993 -1.48385 0
M  V30 4556 C 425.462 0.0027373 -2.025 0
M  V30 4557 C 425.79 1.34186 -1.40799 0
M  V30 4558 O 425.045 1.88 -0.543544 0
M  V30 4559 C 425.344 0.172742 -3.56982 0
M  V30 4560 C 425.01 -1.09215 -4.37473 0
M  V30 4561 C 423.672 -1.43881 -4.59186 0
M  V30 4562 C 426.024 -1.93153 -4.84088 0
M  V30 4563 C 423.352 -2.62381 -5.2476 0
M  V30 4564 C 425.704 -3.10833 -5.50968 0
M  V30 4565 C 424.368 -3.45843 -5.70919 0
M  V30 4566 H 423.638 0.00100165 -0.740999 0
M  V30 4567 H 426.285 -0.697219 -1.78357 0
M  V30 4568 H 424.59 0.955473 -3.79971 0
M  V30 4569 H 426.287 0.600642 -3.96476 0
M  V30 4570 H 422.877 -0.812177 -4.20834 0
M  V30 4571 H 427.061 -1.67683 -4.67115 0
M  V30 4572 H 422.317 -2.89707 -5.38405 0
M  V30 4573 H 426.491 -3.7618 -5.86056 0
M  V30 4574 H 424.118 -4.37764 -6.21503 0
M  V30 4575 N 425.693 1.55336 -0.266172 0
M  V30 4576 C 426.939 1.99692 0.353681 0
M  V30 4577 C 427.272 1.1543 1.56172 0
M  V30 4578 O 426.547 0.222218 1.93226 0
M  V30 4579 C 426.83 3.52316 0.74466 0
M  V30 4580 C 426.683 4.47337 -0.470101 0
M  V30 4581 C 428.002 4.10588 1.58447 0
M  V30 4582 H 425.121 0.725961 0.12708 0
M  V30 4583 H 427.763 1.86336 -0.371333 0
M  V30 4584 H 425.913 3.63829 1.36239 0
M  V30 4585 H 427.585 4.4778 -1.10864 0
M  V30 4586 H 425.828 4.19364 -1.10978 0
M  V30 4587 H 426.499 5.51788 -0.15291 0
M  V30 4588 H 428.975 4.02297 1.06286 0
M  V30 4589 H 427.851 5.17607 1.82686 0
M  V30 4590 H 428.112 3.60253 2.56262 0
M  V30 4591 N 427.171 -0.0066808 1.57599 0
M  V30 4592 C 428.399 -0.704087 1.94551 0
M  V30 4593 C 428.814 -1.67677 0.867746 0
M  V30 4594 O 428.171 -1.8185 -0.153925 0
M  V30 4595 C 428.222 -1.44177 3.31505 0
M  V30 4596 O 427.943 -0.508097 4.35144 0
M  V30 4597 C 429.444 -2.23429 3.82876 0
M  V30 4598 H 426.664 -0.196523 0.641576 0
M  V30 4599 H 429.208 0.042453 2.04456 0
M  V30 4600 H 427.363 -2.13999 3.22929 0
M  V30 4601 H 427.777 -1.02782 5.14331 0
M  V30 4602 H 429.251 -2.70552 4.8115 0
M  V30 4603 H 429.728 -3.05818 3.15233 0
M  V30 4604 H 430.334 -1.58636 3.94607 0
M  V30 4605 N 428.649 -1.55105 -0.279332 0
M  V30 4606 C 429.874 -1.7976 -1.03446 0
M  V30 4607 C 430.299 -0.565952 -1.79384 0
M  V30 4608 O 429.657 0.484259 -1.74713 0
M  V30 4609 C 429.705 -3.0179 -1.97371 0
M  V30 4610 O 428.809 -2.76432 -3.06038 0
M  V30 4611 H 428.15 -0.594334 -0.29608 0
M  V30 4612 H 430.68 -2.02235 -0.310165 0
M  V30 4613 H 430.69 -3.30351 -2.39441 0
M  V30 4614 H 429.365 -3.91085 -1.4151 0
M  V30 4615 H 427.942 -2.58949 -2.68328 0
M  V30 4616 N 430.127 0.543554 -1.4793 0
M  V30 4617 C 431.057 1.65888 -1.64327 0
M  V30 4618 C 432.038 1.62818 -0.492383 0
M  V30 4619 O 433.223 1.80226 -0.723338 0
M  V30 4620 C 430.353 3.04506 -1.67013 0
M  V30 4621 C 429.307 3.2243 -2.81466 0
M  V30 4622 C 428.633 4.61972 -2.69233 0
M  V30 4623 C 429.933 3.06496 -4.22915 0
M  V30 4624 H 431.627 1.52421 -2.57698 0
M  V30 4625 H 429.173 0.731849 -1.24016 0
M  V30 4626 H 431.126 3.82391 -1.77074 0
M  V30 4627 H 429.85 3.18964 -0.70212 0
M  V30 4628 H 428.509 2.46957 -2.70938 0
M  V30 4629 H 428.157 4.73247 -1.7043 0
M  V30 4630 H 427.857 4.74911 -3.46025 0
M  V30 4631 H 429.381 5.41974 -2.81242 0
M  V30 4632 H 430.795 3.74186 -4.34348 0
M  V30 4633 H 429.192 3.30938 -5.006 0
M  V30 4634 H 430.262 2.03077 -4.40327 0
M  V30 4635 N 431.605 1.3629 0.791371 0
M  V30 4636 C 432.568 1.30309 1.88553 0
M  V30 4637 C 433.568 0.211204 1.59407 0
M  V30 4638 O 434.758 0.465865 1.67855 0
M  V30 4639 C 431.89 1.01956 3.25297 0
M  V30 4640 H 433.083 2.27614 1.95273 0
M  V30 4641 H 430.636 1.21035 0.988953 0
M  V30 4642 H 431.371 0.050998 3.2426 0
M  V30 4643 H 431.156 1.80968 3.4784 0
M  V30 4644 H 432.646 1.0037 4.05359 0
M  V30 4645 N 433.083 -1.0153 1.20538 0
M  V30 4646 C 434.33 -1.75149 1.01633 0
M  V30 4647 C 434.658 -1.89189 -0.451399 0
M  V30 4648 O 433.913 -1.41551 -1.35136 0
M  V30 4649 C 434.212 -3.17213 1.64654 0
M  V30 4650 C 433.878 -3.23146 3.14464 0
M  V30 4651 C 432.54 -3.24472 3.55347 0
M  V30 4652 C 434.892 -3.21207 4.10458 0
M  V30 4653 C 432.22 -3.21532 4.90748 0
M  V30 4654 C 434.572 -3.19808 5.45807 0
M  V30 4655 C 433.236 -3.19439 5.86102 0
M  V30 4656 H 432.506 -0.640914 0.3719 0
M  V30 4657 H 435.153 -1.19071 1.49981 0
M  V30 4658 H 433.458 -3.76457 1.08571 0
M  V30 4659 H 435.155 -3.72871 1.4754 0
M  V30 4660 H 431.745 -3.2285 2.81897 0
M  V30 4661 H 435.929 -3.19351 3.79906 0
M  V30 4662 H 431.185 -3.19578 5.21229 0
M  V30 4663 H 435.359 -3.1726 6.19935 0
M  V30 4664 H 432.986 -3.16915 6.90991 0
M  V30 4665 N 434.561 -1.01147 -1.20859 0
M  V30 4666 C 435.808 -0.697865 -1.90095 0
M  V30 4667 C 436.136 0.772014 -1.78522 0
M  V30 4668 O 435.391 1.57595 -1.16027 0
M  V30 4669 C 435.69 -1.0727 -3.40922 0
M  V30 4670 C 435.356 -2.53792 -3.72693 0
M  V30 4671 C 434.018 -2.93829 -3.81075 0
M  V30 4672 C 436.37 -3.48674 -3.87397 0
M  V30 4673 C 433.698 -4.27696 -4.01613 0
M  V30 4674 C 436.05 -4.82223 -4.09444 0
M  V30 4675 C 434.714 -5.21973 -4.16054 0
M  V30 4676 H 433.984 -0.255367 -0.695607 0
M  V30 4677 H 436.631 -1.27111 -1.43231 0
M  V30 4678 H 434.936 -0.417799 -3.89566 0
M  V30 4679 H 436.633 -0.807818 -3.92779 0
M  V30 4680 H 433.223 -2.21768 -3.66765 0
M  V30 4681 H 437.407 -3.18904 -3.80281 0
M  V30 4682 H 432.663 -4.58055 -4.04964 0
M  V30 4683 H 436.837 -5.55672 -4.19763 0
M  V30 4684 H 434.464 -6.25717 -4.31721 0
M  V30 4685 N 436.039 1.36541 -0.78704 0
M  V30 4686 C 436.987 2.31965 -0.171724 0
M  V30 4687 C 437.981 1.55689 0.667631 0
M  V30 4688 O 439.187 1.70969 0.562981 0
M  V30 4689 H 435.562 0.751101 -0.0367545 0
M  V30 4690 H 437.533 2.81428 -0.992017 0
M  V30 4691 C 436.282 3.40968 0.680904 0
M  V30 4692 H 435.605 3.99775 0.0443961 0
M  V30 4693 H 437.045 4.10063 1.07815 0
M  V30 4694 C 435.504 2.82338 1.83813 0
M  V30 4695 O 436.034 2.74311 2.93456 0
M  V30 4696 N 434.24 2.39661 1.6435 0
M  V30 4697 H 433.787 2.46389 0.751668 0
M  V30 4698 H 433.745 2.00779 2.4194 0
M  V30 4699 N 437.518 0.538854 1.48102 0
M  V30 4700 C 438.743 0.0102694 2.07397 0
M  V30 4701 C 439.168 -1.26562 1.39153 0
M  V30 4702 O 438.526 -1.75357 0.460387 0
M  V30 4703 C 438.574 -0.187602 3.60112 0
M  V30 4704 O 437.678 -1.25432 3.92862 0
M  V30 4705 H 437.019 0.0430975 0.6626 0
M  V30 4706 H 439.549 0.749301 1.90385 0
M  V30 4707 H 439.559 -0.407517 4.0596 0
M  V30 4708 H 438.234 0.744386 4.09184 0
M  V30 4709 H 436.811 -1.01636 3.58782 0
M  V30 4710 N 438.996 -1.55193 0.274407 0
M  V30 4711 C 440.242 -1.99877 -0.343086 0
M  V30 4712 C 440.575 -1.16256 -1.55558 0
M  V30 4713 O 439.85 -0.232462 -1.93106 0
M  V30 4714 C 440.133 -3.52706 -0.725965 0
M  V30 4715 C 439.986 -4.47081 0.493818 0
M  V30 4716 C 441.305 -4.11422 -1.56268 0
M  V30 4717 H 438.424 -0.726625 -0.123229 0
M  V30 4718 H 441.066 -1.86136 0.38121 0
M  V30 4719 H 439.216 -3.64546 -1.34307 0
M  V30 4720 H 440.888 -4.47186 1.13237 0
M  V30 4721 H 439.131 -4.1877 1.13201 0
M  V30 4722 H 439.802 -5.51699 0.18217 0
M  V30 4723 H 442.278 -4.02855 -1.04151 0
M  V30 4724 H 441.154 -5.18568 -1.79939 0
M  V30 4725 H 441.415 -3.61607 -2.54348 0
M  V30 4726 N 440.474 -0.00167713 -1.576 0
M  V30 4727 C 441.437 0.974046 -2.07473 0
M  V30 4728 C 442.437 1.27143 -0.984444 0
M  V30 4729 O 443.627 1.21633 -1.24703 0
M  V30 4730 C 440.759 2.29849 -2.51759 0
M  V30 4731 H 441.952 0.54262 -2.9495 0
M  V30 4732 H 439.505 0.245829 -1.54355 0
M  V30 4733 H 440.24 2.77677 -1.67529 0
M  V30 4734 H 440.025 2.09584 -3.31386 0
M  V30 4735 H 441.515 2.9984 -2.90664 0
M  V30 4736 N 441.952 1.55251 0.271103 0
M  V30 4737 C 442.9 1.89054 1.35504 0
M  V30 4738 C 443.894 0.767064 1.51038 0
M  V30 4739 O 445.1 0.951429 1.528 0
M  V30 4740 H 441.475 0.600072 0.45323 0
M  V30 4741 H 443.446 2.79598 1.04247 0
M  V30 4742 C 442.195 2.18068 2.70817 0
M  V30 4743 H 441.518 3.04005 2.59656 0
M  V30 4744 H 442.958 2.4564 3.45597 0
M  V30 4745 C 441.417 0.988901 3.2206 0
M  V30 4746 O 441.947 0.224501 4.01072 0
M  V30 4747 N 440.153 0.786085 2.79766 0
M  V30 4748 H 439.7 1.40937 2.15626 0
M  V30 4749 H 439.658 -0.00969349 3.14399 0
M  V30 4750 N 443.43 -0.535701 1.48216 0
M  V30 4751 C 444.841 -1.11769 1.49548 0
M  V30 4752 C 445.192 -1.94442 0.26207 0
M  V30 4753 O 444.317 -2.06987 -0.631287 0
M  V30 4754 C 444.912 -2.03367 2.70975 0
M  V30 4755 C 443.471 -2.56795 2.75196 0
M  V30 4756 C 442.618 -1.33631 2.42977 0
M  V30 4757 H 445.569 -0.321232 1.55415 0
M  V30 4758 H 445.59 -2.87569 2.49167 0
M  V30 4759 H 445.102 -1.43169 3.60727 0
M  V30 4760 H 443.203 -3.20731 1.89638 0
M  V30 4761 H 443.316 -2.9632 3.76472 0
M  V30 4762 H 441.68 -1.6502 1.94012 0
M  V30 4763 H 442.463 -0.75194 3.34964 0
M  V30 4764 N 444.908 -1.36708 -0.784132 0
M  V30 4765 C 446.154 -1.31426 -1.54451 0
M  V30 4766 C 446.487 0.10476 -1.93917 0
M  V30 4767 O 445.762 1.05934 -1.6312 0
M  V30 4768 C 446.045 -2.24189 -2.818 0
M  V30 4769 C 445.898 -3.74813 -2.48667 0
M  V30 4770 C 447.217 -2.15626 -3.83658 0
M  V30 4771 H 444.336 -0.478739 -0.560337 0
M  V30 4772 H 446.978 -1.67305 -0.900498 0
M  V30 4773 H 445.128 -1.93722 -3.36755 0
M  V30 4774 H 446.8 -4.15823 -1.99722 0
M  V30 4775 H 445.043 -3.93989 -1.81535 0
M  V30 4776 H 445.714 -4.35138 -3.39646 0
M  V30 4777 H 448.19 -2.42456 -3.38163 0
M  V30 4778 H 447.066 -2.82694 -4.70506 0
M  V30 4779 H 447.327 -1.14522 -4.27009 0
M  V30 4780 N 446.386 1.0089 -1.21074 0
M  V30 4781 C 447.316 2.1145 -0.990523 0
M  V30 4782 C 448.297 1.69897 0.0831699 0
M  V30 4783 O 449.482 1.94052 -0.0758853 0
M  V30 4784 C 446.612 3.42914 -0.550177 0
M  V30 4785 C 445.566 3.98244 -1.56799 0
M  V30 4786 C 444.892 5.25568 -0.984013 0
M  V30 4787 C 446.192 4.30752 -2.95381 0
M  V30 4788 H 447.886 2.3013 -1.91521 0
M  V30 4789 H 445.432 1.10592 -0.92225 0
M  V30 4790 H 447.385 4.19653 -0.383305 0
M  V30 4791 H 446.109 3.24014 0.41015 0
M  V30 4792 H 444.768 3.23621 -1.72236 0
M  V30 4793 H 444.416 5.02998 -0.0155216 0
M  V30 4794 H 444.116 5.63551 -1.66384 0
M  V30 4795 H 445.64 6.04955 -0.828378 0
M  V30 4796 H 447.054 4.98349 -2.8341 0
M  V30 4797 H 445.451 4.79869 -3.60341 0
M  V30 4798 H 446.521 3.39192 -3.46521 0
M  V30 4799 N 447.864 1.01787 1.20321 0
M  V30 4800 C 449.094 0.72614 1.93419 0
M  V30 4801 C 449.502 -0.717317 1.75075 0
M  V30 4802 O 448.845 -1.49836 1.06278 0
M  V30 4803 C 448.907 0.983621 3.45782 0
M  V30 4804 C 448.571 2.41645 3.87888 0
M  V30 4805 C 449.568 3.39732 3.93545 0
M  V30 4806 C 447.253 2.75752 4.19841 0
M  V30 4807 C 449.247 4.69988 4.30569 0
M  V30 4808 C 446.934 4.06221 4.56539 0
M  V30 4809 C 447.932 5.0315 4.61876 0
M  V30 4810 O 447.62 6.31284 4.97731 0
M  V30 4811 H 447.352 0.265824 0.621541 0
M  V30 4812 H 449.906 1.3623 1.53722 0
M  V30 4813 H 448.136 0.290301 3.85609 0
M  V30 4814 H 449.825 0.683279 4.00108 0
M  V30 4815 H 450.591 3.14718 3.69022 0
M  V30 4816 H 446.47 2.00993 4.14877 0
M  V30 4817 H 450.014 5.45642 4.3465 0
M  V30 4818 H 445.911 4.31013 4.80518 0
M  V30 4819 H 446.679 6.35591 5.15719 0
M  V30 4820 N 449.342 -1.36122 0.79427 0
M  V30 4821 C 450.588 -1.99406 0.369452 0
M  V30 4822 C 450.921 -1.62886 -1.05743 0
M  V30 4823 O 450.196 -0.886053 -1.73145 0
M  V30 4824 C 450.479 -3.56046 0.538833 0
M  V30 4825 C 450.332 -4.02404 2.00976 0
M  V30 4826 C 451.651 -4.40079 -0.0431359 0
M  V30 4827 H 448.77 -0.724397 0.135712 0
M  V30 4828 H 451.412 -1.61461 1.00151 0
M  V30 4829 H 449.562 -3.885 0.000771004 0
M  V30 4830 H 451.234 -3.80415 2.60926 0
M  V30 4831 H 449.477 -3.53765 2.51063 0
M  V30 4832 H 450.148 -5.11344 2.07922 0
M  V30 4833 H 452.624 -4.14013 0.416228 0
M  V30 4834 H 451.5 -5.48799 0.105374 0
M  V30 4835 H 451.761 -4.27264 -1.13571 0
M  V30 4836 N 450.82 -0.546701 -1.47814 0
M  V30 4837 C 451.75 0.195317 -2.32682 0
M  V30 4838 C 452.731 0.918981 -1.43139 0
M  V30 4839 O 453.916 0.901501 -1.72008 0
M  V30 4840 C 451.046 1.23237 -3.247 0
M  V30 4841 C 450 0.625818 -4.234 0
M  V30 4842 C 449.326 1.76674 -5.04669 0
M  V30 4843 C 450.626 -0.413515 -5.2066 0
M  V30 4844 H 452.32 -0.513184 -2.94969 0
M  V30 4845 H 449.866 -0.248241 -1.41844 0
M  V30 4846 H 451.819 1.75955 -3.82907 0
M  V30 4847 H 450.543 1.97067 -2.60446 0
M  V30 4848 H 449.202 0.120023 -3.66403 0
M  V30 4849 H 448.85 2.49383 -4.36826 0
M  V30 4850 H 448.55 1.36673 -5.71484 0
M  V30 4851 H 450.074 2.29738 -5.65732 0
M  V30 4852 H 451.488 0.0272042 -5.73294 0
M  V30 4853 H 449.885 -0.731825 -5.95621 0
M  V30 4854 H 450.955 -1.31325 -4.66778 0
M  V30 4855 N 452.299 1.55045 -0.282633 0
M  V30 4856 C 453.527 2.04168 0.33512 0
M  V30 4857 C 453.942 1.16071 1.48906 0
M  V30 4858 O 453.299 0.182391 1.81586 0
M  V30 4859 C 453.35 3.52332 0.808957 0
M  V30 4860 O 453.071 4.37078 -0.299038 0
M  V30 4861 C 454.572 4.17375 1.49375 0
M  V30 4862 H 451.792 0.666744 0.0754543 0
M  V30 4863 H 454.336 2.00205 -0.416918 0
M  V30 4864 H 452.491 3.56715 1.51106 0
M  V30 4865 H 452.905 5.24458 0.0665514 0
M  V30 4866 H 454.379 5.22627 1.77664 0
M  V30 4867 H 454.856 3.65999 2.42778 0
M  V30 4868 H 455.462 4.17016 0.835305 0
M  V30 4869 N 453.777 0.010035 1.57597 0
M  V30 4870 C 455.017 -0.677084 1.9286 0
M  V30 4871 C 455.381 -1.70377 0.885192 0
M  V30 4872 O 456.582 -2.44199 1.12339 0
M  V30 4873 C 454.853 -1.29452 3.33132 0
M  V30 4874 S 456.412 -2.00537 3.90295 0
M  V30 4875 H 453.23 -0.223409 0.674989 0
M  V30 4876 H 455.832 0.0691289 1.95378 0
M  V30 4877 H 454.536 -0.534593 4.06903 0
M  V30 4878 H 454.067 -2.07845 3.34012 0
M  V30 4879 H 456.082 -3.28168 3.72183 0
M  V30 4880 N 455.255 -1.55392 -0.262866 0
M  V30 4881 C 456.666 -1.67079 -0.833158 0
M  V30 4882 C 457.017 -0.604539 -1.86654 0
M  V30 4883 O 456.142 0.252138 -2.14926 0
M  V30 4884 C 456.737 -3.02891 -1.51797 0
M  V30 4885 C 455.296 -3.16571 -2.03617 0
M  V30 4886 C 454.443 -2.62909 -0.881701 0
M  V30 4887 H 457.394 -1.58652 -0.0389986 0
M  V30 4888 H 457.415 -2.96445 -2.38538 0
M  V30 4889 H 456.927 -3.80473 -0.765619 0
M  V30 4890 H 455.028 -2.43782 -2.81782 0
M  V30 4891 H 455.141 -4.23271 -2.24452 0
M  V30 4892 H 453.505 -2.20324 -1.27786 0
M  V30 4893 H 454.288 -3.43003 -0.14269 0
M  V30 4894 N 456.733 0.527833 -1.48498 0
M  V30 4895 C 458.01 1.28905 -1.47115 0
M  V30 4896 C 458.39 2.10297 -0.184007 0
M  V30 4897 O 457.738 2.12728 0.834218 0
M  V30 4898 C 457.948 2.16866 -2.73441 0
M  V30 4899 C 459.296 2.76936 -3.21857 0
M  V30 4900 O 460.32 2.27152 -2.74373 0
M  V30 4901 O 459.179 3.67496 -4.04486 0
M  V30 4902 H 456.273 0.581918 -0.587623 0
M  V30 4903 H 458.819 0.544311 -1.60734 0
M  V30 4904 H 457.591 1.56521 -3.58632 0
M  V30 4905 H 457.214 2.98583 -2.62553 0
M  V30 4906 N 458.211 1.37122 0.776871 0
M  V30 4907 C 459.144 1.26835 1.89705 0
M  V30 4908 C 460.122 0.14992 1.61907 0
M  V30 4909 O 461.306 0.323242 1.85708 0
M  V30 4910 C 458.433 0.95986 3.24814 0
M  V30 4911 C 457.479 2.09447 3.7153 0
M  V30 4912 S 458.312 3.71368 3.85806 0
M  V30 4913 C 459.468 3.42659 5.23771 0
M  V30 4914 H 459.701 2.21647 1.98141 0
M  V30 4915 H 457.234 1.22685 0.937433 0
M  V30 4916 H 459.192 0.788696 4.02852 0
M  V30 4917 H 457.853 0.0293137 3.14086 0
M  V30 4918 H 457.046 1.8335 4.69467 0
M  V30 4919 H 456.648 2.2255 3.00578 0
M  V30 4920 H 458.94 2.9733 6.0877 0
M  V30 4921 H 459.883 4.39905 5.54878 0
M  V30 4922 H 460.291 2.77708 4.91466 0
M  V30 4923 N 459.689 -1.00246 1.21608 0
M  V30 4924 C 460.619 -2.10921 1.00172 0
M  V30 4925 C 461.6 -1.69938 -0.0741587 0
M  V30 4926 O 462.785 -1.94009 0.0861753 0
M  V30 4927 C 459.915 -3.42618 0.568355 0
M  V30 4928 C 458.869 -3.97407 1.58909 0
M  V30 4929 C 458.195 -5.25038 1.01187 0
M  V30 4930 C 459.495 -4.2918 2.97661 0
M  V30 4931 H 461.189 -2.29112 1.92739 0
M  V30 4932 H 458.735 -1.10101 0.928102 0
M  V30 4933 H 460.688 -4.19444 0.405555 0
M  V30 4934 H 459.412 -3.24227 -0.392961 0
M  V30 4935 H 458.071 -3.22703 1.73949 0
M  V30 4936 H 457.719 -5.02982 0.0421965 0
M  V30 4937 H 457.419 -5.62661 1.6937 0
M  V30 4938 H 458.943 -6.04507 0.860448 0
M  V30 4939 H 460.357 -4.96839 2.86049 0
M  V30 4940 H 458.754 -4.77952 3.6288 0
M  V30 4941 H 459.824 -3.3735 3.48315 0
M  V30 4942 N 461.167 -1.02423 -1.1978 0
M  V30 4943 C 462.583 -0.740459 -1.41384 0
M  V30 4944 C 462.783 0.676827 -1.89793 0
M  V30 4945 O 461.839 1.4435 -2.0717 0
M  V30 4946 C 463.152 -1.77264 -2.42895 0
M  V30 4947 C 464.7 -1.79165 -2.56649 0
M  V30 4948 C 465.175 -2.8133 -3.6141 0
M  V30 4949 N 466.666 -2.80118 -3.68901 0
M  V30 4950 C 467.401 -3.55824 -4.49641 0
M  V30 4951 N 466.897 -4.41231 -5.34123 0
M  V30 4952 N 468.69 -3.44387 -4.44246 0
M  V30 4953 H 460.841 -1.9391 -0.866764 0
M  V30 4954 H 463.104 -0.838074 -0.443098 0
M  V30 4955 H 462.81 -2.7884 -2.14339 0
M  V30 4956 H 462.684 -1.59108 -3.42001 0
M  V30 4957 H 465.071 -0.782702 -2.84531 0
M  V30 4958 H 465.152 -2.01396 -1.57713 0
M  V30 4959 H 464.796 -3.82394 -3.34271 0
M  V30 4960 H 464.726 -2.56359 -4.59986 0
M  V30 4961 H 467.217 -2.1817 -3.08562 0
M  V30 4962 H 467.53 -4.95747 -5.92836 0
M  V30 4963 H 465.875 -4.45306 -5.33599 0
M  V30 4964 H 469.066 -2.7708 -3.77285 0
M  V30 4965 H 469.239 -4.0364 -5.06931 0
M  V30 4966 N 462.645 1.35699 -0.801477 0
M  V30 4967 C 463.592 2.29876 -0.206294 0
M  V30 4968 C 464.562 1.52565 0.656752 0
M  V30 4969 O 465.747 1.81024 0.602906 0
M  V30 4970 C 462.887 3.39052 0.643272 0
M  V30 4971 C 462 4.31335 -0.239644 0
M  V30 4972 C 461.135 5.27599 0.61744 0
M  V30 4973 C 460.174 6.11521 -0.26619 0
M  V30 4974 N 459.311 6.99938 0.550571 0
M  V30 4975 H 464.151 2.80187 -1.01484 0
M  V30 4976 H 461.688 1.37902 -0.511997 0
M  V30 4977 H 463.646 4.0101 1.15094 0
M  V30 4978 H 462.276 2.9003 1.41713 0
M  V30 4979 H 461.328 3.70426 -0.865381 0
M  V30 4980 H 462.64 4.90243 -0.919985 0
M  V30 4981 H 461.794 5.94906 1.19045 0
M  V30 4982 H 460.533 4.69176 1.33137 0
M  V30 4983 H 459.538 5.43166 -0.851507 0
M  V30 4984 H 460.763 6.72022 -0.9779 0
M  V30 4985 H 458.709 6.44008 1.24856 0
M  V30 4986 H 458.626 7.55966 -0.071832 0
M  V30 4987 H 459.894 7.71599 1.10702 0
M  V30 4988 N 464.123 0.554532 1.47522 0
M  V30 4989 C 465.053 -0.182974 2.32782 0
M  V30 4990 C 466.034 -0.911377 1.43624 0
M  V30 4991 O 467.219 -0.892366 1.72483 0
M  V30 4992 C 464.349 -1.21513 3.25349 0
M  V30 4993 C 463.303 -0.603355 4.23726 0
M  V30 4994 C 462.629 -1.73995 5.05598 0
M  V30 4995 C 463.929 0.441121 5.20434 0
M  V30 4996 H 465.623 0.52882 2.94693 0
M  V30 4997 H 463.169 0.255759 1.41711 0
M  V30 4998 H 465.122 -1.73922 3.83835 0
M  V30 4999 H 463.846 -1.95683 2.61487 0
M  V30 5000 H 462.505 -0.10059 3.66462 0
M  V30 5001 H 462.153 -2.47063 4.38143 0
M  V30 5002 H 461.853 -1.3364 5.72201 0
M  V30 5003 H 463.377 -2.26735 5.66942 0
M  V30 5004 H 464.791 0.00319931 5.733 0
M  V30 5005 H 463.188 0.763402 5.95224 0
M  V30 5006 H 464.258 1.33799 4.66075 0
M  V30 5007 N 465.601 -1.54893 0.290851 0
M  V30 5008 C 467.017 -1.59476 -0.0628432 0
M  V30 5009 C 467.217 -1.30795 -1.5328 0
M  V30 5010 O 466.273 -1.07644 -2.28406 0
M  V30 5011 C 467.586 -2.98928 0.325962 0
M  V30 5012 C 469.134 -3.11799 0.273882 0
M  V30 5013 C 469.609 -4.53544 0.637359 0
M  V30 5014 N 471.1 -4.59433 0.589507 0
M  V30 5015 C 471.835 -5.67164 0.84335 0
M  V30 5016 N 471.331 -6.82975 1.16263 0
M  V30 5017 N 473.124 -5.56786 0.771091 0
M  V30 5018 H 465.275 -1.71798 1.24896 0
M  V30 5019 H 467.538 -0.801879 0.505663 0
M  V30 5020 H 467.244 -3.24805 1.34887 0
M  V30 5021 H 467.118 -3.75793 -0.325441 0
M  V30 5022 H 469.505 -2.85677 -0.739765 0
M  V30 5023 H 469.586 -2.37112 0.959766 0
M  V30 5024 H 469.23 -4.80394 1.64877 0
M  V30 5025 H 469.16 -5.26553 -0.0704866 0
M  V30 5026 H 471.651 -3.76245 0.353252 0
M  V30 5027 H 471.964 -7.61048 1.34257 0
M  V30 5028 H 470.309 -6.84552 1.20057 0
M  V30 5029 H 473.5 -4.65187 0.521383 0
M  V30 5030 H 473.673 -6.40664 0.972295 0
M  V30 5031 N 467.08 -0.0183926 -1.57589 0
M  V30 5032 C 468.496 0.337897 -1.55982 0
M  V30 5033 C 468.696 1.73604 -1.02294 0
M  V30 5034 O 467.752 2.43589 -0.664895 0
M  V30 5035 C 469.065 0.196305 -3.00059 0
M  V30 5036 C 470.613 0.269875 -3.11834 0
M  V30 5037 C 471.088 0.157197 -4.5773 0
M  V30 5038 N 472.579 0.214521 -4.62703 0
M  V30 5039 C 473.314 0.150955 -5.73201 0
M  V30 5040 N 472.81 0.0369212 -6.9279 0
M  V30 5041 N 474.603 0.204162 -5.61729 0
M  V30 5042 H 466.754 -0.93279 -1.90821 0
M  V30 5043 H 469.017 -0.359253 -0.877292 0
M  V30 5044 H 468.723 -0.766383 -3.43248 0
M  V30 5045 H 468.597 0.970908 -3.6449 0
M  V30 5046 H 470.984 1.22302 -2.68563 0
M  V30 5047 H 471.065 -0.534918 -2.50144 0
M  V30 5048 H 470.709 -0.792479 -5.01679 0
M  V30 5049 H 470.639 0.980717 -5.17387 0
M  V30 5050 H 473.13 0.303238 -3.76681 0
M  V30 5051 H 473.443 -0.00518321 -7.728 0
M  V30 5052 H 471.788 0.0022886 -6.95 0
M  V30 5053 H 474.979 0.291575 -4.67191 0
M  V30 5054 H 475.152 0.15116 -6.47824 0
M  V30 5055 N 468.558 1.5553 0.254621 0
M  V30 5056 C 469.783 1.81383 1.00573 0
M  V30 5057 C 470.208 0.594419 1.78461 0
M  V30 5058 O 469.566 -0.456403 1.75461 0
M  V30 5059 C 469.614 3.04892 1.92545 0
M  V30 5060 O 468.718 2.81266 3.01601 0
M  V30 5061 H 468.059 0.598969 0.286587 0
M  V30 5062 H 470.589 2.02703 0.277952 0
M  V30 5063 H 470.599 3.34119 2.34155 0
M  V30 5064 H 469.274 3.93287 1.3527 0
M  V30 5065 H 467.851 2.63185 2.64174 0
M  V30 5066 N 470.036 -0.519951 1.48776 0
M  V30 5067 C 470.966 -1.63253 1.66945 0
M  V30 5068 C 471.947 -1.62014 0.518224 0
M  V30 5069 O 473.132 -1.79053 0.751919 0
M  V30 5070 C 470.262 -3.0181 1.71836 0
M  V30 5071 C 469.216 -3.17911 2.8656 0
M  V30 5072 C 468.542 -4.5763 2.76548 0
M  V30 5073 C 469.842 -2.99729 4.27738 0
M  V30 5074 H 471.536 -1.48302 2.6009 0
M  V30 5075 H 469.082 -0.712026 1.25165 0
M  V30 5076 H 471.035 -3.79525 1.83135 0
M  V30 5077 H 469.759 -3.17806 0.752775 0
M  V30 5078 H 468.418 -2.42616 2.74833 0
M  V30 5079 H 468.066 -4.70476 1.77937 0
M  V30 5080 H 467.766 -4.69346 3.53536 0
M  V30 5081 H 469.29 -5.37431 2.89828 0
M  V30 5082 H 470.704 -3.67228 4.40246 0
M  V30 5083 H 469.101 -3.22932 5.05801 0
M  V30 5084 H 470.171 -1.96047 4.43502 0
M  V30 5085 N 471.514 -1.37532 -0.769588 0
M  V30 5086 C 472.93 -1.18379 -1.07045 0
M  V30 5087 C 473.13 -0.0214312 -2.01489 0
M  V30 5088 O 472.186 0.637809 -2.44312 0
M  V30 5089 C 473.499 -2.50338 -1.66588 0
M  V30 5090 C 475.047 -2.56879 -1.78835 0
M  V30 5091 C 475.522 -3.88974 -2.41792 0
M  V30 5092 N 477.013 -3.90428 -2.4924 0
M  V30 5093 C 477.748 -4.89388 -2.98809 0
M  V30 5094 N 477.244 -5.98745 -3.48535 0
M  V30 5095 N 479.037 -4.76791 -2.97703 0
M  V30 5096 H 471.188 -2.11921 -0.142541 0
M  V30 5097 H 473.451 -0.939608 -0.125863 0
M  V30 5098 H 473.157 -3.35767 -1.0466 0
M  V30 5099 H 473.031 -2.67583 -2.65856 0
M  V30 5100 H 475.418 -1.71856 -2.39895 0
M  V30 5101 H 475.499 -2.43516 -0.783166 0
M  V30 5102 H 475.143 -4.74412 -1.81371 0
M  V30 5103 H 475.073 -3.99641 -3.4292 0
M  V30 5104 H 477.564 -3.11433 -2.14052 0
M  V30 5105 H 477.877 -6.70205 -3.84767 0
M  V30 5106 H 476.222 -6.02387 -3.46634 0
M  V30 5107 H 479.413 -3.90478 -2.58157 0
M  V30 5108 H 479.586 -5.54069 -3.36024 0
M  V30 5109 N 472.992 0.995999 -1.22138 0
M  V30 5110 C 474.22 1.77066 -1.07029 0
M  V30 5111 C 474.635 1.8495 0.379357 0
M  V30 5112 O 473.992 1.3174 1.26297 0
M  V30 5113 C 474.043 3.20533 -1.67155 0
M  V30 5114 O 473.764 3.13082 -3.06449 0
M  V30 5115 C 475.265 4.14461 -1.5728 0
M  V30 5116 H 472.485 0.556179 -0.375374 0
M  V30 5117 H 475.029 1.25238 -1.61666 0
M  V30 5118 H 473.184 3.6944 -1.16589 0
M  V30 5119 H 473.598 4.03283 -3.35355 0
M  V30 5120 H 475.072 5.1289 -2.04078 0
M  V30 5121 H 475.549 4.36005 -0.528795 0
M  V30 5122 H 476.155 3.71449 -2.07136 0
M  V30 5123 N 474.47 1.03057 1.19235 0
M  V30 5124 C 475.716 0.729098 1.89241 0
M  V30 5125 C 476.049 -0.740573 1.79525 0
M  V30 5126 O 475.324 -1.53946 1.18874 0
M  V30 5127 C 475.607 1.18304 3.40112 0
M  V30 5128 C 475.46 2.71406 3.5869 0
M  V30 5129 C 476.779 0.765161 4.33397 0
M  V30 5130 H 473.898 0.266338 0.687192 0
M  V30 5131 H 476.54 1.28079 1.40341 0
M  V30 5132 H 474.69 0.713672 3.81889 0
M  V30 5133 H 476.362 3.26303 3.26074 0
M  V30 5134 H 474.605 3.11717 3.01687 0
M  V30 5135 H 475.276 2.98225 4.64506 0
M  V30 5136 H 477.752 1.16889 3.99345 0
M  V30 5137 H 476.628 1.11065 5.37546 0
M  V30 5138 H 476.889 -0.332372 4.40849 0
M  V30 5139 N 475.948 -1.35272 0.808662 0
M  V30 5140 C 476.878 -2.32315 0.234981 0
M  V30 5141 C 477.859 -1.57572 -0.64071 0
M  V30 5142 O 479.044 -1.8563 -0.570551 0
M  V30 5143 C 476.174 -3.41801 -0.615601 0
M  V30 5144 C 475.128 -4.27694 0.161767 0
M  V30 5145 C 474.454 -5.28519 -0.810649 0
M  V30 5146 C 475.754 -5.04231 1.36193 0
M  V30 5147 H 477.448 -2.80543 1.04575 0
M  V30 5148 H 474.994 -1.3488 0.504315 0
M  V30 5149 H 476.947 -4.08693 -1.02702 0
M  V30 5150 H 475.671 -2.92186 -1.45928 0
M  V30 5151 H 474.33 -3.62384 0.554382 0
M  V30 5152 H 473.978 -4.75171 -1.64988 0
M  V30 5153 H 473.678 -5.8686 -0.294822 0
M  V30 5154 H 475.202 -5.98283 -1.22023 0
M  V30 5155 H 476.616 -5.64058 1.02528 0
M  V30 5156 H 475.013 -5.72077 1.81239 0
M  V30 5157 H 476.083 -4.34753 2.14751 0
M  V30 5158 N 477.426 -0.562348 -1.47226 0
M  V30 5159 C 478.336 0.185466 -2.33866 0
M  V30 5160 C 479.352 0.906713 -1.48508 0
M  V30 5161 O 480.528 0.874458 -1.81425 0
M  V30 5162 C 477.593 1.19904 -3.25306 0
M  V30 5163 C 476.654 0.484669 -4.26555 0
M  V30 5164 C 475.887 1.44996 -5.13626 0
M  V30 5165 O 476.11 2.68515 -5.03245 0
M  V30 5166 O 475.044 0.971642 -5.94006 0
M  V30 5167 H 478.87 -0.525361 -2.99121 0
M  V30 5168 H 476.455 -0.322916 -1.45868 0
M  V30 5169 H 478.337 1.78399 -3.81774 0
M  V30 5170 H 477.012 1.8917 -2.62672 0
M  V30 5171 H 475.919 -0.141605 -3.73832 0
M  V30 5172 H 477.252 -0.166634 -4.91918 0
M  V30 5173 N 478.904 1.54736 -0.299062 0
M  V30 5174 C 480.129 2.04975 0.316254 0
M  V30 5175 C 480.554 1.17501 1.46885 0
M  V30 5176 O 479.912 0.178678 1.80417 0
M  V30 5177 C 479.96 3.52672 0.751997 0
M  V30 5178 O 479.064 3.68226 1.85697 0
M  V30 5179 H 478.405 0.661126 0.0617175 0
M  V30 5180 H 480.935 1.99805 -0.440341 0
M  V30 5181 H 480.945 3.94488 1.04133 0
M  V30 5182 H 479.62 4.158 -0.0911482 0
M  V30 5183 H 478.197 3.38316 1.56834 0
M  V30 5184 N 480.382 0.0267497 1.57577 0
M  V30 5185 C 481.628 -0.653371 1.91987 0
M  V30 5186 C 481.961 -1.71915 0.903263 0
M  V30 5187 O 481.236 -1.94358 -0.0743387 0
M  V30 5188 C 481.519 -1.272 3.36886 0
M  V30 5189 C 481.372 -0.215938 4.49281 0
M  V30 5190 C 482.691 -2.19069 3.81703 0
M  V30 5191 H 479.81 -0.236047 0.698177 0
M  V30 5192 H 482.452 0.0835236 1.89816 0
M  V30 5193 H 480.602 -1.90005 3.38866 0
M  V30 5194 H 482.274 0.41449 4.59434 0
M  V30 5195 H 480.517 0.458855 4.31366 0
M  V30 5196 H 481.188 -0.688347 5.47691 0
M  V30 5197 H 483.664 -1.66253 3.81444 0
M  V30 5198 H 482.54 -2.59307 4.83788 0
M  V30 5199 H 482.801 -3.08087 3.17072 0
M  V30 5200 N 481.861 -1.55662 -0.24637 0
M  V30 5201 C 482.791 -1.93377 -1.30873 0
M  V30 5202 C 483.772 -0.798773 -1.50179 0
M  V30 5203 O 484.957 -1.0591 -1.62778 0
M  V30 5204 C 482.087 -2.22893 -2.66338 0
M  V30 5205 C 481.041 -3.38649 -2.61727 0
M  V30 5206 C 480.367 -3.53708 -4.00992 0
M  V30 5207 C 481.667 -4.74323 -2.18666 0
M  V30 5208 H 483.361 -2.82363 -0.995552 0
M  V30 5209 H 480.907 -1.35854 -0.477464 0
M  V30 5210 H 482.86 -2.47866 -3.40794 0
M  V30 5211 H 481.584 -1.30733 -2.99293 0
M  V30 5212 H 480.243 -3.13685 -1.89729 0
M  V30 5213 H 479.891 -2.58967 -4.31214 0
M  V30 5214 H 479.591 -4.31551 -3.98795 0
M  V30 5215 H 481.115 -3.81003 -4.77147 0
M  V30 5216 H 482.529 -4.98665 -2.82854 0
M  V30 5217 H 480.926 -5.55273 -2.27579 0
M  V30 5218 H 481.996 -4.71349 -1.13834 0
M  V30 5219 N 483.339 0.512053 -1.4905 0
M  V30 5220 C 484.585 1.26874 -1.58212 0
M  V30 5221 C 484.918 1.9241 -0.263073 0
M  V30 5222 O 484.193 1.80181 0.732476 0
M  V30 5223 C 484.476 2.34428 -2.73341 0
M  V30 5224 C 484.329 1.73466 -4.15006 0
M  V30 5225 C 485.648 3.36073 -2.84154 0
M  V30 5226 H 482.767 0.459924 -0.575881 0
M  V30 5227 H 485.409 0.568587 -1.81293 0
M  V30 5228 H 483.559 2.94146 -2.53792 0
M  V30 5229 H 485.231 1.17661 -4.46042 0
M  V30 5230 H 483.474 1.03921 -4.21168 0
M  V30 5231 H 484.145 2.51426 -4.91415 0
M  V30 5232 H 486.621 2.86332 -3.01916 0
M  V30 5233 H 485.497 4.08703 -3.66406 0
M  V30 5234 H 485.758 3.97725 -1.93048 0
M  V30 5235 N 484.817 1.37938 0.762283 0
M  V30 5236 C 486.094 1.24196 1.51112 0
M  V30 5237 C 486.474 -0.160409 2.1049 0
M  V30 5238 O 485.822 -1.16904 1.96331 0
M  V30 5239 C 486.032 2.34537 2.58445 0
M  V30 5240 C 487.38 2.7254 3.25588 0
M  V30 5241 O 488.404 2.33783 2.68745 0
M  V30 5242 O 487.263 3.39343 4.28379 0
M  V30 5243 H 484.357 0.485175 0.669727 0
M  V30 5244 H 486.903 1.49743 0.798438 0
M  V30 5245 H 485.675 3.28406 2.12756 0
M  V30 5246 H 485.298 2.10505 3.37303 0
M  V30 5247 N 486.295 -0.989507 1.22664 0
M  V30 5248 C 487.572 -1.70326 0.961688 0
M  V30 5249 C 487.952 -2.04537 -0.522279 0
M  V30 5250 O 487.3 -1.73136 -1.49118 0
M  V30 5251 C 487.51 -2.95135 1.86269 0
M  V30 5252 C 488.858 -3.67842 2.12078 0
M  V30 5253 O 489.882 -3.0515 1.83745 0
M  V30 5254 O 488.741 -4.80644 2.60083 0
M  V30 5255 H 485.835 -0.743589 0.361946 0
M  V30 5256 H 488.381 -1.04555 1.33665 0
M  V30 5257 H 487.153 -2.66382 2.8663 0
M  V30 5258 H 486.776 -3.68645 1.48952 0
M  V30 5259 N 487.773 -1.03688 -1.18687 0
M  V30 5260 C 488.998 -0.757819 -1.93059 0
M  V30 5261 C 489.423 0.678353 -1.75442 0
M  V30 5262 O 488.781 1.46938 -1.06203 0
M  V30 5263 C 488.829 -1.12423 -3.42627 0
M  V30 5264 O 487.933 -0.247505 -4.11657 0
M  V30 5265 H 487.274 -0.279245 -0.602427 0
M  V30 5266 H 489.804 -1.3857 -1.5053 0
M  V30 5267 H 489.814 -1.08454 -3.93322 0
M  V30 5268 H 488.489 -2.17049 -3.54771 0
M  V30 5269 H 487.066 -0.34649 -3.71287 0
M  V30 5270 N 489.251 1.34841 -0.815825 0
M  V30 5271 C 490.161 2.33425 -0.234462 0
M  V30 5272 C 491.177 1.62295 0.627413 0
M  V30 5273 O 492.353 1.94109 0.536987 0
M  V30 5274 C 489.418 3.41471 0.599849 0
M  V30 5275 C 488.479 4.28362 -0.283596 0
M  V30 5276 C 487.712 5.31248 0.51099 0
M  V30 5277 O 487.935 5.43056 1.7449 0
M  V30 5278 O 486.869 6.01812 -0.10297 0
M  V30 5279 H 490.695 2.84962 -1.05024 0
M  V30 5280 H 488.28 1.37774 -0.577809 0
M  V30 5281 H 490.162 4.07464 1.07475 0
M  V30 5282 H 488.837 2.9219 1.39308 0
M  V30 5283 H 487.744 3.65318 -0.805836 0
M  V30 5284 H 489.077 4.81066 -1.041 0
M  V30 5285 N 490.729 0.570148 1.46925 0
M  V30 5286 C 491.659 -0.158274 2.32963 0
M  V30 5287 C 492.64 -0.896093 1.44583 0
M  V30 5288 O 493.825 -0.874022 1.7342 0
M  V30 5289 C 490.955 -1.18055 3.26619 0
M  V30 5290 C 489.909 -0.558379 4.24342 0
M  V30 5291 C 489.235 -1.68623 5.07415 0
M  V30 5292 C 490.535 0.496295 5.19937 0
M  V30 5293 H 492.229 0.560046 2.94115 0
M  V30 5294 H 489.775 0.270775 1.41431 0
M  V30 5295 H 491.728 -1.69841 3.85658 0
M  V30 5296 H 490.452 -1.92899 2.63548 0
M  V30 5297 H 489.111 -0.0617157 3.66548 0
M  V30 5298 H 488.759 -2.42402 4.40738 0
M  V30 5299 H 488.459 -1.27564 5.73586 0
M  V30 5300 H 489.983 -2.20709 5.69315 0
M  V30 5301 H 491.397 0.0640052 5.73264 0
M  V30 5302 H 489.794 0.82649 5.94381 0
M  V30 5303 H 490.864 1.38735 4.6463 0
M  V30 5304 N 492.207 -1.54576 0.307264 0
M  V30 5305 C 493.455 -1.99867 -0.299574 0
M  V30 5306 C 493.776 -1.19714 -1.53927 0
M  V30 5307 O 493.046 -0.29472 -1.9367 0
M  V30 5308 H 491.626 -0.738299 -0.113683 0
M  V30 5309 H 494.288 -1.9032 0.420042 0
M  V30 5310 H 493.384 -3.06901 -0.567283 0
M  V30 5311 N 493.685 -0.035106 -1.57561 0
M  V30 5312 C 494.933 0.64096 -1.91667 0
M  V30 5313 C 495.254 1.72323 -0.912681 0
M  V30 5314 O 494.524 1.95849 0.0449089 0
M  V30 5315 H 493.104 0.239743 -0.707483 0
M  V30 5316 H 495.766 -0.084321 -1.94718 0
M  V30 5317 H 494.862 1.08987 -2.92452 0
M  V30 5318 N 495.163 1.55791 0.238111 0
M  V30 5319 C 496.126 1.90239 1.27835 0
M  V30 5320 C 497.126 0.779552 1.4064 0
M  V30 5321 O 498.316 1.04747 1.3919 0
M  V30 5322 C 495.448 2.13859 2.65475 0
M  V30 5323 H 496.641 2.83262 0.985034 0
M  V30 5324 H 494.194 1.48818 0.477799 0
M  V30 5325 H 494.929 1.23334 2.99932 0
M  V30 5326 H 494.714 2.95643 2.57561 0
M  V30 5327 H 496.204 2.41664 3.40571 0
M  V30 5328 N 496.642 -0.504142 1.49319 0
M  V30 5329 C 497.89 -1.25598 1.58334 0
M  V30 5330 C 498.211 -1.93114 0.270538 0
M  V30 5331 O 497.481 -1.82585 -0.709891 0
M  V30 5332 H 496.061 -0.466571 0.58337 0
M  V30 5333 H 498.723 -0.584547 1.85928 0
M  V30 5334 H 497.819 -2.02159 2.37778 0
M  V30 5335 N 498.12 -1.38341 -0.754957 0
M  V30 5336 C 499.345 -1.37882 -1.5493 0
M  V30 5337 C 499.77 0.0296385 -1.88077 0
M  V30 5338 O 499.128 1.01133 -1.50472 0
M  V30 5339 C 499.176 -2.23996 -2.82592 0
M  V30 5340 O 498.28 -1.65612 -3.77686 0
M  V30 5341 H 497.621 -0.470384 -0.468652 0
M  V30 5342 H 500.151 -1.82084 -0.933082 0
M  V30 5343 H 500.161 -2.37806 -3.3153 0
M  V30 5344 H 498.836 -3.26365 -2.57796 0
M  V30 5345 H 497.413 -1.60936 -3.36384 0
M  V30 5346 N 499.598 0.982988 -1.23187 0
M  V30 5347 C 500.823 1.76455 -1.08988 0
M  V30 5348 C 501.248 1.84726 0.354691 0
M  V30 5349 O 500.606 1.30699 1.25649 0
M  V30 5350 C 500.654 3.17094 -1.71708 0
M  V30 5351 O 499.758 4.00648 -0.977477 0
M  V30 5352 H 499.099 0.542988 -0.382177 0
M  V30 5353 H 501.629 1.23413 -1.63188 0
M  V30 5354 H 501.639 3.67684 -1.76841 0
M  V30 5355 H 500.314 3.10389 -2.76823 0
M  V30 5356 H 498.891 3.59161 -1.0029 0
M  V30 5357 N 501.076 1.04316 1.18135 0
M  V30 5358 C 502.492 0.762858 1.40188 0
M  V30 5359 C 502.692 -0.646547 1.90846 0
M  V30 5360 O 501.748 -1.41036 2.0944 0
M  V30 5361 C 503.061 1.81106 2.40044 0
M  V30 5362 C 504.609 1.83226 2.53766 0
M  V30 5363 C 505.084 2.87044 3.56889 0
M  V30 5364 N 506.575 2.85951 3.64398 0
M  V30 5365 C 507.31 3.62932 4.43923 0
M  V30 5366 N 506.806 4.49672 5.27036 0
M  V30 5367 N 508.599 3.51411 4.38711 0
M  V30 5368 H 500.75 1.95264 0.835805 0
M  V30 5369 H 503.013 0.845017 0.429709 0
M  V30 5370 H 502.719 2.82214 2.09876 0
M  V30 5371 H 502.593 1.64529 3.39426 0
M  V30 5372 H 504.98 0.827869 2.8325 0
M  V30 5373 H 505.061 2.03879 1.54489 0
M  V30 5374 H 504.705 3.87663 3.28145 0
M  V30 5375 H 504.635 2.63645 4.5585 0
M  V30 5376 H 507.126 2.23051 3.05052 0
M  V30 5377 H 507.439 5.05116 5.84874 0
M  V30 5378 H 505.784 4.53738 5.26447 0
M  V30 5379 H 508.975 2.83047 3.72829 0
M  V30 5380 H 509.148 4.11654 5.00445 0
M  V30 5381 N 502.554 -1.34406 0.822964 0
M  V30 5382 C 503.97 -1.51275 0.508727 0
M  V30 5383 C 504.17 -1.76776 -0.967083 0
M  V30 5384 O 503.226 -1.81871 -1.75155 0
M  V30 5385 C 504.539 -2.67765 1.36829 0
M  V30 5386 C 506.087 -2.81647 1.36542 0
M  V30 5387 C 506.562 -4.01181 2.20947 0
M  V30 5388 N 508.053 -4.08388 2.18571 0
M  V30 5389 C 508.788 -5.00036 2.80627 0
M  V30 5390 N 508.284 -5.96906 3.51674 0
M  V30 5391 N 510.077 -4.92908 2.70181 0
M  V30 5392 H 502.228 -1.16113 1.77852 0
M  V30 5393 H 504.491 -0.56947 0.757897 0
M  V30 5394 H 504.197 -2.55551 2.41633 0
M  V30 5395 H 504.071 -3.62779 1.03303 0
M  V30 5396 H 506.458 -2.93303 0.325163 0
M  V30 5397 H 506.539 -1.87443 1.74066 0
M  V30 5398 H 506.183 -3.90286 3.25022 0
M  V30 5399 H 506.113 -4.94599 1.80774 0
M  V30 5400 H 508.604 -3.39051 1.66891 0
M  V30 5401 H 508.917 -6.63468 3.96271 0
M  V30 5402 H 507.262 -5.9703 3.5578 0
M  V30 5403 H 510.453 -4.1619 2.14251 0
M  V30 5404 H 510.626 -5.64137 3.18831 0
M  V30 5405 N 504.032 -0.577932 -1.46621 0
M  V30 5406 C 505.448 -0.239242 -1.57797 0
M  V30 5407 C 505.648 1.25843 -1.57371 0
M  V30 5408 O 504.704 2.03988 -1.48813 0
M  V30 5409 C 506.017 -0.884227 -2.87405 0
M  V30 5410 C 507.565 -0.857373 -3.01028 0
M  V30 5411 C 508.04 -1.48181 -4.33366 0
M  V30 5412 N 509.531 -1.44593 -4.40053 0
M  V30 5413 C 510.266 -1.89852 -5.41058 0
M  V30 5414 N 509.762 -2.43062 -6.48762 0
M  V30 5415 N 511.555 -1.80797 -5.3223 0
M  V30 5416 H 503.706 -1.55073 -1.45142 0
M  V30 5417 H 505.969 -0.647903 -0.692044 0
M  V30 5418 H 505.675 -1.93759 -2.93514 0
M  V30 5419 H 505.549 -0.389585 -3.75183 0
M  V30 5420 H 507.936 0.187357 -2.94505 0
M  V30 5421 H 508.017 -1.38999 -2.14739 0
M  V30 5422 H 507.661 -2.52572 -4.40647 0
M  V30 5423 H 507.591 -0.924464 -5.18422 0
M  V30 5424 H 510.082 -1.05694 -3.62819 0
M  V30 5425 H 510.395 -2.75466 -7.22038 0
M  V30 5426 H 508.74 -2.47085 -6.49595 0
M  V30 5427 H 511.931 -1.38989 -4.46989 0
M  V30 5428 H 512.104 -2.16385 -6.10804 0
M  V30 5429 N 505.51 1.54411 -0.315457 0
M  V30 5430 C 506.926 1.59556 0.037464 0
M  V30 5431 C 507.126 1.33217 1.5118 0
M  V30 5432 O 506.182 1.11264 2.26664 0
M  V30 5433 C 507.495 2.98372 -0.373477 0
M  V30 5434 C 509.043 3.11324 -0.323452 0
M  V30 5435 C 509.518 4.52472 -0.709433 0
M  V30 5436 N 511.009 4.58437 -0.662524 0
M  V30 5437 C 511.744 5.65751 -0.933474 0
M  V30 5438 N 511.24 6.81039 -1.27114 0
M  V30 5439 N 513.033 5.55489 -0.859573 0
M  V30 5440 H 505.184 1.6979 -1.27614 0
M  V30 5441 H 507.447 0.793732 -0.518356 0
M  V30 5442 H 507.153 3.22618 -1.40037 0
M  V30 5443 H 507.027 3.76264 0.265615 0
M  V30 5444 H 509.414 2.86818 0.694223 0
M  V30 5445 H 509.495 2.35555 -0.997367 0
M  V30 5446 H 509.139 4.7771 -1.72498 0
M  V30 5447 H 509.069 5.26598 -0.0132923 0
M  V30 5448 H 511.56 3.75636 -0.413065 0
M  V30 5449 H 511.873 7.58816 -1.46348 0
M  V30 5450 H 510.218 6.82555 -1.30932 0
M  V30 5451 H 513.409 4.64299 -0.595324 0
M  V30 5452 H 513.582 6.39036 -1.0741 0
M  V30 5453 N 506.988 0.0434614 1.5754 0
M  V30 5454 C 508.216 -0.641835 1.96693 0
M  V30 5455 C 508.631 -1.64832 0.920652 0
M  V30 5456 O 507.988 -1.82247 -0.095993 0
M  V30 5457 C 508.039 -1.33557 3.35924 0
M  V30 5458 O 507.76 -0.369403 4.3654 0
M  V30 5459 C 509.261 -2.11135 3.89791 0
M  V30 5460 H 506.481 -0.176013 0.647503 0
M  V30 5461 H 509.025 0.107478 2.04217 0
M  V30 5462 H 507.18 -2.03617 3.29574 0
M  V30 5463 H 507.594 -0.863674 5.1734 0
M  V30 5464 H 509.068 -2.55107 4.89514 0
M  V30 5465 H 509.545 -2.95634 3.24803 0
M  V30 5466 H 510.151 -1.46002 3.99454 0
M  V30 5467 N 508.466 -1.55915 -0.229846 0
M  V30 5468 C 509.691 -1.8296 -0.976743 0
M  V30 5469 C 510.116 -0.622735 -1.77493 0
M  V30 5470 O 509.474 0.428431 -1.76165 0
M  V30 5471 C 509.522 -3.07916 -1.8767 0
M  V30 5472 O 508.626 -2.86028 -2.97088 0
M  V30 5473 H 507.967 -0.603453 -0.277021 0
M  V30 5474 H 510.497 -2.0312 -0.245669 0
M  V30 5475 H 510.507 -3.37802 -2.2881 0
M  V30 5476 H 509.182 -3.95389 -1.28996 0
M  V30 5477 H 507.759 -2.67355 -2.59954 0
M  V30 5478 N 509.944 0.496216 -1.49584 0
M  V30 5479 C 511.169 1.27865 -1.63295 0
M  V30 5480 C 511.594 1.85592 -0.306156 0
M  V30 5481 O 510.952 1.66092 0.726851 0
M  V30 5482 C 511 2.38128 -2.7079 0
M  V30 5483 O 510.104 3.42108 -2.30296 0
M  V30 5484 H 509.445 0.377279 -0.546403 0
M  V30 5485 H 511.975 0.593497 -1.95803 0
M  V30 5486 H 511.985 2.8382 -2.93104 0
M  V30 5487 H 510.66 1.95479 -3.67098 0
M  V30 5488 H 509.237 3.02301 -2.18331 0
M  V30 5489 N 511.423 1.38739 0.74761 0
M  V30 5490 C 512.651 1.38521 1.53686 0
M  V30 5491 C 513.066 -0.0235129 1.88785 0
M  V30 5492 O 512.423 -0.991662 1.53207 0
M  V30 5493 C 512.474 2.24641 2.83229 0
M  V30 5494 O 512.195 3.60026 2.49625 0
M  V30 5495 C 513.696 2.32669 3.77333 0
M  V30 5496 H 510.916 0.473589 0.475347 0
M  V30 5497 H 513.46 1.82395 0.924786 0
M  V30 5498 H 511.615 1.84213 3.40799 0
M  V30 5499 H 512.029 4.05435 3.3275 0
M  V30 5500 H 513.503 2.97201 4.65162 0
M  V30 5501 H 513.98 1.3421 4.18192 0
M  V30 5502 H 514.586 2.73512 3.25685 0
M  V30 5503 N 512.901 -0.976442 1.23707 0
M  V30 5504 C 513.864 -2.0511 1.02287 0
M  V30 5505 C 514.864 -1.60791 -0.0167195 0
M  V30 5506 O 516.054 -1.72761 0.223408 0
M  V30 5507 C 513.186 -3.36458 0.548507 0
M  V30 5508 H 514.379 -2.25545 1.9766 0
M  V30 5509 H 511.932 -1.15042 1.05806 0
M  V30 5510 H 512.667 -3.21713 -0.408818 0
M  V30 5511 H 512.452 -3.69967 1.29874 0
M  V30 5512 H 513.942 -4.15489 0.419406 0
M  V30 5513 N 514.379 -1.04941 -1.1758 0
M  V30 5514 C 515.795 -0.770282 -1.39781 0
M  V30 5515 C 515.995 0.636417 -1.91186 0
M  V30 5516 O 515.051 1.39923 -2.10185 0
M  V30 5517 C 516.364 -1.82376 -2.3908 0
M  V30 5518 C 517.912 -1.84569 -2.52791 0
M  V30 5519 C 518.387 -2.88933 -3.55361 0
M  V30 5520 N 519.878 -2.8788 -3.62877 0
M  V30 5521 C 520.613 -3.65282 -4.41992 0
M  V30 5522 N 520.109 -4.52461 -5.24643 0
M  V30 5523 N 521.902 -3.53732 -4.36841 0
M  V30 5524 H 514.053 -1.95705 -0.825438 0
M  V30 5525 H 516.316 -0.847284 -0.425222 0
M  V30 5526 H 516.022 -2.83323 -2.08376 0
M  V30 5527 H 515.896 -1.66327 -3.38549 0
M  V30 5528 H 518.283 -0.842879 -2.82807 0
M  V30 5529 H 518.364 -2.04696 -1.53406 0
M  V30 5530 H 518.008 -3.89398 -3.26085 0
M  V30 5531 H 517.938 -2.66059 -4.54445 0
M  V30 5532 H 520.429 -2.24666 -3.03864 0
M  V30 5533 H 520.742 -5.08211 -5.82187 0
M  V30 5534 H 519.087 -4.56524 -5.24033 0
M  V30 5535 H 522.278 -2.85021 -3.71323 0
M  V30 5536 H 522.451 -4.14302 -4.98255 0
M  V30 5537 N 515.857 1.33968 -0.830081 0
M  V30 5538 C 517.082 2.02813 -0.433796 0
M  V30 5539 C 517.507 1.62076 0.954614 0
M  V30 5540 O 516.865 0.808955 1.62252 0
M  V30 5541 C 516.913 3.56348 -0.552115 0
M  V30 5542 O 516.017 4.10202 0.425191 0
M  V30 5543 H 515.358 0.639817 -0.177567 0
M  V30 5544 H 517.888 1.7106 -1.12248 0
M  V30 5545 H 517.898 4.05722 -0.430513 0
M  V30 5546 H 516.573 3.85344 -1.56471 0
M  V30 5547 H 515.15 3.71979 0.261878 0
M  V30 5548 N 517.335 0.585699 1.46312 0
M  V30 5549 C 518.298 -0.135673 2.28798 0
M  V30 5550 C 519.298 -0.815988 1.38558 0
M  V30 5551 O 520.488 -0.667487 1.60904 0
M  V30 5552 C 517.62 -1.20163 3.1902 0
M  V30 5553 H 518.813 0.589257 2.94054 0
M  V30 5554 H 516.366 0.343794 1.52472 0
M  V30 5555 H 517.101 -1.95804 2.58517 0
M  V30 5556 H 516.886 -0.718282 3.85465 0
M  V30 5557 H 518.376 -1.70749 3.81096 0
M  V30 5558 N 518.813 -1.54241 0.323641 0
M  V30 5559 C 520.038 -2.05452 -0.283605 0
M  V30 5560 C 520.463 -1.19823 -1.44997 0
M  V30 5561 O 519.821 -0.207358 -1.8011 0
M  V30 5562 C 519.869 -3.53823 -0.695795 0
M  V30 5563 O 518.973 -3.71134 -1.79815 0
M  V30 5564 H 518.314 -0.662024 -0.0511917 0
M  V30 5565 H 520.844 -1.99079 0.472073 0
M  V30 5566 H 520.854 -3.96094 -0.978434 0
M  V30 5567 H 519.529 -4.15602 0.157287 0
M  V30 5568 H 518.106 -3.40768 -1.51431 0
M  V30 5569 N 520.291 -0.0518155 -1.57515 0
M  V30 5570 C 521.702 0.483787 -1.80323 0
M  V30 5571 C 522.053 1.70879 -0.964099 0
M  V30 5572 O 521.178 2.15643 -0.180872 0
M  V30 5573 C 521.773 0.884459 -3.27052 0
M  V30 5574 C 520.332 1.36504 -3.50776 0
M  V30 5575 C 519.479 0.340539 -2.75201 0
M  V30 5576 H 522.43 -0.277691 -1.56252 0
M  V30 5577 H 522.451 1.74733 -3.38007 0
M  V30 5578 H 521.963 -0.00731093 -3.88099 0
M  V30 5579 H 520.064 2.27598 -2.95009 0
M  V30 5580 H 520.177 1.35675 -4.59488 0
M  V30 5581 H 518.541 0.81356 -2.41357 0
M  V30 5582 H 519.324 -0.543156 -3.38976 0
M  V30 5583 N 521.769 1.56035 0.221574 0
M  V30 5584 C 522.699 1.95434 1.2778 0
M  V30 5585 C 523.68 0.822564 1.48889 0
M  V30 5586 O 524.865 1.08486 1.61072 0
M  V30 5587 C 521.995 2.27102 2.62759 0
M  V30 5588 C 520.949 3.4277 2.56306 0
M  V30 5589 C 520.275 3.60043 3.95314 0
M  V30 5590 C 521.575 4.77742 2.11093 0
M  V30 5591 H 523.269 2.83912 0.950504 0
M  V30 5592 H 520.815 1.36596 0.455791 0
M  V30 5593 H 522.768 2.53256 3.36807 0
M  V30 5594 H 521.492 1.35478 2.97176 0
M  V30 5595 H 520.151 3.16664 1.84715 0
M  V30 5596 H 519.799 2.65794 4.27039 0
M  V30 5597 H 519.499 4.37841 3.91879 0
M  V30 5598 H 521.023 3.88545 4.71025 0
M  V30 5599 H 522.437 5.03102 2.74885 0
M  V30 5600 H 520.834 5.58823 2.18716 0
M  V30 5601 H 521.904 4.731 1.06321 0
M  V30 5602 N 523.247 -0.488276 1.49845 0
M  V30 5603 C 524.21 -1.57069 1.66919 0
M  V30 5604 C 525.21 -1.51445 0.540479 0
M  V30 5605 O 526.4 -1.5437 0.807188 0
M  V30 5606 C 523.532 -2.96718 1.67844 0
M  V30 5607 H 524.725 -1.43254 2.63474 0
M  V30 5608 H 522.278 -0.713435 1.39068 0
M  V30 5609 H 523.013 -3.15996 0.7292 0
M  V30 5610 H 522.798 -3.02208 2.49826 0
M  V30 5611 H 524.288 -3.75335 1.83066 0
M  V30 5612 N 524.725 -1.39134 -0.740242 0
M  V30 5613 C 525.655 -1.40165 -1.86751 0
M  V30 5614 C 526.636 -0.265708 -1.68012 0
M  V30 5615 O 527.821 -0.47076 -1.88408 0
M  V30 5616 C 524.951 -1.2392 -3.2444 0
M  V30 5617 C 523.905 -2.34858 -3.57807 0
M  V30 5618 C 523.231 -2.03707 -4.94376 0
M  V30 5619 C 524.531 -3.77159 -3.61315 0
M  V30 5620 H 526.225 -2.345 -1.86145 0
M  V30 5621 H 523.771 -1.12875 -0.89416 0
M  V30 5622 H 525.724 -1.23263 -4.02969 0
M  V30 5623 H 524.448 -0.26051 -3.25559 0
M  V30 5624 H 523.107 -2.34723 -2.81604 0
M  V30 5625 H 522.755 -1.04289 -4.9207 0
M  V30 5626 H 522.455 -2.78016 -5.17669 0
M  V30 5627 H 523.979 -2.04691 -5.75268 0
M  V30 5628 H 525.393 -3.79252 -4.29931 0
M  V30 5629 H 523.79 -4.50784 -3.96124 0
M  V30 5630 H 524.86 -4.08513 -2.61238 0
M  V30 5631 N 526.204 0.969867 -1.24223 0
M  V30 5632 C 527.444 1.72754 -1.0925 0
M  V30 5633 C 527.808 1.88541 0.362787 0
M  V30 5634 O 529.009 2.61217 0.633969 0
M  V30 5635 C 527.28 3.08204 -1.80957 0
M  V30 5636 S 528.839 3.99418 -1.81688 0
M  V30 5637 H 525.657 0.593981 -0.390778 0
M  V30 5638 H 528.259 1.15792 -1.5752 0
M  V30 5639 H 526.963 2.94372 -2.85961 0
M  V30 5640 H 526.494 3.70232 -1.33012 0
M  V30 5641 H 528.509 4.8828 -0.883001 0
M  V30 5642 N 527.682 1.05563 1.17022 0
M  V30 5643 C 528.907 0.788437 1.91829 0
M  V30 5644 C 529.332 -0.650356 1.76499 0
M  V30 5645 O 528.69 -1.45229 1.08527 0
M  V30 5646 C 528.738 1.1786 3.40795 0
M  V30 5647 O 527.842 0.312965 4.11211 0
M  V30 5648 H 527.183 0.288794 0.597908 0
M  V30 5649 H 529.713 1.40948 1.48307 0
M  V30 5650 H 529.723 1.14697 3.91546 0
M  V30 5651 H 528.398 2.22666 3.51273 0
M  V30 5652 H 526.975 0.405515 3.70689 0
M  V30 5653 N 529.16 -1.33526 0.837174 0
M  V30 5654 C 530.576 -1.50727 0.524743 0
M  V30 5655 C 530.776 -1.77792 -0.948279 0
M  V30 5656 O 529.832 -1.83719 -1.73216 0
M  V30 5657 C 531.145 -2.66299 1.39661 0
M  V30 5658 C 532.693 -2.80183 1.39521 0
M  V30 5659 C 533.168 -3.98815 2.25189 0
M  V30 5660 N 534.659 -4.06047 2.2289 0
M  V30 5661 C 535.394 -4.97032 2.85915 0
M  V30 5662 N 534.89 -5.93143 3.57985 0
M  V30 5663 N 536.683 -4.90015 2.75394 0
M  V30 5664 H 528.834 -1.1422 1.79074 0
M  V30 5665 H 531.097 -0.561399 0.763894 0
M  V30 5666 H 530.803 -2.52974 2.4433 0
M  V30 5667 H 530.677 -3.61663 1.07145 0
M  V30 5668 H 533.064 -2.92942 0.356253 0
M  V30 5669 H 533.145 -1.85586 1.76044 0
M  V30 5670 H 532.789 -3.86817 3.29143 0
M  V30 5671 H 532.719 -4.92654 1.86009 0
M  V30 5672 H 535.21 -3.37262 1.70478 0
M  V30 5673 H 535.523 -6.59227 4.03286 0
M  V30 5674 H 533.868 -5.93223 3.62093 0
M  V30 5675 H 537.059 -4.13894 2.18654 0
M  V30 5676 H 537.232 -5.60724 3.24796 0
M  V30 5677 N 530.638 -0.59345 -1.46 0
M  V30 5678 C 532.049 -0.169801 -1.85926 0
M  V30 5679 C 532.4 1.26984 -1.49565 0
M  V30 5680 O 531.525 1.96076 -0.915602 0
M  V30 5681 C 532.12 -0.301385 -3.37457 0
M  V30 5682 C 530.679 0.0674684 -3.7634 0
M  V30 5683 C 529.826 -0.632383 -2.69993 0
M  V30 5684 H 532.777 -0.801014 -1.37002 0
M  V30 5685 H 532.798 0.470331 -3.77582 0
M  V30 5686 H 532.31 -1.34927 -3.63891 0
M  V30 5687 H 530.411 1.11507 -3.55523 0
M  V30 5688 H 530.524 -0.316332 -4.78055 0
M  V30 5689 H 528.888 -0.0714961 -2.546 0
M  V30 5690 H 529.671 -1.68212 -2.99265 0
M  V30 5691 N 532.116 1.54067 -0.331816 0
M  V30 5692 C 533.026 2.28322 0.539104 0
M  V30 5693 C 534.042 1.32985 1.1221 0
M  V30 5694 O 535.218 1.6601 1.1403 0
M  V30 5695 C 532.283 3.03277 1.68 0
M  V30 5696 C 531.344 4.14216 1.12798 0
M  V30 5697 C 530.577 4.85588 2.2145 0
M  V30 5698 O 530.8 4.56536 3.41952 0
M  V30 5699 O 529.734 5.72309 1.86404 0
M  V30 5700 H 533.56 3.03632 -0.0641692 0
M  V30 5701 H 531.145 1.49083 -0.0972365 0
M  V30 5702 H 533.027 3.50189 2.34405 0
M  V30 5703 H 531.702 2.30834 2.2693 0
M  V30 5704 H 530.609 3.71635 0.428782 0
M  V30 5705 H 531.942 4.88727 0.583698 0
M  V30 5706 N 533.594 0.0601682 1.57485 0
M  V30 5707 C 534.504 -0.926121 2.15546 0
M  V30 5708 C 535.52 -1.33532 1.11558 0
M  V30 5709 O 536.696 -1.4104 1.4377 0
M  V30 5710 C 533.761 -2.17952 2.69625 0
M  V30 5711 C 532.822 -1.82783 3.88444 0
M  V30 5712 C 532.055 -3.02148 4.39935 0
M  V30 5713 O 532.278 -4.15803 3.90466 0
M  V30 5714 O 531.212 -2.82639 5.31412 0
M  V30 5715 H 535.038 -0.462289 3.00161 0
M  V30 5716 H 532.623 -0.162246 1.48516 0
M  V30 5717 H 534.505 -2.91474 3.04337 0
M  V30 5718 H 533.18 -2.63456 1.88077 0
M  V30 5719 H 532.087 -1.06549 3.58606 0
M  V30 5720 H 533.42 -1.42072 4.7125 0
M  V30 5721 N 535.072 -1.5615 -0.213296 0
M  V30 5722 C 536.483 -1.69645 -0.779582 0
M  V30 5723 C 536.834 -0.663615 -1.84636 0
M  V30 5724 O 535.959 0.183633 -2.15619 0
M  V30 5725 C 536.554 -3.07567 -1.42084 0
M  V30 5726 C 535.113 -3.22889 -1.93442 0
M  V30 5727 C 534.26 -2.65581 -0.797612 0
M  V30 5728 H 537.211 -1.58696 0.0114951 0
M  V30 5729 H 537.232 -3.03884 -2.28986 0
M  V30 5730 H 536.744 -3.82716 -0.644187 0
M  V30 5731 H 534.845 -2.52623 -2.73884 0
M  V30 5732 H 534.958 -4.30197 -2.10872 0
M  V30 5733 H 533.322 -2.24278 -1.20712 0
M  V30 5734 H 534.105 -3.43284 -0.033494 0
M  V30 5735 N 536.55 0.480323 -1.50102 0
M  V30 5736 C 537.966 0.813295 -1.37323 0
M  V30 5737 C 538.166 1.97027 -0.422206 0
M  V30 5738 O 537.222 2.5212 0.138563 0
M  V30 5739 C 538.535 1.13404 -2.78496 0
M  V30 5740 C 540.083 1.24104 -2.87345 0
M  V30 5741 C 540.558 1.59497 -4.29331 0
M  V30 5742 N 542.049 1.66507 -4.32238 0
M  V30 5743 C 542.784 1.95378 -5.39087 0
M  V30 5744 N 542.28 2.22333 -6.56155 0
M  V30 5745 N 544.073 1.96803 -5.26522 0
M  V30 5746 H 536.224 -0.282291 -2.10516 0
M  V30 5747 H 538.487 -0.063752 -0.945854 0
M  V30 5748 H 538.193 0.357064 -3.49883 0
M  V30 5749 H 538.067 2.07251 -3.15162 0
M  V30 5750 H 540.454 2.00871 -2.16183 0
M  V30 5751 H 540.535 0.282593 -2.54234 0
M  V30 5752 H 540.179 0.832736 -5.01027 0
M  V30 5753 H 540.109 2.56477 -4.59921 0
M  V30 5754 H 542.6 1.47753 -3.47818 0
M  V30 5755 H 542.913 2.43611 -7.33399 0
M  V30 5756 H 541.258 2.19745 -6.59346 0
M  V30 5757 H 544.449 1.75235 -4.34062 0
M  V30 5758 H 544.622 2.18969 -6.09883 0
M  V30 5759 N 538.028 1.39524 0.732853 0
M  V30 5760 C 539.276 1.36594 1.48951 0
M  V30 5761 C 539.597 -0.0367507 1.94965 0
M  V30 5762 O 538.867 -0.988391 1.69138 0
M  V30 5763 H 537.447 0.502673 0.552566 0
M  V30 5764 H 540.109 1.74411 0.869869 0
M  V30 5765 H 539.205 2.03 2.3706 0
M  V30 5766 N 539.506 -0.963266 1.24736 0
M  V30 5767 C 540.917 -1.52145 1.08207 0
M  V30 5768 C 541.268 -1.93142 -0.345061 0
M  V30 5769 O 540.393 -1.77769 -1.23399 0
M  V30 5770 C 540.988 -2.76486 1.95808 0
M  V30 5771 C 539.547 -3.28646 1.8349 0
M  V30 5772 C 538.694 -2.01529 1.90476 0
M  V30 5773 H 541.645 -0.781083 1.38148 0
M  V30 5774 H 541.666 -3.49986 1.49297 0
M  V30 5775 H 541.178 -2.46617 2.99669 0
M  V30 5776 H 539.279 -3.63357 0.824787 0
M  V30 5777 H 539.392 -3.97246 2.67829 0
M  V30 5778 H 537.756 -2.16442 1.34258 0
M  V30 5779 H 538.539 -1.7402 2.95926 0
M  V30 5780 N 540.985 -1.06182 -1.16461 0
M  V30 5781 C 541.948 -0.675723 -2.19013 0
M  V30 5782 C 542.948 0.277963 -1.58379 0
M  V30 5783 O 544.138 0.0604962 -1.74095 0
M  V30 5784 C 541.27 0.00591459 -3.40899 0
M  V30 5785 H 542.463 -1.58353 -2.54685 0
M  V30 5786 H 540.016 -0.856908 -1.30716 0
M  V30 5787 H 540.751 0.92652 -3.10783 0
M  V30 5788 H 540.536 -0.67984 -3.86161 0
M  V30 5789 H 542.026 0.26181 -4.16778 0
M  V30 5790 N 542.463 1.3308 -0.844243 0
M  V30 5791 C 543.879 1.50447 -0.532729 0
M  V30 5792 C 544.079 1.78292 0.938837 0
M  V30 5793 O 543.135 1.84635 1.72239 0
M  V30 5794 C 544.448 2.65555 -1.41072 0
M  V30 5795 C 545.996 2.7944 -1.41005 0
M  V30 5796 C 546.471 3.97616 -2.27301 0
M  V30 5797 N 547.962 4.0486 -2.2504 0
M  V30 5798 C 548.697 4.95508 -2.88547 0
M  V30 5799 N 548.193 5.91236 -3.61126 0
M  V30 5800 N 549.986 4.88548 -2.77989 0
M  V30 5801 H 542.137 1.13269 -1.79677 0
M  V30 5802 H 544.4 0.55734 -0.766861 0
M  V30 5803 H 544.106 2.51675 -2.45668 0
M  V30 5804 H 543.98 3.61089 -1.09061 0
M  V30 5805 H 546.367 2.92749 -0.371784 0
M  V30 5806 H 546.448 1.8465 -1.77026 0
M  V30 5807 H 546.092 3.85066 -3.3119 0
M  V30 5808 H 546.022 4.91661 -1.88619 0
M  V30 5809 H 548.513 3.36353 -1.72264 0
M  V30 5810 H 548.826 6.57079 -4.06776 0
M  V30 5811 H 547.171 5.91295 -3.65234 0
M  V30 5812 H 550.362 4.12729 -2.20846 0
M  V30 5813 H 550.535 5.58994 -3.27765 0
M  V30 5814 N 543.941 0.601185 1.45683 0
M  V30 5815 C 544.871 -0.108824 2.33246 0
M  V30 5816 C 545.852 -0.865223 1.46451 0
M  V30 5817 O 547.037 -0.83704 1.75235 0
M  V30 5818 C 544.167 -1.11101 3.2905 0
M  V30 5819 C 543.121 -0.468244 4.25431 0
M  V30 5820 C 542.447 -1.57822 5.10878 0
M  V30 5821 C 543.747 0.606469 5.18767 0
M  V30 5822 H 545.441 0.622306 2.92861 0
M  V30 5823 H 542.987 0.300714 1.40825 0
M  V30 5824 H 544.94 -1.61622 3.89174 0
M  V30 5825 H 543.664 -1.87265 2.67581 0
M  V30 5826 H 542.323 0.0160484 3.66596 0
M  V30 5827 H 541.971 -2.32998 4.45781 0
M  V30 5828 H 541.671 -1.15369 5.76163 0
M  V30 5829 H 543.195 -2.08583 5.73869 0
M  V30 5830 H 544.609 0.185589 5.73 0
M  V30 5831 H 543.006 0.952381 5.92494 0
M  V30 5832 H 544.076 1.48559 4.61582 0
M  V30 5833 N 545.419 -1.53889 0.339982 0
M  V30 5834 C 546.349 -2.27843 -0.510856 0
M  V30 5835 C 547.33 -1.29267 -1.10563 0
M  V30 5836 O 548.515 -1.58104 -1.12768 0
M  V30 5837 C 545.645 -3.04857 -1.66372 0
M  V30 5838 C 544.599 -4.10907 -1.19746 0
M  V30 5839 C 543.925 -4.75855 -2.43857 0
M  V30 5840 C 545.225 -5.21435 -0.300501 0
M  V30 5841 H 546.919 -2.99212 0.106067 0
M  V30 5842 H 544.465 -1.43904 0.0524533 0
M  V30 5843 H 546.418 -3.5533 -2.26537 0
M  V30 5844 H 545.142 -2.31133 -2.30749 0
M  V30 5845 H 543.801 -3.61342 -0.618654 0
M  V30 5846 H 543.449 -3.9873 -3.06633 0
M  V30 5847 H 543.149 -5.47502 -2.13343 0
M  V30 5848 H 544.673 -5.2911 -3.04754 0
M  V30 5849 H 546.087 -5.67565 -0.80889 0
M  V30 5850 H 544.484 -6.00036 -0.0874076 0
M  V30 5851 H 545.554 -4.80328 0.664321 0
M  V30 5852 N 546.897 -0.0685191 -1.57451 0
M  V30 5853 C 548.145 0.60016 -1.92983 0
M  V30 5854 C 548.466 1.70348 -0.949028 0
M  V30 5855 O 547.736 1.959 0.00335647 0
M  V30 5856 H 546.316 0.224682 -0.712409 0
M  V30 5857 H 548.978 -0.125605 -1.94495 0
M  V30 5858 H 548.074 1.02759 -2.94698 0
M  V30 5859 N 548.375 1.56261 0.205012 0
M  V30 5860 C 549.621 1.81211 0.923805 0
M  V30 5861 C 549.976 0.644065 1.813 0
M  V30 5862 O 549.269 -0.361208 1.88164 0
M  V30 5863 C 549.463 3.09722 1.78345 0
M  V30 5864 C 549.292 4.38915 0.978979 0
M  V30 5865 C 548.062 5.00874 0.667332 0
M  V30 5866 C 550.26 5.13199 0.336386 0
M  V30 5867 N 548.242 6.137 -0.156814 0
M  V30 5868 C 549.613 6.19009 -0.350402 0
M  V30 5869 C 551.668 4.97266 0.251101 0
M  V30 5870 C 550.371 7.10616 -1.11434 0
M  V30 5871 C 552.397 5.89288 -0.499413 0
M  V30 5872 C 551.759 6.94536 -1.17468 0
M  V30 5873 H 547.858 0.714528 0.317764 0
M  V30 5874 H 550.442 1.93738 0.193317 0
M  V30 5875 H 548.613 2.98448 2.48563 0
M  V30 5876 H 550.345 3.22798 2.44098 0
M  V30 5877 H 547.1 4.63151 0.989366 0
M  V30 5878 H 547.524 6.74695 -0.558206 0
M  V30 5879 H 552.166 4.15935 0.758823 0
M  V30 5880 H 549.884 7.91417 -1.63353 0
M  V30 5881 H 553.47 5.79034 -0.566627 0
M  V30 5882 H 552.35 7.64513 -1.74613 0
M  V30 5883 N 549.853 -0.472356 1.50355 0
M  V30 5884 C 550.783 -1.57859 1.72055 0
M  V30 5885 C 551.764 -1.60283 0.569505 0
M  V30 5886 O 552.949 -1.7657 0.808503 0
M  V30 5887 C 550.079 -2.96191 1.81351 0
M  V30 5888 C 549.033 -3.08633 2.96529 0
M  V30 5889 C 548.359 -4.486 2.90968 0
M  V30 5890 C 549.659 -2.85969 4.37057 0
M  V30 5891 H 551.353 -1.39953 2.64676 0
M  V30 5892 H 548.899 -0.671846 1.27367 0
M  V30 5893 H 550.852 -3.73507 1.95117 0
M  V30 5894 H 549.576 -3.15251 0.853502 0
M  V30 5895 H 548.235 -2.33749 2.82413 0
M  V30 5896 H 547.883 -4.64577 1.92815 0
M  V30 5897 H 547.583 -4.57861 3.68289 0
M  V30 5898 H 549.107 -5.27938 3.0678 0
M  V30 5899 H 550.521 -3.53036 4.51706 0
M  V30 5900 H 548.918 -3.06677 5.15819 0
M  V30 5901 H 549.988 -1.81838 4.49514 0
M  V30 5902 N 551.331 -1.39911 -0.725443 0
M  V30 5903 C 552.261 -1.42138 -1.85254 0
M  V30 5904 C 553.242 -0.283513 -1.67721 0
M  V30 5905 O 554.427 -0.490717 -1.87898 0
M  V30 5906 C 551.557 -1.27354 -3.23107 0
M  V30 5907 C 550.511 -2.3864 -3.55296 0
M  V30 5908 C 549.837 -2.08939 -4.92188 0
M  V30 5909 C 551.137 -3.8097 -3.57295 0
M  V30 5910 H 552.831 -2.36461 -1.83648 0
M  V30 5911 H 550.377 -1.13817 -0.882138 0
M  V30 5912 H 552.33 -1.2753 -4.01639 0
M  V30 5913 H 551.054 -0.295025 -3.25265 0
M  V30 5914 H 549.713 -2.37696 -2.79099 0
M  V30 5915 H 549.361 -1.09502 -4.90936 0
M  V30 5916 H 549.061 -2.83491 -5.14691 0
M  V30 5917 H 550.585 -2.10781 -5.73065 0
M  V30 5918 H 551.999 -3.8379 -4.25885 0
M  V30 5919 H 550.396 -4.5496 -3.9132 0
M  V30 5920 H 551.466 -4.11261 -2.5689 0
M  V30 5921 N 552.809 0.956637 -1.25245 0
M  V30 5922 C 554.057 1.69764 -1.09657 0
M  V30 5923 C 554.378 1.91583 0.363464 0
M  V30 5924 O 553.648 1.50149 1.25825 0
M  V30 5925 H 552.228 0.629097 -0.402798 0
M  V30 5926 H 554.89 1.15026 -1.57337 0
M  V30 5927 H 553.986 2.67769 -1.60331 0
M  V30 5928 N 554.287 1.06798 1.15896 0
M  V30 5929 C 555.512 0.808739 1.90982 0
M  V30 5930 C 555.937 -0.6316 1.77179 0
M  V30 5931 O 555.295 -1.4407 1.10061 0
M  V30 5932 C 555.343 1.21468 3.39526 0
M  V30 5933 O 554.447 0.356562 4.10856 0
M  V30 5934 H 553.788 0.29512 0.594811 0
M  V30 5935 H 556.318 1.42513 1.46804 0
M  V30 5936 H 556.328 1.18844 3.90308 0
M  V30 5937 H 555.003 2.26379 3.48891 0
M  V30 5938 H 553.58 0.444808 3.70238 0
M  V30 5939 N 555.766 -1.3263 0.851289 0
M  V30 5940 C 557.006 -1.99174 0.459266 0
M  V30 5941 C 557.37 -1.65913 -0.966273 0
M  V30 5942 O 558.571 -2.2552 -1.46267 0
M  V30 5943 C 556.842 -3.50721 0.687698 0
M  V30 5944 S 558.401 -4.37039 0.392746 0
M  V30 5945 H 555.219 -0.689832 0.172199 0
M  V30 5946 H 557.821 -1.61395 1.10327 0
M  V30 5947 H 556.525 -3.72417 1.72435 0
M  V30 5948 H 556.056 -3.93389 0.0299949 0
M  V30 5949 H 558.071 -4.8999 -0.782578 0
M  V30 5950 N 557.244 -0.608902 -1.45362 0
M  V30 5951 C 558.207 0.0992563 -2.28985 0
M  V30 5952 C 559.207 0.793841 -1.39838 0
M  V30 5953 O 560.397 0.641804 -1.61946 0
M  V30 5954 C 557.529 1.15073 -3.20891 0
M  V30 5955 H 558.722 -0.635964 -2.93079 0
M  V30 5956 H 556.275 -0.368007 -1.51906 0
M  V30 5957 H 557.01 1.91667 -2.616 0
M  V30 5958 H 556.795 0.656867 -3.86559 0
M  V30 5959 H 558.285 1.64665 -3.83765 0
M  V30 5960 N 558.722 1.53707 -0.348139 0
M  V30 5961 C 559.685 2.23812 0.494058 0
M  V30 5962 C 560.685 1.23989 1.02388 0
M  V30 5963 O 561.875 1.48395 0.912396 0
M  V30 5964 C 559.007 2.96133 1.68872 0
M  V30 5965 H 560.2 2.99663 -0.119141 0
M  V30 5966 H 557.753 1.55983 -0.0995539 0
M  V30 5967 H 558.488 2.24481 2.34049 0
M  V30 5968 H 558.273 3.69357 1.31596 0
M  V30 5969 H 559.763 3.49475 2.28597 0
M  V30 5970 N 560.2 0.0768682 1.57412 0
M  V30 5971 C 561.425 -0.603404 1.98428 0
M  V30 5972 C 561.85 -1.62047 0.955108 0
M  V30 5973 O 561.208 -1.81129 -0.0786778 0
M  V30 5974 C 561.256 -1.24396 3.38464 0
M  V30 5975 O 560.36 -2.35982 3.3821 0
M  V30 5976 H 559.701 -0.154741 0.645718 0
M  V30 5977 H 562.231 0.152885 2.04028 0
M  V30 5978 H 562.241 -1.5896 3.7576 0
M  V30 5979 H 560.916 -0.498735 4.12899 0
M  V30 5980 H 559.493 -2.03173 3.1269 0
M  V30 5981 N 561.678 -1.56367 -0.196722 0
M  V30 5982 C 563.089 -1.70462 -0.761545 0
M  V30 5983 C 563.44 -0.683161 -1.83922 0
M  V30 5984 O 562.565 0.160753 -2.15802 0
M  V30 5985 C 563.16 -3.09057 -1.38814 0
M  V30 5986 C 561.719 -3.24922 -1.90007 0
M  V30 5987 C 560.866 -2.66412 -0.769399 0
M  V30 5988 H 563.817 -1.58675 0.0283263 0
M  V30 5989 H 563.838 -3.06296 -2.2575 0
M  V30 5990 H 563.35 -3.83378 -0.603559 0
M  V30 5991 H 561.451 -2.55514 -2.71189 0
M  V30 5992 H 561.564 -4.3241 -2.06297 0
M  V30 5993 H 559.928 -2.25546 -1.18326 0
M  V30 5994 H 560.711 -3.433 0.00291773 0
M  V30 5995 N 563.156 0.464375 -1.50603 0
M  V30 5996 C 564.088 1.57916 -1.66118 0
M  V30 5997 C 565.101 1.53497 -0.54246 0
M  V30 5998 O 566.29 1.58763 -0.815877 0
M  V30 5999 C 563.39 2.96809 -1.63577 0
M  V30 6000 C 562.563 3.26026 -2.91592 0
M  V30 6001 C 561.622 4.44506 -2.81604 0
M  V30 6002 O 560.648 4.44484 -3.55559 0
M  V30 6003 N 561.85 5.46549 -1.95614 0
M  V30 6004 H 564.615 1.45022 -2.62276 0
M  V30 6005 H 562.176 0.652903 -1.48151 0
M  V30 6006 H 564.168 3.74048 -1.54499 0
M  V30 6007 H 562.738 3.03438 -0.751262 0
M  V30 6008 H 561.958 2.37337 -3.14746 0
M  V30 6009 H 563.246 3.42361 -3.76386 0
M  V30 6010 H 562.644 5.49391 -1.34854 0
M  V30 6011 H 561.201 6.22746 -1.92435 0
M  V30 6012 N 564.634 1.40294 0.718013 0
M  V30 6013 C 565.862 1.4175 1.50714 0
M  V30 6014 C 566.277 0.0165366 1.88793 0
M  V30 6015 O 565.634 -0.958942 1.55276 0
M  V30 6016 C 565.685 2.30598 2.784 0
M  V30 6017 O 565.406 3.6524 2.41932 0
M  V30 6018 C 566.907 2.4062 3.72313 0
M  V30 6019 H 564.127 0.483565 0.465194 0
M  V30 6020 H 566.671 1.84316 0.885889 0
M  V30 6021 H 564.826 1.91401 3.36815 0
M  V30 6022 H 565.24 4.12402 3.24076 0
M  V30 6023 H 566.714 3.07001 4.58753 0
M  V30 6024 H 567.191 1.4305 4.15251 0
M  V30 6025 H 567.797 2.80359 3.19811 0
M  V30 6026 N 566.112 -0.949982 1.2575 0
M  V30 6027 C 567.36 -1.6918 1.10555 0
M  V30 6028 C 567.681 -1.91773 -0.353298 0
M  V30 6029 O 566.951 -1.50814 -1.25027 0
M  V30 6030 H 565.531 -0.626952 0.406129 0
M  V30 6031 H 568.193 -1.1419 1.57945 0
M  V30 6032 H 567.289 -2.66915 1.61749 0
M  V30 6033 N 567.59 -1.07411 -1.15328 0
M  V30 6034 C 569.001 -0.820261 -1.67716 0
M  V30 6035 C 569.352 0.654539 -1.8496 0
M  V30 6036 O 568.477 1.50664 -1.55337 0
M  V30 6037 C 569.072 -1.48242 -3.04647 0
M  V30 6038 C 567.631 -1.27606 -3.5411 0
M  V30 6039 C 566.778 -1.5517 -2.29821 0
M  V30 6040 H 569.729 -1.23608 -0.995332 0
M  V30 6041 H 569.75 -0.903984 -3.69606 0
M  V30 6042 H 569.262 -2.55578 -2.92064 0
M  V30 6043 H 567.363 -0.222948 -3.71932 0
M  V30 6044 H 567.476 -1.99667 -4.35511 0
M  V30 6045 H 565.84 -0.972747 -2.35393 0
M  V30 6046 H 566.623 -2.63689 -2.19824 0
M  V30 6047 N 569.068 1.32177 -0.85831 0
M  V30 6048 C 569.998 2.31282 -0.321041 0
M  V30 6049 C 570.979 1.59841 0.581786 0
M  V30 6050 O 572.164 1.87619 0.501262 0
M  V30 6051 C 569.294 3.4385 0.48832 0
M  V30 6052 C 568.248 4.26799 -0.320391 0
M  V30 6053 C 567.574 5.31164 0.613934 0
M  V30 6054 C 568.874 4.98829 -1.54813 0
M  V30 6055 H 570.568 2.76469 -1.14915 0
M  V30 6056 H 568.114 1.32916 -0.554028 0
M  V30 6057 H 570.067 4.12224 0.874626 0
M  V30 6058 H 568.791 2.97401 1.34983 0
M  V30 6059 H 567.45 3.60077 -0.688497 0
M  V30 6060 H 567.098 4.80967 1.47239 0
M  V30 6061 H 566.798 5.8755 0.0768097 0
M  V30 6062 H 568.322 6.024 0.997336 0
M  V30 6063 H 569.736 5.59864 -1.23392 0
M  V30 6064 H 568.133 5.64957 -2.02346 0
M  V30 6065 H 569.203 4.26483 -2.30739 0
M  V30 6066 N 570.547 0.616602 1.45037 0
M  V30 6067 C 571.495 -0.109318 2.32343 0
M  V30 6068 C 572.489 -0.850543 1.465 0
M  V30 6069 O 573.695 -0.765088 1.62931 0
M  V30 6070 H 570.07 -0.0541091 0.750051 0
M  V30 6071 H 572.041 0.645326 2.91338 0
M  V30 6072 C 570.79 -1.0872 3.30266 0
M  V30 6073 H 570.113 -0.526267 3.96321 0
M  V30 6074 H 571.553 -1.56489 3.94065 0
M  V30 6075 C 570.012 -2.16525 2.58105 0
M  V30 6076 O 570.542 -3.244 2.36913 0
M  V30 6077 N 568.748 -1.92057 2.18088 0
M  V30 6078 H 568.295 -1.04337 2.35524 0
M  V30 6079 H 568.253 -2.64391 1.70131 0
M  V30 6080 N 572.025 -1.5352 0.356285 0
M  V30 6081 C 573.441 -1.59599 0.00485267 0
M  V30 6082 C 573.641 -1.37179 -1.47595 0
M  V30 6083 O 572.697 -1.17234 -2.23635 0
M  V30 6084 C 574.01 -2.97277 0.452454 0
M  V30 6085 C 575.558 -3.10357 0.405881 0
M  V30 6086 C 576.033 -4.50432 0.829148 0
M  V30 6087 N 577.524 -4.5652 0.783838 0
M  V30 6088 C 578.259 -5.63077 1.08315 0
M  V30 6089 N 577.755 -6.77429 1.45126 0
M  V30 6090 N 579.548 -5.53014 1.00655 0
M  V30 6091 H 571.699 -1.66346 1.32071 0
M  V30 6092 H 573.962 -0.77971 0.539218 0
M  V30 6093 H 573.668 -3.18792 1.48542 0
M  V30 6094 H 573.542 -3.76836 -0.165762 0
M  V30 6095 H 575.929 -2.88558 -0.617934 0
M  V30 6096 H 576.01 -2.32828 1.05947 0
M  V30 6097 H 575.654 -4.72968 1.85103 0
M  V30 6098 H 575.584 -5.26378 0.152906 0
M  V30 6099 H 578.075 -3.74408 0.512513 0
M  V30 6100 H 578.388 -7.54669 1.66415 0
M  V30 6101 H 576.733 -6.78844 1.48983 0
M  V30 6102 H 579.924 -4.62557 0.718215 0
M  V30 6103 H 580.097 -6.35964 1.24315 0
M  V30 6104 N 573.503 -0.0852151 -1.57369 0
M  V30 6105 C 574.466 0.8627 -2.12344 0
M  V30 6106 C 575.466 1.21746 -1.05046 0
M  V30 6107 O 576.656 1.14852 -1.30976 0
M  V30 6108 C 573.788 2.1618 -2.63589 0
M  V30 6109 H 574.981 0.385511 -2.97412 0
M  V30 6110 H 572.534 0.163663 -1.55441 0
M  V30 6111 H 573.269 2.68406 -1.82013 0
M  V30 6112 H 573.054 1.91723 -3.4203 0
M  V30 6113 H 574.544 2.84011 -3.06149 0
M  V30 6114 N 574.981 1.5647 0.188427 0
M  V30 6115 C 575.911 1.98101 1.23606 0
M  V30 6116 C 576.892 0.853961 1.47111 0
M  V30 6117 O 578.077 1.11879 1.58735 0
M  V30 6118 C 575.207 2.32624 2.57882 0
M  V30 6119 C 574.161 3.48129 2.48978 0
M  V30 6120 C 573.487 3.68347 3.87588 0
M  V30 6121 C 574.787 4.82112 2.00911 0
M  V30 6122 H 576.481 2.85864 0.890068 0
M  V30 6123 H 574.027 1.37532 0.426714 0
M  V30 6124 H 575.98 2.60343 3.3136 0
M  V30 6125 H 574.704 1.41751 2.94235 0
M  V30 6126 H 573.363 3.20511 1.77956 0
M  V30 6127 H 573.011 2.74793 4.21305 0
M  V30 6128 H 572.711 4.46055 3.82503 0
M  V30 6129 H 574.235 3.98449 4.62678 0
M  V30 6130 H 575.649 5.08819 2.64151 0
M  V30 6131 H 574.046 5.63337 2.06814 0
M  V30 6132 H 575.116 4.75249 0.96262 0
M  V30 6133 N 576.459 -0.456382 1.50847 0
M  V30 6134 C 577.684 -1.2349 1.66628 0
M  V30 6135 C 578.109 -1.84715 0.355254 0
M  V30 6136 O 577.467 -1.67961 -0.682559 0
M  V30 6137 C 577.515 -2.30865 2.77009 0
M  V30 6138 O 576.619 -3.35882 2.39285 0
M  V30 6139 H 575.96 -0.36266 0.556214 0
M  V30 6140 H 578.49 -0.541374 1.97308 0
M  V30 6141 H 578.5 -2.75949 3.00526 0
M  V30 6142 H 577.175 -1.85677 3.72152 0
M  V30 6143 H 575.752 -2.96406 2.26269 0
M  V30 6144 N 577.937 -1.40673 -0.710563 0
M  V30 6145 C 579.162 -1.42741 -1.50465 0
M  V30 6146 C 579.587 -0.0302116 -1.88076 0
M  V30 6147 O 578.945 0.962945 -1.53613 0
M  V30 6148 C 578.993 -2.32873 -2.75322 0
M  V30 6149 O 578.097 -1.77544 -3.72226 0
M  V30 6150 H 577.438 -0.485056 -0.45345 0
M  V30 6151 H 579.968 -1.84961 -0.874681 0
M  V30 6152 H 579.978 -2.48233 -3.23797 0
M  V30 6153 H 578.653 -3.34401 -2.47283 0
M  V30 6154 H 577.23 -1.71556 -3.31093 0
M  V30 6155 N 579.415 0.9433 -1.26252 0
M  V30 6156 C 580.643 1.72367 -1.14443 0
M  V30 6157 C 581.058 1.86392 0.300572 0
M  V30 6158 O 580.415 1.36978 1.20596 0
M  V30 6159 C 580.466 3.13155 -1.806 0
M  V30 6160 O 580.187 2.99803 -3.19452 0
M  V30 6161 C 581.688 4.07417 -1.74717 0
M  V30 6162 H 578.908 0.539758 -0.398626 0
M  V30 6163 H 581.452 1.18268 -1.66832 0
M  V30 6164 H 579.607 3.64162 -1.32154 0
M  V30 6165 H 580.021 3.88697 -3.52158 0
M  V30 6166 H 581.495 5.03773 -2.25647 0
M  V30 6167 H 581.972 4.3337 -0.713244 0
M  V30 6168 H 582.578 3.6233 -2.22704 0
M  V30 6169 N 580.893 1.08022 1.14757 0
M  V30 6170 C 582.118 0.82895 1.90114 0
M  V30 6171 C 582.543 -0.612772 1.77839 0
M  V30 6172 O 581.901 -1.42895 1.11583 0
M  V30 6173 C 581.949 1.25062 3.38219 0
M  V30 6174 O 581.053 0.400119 4.10454 0
M  V30 6175 H 580.394 0.301412 0.591648 0
M  V30 6176 H 582.924 1.44062 1.45284 0
M  V30 6177 H 582.934 1.22977 3.89025 0
M  V30 6178 H 581.609 2.30067 3.46471 0
M  V30 6179 H 580.186 0.484052 3.69745 0
M  V30 6180 N 582.371 -1.3172 0.865308 0
M  V30 6181 C 583.596 -2.01591 0.487415 0
M  V30 6182 C 584.021 -1.6455 -0.911307 0
M  V30 6183 O 583.379 -0.851689 -1.6005 0
M  V30 6184 C 583.427 -3.54759 0.646401 0
M  V30 6185 O 582.531 -4.11185 -0.316284 0
M  V30 6186 H 581.872 -0.634884 0.194468 0
M  V30 6187 H 584.402 -1.68024 1.16744 0
M  V30 6188 H 584.412 -4.04438 0.537932 0
M  V30 6189 H 583.087 -3.8106 1.66632 0
M  V30 6190 H 581.664 -3.72543 -0.163162 0
M  V30 6191 O 583.888 -0.764371 -1.42266 0
M  V30 6192 H 584.579 -0.325849 -1.9094 0
M  V30 END ATOM
M  V30 BEGIN BOND
M  V30 END BOND
M  V30 END CTAB
M  END
$$$$
