drugbank_target|P26602 Chorismate pyruvate-lyase (DB02130; DB04242)
 OpenBabel12092119553D

  0  0  0     0  0            999 V3000
M  V30 BEGIN CTAB
M  V30 COUNTS 2693 2723 0 0 0
M  V30 BEGIN ATOM
M  V30 1 H -0.908 1.98254 -0.117106 0
M  V30 2 N 0 1.576 0 0
M  V30 3 C 0.933 2.03868 1.02534 0
M  V30 4 C 1.911 0.928543 1.3348 0
M  V30 5 O 3.095 1.19667 1.45644 0
M  V30 6 C 0.222 2.43627 2.35294 0
M  V30 7 C -0.732 3.65373 2.2001 0
M  V30 8 S 0.101 5.13292 1.52614 0
M  V30 9 C 1.257 5.56322 2.86805 0
M  V30 10 H 1.49 2.90518 0.631377 0
M  V30 11 H -0.977 1.52953 0.210867 0
M  V30 12 H 0.981 2.67203 3.11629 0
M  V30 13 H -0.358 1.57376 2.7183 0
M  V30 14 H -1.165 3.90944 3.18086 0
M  V30 15 H -1.563 3.418 1.51819 0
M  V30 16 H 0.729 5.58782 3.83104 0
M  V30 17 H 1.672 6.56266 2.65933 0
M  V30 18 H 2.08 4.83886 2.90714 0
M  V30 19 N 1.4781 -0.272755 1.55222 0
M  V30 20 C 2.7031 -1.02683 1.80197 0
M  V30 21 C 3.1281 -1.79142 0.573551 0
M  V30 22 O 2.4861 -1.74917 -0.476849 0
M  V30 23 C 2.5341 -1.9609 3.02624 0
M  V30 24 O 1.6381 -3.04863 2.77727 0
M  V30 25 H 0.9791 -0.293557 0.595584 0
M  V30 26 H 3.5091 -0.30159 2.02365 0
M  V30 27 H 3.5191 -2.38039 3.31363 0
M  V30 28 H 2.1941 -1.39851 3.91682 0
M  V30 29 H 0.7711 -2.67228 2.60084 0
M  V30 30 N 2.9562 -1.48159 -0.537278 0
M  V30 31 C 3.9062 -1.5854 -1.63857 0
M  V30 32 C 4.8902 -0.442969 -1.54682 0
M  V30 33 O 6.0822 -0.69401 -1.62827 0
M  V30 34 C 3.2112 -1.62144 -3.02596 0
M  V30 35 C 2.2972 -2.81841 -3.16901 0
M  V30 36 N 2.6882 -4.06337 -3.01204 0
M  V30 37 C 0.9862 -2.79021 -3.47942 0
M  V30 38 C 1.6872 -4.86606 -3.18731 0
M  V30 39 N 0.6632 -4.19288 -3.45974 0
M  V30 40 H 4.4652 -2.5255 -1.50319 0
M  V30 41 H 1.9792 -1.4443 -0.742555 0
M  V30 42 H 3.9762 -1.67674 -3.81695 0
M  V30 43 H 2.6362 -0.69245 -3.17231 0
M  V30 44 H 3.6472 -4.36888 -2.78117 0
M  V30 45 H 0.3242 -1.95347 -3.6898 0
M  V30 46 H 1.7142 -5.95385 -3.11394 0
M  V30 47 N 4.4343 0.785586 -1.36625 0
M  V30 48 C 5.8453 1.36101 -1.27803 0
M  V30 49 C 6.1963 1.96035 0.0804875 0
M  V30 50 O 5.3213 1.92834 0.982042 0
M  V30 51 C 5.9163 2.47442 -2.31426 0
M  V30 52 C 4.4753 3.00789 -2.26281 0
M  V30 53 C 3.6223 1.73896 -2.15999 0
M  V30 54 H 6.5733 0.586928 -1.47448 0
M  V30 55 H 6.5943 3.2656 -1.95291 0
M  V30 56 H 6.1063 2.03791 -3.30289 0
M  V30 57 H 4.2073 3.48851 -1.30896 0
M  V30 58 H 4.3203 3.57343 -3.19128 0
M  V30 59 H 2.6843 1.9628 -1.62316 0
M  V30 60 H 3.4673 1.32368 -3.16755 0
M  V30 61 N 5.9124 1.20967 1.01018 0
M  V30 62 C 6.8754 0.965918 2.07853 0
M  V30 63 C 7.8754 -0.0610545 1.60684 0
M  V30 64 O 9.0654 0.175681 1.73312 0
M  V30 65 C 6.1974 0.455513 3.37843 0
M  V30 66 H 7.3904 1.91365 2.3091 0
M  V30 67 H 4.9434 1.02594 1.17916 0
M  V30 68 H 5.6784 -0.497381 3.20463 0
M  V30 69 H 5.4634 1.19622 3.73407 0
M  V30 70 H 6.9534 0.304667 4.16487 0
M  V30 71 N 7.3905 -1.2043 1.01659 0
M  V30 72 C 8.3205 -2.25466 0.607226 0
M  V30 73 C 9.3015 -1.65853 -0.377716 0
M  V30 74 O 10.4865 -1.92409 -0.263149 0
M  V30 75 C 7.6165 -3.47256 -0.0552949 0
M  V30 76 C 6.5705 -4.19462 0.850632 0
M  V30 77 C 5.8965 -5.34673 0.0538859 0
M  V30 78 C 7.1965 -4.75603 2.15868 0
M  V30 79 H 8.8905 -2.59962 1.48526 0
M  V30 80 H 6.4365 -1.2496 0.715605 0
M  V30 81 H 8.3895 -4.19917 -0.353233 0
M  V30 82 H 7.1135 -3.11924 -0.968045 0
M  V30 83 H 5.7725 -3.48667 1.13257 0
M  V30 84 H 5.4205 -4.95585 -0.860514 0
M  V30 85 H 5.1205 -5.83913 0.657192 0
M  V30 86 H 6.6445 -6.10138 -0.237598 0
M  V30 87 H 8.0585 -5.40083 1.92311 0
M  V30 88 H 6.4555 -5.3528 2.71284 0
M  V30 89 H 7.5255 -3.94346 2.82169 0
M  V30 90 N 8.8686 -0.792821 -1.36206 0
M  V30 91 C 10.0966 -0.378825 -2.03402 0
M  V30 92 C 10.5116 1.00586 -1.59774 0
M  V30 93 O 9.8686 1.64574 -0.788764 0
M  V30 94 C 9.9196 -0.43683 -3.58851 0
M  V30 95 O 9.6406 -1.76691 -4.00889 0
M  V30 96 C 11.1416 -0.0138943 -4.43298 0
M  V30 97 H 8.3616 -0.155673 -0.652692 0
M  V30 98 H 10.9056 -1.07261 -1.74113 0
M  V30 99 H 9.0606 0.208575 -3.86838 0
M  V30 100 H 9.4746 -1.72011 -4.95492 0
M  V30 101 H 10.9486 -0.105615 -5.51899 0
M  V30 102 H 11.4256 1.03915 -4.2673 0
M  V30 103 H 12.0316 -0.63192 -4.20579 0
M  V30 104 N 10.3467 1.47872 -0.545128 0
M  V30 105 C 11.2787 2.27869 0.246621 0
M  V30 106 C 12.2917 1.36282 0.890561 0
M  V30 107 O 13.4807 1.61207 0.766449 0
M  V30 108 C 10.5807 3.10159 1.36582 0
M  V30 109 C 9.7537 4.29627 0.820954 0
M  V30 110 C 8.8127 4.93607 1.82314 0
M  V30 111 O 7.8387 5.52366 1.37406 0
M  V30 112 N 9.0407 4.87211 3.15603 0
M  V30 113 H 11.8057 2.96459 -0.439539 0
M  V30 114 H 9.3667 1.57367 -0.380421 0
M  V30 115 H 11.3587 3.49829 2.03474 0
M  V30 116 H 9.9287 2.43891 1.9554 0
M  V30 117 H 9.1487 3.94192 -0.0244032 0
M  V30 118 H 10.4367 5.06928 0.436063 0
M  V30 119 H 9.8347 4.40651 3.54744 0
M  V30 120 H 8.3917 5.30937 3.78087 0
M  V30 121 N 11.8248 0.280983 1.55075 0
M  V30 122 C 12.7548 -0.597469 2.25727 0
M  V30 123 C 13.7358 -1.15417 1.24952 0
M  V30 124 O 14.9208 -1.18722 1.53684 0
M  V30 125 C 12.0508 -1.7789 2.98283 0
M  V30 126 C 11.0048 -1.35347 4.06036 0
M  V30 127 C 10.3308 -2.61846 4.66198 0
M  V30 128 C 11.6308 -0.499354 5.19907 0
M  V30 129 H 13.3248 -0.00824265 2.99399 0
M  V30 130 H 10.8708 -0.0025244 1.44 0
M  V30 131 H 12.8238 -2.39937 3.46422 0
M  V30 132 H 11.5478 -2.39405 2.22155 0
M  V30 133 H 10.2068 -0.756156 3.58717 0
M  V30 134 H 9.8548 -3.21632 3.86732 0
M  V30 135 H 9.5548 -2.3409 5.38958 0
M  V30 136 H 11.0788 -3.24732 5.1709 0
M  V30 137 H 12.4928 -1.02498 5.64063 0
M  V30 138 H 10.8898 -0.316424 5.99265 0
M  V30 139 H 11.9598 0.480459 4.82514 0
M  V30 140 N 13.3029 -1.57598 0.00835791 0
M  V30 141 C 14.7189 -1.55764 -0.347822 0
M  V30 142 C 14.9189 -1.01186 -1.74252 0
M  V30 143 O 13.9749 -0.649371 -2.44007 0
M  V30 144 C 15.2879 -2.99927 -0.215407 0
M  V30 145 C 16.8359 -3.11656 -0.289725 0
M  V30 146 C 17.3109 -4.57621 -0.18634 0
M  V30 147 N 18.8019 -4.62557 -0.243978 0
M  V30 148 C 19.5369 -5.73094 -0.18745 0
M  V30 149 N 19.0329 -6.92753 -0.0810331 0
M  V30 150 N 20.8259 -5.61588 -0.239925 0
M  V30 151 H 12.9769 -1.91411 0.92062 0
M  V30 152 H 15.2399 -0.879562 0.353659 0
M  V30 153 H 14.9459 -3.43729 0.744512 0
M  V30 154 H 14.8199 -3.63865 -0.994097 0
M  V30 155 H 17.2069 -2.67779 -1.24009 0
M  V30 156 H 17.2879 -2.5048 0.51898 0
M  V30 157 H 16.9319 -5.02174 0.760519 0
M  V30 158 H 16.8619 -5.16752 -1.01364 0
M  V30 159 H 19.3529 -3.76481 -0.327217 0
M  V30 160 H 19.6659 -7.72787 -0.0440241 0
M  V30 161 H 18.0109 -6.94984 -0.0465419 0
M  V30 162 H 21.2019 -4.66996 -0.321317 0
M  V30 163 H 21.3749 -6.47714 -0.192407 0
M  V30 164 N 14.781 0.264519 -1.55364 0
M  V30 165 C 15.744 1.31046 -1.88042 0
M  V30 166 C 16.744 1.41943 -0.755569 0
M  V30 167 O 17.934 1.40947 -1.02369 0
M  V30 168 C 15.066 2.69067 -2.09323 0
M  V30 169 H 16.259 1.03297 -2.81549 0
M  V30 170 H 13.812 0.502989 -1.47986 0
M  V30 171 H 14.547 3.01982 -1.18226 0
M  V30 172 H 14.332 2.62542 -2.91229 0
M  V30 173 H 15.822 3.44623 -2.35848 0
M  V30 174 N 16.2591 1.48442 0.529413 0
M  V30 175 C 17.1891 1.65902 1.64313 0
M  V30 176 C 18.1701 0.507897 1.6234 0
M  V30 177 O 19.3551 0.740503 1.79528 0
M  V30 178 C 16.4851 1.69911 3.02898 0
M  V30 179 C 15.4391 2.8453 3.19729 0
M  V30 180 C 14.7651 2.73629 4.59381 0
M  V30 181 C 16.0651 4.25821 3.02447 0
M  V30 182 H 17.7591 2.5914 1.49955 0
M  V30 183 H 15.3051 1.24709 0.719982 0
M  V30 184 H 17.2581 1.80715 3.80684 0
M  V30 185 H 15.9821 0.732524 3.18279 0
M  V30 186 H 14.6411 2.73283 2.44361 0
M  V30 187 H 14.2891 1.74938 4.71599 0
M  V30 188 H 13.9891 3.50541 4.71588 0
M  V30 189 H 15.5131 2.86401 5.39265 0
M  V30 190 H 16.9271 4.37898 3.70024 0
M  V30 191 H 15.3241 5.03735 3.26146 0
M  V30 192 H 16.3941 4.42244 1.98867 0
M  V30 193 N 17.7372 -0.778329 1.37039 0
M  V30 194 C 19.1532 -1.07796 1.17695 0
M  V30 195 C 19.3532 -2.01498 0.00860115 0
M  V30 196 O 18.4092 -2.43901 -0.653352 0
M  V30 197 C 19.7222 -1.68178 2.49272 0
M  V30 198 C 21.2702 -1.80467 2.55735 0
M  V30 199 C 21.7452 -2.44263 3.87427 0
M  V30 200 N 23.2362 -2.51721 3.88833 0
M  V30 201 C 23.9712 -3.01919 4.87476 0
M  V30 202 N 23.4672 -3.5234 5.96513 0
M  V30 203 N 25.2602 -3.00733 4.74885 0
M  V30 204 H 17.4112 -0.156032 2.11826 0
M  V30 205 H 19.6742 -0.131844 0.938787 0
M  V30 206 H 19.3802 -1.06796 3.35093 0
M  V30 207 H 19.2542 -2.67554 2.65885 0
M  V30 208 H 21.6412 -2.40984 1.70325 0
M  V30 209 H 21.7222 -0.798656 2.43013 0
M  V30 210 H 21.3662 -1.84388 4.73248 0
M  V30 211 H 21.2962 -3.45458 3.9745 0
M  V30 212 H 23.7872 -2.1603 3.10063 0
M  V30 213 H 24.1002 -3.89027 6.67741 0
M  V30 214 H 22.4452 -3.50462 6.00168 0
M  V30 215 H 25.6362 -2.60638 3.88826 0
M  V30 216 H 25.8092 -3.39545 5.51918 0
M  V30 217 N 19.2153 -1.21501 -1.00376 0
M  V30 218 C 20.4453 -1.05746 -1.77486 0
M  V30 219 C 20.8533 0.395655 -1.85017 0
M  V30 220 O 20.1963 1.28626 -1.31152 0
M  V30 221 C 20.2583 -1.58092 -3.22873 0
M  V30 222 C 19.9223 -3.06568 -3.38917 0
M  V30 223 C 20.9193 -4.04106 -3.271 0
M  V30 224 C 18.6043 -3.45799 -3.64319 0
M  V30 225 C 20.5983 -5.38862 -3.40451 0
M  V30 226 C 18.2853 -4.80707 -3.77311 0
M  V30 227 C 19.2833 -5.77047 -3.65384 0
M  V30 228 O 18.9713 -7.09507 -3.77961 0
M  V30 229 H 18.7033 -0.371778 -0.564586 0
M  V30 230 H 21.2573 -1.61319 -1.27143 0
M  V30 231 H 19.4873 -0.969163 -3.74358 0
M  V30 232 H 21.1763 -1.38162 -3.81662 0
M  V30 233 H 21.9423 -3.75141 -3.07399 0
M  V30 234 H 17.8213 -2.71344 -3.72684 0
M  V30 235 H 21.3653 -6.14041 -3.31058 0
M  V30 236 H 17.2623 -5.09357 -3.96517 0
M  V30 237 H 18.0303 -7.16935 -3.94901 0
M  V30 238 N 20.6934 1.19889 -1.02296 0
M  V30 239 C 21.9334 1.91125 -0.724602 0
M  V30 240 C 22.2974 1.77464 0.732835 0
M  V30 241 O 23.4984 2.43241 1.144 0
M  V30 242 C 21.7694 3.38187 -1.15604 0
M  V30 243 S 23.3284 4.27702 -0.980621 0
M  V30 244 H 20.1464 0.66018 -0.263976 0
M  V30 245 H 22.7484 1.44978 -1.31155 0
M  V30 246 H 21.4524 3.45653 -2.21251 0
M  V30 247 H 20.9834 3.89363 -0.562131 0
M  V30 248 H 22.9984 4.96073 0.112225 0
M  V30 249 N 22.1715 0.800033 1.35784 0
M  V30 250 C 23.1185 0.203848 2.29898 0
M  V30 251 C 24.0885 -0.658375 1.52495 0
M  V30 252 O 25.2735 -0.604832 1.8096 0
M  V30 253 C 22.4135 -0.64688 3.38983 0
M  V30 254 C 21.5265 0.235054 4.3136 0
M  V30 255 C 20.6615 -0.623054 5.27533 0
M  V30 256 C 19.7005 0.259682 6.11549 0
M  V30 257 N 18.8375 -0.558019 6.99879 0
M  V30 258 H 23.6775 1.01186 2.80295 0
M  V30 259 H 21.2145 0.51053 1.37957 0
M  V30 260 H 23.1725 -1.15521 4.00887 0
M  V30 261 H 21.8025 -1.42021 2.89879 0
M  V30 262 H 20.8545 0.861438 3.70518 0
M  V30 263 H 22.1665 0.914768 4.9034 0
M  V30 264 H 21.3205 -1.19678 5.94779 0
M  V30 265 H 20.0595 -1.33636 4.69034 0
M  V30 266 H 19.0645 0.845726 5.43256 0
M  V30 267 H 20.2895 0.970748 6.72126 0
M  V30 268 H 18.2355 -1.25542 6.43875 0
M  V30 269 H 18.1525 0.0637872 7.55973 0
M  V30 270 H 19.4205 -1.11523 7.71481 0
M  V30 271 N 23.6496 -1.47581 0.552962 0
M  V30 272 C 24.5596 -2.33743 -0.200353 0
M  V30 273 C 25.5756 -1.47928 -0.916151 0
M  V30 274 O 26.7516 -1.80865 -0.885993 0
M  V30 275 C 23.8166 -3.24536 -1.21973 0
M  V30 276 C 22.8776 -4.26238 -0.511819 0
M  V30 277 C 22.1106 -5.12693 -1.48263 0
M  V30 278 O 22.3336 -5.01525 -2.71714 0
M  V30 279 O 21.2676 -5.93375 -1.00945 0
M  V30 280 H 25.0936 -2.9945 0.506304 0
M  V30 281 H 22.6786 -1.46071 0.313622 0
M  V30 282 H 24.5606 -3.80631 -1.80827 0
M  V30 283 H 23.2356 -2.61462 -1.90839 0
M  V30 284 H 22.1426 -3.73914 0.117799 0
M  V30 285 H 23.4756 -4.92014 0.135308 0
M  V30 286 N 25.1277 -0.289203 -1.54924 0
M  V30 287 C 26.3767 0.324231 -1.99077 0
M  V30 288 C 26.6897 1.5591 -1.18117 0
M  V30 289 O 27.8957 2.24637 -1.52481 0
M  V30 290 C 26.3517 0.628209 -3.54375 0
M  V30 291 C 25.9597 -0.587647 -4.44129 0
M  V30 292 C 27.7037 1.20349 -4.07083 0
M  V30 293 C 25.6107 -0.257475 -5.90839 0
M  V30 294 H 24.5407 0.124924 -0.743579 0
M  V30 295 H 27.1917 -0.396063 -1.79175 0
M  V30 296 H 25.5737 1.40778 -3.70132 0
M  V30 297 H 26.7477 -1.36418 -4.40144 0
M  V30 298 H 25.0627 -1.08074 -4.0213 0
M  V30 299 H 27.6597 1.46456 -5.14252 0
M  V30 300 H 28.0027 2.14195 -3.56968 0
M  V30 301 H 28.5357 0.485889 -3.94821 0
M  V30 302 H 25.2747 -1.16419 -6.45079 0
M  V30 303 H 24.7947 0.482018 -5.9786 0
M  V30 304 H 26.4737 0.145238 -6.46837 0
M  V30 305 N 26.6058 1.57591 -0.0167156 0
M  V30 306 C 28.0168 1.79201 0.523834 0
M  V30 307 C 28.3678 0.925796 1.72984 0
M  V30 308 O 27.4928 0.132792 2.15992 0
M  V30 309 C 28.0878 3.25 0.957091 0
M  V30 310 C 26.6468 3.47648 1.44283 0
M  V30 311 C 25.7938 2.74374 0.401757 0
M  V30 312 H 28.7448 1.56831 -0.242816 0
M  V30 313 H 28.7658 3.34031 1.82219 0
M  V30 314 H 28.2778 3.88019 0.0791415 0
M  V30 315 H 26.3788 2.89866 2.34113 0
M  V30 316 H 26.4918 4.56352 1.45877 0
M  V30 317 H 24.8558 2.39485 0.867121 0
M  V30 318 H 25.6388 3.40102 -0.467513 0
M  V30 319 N 28.0839 -0.256276 1.55502 0
M  V30 320 C 29.0469 -1.30047 1.88734 0
M  V30 321 C 30.0469 -1.4154 0.763086 0
M  V30 322 O 31.2369 -1.40403 1.03115 0
M  V30 323 C 28.3689 -2.67953 2.10747 0
M  V30 324 H 29.5619 -1.01802 2.82093 0
M  V30 325 H 27.1149 -0.495134 1.4825 0
M  V30 326 H 27.8499 -3.01351 1.19825 0
M  V30 327 H 27.6349 -2.60993 2.92617 0
M  V30 328 H 29.1249 -3.43368 2.37673 0
M  V30 329 N 29.562 -1.4872 -0.521534 0
M  V30 330 C 30.492 -1.66771 -1.63431 0
M  V30 331 C 31.473 -0.516499 -1.62069 0
M  V30 332 O 32.658 -0.750013 -1.79132 0
M  V30 333 C 29.788 -1.71515 -3.01993 0
M  V30 334 C 28.742 -2.86222 -3.18216 0
M  V30 335 C 28.068 -2.76061 -4.57924 0
M  V30 336 C 29.368 -4.27419 -3.00184 0
M  V30 337 H 31.062 -2.59932 -1.48579 0
M  V30 338 H 28.608 -1.25089 -0.713358 0
M  V30 339 H 30.561 -1.82731 -3.7972 0
M  V30 340 H 29.285 -0.749393 -3.17886 0
M  V30 341 H 27.944 -2.74575 -2.42908 0
M  V30 342 H 27.592 -1.77437 -4.70665 0
M  V30 343 H 27.292 -3.53037 -4.69722 0
M  V30 344 H 28.816 -2.89256 -5.37739 0
M  V30 345 H 30.23 -4.39855 -3.67697 0
M  V30 346 H 28.627 -5.05458 -3.2347 0
M  V30 347 H 29.697 -4.43293 -1.96518 0
M  V30 348 N 31.0401 0.771051 -1.3745 0
M  V30 349 C 32.3171 1.519 -1.23231 0
M  V30 350 C 32.6971 2.10383 0.173809 0
M  V30 351 O 32.0451 1.95583 1.18151 0
M  V30 352 C 32.2551 2.59933 -2.32886 0
M  V30 353 C 33.6031 3.27316 -2.70461 0
M  V30 354 O 34.6271 2.70228 -2.32068 0
M  V30 355 O 33.4861 4.30531 -3.36608 0
M  V30 356 H 30.5801 0.672803 -0.480901 0
M  V30 357 H 33.1261 0.807957 -1.49232 0
M  V30 358 H 31.8981 2.14842 -3.27045 0
M  V30 359 H 31.5211 3.38637 -2.08353 0
M  V30 360 N 32.5182 1.22032 0.997298 0
M  V30 361 C 33.9292 1.0397 1.55071 0
M  V30 362 C 34.2802 -0.398192 1.92117 0
M  V30 363 O 33.4052 -1.28254 1.74298 0
M  V30 364 C 34.0002 1.88109 2.81781 0
M  V30 365 C 32.5592 1.74357 3.33581 0
M  V30 366 C 31.7062 1.84846 2.06706 0
M  V30 367 H 34.6572 1.35941 0.818883 0
M  V30 368 H 34.6782 1.39589 3.53971 0
M  V30 369 H 34.1902 2.92754 2.54787 0
M  V30 370 H 32.2912 0.72427 3.65493 0
M  V30 371 H 32.4042 2.56772 4.04481 0
M  V30 372 H 30.7682 1.28238 2.20062 0
M  V30 373 H 31.5512 2.91014 1.82114 0
M  V30 374 N 33.9963 -1.19345 1.0293 0
M  V30 375 C 34.9283 -2.22036 0.56857 0
M  V30 376 C 35.9413 -1.58865 -0.355779 0
M  V30 377 O 37.1303 -1.77851 -0.152103 0
M  V30 378 C 34.2303 -3.38363 -0.190752 0
M  V30 379 C 33.4033 -4.31118 0.738643 0
M  V30 380 C 32.4623 -5.26194 0.0246497 0
M  V30 381 O 31.4883 -5.65461 0.651354 0
M  V30 382 N 32.6903 -5.66971 -1.24594 0
M  V30 383 H 35.4553 -2.6219 1.45177 0
M  V30 384 H 33.0163 -1.34015 0.908381 0
M  V30 385 H 35.0083 -3.98981 -0.677961 0
M  V30 386 H 33.5783 -2.96994 -0.975366 0
M  V30 387 H 32.7983 -3.68276 1.40593 0
M  V30 388 H 34.0863 -4.90001 1.37029 0
M  V30 389 H 33.4843 -5.37104 -1.77583 0
M  V30 390 H 32.0413 -6.2984 -1.67764 0
M  V30 391 N 35.4744 -0.807222 -1.35358 0
M  V30 392 C 36.4044 -0.232509 -2.3234 0
M  V30 393 C 37.3854 0.642386 -1.57504 0
M  V30 394 O 38.5704 0.572526 -1.85569 0
M  V30 395 C 35.7004 0.619238 -3.41735 0
M  V30 396 C 34.6544 -0.157215 -4.27711 0
M  V30 397 C 33.9804 0.816273 -5.28433 0
M  V30 398 C 35.2804 -1.35656 -5.04376 0
M  V30 399 H 36.9744 -1.04276 -2.80654 0
M  V30 400 H 34.5204 -0.50288 -1.34934 0
M  V30 401 H 36.4734 1.03137 -4.08584 0
M  V30 402 H 35.1974 1.46239 -2.92031 0
M  V30 403 H 33.8564 -0.550525 -3.62443 0
M  V30 404 H 33.5044 1.65494 -4.74996 0
M  V30 405 H 33.2044 0.301067 -5.86828 0
M  V30 406 H 34.7284 1.22659 -5.98153 0
M  V30 407 H 36.1424 -1.01927 -5.64166 0
M  V30 408 H 34.5394 -1.8063 -5.7227 0
M  V30 409 H 35.6094 -2.14288 -4.34981 0
M  V30 410 N 36.9525 1.47285 -0.560781 0
M  V30 411 C 37.8825 2.32857 0.173105 0
M  V30 412 C 38.8635 1.44009 0.905281 0
M  V30 413 O 40.0485 1.7286 0.885046 0
M  V30 414 C 37.1785 3.25861 1.20133 0
M  V30 415 C 36.1325 4.23978 0.585388 0
M  V30 416 C 35.4585 5.06332 1.7185 0
M  V30 417 C 36.7585 5.20242 -0.463178 0
M  V30 418 H 38.4525 2.94466 -0.541307 0
M  V30 419 H 35.9985 1.41601 -0.261764 0
M  V30 420 H 37.9515 3.84569 1.72293 0
M  V30 421 H 36.6755 2.62315 1.94573 0
M  V30 422 H 35.3345 3.66501 0.085054 0
M  V30 423 H 34.9825 4.39186 2.45203 0
M  V30 424 H 34.6825 5.72762 1.31213 0
M  V30 425 H 36.2065 5.67899 2.24329 0
M  V30 426 H 37.6205 5.73293 -0.027502 0
M  V30 427 H 36.0175 5.94896 -0.788627 0
M  V30 428 H 37.0875 4.65504 -1.35773 0
M  V30 429 N 38.4306 0.297415 1.54768 0
M  V30 430 C 39.7076 -0.365847 1.92148 0
M  V30 431 C 40.0876 -1.71975 1.22424 0
M  V30 432 O 39.4356 -2.25666 0.358739 0
M  V30 433 C 39.6456 -0.484056 3.45627 0
M  V30 434 C 40.9936 -0.756594 4.17805 0
M  V30 435 O 42.0176 -0.568007 3.51642 0
M  V30 436 O 40.8766 -1.11863 5.34929 0
M  V30 437 H 37.9706 -0.203919 0.801465 0
M  V30 438 H 40.5166 0.34521 1.66152 0
M  V30 439 H 39.2886 0.467865 3.88493 0
M  V30 440 H 38.9116 -1.24372 3.77647 0
M  V30 441 N 39.9087 -1.5758 0.0250728 0
M  V30 442 C 41.1547 -1.92746 -0.649648 0
M  V30 443 C 41.5097 -0.901588 -1.69968 0
M  V30 444 O 40.8027 0.0829251 -1.9142 0
M  V30 445 C 40.9967 -3.32421 -1.31268 0
M  V30 446 C 40.8257 -4.48499 -0.328394 0
M  V30 447 C 39.5957 -5.05251 0.070284 0
M  V30 448 C 41.7937 -5.12618 0.415665 0
M  V30 449 N 39.7757 -6.04851 1.05016 0
M  V30 450 C 41.1467 -6.0728 1.24943 0
M  V30 451 C 43.2017 -4.95612 0.476803 0
M  V30 452 C 41.9047 -6.86766 2.1388 0
M  V30 453 C 43.9307 -5.75703 1.3535 0
M  V30 454 C 43.2927 -6.69978 2.17504 0
M  V30 455 H 39.3917 -0.753231 -0.210159 0
M  V30 456 H 41.9757 -1.94486 0.0912999 0
M  V30 457 H 40.1467 -3.31508 -2.02379 0
M  V30 458 H 41.8787 -3.54946 -1.94411 0
M  V30 459 H 38.6337 -4.72628 -0.303323 0
M  V30 460 H 39.0577 -6.5934 1.53622 0
M  V30 461 H 43.6997 -4.22554 -0.144105 0
M  V30 462 H 41.4177 -7.59132 2.77027 0
M  V30 463 H 45.0037 -5.64579 1.40504 0
M  V30 464 H 43.8837 -7.30873 2.84244 0
M  V30 465 N 41.3868 0.248026 -1.55636 0
M  V30 466 C 42.3168 1.31079 -1.93237 0
M  V30 467 C 43.2978 1.50264 -0.797174 0
M  V30 468 O 44.4828 1.62891 -1.05737 0
M  V30 469 C 41.6128 2.66575 -2.22609 0
M  V30 470 C 40.5668 2.62087 -3.3837 0
M  V30 471 C 39.8928 4.01369 -3.53281 0
M  V30 472 C 41.1928 2.19171 -4.7409 0
M  V30 473 H 42.8868 0.998556 -2.82257 0
M  V30 474 H 40.4328 0.47891 -1.35803 0
M  V30 475 H 42.3858 3.41057 -2.47503 0
M  V30 476 H 41.1098 2.99432 -1.30414 0
M  V30 477 H 39.7688 1.90063 -3.13483 0
M  V30 478 H 39.4168 4.31489 -2.58508 0
M  V30 479 H 39.1168 3.99254 -4.31127 0
M  V30 480 H 40.6408 4.77552 -3.80495 0
M  V30 481 H 42.0548 2.83384 -4.98363 0
M  V30 482 H 40.4518 2.2817 -5.5503 0
M  V30 483 H 41.5218 1.14336 -4.71227 0
M  V30 484 N 42.8649 1.48995 0.513639 0
M  V30 485 C 43.7949 1.67636 1.62544 0
M  V30 486 C 44.7759 0.525087 1.61793 0
M  V30 487 O 45.9609 0.759502 1.78732 0
M  V30 488 C 43.0909 1.73114 3.01079 0
M  V30 489 C 42.0449 2.87905 3.16693 0
M  V30 490 C 41.3709 2.78486 4.56453 0
M  V30 491 C 42.6709 4.29005 2.97913 0
M  V30 492 H 44.3649 2.60716 1.47198 0
M  V30 493 H 41.9109 1.25465 0.706714 0
M  V30 494 H 43.8639 1.84742 3.78746 0
M  V30 495 H 42.5879 0.766241 3.17484 0
M  V30 496 H 41.2469 2.75859 2.41448 0
M  V30 497 H 40.8949 1.7993 4.69717 0
M  V30 498 H 40.5949 3.55523 4.67843 0
M  V30 499 H 42.1189 2.92104 5.36197 0
M  V30 500 H 43.5329 4.41798 3.65359 0
M  V30 501 H 41.9299 5.07166 3.20785 0
M  V30 502 H 42.9999 4.44329 1.94165 0
M  V30 503 N 44.343 -0.763751 1.37857 0
M  V30 504 C 45.273 -1.89103 1.36975 0
M  V30 505 C 46.254 -1.68439 0.237152 0
M  V30 506 O 47.439 -1.8918 0.438713 0
M  V30 507 C 44.569 -3.26496 1.18395 0
M  V30 508 C 43.523 -3.61741 2.28751 0
M  V30 509 C 42.849 -4.97762 1.95286 0
M  V30 510 C 44.149 -3.67665 3.70972 0
M  V30 511 H 45.843 -1.90099 2.31307 0
M  V30 512 H 43.389 -0.91319 1.11341 0
M  V30 513 H 45.342 -4.05003 1.16406 0
M  V30 514 H 44.066 -3.25955 0.205215 0
M  V30 515 H 42.725 -2.85547 2.29909 0
M  V30 516 H 42.373 -4.93769 0.959221 0
M  V30 517 H 42.073 -5.22313 2.69189 0
M  V30 518 H 43.597 -5.7866 1.94898 0
M  V30 519 H 45.011 -4.36307 3.719 0
M  V30 520 H 43.408 -4.03718 4.43995 0
M  V30 521 H 44.478 -2.68134 4.0402 0
M  V30 522 N 45.8211 -1.22559 -0.990812 0
M  V30 523 C 46.7311 -1.01394 -2.11557 0
M  V30 524 C 47.7471 0.0383962 -1.73958 0
M  V30 525 O 48.9231 -0.154787 -2.00804 0
M  V30 526 C 45.9881 -0.596569 -3.41529 0
M  V30 527 C 45.0491 -1.72276 -3.93217 0
M  V30 528 C 44.2821 -1.32521 -5.16985 0
M  V30 529 O 44.5051 -0.204909 -5.70032 0
M  V30 530 O 43.4391 -2.14247 -5.62478 0
M  V30 531 H 47.2651 -1.95633 -2.32296 0
M  V30 532 H 44.8501 -1.01172 -1.0993 0
M  V30 533 H 46.7321 -0.374263 -4.19735 0
M  V30 534 H 45.4071 0.316939 -3.22145 0
M  V30 535 H 44.3141 -1.99961 -3.16174 0
M  V30 536 H 45.6471 -2.61421 -4.17037 0
M  V30 537 N 47.2992 1.18797 -1.03562 0
M  V30 538 C 48.5762 1.84469 -0.650434 0
M  V30 539 C 48.9562 1.92319 0.870433 0
M  V30 540 O 48.3042 1.44528 1.76986 0
M  V30 541 C 48.5142 3.2306 -1.32036 0
M  V30 542 C 49.8622 3.9915 -1.44792 0
M  V30 543 O 50.8862 3.32481 -1.27806 0
M  V30 544 O 49.7452 5.18587 -1.72423 0
M  V30 545 H 46.8392 0.795251 -0.226946 0
M  V30 546 H 49.3852 1.26231 -1.13419 0
M  V30 547 H 48.1572 3.1222 -2.3587 0
M  V30 548 H 47.7802 3.88949 -0.8249 0
M  V30 549 N 48.7773 0.814389 1.34928 0
M  V30 550 C 50.0023 0.410097 2.03305 0
M  V30 551 C 50.4273 -0.973464 1.60951 0
M  V30 552 O 49.7853 -1.63185 0.789964 0
M  V30 553 C 49.8333 0.51049 3.56968 0
M  V30 554 O 48.9373 -0.473035 4.09678 0
M  V30 555 H 48.2783 0.170088 0.641846 0
M  V30 556 H 50.8083 1.10244 1.72358 0
M  V30 557 H 50.8183 0.383135 4.06197 0
M  V30 558 H 49.4933 1.51963 3.87144 0
M  V30 559 H 48.0703 -0.305272 3.71648 0
M  V30 560 N 50.2554 -1.46986 0.568584 0
M  V30 561 C 51.1884 -2.27129 -0.220779 0
M  V30 562 C 52.1664 -1.34757 -0.909905 0
M  V30 563 O 53.3504 -1.64152 -0.926622 0
M  V30 564 C 50.4774 -3.12108 -1.31553 0
M  V30 565 C 49.5234 -4.20141 -0.733748 0
M  V30 566 S 50.3564 -5.33783 0.428479 0
M  V30 567 C 51.5124 -6.22327 -0.667811 0
M  V30 568 H 51.7454 -2.93731 0.459267 0
M  V30 569 H 49.2784 -1.5026 0.355154 0
M  V30 570 H 51.2364 -3.61636 -1.94241 0
M  V30 571 H 49.8974 -2.44847 -1.96746 0
M  V30 572 H 49.0904 -4.79373 -1.5562 0
M  V30 573 H 48.6924 -3.73553 -0.182812 0
M  V30 574 H 50.9844 -6.59364 -1.55708 0
M  V30 575 H 51.9274 -7.0801 -0.11258 0
M  V30 576 H 52.3354 -5.5618 -0.965601 0
M  V30 577 N 51.7335 -0.305618 -1.54608 0
M  V30 578 C 52.9615 0.304775 -2.04643 0
M  V30 579 C 53.3765 1.47167 -1.18268 0
M  V30 580 O 52.7335 1.81296 -0.209328 0
M  V30 581 C 52.7845 0.756564 -3.53495 0
M  V30 582 O 52.5055 -0.36389 -4.36586 0
M  V30 583 C 54.0065 1.43163 -4.19546 0
M  V30 584 H 51.2265 0.0655481 -0.667791 0
M  V30 585 H 53.7705 -0.446592 -1.99564 0
M  V30 586 H 51.9255 1.45794 -3.58919 0
M  V30 587 H 52.3395 -0.0113121 -5.24499 0
M  V30 588 H 53.8135 1.69886 -5.25207 0
M  V30 589 H 54.2905 2.37318 -3.69563 0
M  V30 590 H 54.8965 0.773307 -4.18211 0
M  V30 591 N 53.2116 1.57565 -0.0334293 0
M  V30 592 C 54.1586 2.10478 0.946981 0
M  V30 593 C 55.1286 1.00787 1.32027 0
M  V30 594 O 56.3136 1.28232 1.41284 0
M  V30 595 C 53.4536 2.63994 2.22263 0
M  V30 596 C 52.5666 3.87709 1.90541 0
M  V30 597 C 51.7016 4.29604 3.12433 0
M  V30 598 C 50.7406 5.46065 2.76549 0
M  V30 599 N 49.8776 5.83096 3.9108 0
M  V30 600 H 54.7176 2.93963 0.488846 0
M  V30 601 H 52.2546 1.45296 0.22969 0
M  V30 602 H 54.2126 2.93114 2.96884 0
M  V30 603 H 52.8426 1.83333 2.65685 0
M  V30 604 H 51.8946 3.65291 1.06144 0
M  V30 605 H 53.2066 4.72403 1.60116 0
M  V30 606 H 52.3606 4.60182 3.9537 0
M  V30 607 H 51.0996 3.43685 3.46023 0
M  V30 608 H 50.1046 5.15176 1.92026 0
M  V30 609 H 51.3296 6.33685 2.44171 0
M  V30 610 H 49.2756 5.00132 4.24504 0
M  V30 611 H 49.1926 6.6244 3.64293 0
M  V30 612 H 50.4606 6.18282 4.74708 0
M  V30 613 N 54.6897 -0.239769 1.55765 0
M  V30 614 C 56.1057 -0.588624 1.48349 0
M  V30 615 C 56.3057 -1.88005 0.72502 0
M  V30 616 O 55.3617 -2.51186 0.257269 0
M  V30 617 C 56.6747 -0.68474 2.928 0
M  V30 618 C 58.2227 -0.77659 3.03213 0
M  V30 619 C 58.6977 -0.904207 4.48986 0
M  V30 620 N 60.1887 -0.968896 4.52953 0
M  V30 621 C 60.9237 -1.08703 5.63002 0
M  V30 622 N 60.4197 -1.17026 6.82845 0
M  V30 623 N 62.2127 -1.12074 5.50814 0
M  V30 624 H 54.3637 0.607911 2.03515 0
M  V30 625 H 56.6267 0.21083 0.924259 0
M  V30 626 H 56.3327 0.194284 3.51163 0
M  V30 627 H 56.2067 -1.55435 3.43686 0
M  V30 628 H 58.5937 -1.64606 2.44926 0
M  V30 629 H 58.6747 0.118315 2.55526 0
M  V30 630 H 58.3187 -0.0392633 5.07885 0
M  V30 631 H 58.2487 -1.81426 4.9436 0
M  V30 632 H 60.7397 -0.915633 3.6664 0
M  V30 633 H 61.0527 -1.25966 7.62465 0
M  V30 634 H 59.3977 -1.13971 6.85591 0
M  V30 635 H 62.5887 -1.05226 4.5612 0
M  V30 636 H 62.7617 -1.20936 6.36615 0
M  V30 637 N 56.1678 -1.49265 -0.50573 0
M  V30 638 C 57.4148 -1.58513 -1.26015 0
M  V30 639 C 57.7428 -0.26972 -1.92621 0
M  V30 640 O 56.9978 0.741997 -1.81088 0
M  V30 641 C 57.2968 -2.69008 -2.35308 0
M  V30 642 C 56.9628 -4.10662 -1.86192 0
M  V30 643 C 55.6248 -4.49212 -1.72516 0
M  V30 644 C 57.9768 -4.99336 -1.49375 0
M  V30 645 C 55.3048 -5.74214 -1.20394 0
M  V30 646 C 57.6568 -6.24852 -0.987072 0
M  V30 647 C 56.3208 -6.62236 -0.836669 0
M  V30 648 H 55.5908 -0.580041 -0.461122 0
M  V30 649 H 58.2378 -1.83078 -0.561665 0
M  V30 650 H 56.5428 -2.38396 -3.10926 0
M  V30 651 H 58.2398 -2.73373 -2.93374 0
M  V30 652 H 54.8298 -3.8023 -1.97795 0
M  V30 653 H 59.0138 -4.70212 -1.5879 0
M  V30 654 H 54.2698 -6.01883 -1.07458 0
M  V30 655 H 58.4438 -6.92944 -0.692983 0
M  V30 656 H 56.0708 -7.58979 -0.430607 0
M  V30 657 N 57.6459 0.756429 -1.3826 0
M  V30 658 C 58.5559 1.9009 -1.37488 0
M  V30 659 C 59.5719 1.71855 -0.272366 0
M  V30 660 O 60.7479 1.94827 -0.510318 0
M  V30 661 C 57.8129 3.25421 -1.19592 0
M  V30 662 C 56.8739 3.56202 -2.39622 0
M  V30 663 C 56.1069 4.85075 -2.2257 0
M  V30 664 O 56.3299 5.57246 -1.21793 0
M  V30 665 O 55.2639 5.15269 -3.11098 0
M  V30 666 H 59.0899 1.93695 -2.33914 0
M  V30 667 H 56.6749 0.901313 -1.1915 0
M  V30 668 H 58.5569 4.06337 -1.11661 0
M  V30 669 H 57.2319 3.22634 -0.262486 0
M  V30 670 H 56.1389 2.75458 -2.53128 0
M  V30 671 H 57.4719 3.63747 -3.31586 0
M  V30 672 N 59.124 1.23083 0.984299 0
M  V30 673 C 60.056 0.96636 2.07832 0
M  V30 674 C 61.069 -0.0582135 1.62696 0
M  V30 675 O 62.258 0.176843 1.77622 0
M  V30 676 C 59.358 0.433397 3.36117 0
M  V30 677 C 58.531 1.51722 4.10243 0
M  V30 678 C 57.59 0.989821 5.16807 0
M  V30 679 O 56.616 1.67794 5.43906 0
M  V30 680 N 57.818 -0.184367 5.80207 0
M  V30 681 H 60.583 1.90824 2.31098 0
M  V30 682 H 58.144 1.13888 1.1507 0
M  V30 683 H 60.136 0.065699 4.04647 0
M  V30 684 H 58.706 -0.413806 3.09849 0
M  V30 685 H 57.926 2.05786 3.36223 0
M  V30 686 H 59.214 2.24619 4.56534 0
M  V30 687 H 58.612 -0.760062 5.60571 0
M  V30 688 H 57.169 -0.493366 6.4993 0
M  V30 689 N 60.6021 -1.18246 1.0419 0
M  V30 690 C 61.5341 -2.2142 0.592088 0
M  V30 691 C 62.5471 -1.59233 -0.338909 0
M  V30 692 O 63.7361 -1.78002 -0.133231 0
M  V30 693 C 60.8361 -3.38546 -0.154854 0
M  V30 694 C 60.0091 -4.3031 0.784328 0
M  V30 695 C 59.0681 -5.26138 0.0804583 0
M  V30 696 O 58.0941 -5.64738 0.711292 0
M  V30 697 N 59.2961 -5.68261 -1.18574 0
M  V30 698 H 62.0611 -2.60636 1.47949 0
M  V30 699 H 59.6221 -1.33044 0.922544 0
M  V30 700 H 61.6141 -3.99678 -0.635606 0
M  V30 701 H 60.1841 -2.98012 -0.943811 0
M  V30 702 H 59.4041 -3.66764 1.44491 0
M  V30 703 H 60.6921 -4.8852 1.42218 0
M  V30 704 H 60.0901 -5.38957 -1.71876 0
M  V30 705 H 58.6471 -6.31584 -1.61074 0
M  V30 706 N 62.0802 -0.821533 -1.34494 0
M  V30 707 C 63.3282 -0.408139 -1.97936 0
M  V30 708 C 63.6492 1.03193 -1.65457 0
M  V30 709 O 62.9192 1.71622 -0.944595 0
M  V30 710 H 61.4992 -0.147928 -0.732206 0
M  V30 711 H 64.1612 -1.05067 -1.64155 0
M  V30 712 H 63.2572 -0.52601 -3.07635 0
M  V30 713 N 63.5583 1.46682 -0.576371 0
M  V30 714 C 64.5053 2.30241 0.160499 0
M  V30 715 C 65.4753 1.40233 0.890162 0
M  V30 716 O 66.6603 1.69186 0.882084 0
M  V30 717 C 63.8003 3.24578 1.1723 0
M  V30 718 C 62.9133 4.29684 0.446736 0
M  V30 719 C 62.0483 5.11154 1.44551 0
M  V30 720 C 61.0873 6.08015 0.70599 0
M  V30 721 N 60.2243 6.82376 1.65251 0
M  V30 722 H 65.0643 2.92727 -0.558127 0
M  V30 723 H 62.6013 1.44272 -0.287056 0
M  V30 724 H 64.5593 3.77711 1.77172 0
M  V30 725 H 63.1893 2.63916 1.85872 0
M  V30 726 H 62.2413 3.79458 -0.267594 0
M  V30 727 H 63.5533 4.98626 -0.131686 0
M  V30 728 H 62.7073 5.68533 2.11791 0
M  V30 729 H 61.4463 4.42158 2.05786 0
M  V30 730 H 60.4513 5.49796 0.0197725 0
M  V30 731 H 61.6763 6.79028 0.09912 0
M  V30 732 H 59.6223 6.16094 2.25308 0
M  V30 733 H 59.5393 7.47556 1.12673 0
M  V30 734 H 60.8073 7.44316 2.31546 0
M  V30 735 N 65.0364 0.313813 1.54444 0
M  V30 736 C 66.2644 -0.293918 2.04802 0
M  V30 737 C 66.6794 -1.46537 1.19047 0
M  V30 738 O 66.0364 -1.81182 0.218939 0
M  V30 739 C 66.0874 -0.737806 3.53891 0
M  V30 740 O 65.8084 0.387038 4.36387 0
M  V30 741 C 67.3094 -1.40936 4.203 0
M  V30 742 H 64.5294 -0.0620057 0.668129 0
M  V30 743 H 67.0734 0.457169 1.99324 0
M  V30 744 H 65.2284 -1.43889 3.59687 0
M  V30 745 H 65.6424 0.0391274 5.24485 0
M  V30 746 H 67.1164 -1.67099 5.26101 0
M  V30 747 H 67.5934 -2.35355 3.70816 0
M  V30 748 H 68.1994 -0.751117 4.18615 0
M  V30 749 N 66.5145 -1.57545 0.0417849 0
M  V30 750 C 67.7605 -1.92601 -0.635021 0
M  V30 751 C 68.0935 -0.919627 -1.71045 0
M  V30 752 O 67.3685 0.0557892 -1.9442 0
M  V30 753 C 67.6515 -3.38085 -1.23979 0
M  V30 754 C 67.5045 -4.49467 -0.173057 0
M  V30 755 C 68.8235 -3.83776 -2.15416 0
M  V30 756 H 65.9425 -0.700397 -0.229374 0
M  V30 757 H 68.5845 -1.89728 0.101633 0
M  V30 758 H 66.7345 -3.40664 -1.86762 0
M  V30 759 H 68.4065 -4.59018 0.458312 0
M  V30 760 H 66.6495 -4.30909 0.499996 0
M  V30 761 H 67.3205 -5.48323 -0.636054 0
M  V30 762 H 69.7965 -3.83013 -1.62605 0
M  V30 763 H 68.6725 -4.8624 -2.54679 0
M  V30 764 H 68.9335 -3.19998 -3.05047 0
M  V30 765 N 67.9926 0.231505 -1.5589 0
M  V30 766 C 69.2176 0.978689 -1.82856 0
M  V30 767 C 69.6426 1.77559 -0.620846 0
M  V30 768 O 69.0006 1.76119 0.430305 0
M  V30 769 C 69.0486 1.87997 -3.07716 0
M  V30 770 O 68.1526 2.97393 -2.85712 0
M  V30 771 H 67.4936 0.277663 -0.603158 0
M  V30 772 H 70.0236 0.24783 -2.03093 0
M  V30 773 H 70.0336 2.2917 -3.37558 0
M  V30 774 H 68.7086 1.29417 -3.95252 0
M  V30 775 H 67.2856 2.60238 -2.67078 0
M  V30 776 N 69.4707 1.49531 0.497807 0
M  V30 777 C 70.7167 1.59415 1.25358 0
M  V30 778 C 71.0497 0.281422 1.9215 0
M  V30 779 O 70.3247 -0.715249 1.80871 0
M  V30 780 C 70.6077 2.75566 2.3181 0
M  V30 781 C 70.4607 4.16642 1.69498 0
M  V30 782 C 71.7797 2.87347 3.33346 0
M  V30 783 H 68.8987 0.580244 0.454408 0
M  V30 784 H 71.5407 1.81827 0.551262 0
M  V30 785 H 69.6907 2.56587 2.91711 0
M  V30 786 H 71.3627 4.47145 1.13399 0
M  V30 787 H 69.6057 4.22141 0.998978 0
M  V30 788 H 70.2767 4.93792 2.46725 0
M  V30 789 H 72.7527 3.04634 2.83438 0
M  V30 790 H 71.6287 3.70289 4.05188 0
M  V30 791 H 71.8897 1.96834 3.95865 0
M  V30 792 N 70.9488 -0.749086 1.3866 0
M  V30 793 C 72.1768 -1.53834 1.38358 0
M  V30 794 C 72.5918 -1.88783 -0.0255219 0
M  V30 795 O 71.9488 -1.53101 -0.993292 0
M  V30 796 C 71.9998 -2.83468 2.2434 0
M  V30 797 O 71.7208 -2.50008 3.5976 0
M  V30 798 C 73.2218 -3.7758 2.32267 0
M  V30 799 H 70.4418 -0.47585 0.473083 0
M  V30 800 H 72.9858 -0.926726 1.82297 0
M  V30 801 H 71.1408 -3.40995 1.83851 0
M  V30 802 H 71.5548 -3.33182 4.05081 0
M  V30 803 H 73.0288 -4.65478 2.96706 0
M  V30 804 H 73.5058 -4.18334 1.33765 0
M  V30 805 H 74.1118 -3.25976 2.73166 0
M  V30 806 N 72.4269 -1.23603 -0.977757 0
M  V30 807 C 73.3599 -0.962772 -2.06896 0
M  V30 808 C 74.3379 0.0998743 -1.62293 0
M  V30 809 O 75.5219 -0.0349421 -1.88468 0
M  V30 810 C 72.6489 -0.45095 -3.35685 0
M  V30 811 C 71.6949 -1.50061 -3.99229 0
M  V30 812 S 72.5279 -3.07884 -4.38142 0
M  V30 813 C 73.6839 -2.58378 -5.7008 0
M  V30 814 H 73.9169 -1.88677 -2.29757 0
M  V30 815 H 71.4499 -1.06876 -1.11431 0
M  V30 816 H 73.4079 -0.162261 -4.10179 0
M  V30 817 H 72.0689 0.452179 -3.10828 0
M  V30 818 H 71.2619 -1.09269 -4.92013 0
M  V30 819 H 70.8639 -1.73878 -3.31123 0
M  V30 820 H 73.1559 -2.00563 -6.47133 0
M  V30 821 H 74.0989 -3.49711 -6.15717 0
M  V30 822 H 74.5069 -1.99143 -5.28207 0
M  V30 823 N 73.905 1.17692 -1.04816 0
M  V30 824 C 75.154 1.87192 -0.751132 0
M  V30 825 C 75.467 1.8169 0.724441 0
M  V30 826 O 76.673 2.46625 1.13527 0
M  V30 827 C 75.129 3.35857 -1.29338 0
M  V30 828 C 74.737 3.4987 -2.79812 0
M  V30 829 C 76.481 4.10709 -1.07322 0
M  V30 830 C 74.388 4.92536 -3.27356 0
M  V30 831 H 73.318 0.701162 -0.277288 0
M  V30 832 H 75.969 1.32932 -1.26496 0
M  V30 833 H 74.351 3.89631 -0.707376 0
M  V30 834 H 75.525 3.06332 -3.44235 0
M  V30 835 H 73.84 2.88433 -3.00325 0
M  V30 836 H 76.437 5.15952 -1.4035 0
M  V30 837 H 76.78 4.16299 -0.0108001 0
M  V30 838 H 77.313 3.6313 -1.62423 0
M  V30 839 H 74.052 4.92119 -4.33012 0
M  V30 840 H 73.572 5.3676 -2.67673 0
M  V30 841 H 75.251 5.61288 -3.21815 0
M  V30 842 N 75.3831 0.828654 1.34056 0
M  V30 843 C 76.7991 0.515135 1.51058 0
M  V30 844 C 76.9991 -0.959581 1.77184 0
M  V30 845 O 76.0551 -1.74382 1.82612 0
M  V30 846 C 77.3681 1.37963 2.67183 0
M  V30 847 C 78.9161 1.37735 2.81066 0
M  V30 848 C 79.3911 2.22645 4.00241 0
M  V30 849 N 80.8821 2.203 4.07458 0
M  V30 850 C 81.6171 2.82744 4.98842 0
M  V30 851 N 81.1131 3.54201 5.9541 0
M  V30 852 N 82.9061 2.72268 4.91759 0
M  V30 853 H 75.0571 1.78343 1.15358 0
M  V30 854 H 77.3201 0.760304 0.566252 0
M  V30 855 H 77.0261 2.42714 2.54525 0
M  V30 856 H 76.9001 1.0484 3.62338 0
M  V30 857 H 79.2871 0.337593 2.93163 0
M  V30 858 H 79.3681 1.74859 1.86703 0
M  V30 859 H 79.0121 3.26674 3.88905 0
M  V30 860 H 78.9421 1.82869 4.93829 0
M  V30 861 H 81.4331 1.68327 3.38341 0
M  V30 862 H 81.7461 3.9908 6.61782 0
M  V30 863 H 80.0911 3.58308 5.95517 0
M  V30 864 H 83.2821 2.16014 4.15278 0
M  V30 865 H 83.4551 3.21219 5.62781 0
M  V30 866 N 76.8612 -1.46375 0.584142 0
M  V30 867 C 77.7712 -2.34115 -0.150728 0
M  V30 868 C 78.7872 -1.49838 -0.884567 0
M  V30 869 O 79.9632 -1.82704 -0.847429 0
M  V30 870 C 77.0282 -3.2705 -1.15062 0
M  V30 871 C 76.0892 -4.27228 -0.421293 0
M  V30 872 C 75.3222 -5.15722 -1.37355 0
M  V30 873 O 75.5452 -5.07176 -2.61014 0
M  V30 874 O 74.4792 -5.95383 -0.883355 0
M  V30 875 H 78.3052 -2.98309 0.569708 0
M  V30 876 H 75.8902 -1.45373 0.344535 0
M  V30 877 H 77.7722 -3.84381 -1.72712 0
M  V30 878 H 76.4472 -2.65451 -1.8525 0
M  V30 879 H 75.3542 -3.7358 0.197085 0
M  V30 880 H 76.6872 -4.91616 0.239641 0
M  V30 881 N 78.3393 -0.321999 -1.54275 0
M  V30 882 C 79.5873 0.280489 -2.00144 0
M  V30 883 C 79.9083 1.52777 -1.21178 0
M  V30 884 O 79.1783 1.9338 -0.313187 0
M  V30 885 H 77.7583 0.106632 -0.73935 0
M  V30 886 H 80.4203 -0.438184 -1.8991 0
M  V30 887 H 79.5163 0.537972 -3.07428 0
M  V30 888 N 79.8174 1.5752 -0.0501392 0
M  V30 889 C 81.0644 1.9265 0.623874 0
M  V30 890 C 81.3924 0.928411 1.70912 0
M  V30 891 O 80.6474 -0.0594525 1.9561 0
M  V30 892 C 80.9464 3.34467 1.25963 0
M  V30 893 C 80.6124 4.49883 0.302689 0
M  V30 894 C 79.2744 4.81184 0.0393636 0
M  V30 895 C 81.6264 5.20002 -0.353205 0
M  V30 896 C 78.9544 5.79951 -0.887308 0
M  V30 897 C 81.3064 6.1976 -1.26806 0
M  V30 898 C 79.9704 6.49491 -1.54007 0
M  V30 899 H 79.2404 0.704957 0.228292 0
M  V30 900 H 81.8874 1.91146 -0.116398 0
M  V30 901 H 80.1924 3.32333 2.07514 0
M  V30 902 H 81.8894 3.58928 1.78806 0
M  V30 903 H 78.4794 4.25457 0.518109 0
M  V30 904 H 82.6634 4.96033 -0.162854 0
M  V30 905 H 77.9194 6.01322 -1.10553 0
M  V30 906 H 82.0934 6.73205 -1.78236 0
M  V30 907 H 79.7204 7.25837 -2.25976 0
M  V30 908 N 81.2955 -0.223234 1.56011 0
M  V30 909 C 82.5415 -0.949279 1.79211 0
M  V30 910 C 82.8745 -1.84054 0.619494 0
M  V30 911 O 82.1495 -1.90726 -0.381317 0
M  V30 912 C 82.4325 -1.78965 3.12479 0
M  V30 913 C 82.2855 -0.924997 4.40186 0
M  V30 914 C 83.6045 -2.76774 3.42175 0
M  V30 915 H 80.7235 -0.343676 0.651963 0
M  V30 916 H 83.3655 -0.218253 1.88742 0
M  V30 917 H 81.5155 -2.41291 3.04485 0
M  V30 918 H 83.1875 -0.318615 4.60198 0
M  V30 919 H 81.4305 -0.230344 4.33188 0
M  V30 920 H 82.1015 -1.54735 5.29869 0
M  V30 921 H 84.5775 -2.24584 3.50287 0
M  V30 922 H 83.4535 -3.32678 4.36597 0
M  V30 923 H 83.7145 -3.54429 2.64258 0
M  V30 924 N 82.7736 -1.49793 -0.48987 0
M  V30 925 C 83.6836 -1.70036 -1.61632 0
M  V30 926 C 84.6996 -0.583102 -1.63939 0
M  V30 927 O 85.8756 -0.859169 -1.82154 0
M  V30 928 C 82.9406 -1.77277 -2.97949 0
M  V30 929 C 82.0016 -3.00918 -3.06181 0
M  V30 930 C 81.2346 -3.07804 -4.35996 0
M  V30 931 O 81.4576 -2.21982 -5.25433 0
M  V30 932 O 80.3916 -4.00369 -4.49431 0
M  V30 933 H 84.2176 -2.65486 -1.47482 0
M  V30 934 H 81.8026 -1.33666 -0.667362 0
M  V30 935 H 83.6846 -1.84329 -3.78947 0
M  V30 936 H 82.3596 -0.850076 -3.12339 0
M  V30 937 H 81.2666 -2.99377 -2.2433 0
M  V30 938 H 82.5996 -3.92704 -2.96723 0
M  V30 939 N 84.2517 0.741722 -1.39055 0
M  V30 940 C 85.1837 1.8657 -1.33133 0
M  V30 941 C 86.1967 1.61001 -0.241329 0
M  V30 942 O 87.3857 1.7136 -0.499784 0
M  V30 943 C 84.4857 3.22457 -1.04283 0
M  V30 944 C 83.6587 3.75435 -2.24427 0
M  V30 945 C 82.7177 4.89867 -1.92138 0
M  V30 946 O 81.7437 5.03879 -2.64754 0
M  V30 947 N 82.9457 5.73738 -0.88347 0
M  V30 948 H 85.7107 1.92156 -2.29991 0
M  V30 949 H 83.2717 0.922172 -1.3307 0
M  V30 950 H 85.2637 3.9657 -0.807128 0
M  V30 951 H 83.8337 3.12181 -0.161807 0
M  V30 952 H 83.0537 2.92751 -2.6399 0
M  V30 953 H 84.3417 4.07563 -3.04581 0
M  V30 954 H 83.7397 5.64999 -0.281517 0
M  V30 955 H 82.2967 6.47947 -0.707662 0
M  V30 956 N 85.7298 1.2412 0.971189 0
M  V30 957 C 86.6778 1.02812 2.08644 0
M  V30 958 C 87.6718 -0.0358403 1.69362 0
M  V30 959 O 88.8778 0.118429 1.7961 0
M  V30 960 H 85.2528 0.315428 0.682649 0
M  V30 961 H 87.2238 1.97397 2.23779 0
M  V30 962 C 85.9728 0.645874 3.41649 0
M  V30 963 H 85.2958 1.45632 3.72332 0
M  V30 964 H 86.7358 0.536366 4.20594 0
M  V30 965 C 85.1948 -0.646713 3.30635 0
M  V30 966 O 85.7248 -1.69338 3.64263 0
M  V30 967 N 83.9308 -0.626115 2.83775 0
M  V30 968 H 83.4778 0.225988 2.56607 0
M  V30 969 H 83.4358 -1.49117 2.76788 0
M  V30 970 N 87.2079 -1.17134 1.05439 0
M  V30 971 C 88.1179 -2.24878 0.668365 0
M  V30 972 C 89.1339 -1.71186 -0.311687 0
M  V30 973 O 90.3099 -2.00738 -0.163161 0
M  V30 974 C 87.3749 -3.46662 0.051648 0
M  V30 975 C 86.4359 -4.15429 1.08246 0
M  V30 976 C 85.6689 -5.31399 0.495082 0
M  V30 977 O 85.8919 -5.66153 -0.694743 0
M  V30 978 O 84.8259 -5.89187 1.23056 0
M  V30 979 H 88.6519 -2.60189 1.56637 0
M  V30 980 H 86.2369 -1.24482 0.826104 0
M  V30 981 H 88.1189 -4.20394 -0.290966 0
M  V30 982 H 86.7939 -3.13142 -0.819971 0
M  V30 983 H 85.7009 -3.43704 1.47711 0
M  V30 984 H 87.0339 -4.52982 1.92532 0
M  V30 985 N 88.686 -0.835752 -1.33615 0
M  V30 986 C 89.935 -0.426289 -1.97144 0
M  V30 987 C 90.248 1.01912 -1.66953 0
M  V30 988 O 91.454 1.53311 -2.24072 0
M  V30 989 C 89.91 -0.711321 -3.52801 0
M  V30 990 C 89.518 -2.1712 -3.91871 0
M  V30 991 C 91.262 -0.368654 -4.22896 0
M  V30 992 C 89.169 -2.40044 -5.40493 0
M  V30 993 H 88.099 -0.15567 -0.737755 0
M  V30 994 H 90.75 -1.0239 -1.52278 0
M  V30 995 H 89.132 -0.0433766 -3.95976 0
M  V30 996 H 90.306 -2.87936 -3.59763 0
M  V30 997 H 88.621 -2.47654 -3.34749 0
M  V30 998 H 91.218 -0.517601 -5.32189 0
M  V30 999 H 91.561 0.688078 -4.10574 0
M  V30 1000 H 92.094 -0.991702 -3.8524 0
M  V30 1001 H 88.833 -3.44271 -5.57815 0
M  V30 1002 H 88.353 -1.73785 -5.74072 0
M  V30 1003 H 90.032 -2.23042 -6.0734 0
M  V30 1004 N 90.1641 1.46063 -0.591896 0
M  V30 1005 C 91.5751 1.85944 -0.167822 0
M  V30 1006 C 91.9261 1.49429 1.27143 0
M  V30 1007 O 91.0511 0.913515 1.96173 0
M  V30 1008 C 91.6461 3.37489 -0.297794 0
M  V30 1009 C 90.2051 3.76332 0.0714732 0
M  V30 1010 C 89.3521 2.7006 -0.629509 0
M  V30 1011 H 92.3031 1.37087 -0.799555 0
M  V30 1012 H 92.3241 3.77532 0.474349 0
M  V30 1013 H 91.8361 3.64034 -1.3454 0
M  V30 1014 H 89.9371 3.55405 1.11886 0
M  V30 1015 H 90.0501 4.78088 -0.311245 0
M  V30 1016 H 88.4141 2.54607 -0.0687867 0
M  V30 1017 H 89.1971 2.99444 -1.67894 0
M  V30 1018 N 91.6422 0.330177 1.54103 0
M  V30 1019 C 92.5522 -0.541534 2.28264 0
M  V30 1020 C 93.5682 -1.12351 1.32866 0
M  V30 1021 O 94.7442 -1.14206 1.65888 0
M  V30 1022 C 91.8092 -1.68322 3.03098 0
M  V30 1023 C 90.8702 -1.13238 4.14096 0
M  V30 1024 C 90.1032 -2.21966 4.85352 0
M  V30 1025 O 90.3262 -3.42437 4.56172 0
M  V30 1026 O 89.2602 -1.87013 5.7211 0
M  V30 1027 H 93.0862 0.060938 3.03639 0
M  V30 1028 H 90.6712 0.09565 1.49093 0
M  V30 1029 H 92.5532 -2.34777 3.49939 0
M  V30 1030 H 91.2282 -2.27176 2.30593 0
M  V30 1031 H 90.1352 -0.432736 3.71589 0
M  V30 1032 H 91.4682 -0.588898 4.88664 0
M  V30 1033 N 93.1203 -1.57491 0.0584922 0
M  V30 1034 C 94.0303 -2.15448 -0.928414 0
M  V30 1035 C 95.0463 -1.11416 -1.3365 0
M  V30 1036 O 96.2223 -1.4362 -1.41193 0
M  V30 1037 C 93.2873 -2.69393 -2.18239 0
M  V30 1038 C 92.3483 -3.88249 -1.83196 0
M  V30 1039 C 91.5813 -4.39613 -3.02616 0
M  V30 1040 O 91.8043 -3.90023 -4.16219 0
M  V30 1041 O 90.7383 -5.31111 -2.83204 0
M  V30 1042 H 94.5643 -3.00112 -0.465483 0
M  V30 1043 H 92.1493 -1.48499 -0.163826 0
M  V30 1044 H 94.0313 -3.04026 -2.91798 0
M  V30 1045 H 92.7063 -1.87796 -2.63656 0
M  V30 1046 H 91.6133 -3.58492 -1.06931 0
M  V30 1047 H 92.9463 -4.71098 -1.42573 0
M  V30 1048 N 94.5984 0.214957 -1.56127 0
M  V30 1049 C 95.5284 1.2695 -1.95974 0
M  V30 1050 C 96.5094 1.48539 -0.828868 0
M  V30 1051 O 97.6944 1.60611 -1.09168 0
M  V30 1052 C 94.8244 2.61794 -2.28214 0
M  V30 1053 C 93.7784 2.54851 -3.43853 0
M  V30 1054 C 93.1044 3.93785 -3.61715 0
M  V30 1055 C 94.4044 2.09065 -4.78632 0
M  V30 1056 H 96.0984 0.93846 -2.84312 0
M  V30 1057 H 93.6444 0.449996 -1.36788 0
M  V30 1058 H 95.5974 3.35731 -2.54682 0
M  V30 1059 H 94.3214 2.96599 -1.36736 0
M  V30 1060 H 92.9804 1.8337 -3.17444 0
M  V30 1061 H 92.6284 4.25908 -2.67602 0
M  V30 1062 H 92.3284 3.90019 -4.39498 0
M  V30 1063 H 93.8524 4.69374 -3.90539 0
M  V30 1064 H 95.2664 2.7275 -5.04262 0
M  V30 1065 H 93.6634 2.16346 -5.59745 0
M  V30 1066 H 94.7334 1.04315 -4.73547 0
M  V30 1067 N 96.0765 1.50051 0.48192 0
M  V30 1068 C 97.4875 1.5348 1.06305 0
M  V30 1069 C 97.8385 0.331997 1.93371 0
M  V30 1070 O 96.9635 -0.556256 2.09129 0
M  V30 1071 C 97.5585 2.7813 1.93466 0
M  V30 1072 C 96.1175 2.84275 2.46707 0
M  V30 1073 C 95.2645 2.47637 1.24785 0
M  V30 1074 H 98.2155 1.56472 0.264995 0
M  V30 1075 H 98.2365 2.59372 2.78399 0
M  V30 1076 H 97.7485 3.65654 1.30072 0
M  V30 1077 H 95.8495 2.01077 3.13686 0
M  V30 1078 H 95.9625 3.8691 2.82555 0
M  V30 1079 H 94.3265 1.99835 1.57918 0
M  V30 1080 H 95.1095 3.37457 0.630694 0
M  V30 1081 N 97.5546 -0.734337 1.39446 0
M  V30 1082 C 98.4846 -1.86155 1.40955 0
M  V30 1083 C 99.4656 -1.67898 0.272827 0
M  V30 1084 O 100.651 -1.88207 0.478743 0
M  V30 1085 C 97.7806 -3.23912 1.25294 0
M  V30 1086 C 96.7346 -3.56808 2.36373 0
M  V30 1087 C 96.0606 -4.93508 2.058 0
M  V30 1088 C 97.3606 -3.59713 3.78687 0
M  V30 1089 H 99.0546 -1.8515 2.35287 0
M  V30 1090 H 96.6006 -0.889367 1.13253 0
M  V30 1091 H 98.5536 -4.02443 1.2497 0
M  V30 1092 H 97.2776 -3.25446 0.274308 0
M  V30 1093 H 95.9366 -2.80606 2.35914 0
M  V30 1094 H 95.5846 -4.91623 1.06374 0
M  V30 1095 H 95.2846 -5.16486 2.80208 0
M  V30 1096 H 96.8086 -5.74396 2.07128 0
M  V30 1097 H 98.2226 -4.2832 3.81071 0
M  V30 1098 H 96.6196 -3.94209 4.52459 0
M  V30 1099 H 97.6896 -2.59504 4.09617 0
M  V30 1100 N 99.0327 -1.24633 -0.964593 0
M  V30 1101 C 99.9627 -1.06611 -2.07741 0
M  V30 1102 C 100.944 0.0218666 -1.70086 0
M  V30 1103 O 102.129 -0.145793 -1.93652 0
M  V30 1104 C 99.2587 -0.673444 -3.40708 0
M  V30 1105 C 98.2127 -1.71054 -3.92332 0
M  V30 1106 C 97.5387 -1.17285 -5.21678 0
M  V30 1107 C 98.8387 -3.10718 -4.19824 0
M  V30 1108 H 100.533 -1.99693 -2.23076 0
M  V30 1109 H 98.0787 -0.96152 -1.07195 0
M  V30 1110 H 100.032 -0.534345 -4.17998 0
M  V30 1111 H 98.7557 0.293073 -3.25282 0
M  V30 1112 H 97.4147 -1.83791 -3.17201 0
M  V30 1113 H 97.0627 -0.196847 -5.02615 0
M  V30 1114 H 96.7627 -1.86592 -5.57187 0
M  V30 1115 H 98.2867 -1.04593 -6.01575 0
M  V30 1116 H 99.7007 -3.01192 -4.87808 0
M  V30 1117 H 98.0977 -3.77406 -4.66567 0
M  V30 1118 H 99.1677 -3.58524 -3.26479 0
M  V30 1119 N 100.511 1.16574 -1.06058 0
M  V30 1120 C 101.922 1.68662 -0.800632 0
M  V30 1121 C 102.273 1.84184 0.67608 0
M  V30 1122 O 101.398 1.53568 1.52466 0
M  V30 1123 C 101.993 3.06356 -1.44676 0
M  V30 1124 C 100.552 3.55575 -1.23465 0
M  V30 1125 C 99.6988 2.31616 -1.52477 0
M  V30 1126 H 102.65 1.00969 -1.22438 0
M  V30 1127 H 102.671 3.70636 -0.860788 0
M  V30 1128 H 102.183 2.95027 -2.52152 0
M  V30 1129 H 100.284 3.72167 -0.179527 0
M  V30 1130 H 100.397 4.37812 -1.94571 0
M  V30 1131 H 98.7608 2.36512 -0.945209 0
M  V30 1132 H 99.5438 2.22887 -2.61106 0
M  V30 1133 N 101.989 0.842826 1.3317 0
M  V30 1134 C 102.936 0.276885 2.29133 0
M  V30 1135 C 103.906 -0.609527 1.54512 0
M  V30 1136 O 105.091 -0.546955 1.82792 0
M  V30 1137 C 102.231 -0.538707 3.40869 0
M  V30 1138 C 101.344 0.372169 4.30394 0
M  V30 1139 C 100.479 -0.454908 5.29249 0
M  V30 1140 C 99.5179 0.45411 6.10413 0
M  V30 1141 N 98.6549 -0.335075 7.013 0
M  V30 1142 H 103.495 1.10052 2.76934 0
M  V30 1143 H 101.032 0.554161 1.36262 0
M  V30 1144 H 102.99 -1.02709 4.0436 0
M  V30 1145 H 101.62 -1.32727 2.9425 0
M  V30 1146 H 100.672 0.97888 3.6759 0
M  V30 1147 H 101.984 1.0703 4.87182 0
M  V30 1148 H 101.138 -1.00695 5.98285 0
M  V30 1149 H 99.8769 -1.18646 4.73048 0
M  V30 1150 H 98.8819 1.01813 5.40291 0
M  V30 1151 H 100.107 1.18409 6.68697 0
M  V30 1152 H 98.0529 -1.04994 6.47543 0
M  V30 1153 H 97.9699 0.304262 7.55387 0
M  V30 1154 H 99.2379 -0.869224 7.74638 0
M  V30 1155 N 103.467 -1.45747 0.599634 0
M  V30 1156 C 104.377 -2.34262 -0.125888 0
M  V30 1157 C 105.393 -1.50768 -0.868625 0
M  V30 1158 O 106.569 -1.83592 -0.828003 0
M  V30 1159 C 103.634 -3.28252 -1.11587 0
M  V30 1160 C 102.695 -4.27651 -0.375956 0
M  V30 1161 C 101.928 -5.1715 -1.31877 0
M  V30 1162 O 102.151 -5.09916 -2.55621 0
M  V30 1163 O 101.085 -5.96286 -0.820157 0
M  V30 1164 H 104.911 -2.97688 0.601315 0
M  V30 1165 H 102.496 -1.44999 0.359934 0
M  V30 1166 H 104.378 -3.86191 -1.68626 0
M  V30 1167 H 103.053 -2.67401 -1.82424 0
M  V30 1168 H 101.96 -3.7335 0.236698 0
M  V30 1169 H 103.293 -4.91334 0.29177 0
M  V30 1170 N 104.945 -0.338344 -1.53925 0
M  V30 1171 C 106.17 0.263987 -2.05713 0
M  V30 1172 C 106.595 1.43847 -1.21201 0
M  V30 1173 O 105.953 1.79904 -0.224535 0
M  V30 1174 C 106.001 0.662 -3.54471 0
M  V30 1175 O 105.105 1.76265 -3.72833 0
M  V30 1176 H 104.446 0.0448722 -0.662482 0
M  V30 1177 H 106.976 -0.491048 -1.9862 0
M  V30 1178 H 106.986 0.940594 -3.9701 0
M  V30 1179 H 105.661 -0.196937 -4.15433 0
M  V30 1180 H 104.238 1.48173 -3.42198 0
M  V30 1181 N 106.423 1.57458 -0.0668435 0
M  V30 1182 C 107.839 1.56947 0.289772 0
M  V30 1183 C 108.039 1.07584 1.70376 0
M  V30 1184 O 107.095 0.739486 2.41429 0
M  V30 1185 C 108.408 3.0052 0.103943 0
M  V30 1186 C 109.956 3.12517 0.173857 0
M  V30 1187 C 110.431 4.57997 0.0163682 0
M  V30 1188 N 111.922 4.63144 0.0721352 0
M  V30 1189 C 112.657 5.73394 -0.0253794 0
M  V30 1190 N 112.153 6.92576 -0.176133 0
M  V30 1191 N 113.946 5.62091 0.0313305 0
M  V30 1192 H 106.097 1.87863 -0.991027 0
M  V30 1193 H 108.36 0.86583 -0.38606 0
M  V30 1194 H 108.066 3.40729 -0.871572 0
M  V30 1195 H 107.94 3.67304 0.858366 0
M  V30 1196 H 110.327 2.72197 1.13985 0
M  V30 1197 H 110.408 2.48381 -0.611586 0
M  V30 1198 H 110.052 4.99005 -0.946374 0
M  V30 1199 H 109.982 5.20158 0.821153 0
M  V30 1200 H 112.473 3.77436 0.187263 0
M  V30 1201 H 112.786 7.72418 -0.242821 0
M  V30 1202 H 111.131 6.94678 -0.211429 0
M  V30 1203 H 114.322 4.67867 0.147773 0
M  V30 1204 H 114.495 6.47982 -0.048121 0
M  V30 1205 N 107.901 -0.206675 1.56239 0
M  V30 1206 C 109.131 -0.943975 1.83773 0
M  V30 1207 C 109.539 -1.77841 0.645703 0
M  V30 1208 O 108.882 -1.79403 -0.395008 0
M  V30 1209 C 108.944 -1.899 3.05251 0
M  V30 1210 C 108.608 -1.24764 4.39639 0
M  V30 1211 C 109.605 -0.630216 5.16066 0
M  V30 1212 C 107.29 -1.25496 4.8637 0
M  V30 1213 C 109.284 -0.0287946 6.37393 0
M  V30 1214 C 106.971 -0.649698 6.07637 0
M  V30 1215 C 107.969 -0.0376845 6.8299 0
M  V30 1216 O 107.657 0.55812 8.0196 0
M  V30 1217 H 107.389 -0.281508 0.614597 0
M  V30 1218 H 109.943 -0.222458 2.04192 0
M  V30 1219 H 108.173 -2.6599 2.80689 0
M  V30 1220 H 109.862 -2.5031 3.1953 0
M  V30 1221 H 110.628 -0.616785 4.81062 0
M  V30 1222 H 106.507 -1.72072 4.27683 0
M  V30 1223 H 110.051 0.449518 6.9615 0
M  V30 1224 H 105.948 -0.660592 6.42111 0
M  V30 1225 H 106.716 0.453891 8.17241 0
M  V30 1226 N 109.379 -1.50304 -0.473955 0
M  V30 1227 C 110.625 -1.62358 -1.22521 0
M  V30 1228 C 110.98 -0.318555 -1.89745 0
M  V30 1229 O 110.273 0.683315 -1.79001 0
M  V30 1230 C 110.467 -2.73938 -2.29549 0
M  V30 1231 C 110.296 -4.15165 -1.72825 0
M  V30 1232 C 109.066 -4.81604 -1.52924 0
M  V30 1233 C 111.264 -4.99503 -1.22481 0
M  V30 1234 N 109.246 -6.07056 -0.91413 0
M  V30 1235 C 110.617 -6.15655 -0.732743 0
M  V30 1236 C 112.672 -4.85299 -1.11308 0
M  V30 1237 C 111.375 -7.19164 -0.139976 0
M  V30 1238 C 113.401 -5.88982 -0.534258 0
M  V30 1239 C 112.763 -7.0438 -0.0525562 0
M  V30 1240 H 108.862 -0.648286 -0.437321 0
M  V30 1241 H 111.446 -1.87413 -0.527692 0
M  V30 1242 H 109.617 -2.50611 -2.9673 0
M  V30 1243 H 111.349 -2.75366 -2.96573 0
M  V30 1244 H 108.104 -4.3885 -1.78067 0
M  V30 1245 H 108.528 -6.74108 -0.625071 0
M  V30 1246 H 113.17 -3.96369 -1.47144 0
M  V30 1247 H 110.888 -8.07771 0.230591 0
M  V30 1248 H 114.474 -5.80055 -0.450219 0
M  V30 1249 H 113.354 -7.83238 0.388324 0
M  V30 1250 N 110.857 0.726932 -1.39834 0
M  V30 1251 C 111.787 1.85405 -1.41941 0
M  V30 1252 C 112.768 1.67751 -0.281728 0
M  V30 1253 O 113.953 1.8795 -0.488717 0
M  V30 1254 C 111.083 3.23243 -1.2701 0
M  V30 1255 C 110.037 3.55549 -2.38262 0
M  V30 1256 C 109.363 4.9241 -2.08415 0
M  V30 1257 C 110.663 3.577 -3.80589 0
M  V30 1258 H 112.357 1.83899 -2.36266 0
M  V30 1259 H 109.903 0.883349 -1.13723 0
M  V30 1260 H 111.856 4.01775 -1.27103 0
M  V30 1261 H 110.58 3.25296 -0.291564 0
M  V30 1262 H 109.239 2.79351 -2.37399 0
M  V30 1263 H 108.887 4.91052 -1.0898 0
M  V30 1264 H 108.587 5.14992 -2.82943 0
M  V30 1265 H 110.111 5.73289 -2.10171 0
M  V30 1266 H 111.525 4.26293 -3.83337 0
M  V30 1267 H 109.922 3.91804 -4.54543 0
M  V30 1268 H 110.992 2.57328 -4.10987 0
M  V30 1269 N 112.336 1.25143 0.95797 0
M  V30 1270 C 113.752 1.01892 1.22842 0
M  V30 1271 C 113.952 -0.266311 1.99732 0
M  V30 1272 O 113.008 -0.979913 2.3271 0
M  V30 1273 C 114.321 2.24004 2.00606 0
M  V30 1274 C 115.869 2.28731 2.13662 0
M  V30 1275 C 116.344 3.5049 2.94823 0
M  V30 1276 N 117.835 3.50866 3.02403 0
M  V30 1277 C 118.57 4.4174 3.65586 0
M  V30 1278 N 118.066 5.42882 4.30408 0
M  V30 1279 N 119.859 4.29429 3.62694 0
M  V30 1280 H 112.01 2.07718 0.443493 0
M  V30 1281 H 114.273 0.912031 0.258657 0
M  V30 1282 H 113.979 3.17395 1.51503 0
M  V30 1283 H 113.853 2.26907 3.01319 0
M  V30 1284 H 116.24 1.35865 2.61963 0
M  V30 1285 H 116.321 2.29848 1.12265 0
M  V30 1286 H 115.965 4.43676 2.47213 0
M  V30 1287 H 115.895 3.46617 3.96439 0
M  V30 1288 H 118.386 2.777 2.56302 0
M  V30 1289 H 118.699 6.0844 4.76467 0
M  V30 1290 H 117.044 5.46758 4.29047 0
M  V30 1291 H 120.235 3.49643 3.11236 0
M  V30 1292 H 120.408 5.00448 4.1165 0
M  V30 1293 N 113.814 -1.1601 1.06675 0
M  V30 1294 C 114.724 -2.24156 0.692179 0
M  V30 1295 C 115.74 -1.71507 -0.293513 0
M  V30 1296 O 116.916 -2.009 -0.141861 0
M  V30 1297 C 113.981 -3.46587 0.0884131 0
M  V30 1298 C 113.042 -4.14257 1.12646 0
M  V30 1299 C 112.275 -5.30844 0.551416 0
M  V30 1300 O 112.498 -5.66858 -0.634656 0
M  V30 1301 O 111.432 -5.87848 1.29298 0
M  V30 1302 H 115.258 -2.58513 1.59388 0
M  V30 1303 H 112.843 -1.23599 0.83926 0
M  V30 1304 H 114.725 -4.20679 -0.246361 0
M  V30 1305 H 113.4 -3.13994 -0.786712 0
M  V30 1306 H 112.307 -3.42118 1.51348 0
M  V30 1307 H 113.64 -4.50914 1.97325 0
M  V30 1308 N 115.292 -0.849877 -1.32721 0
M  V30 1309 C 116.541 -0.447175 -1.96681 0
M  V30 1310 C 116.854 1.00135 -1.68025 0
M  V30 1311 O 118.06 1.50926 -2.25685 0
M  V30 1312 C 116.516 -0.7487 -3.52026 0
M  V30 1313 C 116.124 -2.21264 -3.89546 0
M  V30 1314 C 117.868 -0.413487 -4.22481 0
M  V30 1315 C 115.775 -2.45763 -5.37917 0
M  V30 1316 H 114.705 -0.163486 -0.736063 0
M  V30 1317 H 117.356 -1.03999 -1.51183 0
M  V30 1318 H 115.738 -0.0853727 -3.95908 0
M  V30 1319 H 116.912 -2.91736 -3.56689 0
M  V30 1320 H 115.227 -2.5119 -3.32103 0
M  V30 1321 H 117.824 -0.574017 -5.3161 0
M  V30 1322 H 118.167 0.644492 -4.11281 0
M  V30 1323 H 118.7 -1.03251 -3.84167 0
M  V30 1324 H 115.439 -3.50168 -5.54132 0
M  V30 1325 H 114.959 -1.79864 -5.72197 0
M  V30 1326 H 116.638 -2.29471 -6.0494 0
M  V30 1327 N 116.77 1.45427 -0.607355 0
M  V30 1328 C 117.7 2.3329 0.0989352 0
M  V30 1329 C 118.681 1.46816 0.859007 0
M  V30 1330 O 119.866 1.75588 0.829604 0
M  V30 1331 C 116.996 3.29518 1.09705 0
M  V30 1332 C 115.95 4.25626 0.450206 0
M  V30 1333 C 115.276 5.11542 1.55655 0
M  V30 1334 C 116.576 5.18505 -0.628455 0
M  V30 1335 H 118.27 2.92595 -0.634716 0
M  V30 1336 H 115.816 1.40696 -0.306681 0
M  V30 1337 H 117.769 3.89855 1.59971 0
M  V30 1338 H 116.493 2.68372 1.86129 0
M  V30 1339 H 115.152 3.66586 -0.0315886 0
M  V30 1340 H 114.8 4.46765 2.31107 0
M  V30 1341 H 114.5 5.76647 1.12925 0
M  V30 1342 H 116.024 5.74748 2.06148 0
M  V30 1343 H 117.438 5.72916 -0.209877 0
M  V30 1344 H 115.835 5.92085 -0.977489 0
M  V30 1345 H 116.905 4.60948 -1.50514 0
M  V30 1346 N 118.248 0.346503 1.53744 0
M  V30 1347 C 119.178 -0.501193 2.28058 0
M  V30 1348 C 120.159 -1.10014 1.29734 0
M  V30 1349 O 121.344 -1.12097 1.58581 0
M  V30 1350 C 118.474 -1.65078 3.05559 0
M  V30 1351 C 117.428 -1.18003 4.11411 0
M  V30 1352 C 116.754 -2.41837 4.76884 0
M  V30 1353 C 118.054 -0.278394 5.21558 0
M  V30 1354 H 119.748 0.11875 2.99164 0
M  V30 1355 H 117.294 0.0585531 1.43881 0
M  V30 1356 H 119.247 -2.25028 3.56287 0
M  V30 1357 H 117.971 -2.29767 2.32109 0
M  V30 1358 H 116.63 -0.603331 3.61601 0
M  V30 1359 H 116.278 -3.0494 4.00026 0
M  V30 1360 H 115.978 -2.1102 5.48402 0
M  V30 1361 H 117.502 -3.02508 5.30397 0
M  V30 1362 H 118.916 -0.784823 5.67903 0
M  V30 1363 H 117.313 -0.0619707 6.00068 0
M  V30 1364 H 118.383 0.684677 4.80042 0
M  V30 1365 N 119.726 -1.57421 0.075193 0
M  V30 1366 C 120.966 -1.95495 -0.596757 0
M  V30 1367 C 121.33 -0.954886 -1.66571 0
M  V30 1368 O 122.531 -1.22341 -2.39345 0
M  V30 1369 C 120.802 -3.382 -1.15566 0
M  V30 1370 S 122.361 -3.98254 -1.84226 0
M  V30 1371 H 119.179 -0.683649 -0.195307 0
M  V30 1372 H 121.781 -1.94925 0.149859 0
M  V30 1373 H 120.485 -4.08766 -0.36588 0
M  V30 1374 H 120.016 -3.42321 -1.93856 0
M  V30 1375 H 122.031 -3.85435 -3.12497 0
M  V30 1376 N 121.204 0.198386 -1.56346 0
M  V30 1377 C 122.167 1.22952 -1.93431 0
M  V30 1378 C 123.167 1.38611 -0.815092 0
M  V30 1379 O 124.357 1.36479 -1.08255 0
M  V30 1380 C 121.489 2.59946 -2.20546 0
M  V30 1381 H 122.682 0.912626 -2.85677 0
M  V30 1382 H 120.235 0.43977 -1.49986 0
M  V30 1383 H 120.97 2.96696 -1.30927 0
M  V30 1384 H 120.755 2.49953 -3.02102 0
M  V30 1385 H 122.245 3.3431 -2.50253 0
M  V30 1386 N 122.682 1.50554 0.465978 0
M  V30 1387 C 123.959 1.5232 1.22712 0
M  V30 1388 C 124.339 0.270807 2.09356 0
M  V30 1389 O 123.687 -0.745541 2.15995 0
M  V30 1390 C 123.897 2.82175 2.05374 0
M  V30 1391 C 125.245 3.33033 2.6339 0
M  V30 1392 O 126.269 2.83531 2.15612 0
M  V30 1393 O 125.128 4.19336 3.50456 0
M  V30 1394 H 122.222 0.611183 0.557122 0
M  V30 1395 H 124.768 1.62847 0.477381 0
M  V30 1396 H 123.54 3.64797 1.41558 0
M  V30 1397 H 123.163 2.74675 2.87471 0
M  V30 1398 N 124.16 -0.719506 1.40217 0
M  V30 1399 C 125.408 -1.47641 1.3801 0
M  V30 1400 C 125.729 -1.94992 -0.018145 0
M  V30 1401 O 124.999 -1.70073 -0.972207 0
M  V30 1402 H 123.579 -0.547744 0.507923 0
M  V30 1403 H 126.241 -0.853187 1.75233 0
M  V30 1404 H 125.337 -2.35112 2.05253 0
M  V30 1405 N 125.638 -1.25649 -0.95132 0
M  V30 1406 C 126.548 -1.08073 -2.08224 0
M  V30 1407 C 127.564 -0.0169666 -1.73992 0
M  V30 1408 O 128.74 -0.218593 -2.0021 0
M  V30 1409 C 125.805 -0.704922 -3.39458 0
M  V30 1410 C 124.866 -1.84699 -3.87537 0
M  V30 1411 C 124.099 -1.48902 -5.12508 0
M  V30 1412 O 124.322 -0.386156 -5.69091 0
M  V30 1413 O 123.256 -2.32033 -5.55378 0
M  V30 1414 H 127.082 -2.02924 -2.25954 0
M  V30 1415 H 124.667 -1.04618 -1.06656 0
M  V30 1416 H 126.549 -0.507609 -4.18332 0
M  V30 1417 H 125.224 0.214291 -3.2299 0
M  V30 1418 H 124.131 -2.09919 -3.09653 0
M  V30 1419 H 125.464 -2.74557 -4.08509 0
M  V30 1420 N 127.117 1.15442 -1.07289 0
M  V30 1421 C 128.528 1.67803 -0.818475 0
M  V30 1422 C 128.879 1.8489 0.656507 0
M  V30 1423 O 128.004 1.55176 1.50829 0
M  V30 1424 C 128.599 3.04805 -1.47917 0
M  V30 1425 C 127.158 3.54245 -1.27229 0
M  V30 1426 C 126.305 2.29986 -1.54925 0
M  V30 1427 H 129.256 0.996646 -1.23502 0
M  V30 1428 H 129.277 3.69702 -0.90005 0
M  V30 1429 H 128.789 2.92336 -2.55267 0
M  V30 1430 H 126.89 3.71956 -0.21899 0
M  V30 1431 H 127.003 4.35723 -1.99203 0
M  V30 1432 H 125.367 2.35496 -0.970242 0
M  V30 1433 H 126.15 2.20105 -2.63455 0
M  V30 1434 N 128.595 0.856903 1.32268 0
M  V30 1435 C 129.841 0.471355 1.97863 0
M  V30 1436 C 130.196 -0.962896 1.66572 0
M  V30 1437 O 129.489 -1.66686 0.944797 0
M  V30 1438 C 129.683 0.649919 3.51441 0
M  V30 1439 C 129.512 2.09997 3.97657 0
M  V30 1440 C 128.282 2.73893 4.2463 0
M  V30 1441 C 130.48 3.07081 4.1256 0
M  V30 1442 N 128.462 4.09786 4.57109 0
M  V30 1443 C 129.833 4.27968 4.48602 0
M  V30 1444 C 131.888 3.03247 3.949 0
M  V30 1445 C 130.591 5.45521 4.68827 0
M  V30 1446 C 132.617 4.20046 4.16311 0
M  V30 1447 C 131.979 5.39692 4.52672 0
M  V30 1448 H 128.078 0.221263 0.750044 0
M  V30 1449 H 130.662 1.10876 1.60045 0
M  V30 1450 H 128.833 0.0421938 3.88377 0
M  V30 1451 H 130.565 0.234044 4.04023 0
M  V30 1452 H 127.32 2.24918 4.16784 0
M  V30 1453 H 127.744 4.7989 4.7753 0
M  V30 1454 H 132.386 2.11863 3.65888 0
M  V30 1455 H 130.104 6.37434 4.96693 0
M  V30 1456 H 133.69 4.18517 4.04147 0
M  V30 1457 H 132.57 6.28566 4.68907 0
M  V30 1458 N 130.073 -1.45103 0.615059 0
M  V30 1459 C 131.003 -2.33339 -0.0865619 0
M  V30 1460 C 131.984 -1.4727 -0.851209 0
M  V30 1461 O 133.169 -1.76026 -0.820281 0
M  V30 1462 C 130.299 -3.30095 -1.07956 0
M  V30 1463 C 129.253 -4.25858 -0.427628 0
M  V30 1464 C 128.579 -5.12361 -1.5294 0
M  V30 1465 C 129.879 -5.18165 0.655944 0
M  V30 1466 H 131.573 -2.92254 0.650224 0
M  V30 1467 H 129.119 -1.40532 0.314138 0
M  V30 1468 H 131.072 -3.90698 -1.57901 0
M  V30 1469 H 129.796 -2.69355 -1.84703 0
M  V30 1470 H 128.455 -3.66564 0.0510292 0
M  V30 1471 H 128.103 -4.47984 -2.28734 0
M  V30 1472 H 127.803 -5.77238 -1.09865 0
M  V30 1473 H 129.327 -5.75833 -2.03098 0
M  V30 1474 H 130.741 -5.72796 0.240257 0
M  V30 1475 H 129.138 -5.91559 1.00888 0
M  V30 1476 H 130.208 -4.60144 1.52957 0
M  V30 1477 N 131.551 -0.354651 -1.53558 0
M  V30 1478 C 132.514 0.484566 -2.24019 0
M  V30 1479 C 133.514 1.01861 -1.24422 0
M  V30 1480 O 134.704 0.906097 -1.4878 0
M  V30 1481 C 131.836 1.67615 -2.96847 0
M  V30 1482 H 133.029 -0.131843 -2.9961 0
M  V30 1483 H 130.582 -0.106165 -1.55939 0
M  V30 1484 H 131.317 2.33095 -2.25471 0
M  V30 1485 H 131.102 1.30029 -3.69912 0
M  V30 1486 H 132.592 2.27114 -3.50441 0
M  V30 1487 N 133.029 1.57378 -0.0835403 0
M  V30 1488 C 134.277 1.93547 0.581718 0
M  V30 1489 C 134.598 0.96524 1.69435 0
M  V30 1490 O 133.868 0.0153369 1.95894 0
M  V30 1491 H 132.448 0.714521 0.217874 0
M  V30 1492 H 135.11 1.94366 -0.144158 0
M  V30 1493 H 134.206 2.95665 0.999423 0
M  V30 1494 N 134.507 -0.190092 1.56449 0
M  V30 1495 C 135.923 -0.54113 1.50146 0
M  V30 1496 C 136.123 -1.85603 0.784465 0
M  V30 1497 O 135.179 -2.5024 0.337051 0
M  V30 1498 C 136.492 -0.591241 2.9483 0
M  V30 1499 C 138.04 -0.679732 3.0553 0
M  V30 1500 C 138.515 -0.760908 4.51635 0
M  V30 1501 N 140.006 -0.824302 4.55806 0
M  V30 1502 C 140.741 -0.907365 5.66175 0
M  V30 1503 N 140.237 -0.952422 6.86222 0
M  V30 1504 N 142.03 -0.94494 5.541 0
M  V30 1505 H 134.181 0.67235 2.01478 0
M  V30 1506 H 136.444 0.240127 0.917084 0
M  V30 1507 H 136.15 0.305905 3.50367 0
M  V30 1508 H 136.024 -1.44422 3.48457 0
M  V30 1509 H 138.411 -1.56731 2.50039 0
M  V30 1510 H 138.492 0.199549 2.5502 0
M  V30 1511 H 138.136 0.122336 5.07753 0
M  V30 1512 H 138.066 -1.65606 4.99882 0
M  V30 1513 H 140.557 -0.798526 3.69367 0
M  V30 1514 H 140.87 -1.01645 7.66086 0
M  V30 1515 H 139.215 -0.921014 6.8887 0
M  V30 1516 H 142.406 -0.906612 4.59236 0
M  V30 1517 H 142.579 -1.00622 6.4014 0
M  V30 1518 N 135.985 -1.50799 -0.457987 0
M  V30 1519 C 137.213 -1.66218 -1.23203 0
M  V30 1520 C 137.628 -0.350894 -1.85511 0
M  V30 1521 O 136.985 0.668546 -1.69814 0
M  V30 1522 C 137.036 -2.76291 -2.33121 0
M  V30 1523 O 136.757 -4.02338 -1.73366 0
M  V30 1524 C 138.258 -3.028 -3.2377 0
M  V30 1525 H 135.478 -0.558361 -0.372121 0
M  V30 1526 H 138.022 -1.97099 -0.545179 0
M  V30 1527 H 136.177 -2.48068 -2.97558 0
M  V30 1528 H 136.591 -4.63312 -2.4585 0
M  V30 1529 H 138.065 -3.8345 -3.97077 0
M  V30 1530 H 138.542 -2.14385 -3.83322 0
M  V30 1531 H 139.148 -3.32604 -2.65056 0
M  V30 1532 N 137.463 0.71206 -1.40597 0
M  V30 1533 C 138.709 1.47416 -1.39271 0
M  V30 1534 C 139.042 1.942 0.00388791 0
M  V30 1535 O 138.317 1.68403 0.973179 0
M  V30 1536 C 138.6 2.69774 -2.38525 0
M  V30 1537 C 138.453 2.28861 -3.87224 0
M  V30 1538 C 139.772 3.71939 -2.35264 0
M  V30 1539 H 136.891 0.534713 -0.5072 0
M  V30 1540 H 139.533 0.812375 -1.71757 0
M  V30 1541 H 137.683 3.26238 -2.10953 0
M  V30 1542 H 139.355 1.77852 -4.25636 0
M  V30 1543 H 137.598 1.60824 -4.02887 0
M  V30 1544 H 138.269 3.16584 -4.52193 0
M  V30 1545 H 140.745 3.25113 -2.59694 0
M  V30 1546 H 139.621 4.55186 -3.06753 0
M  V30 1547 H 139.882 4.20484 -1.36549 0
M  V30 1548 N 138.941 1.26152 0.944643 0
M  V30 1549 C 140.187 1.11657 1.69294 0
M  V30 1550 C 140.52 -0.339926 1.91202 0
M  V30 1551 O 139.795 -1.24994 1.49019 0
M  V30 1552 C 140.078 1.88236 3.06984 0
M  V30 1553 C 139.931 3.41772 2.92424 0
M  V30 1554 C 141.25 1.67343 4.07043 0
M  V30 1555 H 138.369 0.407004 0.614424 0
M  V30 1556 H 141.011 1.55106 1.09737 0
M  V30 1557 H 139.161 1.51308 3.57824 0
M  V30 1558 H 140.833 3.88433 2.48832 0
M  V30 1559 H 139.076 3.68974 2.28124 0
M  V30 1560 H 139.747 3.90579 3.90067 0
M  V30 1561 H 142.223 1.99509 3.65151 0
M  V30 1562 H 141.099 2.23346 5.01406 0
M  V30 1563 H 141.36 0.617158 4.37771 0
M  V30 1564 N 140.419 -1.14872 1.07899 0
M  V30 1565 C 141.83 -1.67367 0.827363 0
M  V30 1566 C 142.181 -1.85236 -0.646693 0
M  V30 1567 O 141.306 -1.55974 -1.50004 0
M  V30 1568 C 141.901 -3.04016 1.49532 0
M  V30 1569 C 140.46 -3.53566 1.29106 0
M  V30 1570 C 139.607 -2.29161 1.56143 0
M  V30 1571 H 142.558 -0.990083 1.24028 0
M  V30 1572 H 142.579 -3.69219 0.919643 0
M  V30 1573 H 142.091 -2.90978 2.56814 0
M  V30 1574 H 140.192 -3.71835 0.238713 0
M  V30 1575 H 140.305 -4.34661 2.01511 0
M  V30 1576 H 138.669 -2.34978 0.982717 0
M  V30 1577 H 139.452 -2.18705 2.64619 0
M  V30 1578 N 141.898 -0.863906 -1.31812 0
M  V30 1579 C 143.144 -0.472535 -1.97218 0
M  V30 1580 C 143.477 0.971394 -1.68159 0
M  V30 1581 O 142.752 1.68309 -0.974798 0
M  V30 1582 C 143.035 -0.723054 -3.52766 0
M  V30 1583 C 142.888 -2.21608 -3.91421 0
M  V30 1584 C 144.207 -0.185522 -4.39709 0
M  V30 1585 H 141.326 -0.173158 -0.71637 0
M  V30 1586 H 143.968 -1.08403 -1.56041 0
M  V30 1587 H 142.118 -0.202577 -3.87971 0
M  V30 1588 H 143.79 -2.80334 -3.66347 0
M  V30 1589 H 142.033 -2.691 -3.40246 0
M  V30 1590 H 142.704 -2.34203 -4.99853 0
M  V30 1591 H 145.18 -0.630726 -4.11292 0
M  V30 1592 H 144.056 -0.390306 -5.47511 0
M  V30 1593 H 144.317 0.912229 -4.32586 0
M  V30 1594 N 143.376 1.44774 -0.622745 0
M  V30 1595 C 144.601 2.06999 -0.128968 0
M  V30 1596 C 145.026 1.4617 1.1839 0
M  V30 1597 O 144.384 0.560007 1.72434 0
M  V30 1598 C 144.432 3.60595 -0.0188351 0
M  V30 1599 O 143.536 3.99398 1.02739 0
M  V30 1600 H 142.877 0.659047 -0.0809544 0
M  V30 1601 H 145.407 1.85784 -0.85705 0
M  V30 1602 H 145.417 4.07627 0.174476 0
M  V30 1603 H 144.092 4.04252 -0.977384 0
M  V30 1604 H 142.669 3.64011 0.809326 0
M  V30 1605 N 144.854 0.36279 1.53368 0
M  V30 1606 C 146.082 -0.228613 2.05633 0
M  V30 1607 C 146.497 -1.42676 1.23649 0
M  V30 1608 O 145.854 -1.80394 0.27647 0
M  V30 1609 C 145.905 -0.624845 3.56059 0
M  V30 1610 O 145.626 0.525675 4.34935 0
M  V30 1611 C 147.127 -1.27493 4.24571 0
M  V30 1612 H 144.347 -0.0407183 0.669763 0
M  V30 1613 H 146.891 0.520352 1.97769 0
M  V30 1614 H 145.046 -1.32373 3.64083 0
M  V30 1615 H 145.46 0.205969 5.24095 0
M  V30 1616 H 146.934 -1.50277 5.31151 0
M  V30 1617 H 147.411 -2.23439 3.78116 0
M  V30 1618 H 148.017 -0.617558 4.20792 0
M  V30 1619 N 146.332 -1.57332 0.0918853 0
M  V30 1620 C 147.262 -2.16872 -0.865371 0
M  V30 1621 C 148.243 -1.10118 -1.29646 0
M  V30 1622 O 149.428 -1.38242 -1.36392 0
M  V30 1623 C 146.558 -2.74649 -2.12569 0
M  V30 1624 C 145.512 -3.86747 -1.83333 0
M  V30 1625 C 144.838 -4.31212 -3.16166 0
M  V30 1626 C 146.138 -5.10089 -1.1228 0
M  V30 1627 H 147.832 -2.97114 -0.369307 0
M  V30 1628 H 145.378 -1.42918 -0.176194 0
M  V30 1629 H 147.331 -3.14952 -2.7997 0
M  V30 1630 H 146.055 -1.91657 -2.64452 0
M  V30 1631 H 144.714 -3.46978 -1.18331 0
M  V30 1632 H 144.362 -3.45115 -3.6593 0
M  V30 1633 H 144.062 -5.06788 -2.97388 0
M  V30 1634 H 145.586 -4.74146 -3.84731 0
M  V30 1635 H 147 -5.47582 -1.69785 0
M  V30 1636 H 145.397 -5.91073 -1.03693 0
M  V30 1637 H 146.467 -4.84786 -0.105041 0
M  V30 1638 N 147.81 0.181792 -1.56548 0
M  V30 1639 C 149.035 0.920019 -1.85877 0
M  V30 1640 C 149.46 1.75494 -0.677021 0
M  V30 1641 O 148.818 1.77399 0.374056 0
M  V30 1642 C 148.866 1.78112 -3.13542 0
M  V30 1643 O 147.97 2.88152 -2.95029 0
M  V30 1644 H 147.311 0.258334 -0.611686 0
M  V30 1645 H 149.841 0.183092 -2.03779 0
M  V30 1646 H 149.851 2.18314 -3.44678 0
M  V30 1647 H 148.526 1.16777 -3.99169 0
M  V30 1648 H 147.103 2.51609 -2.75222 0
M  V30 1649 N 149.288 1.51039 0.449983 0
M  V30 1650 C 150.536 1.62759 1.19808 0
M  V30 1651 C 150.857 0.339981 1.92013 0
M  V30 1652 O 150.127 -0.643606 1.85026 0
M  V30 1653 H 148.707 0.599811 0.445237 0
M  V30 1654 H 151.369 1.87914 0.517138 0
M  V30 1655 H 150.465 2.44911 1.93455 0
M  V30 1656 N 150.766 -0.704594 1.40972 0
M  V30 1657 C 152.177 -1.28418 1.3552 0
M  V30 1658 C 152.528 -1.96171 0.0339434 0
M  V30 1659 O 151.653 -1.98231 -0.867944 0
M  V30 1660 C 152.248 -2.33528 2.45459 0
M  V30 1661 C 150.807 -2.87085 2.43433 0
M  V30 1662 C 149.954 -1.61007 2.2577 0
M  V30 1663 H 152.905 -0.499963 1.50619 0
M  V30 1664 H 152.926 -3.14619 2.13998 0
M  V30 1665 H 152.438 -1.84187 3.41609 0
M  V30 1666 H 150.539 -3.40626 1.51013 0
M  V30 1667 H 150.652 -3.3813 3.39419 0
M  V30 1668 H 149.016 -1.86482 1.73483 0
M  V30 1669 H 149.799 -1.13675 3.23933 0
M  V30 1670 N 152.244 -1.26651 -0.937939 0
M  V30 1671 C 153.154 -1.10276 -2.07066 0
M  V30 1672 C 154.17 -0.0354197 -1.73964 0
M  V30 1673 O 155.346 -0.239816 -1.99967 0
M  V30 1674 C 152.411 -0.740887 -3.38691 0
M  V30 1675 C 151.472 -1.88799 -3.85556 0
M  V30 1676 C 150.705 -1.54329 -5.10899 0
M  V30 1677 O 150.928 -0.446494 -5.6865 0
M  V30 1678 O 149.862 -2.37911 -5.52885 0
M  V30 1679 H 153.688 -2.05309 -2.23789 0
M  V30 1680 H 151.273 -1.05743 -1.0554 0
M  V30 1681 H 153.155 -0.55195 -4.1777 0
M  V30 1682 H 151.83 0.180022 -3.23199 0
M  V30 1683 H 150.737 -2.13191 -3.07409 0
M  V30 1684 H 152.07 -2.78874 -4.05574 0
M  V30 1685 N 153.722 1.14298 -1.08507 0
M  V30 1686 C 154.652 2.21542 -0.737646 0
M  V30 1687 C 155.633 1.67773 0.280377 0
M  V30 1688 O 156.818 1.93616 0.150521 0
M  V30 1689 C 153.948 3.46988 -0.147259 0
M  V30 1690 C 152.902 4.13789 -1.09374 0
M  V30 1691 C 152.228 5.33449 -0.365524 0
M  V30 1692 C 153.528 4.62208 -2.4323 0
M  V30 1693 H 155.222 2.5086 -1.6343 0
M  V30 1694 H 152.768 1.20576 -0.787243 0
M  V30 1695 H 154.721 4.21262 0.107808 0
M  V30 1696 H 153.445 3.17037 0.784538 0
M  V30 1697 H 152.104 3.4147 -1.33393 0
M  V30 1698 H 151.752 4.99759 0.57011 0
M  V30 1699 H 151.452 5.79088 -0.996512 0
M  V30 1700 H 152.976 6.10485 -0.118534 0
M  V30 1701 H 154.39 5.27952 -2.23472 0
M  V30 1702 H 152.787 5.18553 -3.02031 0
M  V30 1703 H 153.857 3.77224 -3.04681 0
M  V30 1704 N 155.201 0.870884 1.31352 0
M  V30 1705 C 156.164 0.332243 2.26779 0
M  V30 1706 C 157.164 -0.517302 1.52252 0
M  V30 1707 O 158.354 -0.326477 1.71113 0
M  V30 1708 C 155.486 -0.528066 3.36785 0
M  V30 1709 H 156.679 1.17469 2.75937 0
M  V30 1710 H 154.232 0.64655 1.423 0
M  V30 1711 H 154.967 -1.39167 2.92922 0
M  V30 1712 H 154.752 0.0802582 3.92018 0
M  V30 1713 H 156.242 -0.897179 4.07849 0
M  V30 1714 N 156.679 -1.44442 0.630414 0
M  V30 1715 C 157.609 -2.33418 -0.0618083 0
M  V30 1716 C 158.59 -1.48165 -0.835541 0
M  V30 1717 O 159.775 -1.76886 -0.801564 0
M  V30 1718 C 156.905 -3.31222 -1.04449 0
M  V30 1719 C 155.859 -4.26288 -0.382436 0
M  V30 1720 C 155.185 -5.13954 -1.47497 0
M  V30 1721 C 156.485 -5.1744 0.710865 0
M  V30 1722 H 158.179 -2.91548 0.681184 0
M  V30 1723 H 155.725 -1.40191 0.329026 0
M  V30 1724 H 157.678 -3.92351 -1.53748 0
M  V30 1725 H 156.402 -2.71299 -1.81836 0
M  V30 1726 H 155.061 -3.6649 0.0899054 0
M  V30 1727 H 154.709 -4.50385 -2.2397 0
M  V30 1728 H 154.409 -5.7837 -1.03737 0
M  V30 1729 H 155.933 -5.77955 -1.96979 0
M  V30 1730 H 157.347 -5.72509 0.300996 0
M  V30 1731 H 155.744 -5.90455 1.07156 0
M  V30 1732 H 156.814 -4.58496 1.57829 0
M  V30 1733 N 158.157 -0.370918 -1.53173 0
M  V30 1734 C 159.089 0.507823 -2.23503 0
M  V30 1735 C 160.102 1.04182 -1.251 0
M  V30 1736 O 161.291 0.947286 -1.5129 0
M  V30 1737 C 158.391 1.71447 -2.92334 0
M  V30 1738 C 157.564 1.31105 -4.17289 0
M  V30 1739 C 156.623 2.38035 -4.69282 0
M  V30 1740 O 155.649 2.00204 -5.32829 0
M  V30 1741 N 156.851 3.69697 -4.47554 0
M  V30 1742 H 159.616 -0.0946382 -2.99551 0
M  V30 1743 H 157.177 -0.196358 -1.60705 0
M  V30 1744 H 159.169 2.42469 -3.24023 0
M  V30 1745 H 157.739 2.22368 -2.19707 0
M  V30 1746 H 156.959 0.430462 -3.91843 0
M  V30 1747 H 158.247 1.0179 -4.98514 0
M  V30 1748 H 157.645 4.03205 -3.9679 0
M  V30 1749 H 156.202 4.36807 -4.8378 0
M  V30 1750 N 159.635 1.57281 -0.100228 0
M  V30 1751 C 160.582 2.14305 0.856858 0
M  V30 1752 C 161.552 1.06296 1.27634 0
M  V30 1753 O 162.737 1.34109 1.35718 0
M  V30 1754 C 159.877 2.73184 2.10866 0
M  V30 1755 C 158.99 3.95442 1.73925 0
M  V30 1756 C 158.125 4.42468 2.93931 0
M  V30 1757 C 157.164 5.57303 2.5314 0
M  V30 1758 N 156.301 5.99158 3.65997 0
M  V30 1759 H 161.141 2.95772 0.363726 0
M  V30 1760 H 158.678 1.46139 0.167858 0
M  V30 1761 H 160.636 3.05442 2.84185 0
M  V30 1762 H 159.266 1.94437 2.57671 0
M  V30 1763 H 158.318 3.69464 0.905554 0
M  V30 1764 H 159.63 4.78769 1.39935 0
M  V30 1765 H 158.784 4.76537 3.75496 0
M  V30 1766 H 157.523 3.58052 3.31134 0
M  V30 1767 H 156.528 5.22857 1.70003 0
M  V30 1768 H 157.753 6.43471 2.17075 0
M  V30 1769 H 155.699 5.17687 4.02909 0
M  V30 1770 H 155.616 6.77295 3.35869 0
M  V30 1771 H 156.884 6.3786 4.48057 0
M  V30 1772 N 161.113 -0.173488 1.56642 0
M  V30 1773 C 162.043 -1.2171 1.99271 0
M  V30 1774 C 163.024 -1.46289 0.867959 0
M  V30 1775 O 164.209 -1.5766 1.13388 0
M  V30 1776 C 161.339 -2.55651 2.35074 0
M  V30 1777 C 160.293 -2.45645 3.50489 0
M  V30 1778 C 159.619 -3.84056 3.72028 0
M  V30 1779 C 160.919 -1.96302 4.84007 0
M  V30 1780 H 162.613 -0.86275 2.867 0
M  V30 1781 H 160.159 -0.413571 1.37933 0
M  V30 1782 H 162.112 -3.2886 2.63494 0
M  V30 1783 H 160.836 -2.92869 1.44552 0
M  V30 1784 H 159.495 -1.7489 3.22194 0
M  V30 1785 H 159.143 -4.18664 2.788 0
M  V30 1786 H 158.843 -3.7823 4.49684 0
M  V30 1787 H 160.367 -4.58854 4.02846 0
M  V30 1788 H 161.781 -2.59284 5.11317 0
M  V30 1789 H 160.178 -2.01429 5.65284 0
M  V30 1790 H 161.248 -0.917226 4.76146 0
M  V30 1791 N 162.591 -1.51276 -0.441967 0
M  V30 1792 C 163.839 -1.63392 -1.18943 0
M  V30 1793 C 164.16 -0.350159 -1.9183 0
M  V30 1794 O 163.43 0.633784 -1.85364 0
M  V30 1795 H 162.01 -0.602164 -0.442049 0
M  V30 1796 H 164.672 -1.88186 -0.507165 0
M  V30 1797 H 163.768 -2.45934 -1.92154 0
M  V30 1798 N 164.069 0.697108 -1.41344 0
M  V30 1799 C 165.016 1.81106 -1.43071 0
M  V30 1800 C 165.986 1.63632 -0.285275 0
M  V30 1801 O 167.171 1.84504 -0.486091 0
M  V30 1802 C 164.311 3.18975 -1.31715 0
M  V30 1803 C 163.424 3.47892 -2.56115 0
M  V30 1804 C 162.559 4.75367 -2.37064 0
M  V30 1805 C 161.598 4.97247 -3.56948 0
M  V30 1806 N 160.735 6.15947 -3.36977 0
M  V30 1807 H 165.575 1.78965 -2.38276 0
M  V30 1808 H 163.112 0.873975 -1.18322 0
M  V30 1809 H 165.07 3.98615 -1.23133 0
M  V30 1810 H 163.7 3.20297 -0.401183 0
M  V30 1811 H 162.752 2.62669 -2.75153 0
M  V30 1812 H 164.064 3.59962 -3.45295 0
M  V30 1813 H 163.218 5.63059 -2.25941 0
M  V30 1814 H 161.957 4.65541 -1.45338 0
M  V30 1815 H 160.962 4.08004 -3.68527 0
M  V30 1816 H 162.187 5.08934 -4.49626 0
M  V30 1817 H 160.133 6.07336 -2.47949 0
M  V30 1818 H 160.05 6.28777 -4.19732 0
M  V30 1819 H 161.318 7.06377 -3.29623 0
M  V30 1820 N 165.547 1.27147 0.931209 0
M  V30 1821 C 166.775 1.16082 1.71267 0
M  V30 1822 C 167.19 -0.282772 1.8667 0
M  V30 1823 O 166.547 -1.19283 1.38122 0
M  V30 1824 C 166.598 1.8358 3.11417 0
M  V30 1825 O 166.319 3.22299 2.96741 0
M  V30 1826 C 167.82 1.78597 4.05732 0
M  V30 1827 H 165.04 0.403758 0.535929 0
M  V30 1828 H 167.584 1.67953 1.16671 0
M  V30 1829 H 165.739 1.35623 3.62885 0
M  V30 1830 H 166.153 3.55851 3.85319 0
M  V30 1831 H 167.627 2.30444 5.01597 0
M  V30 1832 H 168.104 0.754564 4.3267 0
M  V30 1833 H 168.71 2.26152 3.60188 0
M  V30 1834 N 167.025 -1.13721 1.09112 0
M  V30 1835 C 168.436 -1.6648 0.845068 0
M  V30 1836 C 168.787 -1.85911 -0.62701 0
M  V30 1837 O 167.912 -1.57556 -1.48341 0
M  V30 1838 C 168.507 -3.02413 1.52748 0
M  V30 1839 C 167.066 -3.52176 1.32849 0
M  V30 1840 C 166.213 -2.27492 1.58564 0
M  V30 1841 H 169.164 -0.976872 1.25072 0
M  V30 1842 H 169.185 -3.68223 0.958752 0
M  V30 1843 H 168.697 -2.88238 2.59885 0
M  V30 1844 H 166.798 -3.7156 0.278137 0
M  V30 1845 H 166.911 -4.32499 2.0611 0
M  V30 1846 H 165.275 -2.33923 1.00758 0
M  V30 1847 H 166.058 -2.15886 2.66924 0
M  V30 1848 N 168.503 -0.877838 -1.30888 0
M  V30 1849 C 169.433 -0.35534 -2.3078 0
M  V30 1850 C 170.414 0.557994 -1.60687 0
M  V30 1851 O 171.599 0.473355 -1.88343 0
M  V30 1852 C 168.729 0.437221 -3.44537 0
M  V30 1853 C 167.683 -0.383715 -4.26276 0
M  V30 1854 C 167.009 0.535014 -5.32017 0
M  V30 1855 C 168.309 -1.62201 -4.96476 0
M  V30 1856 H 170.003 -1.19007 -2.74732 0
M  V30 1857 H 167.549 -0.573698 -1.32078 0
M  V30 1858 H 169.502 0.813334 -4.13477 0
M  V30 1859 H 168.226 1.30553 -2.99372 0
M  V30 1860 H 166.885 -0.741874 -3.59015 0
M  V30 1861 H 166.533 1.40083 -4.831 0
M  V30 1862 H 166.233 -0.0104211 -5.87599 0
M  V30 1863 H 167.757 0.907799 -6.03814 0
M  V30 1864 H 169.171 -1.31689 -5.5797 0
M  V30 1865 H 167.568 -2.10711 -5.61891 0
M  V30 1866 H 168.638 -2.37044 -4.23011 0
M  V30 1867 N 169.982 1.44106 -0.638065 0
M  V30 1868 C 171.23 2.01579 -0.145043 0
M  V30 1869 C 171.551 1.50496 1.24 0
M  V30 1870 O 170.821 0.711374 1.82527 0
M  V30 1871 H 169.401 0.745282 -0.05063 0
M  V30 1872 H 172.063 1.76516 -0.826327 0
M  V30 1873 H 171.159 3.11877 -0.118039 0
M  V30 1874 N 171.46 0.379036 1.52974 0
M  V30 1875 C 172.876 0.0285448 1.59574 0
M  V30 1876 C 173.076 -1.45542 1.39355 0
M  V30 1877 O 172.132 -2.2187 1.20541 0
M  V30 1878 C 173.445 0.496535 2.96572 0
M  V30 1879 C 174.993 0.451909 3.0972 0
M  V30 1880 C 175.468 0.895924 4.49152 0
M  V30 1881 N 176.959 0.851522 4.55306 0
M  V30 1882 C 177.694 1.16661 5.61407 0
M  V30 1883 N 177.19 1.55166 6.752 0
M  V30 1884 N 178.983 1.08853 5.51459 0
M  V30 1885 H 171.134 1.34525 1.64367 0
M  V30 1886 H 173.397 0.550733 0.771619 0
M  V30 1887 H 173.103 1.53258 3.16552 0
M  V30 1888 H 172.977 -0.109802 3.7704 0
M  V30 1889 H 175.364 -0.575029 2.89443 0
M  V30 1890 H 175.445 1.09392 2.3123 0
M  V30 1891 H 175.089 1.92104 4.70168 0
M  V30 1892 H 175.019 0.23103 5.26093 0
M  V30 1893 H 177.51 0.568038 3.73606 0
M  V30 1894 H 177.823 1.776 7.52116 0
M  V30 1895 H 176.168 1.59044 6.76557 0
M  V30 1896 H 179.359 0.786803 4.6144 0
M  V30 1897 H 179.532 1.33742 6.34048 0
M  V30 1898 N 172.938 -1.57226 0.108567 0
M  V30 1899 C 174.168 -1.9889 -0.559142 0
M  V30 1900 C 174.576 -0.986889 -1.61422 0
M  V30 1901 O 173.919 0.0298705 -1.83676 0
M  V30 1902 C 173.981 -3.36952 -1.25315 0
M  V30 1903 C 173.645 -4.55679 -0.347248 0
M  V30 1904 C 174.642 -5.18281 0.409996 0
M  V30 1905 C 172.327 -5.0162 -0.261367 0
M  V30 1906 C 174.321 -6.25203 1.24096 0
M  V30 1907 C 172.008 -6.08405 0.573238 0
M  V30 1908 C 173.006 -6.70063 1.32304 0
M  V30 1909 O 172.694 -7.74788 2.14381 0
M  V30 1910 H 172.426 -0.658343 -0.153492 0
M  V30 1911 H 174.98 -2.04532 0.188584 0
M  V30 1912 H 173.21 -3.28032 -2.04773 0
M  V30 1913 H 174.899 -3.62974 -1.81673 0
M  V30 1914 H 175.665 -4.8371 0.353457 0
M  V30 1915 H 171.544 -4.53381 -0.834656 0
M  V30 1916 H 175.088 -6.73259 1.82669 0
M  V30 1917 H 170.985 -6.42406 0.631208 0
M  V30 1918 H 171.753 -7.91837 2.07209 0
M  V30 1919 N 174.416 0.165178 -1.56732 0
M  V30 1920 C 175.346 1.20651 -1.99914 0
M  V30 1921 C 176.327 1.45827 -0.875705 0
M  V30 1922 O 177.512 1.57057 -1.14223 0
M  V30 1923 C 174.642 2.54401 -2.36427 0
M  V30 1924 C 173.596 2.43782 -3.51787 0
M  V30 1925 C 172.922 3.82078 -3.7406 0
M  V30 1926 C 174.222 1.93732 -4.85041 0
M  V30 1927 H 175.916 0.847534 -2.87154 0
M  V30 1928 H 173.462 0.40625 -1.38151 0
M  V30 1929 H 175.415 3.27458 -2.65234 0
M  V30 1930 H 174.139 2.92098 -1.46103 0
M  V30 1931 H 172.798 1.73178 -3.23117 0
M  V30 1932 H 172.446 4.17179 -2.81017 0
M  V30 1933 H 172.146 3.7584 -4.51684 0
M  V30 1934 H 173.67 4.56712 -4.05274 0
M  V30 1935 H 175.084 2.56569 -5.12684 0
M  V30 1936 H 173.481 1.98428 -5.66345 0
M  V30 1937 H 174.551 0.891962 -4.76626 0
M  V30 1938 N 175.894 1.51508 0.433938 0
M  V30 1939 C 177.141 1.64345 1.18309 0
M  V30 1940 C 177.469 0.361315 1.91115 0
M  V30 1941 O 176.724 -0.654753 1.84422 0
M  V30 1942 C 177.023 2.79928 2.22205 0
M  V30 1943 C 176.689 4.19078 1.66387 0
M  V30 1944 C 175.351 4.56932 1.50887 0
M  V30 1945 C 177.703 5.05894 1.25381 0
M  V30 1946 C 175.031 5.79305 0.928608 0
M  V30 1947 C 177.383 6.2885 0.687823 0
M  V30 1948 C 176.047 6.65473 0.519755 0
M  V30 1949 H 175.317 0.601381 0.432923 0
M  V30 1950 H 177.964 1.85549 0.473676 0
M  V30 1951 H 176.269 2.52959 2.99197 0
M  V30 1952 H 177.966 2.87059 2.79997 0
M  V30 1953 H 174.556 3.89234 1.79428 0
M  V30 1954 H 178.74 4.77253 1.36175 0
M  V30 1955 H 173.996 6.06324 0.786186 0
M  V30 1956 H 178.17 6.95461 0.361581 0
M  V30 1957 H 175.797 7.6017 0.0679979 0
M  V30 1958 N 177.372 -0.689602 1.41712 0
M  V30 1959 C 178.6 -1.47827 1.44758 0
M  V30 1960 C 179.015 -1.88721 0.0545703 0
M  V30 1961 O 178.372 -1.57176 -0.927463 0
M  V30 1962 C 178.423 -2.73698 2.3616 0
M  V30 1963 O 178.144 -2.34524 3.7004 0
M  V30 1964 C 179.645 -3.67389 2.48072 0
M  V30 1965 H 176.865 -0.455357 0.49284 0
M  V30 1966 H 179.409 -0.848574 1.86063 0
M  V30 1967 H 177.564 -3.32891 1.98148 0
M  V30 1968 H 177.978 -3.15701 4.18847 0
M  V30 1969 H 179.452 -4.52475 3.16181 0
M  V30 1970 H 179.929 -4.12284 1.51388 0
M  V30 1971 H 180.535 -3.14097 2.86746 0
M  V30 1972 N 178.85 -1.27639 -0.924453 0
M  V30 1973 C 180.075 -1.17101 -1.71179 0
M  V30 1974 C 180.5 0.268134 -1.86179 0
M  V30 1975 O 179.858 1.19415 -1.36418 0
M  V30 1976 C 179.906 -1.86313 -3.08739 0
M  V30 1977 O 179.01 -1.16331 -3.95652 0
M  V30 1978 H 178.351 -0.407091 -0.524569 0
M  V30 1979 H 180.881 -1.68767 -1.15666 0
M  V30 1980 H 180.891 -1.938 -3.59034 0
M  V30 1981 H 179.566 -2.91001 -2.97138 0
M  V30 1982 H 178.143 -1.16935 -3.54091 0
M  V30 1983 N 180.328 1.1314 -1.09713 0
M  V30 1984 C 181.553 1.88862 -0.857081 0
M  V30 1985 C 181.978 1.78729 0.586304 0
M  V30 1986 O 181.336 1.13692 1.41222 0
M  V30 1987 C 181.384 3.36325 -1.30069 0
M  V30 1988 O 180.488 4.09815 -0.461007 0
M  V30 1989 H 179.829 0.587108 -0.310162 0
M  V30 1990 H 182.359 1.43129 -1.46203 0
M  V30 1991 H 182.369 3.87157 -1.28738 0
M  V30 1992 H 181.044 3.43017 -2.35185 0
M  V30 1993 H 179.621 3.68986 -0.538888 0
M  V30 1994 N 181.806 0.884767 1.30421 0
M  V30 1995 C 183.034 0.518044 2.0031 0
M  V30 1996 C 183.449 -0.893408 1.66324 0
M  V30 1997 O 182.806 -1.5875 0.900262 0
M  V30 1998 C 182.857 0.682997 3.54989 0
M  V30 1999 O 182.578 2.03888 3.87764 0
M  V30 2000 C 184.079 0.31924 4.42149 0
M  V30 2001 H 181.299 0.200265 0.640418 0
M  V30 2002 H 183.843 1.19001 1.6631 0
M  V30 2003 H 181.998 0.0584052 3.87356 0
M  V30 2004 H 182.412 2.05735 4.82466 0
M  V30 2005 H 183.886 0.485555 5.4986 0
M  V30 2006 H 184.363 -0.742717 4.32875 0
M  V30 2007 H 184.969 0.920147 4.15227 0
M  V30 2008 N 183.284 -1.43765 0.645699 0
M  V30 2009 C 184.214 -2.33471 -0.0370477 0
M  V30 2010 C 185.195 -1.49042 -0.819779 0
M  V30 2011 O 186.38 -1.77726 -0.782758 0
M  V30 2012 C 183.51 -3.32311 -1.0093 0
M  V30 2013 C 182.464 -4.2667 -0.337201 0
M  V30 2014 C 181.79 -5.1549 -1.42037 0
M  V30 2015 C 183.09 -5.16657 0.765706 0
M  V30 2016 H 184.784 -2.90809 0.712069 0
M  V30 2017 H 182.33 -1.39834 0.343876 0
M  V30 2018 H 184.283 -3.9396 -1.49578 0
M  V30 2019 H 183.007 -2.73213 -1.78948 0
M  V30 2020 H 181.666 -3.66374 0.128771 0
M  V30 2021 H 181.314 -4.52735 -2.1918 0
M  V30 2022 H 181.014 -5.79438 -0.975966 0
M  V30 2023 H 182.538 -5.80012 -1.90838 0
M  V30 2024 H 183.952 -5.72158 0.361702 0
M  V30 2025 H 182.349 -5.89286 1.13413 0
M  V30 2026 H 183.419 -4.56796 1.62683 0
M  V30 2027 N 184.763 -0.387143 -1.52771 0
M  V30 2028 C 185.991 0.195869 -2.05971 0
M  V30 2029 C 186.406 1.40691 -1.25903 0
M  V30 2030 O 185.763 1.79931 -0.305134 0
M  V30 2031 C 185.814 0.56812 -3.57008 0
M  V30 2032 O 185.535 -0.594803 -4.34043 0
M  V30 2033 C 187.036 1.20723 -4.26545 0
M  V30 2034 H 184.256 0.0300578 -0.670326 0
M  V30 2035 H 186.8 -0.551749 -1.96916 0
M  V30 2036 H 184.955 1.26564 -3.66143 0
M  V30 2037 H 185.369 -0.289322 -5.23701 0
M  V30 2038 H 186.843 1.41807 -5.33474 0
M  V30 2039 H 187.32 2.17395 -3.81623 0
M  V30 2040 H 187.926 0.550535 -4.21722 0
M  V30 2041 N 186.241 1.57166 -0.116904 0
M  V30 2042 C 187.657 1.5779 0.239693 0
M  V30 2043 C 187.857 1.1295 1.66867 0
M  V30 2044 O 186.913 0.81592 2.38954 0
M  V30 2045 C 188.226 3.00699 0.00828202 0
M  V30 2046 C 189.774 3.12912 0.0743438 0
M  V30 2047 C 190.249 4.57817 -0.129348 0
M  V30 2048 N 191.74 4.63139 -0.075247 0
M  V30 2049 C 192.475 5.73023 -0.207788 0
M  V30 2050 N 191.971 6.91665 -0.396382 0
M  V30 2051 N 193.764 5.61906 -0.14751 0
M  V30 2052 H 185.915 1.84615 -1.05029 0
M  V30 2053 H 188.178 0.85311 -0.41341 0
M  V30 2054 H 187.884 3.37784 -0.979531 0
M  V30 2055 H 187.758 3.69848 0.741077 0
M  V30 2056 H 190.145 2.75686 1.05268 0
M  V30 2057 H 190.226 2.4631 -0.690297 0
M  V30 2058 H 189.87 4.95742 -1.10465 0
M  V30 2059 H 189.8 5.22507 0.655253 0
M  V30 2060 H 192.291 3.7784 0.0670898 0
M  V30 2061 H 192.604 7.71255 -0.488437 0
M  V30 2062 H 190.949 6.93654 -0.432329 0
M  V30 2063 H 194.14 4.681 -0.00115036 0
M  V30 2064 H 194.313 6.47501 -0.254247 0
M  V30 2065 N 187.719 -0.156864 1.56817 0
M  V30 2066 C 188.996 -0.899244 1.73704 0
M  V30 2067 C 189.376 -1.99771 0.682254 0
M  V30 2068 O 188.724 -2.26515 -0.300522 0
M  V30 2069 C 188.934 -1.45075 3.17418 0
M  V30 2070 C 190.282 -1.91802 3.7881 0
M  V30 2071 O 191.306 -1.54838 3.20786 0
M  V30 2072 O 190.165 -2.5994 4.80722 0
M  V30 2073 H 187.259 -0.424267 0.709878 0
M  V30 2074 H 189.805 -0.143561 1.69092 0
M  V30 2075 H 188.577 -0.660846 3.85679 0
M  V30 2076 H 188.2 -2.27021 3.26416 0
M  V30 2077 N 189.197 -1.51736 -0.425897 0
M  V30 2078 C 190.444 -1.6497 -1.17436 0
M  V30 2079 C 190.772 -0.371445 -1.9092 0
M  V30 2080 O 190.027 0.644963 -1.84767 0
M  V30 2081 C 190.326 -2.81103 -2.20717 0
M  V30 2082 C 189.992 -4.19954 -1.64162 0
M  V30 2083 C 188.654 -4.57725 -1.48462 0
M  V30 2084 C 191.006 -5.06552 -1.22696 0
M  V30 2085 C 188.334 -5.79789 -0.897873 0
M  V30 2086 C 190.686 -6.29205 -0.654464 0
M  V30 2087 C 189.35 -6.6574 -0.484456 0
M  V30 2088 H 188.62 -0.603668 -0.429727 0
M  V30 2089 H 191.267 -1.85798 -0.463829 0
M  V30 2090 H 189.572 -2.54542 -2.97852 0
M  V30 2091 H 191.269 -2.8854 -2.78471 0
M  V30 2092 H 187.859 -3.90181 -1.77361 0
M  V30 2093 H 192.043 -4.77968 -1.33642 0
M  V30 2094 H 187.299 -6.06733 -0.75402 0
M  V30 2095 H 191.473 -6.95643 -0.324694 0
M  V30 2096 H 189.1 -7.60195 -0.0276833 0
M  V30 2097 N 190.675 0.682077 -1.42076 0
M  V30 2098 C 191.924 1.43786 -1.41451 0
M  V30 2099 C 192.237 1.95574 -0.0317074 0
M  V30 2100 O 193.443 2.71326 0.0971462 0
M  V30 2101 C 191.899 2.60071 -2.48779 0
M  V30 2102 C 191.507 2.15013 -3.93031 0
M  V30 2103 C 193.251 3.37626 -2.57311 0
M  V30 2104 C 191.158 3.28336 -4.91883 0
M  V30 2105 H 190.088 0.540143 -0.526082 0
M  V30 2106 H 192.739 0.739157 -1.67955 0
M  V30 2107 H 191.121 3.32275 -2.15429 0
M  V30 2108 H 192.295 1.5001 -4.35699 0
M  V30 2109 H 190.61 1.50416 -3.88284 0
M  V30 2110 H 193.207 4.22012 -3.28345 0
M  V30 2111 H 193.55 3.83727 -1.61429 0
M  V30 2112 H 194.083 2.72488 -2.89819 0
M  V30 2113 H 190.822 2.87234 -5.89217 0
M  V30 2114 H 190.342 3.92145 -4.53853 0
M  V30 2115 H 192.021 3.93913 -5.13265 0
M  V30 2116 N 192.153 1.28127 0.917671 0
M  V30 2117 C 193.063 1.13556 2.05286 0
M  V30 2118 C 194.079 0.0630914 1.73886 0
M  V30 2119 O 195.255 0.271598 1.9956 0
M  V30 2120 C 192.32 0.794676 3.3747 0
M  V30 2121 C 191.381 1.94909 3.82504 0
M  V30 2122 C 190.614 1.62437 5.0838 0
M  V30 2123 O 190.837 0.536905 5.67867 0
M  V30 2124 O 189.771 2.46677 5.4903 0
M  V30 2125 H 193.597 2.08844 2.20495 0
M  V30 2126 H 191.182 1.07409 1.03845 0
M  V30 2127 H 193.064 0.618344 4.16839 0
M  V30 2128 H 191.739 -0.128581 3.23445 0
M  V30 2129 H 190.646 2.18055 3.03978 0
M  V30 2130 H 191.979 2.85291 4.01086 0
M  V30 2131 N 193.631 -1.12557 1.10312 0
M  V30 2132 C 194.88 -1.83395 0.839588 0
M  V30 2133 C 195.193 -1.84939 -0.636929 0
M  V30 2134 O 196.399 -2.51761 -1.01631 0
M  V30 2135 C 194.855 -3.29303 1.45215 0
M  V30 2136 C 194.463 -3.36122 2.96186 0
M  V30 2137 C 196.207 -4.05121 1.26796 0
M  V30 2138 C 194.114 -4.76357 3.50483 0
M  V30 2139 H 193.044 -0.687133 0.310425 0
M  V30 2140 H 195.695 -1.26746 1.32694 0
M  V30 2141 H 194.077 -3.85812 0.892469 0
M  V30 2142 H 195.251 -2.89559 3.58458 0
M  V30 2143 H 193.566 -2.73776 3.13745 0
M  V30 2144 H 196.163 -5.08668 1.64806 0
M  V30 2145 H 196.506 -4.15773 0.209409 0
M  V30 2146 H 197.039 -3.54967 1.79563 0
M  V30 2147 H 193.778 -4.70899 4.55998 0
M  V30 2148 H 193.298 -5.23377 2.92978 0
M  V30 2149 H 194.977 -5.45294 3.48228 0
M  V30 2150 N 195.109 -0.891671 -1.2995 0
M  V30 2151 C 196.357 -0.512486 -1.95494 0
M  V30 2152 C 196.678 0.942776 -1.70695 0
M  V30 2153 O 195.948 1.66374 -1.03424 0
M  V30 2154 H 194.528 -0.186533 -0.723336 0
M  V30 2155 H 197.19 -1.13621 -1.58355 0
M  V30 2156 H 196.286 -0.688342 -3.04415 0
M  V30 2157 N 196.587 1.43421 -0.653314 0
M  V30 2158 C 198.003 1.56341 -0.320886 0
M  V30 2159 C 198.203 1.63696 1.17499 0
M  V30 2160 O 197.259 1.59208 1.95982 0
M  V30 2161 C 198.572 2.82424 -1.03233 0
M  V30 2162 C 200.12 2.96168 -1.01259 0
M  V30 2163 C 200.595 4.25084 -1.70492 0
M  V30 2164 N 202.086 4.31948 -1.67257 0
M  V30 2165 C 202.821 5.30466 -2.17701 0
M  V30 2166 N 202.317 6.35261 -2.76434 0
M  V30 2167 N 204.11 5.2212 -2.082 0
M  V30 2168 H 196.261 1.3689 -1.62403 0
M  V30 2169 H 198.524 0.657455 -0.682977 0
M  V30 2170 H 198.23 2.83053 -2.08744 0
M  V30 2171 H 198.104 3.72653 -0.583948 0
M  V30 2172 H 200.491 2.9508 0.0341235 0
M  V30 2173 H 200.572 2.07229 -1.49966 0
M  V30 2174 H 200.216 4.26932 -2.7512 0
M  V30 2175 H 200.146 5.1292 -1.19251 0
M  V30 2176 H 202.637 3.56838 -1.24398 0
M  V30 2177 H 202.95 7.06754 -3.12601 0
M  V30 2178 H 201.295 6.35884 -2.80495 0
M  V30 2179 H 204.486 4.39166 -1.62021 0
M  V30 2180 H 204.659 5.98739 -2.47822 0
M  V30 2181 N 198.065 0.39524 1.52563 0
M  V30 2182 C 199.342 -0.242908 1.94086 0
M  V30 2183 C 199.722 -1.63841 1.33114 0
M  V30 2184 O 199.07 -2.22928 0.501529 0
M  V30 2185 C 199.28 -0.26327 3.48006 0
M  V30 2186 C 200.628 -0.489354 4.21771 0
M  V30 2187 O 201.652 -0.343226 3.54543 0
M  V30 2188 O 200.511 -0.776169 5.4096 0
M  V30 2189 H 197.605 -0.152536 0.812811 0
M  V30 2190 H 200.151 0.450178 1.6362 0
M  V30 2191 H 198.923 0.713985 3.84731 0
M  V30 2192 H 198.546 -1.00103 3.84792 0
M  V30 2193 N 199.544 -1.57102 0.125237 0
M  V30 2194 C 200.507 -2.14471 -0.80838 0
M  V30 2195 C 201.507 -1.0811 -1.19033 0
M  V30 2196 O 202.697 -1.33856 -1.11482 0
M  V30 2197 C 199.829 -2.69005 -2.09402 0
M  V30 2198 H 201.022 -2.98297 -0.309696 0
M  V30 2199 H 198.575 -1.55807 -0.124051 0
M  V30 2200 H 199.31 -1.88785 -2.63687 0
M  V30 2201 H 199.095 -3.46799 -1.82957 0
M  V30 2202 H 200.585 -3.13278 -2.76128 0
M  V30 2203 N 201.022 0.148545 -1.56898 0
M  V30 2204 C 202.27 0.859717 -1.82902 0
M  V30 2205 C 202.591 1.81775 -0.70588 0
M  V30 2206 O 201.861 1.93994 0.272586 0
M  V30 2207 H 200.441 0.320469 -0.674766 0
M  V30 2208 H 203.103 0.142918 -1.94375 0
M  V30 2209 H 202.199 1.4229 -2.77777 0
M  V30 2210 N 202.5 1.5196 0.417844 0
M  V30 2211 C 203.43 1.77634 1.51554 0
M  V30 2212 C 204.411 0.626918 1.58126 0
M  V30 2213 O 205.596 0.871632 1.7354 0
M  V30 2214 C 202.726 1.91911 2.8946 0
M  V30 2215 C 201.68 3.07463 2.97743 0
M  V30 2216 C 201.006 3.06951 4.37819 0
M  V30 2217 C 202.306 4.47082 2.70027 0
M  V30 2218 H 204 2.6955 1.3032 0
M  V30 2219 H 201.546 1.29706 0.625492 0
M  V30 2220 H 203.499 2.08455 3.6623 0
M  V30 2221 H 202.223 0.966598 3.11969 0
M  V30 2222 H 200.882 2.90656 2.23416 0
M  V30 2223 H 200.53 2.09438 4.57323 0
M  V30 2224 H 200.23 3.84556 4.44286 0
M  V30 2225 H 201.754 3.25613 5.16535 0
M  V30 2226 H 203.168 4.6414 3.36522 0
M  V30 2227 H 201.565 5.2654 2.87881 0
M  V30 2228 H 202.635 4.55777 1.65514 0
M  V30 2229 N 203.978 -0.674533 1.42435 0
M  V30 2230 C 205.224 -1.43521 1.4413 0
M  V30 2231 C 205.579 -1.92316 0.0567773 0
M  V30 2232 O 204.872 -1.68008 -0.921076 0
M  V30 2233 C 205.066 -2.64767 2.40069 0
M  V30 2234 C 204.895 -2.27836 3.87713 0
M  V30 2235 C 203.665 -2.17183 4.56245 0
M  V30 2236 C 205.863 -1.89466 4.78129 0
M  V30 2237 N 203.845 -1.73358 5.88915 0
M  V30 2238 C 205.216 -1.56561 5.99907 0
M  V30 2239 C 207.271 -1.7646 4.65582 0
M  V30 2240 C 205.974 -1.11957 7.10534 0
M  V30 2241 C 208 -1.3326 5.76191 0
M  V30 2242 C 207.362 -1.0128 6.97081 0
M  V30 2243 H 203.461 -0.521656 0.582579 0
M  V30 2244 H 206.045 -0.778381 1.78464 0
M  V30 2245 H 204.216 -3.28139 2.07796 0
M  V30 2246 H 205.948 -3.3136 2.32342 0
M  V30 2247 H 202.703 -2.3626 4.10461 0
M  V30 2248 H 203.127 -1.53867 6.59283 0
M  V30 2249 H 207.769 -1.99831 3.72595 0
M  V30 2250 H 205.487 -0.873318 8.03367 0
M  V30 2251 H 209.073 -1.23717 5.68494 0
M  V30 2252 H 207.953 -0.683597 7.81215 0
M  V30 2253 N 205.456 -1.28612 -0.910864 0
M  V30 2254 C 206.704 -1.15705 -1.65701 0
M  V30 2255 C 207.025 0.29416 -1.92769 0
M  V30 2256 O 206.295 1.20331 -1.54588 0
M  V30 2257 H 204.875 -0.425216 -0.614167 0
M  V30 2258 H 207.537 -1.61381 -1.0928 0
M  V30 2259 H 206.633 -1.6988 -2.61815 0
M  V30 2260 N 206.934 1.1197 -1.10907 0
M  V30 2261 C 208.35 1.35591 -0.841852 0
M  V30 2262 C 208.55 1.94233 0.536246 0
M  V30 2263 O 207.606 2.1717 1.28816 0
M  V30 2264 C 208.919 2.29284 -1.94549 0
M  V30 2265 C 210.467 2.42862 -1.97451 0
M  V30 2266 C 210.942 3.39873 -3.07002 0
M  V30 2267 N 212.433 3.47433 -3.06341 0
M  V30 2268 C 213.168 4.22421 -3.87748 0
M  V30 2269 N 212.664 5.00432 -4.79103 0
M  V30 2270 N 214.457 4.17876 -3.75946 0
M  V30 2271 H 206.608 0.722664 -1.99728 0
M  V30 2272 H 208.871 0.380635 -0.868229 0
M  V30 2273 H 208.577 1.93378 -2.93765 0
M  V30 2274 H 208.451 3.29452 -1.83688 0
M  V30 2275 H 210.838 2.78046 -0.988645 0
M  V30 2276 H 210.919 1.42566 -2.12388 0
M  V30 2277 H 210.563 3.05417 -4.05811 0
M  V30 2278 H 210.493 4.40011 -2.89306 0
M  V30 2279 H 212.984 2.91784 -2.40147 0
M  V30 2280 H 213.297 5.55002 -5.37766 0
M  V30 2281 H 211.642 4.99612 -4.83128 0
M  V30 2282 H 214.833 3.56016 -3.03924 0
M  V30 2283 H 215.006 4.76061 -4.39624 0
M  V30 2284 N 208.412 0.89855 1.29475 0
M  V30 2285 C 209.828 0.594483 1.48115 0
M  V30 2286 C 210.028 -0.86431 1.82022 0
M  V30 2287 O 209.084 -1.64457 1.91599 0
M  V30 2288 C 210.397 1.51932 2.59494 0
M  V30 2289 C 211.945 1.5244 2.7337 0
M  V30 2290 C 212.42 2.43548 3.87877 0
M  V30 2291 N 213.911 2.41589 3.95208 0
M  V30 2292 C 214.646 3.08789 4.83153 0
M  V30 2293 N 214.142 3.85265 5.75798 0
M  V30 2294 N 215.935 2.97952 4.76635 0
M  V30 2295 H 208.086 1.84207 1.05742 0
M  V30 2296 H 210.349 0.789251 0.525154 0
M  V30 2297 H 210.055 2.55865 2.41301 0
M  V30 2298 H 209.929 1.23899 3.56271 0
M  V30 2299 H 212.316 0.492518 2.90961 0
M  V30 2300 H 212.397 1.8451 1.77172 0
M  V30 2301 H 212.041 3.46829 3.71041 0
M  V30 2302 H 211.971 2.08788 4.83441 0
M  V30 2303 H 214.462 1.86025 3.28943 0
M  V30 2304 H 214.775 4.33598 6.39697 0
M  V30 2305 H 213.12 3.89371 5.75687 0
M  V30 2306 H 216.311 2.37723 4.03244 0
M  V30 2307 H 216.484 3.50599 5.44962 0
M  V30 2308 N 209.89 -1.43072 0.660911 0
M  V30 2309 C 211.115 -2.06584 0.183805 0
M  V30 2310 C 211.54 -1.49257 -1.14472 0
M  V30 2311 O 210.898 -0.605528 -1.70889 0
M  V30 2312 C 210.946 -3.60418 0.114434 0
M  V30 2313 O 210.05 -4.01981 -0.921137 0
M  V30 2314 H 209.391 -0.656669 0.0983994 0
M  V30 2315 H 211.921 -1.83447 0.906006 0
M  V30 2316 H 211.931 -4.07946 -0.0663394 0
M  V30 2317 H 210.606 -4.01519 1.08422 0
M  V30 2318 H 209.183 -3.66029 -0.71253 0
M  V30 2319 N 211.368 -0.403325 -1.52352 0
M  V30 2320 C 212.784 -0.0539281 -1.59509 0
M  V30 2321 C 212.984 1.43307 -1.41652 0
M  V30 2322 O 212.04 2.19924 -1.24056 0
M  V30 2323 C 213.353 -0.543654 -2.95745 0
M  V30 2324 C 214.901 -0.501125 -3.08962 0
M  V30 2325 C 215.376 -0.967267 -4.47669 0
M  V30 2326 N 216.867 -0.923849 -4.53893 0
M  V30 2327 C 217.602 -1.25578 -5.5948 0
M  V30 2328 N 217.098 -1.65889 -6.72646 0
M  V30 2329 N 218.891 -1.17613 -5.49658 0
M  V30 2330 H 211.042 -1.37123 -1.62206 0
M  V30 2331 H 213.305 -0.56294 -0.76276 0
M  V30 2332 H 213.011 -1.58275 -3.14073 0
M  V30 2333 H 212.885 0.0498042 -3.77167 0
M  V30 2334 H 215.272 0.528909 -2.90321 0
M  V30 2335 H 215.353 -1.13056 -2.2946 0
M  V30 2336 H 214.997 -1.9956 -4.67053 0
M  V30 2337 H 214.927 -0.314698 -5.25659 0
M  V30 2338 H 217.418 -0.627403 -3.72655 0
M  V30 2339 H 217.731 -1.89543 -7.49195 0
M  V30 2340 H 216.076 -1.69787 -6.73942 0
M  V30 2341 H 219.267 -0.860115 -4.6013 0
M  V30 2342 H 219.44 -1.43812 -6.3184 0
M  V30 2343 N 212.846 1.57033 -0.133567 0
M  V30 2344 C 213.776 2.1909 0.807567 0
M  V30 2345 C 214.757 1.13517 1.26681 0
M  V30 2346 O 215.942 1.41809 1.32679 0
M  V30 2347 C 213.072 2.80188 2.05212 0
M  V30 2348 C 212.026 3.91471 1.73015 0
M  V30 2349 C 211.352 4.39443 3.04622 0
M  V30 2350 C 212.652 5.12886 0.987168 0
M  V30 2351 H 214.346 2.97988 0.290403 0
M  V30 2352 H 211.892 1.43335 0.138239 0
M  V30 2353 H 213.845 3.22264 2.71521 0
M  V30 2354 H 212.569 1.98601 2.59278 0
M  V30 2355 H 211.228 3.49993 1.0909 0
M  V30 2356 H 210.876 3.54695 3.56651 0
M  V30 2357 H 210.576 5.14495 2.83847 0
M  V30 2358 H 212.1 4.8418 3.72024 0
M  V30 2359 H 213.514 5.51891 1.55208 0
M  V30 2360 H 211.911 5.93615 0.87985 0
M  V30 2361 H 212.981 4.84894 -0.0235286 0
M  V30 2362 N 214.325 -0.140222 1.56975 0
M  V30 2363 C 215.741 -0.493088 1.51792 0
M  V30 2364 C 215.941 -1.83013 0.843116 0
M  V30 2365 O 214.997 -2.49041 0.416493 0
M  V30 2366 C 216.31 -0.497144 2.96562 0
M  V30 2367 C 217.858 -0.582186 3.07538 0
M  V30 2368 C 218.333 -0.616838 4.53827 0
M  V30 2369 N 219.824 -0.678873 4.58198 0
M  V30 2370 C 220.559 -0.726782 5.68775 0
M  V30 2371 N 220.055 -0.733623 6.88905 0
M  V30 2372 N 221.848 -0.768179 5.56826 0
M  V30 2373 H 213.999 0.736108 1.99237 0
M  V30 2374 H 216.262 0.269182 0.90898 0
M  V30 2375 H 215.968 0.417217 3.49217 0
M  V30 2376 H 215.842 -1.33263 3.52875 0
M  V30 2377 H 218.229 -1.48697 2.54899 0
M  V30 2378 H 218.31 0.280581 2.54257 0
M  V30 2379 H 217.954 0.283812 5.07106 0
M  V30 2380 H 217.884 -1.49619 5.04898 0
M  V30 2381 H 220.375 -0.68061 3.7172 0
M  V30 2382 H 220.688 -0.772215 7.68932 0
M  V30 2383 H 219.033 -0.701389 6.91452 0
M  V30 2384 H 222.224 -0.760051 4.61888 0
M  V30 2385 H 222.397 -0.80205 6.43017 0
M  V30 2386 N 215.803 -1.52179 -0.40978 0
M  V30 2387 C 216.733 -1.78435 -1.5061 0
M  V30 2388 C 217.714 -0.635295 -1.57791 0
M  V30 2389 O 218.899 -0.880823 -1.73076 0
M  V30 2390 C 216.029 -1.93444 -2.88439 0
M  V30 2391 C 214.983 -3.09038 -2.96108 0
M  V30 2392 C 214.309 -3.09268 -4.36185 0
M  V30 2393 C 215.609 -4.48508 -2.67652 0
M  V30 2394 H 217.303 -2.70237 -1.28889 0
M  V30 2395 H 214.849 -1.30036 -0.618605 0
M  V30 2396 H 216.802 -2.10394 -3.65119 0
M  V30 2397 H 215.526 -0.983129 -3.11452 0
M  V30 2398 H 214.185 -2.91837 -2.21872 0
M  V30 2399 H 213.833 -2.11861 -4.56206 0
M  V30 2400 H 213.533 -3.86907 -4.42241 0
M  V30 2401 H 215.057 -3.28348 -5.14801 0
M  V30 2402 H 216.471 -4.65918 -3.34056 0
M  V30 2403 H 214.868 -5.28059 -2.85085 0
M  V30 2404 H 215.938 -4.56649 -1.63095 0
M  V30 2405 N 217.281 0.66697 -1.42791 0
M  V30 2406 C 218.506 1.46004 -1.47301 0
M  V30 2407 C 218.931 1.87894 -0.0880317 0
M  V30 2408 O 218.289 1.56502 0.915253 0
M  V30 2409 C 218.337 2.68031 -2.41229 0
M  V30 2410 O 217.441 3.6659 -1.88906 0
M  V30 2411 H 216.782 0.43832 -0.49877 0
M  V30 2412 H 219.312 0.817391 -1.87563 0
M  V30 2413 H 219.322 3.1601 -2.58073 0
M  V30 2414 H 217.997 2.36883 -3.41847 0
M  V30 2415 H 216.574 3.25661 -1.81656 0
M  V30 2416 N 218.759 1.29093 0.90403 0
M  V30 2417 C 220.007 1.16583 1.65085 0
M  V30 2418 C 220.328 -0.283933 1.92922 0
M  V30 2419 O 219.598 -1.19509 1.55224 0
M  V30 2420 H 218.178 0.428467 0.611903 0
M  V30 2421 H 220.84 1.61959 1.08422 0
M  V30 2422 H 219.936 1.71266 2.6091 0
M  V30 2423 N 220.237 -1.11381 1.11499 0
M  V30 2424 C 221.184 -2.17439 0.773887 0
M  V30 2425 C 222.154 -1.64132 -0.254899 0
M  V30 2426 O 223.339 -1.90345 -0.13168 0
M  V30 2427 C 220.479 -3.44373 0.223917 0
M  V30 2428 C 219.592 -4.1168 1.30934 0
M  V30 2429 C 218.727 -5.263 0.71984 0
M  V30 2430 C 217.766 -5.85493 1.78507 0
M  V30 2431 N 216.903 -6.91507 1.21502 0
M  V30 2432 H 221.743 -2.45962 1.68246 0
M  V30 2433 H 219.28 -1.20744 0.840191 0
M  V30 2434 H 221.238 -4.17047 -0.112921 0
M  V30 2435 H 219.868 -3.16232 -0.647851 0
M  V30 2436 H 218.92 -3.37073 1.76312 0
M  V30 2437 H 220.232 -4.51729 2.11524 0
M  V30 2438 H 219.386 -6.05785 0.333094 0
M  V30 2439 H 218.125 -4.87559 -0.117377 0
M  V30 2440 H 217.13 -5.04686 2.18111 0
M  V30 2441 H 218.355 -6.26301 2.62533 0
M  V30 2442 H 216.301 -6.54783 0.399455 0
M  V30 2443 H 216.218 -7.30214 1.95763 0
M  V30 2444 H 217.486 -7.74795 0.855181 0
M  V30 2445 N 221.715 -0.905404 -1.28997 0
M  V30 2446 C 223.126 -0.581953 -1.77398 0
M  V30 2447 C 223.477 0.902552 -1.74208 0
M  V30 2448 O 222.602 1.70584 -1.33154 0
M  V30 2449 C 223.197 -1.04961 -3.22131 0
M  V30 2450 C 221.756 -0.777229 -3.68288 0
M  V30 2451 C 220.903 -1.22109 -2.48967 0
M  V30 2452 H 223.854 -1.08754 -1.15578 0
M  V30 2453 H 223.875 -0.387387 -3.78523 0
M  V30 2454 H 223.387 -2.13008 -3.24421 0
M  V30 2455 H 221.488 0.290383 -3.71467 0
M  V30 2456 H 221.601 -1.37911 -4.58822 0
M  V30 2457 H 219.965 -0.639971 -2.46529 0
M  V30 2458 H 220.748 -2.30972 -2.53982 0
M  V30 2459 N 223.193 1.4272 -0.668489 0
M  V30 2460 C 224.123 2.335 -0.000100175 0
M  V30 2461 C 225.104 1.50328 0.795964 0
M  V30 2462 O 226.289 1.78949 0.754385 0
M  V30 2463 C 223.419 3.33874 0.956302 0
M  V30 2464 C 222.373 4.27152 0.269278 0
M  V30 2465 C 221.699 5.17684 1.33818 0
M  V30 2466 C 222.999 5.15373 -0.847805 0
M  V30 2467 H 224.693 2.89639 -0.758244 0
M  V30 2468 H 222.239 1.39269 -0.366079 0
M  V30 2469 H 224.192 3.9629 1.43292 0
M  V30 2470 H 222.916 2.76025 1.74579 0
M  V30 2471 H 221.575 3.66123 -0.187042 0
M  V30 2472 H 221.223 4.56165 2.1195 0
M  V30 2473 H 220.923 5.80918 0.883659 0
M  V30 2474 H 222.447 5.82974 1.81586 0
M  V30 2475 H 223.861 5.7151 -0.452681 0
M  V30 2476 H 222.258 5.87407 -1.22773 0
M  V30 2477 H 223.328 4.5415 -1.69929 0
M  V30 2478 N 224.671 0.411399 1.52136 0
M  V30 2479 C 225.601 -0.404015 2.29978 0
M  V30 2480 C 226.582 -1.04412 1.34284 0
M  V30 2481 O 227.767 -1.0527 1.63192 0
M  V30 2482 C 224.897 -1.5197 3.12286 0
M  V30 2483 C 223.851 -1.00448 4.16046 0
M  V30 2484 C 223.177 -2.21393 4.86712 0
M  V30 2485 C 224.477 -0.0569336 5.22269 0
M  V30 2486 H 226.171 0.245529 2.98392 0
M  V30 2487 H 223.717 0.119525 1.43503 0
M  V30 2488 H 225.67 -2.09715 3.6551 0
M  V30 2489 H 224.394 -2.19716 2.41646 0
M  V30 2490 H 223.053 -0.449421 3.63835 0
M  V30 2491 H 222.701 -2.87699 4.12599 0
M  V30 2492 H 222.401 -1.87571 5.56858 0
M  V30 2493 H 223.925 -2.7974 5.4275 0
M  V30 2494 H 225.339 -0.54325 5.7072 0
M  V30 2495 H 223.736 0.192594 5.99791 0
M  V30 2496 H 224.806 0.887663 4.76706 0
M  V30 2497 N 226.149 -1.5696 0.141893 0
M  V30 2498 C 227.079 -2.19516 -0.795936 0
M  V30 2499 C 228.06 -1.14187 -1.26077 0
M  V30 2500 O 229.245 -1.42511 -1.31925 0
M  V30 2501 C 226.375 -2.81272 -2.03723 0
M  V30 2502 C 225.329 -3.92384 -1.70936 0
M  V30 2503 C 224.655 -4.41052 -3.02287 0
M  V30 2504 C 225.955 -5.13403 -0.959954 0
M  V30 2505 H 227.649 -2.98138 -0.274596 0
M  V30 2506 H 225.195 -1.43406 -0.130636 0
M  V30 2507 H 227.148 -3.237 -2.69808 0
M  V30 2508 H 225.872 -1.99973 -2.58221 0
M  V30 2509 H 224.531 -3.50566 -1.07232 0
M  V30 2510 H 224.179 -3.56582 -3.54765 0
M  V30 2511 H 223.879 -5.15993 -2.81114 0
M  V30 2512 H 225.403 -4.86146 -3.69451 0
M  V30 2513 H 226.817 -5.52706 -1.52279 0
M  V30 2514 H 225.214 -5.94073 -0.848357 0
M  V30 2515 H 226.284 -4.84875 0.0492434 0
M  V30 2516 N 227.627 0.131896 -1.57047 0
M  V30 2517 C 228.855 0.856461 -1.88341 0
M  V30 2518 C 229.27 1.74042 -0.731757 0
M  V30 2519 O 228.627 1.80051 0.297945 0
M  V30 2520 C 228.678 1.70064 -3.18999 0
M  V30 2521 O 228.399 0.852278 -4.2973 0
M  V30 2522 C 229.9 2.53148 -3.63911 0
M  V30 2523 H 227.12 0.246885 -0.62393 0
M  V30 2524 H 229.664 0.120152 -2.04147 0
M  V30 2525 H 227.819 2.38984 -3.04902 0
M  V30 2526 H 228.233 1.43329 -5.04537 0
M  V30 2527 H 229.707 3.07931 -4.58129 0
M  V30 2528 H 230.184 3.29901 -2.89935 0
M  V30 2529 H 230.79 1.89492 -3.80753 0
M  V30 2530 N 229.106 1.52395 0.401703 0
M  V30 2531 C 230.016 1.7917 1.51444 0
M  V30 2532 C 231.032 0.677691 1.6026 0
M  V30 2533 O 232.208 0.963909 1.76835 0
M  V30 2534 C 229.273 1.94347 2.87107 0
M  V30 2535 C 228.334 3.18257 2.88116 0
M  V30 2536 C 227.567 3.32701 4.17308 0
M  V30 2537 O 227.79 2.52238 5.11598 0
M  V30 2538 O 226.724 4.25891 4.25324 0
M  V30 2539 H 230.55 2.73633 1.31752 0
M  V30 2540 H 228.135 1.3733 0.588296 0
M  V30 2541 H 230.017 2.06109 3.67555 0
M  V30 2542 H 228.692 1.03073 3.06851 0
M  V30 2543 H 227.599 3.11947 2.06494 0
M  V30 2544 H 228.932 4.09336 2.73322 0
M  V30 2545 N 230.584 -0.659388 1.43143 0
M  V30 2546 C 231.514 -1.78422 1.50625 0
M  V30 2547 C 232.495 -1.66216 0.361443 0
M  V30 2548 O 233.68 -1.85404 0.577834 0
M  V30 2549 C 230.81 -3.16815 1.42287 0
M  V30 2550 C 229.764 -3.43777 2.54954 0
M  V30 2551 C 229.09 -4.81905 2.31671 0
M  V30 2552 C 230.39 -3.39134 3.97222 0
M  V30 2553 H 232.084 -1.72417 2.44771 0
M  V30 2554 H 229.63 -0.828084 1.17808 0
M  V30 2555 H 231.583 -3.95253 1.46127 0
M  V30 2556 H 230.307 -3.23534 0.446435 0
M  V30 2557 H 228.966 -2.67707 2.50457 0
M  V30 2558 H 228.614 -4.85294 1.32284 0
M  V30 2559 H 228.314 -5.00906 3.07192 0
M  V30 2560 H 229.838 -5.62609 2.37284 0
M  V30 2561 H 231.252 -4.07518 4.03239 0
M  V30 2562 H 229.649 -3.69671 4.72719 0
M  V30 2563 H 230.719 -2.37426 4.22797 0
M  V30 2564 N 232.062 -1.29571 -0.897171 0
M  V30 2565 C 233.309 -1.17689 -1.6479 0
M  V30 2566 C 233.637 0.27107 -1.92602 0
M  V30 2567 O 232.892 1.21193 -1.53658 0
M  V30 2568 C 233.191 -1.9382 -3.00281 0
M  V30 2569 C 232.857 -3.43522 -2.92068 0
M  V30 2570 C 231.519 -3.84348 -2.89535 0
M  V30 2571 C 233.871 -4.38906 -2.81089 0
M  V30 2572 C 231.199 -5.18869 -2.73846 0
M  V30 2573 C 233.551 -5.73521 -2.66939 0
M  V30 2574 C 232.215 -6.13601 -2.62774 0
M  V30 2575 H 231.485 -0.430654 -0.603008 0
M  V30 2576 H 234.132 -1.60536 -1.04404 0
M  V30 2577 H 232.437 -1.4357 -3.64547 0
M  V30 2578 H 234.134 -1.82028 -3.57305 0
M  V30 2579 H 230.724 -3.11072 -2.94842 0
M  V30 2580 H 234.908 -4.08315 -2.82121 0
M  V30 2581 H 230.164 -5.4903 -2.69027 0
M  V30 2582 H 234.338 -6.47078 -2.57416 0
M  V30 2583 H 231.965 -7.17786 -2.50375 0
M  V30 2584 N 233.54 1.10788 -1.12088 0
M  V30 2585 C 234.47 2.19083 -0.807755 0
M  V30 2586 C 235.451 1.6858 0.226859 0
M  V30 2587 O 236.636 1.93997 0.0888475 0
M  V30 2588 C 233.766 3.46344 -0.257576 0
M  V30 2589 C 232.72 4.101 -1.22483 0
M  V30 2590 C 232.046 5.32016 -0.535052 0
M  V30 2591 C 233.346 4.54236 -2.57811 0
M  V30 2592 H 235.04 2.45534 -1.71328 0
M  V30 2593 H 232.586 1.1801 -0.825205 0
M  V30 2594 H 234.539 4.21392 -0.0262679 0
M  V30 2595 H 233.263 3.19373 0.683278 0
M  V30 2596 H 231.922 3.37054 -1.44189 0
M  V30 2597 H 231.57 5.01319 0.410827 0
M  V30 2598 H 231.27 5.75625 -1.18024 0
M  V30 2599 H 232.794 6.09799 -0.312695 0
M  V30 2600 H 234.208 5.20575 -2.40155 0
M  V30 2601 H 232.605 5.08682 -3.18375 0
M  V30 2602 H 233.675 3.6734 -3.16528 0
M  V30 2603 N 235.018 0.912232 1.28515 0
M  V30 2604 C 236.429 0.591352 1.77087 0
M  V30 2605 C 236.78 -0.8933 1.74684 0
M  V30 2606 O 235.905 -1.69876 1.34056 0
M  V30 2607 C 236.5 1.06668 3.2157 0
M  V30 2608 C 235.059 0.79675 3.67871 0
M  V30 2609 C 234.206 1.23427 2.48316 0
M  V30 2610 H 237.157 1.09365 1.15 0
M  V30 2611 H 237.178 0.407455 3.78312 0
M  V30 2612 H 236.69 2.14726 3.23287 0
M  V30 2613 H 234.791 -0.270679 3.71616 0
M  V30 2614 H 234.904 1.40343 4.58084 0
M  V30 2615 H 233.268 0.653036 2.46186 0
M  V30 2616 H 234.051 2.32316 2.52753 0
M  V30 2617 N 236.496 -1.42363 0.676048 0
M  V30 2618 C 237.459 -2.29199 0.00766941 0
M  V30 2619 C 238.459 -1.43389 -0.727745 0
M  V30 2620 O 239.649 -1.64764 -0.56556 0
M  V30 2621 C 236.781 -3.2591 -0.999785 0
M  V30 2622 H 237.974 -2.89794 0.771988 0
M  V30 2623 H 235.527 -1.50024 0.438468 0
M  V30 2624 H 236.262 -2.70256 -1.79255 0
M  V30 2625 H 236.047 -3.89202 -0.475829 0
M  V30 2626 H 237.537 -3.91028 -1.46583 0
M  V30 2627 N 237.974 -0.419461 -1.51915 0
M  V30 2628 C 239.199 0.154572 -2.06823 0
M  V30 2629 C 239.624 1.3722 -1.28656 0
M  V30 2630 O 238.982 1.78461 -0.319583 0
M  V30 2631 C 239.03 0.473172 -3.57482 0
M  V30 2632 O 238.134 1.56255 -3.81652 0
M  V30 2633 H 237.475 0.0096924 -0.663929 0
M  V30 2634 H 240.005 -0.595642 -1.95738 0
M  V30 2635 H 240.015 0.728825 -4.01438 0
M  V30 2636 H 238.69 -0.416873 -4.13805 0
M  V30 2637 H 237.267 1.29825 -3.49571 0
M  V30 2638 N 239.452 1.56882 -0.150215 0
M  V30 2639 C 240.863 1.82995 0.370076 0
M  V30 2640 C 241.214 1.06907 1.64515 0
M  V30 2641 O 240.339 0.315369 2.1409 0
M  V30 2642 C 240.934 3.31942 0.678208 0
M  V30 2643 C 239.493 3.58625 1.14301 0
M  V30 2644 C 238.64 2.76792 0.167778 0
M  V30 2645 H 241.591 1.54209 -0.374858 0
M  V30 2646 H 241.612 3.48272 1.53254 0
M  V30 2647 H 241.124 3.87294 -0.249991 0
M  V30 2648 H 239.225 3.08664 2.08704 0
M  V30 2649 H 239.338 4.67073 1.06676 0
M  V30 2650 H 237.702 2.45972 0.661037 0
M  V30 2651 H 238.485 3.34916 -0.754069 0
M  V30 2652 N 240.93 -0.123565 1.57115 0
M  V30 2653 C 241.86 -1.15309 2.03042 0
M  V30 2654 C 242.841 -1.43454 0.914061 0
M  V30 2655 O 244.026 -1.53973 1.18347 0
M  V30 2656 C 241.156 -2.48043 2.43089 0
M  V30 2657 C 240.11 -2.3437 3.58127 0
M  V30 2658 C 239.436 -3.72026 3.84059 0
M  V30 2659 C 240.736 -1.80804 4.90007 0
M  V30 2660 H 242.43 -0.771102 2.893 0
M  V30 2661 H 239.976 -0.369479 1.39179 0
M  V30 2662 H 241.929 -3.20311 2.73823 0
M  V30 2663 H 240.653 -2.88122 1.53796 0
M  V30 2664 H 239.312 -1.64551 3.27595 0
M  V30 2665 H 238.96 -4.09582 2.91979 0
M  V30 2666 H 238.66 -3.63732 4.6149 0
M  V30 2667 H 240.184 -4.45806 4.1724 0
M  V30 2668 H 241.598 -2.42886 5.19307 0
M  V30 2669 H 239.995 -1.83343 5.71407 0
M  V30 2670 H 241.065 -0.76528 4.78823 0
M  V30 2671 N 242.408 -1.52605 -0.393616 0
M  V30 2672 C 243.638 -1.71046 -1.15874 0
M  V30 2673 C 244.046 -0.426483 -1.84331 0
M  V30 2674 O 243.389 0.608513 -1.73329 0
M  V30 2675 C 243.451 -2.80118 -2.25332 0
M  V30 2676 C 243.115 -4.21381 -1.76881 0
M  V30 2677 C 244.112 -5.04697 -1.24808 0
M  V30 2678 C 241.797 -4.67683 -1.83244 0
M  V30 2679 C 243.791 -6.32393 -0.797387 0
M  V30 2680 C 241.478 -5.95364 -1.37787 0
M  V30 2681 C 242.476 -6.77549 -0.861208 0
M  V30 2682 O 242.164 -8.02837 -0.413252 0
M  V30 2683 H 241.896 -0.576155 -0.353583 0
M  V30 2684 H 244.45 -2.00018 -0.467123 0
M  V30 2685 H 242.68 -2.46557 -2.97904 0
M  V30 2686 H 244.369 -2.87006 -2.87023 0
M  V30 2687 H 245.135 -4.70111 -1.19252 0
M  V30 2688 H 241.014 -4.03805 -2.22401 0
M  V30 2689 H 244.558 -6.9649 -0.393437 0
M  V30 2690 H 240.455 -6.29455 -1.43026 0
M  V30 2691 H 241.223 -8.16749 -0.53515 0
M  V30 2692 O 243.925 0.539544 -1.52221 0
M  V30 2693 H 244.616 1.19468 -1.5247 0
M  V30 END ATOM
M  V30 BEGIN BOND
M  V30 END BOND
M  V30 END CTAB
M  END
$$$$
