drugbank_target|Q8N5Z0 Kynurenine/alpha-aminoadipate aminotransferase, mitochondrial (DB00114; DB00142)
 OpenBabel12092119383D

  0  0  0     0  0            999 V3000
M  V30 BEGIN CTAB
M  V30 COUNTS 6686 6768 0 0 0
M  V30 BEGIN ATOM
M  V30 1 H -0.908 1.98254 -0.117106 0
M  V30 2 N 0 1.576 0 0
M  V30 3 C 0.933 2.03868 1.02534 0
M  V30 4 C 1.911 0.928543 1.3348 0
M  V30 5 O 3.095 1.19667 1.45644 0
M  V30 6 C 0.222 2.43627 2.35294 0
M  V30 7 C -0.732 3.65373 2.2001 0
M  V30 8 S 0.101 5.13292 1.52614 0
M  V30 9 C 1.257 5.56322 2.86805 0
M  V30 10 H 1.49 2.90518 0.631377 0
M  V30 11 H -0.977 1.52953 0.210867 0
M  V30 12 H 0.981 2.67203 3.11629 0
M  V30 13 H -0.358 1.57376 2.7183 0
M  V30 14 H -1.165 3.90944 3.18086 0
M  V30 15 H -1.563 3.418 1.51819 0
M  V30 16 H 0.729 5.58782 3.83104 0
M  V30 17 H 1.672 6.56266 2.65933 0
M  V30 18 H 2.08 4.83886 2.90714 0
M  V30 19 N 1.4781 -0.272755 1.55222 0
M  V30 20 C 2.4261 -1.35705 1.88909 0
M  V30 21 C 3.4201 -1.5112 0.765456 0
M  V30 22 O 4.6261 -1.52901 0.949802 0
M  V30 23 H 1.0011 -0.453868 0.59959 0
M  V30 24 H 2.9721 -1.04544 2.79487 0
M  V30 25 C 1.7211 -2.71049 2.17779 0
M  V30 26 H 1.0441 -2.59979 3.03728 0
M  V30 27 H 2.4841 -3.45858 2.45272 0
M  V30 28 C 0.9431 -3.22165 0.985473 0
M  V30 29 O 1.4731 -4.01096 0.220233 0
M  V30 30 N -0.3209 -2.7985 0.783108 0
M  V30 31 H -0.7739 -2.15775 1.40708 0
M  V30 32 H -0.8159 -3.14397 -0.0130392 0
M  V30 33 N 2.9562 -1.48159 -0.537278 0
M  V30 34 C 4.1862 -1.59223 -1.3165 0
M  V30 35 C 4.5942 -0.248849 -1.87556 0
M  V30 36 O 3.9372 0.770949 -1.6674 0
M  V30 37 C 3.9992 -2.57365 -2.51005 0
M  V30 38 C 3.6632 -4.02603 -2.16239 0
M  V30 39 C 4.6602 -4.90503 -1.72344 0
M  V30 40 C 2.3452 -4.48088 -2.26986 0
M  V30 41 C 4.3392 -6.21913 -1.39651 0
M  V30 42 C 2.0262 -5.7952 -1.93906 0
M  V30 43 C 3.0242 -6.66255 -1.50309 0
M  V30 44 O 2.7122 -7.95243 -1.17659 0
M  V30 45 H 2.4442 -0.539831 -0.406889 0
M  V30 46 H 4.9982 -1.94655 -0.655641 0
M  V30 47 H 3.2282 -2.1704 -3.20048 0
M  V30 48 H 4.9172 -2.58342 -3.13072 0
M  V30 49 H 5.6832 -4.56604 -1.63517 0
M  V30 50 H 1.5622 -3.80769 -2.59877 0
M  V30 51 H 5.1062 -6.89569 -1.0555 0
M  V30 52 H 1.0032 -6.12957 -2.02371 0
M  V30 53 H 1.7712 -8.0793 -1.31119 0
M  V30 54 N 4.4343 0.785586 -1.36625 0
M  V30 55 C 5.3973 1.87999 -1.31107 0
M  V30 56 C 6.3973 1.59316 -0.217959 0
M  V30 57 O 7.5873 1.67656 -0.472977 0
M  V30 58 C 4.7193 3.24861 -1.03334 0
M  V30 59 H 5.9123 1.94307 -2.2844 0
M  V30 60 H 3.4653 0.983813 -1.21453 0
M  V30 61 H 4.2003 3.24235 -0.0647432 0
M  V30 62 H 3.9853 3.4707 -1.82441 0
M  V30 63 H 5.4753 4.04929 -1.02088 0
M  V30 64 N 5.9124 1.20967 1.01018 0
M  V30 65 C 7.3284 0.965905 1.27053 0
M  V30 66 C 7.5284 -0.350785 1.98423 0
M  V30 67 O 6.5844 -1.07773 2.28344 0
M  V30 68 C 7.8974 2.15294 2.09926 0
M  V30 69 C 9.4454 2.19463 2.23171 0
M  V30 70 C 9.9204 3.3767 3.09424 0
M  V30 71 N 11.4114 3.37724 3.17012 0
M  V30 72 C 12.1464 4.25837 3.83993 0
M  V30 73 N 11.6424 5.24138 4.53047 0
M  V30 74 N 13.4354 4.1366 3.80581 0
M  V30 75 H 5.5864 2.0565 0.531194 0
M  V30 76 H 7.8494 0.90024 0.297106 0
M  V30 77 H 7.5554 3.10684 1.64828 0
M  V30 78 H 7.4294 2.13923 3.10672 0
M  V30 79 H 9.8164 1.24632 2.6749 0
M  V30 80 H 9.8974 2.2488 1.21912 0
M  V30 81 H 9.5414 4.32791 2.65808 0
M  V30 82 H 9.4714 3.29491 4.10784 0
M  V30 83 H 11.9624 2.6658 2.6785 0
M  V30 84 H 12.2754 5.87684 5.01844 0
M  V30 85 H 10.6204 5.28068 4.5185 0
M  V30 86 H 13.8114 3.36127 3.25785 0
M  V30 87 H 13.9844 4.82538 4.32505 0
M  V30 88 N 7.3905 -1.2043 1.01659 0
M  V30 89 C 8.6375 -1.89797 0.705917 0
M  V30 90 C 8.9655 -1.78848 -0.764439 0
M  V30 91 O 8.2205 -1.16694 -1.57102 0
M  V30 92 C 8.5195 -3.40464 1.08714 0
M  V30 93 C 8.1855 -3.71614 2.5537 0
M  V30 94 C 6.8475 -3.79826 2.95441 0
M  V30 95 C 9.1995 -3.85915 3.50313 0
M  V30 96 C 6.5275 -3.99797 4.29394 0
M  V30 97 C 8.8795 -4.07396 4.83954 0
M  V30 98 C 7.5435 -4.13837 5.23732 0
M  V30 99 H 6.8135 -0.694518 0.258313 0
M  V30 100 H 9.4605 -1.42691 1.27717 0
M  V30 101 H 7.7655 -3.89385 0.434309 0
M  V30 102 H 9.4625 -3.92433 0.824461 0
M  V30 103 H 6.0525 -3.65822 2.23321 0
M  V30 104 H 10.2365 -3.78926 3.20513 0
M  V30 105 H 5.4925 -4.03018 4.59768 0
M  V30 106 H 9.6665 -4.17404 5.57447 0
M  V30 107 H 7.2935 -4.29064 6.27541 0
M  V30 108 N 8.8686 -0.792821 -1.36206 0
M  V30 109 C 10.1176 -0.363353 -1.984 0
M  V30 110 C 10.4306 1.07172 -1.63626 0
M  V30 111 O 11.6366 1.60362 -2.19081 0
M  V30 112 C 10.0926 -0.59872 -3.54885 0
M  V30 113 C 9.7006 -2.04543 -3.9858 0
M  V30 114 C 11.4446 -0.233926 -4.23855 0
M  V30 115 C 9.3516 -2.22727 -5.47856 0
M  V30 116 H 8.2816 -0.13212 -0.742334 0
M  V30 117 H 10.9326 -0.974935 -1.55458 0
M  V30 118 H 9.3146 0.0826222 -3.95914 0
M  V30 119 H 10.4886 -2.76345 -3.68741 0
M  V30 120 H 8.8036 -2.36879 -3.42458 0
M  V30 121 H 11.4006 -0.348027 -5.33566 0
M  V30 122 H 11.7436 0.818351 -4.08177 0
M  V30 123 H 12.2766 -0.868639 -3.882 0
M  V30 124 H 9.0156 -3.2635 -5.68486 0
M  V30 125 H 8.5356 -1.55434 -5.7931 0
M  V30 126 H 10.2146 -2.03607 -6.14128 0
M  V30 127 N 10.3467 1.47872 -0.545128 0
M  V30 128 C 11.5747 2.06889 -0.021084 0
M  V30 129 C 11.9897 1.39955 1.2672 0
M  V30 130 O 11.3467 0.492036 1.75742 0
M  V30 131 C 11.3977 3.60996 0.190817 0
M  V30 132 O 11.1187 4.25419 -1.04644 0
M  V30 133 C 12.6197 4.36849 0.753521 0
M  V30 134 H 9.8397 0.669785 -0.0403635 0
M  V30 135 H 12.3837 1.90049 -0.755095 0
M  V30 136 H 10.5387 3.77391 0.87492 0
M  V30 137 H 10.9527 5.17785 -0.836611 0
M  V30 138 H 12.4267 5.45399 0.851139 0
M  V30 139 H 12.9037 4.02306 1.762 0
M  V30 140 H 13.5097 4.25169 0.105503 0
M  V30 141 N 11.8248 0.280983 1.55075 0
M  V30 142 C 12.7878 -0.590896 2.21452 0
M  V30 143 C 13.7878 -1.07682 1.19421 0
M  V30 144 O 14.9778 -0.97605 1.44288 0
M  V30 145 C 12.1098 -1.81587 2.88511 0
M  V30 146 H 13.3028 -0.0112554 2.99898 0
M  V30 147 H 10.8558 0.0316438 1.56268 0
M  V30 148 H 11.5908 -2.43587 2.14093 0
M  V30 149 H 11.3758 -1.4753 3.63287 0
M  V30 150 H 12.8658 -2.43575 3.39206 0
M  V30 151 N 13.3029 -1.57598 0.00835791 0
M  V30 152 C 14.2659 -2.07884 -0.965242 0
M  V30 153 C 15.2659 -0.989825 -1.26725 0
M  V30 154 O 16.4559 -1.25218 -1.21104 0
M  V30 155 C 13.5879 -2.52731 -2.28779 0
M  V30 156 H 14.7809 -2.95178 -0.530112 0
M  V30 157 H 12.3339 -1.54458 -0.239283 0
M  V30 158 H 13.0689 -1.68705 -2.76964 0
M  V30 159 H 12.8539 -3.32272 -2.08177 0
M  V30 160 H 14.3439 -2.91933 -2.98605 0
M  V30 161 N 14.781 0.264519 -1.55364 0
M  V30 162 C 16.006 1.01726 -1.80739 0
M  V30 163 C 16.431 1.78836 -0.583044 0
M  V30 164 O 15.789 1.75167 0.467566 0
M  V30 165 C 15.837 1.94482 -3.03659 0
M  V30 166 O 14.941 3.03386 -2.7934 0
M  V30 167 H 14.282 0.290395 -0.597132 0
M  V30 168 H 16.812 0.290854 -2.02522 0
M  V30 169 H 16.822 2.36278 -3.32621 0
M  V30 170 H 15.497 1.37772 -3.92418 0
M  V30 171 H 14.074 2.65844 -2.61498 0
M  V30 172 N 16.2591 1.48442 0.529413 0
M  V30 173 C 17.2221 1.62524 1.61612 0
M  V30 174 C 18.2221 0.498509 1.52877 0
M  V30 175 O 19.4121 0.76431 1.56537 0
M  V30 176 C 16.5441 1.59597 3.01233 0
M  V30 177 H 17.7371 2.59423 1.50465 0
M  V30 178 H 15.2901 1.37047 0.751514 0
M  V30 179 H 16.0251 0.641781 3.17886 0
M  V30 180 H 15.8101 2.41397 3.08982 0
M  V30 181 H 17.3001 1.72646 3.80241 0
M  V30 182 N 17.7372 -0.778329 1.37039 0
M  V30 183 C 18.7002 -1.87301 1.32102 0
M  V30 184 C 19.7002 -1.59198 0.226405 0
M  V30 185 O 20.8902 -1.67403 0.481861 0
M  V30 186 C 18.0222 -3.24309 1.05055 0
M  V30 187 H 19.2152 -1.93093 2.29467 0
M  V30 188 H 16.7682 -0.977358 1.21973 0
M  V30 189 H 17.5032 -3.24196 0.0819373 0
M  V30 190 H 17.2882 -3.46098 1.84279 0
M  V30 191 H 18.7782 -4.04382 1.04234 0
M  V30 192 N 19.2153 -1.21501 -1.00376 0
M  V30 193 C 20.6313 -0.972629 -1.26539 0
M  V30 194 C 20.8313 0.340257 -1.98606 0
M  V30 195 O 19.8873 1.06561 -2.28913 0
M  V30 196 C 21.2003 -2.16404 -2.08781 0
M  V30 197 C 22.7483 -2.20643 -2.22004 0
M  V30 198 C 23.2233 -3.39306 -3.07629 0
M  V30 199 N 24.7143 -3.39401 -3.15217 0
M  V30 200 C 25.4493 -4.27867 -3.81729 0
M  V30 201 N 24.9453 -5.26533 -4.5026 0
M  V30 202 N 26.7383 -4.15672 -3.78382 0
M  V30 203 H 18.8893 -2.05929 -0.520281 0
M  V30 204 H 21.1523 -0.901803 -0.292328 0
M  V30 205 H 20.8583 -3.11554 -1.63178 0
M  V30 206 H 20.7323 -2.15567 -3.09533 0
M  V30 207 H 23.1193 -1.26048 -2.66825 0
M  V30 208 H 23.2003 -2.25523 -1.20718 0
M  V30 209 H 22.8443 -4.34195 -2.63509 0
M  V30 210 H 22.7743 -3.31665 -4.09031 0
M  V30 211 H 25.2653 -2.67997 -2.66432 0
M  V30 212 H 25.5783 -5.90337 -4.98721 0
M  V30 213 H 23.9233 -5.30457 -4.49044 0
M  V30 214 H 27.1143 -3.3785 -3.23998 0
M  V30 215 H 27.2873 -4.84825 -4.2994 0
M  V30 216 N 20.6934 1.19889 -1.02296 0
M  V30 217 C 21.6414 2.24938 -0.592081 0
M  V30 218 C 22.6354 1.65257 0.372357 0
M  V30 219 O 23.8414 1.78371 0.241583 0
M  V30 220 H 20.2164 0.731787 -0.173182 0
M  V30 221 H 22.1874 2.58603 -1.48885 0
M  V30 222 C 20.9364 3.47668 0.047351 0
M  V30 223 H 20.2594 3.93875 -0.685772 0
M  V30 224 H 21.6994 4.22852 0.311862 0
M  V30 225 C 20.1584 3.11136 1.29212 0
M  V30 226 O 20.6884 3.2325 2.38479 0
M  V30 227 N 18.8944 2.65625 1.17863 0
M  V30 228 H 18.4414 2.55968 0.289493 0
M  V30 229 H 18.3994 2.41553 2.01245 0
M  V30 230 N 22.1715 0.800033 1.35784 0
M  V30 231 C 23.5825 0.439142 1.81462 0
M  V30 232 C 23.9335 -1.03813 1.66485 0
M  V30 233 O 23.0585 -1.80626 1.19177 0
M  V30 234 C 23.6535 0.790314 3.29453 0
M  V30 235 C 22.2125 0.482111 3.733 0
M  V30 236 C 21.3595 1.01938 2.57883 0
M  V30 237 H 24.3105 0.992254 1.23855 0
M  V30 238 H 24.3315 0.0853677 3.80404 0
M  V30 239 H 23.8435 1.86554 3.40322 0
M  V30 240 H 21.9445 -0.584652 3.67984 0
M  V30 241 H 22.0575 1.01015 4.6833 0
M  V30 242 H 20.4215 0.442043 2.50835 0
M  V30 243 H 21.2045 2.10059 2.71533 0
M  V30 244 N 23.6496 -1.47581 0.552962 0
M  V30 245 C 24.8746 -2.07378 0.0300593 0
M  V30 246 C 25.2996 -1.40355 -1.25229 0
M  V30 247 O 24.6576 -0.477099 -1.7491 0
M  V30 248 C 24.7056 -3.60274 -0.153231 0
M  V30 249 O 23.8096 -3.94041 -1.21678 0
M  V30 250 H 23.1506 -0.662158 0.0494182 0
M  V30 251 H 25.6806 -1.89662 0.767434 0
M  V30 252 H 25.6906 -4.0633 -0.368761 0
M  V30 253 H 24.3656 -4.08455 0.783397 0
M  V30 254 H 22.9426 -3.59735 -0.982079 0
M  V30 255 N 25.1277 -0.289203 -1.54924 0
M  V30 256 C 26.5387 0.205791 -1.85562 0
M  V30 257 C 26.8897 1.54351 -1.2112 0
M  V30 258 O 26.0147 2.10435 -0.504601 0
M  V30 259 C 26.6097 0.380177 -3.3666 0
M  V30 260 C 25.1687 0.819395 -3.67373 0
M  V30 261 C 24.3157 -0.079159 -2.77187 0
M  V30 262 H 27.2667 -0.510577 -1.50262 0
M  V30 263 H 27.2877 1.21659 -3.60526 0
M  V30 264 H 26.7997 -0.593589 -3.83534 0
M  V30 265 H 24.9007 1.80413 -3.26009 0
M  V30 266 H 25.0137 0.646957 -4.74712 0
M  V30 267 H 23.3777 0.439565 -2.50878 0
M  V30 268 H 24.1607 -1.04906 -3.26878 0
M  V30 269 N 26.6058 1.57591 -0.0167156 0
M  V30 270 C 27.8548 1.90461 0.663877 0
M  V30 271 C 28.1678 0.893515 1.73999 0
M  V30 272 O 29.3738 1.11302 2.47637 0
M  V30 273 C 27.8298 3.38155 1.23204 0
M  V30 274 C 27.4378 4.47597 0.189866 0
M  V30 275 C 29.1818 3.80111 1.88986 0
M  V30 276 C 27.0888 5.86379 0.768964 0
M  V30 277 H 26.0188 0.710738 0.251729 0
M  V30 278 H 28.6698 1.83326 -0.0799926 0
M  V30 279 H 27.0518 3.40182 2.02712 0
M  V30 280 H 28.2258 4.57112 -0.581846 0
M  V30 281 H 26.5408 4.14766 -0.368475 0
M  V30 282 H 29.1378 4.81145 2.33247 0
M  V30 283 H 29.4808 3.14511 2.72743 0
M  V30 284 H 30.0138 3.80454 1.16187 0
M  V30 285 H 26.7528 6.55493 -0.0301957 0
M  V30 286 H 26.2728 5.80496 1.50945 0
M  V30 287 H 27.9518 6.34563 1.26251 0
M  V30 288 N 28.0839 -0.256276 1.55502 0
M  V30 289 C 29.4999 -0.604325 1.47716 0
M  V30 290 C 29.6999 -1.88763 0.705039 0
M  V30 291 O 28.7559 -2.51445 0.230613 0
M  V30 292 C 30.0689 -0.715756 2.92057 0
M  V30 293 C 31.6169 -0.808706 3.02372 0
M  V30 294 C 32.0919 -0.951777 4.48001 0
M  V30 295 N 33.5829 -1.01688 4.519 0
M  V30 296 C 34.3179 -1.14668 5.61817 0
M  V30 297 N 33.8139 -1.24261 6.81565 0
M  V30 298 N 35.6069 -1.1791 5.49594 0
M  V30 299 H 27.7579 0.586291 2.04148 0
M  V30 300 H 30.0209 0.201015 0.926443 0
M  V30 301 H 29.7269 0.157027 3.51349 0
M  V30 302 H 29.6009 -1.59071 3.42018 0
M  V30 303 H 31.9879 -1.67195 2.43166 0
M  V30 304 H 32.0689 0.0912063 2.55637 0
M  V30 305 H 31.7129 -0.0931291 5.07815 0
M  V30 306 H 31.6429 -1.86659 4.92408 0
M  V30 307 H 34.1339 -0.954468 3.65648 0
M  V30 308 H 34.4469 -1.34046 7.61086 0
M  V30 309 H 32.7919 -1.21236 6.84344 0
M  V30 310 H 35.9829 -1.10057 4.54978 0
M  V30 311 H 36.1559 -1.27681 6.35296 0
M  V30 312 N 29.562 -1.4872 -0.521534 0
M  V30 313 C 30.79 -1.60843 -1.30142 0
M  V30 314 C 31.205 -0.271897 -1.86832 0
M  V30 315 O 30.562 0.739969 -1.66825 0
M  V30 316 C 30.613 -2.66155 -2.4463 0
M  V30 317 O 30.334 -3.94623 -1.90275 0
M  V30 318 C 31.835 -2.88795 -3.36322 0
M  V30 319 H 29.055 -0.542075 -0.395468 0
M  V30 320 H 31.599 -1.94609 -0.628285 0
M  V30 321 H 29.754 -2.35224 -3.07812 0
M  V30 322 H 30.168 -4.52468 -2.65279 0
M  V30 323 H 31.642 -3.66264 -4.12983 0
M  V30 324 H 32.119 -1.97934 -3.9207 0
M  V30 325 H 32.725 -3.21063 -2.78924 0
M  V30 326 N 31.0401 0.771051 -1.3745 0
M  V30 327 C 31.9731 1.89166 -1.27638 0
M  V30 328 C 32.9511 1.61842 -0.156782 0
M  V30 329 O 34.1351 1.85569 -0.331111 0
M  V30 330 C 31.2621 3.24405 -0.973621 0
M  V30 331 C 30.3081 3.70638 -2.1102 0
M  V30 332 S 31.1411 3.84228 -3.73 0
M  V30 333 C 32.2971 5.22313 -3.44876 0
M  V30 334 H 32.5301 1.972 -2.22485 0
M  V30 335 H 30.0631 0.932224 -1.23081 0
M  V30 336 H 32.0211 4.02514 -0.805766 0
M  V30 337 H 30.6821 3.14071 -0.0426279 0
M  V30 338 H 29.8751 4.68685 -1.85338 0
M  V30 339 H 29.4771 2.99632 -2.23822 0
M  V30 340 H 31.7691 6.07505 -2.99908 0
M  V30 341 H 32.7121 5.53008 -4.42253 0
M  V30 342 H 33.1201 4.90284 -2.79789 0
M  V30 343 N 32.5182 1.22032 0.997298 0
M  V30 344 C 33.7462 1.06841 1.7718 0
M  V30 345 C 34.1612 -0.381325 1.84909 0
M  V30 346 O 33.5182 -1.26437 1.31605 0
M  V30 347 C 33.5692 1.66814 3.20711 0
M  V30 348 O 33.2902 3.06116 3.13408 0
M  V30 349 C 34.7912 1.56838 4.14628 0
M  V30 350 H 32.0112 0.374782 0.556578 0
M  V30 351 H 34.5552 1.61532 1.2541 0
M  V30 352 H 32.7102 1.16196 3.69564 0
M  V30 353 H 33.1242 3.34926 4.0364 0
M  V30 354 H 34.5982 2.03532 5.13107 0
M  V30 355 H 35.0752 0.524155 4.36061 0
M  V30 356 H 35.6812 2.06741 3.7167 0
M  V30 357 N 33.9963 -1.19345 1.0293 0
M  V30 358 C 35.2733 -1.84811 0.640642 0
M  V30 359 C 35.6533 -1.91855 -0.88062 0
M  V30 360 O 35.0013 -1.43587 -1.7775 0
M  V30 361 C 35.2113 -3.23755 1.30321 0
M  V30 362 C 36.5593 -3.99912 1.42673 0
M  V30 363 O 37.5833 -3.33155 1.26041 0
M  V30 364 O 36.4423 -5.19494 1.6967 0
M  V30 365 H 33.5363 -0.796443 0.222726 0
M  V30 366 H 36.0823 -1.26831 1.12748 0
M  V30 367 H 34.8543 -3.13466 2.34211 0
M  V30 368 H 34.4773 -3.89381 0.804261 0
M  V30 369 N 35.4744 -0.807222 -1.35358 0
M  V30 370 C 36.7234 -0.384376 -1.98004 0
M  V30 371 C 37.0364 1.0543 -1.64754 0
M  V30 372 O 38.2424 1.58029 -2.20769 0
M  V30 373 C 36.6984 -0.636326 -3.5423 0
M  V30 374 C 36.3064 -2.08759 -3.96388 0
M  V30 375 C 38.0504 -0.278869 -4.23583 0
M  V30 376 C 35.9574 -2.28525 -5.45463 0
M  V30 377 H 34.8874 -0.139986 -0.740891 0
M  V30 378 H 37.5384 -0.991369 -1.54415 0
M  V30 379 H 35.9204 0.0406256 -3.95979 0
M  V30 380 H 37.0944 -2.8024 -3.6579 0
M  V30 381 H 35.4094 -2.40497 -3.39926 0
M  V30 382 H 38.0064 -0.404599 -5.33167 0
M  V30 383 H 38.3494 0.775012 -4.09022 0
M  V30 384 H 38.8824 -0.909764 -3.87257 0
M  V30 385 H 35.6214 -3.32361 -5.64992 0
M  V30 386 H 35.1414 -1.61569 -5.77629 0
M  V30 387 H 36.8204 -2.10109 -6.11934 0
M  V30 388 N 36.9525 1.47285 -0.560781 0
M  V30 389 C 37.8825 2.32857 0.173105 0
M  V30 390 C 38.8635 1.44009 0.905281 0
M  V30 391 O 40.0485 1.7286 0.885046 0
M  V30 392 C 37.1785 3.25861 1.20133 0
M  V30 393 C 36.1325 4.23978 0.585388 0
M  V30 394 C 35.4585 5.06332 1.7185 0
M  V30 395 C 36.7585 5.20242 -0.463178 0
M  V30 396 H 38.4525 2.94466 -0.541307 0
M  V30 397 H 35.9985 1.41601 -0.261764 0
M  V30 398 H 37.9515 3.84569 1.72293 0
M  V30 399 H 36.6755 2.62315 1.94573 0
M  V30 400 H 35.3345 3.66501 0.085054 0
M  V30 401 H 34.9825 4.39186 2.45203 0
M  V30 402 H 34.6825 5.72762 1.31213 0
M  V30 403 H 36.2065 5.67899 2.24329 0
M  V30 404 H 37.6205 5.73293 -0.027502 0
M  V30 405 H 36.0175 5.94896 -0.788627 0
M  V30 406 H 37.0875 4.65504 -1.35773 0
M  V30 407 N 38.4306 0.297415 1.54768 0
M  V30 408 C 39.6556 -0.318435 2.04941 0
M  V30 409 C 40.0806 -1.4701 1.17345 0
M  V30 410 O 39.4386 -1.80436 0.176758 0
M  V30 411 C 39.4866 -0.755749 3.52592 0
M  V30 412 O 38.5906 -1.86088 3.68028 0
M  V30 413 H 37.9316 -0.062421 0.661059 0
M  V30 414 H 40.4616 0.438215 1.99852 0
M  V30 415 H 40.4716 -1.04552 3.94376 0
M  V30 416 H 39.1466 0.0867233 4.1581 0
M  V30 417 H 37.7236 -1.57193 3.38149 0
M  V30 418 N 39.9087 -1.5758 0.0250728 0
M  V30 419 C 41.3247 -1.56124 -0.331282 0
M  V30 420 C 41.5247 -1.03029 -1.73169 0
M  V30 421 O 40.5807 -0.675215 -2.43305 0
M  V30 422 C 41.8937 -3.00139 -0.183584 0
M  V30 423 C 43.4417 -3.11946 -0.256654 0
M  V30 424 C 43.9167 -4.57793 -0.137792 0
M  V30 425 N 45.4077 -4.6279 -0.194904 0
M  V30 426 C 46.1427 -5.7326 -0.126655 0
M  V30 427 N 45.6387 -6.928 -0.00755288 0
M  V30 428 N 47.4317 -5.61811 -0.180348 0
M  V30 429 H 39.5827 -1.90424 0.94087 0
M  V30 430 H 41.8457 -0.875761 0.362968 0
M  V30 431 H 41.5517 -3.4292 0.780927 0
M  V30 432 H 41.4257 -3.64899 -0.955448 0
M  V30 433 H 43.8127 -2.69079 -1.21162 0
M  V30 434 H 43.8937 -2.49915 0.545517 0
M  V30 435 H 43.5377 -5.01339 0.813739 0
M  V30 436 H 43.4677 -5.17798 -0.958775 0
M  V30 437 H 45.9587 -3.76807 -0.287267 0
M  V30 438 H 46.2717 -7.72791 0.0379428 0
M  V30 439 H 44.6167 -6.94995 0.0271731 0
M  V30 440 H 47.8077 -4.6731 -0.271767 0
M  V30 441 H 47.9807 -6.47882 -0.123697 0
M  V30 442 N 41.3868 0.248026 -1.55636 0
M  V30 443 C 42.6348 0.974295 -1.77065 0
M  V30 444 C 42.9558 1.85897 -0.588849 0
M  V30 445 O 42.2258 1.91868 0.395407 0
M  V30 446 H 40.8058 0.362733 -0.653019 0
M  V30 447 H 43.4678 0.266244 -1.93073 0
M  V30 448 H 42.5638 1.59667 -2.68166 0
M  V30 449 N 42.8649 1.48995 0.513639 0
M  V30 450 C 44.2759 1.5119 1.09537 0
M  V30 451 C 44.6269 0.290906 1.94031 0
M  V30 452 O 43.7519 -0.60049 2.07902 0
M  V30 453 C 44.3469 2.73964 1.99322 0
M  V30 454 C 42.9059 2.78978 2.52682 0
M  V30 455 C 42.0529 2.44934 1.30009 0
M  V30 456 H 45.0039 1.55875 0.298125 0
M  V30 457 H 45.0249 2.53409 2.83838 0
M  V30 458 H 44.5369 3.62813 1.37799 0
M  V30 459 H 42.6379 1.94378 3.1788 0
M  V30 460 H 42.7509 3.8083 2.90698 0
M  V30 461 H 41.1149 1.9644 1.62122 0
M  V30 462 H 41.8979 3.36043 0.702131 0
M  V30 463 N 44.343 -0.763751 1.37857 0
M  V30 464 C 45.29 -1.87726 1.34267 0
M  V30 465 C 46.26 -1.64807 0.206879 0
M  V30 466 O 47.445 -1.86613 0.397508 0
M  V30 467 C 44.585 -3.24896 1.16346 0
M  V30 468 C 43.698 -3.59716 2.39225 0
M  V30 469 C 42.833 -4.86137 2.14114 0
M  V30 470 C 41.872 -5.13711 3.32817 0
M  V30 471 N 41.009 -6.31323 3.07206 0
M  V30 472 H 45.849 -1.90129 2.29466 0
M  V30 473 H 43.386 -0.929433 1.14017 0
M  V30 474 H 45.344 -4.04036 1.03975 0
M  V30 475 H 43.974 -3.21847 0.247909 0
M  V30 476 H 43.026 -2.75498 2.62307 0
M  V30 477 H 44.338 -3.76027 3.27728 0
M  V30 478 H 43.492 -5.73198 1.9882 0
M  V30 479 H 42.231 -4.71945 1.22961 0
M  V30 480 H 41.236 -4.25123 3.48641 0
M  V30 481 H 42.461 -5.29807 4.24832 0
M  V30 482 H 40.407 -6.18474 2.1869 0
M  V30 483 H 40.324 -6.48087 3.89254 0
M  V30 484 H 41.592 -7.213 2.95546 0
M  V30 485 N 45.8211 -1.22559 -0.990812 0
M  V30 486 C 47.0461 -1.07862 -1.77145 0
M  V30 487 C 47.4711 0.366447 -1.84496 0
M  V30 488 O 46.8291 1.26478 -1.29896 0
M  V30 489 C 46.8771 -1.69686 -3.18181 0
M  V30 490 O 45.9811 -0.951946 -4.01263 0
M  V30 491 H 45.3221 -0.378712 -0.545411 0
M  V30 492 H 47.8521 -1.62399 -1.2445 0
M  V30 493 H 47.8621 -1.74496 -3.68802 0
M  V30 494 H 46.5371 -2.74841 -3.12146 0
M  V30 495 H 45.1141 -0.980011 -3.59792 0
M  V30 496 N 47.2992 1.18797 -1.03562 0
M  V30 497 C 48.2322 2.2105 -0.56676 0
M  V30 498 C 49.2102 1.57704 0.395993 0
M  V30 499 O 50.3942 1.85908 0.311498 0
M  V30 500 C 47.5212 3.38259 0.172704 0
M  V30 501 C 46.5672 4.19987 -0.74252 0
M  V30 502 S 47.4002 4.87199 -2.22254 0
M  V30 503 C 48.5562 6.07813 -1.49379 0
M  V30 504 H 48.7892 2.60478 -1.43312 0
M  V30 505 H 46.3222 1.29151 -0.846133 0
M  V30 506 H 48.2802 4.06191 0.593191 0
M  V30 507 H 46.9412 2.97252 1.01488 0
M  V30 508 H 46.1342 5.03709 -0.171265 0
M  V30 509 H 45.7362 3.57408 -1.10163 0
M  V30 510 H 48.0282 6.72948 -0.784056 0
M  V30 511 H 48.9712 6.69435 -2.30786 0
M  V30 512 H 49.3792 5.55781 -0.988331 0
M  V30 513 N 48.7773 0.814389 1.34928 0
M  V30 514 C 50.0263 0.394871 1.97797 0
M  V30 515 C 50.3393 -1.04555 1.65311 0
M  V30 516 O 51.5453 -1.56856 2.21604 0
M  V30 517 C 50.0013 0.655103 3.53888 0
M  V30 518 C 49.6093 2.10858 3.95276 0
M  V30 519 C 51.3533 0.301329 4.23429 0
M  V30 520 C 49.2603 2.31415 5.44244 0
M  V30 521 H 48.1903 0.143913 0.740139 0
M  V30 522 H 50.8413 0.999544 1.53888 0
M  V30 523 H 49.2233 -0.0196253 3.95995 0
M  V30 524 H 50.3973 2.82176 3.64298 0
M  V30 525 H 48.7123 2.42297 3.38646 0
M  V30 526 H 51.3093 0.432869 5.32945 0
M  V30 527 H 51.6523 -0.75331 4.09428 0
M  V30 528 H 52.1853 0.930288 3.86769 0
M  V30 529 H 48.9243 3.35353 5.63222 0
M  V30 530 H 48.4443 1.6463 5.76764 0
M  V30 531 H 50.1233 2.13352 6.10811 0
M  V30 532 N 50.2554 -1.46986 0.568584 0
M  V30 533 C 51.4804 -2.07335 0.0520528 0
M  V30 534 C 51.9054 -1.41675 -1.23733 0
M  V30 535 O 51.2634 -0.495623 -1.74394 0
M  V30 536 C 51.3114 -3.60417 -0.11501 0
M  V30 537 O 50.4154 -3.95309 -1.17492 0
M  V30 538 H 49.7564 -0.661597 0.0564385 0
M  V30 539 H 52.2864 -1.88837 0.787507 0
M  V30 540 H 52.2964 -4.06698 -0.325644 0
M  V30 541 H 50.9714 -4.07601 0.826675 0
M  V30 542 H 49.5484 -3.60757 -0.943869 0
M  V30 543 N 51.7335 -0.305618 -1.54608 0
M  V30 544 C 52.6635 0.561482 -2.26649 0
M  V30 545 C 53.6445 1.13415 -1.26772 0
M  V30 546 O 54.8295 1.16262 -1.55553 0
M  V30 547 C 51.9595 1.73122 -3.01075 0
M  V30 548 C 50.9135 1.2887 -4.08138 0
M  V30 549 C 50.2395 2.54396 -4.70305 0
M  V30 550 C 51.5395 0.416578 -5.20636 0
M  V30 551 H 53.2335 -0.0393902 -2.99374 0
M  V30 552 H 50.7795 -0.020385 -1.43986 0
M  V30 553 H 52.7325 2.34396 -3.50195 0
M  V30 554 H 51.4565 2.3584 -2.25936 0
M  V30 555 H 50.1155 0.698991 -3.59875 0
M  V30 556 H 49.7635 3.15439 -3.918 0
M  V30 557 H 49.4635 2.25486 -5.42614 0
M  V30 558 H 50.9875 3.16464 -5.2219 0
M  V30 559 H 52.4015 0.935116 -5.65622 0
M  V30 560 H 50.7985 0.221046 -5.99693 0
M  V30 561 H 51.8685 -0.557162 -4.81688 0
M  V30 562 N 53.2116 1.57565 -0.0334293 0
M  V30 563 C 54.1746 2.09393 0.932048 0
M  V30 564 C 55.1746 1.00986 1.25134 0
M  V30 565 O 56.3646 1.27129 1.19096 0
M  V30 566 C 53.4966 2.56338 2.2473 0
M  V30 567 H 54.6896 2.95984 0.483085 0
M  V30 568 H 52.2426 1.54819 0.21468 0
M  V30 569 H 52.9776 1.7309 2.74245 0
M  V30 570 H 52.7626 3.35542 2.02865 0
M  V30 571 H 54.2526 2.96646 2.93923 0
M  V30 572 N 54.6897 -0.239769 1.55765 0
M  V30 573 C 55.9377 -0.964892 1.77579 0
M  V30 574 C 56.2587 -1.85582 0.598699 0
M  V30 575 O 55.5287 -1.92075 -0.385226 0
M  V30 576 H 54.1087 -0.359265 0.654933 0
M  V30 577 H 56.7707 -0.256001 1.93211 0
M  V30 578 H 55.8667 -1.58243 2.69009 0
M  V30 579 N 56.1678 -1.49265 -0.50573 0
M  V30 580 C 57.4158 -1.582 -1.25766 0
M  V30 581 C 57.7368 -0.268482 -1.93143 0
M  V30 582 O 57.0068 0.711833 -1.8251 0
M  V30 583 H 55.5868 -0.582873 -0.467191 0
M  V30 584 H 58.2488 -1.85865 -0.586525 0
M  V30 585 H 57.3448 -2.37563 -2.02412 0
M  V30 586 N 57.6459 0.756429 -1.3826 0
M  V30 587 C 58.5759 1.88374 -1.37976 0
M  V30 588 C 59.5569 1.68311 -0.246082 0
M  V30 589 O 60.7419 1.88944 -0.44874 0
M  V30 590 C 57.8719 3.25864 -1.20125 0
M  V30 591 C 56.8259 3.60523 -2.30666 0
M  V30 592 C 56.1519 4.9672 -1.97923 0
M  V30 593 C 57.4519 3.65692 -3.72916 0
M  V30 594 H 59.1459 1.88869 -2.32312 0
M  V30 595 H 56.6919 0.907272 -1.11824 0
M  V30 596 H 58.6449 4.0438 -1.18552 0
M  V30 597 H 57.3689 3.25841 -0.222498 0
M  V30 598 H 56.0279 2.84324 -2.3142 0
M  V30 599 H 55.6759 4.93253 -0.985393 0
M  V30 600 H 55.3759 5.20878 -2.71955 0
M  V30 601 H 56.8999 5.77618 -1.97964 0
M  V30 602 H 58.3139 4.34328 -3.74208 0
M  V30 603 H 56.7109 4.01358 -4.4613 0
M  V30 604 H 57.7809 2.65987 -4.05436 0
M  V30 605 N 59.124 1.23083 0.984299 0
M  V30 606 C 60.535 1.05609 1.5396 0
M  V30 607 C 60.886 -0.377793 1.92528 0
M  V30 608 O 60.011 -1.26398 1.75649 0
M  V30 609 C 60.606 1.91087 2.7977 0
M  V30 610 C 59.165 1.77885 3.31713 0
M  V30 611 C 58.312 1.87028 2.04733 0
M  V30 612 H 61.263 1.36802 0.804419 0
M  V30 613 H 61.284 1.43336 3.5247 0
M  V30 614 H 60.796 2.9544 2.51668 0
M  V30 615 H 58.897 0.762995 3.64704 0
M  V30 616 H 59.01 2.61047 4.01735 0
M  V30 617 H 57.374 1.30565 2.18689 0
M  V30 618 H 58.157 2.92929 1.79017 0
M  V30 619 N 60.6021 -1.18246 1.0419 0
M  V30 620 C 61.5501 -2.23968 0.627792 0
M  V30 621 C 62.5441 -1.65828 -0.346019 0
M  V30 622 O 63.7501 -1.78733 -0.213175 0
M  V30 623 H 60.1251 -0.728939 0.184802 0
M  V30 624 H 62.0961 -2.56202 1.52981 0
M  V30 625 C 60.8451 -3.47699 0.00796591 0
M  V30 626 H 60.1681 -3.92734 0.748347 0
M  V30 627 H 61.6081 -4.23294 -0.24455 0
M  V30 628 C 60.0671 -3.13153 -1.24246 0
M  V30 629 O 60.5971 -3.27003 -2.33307 0
M  V30 630 N 58.8031 -2.67467 -1.13622 0
M  V30 631 H 58.3501 -2.56396 -0.248734 0
M  V30 632 H 58.3081 -2.44724 -1.97377 0
M  V30 633 N 62.0802 -0.821533 -1.34494 0
M  V30 634 C 63.4912 -0.467956 -1.8074 0
M  V30 635 C 63.8422 1.01151 -1.68116 0
M  V30 636 O 62.9672 1.78707 -1.22036 0
M  V30 637 C 63.5622 -0.842627 -3.28154 0
M  V30 638 C 62.1212 -0.541439 -3.72485 0
M  V30 639 C 61.2682 -1.06028 -2.56229 0
M  V30 640 H 64.2192 -1.01183 -1.22261 0
M  V30 641 H 64.2402 -0.145876 -3.8022 0
M  V30 642 H 63.7522 -1.91945 -3.37311 0
M  V30 643 H 61.8532 0.526034 -3.68868 0
M  V30 644 H 61.9662 -1.08453 -4.66663 0
M  V30 645 H 60.3302 -0.481892 -2.501 0
M  V30 646 H 61.1132 -2.14352 -2.68157 0
M  V30 647 N 63.5583 1.46682 -0.576371 0
M  V30 648 C 64.5063 2.31953 0.17335 0
M  V30 649 C 65.5003 1.44098 0.89062 0
M  V30 650 O 66.7063 1.60759 0.809728 0
M  V30 651 H 63.0813 0.748273 0.0747727 0
M  V30 652 H 65.0523 2.93007 -0.564738 0
M  V30 653 C 63.8013 3.27142 1.17786 0
M  V30 654 H 63.1243 3.94719 0.635361 0
M  V30 655 H 64.5643 3.896 1.67296 0
M  V30 656 C 63.0233 2.52036 2.23561 0
M  V30 657 O 63.5533 2.27877 3.3081 0
M  V30 658 N 61.7593 2.12709 1.97998 0
M  V30 659 H 61.3063 2.32557 1.10792 0
M  V30 660 H 61.2643 1.62776 2.68982 0
M  V30 661 N 65.0364 0.313813 1.54444 0
M  V30 662 C 65.9694 -0.598866 2.20202 0
M  V30 663 C 66.9474 -1.12318 1.17573 0
M  V30 664 O 68.1314 -1.18899 1.46271 0
M  V30 665 C 65.2584 -1.82071 2.85601 0
M  V30 666 C 64.3044 -1.42851 4.01865 0
M  V30 667 S 65.1374 -0.473512 5.33402 0
M  V30 668 C 66.2934 -1.70286 6.0229 0
M  V30 669 H 66.5264 -0.0402532 2.97273 0
M  V30 670 H 64.0594 0.0979165 1.54089 0
M  V30 671 H 66.0174 -2.52184 3.23904 0
M  V30 672 H 64.6784 -2.3505 2.08351 0
M  V30 673 H 63.8714 -2.33871 4.46453 0
M  V30 674 H 63.4734 -0.807198 3.65185 0
M  V30 675 H 65.7654 -2.64168 6.23876 0
M  V30 676 H 66.7084 -1.29932 6.96077 0
M  V30 677 H 67.1164 -1.88541 5.32083 0
M  V30 678 N 66.5145 -1.57545 0.0417849 0
M  V30 679 C 67.7615 -1.92317 -0.634082 0
M  V30 680 C 68.0895 -0.919334 -1.71402 0
M  V30 681 O 67.3445 0.0698253 -1.95575 0
M  V30 682 C 67.6435 -3.33794 -1.27735 0
M  V30 683 C 67.3095 -4.49716 -0.326543 0
M  V30 684 C 65.9715 -4.81156 -0.0648814 0
M  V30 685 C 68.3235 -5.20182 0.325623 0
M  V30 686 C 65.6515 -5.80414 0.856539 0
M  V30 687 C 68.0035 -6.20424 1.23518 0
M  V30 688 C 66.6675 -6.50298 1.5056 0
M  V30 689 H 65.9375 -0.703736 -0.232027 0
M  V30 690 H 68.5845 -1.91205 0.106259 0
M  V30 691 H 66.8895 -3.31228 -2.09274 0
M  V30 692 H 68.5865 -3.57975 -1.80707 0
M  V30 693 H 65.1765 -4.25176 -0.540665 0
M  V30 694 H 69.3605 -4.96112 0.136546 0
M  V30 695 H 64.6165 -6.019 1.07363 0
M  V30 696 H 68.7905 -6.74141 1.74664 0
M  V30 697 H 66.4175 -7.27025 2.22123 0
M  V30 698 N 67.9926 0.231505 -1.5589 0
M  V30 699 C 69.4036 0.799327 -1.68724 0
M  V30 700 C 69.7546 1.85398 -0.642022 0
M  V30 701 O 68.8796 2.1539 0.208784 0
M  V30 702 C 69.4746 1.45664 -3.05888 0
M  V30 703 C 68.0336 1.97197 -3.20609 0
M  V30 704 C 67.1806 0.828552 -2.64632 0
M  V30 705 H 70.1316 0.00702616 -1.58698 0
M  V30 706 H 70.1526 2.32517 -3.01191 0
M  V30 707 H 69.6646 0.688808 -3.81939 0
M  V30 708 H 67.7656 2.76813 -2.4941 0
M  V30 709 H 67.8786 2.15878 -4.27707 0
M  V30 710 H 66.2426 1.23321 -2.22854 0
M  V30 711 H 67.0256 0.0735544 -3.43221 0
M  V30 712 N 69.4707 1.49531 0.497807 0
M  V30 713 C 70.7177 1.59179 1.25173 0
M  V30 714 C 71.0457 0.279932 1.92475 0
M  V30 715 O 70.3007 -0.732383 1.81479 0
M  V30 716 C 70.5997 2.70252 2.33878 0
M  V30 717 C 70.2657 4.11644 1.84012 0
M  V30 718 C 68.9277 4.50121 1.70132 0
M  V30 719 C 71.2797 5.00121 1.46725 0
M  V30 720 C 68.6077 5.74845 1.17348 0
M  V30 721 C 70.9597 6.25366 0.95392 0
M  V30 722 C 69.6237 6.6267 0.801538 0
M  V30 723 H 68.8937 0.582478 0.45804 0
M  V30 724 H 71.5407 1.83373 0.551948 0
M  V30 725 H 69.8457 2.40041 3.09657 0
M  V30 726 H 71.5427 2.74925 2.9192 0
M  V30 727 H 68.1327 3.81274 1.95775 0
M  V30 728 H 72.3167 4.71048 1.56294 0
M  V30 729 H 67.5727 6.02444 1.04264 0
M  V30 730 H 71.7467 6.93301 0.656225 0
M  V30 731 H 69.3737 7.59197 0.390351 0
M  V30 732 N 70.9488 -0.749086 1.3866 0
M  V30 733 C 71.8958 -1.86291 1.36251 0
M  V30 734 C 72.8658 -1.64578 0.224347 0
M  V30 735 O 74.0508 -1.86181 0.417279 0
M  V30 736 C 71.1908 -3.23644 1.19786 0
M  V30 737 C 70.3038 -3.57158 2.43027 0
M  V30 738 C 69.4388 -4.83838 2.19258 0
M  V30 739 C 68.4778 -5.10152 3.38247 0
M  V30 740 N 67.6148 -6.28029 3.13884 0
M  V30 741 H 72.4548 -1.87685 2.3147 0
M  V30 742 H 69.9918 -0.917287 1.14997 0
M  V30 743 H 71.9498 -4.0291 1.08254 0
M  V30 744 H 70.5798 -3.21566 0.282031 0
M  V30 745 H 69.6318 -2.72701 2.65214 0
M  V30 746 H 70.9438 -3.7253 3.31697 0
M  V30 747 H 70.0978 -5.71057 2.04888 0
M  V30 748 H 68.8368 -4.70614 1.2796 0
M  V30 749 H 67.8418 -4.21401 3.53131 0
M  V30 750 H 69.0668 -5.25271 4.30427 0
M  V30 751 H 67.0128 -6.1612 2.25238 0
M  V30 752 H 66.9298 -6.43922 3.96106 0
M  V30 753 H 68.1978 -7.18124 3.03179 0
M  V30 754 N 72.4269 -1.23603 -0.977757 0
M  V30 755 C 73.6549 -1.09646 -1.75458 0
M  V30 756 C 74.0699 0.351859 -1.85492 0
M  V30 757 O 73.4269 1.24327 -1.336 0
M  V30 758 C 73.4779 -1.71895 -3.18016 0
M  V30 759 O 73.1989 -3.11063 -3.08498 0
M  V30 760 C 74.6999 -1.63415 -4.12081 0
M  V30 761 H 71.9199 -0.38359 -0.550545 0
M  V30 762 H 74.4639 -1.63507 -1.22824 0
M  V30 763 H 72.6189 -1.22061 -3.67668 0
M  V30 764 H 73.0329 -3.41305 -3.9826 0
M  V30 765 H 74.5069 -2.11669 -5.09804 0
M  V30 766 H 74.9839 -0.593462 -4.35172 0
M  V30 767 H 75.5899 -2.12628 -3.68334 0
M  V30 768 N 73.905 1.17692 -1.04816 0
M  V30 769 C 74.868 2.19787 -0.650117 0
M  V30 770 C 75.868 1.58044 0.296427 0
M  V30 771 O 77.058 1.74012 0.0808097 0
M  V30 772 C 74.19 3.40869 0.0456987 0
M  V30 773 H 75.383 2.56516 -1.5537 0
M  V30 774 H 72.936 1.31708 -0.841594 0
M  V30 775 H 73.671 3.09681 0.962726 0
M  V30 776 H 73.456 3.86928 -0.634727 0
M  V30 777 H 74.946 4.16445 0.310432 0
M  V30 778 N 75.3831 0.828654 1.34056 0
M  V30 779 C 76.6291 0.42008 1.98402 0
M  V30 780 C 76.9621 -1.01564 1.65525 0
M  V30 781 O 76.2371 -1.70834 0.929831 0
M  V30 782 C 76.5201 0.62927 3.54559 0
M  V30 783 C 76.3731 2.11152 3.97159 0
M  V30 784 C 77.6921 0.0688756 4.40046 0
M  V30 785 H 74.8111 0.154104 0.720709 0
M  V30 786 H 77.4531 1.04228 1.5886 0
M  V30 787 H 75.6031 0.0996418 3.88372 0
M  V30 788 H 77.2751 2.70522 3.73651 0
M  V30 789 H 75.5181 2.59985 3.47261 0
M  V30 790 H 76.1891 2.20868 5.05887 0
M  V30 791 H 78.6651 0.521458 4.1282 0
M  V30 792 H 77.5411 0.245006 5.48353 0
M  V30 793 H 77.8021 -1.0266 4.30015 0
M  V30 794 N 76.8612 -1.46375 0.584142 0
M  V30 795 C 78.1102 -2.01585 0.0679741 0
M  V30 796 C 78.4232 -1.46109 -1.30045 0
M  V30 797 O 79.6292 -1.93148 -1.90804 0
M  V30 798 C 78.0852 -3.5983 0.0709207 0
M  V30 799 C 77.6932 -4.24303 1.43775 0
M  V30 800 C 79.4372 -4.22693 -0.391228 0
M  V30 801 C 77.3442 -5.74631 1.39834 0
M  V30 802 H 76.2742 -0.753689 0.0216421 0
M  V30 803 H 78.9252 -1.68093 0.736001 0
M  V30 804 H 77.3072 -3.90405 -0.663299 0
M  V30 805 H 78.4812 -4.05335 2.19181 0
M  V30 806 H 76.7962 -3.73539 1.84004 0
M  V30 807 H 79.3932 -5.3289 -0.439524 0
M  V30 808 H 79.7362 -3.91728 -1.40906 0
M  V30 809 H 80.2692 -3.96749 0.288974 0
M  V30 810 H 77.0082 -6.10258 2.39303 0
M  V30 811 H 76.5282 -5.95858 0.686505 0
M  V30 812 H 78.2072 -6.37375 1.11187 0
M  V30 813 N 78.3393 -0.321999 -1.54275 0
M  V30 814 C 79.5673 0.283052 -2.04955 0
M  V30 815 C 79.9823 1.45904 -1.19823 0
M  V30 816 O 79.3393 1.81063 -0.228545 0
M  V30 817 C 79.3903 0.719028 -3.54277 0
M  V30 818 O 79.1113 -0.410175 -4.36176 0
M  V30 819 C 80.6123 1.38705 -4.21041 0
M  V30 820 H 77.8323 0.0584616 -0.668448 0
M  V30 821 H 80.3763 -0.467734 -1.99079 0
M  V30 822 H 78.5313 1.41979 -3.60445 0
M  V30 823 H 78.9453 -0.0669416 -5.24457 0
M  V30 824 H 80.4193 1.64306 -5.2698 0
M  V30 825 H 80.8963 2.33385 -3.72059 0
M  V30 826 H 81.5023 0.728906 -4.19007 0
M  V30 827 N 79.8174 1.5752 -0.0501392 0
M  V30 828 C 81.0634 1.92936 0.624798 0
M  V30 829 C 81.3964 0.928685 1.70555 0
M  V30 830 O 80.6714 -0.0454779 1.94447 0
M  V30 831 C 80.9544 3.38737 1.22185 0
M  V30 832 C 80.8074 4.49552 0.149218 0
M  V30 833 C 82.1264 3.84913 2.13378 0
M  V30 834 H 79.2454 0.701604 0.225657 0
M  V30 835 H 81.8874 1.89671 -0.111693 0
M  V30 836 H 80.0374 3.4165 1.84953 0
M  V30 837 H 81.7094 4.58768 -0.482648 0
M  V30 838 H 79.9524 4.30638 -0.522841 0
M  V30 839 H 80.6234 5.48653 0.606966 0
M  V30 840 H 83.0994 3.8387 1.60572 0
M  V30 841 H 81.9754 4.87584 2.52097 0
M  V30 842 H 82.2364 3.21611 3.03346 0
M  V30 843 N 81.2955 -0.223234 1.56011 0
M  V30 844 C 82.2055 -1.29766 1.95443 0
M  V30 845 C 83.2215 -1.51373 0.858028 0
M  V30 846 O 84.3975 -1.64536 1.16146 0
M  V30 847 C 81.4625 -2.62772 2.26167 0
M  V30 848 C 80.5235 -2.49482 3.49367 0
M  V30 849 C 79.7565 -3.76145 3.78616 0
M  V30 850 O 79.9795 -4.79087 3.09568 0
M  V30 851 O 78.9135 -3.73358 4.72109 0
M  V30 852 H 82.7395 -0.99309 2.87004 0
M  V30 853 H 80.3245 -0.425958 1.43199 0
M  V30 854 H 82.2065 -3.41327 2.47131 0
M  V30 855 H 80.8815 -2.92913 1.37781 0
M  V30 856 H 79.7885 -1.69133 3.33684 0
M  V30 857 H 81.1215 -2.2428 4.38131 0
M  V30 858 N 82.7736 -1.49793 -0.48987 0
M  V30 859 C 83.7216 -1.67783 -1.61095 0
M  V30 860 C 84.7156 -0.543683 -1.60438 0
M  V30 861 O 85.9216 -0.723647 -1.64813 0
M  V30 862 H 82.2966 -0.529255 -0.534222 0
M  V30 863 H 84.2676 -2.61861 -1.43078 0
M  V30 864 C 83.0166 -1.77191 -2.99164 0
M  V30 865 H 82.3396 -2.63841 -3.0038 0
M  V30 866 H 83.7796 -1.93809 -3.77113 0
M  V30 867 C 82.2386 -0.519203 -3.32875 0
M  V30 868 O 82.7686 0.350124 -4.00171 0
M  V30 869 N 80.9746 -0.378816 -2.8812 0
M  V30 870 H 80.5216 -1.08725 -2.33531 0
M  V30 871 H 80.4796 0.458239 -3.11043 0
M  V30 872 N 84.2517 0.741722 -1.39055 0
M  V30 873 C 85.4997 1.49818 -1.35643 0
M  V30 874 C 85.8207 1.94938 0.0491642 0
M  V30 875 O 85.0907 1.68505 0.999141 0
M  V30 876 H 83.6707 0.555755 -0.499144 0
M  V30 877 H 86.3327 0.880957 -1.73854 0
M  V30 878 H 85.4287 2.38348 -2.01486 0
M  V30 879 N 85.7298 1.2412 0.971189 0
M  V30 880 C 86.6768 1.0305 2.06517 0
M  V30 881 C 87.6468 -0.0550666 1.66009 0
M  V30 882 O 88.8318 0.0988688 1.90544 0
M  V30 883 C 85.9718 0.637653 3.39158 0
M  V30 884 C 85.0848 1.79633 3.92882 0
M  V30 885 C 84.2198 1.34939 5.13775 0
M  V30 886 C 83.2588 2.47823 5.59687 0
M  V30 887 N 82.3958 2.04022 6.71803 0
M  V30 888 H 87.2358 1.96685 2.23873 0
M  V30 889 H 84.7728 0.979694 1.09729 0
M  V30 890 H 86.7308 0.390931 4.15364 0
M  V30 891 H 85.3608 -0.261693 3.21737 0
M  V30 892 H 84.4128 2.15681 3.13346 0
M  V30 893 H 85.7248 2.64466 4.22918 0
M  V30 894 H 84.8788 1.06134 5.97345 0
M  V30 895 H 83.6178 0.471557 4.85415 0
M  V30 896 H 82.6228 2.77392 4.74693 0
M  V30 897 H 83.8478 3.36158 5.90063 0
M  V30 898 H 81.7938 1.18632 6.45184 0
M  V30 899 H 81.7108 2.82409 7.01271 0
M  V30 900 H 82.9788 1.78347 7.58823 0
M  V30 901 N 87.2079 -1.17134 1.05439 0
M  V30 902 C 88.4359 -1.91372 0.786414 0
M  V30 903 C 88.8509 -1.76955 -0.658202 0
M  V30 904 O 88.2079 -1.10838 -1.44987 0
M  V30 905 C 88.2589 -3.42356 1.1608 0
M  V30 906 O 87.9799 -3.56332 2.54871 0
M  V30 907 C 89.4809 -4.33663 0.919322 0
M  V30 908 H 86.7009 -0.607118 0.285743 0
M  V30 909 H 89.2449 -1.48525 1.40572 0
M  V30 910 H 87.3999 -3.82939 0.586191 0
M  V30 911 H 87.8139 -4.49896 2.69618 0
M  V30 912 H 89.2879 -5.38099 1.231 0
M  V30 913 H 89.7649 -4.38959 -0.145359 0
M  V30 914 H 90.3709 -3.98796 1.47789 0
M  V30 915 N 88.686 -0.835752 -1.33615 0
M  V30 916 C 89.935 -0.426289 -1.97144 0
M  V30 917 C 90.248 1.01912 -1.66953 0
M  V30 918 O 91.454 1.53311 -2.24072 0
M  V30 919 C 89.91 -0.711321 -3.52801 0
M  V30 920 C 89.518 -2.1712 -3.91871 0
M  V30 921 C 91.262 -0.368654 -4.22896 0
M  V30 922 C 89.169 -2.40044 -5.40493 0
M  V30 923 H 88.099 -0.15567 -0.737755 0
M  V30 924 H 90.75 -1.0239 -1.52278 0
M  V30 925 H 89.132 -0.0433766 -3.95976 0
M  V30 926 H 90.306 -2.87936 -3.59763 0
M  V30 927 H 88.621 -2.47654 -3.34749 0
M  V30 928 H 91.218 -0.517601 -5.32189 0
M  V30 929 H 91.561 0.688078 -4.10574 0
M  V30 930 H 92.094 -0.991702 -3.8524 0
M  V30 931 H 88.833 -3.44271 -5.57815 0
M  V30 932 H 88.353 -1.73785 -5.74072 0
M  V30 933 H 90.032 -2.23042 -6.0734 0
M  V30 934 N 90.1641 1.46063 -0.591896 0
M  V30 935 C 91.0961 2.28539 0.174001 0
M  V30 936 C 92.1091 1.39047 0.846753 0
M  V30 937 O 93.2981 1.63564 0.714774 0
M  V30 938 C 90.3981 3.14347 1.26645 0
M  V30 939 C 89.5711 4.32021 0.683856 0
M  V30 940 C 88.6301 4.99157 1.66518 0
M  V30 941 O 87.6561 5.56458 1.19763 0
M  V30 942 N 88.8581 4.97005 2.99943 0
M  V30 943 H 91.6231 2.94911 -0.533633 0
M  V30 944 H 89.1841 1.56077 -0.430294 0
M  V30 945 H 91.1761 3.56125 1.92242 0
M  V30 946 H 89.7461 2.49988 1.87682 0
M  V30 947 H 88.9661 3.93915 -0.1498 0
M  V30 948 H 90.2541 5.08059 0.274567 0
M  V30 949 H 89.6521 4.51714 3.40545 0
M  V30 950 H 88.2091 5.42696 3.61004 0
M  V30 951 N 91.6422 0.330177 1.54103 0
M  V30 952 C 92.8892 -0.270405 2.00686 0
M  V30 953 C 93.2172 -1.51621 1.21825 0
M  V30 954 O 92.4722 -1.93536 0.29025 0
M  V30 955 C 92.7712 -0.643134 3.51566 0
M  V30 956 C 92.4372 0.504251 4.48072 0
M  V30 957 C 91.0992 0.819163 4.74176 0
M  V30 958 C 93.4512 1.27465 5.05373 0
M  V30 959 C 90.7792 1.90708 5.5484 0
M  V30 960 C 93.1312 2.35271 5.87223 0
M  V30 961 C 91.7952 2.67336 6.11627 0
M  V30 962 H 91.0652 -0.0989482 0.734364 0
M  V30 963 H 93.7122 0.455324 1.86008 0
M  V30 964 H 92.0172 -1.44938 3.64006 0
M  V30 965 H 93.7142 -1.11949 3.85056 0
M  V30 966 H 90.3042 0.248733 4.27878 0
M  V30 967 H 94.4882 1.04462 4.85182 0
M  V30 968 H 89.7442 2.15991 5.71977 0
M  V30 969 H 93.9182 2.95405 6.30641 0
M  V30 970 H 91.5452 3.51763 6.73919 0
M  V30 971 N 93.1203 -1.57491 0.0584922 0
M  V30 972 C 94.3683 -1.92597 -0.612436 0
M  V30 973 C 94.6893 -0.938162 -1.70949 0
M  V30 974 O 93.9593 0.0158301 -1.95894 0
M  V30 975 H 92.5393 -0.710964 -0.229214 0
M  V30 976 H 95.2013 -1.94571 0.113218 0
M  V30 977 H 94.2973 -2.94038 -1.04633 0
M  V30 978 N 94.5984 0.214957 -1.56127 0
M  V30 979 C 95.5084 1.28727 -1.96129 0
M  V30 980 C 96.5244 1.50916 -0.866044 0
M  V30 981 O 97.7004 1.63918 -1.17016 0
M  V30 982 C 94.7654 2.61569 -2.27558 0
M  V30 983 C 93.8264 2.47625 -3.50685 0
M  V30 984 C 93.0594 3.74132 -3.80606 0
M  V30 985 O 93.2824 4.77438 -3.12104 0
M  V30 986 O 92.2164 3.70849 -4.74083 0
M  V30 987 H 96.0424 0.977855 -2.87527 0
M  V30 988 H 93.6274 0.418358 -1.43423 0
M  V30 989 H 95.5094 3.40012 -2.48938 0
M  V30 990 H 94.1844 2.92178 -1.39332 0
M  V30 991 H 93.0914 1.67361 -3.34576 0
M  V30 992 H 94.4244 2.21954 -4.39315 0
M  V30 993 N 96.0765 1.50051 0.48192 0
M  V30 994 C 96.9865 1.7089 1.60728 0
M  V30 995 C 98.0025 0.591788 1.63627 0
M  V30 996 O 99.1785 0.868817 1.81696 0
M  V30 997 C 96.2435 1.78855 2.97005 0
M  V30 998 C 95.3045 3.02537 3.04581 0
M  V30 999 C 94.5375 3.10112 4.34357 0
M  V30 1000 O 94.7605 2.24765 5.24249 0
M  V30 1001 O 93.6945 4.02747 4.47301 0
M  V30 1002 H 97.5205 2.66264 1.46072 0
M  V30 1003 H 95.1055 1.34018 0.660264 0
M  V30 1004 H 96.9875 1.86336 3.77964 0
M  V30 1005 H 95.6625 0.866628 3.11883 0
M  V30 1006 H 94.5695 3.00563 2.22739 0
M  V30 1007 H 95.9025 3.94272 2.94636 0
M  V30 1008 N 97.5546 -0.734337 1.39446 0
M  V30 1009 C 98.4876 -1.85715 1.32609 0
M  V30 1010 C 99.4656 -1.6137 0.199636 0
M  V30 1011 O 100.65 -1.84626 0.380195 0
M  V30 1012 C 97.7766 -3.21709 1.05929 0
M  V30 1013 C 96.8226 -3.64913 2.20773 0
M  V30 1014 S 97.6556 -3.74203 3.83056 0
M  V30 1015 C 98.8116 -5.12986 3.58603 0
M  V30 1016 H 99.0446 -1.91232 2.27635 0
M  V30 1017 H 96.5776 -0.899263 1.25509 0
M  V30 1018 H 98.5356 -4.00236 0.912203 0
M  V30 1019 H 97.1966 -3.13848 0.125883 0
M  V30 1020 H 96.3896 -4.63606 1.97699 0
M  V30 1021 H 95.9916 -2.93593 2.31688 0
M  V30 1022 H 98.2836 -5.99339 3.15909 0
M  V30 1023 H 99.2266 -5.41088 4.5676 0
M  V30 1024 H 99.6346 -4.82694 2.9269 0
M  V30 1025 N 99.0327 -1.24633 -0.964593 0
M  V30 1026 C 99.9657 -0.984662 -2.05863 0
M  V30 1027 C 100.944 0.0826554 -1.6239 0
M  V30 1028 O 102.128 -0.0549296 -1.8842 0
M  V30 1029 C 99.2547 -0.486529 -3.35187 0
M  V30 1030 C 98.3007 -1.54286 -3.97615 0
M  V30 1031 S 99.1337 -3.12513 -4.34851 0
M  V30 1032 C 100.29 -2.6441 -5.67308 0
M  V30 1033 H 100.523 -1.91104 -2.27743 0
M  V30 1034 H 98.0557 -1.08052 -1.10291 0
M  V30 1035 H 100.014 -0.205757 -4.09984 0
M  V30 1036 H 98.6747 0.419186 -3.1129 0
M  V30 1037 H 97.8677 -1.14481 -4.90826 0
M  V30 1038 H 97.4697 -1.7738 -3.2926 0
M  V30 1039 H 99.7617 -2.07416 -6.44969 0
M  V30 1040 H 100.705 -3.56222 -6.11973 0
M  V30 1041 H 101.113 -2.04734 -5.26065 0
M  V30 1042 N 100.511 1.16574 -1.06058 0
M  V30 1043 C 101.458 2.20883 -0.669263 0
M  V30 1044 C 102.428 1.62729 0.332918 0
M  V30 1045 O 103.613 1.895 0.222346 0
M  V30 1046 C 100.753 3.45049 -0.0593572 0
M  V30 1047 C 99.8658 4.17458 -1.11143 0
M  V30 1048 C 99.0008 5.29135 -0.467916 0
M  V30 1049 C 98.0398 5.93343 -1.50369 0
M  V30 1050 N 97.1768 6.96516 -0.883706 0
M  V30 1051 H 102.017 2.53709 -1.5632 0
M  V30 1052 H 99.5538 1.24616 -0.781625 0
M  V30 1053 H 101.512 4.16033 0.311771 0
M  V30 1054 H 100.142 3.12781 0.797992 0
M  V30 1055 H 99.1938 3.45101 -1.60029 0
M  V30 1056 H 100.506 4.61307 -1.89731 0
M  V30 1057 H 99.6598 6.06684 -0.0436871 0
M  V30 1058 H 98.3988 4.86443 0.349864 0
M  V30 1059 H 97.4038 5.14517 -1.93784 0
M  V30 1060 H 98.6288 6.38114 -2.32352 0
M  V30 1061 H 96.5748 6.55943 -0.086595 0
M  V30 1062 H 96.4918 7.38723 -1.607 0
M  V30 1063 H 97.7598 7.77993 -0.484543 0
M  V30 1064 N 101.989 0.842826 1.3317 0
M  V30 1065 C 103.405 0.531128 1.50503 0
M  V30 1066 C 103.605 -0.940734 1.78192 0
M  V30 1067 O 102.661 -1.72436 1.84451 0
M  V30 1068 C 103.974 1.40789 2.65705 0
M  V30 1069 C 105.522 1.40708 2.79589 0
M  V30 1070 C 105.997 2.26878 3.97857 0
M  V30 1071 N 107.488 2.24609 4.05099 0
M  V30 1072 C 108.223 2.88019 4.95815 0
M  V30 1073 N 107.719 3.60496 5.9162 0
M  V30 1074 N 109.512 2.77469 4.88843 0
M  V30 1075 H 101.663 1.79557 1.1346 0
M  V30 1076 H 103.926 0.766267 0.558156 0
M  V30 1077 H 103.632 2.454 2.51936 0
M  V30 1078 H 103.506 1.08677 3.61205 0
M  V30 1079 H 105.893 0.368668 2.92788 0
M  V30 1080 H 105.974 1.76829 1.84838 0
M  V30 1081 H 105.618 3.3078 3.85418 0
M  V30 1082 H 105.548 1.88096 4.91861 0
M  V30 1083 H 108.039 1.71906 3.36536 0
M  V30 1084 H 108.352 4.06076 6.57512 0
M  V30 1085 H 106.697 3.64604 5.91683 0
M  V30 1086 H 109.888 2.20406 4.12963 0
M  V30 1087 H 110.061 3.2717 5.59342 0
M  V30 1088 N 103.467 -1.45747 0.599634 0
M  V30 1089 C 104.43 -2.28917 -0.113835 0
M  V30 1090 C 105.43 -1.3933 -0.802729 0
M  V30 1091 O 106.62 -1.61534 -0.652103 0
M  V30 1092 C 103.752 -3.20152 -1.17114 0
M  V30 1093 H 104.945 -2.93478 0.617289 0
M  V30 1094 H 102.498 -1.52137 0.358327 0
M  V30 1095 H 103.233 -2.60374 -1.93329 0
M  V30 1096 H 103.018 -3.86133 -0.681468 0
M  V30 1097 H 104.508 -3.82708 -1.67105 0
M  V30 1098 N 104.945 -0.338344 -1.53925 0
M  V30 1099 C 105.875 0.51328 -2.27789 0
M  V30 1100 C 106.856 1.107 -1.29149 0
M  V30 1101 O 108.041 1.12937 -1.57984 0
M  V30 1102 C 105.171 1.66697 -3.04679 0
M  V30 1103 C 104.125 1.20183 -4.1078 0
M  V30 1104 C 103.451 2.44363 -4.75595 0
M  V30 1105 C 104.751 0.30605 -5.21403 0
M  V30 1106 H 106.445 -0.102883 -2.99223 0
M  V30 1107 H 103.991 -0.0509219 -1.4391 0
M  V30 1108 H 105.944 2.26915 -3.55088 0
M  V30 1109 H 104.668 2.30995 -2.30887 0
M  V30 1110 H 103.327 0.622499 -3.61276 0
M  V30 1111 H 102.975 3.07057 -3.98403 0
M  V30 1112 H 102.675 2.13925 -5.47275 0
M  V30 1113 H 104.199 3.05317 -5.28786 0
M  V30 1114 H 105.613 0.814929 -5.67478 0
M  V30 1115 H 104.01 0.0937929 -6.00027 0
M  V30 1116 H 105.08 -0.65921 -4.80398 0
M  V30 1117 N 106.423 1.57458 -0.0668435 0
M  V30 1118 C 107.355 2.09413 0.931601 0
M  V30 1119 C 108.368 1.02522 1.26464 0
M  V30 1120 O 109.557 1.30049 1.22269 0
M  V30 1121 C 106.657 2.53537 2.24882 0
M  V30 1122 C 105.83 3.83944 2.09537 0
M  V30 1123 C 104.889 4.14214 3.2452 0
M  V30 1124 O 103.915 4.83891 2.9973 0
M  V30 1125 N 105.117 3.67367 4.49469 0
M  V30 1126 H 107.882 2.95699 0.488048 0
M  V30 1127 H 105.443 1.61462 0.119009 0
M  V30 1128 H 107.435 2.70853 3.00701 0
M  V30 1129 H 106.005 1.72415 2.60753 0
M  V30 1130 H 105.225 3.76057 1.18215 0
M  V30 1131 H 106.513 4.69312 1.96529 0
M  V30 1132 H 105.911 3.11068 4.72497 0
M  V30 1133 H 104.468 3.89891 5.2233 0
M  V30 1134 N 107.901 -0.206675 1.56239 0
M  V30 1135 C 109.131 -0.943975 1.83773 0
M  V30 1136 C 109.539 -1.77841 0.645703 0
M  V30 1137 O 108.882 -1.79403 -0.395008 0
M  V30 1138 C 108.944 -1.899 3.05251 0
M  V30 1139 C 108.608 -1.24764 4.39639 0
M  V30 1140 C 109.605 -0.630216 5.16066 0
M  V30 1141 C 107.29 -1.25496 4.8637 0
M  V30 1142 C 109.284 -0.0287946 6.37393 0
M  V30 1143 C 106.971 -0.649698 6.07637 0
M  V30 1144 C 107.969 -0.0376845 6.8299 0
M  V30 1145 O 107.657 0.55812 8.0196 0
M  V30 1146 H 107.389 -0.281508 0.614597 0
M  V30 1147 H 109.943 -0.222458 2.04192 0
M  V30 1148 H 108.173 -2.6599 2.80689 0
M  V30 1149 H 109.862 -2.5031 3.1953 0
M  V30 1150 H 110.628 -0.616785 4.81062 0
M  V30 1151 H 106.507 -1.72072 4.27683 0
M  V30 1152 H 110.051 0.449518 6.9615 0
M  V30 1153 H 105.948 -0.660592 6.42111 0
M  V30 1154 H 106.716 0.453891 8.17241 0
M  V30 1155 N 109.379 -1.50304 -0.473955 0
M  V30 1156 C 110.604 -1.65175 -1.25427 0
M  V30 1157 C 111.029 -0.333673 -1.85117 0
M  V30 1158 O 110.387 0.702114 -1.67153 0
M  V30 1159 C 110.435 -2.74295 -2.34082 0
M  V30 1160 O 109.539 -2.35349 -3.38651 0
M  V30 1161 H 108.88 -0.551944 -0.369126 0
M  V30 1162 H 111.41 -1.96662 -0.564364 0
M  V30 1163 H 111.42 -2.97285 -2.79438 0
M  V30 1164 H 110.095 -3.69959 -1.90008 0
M  V30 1165 H 108.672 -2.22794 -2.99027 0
M  V30 1166 N 110.857 0.726932 -1.39834 0
M  V30 1167 C 112.268 1.30558 -1.3346 0
M  V30 1168 C 112.619 1.962 -0.00273003 0
M  V30 1169 O 111.744 1.96826 0.899371 0
M  V30 1170 C 112.339 2.37404 -2.41713 0
M  V30 1171 C 110.898 2.90921 -2.38835 0
M  V30 1172 C 110.045 1.64578 -2.2318 0
M  V30 1173 H 112.996 0.523862 -1.49804 0
M  V30 1174 H 113.017 3.17984 -2.08966 0
M  V30 1175 H 112.529 1.89599 -3.38635 0
M  V30 1176 H 110.63 3.42985 -1.45575 0
M  V30 1177 H 110.743 3.43487 -3.33997 0
M  V30 1178 H 109.107 1.89219 -1.70494 0
M  V30 1179 H 109.89 1.18814 -3.22084 0
M  V30 1180 N 112.336 1.25143 0.95797 0
M  V30 1181 C 113.561 1.12521 1.74223 0
M  V30 1182 C 113.986 -0.317402 1.85403 0
M  V30 1183 O 113.344 -1.2299 1.33204 0
M  V30 1184 C 113.392 1.78062 3.1357 0
M  V30 1185 O 112.496 1.058 3.98598 0
M  V30 1186 H 111.837 0.39304 0.535178 0
M  V30 1187 H 114.367 1.65641 1.201 0
M  V30 1188 H 114.377 1.84213 3.64046 0
M  V30 1189 H 113.052 2.83021 3.04749 0
M  V30 1190 H 111.629 1.07506 3.57067 0
M  V30 1191 N 113.814 -1.1601 1.06675 0
M  V30 1192 C 114.777 -2.18724 0.685001 0
M  V30 1193 C 115.777 -1.58496 -0.271246 0
M  V30 1194 O 116.967 -1.74119 -0.0531156 0
M  V30 1195 C 114.099 -3.40899 0.00853648 0
M  V30 1196 H 115.292 -2.54011 1.59431 0
M  V30 1197 H 112.845 -1.30352 0.862441 0
M  V30 1198 H 113.58 -3.11173 -0.913337 0
M  V30 1199 H 113.365 -3.8587 0.696204 0
M  V30 1200 H 114.855 -4.16886 -0.24414 0
M  V30 1201 N 115.292 -0.849877 -1.32721 0
M  V30 1202 C 116.54 -0.450032 -1.97026 0
M  V30 1203 C 116.861 0.996604 -1.67609 0
M  V30 1204 O 116.131 1.6958 -0.980786 0
M  V30 1205 H 114.711 -0.163426 -0.728904 0
M  V30 1206 H 117.373 -1.08526 -1.6189 0
M  V30 1207 H 116.469 -0.591146 -3.0645 0
M  V30 1208 N 116.77 1.45427 -0.607355 0
M  V30 1209 C 118.019 2.01452 -0.100036 0
M  V30 1210 C 118.332 1.48159 1.27704 0
M  V30 1211 O 119.538 1.96159 1.87707 0
M  V30 1212 C 117.994 3.59672 -0.128158 0
M  V30 1213 C 117.602 4.21962 -1.50507 0
M  V30 1214 C 119.346 4.23262 0.323932 0
M  V30 1215 C 117.253 5.72333 -1.48959 0
M  V30 1216 H 116.183 0.75325 -0.0336299 0
M  V30 1217 H 118.834 1.66901 -0.76265 0
M  V30 1218 H 117.216 3.91411 0.601105 0
M  V30 1219 H 118.39 4.01796 -2.25602 0
M  V30 1220 H 116.705 3.70565 -1.89923 0
M  V30 1221 H 119.302 5.33522 0.354691 0
M  V30 1222 H 119.645 3.93921 1.34656 0
M  V30 1223 H 120.178 3.96239 -0.352056 0
M  V30 1224 H 116.917 6.06373 -2.48981 0
M  V30 1225 H 116.437 5.94691 -0.781214 0
M  V30 1226 H 118.116 6.35525 -1.21313 0
M  V30 1227 N 118.248 0.346503 1.53744 0
M  V30 1228 C 119.659 -0.136779 1.86198 0
M  V30 1229 C 120.01 -1.49749 1.26766 0
M  V30 1230 O 119.135 -2.08417 0.582355 0
M  V30 1231 C 119.73 -0.254966 3.37839 0
M  V30 1232 C 118.289 -0.682482 3.70161 0
M  V30 1233 C 117.436 0.181981 2.76702 0
M  V30 1234 H 120.387 0.565994 1.48264 0
M  V30 1235 H 120.408 -1.08195 3.64793 0
M  V30 1236 H 119.92 0.735526 3.81066 0
M  V30 1237 H 118.021 -1.68189 3.3248 0
M  V30 1238 H 118.134 -0.470326 4.76786 0
M  V30 1239 H 116.498 -0.34615 2.52337 0
M  V30 1240 H 117.281 1.16966 3.2276 0
M  V30 1241 N 119.726 -1.57421 0.075193 0
M  V30 1242 C 120.636 -2.1642 -0.905511 0
M  V30 1243 C 121.652 -1.12828 -1.32461 0
M  V30 1244 O 122.828 -1.45109 -1.39661 0
M  V30 1245 C 119.893 -2.71693 -2.15369 0
M  V30 1246 C 118.954 -3.90171 -1.79068 0
M  V30 1247 C 118.187 -4.42798 -2.97936 0
M  V30 1248 O 118.41 -3.94416 -4.12058 0
M  V30 1249 O 117.344 -5.34085 -2.77555 0
M  V30 1250 H 121.17 -3.00588 -0.433626 0
M  V30 1251 H 118.755 -1.48664 -0.148067 0
M  V30 1252 H 120.637 -3.07104 -2.88557 0
M  V30 1253 H 119.312 -1.90582 -2.61649 0
M  V30 1254 H 118.219 -3.59606 -1.03122 0
M  V30 1255 H 119.552 -4.72584 -1.37569 0
M  V30 1256 N 121.204 0.198386 -1.56346 0
M  V30 1257 C 122.134 1.24865 -1.9731 0
M  V30 1258 C 123.115 1.47651 -0.844576 0
M  V30 1259 O 124.3 1.59444 -1.10866 0
M  V30 1260 C 121.43 2.59358 -2.30977 0
M  V30 1261 C 120.384 2.5119 -3.46537 0
M  V30 1262 C 119.71 3.89926 -3.65871 0
M  V30 1263 C 121.01 2.03977 -4.80823 0
M  V30 1264 H 122.704 0.908252 -2.85291 0
M  V30 1265 H 120.25 0.435462 -1.37258 0
M  V30 1266 H 122.203 3.33011 -2.58228 0
M  V30 1267 H 120.927 2.95132 -1.39874 0
M  V30 1268 H 119.586 1.79993 -3.19371 0
M  V30 1269 H 119.234 4.23046 -2.72105 0
M  V30 1270 H 118.934 3.85336 -4.4361 0
M  V30 1271 H 120.458 4.65205 -3.95495 0
M  V30 1272 H 121.872 2.67386 -5.07127 0
M  V30 1273 H 120.269 2.10397 -5.62008 0
M  V30 1274 H 121.339 0.992861 -4.74626 0
M  V30 1275 N 122.682 1.50554 0.465978 0
M  V30 1276 C 123.612 1.72722 1.57128 0
M  V30 1277 C 124.593 0.576294 1.6004 0
M  V30 1278 O 125.778 0.81598 1.76225 0
M  V30 1279 C 122.908 1.82605 2.95419 0
M  V30 1280 C 121.862 2.97835 3.07373 0
M  V30 1281 C 121.188 2.92867 4.47363 0
M  V30 1282 C 122.488 4.38265 2.84114 0
M  V30 1283 H 124.182 2.65267 1.38829 0
M  V30 1284 H 121.728 1.2765 0.666441 0
M  V30 1285 H 123.681 1.96698 3.72677 0
M  V30 1286 H 122.405 0.866858 3.14886 0
M  V30 1287 H 121.064 2.83401 2.3255 0
M  V30 1288 H 120.712 1.94783 4.63755 0
M  V30 1289 H 120.412 3.70227 4.56296 0
M  V30 1290 H 121.936 3.09015 5.26633 0
M  V30 1291 H 123.35 4.53198 3.51118 0
M  V30 1292 H 121.747 5.17115 3.04487 0
M  V30 1293 H 122.817 4.50281 1.7993 0
M  V30 1294 N 124.16 -0.719506 1.40217 0
M  V30 1295 C 125.385 -1.51371 1.4178 0
M  V30 1296 C 125.81 -1.88091 0.0182355 0
M  V30 1297 O 125.168 -1.52997 -0.972707 0
M  V30 1298 C 125.216 -2.768 2.31115 0
M  V30 1299 O 124.32 -3.73349 1.7517 0
M  V30 1300 H 123.661 -0.456529 0.482159 0
M  V30 1301 H 126.191 -0.88644 1.844 0
M  V30 1302 H 126.201 -3.25371 2.46167 0
M  V30 1303 H 124.876 -2.49407 3.3282 0
M  V30 1304 H 123.453 -3.32179 1.69444 0
M  V30 1305 N 125.638 -1.25649 -0.95132 0
M  V30 1306 C 126.884 -1.11766 -1.69941 0
M  V30 1307 C 127.239 0.33735 -1.89419 0
M  V30 1308 O 126.532 1.24491 -1.45645 0
M  V30 1309 C 126.726 -1.80909 -3.08231 0
M  V30 1310 C 126.555 -3.32984 -3.02245 0
M  V30 1311 C 125.325 -4.02247 -3.05819 0
M  V30 1312 C 127.523 -4.29332 -2.83157 0
M  V30 1313 N 125.505 -5.41072 -2.90024 0
M  V30 1314 C 126.876 -5.55265 -2.75828 0
M  V30 1315 C 128.931 -4.19707 -2.67863 0
M  V30 1316 C 127.634 -6.72671 -2.54767 0
M  V30 1317 C 129.66 -5.36809 -2.48173 0
M  V30 1318 C 129.022 -6.61683 -2.41567 0
M  V30 1319 H 125.121 -0.463708 -0.629682 0
M  V30 1320 H 127.705 -1.58796 -1.12659 0
M  V30 1321 H 125.876 -1.36369 -3.63673 0
M  V30 1322 H 127.608 -1.59739 -3.71841 0
M  V30 1323 H 124.363 -3.53531 -3.15139 0
M  V30 1324 H 124.787 -6.13938 -2.85323 0
M  V30 1325 H 129.429 -3.23907 -2.71743 0
M  V30 1326 H 127.147 -7.68577 -2.49629 0
M  V30 1327 H 130.733 -5.31224 -2.37259 0
M  V30 1328 H 129.613 -7.50768 -2.26531 0
M  V30 1329 N 127.117 1.15442 -1.07289 0
M  V30 1330 C 128.047 2.22312 -0.714107 0
M  V30 1331 C 129.028 1.67467 0.298155 0
M  V30 1332 O 130.213 1.93445 0.171048 0
M  V30 1333 C 127.343 3.47124 -0.110448 0
M  V30 1334 C 126.297 4.14926 -1.04979 0
M  V30 1335 C 125.623 5.33807 -0.308924 0
M  V30 1336 C 126.923 4.64762 -2.38314 0
M  V30 1337 H 128.617 2.5258 -1.6076 0
M  V30 1338 H 126.163 1.21404 -0.77441 0
M  V30 1339 H 128.116 4.21124 0.152482 0
M  V30 1340 H 126.84 3.16187 0.81812 0
M  V30 1341 H 125.499 3.42866 -1.29764 0
M  V30 1342 H 125.147 4.99126 0.623084 0
M  V30 1343 H 124.847 5.80113 -0.935036 0
M  V30 1344 H 126.371 6.10576 -0.0537771 0
M  V30 1345 H 127.785 5.30292 -2.1786 0
M  V30 1346 H 126.182 5.21728 -2.96514 0
M  V30 1347 H 127.252 3.80434 -3.00663 0
M  V30 1348 N 128.595 0.856903 1.32268 0
M  V30 1349 C 129.542 0.301172 2.28827 0
M  V30 1350 C 130.512 -0.593104 1.5515 0
M  V30 1351 O 131.697 -0.527537 1.83362 0
M  V30 1352 C 128.837 -0.502523 3.41422 0
M  V30 1353 C 127.95 0.417797 4.29975 0
M  V30 1354 C 127.085 -0.398749 5.29701 0
M  V30 1355 C 126.124 0.518827 6.09897 0
M  V30 1356 N 125.261 -0.260674 7.01616 0
M  V30 1357 H 130.101 1.12983 2.75751 0
M  V30 1358 H 127.638 0.568582 1.35667 0
M  V30 1359 H 129.596 -0.984141 4.05426 0
M  V30 1360 H 128.226 -1.29599 2.95642 0
M  V30 1361 H 127.278 1.01781 3.66531 0
M  V30 1362 H 128.59 1.12191 4.86019 0
M  V30 1363 H 127.744 -0.943435 5.9932 0
M  V30 1364 H 126.483 -1.13622 4.7428 0
M  V30 1365 H 125.488 1.07538 5.39181 0
M  V30 1366 H 126.713 1.25495 6.67404 0
M  V30 1367 H 124.659 -0.981198 6.4862 0
M  V30 1368 H 124.576 0.384364 7.55022 0
M  V30 1369 H 125.844 -0.787014 7.75517 0
M  V30 1370 N 130.073 -1.45103 0.615059 0
M  V30 1371 C 131.005 -2.28786 -0.13762 0
M  V30 1372 C 132.018 -1.40376 -0.824525 0
M  V30 1373 O 133.207 -1.64681 -0.688662 0
M  V30 1374 C 130.307 -3.16322 -1.21628 0
M  V30 1375 C 129.48 -4.33054 -0.615039 0
M  V30 1376 C 128.539 -5.01743 -1.58556 0
M  V30 1377 O 127.565 -5.58293 -1.10895 0
M  V30 1378 N 128.767 -5.01714 -2.91998 0
M  V30 1379 H 131.532 -2.94025 0.580483 0
M  V30 1380 H 129.093 -1.55373 0.45507 0
M  V30 1381 H 131.085 -3.59139 -1.86552 0
M  V30 1382 H 129.655 -2.52943 -1.83681 0
M  V30 1383 H 128.875 -3.93627 0.21245 0
M  V30 1384 H 130.163 -5.08431 -0.193704 0
M  V30 1385 H 129.561 -4.57075 -3.33316 0
M  V30 1386 H 128.118 -5.48371 -3.52325 0
M  V30 1387 N 131.551 -0.354651 -1.53558 0
M  V30 1388 C 132.481 0.489091 -2.2832 0
M  V30 1389 C 133.462 1.09324 -1.30316 0
M  V30 1390 O 134.647 1.11255 -1.59173 0
M  V30 1391 C 131.777 1.63456 -3.0643 0
M  V30 1392 C 130.731 1.1582 -4.12031 0
M  V30 1393 C 130.057 2.39305 -4.7816 0
M  V30 1394 C 131.357 0.250731 -5.21698 0
M  V30 1395 H 133.051 -0.134614 -2.99097 0
M  V30 1396 H 130.597 -0.0661826 -1.43848 0
M  V30 1397 H 132.55 2.23136 -3.57475 0
M  V30 1398 H 131.274 2.28533 -2.33325 0
M  V30 1399 H 129.933 0.584146 -3.61916 0
M  V30 1400 H 129.581 3.02814 -4.01637 0
M  V30 1401 H 129.281 2.08109 -5.49513 0
M  V30 1402 H 130.805 2.99691 -5.31994 0
M  V30 1403 H 132.219 0.754695 -5.68311 0
M  V30 1404 H 130.616 0.0301468 -6.00092 0
M  V30 1405 H 131.686 -0.710125 -4.79672 0
M  V30 1406 N 133.029 1.57378 -0.0835403 0
M  V30 1407 C 133.961 2.10389 0.909338 0
M  V30 1408 C 134.974 1.03858 1.25369 0
M  V30 1409 O 136.163 1.31338 1.20882 0
M  V30 1410 C 133.263 2.55908 2.2218 0
M  V30 1411 C 132.436 3.86145 2.05453 0
M  V30 1412 C 131.495 4.17633 3.20108 0
M  V30 1413 O 130.521 4.87043 2.94581 0
M  V30 1414 N 131.723 3.72113 4.45547 0
M  V30 1415 H 134.488 2.962 0.456657 0
M  V30 1416 H 132.049 1.61579 0.101877 0
M  V30 1417 H 134.041 2.74027 2.97811 0
M  V30 1418 H 132.611 1.75171 2.58909 0
M  V30 1419 H 131.831 3.7729 1.1422 0
M  V30 1420 H 133.119 4.7137 1.91541 0
M  V30 1421 H 132.517 3.16062 4.69171 0
M  V30 1422 H 131.074 3.95409 5.18165 0
M  V30 1423 N 134.507 -0.190092 1.56449 0
M  V30 1424 C 135.756 -0.907912 1.80111 0
M  V30 1425 C 136.069 -1.84214 0.657619 0
M  V30 1426 O 137.275 -2.60094 0.778663 0
M  V30 1427 C 135.731 -1.66485 3.19078 0
M  V30 1428 C 135.339 -0.7752 4.41242 0
M  V30 1429 C 137.083 -2.37201 3.52045 0
M  V30 1430 C 134.99 -1.53129 5.71231 0
M  V30 1431 H 133.92 -0.34276 0.671589 0
M  V30 1432 H 136.571 -0.161109 1.82791 0
M  V30 1433 H 134.953 -2.45572 3.10661 0
M  V30 1434 H 136.127 -0.0226298 4.60794 0
M  V30 1435 H 134.442 -0.178627 4.16017 0
M  V30 1436 H 137.039 -2.94329 4.46402 0
M  V30 1437 H 137.382 -3.11632 2.76028 0
M  V30 1438 H 137.915 -1.65075 3.61932 0
M  V30 1439 H 134.654 -0.82967 6.50228 0
M  V30 1440 H 134.174 -2.25767 5.55688 0
M  V30 1441 H 135.853 -2.08377 6.12526 0
M  V30 1442 N 135.985 -1.50799 -0.457987 0
M  V30 1443 C 136.932 -1.70617 -1.5543 0
M  V30 1444 C 137.902 -0.547562 -1.56815 0
M  V30 1445 O 139.087 -0.779647 -1.74144 0
M  V30 1446 C 136.227 -1.81831 -2.93311 0
M  V30 1447 C 135.34 -3.09278 -3.01615 0
M  V30 1448 C 134.475 -3.11209 -4.30491 0
M  V30 1449 C 133.514 -4.33055 -4.32585 0
M  V30 1450 N 132.651 -4.32652 -5.52952 0
M  V30 1451 H 137.491 -2.64207 -1.37836 0
M  V30 1452 H 135.028 -1.30959 -0.669937 0
M  V30 1453 H 136.986 -1.86314 -3.73287 0
M  V30 1454 H 135.616 -0.916685 -3.0951 0
M  V30 1455 H 134.668 -3.14203 -2.1443 0
M  V30 1456 H 135.98 -3.99233 -2.99022 0
M  V30 1457 H 135.134 -3.14494 -5.18824 0
M  V30 1458 H 133.873 -2.19106 -4.35711 0
M  V30 1459 H 132.878 -4.29969 -3.42647 0
M  V30 1460 H 134.103 -5.264 -4.29046 0
M  V30 1461 H 132.049 -3.43409 -5.58933 0
M  V30 1462 H 131.966 -5.16392 -5.52155 0
M  V30 1463 H 133.234 -4.40101 -6.43375 0
M  V30 1464 N 137.463 0.71206 -1.40597 0
M  V30 1465 C 138.393 1.83889 -1.43899 0
M  V30 1466 C 139.374 1.67442 -0.299504 0
M  V30 1467 O 140.559 1.87421 -0.508624 0
M  V30 1468 C 137.689 3.21877 -1.30431 0
M  V30 1469 C 136.643 3.53002 -2.42019 0
M  V30 1470 C 135.969 4.90172 -2.13626 0
M  V30 1471 C 137.269 3.53643 -3.84362 0
M  V30 1472 H 138.963 1.81383 -2.38203 0
M  V30 1473 H 136.509 0.871237 -1.14654 0
M  V30 1474 H 138.462 4.00404 -1.31357 0
M  V30 1475 H 137.186 3.24968 -0.326049 0
M  V30 1476 H 135.845 2.76818 -2.40349 0
M  V30 1477 H 135.493 4.89869 -1.14182 0
M  V30 1478 H 135.193 5.11962 -2.88389 0
M  V30 1479 H 136.717 5.71028 -2.1624 0
M  V30 1480 H 138.131 4.22203 -3.87837 0
M  V30 1481 H 136.528 3.86961 -4.58673 0
M  V30 1482 H 137.598 2.52954 -4.13693 0
M  V30 1483 N 138.941 1.26152 0.944643 0
M  V30 1484 C 139.891 1.04081 2.02857 0
M  V30 1485 C 140.875 -0.0256555 1.6088 0
M  V30 1486 O 142.067 0.190884 1.75968 0
M  V30 1487 C 139.196 0.672118 3.36656 0
M  V30 1488 C 138.282 1.77586 3.85128 0
M  V30 1489 N 138.673 3.01272 4.06287 0
M  V30 1490 C 136.971 1.65867 4.1401 0
M  V30 1491 C 137.672 3.72983 4.46384 0
M  V30 1492 N 136.648 3.00653 4.52889 0
M  V30 1493 H 140.45 1.97968 2.17223 0
M  V30 1494 H 137.964 1.16618 1.13022 0
M  V30 1495 H 139.961 0.495166 4.13949 0
M  V30 1496 H 138.621 -0.259307 3.23663 0
M  V30 1497 H 139.632 3.37213 3.93075 0
M  V30 1498 H 136.309 0.796907 4.09824 0
M  V30 1499 H 137.699 4.792 4.70975 0
M  V30 1500 N 140.419 -1.14872 1.07899 0
M  V30 1501 C 141.367 -2.21857 0.698727 0
M  V30 1502 C 142.361 -1.66845 -0.293086 0
M  V30 1503 O 143.567 -1.79321 -0.156204 0
M  V30 1504 H 139.942 -0.722691 0.207899 0
M  V30 1505 H 141.913 -2.51205 1.61054 0
M  V30 1506 C 140.662 -3.47498 0.11858 0
M  V30 1507 H 139.985 -3.90154 0.872914 0
M  V30 1508 H 141.425 -4.23858 -0.109759 0
M  V30 1509 C 139.884 -3.16947 -1.1422 0
M  V30 1510 O 140.414 -3.3426 -2.22785 0
M  V30 1511 N 138.62 -2.70946 -1.05055 0
M  V30 1512 H 138.167 -2.57058 -0.167038 0
M  V30 1513 H 138.125 -2.50879 -1.89491 0
M  V30 1514 N 141.898 -0.863906 -1.31812 0
M  V30 1515 C 143.309 -0.52522 -1.7916 0
M  V30 1516 C 143.66 0.957518 -1.71248 0
M  V30 1517 O 142.785 1.74734 -1.27659 0
M  V30 1518 C 143.38 -0.9466 -3.25307 0
M  V30 1519 C 141.939 -0.659668 -3.70574 0
M  V30 1520 C 141.086 -1.14126 -2.52726 0
M  V30 1521 H 144.037 -1.05022 -1.1898 0
M  V30 1522 H 144.058 -0.266766 -3.79564 0
M  V30 1523 H 143.57 -2.02579 -3.31034 0
M  V30 1524 H 141.671 0.408416 -3.70355 0
M  V30 1525 H 141.784 -1.23245 -4.62977 0
M  V30 1526 H 140.148 -0.561216 -2.4844 0
M  V30 1527 H 140.931 -2.22775 -2.61201 0
M  V30 1528 N 143.376 1.44774 -0.622745 0
M  V30 1529 C 144.787 1.85546 -0.207226 0
M  V30 1530 C 145.138 1.52093 1.23944 0
M  V30 1531 O 144.263 0.95492 1.94191 0
M  V30 1532 C 144.858 3.36781 -0.369313 0
M  V30 1533 C 143.417 3.76399 -0.00836847 0
M  V30 1534 C 142.564 2.68664 -0.686651 0
M  V30 1535 H 145.515 1.3536 -0.828454 0
M  V30 1536 H 145.536 3.78453 0.394162 0
M  V30 1537 H 145.048 3.61098 -1.42231 0
M  V30 1538 H 143.149 3.57698 1.04322 0
M  V30 1539 H 143.262 4.7732 -0.412584 0
M  V30 1540 H 141.626 2.54404 -0.122777 0
M  V30 1541 H 142.409 2.95815 -1.74208 0
M  V30 1542 N 144.854 0.36279 1.53368 0
M  V30 1543 C 146.082 -0.228613 2.05633 0
M  V30 1544 C 146.497 -1.42676 1.23649 0
M  V30 1545 O 145.854 -1.80394 0.27647 0
M  V30 1546 C 145.905 -0.624845 3.56059 0
M  V30 1547 O 145.626 0.525675 4.34935 0
M  V30 1548 C 147.127 -1.27493 4.24571 0
M  V30 1549 H 144.347 -0.0407183 0.669763 0
M  V30 1550 H 146.891 0.520352 1.97769 0
M  V30 1551 H 145.046 -1.32373 3.64083 0
M  V30 1552 H 145.46 0.205969 5.24095 0
M  V30 1553 H 146.934 -1.50277 5.31151 0
M  V30 1554 H 147.411 -2.23439 3.78116 0
M  V30 1555 H 148.017 -0.617558 4.20792 0
M  V30 1556 N 146.332 -1.57332 0.0918853 0
M  V30 1557 C 147.581 -1.93412 -0.572249 0
M  V30 1558 C 147.894 -0.975515 -1.69538 0
M  V30 1559 O 149.1 -1.22991 -2.42045 0
M  V30 1560 C 147.556 -3.43648 -1.0693 0
M  V30 1561 C 147.164 -4.47994 0.0239049 0
M  V30 1562 C 148.908 -3.88695 -1.70635 0
M  V30 1563 C 146.815 -5.89381 -0.488319 0
M  V30 1564 H 145.745 -0.721939 -0.217532 0
M  V30 1565 H 148.396 -1.82735 0.167369 0
M  V30 1566 H 146.778 -3.49466 -1.8625 0
M  V30 1567 H 147.952 -4.53815 0.799277 0
M  V30 1568 H 146.267 -4.12536 0.565946 0
M  V30 1569 H 148.864 -4.91725 -2.10025 0
M  V30 1570 H 149.207 -3.27166 -2.57426 0
M  V30 1571 H 149.74 -3.85564 -0.979023 0
M  V30 1572 H 146.479 -6.54602 0.342906 0
M  V30 1573 H 145.999 -5.87037 -1.23077 0
M  V30 1574 H 147.678 -6.39863 -0.958317 0
M  V30 1575 N 147.81 0.181792 -1.56548 0
M  V30 1576 C 148.76 1.22961 -1.92002 0
M  V30 1577 C 149.744 1.40331 -0.787146 0
M  V30 1578 O 150.936 1.42478 -1.05019 0
M  V30 1579 C 148.065 2.57144 -2.27446 0
M  V30 1580 C 147.151 2.43512 -3.47222 0
M  V30 1581 N 147.542 1.99577 -4.64761 0
M  V30 1582 C 145.84 2.74368 -3.51622 0
M  V30 1583 C 146.541 1.98156 -5.46909 0
M  V30 1584 N 145.517 2.40164 -4.8767 0
M  V30 1585 H 149.319 0.881462 -2.8037 0
M  V30 1586 H 146.833 0.390141 -1.57644 0
M  V30 1587 H 148.83 3.32847 -2.51035 0
M  V30 1588 H 147.49 2.92771 -1.40411 0
M  V30 1589 H 148.501 1.70078 -4.89177 0
M  V30 1590 H 145.178 3.14102 -2.75038 0
M  V30 1591 H 146.568 1.65975 -6.51077 0
M  V30 1592 N 149.288 1.51039 0.449983 0
M  V30 1593 C 150.518 1.66627 1.22143 0
M  V30 1594 C 150.926 0.357776 1.85786 0
M  V30 1595 O 150.269 -0.672424 1.70951 0
M  V30 1596 C 150.331 2.71562 2.35573 0
M  V30 1597 C 149.995 4.14526 1.92399 0
M  V30 1598 C 150.992 4.99717 1.43453 0
M  V30 1599 C 148.677 4.60559 2.00475 0
M  V30 1600 C 150.671 6.28998 1.03155 0
M  V30 1601 C 148.358 5.8984 1.59788 0
M  V30 1602 C 149.356 6.73886 1.11208 0
M  V30 1603 O 149.044 8.0075 0.710935 0
M  V30 1604 H 148.776 0.562635 0.374724 0
M  V30 1605 H 151.33 1.98146 0.541036 0
M  V30 1606 H 149.56 2.3533 3.06849 0
M  V30 1607 H 151.249 2.76156 2.97478 0
M  V30 1608 H 152.015 4.65361 1.36618 0
M  V30 1609 H 147.894 3.95273 2.37235 0
M  V30 1610 H 151.438 6.9455 0.651663 0
M  V30 1611 H 147.335 6.23713 1.66289 0
M  V30 1612 H 148.103 8.142 0.837913 0
M  V30 1613 N 150.766 -0.704594 1.40972 0
M  V30 1614 C 152.177 -1.28418 1.3552 0
M  V30 1615 C 152.528 -1.96171 0.0339434 0
M  V30 1616 O 151.653 -1.98231 -0.867944 0
M  V30 1617 C 152.248 -2.33528 2.45459 0
M  V30 1618 C 150.807 -2.87085 2.43433 0
M  V30 1619 C 149.954 -1.61007 2.2577 0
M  V30 1620 H 152.905 -0.499963 1.50619 0
M  V30 1621 H 152.926 -3.14619 2.13998 0
M  V30 1622 H 152.438 -1.84187 3.41609 0
M  V30 1623 H 150.539 -3.40626 1.51013 0
M  V30 1624 H 150.652 -3.3813 3.39419 0
M  V30 1625 H 149.016 -1.86482 1.73483 0
M  V30 1626 H 149.799 -1.13675 3.23933 0
M  V30 1627 N 152.244 -1.26651 -0.937939 0
M  V30 1628 C 153.655 -1.1125 -1.49934 0
M  V30 1629 C 154.006 0.306077 -1.93798 0
M  V30 1630 O 153.131 1.19792 -1.80219 0
M  V30 1631 C 153.726 -2.01339 -2.72485 0
M  V30 1632 C 152.285 -1.90074 -3.24883 0
M  V30 1633 C 151.432 -1.94498 -1.97651 0
M  V30 1634 H 154.383 -1.39693 -0.753091 0
M  V30 1635 H 154.404 -1.56319 -3.46907 0
M  V30 1636 H 153.916 -3.04577 -2.40529 0
M  V30 1637 H 152.017 -0.897827 -3.61621 0
M  V30 1638 H 152.13 -2.75778 -3.9177 0
M  V30 1639 H 150.494 -1.38591 -2.13693 0
M  V30 1640 H 151.277 -2.99372 -1.68022 0
M  V30 1641 N 153.722 1.14298 -1.08507 0
M  V30 1642 C 154.947 1.8976 -0.837001 0
M  V30 1643 C 155.372 1.78097 0.605228 0
M  V30 1644 O 154.73 1.12188 1.4242 0
M  V30 1645 C 154.778 3.37685 -1.26495 0
M  V30 1646 O 153.882 4.10281 -0.417514 0
M  V30 1647 H 153.223 0.590365 -0.303917 0
M  V30 1648 H 155.753 1.44672 -1.44676 0
M  V30 1649 H 155.763 3.88501 -1.24625 0
M  V30 1650 H 154.438 3.45492 -2.31534 0
M  V30 1651 H 153.015 3.69536 -0.499722 0
M  V30 1652 N 155.201 0.870884 1.31352 0
M  V30 1653 C 156.133 0.28455 2.27427 0
M  V30 1654 C 157.146 -0.552927 1.53123 0
M  V30 1655 O 158.335 -0.374771 1.74521 0
M  V30 1656 C 155.435 -0.615164 3.3327 0
M  V30 1657 C 154.608 0.190079 4.36987 0
M  V30 1658 C 153.667 -0.637917 5.22319 0
M  V30 1659 O 152.693 -0.065626 5.69162 0
M  V30 1660 N 153.895 -1.94973 5.46778 0
M  V30 1661 H 156.66 1.11017 2.7838 0
M  V30 1662 H 154.221 0.732458 1.44384 0
M  V30 1663 H 156.213 -1.1748 3.87273 0
M  V30 1664 H 154.783 -1.34146 2.82354 0
M  V30 1665 H 154.003 0.931165 3.83044 0
M  V30 1666 H 155.291 0.742579 5.03352 0
M  V30 1667 H 154.689 -2.4378 5.10478 0
M  V30 1668 H 153.246 -2.45713 6.03712 0
M  V30 1669 N 156.679 -1.44442 0.630414 0
M  V30 1670 C 157.927 -2.01653 0.134351 0
M  V30 1671 C 158.248 -1.49836 -1.24796 0
M  V30 1672 O 157.518 -0.701684 -1.82902 0
M  V30 1673 H 156.098 -0.74554 0.0466769 0
M  V30 1674 H 158.76 -1.76952 0.816955 0
M  V30 1675 H 157.856 -3.11935 0.101498 0
M  V30 1676 N 158.157 -0.370918 -1.53173 0
M  V30 1677 C 159.089 0.507823 -2.23503 0
M  V30 1678 C 160.102 1.04182 -1.251 0
M  V30 1679 O 161.291 0.947286 -1.5129 0
M  V30 1680 C 158.391 1.71447 -2.92334 0
M  V30 1681 C 157.564 1.31105 -4.17289 0
M  V30 1682 C 156.623 2.38035 -4.69282 0
M  V30 1683 O 155.649 2.00204 -5.32829 0
M  V30 1684 N 156.851 3.69697 -4.47554 0
M  V30 1685 H 159.616 -0.0946382 -2.99551 0
M  V30 1686 H 157.177 -0.196358 -1.60705 0
M  V30 1687 H 159.169 2.42469 -3.24023 0
M  V30 1688 H 157.739 2.22368 -2.19707 0
M  V30 1689 H 156.959 0.430462 -3.91843 0
M  V30 1690 H 158.247 1.0179 -4.98514 0
M  V30 1691 H 157.645 4.03205 -3.9679 0
M  V30 1692 H 156.202 4.36807 -4.8378 0
M  V30 1693 N 159.635 1.57281 -0.100228 0
M  V30 1694 C 160.568 2.09976 0.893612 0
M  V30 1695 C 161.546 1.01155 1.27304 0
M  V30 1696 O 162.73 1.28687 1.37739 0
M  V30 1697 C 159.857 2.58098 2.19324 0
M  V30 1698 C 158.903 3.78626 1.96328 0
M  V30 1699 S 159.736 5.21959 1.19662 0
M  V30 1700 C 160.892 5.73435 2.50844 0
M  V30 1701 H 161.125 2.93946 0.44534 0
M  V30 1702 H 158.658 1.53985 0.113167 0
M  V30 1703 H 160.616 2.8648 2.94005 0
M  V30 1704 H 159.277 1.74344 2.61272 0
M  V30 1705 H 158.47 4.10382 2.92579 0
M  V30 1706 H 158.072 3.50763 1.29775 0
M  V30 1707 H 160.364 5.82015 3.46792 0
M  V30 1708 H 161.307 6.7185 2.23659 0
M  V30 1709 H 161.715 5.01395 2.59352 0
M  V30 1710 N 161.113 -0.173488 1.56642 0
M  V30 1711 C 162.39 -0.917617 1.7274 0
M  V30 1712 C 162.77 -2.00484 0.661027 0
M  V30 1713 O 162.118 -2.26184 -0.32453 0
M  V30 1714 C 162.328 -1.48433 3.15862 0
M  V30 1715 C 163.676 -1.95809 3.76754 0
M  V30 1716 O 164.7 -1.58231 3.19126 0
M  V30 1717 O 163.559 -2.65024 4.77938 0
M  V30 1718 H 160.653 -0.431772 0.705338 0
M  V30 1719 H 163.199 -0.161487 1.6893 0
M  V30 1720 H 161.971 -0.701715 3.84957 0
M  V30 1721 H 161.594 -2.30471 3.23989 0
M  V30 1722 N 162.591 -1.51276 -0.441967 0
M  V30 1723 C 163.521 -1.752 -1.54361 0
M  V30 1724 C 164.502 -0.601682 -1.59103 0
M  V30 1725 O 165.687 -0.843913 -1.74905 0
M  V30 1726 C 162.817 -1.87282 -2.92477 0
M  V30 1727 C 161.771 -3.02687 -3.02596 0
M  V30 1728 C 161.097 -2.99947 -4.42647 0
M  V30 1729 C 162.397 -4.4273 -2.77106 0
M  V30 1730 H 164.091 -2.67442 -1.34592 0
M  V30 1731 H 161.637 -1.28694 -0.646048 0
M  V30 1732 H 163.59 -2.02602 -3.695 0
M  V30 1733 H 162.314 -0.916844 -3.13467 0
M  V30 1734 H 160.973 -2.87065 -2.28012 0
M  V30 1735 H 160.621 -2.02136 -4.60597 0
M  V30 1736 H 160.321 -3.77439 -4.50348 0
M  V30 1737 H 161.845 -3.17354 -5.2165 0
M  V30 1738 H 163.259 -4.58727 -3.43864 0
M  V30 1739 H 161.656 -5.21893 -2.96222 0
M  V30 1740 H 162.726 -4.53087 -1.72744 0
M  V30 1741 N 164.069 0.697108 -1.41344 0
M  V30 1742 C 165.309 1.46939 -1.42085 0
M  V30 1743 C 165.673 1.9198 -0.0280397 0
M  V30 1744 O 166.874 2.6865 0.0897504 0
M  V30 1745 C 165.145 2.64985 -2.39828 0
M  V30 1746 S 166.704 3.54147 -2.59085 0
M  V30 1747 H 163.522 0.502146 -0.503359 0
M  V30 1748 H 166.124 0.813546 -1.77769 0
M  V30 1749 H 164.828 2.30098 -3.39828 0
M  V30 1750 H 164.359 3.35464 -2.05493 0
M  V30 1751 H 166.374 4.60137 -1.85711 0
M  V30 1752 N 165.547 1.27147 0.931209 0
M  V30 1753 C 166.793 1.13446 1.68101 0
M  V30 1754 C 167.126 -0.319628 1.91552 0
M  V30 1755 O 166.401 -1.23407 1.50336 0
M  V30 1756 C 166.684 1.91482 3.0497 0
M  V30 1757 C 166.537 3.44855 2.88782 0
M  V30 1758 C 167.856 1.71651 4.05246 0
M  V30 1759 H 164.975 0.413498 0.610072 0
M  V30 1760 H 167.617 1.56261 1.08086 0
M  V30 1761 H 165.767 1.55095 3.56199 0
M  V30 1762 H 167.439 3.9105 2.44698 0
M  V30 1763 H 165.682 3.71373 2.24198 0
M  V30 1764 H 166.353 3.94694 3.85902 0
M  V30 1765 H 168.829 2.0337 3.63015 0
M  V30 1766 H 167.705 2.28651 4.99009 0
M  V30 1767 H 167.966 0.663555 4.37092 0
M  V30 1768 N 167.025 -1.13721 1.09112 0
M  V30 1769 C 168.253 -1.88773 0.846899 0
M  V30 1770 C 168.668 -1.7896 -0.601572 0
M  V30 1771 O 168.025 -1.15394 -1.41388 0
M  V30 1772 C 168.076 -3.3849 1.26913 0
M  V30 1773 O 167.797 -3.48043 2.66079 0
M  V30 1774 C 169.298 -4.30518 1.05682 0
M  V30 1775 H 166.518 -0.59772 0.304914 0
M  V30 1776 H 169.062 -1.43977 1.45227 0
M  V30 1777 H 167.217 -3.80881 0.707723 0
M  V30 1778 H 167.631 -4.4109 2.83795 0
M  V30 1779 H 169.105 -5.3391 1.40156 0
M  V30 1780 H 169.582 -4.392 -0.00563416 0
M  V30 1781 H 170.188 -3.93893 1.60402 0
M  V30 1782 N 168.503 -0.877838 -1.30888 0
M  V30 1783 C 169.728 -0.506629 -2.01117 0
M  V30 1784 C 170.153 0.895564 -1.65412 0
M  V30 1785 O 169.511 1.5923 -0.866922 0
M  V30 1786 C 169.559 -0.680223 -3.54126 0
M  V30 1787 O 168.663 0.277033 -4.11468 0
M  V30 1788 H 168.004 -0.200518 -0.633 0
M  V30 1789 H 170.534 -1.18342 -1.66902 0
M  V30 1790 H 170.544 -0.5765 -4.03907 0
M  V30 1791 H 169.219 -1.70261 -3.79452 0
M  V30 1792 H 167.796 0.127606 -3.72682 0
M  V30 1793 N 169.982 1.44106 -0.638065 0
M  V30 1794 C 171.23 2.01579 -0.145043 0
M  V30 1795 C 171.551 1.50496 1.24 0
M  V30 1796 O 170.821 0.711374 1.82527 0
M  V30 1797 H 169.401 0.745282 -0.05063 0
M  V30 1798 H 172.063 1.76516 -0.826327 0
M  V30 1799 H 171.159 3.11877 -0.118039 0
M  V30 1800 N 171.46 0.379036 1.52974 0
M  V30 1801 C 172.685 -0.209353 2.06341 0
M  V30 1802 C 173.11 -1.40583 1.24972 0
M  V30 1803 O 172.468 -1.79246 0.272155 0
M  V30 1804 C 172.516 -0.567786 3.56102 0
M  V30 1805 O 171.62 -1.66318 3.77375 0
M  V30 1806 H 170.961 -0.0272919 0.663439 0
M  V30 1807 H 173.491 0.543536 1.97248 0
M  V30 1808 H 173.501 -0.835003 3.99364 0
M  V30 1809 H 172.176 0.307013 4.14765 0
M  V30 1810 H 170.753 -1.39048 3.46006 0
M  V30 1811 N 172.938 -1.57226 0.108567 0
M  V30 1812 C 173.87 -2.11809 -0.875752 0
M  V30 1813 C 174.883 -1.05839 -1.23701 0
M  V30 1814 O 176.072 -1.33245 -1.18778 0
M  V30 1815 C 173.172 -2.59411 -2.18081 0
M  V30 1816 C 172.345 -3.89364 -1.99284 0
M  V30 1817 C 171.404 -4.22672 -3.13424 0
M  V30 1818 O 170.43 -4.91668 -2.86795 0
M  V30 1819 N 171.632 -3.79154 -4.3957 0
M  V30 1820 H 174.397 -2.9689 -0.409477 0
M  V30 1821 H 171.958 -1.61721 -0.076158 0
M  V30 1822 H 173.95 -2.7873 -2.93414 0
M  V30 1823 H 172.52 -1.79268 -2.5609 0
M  V30 1824 H 171.74 -3.79059 -1.08203 0
M  V30 1825 H 173.028 -4.74358 -1.84017 0
M  V30 1826 H 172.426 -3.23486 -4.64083 0
M  V30 1827 H 170.983 -4.03602 -5.11809 0
M  V30 1828 N 174.416 0.165178 -1.56732 0
M  V30 1829 C 175.348 1.22911 -1.93457 0
M  V30 1830 C 176.361 1.40152 -0.828333 0
M  V30 1831 O 177.55 1.40046 -1.10677 0
M  V30 1832 C 174.65 2.59686 -2.17753 0
M  V30 1833 C 173.823 2.63663 -3.48999 0
M  V30 1834 C 172.882 3.81845 -3.62051 0
M  V30 1835 O 171.908 3.67559 -4.34613 0
M  V30 1836 N 173.11 4.98557 -2.97357 0
M  V30 1837 H 175.875 0.917118 -2.85323 0
M  V30 1838 H 173.436 0.354895 -1.57962 0
M  V30 1839 H 175.428 3.37225 -2.23743 0
M  V30 1840 H 173.998 2.83251 -1.32242 0
M  V30 1841 H 173.218 1.72173 -3.54612 0
M  V30 1842 H 174.506 2.63336 -4.35352 0
M  V30 1843 H 173.904 5.13065 -2.38287 0
M  V30 1844 H 172.461 5.73936 -3.08934 0
M  V30 1845 N 175.894 1.51508 0.433938 0
M  V30 1846 C 177.142 1.6402 1.18075 0
M  V30 1847 C 177.463 0.360328 1.91642 0
M  V30 1848 O 176.733 -0.623945 1.85698 0
M  V30 1849 H 175.313 0.6045 0.43885 0
M  V30 1850 H 177.975 1.88452 0.497178 0
M  V30 1851 H 177.071 2.46949 1.90847 0
M  V30 1852 N 177.372 -0.689602 1.41712 0
M  V30 1853 C 178.302 -1.81577 1.46806 0
M  V30 1854 C 179.283 -1.66945 0.326105 0
M  V30 1855 O 180.468 -1.86588 0.538377 0
M  V30 1856 C 177.598 -3.19762 1.35535 0
M  V30 1857 C 176.552 -3.49107 2.47605 0
M  V30 1858 C 175.878 -4.86711 2.21397 0
M  V30 1859 C 177.178 -3.47483 3.89939 0
M  V30 1860 H 178.872 -1.7757 2.41058 0
M  V30 1861 H 176.418 -0.852887 1.16025 0
M  V30 1862 H 178.371 -3.98263 1.3771 0
M  V30 1863 H 177.095 -3.24409 0.377708 0
M  V30 1864 H 175.754 -2.72959 2.44722 0
M  V30 1865 H 175.402 -4.8799 1.21961 0
M  V30 1866 H 175.102 -5.0731 2.96497 0
M  V30 1867 H 176.626 -5.67515 2.25297 0
M  V30 1868 H 178.04 -4.1598 3.94505 0
M  V30 1869 H 176.437 -3.79615 4.64771 0
M  V30 1870 H 177.507 -2.46341 4.17665 0
M  V30 1871 N 178.85 -1.27639 -0.924453 0
M  V30 1872 C 180.09 -1.15407 -1.68703 0
M  V30 1873 C 180.454 0.294581 -1.89727 0
M  V30 1874 O 181.655 0.539385 -2.63333 0
M  V30 1875 C 179.926 -1.9195 -3.0148 0
M  V30 1876 S 181.485 -1.95969 -3.92609 0
M  V30 1877 H 178.303 -0.411937 -0.579507 0
M  V30 1878 H 180.905 -1.61592 -1.10038 0
M  V30 1879 H 179.609 -2.96387 -2.83871 0
M  V30 1880 H 179.14 -1.46272 -3.65196 0
M  V30 1881 H 181.155 -1.05846 -4.84779 0
M  V30 1882 N 180.328 1.1314 -1.09713 0
M  V30 1883 C 181.275 2.18642 -0.739196 0
M  V30 1884 C 182.245 1.63706 0.280978 0
M  V30 1885 O 183.43 1.90111 0.161946 0
M  V30 1886 C 180.57 3.44685 -0.169102 0
M  V30 1887 C 179.683 4.13711 -1.24367 0
M  V30 1888 C 178.818 5.27379 -0.636019 0
M  V30 1889 C 177.857 5.88259 -1.69169 0
M  V30 1890 N 176.994 6.93352 -1.10485 0
M  V30 1891 H 181.834 2.48607 -1.64312 0
M  V30 1892 H 179.371 1.22066 -0.820875 0
M  V30 1893 H 181.329 4.16815 0.179256 0
M  V30 1894 H 179.959 3.15161 0.698079 0
M  V30 1895 H 179.011 3.39835 -1.70927 0
M  V30 1896 H 180.323 4.55037 -2.04311 0
M  V30 1897 H 179.477 6.06238 -0.236677 0
M  V30 1898 H 178.216 4.8731 0.194928 0
M  V30 1899 H 177.221 5.08092 -2.10055 0
M  V30 1900 H 178.446 6.30399 -2.52536 0
M  V30 1901 H 176.392 6.55335 -0.295234 0
M  V30 1902 H 176.309 7.33236 -1.84121 0
M  V30 1903 H 177.577 7.76057 -0.73181 0
M  V30 1904 N 181.806 0.884767 1.30421 0
M  V30 1905 C 183.052 0.503851 1.96441 0
M  V30 1906 C 183.385 -0.944518 1.69684 0
M  V30 1907 O 182.66 -1.66737 1.00145 0
M  V30 1908 C 182.943 0.779085 3.51571 0
M  V30 1909 C 182.796 2.27807 3.87846 0
M  V30 1910 C 184.115 0.255452 4.39358 0
M  V30 1911 H 181.234 0.184533 0.713524 0
M  V30 1912 H 183.876 1.10872 1.54297 0
M  V30 1913 H 182.026 0.264274 3.876 0
M  V30 1914 H 183.698 2.86127 3.61841 0
M  V30 1915 H 181.941 2.74479 3.35922 0
M  V30 1916 H 182.612 2.42125 4.96064 0
M  V30 1917 H 185.088 0.696079 4.10236 0
M  V30 1918 H 183.964 0.477361 5.4682 0
M  V30 1919 H 184.225 -0.843293 4.33983 0
M  V30 1920 N 183.284 -1.43765 0.645699 0
M  V30 1921 C 184.531 -2.01898 0.15604 0
M  V30 1922 C 184.859 -1.50887 -1.22733 0
M  V30 1923 O 184.114 -0.689271 -1.8316 0
M  V30 1924 C 184.413 -3.57238 0.107679 0
M  V30 1925 C 184.079 -4.27564 1.43178 0
M  V30 1926 C 182.741 -4.46492 1.7944 0
M  V30 1927 C 185.093 -4.67454 2.30513 0
M  V30 1928 C 182.421 -5.02573 3.02716 0
M  V30 1929 C 184.773 -5.24901 3.53074 0
M  V30 1930 C 183.437 -5.42046 3.89541 0
M  V30 1931 H 182.707 -0.738797 0.057099 0
M  V30 1932 H 185.354 -1.72341 0.834912 0
M  V30 1933 H 183.659 -3.86293 -0.654618 0
M  V30 1934 H 185.356 -3.99965 -0.287938 0
M  V30 1935 H 181.946 -4.13171 1.13963 0
M  V30 1936 H 186.13 -4.5253 2.0379 0
M  V30 1937 H 181.386 -5.14033 3.31028 0
M  V30 1938 H 185.56 -5.54758 4.20971 0
M  V30 1939 H 183.187 -5.85268 4.85145 0
M  V30 1940 N 184.763 -0.387143 -1.52771 0
M  V30 1941 C 185.673 0.456442 -2.30117 0
M  V30 1942 C 186.689 1.07342 -1.36944 0
M  V30 1943 O 187.865 1.07971 -1.70013 0
M  V30 1944 C 184.93 1.56957 -3.09136 0
M  V30 1945 C 183.991 0.977916 -4.18014 0
M  V30 1946 C 183.224 2.038 -4.93256 0
M  V30 1947 O 183.447 3.25271 -4.68567 0
M  V30 1948 O 182.381 1.6565 -5.78657 0
M  V30 1949 H 186.207 -0.17359 -3.03203 0
M  V30 1950 H 183.792 -0.150919 -1.48636 0
M  V30 1951 H 185.674 2.21628 -3.58412 0
M  V30 1952 H 184.349 2.18461 -2.38865 0
M  V30 1953 H 183.256 0.294525 -3.72939 0
M  V30 1954 H 184.589 0.407128 -4.90513 0
M  V30 1955 N 186.241 1.57166 -0.116904 0
M  V30 1956 C 187.174 2.10912 0.871291 0
M  V30 1957 C 188.152 1.025 1.26224 0
M  V30 1958 O 189.336 1.3014 1.36366 0
M  V30 1959 C 186.463 2.6041 2.16574 0
M  V30 1960 C 185.509 3.80687 1.92302 0
M  V30 1961 S 186.342 5.23199 1.14119 0
M  V30 1962 C 187.498 5.76064 2.44748 0
M  V30 1963 H 187.731 2.94401 0.414138 0
M  V30 1964 H 185.264 1.54096 0.096829 0
M  V30 1965 H 187.222 2.89583 2.9095 0
M  V30 1966 H 185.883 1.77106 2.59408 0
M  V30 1967 H 185.076 4.13462 2.8821 0
M  V30 1968 H 184.678 3.5212 1.26047 0
M  V30 1969 H 186.97 5.8566 3.406 0
M  V30 1970 H 187.913 6.74184 2.16521 0
M  V30 1971 H 188.321 5.04117 2.54019 0
M  V30 1972 N 187.719 -0.156864 1.56817 0
M  V30 1973 C 188.968 -0.869504 1.81996 0
M  V30 1974 C 189.281 -1.82777 0.696545 0
M  V30 1975 O 190.487 -2.58384 0.833658 0
M  V30 1976 C 188.943 -1.59679 3.22538 0
M  V30 1977 C 188.551 -0.681431 4.42787 0
M  V30 1978 C 190.295 -2.2968 3.56997 0
M  V30 1979 C 188.202 -1.40978 5.74351 0
M  V30 1980 H 187.132 -0.328438 0.678708 0
M  V30 1981 H 189.783 -0.1223 1.83092 0
M  V30 1982 H 188.165 -2.38927 3.158 0
M  V30 1983 H 189.339 0.0751166 4.60739 0
M  V30 1984 H 187.654 -0.0903431 4.16302 0
M  V30 1985 H 190.251 -2.84794 4.52544 0
M  V30 1986 H 190.594 -3.05707 2.82576 0
M  V30 1987 H 191.127 -1.57361 3.65352 0
M  V30 1988 H 187.866 -0.691561 6.51842 0
M  V30 1989 H 187.386 -2.13929 5.60352 0
M  V30 1990 H 189.065 -1.95337 6.16808 0
M  V30 1991 N 189.197 -1.51736 -0.425897 0
M  V30 1992 C 190.446 -1.64201 -1.17136 0
M  V30 1993 C 190.759 -0.369705 -1.92074 0
M  V30 1994 O 191.965 -0.373898 -2.68913 0
M  V30 1995 C 190.421 -2.90035 -2.13091 0
M  V30 1996 C 190.029 -4.24312 -1.43747 0
M  V30 1997 C 191.773 -3.1186 -2.87999 0
M  V30 1998 C 189.68 -5.41285 -2.38253 0
M  V30 1999 H 188.61 -0.611624 -0.440944 0
M  V30 2000 H 191.261 -1.78212 -0.437328 0
M  V30 2001 H 189.643 -2.69684 -2.89977 0
M  V30 2002 H 190.817 -4.55086 -0.723408 0
M  V30 2003 H 189.132 -4.08456 -0.809465 0
M  V30 2004 H 191.729 -3.96427 -3.58817 0
M  V30 2005 H 192.072 -2.25403 -3.49999 0
M  V30 2006 H 192.605 -3.32605 -2.18217 0
M  V30 2007 H 189.344 -6.30037 -1.80925 0
M  V30 2008 H 188.864 -5.14872 -3.0768 0
M  V30 2009 H 190.543 -5.73694 -2.99139 0
M  V30 2010 N 190.675 0.682077 -1.42076 0
M  V30 2011 C 191.623 1.81707 -1.45208 0
M  V30 2012 C 192.617 1.66183 -0.328591 0
M  V30 2013 O 193.823 1.7288 -0.501264 0
M  V30 2014 H 190.198 0.599014 -0.454628 0
M  V30 2015 H 192.169 1.76183 -2.40836 0
M  V30 2016 C 190.918 3.19816 -1.36428 0
M  V30 2017 H 190.241 3.32385 -2.22171 0
M  V30 2018 H 191.681 3.99272 -1.42681 0
M  V30 2019 C 190.14 3.36809 -0.078191 0
M  V30 2020 O 190.67 3.92124 0.87188 0
M  V30 2021 N 188.876 2.906 0.00229266 0
M  V30 2022 H 188.423 2.45772 -0.771616 0
M  V30 2023 H 188.381 3.02347 0.862179 0
M  V30 2024 N 192.153 1.28127 0.917671 0
M  V30 2025 C 193.564 1.13622 1.48145 0
M  V30 2026 C 193.915 -0.275207 1.9426 0
M  V30 2027 O 193.04 -1.1691 1.82102 0
M  V30 2028 C 193.635 2.05648 2.69248 0
M  V30 2029 C 192.194 1.95219 3.21818 0
M  V30 2030 C 191.341 1.97618 1.94532 0
M  V30 2031 H 194.292 1.40874 0.730772 0
M  V30 2032 H 194.313 1.61818 3.44377 0
M  V30 2033 H 193.825 3.08365 2.35653 0
M  V30 2034 H 191.926 0.955244 3.60147 0
M  V30 2035 H 192.039 2.81976 3.87333 0
M  V30 2036 H 190.403 1.41973 2.11461 0
M  V30 2037 H 191.186 3.02007 1.63238 0
M  V30 2038 N 193.631 -1.12557 1.10312 0
M  V30 2039 C 194.879 -1.83675 0.843091 0
M  V30 2040 C 195.2 -1.84435 -0.633131 0
M  V30 2041 O 194.47 -1.30657 -1.45964 0
M  V30 2042 H 193.05 -0.680138 0.308904 0
M  V30 2043 H 195.712 -1.36301 1.39313 0
M  V30 2044 H 194.808 -2.87908 1.2048 0
M  V30 2045 N 195.109 -0.891671 -1.2995 0
M  V30 2046 C 196.386 -0.433307 -1.9074 0
M  V30 2047 C 196.766 1.08646 -1.80995 0
M  V30 2048 O 196.114 1.92476 -1.23147 0
M  V30 2049 C 196.324 -0.938895 -3.36134 0
M  V30 2050 C 197.672 -0.977829 -4.13187 0
M  V30 2051 O 198.696 -0.886015 -3.45005 0
M  V30 2052 O 197.555 -1.11453 -5.35015 0
M  V30 2053 H 194.649 -0.133699 -0.816121 0
M  V30 2054 H 197.195 -0.981011 -1.38471 0
M  V30 2055 H 195.967 -1.98281 -3.37343 0
M  V30 2056 H 195.59 -0.37074 -3.95868 0
M  V30 2057 N 196.587 1.43421 -0.653314 0
M  V30 2058 C 197.535 2.32546 0.0501531 0
M  V30 2059 C 198.529 1.48617 0.812985 0
M  V30 2060 O 199.735 1.64825 0.723375 0
M  V30 2061 H 196.11 0.751185 0.0350032 0
M  V30 2062 H 198.081 2.89602 -0.719261 0
M  V30 2063 C 196.83 3.32925 1.00279 0
M  V30 2064 H 196.153 3.97532 0.425236 0
M  V30 2065 H 197.593 3.9792 1.46409 0
M  V30 2066 C 196.052 2.63532 2.09886 0
M  V30 2067 O 196.582 2.45092 3.18265 0
M  V30 2068 N 194.788 2.22905 1.86445 0
M  V30 2069 H 194.335 2.38103 0.98309 0
M  V30 2070 H 194.293 1.76805 2.59976 0
M  V30 2071 N 198.065 0.39524 1.52563 0
M  V30 2072 C 199.311 -0.185318 2.01952 0
M  V30 2073 C 199.644 -1.45964 1.28095 0
M  V30 2074 O 198.919 -1.90689 0.38315 0
M  V30 2075 C 199.202 -0.447193 3.57312 0
M  V30 2076 C 199.055 0.842828 4.41833 0
M  V30 2077 C 200.374 -1.23529 4.22408 0
M  V30 2078 H 197.493 -0.0658788 0.73405 0
M  V30 2079 H 200.135 0.525975 1.82575 0
M  V30 2080 H 198.285 -1.05312 3.73954 0
M  V30 2081 H 199.957 1.4795 4.36931 0
M  V30 2082 H 198.2 1.45686 4.08605 0
M  V30 2083 H 198.871 0.614165 5.48573 0
M  V30 2084 H 201.347 -0.722445 4.0978 0
M  V30 2085 H 200.223 -1.38727 5.3108 0
M  V30 2086 H 200.484 -2.25213 3.80436 0
M  V30 2087 N 199.544 -1.57102 0.125237 0
M  V30 2088 C 200.474 -2.18659 -0.819174 0
M  V30 2089 C 201.455 -1.12843 -1.27281 0
M  V30 2090 O 202.64 -1.41104 -1.33429 0
M  V30 2091 C 199.77 -2.79096 -2.06695 0
M  V30 2092 C 198.724 -3.90548 -1.75088 0
M  V30 2093 C 198.05 -4.37821 -3.06948 0
M  V30 2094 C 199.35 -5.12356 -1.01435 0
M  V30 2095 H 201.044 -2.9783 -0.306202 0
M  V30 2096 H 198.59 -1.4326 -0.145839 0
M  V30 2097 H 200.543 -3.2082 -2.73226 0
M  V30 2098 H 199.267 -1.97223 -2.60328 0
M  V30 2099 H 197.926 -3.49409 -1.10944 0
M  V30 2100 H 197.574 -3.52799 -3.58527 0
M  V30 2101 H 197.274 -5.12982 -2.86571 0
M  V30 2102 H 198.798 -4.822 -3.74587 0
M  V30 2103 H 200.212 -5.5106 -1.58132 0
M  V30 2104 H 198.609 -5.9314 -0.911319 0
M  V30 2105 H 199.679 -4.849 -0.00218681 0
M  V30 2106 N 201.022 0.148545 -1.56898 0
M  V30 2107 C 201.952 1.18524 -2.01182 0
M  V30 2108 C 202.933 1.4489 -0.891123 0
M  V30 2109 O 204.118 1.55836 -1.15882 0
M  V30 2110 C 201.248 2.51879 -2.39112 0
M  V30 2111 C 200.202 2.40038 -3.54353 0
M  V30 2112 C 199.528 3.78089 -3.78091 0
M  V30 2113 C 200.828 1.88577 -4.87069 0
M  V30 2114 H 202.522 0.817029 -2.88036 0
M  V30 2115 H 200.068 0.391575 -1.38574 0
M  V30 2116 H 202.021 3.24627 -2.68692 0
M  V30 2117 H 200.745 2.90532 -1.49193 0
M  V30 2118 H 199.404 1.69742 -3.24936 0
M  V30 2119 H 199.052 4.14175 -2.85426 0
M  V30 2120 H 198.752 3.71028 -4.55645 0
M  V30 2121 H 200.276 4.52387 -4.10095 0
M  V30 2122 H 201.69 2.51117 -5.15377 0
M  V30 2123 H 200.087 1.9241 -5.68417 0
M  V30 2124 H 201.157 0.84136 -4.77545 0
M  V30 2125 N 202.5 1.5196 0.417844 0
M  V30 2126 C 203.777 1.56146 1.17803 0
M  V30 2127 C 204.157 0.337275 2.08388 0
M  V30 2128 O 203.505 -0.676447 2.18258 0
M  V30 2129 C 203.715 2.88566 1.96293 0
M  V30 2130 C 205.063 3.41244 2.52662 0
M  V30 2131 O 206.087 2.90247 2.06483 0
M  V30 2132 O 204.946 4.30273 3.36938 0
M  V30 2133 H 202.04 0.628598 0.537395 0
M  V30 2134 H 204.586 1.64283 0.425331 0
M  V30 2135 H 203.358 3.69116 1.2988 0
M  V30 2136 H 202.981 2.83681 2.78587 0
M  V30 2137 N 203.978 -0.674533 1.42435 0
M  V30 2138 C 204.888 -1.81751 1.48337 0
M  V30 2139 C 205.904 -1.69975 0.372099 0
M  V30 2140 O 207.08 -1.91521 0.62304 0
M  V30 2141 C 204.145 -3.17895 1.38361 0
M  V30 2142 C 203.206 -3.41625 2.59982 0
M  V30 2143 C 202.439 -4.71274 2.50473 0
M  V30 2144 O 202.662 -5.49197 1.54075 0
M  V30 2145 O 201.596 -4.96254 3.4061 0
M  V30 2146 H 205.422 -1.79728 2.44809 0
M  V30 2147 H 203.007 -0.830312 1.24202 0
M  V30 2148 H 204.889 -3.99136 1.35161 0
M  V30 2149 H 203.564 -3.20555 0.450144 0
M  V30 2150 H 202.471 -2.60231 2.68757 0
M  V30 2151 H 203.804 -3.43796 3.52229 0
M  V30 2152 N 205.456 -1.28612 -0.910864 0
M  V30 2153 C 206.867 -1.14406 -1.47541 0
M  V30 2154 C 207.218 0.264901 -1.94403 0
M  V30 2155 O 206.343 1.15942 -1.82719 0
M  V30 2156 C 206.938 -2.07073 -2.68153 0
M  V30 2157 C 205.497 -1.96923 -3.20778 0
M  V30 2158 C 204.644 -1.98646 -1.93481 0
M  V30 2159 H 207.595 -1.41259 -0.723291 0
M  V30 2160 H 207.616 -1.63642 -3.43514 0
M  V30 2161 H 207.128 -3.09611 -2.34015 0
M  V30 2162 H 205.229 -0.97433 -3.59635 0
M  V30 2163 H 205.342 -2.84026 -3.85832 0
M  V30 2164 H 203.706 -1.43093 -2.10705 0
M  V30 2165 H 204.489 -3.02868 -1.61634 0
M  V30 2166 N 206.934 1.1197 -1.10907 0
M  V30 2167 C 207.897 2.16031 -0.765707 0
M  V30 2168 C 208.897 1.59393 0.212235 0
M  V30 2169 O 210.087 1.74196 -0.0115441 0
M  V30 2170 C 207.219 3.40632 -0.135053 0
M  V30 2171 H 208.412 2.47919 -1.68748 0
M  V30 2172 H 205.965 1.27061 -0.910226 0
M  V30 2173 H 206.7 3.14348 0.797218 0
M  V30 2174 H 206.485 3.8302 -0.838937 0
M  V30 2175 H 207.975 4.17505 0.0892469 0
M  V30 2176 N 208.412 0.89855 1.29475 0
M  V30 2177 C 209.642 0.538479 1.99459 0
M  V30 2178 C 210.05 -0.880922 1.67441 0
M  V30 2179 O 209.393 -1.59283 0.915127 0
M  V30 2180 C 209.455 0.649564 3.53583 0
M  V30 2181 C 209.119 2.03573 4.09154 0
M  V30 2182 C 210.116 3.00675 4.24135 0
M  V30 2183 C 207.801 2.3448 4.44212 0
M  V30 2184 C 209.795 4.26809 4.73405 0
M  V30 2185 C 207.482 3.60857 4.93179 0
M  V30 2186 C 208.48 4.56836 5.0773 0
M  V30 2187 O 208.168 5.80969 5.55635 0
M  V30 2188 H 207.9 0.205372 0.644048 0
M  V30 2189 H 210.454 1.20958 1.66007 0
M  V30 2190 H 208.684 -0.0785592 3.8662 0
M  V30 2191 H 210.373 0.29881 4.04799 0
M  V30 2192 H 211.139 2.78112 3.97339 0
M  V30 2193 H 207.018 1.60534 4.32145 0
M  V30 2194 H 210.562 5.0173 4.84678 0
M  V30 2195 H 206.459 3.83251 5.19412 0
M  V30 2196 H 207.227 5.83542 5.73952 0
M  V30 2197 N 209.89 -1.43072 0.660911 0
M  V30 2198 C 211.115 -2.06584 0.183805 0
M  V30 2199 C 211.54 -1.49257 -1.14472 0
M  V30 2200 O 210.898 -0.605528 -1.70889 0
M  V30 2201 C 210.946 -3.60418 0.114434 0
M  V30 2202 O 210.05 -4.01981 -0.921137 0
M  V30 2203 H 209.391 -0.656669 0.0983994 0
M  V30 2204 H 211.921 -1.83447 0.906006 0
M  V30 2205 H 211.931 -4.07946 -0.0663394 0
M  V30 2206 H 210.606 -4.01519 1.08422 0
M  V30 2207 H 209.183 -3.66029 -0.71253 0
M  V30 2208 N 211.368 -0.403325 -1.52352 0
M  V30 2209 C 212.616 0.174003 -2.0135 0
M  V30 2210 C 212.937 1.46139 -1.29106 0
M  V30 2211 O 212.207 1.91448 -0.415253 0
M  V30 2212 H 210.787 0.0672911 -0.743963 0
M  V30 2213 H 213.449 -0.538235 -1.87321 0
M  V30 2214 H 212.545 0.374254 -3.09848 0
M  V30 2215 N 212.846 1.57033 -0.133567 0
M  V30 2216 C 214.074 2.00044 0.528195 0
M  V30 2217 C 214.489 1.01349 1.59291 0
M  V30 2218 O 213.846 0.00848369 1.82498 0
M  V30 2219 C 213.897 3.43018 1.1411 0
M  V30 2220 O 213.618 4.37939 0.11892 0
M  V30 2221 C 215.119 4.01237 1.88477 0
M  V30 2222 H 212.339 0.656517 0.138661 0
M  V30 2223 H 214.883 2.03267 -0.224196 0
M  V30 2224 H 213.038 3.40688 1.84418 0
M  V30 2225 H 213.452 5.21436 0.56613 0
M  V30 2226 H 214.926 5.03314 2.26669 0
M  V30 2227 H 215.403 3.41193 2.76558 0
M  V30 2228 H 216.009 4.07156 1.22898 0
M  V30 2229 N 214.325 -0.140222 1.56975 0
M  V30 2230 C 215.255 -1.17456 2.01808 0
M  V30 2231 C 216.236 -1.44415 0.898794 0
M  V30 2232 O 217.421 -1.5522 1.16707 0
M  V30 2233 C 214.551 -2.50607 2.40444 0
M  V30 2234 C 213.505 -2.38155 3.55621 0
M  V30 2235 C 212.831 -3.76078 3.80091 0
M  V30 2236 C 214.131 -1.85991 4.88062 0
M  V30 2237 H 215.825 -0.801743 2.88466 0
M  V30 2238 H 213.371 -0.38422 1.38779 0
M  V30 2239 H 215.324 -3.23197 2.7041 0
M  V30 2240 H 214.048 -2.89737 1.50732 0
M  V30 2241 H 212.707 -1.68016 3.25832 0
M  V30 2242 H 212.355 -4.12656 2.87618 0
M  V30 2243 H 212.055 -3.68606 4.57606 0
M  V30 2244 H 213.579 -4.50206 4.12488 0
M  V30 2245 H 214.993 -2.4838 5.16701 0
M  V30 2246 H 213.39 -1.89393 5.6943 0
M  V30 2247 H 214.46 -0.816023 4.77984 0
M  V30 2248 N 215.803 -1.52179 -0.40978 0
M  V30 2249 C 216.735 -1.71703 -1.51825 0
M  V30 2250 C 217.748 -0.597445 -1.51441 0
M  V30 2251 O 218.937 -0.872582 -1.55719 0
M  V30 2252 C 216.037 -1.74171 -2.90719 0
M  V30 2253 C 215.21 -3.03156 -3.15302 0
M  V30 2254 C 214.269 -2.97445 -4.34065 0
M  V30 2255 O 213.295 -3.71352 -4.31377 0
M  V30 2256 N 214.497 -2.15191 -5.39141 0
M  V30 2257 H 217.262 -2.67334 -1.35472 0
M  V30 2258 H 214.823 -1.50409 -0.599069 0
M  V30 2259 H 216.815 -1.67884 -3.68235 0
M  V30 2260 H 215.385 -0.860166 -3.00533 0
M  V30 2261 H 214.605 -3.23097 -2.25836 0
M  V30 2262 H 215.893 -3.88484 -3.28569 0
M  V30 2263 H 215.291 -1.54573 -5.44173 0
M  V30 2264 H 213.848 -2.1476 -6.15403 0
M  V30 2265 N 217.281 0.66697 -1.42791 0
M  V30 2266 C 218.506 1.46004 -1.47301 0
M  V30 2267 C 218.931 1.87894 -0.0880317 0
M  V30 2268 O 218.289 1.56502 0.915253 0
M  V30 2269 C 218.337 2.68031 -2.41229 0
M  V30 2270 O 217.441 3.6659 -1.88906 0
M  V30 2271 H 216.782 0.43832 -0.49877 0
M  V30 2272 H 219.312 0.817391 -1.87563 0
M  V30 2273 H 219.322 3.1601 -2.58073 0
M  V30 2274 H 217.997 2.36883 -3.41847 0
M  V30 2275 H 216.574 3.25661 -1.81656 0
M  V30 2276 N 218.759 1.29093 0.90403 0
M  V30 2277 C 219.689 1.16401 2.02418 0
M  V30 2278 C 220.67 0.0593085 1.69997 0
M  V30 2279 O 221.855 0.238021 1.92736 0
M  V30 2280 C 218.985 0.835233 3.37107 0
M  V30 2281 C 217.939 1.89578 3.83724 0
M  V30 2282 C 217.265 1.42041 5.15489 0
M  V30 2283 C 218.565 3.30394 4.04521 0
M  V30 2284 H 220.259 2.10109 2.13295 0
M  V30 2285 H 217.805 1.01157 1.02486 0
M  V30 2286 H 219.758 0.733169 4.14973 0
M  V30 2287 H 218.482 -0.137543 3.2631 0
M  V30 2288 H 217.141 1.98715 3.08071 0
M  V30 2289 H 216.789 0.436426 5.01103 0
M  V30 2290 H 216.489 2.12964 5.4765 0
M  V30 2291 H 218.013 1.33176 5.959 0
M  V30 2292 H 219.427 3.24123 4.72882 0
M  V30 2293 H 217.824 3.99237 4.48029 0
M  V30 2294 H 218.894 3.73692 3.09002 0
M  V30 2295 N 220.237 -1.11381 1.11499 0
M  V30 2296 C 221.187 -2.15555 0.74298 0
M  V30 2297 C 222.171 -1.58894 -0.253276 0
M  V30 2298 O 223.363 -1.76897 -0.0602918 0
M  V30 2299 C 220.492 -3.42782 0.188481 0
M  V30 2300 C 219.578 -4.064 1.21244 0
M  V30 2301 N 219.969 -4.44864 2.40685 0
M  V30 2302 C 218.267 -4.3333 1.05552 0
M  V30 2303 C 218.968 -4.94715 3.05994 0
M  V30 2304 N 217.944 -4.90909 2.33472 0
M  V30 2305 H 221.746 -2.43074 1.65203 0
M  V30 2306 H 219.26 -1.28401 0.994329 0
M  V30 2307 H 221.257 -4.16789 -0.0961693 0
M  V30 2308 H 219.917 -3.16727 -0.715149 0
M  V30 2309 H 220.928 -4.36876 2.78136 0
M  V30 2310 H 217.605 -4.1698 0.208372 0
M  V30 2311 H 218.995 -5.34103 4.07656 0
M  V30 2312 N 221.715 -0.905404 -1.28997 0
M  V30 2313 C 223.126 -0.581953 -1.77398 0
M  V30 2314 C 223.477 0.902552 -1.74208 0
M  V30 2315 O 222.602 1.70584 -1.33154 0
M  V30 2316 C 223.197 -1.04961 -3.22131 0
M  V30 2317 C 221.756 -0.777229 -3.68288 0
M  V30 2318 C 220.903 -1.22109 -2.48967 0
M  V30 2319 H 223.854 -1.08754 -1.15578 0
M  V30 2320 H 223.875 -0.387387 -3.78523 0
M  V30 2321 H 223.387 -2.13008 -3.24421 0
M  V30 2322 H 221.488 0.290383 -3.71467 0
M  V30 2323 H 221.601 -1.37911 -4.58822 0
M  V30 2324 H 219.965 -0.639971 -2.46529 0
M  V30 2325 H 220.748 -2.30972 -2.53982 0
M  V30 2326 N 223.193 1.4272 -0.668489 0
M  V30 2327 C 224.123 2.335 -0.000100175 0
M  V30 2328 C 225.104 1.50328 0.795964 0
M  V30 2329 O 226.289 1.78949 0.754385 0
M  V30 2330 C 223.419 3.33874 0.956302 0
M  V30 2331 C 222.373 4.27152 0.269278 0
M  V30 2332 C 221.699 5.17684 1.33818 0
M  V30 2333 C 222.999 5.15373 -0.847805 0
M  V30 2334 H 224.693 2.89639 -0.758244 0
M  V30 2335 H 222.239 1.39269 -0.366079 0
M  V30 2336 H 224.192 3.9629 1.43292 0
M  V30 2337 H 222.916 2.76025 1.74579 0
M  V30 2338 H 221.575 3.66123 -0.187042 0
M  V30 2339 H 221.223 4.56165 2.1195 0
M  V30 2340 H 220.923 5.80918 0.883659 0
M  V30 2341 H 222.447 5.82974 1.81586 0
M  V30 2342 H 223.861 5.7151 -0.452681 0
M  V30 2343 H 222.258 5.87407 -1.22773 0
M  V30 2344 H 223.328 4.5415 -1.69929 0
M  V30 2345 N 224.671 0.411399 1.52136 0
M  V30 2346 C 225.919 -0.163322 2.01439 0
M  V30 2347 C 226.24 -1.45453 1.29879 0
M  V30 2348 O 225.51 -1.91225 0.4254 0
M  V30 2349 H 224.09 -0.0633447 0.744309 0
M  V30 2350 H 226.752 0.548161 1.87033 0
M  V30 2351 H 225.848 -0.357817 3.10042 0
M  V30 2352 N 226.149 -1.5696 0.141893 0
M  V30 2353 C 227.389 -1.9785 -0.513304 0
M  V30 2354 C 227.753 -1.02467 -1.62371 0
M  V30 2355 O 228.954 -1.32382 -2.33941 0
M  V30 2356 C 227.225 -3.42797 -1.01118 0
M  V30 2357 S 228.784 -4.05709 -1.67169 0
M  V30 2358 H 225.602 -0.691318 -0.166135 0
M  V30 2359 H 228.204 -1.94114 0.232398 0
M  V30 2360 H 226.908 -4.0995 -0.192179 0
M  V30 2361 H 226.439 -3.50235 -1.79162 0
M  V30 2362 H 228.454 -3.98342 -2.95868 0
M  V30 2363 N 227.627 0.131896 -1.57047 0
M  V30 2364 C 228.575 1.18146 -2.0036 0
M  V30 2365 C 229.569 1.43614 -0.898406 0
M  V30 2366 O 230.775 1.43729 -1.08361 0
M  V30 2367 H 227.15 0.398042 -0.638018 0
M  V30 2368 H 229.121 0.789564 -2.87765 0
M  V30 2369 C 227.87 2.50341 -2.41298 0
M  V30 2370 H 227.193 2.31578 -3.25902 0
M  V30 2371 H 228.633 3.22371 -2.75414 0
M  V30 2372 C 227.092 3.11984 -1.27153 0
M  V30 2373 O 227.622 3.97484 -0.580459 0
M  V30 2374 N 225.828 2.71662 -1.03189 0
M  V30 2375 H 225.375 2.02231 -1.59564 0
M  V30 2376 H 225.333 3.13238 -0.270077 0
M  V30 2377 N 229.106 1.52395 0.401703 0
M  V30 2378 C 230.355 1.66044 1.14509 0
M  V30 2379 C 230.668 0.400216 1.91462 0
M  V30 2380 O 231.874 0.416632 2.68284 0
M  V30 2381 C 230.33 2.93388 2.0845 0
M  V30 2382 C 229.938 4.26545 1.36978 0
M  V30 2383 C 231.682 3.16402 2.83001 0
M  V30 2384 C 229.589 5.45007 2.29611 0
M  V30 2385 H 228.519 0.618562 0.431158 0
M  V30 2386 H 231.17 1.78886 0.40892 0
M  V30 2387 H 229.552 2.74263 2.8565 0
M  V30 2388 H 230.726 4.56179 0.650916 0
M  V30 2389 H 229.041 4.09692 0.74438 0
M  V30 2390 H 231.638 4.02085 3.52465 0
M  V30 2391 H 231.981 2.30943 3.46368 0
M  V30 2392 H 232.514 3.36034 2.12898 0
M  V30 2393 H 229.253 6.32835 1.70879 0
M  V30 2394 H 228.773 5.19702 2.9945 0
M  V30 2395 H 230.452 5.7838 2.89974 0
M  V30 2396 N 230.584 -0.659388 1.43143 0
M  V30 2397 C 231.833 -1.41518 1.43721 0
M  V30 2398 C 232.146 -1.95499 0.0628176 0
M  V30 2399 O 233.352 -2.71446 -0.0539683 0
M  V30 2400 C 231.808 -2.5608 2.52885 0
M  V30 2401 C 231.416 -2.08733 3.96402 0
M  V30 2402 C 233.16 -3.3349 2.62649 0
M  V30 2403 C 231.067 -3.20469 4.97045 0
M  V30 2404 H 229.997 -0.531705 0.534608 0
M  V30 2405 H 232.648 -0.712343 1.69109 0
M  V30 2406 H 231.03 -3.28805 2.20688 0
M  V30 2407 H 232.204 -1.43059 4.3803 0
M  V30 2408 H 230.519 -1.44219 3.90627 0
M  V30 2409 H 233.116 -4.16734 3.35017 0
M  V30 2410 H 233.459 -3.8111 1.67513 0
M  V30 2411 H 233.992 -2.67842 2.94118 0
M  V30 2412 H 230.731 -2.77824 5.93712 0
M  V30 2413 H 230.251 -3.84874 4.60034 0
M  V30 2414 H 231.93 -3.85698 5.19467 0
M  V30 2415 N 232.062 -1.29571 -0.897171 0
M  V30 2416 C 233.01 -1.14802 -2.02295 0
M  V30 2417 C 234.004 -0.0629637 -1.69283 0
M  V30 2418 O 235.21 -0.222945 -1.78614 0
M  V30 2419 H 231.585 -0.354692 -0.663097 0
M  V30 2420 H 233.556 -2.10108 -2.11889 0
M  V30 2421 C 232.305 -0.843966 -3.37302 0
M  V30 2422 H 231.628 -1.67093 -3.63208 0
M  V30 2423 H 233.068 -0.780672 -4.16751 0
M  V30 2424 C 231.527 0.452843 -3.33843 0
M  V30 2425 O 232.057 1.47813 -3.73516 0
M  V30 2426 N 230.263 0.459601 -2.86943 0
M  V30 2427 H 229.81 -0.375213 -2.54853 0
M  V30 2428 H 229.768 1.32726 -2.85011 0
M  V30 2429 N 233.54 1.10788 -1.12088 0
M  V30 2430 C 234.786 1.82942 -0.875226 0
M  V30 2431 C 235.119 1.84779 0.597538 0
M  V30 2432 O 234.394 1.30578 1.44152 0
M  V30 2433 C 234.677 3.29789 -1.44606 0
M  V30 2434 C 234.53 3.36307 -2.98693 0
M  V30 2435 C 235.849 4.26064 -1.10261 0
M  V30 2436 H 232.968 0.664195 -0.319397 0
M  V30 2437 H 235.61 1.29867 -1.38689 0
M  V30 2438 H 233.76 3.75118 -1.01089 0
M  V30 2439 H 235.432 2.99487 -3.50864 0
M  V30 2440 H 233.675 2.76318 -3.34411 0
M  V30 2441 H 234.346 4.39694 -3.33726 0
M  V30 2442 H 236.822 3.88951 -1.4784 0
M  V30 2443 H 235.698 5.27183 -1.52869 0
M  V30 2444 H 235.959 4.42098 -0.0142953 0
M  V30 2445 N 235.018 0.912232 1.28515 0
M  V30 2446 C 235.981 0.404223 2.25607 0
M  V30 2447 C 236.981 -0.468602 1.53821 0
M  V30 2448 O 238.171 -0.271873 1.72065 0
M  V30 2449 C 235.303 -0.420653 3.38295 0
M  V30 2450 H 236.496 1.26188 2.7206 0
M  V30 2451 H 234.049 0.691495 1.40171 0
M  V30 2452 H 234.784 -1.29777 2.97201 0
M  V30 2453 H 234.569 0.204935 3.91564 0
M  V30 2454 H 236.059 -0.766971 4.10496 0
M  V30 2455 N 236.496 -1.42363 0.676048 0
M  V30 2456 C 237.721 -2.06377 0.205705 0
M  V30 2457 C 238.146 -1.50463 -1.12883 0
M  V30 2458 O 237.504 -0.623619 -1.70237 0
M  V30 2459 C 237.552 -3.60277 0.152655 0
M  V30 2460 O 236.656 -4.02935 -0.87845 0
M  V30 2461 H 235.997 -0.655588 0.105359 0
M  V30 2462 H 238.527 -1.82475 0.925412 0
M  V30 2463 H 238.537 -4.07993 -0.0230675 0
M  V30 2464 H 237.212 -4.00346 1.12675 0
M  V30 2465 H 235.789 -3.66764 -0.673668 0
M  V30 2466 N 237.974 -0.419461 -1.51915 0
M  V30 2467 C 239.251 0.211999 -1.94448 0
M  V30 2468 C 239.631 1.61703 -1.35703 0
M  V30 2469 O 238.979 2.22102 -0.536931 0
M  V30 2470 C 239.189 0.207872 -3.4838 0
M  V30 2471 C 240.537 0.422192 -4.22496 0
M  V30 2472 O 241.561 0.286778 -3.55044 0
M  V30 2473 O 240.42 0.690009 -5.42126 0
M  V30 2474 H 237.514 0.139586 -0.815135 0
M  V30 2475 H 240.06 -0.476151 -1.62883 0
M  V30 2476 H 238.832 -0.775102 -3.83546 0
M  V30 2477 H 238.455 0.939688 -3.86336 0
M  V30 2478 N 239.452 1.56882 -0.150215 0
M  V30 2479 C 240.362 2.20494 0.801222 0
M  V30 2480 C 241.378 1.19019 1.26927 0
M  V30 2481 O 242.554 1.51607 1.32579 0
M  V30 2482 C 239.619 2.81659 2.02161 0
M  V30 2483 C 238.68 3.9827 1.60249 0
M  V30 2484 C 237.913 4.56508 2.7647 0
M  V30 2485 O 238.136 4.13627 3.92771 0
M  V30 2486 O 237.07 5.46719 2.51757 0
M  V30 2487 H 240.896 3.02315 0.289717 0
M  V30 2488 H 238.481 1.49202 0.0769684 0
M  V30 2489 H 240.363 3.20522 2.73576 0
M  V30 2490 H 239.038 2.02849 2.52258 0
M  V30 2491 H 237.945 3.64117 0.858477 0
M  V30 2492 H 239.278 4.78609 1.14864 0
M  V30 2493 N 240.93 -0.123565 1.57115 0
M  V30 2494 C 242.155 -0.850398 1.89164 0
M  V30 2495 C 242.58 -1.7286 0.741688 0
M  V30 2496 O 241.938 -1.78665 -0.307958 0
M  V30 2497 C 241.986 -1.66353 3.19936 0
M  V30 2498 O 241.09 -2.77004 3.0552 0
M  V30 2499 H 240.431 -0.235454 0.620852 0
M  V30 2500 H 242.961 -0.107335 2.04318 0
M  V30 2501 H 242.971 -2.05372 3.52543 0
M  V30 2502 H 241.646 -1.01881 4.03228 0
M  V30 2503 H 240.223 -2.41221 2.84371 0
M  V30 2504 N 242.408 -1.52605 -0.393616 0
M  V30 2505 C 243.656 -1.67093 -1.13685 0
M  V30 2506 C 243.977 -0.411011 -1.90619 0
M  V30 2507 O 243.247 0.574491 -1.87287 0
M  V30 2508 H 241.827 -0.615923 -0.422668 0
M  V30 2509 H 244.489 -1.89704 -0.447039 0
M  V30 2510 H 243.585 -2.51922 -1.84232 0
M  V30 2511 N 243.887 0.651787 -1.4349 0
M  V30 2512 C 245.136 1.40754 -1.44469 0
M  V30 2513 C 245.449 1.95463 -0.0731845 0
M  V30 2514 O 246.655 2.71471 0.0395721 0
M  V30 2515 C 245.111 2.54735 -2.5424 0
M  V30 2516 C 244.719 2.06628 -3.97504 0
M  V30 2517 C 246.463 3.32092 -2.64414 0
M  V30 2518 C 244.37 3.17829 -4.98737 0
M  V30 2519 H 243.3 0.528862 -0.53742 0
M  V30 2520 H 245.951 0.703365 -1.69485 0
M  V30 2521 H 244.333 3.2763 -2.22428 0
M  V30 2522 H 245.507 1.40734 -4.38783 0
M  V30 2523 H 243.822 1.42146 -3.91387 0
M  V30 2524 H 246.419 4.14952 -3.37223 0
M  V30 2525 H 246.762 3.80217 -1.69532 0
M  V30 2526 H 247.295 2.66279 -2.95534 0
M  V30 2527 H 244.034 2.74671 -5.95177 0
M  V30 2528 H 243.554 3.82429 -4.62069 0
M  V30 2529 H 245.233 3.82937 -5.21505 0
M  V30 2530 N 245.365 1.30045 0.890287 0
M  V30 2531 C 246.611 1.18737 1.64406 0
M  V30 2532 C 246.944 -0.258525 1.92472 0
M  V30 2533 O 246.219 -1.18562 1.54186 0
M  V30 2534 C 246.502 2.01087 2.98724 0
M  V30 2535 C 246.355 3.53867 2.77665 0
M  V30 2536 C 247.674 1.84457 3.9958 0
M  V30 2537 H 244.793 0.432698 0.596608 0
M  V30 2538 H 247.435 1.5962 1.0306 0
M  V30 2539 H 245.585 1.66349 3.51084 0
M  V30 2540 H 247.257 3.98637 2.32133 0
M  V30 2541 H 245.5 3.78318 2.12269 0
M  V30 2542 H 246.171 4.06772 3.7315 0
M  V30 2543 H 248.647 2.14817 3.56361 0
M  V30 2544 H 247.523 2.44411 4.91482 0
M  V30 2545 H 247.784 0.802276 4.3476 0
M  V30 2546 N 246.843 -1.10192 1.12674 0
M  V30 2547 C 248.254 -1.63707 0.897604 0
M  V30 2548 C 248.605 -1.87812 -0.567546 0
M  V30 2549 O 247.73 -1.62196 -1.43253 0
M  V30 2550 C 248.325 -2.974 1.62292 0
M  V30 2551 C 246.884 -3.47772 1.43986 0
M  V30 2552 C 246.031 -2.22332 1.65722 0
M  V30 2553 H 248.982 -0.936587 1.28116 0
M  V30 2554 H 249.003 -3.64986 1.07541 0
M  V30 2555 H 248.515 -2.79824 2.68924 0
M  V30 2556 H 246.616 -3.70487 0.396206 0
M  V30 2557 H 246.729 -4.25723 2.19765 0
M  V30 2558 H 245.093 -2.30599 1.08149 0
M  V30 2559 H 245.876 -2.07285 2.73657 0
M  V30 2560 N 248.321 -0.919034 -1.28029 0
M  V30 2561 C 249.598 -0.473668 -1.89778 0
M  V30 2562 C 249.978 1.04783 -1.83259 0
M  V30 2563 O 249.326 1.8982 -1.27202 0
M  V30 2564 C 249.536 -1.00998 -3.34066 0
M  V30 2565 C 250.884 -1.06525 -4.1102 0
M  V30 2566 O 251.908 -0.958996 -3.43048 0
M  V30 2567 O 250.767 -1.22776 -5.3253 0
M  V30 2568 H 247.861 -0.15098 -0.813101 0
M  V30 2569 H 250.407 -1.01016 -1.36359 0
M  V30 2570 H 249.179 -2.05392 -3.33061 0
M  V30 2571 H 248.802 -0.454626 -3.94992 0
M  V30 2572 N 249.799 1.42003 -0.683588 0
M  V30 2573 C 251.024 2.06265 -0.216647 0
M  V30 2574 C 251.449 1.51059 1.12083 0
M  V30 2575 O 250.807 0.632638 1.69904 0
M  V30 2576 C 250.855 3.60191 -0.171759 0
M  V30 2577 O 249.959 4.03396 0.857069 0
M  V30 2578 H 249.3 0.65502 -0.108834 0
M  V30 2579 H 251.83 1.81982 -0.935077 0
M  V30 2580 H 251.84 4.08 0.0014303 0
M  V30 2581 H 250.515 3.99743 -1.14796 0
M  V30 2582 H 249.092 3.67117 0.654208 0
M  V30 2583 N 251.277 0.427512 1.51691 0
M  V30 2584 C 252.207 -0.3796 2.30394 0
M  V30 2585 C 253.188 -1.02982 1.35384 0
M  V30 2586 O 254.373 -1.03534 1.643 0
M  V30 2587 C 251.503 -1.48649 3.1388 0
M  V30 2588 C 250.457 -0.960294 4.17088 0
M  V30 2589 C 249.783 -2.16219 4.89033 0
M  V30 2590 C 251.083 -0.00153679 5.223 0
M  V30 2591 H 252.777 0.277164 2.98114 0
M  V30 2592 H 250.323 0.134739 1.43368 0
M  V30 2593 H 252.276 -2.05826 3.67714 0
M  V30 2594 H 251 -2.1714 2.43962 0
M  V30 2595 H 249.659 -0.410806 3.64291 0
M  V30 2596 H 249.307 -2.83307 4.15628 0
M  V30 2597 H 249.007 -1.81654 5.58816 0
M  V30 2598 H 250.531 -2.73968 5.45687 0
M  V30 2599 H 251.945 -0.482687 5.71264 0
M  V30 2600 H 250.342 0.256199 5.99553 0
M  V30 2601 H 251.412 0.938174 4.75738 0
M  V30 2602 N 252.755 -1.56801 0.158532 0
M  V30 2603 C 254.171 -1.5837 -0.197774 0
M  V30 2604 C 254.371 -1.17334 -1.63814 0
M  V30 2605 O 253.427 -0.878988 -2.36707 0
M  V30 2606 C 254.74 -3.00615 0.0714459 0
M  V30 2607 C 256.288 -3.12999 0.00864533 0
M  V30 2608 C 256.763 -4.57313 0.250685 0
M  V30 2609 N 258.254 -4.62777 0.198014 0
M  V30 2610 C 258.989 -5.72271 0.359642 0
M  V30 2611 N 258.485 -6.90371 0.579625 0
M  V30 2612 N 260.278 -5.61318 0.296438 0
M  V30 2613 H 252.429 -1.81765 1.09887 0
M  V30 2614 H 254.692 -0.841849 0.435884 0
M  V30 2615 H 254.398 -3.35068 1.06874 0
M  V30 2616 H 254.272 -3.71683 -0.642757 0
M  V30 2617 H 256.659 -2.7838 -0.979217 0
M  V30 2618 H 256.74 -2.44393 0.755359 0
M  V30 2619 H 256.384 -4.92639 1.2357 0
M  V30 2620 H 256.314 -5.24061 -0.516489 0
M  V30 2621 H 258.805 -3.77885 0.0331115 0
M  V30 2622 H 259.118 -7.69689 0.69275 0
M  V30 2623 H 257.463 -6.92264 0.616087 0
M  V30 2624 H 260.654 -4.67932 0.125258 0
M  V30 2625 H 260.827 -6.46599 0.425831 0
M  V30 2626 N 254.233 0.115231 -1.57178 0
M  V30 2627 C 255.51 0.852873 -1.76027 0
M  V30 2628 C 255.89 1.97892 -0.73498 0
M  V30 2629 O 255.238 2.27232 0.24036 0
M  V30 2630 C 255.448 1.36608 -3.21153 0
M  V30 2631 C 256.796 1.81692 -3.83762 0
M  V30 2632 O 257.82 1.46278 -3.24779 0
M  V30 2633 O 256.679 2.47104 -4.87444 0
M  V30 2634 H 253.773 0.405296 -0.720877 0
M  V30 2635 H 256.319 0.0986785 -1.69413 0
M  V30 2636 H 255.091 0.558357 -3.87296 0
M  V30 2637 H 254.714 2.18287 -3.3232 0
M  V30 2638 N 255.711 1.52812 0.385517 0
M  V30 2639 C 256.96 1.67249 1.12741 0
M  V30 2640 C 257.273 0.4205 1.91027 0
M  V30 2641 O 258.479 0.445064 2.67827 0
M  V30 2642 C 256.935 2.95583 2.05326 0
M  V30 2643 C 256.543 4.27974 1.32447 0
M  V30 2644 C 258.287 3.19386 2.7963 0
M  V30 2645 C 256.194 5.47412 2.23818 0
M  V30 2646 H 255.124 0.6231 0.424573 0
M  V30 2647 H 257.775 1.79309 0.389924 0
M  V30 2648 H 256.157 2.77277 2.82725 0
M  V30 2649 H 257.331 4.56844 0.602495 0
M  V30 2650 H 255.646 4.10459 0.700885 0
M  V30 2651 H 258.243 4.05801 3.48181 0
M  V30 2652 H 258.586 2.34604 3.43899 0
M  V30 2653 H 259.119 3.38274 2.09322 0
M  V30 2654 H 255.858 6.34612 1.64157 0
M  V30 2655 H 255.378 5.22849 2.93921 0
M  V30 2656 H 257.057 5.81423 2.83824 0
M  V30 2657 N 257.189 -0.644168 1.43834 0
M  V30 2658 C 258.119 -1.76814 1.52509 0
M  V30 2659 C 259.1 -1.65823 0.379052 0
M  V30 2660 O 260.285 -1.84781 0.597466 0
M  V30 2661 C 257.415 -3.15288 1.4564 0
M  V30 2662 C 256.369 -3.41053 2.58586 0
M  V30 2663 C 255.695 -4.79421 2.36769 0
M  V30 2664 C 256.995 -3.34902 4.00797 0
M  V30 2665 H 258.689 -1.69812 2.46586 0
M  V30 2666 H 256.235 -0.815542 1.1868 0
M  V30 2667 H 258.188 -3.93681 1.50311 0
M  V30 2668 H 256.912 -3.23043 0.480725 0
M  V30 2669 H 255.571 -2.65035 2.53282 0
M  V30 2670 H 255.219 -4.83863 1.37424 0
M  V30 2671 H 254.919 -4.9762 3.12487 0
M  V30 2672 H 256.443 -5.6006 2.43238 0
M  V30 2673 H 257.857 -4.03218 4.07539 0
M  V30 2674 H 256.254 -3.64637 4.76613 0
M  V30 2675 H 257.324 -2.32928 4.25291 0
M  V30 2676 N 258.668 -1.30515 -0.883378 0
M  V30 2677 C 259.893 -1.22487 -1.67367 0
M  V30 2678 C 260.318 0.208767 -1.86938 0
M  V30 2679 O 259.676 1.15015 -1.40148 0
M  V30 2680 C 259.724 -1.96041 -3.02655 0
M  V30 2681 O 258.828 -1.28859 -3.91751 0
M  V30 2682 H 258.169 -0.423573 -0.511353 0
M  V30 2683 H 260.699 -1.72362 -1.10239 0
M  V30 2684 H 260.709 -2.05124 -3.52687 0
M  V30 2685 H 259.384 -3.00307 -2.8773 0
M  V30 2686 H 257.961 -1.28141 -3.50192 0
M  V30 2687 N 260.146 1.09593 -1.13257 0
M  V30 2688 C 261.562 1.33775 -0.870423 0
M  V30 2689 C 261.762 1.95327 0.494926 0
M  V30 2690 O 260.818 2.19853 1.2418 0
M  V30 2691 C 262.131 2.25106 -1.99369 0
M  V30 2692 C 263.679 2.3862 -2.02558 0
M  V30 2693 C 264.154 3.33285 -3.14142 0
M  V30 2694 N 265.645 3.40857 -3.13641 0
M  V30 2695 C 266.38 4.14101 -3.96621 0
M  V30 2696 N 265.876 4.90157 -4.8961 0
M  V30 2697 N 267.669 4.09808 -3.84726 0
M  V30 2698 H 259.82 0.680136 -2.01216 0
M  V30 2699 H 262.083 0.362133 -0.876107 0
M  V30 2700 H 261.789 1.87103 -2.97801 0
M  V30 2701 H 261.663 3.25481 -1.90635 0
M  V30 2702 H 264.05 2.75887 -1.0474 0
M  V30 2703 H 264.131 1.38028 -2.15364 0
M  V30 2704 H 263.775 2.96741 -4.12198 0
M  V30 2705 H 263.705 4.33776 -2.98574 0
M  V30 2706 H 266.196 2.86624 -2.46282 0
M  V30 2707 H 266.509 5.4347 -5.49418 0
M  V30 2708 H 264.854 4.89251 -4.93617 0
M  V30 2709 H 268.045 3.4949 -3.11408 0
M  V30 2710 H 268.218 4.66629 -4.49623 0
M  V30 2711 N 261.624 0.925811 1.2754 0
M  V30 2712 C 262.87 0.575575 1.95086 0
M  V30 2713 C 263.225 -0.873246 1.71441 0
M  V30 2714 O 262.518 -1.61443 1.03183 0
M  V30 2715 C 262.712 0.835296 3.47502 0
M  V30 2716 C 262.541 2.30781 3.85967 0
M  V30 2717 C 261.311 2.96017 4.09514 0
M  V30 2718 C 263.509 3.28519 3.95702 0
M  V30 2719 N 261.491 4.3344 4.34744 0
M  V30 2720 C 262.862 4.51146 4.25285 0
M  V30 2721 C 264.917 3.23753 3.7827 0
M  V30 2722 C 263.62 5.69606 4.39251 0
M  V30 2723 C 265.646 4.41523 3.9346 0
M  V30 2724 C 265.008 5.62928 4.23428 0
M  V30 2725 H 261.107 0.260711 0.737261 0
M  V30 2726 H 263.691 1.19204 1.53943 0
M  V30 2727 H 261.862 0.248005 3.87607 0
M  V30 2728 H 263.594 0.447878 4.02214 0
M  V30 2729 H 260.349 2.46695 4.04275 0
M  V30 2730 H 260.773 5.04528 4.5142 0
M  V30 2731 H 265.415 2.3096 3.54143 0
M  V30 2732 H 263.133 6.62866 4.62205 0
M  V30 2733 H 266.719 4.39351 3.81394 0
M  V30 2734 H 265.599 6.52538 4.34929 0
M  V30 2735 N 263.102 -1.41638 0.69111 0
M  V30 2736 C 264.049 -2.30789 0.0229705 0
M  V30 2737 C 265.019 -1.46863 -0.775911 0
M  V30 2738 O 266.204 -1.75661 -0.74485 0
M  V30 2739 C 263.344 -3.32868 -0.910666 0
M  V30 2740 C 262.457 -4.31875 -0.103874 0
M  V30 2741 C 261.592 -5.21024 -1.03475 0
M  V30 2742 C 260.631 -6.11702 -0.220598 0
M  V30 2743 N 259.768 -6.93349 -1.10504 0
M  V30 2744 H 264.608 -2.87366 0.788978 0
M  V30 2745 H 262.145 -1.41535 0.400794 0
M  V30 2746 H 264.103 -3.90596 -1.46597 0
M  V30 2747 H 262.733 -2.77851 -1.64312 0
M  V30 2748 H 261.785 -3.76131 0.568285 0
M  V30 2749 H 263.097 -4.96003 0.527504 0
M  V30 2750 H 262.251 -5.83565 -1.65943 0
M  V30 2751 H 260.99 -4.57112 -1.69999 0
M  V30 2752 H 259.995 -5.48215 0.417187 0
M  V30 2753 H 261.22 -6.77668 0.440784 0
M  V30 2754 H 259.166 -6.3205 -1.75638 0
M  V30 2755 H 259.083 -7.54146 -0.529125 0
M  V30 2756 H 260.351 -7.60362 -1.71667 0
M  V30 2757 N 264.58 -0.43555 -1.51462 0
M  V30 2758 C 265.991 0.0279871 -1.86679 0
M  V30 2759 C 266.342 1.42104 -1.35281 0
M  V30 2760 O 265.467 2.04667 -0.702878 0
M  V30 2761 C 266.062 0.0575626 -3.38751 0
M  V30 2762 C 264.621 0.465507 -3.7351 0
M  V30 2763 C 263.768 -0.342996 -2.75171 0
M  V30 2764 H 266.719 -0.651473 -1.44712 0
M  V30 2765 H 266.74 0.867421 -3.70481 0
M  V30 2766 H 266.252 -0.956448 -3.7613 0
M  V30 2767 H 264.353 1.48519 -3.41721 0
M  V30 2768 H 264.466 0.191546 -4.78717 0
M  V30 2769 H 262.83 0.198442 -2.53926 0
M  V30 2770 H 263.613 -1.35585 -3.15391 0
M  V30 2771 N 266.058 1.56714 -0.166846 0
M  V30 2772 C 266.968 2.21331 0.777791 0
M  V30 2773 C 267.984 1.20358 1.25658 0
M  V30 2774 O 269.16 1.53005 1.30964 0
M  V30 2775 C 266.225 2.83787 1.99163 0
M  V30 2776 C 265.286 3.99947 1.56016 0
M  V30 2777 C 264.519 4.59415 2.71613 0
M  V30 2778 O 264.742 4.17769 3.88362 0
M  V30 2779 O 263.676 5.49359 2.45945 0
M  V30 2780 H 267.502 3.02605 0.257636 0
M  V30 2781 H 265.087 1.49275 0.0611393 0
M  V30 2782 H 266.969 3.23405 2.70161 0
M  V30 2783 H 265.644 2.05513 2.50092 0
M  V30 2784 H 264.551 3.65007 0.819809 0
M  V30 2785 H 265.884 4.79801 1.09782 0
M  V30 2786 N 267.536 -0.106894 1.57237 0
M  V30 2787 C 268.813 -0.843526 1.76477 0
M  V30 2788 C 269.193 -1.97499 0.745464 0
M  V30 2789 O 268.541 -2.27357 -0.228306 0
M  V30 2790 C 268.751 -1.34903 3.21873 0
M  V30 2791 C 270.099 -1.79654 3.8472 0
M  V30 2792 O 271.123 -1.44554 3.2555 0
M  V30 2793 O 269.982 -2.44515 4.88748 0
M  V30 2794 H 267.076 -0.401468 0.723016 0
M  V30 2795 H 269.622 -0.0896927 1.69463 0
M  V30 2796 H 268.394 -0.53781 3.87586 0
M  V30 2797 H 268.017 -2.16522 3.33473 0
M  V30 2798 N 269.014 -1.53014 -0.377408 0
M  V30 2799 C 269.977 -1.77957 -1.44444 0
M  V30 2800 C 270.977 -0.649763 -1.47087 0
M  V30 2801 O 272.167 -0.917897 -1.48055 0
M  V30 2802 C 269.299 -1.89089 -2.83651 0
M  V30 2803 H 270.492 -2.73243 -1.23606 0
M  V30 2804 H 268.045 -1.43912 -0.609844 0
M  V30 2805 H 268.78 -0.958293 -3.09818 0
M  V30 2806 H 268.565 -2.71254 -2.83132 0
M  V30 2807 H 270.055 -2.1002 -3.60945 0
M  V30 2808 N 270.492 0.636531 -1.44174 0
M  V30 2809 C 271.439 1.74875 -1.50624 0
M  V30 2810 C 272.409 1.62275 -0.35442 0
M  V30 2811 O 273.594 1.82276 -0.563908 0
M  V30 2812 C 270.734 3.13102 -1.45125 0
M  V30 2813 C 269.847 3.36717 -2.7064 0
M  V30 2814 C 268.982 4.64885 -2.57013 0
M  V30 2815 C 268.021 4.8166 -3.77717 0
M  V30 2816 N 267.158 6.01101 -3.62798 0
M  V30 2817 H 271.998 1.68697 -2.45653 0
M  V30 2818 H 269.535 0.823004 -1.21922 0
M  V30 2819 H 271.493 3.93034 -1.39929 0
M  V30 2820 H 270.123 3.18308 -0.536671 0
M  V30 2821 H 269.175 2.50763 -2.86046 0
M  V30 2822 H 270.487 3.44993 -3.60252 0
M  V30 2823 H 269.641 5.52969 -2.49619 0
M  V30 2824 H 268.38 4.58957 -1.64953 0
M  V30 2825 H 267.385 3.92007 -3.85501 0
M  V30 2826 H 268.61 4.89406 -4.70807 0
M  V30 2827 H 266.556 5.96273 -2.73486 0
M  V30 2828 H 266.473 6.10409 -4.46023 0
M  V30 2829 H 267.741 6.91761 -3.59286 0
M  V30 2830 N 271.97 1.30982 0.876444 0
M  V30 2831 C 272.918 1.18006 2.00443 0
M  V30 2832 C 273.912 0.0898871 1.69161 0
M  V30 2833 O 275.118 0.251333 1.78237 0
M  V30 2834 H 271.493 0.365196 0.65737 0
M  V30 2835 H 273.464 2.13453 2.0852 0
M  V30 2836 C 272.213 0.897521 3.35916 0
M  V30 2837 H 271.536 1.7285 3.60504 0
M  V30 2838 H 272.976 0.846874 4.15456 0
M  V30 2839 C 271.435 -0.399674 3.34521 0
M  V30 2840 O 271.965 -1.41852 3.7582 0
M  V30 2841 N 270.171 -0.413893 2.87637 0
M  V30 2842 H 269.718 0.41571 2.54224 0
M  V30 2843 H 269.676 -1.28175 2.87086 0
M  V30 2844 N 273.449 -1.08991 1.13837 0
M  V30 2845 C 274.86 -1.62746 0.914917 0
M  V30 2846 C 275.211 -1.88403 -0.547594 0
M  V30 2847 O 274.336 -1.63706 -1.41525 0
M  V30 2848 C 274.931 -2.95662 1.65437 0
M  V30 2849 C 273.49 -3.46225 1.47666 0
M  V30 2850 C 272.637 -2.20562 1.6807 0
M  V30 2851 H 275.588 -0.922946 1.29102 0
M  V30 2852 H 275.609 -3.63825 1.11407 0
M  V30 2853 H 275.121 -2.76956 2.71877 0
M  V30 2854 H 273.222 -3.70046 0.435478 0
M  V30 2855 H 273.335 -4.23368 2.24268 0
M  V30 2856 H 271.699 -2.29439 1.10589 0
M  V30 2857 H 272.482 -2.0437 2.7584 0
M  V30 2858 N 274.927 -0.932562 -1.27047 0
M  V30 2859 C 275.859 -0.392734 -2.2581 0
M  V30 2860 C 276.872 0.479241 -1.55586 0
M  V30 2861 O 278.061 0.291078 -1.76111 0
M  V30 2862 C 275.161 0.455456 -3.35826 0
M  V30 2863 C 274.334 -0.398355 -4.35582 0
M  V30 2864 C 273.393 0.387985 -5.24768 0
M  V30 2865 O 272.419 -0.206003 -5.68827 0
M  V30 2866 N 273.621 1.68664 -5.55457 0
M  V30 2867 H 276.386 -1.24173 -2.72766 0
M  V30 2868 H 273.947 -0.800511 -1.40725 0
M  V30 2869 H 275.939 0.988692 -3.92437 0
M  V30 2870 H 274.509 1.20522 -2.88432 0
M  V30 2871 H 273.729 -1.11286 -3.78165 0
M  V30 2872 H 275.017 -0.981889 -4.99236 0
M  V30 2873 H 274.415 2.19147 -5.21528 0
M  V30 2874 H 272.972 2.1663 -6.14748 0
M  V30 2875 N 276.405 1.4127 -0.698611 0
M  V30 2876 C 277.352 2.30773 -0.0352094 0
M  V30 2877 C 278.322 1.47273 0.768111 0
M  V30 2878 O 279.507 1.76053 0.735524 0
M  V30 2879 C 276.647 3.33346 0.893 0
M  V30 2880 C 275.76 4.31924 0.0809695 0
M  V30 2881 C 274.895 5.21566 1.0071 0
M  V30 2882 C 273.934 6.11811 0.188155 0
M  V30 2883 N 273.071 6.93926 1.06825 0
M  V30 2884 H 277.911 2.86943 -0.804207 0
M  V30 2885 H 275.448 1.4132 -0.408294 0
M  V30 2886 H 277.406 3.91368 1.44523 0
M  V30 2887 H 276.036 2.78719 1.62836 0
M  V30 2888 H 275.088 3.75825 -0.588224 0
M  V30 2889 H 276.4 4.95716 -0.553801 0
M  V30 2890 H 275.554 5.84437 1.62845 0
M  V30 2891 H 274.293 4.58008 1.67572 0
M  V30 2892 H 273.298 5.47986 -0.446254 0
M  V30 2893 H 274.523 6.77425 -0.476716 0
M  V30 2894 H 272.469 6.32973 1.72283 0
M  V30 2895 H 272.386 7.54416 0.489123 0
M  V30 2896 H 273.654 7.61262 1.67632 0
M  V30 2897 N 277.883 0.443576 1.51229 0
M  V30 2898 C 278.831 -0.37904 2.29491 0
M  V30 2899 C 279.825 -1.0153 1.35603 0
M  V30 2900 O 281.031 -0.94955 1.52917 0
M  V30 2901 H 277.406 -0.141053 0.738653 0
M  V30 2902 H 279.377 0.301799 2.9687 0
M  V30 2903 C 278.126 -1.46426 3.15364 0
M  V30 2904 H 277.449 -0.984037 3.87501 0
M  V30 2905 H 278.889 -2.01297 3.7317 0
M  V30 2906 C 277.348 -2.45099 2.31146 0
M  V30 2907 O 277.878 -3.49773 1.9754 0
M  V30 2908 N 276.084 -2.16139 1.94249 0
M  V30 2909 H 275.631 -1.31044 2.21777 0
M  V30 2910 H 275.589 -2.82398 1.38198 0
M  V30 2911 N 279.361 -1.56624 0.175154 0
M  V30 2912 C 280.589 -2.01374 -0.474971 0
M  V30 2913 C 281.004 -1.05537 -1.56548 0
M  V30 2914 O 280.361 -0.0568668 -1.82411 0
M  V30 2915 C 280.412 -3.45923 -1.04975 0
M  V30 2916 O 280.133 -4.381 -0.00276605 0
M  V30 2917 C 281.634 -4.06093 -1.77773 0
M  V30 2918 H 278.854 -0.659962 -0.121206 0
M  V30 2919 H 281.398 -2.02601 0.27801 0
M  V30 2920 H 279.553 -3.45458 -1.75321 0
M  V30 2921 H 279.967 -5.22753 -0.427681 0
M  V30 2922 H 281.441 -5.09147 -2.13245 0
M  V30 2923 H 281.918 -3.48405 -2.67414 0
M  V30 2924 H 282.524 -4.10272 -1.12059 0
M  V30 2925 N 280.839 0.0985539 -1.57292 0
M  V30 2926 C 282.25 0.653457 -1.74891 0
M  V30 2927 C 282.601 1.7929 -0.796838 0
M  V30 2928 O 281.726 2.16385 0.0254886 0
M  V30 2929 C 282.321 1.19216 -3.17133 0
M  V30 2930 C 280.88 1.69316 -3.36168 0
M  V30 2931 C 280.027 0.601294 -2.70702 0
M  V30 2932 H 282.978 -0.127497 -1.58187 0
M  V30 2933 H 282.999 2.06154 -3.19814 0
M  V30 2934 H 282.511 0.362635 -3.86402 0
M  V30 2935 H 280.612 2.5468 -2.71972 0
M  V30 2936 H 280.725 1.78853 -4.44464 0
M  V30 2937 H 279.089 1.0399 -2.32504 0
M  V30 2938 H 279.872 -0.217592 -3.4261 0
M  V30 2939 N 282.317 1.53212 0.369288 0
M  V30 2940 C 283.264 1.79388 1.45219 0
M  V30 2941 C 284.234 0.638059 1.53356 0
M  V30 2942 O 285.419 0.879852 1.69302 0
M  V30 2943 C 282.559 1.98623 2.82211 0
M  V30 2944 C 281.672 3.26337 2.8307 0
M  V30 2945 C 280.807 3.35779 4.11614 0
M  V30 2946 C 279.846 4.5754 4.06601 0
M  V30 2947 N 278.983 4.64155 5.26787 0
M  V30 2948 H 283.823 2.71794 1.22198 0
M  V30 2949 H 281.36 1.34642 0.592444 0
M  V30 2950 H 283.318 2.07761 3.61789 0
M  V30 2951 H 281.948 1.09558 3.03639 0
M  V30 2952 H 281 3.26171 1.95747 0
M  V30 2953 H 282.312 4.15988 2.75237 0
M  V30 2954 H 281.466 3.44208 4.99606 0
M  V30 2955 H 280.205 2.44137 4.22195 0
M  V30 2956 H 279.21 4.49215 3.16996 0
M  V30 2957 H 280.435 5.50519 3.97625 0
M  V30 2958 H 278.381 3.75413 5.3796 0
M  V30 2959 H 278.298 5.47706 5.21109 0
M  V30 2960 H 279.566 4.76863 6.16621 0
M  V30 2961 N 283.795 -0.628877 1.44509 0
M  V30 2962 C 285.042 -1.38839 1.47411 0
M  V30 2963 C 285.37 -1.94202 0.10757 0
M  V30 2964 O 284.625 -1.74243 -0.890947 0
M  V30 2965 C 284.924 -2.56995 2.48371 0
M  V30 2966 C 284.59 -2.19908 3.93639 0
M  V30 2967 C 283.252 -2.09506 4.33198 0
M  V30 2968 C 285.604 -1.9064 4.85083 0
M  V30 2969 C 282.932 -1.68028 5.62124 0
M  V30 2970 C 285.284 -1.50655 6.14399 0
M  V30 2971 C 283.948 -1.38796 6.5291 0
M  V30 2972 H 283.218 -0.508048 0.539414 0
M  V30 2973 H 285.865 -0.712913 1.77735 0
M  V30 2974 H 284.17 -3.29786 2.11538 0
M  V30 2975 H 285.867 -3.15223 2.47861 0
M  V30 2976 H 282.457 -2.28922 3.62343 0
M  V30 2977 H 286.641 -1.97585 4.55273 0
M  V30 2978 H 281.897 -1.57452 5.90778 0
M  V30 2979 H 286.071 -1.27048 6.84713 0
M  V30 2980 H 283.698 -1.06429 7.52713 0
M  V30 2981 N 285.273 -1.31445 -0.869486 0
M  V30 2982 C 286.203 -1.21727 -1.99261 0
M  V30 2983 C 287.184 -0.104359 -1.6978 0
M  V30 2984 O 288.369 -0.289038 -1.92037 0
M  V30 2985 C 285.499 -0.924317 -3.34774 0
M  V30 2986 C 284.453 -1.99685 -3.78563 0
M  V30 2987 C 283.779 -1.55658 -5.11541 0
M  V30 2988 C 285.079 -3.41003 -3.95619 0
M  V30 2989 H 286.773 -2.1569 -2.07649 0
M  V30 2990 H 284.319 -1.03839 -0.997675 0
M  V30 2991 H 286.272 -0.842934 -4.12883 0
M  V30 2992 H 284.996 0.0509793 -3.2656 0
M  V30 2993 H 283.655 -2.06813 -3.02694 0
M  V30 2994 H 283.303 -0.569132 -4.9977 0
M  V30 2995 H 283.003 -2.27409 -5.41811 0
M  V30 2996 H 284.527 -1.48928 -5.92159 0
M  V30 2997 H 285.941 -3.36547 -4.64122 0
M  V30 2998 H 284.338 -4.10975 -4.37286 0
M  V30 2999 H 285.408 -3.81754 -2.98985 0
M  V30 3000 N 286.751 1.08385 -1.14413 0
M  V30 3001 C 287.981 1.8425 -0.934644 0
M  V30 3002 C 288.389 1.81907 0.520234 0
M  V30 3003 O 287.732 1.22126 1.37226 0
M  V30 3004 C 287.794 3.32853 -1.35828 0
M  V30 3005 C 287.458 3.5893 -2.82875 0
M  V30 3006 C 288.455 3.53756 -3.80989 0
M  V30 3007 C 286.14 3.86934 -3.20293 0
M  V30 3008 C 288.134 3.76216 -5.14529 0
M  V30 3009 C 285.821 4.09047 -4.54008 0
M  V30 3010 C 286.819 4.03682 -5.50936 0
M  V30 3011 O 286.507 4.25214 -6.82238 0
M  V30 3012 H 286.239 0.588502 -0.332628 0
M  V30 3013 H 288.793 1.37792 -1.52324 0
M  V30 3014 H 287.023 3.8007 -0.713019 0
M  V30 3015 H 288.712 3.90154 -1.11957 0
M  V30 3016 H 289.478 3.32135 -3.53428 0
M  V30 3017 H 285.357 3.9023 -2.45442 0
M  V30 3018 H 288.901 3.71943 -5.90173 0
M  V30 3019 H 284.798 4.30151 -4.8129 0
M  V30 3020 H 285.566 4.42619 -6.88499 0
M  V30 3021 N 288.23 0.939286 1.26551 0
M  V30 3022 C 289.458 0.602536 1.97932 0
M  V30 3023 C 289.873 -0.82206 1.69964 0
M  V30 3024 O 289.23 -1.54789 0.966784 0
M  V30 3025 C 289.281 0.832946 3.51773 0
M  V30 3026 O 289.002 2.20151 3.78768 0
M  V30 3027 C 290.503 0.506483 4.40397 0
M  V30 3028 H 287.723 0.227248 0.631347 0
M  V30 3029 H 290.267 1.25948 1.61113 0
M  V30 3030 H 288.422 0.222644 3.8676 0
M  V30 3031 H 288.836 2.26013 4.73306 0
M  V30 3032 H 290.31 0.718333 5.47306 0
M  V30 3033 H 290.787 -0.558451 4.35635 0
M  V30 3034 H 291.393 1.09543 4.10951 0
M  V30 3035 N 289.708 -1.40897 0.706093 0
M  V30 3036 C 290.954 -2.01352 0.241889 0
M  V30 3037 C 291.287 -1.55832 -1.15888 0
M  V30 3038 O 290.562 -0.774145 -1.7843 0
M  V30 3039 C 290.845 -3.58752 0.311311 0
M  V30 3040 C 290.698 -4.1437 1.74978 0
M  V30 3041 C 292.017 -4.38914 -0.322922 0
M  V30 3042 H 289.136 -0.731562 0.0893687 0
M  V30 3043 H 291.778 -1.67504 0.896802 0
M  V30 3044 H 289.928 -3.87718 -0.246302 0
M  V30 3045 H 291.6 -3.96239 2.36205 0
M  V30 3046 H 289.843 -3.69016 2.28057 0
M  V30 3047 H 290.514 -5.23532 1.74981 0
M  V30 3048 H 292.99 -4.15822 0.152089 0
M  V30 3049 H 291.866 -5.48358 -0.243855 0
M  V30 3050 H 292.127 -4.19176 -1.40513 0
M  V30 3051 N 291.186 -0.45159 -1.50991 0
M  V30 3052 C 292.597 0.00818571 -1.86698 0
M  V30 3053 C 292.948 1.40661 -1.3678 0
M  V30 3054 O 292.073 2.0391 -0.724546 0
M  V30 3055 C 292.668 0.0216303 -3.38793 0
M  V30 3056 C 291.227 0.425865 -3.73983 0
M  V30 3057 C 290.374 -0.372163 -2.74791 0
M  V30 3058 H 293.325 -0.666785 -1.44013 0
M  V30 3059 H 293.346 0.828078 -3.7138 0
M  V30 3060 H 292.858 -0.996288 -3.75094 0
M  V30 3061 H 290.959 1.44886 -3.43277 0
M  V30 3062 H 291.072 0.140761 -4.78893 0
M  V30 3063 H 289.436 0.171498 -2.54122 0
M  V30 3064 H 290.219 -1.38922 -3.13935 0
M  V30 3065 N 292.664 1.56529 -0.183458 0
M  V30 3066 C 293.612 2.19873 0.758845 0
M  V30 3067 C 294.606 1.16638 1.22849 0
M  V30 3068 O 295.812 1.3481 1.19274 0
M  V30 3069 H 292.187 0.7045 0.263029 0
M  V30 3070 H 294.158 2.97724 0.200755 0
M  V30 3071 C 292.907 2.86314 1.9728 0
M  V30 3072 H 292.23 3.65487 1.62047 0
M  V30 3073 H 293.67 3.3409 2.61075 0
M  V30 3074 C 292.129 1.86729 2.80418 0
M  V30 3075 O 292.659 1.36031 3.77966 0
M  V30 3076 N 290.865 1.55216 2.45675 0
M  V30 3077 H 290.412 1.96636 1.66409 0
M  V30 3078 H 290.37 0.888388 3.01588 0
M  V30 3079 N 294.142 -0.090211 1.57342 0
M  V30 3080 C 295.39 -0.791241 1.85967 0
M  V30 3081 C 295.711 -1.7903 0.772859 0
M  V30 3082 O 294.981 -1.94872 -0.200398 0
M  V30 3083 H 293.561 -0.295205 0.686195 0
M  V30 3084 H 296.223 -0.0706782 1.94772 0
M  V30 3085 H 295.319 -1.31882 2.82867 0
M  V30 3086 N 295.62 -1.53406 -0.361157 0
M  V30 3087 C 296.568 -1.80832 -1.46296 0
M  V30 3088 C 297.562 -0.677699 -1.55253 0
M  V30 3089 O 298.768 -0.860723 -1.58087 0
M  V30 3090 H 295.143 -0.572627 -0.487445 0
M  V30 3091 H 297.114 -2.73045 -1.20371 0
M  V30 3092 C 295.863 -2.01907 -2.8307 0
M  V30 3093 H 295.186 -2.88349 -2.76938 0
M  V30 3094 H 296.626 -2.25072 -3.59331 0
M  V30 3095 C 295.085 -0.799449 -3.27277 0
M  V30 3096 O 295.615 0.00971761 -4.01699 0
M  V30 3097 N 293.821 -0.621637 -2.83873 0
M  V30 3098 H 293.368 -1.28126 -2.23476 0
M  V30 3099 H 293.326 0.19298 -3.13807 0
M  V30 3100 N 297.098 0.621204 -1.44841 0
M  V30 3101 C 298.046 1.75385 -1.52784 0
M  V30 3102 C 299.04 1.64639 -0.398779 0
M  V30 3103 O 300.246 1.70598 -0.574137 0
M  V30 3104 H 296.621 0.579193 -0.479625 0
M  V30 3105 H 298.592 1.6581 -2.48092 0
M  V30 3106 C 297.341 3.13742 -1.4987 0
M  V30 3107 H 296.664 3.22663 -2.36069 0
M  V30 3108 H 298.104 3.92861 -1.59487 0
M  V30 3109 C 296.563 3.36175 -0.220973 0
M  V30 3110 O 297.093 3.95469 0.704782 0
M  V30 3111 N 295.299 2.90348 -0.120963 0
M  V30 3112 H 294.846 2.42278 -0.875162 0
M  V30 3113 H 294.804 3.05732 0.733168 0
M  V30 3114 N 298.576 1.31904 0.862503 0
M  V30 3115 C 299.987 1.19803 1.43193 0
M  V30 3116 C 300.338 -0.192567 1.95253 0
M  V30 3117 O 299.463 -1.09081 1.86896 0
M  V30 3118 C 300.058 2.16883 2.60283 0
M  V30 3119 C 298.617 2.08692 3.13248 0
M  V30 3120 C 297.764 2.05691 1.85975 0
M  V30 3121 H 300.715 1.43846 0.670365 0
M  V30 3122 H 300.736 1.76278 3.37204 0
M  V30 3123 H 300.248 3.18083 2.22363 0
M  V30 3124 H 298.349 1.10713 3.55771 0
M  V30 3125 H 298.462 2.9815 3.75025 0
M  V30 3126 H 296.826 1.50814 2.05249 0
M  V30 3127 H 297.609 3.08659 1.50282 0
M  V30 3128 N 300.054 -1.07777 1.14986 0
M  V30 3129 C 301.282 -1.84018 0.945773 0
M  V30 3130 C 301.697 -1.81897 -0.505863 0
M  V30 3131 O 301.054 -1.22726 -1.35072 0
M  V30 3132 C 301.105 -3.31287 1.44677 0
M  V30 3133 O 300.826 -3.33449 2.84154 0
M  V30 3134 C 302.327 -4.24311 1.28355 0
M  V30 3135 H 299.547 -0.580716 0.336169 0
M  V30 3136 H 302.091 -1.36077 1.52654 0
M  V30 3137 H 300.246 -3.76594 0.908625 0
M  V30 3138 H 300.66 -4.25427 3.06777 0
M  V30 3139 H 302.134 -5.2573 1.68261 0
M  V30 3140 H 302.611 -4.38612 0.227184 0
M  V30 3141 H 303.217 -3.84836 1.81056 0
M  V30 3142 N 301.532 -0.945985 -1.26051 0
M  V30 3143 C 302.78 -0.594941 -1.93145 0
M  V30 3144 C 303.101 0.86953 -1.7454 0
M  V30 3145 O 302.371 1.61838 -1.10387 0
M  V30 3146 H 300.951 -0.217044 -0.714773 0
M  V30 3147 H 303.613 -1.20235 -1.53393 0
M  V30 3148 H 302.709 -0.816835 -3.01221 0
M  V30 3149 N 303.011 1.40521 -0.713556 0
M  V30 3150 C 303.959 2.32549 -0.0485227 0
M  V30 3151 C 304.953 1.51931 0.74922 0
M  V30 3152 O 306.159 1.67745 0.652816 0
M  V30 3153 H 302.534 0.751994 0.00311138 0
M  V30 3154 H 304.505 2.86291 -0.841443 0
M  V30 3155 C 303.254 3.36879 0.860687 0
M  V30 3156 H 302.577 3.98978 0.256246 0
M  V30 3157 H 304.017 4.03772 1.294 0
M  V30 3158 C 302.476 2.72197 1.9852 0
M  V30 3159 O 303.006 2.5837 3.07584 0
M  V30 3160 N 301.212 2.30612 1.76823 0
M  V30 3161 H 300.759 2.42059 0.881217 0
M  V30 3162 H 300.717 1.87672 2.52243 0
M  V30 3163 N 304.489 0.459591 1.5075 0
M  V30 3164 C 305.714 -0.0996819 2.0716 0
M  V30 3165 C 306.139 -1.33761 1.32249 0
M  V30 3166 O 305.497 -1.77551 0.366786 0
M  V30 3167 C 305.545 -0.378226 3.58611 0
M  V30 3168 O 304.649 -1.46081 3.85661 0
M  V30 3169 H 303.99 0.00791392 0.663953 0
M  V30 3170 H 306.52 0.647329 1.9409 0
M  V30 3171 H 306.53 -0.622135 4.03229 0
M  V30 3172 H 305.205 0.526439 4.12555 0
M  V30 3173 H 303.782 -1.20511 3.5289 0
M  V30 3174 N 305.967 -1.56429 0.191757 0
M  V30 3175 C 306.897 -2.21937 -0.725696 0
M  V30 3176 C 307.878 -1.1814 -1.2238 0
M  V30 3177 O 309.063 -1.46636 -1.27325 0
M  V30 3178 C 306.193 -2.87611 -1.94672 0
M  V30 3179 C 305.147 -3.97623 -1.58366 0
M  V30 3180 C 304.473 -4.50446 -2.88102 0
M  V30 3181 C 305.773 -5.16197 -0.796133 0
M  V30 3182 H 307.467 -2.98861 -0.179606 0
M  V30 3183 H 305.013 -1.43749 -0.0849464 0
M  V30 3184 H 306.966 -3.3212 -2.59373 0
M  V30 3185 H 305.69 -2.08087 -2.51728 0
M  V30 3186 H 304.349 -3.53801 -0.960247 0
M  V30 3187 H 303.997 -3.67688 -3.43241 0
M  V30 3188 H 303.697 -5.24675 -2.64556 0
M  V30 3189 H 305.221 -4.97654 -3.53798 0
M  V30 3190 H 306.635 -5.57271 -1.34618 0
M  V30 3191 H 305.032 -5.96471 -0.658928 0
M  V30 3192 H 306.102 -4.84473 0.203478 0
M  V30 3193 N 307.445 0.0818655 -1.57387 0
M  V30 3194 C 308.673 0.796108 -1.9097 0
M  V30 3195 C 309.088 1.71626 -0.786757 0
M  V30 3196 O 308.445 1.80908 0.240513 0
M  V30 3197 C 308.496 1.59829 -3.24248 0
M  V30 3198 O 308.217 0.715131 -4.32224 0
M  V30 3199 C 309.718 2.41442 -3.7178 0
M  V30 3200 H 306.938 0.22691 -0.631469 0
M  V30 3201 H 309.482 0.0551439 -2.04426 0
M  V30 3202 H 307.637 2.29163 -3.12351 0
M  V30 3203 H 308.051 1.27205 -5.08841 0
M  V30 3204 H 309.525 2.932 -4.67694 0
M  V30 3205 H 310.002 3.2051 -3.00283 0
M  V30 3206 H 310.608 1.77283 -3.86589 0
M  V30 3207 N 308.923 1.53595 0.353017 0
M  V30 3208 C 310.148 1.7462 1.11904 0
M  V30 3209 C 310.573 0.479721 1.8188 0
M  V30 3210 O 309.931 -0.567066 1.72204 0
M  V30 3211 C 309.979 2.92029 2.11545 0
M  V30 3212 O 309.083 2.61516 3.18878 0
M  V30 3213 H 308.424 0.579531 0.324099 0
M  V30 3214 H 310.954 2.00525 0.406301 0
M  V30 3215 H 310.964 3.18551 2.5493 0
M  V30 3216 H 309.639 3.83888 1.60008 0
M  V30 3217 H 308.216 2.45852 2.80377 0
M  V30 3218 N 310.401 -0.613514 1.45168 0
M  V30 3219 C 311.311 -1.75296 1.55912 0
M  V30 3220 C 312.327 -1.68244 0.443856 0
M  V30 3221 O 313.503 -1.88706 0.70371 0
M  V30 3222 C 310.568 -3.1174 1.5172 0
M  V30 3223 C 309.629 -3.30291 2.74238 0
M  V30 3224 C 308.862 -4.60226 2.70236 0
M  V30 3225 O 309.085 -5.42168 1.77229 0
M  V30 3226 O 308.019 -4.81361 3.61352 0
M  V30 3227 H 311.845 -1.69183 2.52212 0
M  V30 3228 H 309.43 -0.776886 1.27612 0
M  V30 3229 H 311.312 -3.93044 1.51968 0
M  V30 3230 H 309.987 -3.18357 0.585697 0
M  V30 3231 H 308.894 -2.48598 2.79553 0
M  V30 3232 H 310.227 -3.28547 3.66494 0
M  V30 3233 N 311.879 -1.3236 -0.855495 0
M  V30 3234 C 313.295 -1.11332 -1.14356 0
M  V30 3235 C 313.495 0.106751 -2.01217 0
M  V30 3236 O 312.551 0.791891 -2.39761 0
M  V30 3237 C 313.864 -2.39237 -1.82171 0
M  V30 3238 C 315.412 -2.44986 -1.9481 0
M  V30 3239 C 315.887 -3.7281 -2.66039 0
M  V30 3240 N 317.378 -3.73787 -2.73565 0
M  V30 3241 C 318.113 -4.69394 -3.29327 0
M  V30 3242 N 317.609 -5.75367 -3.85907 0
M  V30 3243 N 319.402 -4.56893 -3.27423 0
M  V30 3244 H 311.553 -2.10586 -0.277027 0
M  V30 3245 H 313.816 -0.929701 -0.185364 0
M  V30 3246 H 313.522 -3.28431 -1.25802 0
M  V30 3247 H 313.396 -2.50134 -2.82335 0
M  V30 3248 H 315.783 -1.56252 -2.50338 0
M  V30 3249 H 315.864 -2.38043 -0.936448 0
M  V30 3250 H 315.508 -4.61918 -2.11174 0
M  V30 3251 H 315.438 -3.77024 -3.67642 0
M  V30 3252 H 317.929 -2.97189 -2.33424 0
M  V30 3253 H 318.242 -6.44378 -4.26611 0
M  V30 3254 H 316.587 -5.79123 -3.84242 0
M  V30 3255 H 319.778 -3.73269 -2.82467 0
M  V30 3256 H 319.951 -5.31577 -3.7058 0
M  V30 3257 N 313.357 1.07166 -1.15556 0
M  V30 3258 C 314.304 2.14417 -0.854055 0
M  V30 3259 C 315.274 1.64965 0.193806 0
M  V30 3260 O 316.459 1.90703 0.0609443 0
M  V30 3261 C 313.599 3.43304 -0.351574 0
M  V30 3262 C 312.712 4.06537 -1.46123 0
M  V30 3263 C 311.847 5.23266 -0.914677 0
M  V30 3264 C 310.886 5.78464 -2.00114 0
M  V30 3265 N 310.023 6.86521 -1.47083 0
M  V30 3266 H 314.863 2.39548 -1.77259 0
M  V30 3267 H 312.4 1.17543 -0.884425 0
M  V30 3268 H 314.358 4.17179 -0.0419409 0
M  V30 3269 H 312.988 3.18419 0.530037 0
M  V30 3270 H 312.04 3.30297 -1.88701 0
M  V30 3271 H 313.352 4.43567 -2.28144 0
M  V30 3272 H 312.506 6.04131 -0.557698 0
M  V30 3273 H 311.245 4.87658 -0.0636583 0
M  V30 3274 H 310.25 4.96243 -2.36692 0
M  V30 3275 H 311.475 6.16126 -2.85597 0
M  V30 3276 H 309.421 6.52849 -0.642198 0
M  V30 3277 H 309.338 7.22446 -2.22729 0
M  V30 3278 H 310.606 7.71087 -1.14215 0
M  V30 3279 N 314.835 0.952656 1.25548 0
M  V30 3280 C 315.782 0.47008 2.25962 0
M  V30 3281 C 316.752 -0.476384 1.59122 0
M  V30 3282 O 317.937 -0.39007 1.8677 0
M  V30 3283 C 315.077 -0.247881 3.44209 0
M  V30 3284 C 314.19 0.735591 4.25691 0
M  V30 3285 C 313.325 -0.0047306 5.312 0
M  V30 3286 C 312.364 0.969805 6.04368 0
M  V30 3287 N 311.501 0.260486 7.01617 0
M  V30 3288 H 316.341 1.33126 2.66611 0
M  V30 3289 H 313.878 0.66765 1.31076 0
M  V30 3290 H 315.836 -0.680695 4.1161 0
M  V30 3291 H 314.466 -1.07312 3.0444 0
M  V30 3292 H 313.518 1.28689 3.57971 0
M  V30 3293 H 314.83 1.47934 4.76358 0
M  V30 3294 H 313.984 -0.496275 6.04667 0
M  V30 3295 H 312.723 -0.781282 4.81401 0
M  V30 3296 H 311.728 1.47237 5.29718 0
M  V30 3297 H 312.953 1.74655 6.56256 0
M  V30 3298 H 310.899 -0.497364 6.54112 0
M  V30 3299 H 310.816 0.943362 7.50091 0
M  V30 3300 H 312.084 -0.209587 7.79218 0
M  V30 3301 N 316.313 -1.40141 0.720998 0
M  V30 3302 C 317.223 -2.34486 0.0731031 0
M  V30 3303 C 318.239 -1.57587 -0.737723 0
M  V30 3304 O 319.415 -1.89949 -0.669429 0
M  V30 3305 C 316.48 -3.36528 -0.833656 0
M  V30 3306 C 315.541 -4.29298 -0.0121673 0
M  V30 3307 C 314.774 -5.26466 -0.875742 0
M  V30 3308 O 314.997 -5.29745 -2.11485 0
M  V30 3309 O 313.931 -6.01092 -0.31185 0
M  V30 3310 H 317.757 -2.9152 0.851444 0
M  V30 3311 H 315.342 -1.41427 0.481527 0
M  V30 3312 H 317.224 -3.99093 -1.35289 0
M  V30 3313 H 315.899 -2.81899 -1.59105 0
M  V30 3314 H 314.806 -3.70001 0.552262 0
M  V30 3315 H 316.139 -4.87094 0.707129 0
M  V30 3316 N 317.792 -0.46758 -1.50504 0
M  V30 3317 C 319.041 0.0902868 -2.01498 0
M  V30 3318 C 319.354 1.411 -1.35463 0
M  V30 3319 O 320.56 2.0536 -1.77594 0
M  V30 3320 C 319.016 0.21142 -3.59278 0
M  V30 3321 C 318.624 -1.10065 -4.34269 0
M  V30 3322 C 320.368 0.721433 -4.18325 0
M  V30 3323 C 318.275 -0.943505 -5.83825 0
M  V30 3324 H 317.205 0.037517 -0.753066 0
M  V30 3325 H 319.856 -0.601943 -1.73346 0
M  V30 3326 H 318.238 0.967352 -3.84003 0
M  V30 3327 H 319.412 -1.86726 -4.21272 0
M  V30 3328 H 317.727 -1.5415 -3.86816 0
M  V30 3329 H 320.324 0.85598 -5.27804 0
M  V30 3330 H 320.667 1.71186 -3.79475 0
M  V30 3331 H 321.2 0.0229843 -3.97793 0
M  V30 3332 H 317.939 -1.90719 -6.27141 0
M  V30 3333 H 317.459 -0.217213 -5.99407 0
M  V30 3334 H 319.138 -0.608715 -6.4413 0
M  V30 3335 N 319.27 1.56325 -0.20005 0
M  V30 3336 C 320.5 2.01811 0.442232 0
M  V30 3337 C 320.908 1.07932 1.55394 0
M  V30 3338 O 320.251 0.0772685 1.83537 0
M  V30 3339 C 320.313 3.43685 1.05457 0
M  V30 3340 C 319.977 4.56928 0.0809833 0
M  V30 3341 C 320.974 5.15009 -0.711471 0
M  V30 3342 C 318.659 5.0229 -0.0315364 0
M  V30 3343 C 320.653 6.16904 -1.60336 0
M  V30 3344 C 318.34 6.04028 -0.926981 0
M  V30 3345 C 319.338 6.6121 -1.71146 0
M  V30 3346 O 319.026 7.60971 -2.59189 0
M  V30 3347 H 318.758 0.666173 0.114848 0
M  V30 3348 H 321.312 2.03085 -0.307511 0
M  V30 3349 H 319.542 3.39413 1.85299 0
M  V30 3350 H 321.231 3.72948 1.60201 0
M  V30 3351 H 321.997 4.80827 -0.634873 0
M  V30 3352 H 317.876 4.57476 0.568902 0
M  V30 3353 H 321.42 6.61464 -2.21611 0
M  V30 3354 H 317.317 6.37634 -1.00468 0
M  V30 3355 H 318.085 7.7841 -2.53023 0
M  V30 3356 N 320.748 -0.0735177 1.57428 0
M  V30 3357 C 321.658 -1.10547 2.06922 0
M  V30 3358 C 322.674 -1.42506 0.998402 0
M  V30 3359 O 323.85 -1.52717 1.31299 0
M  V30 3360 C 320.915 -2.40019 2.50184 0
M  V30 3361 C 319.976 -2.15046 3.71556 0
M  V30 3362 C 319.209 -3.38345 4.12745 0
M  V30 3363 O 319.432 -4.47399 3.53822 0
M  V30 3364 O 318.366 -3.2666 5.05546 0
M  V30 3365 H 322.192 -0.715013 2.95163 0
M  V30 3366 H 319.777 -0.287531 1.46607 0
M  V30 3367 H 321.659 -3.16218 2.78539 0
M  V30 3368 H 320.334 -2.78447 1.65072 0
M  V30 3369 H 319.241 -1.36558 3.48285 0
M  V30 3370 H 320.574 -1.81499 4.57514 0
M  V30 3371 N 322.226 -1.5378 -0.344866 0
M  V30 3372 C 323.156 -1.84662 -1.42906 0
M  V30 3373 C 324.137 -0.701648 -1.54955 0
M  V30 3374 O 325.322 -0.953438 -1.69184 0
M  V30 3375 C 322.452 -2.05503 -2.79974 0
M  V30 3376 C 321.406 -3.21318 -2.82734 0
M  V30 3377 C 320.732 -3.2749 -4.22675 0
M  V30 3378 C 322.032 -4.59456 -2.48389 0
M  V30 3379 H 323.726 -2.75461 -1.17311 0
M  V30 3380 H 321.272 -1.32542 -0.562896 0
M  V30 3381 H 323.225 -2.25691 -3.55867 0
M  V30 3382 H 321.949 -1.11434 -3.07002 0
M  V30 3383 H 320.608 -3.00984 -2.09294 0
M  V30 3384 H 320.256 -2.31019 -4.4681 0
M  V30 3385 H 319.956 -4.05316 -4.25433 0
M  V30 3386 H 321.48 -3.49887 -5.00412 0
M  V30 3387 H 322.894 -4.79667 -3.13995 0
M  V30 3388 H 321.291 -5.39675 -2.62432 0
M  V30 3389 H 322.361 -4.63155 -1.4358 0
M  V30 3390 N 323.704 0.605807 -1.45491 0
M  V30 3391 C 324.667 1.69836 -1.5391 0
M  V30 3392 C 325.667 1.55261 -0.418424 0
M  V30 3393 O 326.857 1.60296 -0.681965 0
M  V30 3394 C 323.989 3.09117 -1.43734 0
M  V30 3395 H 325.182 1.63738 -2.51257 0
M  V30 3396 H 322.735 0.821689 -1.32959 0
M  V30 3397 H 323.47 3.20791 -0.475788 0
M  V30 3398 H 323.255 3.21104 -2.25021 0
M  V30 3399 H 324.745 3.88696 -1.52661 0
M  V30 3400 N 325.182 1.32811 0.848464 0
M  V30 3401 C 326.598 1.11937 1.13764 0
M  V30 3402 C 326.798 -0.0960789 2.01271 0
M  V30 3403 O 325.854 -0.779165 2.40178 0
M  V30 3404 C 327.167 2.402 1.809 0
M  V30 3405 C 328.715 2.46016 1.93508 0
M  V30 3406 C 329.19 3.74215 2.64059 0
M  V30 3407 N 330.681 3.75232 2.71579 0
M  V30 3408 C 331.416 4.71134 3.26833 0
M  V30 3409 N 330.912 5.77406 3.8285 0
M  V30 3410 N 332.705 4.58623 3.24995 0
M  V30 3411 H 324.856 2.1073 0.265855 0
M  V30 3412 H 327.119 0.930671 0.180431 0
M  V30 3413 H 326.825 3.29093 1.24058 0
M  V30 3414 H 326.699 2.51628 2.81004 0
M  V30 3415 H 329.086 1.57577 2.49506 0
M  V30 3416 H 329.167 2.38536 0.923811 0
M  V30 3417 H 328.811 4.63031 2.08722 0
M  V30 3418 H 328.741 3.78968 3.65637 0
M  V30 3419 H 331.232 2.98423 2.31845 0
M  V30 3420 H 331.545 6.46632 4.23187 0
M  V30 3421 H 329.89 5.81152 3.81165 0
M  V30 3422 H 333.081 3.74762 2.80484 0
M  V30 3423 H 333.254 5.33535 3.67756 0
M  V30 3424 N 326.66 -1.06551 1.16123 0
M  V30 3425 C 327.607 -2.13961 0.865414 0
M  V30 3426 C 328.577 -1.65066 -0.185055 0
M  V30 3427 O 329.762 -1.90732 -0.05083 0
M  V30 3428 C 326.902 -3.43113 0.369776 0
M  V30 3429 C 326.015 -4.05756 1.48276 0
M  V30 3430 C 325.15 -5.22773 0.942414 0
M  V30 3431 C 324.189 -5.77395 2.03179 0
M  V30 3432 N 323.326 -6.85731 1.50721 0
M  V30 3433 H 328.166 -2.38605 1.78527 0
M  V30 3434 H 325.703 -1.17072 0.890646 0
M  V30 3435 H 327.661 -4.17151 0.0640643 0
M  V30 3436 H 326.291 -3.18695 -0.513143 0
M  V30 3437 H 325.343 -3.29292 1.9045 0
M  V30 3438 H 326.655 -4.42351 2.30493 0
M  V30 3439 H 325.809 -6.03827 0.589729 0
M  V30 3440 H 324.548 -4.87618 0.0895191 0
M  V30 3441 H 323.553 -4.94981 2.3932 0
M  V30 3442 H 324.778 -6.14603 2.8886 0
M  V30 3443 H 322.724 -6.52499 0.676811 0
M  V30 3444 H 322.641 -7.21254 2.26557 0
M  V30 3445 H 323.909 -7.7047 1.18303 0
M  V30 3446 N 328.138 -0.959301 -1.25041 0
M  V30 3447 C 329.368 -0.63303 -1.96663 0
M  V30 3448 C 329.776 0.800031 -1.71453 0
M  V30 3449 O 329.119 1.54736 -0.99008 0
M  V30 3450 C 329.181 -0.817523 -3.50081 0
M  V30 3451 C 328.845 -2.22863 -3.98975 0
M  V30 3452 C 329.842 -3.20569 -4.09306 0
M  V30 3453 C 327.527 -2.55407 -4.32519 0
M  V30 3454 C 329.521 -4.4891 -4.52503 0
M  V30 3455 C 327.208 -3.83976 -4.754 0
M  V30 3456 C 328.206 -4.8054 -4.85356 0
M  V30 3457 O 327.894 -6.06817 -5.27284 0
M  V30 3458 H 327.626 -0.235866 -0.633516 0
M  V30 3459 H 330.18 -1.2874 -1.60047 0
M  V30 3460 H 328.41 -0.105992 -3.86555 0
M  V30 3461 H 330.099 -0.491604 -4.02912 0
M  V30 3462 H 330.865 -2.96753 -3.83618 0
M  V30 3463 H 326.744 -1.8097 -4.23994 0
M  V30 3464 H 330.288 -5.24283 -4.60188 0
M  V30 3465 H 326.185 -4.07596 -5.00535 0
M  V30 3466 H 326.953 -6.10262 -5.45457 0
M  V30 3467 N 329.616 1.39756 -0.72842 0
M  V30 3468 C 330.893 1.94574 -0.200079 0
M  V30 3469 C 331.273 1.66569 1.29684 0
M  V30 3470 O 330.621 0.990326 2.05924 0
M  V30 3471 C 330.831 3.45004 -0.526608 0
M  V30 3472 C 332.179 4.21965 -0.472318 0
M  V30 3473 O 333.203 3.53173 -0.463413 0
M  V30 3474 O 332.062 5.44552 -0.461075 0
M  V30 3475 H 329.156 0.826289 -0.0342851 0
M  V30 3476 H 331.702 1.49293 -0.806829 0
M  V30 3477 H 330.474 3.58796 -1.56144 0
M  V30 3478 H 330.097 3.97449 0.109449 0
M  V30 3479 N 331.094 0.475555 1.50254 0
M  V30 3480 C 332.341 -0.0778919 2.0235 0
M  V30 3481 C 332.669 -1.39319 1.35722 0
M  V30 3482 O 331.924 -1.89888 0.473395 0
M  V30 3483 C 332.223 -0.305114 3.56095 0
M  V30 3484 C 331.889 0.92903 4.41225 0
M  V30 3485 C 330.551 1.26739 4.6421 0
M  V30 3486 C 332.903 1.75054 4.90923 0
M  V30 3487 C 330.231 2.42724 5.34137 0
M  V30 3488 C 332.583 2.9017 5.62125 0
M  V30 3489 C 331.247 3.24416 5.83362 0
M  V30 3490 H 330.517 -0.0285027 0.740452 0
M  V30 3491 H 333.164 0.630543 1.80821 0
M  V30 3492 H 331.469 -1.09584 3.76163 0
M  V30 3493 H 333.166 -0.747377 3.93974 0
M  V30 3494 H 329.756 0.655428 4.23559 0
M  V30 3495 H 333.94 1.50231 4.73016 0
M  V30 3496 H 329.196 2.69525 5.48786 0
M  V30 3497 H 333.37 3.54169 5.99614 0
M  V30 3498 H 330.997 4.14396 6.37323 0
M  V30 3499 N 332.573 -1.56217 0.208337 0
M  V30 3500 C 333.503 -2.22694 -0.702116 0
M  V30 3501 C 334.484 -1.19432 -1.2112 0
M  V30 3502 O 335.669 -1.47978 -1.25762 0
M  V30 3503 C 332.799 -2.8966 -1.9161 0
M  V30 3504 C 331.753 -3.9928 -1.5414 0
M  V30 3505 C 331.079 -4.53476 -2.83308 0
M  V30 3506 C 332.379 -5.17012 -0.741339 0
M  V30 3507 H 334.073 -2.99034 -0.147898 0
M  V30 3508 H 331.619 -1.43831 -0.0696951 0
M  V30 3509 H 333.572 -3.34852 -2.55836 0
M  V30 3510 H 332.296 -2.10746 -2.49507 0
M  V30 3511 H 330.955 -3.54799 -0.922668 0
M  V30 3512 H 330.603 -3.71308 -3.39322 0
M  V30 3513 H 330.303 -5.27451 -2.58976 0
M  V30 3514 H 331.827 -5.01378 -3.485 0
M  V30 3515 H 333.241 -5.58667 -1.28699 0
M  V30 3516 H 331.638 -5.97137 -0.595627 0
M  V30 3517 H 332.708 -4.8423 0.254851 0
M  V30 3518 N 334.051 0.0651679 -1.57465 0
M  V30 3519 C 335.3 0.761916 -1.86756 0
M  V30 3520 C 335.613 1.78406 -0.801925 0
M  V30 3521 O 336.819 2.53084 -0.982885 0
M  V30 3522 C 335.275 1.40603 -3.31299 0
M  V30 3523 C 334.883 0.422115 -4.46007 0
M  V30 3524 C 336.627 2.08476 -3.69781 0
M  V30 3525 C 334.534 1.07252 -5.81593 0
M  V30 3526 H 333.464 0.288308 -0.696702 0
M  V30 3527 H 336.115 0.015344 -1.83494 0
M  V30 3528 H 334.497 2.20109 -3.29193 0
M  V30 3529 H 335.671 -0.343613 -4.59517 0
M  V30 3530 H 333.986 -0.152527 -4.16121 0
M  V30 3531 H 336.583 2.57925 -4.68379 0
M  V30 3532 H 336.926 2.88712 -2.99919 0
M  V30 3533 H 337.459 1.35792 -3.73905 0
M  V30 3534 H 334.198 0.310342 -6.54765 0
M  V30 3535 H 333.718 1.80895 -5.71872 0
M  V30 3536 H 335.397 1.59043 -6.27148 0
M  V30 3537 N 335.529 1.53961 0.336706 0
M  V30 3538 C 336.778 1.70751 1.07363 0
M  V30 3539 C 337.091 0.481061 1.89592 0
M  V30 3540 O 338.297 0.530046 2.66276 0
M  V30 3541 C 336.753 3.01965 1.95818 0
M  V30 3542 C 336.361 4.31971 1.18764 0
M  V30 3543 C 338.105 3.28121 2.69327 0
M  V30 3544 C 336.012 5.54255 2.06289 0
M  V30 3545 H 334.942 0.636292 0.404535 0
M  V30 3546 H 337.593 1.80459 0.332681 0
M  V30 3547 H 335.975 2.86132 2.7376 0
M  V30 3548 H 337.149 4.5853 0.456849 0
M  V30 3549 H 335.464 4.12481 0.569946 0
M  V30 3550 H 338.061 4.16673 3.35094 0
M  V30 3551 H 338.404 2.45426 3.36261 0
M  V30 3552 H 338.937 3.44762 1.98454 0
M  V30 3553 H 335.676 6.39513 1.43885 0
M  V30 3554 H 335.196 5.31935 2.77138 0
M  V30 3555 H 336.875 5.90159 2.65182 0
M  V30 3556 N 337.007 -0.598083 1.45811 0
M  V30 3557 C 337.917 -1.73632 1.57763 0
M  V30 3558 C 338.933 -1.67763 0.461676 0
M  V30 3559 O 340.109 -1.87949 0.723685 0
M  V30 3560 C 337.174 -3.10114 1.55018 0
M  V30 3561 C 336.235 -3.27364 2.77726 0
M  V30 3562 C 335.468 -4.57334 2.75102 0
M  V30 3563 O 335.691 -5.40258 1.8297 0
M  V30 3564 O 334.625 -4.77502 3.66437 0
M  V30 3565 H 338.451 -1.66498 2.53992 0
M  V30 3566 H 336.036 -0.763308 1.28429 0
M  V30 3567 H 337.918 -3.9141 1.56129 0
M  V30 3568 H 336.593 -3.17718 0.619431 0
M  V30 3569 H 335.5 -2.45619 2.82174 0
M  V30 3570 H 336.833 -3.24641 3.69958 0
M  V30 3571 N 338.485 -1.33259 -0.841409 0
M  V30 3572 C 339.762 -1.15174 -1.58096 0
M  V30 3573 C 340.142 0.282858 -2.09196 0
M  V30 3574 O 339.49 1.28151 -1.89181 0
M  V30 3575 C 339.7 -2.1907 -2.71679 0
M  V30 3576 C 341.048 -2.53093 -3.40924 0
M  V30 3577 O 342.072 -2.17717 -2.81918 0
M  V30 3578 O 340.931 -3.1379 -4.47435 0
M  V30 3579 H 338.025 -0.445303 -0.696875 0
M  V30 3580 H 340.571 -1.44833 -0.884385 0
M  V30 3581 H 339.343 -3.15443 -2.31541 0
M  V30 3582 H 338.966 -1.90481 -3.49002 0
M  V30 3583 N 339.963 1.05934 -1.16686 0
M  V30 3584 C 341.24 1.75643 -0.860747 0
M  V30 3585 C 341.62 2.01144 0.640641 0
M  V30 3586 O 340.968 1.64147 1.58959 0
M  V30 3587 C 341.178 3.05493 -1.68745 0
M  V30 3588 C 342.526 3.79581 -1.90271 0
M  V30 3589 O 343.55 3.15344 -1.65641 0
M  V30 3590 O 342.409 4.9499 -2.31618 0
M  V30 3591 H 339.503 0.763426 -0.317977 0
M  V30 3592 H 342.049 1.1217 -1.27342 0
M  V30 3593 H 340.821 2.8264 -2.70611 0
M  V30 3594 H 340.444 3.76702 -1.27206 0
M  V30 3595 N 341.441 0.965919 1.2453 0
M  V30 3596 C 342.852 0.665929 1.7442 0
M  V30 3597 C 343.203 -0.818407 1.78316 0
M  V30 3598 O 342.328 -1.64037 1.41141 0
M  V30 3599 C 342.923 1.20211 3.16757 0
M  V30 3600 C 341.482 0.952059 3.6416 0
M  V30 3601 C 340.629 1.33848 2.42858 0
M  V30 3602 H 343.58 1.14144 1.10258 0
M  V30 3603 H 343.601 0.567544 3.76244 0
M  V30 3604 H 343.113 2.28244 3.13889 0
M  V30 3605 H 341.214 -0.112821 3.72429 0
M  V30 3606 H 341.327 1.59645 4.51719 0
M  V30 3607 H 339.691 0.756864 2.43195 0
M  V30 3608 H 340.474 2.42827 2.42673 0
M  V30 3609 N 342.919 -1.39368 0.735821 0
M  V30 3610 C 344.149 -2.04498 0.293967 0
M  V30 3611 C 344.557 -1.55593 -1.07645 0
M  V30 3612 O 343.9 -0.716324 -1.69158 0
M  V30 3613 C 343.962 -3.58836 0.218342 0
M  V30 3614 C 343.626 -4.30721 1.52736 0
M  V30 3615 C 344.623 -4.57305 2.47322 0
M  V30 3616 C 342.308 -4.69251 1.79189 0
M  V30 3617 C 344.302 -5.21429 3.66593 0
M  V30 3618 C 341.989 -5.33104 2.98737 0
M  V30 3619 C 342.987 -5.59125 3.9226 0
M  V30 3620 O 342.675 -6.21653 5.09708 0
M  V30 3621 H 342.407 -0.664118 0.126189 0
M  V30 3622 H 344.961 -1.79385 1.00051 0
M  V30 3623 H 343.191 -3.8285 -0.544314 0
M  V30 3624 H 344.88 -4.05447 -0.191626 0
M  V30 3625 H 345.646 -4.27983 2.28156 0
M  V30 3626 H 341.525 -4.48354 1.07239 0
M  V30 3627 H 345.069 -5.41656 4.39607 0
M  V30 3628 H 340.966 -5.61846 3.17803 0
M  V30 3629 H 341.734 -6.40146 5.10054 0
M  V30 3630 N 344.397 -0.483516 -1.5 0
M  V30 3631 C 345.627 0.0643896 -2.065 0
M  V30 3632 C 346.035 1.32949 -1.34615 0
M  V30 3633 O 345.378 1.79003 -0.412756 0
M  V30 3634 C 345.44 0.405983 -3.572 0
M  V30 3635 C 345.104 -0.758875 -4.50655 0
M  V30 3636 C 346.101 -1.64445 -4.93208 0
M  V30 3637 C 343.786 -0.952725 -4.93182 0
M  V30 3638 C 345.78 -2.70818 -5.77006 0
M  V30 3639 C 343.467 -2.01966 -5.76761 0
M  V30 3640 C 344.465 -2.89574 -6.18576 0
M  V30 3641 O 344.153 -3.94429 -7.00486 0
M  V30 3642 H 343.885 -0.00934786 -0.675935 0
M  V30 3643 H 346.439 -0.674959 -1.93993 0
M  V30 3644 H 344.669 1.19869 -3.67652 0
M  V30 3645 H 346.358 0.890433 -3.96013 0
M  V30 3646 H 347.124 -1.50643 -4.61012 0
M  V30 3647 H 343.003 -0.280247 -4.60147 0
M  V30 3648 H 346.547 -3.3923 -6.09565 0
M  V30 3649 H 342.444 -2.1577 -6.0837 0
M  V30 3650 H 343.212 -3.91568 -7.1876 0
M  V30 3651 N 345.875 1.56104 -0.216619 0
M  V30 3652 C 347.122 1.98172 0.416416 0
M  V30 3653 C 347.45 1.10413 1.60122 0
M  V30 3654 O 346.705 0.147967 1.9514 0
M  V30 3655 C 347.004 3.45923 0.898464 0
M  V30 3656 C 346.67 4.50559 -0.175288 0
M  V30 3657 C 345.332 4.78897 -0.470271 0
M  V30 3658 C 347.684 5.1334 -0.901728 0
M  V30 3659 C 345.012 5.67299 -1.4963 0
M  V30 3660 C 347.364 6.02853 -1.91705 0
M  V30 3661 C 346.028 6.29537 -2.21901 0
M  V30 3662 H 345.298 0.725164 0.152377 0
M  V30 3663 H 347.945 1.88839 -0.318103 0
M  V30 3664 H 346.25 3.52434 1.71165 0
M  V30 3665 H 347.947 3.75841 1.39803 0
M  V30 3666 H 344.537 4.28551 0.0647806 0
M  V30 3667 H 348.721 4.91521 -0.687072 0
M  V30 3668 H 343.977 5.86239 -1.73592 0
M  V30 3669 H 348.151 6.50552 -2.48505 0
M  V30 3670 H 345.778 6.97835 -3.01548 0
M  V30 3671 N 347.353 -0.0568162 1.57498 0
M  V30 3672 C 348.283 -1.06593 2.0775 0
M  V30 3673 C 349.264 -1.39448 0.974082 0
M  V30 3674 O 350.449 -1.48815 1.24771 0
M  V30 3675 C 347.579 -2.37509 2.5339 0
M  V30 3676 C 346.533 -2.1897 3.67745 0
M  V30 3677 C 345.859 -3.55402 3.99492 0
M  V30 3678 C 347.159 -1.59859 4.97235 0
M  V30 3679 H 348.853 -0.647706 2.9231 0
M  V30 3680 H 346.399 -0.310116 1.40621 0
M  V30 3681 H 348.352 -3.08409 2.87162 0
M  V30 3682 H 347.076 -2.8134 1.65878 0
M  V30 3683 H 345.735 -1.50508 3.3428 0
M  V30 3684 H 345.383 -3.9683 3.09088 0
M  V30 3685 H 345.083 -3.43831 4.76502 0
M  V30 3686 H 346.607 -4.27708 4.35773 0
M  V30 3687 H 348.021 -2.20642 5.29141 0
M  V30 3688 H 346.418 -1.58942 5.78669 0
M  V30 3689 H 347.488 -0.561506 4.81638 0
M  V30 3690 N 348.832 -1.54138 -0.328536 0
M  V30 3691 C 349.764 -1.79509 -1.4251 0
M  V30 3692 C 350.777 -0.67688 -1.48061 0
M  V30 3693 O 351.966 -0.953898 -1.50874 0
M  V30 3694 C 349.066 -1.89337 -2.81078 0
M  V30 3695 C 348.239 -3.19443 -2.98789 0
M  V30 3696 C 347.298 -3.20036 -4.17688 0
M  V30 3697 O 346.324 -3.93697 -4.11086 0
M  V30 3698 N 347.526 -2.43467 -5.26976 0
M  V30 3699 H 350.291 -2.74139 -1.21111 0
M  V30 3700 H 347.852 -1.53373 -0.518499 0
M  V30 3701 H 349.844 -1.87167 -3.58818 0
M  V30 3702 H 348.414 -1.01826 -2.95551 0
M  V30 3703 H 347.634 -3.34614 -2.08391 0
M  V30 3704 H 348.922 -4.05354 -3.07515 0
M  V30 3705 H 348.32 -1.83201 -5.35214 0
M  V30 3706 H 346.877 -2.4708 -6.03154 0
M  V30 3707 N 350.31 0.590341 -1.46126 0
M  V30 3708 C 351.557 1.34882 -1.5104 0
M  V30 3709 C 351.885 1.93849 -0.159021 0
M  V30 3710 O 351.14 1.76544 0.844436 0
M  V30 3711 C 351.439 2.5032 -2.55097 0
M  V30 3712 C 351.105 2.09394 -3.99331 0
M  V30 3713 C 349.767 1.97947 -4.38601 0
M  V30 3714 C 352.119 1.77712 -4.89967 0
M  V30 3715 C 349.447 1.53065 -5.66381 0
M  V30 3716 C 351.799 1.34312 -6.18177 0
M  V30 3717 C 350.463 1.21436 -6.56361 0
M  V30 3718 H 349.733 0.493568 -0.552695 0
M  V30 3719 H 352.38 0.665539 -1.79563 0
M  V30 3720 H 350.685 3.24062 -2.20207 0
M  V30 3721 H 352.382 3.08541 -2.56132 0
M  V30 3722 H 348.972 2.19235 -3.68285 0
M  V30 3723 H 353.156 1.85445 -4.60352 0
M  V30 3724 H 348.412 1.41733 -5.94745 0
M  V30 3725 H 352.586 1.08849 -6.87841 0
M  V30 3726 H 350.213 0.864345 -7.5527 0
M  V30 3727 N 351.788 1.33704 0.83433 0
M  V30 3728 C 352.736 1.24323 1.96587 0
M  V30 3729 C 353.73 0.143659 1.6879 0
M  V30 3730 O 354.936 0.30791 1.77347 0
M  V30 3731 H 351.311 0.385925 0.645419 0
M  V30 3732 H 353.282 2.19978 2.01624 0
M  V30 3733 C 352.031 1.00394 3.32891 0
M  V30 3734 H 351.354 1.84231 3.54822 0
M  V30 3735 H 352.794 0.97862 4.12552 0
M  V30 3736 C 351.253 -0.293047 3.35623 0
M  V30 3737 O 351.783 -1.29823 3.80143 0
M  V30 3738 N 349.989 -0.322174 2.88809 0
M  V30 3739 H 349.536 0.496379 2.52772 0
M  V30 3740 H 349.494 -1.18977 2.91019 0
M  V30 3741 N 353.266 -1.05314 1.17247 0
M  V30 3742 C 354.213 -2.13031 0.888058 0
M  V30 3743 C 355.183 -1.65253 -0.167537 0
M  V30 3744 O 356.368 -1.90775 -0.0305974 0
M  V30 3745 C 353.508 -3.42702 0.406147 0
M  V30 3746 C 352.621 -4.04161 1.52572 0
M  V30 3747 C 351.756 -5.21744 0.997808 0
M  V30 3748 C 350.795 -5.75207 2.09291 0
M  V30 3749 N 349.932 -6.84094 1.57986 0
M  V30 3750 H 354.772 -2.36698 1.81048 0
M  V30 3751 H 352.309 -1.16121 0.903013 0
M  V30 3752 H 354.267 -4.17059 0.108305 0
M  V30 3753 H 352.897 -3.19222 -0.479313 0
M  V30 3754 H 351.949 -3.27253 1.93931 0
M  V30 3755 H 353.261 -4.39881 2.35172 0
M  V30 3756 H 352.415 -6.03168 0.653739 0
M  V30 3757 H 351.154 -4.87495 0.141232 0
M  V30 3758 H 350.159 -4.92414 2.44557 0
M  V30 3759 H 351.384 -6.11505 2.95362 0
M  V30 3760 H 349.33 -6.51745 0.74598 0
M  V30 3761 H 349.247 -7.18811 2.34195 0
M  V30 3762 H 350.515 -7.69172 1.26468 0
M  V30 3763 N 354.744 -0.972509 -1.24016 0
M  V30 3764 C 355.991 -0.637034 -1.92219 0
M  V30 3765 C 356.319 0.828418 -1.75976 0
M  V30 3766 O 355.574 1.61206 -1.10955 0
M  V30 3767 C 355.873 -0.963694 -3.44162 0
M  V30 3768 C 355.539 -2.41807 -3.80579 0
M  V30 3769 C 354.201 -2.81556 -3.9023 0
M  V30 3770 C 356.553 -3.36172 -3.98293 0
M  V30 3771 C 353.881 -4.14702 -4.15017 0
M  V30 3772 C 356.233 -4.68952 -4.24578 0
M  V30 3773 C 354.897 -5.08472 -4.32449 0
M  V30 3774 H 354.167 -0.233107 -0.703379 0
M  V30 3775 H 356.814 -1.2249 -1.47202 0
M  V30 3776 H 355.119 -0.29365 -3.90698 0
M  V30 3777 H 356.816 -0.682449 -3.9515 0
M  V30 3778 H 353.406 -2.09988 -3.73635 0
M  V30 3779 H 357.59 -3.06644 -3.90234 0
M  V30 3780 H 352.846 -4.4494 -4.19331 0
M  V30 3781 H 357.02 -5.42037 -4.37229 0
M  V30 3782 H 354.647 -6.11665 -4.51409 0
M  V30 3783 N 356.222 1.38976 -0.743202 0
M  V30 3784 C 357.638 1.53984 -0.419664 0
M  V30 3785 C 357.838 1.70837 1.0685 0
M  V30 3786 O 356.894 1.7135 1.8546 0
M  V30 3787 C 358.207 2.75287 -1.20985 0
M  V30 3788 C 359.755 2.89129 -1.19889 0
M  V30 3789 C 360.23 4.13381 -1.97181 0
M  V30 3790 N 361.721 4.20437 -1.94389 0
M  V30 3791 C 362.456 5.15547 -2.50996 0
M  V30 3792 N 361.952 6.16395 -3.16274 0
M  V30 3793 N 363.745 5.07822 -2.40984 0
M  V30 3794 H 355.896 1.26285 -1.7078 0
M  V30 3795 H 358.159 0.612689 -0.723406 0
M  V30 3796 H 357.865 2.69204 -2.26323 0
M  V30 3797 H 357.739 3.68184 -0.819759 0
M  V30 3798 H 360.126 2.947 -0.153606 0
M  V30 3799 H 360.207 1.97272 -1.62841 0
M  V30 3800 H 359.851 4.08572 -3.01714 0
M  V30 3801 H 359.781 5.04298 -1.51629 0
M  V30 3802 H 362.272 3.48205 -1.46839 0
M  V30 3803 H 362.585 6.85443 -3.56915 0
M  V30 3804 H 360.93 6.16758 -3.20367 0
M  V30 3805 H 364.121 4.27973 -1.89622 0
M  V30 3806 H 364.294 5.81767 -2.85397 0
M  V30 3807 N 357.7 0.491464 1.49741 0
M  V30 3808 C 358.946 -0.0565092 2.02721 0
M  V30 3809 C 359.279 -1.37522 1.37118 0
M  V30 3810 O 358.554 -1.87866 0.503645 0
M  V30 3811 C 358.837 -0.219051 3.59433 0
M  V30 3812 C 358.69 1.12211 4.35579 0
M  V30 3813 C 360.009 -0.964157 4.29409 0
M  V30 3814 H 357.128 -0.0190627 0.736753 0
M  V30 3815 H 359.77 0.641021 1.7886 0
M  V30 3816 H 357.92 -0.813165 3.79895 0
M  V30 3817 H 359.592 1.75437 4.26637 0
M  V30 3818 H 357.835 1.71377 3.98513 0
M  V30 3819 H 358.506 0.961794 5.43556 0
M  V30 3820 H 360.982 -0.460378 4.13545 0
M  V30 3821 H 359.858 -1.04671 5.38828 0
M  V30 3822 H 360.119 -2.00563 3.93988 0
M  V30 3823 N 359.178 -1.55987 0.224894 0
M  V30 3824 C 360.589 -1.84553 -0.282345 0
M  V30 3825 C 360.94 -1.14634 -1.59227 0
M  V30 3826 O 360.065 -0.417155 -2.12341 0
M  V30 3827 C 360.66 -3.348 -0.519062 0
M  V30 3828 C 359.219 -3.63671 -0.970604 0
M  V30 3829 C 358.366 -2.77277 -0.0355261 0
M  V30 3830 H 361.317 -1.52245 0.448006 0
M  V30 3831 H 361.338 -3.55187 -1.36463 0
M  V30 3832 H 360.85 -3.8566 0.43449 0
M  V30 3833 H 358.951 -3.1827 -1.9374 0
M  V30 3834 H 359.064 -4.71631 -0.842698 0
M  V30 3835 H 357.428 -2.48846 -0.542927 0
M  V30 3836 H 358.211 -3.30937 0.913003 0
M  V30 3837 N 360.656 0.0484629 -1.57525 0
M  V30 3838 C 361.884 0.755421 -1.92616 0
M  V30 3839 C 362.299 1.69919 -0.822984 0
M  V30 3840 O 361.656 1.81378 0.202085 0
M  V30 3841 C 361.707 1.52915 -3.27566 0
M  V30 3842 O 361.428 0.62329 -4.33644 0
M  V30 3843 C 362.929 2.33502 -3.76818 0
M  V30 3844 H 360.149 0.213465 -0.63614 0
M  V30 3845 H 362.693 0.0117698 -2.04497 0
M  V30 3846 H 360.848 2.22486 -3.17142 0
M  V30 3847 H 361.262 1.16383 -5.11425 0
M  V30 3848 H 362.736 2.83214 -4.73808 0
M  V30 3849 H 363.213 3.14068 -3.07014 0
M  V30 3850 H 363.819 1.69043 -3.90262 0
M  V30 3851 N 362.134 1.5431 0.320358 0
M  V30 3852 C 363.381 1.72668 1.05792 0
M  V30 3853 C 363.709 0.502084 1.87908 0
M  V30 3854 O 362.964 -0.516149 1.88771 0
M  V30 3855 C 363.263 2.95639 2.00828 0
M  V30 3856 C 362.929 4.30265 1.34843 0
M  V30 3857 C 361.591 4.66865 1.16578 0
M  V30 3858 C 363.943 5.13801 0.875095 0
M  V30 3859 C 361.271 5.84597 0.496336 0
M  V30 3860 C 363.623 6.32219 0.219463 0
M  V30 3861 C 362.287 6.67495 0.0246915 0
M  V30 3862 H 361.557 0.631837 0.387121 0
M  V30 3863 H 364.204 1.88552 0.334735 0
M  V30 3864 H 362.509 2.74456 2.79609 0
M  V30 3865 H 364.206 3.07038 2.57932 0
M  V30 3866 H 360.796 4.01472 1.50061 0
M  V30 3867 H 364.98 4.86039 1.00398 0
M  V30 3868 H 360.236 6.10486 0.334264 0
M  V30 3869 H 364.41 6.96227 -0.155291 0
M  V30 3870 H 362.037 7.5858 -0.496065 0
M  V30 3871 N 363.613 -0.582584 1.46437 0
M  V30 3872 C 364.543 -1.70187 1.59871 0
M  V30 3873 C 365.524 -1.64066 0.449042 0
M  V30 3874 O 366.709 -1.82081 0.6753 0
M  V30 3875 C 363.839 -3.08827 1.58881 0
M  V30 3876 C 362.793 -3.29779 2.72819 0
M  V30 3877 C 362.119 -4.68947 2.5689 0
M  V30 3878 C 363.419 -3.17601 4.1464 0
M  V30 3879 H 365.113 -1.592 2.53566 0
M  V30 3880 H 362.659 -0.764472 1.22032 0
M  V30 3881 H 364.612 -3.86951 1.66873 0
M  V30 3882 H 363.336 -3.20713 0.617306 0
M  V30 3883 H 361.995 -2.54054 2.64296 0
M  V30 3884 H 361.643 -4.77599 1.57823 0
M  V30 3885 H 361.343 -4.83919 3.33312 0
M  V30 3886 H 362.867 -5.4924 2.66773 0
M  V30 3887 H 364.281 -3.8557 4.24274 0
M  V30 3888 H 362.678 -3.44094 4.9165 0
M  V30 3889 H 363.748 -2.14681 4.34788 0
M  V30 3890 N 365.091 -1.34144 -0.827227 0
M  V30 3891 C 366.316 -1.29476 -1.62021 0
M  V30 3892 C 366.741 0.129292 -1.87655 0
M  V30 3893 O 366.099 1.08967 -1.449 0
M  V30 3894 C 366.147 -2.08702 -2.94068 0
M  V30 3895 O 365.251 -1.45359 -3.85933 0
M  V30 3896 H 364.592 -0.444881 -0.492927 0
M  V30 3897 H 367.122 -1.76882 -1.02829 0
M  V30 3898 H 367.132 -2.19898 -3.43669 0
M  V30 3899 H 365.807 -3.12241 -2.74734 0
M  V30 3900 H 364.384 -1.42879 -3.44442 0
M  V30 3901 N 366.569 1.04691 -1.17803 0
M  V30 3902 C 367.502 2.12068 -0.842765 0
M  V30 3903 C 368.48 1.61455 0.192608 0
M  V30 3904 O 369.664 1.88359 0.072995 0
M  V30 3905 C 366.791 3.37715 -0.258063 0
M  V30 3906 C 365.837 4.07164 -1.26962 0
M  V30 3907 S 366.67 4.55047 -2.82299 0
M  V30 3908 C 367.826 5.83935 -2.25323 0
M  V30 3909 H 368.059 2.4018 -1.75217 0
M  V30 3910 H 365.592 1.17366 -1.00323 0
M  V30 3911 H 367.55 4.10435 0.0727935 0
M  V30 3912 H 366.211 3.0773 0.629357 0
M  V30 3913 H 365.404 4.9746 -0.809263 0
M  V30 3914 H 365.006 3.40533 -1.54639 0
M  V30 3915 H 367.298 6.57552 -1.63192 0
M  V30 3916 H 368.241 6.34725 -3.13894 0
M  V30 3917 H 368.649 5.3874 -1.68582 0
M  V30 3918 N 368.047 0.979072 1.23499 0
M  V30 3919 C 369.324 0.563674 1.87302 0
M  V30 3920 C 369.704 -0.959199 1.88049 0
M  V30 3921 O 369.052 -1.83535 1.36114 0
M  V30 3922 C 369.262 1.16822 3.28867 0
M  V30 3923 C 370.61 1.26014 4.0547 0
M  V30 3924 O 371.634 1.12158 3.38082 0
M  V30 3925 O 370.493 1.48044 5.26066 0
M  V30 3926 H 367.587 0.189602 0.804972 0
M  V30 3927 H 370.133 1.07407 1.31384 0
M  V30 3928 H 368.905 2.21049 3.22883 0
M  V30 3929 H 368.528 0.642564 3.92373 0
M  V30 3930 N 369.525 -1.3858 0.750561 0
M  V30 3931 C 370.771 -2.00481 0.305825 0
M  V30 3932 C 371.104 -1.5944 -1.10872 0
M  V30 3933 O 370.379 -0.83052 -1.75877 0
M  V30 3934 C 370.662 -3.5758 0.425287 0
M  V30 3935 C 370.515 -4.08594 1.88072 0
M  V30 3936 C 371.834 -4.39719 -0.183122 0
M  V30 3937 H 368.953 -0.728348 0.112598 0
M  V30 3938 H 371.595 -1.64566 0.949638 0
M  V30 3939 H 369.745 -3.88306 -0.122828 0
M  V30 3940 H 371.417 -3.88523 2.48691 0
M  V30 3941 H 369.66 -3.61574 2.39681 0
M  V30 3942 H 370.331 -5.177 1.91548 0
M  V30 3943 H 372.807 -4.15128 0.284303 0
M  V30 3944 H 371.683 -5.48856 -0.0692757 0
M  V30 3945 H 371.944 -4.23434 -1.27106 0
M  V30 3946 N 371.003 -0.499398 -1.49478 0
M  V30 3947 C 372.28 0.108629 -1.95298 0
M  V30 3948 C 372.66 1.54282 -1.44084 0
M  V30 3949 O 372.008 2.18944 -0.653908 0
M  V30 3950 C 372.218 0.0229111 -3.48992 0
M  V30 3951 C 373.566 0.197643 -4.2414 0
M  V30 3952 O 374.59 0.0981735 -3.56065 0
M  V30 3953 O 373.449 0.401669 -5.45022 0
M  V30 3954 H 370.543 0.096181 -0.821388 0
M  V30 3955 H 373.089 -0.561822 -1.6013 0
M  V30 3956 H 371.861 -0.977321 -3.78899 0
M  V30 3957 H 371.484 0.733579 -3.90774 0
M  V30 3958 N 372.481 1.55866 -0.233164 0
M  V30 3959 C 373.729 1.9821 0.394593 0
M  V30 3960 C 374.05 1.12234 1.59463 0
M  V30 3961 O 373.32 0.201981 1.94856 0
M  V30 3962 H 371.9 0.732034 0.148778 0
M  V30 3963 H 374.562 1.92107 -0.32876 0
M  V30 3964 H 373.658 3.03845 0.713063 0
M  V30 3965 N 373.959 -0.0401083 1.57549 0
M  V30 3966 C 375.375 -0.395556 1.54621 0
M  V30 3967 C 375.575 -1.77281 0.957799 0
M  V30 3968 O 374.631 -2.45888 0.574031 0
M  V30 3969 C 375.944 -0.307535 2.99123 0
M  V30 3970 C 377.492 -0.385425 3.10618 0
M  V30 3971 C 377.967 -0.326973 4.56831 0
M  V30 3972 N 379.458 -0.386102 4.61588 0
M  V30 3973 C 380.193 -0.363591 5.72246 0
M  V30 3974 N 379.689 -0.29402 6.92176 0
M  V30 3975 N 381.482 -0.412503 5.60584 0
M  V30 3976 H 373.633 0.861325 1.94152 0
M  V30 3977 H 375.896 0.326445 0.890021 0
M  V30 3978 H 375.602 0.638461 3.45856 0
M  V30 3979 H 375.476 -1.10552 3.60636 0
M  V30 3980 H 377.863 -1.32185 2.63839 0
M  V30 3981 H 377.944 0.44171 2.51957 0
M  V30 3982 H 377.588 0.605738 5.04275 0
M  V30 3983 H 377.518 -1.17207 5.13391 0
M  V30 3984 H 380.009 -0.442832 3.75296 0
M  V30 3985 H 380.322 -0.28164 7.72287 0
M  V30 3986 H 378.667 -0.260232 6.94513 0
M  V30 3987 H 381.858 -0.464769 4.65787 0
M  V30 3988 H 382.031 -0.391492 6.46816 0
M  V30 3989 N 375.437 -1.54477 -0.31217 0
M  V30 3990 C 376.683 -1.73483 -1.0503 0
M  V30 3991 C 377.016 -0.513125 -1.87298 0
M  V30 3992 O 376.291 0.489864 -1.8823 0
M  V30 3993 C 376.574 -3.01723 -1.96558 0
M  V30 3994 C 376.427 -4.3417 -1.17545 0
M  V30 3995 C 377.746 -3.25772 -2.95907 0
M  V30 3996 H 374.865 -0.631222 -0.380432 0
M  V30 3997 H 377.507 -1.87184 -0.325932 0
M  V30 3998 H 375.657 -2.90174 -2.58324 0
M  V30 3999 H 377.329 -4.5762 -0.581513 0
M  V30 4000 H 375.572 -4.31159 -0.477925 0
M  V30 4001 H 376.243 -5.20143 -1.84811 0
M  V30 4002 H 378.719 -3.36857 -2.44267 0
M  V30 4003 H 377.595 -4.16838 -3.57123 0
M  V30 4004 H 377.856 -2.43537 -3.68974 0
M  V30 4005 N 376.915 0.57481 -1.46744 0
M  V30 4006 C 378.164 1.32898 -1.51727 0
M  V30 4007 C 378.477 1.948 -0.176692 0
M  V30 4008 O 379.683 2.71299 -0.104385 0
M  V30 4009 C 378.139 2.40901 -2.67385 0
M  V30 4010 C 377.747 1.85266 -4.07898 0
M  V30 4011 C 379.491 3.17609 -2.81646 0
M  V30 4012 C 377.398 2.90945 -5.14883 0
M  V30 4013 H 376.328 0.499631 -0.564699 0
M  V30 4014 H 378.979 0.612536 -1.72975 0
M  V30 4015 H 377.361 3.15379 -2.39483 0
M  V30 4016 H 378.535 1.17278 -4.45626 0
M  V30 4017 H 376.85 1.21199 -3.98371 0
M  V30 4018 H 379.447 3.96493 -3.58744 0
M  V30 4019 H 379.79 3.70696 -1.89448 0
M  V30 4020 H 380.323 2.50239 -3.09233 0
M  V30 4021 H 377.062 2.42736 -6.089 0
M  V30 4022 H 376.582 3.57398 -4.81691 0
M  V30 4023 H 378.261 3.54755 -5.41071 0
M  V30 4024 N 378.394 1.34581 0.820102 0
M  V30 4025 C 379.81 1.14325 1.11364 0
M  V30 4026 C 380.01 -0.0533648 2.01429 0
M  V30 4027 O 379.066 -0.728044 2.41776 0
M  V30 4028 C 380.379 2.43983 1.75764 0
M  V30 4029 C 381.927 2.50065 1.88246 0
M  V30 4030 C 382.402 3.79732 2.56061 0
M  V30 4031 N 383.893 3.80908 2.63558 0
M  V30 4032 C 384.628 4.77961 3.16766 0
M  V30 4033 N 384.124 5.85397 3.70517 0
M  V30 4034 N 385.917 4.65413 3.15194 0
M  V30 4035 H 378.068 2.11246 0.221096 0
M  V30 4036 H 380.331 0.934289 0.160649 0
M  V30 4037 H 380.037 3.31651 1.1705 0
M  V30 4038 H 379.911 2.57531 2.75604 0
M  V30 4039 H 382.298 1.62834 2.46108 0
M  V30 4040 H 382.379 2.40442 0.873006 0
M  V30 4041 H 382.023 4.67354 1.98853 0
M  V30 4042 H 381.953 3.86639 3.57516 0
M  V30 4043 H 384.444 3.03274 2.25463 0
M  V30 4044 H 384.757 6.55463 4.09376 0
M  V30 4045 H 383.102 5.89107 3.68752 0
M  V30 4046 H 386.293 3.80627 2.72471 0
M  V30 4047 H 386.466 5.41216 3.56356 0
M  V30 4048 N 379.872 -1.04064 1.18357 0
M  V30 4049 C 380.835 -2.10243 0.912707 0
M  V30 4050 C 381.835 -1.60477 -0.101928 0
M  V30 4051 O 383.025 -1.73703 0.131517 0
M  V30 4052 C 380.157 -3.38893 0.369387 0
M  V30 4053 H 381.35 -2.35706 1.85426 0
M  V30 4054 H 378.903 -1.20489 0.995594 0
M  V30 4055 H 379.638 -3.19094 -0.578776 0
M  V30 4056 H 379.423 -3.76331 1.1008 0
M  V30 4057 H 380.913 -4.17128 0.198575 0
M  V30 4058 N 381.35 -0.985608 -1.22978 0
M  V30 4059 C 382.627 -0.573599 -1.87001 0
M  V30 4060 C 383.007 0.949213 -1.88555 0
M  V30 4061 O 382.355 1.82811 -1.37086 0
M  V30 4062 C 382.565 -1.18564 -3.28243 0
M  V30 4063 C 383.913 -1.28163 -4.04796 0
M  V30 4064 O 384.937 -1.13949 -3.37482 0
M  V30 4065 O 383.796 -1.50832 -5.25273 0
M  V30 4066 H 380.89 -0.193868 -0.803955 0
M  V30 4067 H 383.436 -1.08102 -1.30813 0
M  V30 4068 H 382.208 -2.22758 -3.21706 0
M  V30 4069 H 381.831 -0.663363 -3.92027 0
M  V30 4070 N 382.828 1.3818 -0.7579 0
M  V30 4071 C 384.053 2.04827 -0.325679 0
M  V30 4072 C 384.478 1.56788 1.03919 0
M  V30 4073 O 383.836 0.721811 1.66312 0
M  V30 4074 C 383.884 3.58774 -0.362447 0
M  V30 4075 O 382.988 4.07372 0.642033 0
M  V30 4076 H 382.329 0.64833 -0.143402 0
M  V30 4077 H 384.859 1.7677 -1.03023 0
M  V30 4078 H 384.869 4.07434 -0.214844 0
M  V30 4079 H 383.544 3.93096 -1.35824 0
M  V30 4080 H 382.121 3.70068 0.458688 0
M  V30 4081 N 384.306 0.507319 1.49211 0
M  V30 4082 C 385.553 -0.0349529 2.0247 0
M  V30 4083 C 385.881 -1.36409 1.38647 0
M  V30 4084 O 385.136 -1.88841 0.513566 0
M  V30 4085 C 385.435 -0.229513 3.56662 0
M  V30 4086 C 385.101 1.02241 4.39156 0
M  V30 4087 C 383.763 1.36557 4.61417 0
M  V30 4088 C 386.115 1.85428 4.871 0
M  V30 4089 C 383.443 2.53999 5.28868 0
M  V30 4090 C 385.795 3.02028 5.55843 0
M  V30 4091 C 384.459 3.36717 5.76349 0
M  V30 4092 H 383.729 -0.0127902 0.74089 0
M  V30 4093 H 386.376 0.668756 1.79443 0
M  V30 4094 H 384.681 -1.0158 3.78403 0
M  V30 4095 H 386.378 -0.663641 3.9547 0
M  V30 4096 H 382.968 0.745124 4.22073 0
M  V30 4097 H 387.152 1.6023 4.69723 0
M  V30 4098 H 382.408 2.81105 5.42946 0
M  V30 4099 H 386.582 3.66808 5.91967 0
M  V30 4100 H 384.209 4.27821 6.28389 0
M  V30 4101 N 385.784 -1.5574 0.241426 0
M  V30 4102 C 387.009 -2.0366 -0.392111 0
M  V30 4103 C 387.434 -1.11969 -1.51144 0
M  V30 4104 O 386.792 -0.111594 -1.80956 0
M  V30 4105 C 386.84 -3.49638 -0.882371 0
M  V30 4106 O 385.944 -3.6108 -1.99235 0
M  V30 4107 H 385.285 -0.658379 -0.0862122 0
M  V30 4108 H 387.815 -2.01302 0.365881 0
M  V30 4109 H 387.825 -3.90351 -1.18702 0
M  V30 4110 H 386.5 -4.15852 -0.0632361 0
M  V30 4111 H 385.077 -3.32262 -1.69282 0
M  V30 4112 N 387.262 0.0317525 -1.57568 0
M  V30 4113 C 388.209 1.0332 -2.06382 0
M  V30 4114 C 389.179 1.36082 -0.952414 0
M  V30 4115 O 390.364 1.46466 -1.2228 0
M  V30 4116 C 387.504 2.32989 -2.54578 0
M  V30 4117 C 386.617 2.0641 -3.79498 0
M  V30 4118 C 385.752 3.2993 -4.16317 0
M  V30 4119 C 384.791 2.98893 -5.34162 0
M  V30 4120 N 383.928 4.14857 -5.66426 0
M  V30 4121 H 388.768 0.609982 -2.9169 0
M  V30 4122 H 386.305 0.289573 -1.44222 0
M  V30 4123 H 388.263 3.0875 -2.80587 0
M  V30 4124 H 386.893 2.73039 -1.7219 0
M  V30 4125 H 385.945 1.21158 -3.6059 0
M  V30 4126 H 387.257 1.79513 -4.65378 0
M  V30 4127 H 386.411 4.1406 -4.4344 0
M  V30 4128 H 385.15 3.59938 -3.29083 0
M  V30 4129 H 384.155 2.13164 -5.06795 0
M  V30 4130 H 385.38 2.70165 -6.23047 0
M  V30 4131 H 383.326 4.44821 -4.82151 0
M  V30 4132 H 383.243 3.91374 -6.4681 0
M  V30 4133 H 384.511 4.99868 -5.98124 0
M  V30 4134 N 388.74 1.54641 0.303973 0
M  V30 4135 C 389.989 1.7299 1.03717 0
M  V30 4136 C 390.302 0.521168 1.88529 0
M  V30 4137 O 391.508 0.586408 2.65092 0
M  V30 4138 C 389.964 3.06051 1.89369 0
M  V30 4139 C 389.572 4.34393 1.09574 0
M  V30 4140 C 391.316 3.3376 2.62306 0
M  V30 4141 C 389.223 5.58506 1.94486 0
M  V30 4142 H 388.153 0.64473 0.390947 0
M  V30 4143 H 390.804 1.81124 0.294328 0
M  V30 4144 H 389.186 2.91874 2.67629 0
M  V30 4145 H 390.36 4.59396 0.359485 0
M  V30 4146 H 388.675 4.13597 0.482324 0
M  V30 4147 H 391.272 4.23687 3.26181 0
M  V30 4148 H 391.615 2.52503 3.3098 0
M  V30 4149 H 392.148 3.48894 1.91097 0
M  V30 4150 H 388.887 6.42422 1.30287 0
M  V30 4151 H 388.407 5.37694 2.65792 0
M  V30 4152 H 390.086 5.95651 2.52605 0
M  V30 4153 N 390.218 -0.567019 1.47046 0
M  V30 4154 C 391.467 -1.32091 1.5243 0
M  V30 4155 C 391.78 -1.94704 0.187021 0
M  V30 4156 O 392.986 -2.7124 0.118771 0
M  V30 4157 C 391.442 -2.39479 2.68659 0
M  V30 4158 C 391.05 -1.831 4.08874 0
M  V30 4159 C 392.794 -3.16111 2.83327 0
M  V30 4160 C 390.701 -2.8821 5.16419 0
M  V30 4161 H 389.631 -0.496629 0.56734 0
M  V30 4162 H 392.282 -0.603354 1.73297 0
M  V30 4163 H 390.664 -3.14105 2.41152 0
M  V30 4164 H 391.838 -1.14913 4.46242 0
M  V30 4165 H 390.153 -1.19085 3.99008 0
M  V30 4166 H 392.75 -3.94585 3.60842 0
M  V30 4167 H 393.093 -3.69686 1.91411 0
M  V30 4168 H 393.626 -2.48595 3.10556 0
M  V30 4169 H 390.365 -2.39504 6.10179 0
M  V30 4170 H 389.885 -3.54839 4.8358 0
M  V30 4171 H 391.564 -3.51881 5.42945 0
M  V30 4172 N 391.696 -1.35014 -0.812953 0
M  V30 4173 C 392.921 -1.31187 -1.60639 0
M  V30 4174 C 393.346 0.109382 -1.87782 0
M  V30 4175 O 392.704 1.07424 -1.46047 0
M  V30 4176 C 392.752 -2.11809 -2.91838 0
M  V30 4177 O 391.856 -1.49444 -3.8437 0
M  V30 4178 H 391.197 -0.450084 -0.488181 0
M  V30 4179 H 393.727 -1.77963 -1.00947 0
M  V30 4180 H 393.737 -2.23531 -3.41318 0
M  V30 4181 H 392.412 -3.15137 -2.71407 0
M  V30 4182 H 390.989 -1.46524 -3.42907 0
M  V30 4183 N 393.175 1.03435 -1.18907 0
M  V30 4184 C 394.4 1.80919 -1.01406 0
M  V30 4185 C 394.825 1.83055 0.432721 0
M  V30 4186 O 394.183 1.25252 1.31079 0
M  V30 4187 C 394.231 3.24091 -1.58105 0
M  V30 4188 O 393.335 4.04434 -0.806669 0
M  V30 4189 H 392.676 0.558709 -0.358803 0
M  V30 4190 H 395.206 1.30223 -1.57807 0
M  V30 4191 H 395.216 3.74853 -1.61087 0
M  V30 4192 H 393.891 3.21851 -2.6341 0
M  V30 4193 H 392.468 3.63091 -0.849666 0
M  V30 4194 N 394.653 0.992116 1.22453 0
M  V30 4195 C 395.901 0.666215 1.90804 0
M  V30 4196 C 396.222 -0.804152 1.77647 0
M  V30 4197 O 395.492 -1.57629 1.16318 0
M  V30 4198 H 394.072 0.243423 0.706225 0
M  V30 4199 H 396.734 1.25845 1.48825 0
M  V30 4200 H 395.83 0.928069 2.97982 0
M  V30 4201 N 396.131 -1.37776 0.765217 0
M  V30 4202 C 397.061 -2.32945 0.160953 0
M  V30 4203 C 398.042 -1.55454 -0.690516 0
M  V30 4204 O 399.227 -1.83721 -0.629318 0
M  V30 4205 C 396.357 -3.39669 -0.724031 0
M  V30 4206 C 395.311 -4.27992 0.0256173 0
M  V30 4207 C 394.637 -5.25673 -0.978383 0
M  V30 4208 C 395.937 -5.08309 1.20082 0
M  V30 4209 H 397.631 -2.83728 0.955969 0
M  V30 4210 H 395.177 -1.36416 0.461149 0
M  V30 4211 H 397.13 -4.05219 -1.15652 0
M  V30 4212 H 395.854 -2.87396 -1.5515 0
M  V30 4213 H 394.513 -3.63964 0.438812 0
M  V30 4214 H 394.161 -4.69682 -1.80022 0
M  V30 4215 H 393.861 -5.85625 -0.481378 0
M  V30 4216 H 395.385 -5.94098 -1.40995 0
M  V30 4217 H 396.799 -5.67034 0.845307 0
M  V30 4218 H 395.196 -5.77554 1.62947 0
M  V30 4219 H 396.266 -4.41365 2.00811 0
M  V30 4220 N 397.609 -0.515225 -1.4894 0
M  V30 4221 C 399.025 -0.172099 -1.58669 0
M  V30 4222 C 399.225 1.32405 -1.51892 0
M  V30 4223 O 398.281 2.10116 -1.40027 0
M  V30 4224 C 399.594 -0.761533 -2.90897 0
M  V30 4225 C 401.142 -0.728926 -3.04394 0
M  V30 4226 C 401.617 -1.29667 -4.39261 0
M  V30 4227 N 403.108 -1.25799 -4.4579 0
M  V30 4228 C 403.843 -1.66733 -5.48623 0
M  V30 4229 N 403.339 -2.15327 -6.58488 0
M  V30 4230 N 405.132 -1.58061 -5.39419 0
M  V30 4231 H 397.283 -1.48778 -1.51588 0
M  V30 4232 H 399.546 -0.617968 -0.718901 0
M  V30 4233 H 399.252 -1.81136 -3.01468 0
M  V30 4234 H 399.126 -0.230106 -3.76497 0
M  V30 4235 H 401.513 0.312098 -2.93445 0
M  V30 4236 H 401.594 -1.29766 -2.20442 0
M  V30 4237 H 401.238 -2.33655 -4.50963 0
M  V30 4238 H 401.168 -0.703752 -5.21876 0
M  V30 4239 H 403.659 -0.902102 -3.66975 0
M  V30 4240 H 403.972 -2.44594 -7.33071 0
M  V30 4241 H 402.317 -2.19311 -6.59491 0
M  V30 4242 H 405.508 -1.19906 -4.52482 0
M  V30 4243 H 405.681 -1.90284 -6.19432 0
M  V30 4244 N 399.087 1.5561 -0.249682 0
M  V30 4245 C 400.336 1.98187 0.37479 0
M  V30 4246 C 400.649 1.14111 1.58865 0
M  V30 4247 O 401.855 1.46714 2.28445 0
M  V30 4248 C 400.311 3.52661 0.718192 0
M  V30 4249 C 399.919 4.45481 -0.474428 0
M  V30 4250 C 401.663 4.03888 1.3067 0
M  V30 4251 C 399.57 5.91303 -0.107026 0
M  V30 4252 H 398.5 0.740159 0.143808 0
M  V30 4253 H 401.151 1.80125 -0.350336 0
M  V30 4254 H 399.533 3.66429 1.50152 0
M  V30 4255 H 400.707 4.43473 -1.25172 0
M  V30 4256 H 399.022 4.04751 -0.978052 0
M  V30 4257 H 401.619 5.10358 1.59496 0
M  V30 4258 H 401.962 3.51401 2.23211 0
M  V30 4259 H 402.495 3.93457 0.586211 0
M  V30 4260 H 399.234 6.47833 -0.999642 0
M  V30 4261 H 398.754 5.9644 0.634013 0
M  V30 4262 H 400.433 6.46258 0.309807 0
M  V30 4263 N 400.565 -0.0233959 1.57583 0
M  V30 4264 C 401.813 -0.711654 1.89156 0
M  V30 4265 C 402.134 -1.75591 0.848096 0
M  V30 4266 O 401.404 -1.95547 -0.117566 0
M  V30 4267 H 399.984 -0.265835 0.698098 0
M  V30 4268 H 402.646 0.0119948 1.94896 0
M  V30 4269 H 401.742 -1.19766 2.88206 0
M  V30 4270 N 402.043 -1.548 -0.295768 0
M  V30 4271 C 403.29 -1.74329 -1.03032 0
M  V30 4272 C 403.618 -0.531915 -1.87085 0
M  V30 4273 O 402.873 0.486052 -1.89568 0
M  V30 4274 C 403.172 -2.98797 -1.961 0
M  V30 4275 C 402.838 -4.32356 -1.2798 0
M  V30 4276 C 401.5 -4.68661 -1.09135 0
M  V30 4277 C 403.852 -5.15128 -0.793243 0
M  V30 4278 C 401.18 -5.85312 -0.403269 0
M  V30 4279 C 403.532 -6.32488 -0.118854 0
M  V30 4280 C 402.196 -6.6745 0.0815043 0
M  V30 4281 H 401.466 -0.637916 -0.37702 0
M  V30 4282 H 404.113 -1.8906 -0.304696 0
M  V30 4283 H 402.418 -2.78869 -2.75207 0
M  V30 4284 H 404.115 -3.11102 -2.53015 0
M  V30 4285 H 400.705 -4.03808 -1.43655 0
M  V30 4286 H 404.889 -4.87575 -0.92653 0
M  V30 4287 H 400.145 -6.1094 -0.237098 0
M  V30 4288 H 404.319 -6.95892 0.266035 0
M  V30 4289 H 401.946 -7.57695 0.616685 0
M  V30 4290 N 403.521 0.559213 -1.47345 0
M  V30 4291 C 404.451 1.67622 -1.62558 0
M  V30 4292 C 405.432 1.63331 -0.475087 0
M  V30 4293 O 406.617 1.80983 -0.704182 0
M  V30 4294 C 403.747 3.0626 -1.63774 0
M  V30 4295 C 402.701 3.25397 -2.7803 0
M  V30 4296 C 402.027 4.64801 -2.64318 0
M  V30 4297 C 403.327 3.10965 -4.19641 0
M  V30 4298 H 405.021 1.55146 -2.56067 0
M  V30 4299 H 402.567 0.744961 -1.23233 0
M  V30 4300 H 404.52 3.84247 -1.73008 0
M  V30 4301 H 403.244 3.1969 -0.66825 0
M  V30 4302 H 401.903 2.49817 -2.68304 0
M  V30 4303 H 401.551 4.75028 -1.65401 0
M  V30 4304 H 401.251 4.78555 -3.40968 0
M  V30 4305 H 402.775 5.44926 -2.75478 0
M  V30 4306 H 404.189 3.78772 -4.30354 0
M  V30 4307 H 402.586 3.36229 -4.97062 0
M  V30 4308 H 403.656 2.07736 -4.38148 0
M  V30 4309 N 404.999 1.35443 0.805782 0
M  V30 4310 C 406.227 1.31878 1.59423 0
M  V30 4311 C 406.642 -0.103562 1.88516 0
M  V30 4312 O 405.999 -1.05575 1.48863 0
M  V30 4313 C 406.05 2.12426 2.92502 0
M  V30 4314 O 405.771 3.49115 2.6467 0
M  V30 4315 C 407.272 2.16455 3.86862 0
M  V30 4316 H 404.492 0.453002 0.495005 0
M  V30 4317 H 407.036 1.78309 1.00131 0
M  V30 4318 H 405.191 1.69593 3.48306 0
M  V30 4319 H 405.605 3.90957 3.49647 0
M  V30 4320 H 407.079 2.77204 4.77349 0
M  V30 4321 H 407.556 1.16352 4.23508 0
M  V30 4322 H 408.162 2.59453 3.36993 0
M  V30 4323 N 406.477 -1.02803 1.19454 0
M  V30 4324 C 407.725 -1.75869 0.995722 0
M  V30 4325 C 408.046 -1.89138 -0.474543 0
M  V30 4326 O 407.316 -1.42558 -1.34366 0
M  V30 4327 H 405.896 -0.651511 0.365435 0
M  V30 4328 H 408.558 -1.24004 1.50363 0
M  V30 4329 H 407.654 -2.76661 1.44447 0
M  V30 4330 N 407.956 -0.998596 -1.21925 0
M  V30 4331 C 409.367 -0.711939 -1.72593 0
M  V30 4332 C 409.718 0.770842 -1.80423 0
M  V30 4333 O 408.843 1.60237 -1.4544 0
M  V30 4334 C 409.438 -1.28567 -3.13458 0
M  V30 4335 C 407.997 -1.04828 -3.61508 0
M  V30 4336 C 407.144 -1.4024 -2.39224 0
M  V30 4337 H 410.095 -1.17027 -1.07193 0
M  V30 4338 H 410.116 -0.667098 -3.74607 0
M  V30 4339 H 409.628 -2.36486 -3.07727 0
M  V30 4340 H 407.729 0.0140383 -3.72597 0
M  V30 4341 H 407.842 -1.71566 -4.47328 0
M  V30 4342 H 406.206 -0.821077 -2.41103 0
M  V30 4343 H 406.989 -2.49176 -2.36149 0
M  V30 4344 N 409.434 1.37368 -0.772513 0
M  V30 4345 C 410.381 2.30262 -0.157488 0
M  V30 4346 C 411.351 1.51137 0.688965 0
M  V30 4347 O 412.536 1.79704 0.641168 0
M  V30 4348 C 409.676 3.37611 0.715045 0
M  V30 4349 C 408.789 4.31746 -0.148098 0
M  V30 4350 C 407.924 5.26171 0.729213 0
M  V30 4351 C 406.963 6.11948 -0.136418 0
M  V30 4352 N 406.1 6.98613 0.698914 0
M  V30 4353 H 410.94 2.82277 -0.955179 0
M  V30 4354 H 408.477 1.38957 -0.482631 0
M  V30 4355 H 410.435 3.98479 1.23575 0
M  V30 4356 H 409.065 2.86959 1.47833 0
M  V30 4357 H 408.117 3.72178 -0.786613 0
M  V30 4358 H 409.429 4.92084 -0.81579 0
M  V30 4359 H 408.583 5.92247 1.31637 0
M  V30 4360 H 407.322 4.66246 1.43059 0
M  V30 4361 H 406.327 5.4485 -0.736102 0
M  V30 4362 H 407.552 6.73945 -0.835134 0
M  V30 4363 H 405.498 6.41215 1.38489 0
M  V30 4364 H 405.415 7.55948 0.0885358 0
M  V30 4365 H 406.683 7.69077 1.27044 0
M  V30 4366 N 410.912 0.523116 1.48665 0
M  V30 4367 C 412.323 0.0808997 1.86525 0
M  V30 4368 C 412.674 -1.33975 1.43336 0
M  V30 4369 O 411.799 -2.00221 0.821009 0
M  V30 4370 C 412.394 0.140037 3.3851 0
M  V30 4371 C 410.953 -0.246948 3.75589 0
M  V30 4372 C 410.1 0.502845 2.72703 0
M  V30 4373 H 413.051 0.734736 1.40667 0
M  V30 4374 H 413.072 -0.649945 3.74908 0
M  V30 4375 H 412.584 1.17412 3.69914 0
M  V30 4376 H 410.685 -1.28343 3.49798 0
M  V30 4377 H 410.798 0.0878859 4.79019 0
M  V30 4378 H 409.162 -0.0500581 2.54651 0
M  V30 4379 H 409.945 1.53743 3.0695 0
M  V30 4380 N 412.39 -1.55475 0.257931 0
M  V30 4381 C 413.32 -2.24815 -0.630912 0
M  V30 4382 C 414.301 -1.23224 -1.17259 0
M  V30 4383 O 415.486 -1.51904 -1.20991 0
M  V30 4384 C 412.616 -2.95609 -1.82298 0
M  V30 4385 C 411.57 -4.03982 -1.41359 0
M  V30 4386 C 410.896 -4.6226 -2.68738 0
M  V30 4387 C 412.196 -5.19109 -0.57648 0
M  V30 4388 H 413.89 -2.99354 -0.0526878 0
M  V30 4389 H 411.436 -1.4398 -0.023901 0
M  V30 4390 H 413.389 -3.42822 -2.45054 0
M  V30 4391 H 412.113 -2.18577 -2.42676 0
M  V30 4392 H 410.772 -3.57555 -0.809324 0
M  V30 4393 H 410.42 -3.81915 -3.27338 0
M  V30 4394 H 410.12 -5.35424 -2.42065 0
M  V30 4395 H 411.644 -5.12212 -3.32372 0
M  V30 4396 H 413.058 -5.62479 -1.10861 0
M  V30 4397 H 411.455 -5.98729 -0.405351 0
M  V30 4398 H 412.525 -4.83174 0.408776 0
M  V30 4399 N 413.868 0.0150385 -1.57593 0
M  V30 4400 C 415.117 0.702115 -1.89085 0
M  V30 4401 C 415.43 1.75764 -0.858277 0
M  V30 4402 O 416.636 2.49829 -1.0629 0
M  V30 4403 C 415.092 1.29992 -3.35604 0
M  V30 4404 C 414.7 0.280007 -4.47124 0
M  V30 4405 C 416.444 1.96606 -3.76227 0
M  V30 4406 C 414.351 0.886949 -5.84711 0
M  V30 4407 H 413.281 0.265997 -0.705522 0
M  V30 4408 H 415.932 -0.0430408 -1.8345 0
M  V30 4409 H 414.314 2.09525 -3.36029 0
M  V30 4410 H 415.488 -0.489631 -4.58191 0
M  V30 4411 H 413.803 -0.284835 -4.15425 0
M  V30 4412 H 416.4 2.42893 -4.76347 0
M  V30 4413 H 416.743 2.79024 -3.08952 0
M  V30 4414 H 417.276 1.23828 -3.78036 0
M  V30 4415 H 414.015 0.101876 -6.55421 0
M  V30 4416 H 413.535 1.6261 -5.77337 0
M  V30 4417 H 415.214 1.39011 -6.3189 0
M  V30 4418 N 415.346 1.54954 0.287554 0
M  V30 4419 C 416.256 1.8991 1.37736 0
M  V30 4420 C 417.272 0.794701 1.54792 0
M  V30 4421 O 418.448 1.09243 1.69198 0
M  V30 4422 C 415.513 2.15108 2.71899 0
M  V30 4423 C 414.574 3.38752 2.63715 0
M  V30 4424 C 413.807 3.62739 3.91479 0
M  V30 4425 O 414.03 2.89492 4.91478 0
M  V30 4426 O 412.964 4.56267 3.92561 0
M  V30 4427 H 416.79 2.82652 1.11092 0
M  V30 4428 H 414.375 1.41315 0.484807 0
M  V30 4429 H 416.257 2.32806 3.51254 0
M  V30 4430 H 414.932 1.25551 2.9836 0
M  V30 4431 H 413.839 3.26405 1.82786 0
M  V30 4432 H 415.172 4.28483 2.42205 0
M  V30 4433 N 416.824 -0.551391 1.4764 0
M  V30 4434 C 418.24 -0.877887 1.33287 0
M  V30 4435 C 418.44 -1.98817 0.327721 0
M  V30 4436 O 417.496 -2.51171 -0.258695 0
M  V30 4437 C 418.809 -1.26563 2.72768 0
M  V30 4438 C 420.357 -1.37673 2.81097 0
M  V30 4439 C 420.832 -1.79799 4.21232 0
M  V30 4440 N 422.323 -1.8694 4.23802 0
M  V30 4441 C 423.058 -2.20876 5.29151 0
M  V30 4442 N 422.554 -2.53386 6.448 0
M  V30 4443 N 424.347 -2.217 5.16532 0
M  V30 4444 H 416.498 0.18153 2.11623 0
M  V30 4445 H 418.761 0.0185514 0.947818 0
M  V30 4446 H 418.467 -0.523591 3.47781 0
M  V30 4447 H 418.341 -2.22052 3.04915 0
M  V30 4448 H 420.728 -2.10956 2.06353 0
M  V30 4449 H 420.809 -0.40357 2.52596 0
M  V30 4450 H 420.453 -1.07083 4.96483 0
M  V30 4451 H 420.383 -2.78128 4.4716 0
M  V30 4452 H 422.874 -1.64179 3.40373 0
M  V30 4453 H 423.187 -2.78325 7.20941 0
M  V30 4454 H 421.532 -2.50953 6.48111 0
M  V30 4455 H 424.723 -1.95745 4.25207 0
M  V30 4456 H 424.896 -2.47818 5.98741 0
M  V30 4457 N 418.302 -1.35869 -0.798587 0
M  V30 4458 C 419.548 -1.2978 -1.55836 0
M  V30 4459 C 419.881 0.125322 -1.93795 0
M  V30 4460 O 419.156 1.07658 -1.61987 0
M  V30 4461 C 419.439 -2.21188 -2.84162 0
M  V30 4462 C 419.292 -3.72155 -2.52628 0
M  V30 4463 C 420.611 -2.11545 -3.85923 0
M  V30 4464 H 417.73 -0.472769 -0.565383 0
M  V30 4465 H 420.372 -1.66341 -0.918192 0
M  V30 4466 H 418.522 -1.90139 -3.38791 0
M  V30 4467 H 420.194 -4.13682 -2.04121 0
M  V30 4468 H 418.437 -3.92042 -1.85704 0
M  V30 4469 H 419.108 -4.31511 -3.44242 0
M  V30 4470 H 421.584 -2.38855 -3.40716 0
M  V30 4471 H 420.46 -2.77688 -4.73477 0
M  V30 4472 H 420.721 -1.09987 -4.282 0
M  V30 4473 N 419.78 1.02168 -1.19998 0
M  V30 4474 C 421.029 1.75091 -1.0013 0
M  V30 4475 C 421.342 1.89923 0.467835 0
M  V30 4476 O 422.548 2.59888 0.785515 0
M  V30 4477 C 421.004 3.14892 -1.74273 0
M  V30 4478 C 420.612 3.0809 -3.25245 0
M  V30 4479 C 422.356 3.9206 -1.62755 0
M  V30 4480 C 420.263 4.42867 -3.91948 0
M  V30 4481 H 419.193 0.656394 -0.37103 0
M  V30 4482 H 421.844 1.14284 -1.43567 0
M  V30 4483 H 420.226 3.7621 -1.2362 0
M  V30 4484 H 421.4 2.5611 -3.83072 0
M  V30 4485 H 419.715 2.44416 -3.3712 0
M  V30 4486 H 422.312 4.91764 -2.09934 0
M  V30 4487 H 422.655 4.12199 -0.582894 0
M  V30 4488 H 423.188 3.37359 -2.10793 0
M  V30 4489 H 419.927 4.27931 -4.96543 0
M  V30 4490 H 419.447 4.94874 -3.3891 0
M  V30 4491 H 421.126 5.11728 -3.95909 0
M  V30 4492 N 421.258 1.00505 1.21394 0
M  V30 4493 C 422.188 0.585684 2.26035 0
M  V30 4494 C 423.169 -0.393525 1.65485 0
M  V30 4495 O 424.354 -0.281497 1.92149 0
M  V30 4496 C 421.484 -0.0884283 3.47187 0
M  V30 4497 C 420.438 0.810567 4.20254 0
M  V30 4498 C 419.764 0.00286382 5.347 0
M  V30 4499 C 421.064 2.1132 4.77641 0
M  V30 4500 H 422.758 1.46039 2.61368 0
M  V30 4501 H 420.304 0.703648 1.25638 0
M  V30 4502 H 422.257 -0.393286 4.19561 0
M  V30 4503 H 420.981 -0.997766 3.10986 0
M  V30 4504 H 419.64 1.09925 3.49731 0
M  V30 4505 H 419.288 -0.907765 4.94741 0
M  V30 4506 H 418.988 0.601444 5.84514 0
M  V30 4507 H 420.512 -0.295808 6.09883 0
M  V30 4508 H 421.926 1.87148 5.41893 0
M  V30 4509 H 420.323 2.66164 5.37845 0
M  V30 4510 H 421.393 2.78393 3.9702 0
M  V30 4511 N 422.737 -1.36956 0.779787 0
M  V30 4512 C 423.687 -2.27539 0.144892 0
M  V30 4513 C 424.671 -1.46493 -0.665488 0
M  V30 4514 O 425.863 -1.68968 -0.527141 0
M  V30 4515 C 422.992 -3.35512 -0.727082 0
M  V30 4516 C 422.078 -4.24001 0.0915642 0
M  V30 4517 N 422.469 -4.92757 1.14125 0
M  V30 4518 C 420.767 -4.45807 -0.131141 0
M  V30 4519 C 421.468 -5.58138 1.6388 0
M  V30 4520 N 420.444 -5.35241 0.94962 0
M  V30 4521 H 424.246 -2.78176 0.948446 0
M  V30 4522 H 421.76 -1.50169 0.618315 0
M  V30 4523 H 423.757 -3.99324 -1.19776 0
M  V30 4524 H 422.417 -2.86431 -1.52929 0
M  V30 4525 H 423.428 -4.94984 1.52353 0
M  V30 4526 H 420.105 -4.07582 -0.904621 0
M  V30 4527 H 421.495 -6.23071 2.51461 0
M  V30 4528 N 424.215 -0.530993 -1.48385 0
M  V30 4529 C 425.464 0.00474348 -2.01699 0
M  V30 4530 C 425.777 1.35227 -1.41325 0
M  V30 4531 O 426.983 1.97643 -1.86144 0
M  V30 4532 C 425.439 0.0588473 -3.59852 0
M  V30 4533 C 425.047 -1.28385 -4.2921 0
M  V30 4534 C 426.791 0.543358 -4.21008 0
M  V30 4535 C 424.698 -1.19028 -5.79298 0
M  V30 4536 H 423.628 0.00554317 -0.75398 0
M  V30 4537 H 426.279 -0.674924 -1.70637 0
M  V30 4538 H 424.661 0.803612 -3.8776 0
M  V30 4539 H 425.835 -2.04426 -4.12973 0
M  V30 4540 H 424.15 -1.70418 -3.7993 0
M  V30 4541 H 426.747 0.631351 -5.3096 0
M  V30 4542 H 427.09 1.54937 -3.86394 0
M  V30 4543 H 427.623 -0.145754 -3.97533 0
M  V30 4544 H 424.362 -2.17147 -6.18488 0
M  V30 4545 H 423.882 -0.471246 -5.97946 0
M  V30 4546 H 425.561 -0.881365 -6.40969 0
M  V30 4547 N 425.693 1.55336 -0.266172 0
M  V30 4548 C 426.625 2.19544 0.658247 0
M  V30 4549 C 427.638 1.17746 1.12427 0
M  V30 4550 O 428.827 1.44517 1.04772 0
M  V30 4551 C 425.927 2.80032 1.9088 0
M  V30 4552 C 425.1 4.07436 1.59106 0
M  V30 4553 C 424.159 4.52056 2.69317 0
M  V30 4554 O 423.185 5.18023 2.35883 0
M  V30 4555 N 424.387 4.21448 3.99201 0
M  V30 4556 H 427.152 2.99503 0.108754 0
M  V30 4557 H 424.713 1.61667 -0.0869059 0
M  V30 4558 H 426.705 3.06831 2.63888 0
M  V30 4559 H 425.275 2.04119 2.36758 0
M  V30 4560 H 424.495 3.88021 0.695243 0
M  V30 4561 H 425.783 4.90462 1.35367 0
M  V30 4562 H 425.181 3.68528 4.29189 0
M  V30 4563 H 423.738 4.53039 4.68614 0
M  V30 4564 N 427.171 -0.0066808 1.57599 0
M  V30 4565 C 428.417 -0.693947 1.90558 0
M  V30 4566 C 428.75 -1.73792 0.866594 0
M  V30 4567 O 428.025 -1.94156 -0.115548 0
M  V30 4568 C 428.308 -1.34317 3.34112 0
M  V30 4569 C 428.161 -0.311189 4.48722 0
M  V30 4570 C 429.48 -2.27116 3.7697 0
M  V30 4571 H 426.599 -0.250803 0.693013 0
M  V30 4572 H 429.241 0.043242 1.89951 0
M  V30 4573 H 427.391 -1.9715 3.3476 0
M  V30 4574 H 429.063 0.316944 4.6021 0
M  V30 4575 H 427.306 0.367253 4.32243 0
M  V30 4576 H 427.977 -0.804366 5.46108 0
M  V30 4577 H 430.453 -1.74306 3.77831 0
M  V30 4578 H 429.329 -2.69511 4.78179 0
M  V30 4579 H 429.59 -3.14743 3.10466 0
M  V30 4580 N 428.649 -1.55105 -0.279332 0
M  V30 4581 C 429.874 -1.7976 -1.03446 0
M  V30 4582 C 430.299 -0.565952 -1.79384 0
M  V30 4583 O 429.657 0.484259 -1.74713 0
M  V30 4584 C 429.705 -3.0179 -1.97371 0
M  V30 4585 O 428.809 -2.76432 -3.06038 0
M  V30 4586 H 428.15 -0.594334 -0.29608 0
M  V30 4587 H 430.68 -2.02235 -0.310165 0
M  V30 4588 H 430.69 -3.30351 -2.39441 0
M  V30 4589 H 429.365 -3.91085 -1.4151 0
M  V30 4590 H 427.942 -2.58949 -2.68328 0
M  V30 4591 N 430.127 0.543554 -1.4793 0
M  V30 4592 C 431.355 1.32516 -1.58894 0
M  V30 4593 C 431.77 1.87215 -0.244131 0
M  V30 4594 O 431.127 1.65709 0.764652 0
M  V30 4595 C 431.178 2.48554 -2.62494 0
M  V30 4596 O 430.899 1.96112 -3.91755 0
M  V30 4597 C 432.4 3.40572 -2.8377 0
M  V30 4598 H 429.62 0.403472 -0.536145 0
M  V30 4599 H 432.164 0.657106 -1.93655 0
M  V30 4600 H 430.319 3.1127 -2.30629 0
M  V30 4601 H 430.733 2.71967 -4.4848 0
M  V30 4602 H 432.207 4.18375 -3.60093 0
M  V30 4603 H 432.684 3.94965 -1.92092 0
M  V30 4604 H 433.29 2.8366 -3.16887 0
M  V30 4605 N 431.605 1.3629 0.791371 0
M  V30 4606 C 432.535 1.33137 1.91825 0
M  V30 4607 C 433.516 0.203168 1.68882 0
M  V30 4608 O 434.701 0.400509 1.90025 0
M  V30 4609 C 431.831 1.11793 3.28816 0
M  V30 4610 C 430.785 2.21417 3.66277 0
M  V30 4611 C 430.111 1.85218 5.01596 0
M  V30 4612 C 431.411 3.63489 3.75064 0
M  V30 4613 H 433.105 2.2743 1.9472 0
M  V30 4614 H 430.651 1.09479 0.935437 0
M  V30 4615 H 432.604 1.08222 4.07266 0
M  V30 4616 H 431.328 0.139501 3.26302 0
M  V30 4617 H 429.987 2.2411 2.90121 0
M  V30 4618 H 429.635 0.859544 4.95602 0
M  V30 4619 H 429.335 2.58611 5.27631 0
M  V30 4620 H 430.859 1.832 5.82469 0
M  V30 4621 H 432.273 3.63034 4.43711 0
M  V30 4622 H 430.67 4.35771 4.12582 0
M  V30 4623 H 431.74 3.98536 2.76219 0
M  V30 4624 N 433.083 -1.0153 1.20538 0
M  V30 4625 C 434.033 -2.08482 0.922991 0
M  V30 4626 C 435.017 -1.60469 -0.117702 0
M  V30 4627 O 436.209 -1.76772 0.0898465 0
M  V30 4628 C 433.338 -3.39952 0.478312 0
M  V30 4629 C 432.424 -3.94662 1.5525 0
M  V30 4630 N 432.815 -4.22866 2.77521 0
M  V30 4631 C 431.113 -4.22825 1.41897 0
M  V30 4632 C 431.814 -4.67002 3.4682 0
M  V30 4633 N 430.79 -4.69356 2.74237 0
M  V30 4634 H 434.592 -2.28199 1.85209 0
M  V30 4635 H 432.106 -1.19512 1.09957 0
M  V30 4636 H 434.103 -4.16105 0.257408 0
M  V30 4637 H 432.763 -3.21648 -0.444148 0
M  V30 4638 H 433.774 -4.11732 3.1416 0
M  V30 4639 H 430.451 -4.13714 0.561015 0
M  V30 4640 H 431.841 -4.97632 4.51455 0
M  V30 4641 N 434.561 -1.01147 -1.20859 0
M  V30 4642 C 435.972 -0.730205 -1.71828 0
M  V30 4643 C 436.323 0.751662 -1.8123 0
M  V30 4644 O 435.448 1.58686 -1.47132 0
M  V30 4645 C 436.043 -1.31885 -3.12077 0
M  V30 4646 C 434.602 -1.08656 -3.60376 0
M  V30 4647 C 433.749 -1.42769 -2.37723 0
M  V30 4648 H 436.7 -1.18158 -1.05945 0
M  V30 4649 H 436.721 -0.706793 -3.73878 0
M  V30 4650 H 436.233 -2.39737 -3.05201 0
M  V30 4651 H 434.334 -0.0254814 -3.72591 0
M  V30 4652 H 434.447 -1.76301 -4.45483 0
M  V30 4653 H 432.811 -0.846603 -2.40218 0
M  V30 4654 H 433.594 -2.51666 -2.33493 0
M  V30 4655 N 436.039 1.36541 -0.78704 0
M  V30 4656 C 437.264 2.0409 -0.369053 0
M  V30 4657 C 437.689 1.58957 1.00569 0
M  V30 4658 O 437.047 0.756926 1.64743 0
M  V30 4659 C 437.095 3.57924 -0.438466 0
M  V30 4660 O 436.199 4.08642 0.555479 0
M  V30 4661 H 435.54 0.645142 -0.157122 0
M  V30 4662 H 438.07 1.74545 -1.06749 0
M  V30 4663 H 438.08 4.06887 -0.301218 0
M  V30 4664 H 436.755 3.90127 -1.44132 0
M  V30 4665 H 435.332 3.70958 0.380088 0
M  V30 4666 N 437.518 0.538854 1.48102 0
M  V30 4667 C 438.746 0.0123136 2.06896 0
M  V30 4668 C 439.161 -1.27312 1.39417 0
M  V30 4669 O 438.518 -1.75949 0.484582 0
M  V30 4670 C 438.569 -0.206118 3.60912 0
M  V30 4671 O 438.29 1.0284 4.25859 0
M  V30 4672 C 439.791 -0.772033 4.36526 0
M  V30 4673 H 437.011 0.0375239 0.66995 0
M  V30 4674 H 439.555 0.747032 1.90367 0
M  V30 4675 H 437.71 -0.89091 3.77017 0
M  V30 4676 H 438.124 0.814654 5.18135 0
M  V30 4677 H 439.598 -0.874251 5.45033 0
M  V30 4678 H 440.075 -1.77904 4.01555 0
M  V30 4679 H 440.681 -0.123526 4.25121 0
M  V30 4680 N 438.996 -1.55193 0.274407 0
M  V30 4681 C 440.243 -1.99581 -0.342579 0
M  V30 4682 C 440.571 -1.1628 -1.55914 0
M  V30 4683 O 439.826 -0.22029 -1.94456 0
M  V30 4684 C 440.125 -3.49019 -0.769458 0
M  V30 4685 C 439.791 -4.49598 0.342389 0
M  V30 4686 C 438.453 -4.76821 0.647686 0
M  V30 4687 C 440.805 -5.0964 1.09163 0
M  V30 4688 C 438.133 -5.61354 1.70581 0
M  V30 4689 C 440.485 -5.95323 2.13948 0
M  V30 4690 C 439.149 -6.20867 2.45113 0
M  V30 4691 H 438.419 -0.730319 -0.125358 0
M  V30 4692 H 441.066 -1.87529 0.387971 0
M  V30 4693 H 439.371 -3.58544 -1.57967 0
M  V30 4694 H 441.068 -3.8077 -1.25757 0
M  V30 4695 H 437.658 -4.28496 0.094318 0
M  V30 4696 H 441.842 -4.88632 0.869024 0
M  V30 4697 H 437.098 -5.79392 1.9523 0
M  V30 4698 H 441.272 -6.40881 2.72478 0
M  V30 4699 H 438.899 -6.86162 3.27239 0
M  V30 4700 N 440.474 -0.00167713 -1.576 0
M  V30 4701 C 441.422 1.0074 -2.09652 0
M  V30 4702 C 442.416 1.35483 -1.01689 0
M  V30 4703 O 443.622 1.34028 -1.20152 0
M  V30 4704 H 439.997 0.342537 -0.669457 0
M  V30 4705 H 441.968 0.542841 -2.93421 0
M  V30 4706 C 440.717 2.2899 -2.61647 0
M  V30 4707 H 440.04 2.03124 -3.44355 0
M  V30 4708 H 441.48 2.9787 -3.01744 0
M  V30 4709 C 439.939 3.00085 -1.53136 0
M  V30 4710 O 440.469 3.91135 -0.91524 0
M  V30 4711 N 438.675 2.6194 -1.25841 0
M  V30 4712 H 438.222 1.8798 -1.76129 0
M  V30 4713 H 438.18 3.09822 -0.534576 0
M  V30 4714 N 441.952 1.55251 0.271103 0
M  V30 4715 C 442.884 1.84675 1.35749 0
M  V30 4716 C 443.897 0.731366 1.45447 0
M  V30 4717 O 445.086 1.00924 1.4723 0
M  V30 4718 C 442.186 1.99638 2.73857 0
M  V30 4719 C 441.359 3.30312 2.86727 0
M  V30 4720 C 440.418 3.35318 4.05522 0
M  V30 4721 O 439.444 4.08682 3.96191 0
M  V30 4722 N 440.646 2.62857 5.17577 0
M  V30 4723 H 443.411 2.78445 1.10853 0
M  V30 4724 H 440.972 1.55191 0.461218 0
M  V30 4725 H 442.964 2.00355 3.51625 0
M  V30 4726 H 441.534 1.12725 2.91568 0
M  V30 4727 H 440.754 3.42118 1.95829 0
M  V30 4728 H 442.042 4.16488 2.92258 0
M  V30 4729 H 441.44 2.02939 5.28046 0
M  V30 4730 H 439.997 2.69295 5.93568 0
M  V30 4731 N 443.43 -0.535701 1.48216 0
M  V30 4732 C 444.36 -1.65014 1.65204 0
M  V30 4733 C 445.341 -1.62554 0.501011 0
M  V30 4734 O 446.526 -1.7984 0.732886 0
M  V30 4735 C 443.656 -3.03616 1.68626 0
M  V30 4736 C 442.61 -3.20932 2.83172 0
M  V30 4737 C 441.936 -4.60537 2.71679 0
M  V30 4738 C 443.236 -3.04249 4.24535 0
M  V30 4739 H 444.93 -1.51053 2.58502 0
M  V30 4740 H 442.476 -0.725262 1.24402 0
M  V30 4741 H 444.429 -3.81446 1.79099 0
M  V30 4742 H 443.153 -3.18587 0.719026 0
M  V30 4743 H 441.812 -2.45517 2.72244 0
M  V30 4744 H 441.46 -4.72336 1.72937 0
M  V30 4745 H 441.16 -4.73069 3.48538 0
M  V30 4746 H 442.684 -5.40475 2.84112 0
M  V30 4747 H 444.098 -3.71877 4.36326 0
M  V30 4748 H 442.495 -3.28278 5.02348 0
M  V30 4749 H 443.565 -2.00739 4.41397 0
M  V30 4750 N 444.908 -1.36708 -0.784132 0
M  V30 4751 C 445.841 -1.25827 -1.90375 0
M  V30 4752 C 446.819 -0.141331 -1.61985 0
M  V30 4753 O 448.003 -0.313389 -1.85877 0
M  V30 4754 C 445.13 -0.942621 -3.25319 0
M  V30 4755 C 444.176 -2.07474 -3.72635 0
M  V30 4756 S 445.009 -3.69317 -3.8777 0
M  V30 4757 C 446.165 -3.39876 -5.25581 0
M  V30 4758 H 446.398 -2.20593 -1.99314 0
M  V30 4759 H 443.931 -1.22186 -0.943926 0
M  V30 4760 H 445.889 -0.767321 -4.03265 0
M  V30 4761 H 444.55 -0.0126566 -3.14097 0
M  V30 4762 H 443.743 -1.80858 -4.70432 0
M  V30 4763 H 443.345 -2.20953 -3.01754 0
M  V30 4764 H 445.637 -2.94097 -6.10339 0
M  V30 4765 H 446.58 -4.36956 -5.57203 0
M  V30 4766 H 446.988 -2.75098 -4.92931 0
M  V30 4767 N 446.386 1.0089 -1.21074 0
M  V30 4768 C 447.635 1.74019 -1.01981 0
M  V30 4769 C 447.948 1.90408 0.447665 0
M  V30 4770 O 449.154 2.60707 0.757906 0
M  V30 4771 C 447.61 3.13026 -1.77603 0
M  V30 4772 C 447.218 3.04623 -3.28495 0
M  V30 4773 C 448.962 3.90312 -1.66904 0
M  V30 4774 C 446.869 4.38685 -3.96623 0
M  V30 4775 H 445.799 0.652422 -0.377971 0
M  V30 4776 H 448.45 1.12755 -1.44771 0
M  V30 4777 H 446.832 3.74878 -1.27604 0
M  V30 4778 H 448.006 2.52032 -3.85767 0
M  V30 4779 H 446.321 2.40827 -3.39693 0
M  V30 4780 H 448.918 4.8951 -2.15138 0
M  V30 4781 H 449.261 4.11558 -0.62658 0
M  V30 4782 H 449.794 3.35104 -2.14359 0
M  V30 4783 H 446.533 4.22641 -5.01054 0
M  V30 4784 H 446.053 4.91252 -3.4414 0
M  V30 4785 H 447.732 5.075 -4.01314 0
M  V30 4786 N 447.864 1.01787 1.20321 0
M  V30 4787 C 449.089 0.727009 1.9424 0
M  V30 4788 C 449.514 -0.706179 1.74341 0
M  V30 4789 O 448.872 -1.48609 1.03852 0
M  V30 4790 C 448.92 1.06958 3.44372 0
M  V30 4791 O 448.024 0.181983 4.11998 0
M  V30 4792 H 447.365 0.269626 0.606793 0
M  V30 4793 H 449.895 1.36158 1.52716 0
M  V30 4794 H 449.905 1.02182 3.94997 0
M  V30 4795 H 448.58 2.11378 3.58179 0
M  V30 4796 H 447.157 0.287378 3.71791 0
M  V30 4797 N 449.342 -1.36122 0.79427 0
M  V30 4798 C 450.274 -2.28683 0.153903 0
M  V30 4799 C 451.287 -1.49707 -0.639669 0
M  V30 4800 O 452.476 -1.7209 -0.474054 0
M  V30 4801 C 449.576 -3.29202 -0.804921 0
M  V30 4802 C 448.749 -4.37358 -0.060366 0
M  V30 4803 C 447.808 -5.17811 -0.935849 0
M  V30 4804 O 446.834 -5.67853 -0.391309 0
M  V30 4805 N 448.036 -5.34721 -2.25951 0
M  V30 4806 H 450.801 -2.84278 0.949008 0
M  V30 4807 H 448.362 -1.4834 0.648611 0
M  V30 4808 H 450.354 -3.79914 -1.39455 0
M  V30 4809 H 448.924 -2.74212 -1.50088 0
M  V30 4810 H 448.144 -3.87746 0.710382 0
M  V30 4811 H 449.432 -5.06777 0.45324 0
M  V30 4812 H 448.83 -4.95687 -2.72601 0
M  V30 4813 H 447.387 -5.88657 -2.79867 0
M  V30 4814 N 450.82 -0.546701 -1.47814 0
M  V30 4815 C 451.75 0.195317 -2.32682 0
M  V30 4816 C 452.731 0.918981 -1.43139 0
M  V30 4817 O 453.916 0.901501 -1.72008 0
M  V30 4818 C 451.046 1.23237 -3.247 0
M  V30 4819 C 450 0.625818 -4.234 0
M  V30 4820 C 449.326 1.76674 -5.04669 0
M  V30 4821 C 450.626 -0.413515 -5.2066 0
M  V30 4822 H 452.32 -0.513184 -2.94969 0
M  V30 4823 H 449.866 -0.248241 -1.41844 0
M  V30 4824 H 451.819 1.75955 -3.82907 0
M  V30 4825 H 450.543 1.97067 -2.60446 0
M  V30 4826 H 449.202 0.120023 -3.66403 0
M  V30 4827 H 448.85 2.49383 -4.36826 0
M  V30 4828 H 448.55 1.36673 -5.71484 0
M  V30 4829 H 450.074 2.29738 -5.65732 0
M  V30 4830 H 451.488 0.0272042 -5.73294 0
M  V30 4831 H 449.885 -0.731825 -5.95621 0
M  V30 4832 H 450.955 -1.31325 -4.66778 0
M  V30 4833 N 452.299 1.55045 -0.282633 0
M  V30 4834 C 453.229 2.2579 0.595066 0
M  V30 4835 C 454.21 1.25074 1.15284 0
M  V30 4836 O 455.395 1.5381 1.18559 0
M  V30 4837 C 452.525 2.98472 1.77572 0
M  V30 4838 C 451.479 4.0618 1.34914 0
M  V30 4839 C 450.805 4.66477 2.6135 0
M  V30 4840 C 452.105 5.1996 0.493821 0
M  V30 4841 H 453.799 2.994 0.00505653 0
M  V30 4842 H 451.345 1.44 0.000992001 0
M  V30 4843 H 453.298 3.46677 2.39568 0
M  V30 4844 H 452.022 2.2241 2.39168 0
M  V30 4845 H 450.681 3.58797 0.752338 0
M  V30 4846 H 450.329 3.87074 3.2122 0
M  V30 4847 H 450.029 5.39207 2.33516 0
M  V30 4848 H 451.553 5.17435 3.24181 0
M  V30 4849 H 452.967 5.64172 1.01898 0
M  V30 4850 H 451.364 5.99299 0.310047 0
M  V30 4851 H 452.434 4.82462 -0.485593 0
M  V30 4852 N 453.777 0.010035 1.57597 0
M  V30 4853 C 454.727 -0.986858 2.05536 0
M  V30 4854 C 455.711 -1.29711 0.952042 0
M  V30 4855 O 456.903 -1.28641 1.21575 0
M  V30 4856 C 454.032 -2.2756 2.57043 0
M  V30 4857 C 453.118 -1.99455 3.74271 0
M  V30 4858 N 453.509 -1.41546 4.85591 0
M  V30 4859 C 451.807 -2.29547 3.82393 0
M  V30 4860 C 452.508 -1.3014 5.66956 0
M  V30 4861 N 451.484 -1.79044 5.13268 0
M  V30 4862 H 455.286 -0.533778 2.89012 0
M  V30 4863 H 452.8 -0.195432 1.6122 0
M  V30 4864 H 454.797 -2.99829 2.89669 0
M  V30 4865 H 453.457 -2.73512 1.7499 0
M  V30 4866 H 454.468 -1.09294 5.06236 0
M  V30 4867 H 451.145 -2.78304 3.11213 0
M  V30 4868 H 452.535 -0.855237 6.66435 0
M  V30 4869 N 455.255 -1.55392 -0.262866 0
M  V30 4870 C 456.165 -1.92077 -1.34698 0
M  V30 4871 C 457.181 -0.819227 -1.53508 0
M  V30 4872 O 458.357 -1.11921 -1.67439 0
M  V30 4873 C 455.422 -2.19407 -2.68443 0
M  V30 4874 C 454.483 -3.42905 -2.58292 0
M  V30 4875 C 453.716 -3.68921 -3.85659 0
M  V30 4876 O 453.939 -2.97275 -4.8681 0
M  V30 4877 O 452.873 -4.62455 -3.85252 0
M  V30 4878 H 456.699 -2.84384 -1.06581 0
M  V30 4879 H 454.284 -1.42069 -0.462264 0
M  V30 4880 H 456.166 -2.38365 -3.47506 0
M  V30 4881 H 454.841 -1.30282 -2.96325 0
M  V30 4882 H 453.748 -3.29272 -1.7757 0
M  V30 4883 H 455.081 -4.32282 -2.35358 0
M  V30 4884 N 456.733 0.527833 -1.48498 0
M  V30 4885 C 457.979 1.28295 -1.57836 0
M  V30 4886 C 458.334 1.9077 -0.249943 0
M  V30 4887 O 457.627 1.76421 0.747402 0
M  V30 4888 C 457.821 2.39275 -2.65485 0
M  V30 4889 C 457.65 1.87679 -4.08664 0
M  V30 4890 C 456.42 1.70187 -4.75778 0
M  V30 4891 C 458.618 1.40409 -4.94762 0
M  V30 4892 N 456.6 1.13238 -6.03366 0
M  V30 4893 C 457.971 0.954216 -6.12613 0
M  V30 4894 C 460.026 1.28732 -4.8097 0
M  V30 4895 C 458.729 0.39915 -7.18192 0
M  V30 4896 C 460.755 0.746244 -5.86673 0
M  V30 4897 C 460.117 0.306457 -7.03733 0
M  V30 4898 H 456.216 0.460408 -0.632099 0
M  V30 4899 H 458.8 0.594913 -1.85388 0
M  V30 4900 H 456.971 3.05572 -2.3975 0
M  V30 4901 H 458.703 3.06308 -2.64495 0
M  V30 4902 H 455.458 1.93772 -4.32145 0
M  V30 4903 H 455.882 0.867687 -6.71417 0
M  V30 4904 H 460.524 1.61338 -3.90807 0
M  V30 4905 H 458.242 0.0607678 -8.08077 0
M  V30 4906 H 461.828 0.659041 -5.78055 0
M  V30 4907 H 460.708 -0.105708 -7.84129 0
M  V30 4908 N 458.211 1.37122 0.776871 0
M  V30 4909 C 459.459 1.31787 1.53221 0
M  V30 4910 C 459.78 -0.0987589 1.9475 0
M  V30 4911 O 459.05 -1.0417 1.65908 0
M  V30 4912 H 457.63 0.484839 0.568278 0
M  V30 4913 H 460.292 1.71556 0.924917 0
M  V30 4914 H 459.388 1.95355 2.43398 0
M  V30 4915 N 459.689 -1.00246 1.21608 0
M  V30 4916 C 460.599 -2.12515 0.993709 0
M  V30 4917 C 461.615 -1.73913 -0.0549939 0
M  V30 4918 O 462.791 -2.00943 0.135619 0
M  V30 4919 C 459.856 -3.42083 0.563953 0
M  V30 4920 C 458.917 -3.94843 1.68516 0
M  V30 4921 C 458.15 -5.18226 1.27582 0
M  V30 4922 O 458.373 -5.70201 0.150506 0
M  V30 4923 O 457.307 -5.64497 2.0887 0
M  V30 4924 H 461.133 -2.34152 1.93407 0
M  V30 4925 H 458.718 -1.10891 1.00118 0
M  V30 4926 H 460.6 -4.20073 0.334194 0
M  V30 4927 H 459.275 -3.21828 -0.347665 0
M  V30 4928 H 458.182 -3.18068 1.96935 0
M  V30 4929 H 459.515 -4.19512 2.5743 0
M  V30 4930 N 461.167 -1.02423 -1.1978 0
M  V30 4931 C 462.077 -0.610919 -2.26506 0
M  V30 4932 C 463.093 0.355152 -1.70337 0
M  V30 4933 O 464.269 0.214195 -2.00258 0
M  V30 4934 C 461.334 0.0365921 -3.46681 0
M  V30 4935 C 460.395 -0.976389 -4.18049 0
M  V30 4936 C 459.628 -0.359683 -5.32487 0
M  V30 4937 O 459.851 0.838601 -5.64202 0
M  V30 4938 O 458.785 -1.08022 -5.92127 0
M  V30 4939 H 462.611 -1.49965 -2.64091 0
M  V30 4940 H 460.196 -0.794156 -1.26545 0
M  V30 4941 H 462.078 0.39786 -4.19518 0
M  V30 4942 H 460.753 0.899398 -3.10954 0
M  V30 4943 H 459.66 -1.38916 -3.47352 0
M  V30 4944 H 460.993 -1.80941 -4.57735 0
M  V30 4945 N 462.645 1.35699 -0.801477 0
M  V30 4946 C 463.893 1.9852 -0.37871 0
M  V30 4947 C 464.214 1.63907 1.05638 0
M  V30 4948 O 463.484 0.919013 1.73006 0
M  V30 4949 H 462.064 0.734322 -0.137042 0
M  V30 4950 H 464.726 1.65697 -1.02619 0
M  V30 4951 H 463.822 3.08382 -0.480284 0
M  V30 4952 N 464.123 0.554532 1.47522 0
M  V30 4953 C 465.37 0.029479 2.02479 0
M  V30 4954 C 465.698 -1.31929 1.42916 0
M  V30 4955 O 464.953 -1.87112 0.573385 0
M  V30 4956 C 465.252 -0.115927 3.57212 0
M  V30 4957 C 464.918 1.16161 4.3568 0
M  V30 4958 C 463.58 1.51168 4.56839 0
M  V30 4959 C 465.932 2.0083 4.80954 0
M  V30 4960 C 463.26 2.70696 5.2052 0
M  V30 4961 C 465.612 3.19559 5.45953 0
M  V30 4962 C 464.276 3.54882 5.65345 0
M  V30 4963 H 463.546 0.0107871 0.740921 0
M  V30 4964 H 466.193 0.725506 1.77225 0
M  V30 4965 H 464.498 -0.894902 3.81443 0
M  V30 4966 H 466.195 -0.53749 3.97381 0
M  V30 4967 H 462.785 0.879026 4.19489 0
M  V30 4968 H 466.969 1.75093 4.64388 0
M  V30 4969 H 462.225 2.98236 5.33728 0
M  V30 4970 H 466.399 3.85456 5.79997 0
M  V30 4971 H 464.026 4.47596 6.1446 0
M  V30 4972 N 465.601 -1.54893 0.290851 0
M  V30 4973 C 466.534 -2.19289 -0.631489 0
M  V30 4974 C 467.512 -1.15893 -1.14051 0
M  V30 4975 O 468.696 -1.4449 -1.21058 0
M  V30 4976 C 465.823 -2.82866 -1.86291 0
M  V30 4977 C 464.869 -3.997 -1.48801 0
M  V30 4978 S 465.702 -5.32641 -0.552644 0
M  V30 4979 C 466.858 -5.99696 -1.79209 0
M  V30 4980 H 467.091 -2.9718 -0.0843791 0
M  V30 4981 H 464.624 -1.54218 0.075031 0
M  V30 4982 H 466.582 -3.20124 -2.56964 0
M  V30 4983 H 465.243 -2.04839 -2.38117 0
M  V30 4984 H 464.436 -4.42932 -2.40473 0
M  V30 4985 H 464.038 -3.63947 -0.861321 0
M  V30 4986 H 466.33 -6.19886 -2.734 0
M  V30 4987 H 467.273 -6.94071 -1.40251 0
M  V30 4988 H 467.681 -5.29226 -1.96419 0
M  V30 4989 N 467.08 -0.0183926 -1.57589 0
M  V30 4990 C 468.043 0.951986 -2.08494 0
M  V30 4991 C 469.043 1.26092 -0.997874 0
M  V30 4992 O 470.233 1.20304 -1.25987 0
M  V30 4993 C 467.365 2.27165 -2.54182 0
M  V30 4994 H 468.558 0.511307 -2.95509 0
M  V30 4995 H 466.111 0.229444 -1.54607 0
M  V30 4996 H 466.846 2.75884 -1.70465 0
M  V30 4997 H 466.631 2.06057 -3.33591 0
M  V30 4998 H 468.121 2.9674 -2.93828 0
M  V30 4999 N 468.558 1.5553 0.254621 0
M  V30 5000 C 469.508 1.86057 1.31783 0
M  V30 5001 C 470.492 0.720827 1.4385 0
M  V30 5002 O 471.684 0.982586 1.47222 0
M  V30 5003 C 468.813 2.15203 2.67475 0
M  V30 5004 C 467.899 3.35484 2.59444 0
M  V30 5005 N 468.29 4.54945 2.2104 0
M  V30 5006 C 466.588 3.38441 2.90472 0
M  V30 5007 C 467.289 5.3707 2.23453 0
M  V30 5008 N 466.265 4.75936 2.62652 0
M  V30 5009 H 470.067 2.75953 1.01129 0
M  V30 5010 H 467.581 1.55653 0.463255 0
M  V30 5011 H 469.578 2.35235 3.44195 0
M  V30 5012 H 468.238 1.26601 2.99002 0
M  V30 5013 H 469.249 4.8071 1.92712 0
M  V30 5014 H 465.926 2.60087 3.2659 0
M  V30 5015 H 467.316 6.42626 1.96166 0
M  V30 5016 N 470.036 -0.519951 1.48776 0
M  V30 5017 C 471.282 -1.27711 1.57536 0
M  V30 5018 C 471.615 -1.92547 0.252866 0
M  V30 5019 O 470.89 -1.7979 -0.742021 0
M  V30 5020 C 471.173 -2.35875 2.72094 0
M  V30 5021 C 471.026 -1.75664 4.1408 0
M  V30 5022 C 472.345 -3.37575 2.82367 0
M  V30 5023 H 469.464 -0.462971 0.573434 0
M  V30 5024 H 472.106 -0.578194 1.80989 0
M  V30 5025 H 470.256 -2.95488 2.52228 0
M  V30 5026 H 471.928 -1.20025 4.45412 0
M  V30 5027 H 470.171 -1.06154 4.20611 0
M  V30 5028 H 470.842 -2.54029 4.90075 0
M  V30 5029 H 473.318 -2.87929 3.00393 0
M  V30 5030 H 472.194 -4.1064 3.64233 0
M  V30 5031 H 472.455 -3.98743 1.90936 0
M  V30 5032 N 471.514 -1.37532 -0.769588 0
M  V30 5033 C 472.791 -1.23392 -1.51768 0
M  V30 5034 C 473.171 0.17157 -2.10402 0
M  V30 5035 O 472.519 1.17943 -1.95708 0
M  V30 5036 C 472.729 -2.33163 -2.59685 0
M  V30 5037 C 474.077 -2.70809 -3.27028 0
M  V30 5038 O 475.101 -2.32355 -2.69981 0
M  V30 5039 O 473.96 -3.37066 -4.30173 0
M  V30 5040 H 471.054 -0.481617 -0.67229 0
M  V30 5041 H 473.6 -1.49318 -0.806368 0
M  V30 5042 H 472.372 -3.27273 -2.14494 0
M  V30 5043 H 471.995 -2.08713 -3.38415 0
M  V30 5044 N 472.992 0.995999 -1.22138 0
M  V30 5045 C 474.408 1.25917 -0.980667 0
M  V30 5046 C 474.608 1.98819 0.327604 0
M  V30 5047 O 473.664 2.29587 1.05101 0
M  V30 5048 C 474.977 2.07399 -2.17729 0
M  V30 5049 C 476.525 2.20594 -2.22052 0
M  V30 5050 C 477 3.05462 -3.41258 0
M  V30 5051 N 478.491 3.13049 -3.41401 0
M  V30 5052 C 479.226 3.78997 -4.30289 0
M  V30 5053 N 478.722 4.46899 -5.2939 0
M  V30 5054 N 480.515 3.75728 -4.18073 0
M  V30 5055 H 472.666 0.507158 -2.06256 0
M  V30 5056 H 474.929 0.28658 -0.903646 0
M  V30 5057 H 474.635 1.61191 -3.12586 0
M  V30 5058 H 474.509 3.08154 -2.17534 0
M  V30 5059 H 476.896 2.66017 -1.27745 0
M  V30 5060 H 476.977 1.1928 -2.26287 0
M  V30 5061 H 476.621 2.60739 -4.35864 0
M  V30 5062 H 476.551 4.06911 -3.34262 0
M  V30 5063 H 479.042 2.64721 -2.69688 0
M  V30 5064 H 479.355 4.94952 -5.935 0
M  V30 5065 H 477.7 4.45657 -5.33306 0
M  V30 5066 H 480.891 3.2184 -3.39907 0
M  V30 5067 H 481.064 4.26845 -4.87553 0
M  V30 5068 N 474.47 1.03057 1.19235 0
M  V30 5069 C 475.716 0.729098 1.89241 0
M  V30 5070 C 476.049 -0.740573 1.79525 0
M  V30 5071 O 475.324 -1.53946 1.18874 0
M  V30 5072 C 475.607 1.18304 3.40112 0
M  V30 5073 C 475.46 2.71406 3.5869 0
M  V30 5074 C 476.779 0.765161 4.33397 0
M  V30 5075 H 473.898 0.266338 0.687192 0
M  V30 5076 H 476.54 1.28079 1.40341 0
M  V30 5077 H 474.69 0.713672 3.81889 0
M  V30 5078 H 476.362 3.26303 3.26074 0
M  V30 5079 H 474.605 3.11717 3.01687 0
M  V30 5080 H 475.276 2.98225 4.64506 0
M  V30 5081 H 477.752 1.16889 3.99345 0
M  V30 5082 H 476.628 1.11065 5.37546 0
M  V30 5083 H 476.889 -0.332372 4.40849 0
M  V30 5084 N 475.948 -1.35272 0.808662 0
M  V30 5085 C 477.197 -1.97963 0.386483 0
M  V30 5086 C 477.51 -1.64866 -1.05255 0
M  V30 5087 O 478.716 -2.20937 -1.57794 0
M  V30 5088 C 477.172 -3.54162 0.640096 0
M  V30 5089 C 476.78 -3.96166 2.0918 0
M  V30 5090 C 478.524 -4.23553 0.283376 0
M  V30 5091 C 476.431 -5.4522 2.29106 0
M  V30 5092 H 475.361 -0.740742 0.140774 0
M  V30 5093 H 478.012 -1.5431 0.993012 0
M  V30 5094 H 476.394 -3.95983 -0.0364117 0
M  V30 5095 H 477.568 -3.65491 2.80629 0
M  V30 5096 H 475.883 -3.3967 2.40859 0
M  V30 5097 H 478.48 -5.33124 0.410273 0
M  V30 5098 H 478.823 -4.09105 -0.770659 0
M  V30 5099 H 479.356 -3.8716 0.913884 0
M  V30 5100 H 476.095 -5.64638 3.32962 0
M  V30 5101 H 475.615 -5.77457 1.62184 0
M  V30 5102 H 477.294 -6.1171 2.1076 0
M  V30 5103 N 477.426 -0.562348 -1.47226 0
M  V30 5104 C 478.703 0.0256985 -1.95583 0
M  V30 5105 C 479.083 1.48032 -1.50498 0
M  V30 5106 O 478.431 2.15973 -0.746181 0
M  V30 5107 C 478.641 -0.125129 -3.48776 0
M  V30 5108 C 479.989 0.0175728 -4.24596 0
M  V30 5109 O 481.013 -0.0529341 -3.56161 0
M  V30 5110 O 479.872 0.170145 -5.46235 0
M  V30 5111 H 476.966 0.0612565 -0.824728 0
M  V30 5112 H 479.512 -0.629233 -1.57603 0
M  V30 5113 H 478.284 -1.13715 -3.74412 0
M  V30 5114 H 477.907 0.567178 -3.93534 0
M  V30 5115 N 478.904 1.54736 -0.299062 0
M  V30 5116 C 480.151 2.00101 0.310784 0
M  V30 5117 C 480.479 1.18746 1.54045 0
M  V30 5118 O 479.734 0.251198 1.94081 0
M  V30 5119 C 480.033 3.50199 0.713835 0
M  V30 5120 C 479.699 4.48997 -0.413873 0
M  V30 5121 C 478.361 4.7573 -0.723462 0
M  V30 5122 C 480.713 5.07839 -1.17257 0
M  V30 5123 C 478.041 5.5857 -1.79491 0
M  V30 5124 C 480.393 5.91844 -2.23392 0
M  V30 5125 C 479.057 6.16889 -2.54959 0
M  V30 5126 H 478.327 0.732221 0.113724 0
M  V30 5127 H 480.974 1.86888 -0.417756 0
M  V30 5128 H 479.279 3.61012 1.52243 0
M  V30 5129 H 480.976 3.82723 1.19684 0
M  V30 5130 H 477.566 4.28292 -0.162476 0
M  V30 5131 H 481.75 4.87188 -0.946651 0
M  V30 5132 H 477.006 5.76213 -2.04423 0
M  V30 5133 H 481.18 6.36465 -2.8264 0
M  V30 5134 H 478.807 6.80869 -3.38114 0
M  V30 5135 N 480.382 0.0267497 1.57577 0
M  V30 5136 C 481.612 -0.6617 1.95717 0
M  V30 5137 C 482.02 -1.66331 0.901706 0
M  V30 5138 O 481.363 -1.83273 -0.125241 0
M  V30 5139 C 481.425 -1.42649 3.29987 0
M  V30 5140 C 481.089 -0.583482 4.5326 0
M  V30 5141 C 482.086 0.140221 5.19711 0
M  V30 5142 C 479.771 -0.521581 4.99585 0
M  V30 5143 C 481.765 0.914523 6.30805 0
M  V30 5144 C 479.452 0.256428 6.10562 0
M  V30 5145 C 480.45 0.973189 6.76031 0
M  V30 5146 O 480.138 1.73845 7.84878 0
M  V30 5147 H 479.87 -0.187483 0.649481 0
M  V30 5148 H 482.424 0.0820847 2.05236 0
M  V30 5149 H 480.654 -2.21536 3.16952 0
M  V30 5150 H 482.343 -2.00282 3.53047 0
M  V30 5151 H 483.109 0.101716 4.84893 0
M  V30 5152 H 478.988 -1.06904 4.48433 0
M  V30 5153 H 482.532 1.4745 6.81839 0
M  V30 5154 H 478.429 0.296657 6.44818 0
M  V30 5155 H 479.197 1.65797 8.01532 0
M  V30 5156 N 481.861 -1.55662 -0.24637 0
M  V30 5157 C 483.086 -1.81914 -0.996093 0
M  V30 5158 C 483.511 -0.603875 -1.78143 0
M  V30 5159 O 482.869 0.447091 -1.75701 0
M  V30 5160 C 482.917 -3.05908 -1.90925 0
M  V30 5161 O 482.021 -2.82861 -3.00105 0
M  V30 5162 H 481.362 -0.600481 -0.283406 0
M  V30 5163 H 483.892 -2.02848 -0.267199 0
M  V30 5164 H 483.902 -3.35356 -2.3238 0
M  V30 5165 H 482.577 -3.93999 -1.33183 0
M  V30 5166 H 481.154 -2.64583 -2.62775 0
M  V30 5167 N 483.339 0.512053 -1.4905 0
M  V30 5168 C 484.287 1.63568 -1.65373 0
M  V30 5169 C 485.281 1.61228 -0.519806 0
M  V30 5170 O 486.487 1.65869 -0.699101 0
M  V30 5171 H 482.862 0.542019 -0.521267 0
M  V30 5172 H 484.833 1.4695 -2.59708 0
M  V30 5173 C 483.582 3.01761 -1.7273 0
M  V30 5174 H 482.905 3.04263 -2.59353 0
M  V30 5175 H 484.345 3.79948 -1.8819 0
M  V30 5176 C 482.804 3.33609 -0.46973 0
M  V30 5177 O 483.334 3.99607 0.409492 0
M  V30 5178 N 481.54 2.88651 -0.336003 0
M  V30 5179 H 481.087 2.35119 -1.05247 0
M  V30 5180 H 481.045 3.10328 0.504363 0
M  V30 5181 N 484.817 1.37938 0.762283 0
M  V30 5182 C 485.749 1.30349 1.88525 0
M  V30 5183 C 486.762 0.217402 1.61342 0
M  V30 5184 O 487.951 0.474291 1.72084 0
M  V30 5185 C 485.051 0.994844 3.23969 0
M  V30 5186 C 484.224 2.18829 3.78725 0
M  V30 5187 C 483.283 1.84844 4.92665 0
M  V30 5188 O 482.309 2.57244 5.07754 0
M  V30 5189 N 483.511 0.798201 5.74986 0
M  V30 5190 H 486.276 2.27114 1.95549 0
M  V30 5191 H 483.837 1.31686 0.941825 0
M  V30 5192 H 485.829 0.748168 3.97724 0
M  V30 5193 H 484.399 0.115446 3.12387 0
M  V30 5194 H 483.619 2.59615 2.96637 0
M  V30 5195 H 484.907 2.98497 4.1204 0
M  V30 5196 H 484.305 0.197611 5.65355 0
M  V30 5197 H 482.862 0.611396 6.48926 0
M  V30 5198 N 486.295 -0.989507 1.22664 0
M  V30 5199 C 487.242 -2.08024 0.999733 0
M  V30 5200 C 488.212 -1.65909 -0.0797047 0
M  V30 5201 O 489.397 -1.90669 0.0705715 0
M  V30 5202 C 486.537 -3.40067 0.587234 0
M  V30 5203 C 485.65 -3.95505 1.73781 0
M  V30 5204 C 484.785 -5.15722 1.27297 0
M  V30 5205 C 483.824 -5.63305 2.39488 0
M  V30 5206 N 482.961 -6.74758 1.94026 0
M  V30 5207 H 487.801 -2.26768 1.9334 0
M  V30 5208 H 485.338 -1.11171 0.963297 0
M  V30 5209 H 487.296 -4.15899 0.329227 0
M  V30 5210 H 485.926 -3.21314 -0.309426 0
M  V30 5211 H 484.978 -3.16513 2.11006 0
M  V30 5212 H 486.29 -4.26797 2.58158 0
M  V30 5213 H 485.444 -5.98854 0.972546 0
M  V30 5214 H 484.183 -4.86061 0.399445 0
M  V30 5215 H 483.188 -4.78759 2.70315 0
M  V30 5216 H 484.413 -5.94988 3.27362 0
M  V30 5217 H 482.359 -6.46874 1.09041 0
M  V30 5218 H 482.276 -7.05386 2.71968 0
M  V30 5219 H 483.544 -7.61387 1.67062 0
M  V30 5220 N 487.773 -1.03688 -1.18687 0
M  V30 5221 C 489.05 -0.652397 -1.84399 0
M  V30 5222 C 489.43 0.868386 -1.92412 0
M  V30 5223 O 488.778 1.76832 -1.44716 0
M  V30 5224 C 488.988 -1.3238 -3.22919 0
M  V30 5225 C 490.336 -1.45216 -3.98996 0
M  V30 5226 O 491.36 -1.2816 -3.32345 0
M  V30 5227 O 490.219 -1.72975 -5.18403 0
M  V30 5228 H 487.313 -0.227793 -0.795009 0
M  V30 5229 H 489.859 -1.13553 -1.2611 0
M  V30 5230 H 488.631 -2.36202 -3.11968 0
M  V30 5231 H 488.254 -0.829039 -3.88861 0
M  V30 5232 N 489.251 1.34841 -0.815825 0
M  V30 5233 C 490.214 2.27959 -0.238185 0
M  V30 5234 C 491.214 1.49983 0.579816 0
M  V30 5235 O 492.404 1.69617 0.396953 0
M  V30 5236 C 489.536 3.34314 0.666876 0
M  V30 5237 H 490.729 2.80558 -1.05958 0
M  V30 5238 H 488.282 1.44852 -0.587156 0
M  V30 5239 H 489.017 2.86916 1.5116 0
M  V30 5240 H 488.802 3.92014 0.0819106 0
M  V30 5241 H 490.292 4.0379 1.06506 0
M  V30 5242 N 490.729 0.570148 1.46925 0
M  V30 5243 C 491.978 0.0487352 2.01641 0
M  V30 5244 C 492.291 -1.31433 1.44861 0
M  V30 5245 O 493.497 -1.92638 1.91318 0
M  V30 5246 C 491.953 0.0365817 3.59881 0
M  V30 5247 C 491.561 1.39719 4.25655 0
M  V30 5248 C 493.305 -0.431545 4.22301 0
M  V30 5249 C 491.212 1.34345 5.75939 0
M  V30 5250 H 490.142 0.0144492 0.753862 0
M  V30 5251 H 492.793 0.719928 1.68788 0
M  V30 5252 H 491.175 -0.700522 3.89755 0
M  V30 5253 H 492.349 2.15303 4.07408 0
M  V30 5254 H 490.664 1.80431 3.75278 0
M  V30 5255 H 493.261 -0.490354 5.32447 0
M  V30 5256 H 493.604 -1.44638 3.90366 0
M  V30 5257 H 494.137 0.251102 3.97007 0
M  V30 5258 H 490.876 2.33469 6.12513 0
M  V30 5259 H 490.396 0.629615 5.96486 0
M  V30 5260 H 492.075 1.051 6.38407 0
M  V30 5261 N 492.207 -1.54576 0.307264 0
M  V30 5262 C 493.137 -2.26708 -0.55907 0
M  V30 5263 C 494.118 -1.26893 -1.1328 0
M  V30 5264 O 495.303 -1.55677 -1.16097 0
M  V30 5265 C 492.433 -3.01259 -1.72801 0
M  V30 5266 C 491.387 -4.08275 -1.28435 0
M  V30 5267 C 490.713 -4.70575 -2.53895 0
M  V30 5268 C 492.013 -5.2068 -0.411038 0
M  V30 5269 H 493.707 -2.9937 0.042576 0
M  V30 5270 H 491.253 -1.43983 0.0219173 0
M  V30 5271 H 493.206 -3.50444 -2.34023 0
M  V30 5272 H 491.93 -2.26187 -2.356 0
M  V30 5273 H 490.589 -3.59949 -0.695161 0
M  V30 5274 H 490.237 -3.92136 -3.15021 0
M  V30 5275 H 489.937 -5.42854 -2.24908 0
M  V30 5276 H 491.461 -5.22527 -3.15908 0
M  V30 5277 H 492.875 -5.65721 -0.929097 0
M  V30 5278 H 491.272 -5.99716 -0.214664 0
M  V30 5279 H 492.342 -4.81629 0.562287 0
M  V30 5280 N 493.685 -0.035106 -1.57561 0
M  V30 5281 C 494.648 0.929819 -2.09492 0
M  V30 5282 C 495.648 1.25026 -1.01119 0
M  V30 5283 O 496.838 1.18961 -1.27255 0
M  V30 5284 C 493.97 2.24457 -2.56577 0
M  V30 5285 H 495.163 0.479935 -2.96035 0
M  V30 5286 H 492.716 0.213033 -1.54841 0
M  V30 5287 H 493.451 2.74061 -1.73382 0
M  V30 5288 H 493.236 2.02508 -3.35757 0
M  V30 5289 H 494.726 2.93607 -2.96959 0
M  V30 5290 N 495.163 1.55791 0.238111 0
M  V30 5291 C 496.126 1.90239 1.27835 0
M  V30 5292 C 497.126 0.779552 1.4064 0
M  V30 5293 O 498.316 1.04747 1.3919 0
M  V30 5294 C 495.448 2.13859 2.65475 0
M  V30 5295 H 496.641 2.83262 0.985034 0
M  V30 5296 H 494.194 1.48818 0.477799 0
M  V30 5297 H 494.929 1.23334 2.99932 0
M  V30 5298 H 494.714 2.95643 2.57561 0
M  V30 5299 H 496.204 2.41664 3.40571 0
M  V30 5300 N 496.642 -0.504142 1.49319 0
M  V30 5301 C 497.605 -1.5883 1.65244 0
M  V30 5302 C 498.605 -1.52009 0.524386 0
M  V30 5303 O 499.795 -1.55218 0.79077 0
M  V30 5304 C 496.927 -2.98481 1.64687 0
M  V30 5305 H 498.12 -1.4604 2.61939 0
M  V30 5306 H 495.673 -0.728144 1.38303 0
M  V30 5307 H 496.408 -3.16751 0.695644 0
M  V30 5308 H 496.193 -3.0484 2.46607 0
M  V30 5309 H 497.683 -3.77256 1.79075 0
M  V30 5310 N 498.12 -1.38341 -0.754957 0
M  V30 5311 C 499.397 -1.24995 -1.50451 0
M  V30 5312 C 499.777 0.149244 -2.10572 0
M  V30 5313 O 499.125 1.15861 -1.96948 0
M  V30 5314 C 499.335 -2.35904 -2.57197 0
M  V30 5315 C 500.683 -2.74262 -3.24138 0
M  V30 5316 O 501.707 -2.35205 -2.67501 0
M  V30 5317 O 500.566 -3.4161 -4.26574 0
M  V30 5318 H 497.66 -0.48872 -0.667144 0
M  V30 5319 H 500.206 -1.50165 -0.790486 0
M  V30 5320 H 498.978 -3.2953 -2.11011 0
M  V30 5321 H 498.601 -2.12291 -3.36182 0
M  V30 5322 N 499.598 0.982988 -1.23187 0
M  V30 5323 C 500.545 2.07491 -1.01075 0
M  V30 5324 C 501.515 1.65949 0.070905 0
M  V30 5325 O 502.7 1.90629 -0.0806822 0
M  V30 5326 C 499.84 3.39751 -0.605261 0
M  V30 5327 C 498.953 3.94578 -1.75876 0
M  V30 5328 C 498.088 5.15039 -1.3003 0
M  V30 5329 C 497.127 5.62027 -2.42472 0
M  V30 5330 N 496.264 6.73719 -1.97602 0
M  V30 5331 H 501.104 2.25739 -1.9454 0
M  V30 5332 H 498.641 1.10659 -0.969179 0
M  V30 5333 H 500.599 4.15719 -0.351279 0
M  V30 5334 H 499.229 3.21473 0.292382 0
M  V30 5335 H 498.281 3.1539 -2.12681 0
M  V30 5336 H 499.593 4.25422 -2.60418 0
M  V30 5337 H 498.747 5.9833 -1.00429 0
M  V30 5338 H 497.486 4.85843 -0.425216 0
M  V30 5339 H 496.491 4.77318 -2.7285 0
M  V30 5340 H 497.716 5.93244 -3.30512 0
M  V30 5341 H 495.662 6.46287 -1.1247 0
M  V30 5342 H 495.579 7.03934 -2.75705 0
M  V30 5343 H 496.847 7.6049 -1.71098 0
M  V30 5344 N 501.076 1.04316 1.18135 0
M  V30 5345 C 502.322 0.758899 1.88712 0
M  V30 5346 C 502.677 -0.705863 1.78984 0
M  V30 5347 O 501.97 -1.50874 1.18101 0
M  V30 5348 C 502.164 1.16271 3.37958 0
M  V30 5349 C 501.993 2.66518 3.62213 0
M  V30 5350 C 500.763 3.33702 3.79436 0
M  V30 5351 C 502.961 3.64739 3.62588 0
M  V30 5352 N 500.943 4.72904 3.91452 0
M  V30 5353 C 502.314 4.89627 3.80348 0
M  V30 5354 C 504.369 3.58333 3.4569 0
M  V30 5355 C 503.072 6.08879 3.8296 0
M  V30 5356 C 505.098 4.77016 3.49586 0
M  V30 5357 C 504.46 6.00724 3.67845 0
M  V30 5358 H 500.559 0.329795 0.709055 0
M  V30 5359 H 503.143 1.33334 1.4188 0
M  V30 5360 H 501.314 0.616319 3.83479 0
M  V30 5361 H 503.046 0.829205 3.96114 0
M  V30 5362 H 499.801 2.84105 3.78921 0
M  V30 5363 H 500.225 5.45258 4.01277 0
M  V30 5364 H 504.867 2.63663 3.30517 0
M  V30 5365 H 502.585 7.03903 3.96921 0
M  V30 5366 H 506.171 4.73703 3.37782 0
M  V30 5367 H 505.051 6.91022 3.70753 0
M  V30 5368 N 502.554 -1.34406 0.822964 0
M  V30 5369 C 503.484 -2.32052 0.259608 0
M  V30 5370 C 504.465 -1.58243 -0.623961 0
M  V30 5371 O 505.65 -1.86224 -0.55083 0
M  V30 5372 C 502.78 -3.42434 -0.579314 0
M  V30 5373 C 501.734 -4.27499 0.20712 0
M  V30 5374 C 501.06 -5.29349 -0.754547 0
M  V30 5375 C 502.36 -5.02758 1.41533 0
M  V30 5376 H 504.054 -2.79418 1.07545 0
M  V30 5377 H 501.6 -1.34338 0.518593 0
M  V30 5378 H 503.553 -4.0976 -0.983612 0
M  V30 5379 H 502.277 -2.93717 -1.4282 0
M  V30 5380 H 500.936 -3.61776 0.592787 0
M  V30 5381 H 500.584 -4.76895 -1.59939 0
M  V30 5382 H 500.284 -5.8714 -0.232561 0
M  V30 5383 H 501.808 -5.99544 -1.1567 0
M  V30 5384 H 503.222 -5.62938 1.08504 0
M  V30 5385 H 501.619 -5.70123 1.87296 0
M  V30 5386 H 502.689 -4.32451 2.1935 0
M  V30 5387 N 504.032 -0.577932 -1.46621 0
M  V30 5388 C 505.26 -0.0671642 -2.06791 0
M  V30 5389 C 505.675 1.23571 -1.42743 0
M  V30 5390 O 505.032 1.74602 -0.531062 0
M  V30 5391 C 505.083 0.110357 -3.61332 0
M  V30 5392 O 504.804 -1.14095 -4.22982 0
M  V30 5393 C 506.305 0.656025 -4.38419 0
M  V30 5394 H 503.525 -0.0552732 -0.66872 0
M  V30 5395 H 506.069 -0.797242 -1.8832 0
M  V30 5396 H 504.224 0.790637 -3.79246 0
M  V30 5397 H 504.638 -0.951742 -5.15793 0
M  V30 5398 H 506.112 0.729438 -5.47159 0
M  V30 5399 H 506.589 1.67195 -4.06131 0
M  V30 5400 H 507.195 0.0107692 -4.25299 0
M  V30 5401 N 505.51 1.54411 -0.315457 0
M  V30 5402 C 506.758 2.00023 0.288971 0
M  V30 5403 C 507.079 1.20529 1.5329 0
M  V30 5404 O 506.349 0.304986 1.93511 0
M  V30 5405 H 504.929 0.738891 0.109766 0
M  V30 5406 H 507.591 1.90094 -0.430129 0
M  V30 5407 H 506.687 3.07198 0.550999 0
M  V30 5408 N 506.988 0.0434614 1.5754 0
M  V30 5409 C 507.918 -0.931651 2.14109 0
M  V30 5410 C 508.899 -1.32971 1.06079 0
M  V30 5411 O 510.084 -1.40579 1.33982 0
M  V30 5412 C 507.214 -2.20914 2.67982 0
M  V30 5413 C 506.168 -1.95139 3.80926 0
M  V30 5414 C 505.494 -3.29276 4.21285 0
M  V30 5415 C 506.794 -1.27913 5.06395 0
M  V30 5416 H 508.488 -0.460497 2.95837 0
M  V30 5417 H 506.034 -0.220058 1.42309 0
M  V30 5418 H 507.987 -2.89522 3.06194 0
M  V30 5419 H 506.711 -2.70221 1.83434 0
M  V30 5420 H 505.37 -1.28945 3.43175 0
M  V30 5421 H 505.018 -3.76369 3.33699 0
M  V30 5422 H 504.718 -3.12831 4.97404 0
M  V30 5423 H 506.242 -3.99129 4.62091 0
M  V30 5424 H 507.656 -1.86544 5.42102 0
M  V30 5425 H 506.053 -1.2182 5.87605 0
M  V30 5426 H 507.123 -0.254066 4.84234 0
M  V30 5427 N 508.466 -1.55915 -0.229846 0
M  V30 5428 C 509.429 -1.90914 -1.26824 0
M  V30 5429 C 510.429 -0.786999 -1.40225 0
M  V30 5430 O 511.619 -1.05484 -1.38632 0
M  V30 5431 C 508.751 -2.15264 -2.64337 0
M  V30 5432 H 509.944 -2.8378 -0.969998 0
M  V30 5433 H 507.497 -1.49069 -0.4699 0
M  V30 5434 H 508.232 -1.24923 -2.99274 0
M  V30 5435 H 508.017 -2.97005 -2.55989 0
M  V30 5436 H 509.507 -2.43467 -3.39284 0
M  V30 5437 N 509.944 0.496216 -1.49584 0
M  V30 5438 C 510.854 1.62352 -1.69349 0
M  V30 5439 C 511.87 1.64184 -0.576147 0
M  V30 5440 O 513.046 1.82517 -0.85144 0
M  V30 5441 C 510.111 2.98698 -1.76013 0
M  V30 5442 C 509.172 3.07454 -2.99617 0
M  V30 5443 C 508.405 4.37296 -3.05953 0
M  V30 5444 O 508.628 5.2637 -2.19752 0
M  V30 5445 O 507.562 4.51124 -3.9846 0
M  V30 5446 H 511.388 1.48606 -2.64859 0
M  V30 5447 H 508.973 0.673022 -1.33382 0
M  V30 5448 H 510.855 3.79725 -1.82721 0
M  V30 5449 H 509.53 3.12696 -0.836828 0
M  V30 5450 H 508.437 2.25597 -2.98424 0
M  V30 5451 H 509.77 2.98385 -3.91443 0
M  V30 5452 N 511.423 1.38739 0.74761 0
M  V30 5453 C 512.669 1.3648 1.50814 0
M  V30 5454 C 513.024 -0.0431982 1.92351 0
M  V30 5455 O 512.317 -1.0071 1.62997 0
M  V30 5456 C 512.511 2.25992 2.7688 0
M  V30 5457 C 512.34 3.75354 2.47668 0
M  V30 5458 C 511.11 4.44348 2.40589 0
M  V30 5459 C 513.308 4.67642 2.14046 0
M  V30 5460 N 511.29 5.79114 2.03715 0
M  V30 5461 C 512.661 5.90965 1.87512 0
M  V30 5462 C 514.716 4.55787 2.00407 0
M  V30 5463 C 513.419 7.03759 1.48714 0
M  V30 5464 C 515.445 5.68491 1.63011 0
M  V30 5465 C 514.807 6.90879 1.37353 0
M  V30 5466 H 510.906 0.554695 0.551214 0
M  V30 5467 H 513.49 1.7418 0.870033 0
M  V30 5468 H 511.661 1.9047 3.3849 0
M  V30 5469 H 513.393 2.14815 3.42982 0
M  V30 5470 H 510.148 3.97634 2.57262 0
M  V30 5471 H 510.572 6.504 1.87906 0
M  V30 5472 H 515.214 3.61712 2.18916 0
M  V30 5473 H 512.932 7.97746 1.28945 0
M  V30 5474 H 516.518 5.613 1.53081 0
M  V30 5475 H 515.398 7.76609 1.08848 0
M  V30 5476 N 512.901 -0.976442 1.23707 0
M  V30 5477 C 513.851 -2.0544 0.988851 0
M  V30 5478 C 514.835 -1.60762 -0.0665901 0
M  V30 5479 O 516.027 -1.76396 0.14604 0
M  V30 5480 C 513.156 -3.38258 0.586223 0
M  V30 5481 C 512.242 -3.89523 1.67728 0
M  V30 5482 N 512.633 -4.13823 2.90834 0
M  V30 5483 C 510.931 -4.18097 1.55277 0
M  V30 5484 C 511.632 -4.55731 3.61502 0
M  V30 5485 N 510.608 -4.60394 2.8903 0
M  V30 5486 H 514.41 -2.22191 1.92376 0
M  V30 5487 H 511.924 -1.15954 1.13704 0
M  V30 5488 H 513.921 -4.15075 0.389658 0
M  V30 5489 H 512.581 -3.22898 -0.341594 0
M  V30 5490 H 513.592 -4.01529 3.271 0
M  V30 5491 H 510.269 -4.11719 0.692351 0
M  V30 5492 H 511.659 -4.83018 4.67059 0
M  V30 5493 N 514.379 -1.04941 -1.1758 0
M  V30 5494 C 515.625 -0.759112 -1.88057 0
M  V30 5495 C 515.958 0.711918 -1.8068 0
M  V30 5496 O 515.233 1.52035 -1.21308 0
M  V30 5497 C 515.516 -1.237 -3.38187 0
M  V30 5498 C 515.369 -2.77078 -3.54327 0
M  V30 5499 C 516.688 -0.834014 -4.32125 0
M  V30 5500 H 513.807 -0.277237 -0.682868 0
M  V30 5501 H 516.449 -1.30296 -1.38286 0
M  V30 5502 H 514.599 -0.774337 -3.80705 0
M  V30 5503 H 516.271 -3.31449 -3.20842 0
M  V30 5504 H 514.514 -3.16477 -2.96689 0
M  V30 5505 H 515.185 -3.05577 -4.59703 0
M  V30 5506 H 517.661 -1.23228 -3.97434 0
M  V30 5507 H 516.537 -1.19603 -5.35711 0
M  V30 5508 H 516.798 0.262195 -4.41322 0
M  V30 5509 N 515.857 1.33968 -0.830081 0
M  V30 5510 C 517.268 1.80439 -0.479455 0
M  V30 5511 C 517.619 1.68756 1.00079 0
M  V30 5512 O 516.744 1.23171 1.77927 0
M  V30 5513 C 517.339 3.27611 -0.863505 0
M  V30 5514 C 515.898 3.72133 -0.565145 0
M  V30 5515 C 515.045 2.55549 -1.07657 0
M  V30 5516 H 517.996 1.21614 -1.0196 0
M  V30 5517 H 518.017 3.8012 -0.170083 0
M  V30 5518 H 517.529 3.36082 -1.94089 0
M  V30 5519 H 515.63 3.69196 0.502536 0
M  V30 5520 H 515.743 4.65963 -1.11422 0
M  V30 5521 H 514.107 2.49788 -0.497807 0
M  V30 5522 H 514.89 2.66786 -2.16055 0
M  V30 5523 N 517.335 0.585699 1.46312 0
M  V30 5524 C 518.298 -0.135673 2.28798 0
M  V30 5525 C 519.298 -0.815988 1.38558 0
M  V30 5526 O 520.488 -0.667487 1.60904 0
M  V30 5527 C 517.62 -1.20163 3.1902 0
M  V30 5528 H 518.813 0.589257 2.94054 0
M  V30 5529 H 516.366 0.343794 1.52472 0
M  V30 5530 H 517.101 -1.95804 2.58517 0
M  V30 5531 H 516.886 -0.718282 3.85465 0
M  V30 5532 H 518.376 -1.70749 3.81096 0
M  V30 5533 N 518.813 -1.54241 0.323641 0
M  V30 5534 C 519.776 -2.22997 -0.529602 0
M  V30 5535 C 520.776 -1.22345 -1.04347 0
M  V30 5536 O 521.966 -1.46924 -0.935889 0
M  V30 5537 C 519.098 -2.93409 -1.73562 0
M  V30 5538 H 520.291 -2.99815 0.0714518 0
M  V30 5539 H 517.844 -1.56121 0.0747258 0
M  V30 5540 H 518.579 -2.20729 -2.37591 0
M  V30 5541 H 518.364 -3.67217 -1.37456 0
M  V30 5542 H 519.854 -3.45794 -2.34128 0
M  V30 5543 N 520.291 -0.0518155 -1.57515 0
M  V30 5544 C 521.539 0.620595 -1.92336 0
M  V30 5545 C 521.86 1.71345 -0.930907 0
M  V30 5546 O 521.13 1.95885 0.0241341 0
M  V30 5547 H 519.71 0.232226 -0.709986 0
M  V30 5548 H 522.372 -0.104969 -1.94617 0
M  V30 5549 H 521.468 1.05879 -2.93592 0
M  V30 5550 N 521.769 1.56035 0.221574 0
M  V30 5551 C 522.702 1.87427 1.30178 0
M  V30 5552 C 523.68 0.731658 1.45209 0
M  V30 5553 O 524.864 0.980016 1.61022 0
M  V30 5554 C 521.991 2.08127 2.67209 0
M  V30 5555 C 521.037 3.30813 2.69194 0
M  V30 5556 S 521.87 4.86738 2.23263 0
M  V30 5557 C 523.026 5.10474 3.62171 0
M  V30 5558 H 523.259 2.78756 1.03355 0
M  V30 5559 H 520.792 1.48469 0.423813 0
M  V30 5560 H 522.75 2.20736 3.46101 0
M  V30 5561 H 521.411 1.17595 2.91256 0
M  V30 5562 H 520.604 3.42341 3.6989 0
M  V30 5563 H 520.206 3.1706 1.98366 0
M  V30 5564 H 522.498 4.9937 4.5786 0
M  V30 5565 H 523.441 6.12359 3.55558 0
M  V30 5566 H 523.849 4.38208 3.55857 0
M  V30 5567 N 523.247 -0.488276 1.49845 0
M  V30 5568 C 524.494 -1.24157 1.59973 0
M  V30 5569 C 524.822 -1.92293 0.292182 0
M  V30 5570 O 524.077 -1.81942 -0.720813 0
M  V30 5571 C 524.376 -2.32152 2.71735 0
M  V30 5572 C 524.042 -1.81387 4.12807 0
M  V30 5573 C 522.704 -1.67262 4.51195 0
M  V30 5574 C 525.056 -1.43537 5.01045 0
M  V30 5575 C 522.384 -1.13685 5.7558 0
M  V30 5576 C 524.736 -0.914081 6.25961 0
M  V30 5577 C 523.4 -0.759327 6.63167 0
M  V30 5578 H 522.67 -0.454322 0.585383 0
M  V30 5579 H 525.317 -0.540261 1.83721 0
M  V30 5580 H 523.622 -3.08122 2.42008 0
M  V30 5581 H 525.319 -2.90164 2.76778 0
M  V30 5582 H 521.909 -1.93344 3.82513 0
M  V30 5583 H 526.093 -1.53292 4.72033 0
M  V30 5584 H 521.349 -1.00426 6.03096 0
M  V30 5585 H 525.523 -0.612066 6.93705 0
M  V30 5586 H 523.15 -0.342002 7.5943 0
M  V30 5587 N 524.725 -1.39134 -0.740242 0
M  V30 5588 C 525.655 -1.40165 -1.86751 0
M  V30 5589 C 526.636 -0.265708 -1.68012 0
M  V30 5590 O 527.821 -0.47076 -1.88408 0
M  V30 5591 C 524.951 -1.2392 -3.2444 0
M  V30 5592 C 523.905 -2.34858 -3.57807 0
M  V30 5593 C 523.231 -2.03707 -4.94376 0
M  V30 5594 C 524.531 -3.77159 -3.61315 0
M  V30 5595 H 526.225 -2.345 -1.86145 0
M  V30 5596 H 523.771 -1.12875 -0.89416 0
M  V30 5597 H 525.724 -1.23263 -4.02969 0
M  V30 5598 H 524.448 -0.26051 -3.25559 0
M  V30 5599 H 523.107 -2.34723 -2.81604 0
M  V30 5600 H 522.755 -1.04289 -4.9207 0
M  V30 5601 H 522.455 -2.78016 -5.17669 0
M  V30 5602 H 523.979 -2.04691 -5.75268 0
M  V30 5603 H 525.393 -3.79252 -4.29931 0
M  V30 5604 H 523.79 -4.50784 -3.96124 0
M  V30 5605 H 524.86 -4.08513 -2.61238 0
M  V30 5606 N 526.204 0.969867 -1.24223 0
M  V30 5607 C 527.45 1.71582 -1.09231 0
M  V30 5608 C 527.805 1.88898 0.365432 0
M  V30 5609 O 527.098 1.43781 1.2664 0
M  V30 5610 C 527.292 3.10883 -1.76314 0
M  V30 5611 C 527.121 3.07155 -3.2846 0
M  V30 5612 C 525.891 3.11757 -3.97663 0
M  V30 5613 C 528.089 2.895 -4.25082 0
M  V30 5614 N 526.071 2.98025 -5.36707 0
M  V30 5615 C 527.442 2.84041 -5.51109 0
M  V30 5616 C 529.497 2.74064 -4.15684 0
M  V30 5617 C 528.2 2.64725 -6.68815 0
M  V30 5618 C 530.226 2.56115 -5.33066 0
M  V30 5619 C 529.588 2.51363 -6.58024 0
M  V30 5620 H 525.687 0.636496 -0.454309 0
M  V30 5621 H 528.271 1.15004 -1.57106 0
M  V30 5622 H 526.442 3.65657 -1.30955 0
M  V30 5623 H 528.174 3.74171 -1.54201 0
M  V30 5624 H 524.929 3.20352 -3.48814 0
M  V30 5625 H 525.353 2.94405 -6.09635 0
M  V30 5626 H 529.995 2.76521 -3.19837 0
M  V30 5627 H 527.713 2.61011 -7.64787 0
M  V30 5628 H 531.299 2.45119 -5.27644 0
M  V30 5629 H 530.179 2.37651 -7.47323 0
M  V30 5630 N 527.682 1.05563 1.17022 0
M  V30 5631 C 528.931 0.763036 1.8671 0
M  V30 5632 C 529.244 -0.712857 1.82147 0
M  V30 5633 O 530.45 -1.11955 2.47343 0
M  V30 5634 C 528.906 1.31474 3.35026 0
M  V30 5635 C 528.514 2.82034 3.48081 0
M  V30 5636 C 530.258 1.09935 4.10018 0
M  V30 5637 C 528.165 3.30486 4.90442 0
M  V30 5638 H 527.095 0.281747 0.699382 0
M  V30 5639 H 529.746 1.2734 1.32124 0
M  V30 5640 H 528.128 0.732171 3.89173 0
M  V30 5641 H 529.302 3.46178 3.04133 0
M  V30 5642 H 527.617 3.02156 2.86515 0
M  V30 5643 H 530.214 1.43632 5.15048 0
M  V30 5644 H 530.557 0.0373072 4.16283 0
M  V30 5645 H 531.09 1.64732 3.62089 0
M  V30 5646 H 527.829 4.36137 4.89352 0
M  V30 5647 H 527.349 2.71086 5.35044 0
M  V30 5648 H 529.028 3.25382 5.59227 0
M  V30 5649 N 529.16 -1.33526 0.837174 0
M  V30 5650 C 530.107 -2.29248 0.267169 0
M  V30 5651 C 531.077 -1.54252 -0.616071 0
M  V30 5652 O 532.262 -1.82559 -0.554699 0
M  V30 5653 C 529.402 -3.40638 -0.553152 0
M  V30 5654 C 528.515 -4.30548 0.353921 0
M  V30 5655 C 527.65 -5.29051 -0.477339 0
M  V30 5656 C 526.689 -6.106 0.42823 0
M  V30 5657 N 525.826 -7.01152 -0.364801 0
M  V30 5658 H 530.666 -2.77398 1.08877 0
M  V30 5659 H 528.203 -1.36496 0.54838 0
M  V30 5660 H 530.161 -4.03921 -1.04422 0
M  V30 5661 H 528.791 -2.93685 -1.33973 0
M  V30 5662 H 527.843 -3.68001 0.963289 0
M  V30 5663 H 529.155 -4.87631 1.04964 0
M  V30 5664 H 528.309 -5.97853 -1.0323 0
M  V30 5665 H 527.048 -4.72541 -1.2065 0
M  V30 5666 H 526.053 -5.40718 0.995219 0
M  V30 5667 H 527.278 -6.69193 1.15573 0
M  V30 5668 H 525.224 -6.47092 -1.07738 0
M  V30 5669 H 525.141 -7.5551 0.272238 0
M  V30 5670 H 526.409 -7.74263 -0.902054 0
M  V30 5671 N 530.638 -0.59345 -1.46 0
M  V30 5672 C 531.884 -0.0832754 -2.02629 0
M  V30 5673 C 532.217 1.27749 -1.46266 0
M  V30 5674 O 531.492 1.8395 -0.631866 0
M  V30 5675 C 531.775 -0.0290756 -3.60088 0
M  V30 5676 C 531.628 -1.41951 -4.26814 0
M  V30 5677 C 532.947 0.666055 -4.35031 0
M  V30 5678 H 530.066 -0.031736 -0.736316 0
M  V30 5679 H 532.708 -0.762711 -1.74019 0
M  V30 5680 H 530.858 0.549532 -3.84594 0
M  V30 5681 H 532.53 -2.04411 -4.13538 0
M  V30 5682 H 530.773 -1.98422 -3.8576 0
M  V30 5683 H 531.444 -1.33395 -5.3564 0
M  V30 5684 H 533.92 0.174401 -4.15734 0
M  V30 5685 H 532.796 0.673041 -5.44758 0
M  V30 5686 H 533.057 1.72946 -4.06869 0
M  V30 5687 N 532.116 1.54067 -0.331816 0
M  V30 5688 C 533.063 2.24623 0.530372 0
M  V30 5689 C 534.033 1.24009 1.10503 0
M  V30 5690 O 535.218 1.52712 1.14384 0
M  V30 5691 C 532.358 3.01374 1.68129 0
M  V30 5692 C 531.471 4.16821 1.13507 0
M  V30 5693 C 530.606 4.81085 2.25234 0
M  V30 5694 C 529.645 5.88621 1.67903 0
M  V30 5695 N 528.782 6.46713 2.73326 0
M  V30 5696 H 533.622 2.97898 -0.0778607 0
M  V30 5697 H 531.159 1.47014 -0.0501965 0
M  V30 5698 H 533.117 3.44125 2.35868 0
M  V30 5699 H 531.747 2.30419 2.26069 0
M  V30 5700 H 530.799 3.78796 0.348979 0
M  V30 5701 H 532.111 4.94203 0.675633 0
M  V30 5702 H 531.265 5.26846 3.00862 0
M  V30 5703 H 530.004 4.03102 2.74518 0
M  V30 5704 H 529.009 5.42254 0.907773 0
M  V30 5705 H 530.234 6.68506 1.19487 0
M  V30 5706 H 528.18 5.71599 3.21886 0
M  V30 5707 H 528.097 7.19532 2.3197 0
M  V30 5708 H 529.365 6.97129 3.48758 0
M  V30 5709 N 533.594 0.0601682 1.57485 0
M  V30 5710 C 534.842 -0.610386 1.92662 0
M  V30 5711 C 535.163 -1.70849 0.939981 0
M  V30 5712 O 534.433 -1.95895 -0.0137455 0
M  V30 5713 H 533.013 -0.228457 0.711208 0
M  V30 5714 H 535.675 0.115288 1.94559 0
M  V30 5715 H 534.771 -1.0432 2.94149 0
M  V30 5716 N 535.072 -1.5615 -0.213296 0
M  V30 5717 C 536.321 -1.78743 -0.93455 0
M  V30 5718 C 536.634 -0.630199 -1.8517 0
M  V30 5719 O 537.84 -0.739966 -2.61222 0
M  V30 5720 C 536.296 -3.16571 -1.71203 0
M  V30 5721 C 535.904 -4.40043 -0.840617 0
M  V30 5722 C 537.648 -3.48485 -2.42401 0
M  V30 5723 C 535.555 -5.68895 -1.61592 0
M  V30 5724 H 534.485 -0.666426 -0.352692 0
M  V30 5725 H 537.136 -1.82532 -0.188227 0
M  V30 5726 H 535.518 -3.06981 -2.50157 0
M  V30 5727 H 536.692 -4.6071 -0.0910326 0
M  V30 5728 H 535.007 -4.15706 -0.240365 0
M  V30 5729 H 537.604 -4.41983 -3.00924 0
M  V30 5730 H 537.947 -2.71371 -3.15695 0
M  V30 5731 H 538.48 -3.59442 -1.7043 0
M  V30 5732 H 535.219 -6.48925 -0.926106 0
M  V30 5733 H 534.739 -5.52275 -2.33991 0
M  V30 5734 H 536.418 -6.09365 -2.17447 0
M  V30 5735 N 536.55 0.480323 -1.50102 0
M  V30 5736 C 537.498 1.60024 -1.68805 0
M  V30 5737 C 538.492 1.60089 -0.553888 0
M  V30 5738 O 539.698 1.64349 -0.734127 0
M  V30 5739 H 536.073 0.530841 -0.532646 0
M  V30 5740 H 538.044 1.41408 -2.62767 0
M  V30 5741 C 536.793 2.98029 -1.79092 0
M  V30 5742 H 536.116 2.98694 -2.65748 0
M  V30 5743 H 537.556 3.75871 -1.96206 0
M  V30 5744 C 536.015 3.32538 -0.540388 0
M  V30 5745 O 536.545 4.00386 0.324637 0
M  V30 5746 N 534.751 2.87873 -0.397154 0
M  V30 5747 H 534.298 2.32834 -1.1021 0
M  V30 5748 H 534.256 3.11328 0.438425 0
M  V30 5749 N 538.028 1.39524 0.732853 0
M  V30 5750 C 539.305 1.27373 1.48444 0
M  V30 5751 C 539.685 -0.115725 2.10783 0
M  V30 5752 O 539.033 -1.12713 1.98766 0
M  V30 5753 C 539.243 2.39966 2.53412 0
M  V30 5754 C 540.591 2.79384 3.19733 0
M  V30 5755 O 541.615 2.39431 2.63725 0
M  V30 5756 O 540.474 3.48353 4.21085 0
M  V30 5757 H 537.568 0.499272 0.659285 0
M  V30 5758 H 540.114 1.51403 0.766496 0
M  V30 5759 H 538.886 3.32845 2.05742 0
M  V30 5760 H 538.509 2.17612 3.32762 0
M  V30 5761 N 539.506 -0.963266 1.24736 0
M  V30 5762 C 540.752 -1.70933 1.09131 0
M  V30 5763 C 541.085 -1.90676 -0.368273 0
M  V30 5764 O 540.36 -1.47147 -1.27193 0
M  V30 5765 C 540.643 -3.09744 1.83658 0
M  V30 5766 C 540.496 -2.97465 3.37394 0
M  V30 5767 C 541.815 -4.09483 1.61282 0
M  V30 5768 H 538.934 -0.620398 0.397838 0
M  V30 5769 H 541.576 -1.12028 1.53459 0
M  V30 5770 H 539.726 -3.60031 1.4598 0
M  V30 5771 H 541.398 -2.54571 3.84696 0
M  V30 5772 H 539.641 -2.33576 3.65547 0
M  V30 5773 H 540.312 -3.95822 3.84745 0
M  V30 5774 H 542.788 -3.68073 1.94066 0
M  V30 5775 H 541.664 -5.04666 2.15878 0
M  V30 5776 H 541.925 -4.38639 0.552102 0
M  V30 5777 N 540.985 -1.06182 -1.16461 0
M  V30 5778 C 541.932 -0.671613 -2.20812 0
M  V30 5779 C 542.902 0.331186 -1.62765 0
M  V30 5780 O 544.087 0.22033 -1.89524 0
M  V30 5781 C 541.227 -0.063029 -3.45042 0
M  V30 5782 C 540.34 -1.11587 -4.1734 0
M  V30 5783 C 539.475 -0.473546 -5.29085 0
M  V30 5784 C 538.514 -1.51 -5.93182 0
M  V30 5785 N 537.651 -0.891118 -6.96422 0
M  V30 5786 H 542.491 -1.56589 -2.53542 0
M  V30 5787 H 540.028 -0.782951 -1.24532 0
M  V30 5788 H 541.986 0.307344 -4.16066 0
M  V30 5789 H 540.616 0.794663 -3.12866 0
M  V30 5790 H 539.668 -1.60396 -3.44931 0
M  V30 5791 H 540.98 -1.90221 -4.61104 0
M  V30 5792 H 540.134 -0.0501432 -6.06679 0
M  V30 5793 H 538.873 0.344687 -4.8648 0
M  V30 5794 H 537.878 -1.94331 -5.14311 0
M  V30 5795 H 539.103 -2.33031 -6.37866 0
M  V30 5796 H 537.049 -0.0935753 -6.55933 0
M  V30 5797 H 536.966 -1.61486 -7.38551 0
M  V30 5798 H 538.234 -0.492822 -7.77941 0
M  V30 5799 N 542.463 1.3308 -0.844243 0
M  V30 5800 C 543.373 2.32876 -0.283922 0
M  V30 5801 C 544.389 1.63589 0.592846 0
M  V30 5802 O 545.565 1.95205 0.495693 0
M  V30 5803 C 542.63 3.42667 0.527283 0
M  V30 5804 C 541.691 4.27664 -0.374394 0
M  V30 5805 C 540.924 5.32212 0.39819 0
M  V30 5806 O 541.147 5.46635 1.62932 0
M  V30 5807 O 540.081 6.01458 -0.2306 0
M  V30 5808 H 543.907 2.82671 -1.11045 0
M  V30 5809 H 541.492 1.36518 -0.606903 0
M  V30 5810 H 543.374 4.09652 0.988078 0
M  V30 5811 H 542.049 2.95079 1.33078 0
M  V30 5812 H 540.956 3.63526 -0.883144 0
M  V30 5813 H 542.289 4.78749 -1.1428 0
M  V30 5814 N 543.941 0.601185 1.45683 0
M  V30 5815 C 544.871 -0.108824 2.33246 0
M  V30 5816 C 545.852 -0.865223 1.46451 0
M  V30 5817 O 547.037 -0.83704 1.75235 0
M  V30 5818 C 544.167 -1.11101 3.2905 0
M  V30 5819 C 543.121 -0.468244 4.25431 0
M  V30 5820 C 542.447 -1.57822 5.10878 0
M  V30 5821 C 543.747 0.606469 5.18767 0
M  V30 5822 H 545.441 0.622306 2.92861 0
M  V30 5823 H 542.987 0.300714 1.40825 0
M  V30 5824 H 544.94 -1.61622 3.89174 0
M  V30 5825 H 543.664 -1.87265 2.67581 0
M  V30 5826 H 542.323 0.0160484 3.66596 0
M  V30 5827 H 541.971 -2.32998 4.45781 0
M  V30 5828 H 541.671 -1.15369 5.76163 0
M  V30 5829 H 543.195 -2.08583 5.73869 0
M  V30 5830 H 544.609 0.185589 5.73 0
M  V30 5831 H 543.006 0.952381 5.92494 0
M  V30 5832 H 544.076 1.48559 4.61582 0
M  V30 5833 N 545.419 -1.53889 0.339982 0
M  V30 5834 C 546.668 -2.00035 -0.258604 0
M  V30 5835 C 546.981 -1.23179 -1.51942 0
M  V30 5836 O 548.187 -1.59784 -2.19503 0
M  V30 5837 C 546.643 -3.56249 -0.511359 0
M  V30 5838 C 546.251 -4.41957 0.733349 0
M  V30 5839 C 547.995 -4.1082 -1.069 0
M  V30 5840 C 545.902 -5.89673 0.451591 0
M  V30 5841 H 544.832 -0.747284 -0.10041 0
M  V30 5842 H 547.483 -1.77776 0.454758 0
M  V30 5843 H 545.865 -3.7456 -1.28533 0
M  V30 5844 H 547.039 -4.35421 1.50815 0
M  V30 5845 H 545.354 -3.9836 1.21237 0
M  V30 5846 H 547.951 -5.18789 -1.2947 0
M  V30 5847 H 548.294 -3.63817 -2.02343 0
M  V30 5848 H 548.827 -3.96205 -0.355817 0
M  V30 5849 H 545.566 -6.40903 1.37565 0
M  V30 5850 H 545.086 -5.99122 -0.285193 0
M  V30 5851 H 546.765 -6.46965 0.0675067 0
M  V30 5852 N 546.897 -0.0685191 -1.57451 0
M  V30 5853 C 547.807 0.914677 -2.16034 0
M  V30 5854 C 548.823 1.32938 -1.12265 0
M  V30 5855 O 549.999 1.40275 -1.44516 0
M  V30 5856 C 547.064 2.16519 -2.70777 0
M  V30 5857 C 546.125 1.80721 -3.89408 0
M  V30 5858 C 545.358 2.9981 -4.41531 0
M  V30 5859 O 545.581 4.13727 -3.92666 0
M  V30 5860 O 544.515 2.79817 -5.32903 0
M  V30 5861 H 548.341 0.446364 -3.00402 0
M  V30 5862 H 545.926 0.154367 -1.486 0
M  V30 5863 H 547.808 2.89856 -3.05878 0
M  V30 5864 H 546.483 2.62454 -1.89471 0
M  V30 5865 H 545.39 1.04646 -3.59166 0
M  V30 5866 H 546.723 1.39571 -4.71997 0
M  V30 5867 N 548.375 1.56261 0.205012 0
M  V30 5868 C 549.285 1.96944 1.27476 0
M  V30 5869 C 550.301 0.875636 1.50362 0
M  V30 5870 O 551.477 1.18058 1.6317 0
M  V30 5871 C 548.542 2.29219 2.60115 0
M  V30 5872 C 547.603 3.52255 2.45387 0
M  V30 5873 C 546.836 3.8298 3.71701 0
M  V30 5874 O 547.059 3.15138 4.75441 0
M  V30 5875 O 545.993 4.76435 3.67823 0
M  V30 5876 H 549.819 2.88144 0.959527 0
M  V30 5877 H 547.404 1.43686 0.409217 0
M  V30 5878 H 549.286 2.51098 3.3842 0
M  V30 5879 H 547.961 1.4119 2.91285 0
M  V30 5880 H 546.868 3.35635 1.65227 0
M  V30 5881 H 548.201 4.40719 2.19152 0
M  V30 5882 N 549.853 -0.472356 1.50355 0
M  V30 5883 C 550.8 -1.57051 1.69126 0
M  V30 5884 C 551.77 -1.5733 0.532574 0
M  V30 5885 O 552.955 -1.7488 0.762994 0
M  V30 5886 C 550.095 -2.95033 1.79024 0
M  V30 5887 C 549.208 -3.04552 3.06386 0
M  V30 5888 C 548.343 -4.33441 3.07087 0
M  V30 5889 C 547.382 -4.36697 4.28908 0
M  V30 5890 N 546.519 -5.57056 4.27356 0
M  V30 5891 H 551.359 -1.40351 2.62879 0
M  V30 5892 H 548.896 -0.682403 1.30314 0
M  V30 5893 H 550.854 -3.75048 1.82744 0
M  V30 5894 H 549.484 -3.10371 0.887109 0
M  V30 5895 H 548.536 -2.17419 3.12143 0
M  V30 5896 H 549.848 -3.02818 3.96362 0
M  V30 5897 H 549.002 -5.21801 3.09529 0
M  V30 5898 H 547.741 -4.37782 2.14939 0
M  V30 5899 H 546.746 -3.46734 4.2668 0
M  V30 5900 H 547.971 -4.34049 5.22282 0
M  V30 5901 H 545.917 -5.62184 3.3806 0
M  V30 5902 H 545.834 -5.57058 5.111 0
M  V30 5903 H 547.102 -6.47545 4.33942 0
M  V30 5904 N 551.331 -1.39911 -0.725443 0
M  V30 5905 C 552.294 -1.39156 -1.82121 0
M  V30 5906 C 553.294 -0.287018 -1.58218 0
M  V30 5907 O 554.484 -0.545421 -1.65441 0
M  V30 5908 C 551.616 -1.1736 -3.20062 0
M  V30 5909 H 552.809 -2.36672 -1.84191 0
M  V30 5910 H 550.362 -1.25615 -0.930079 0
M  V30 5911 H 551.097 -0.205648 -3.23647 0
M  V30 5912 H 550.882 -1.97358 -3.3881 0
M  V30 5913 H 552.372 -1.19596 -4.00108 0
M  V30 5914 N 552.809 0.956637 -1.25245 0
M  V30 5915 C 554.055 1.70352 -1.10036 0
M  V30 5916 C 554.388 1.90869 0.358156 0
M  V30 5917 O 553.663 1.47819 1.26411 0
M  V30 5918 C 553.946 3.08766 -1.85298 0
M  V30 5919 C 553.799 2.95672 -3.38966 0
M  V30 5920 C 555.118 4.08622 -1.63451 0
M  V30 5921 H 552.237 0.618279 -0.401123 0
M  V30 5922 H 554.879 1.11212 -1.54051 0
M  V30 5923 H 553.029 3.59252 -1.47887 0
M  V30 5924 H 554.701 2.52527 -3.86041 0
M  V30 5925 H 552.944 2.31634 -3.6678 0
M  V30 5926 H 553.615 3.93776 -3.86839 0
M  V30 5927 H 556.091 3.67038 -1.96015 0
M  V30 5928 H 554.967 5.03514 -2.18551 0
M  V30 5929 H 555.228 4.3834 -0.575357 0
M  V30 5930 N 554.287 1.06798 1.15896 0
M  V30 5931 C 555.234 0.683314 2.20453 0
M  V30 5932 C 556.204 -0.32255 1.62938 0
M  V30 5933 O 557.389 -0.210276 1.89638 0
M  V30 5934 C 554.529 0.0813266 3.45004 0
M  V30 5935 C 553.642 1.13799 4.16742 0
M  V30 5936 C 552.777 0.501598 5.28826 0
M  V30 5937 C 551.816 1.54144 5.92373 0
M  V30 5938 N 550.953 0.928038 6.9594 0
M  V30 5939 H 555.793 1.57932 2.52708 0
M  V30 5940 H 553.33 0.789544 1.24115 0
M  V30 5941 H 555.288 -0.285274 4.16224 0
M  V30 5942 H 553.918 -0.77806 3.13283 0
M  V30 5943 H 552.97 1.62223 3.44075 0
M  V30 5944 H 554.282 1.92664 4.60089 0
M  V30 5945 H 553.436 0.0823162 6.06644 0
M  V30 5946 H 552.175 -0.318883 4.86656 0
M  V30 5947 H 551.18 1.97056 5.13273 0
M  V30 5948 H 552.405 2.3641 6.36621 0
M  V30 5949 H 550.351 0.12836 6.55874 0
M  V30 5950 H 550.268 1.65401 7.37685 0
M  V30 5951 H 551.536 0.534071 7.77668 0
M  V30 5952 N 555.766 -1.3263 0.851289 0
M  V30 5953 C 556.699 -2.26952 0.238318 0
M  V30 5954 C 557.677 -1.50243 -0.621757 0
M  V30 5955 O 558.861 -1.79378 -0.579298 0
M  V30 5956 C 555.988 -3.32124 -0.664178 0
M  V30 5957 C 555.034 -4.26325 0.122067 0
M  V30 5958 S 555.867 -5.14404 1.48824 0
M  V30 5959 C 557.023 -6.231 0.591372 0
M  V30 5960 H 557.256 -2.78594 1.03791 0
M  V30 5961 H 554.789 -1.4011 0.648731 0
M  V30 5962 H 556.747 -3.93197 -1.17924 0
M  V30 5963 H 555.408 -2.79273 -1.43755 0
M  V30 5964 H 554.601 -5.00821 -0.565181 0
M  V30 5965 H 554.203 -3.69652 0.568602 0
M  V30 5966 H 556.495 -6.77187 -0.205762 0
M  V30 5967 H 557.438 -6.95936 1.30687 0
M  V30 5968 H 557.846 -5.64252 0.167206 0
M  V30 5969 N 557.244 -0.608902 -1.45362 0
M  V30 5970 C 558.492 -0.104401 -2.0183 0
M  V30 5971 C 558.813 1.27007 -1.47967 0
M  V30 5972 O 558.083 1.83924 -0.674455 0
M  V30 5973 H 556.663 -0.0356042 -0.746151 0
M  V30 5974 H 559.325 -0.790596 -1.78145 0
M  V30 5975 H 558.421 -0.0551793 -3.12051 0
M  V30 5976 N 558.722 1.53707 -0.348139 0
M  V30 5977 C 559.968 2.01286 0.247332 0
M  V30 5978 C 560.301 1.23546 1.49834 0
M  V30 5979 O 559.576 0.324331 1.91777 0
M  V30 5980 C 559.859 3.55768 0.556858 0
M  V30 5981 C 559.712 4.44216 -0.706564 0
M  V30 5982 C 561.031 4.1841 1.3646 0
M  V30 5983 H 558.15 0.731677 0.0884201 0
M  V30 5984 H 560.792 1.84106 -0.469584 0
M  V30 5985 H 558.942 3.70539 1.16761 0
M  V30 5986 H 560.614 4.41274 -1.34444 0
M  V30 5987 H 558.857 4.12892 -1.33052 0
M  V30 5988 H 559.528 5.50202 -0.445186 0
M  V30 5989 H 562.004 4.07365 0.848113 0
M  V30 5990 H 560.88 5.26563 1.54992 0
M  V30 5991 H 561.141 3.7333 2.36805 0
M  V30 5992 N 560.2 0.0768682 1.57412 0
M  V30 5993 C 561.13 -0.886026 2.16037 0
M  V30 5994 C 562.111 -1.30691 1.08876 0
M  V30 5995 O 563.296 -1.37705 1.36934 0
M  V30 5996 C 560.426 -2.1518 2.72608 0
M  V30 5997 C 559.38 -1.87015 3.8498 0
M  V30 5998 C 558.706 -3.20266 4.28175 0
M  V30 5999 C 560.006 -1.17143 5.08994 0
M  V30 6000 H 561.7 -0.397642 2.96748 0
M  V30 6001 H 559.246 -0.189823 1.42743 0
M  V30 6002 H 561.199 -2.82962 3.12266 0
M  V30 6003 H 559.923 -2.66269 1.89125 0
M  V30 6004 H 558.582 -1.21636 3.45833 0
M  V30 6005 H 558.23 -3.69207 3.41607 0
M  V30 6006 H 557.93 -3.0221 5.03927 0
M  V30 6007 H 559.454 -3.89237 4.70454 0
M  V30 6008 H 560.868 -1.75003 5.45937 0
M  V30 6009 H 559.265 -1.09328 5.90057 0
M  V30 6010 H 560.335 -0.151295 4.84664 0
M  V30 6011 N 561.678 -1.56367 -0.196722 0
M  V30 6012 C 562.611 -1.89475 -1.2718 0
M  V30 6013 C 563.589 -0.754667 -1.44026 0
M  V30 6014 O 564.773 -1.00551 -1.59442 0
M  V30 6015 C 561.9 -2.12352 -2.63864 0
M  V30 6016 C 560.946 -3.35053 -2.63897 0
M  V30 6017 S 561.779 -4.90228 -2.15492 0
M  V30 6018 C 562.935 -5.16171 -3.54004 0
M  V30 6019 H 563.168 -2.80365 -0.989075 0
M  V30 6020 H 560.701 -1.49125 -0.40014 0
M  V30 6021 H 562.659 -2.26214 -3.42545 0
M  V30 6022 H 561.32 -1.22214 -2.89349 0
M  V30 6023 H 560.513 -3.48182 -3.64397 0
M  V30 6024 H 560.115 -3.20176 -1.93296 0
M  V30 6025 H 562.407 -5.06591 -4.49857 0
M  V30 6026 H 563.35 -6.17938 -3.45771 0
M  V30 6027 H 563.758 -4.43814 -3.48841 0
M  V30 6028 N 563.156 0.464375 -1.50603 0
M  V30 6029 C 564.086 1.56944 -1.72889 0
M  V30 6030 C 565.067 1.59979 -0.577997 0
M  V30 6031 O 566.252 1.76138 -0.817855 0
M  V30 6032 C 563.382 2.95225 -1.8292 0
M  V30 6033 C 562.336 3.07056 -2.98162 0
M  V30 6034 C 561.662 4.47051 -2.93343 0
M  V30 6035 C 562.962 2.83648 -4.38567 0
M  V30 6036 H 564.656 1.38547 -2.65415 0
M  V30 6037 H 562.202 0.665082 -1.27721 0
M  V30 6038 H 564.155 3.72467 -1.97095 0
M  V30 6039 H 562.879 3.14793 -0.870209 0
M  V30 6040 H 561.538 2.32248 -2.83648 0
M  V30 6041 H 561.186 4.63547 -1.95276 0
M  V30 6042 H 560.886 4.55902 -3.70712 0
M  V30 6043 H 562.41 5.26304 -3.09575 0
M  V30 6044 H 563.824 3.50636 -4.53572 0
M  V30 6045 H 562.221 3.03937 -5.17438 0
M  V30 6046 H 563.291 1.79451 -4.50472 0
M  V30 6047 N 564.634 1.40294 0.718013 0
M  V30 6048 C 566.045 1.34289 1.29705 0
M  V30 6049 C 566.396 0.0152228 1.96194 0
M  V30 6050 O 565.521 -0.88682 1.97394 0
M  V30 6051 C 566.116 2.43219 2.3586 0
M  V30 6052 C 564.675 2.40682 2.89394 0
M  V30 6053 C 563.822 2.24223 1.63154 0
M  V30 6054 H 566.773 1.50135 0.514312 0
M  V30 6055 H 566.794 2.10986 3.16647 0
M  V30 6056 H 566.306 3.39836 1.87439 0
M  V30 6057 H 564.407 1.47756 3.42051 0
M  V30 6058 H 564.52 3.36177 3.41353 0
M  V30 6059 H 562.884 1.71696 1.88129 0
M  V30 6060 H 563.667 3.22834 1.16761 0
M  V30 6061 N 566.112 -0.949982 1.2575 0
M  V30 6062 C 567.36 -1.6918 1.10555 0
M  V30 6063 C 567.681 -1.91773 -0.353298 0
M  V30 6064 O 566.951 -1.50814 -1.25027 0
M  V30 6065 H 565.531 -0.626952 0.406129 0
M  V30 6066 H 568.193 -1.1419 1.57945 0
M  V30 6067 H 567.289 -2.66915 1.61749 0
M  V30 6068 N 567.59 -1.07411 -1.15328 0
M  V30 6069 C 568.538 -0.689316 -2.22151 0
M  V30 6070 C 569.532 0.300156 -1.6672 0
M  V30 6071 O 570.738 0.163804 -1.79253 0
M  V30 6072 H 567.113 -0.204834 -0.723566 0
M  V30 6073 H 569.084 -1.59988 -2.51886 0
M  V30 6074 C 567.833 -0.103848 -3.47545 0
M  V30 6075 H 567.156 -0.856367 -3.90521 0
M  V30 6076 H 568.596 0.127725 -4.23808 0
M  V30 6077 C 567.055 1.15563 -3.1646 0
M  V30 6078 O 567.585 2.242 -3.33312 0
M  V30 6079 N 565.791 1.06203 -2.70498 0
M  V30 6080 H 565.338 0.177933 -2.56985 0
M  V30 6081 H 565.296 1.90553 -2.50074 0
M  V30 6082 N 569.068 1.32177 -0.85831 0
M  V30 6083 C 570.031 2.27086 -0.310588 0
M  V30 6084 C 571.031 1.51751 0.531806 0
M  V30 6085 O 572.221 1.70794 0.34279 0
M  V30 6086 C 569.353 3.36266 0.560179 0
M  V30 6087 H 570.546 2.77045 -1.1483 0
M  V30 6088 H 568.099 1.42911 -0.632942 0
M  V30 6089 H 568.834 2.9158 1.41956 0
M  V30 6090 H 568.619 3.92077 -0.0428473 0
M  V30 6091 H 570.109 4.06974 0.936056 0
M  V30 6092 N 570.547 0.616602 1.45037 0
M  V30 6093 C 571.794 0.115331 2.02171 0
M  V30 6094 C 572.122 -1.25748 1.48383 0
M  V30 6095 O 571.377 -1.84511 0.652229 0
M  V30 6096 C 571.676 0.0356829 3.57382 0
M  V30 6097 C 571.342 1.34535 4.30362 0
M  V30 6098 C 570.004 1.70408 4.50016 0
M  V30 6099 C 572.356 2.21049 4.72003 0
M  V30 6100 C 569.684 2.92529 5.0857 0
M  V30 6101 C 572.036 3.42427 5.31908 0
M  V30 6102 C 570.7 3.78541 5.49784 0
M  V30 6103 H 569.97 0.0422024 0.739797 0
M  V30 6104 H 572.617 0.80002 1.73988 0
M  V30 6105 H 570.922 -0.732314 3.84895 0
M  V30 6106 H 572.619 -0.368463 3.99304 0
M  V30 6107 H 569.209 1.05615 4.15383 0
M  V30 6108 H 573.393 1.94632 4.56544 0
M  V30 6109 H 568.649 3.20605 5.20598 0
M  V30 6110 H 572.823 4.09709 5.63127 0
M  V30 6111 H 570.45 4.73255 5.94923 0
M  V30 6112 N 572.025 -1.5352 0.356285 0
M  V30 6113 C 573.255 -2.05236 -0.236983 0
M  V30 6114 C 573.663 -1.23016 -1.43749 0
M  V30 6115 O 573.006 -0.2615 -1.81829 0
M  V30 6116 C 573.068 -3.52549 -0.7035 0
M  V30 6117 C 572.732 -4.55425 0.379059 0
M  V30 6118 C 573.729 -5.0524 1.22592 0
M  V30 6119 C 571.414 -4.99425 0.536638 0
M  V30 6120 C 573.408 -5.97647 2.21578 0
M  V30 6121 C 571.095 -5.9164 1.52988 0
M  V30 6122 C 572.093 -6.4064 2.3679 0
M  V30 6123 O 571.781 -7.31039 3.34421 0
M  V30 6124 H 571.513 -0.674346 -0.047254 0
M  V30 6125 H 574.067 -1.98962 0.510238 0
M  V30 6126 H 572.297 -3.56331 -1.50217 0
M  V30 6127 H 573.986 -3.87171 -1.21873 0
M  V30 6128 H 574.752 -4.72002 1.11532 0
M  V30 6129 H 570.631 -4.60879 -0.105834 0
M  V30 6130 H 574.175 -6.35816 2.87025 0
M  V30 6131 H 570.072 -6.24293 1.64099 0
M  V30 6132 H 570.84 -7.49009 3.30041 0
M  V30 6133 N 573.503 -0.0852151 -1.57369 0
M  V30 6134 C 574.749 0.581666 -1.94279 0
M  V30 6135 C 575.082 1.68444 -0.966446 0
M  V30 6136 O 574.357 1.945 0.00215277 0
M  V30 6137 C 574.64 1.14609 -3.41375 0
M  V30 6138 C 574.493 0.0490414 -4.49773 0
M  V30 6139 C 575.812 2.04751 -3.8957 0
M  V30 6140 H 572.931 0.209972 -0.706456 0
M  V30 6141 H 575.573 -0.153915 -1.89376 0
M  V30 6142 H 573.723 1.77297 -3.45685 0
M  V30 6143 H 575.395 -0.584721 -4.57579 0
M  V30 6144 H 573.638 -0.618638 -4.29366 0
M  V30 6145 H 574.309 0.484601 -5.49869 0
M  V30 6146 H 576.785 1.51981 -3.87351 0
M  V30 6147 H 575.661 2.41173 -4.93079 0
M  V30 6148 H 575.922 2.96107 -3.28288 0
M  V30 6149 N 574.981 1.5647 0.188427 0
M  V30 6150 C 576.258 1.71857 0.934058 0
M  V30 6151 C 576.638 0.641867 2.01105 0
M  V30 6152 O 575.986 -0.346098 2.25864 0
M  V30 6153 C 576.196 3.14431 1.5144 0
M  V30 6154 C 577.544 3.74869 1.99396 0
M  V30 6155 O 578.568 3.17601 1.61269 0
M  V30 6156 O 577.427 4.75387 2.69573 0
M  V30 6157 H 574.521 0.701186 0.438483 0
M  V30 6158 H 577.067 1.68768 0.177599 0
M  V30 6159 H 575.839 3.8427 0.738416 0
M  V30 6160 H 575.462 3.21775 2.33552 0
M  V30 6161 N 576.459 -0.456382 1.50847 0
M  V30 6162 C 577.684 -1.2349 1.66628 0
M  V30 6163 C 578.109 -1.84715 0.355254 0
M  V30 6164 O 577.467 -1.67961 -0.682559 0
M  V30 6165 C 577.515 -2.30865 2.77009 0
M  V30 6166 O 576.619 -3.35882 2.39285 0
M  V30 6167 H 575.96 -0.36266 0.556214 0
M  V30 6168 H 578.49 -0.541374 1.97308 0
M  V30 6169 H 578.5 -2.75949 3.00526 0
M  V30 6170 H 577.175 -1.85677 3.72152 0
M  V30 6171 H 575.752 -2.96406 2.26269 0
M  V30 6172 N 577.937 -1.40673 -0.710563 0
M  V30 6173 C 579.162 -1.42741 -1.50465 0
M  V30 6174 C 579.587 -0.0302116 -1.88076 0
M  V30 6175 O 578.945 0.962945 -1.53613 0
M  V30 6176 C 578.993 -2.32873 -2.75322 0
M  V30 6177 O 578.097 -1.77544 -3.72226 0
M  V30 6178 H 577.438 -0.485056 -0.45345 0
M  V30 6179 H 579.968 -1.84961 -0.874681 0
M  V30 6180 H 579.978 -2.48233 -3.23797 0
M  V30 6181 H 578.653 -3.34401 -2.47283 0
M  V30 6182 H 577.23 -1.71556 -3.31093 0
M  V30 6183 N 579.415 0.9433 -1.26252 0
M  V30 6184 C 580.378 2.02326 -1.07689 0
M  V30 6185 C 581.378 1.60779 -0.0259174 0
M  V30 6186 O 582.568 1.72108 -0.269134 0
M  V30 6187 C 579.7 3.34886 -0.63752 0
M  V30 6188 H 580.893 2.20225 -2.0357 0
M  V30 6189 H 578.446 1.12197 -1.08819 0
M  V30 6190 H 579.181 3.22684 0.323377 0
M  V30 6191 H 578.966 3.66393 -1.39637 0
M  V30 6192 H 580.456 4.14231 -0.529418 0
M  V30 6193 N 580.893 1.08022 1.14757 0
M  V30 6194 C 582.304 0.829144 1.67279 0
M  V30 6195 C 582.655 -0.644721 1.85305 0
M  V30 6196 O 581.78 -1.49838 1.56133 0
M  V30 6197 C 582.375 1.49855 3.03857 0
M  V30 6198 C 580.934 1.29482 3.53428 0
M  V30 6199 C 580.081 1.56386 2.28995 0
M  V30 6200 H 583.032 1.24134 0.988762 0
M  V30 6201 H 583.053 0.923572 3.69121 0
M  V30 6202 H 582.565 2.57123 2.90705 0
M  V30 6203 H 580.666 0.242669 3.71809 0
M  V30 6204 H 580.779 2.01974 4.34446 0
M  V30 6205 H 579.143 0.985217 2.34874 0
M  V30 6206 H 579.926 2.64851 2.18423 0
M  V30 6207 N 582.371 -1.3172 0.865308 0
M  V30 6208 C 583.596 -2.01591 0.487415 0
M  V30 6209 C 584.021 -1.6455 -0.911307 0
M  V30 6210 O 583.379 -0.851689 -1.6005 0
M  V30 6211 C 583.427 -3.54759 0.646401 0
M  V30 6212 O 582.531 -4.11185 -0.316284 0
M  V30 6213 H 581.872 -0.634884 0.194468 0
M  V30 6214 H 584.402 -1.68024 1.16744 0
M  V30 6215 H 584.412 -4.04438 0.537932 0
M  V30 6216 H 583.087 -3.8106 1.66632 0
M  V30 6217 H 581.664 -3.72543 -0.163162 0
M  V30 6218 N 583.85 -0.624285 -1.44708 0
M  V30 6219 C 585.26 -0.2092 -1.85524 0
M  V30 6220 C 585.611 1.23783 -1.52225 0
M  V30 6221 O 584.736 1.94089 -0.956986 0
M  V30 6222 C 585.332 -0.372897 -3.36742 0
M  V30 6223 C 583.891 -0.012374 -3.76398 0
M  V30 6224 C 583.038 -0.68951 -2.68591 0
M  V30 6225 H 585.989 -0.829894 -1.35272 0
M  V30 6226 H 586.01 0.390134 -3.78495 0
M  V30 6227 H 585.522 -1.42615 -3.60947 0
M  V30 6228 H 583.623 1.03941 -3.57809 0
M  V30 6229 H 583.736 -0.417663 -4.77276 0
M  V30 6230 H 582.1 -0.125484 -2.54391 0
M  V30 6231 H 582.883 -1.74522 -2.9563 0
M  V30 6232 N 585.328 1.53329 -0.364422 0
M  V30 6233 C 586.558 2.05359 0.226096 0
M  V30 6234 C 586.966 1.23777 1.43094 0
M  V30 6235 O 586.309 0.271139 1.81688 0
M  V30 6236 C 586.371 3.52918 0.684794 0
M  V30 6237 C 586.035 4.55218 -0.403206 0
M  V30 6238 C 587.032 5.04583 -1.2527 0
M  V30 6239 C 584.717 4.99134 -0.563117 0
M  V30 6240 C 586.711 5.96463 -2.24745 0
M  V30 6241 C 584.398 5.9082 -1.56124 0
M  V30 6242 C 585.396 6.39375 -2.40184 0
M  V30 6243 O 585.084 7.29255 -3.38293 0
M  V30 6244 H 584.816 0.674588 0.0436772 0
M  V30 6245 H 587.37 1.98688 -0.520782 0
M  V30 6246 H 585.6 3.57122 1.48326 0
M  V30 6247 H 587.289 3.87812 1.19818 0
M  V30 6248 H 588.055 4.71403 -1.14034 0
M  V30 6249 H 583.934 4.60928 0.0813909 0
M  V30 6250 H 587.478 6.34285 -2.90393 0
M  V30 6251 H 583.375 6.23414 -1.67407 0
M  V30 6252 H 584.143 7.47249 -3.34009 0
M  V30 6253 N 586.806 0.0935595 1.57322 0
M  V30 6254 C 587.736 -0.863062 2.16964 0
M  V30 6255 C 588.717 -1.29528 1.10256 0
M  V30 6256 O 589.902 -1.36245 1.38387 0
M  V30 6257 C 587.032 -2.12276 2.74875 0
M  V30 6258 C 585.986 -1.82921 3.86942 0
M  V30 6259 C 585.312 -3.15707 4.31548 0
M  V30 6260 C 586.612 -1.11737 5.10208 0
M  V30 6261 H 588.306 -0.366145 2.97153 0
M  V30 6262 H 585.852 -0.174673 1.42937 0
M  V30 6263 H 587.805 -2.79634 3.1525 0
M  V30 6264 H 586.529 -2.64248 1.91938 0
M  V30 6265 H 585.188 -1.17961 3.47103 0
M  V30 6266 H 584.836 -3.65563 3.45504 0
M  V30 6267 H 584.536 -2.96849 5.07104 0
M  V30 6268 H 586.06 -3.84226 4.74555 0
M  V30 6269 H 587.474 -1.69203 5.47762 0
M  V30 6270 H 585.871 -1.03064 5.91183 0
M  V30 6271 H 586.941 -0.0998818 4.84797 0
M  V30 6272 N 588.284 -1.56567 -0.180126 0
M  V30 6273 C 589.7 -1.50488 -0.531559 0
M  V30 6274 C 589.9 -0.796267 -1.851 0
M  V30 6275 O 588.956 -0.352978 -2.50021 0
M  V30 6276 C 590.269 -2.95201 -0.572456 0
M  V30 6277 C 591.817 -3.05957 -0.660264 0
M  V30 6278 C 592.292 -4.5211 -0.732135 0
M  V30 6279 N 593.783 -4.56322 -0.795262 0
M  V30 6280 C 594.518 -5.66742 -0.871296 0
M  V30 6281 N 594.014 -6.86815 -0.908708 0
M  V30 6282 N 595.807 -5.54691 -0.909639 0
M  V30 6283 H 587.958 -2.01045 0.685165 0
M  V30 6284 H 590.221 -0.915536 0.245962 0
M  V30 6285 H 589.927 -3.50165 0.328208 0
M  V30 6286 H 589.801 -3.49369 -1.422 0
M  V30 6287 H 592.188 -2.51032 -1.55136 0
M  V30 6288 H 592.269 -2.54888 0.215783 0
M  V30 6289 H 591.913 -5.07664 0.154664 0
M  V30 6290 H 591.843 -5.00926 -1.6242 0
M  V30 6291 H 594.334 -3.69868 -0.77499 0
M  V30 6292 H 594.647 -7.66718 -0.967654 0
M  V30 6293 H 592.992 -6.89443 -0.877132 0
M  V30 6294 H 596.183 -4.59804 -0.877353 0
M  V30 6295 H 596.356 -6.40768 -0.965434 0
M  V30 6296 N 589.762 0.448376 -1.51087 0
M  V30 6297 C 590.725 1.52588 -1.71025 0
M  V30 6298 C 591.725 1.49958 -0.580442 0
M  V30 6299 O 592.915 1.52176 -0.847833 0
M  V30 6300 C 590.047 2.92163 -1.75652 0
M  V30 6301 H 591.24 1.36218 -2.67179 0
M  V30 6302 H 588.793 0.676313 -1.4091 0
M  V30 6303 H 589.528 3.13951 -0.812724 0
M  V30 6304 H 589.313 2.95478 -2.57751 0
M  V30 6305 H 590.803 3.70349 -1.92953 0
M  V30 6306 N 591.24 1.41047 0.703093 0
M  V30 6307 C 592.465 1.43537 1.49706 0
M  V30 6308 C 592.89 0.0401853 1.88057 0
M  V30 6309 O 592.248 -0.954785 1.54122 0
M  V30 6310 C 592.296 2.3433 2.74084 0
M  V30 6311 O 591.4 1.79515 3.71279 0
M  V30 6312 H 590.741 0.487454 0.450871 0
M  V30 6313 H 593.271 1.85422 0.86486 0
M  V30 6314 H 593.281 2.49947 3.22476 0
M  V30 6315 H 591.956 3.35708 2.45506 0
M  V30 6316 H 590.533 1.7331 3.30179 0
M  V30 6317 N 592.718 -0.936591 1.26751 0
M  V30 6318 C 593.965 -1.68331 1.12566 0
M  V30 6319 C 594.293 -1.91677 -0.330168 0
M  V30 6320 O 593.548 -1.49859 -1.2586 0
M  V30 6321 C 593.847 -3.06099 1.84494 0
M  V30 6322 C 593.513 -3.02493 3.34378 0
M  V30 6323 C 592.175 -3.01217 3.75262 0
M  V30 6324 C 594.527 -2.94453 4.30055 0
M  V30 6325 C 591.855 -2.89672 5.10203 0
M  V30 6326 C 594.207 -2.84449 5.65041 0
M  V30 6327 C 592.871 -2.81518 6.0523 0
M  V30 6328 H 592.141 -0.615965 0.411907 0
M  V30 6329 H 594.788 -1.09292 1.5725 0
M  V30 6330 H 593.093 -3.6879 1.32292 0
M  V30 6331 H 594.79 -3.62733 1.70955 0
M  V30 6332 H 591.38 -3.04269 3.01858 0
M  V30 6333 H 595.564 -2.94544 3.99447 0
M  V30 6334 H 590.82 -2.85783 5.40498 0
M  V30 6335 H 594.994 -2.77192 6.38856 0
M  V30 6336 H 592.621 -2.72329 7.09747 0
M  V30 6337 N 594.196 -1.08629 -1.14182 0
M  V30 6338 C 595.421 -0.83902 -1.89671 0
M  V30 6339 C 595.846 0.603332 -1.78161 0
M  V30 6340 O 595.204 1.42301 -1.12339 0
M  V30 6341 C 595.252 -1.26854 -3.37551 0
M  V30 6342 O 594.356 -0.42188 -4.10236 0
M  V30 6343 H 593.697 -0.304545 -0.590041 0
M  V30 6344 H 596.227 -1.4483 -1.44518 0
M  V30 6345 H 596.237 -1.25038 -3.88368 0
M  V30 6346 H 594.912 -2.31901 -3.45246 0
M  V30 6347 H 593.489 -0.503654 -3.69483 0
M  V30 6348 N 595.674 1.31259 -0.872281 0
M  V30 6349 C 596.899 2.0133 -0.498099 0
M  V30 6350 C 597.324 1.65031 0.902568 0
M  V30 6351 O 596.682 0.860164 1.59596 0
M  V30 6352 C 596.73 3.54411 -0.665205 0
M  V30 6353 O 595.834 4.11347 0.294473 0
M  V30 6354 H 595.175 0.633844 -0.197832 0
M  V30 6355 H 597.705 1.67402 -1.17633 0
M  V30 6356 H 597.715 4.04147 -0.559373 0
M  V30 6357 H 596.39 3.80171 -1.68651 0
M  V30 6358 H 594.967 3.72624 0.143403 0
M  V30 6359 N 597.152 0.631951 1.44375 0
M  V30 6360 C 598.115 -0.0628142 2.29114 0
M  V30 6361 C 599.115 -0.771494 1.41084 0
M  V30 6362 O 600.305 -0.615959 1.62947 0
M  V30 6363 C 597.437 -1.09953 3.22681 0
M  V30 6364 H 598.63 0.682509 2.92031 0
M  V30 6365 H 596.183 0.392128 1.51301 0
M  V30 6366 H 596.918 -1.87481 2.64616 0
M  V30 6367 H 596.703 -0.595286 3.87555 0
M  V30 6368 H 598.193 -1.58538 3.86336 0
M  V30 6369 N 598.631 -1.53133 0.372548 0
M  V30 6370 C 599.856 -2.0625 -0.218098 0
M  V30 6371 C 600.281 -1.24375 -1.41111 0
M  V30 6372 O 599.639 -0.264554 -1.79359 0
M  V30 6373 C 599.687 -3.55858 -0.582876 0
M  V30 6374 O 598.791 -3.76667 -1.67917 0
M  V30 6375 H 598.132 -0.663317 -0.030104 0
M  V30 6376 H 600.662 -1.97477 0.535169 0
M  V30 6377 H 600.672 -3.99007 -0.851925 0
M  V30 6378 H 599.347 -4.14892 0.289428 0
M  V30 6379 H 597.924 -3.45413 -1.40513 0
M  V30 6380 N 600.109 -0.101901 -1.5727 0
M  V30 6381 C 601.52 0.426173 -1.81771 0
M  V30 6382 C 601.871 1.67725 -1.01797 0
M  V30 6383 O 600.996 2.14958 -0.249386 0
M  V30 6384 C 601.591 0.779962 -3.297 0
M  V30 6385 C 600.15 1.25275 -3.54941 0
M  V30 6386 C 599.297 0.252814 -2.76145 0
M  V30 6387 H 602.248 -0.32726 -1.55289 0
M  V30 6388 H 602.269 1.63891 -3.43395 0
M  V30 6389 H 601.781 -0.130778 -3.8788 0
M  V30 6390 H 599.882 2.18097 -3.021 0
M  V30 6391 H 599.995 1.20988 -4.63572 0
M  V30 6392 H 598.359 0.736362 -2.43823 0
M  V30 6393 H 599.142 -0.650724 -3.37076 0
M  V30 6394 N 601.587 1.56661 0.17182 0
M  V30 6395 C 602.497 1.99604 1.2327 0
M  V30 6396 C 603.513 0.907333 1.4847 0
M  V30 6397 O 604.689 1.21492 1.60629 0
M  V30 6398 C 601.754 2.34685 2.55194 0
M  V30 6399 C 600.815 3.57381 2.3786 0
M  V30 6400 C 600.048 3.90779 3.63494 0
M  V30 6401 O 600.271 3.25152 4.6865 0
M  V30 6402 O 599.205 4.84129 3.57634 0
M  V30 6403 H 603.031 2.90114 0.898192 0
M  V30 6404 H 600.616 1.44522 0.378647 0
M  V30 6405 H 602.498 2.5822 3.33017 0
M  V30 6406 H 601.173 1.47336 2.88225 0
M  V30 6407 H 600.08 3.39064 1.5807 0
M  V30 6408 H 601.413 4.45268 2.09754 0
M  V30 6409 N 603.065 -0.440357 1.51323 0
M  V30 6410 C 603.997 -1.55254 1.68609 0
M  V30 6411 C 605.01 -1.52614 0.566812 0
M  V30 6412 O 606.199 -1.57445 0.841032 0
M  V30 6413 C 603.299 -2.94169 1.68279 0
M  V30 6414 C 602.472 -3.21346 2.96742 0
M  V30 6415 C 601.531 -4.3997 2.8864 0
M  V30 6416 O 600.557 -4.38771 3.62586 0
M  V30 6417 N 601.759 -5.43367 2.04285 0
M  V30 6418 H 604.524 -1.40831 2.6455 0
M  V30 6419 H 602.085 -0.629251 1.49171 0
M  V30 6420 H 604.077 -3.71543 1.60431 0
M  V30 6421 H 602.647 -3.02205 0.799441 0
M  V30 6422 H 601.867 -2.32299 3.18482 0
M  V30 6423 H 603.155 -3.3633 3.81785 0
M  V30 6424 H 602.553 -5.47176 1.43578 0
M  V30 6425 H 601.11 -6.19605 2.02318 0
M  V30 6426 N 604.543 -1.41418 -0.695603 0
M  V30 6427 C 605.476 -1.3768 -1.81988 0
M  V30 6428 C 606.454 -0.244061 -1.60758 0
M  V30 6429 O 607.638 -0.430965 -1.83507 0
M  V30 6430 C 604.765 -1.1476 -3.18666 0
M  V30 6431 C 603.811 -2.30752 -3.58686 0
M  V30 6432 S 604.644 -3.9323 -3.63498 0
M  V30 6433 C 605.8 -3.72613 -5.02902 0
M  V30 6434 H 606.033 -2.32822 -1.84882 0
M  V30 6435 H 603.566 -1.27942 -0.86431 0
M  V30 6436 H 605.524 -1.02223 -3.97569 0
M  V30 6437 H 604.185 -0.212385 -3.13381 0
M  V30 6438 H 603.378 -2.10409 -4.57978 0
M  V30 6439 H 602.98 -2.39696 -2.87092 0
M  V30 6440 H 605.272 -3.32317 -5.904 0
M  V30 6441 H 606.215 -4.71507 -5.28286 0
M  V30 6442 H 606.623 -3.0589 -4.74438 0
M  V30 6443 N 606.021 0.929856 -1.27246 0
M  V30 6444 C 607.298 1.65544 -1.04186 0
M  V30 6445 C 607.678 2.06796 0.424097 0
M  V30 6446 O 607.026 1.80053 1.40688 0
M  V30 6447 C 607.236 2.85912 -2.00138 0
M  V30 6448 C 608.584 3.57305 -2.29387 0
M  V30 6449 O 609.608 2.96036 -1.98094 0
M  V30 6450 O 608.467 4.67688 -2.82719 0
M  V30 6451 H 605.561 0.725473 -0.397011 0
M  V30 6452 H 608.107 0.980583 -1.38501 0
M  V30 6453 H 606.879 2.52403 -2.99013 0
M  V30 6454 H 606.502 3.61118 -1.66371 0
M  V30 6455 N 607.499 1.09233 1.13605 0
M  V30 6456 C 608.745 0.828385 1.8511 0
M  V30 6457 C 609.078 -0.64437 1.83198 0
M  V30 6458 O 608.353 -1.47428 1.26867 0
M  V30 6459 C 608.636 1.36167 3.33363 0
M  V30 6460 C 608.489 2.90038 3.438 0
M  V30 6461 C 609.808 0.993819 4.28732 0
M  V30 6462 H 606.927 0.30239 0.672108 0
M  V30 6463 H 609.569 1.35339 1.33355 0
M  V30 6464 H 607.719 0.9151 3.77569 0
M  V30 6465 H 609.391 3.43128 3.08319 0
M  V30 6466 H 607.634 3.27271 2.84739 0
M  V30 6467 H 608.305 3.22428 4.48045 0
M  V30 6468 H 610.781 1.37893 3.92587 0
M  V30 6469 H 609.657 1.39403 5.30903 0
M  V30 6470 H 609.918 -0.0982206 4.41991 0
M  V30 6471 N 608.977 -1.30795 0.87923 0
M  V30 6472 C 609.94 -2.26563 0.346676 0
M  V30 6473 C 610.94 -1.52578 -0.507597 0
M  V30 6474 O 612.13 -1.71318 -0.315575 0
M  V30 6475 C 609.262 -3.37115 -0.506611 0
M  V30 6476 H 610.455 -2.75183 1.19223 0
M  V30 6477 H 608.008 -1.41886 0.655598 0
M  V30 6478 H 608.743 -2.93802 -1.37299 0
M  V30 6479 H 608.528 -3.91959 0.105218 0
M  V30 6480 H 610.018 -4.08412 -0.871192 0
M  V30 6481 N 610.455 -0.639598 -1.44038 0
M  V30 6482 C 611.702 -0.14748 -2.01962 0
M  V30 6483 C 612.03 1.23372 -1.50365 0
M  V30 6484 O 611.285 1.8345 -0.681501 0
M  V30 6485 C 611.584 -0.0925348 -3.5728 0
M  V30 6486 C 611.25 -1.41365 -4.28167 0
M  V30 6487 C 609.912 -1.77545 -4.47248 0
M  V30 6488 C 612.264 -2.2853 -4.68427 0
M  V30 6489 C 609.592 -3.00583 -5.03852 0
M  V30 6490 C 611.944 -3.50846 -5.26393 0
M  V30 6491 C 610.608 -3.8724 -5.43692 0
M  V30 6492 H 609.878 -0.0539666 -0.739032 0
M  V30 6493 H 612.525 -0.827599 -1.72694 0
M  V30 6494 H 610.83 0.670987 -3.86012 0
M  V30 6495 H 612.527 0.304891 -3.99839 0
M  V30 6496 H 609.117 -1.1221 -4.13651 0
M  V30 6497 H 613.301 -2.0187 -4.5339 0
M  V30 6498 H 608.557 -3.28846 -5.15432 0
M  V30 6499 H 612.731 -4.18616 -5.56537 0
M  V30 6500 H 610.358 -4.8266 -5.87319 0
M  V30 6501 N 611.933 1.52934 -0.380664 0
M  V30 6502 C 612.865 2.23822 0.493581 0
M  V30 6503 C 613.878 1.25761 1.03383 0
M  V30 6504 O 615.067 1.5189 0.937633 0
M  V30 6505 C 612.167 2.9342 1.69582 0
M  V30 6506 C 611.34 4.18115 1.28445 0
M  V30 6507 C 610.399 4.70788 2.35042 0
M  V30 6508 O 609.425 5.34093 1.96807 0
M  V30 6509 N 610.627 4.49899 3.66839 0
M  V30 6510 H 613.392 2.99484 -0.11371 0
M  V30 6511 H 610.953 1.60577 -0.206587 0
M  V30 6512 H 612.945 3.2556 2.40401 0
M  V30 6513 H 611.515 2.21119 2.20965 0
M  V30 6514 H 610.735 3.92109 0.405503 0
M  V30 6515 H 612.023 4.99152 0.986132 0
M  V30 6516 H 611.421 3.99349 4.0067 0
M  V30 6517 H 609.978 4.86551 4.33718 0
M  V30 6518 N 613.412 0.11024 1.57214 0
M  V30 6519 C 614.658 -0.550684 1.9518 0
M  V30 6520 C 614.991 -1.66885 0.993122 0
M  V30 6521 O 614.266 -1.94479 0.0287907 0
M  V30 6522 C 614.549 -1.09163 3.43155 0
M  V30 6523 C 614.402 0.0225198 4.49794 0
M  V30 6524 C 615.721 -1.98527 3.92778 0
M  V30 6525 H 612.84 -0.198706 0.709708 0
M  V30 6526 H 615.482 0.184024 1.89107 0
M  V30 6527 H 613.632 -1.71775 3.48462 0
M  V30 6528 H 615.304 0.657443 4.56591 0
M  V30 6529 H 613.547 0.686868 4.28328 0
M  V30 6530 H 614.218 -0.39706 5.5057 0
M  V30 6531 H 616.694 -1.458 3.8972 0
M  V30 6532 H 615.57 -2.33298 4.96853 0
M  V30 6533 H 615.831 -2.90846 3.32958 0
M  V30 6534 N 614.89 -1.56749 -0.16351 0
M  V30 6535 C 615.82 -2.00042 -1.20438 0
M  V30 6536 C 616.801 -0.877256 -1.45733 0
M  V30 6537 O 617.986 -1.1439 -1.56935 0
M  V30 6538 C 615.116 -2.36697 -2.54149 0
M  V30 6539 C 614.07 -3.52046 -2.43408 0
M  V30 6540 C 613.396 -3.74466 -3.81679 0
M  V30 6541 C 614.696 -4.85247 -1.93216 0
M  V30 6542 H 616.39 -2.87244 -0.844477 0
M  V30 6543 H 613.936 -1.38194 -0.40478 0
M  V30 6544 H 615.889 -2.65582 -3.27176 0
M  V30 6545 H 614.613 -1.46414 -2.91943 0
M  V30 6546 H 613.272 -3.23301 -1.72834 0
M  V30 6547 H 612.92 -2.81461 -4.1688 0
M  V30 6548 H 612.62 -4.52084 -3.75359 0
M  V30 6549 H 614.144 -4.0576 -4.5628 0
M  V30 6550 H 615.558 -5.12957 -2.56023 0
M  V30 6551 H 613.955 -5.66556 -1.97825 0
M  V30 6552 H 615.025 -4.7672 -0.88689 0
M  V30 6553 N 616.368 0.432326 -1.51554 0
M  V30 6554 C 617.331 1.50765 -1.72634 0
M  V30 6555 C 618.331 1.49334 -0.596314 0
M  V30 6556 O 619.521 1.51268 -0.863925 0
M  V30 6557 C 616.653 2.90284 -1.7874 0
M  V30 6558 H 617.846 1.33377 -2.68609 0
M  V30 6559 H 615.399 0.661329 -1.4162 0
M  V30 6560 H 616.134 3.13071 -0.845977 0
M  V30 6561 H 615.919 2.92727 -2.6087 0
M  V30 6562 H 617.409 3.68282 -1.96871 0
M  V30 6563 N 617.846 1.41785 0.688094 0
M  V30 6564 C 618.778 1.40159 1.81351 0
M  V30 6565 C 619.791 0.30262 1.59963 0
M  V30 6566 O 620.98 0.564841 1.69327 0
M  V30 6567 C 618.08 1.16517 3.1824 0
M  V30 6568 C 617.253 2.38597 3.66593 0
M  V30 6569 C 616.312 2.10699 4.82174 0
M  V30 6570 O 615.338 2.83798 4.93404 0
M  V30 6571 N 616.54 1.10187 5.69947 0
M  V30 6572 H 619.305 2.3716 1.83236 0
M  V30 6573 H 616.866 1.36494 0.870697 0
M  V30 6574 H 618.858 0.957941 3.93199 0
M  V30 6575 H 617.428 0.280873 3.11336 0
M  V30 6576 H 616.648 2.74974 2.82459 0
M  V30 6577 H 617.936 3.19919 3.95638 0
M  V30 6578 H 617.334 0.497016 5.63512 0
M  V30 6579 H 615.891 0.954518 6.44773 0
M  V30 6580 N 619.324 -0.923095 1.27737 0
M  V30 6581 C 620.254 -2.04124 1.13383 0
M  V30 6582 C 621.235 -1.70066 0.0340658 0
M  V30 6583 O 622.42 -1.93068 0.209383 0
M  V30 6584 C 619.55 -3.3831 0.785097 0
M  V30 6585 C 618.504 -3.86496 1.8386 0
M  V30 6586 C 617.83 -5.1754 1.34373 0
M  V30 6587 C 619.13 -4.09381 3.24353 0
M  V30 6588 H 620.824 -2.1639 2.06919 0
M  V30 6589 H 618.37 -1.03976 0.996243 0
M  V30 6590 H 620.323 -4.16016 0.671485 0
M  V30 6591 H 619.047 -3.2607 -0.185969 0
M  V30 6592 H 617.706 -3.10987 1.9412 0
M  V30 6593 H 617.354 -5.01696 0.361989 0
M  V30 6594 H 617.054 -5.50751 2.04811 0
M  V30 6595 H 618.578 -5.97811 1.24315 0
M  V30 6596 H 619.992 -4.77641 3.17067 0
M  V30 6597 H 618.389 -4.53906 3.92542 0
M  V30 6598 H 619.459 -3.14515 3.69064 0
M  V30 6599 N 620.802 -1.09834 -1.13024 0
M  V30 6600 C 622.051 -0.831806 -1.83749 0
M  V30 6601 C 622.364 0.644763 -1.84668 0
M  V30 6602 O 623.57 1.02697 -2.51327 0
M  V30 6603 C 622.026 -1.43817 -3.29916 0
M  V30 6604 C 621.634 -2.94759 -3.37374 0
M  V30 6605 C 623.378 -1.25077 -4.05655 0
M  V30 6606 C 621.285 -3.48461 -4.77838 0
M  V30 6607 H 620.215 -0.30751 -0.688443 0
M  V30 6608 H 622.866 -1.32156 -1.27307 0
M  V30 6609 H 621.248 -0.876106 -3.86187 0
M  V30 6610 H 622.422 -3.57228 -2.91076 0
M  V30 6611 H 620.737 -3.12581 -2.75103 0
M  V30 6612 H 623.334 -1.62649 -5.09362 0
M  V30 6613 H 623.677 -0.191782 -4.15858 0
M  V30 6614 H 624.21 -1.78057 -3.55725 0
M  V30 6615 H 620.949 -4.53998 -4.72828 0
M  V30 6616 H 620.469 -2.90757 -5.24615 0
M  V30 6617 H 622.148 -3.45914 -5.46766 0
M  V30 6618 N 622.28 1.30327 -0.886154 0
M  V30 6619 C 623.227 2.28099 -0.352069 0
M  V30 6620 C 624.197 1.56433 0.558397 0
M  V30 6621 O 625.382 1.84492 0.486561 0
M  V30 6622 C 622.522 3.42456 0.426346 0
M  V30 6623 C 621.635 4.28938 -0.513472 0
M  V30 6624 C 620.77 5.30458 0.280657 0
M  V30 6625 C 619.809 6.0859 -0.654556 0
M  V30 6626 N 618.946 7.02022 0.104322 0
M  V30 6627 H 623.786 2.73166 -1.19097 0
M  V30 6628 H 621.323 1.34367 -0.598662 0
M  V30 6629 H 623.281 4.07518 0.893587 0
M  V30 6630 H 621.911 2.98455 1.22981 0
M  V30 6631 H 620.963 3.64173 -1.09921 0
M  V30 6632 H 622.275 4.83399 -1.2299 0
M  V30 6633 H 621.429 6.01273 0.8097 0
M  V30 6634 H 620.168 4.76693 1.03029 0
M  V30 6635 H 619.173 5.36651 -1.19522 0
M  V30 6636 H 620.398 6.64443 -1.4033 0
M  V30 6637 H 618.344 6.50645 0.836472 0
M  V30 6638 H 618.261 7.53979 -0.552453 0
M  V30 6639 H 619.529 7.77077 0.614069 0
M  V30 6640 N 623.758 0.647228 1.43697 0
M  V30 6641 C 624.668 -0.0487997 2.34549 0
M  V30 6642 C 625.684 -0.818586 1.53542 0
M  V30 6643 O 626.86 -0.767195 1.86215 0
M  V30 6644 C 623.925 -1.00734 3.31743 0
M  V30 6645 C 622.986 -0.23515 4.28655 0
M  V30 6646 C 622.219 -1.14803 5.21206 0
M  V30 6647 O 622.442 -2.38717 5.18045 0
M  V30 6648 O 621.376 -0.623667 5.9866 0
M  V30 6649 H 625.202 0.698863 2.9555 0
M  V30 6650 H 622.787 0.407412 1.43738 0
M  V30 6651 H 624.669 -1.55837 3.91526 0
M  V30 6652 H 623.344 -1.73534 2.73254 0
M  V30 6653 H 622.251 0.359319 3.7237 0
M  V30 6654 H 623.584 0.453152 4.9011 0
M  V30 6655 N 625.236 -1.5273 0.388769 0
M  V30 6656 C 626.461 -2.0647 -0.19621 0
M  V30 6657 C 626.886 -1.25865 -1.39784 0
M  V30 6658 O 626.244 -0.283562 -1.79069 0
M  V30 6659 C 626.292 -3.56456 -0.5451 0
M  V30 6660 O 625.396 -3.78426 -1.63912 0
M  V30 6661 H 624.737 -0.663599 -0.023067 0
M  V30 6662 H 627.267 -1.96898 0.556084 0
M  V30 6663 H 627.277 -3.99888 -0.809557 0
M  V30 6664 H 625.952 -4.14561 0.333417 0
M  V30 6665 H 624.529 -3.46884 -1.36842 0
M  V30 6666 N 626.714 -0.118576 -1.57153 0
M  V30 6667 C 627.644 0.828436 -2.1831 0
M  V30 6668 C 628.625 1.27758 -1.12303 0
M  V30 6669 O 629.81 1.34026 -1.40537 0
M  V30 6670 C 626.94 2.07876 -2.78217 0
M  V30 6671 C 625.894 1.76742 -3.89803 0
M  V30 6672 C 625.22 3.08801 -4.36516 0
M  V30 6673 C 626.52 1.03606 -5.11921 0
M  V30 6674 H 628.214 0.318824 -2.97698 0
M  V30 6675 H 625.76 0.151911 -1.43196 0
M  V30 6676 H 627.713 2.74584 -3.19659 0
M  V30 6677 H 626.437 2.61161 -1.96118 0
M  V30 6678 H 625.096 1.12424 -3.48936 0
M  V30 6679 H 624.744 3.6002 -3.51276 0
M  V30 6680 H 624.444 2.88743 -5.11763 0
M  V30 6681 H 625.968 3.76627 -4.80608 0
M  V30 6682 H 627.382 1.60467 -5.50385 0
M  V30 6683 H 625.779 0.936454 -5.92748 0
M  V30 6684 H 626.849 0.0227421 -4.84895 0
M  V30 6685 O 628.231 1.61487 0.0208228 0
M  V30 6686 H 628.922 1.82811 0.640289 0
M  V30 END ATOM
M  V30 BEGIN BOND
M  V30 END BOND
M  V30 END CTAB
M  END
$$$$
