drugbank_target|P50897 Palmitoyl-protein thioesterase 1 (DB02035; DB03796)
 OpenBabel12092120553D

  0  0  0     0  0            999 V3000
M  V30 BEGIN CTAB
M  V30 COUNTS 4793 4853 0 0 0
M  V30 BEGIN ATOM
M  V30 1 H -0.908 1.98254 -0.117106 0
M  V30 2 N 0 1.576 0 0
M  V30 3 C 0.933 2.03868 1.02534 0
M  V30 4 C 1.911 0.928543 1.3348 0
M  V30 5 O 3.095 1.19667 1.45644 0
M  V30 6 C 0.222 2.43627 2.35294 0
M  V30 7 C -0.732 3.65373 2.2001 0
M  V30 8 S 0.101 5.13292 1.52614 0
M  V30 9 C 1.257 5.56322 2.86805 0
M  V30 10 H 1.49 2.90518 0.631377 0
M  V30 11 H -0.977 1.52953 0.210867 0
M  V30 12 H 0.981 2.67203 3.11629 0
M  V30 13 H -0.358 1.57376 2.7183 0
M  V30 14 H -1.165 3.90944 3.18086 0
M  V30 15 H -1.563 3.418 1.51819 0
M  V30 16 H 0.729 5.58782 3.83104 0
M  V30 17 H 1.672 6.56266 2.65933 0
M  V30 18 H 2.08 4.83886 2.90714 0
M  V30 19 N 1.4781 -0.272755 1.55222 0
M  V30 20 C 2.4411 -1.32041 1.87344 0
M  V30 21 C 3.4411 -1.42342 0.74803 0
M  V30 22 O 4.6311 -1.41488 1.0162 0
M  V30 23 C 1.7631 -2.70173 2.07893 0
M  V30 24 H 2.9561 -1.04789 2.80997 0
M  V30 25 H 0.5091 -0.51083 1.47717 0
M  V30 26 H 1.2441 -3.02605 1.16622 0
M  V30 27 H 1.0291 -2.64082 2.89833 0
M  V30 28 H 2.5191 -3.45869 2.34017 0
M  V30 29 N 2.9562 -1.48159 -0.537278 0
M  V30 30 C 4.1812 -1.59707 -1.32319 0
M  V30 31 C 4.6062 -0.254859 -1.86365 0
M  V30 32 O 3.9642 0.772378 -1.64024 0
M  V30 33 C 4.0122 -2.6412 -2.45505 0
M  V30 34 O 3.1162 -2.20774 -3.48328 0
M  V30 35 H 2.4572 -0.535791 -0.392204 0
M  V30 36 H 4.9872 -1.94092 -0.647268 0
M  V30 37 H 4.9972 -2.85166 -2.91795 0
M  V30 38 H 3.6722 -3.61567 -2.05528 0
M  V30 39 H 2.2492 -2.09911 -3.08207 0
M  V30 40 N 4.4343 0.785586 -1.36625 0
M  V30 41 C 5.8453 1.36101 -1.27803 0
M  V30 42 C 6.1963 1.96035 0.0804875 0
M  V30 43 O 5.3213 1.92834 0.982042 0
M  V30 44 C 5.9163 2.47442 -2.31426 0
M  V30 45 C 4.4753 3.00789 -2.26281 0
M  V30 46 C 3.6223 1.73896 -2.15999 0
M  V30 47 H 6.5733 0.586928 -1.47448 0
M  V30 48 H 6.5943 3.2656 -1.95291 0
M  V30 49 H 6.1063 2.03791 -3.30289 0
M  V30 50 H 4.2073 3.48851 -1.30896 0
M  V30 51 H 4.3203 3.57343 -3.19128 0
M  V30 52 H 2.6843 1.9628 -1.62316 0
M  V30 53 H 3.4673 1.32368 -3.16755 0
M  V30 54 N 5.9124 1.20967 1.01018 0
M  V30 55 C 7.1604 1.02172 1.74371 0
M  V30 56 C 7.4814 -0.446414 1.89821 0
M  V30 57 O 6.7514 -1.32234 1.44537 0
M  V30 58 H 5.3314 0.375066 0.646014 0
M  V30 59 H 7.9934 1.52187 1.21758 0
M  V30 60 H 7.0894 1.48538 2.74487 0
M  V30 61 N 7.3905 -1.2043 1.01659 0
M  V30 62 C 8.6305 -1.91507 0.714456 0
M  V30 63 C 8.9945 -1.77073 -0.742237 0
M  V30 64 O 10.1955 -2.42631 -1.15688 0
M  V30 65 C 8.4665 -3.38795 1.13809 0
M  V30 66 S 10.0255 -4.28216 0.957925 0
M  V30 67 H 6.8435 -0.661571 0.260471 0
M  V30 68 H 9.4455 -1.45671 1.30384 0
M  V30 69 H 8.1495 -3.46822 2.19415 0
M  V30 70 H 7.6805 -3.89656 0.541474 0
M  V30 71 H 9.6955 -4.96007 -0.138531 0
M  V30 72 N 8.8686 -0.792821 -1.36206 0
M  V30 73 C 9.7986 -0.207853 -2.32573 0
M  V30 74 C 10.7796 0.659055 -1.56813 0
M  V30 75 O 11.9646 0.592176 -1.84951 0
M  V30 76 C 9.0946 0.655449 -3.41059 0
M  V30 77 C 8.0486 -0.111842 -4.27854 0
M  V30 78 C 7.3746 0.872274 -5.27537 0
M  V30 79 C 8.6746 -1.30299 -5.05786 0
M  V30 80 H 10.3686 -1.01294 -2.81744 0
M  V30 81 H 7.9146 -0.48854 -1.3546 0
M  V30 82 H 9.8676 1.07464 -4.07467 0
M  V30 83 H 8.5916 1.49328 -2.90463 0
M  V30 84 H 7.2506 -0.512053 -3.63006 0
M  V30 85 H 6.8986 1.70523 -4.73214 0
M  V30 86 H 6.5986 0.363291 -5.86476 0
M  V30 87 H 8.1226 1.28996 -5.96818 0
M  V30 88 H 9.5366 -0.959379 -5.65216 0
M  V30 89 H 7.9336 -1.7455 -5.74154 0
M  V30 90 H 9.0036 -2.09663 -4.37229 0
M  V30 91 N 10.3467 1.47872 -0.545128 0
M  V30 92 C 11.5927 2.03385 -0.0247951 0
M  V30 93 C 11.9477 1.41325 1.30556 0
M  V30 94 O 11.2407 0.5552 1.8338 0
M  V30 95 C 11.4347 3.57131 0.13867 0
M  V30 96 C 11.2637 4.34097 -1.17429 0
M  V30 97 C 10.0337 4.74458 -1.73831 0
M  V30 98 C 12.2317 4.6998 -2.08861 0
M  V30 99 N 10.2137 5.3602 -2.99258 0
M  V30 100 C 11.5847 5.31719 -3.18866 0
M  V30 101 C 13.6397 4.5191 -2.09003 0
M  V30 102 C 12.3427 5.77295 -4.29096 0
M  V30 103 C 14.3687 4.98477 -3.18237 0
M  V30 104 C 13.7307 5.60253 -4.26961 0
M  V30 105 H 9.8297 0.780339 -0.050943 0
M  V30 106 H 12.4137 1.80507 -0.729753 0
M  V30 107 H 10.5847 3.79802 0.812733 0
M  V30 108 H 12.3167 3.99282 0.659976 0
M  V30 109 H 9.0717 4.56037 -1.2778 0
M  V30 110 H 9.4957 5.71355 -3.63157 0
M  V30 111 H 14.1377 4.03516 -1.26234 0
M  V30 112 H 11.8557 6.24687 -5.12633 0
M  V30 113 H 15.4417 4.86274 -3.1942 0
M  V30 114 H 14.3217 5.95631 -5.10091 0
M  V30 115 N 11.8248 0.280983 1.55075 0
M  V30 116 C 12.7548 -0.597469 2.25727 0
M  V30 117 C 13.7358 -1.15417 1.24952 0
M  V30 118 O 14.9208 -1.18722 1.53684 0
M  V30 119 C 12.0508 -1.7789 2.98283 0
M  V30 120 C 11.0048 -1.35347 4.06036 0
M  V30 121 C 10.3308 -2.61846 4.66198 0
M  V30 122 C 11.6308 -0.499354 5.19907 0
M  V30 123 H 13.3248 -0.00824265 2.99399 0
M  V30 124 H 10.8708 -0.0025244 1.44 0
M  V30 125 H 12.8238 -2.39937 3.46422 0
M  V30 126 H 11.5478 -2.39405 2.22155 0
M  V30 127 H 10.2068 -0.756156 3.58717 0
M  V30 128 H 9.8548 -3.21632 3.86732 0
M  V30 129 H 9.5548 -2.3409 5.38958 0
M  V30 130 H 11.0788 -3.24732 5.1709 0
M  V30 131 H 12.4928 -1.02498 5.64063 0
M  V30 132 H 10.8898 -0.316424 5.99265 0
M  V30 133 H 11.9598 0.480459 4.82514 0
M  V30 134 N 13.3029 -1.57598 0.00835791 0
M  V30 135 C 14.2329 -2.1198 -0.979113 0
M  V30 136 C 15.2139 -1.03091 -1.35301 0
M  V30 137 O 16.3989 -1.30818 -1.43528 0
M  V30 138 C 13.5289 -2.62995 -2.26828 0
M  V30 139 C 12.4829 -3.76485 -2.03576 0
M  V30 140 C 11.8089 -4.13846 -3.38579 0
M  V30 141 C 13.1089 -5.0342 -1.39161 0
M  V30 142 H 14.8029 -2.94738 -0.526281 0
M  V30 143 H 12.3489 -1.41783 -0.251704 0
M  V30 144 H 14.3019 -2.99669 -2.96271 0
M  V30 145 H 13.0259 -1.7737 -2.7424 0
M  V30 146 H 11.6849 -3.40217 -1.36557 0
M  V30 147 H 11.3329 -3.25232 -3.83709 0
M  V30 148 H 11.0329 -4.90312 -3.23834 0
M  V30 149 H 12.5569 -4.53086 -4.09323 0
M  V30 150 H 13.9709 -5.37812 -1.98573 0
M  V30 151 H 12.3679 -5.84746 -1.34878 0
M  V30 152 H 13.4379 -4.83548 -0.361868 0
M  V30 153 N 14.781 0.264519 -1.55364 0
M  V30 154 C 15.744 1.31046 -1.88042 0
M  V30 155 C 16.744 1.41943 -0.755569 0
M  V30 156 O 17.934 1.40947 -1.02369 0
M  V30 157 C 15.066 2.69067 -2.09323 0
M  V30 158 H 16.259 1.03297 -2.81549 0
M  V30 159 H 13.812 0.502989 -1.47986 0
M  V30 160 H 14.547 3.01982 -1.18226 0
M  V30 161 H 14.332 2.62542 -2.91229 0
M  V30 162 H 15.822 3.44623 -2.35848 0
M  V30 163 N 16.2591 1.48442 0.529413 0
M  V30 164 C 17.5051 1.5672 1.28711 0
M  V30 165 C 17.8381 0.2406 1.92704 0
M  V30 166 O 17.1131 -0.753454 1.79313 0
M  V30 167 C 17.3961 2.70587 2.37603 0
M  V30 168 C 17.2491 4.12953 1.78297 0
M  V30 169 C 18.5681 2.80212 3.39366 0
M  V30 170 H 15.6871 0.570474 0.466613 0
M  V30 171 H 18.3291 1.80617 0.589706 0
M  V30 172 H 16.4791 2.50342 2.97088 0
M  V30 173 H 18.1511 4.44639 1.22858 0
M  V30 174 H 16.3941 4.19927 1.0883 0
M  V30 175 H 17.0651 4.88448 2.57144 0
M  V30 176 H 19.5411 2.98553 2.89836 0
M  V30 177 H 18.4171 3.61611 4.12951 0
M  V30 178 H 18.6781 1.88393 3.99951 0
M  V30 179 N 17.7372 -0.778329 1.37039 0
M  V30 180 C 18.7002 -1.87301 1.32102 0
M  V30 181 C 19.7002 -1.59198 0.226405 0
M  V30 182 O 20.8902 -1.67403 0.481861 0
M  V30 183 C 18.0222 -3.24309 1.05055 0
M  V30 184 H 19.2152 -1.93093 2.29467 0
M  V30 185 H 16.7682 -0.977358 1.21973 0
M  V30 186 H 17.5032 -3.24196 0.0819373 0
M  V30 187 H 17.2882 -3.46098 1.84279 0
M  V30 188 H 18.7782 -4.04382 1.04234 0
M  V30 189 N 19.2153 -1.21501 -1.00376 0
M  V30 190 C 20.1453 -0.999478 -2.11028 0
M  V30 191 C 21.1263 0.0759671 -1.6993 0
M  V30 192 O 22.3113 -0.0841106 -1.94018 0
M  V30 193 C 19.4413 -0.564709 -3.42678 0
M  V30 194 C 18.3953 -1.58486 -3.97576 0
M  V30 195 C 17.7213 -1.00628 -5.25146 0
M  V30 196 C 19.0213 -2.97204 -4.29496 0
M  V30 197 H 20.7153 -1.92495 -2.29317 0
M  V30 198 H 18.2613 -0.92693 -1.102 0
M  V30 199 H 20.2143 -0.401091 -4.19487 0
M  V30 200 H 18.9383 0.396411 -3.24185 0
M  V30 201 H 17.5973 -1.73606 -3.22888 0
M  V30 202 H 17.2453 -0.0368439 -5.02987 0
M  V30 203 H 16.9453 -1.68771 -5.62841 0
M  V30 204 H 18.4693 -0.854015 -6.04598 0
M  V30 205 H 19.8833 -2.8552 -4.97143 0
M  V30 206 H 18.2803 -3.62372 -4.78338 0
M  V30 207 H 19.3503 -3.47956 -3.3772 0
M  V30 208 N 20.6934 1.19889 -1.02296 0
M  V30 209 C 21.6234 2.25141 -0.619174 0
M  V30 210 C 22.6044 1.66051 0.368915 0
M  V30 211 O 23.7894 1.92546 0.252941 0
M  V30 212 C 20.9194 3.4728 0.0368783 0
M  V30 213 C 19.8734 4.19005 -0.872865 0
M  V30 214 C 19.1994 5.34637 -0.0822402 0
M  V30 215 C 20.4994 4.74452 -2.18387 0
M  V30 216 H 22.1934 2.59171 -1.49903 0
M  V30 217 H 19.7394 1.24579 -0.722222 0
M  V30 218 H 21.6924 4.20098 0.330958 0
M  V30 219 H 20.4164 3.12433 0.95149 0
M  V30 220 H 19.0754 3.48061 -1.15105 0
M  V30 221 H 18.7234 4.96034 0.83422 0
M  V30 222 H 18.4234 5.83557 -0.688149 0
M  V30 223 H 19.9474 6.10255 0.205238 0
M  V30 224 H 21.3614 5.39055 -1.95172 0
M  V30 225 H 19.7584 5.33834 -2.74119 0
M  V30 226 H 20.8284 3.92844 -2.84257 0
M  V30 227 N 22.1715 0.800033 1.35784 0
M  V30 228 C 23.5825 0.439142 1.81462 0
M  V30 229 C 23.9335 -1.03813 1.66485 0
M  V30 230 O 23.0585 -1.80626 1.19177 0
M  V30 231 C 23.6535 0.790314 3.29453 0
M  V30 232 C 22.2125 0.482111 3.733 0
M  V30 233 C 21.3595 1.01938 2.57883 0
M  V30 234 H 24.3105 0.992254 1.23855 0
M  V30 235 H 24.3315 0.0853677 3.80404 0
M  V30 236 H 23.8435 1.86554 3.40322 0
M  V30 237 H 21.9445 -0.584652 3.67984 0
M  V30 238 H 22.0575 1.01015 4.6833 0
M  V30 239 H 20.4215 0.442043 2.50835 0
M  V30 240 H 21.2045 2.10059 2.71533 0
M  V30 241 N 23.6496 -1.47581 0.552962 0
M  V30 242 C 24.8956 -2.03369 0.0355807 0
M  V30 243 C 25.2506 -1.42016 -1.29805 0
M  V30 244 O 24.5436 -0.564917 -1.83083 0
M  V30 245 C 24.7376 -3.57199 -0.119728 0
M  V30 246 C 24.5666 -4.33468 1.1973 0
M  V30 247 C 23.3366 -4.7353 1.76345 0
M  V30 248 C 25.5346 -4.68866 2.11351 0
M  V30 249 N 23.5166 -5.34426 3.02097 0
M  V30 250 C 24.8876 -5.3002 3.21681 0
M  V30 251 C 26.9426 -4.50795 2.11397 0
M  V30 252 C 25.6456 -5.75011 4.32151 0
M  V30 253 C 27.6716 -4.96782 3.20876 0
M  V30 254 C 27.0336 -5.57981 4.29926 0
M  V30 255 H 23.1326 -0.780058 0.0550806 0
M  V30 256 H 25.7166 -1.80117 0.739315 0
M  V30 257 H 23.8876 -3.80227 -0.792579 0
M  V30 258 H 25.6196 -3.99627 -0.638792 0
M  V30 259 H 22.3746 -4.55352 1.30196 0
M  V30 260 H 22.7986 -5.69421 3.66182 0
M  V30 261 H 27.4406 -4.0284 1.28372 0
M  V30 262 H 25.1586 -6.21959 5.15938 0
M  V30 263 H 28.7446 -4.84573 3.21994 0
M  V30 264 H 27.6246 -5.92918 5.13243 0
M  V30 265 N 25.1277 -0.289203 -1.54924 0
M  V30 266 C 26.3557 0.326463 -2.04308 0
M  V30 267 C 26.7707 1.48413 -1.16701 0
M  V30 268 O 26.1277 1.81507 -0.190087 0
M  V30 269 C 26.1787 0.794014 -3.52672 0
M  V30 270 O 25.8997 -0.317564 -4.36948 0
M  V30 271 C 27.4007 1.47605 -4.18004 0
M  V30 272 H 24.6207 0.0726272 -0.667058 0
M  V30 273 H 27.1647 -0.425401 -2.00026 0
M  V30 274 H 25.3197 1.49593 -3.57352 0
M  V30 275 H 25.7337 0.0443186 -5.24481 0
M  V30 276 H 27.2077 1.75447 -5.23376 0
M  V30 277 H 27.6847 2.41224 -3.67025 0
M  V30 278 H 28.2907 0.81762 -4.17367 0
M  V30 279 N 26.6058 1.57591 -0.0167156 0
M  V30 280 C 27.8458 1.93145 0.668902 0
M  V30 281 C 28.2098 0.892406 1.7 0
M  V30 282 O 29.4108 1.13373 2.43721 0
M  V30 283 C 27.6818 3.33678 1.28039 0
M  V30 284 S 29.2408 3.91142 1.9888 0
M  V30 285 H 26.0588 0.67593 0.220545 0
M  V30 286 H 28.6608 1.95347 -0.0774105 0
M  V30 287 H 27.3648 4.07126 0.517339 0
M  V30 288 H 26.8958 3.3489 2.06427 0
M  V30 289 H 28.9108 3.73571 3.26587 0
M  V30 290 N 28.0839 -0.256276 1.55502 0
M  V30 291 C 29.0469 -1.30047 1.88734 0
M  V30 292 C 30.0469 -1.4154 0.763086 0
M  V30 293 O 31.2369 -1.40403 1.03115 0
M  V30 294 C 28.3689 -2.67953 2.10747 0
M  V30 295 H 29.5619 -1.01802 2.82093 0
M  V30 296 H 27.1149 -0.495134 1.4825 0
M  V30 297 H 27.8499 -3.01351 1.19825 0
M  V30 298 H 27.6349 -2.60993 2.92617 0
M  V30 299 H 29.1249 -3.43368 2.37673 0
M  V30 300 N 29.562 -1.4872 -0.521534 0
M  V30 301 C 30.787 -1.61101 -1.30618 0
M  V30 302 C 31.212 -0.274611 -1.86085 0
M  V30 303 O 30.57 0.754937 -1.64834 0
M  V30 304 C 30.618 -2.66709 -2.4269 0
M  V30 305 O 29.722 -2.24456 -3.45967 0
M  V30 306 H 29.063 -0.539921 -0.386499 0
M  V30 307 H 31.593 -1.94767 -0.626645 0
M  V30 308 H 31.603 -2.88245 -2.88754 0
M  V30 309 H 30.278 -3.63727 -2.01682 0
M  V30 310 H 28.855 -2.13168 -3.05964 0
M  V30 311 N 31.0401 0.771051 -1.3745 0
M  V30 312 C 32.4561 1.07171 -1.18265 0
M  V30 313 C 32.6561 2.01491 -0.019287 0
M  V30 314 O 31.7121 2.44244 0.640408 0
M  V30 315 C 33.0251 1.66854 -2.50161 0
M  V30 316 C 34.5731 1.79109 -2.56689 0
M  V30 317 C 35.0481 2.42205 -3.88717 0
M  V30 318 N 36.5391 2.49655 -3.90162 0
M  V30 319 C 37.2741 2.9933 -4.8907 0
M  V30 320 N 36.7701 3.49172 -5.98374 0
M  V30 321 N 38.5631 2.9821 -4.76474 0
M  V30 322 H 30.7141 0.144796 -2.11906 0
M  V30 323 H 32.9771 0.126863 -0.939473 0
M  V30 324 H 32.6831 1.05017 -3.35655 0
M  V30 325 H 32.5571 2.6614 -2.673 0
M  V30 326 H 34.9441 2.40077 -1.71601 0
M  V30 327 H 35.0251 0.785757 -2.43433 0
M  V30 328 H 34.6691 1.81875 -4.74219 0
M  V30 329 H 34.5991 3.43345 -3.99276 0
M  V30 330 H 37.0901 2.14383 -3.11205 0
M  V30 331 H 37.4031 3.8548 -6.69795 0
M  V30 332 H 35.7481 3.47275 -6.02018 0
M  V30 333 H 38.9391 2.58572 -3.90203 0
M  V30 334 H 39.1121 3.36613 -5.53711 0
M  V30 335 N 32.5182 1.22032 0.997298 0
M  V30 336 C 33.4812 0.987909 2.06816 0
M  V30 337 C 34.4812 -0.0440084 1.6074 0
M  V30 338 O 35.6712 0.194053 1.73116 0
M  V30 339 C 32.8032 0.49132 3.37341 0
M  V30 340 H 33.9962 1.93803 2.28868 0
M  V30 341 H 31.5492 1.03838 1.16822 0
M  V30 342 H 32.2842 -0.463364 3.20973 0
M  V30 343 H 32.0692 1.23575 3.72118 0
M  V30 344 H 33.5592 0.348824 4.16141 0
M  V30 345 N 33.9963 -1.19345 1.0293 0
M  V30 346 C 34.9263 -2.2481 0.631105 0
M  V30 347 C 35.9073 -1.66245 -0.360104 0
M  V30 348 O 37.0923 -1.92677 -0.242726 0
M  V30 349 C 34.2223 -3.47295 -0.0184607 0
M  V30 350 C 33.1763 -4.18536 0.895073 0
M  V30 351 C 32.5023 -5.34586 0.110592 0
M  V30 352 C 33.8023 -4.73287 2.209 0
M  V30 353 H 35.4963 -2.58372 1.51275 0
M  V30 354 H 33.0423 -1.24194 0.728818 0
M  V30 355 H 34.9953 -4.20268 -0.308675 0
M  V30 356 H 33.7193 -3.12933 -0.934907 0
M  V30 357 H 32.3783 -3.47446 1.16949 0
M  V30 358 H 32.0263 -4.96469 -0.807902 0
M  V30 359 H 31.7263 -5.83183 0.719087 0
M  V30 360 H 33.2503 -6.10355 -0.172871 0
M  V30 361 H 34.6643 -5.38013 1.98028 0
M  V30 362 H 33.0613 -5.32373 2.76946 0
M  V30 363 H 34.1313 -3.91331 2.86336 0
M  V30 364 N 35.4744 -0.807222 -1.35358 0
M  V30 365 C 36.4064 -0.175717 -2.28525 0
M  V30 366 C 37.4194 0.625354 -1.5031 0
M  V30 367 O 38.6084 0.457611 -1.72535 0
M  V30 368 C 35.7084 0.773471 -3.29956 0
M  V30 369 C 34.8814 0.0186296 -4.37396 0
M  V30 370 C 33.9404 0.886395 -5.18681 0
M  V30 371 O 32.9664 0.337106 -5.68201 0
M  V30 372 N 34.1684 2.20839 -5.36852 0
M  V30 373 H 36.9334 -0.976091 -2.83359 0
M  V30 374 H 34.4944 -0.662737 -1.47714 0
M  V30 375 H 36.4864 1.35824 -3.81227 0
M  V30 376 H 35.0564 1.47465 -2.75632 0
M  V30 377 H 34.2764 -0.747349 -3.87051 0
M  V30 378 H 35.5644 -0.501577 -5.06322 0
M  V30 379 H 34.9624 2.67858 -4.98265 0
M  V30 380 H 33.5194 2.74237 -5.91301 0
M  V30 381 N 36.9525 1.47285 -0.560781 0
M  V30 382 C 37.9025 2.27073 0.205384 0
M  V30 383 C 38.8865 1.34569 0.882044 0
M  V30 384 O 40.0785 1.58899 0.77976 0
M  V30 385 C 37.2075 3.20414 1.23247 0
M  V30 386 C 36.2935 4.20399 0.559041 0
M  V30 387 N 36.6845 5.04423 -0.372927 0
M  V30 388 C 34.9825 4.38536 0.812522 0
M  V30 389 C 35.6835 5.76655 -0.764446 0
M  V30 390 N 34.6595 5.43471 -0.11848 0
M  V30 391 H 38.4615 2.89422 -0.511117 0
M  V30 392 H 35.9755 1.57868 -0.380975 0
M  V30 393 H 37.9725 3.76262 1.79534 0
M  V30 394 H 36.6325 2.59623 1.95002 0
M  V30 395 H 37.6435 5.1248 -0.747287 0
M  V30 396 H 34.3205 3.88913 1.51832 0
M  V30 397 H 35.7105 6.54238 -1.53045 0
M  V30 398 N 38.4306 0.297415 1.54768 0
M  V30 399 C 39.3606 -0.573494 2.26348 0
M  V30 400 C 40.3416 -1.14085 1.26169 0
M  V30 401 O 41.5266 -1.17086 1.54934 0
M  V30 402 C 38.6566 -1.74716 3.00153 0
M  V30 403 C 37.6106 -1.31032 4.07449 0
M  V30 404 C 36.9366 -2.56887 4.68949 0
M  V30 405 C 38.2366 -0.444183 5.20408 0
M  V30 406 H 39.9306 0.0235131 2.99391 0
M  V30 407 H 37.4766 0.0127488 1.43994 0
M  V30 408 H 39.4296 -2.3625 3.48947 0
M  V30 409 H 38.1536 -2.37035 2.24682 0
M  V30 410 H 36.8126 -0.718066 3.59499 0
M  V30 411 H 36.4606 -3.17512 3.90122 0
M  V30 412 H 36.1606 -2.2836 5.41411 0
M  V30 413 H 37.6846 -3.19229 5.20505 0
M  V30 414 H 39.0986 -0.9651 5.65118 0
M  V30 415 H 37.4956 -0.252846 5.99567 0
M  V30 416 H 38.5656 0.531609 4.81977 0
M  V30 417 N 39.9087 -1.5758 0.0250728 0
M  V30 418 C 41.1857 -1.82917 -0.692873 0
M  V30 419 C 41.5657 -0.908137 -1.90568 0
M  V30 420 O 40.9137 0.0372298 -2.2847 0
M  V30 421 C 41.1237 -3.32034 -1.07492 0
M  V30 422 C 42.4717 -3.98406 -1.46826 0
M  V30 423 O 43.4957 -3.36505 -1.16801 0
M  V30 424 O 42.3547 -5.07497 -2.02754 0
M  V30 425 H 39.4487 -0.754079 -0.33955 0
M  V30 426 H 41.9947 -1.69619 0.0524456 0
M  V30 427 H 40.7667 -3.90728 -0.211552 0
M  V30 428 H 40.3897 -3.50424 -1.87854 0
M  V30 429 N 41.3868 0.248026 -1.55636 0
M  V30 430 C 42.7978 0.817177 -1.67866 0
M  V30 431 C 43.1488 1.86069 -0.622322 0
M  V30 432 O 42.2738 2.15157 0.231618 0
M  V30 433 C 42.8688 1.489 -3.04326 0
M  V30 434 C 41.4278 2.00587 -3.185 0
M  V30 435 C 40.5748 0.856573 -2.63739 0
M  V30 436 H 43.5258 0.0238579 -1.58682 0
M  V30 437 H 43.5468 2.35698 -2.98708 0
M  V30 438 H 43.0588 0.729279 -3.81186 0
M  V30 439 H 41.1598 2.79443 -2.4646 0
M  V30 440 H 41.2728 2.20402 -4.25393 0
M  V30 441 H 39.6368 1.25678 -2.21534 0
M  V30 442 H 40.4198 0.109953 -3.43124 0
M  V30 443 N 42.8649 1.48995 0.513639 0
M  V30 444 C 44.2759 1.5119 1.09537 0
M  V30 445 C 44.6269 0.290906 1.94031 0
M  V30 446 O 43.7519 -0.60049 2.07902 0
M  V30 447 C 44.3469 2.73964 1.99322 0
M  V30 448 C 42.9059 2.78978 2.52682 0
M  V30 449 C 42.0529 2.44934 1.30009 0
M  V30 450 H 45.0039 1.55875 0.298125 0
M  V30 451 H 45.0249 2.53409 2.83838 0
M  V30 452 H 44.5369 3.62813 1.37799 0
M  V30 453 H 42.6379 1.94378 3.1788 0
M  V30 454 H 42.7509 3.8083 2.90698 0
M  V30 455 H 41.1149 1.9644 1.62122 0
M  V30 456 H 41.8979 3.36043 0.702131 0
M  V30 457 N 44.343 -0.763751 1.37857 0
M  V30 458 C 45.306 -1.85889 1.34081 0
M  V30 459 C 46.306 -1.58949 0.243277 0
M  V30 460 O 47.496 -1.66882 0.499589 0
M  V30 461 C 44.628 -3.23176 1.08489 0
M  V30 462 H 45.821 -1.90648 2.31502 0
M  V30 463 H 43.374 -0.964367 1.23003 0
M  V30 464 H 44.109 -3.24091 0.116318 0
M  V30 465 H 43.894 -3.44124 1.8794 0
M  V30 466 H 45.384 -4.03254 1.08517 0
M  V30 467 N 45.8211 -1.22559 -0.990812 0
M  V30 468 C 47.2321 -1.04791 -1.54518 0
M  V30 469 C 47.5831 0.387998 -1.92325 0
M  V30 470 O 46.7081 1.27328 -1.74976 0
M  V30 471 C 47.3031 -1.896 -2.80779 0
M  V30 472 C 45.8621 -1.76124 -3.32652 0
M  V30 473 C 45.0091 -1.8594 -2.05722 0
M  V30 474 H 47.9601 -1.36374 -0.811662 0
M  V30 475 H 47.9811 -1.41464 -3.53225 0
M  V30 476 H 47.4931 -2.94101 -2.53231 0
M  V30 477 H 45.5941 -0.743643 -3.65104 0
M  V30 478 H 45.7071 -2.58913 -4.03114 0
M  V30 479 H 44.0711 -1.29403 -2.19379 0
M  V30 480 H 44.8541 -2.91976 -1.80568 0
M  V30 481 N 47.2992 1.18797 -1.03562 0
M  V30 482 C 48.2292 2.24472 -0.643019 0
M  V30 483 C 49.2102 1.66433 0.351283 0
M  V30 484 O 50.3952 1.92803 0.232505 0
M  V30 485 C 47.5252 3.473 4.24935e-05 0
M  V30 486 C 46.4792 4.18055 -0.917257 0
M  V30 487 C 45.8052 5.34519 -0.138941 0
M  V30 488 C 47.1052 4.72109 -2.23407 0
M  V30 489 H 48.7992 2.57566 -1.52643 0
M  V30 490 H 46.3452 1.23806 -0.735394 0
M  V30 491 H 48.2982 4.20426 0.286383 0
M  V30 492 H 47.0222 3.13424 0.918299 0
M  V30 493 H 45.6812 3.46821 -1.1879 0
M  V30 494 H 45.3292 4.96891 0.781562 0
M  V30 495 H 45.0292 5.82794 -0.750005 0
M  V30 496 H 46.5532 6.10438 0.1405 0
M  V30 497 H 47.9672 5.36955 -2.00879 0
M  V30 498 H 46.3642 5.30897 -2.79765 0
M  V30 499 H 47.4342 3.89807 -2.88407 0
M  V30 500 N 48.7773 0.814389 1.34928 0
M  V30 501 C 50.1883 0.458364 1.80986 0
M  V30 502 C 50.5393 -1.02042 1.67577 0
M  V30 503 O 49.6643 -1.79352 1.21086 0
M  V30 504 C 50.2593 0.825212 3.28597 0
M  V30 505 C 48.8183 0.521677 3.72767 0
M  V30 506 C 47.9653 1.04668 2.56788 0
M  V30 507 H 50.9163 1.00533 1.22795 0
M  V30 508 H 50.9373 0.12571 3.80292 0
M  V30 509 H 50.4493 1.90154 3.38324 0
M  V30 510 H 48.5503 -0.545589 3.68584 0
M  V30 511 H 48.6633 1.05977 4.67232 0
M  V30 512 H 47.0273 0.468622 2.50352 0
M  V30 513 H 47.8103 2.12927 2.6929 0
M  V30 514 N 50.2554 -1.46986 0.568584 0
M  V30 515 C 51.1854 -2.32946 -0.160753 0
M  V30 516 C 52.1664 -1.44487 -0.897631 0
M  V30 517 O 53.3514 -1.73327 -0.875867 0
M  V30 518 C 50.4814 -3.26494 -1.18403 0
M  V30 519 C 49.4354 -4.24282 -0.562895 0
M  V30 520 C 48.7614 -5.07236 -1.69163 0
M  V30 521 C 50.0614 -5.19989 0.490761 0
M  V30 522 H 51.7554 -2.94175 0.556916 0
M  V30 523 H 49.3014 -1.4146 0.26927 0
M  V30 524 H 51.2544 -3.85477 -1.70251 0
M  V30 525 H 49.9784 -2.63343 -1.93179 0
M  V30 526 H 48.6374 -3.66541 -0.0656164 0
M  V30 527 H 48.2854 -4.4048 -2.42871 0
M  V30 528 H 47.9854 -5.7345 -1.28174 0
M  V30 529 H 49.5094 -5.6908 -2.21314 0
M  V30 530 H 50.9234 -5.73271 0.0579047 0
M  V30 531 H 49.3204 -5.94469 0.820165 0
M  V30 532 H 50.3904 -4.64777 1.3824 0
M  V30 533 N 51.7335 -0.305618 -1.54608 0
M  V30 534 C 52.9795 0.302746 -2.00528 0
M  V30 535 C 53.3125 1.53184 -1.19367 0
M  V30 536 O 52.5875 1.92598 -0.271321 0
M  V30 537 C 52.8705 0.654756 -3.54097 0
M  V30 538 C 52.7235 -0.583793 -4.45995 0
M  V30 539 C 54.0425 1.47947 -4.14487 0
M  V30 540 H 51.1615 0.108564 -0.72896 0
M  V30 541 H 53.8035 -0.418634 -1.85331 0
M  V30 542 H 51.9535 1.26935 -3.67178 0
M  V30 543 H 53.6255 -1.22224 -4.44814 0
M  V30 544 H 51.8685 -1.21615 -4.16404 0
M  V30 545 H 52.5395 -0.293287 -5.5122 0
M  V30 546 H 55.0155 0.96013 -4.04871 0
M  V30 547 H 53.8915 1.69454 -5.22088 0
M  V30 548 H 54.1525 2.47011 -3.66658 0
M  V30 549 N 53.2116 1.57565 -0.0334293 0
M  V30 550 C 54.4606 1.91155 0.643639 0
M  V30 551 C 54.7736 0.91192 1.73042 0
M  V30 552 O 55.9796 1.13923 2.46442 0
M  V30 553 C 54.4356 3.39443 1.1961 0
M  V30 554 C 54.0436 4.47774 0.142381 0
M  V30 555 C 55.7876 3.82094 1.84944 0
M  V30 556 C 53.6946 5.87162 0.706727 0
M  V30 557 H 52.6246 0.713368 0.244176 0
M  V30 558 H 55.2756 1.8323 -0.0994323 0
M  V30 559 H 53.6576 3.42313 1.99092 0
M  V30 560 H 54.8316 4.56469 -0.630296 0
M  V30 561 H 53.1466 4.14352 -0.412446 0
M  V30 562 H 55.7436 4.83591 2.2813 0
M  V30 563 H 56.0866 3.17386 2.69392 0
M  V30 564 H 56.6196 3.81665 1.12145 0
M  V30 565 H 53.3586 6.55424 -0.0997178 0
M  V30 566 H 52.8786 5.82064 1.44779 0
M  V30 567 H 54.5576 6.35866 1.19514 0
M  V30 568 N 54.6897 -0.239769 1.55765 0
M  V30 569 C 55.9357 -0.963942 1.79108 0
M  V30 570 C 56.2907 -1.82689 0.60352 0
M  V30 571 O 55.5837 -1.87313 -0.403033 0
M  V30 572 C 55.7777 -1.852 3.05672 0
M  V30 573 C 55.6067 -1.07651 4.36625 0
M  V30 574 C 54.3767 -0.778738 4.99263 0
M  V30 575 C 56.5747 -0.45062 5.12322 0
M  V30 576 N 54.5567 0.0200708 6.13897 0
M  V30 577 C 55.9277 0.212429 6.19636 0
M  V30 578 C 57.9827 -0.361806 4.96584 0
M  V30 579 C 56.6857 0.955772 7.12922 0
M  V30 580 C 58.7117 0.368023 5.90254 0
M  V30 581 C 58.0737 1.01968 6.96981 0
M  V30 582 H 54.1727 -0.333601 0.707272 0
M  V30 583 H 56.7567 -0.236425 1.93259 0
M  V30 584 H 54.9277 -2.55149 2.92837 0
M  V30 585 H 56.6597 -2.51228 3.1728 0
M  V30 586 H 53.4147 -1.09229 4.60832 0
M  V30 587 H 53.8387 0.407777 6.75771 0
M  V30 588 H 58.4807 -0.851286 4.14141 0
M  V30 589 H 56.1987 1.45683 7.9486 0
M  V30 590 H 59.7847 0.437504 5.80153 0
M  V30 591 H 58.6647 1.5754 7.68213 0
M  V30 592 N 56.1678 -1.49265 -0.50573 0
M  V30 593 C 57.1178 -1.6198 -1.60457 0
M  V30 594 C 58.1018 -0.47568 -1.53708 0
M  V30 595 O 59.2938 -0.728392 -1.61318 0
M  V30 596 C 56.4228 -1.68526 -2.99089 0
M  V30 597 C 55.5088 -2.885 -3.10852 0
M  V30 598 N 55.8998 -4.12635 -2.92517 0
M  V30 599 C 54.1978 -2.86338 -3.41945 0
M  V30 600 C 54.8988 -4.93258 -3.08337 0
M  V30 601 N 53.8748 -4.26533 -3.37003 0
M  V30 602 H 57.6768 -2.55681 -1.44928 0
M  V30 603 H 55.1908 -1.45972 -0.711752 0
M  V30 604 H 57.1878 -1.75732 -3.78053 0
M  V30 605 H 55.8478 -0.759584 -3.1569 0
M  V30 606 H 56.8588 -4.42689 -2.68787 0
M  V30 607 H 53.5358 -2.03129 -3.64753 0
M  V30 608 H 54.9258 -6.01856 -2.98695 0
M  V30 609 N 57.6459 0.756429 -1.3826 0
M  V30 610 C 58.8939 1.51248 -1.34047 0
M  V30 611 C 59.2149 1.94875 0.0698372 0
M  V30 612 O 58.4849 1.67436 1.01696 0
M  V30 613 H 57.0649 0.561018 -0.493222 0
M  V30 614 H 59.7269 0.899347 -1.7291 0
M  V30 615 H 58.8229 2.40472 -1.98947 0
M  V30 616 N 59.124 1.23083 0.984299 0
M  V30 617 C 60.057 0.951786 2.07404 0
M  V30 618 C 61.035 -0.10848 1.62238 0
M  V30 619 O 62.219 0.0249467 1.88483 0
M  V30 620 C 59.346 0.433142 3.35919 0
M  V30 621 C 58.392 1.47941 4.0002 0
M  V30 622 S 59.225 3.05556 4.39768 0
M  V30 623 C 60.381 2.55351 5.71442 0
M  V30 624 H 60.614 1.87456 2.30754 0
M  V30 625 H 58.147 1.06284 1.11996 0
M  V30 626 H 60.105 0.140506 4.10259 0
M  V30 627 H 58.766 -0.468656 3.10584 0
M  V30 628 H 57.959 1.06658 4.92585 0
M  V30 629 H 57.561 1.7212 3.3204 0
M  V30 630 H 59.853 1.97128 6.48187 0
M  V30 631 H 60.796 3.46441 6.17563 0
M  V30 632 H 61.204 1.96339 5.29255 0
M  V30 633 N 60.6021 -1.18246 1.0419 0
M  V30 634 C 61.8501 -1.87886 0.744543 0
M  V30 635 C 62.1711 -1.8082 -0.730006 0
M  V30 636 O 61.4411 -1.22736 -1.52685 0
M  V30 637 H 60.0211 -0.695556 0.272417 0
M  V30 638 H 62.6831 -1.43494 1.31892 0
M  V30 639 H 61.7791 -2.9389 1.05049 0
M  V30 640 N 62.0802 -0.821533 -1.34494 0
M  V30 641 C 63.3572 -0.33159 -1.92769 0
M  V30 642 C 63.7372 1.18088 -1.74981 0
M  V30 643 O 63.0852 1.98733 -1.12772 0
M  V30 644 C 63.2952 -0.759398 -3.40638 0
M  V30 645 C 64.6432 -0.757433 -4.1779 0
M  V30 646 O 65.6672 -0.70189 -3.49216 0
M  V30 647 O 64.5262 -0.829361 -5.4017 0
M  V30 648 H 61.6202 -0.0902502 -0.822061 0
M  V30 649 H 64.1662 -0.906231 -1.43477 0
M  V30 650 H 62.9382 -1.8012 -3.47379 0
M  V30 651 H 62.5612 -0.160378 -3.97276 0
M  V30 652 N 63.5583 1.46682 -0.576371 0
M  V30 653 C 64.7833 2.07304 -0.0630475 0
M  V30 654 C 65.2083 1.42329 1.2298 0
M  V30 655 O 64.5663 0.504865 1.74129 0
M  V30 656 C 64.6143 3.60472 0.095895 0
M  V30 657 O 63.7183 3.95927 1.15394 0
M  V30 658 H 63.0593 0.661288 -0.0599463 0
M  V30 659 H 65.5893 1.88417 -0.797511 0
M  V30 660 H 65.5993 4.06865 0.304071 0
M  V30 661 H 64.2743 4.07157 -0.84828 0
M  V30 662 H 62.8513 3.61252 0.924724 0
M  V30 663 N 65.0364 0.313813 1.54444 0
M  V30 664 C 66.2764 -0.292389 2.02298 0
M  V30 665 C 66.6404 -1.50105 1.19719 0
M  V30 666 O 67.8414 -2.17947 1.5733 0
M  V30 667 C 66.1124 -0.627682 3.51845 0
M  V30 668 S 67.6714 -1.21493 4.21646 0
M  V30 669 H 64.4894 -0.0890247 0.705405 0
M  V30 670 H 67.0914 0.444668 1.90376 0
M  V30 671 H 65.7954 0.260265 4.09574 0
M  V30 672 H 65.3264 -1.39519 3.67829 0
M  V30 673 H 67.3414 -2.5022 4.28491 0
M  V30 674 N 66.5145 -1.57545 0.0417849 0
M  V30 675 C 67.7545 -1.94185 -0.63809 0
M  V30 676 C 68.1185 -0.919339 -1.68559 0
M  V30 677 O 69.3195 -1.17236 -2.41886 0
M  V30 678 C 67.5905 -3.35672 -1.22714 0
M  V30 679 S 69.1495 -3.94256 -1.92633 0
M  V30 680 H 65.9675 -0.679353 -0.209764 0
M  V30 681 H 68.5695 -1.95199 0.108479 0
M  V30 682 H 67.2735 -4.07898 -0.452503 0
M  V30 683 H 66.8045 -3.38132 -2.01073 0
M  V30 684 H 68.8195 -3.7872 -3.20602 0
M  V30 685 N 67.9926 0.231505 -1.5589 0
M  V30 686 C 68.9406 1.30649 -1.92441 0
M  V30 687 C 69.9346 1.49037 -0.805254 0
M  V30 688 O 71.1406 1.50329 -0.990007 0
M  V30 689 H 67.5156 0.437812 -0.611412 0
M  V30 690 H 69.4866 0.970973 -2.82161 0
M  V30 691 C 68.2356 2.65179 -2.24889 0
M  V30 692 H 67.5586 2.51835 -3.10514 0
M  V30 693 H 68.9986 3.39234 -2.54355 0
M  V30 694 C 67.4576 3.19439 -1.07054 0
M  V30 695 O 67.9876 4.00371 -0.326499 0
M  V30 696 N 66.1936 2.77675 -0.85703 0
M  V30 697 H 65.7406 2.11969 -1.46379 0
M  V30 698 H 65.6986 3.14321 -0.0703223 0
M  V30 699 N 69.4707 1.49531 0.497807 0
M  V30 700 C 70.8817 1.52344 1.07927 0
M  V30 701 C 71.2327 0.311469 1.93712 0
M  V30 702 O 70.3577 -0.578405 2.08527 0
M  V30 703 C 70.9527 2.76062 1.96405 0
M  V30 704 C 69.5117 2.81643 2.49709 0
M  V30 705 C 68.6587 2.46299 1.27404 0
M  V30 706 H 71.6097 1.56182 0.281576 0
M  V30 707 H 71.6307 2.56405 2.81135 0
M  V30 708 H 71.1427 3.64254 1.33943 0
M  V30 709 H 69.2437 1.97739 3.15801 0
M  V30 710 H 69.3567 3.83891 2.86643 0
M  V30 711 H 67.7207 1.98148 1.60029 0
M  V30 712 H 68.5037 3.36769 0.66645 0
M  V30 713 N 70.9488 -0.749086 1.3866 0
M  V30 714 C 71.8788 -1.8764 1.38973 0
M  V30 715 C 72.8598 -1.68178 0.255004 0
M  V30 716 O 74.0448 -1.88704 0.458754 0
M  V30 717 C 71.1748 -3.25222 1.21851 0
M  V30 718 C 70.1288 -3.59295 2.32575 0
M  V30 719 C 69.4548 -4.95663 2.00555 0
M  V30 720 C 70.7548 -3.63709 3.7485 0
M  V30 721 H 72.4488 -1.87635 2.3331 0
M  V30 722 H 69.9948 -0.901329 1.12303 0
M  V30 723 H 71.9478 -4.03746 1.20695 0
M  V30 724 H 70.6718 -3.25719 0.239775 0
M  V30 725 H 69.3308 -2.83093 2.32925 0
M  V30 726 H 68.9788 -4.92724 1.01154 0
M  V30 727 H 68.6788 -5.19429 2.74714 0
M  V30 728 H 70.2028 -5.7656 2.01024 0
M  V30 729 H 71.6168 -4.32338 3.76506 0
M  V30 730 H 70.0138 -3.98986 4.48252 0
M  V30 731 H 71.0838 -2.63834 4.06841 0
M  V30 732 N 72.4269 -1.23603 -0.977757 0
M  V30 733 C 73.6519 -1.09735 -1.75991 0
M  V30 734 C 74.0769 0.346858 -1.84874 0
M  V30 735 O 73.4349 1.25093 -1.3123 0
M  V30 736 C 73.4829 -1.73051 -3.16363 0
M  V30 737 O 72.5869 -0.994452 -4.0023 0
M  V30 738 H 71.9279 -0.384476 -0.541364 0
M  V30 739 H 74.4579 -1.6371 -1.2272 0
M  V30 740 H 74.4679 -1.78398 -3.66931 0
M  V30 741 H 73.1429 -2.78137 -3.09213 0
M  V30 742 H 71.7199 -1.01812 -3.58732 0
M  V30 743 N 73.905 1.17692 -1.04816 0
M  V30 744 C 74.838 2.20436 -0.590173 0
M  V30 745 C 75.816 1.58115 0.379244 0
M  V30 746 O 77 1.86228 0.291762 0
M  V30 747 C 74.127 3.38424 0.136817 0
M  V30 748 C 73.173 4.19176 -0.787023 0
M  V30 749 S 74.006 4.84815 -2.27409 0
M  V30 750 C 75.162 6.06195 -1.55817 0
M  V30 751 H 75.395 2.58944 -1.46067 0
M  V30 752 H 72.928 1.28246 -0.859784 0
M  V30 753 H 74.886 4.06798 0.550076 0
M  V30 754 H 73.547 2.98312 0.983299 0
M  V30 755 H 72.74 5.03499 -0.224681 0
M  V30 756 H 72.342 3.56219 -1.13947 0
M  V30 757 H 74.634 6.72078 -0.855387 0
M  V30 758 H 75.577 6.6695 -2.37873 0
M  V30 759 H 75.985 5.54701 -1.04722 0
M  V30 760 N 75.3831 0.828654 1.34056 0
M  V30 761 C 76.6311 0.41863 1.97717 0
M  V30 762 C 76.9521 -1.02314 1.66002 0
M  V30 763 O 76.2221 -1.71119 0.953683 0
M  V30 764 H 74.8021 0.151809 0.731412 0
M  V30 765 H 77.4641 1.05936 1.63596 0
M  V30 766 H 76.5601 0.542318 3.07352 0
M  V30 767 N 76.8612 -1.46375 0.584142 0
M  V30 768 C 77.8242 -2.28784 -0.138108 0
M  V30 769 C 78.8242 -1.38471 -0.817462 0
M  V30 770 O 80.0142 -1.60833 -0.669199 0
M  V30 771 C 77.1462 -3.18892 -1.20503 0
M  V30 772 H 78.3392 -2.94117 0.586127 0
M  V30 773 H 75.8922 -1.52509 0.342171 0
M  V30 774 H 76.6272 -2.58309 -1.96079 0
M  V30 775 H 76.4122 -3.85388 -0.722384 0
M  V30 776 H 77.9022 -3.80914 -1.71155 0
M  V30 777 N 78.3393 -0.321999 -1.54275 0
M  V30 778 C 79.5883 0.281931 -1.9972 0
M  V30 779 C 79.9013 1.53369 -1.21397 0
M  V30 780 O 81.1073 2.21352 -1.57211 0
M  V30 781 C 79.5633 0.5529 -3.55628 0
M  V30 782 C 79.1713 -0.681721 -4.42783 0
M  V30 783 C 80.9153 1.11687 -4.09544 0
M  V30 784 C 78.8223 -0.382742 -5.9016 0
M  V30 785 H 77.7523 0.109124 -0.746062 0
M  V30 786 H 80.4033 -0.43398 -1.78294 0
M  V30 787 H 78.7853 1.32896 -3.73035 0
M  V30 788 H 79.9593 -1.45723 -4.37151 0
M  V30 789 H 78.2743 -1.1658 -3.99748 0
M  V30 790 H 80.8713 1.35515 -5.17242 0
M  V30 791 H 81.2143 2.06575 -3.61431 0
M  V30 792 H 81.7473 0.402032 -3.95763 0
M  V30 793 H 78.4863 -1.30076 -6.42464 0
M  V30 794 H 78.0063 0.355094 -5.98748 0
M  V30 795 H 79.6853 0.00800157 -6.47 0
M  V30 796 N 79.8174 1.5752 -0.0501392 0
M  V30 797 C 80.7644 2.1147 0.924603 0
M  V30 798 C 81.7344 1.02182 1.30951 0
M  V30 799 O 82.9194 1.29723 1.39916 0
M  V30 800 C 80.0594 2.66337 2.19451 0
M  V30 801 C 79.1724 3.89708 1.86418 0
M  V30 802 C 78.3074 4.32893 3.07859 0
M  V30 803 C 77.3464 5.48967 2.70742 0
M  V30 804 N 76.4834 5.87211 3.84874 0
M  V30 805 H 81.3234 2.94465 0.457639 0
M  V30 806 H 78.8604 1.45531 0.214266 0
M  V30 807 H 80.8184 2.96247 2.93758 0
M  V30 808 H 79.4484 1.86141 2.63726 0
M  V30 809 H 78.5004 3.66396 1.02264 0
M  V30 810 H 79.8124 4.74074 1.55096 0
M  V30 811 H 78.9664 4.6435 3.90466 0
M  V30 812 H 77.7054 3.47336 3.42358 0
M  V30 813 H 76.7104 5.17183 1.86551 0
M  V30 814 H 77.9354 6.3624 2.37436 0
M  V30 815 H 75.8814 5.04607 4.19175 0
M  V30 816 H 75.7984 6.66266 3.57247 0
M  V30 817 H 77.0664 6.23282 4.68123 0
M  V30 818 N 81.2955 -0.223234 1.56011 0
M  V30 819 C 82.2425 -1.27664 1.92277 0
M  V30 820 C 83.2125 -1.46659 0.779763 0
M  V30 821 O 84.3975 -1.60256 1.03551 0
M  V30 822 C 81.5375 -2.62234 2.24338 0
M  V30 823 C 80.6505 -2.51051 3.51564 0
M  V30 824 C 79.7855 -3.78133 3.7308 0
M  V30 825 C 78.8245 -3.61665 4.93827 0
M  V30 826 N 77.9615 -4.80693 5.11741 0
M  V30 827 H 82.8015 -0.960358 2.82101 0
M  V30 828 H 80.3385 -0.462901 1.39627 0
M  V30 829 H 82.2965 -3.40596 2.40936 0
M  V30 830 H 80.9265 -2.91961 1.3769 0
M  V30 831 H 79.9785 -1.64132 3.43169 0
M  V30 832 H 81.2905 -2.34803 4.40079 0
M  V30 833 H 80.4445 -4.64938 3.89766 0
M  V30 834 H 79.1835 -3.97304 2.82844 0
M  V30 835 H 78.1885 -2.73244 4.77093 0
M  V30 836 H 79.4135 -3.43966 5.85546 0
M  V30 837 H 77.3595 -5.00181 4.24446 0
M  V30 838 H 77.2765 -4.67165 5.94384 0
M  V30 839 H 78.5445 -5.6893 5.3286 0
M  V30 840 N 82.7736 -1.49793 -0.48987 0
M  V30 841 C 83.7066 -1.61898 -1.60823 0
M  V30 842 C 84.6846 -0.467651 -1.5573 0
M  V30 843 O 85.8686 -0.684682 -1.75626 0
M  V30 844 C 82.9956 -1.58422 -2.99366 0
M  V30 845 C 82.0416 -2.78889 -3.22682 0
M  V30 846 S 82.8746 -4.40429 -3.04602 0
M  V30 847 C 84.0306 -4.39617 -4.4552 0
M  V30 848 H 84.2636 -2.56502 -1.50312 0
M  V30 849 H 81.7966 -1.38822 -0.675849 0
M  V30 850 H 83.7546 -1.57103 -3.79248 0
M  V30 851 H 82.4156 -0.650866 -3.07283 0
M  V30 852 H 81.6086 -2.72708 -4.23847 0
M  V30 853 H 81.2106 -2.77678 -2.50541 0
M  V30 854 H 83.5026 -4.12022 -5.37814 0
M  V30 855 H 84.4456 -5.41097 -4.56749 0
M  V30 856 H 84.8536 -3.69554 -4.2672 0
M  V30 857 N 84.2517 0.741722 -1.39055 0
M  V30 858 C 85.4977 1.50336 -1.36113 0
M  V30 859 C 85.8307 1.94148 0.0450796 0
M  V30 860 O 85.1057 1.66301 1.00868 0
M  V30 861 C 85.3887 2.74773 -2.32749 0
M  V30 862 C 85.2417 2.37023 -3.82283 0
M  V30 863 C 86.5607 3.76846 -2.27322 0
M  V30 864 H 83.6797 0.545351 -0.495743 0
M  V30 865 H 86.3217 0.848624 -1.69995 0
M  V30 866 H 84.4717 3.30639 -2.03986 0
M  V30 867 H 86.1437 1.8684 -4.21768 0
M  V30 868 H 84.3867 1.69334 -3.99385 0
M  V30 869 H 85.0577 3.26104 -4.45376 0
M  V30 870 H 87.5337 3.30548 -2.5274 0
M  V30 871 H 86.4097 4.6159 -2.97028 0
M  V30 872 H 86.6707 4.23286 -1.27599 0
M  V30 873 N 85.7298 1.2412 0.971189 0
M  V30 874 C 86.6398 1.04747 2.09917 0
M  V30 875 C 87.6558 -0.0107162 1.73997 0
M  V30 876 O 88.8318 0.186714 2.00533 0
M  V30 877 C 85.8968 0.650828 3.40537 0
M  V30 878 C 84.9578 1.7851 3.90426 0
M  V30 879 C 84.1908 1.40729 5.14812 0
M  V30 880 O 84.4138 0.29557 5.69634 0
M  V30 881 O 83.3478 2.23168 5.58999 0
M  V30 882 H 87.1738 1.99304 2.29154 0
M  V30 883 H 84.7588 1.02908 1.08307 0
M  V30 884 H 86.6408 0.440992 4.19086 0
M  V30 885 H 85.3158 -0.265649 3.22608 0
M  V30 886 H 84.2228 2.04966 3.12953 0
M  V30 887 H 85.5558 2.68023 4.12825 0
M  V30 888 N 87.2079 -1.17134 1.05439 0
M  V30 889 C 88.1549 -2.21235 0.657539 0
M  V30 890 C 89.1249 -1.62551 -0.341543 0
M  V30 891 O 90.3099 -1.89379 -0.232393 0
M  V30 892 C 87.4499 -3.45076 0.0410575 0
M  V30 893 C 86.5629 -4.18042 1.08927 0
M  V30 894 C 85.6979 -5.29376 0.439848 0
M  V30 895 C 84.7369 -5.94132 1.4722 0
M  V30 896 N 83.8739 -6.96975 0.846756 0
M  V30 897 H 88.7139 -2.54534 1.54972 0
M  V30 898 H 86.2509 -1.25028 0.775006 0
M  V30 899 H 88.2089 -4.15862 -0.33383 0
M  V30 900 H 86.8389 -3.12353 -0.814568 0
M  V30 901 H 85.8909 -3.45945 1.58196 0
M  V30 902 H 87.2029 -4.62306 1.87282 0
M  V30 903 H 86.3569 -6.06699 0.0115125 0
M  V30 904 H 85.0959 -4.86251 -0.375656 0
M  V30 905 H 84.1009 -5.15538 1.91052 0
M  V30 906 H 85.3259 -6.39337 2.28965 0
M  V30 907 H 83.2719 -6.5598 0.0518075 0
M  V30 908 H 83.1889 -7.39565 1.5678 0
M  V30 909 H 84.4569 -7.78239 0.443277 0
M  V30 910 N 88.686 -0.835752 -1.33615 0
M  V30 911 C 89.633 -0.26473 -2.29277 0
M  V30 912 C 90.603 0.617712 -1.54187 0
M  V30 913 O 91.788 0.556641 -1.825 0
M  V30 914 C 88.928 0.556777 -3.40579 0
M  V30 915 C 88.041 -0.349339 -4.30585 0
M  V30 916 C 87.176 0.482969 -5.29 0
M  V30 917 C 86.215 -0.421732 -6.10645 0
M  V30 918 N 85.352 0.372262 -7.01112 0
M  V30 919 H 90.192 -1.08582 -2.77514 0
M  V30 920 H 87.729 -0.546927 -1.36554 0
M  V30 921 H 89.687 1.04852 -4.03809 0
M  V30 922 H 88.317 1.34286 -2.93542 0
M  V30 923 H 87.369 -0.959372 -3.68104 0
M  V30 924 H 88.681 -1.04445 -4.87742 0
M  V30 925 H 87.835 1.03866 -5.97743 0
M  V30 926 H 86.574 1.21153 -4.72412 0
M  V30 927 H 85.579 -0.989464 -5.40823 0
M  V30 928 H 86.804 -1.14861 -6.69316 0
M  V30 929 H 84.75 1.08426 -6.46977 0
M  V30 930 H 84.667 -0.264198 -7.55538 0
M  V30 931 H 85.935 0.910293 -7.74167 0
M  V30 932 N 90.1641 1.46063 -0.591896 0
M  V30 933 C 91.4131 2.01547 -0.0786637 0
M  V30 934 C 91.7261 1.46796 1.29268 0
M  V30 935 O 92.9321 1.94157 1.89777 0
M  V30 936 C 91.3881 3.59787 -0.0900024 0
M  V30 937 C 90.9961 4.23534 -1.46023 0
M  V30 938 C 92.7401 4.22895 0.368806 0
M  V30 939 C 90.6471 5.73881 -1.4288 0
M  V30 940 H 89.5771 0.753564 -0.0256388 0
M  V30 941 H 92.2281 1.677 -0.744905 0
M  V30 942 H 90.6101 3.90752 0.642586 0
M  V30 943 H 91.7841 4.04167 -2.21328 0
M  V30 944 H 90.0991 3.72558 -1.85982 0
M  V30 945 H 92.6961 5.33116 0.411258 0
M  V30 946 H 93.0391 3.9247 1.38827 0
M  V30 947 H 93.5721 3.9659 -0.31001 0
M  V30 948 H 90.3111 6.0898 -2.42536 0
M  V30 949 H 89.8311 5.95486 -0.718095 0
M  V30 950 H 91.5101 6.36776 -1.14565 0
M  V30 951 N 91.6422 0.330177 1.54103 0
M  V30 952 C 93.0532 -0.15652 1.86043 0
M  V30 953 C 93.4042 -1.51086 1.2517 0
M  V30 954 O 92.5292 -2.09023 0.560217 0
M  V30 955 C 93.1242 -0.290784 3.3755 0
M  V30 956 C 91.6832 -0.721705 3.69416 0
M  V30 957 C 90.8302 0.152622 2.7688 0
M  V30 958 H 93.7812 0.550237 1.48856 0
M  V30 959 H 93.8022 -1.12058 3.63625 0
M  V30 960 H 93.3142 0.695068 3.81825 0
M  V30 961 H 91.4152 -1.71706 3.30678 0
M  V30 962 H 91.5282 -0.520869 4.7626 0
M  V30 963 H 89.8922 -0.372894 2.51956 0
M  V30 964 H 90.6752 1.13536 3.23982 0
M  V30 965 N 93.1203 -1.57491 0.0584922 0
M  V30 966 C 94.3683 -1.92597 -0.612436 0
M  V30 967 C 94.6893 -0.938162 -1.70949 0
M  V30 968 O 93.9593 0.0158301 -1.95894 0
M  V30 969 H 92.5393 -0.710964 -0.229214 0
M  V30 970 H 95.2013 -1.94571 0.113218 0
M  V30 971 H 94.2973 -2.94038 -1.04633 0
M  V30 972 N 94.5984 0.214957 -1.56127 0
M  V30 973 C 95.8474 0.936451 -1.78643 0
M  V30 974 C 96.1604 1.85237 -0.628229 0
M  V30 975 O 97.3664 2.613 -0.737186 0
M  V30 976 C 95.8224 1.7154 -3.16389 0
M  V30 977 C 95.4304 0.845299 -4.39953 0
M  V30 978 C 97.1744 2.42772 -3.48227 0
M  V30 979 C 95.0814 1.62198 -5.68723 0
M  V30 980 H 94.0114 0.353401 -0.666051 0
M  V30 981 H 96.6624 0.190169 -1.82512 0
M  V30 982 H 95.0444 2.50484 -3.06715 0
M  V30 983 H 96.2184 0.0959353 -4.607 0
M  V30 984 H 94.5334 0.244789 -4.1568 0
M  V30 985 H 97.1304 3.01394 -4.41663 0
M  V30 986 H 97.4734 3.15984 -2.71035 0
M  V30 987 H 98.0064 1.70813 -3.5926 0
M  V30 988 H 94.7454 0.933011 -6.48826 0
M  V30 989 H 94.2654 2.34579 -5.52026 0
M  V30 990 H 95.9444 2.18095 -6.09133 0
M  V30 991 N 96.0765 1.50051 0.48192 0
M  V30 992 C 97.3065 1.63999 1.2565 0
M  V30 993 C 97.7145 0.318288 1.86504 0
M  V30 994 O 97.0575 -0.708534 1.69486 0
M  V30 995 C 97.1195 2.66504 2.4128 0
M  V30 996 C 96.7835 4.10352 2.01148 0
M  V30 997 C 97.7805 4.96562 1.54021 0
M  V30 998 C 95.4655 4.56203 2.10199 0
M  V30 999 C 97.4595 6.26668 1.16473 0
M  V30 1000 C 95.1465 5.86318 1.72264 0
M  V30 1001 C 96.1445 6.71375 1.25477 0
M  V30 1002 O 95.8325 7.99062 0.880626 0
M  V30 1003 H 95.5645 0.55456 0.386574 0
M  V30 1004 H 98.1185 1.96954 0.582944 0
M  V30 1005 H 96.3485 2.28769 3.11772 0
M  V30 1006 H 98.0375 2.69783 3.03268 0
M  V30 1007 H 98.8035 4.62358 1.46458 0
M  V30 1008 H 94.6825 3.90152 2.45566 0
M  V30 1009 H 98.2265 6.93011 0.798841 0
M  V30 1010 H 94.1235 6.20046 1.79482 0
M  V30 1011 H 94.8915 8.12239 1.01043 0
M  V30 1012 N 97.5546 -0.734337 1.39446 0
M  V30 1013 C 98.8006 -1.49613 1.36908 0
M  V30 1014 C 99.1336 -1.94169 -0.0347829 0
M  V30 1015 O 98.4086 -1.66833 -0.999847 0
M  V30 1016 C 98.6916 -2.73534 2.34203 0
M  V30 1017 C 98.5446 -2.34993 3.83534 0
M  V30 1018 C 99.8636 -3.75635 2.29317 0
M  V30 1019 H 96.9826 -0.542714 0.498629 0
M  V30 1020 H 99.6246 -0.839597 1.70443 0
M  V30 1021 H 97.7746 -3.29553 2.05736 0
M  V30 1022 H 99.4466 -1.84601 4.22753 0
M  V30 1023 H 97.6896 -1.67213 4.00278 0
M  V30 1024 H 98.3606 -3.23738 4.47099 0
M  V30 1025 H 100.837 -3.29203 2.54489 0
M  V30 1026 H 99.7126 -4.60008 2.99472 0
M  V30 1027 H 99.9736 -4.22603 1.29842 0
M  V30 1028 N 99.0327 -1.24633 -0.964593 0
M  V30 1029 C 99.9627 -1.06611 -2.07741 0
M  V30 1030 C 100.944 0.0218666 -1.70086 0
M  V30 1031 O 102.129 -0.145793 -1.93652 0
M  V30 1032 C 99.2587 -0.673444 -3.40708 0
M  V30 1033 C 98.2127 -1.71054 -3.92332 0
M  V30 1034 C 97.5387 -1.17285 -5.21678 0
M  V30 1035 C 98.8387 -3.10718 -4.19824 0
M  V30 1036 H 100.533 -1.99693 -2.23076 0
M  V30 1037 H 98.0787 -0.96152 -1.07195 0
M  V30 1038 H 100.032 -0.534345 -4.17998 0
M  V30 1039 H 98.7557 0.293073 -3.25282 0
M  V30 1040 H 97.4147 -1.83791 -3.17201 0
M  V30 1041 H 97.0627 -0.196847 -5.02615 0
M  V30 1042 H 96.7627 -1.86592 -5.57187 0
M  V30 1043 H 98.2867 -1.04593 -6.01575 0
M  V30 1044 H 99.7007 -3.01192 -4.87808 0
M  V30 1045 H 98.0977 -3.77406 -4.66567 0
M  V30 1046 H 99.1677 -3.58524 -3.26479 0
M  V30 1047 N 100.511 1.16574 -1.06058 0
M  V30 1048 C 101.736 1.91493 -0.796562 0
M  V30 1049 C 102.161 1.76773 0.642868 0
M  V30 1050 O 101.519 1.09142 1.44768 0
M  V30 1051 C 101.567 3.40293 -1.19303 0
M  V30 1052 O 100.671 4.11074 -0.330394 0
M  V30 1053 H 100.012 0.596678 -0.291326 0
M  V30 1054 H 102.542 1.47708 -1.41575 0
M  V30 1055 H 102.552 3.91057 -1.16356 0
M  V30 1056 H 101.227 3.50326 -2.24153 0
M  V30 1057 H 99.8038 3.70513 -0.421225 0
M  V30 1058 N 101.989 0.842826 1.3317 0
M  V30 1059 C 102.919 0.294028 2.31641 0
M  V30 1060 C 103.9 -0.600401 1.59151 0
M  V30 1061 O 105.085 -0.523124 1.87022 0
M  V30 1062 C 102.215 -0.528416 3.43257 0
M  V30 1063 C 101.169 0.27056 4.27144 0
M  V30 1064 C 100.495 -0.675881 5.30411 0
M  V30 1065 C 101.795 1.48981 5.00602 0
M  V30 1066 H 103.489 1.11681 2.77791 0
M  V30 1067 H 101.035 0.538478 1.33553 0
M  V30 1068 H 102.988 -0.922674 4.11175 0
M  V30 1069 H 101.712 -1.38445 2.95805 0
M  V30 1070 H 100.371 0.646427 3.60856 0
M  V30 1071 H 100.019 -1.52842 4.79216 0
M  V30 1072 H 99.7189 -0.145374 5.8742 0
M  V30 1073 H 101.243 -1.06757 6.01195 0
M  V30 1074 H 102.657 1.16849 5.61266 0
M  V30 1075 H 101.054 1.95739 5.6728 0
M  V30 1076 H 102.124 2.25746 4.29147 0
M  V30 1077 N 103.467 -1.45747 0.599634 0
M  V30 1078 C 104.377 -2.34262 -0.125888 0
M  V30 1079 C 105.393 -1.50768 -0.868625 0
M  V30 1080 O 106.569 -1.83592 -0.828003 0
M  V30 1081 C 103.634 -3.28252 -1.11587 0
M  V30 1082 C 102.695 -4.27651 -0.375956 0
M  V30 1083 C 101.928 -5.1715 -1.31877 0
M  V30 1084 O 102.151 -5.09916 -2.55621 0
M  V30 1085 O 101.085 -5.96286 -0.820157 0
M  V30 1086 H 104.911 -2.97688 0.601315 0
M  V30 1087 H 102.496 -1.44999 0.359934 0
M  V30 1088 H 104.378 -3.86191 -1.68626 0
M  V30 1089 H 103.053 -2.67401 -1.82424 0
M  V30 1090 H 101.96 -3.7335 0.236698 0
M  V30 1091 H 103.293 -4.91334 0.29177 0
M  V30 1092 N 104.945 -0.338344 -1.53925 0
M  V30 1093 C 106.194 0.260732 -2.00008 0
M  V30 1094 C 106.507 1.52073 -1.23017 0
M  V30 1095 O 107.713 2.19672 -1.5955 0
M  V30 1096 C 106.169 0.51515 -3.56194 0
M  V30 1097 C 105.777 -0.728645 -4.42035 0
M  V30 1098 C 107.521 1.07337 -4.10706 0
M  V30 1099 C 105.428 -0.445315 -5.89721 0
M  V30 1100 H 104.358 0.101205 -0.747177 0
M  V30 1101 H 107.009 -0.452866 -1.77824 0
M  V30 1102 H 105.391 1.28932 -3.74423 0
M  V30 1103 H 106.565 -1.50352 -4.35581 0
M  V30 1104 H 104.88 -1.20813 -3.98489 0
M  V30 1105 H 107.477 1.30022 -5.18651 0
M  V30 1106 H 107.82 2.0273 -3.63602 0
M  V30 1107 H 108.353 0.360034 -3.96167 0
M  V30 1108 H 105.092 -1.36883 -6.41049 0
M  V30 1109 H 104.612 0.291569 -5.99091 0
M  V30 1110 H 106.291 -0.0606218 -6.46972 0
M  V30 1111 N 106.423 1.57458 -0.0668435 0
M  V30 1112 C 107.671 1.92919 0.602214 0
M  V30 1113 C 107.992 0.947215 1.70449 0
M  V30 1114 O 107.262 -0.00544117 1.95899 0
M  V30 1115 H 105.842 0.71217 0.22544 0
M  V30 1116 H 108.504 1.94508 -0.123535 0
M  V30 1117 H 107.6 2.94589 1.03073 0
M  V30 1118 N 107.901 -0.206675 1.56239 0
M  V30 1119 C 108.848 -1.25617 1.93621 0
M  V30 1120 C 109.818 -1.45824 0.795274 0
M  V30 1121 O 111.003 -1.59148 1.05245 0
M  V30 1122 C 108.143 -2.59839 2.27107 0
M  V30 1123 C 107.256 -2.47308 3.54207 0
M  V30 1124 C 106.391 -3.74155 3.7707 0
M  V30 1125 C 105.43 -3.56407 4.97635 0
M  V30 1126 N 104.567 -4.75238 5.1681 0
M  V30 1127 H 109.407 -0.930383 2.83104 0
M  V30 1128 H 106.944 -0.448065 1.4011 0
M  V30 1129 H 108.902 -3.38021 2.44535 0
M  V30 1130 H 107.532 -2.90485 1.40778 0
M  V30 1131 H 106.584 -1.60483 3.4489 0
M  V30 1132 H 107.896 -2.30122 4.42544 0
M  V30 1133 H 107.05 -4.60778 3.94675 0
M  V30 1134 H 105.789 -3.94282 2.87042 0
M  V30 1135 H 104.794 -2.68168 4.79964 0
M  V30 1136 H 106.019 -3.37736 5.89161 0
M  V30 1137 H 103.965 -4.95651 4.29728 0
M  V30 1138 H 103.882 -4.60835 5.99306 0
M  V30 1139 H 105.15 -5.63246 5.38864 0
M  V30 1140 N 109.379 -1.50304 -0.473955 0
M  V30 1141 C 110.607 -1.64902 -1.24959 0
M  V30 1142 C 111.022 -0.331198 -1.85872 0
M  V30 1143 O 110.379 0.68652 -1.69095 0
M  V30 1144 C 110.43 -2.73803 -2.36038 0
M  V30 1145 O 110.151 -4.00477 -1.77624 0
M  V30 1146 C 111.652 -2.99349 -3.26964 0
M  V30 1147 H 108.872 -0.554383 -0.378022 0
M  V30 1148 H 111.416 -1.9651 -0.566054 0
M  V30 1149 H 109.571 -2.44898 -3.00173 0
M  V30 1150 H 109.985 -4.60678 -2.5075 0
M  V30 1151 H 111.459 -3.79217 -4.01121 0
M  V30 1152 H 111.936 -2.10307 -3.85574 0
M  V30 1153 H 112.542 -3.29774 -2.68569 0
M  V30 1154 N 110.857 0.726932 -1.39834 0
M  V30 1155 C 111.787 1.85405 -1.41941 0
M  V30 1156 C 112.768 1.67751 -0.281728 0
M  V30 1157 O 113.953 1.8795 -0.488717 0
M  V30 1158 C 111.083 3.23243 -1.2701 0
M  V30 1159 C 110.037 3.55549 -2.38262 0
M  V30 1160 C 109.363 4.9241 -2.08415 0
M  V30 1161 C 110.663 3.577 -3.80589 0
M  V30 1162 H 112.357 1.83899 -2.36266 0
M  V30 1163 H 109.903 0.883349 -1.13723 0
M  V30 1164 H 111.856 4.01775 -1.27103 0
M  V30 1165 H 110.58 3.25296 -0.291564 0
M  V30 1166 H 109.239 2.79351 -2.37399 0
M  V30 1167 H 108.887 4.91052 -1.0898 0
M  V30 1168 H 108.587 5.14992 -2.82943 0
M  V30 1169 H 110.111 5.73289 -2.10171 0
M  V30 1170 H 111.525 4.26293 -3.83337 0
M  V30 1171 H 109.922 3.91804 -4.54543 0
M  V30 1172 H 110.992 2.57328 -4.10987 0
M  V30 1173 N 112.336 1.25143 0.95797 0
M  V30 1174 C 113.269 0.995565 2.05338 0
M  V30 1175 C 114.247 -0.0740423 1.62431 0
M  V30 1176 O 115.431 0.0649212 1.88388 0
M  V30 1177 C 112.558 0.504298 3.34925 0
M  V30 1178 C 111.604 1.56393 3.96792 0
M  V30 1179 S 112.437 3.14815 4.33188 0
M  V30 1180 C 113.593 2.67415 5.65898 0
M  V30 1181 H 113.826 1.92309 2.26726 0
M  V30 1182 H 111.359 1.08635 1.09716 0
M  V30 1183 H 113.317 0.227497 4.09869 0
M  V30 1184 H 111.978 -0.402671 3.11508 0
M  V30 1185 H 111.171 1.17082 4.90212 0
M  V30 1186 H 110.773 1.79124 3.28315 0
M  V30 1187 H 113.065 2.10833 6.4386 0
M  V30 1188 H 114.008 3.59463 6.10076 0
M  V30 1189 H 114.416 2.07521 5.24972 0
M  V30 1190 N 113.814 -1.1601 1.06675 0
M  V30 1191 C 114.724 -2.24156 0.692179 0
M  V30 1192 C 115.74 -1.71507 -0.293513 0
M  V30 1193 O 116.916 -2.009 -0.141861 0
M  V30 1194 C 113.981 -3.46587 0.0884131 0
M  V30 1195 C 113.042 -4.14257 1.12646 0
M  V30 1196 C 112.275 -5.30844 0.551416 0
M  V30 1197 O 112.498 -5.66858 -0.634656 0
M  V30 1198 O 111.432 -5.87848 1.29298 0
M  V30 1199 H 115.258 -2.58513 1.59388 0
M  V30 1200 H 112.843 -1.23599 0.83926 0
M  V30 1201 H 114.725 -4.20679 -0.246361 0
M  V30 1202 H 113.4 -3.13994 -0.786712 0
M  V30 1203 H 112.307 -3.42118 1.51348 0
M  V30 1204 H 113.64 -4.50914 1.97325 0
M  V30 1205 N 115.292 -0.849877 -1.32721 0
M  V30 1206 C 116.569 -0.372405 -1.92022 0
M  V30 1207 C 116.949 1.1435 -1.77447 0
M  V30 1208 O 116.297 1.96296 -1.16962 0
M  V30 1209 C 116.507 -0.831482 -3.3895 0
M  V30 1210 C 117.855 -0.845882 -4.16089 0
M  V30 1211 O 118.879 -0.775806 -3.47649 0
M  V30 1212 O 117.738 -0.943753 -5.38289 0
M  V30 1213 H 114.832 -0.107667 -0.819961 0
M  V30 1214 H 117.378 -0.93646 -1.41522 0
M  V30 1215 H 116.15 -1.87448 -3.4348 0
M  V30 1216 H 115.773 -0.24461 -3.96847 0
M  V30 1217 N 116.77 1.45427 -0.607355 0
M  V30 1218 C 118.016 2.0254 -0.102607 0
M  V30 1219 C 118.349 1.47478 1.26348 0
M  V30 1220 O 117.624 0.64939 1.83339 0
M  V30 1221 C 117.907 3.60044 -0.0634347 0
M  V30 1222 C 117.76 4.2544 -1.46017 0
M  V30 1223 C 119.079 4.35646 0.624514 0
M  V30 1224 H 116.198 0.73598 -0.0387607 0
M  V30 1225 H 118.84 1.73284 -0.779282 0
M  V30 1226 H 116.99 3.85101 0.512808 0
M  V30 1227 H 118.662 4.11569 -2.08347 0
M  V30 1228 H 116.905 3.83849 -2.02094 0
M  V30 1229 H 117.576 5.34342 -1.385 0
M  V30 1230 H 120.052 4.15882 0.134723 0
M  V30 1231 H 118.928 5.45376 0.621028 0
M  V30 1232 H 119.189 4.08501 1.69055 0
M  V30 1233 N 118.248 0.346503 1.53744 0
M  V30 1234 C 119.158 -0.517293 2.28826 0
M  V30 1235 C 120.174 -1.10935 1.3405 0
M  V30 1236 O 121.35 -1.1244 1.6709 0
M  V30 1237 C 118.415 -1.65098 3.04866 0
M  V30 1238 C 117.476 -1.0884 4.15274 0
M  V30 1239 C 116.709 -2.16806 4.87679 0
M  V30 1240 O 116.932 -3.3758 4.59778 0
M  V30 1241 O 115.866 -1.80934 5.74061 0
M  V30 1242 H 119.692 0.0931396 3.03557 0
M  V30 1243 H 117.277 0.111458 1.48984 0
M  V30 1244 H 119.159 -2.31053 3.5241 0
M  V30 1245 H 117.834 -2.24717 2.32989 0
M  V30 1246 H 116.741 -0.3933 3.72027 0
M  V30 1247 H 118.074 -0.537036 4.89261 0
M  V30 1248 N 119.726 -1.57421 0.075193 0
M  V30 1249 C 120.674 -2.14124 -0.908508 0
M  V30 1250 C 121.668 -1.07898 -1.30592 0
M  V30 1251 O 122.874 -1.26273 -1.28277 0
M  V30 1252 H 119.249 -0.684707 -0.310935 0
M  V30 1253 H 121.22 -2.95634 -0.405374 0
M  V30 1254 C 119.969 -2.72044 -2.16535 0
M  V30 1255 H 119.292 -3.53456 -1.86839 0
M  V30 1256 H 120.732 -3.15311 -2.83469 0
M  V30 1257 C 119.191 -1.66968 -2.92615 0
M  V30 1258 O 119.721 -1.0967 -3.86439 0
M  V30 1259 N 117.927 -1.37923 -2.55784 0
M  V30 1260 H 117.474 -1.84706 -1.79559 0
M  V30 1261 H 117.432 -0.67852 -3.06991 0
M  V30 1262 N 121.204 0.198386 -1.56346 0
M  V30 1263 C 122.429 0.939682 -1.84891 0
M  V30 1264 C 122.854 1.76202 -0.658369 0
M  V30 1265 O 122.212 1.76993 0.392851 0
M  V30 1266 C 122.26 1.81428 -3.11635 0
M  V30 1267 O 121.364 2.91265 -2.91956 0
M  V30 1268 H 120.705 0.264807 -0.608912 0
M  V30 1269 H 123.235 0.204695 -2.03573 0
M  V30 1270 H 123.245 2.21958 -3.42343 0
M  V30 1271 H 121.92 1.21004 -3.97908 0
M  V30 1272 H 120.497 2.54514 -2.72538 0
M  V30 1273 N 122.682 1.50554 0.465978 0
M  V30 1274 C 123.929 1.61798 1.21768 0
M  V30 1275 C 124.257 0.320696 1.91838 0
M  V30 1276 O 123.512 -0.693724 1.82992 0
M  V30 1277 C 123.811 2.75152 2.28093 0
M  V30 1278 C 123.477 4.15454 1.75239 0
M  V30 1279 C 122.139 4.53628 1.60546 0
M  V30 1280 C 124.491 5.03121 1.36083 0
M  V30 1281 C 121.819 5.77204 1.05128 0
M  V30 1282 C 124.171 6.27249 0.821056 0
M  V30 1283 C 122.835 6.64221 0.660795 0
M  V30 1284 H 122.105 0.592063 0.445582 0
M  V30 1285 H 124.752 1.84503 0.512927 0
M  V30 1286 H 123.057 2.46556 3.04496 0
M  V30 1287 H 124.754 2.81055 2.86023 0
M  V30 1288 H 121.344 3.85341 1.87644 0
M  V30 1289 H 125.528 4.74257 1.46267 0
M  V30 1290 H 120.784 6.0452 0.91462 0
M  V30 1291 H 124.958 6.94537 0.509018 0
M  V30 1292 H 122.585 7.59854 0.229226 0
M  V30 1293 N 124.16 -0.719506 1.40217 0
M  V30 1294 C 125.407 -1.47933 1.38283 0
M  V30 1295 C 125.735 -1.94493 -0.0161536 0
M  V30 1296 O 124.99 -1.68224 -0.999956 0
M  V30 1297 C 125.289 -2.72271 2.31524 0
M  V30 1298 C 124.955 -2.44496 3.78857 0
M  V30 1299 C 123.617 -2.36631 4.18998 0
M  V30 1300 C 125.969 -2.21104 4.71977 0
M  V30 1301 C 123.297 -2.03437 5.503 0
M  V30 1302 C 125.649 -1.89423 6.03574 0
M  V30 1303 C 124.313 -1.80038 6.42762 0
M  V30 1304 H 123.583 -0.541325 0.506012 0
M  V30 1305 H 126.23 -0.824502 1.72842 0
M  V30 1306 H 124.535 -3.42572 1.90137 0
M  V30 1307 H 126.232 -3.30348 2.27313 0
M  V30 1308 H 122.822 -2.51503 3.47051 0
M  V30 1309 H 127.006 -2.26139 4.41786 0
M  V30 1310 H 122.262 -1.94705 5.79569 0
M  V30 1311 H 126.436 -1.70336 6.75247 0
M  V30 1312 H 124.063 -1.54083 7.44421 0
M  V30 1313 N 125.638 -1.25649 -0.95132 0
M  V30 1314 C 126.568 -1.08808 -2.06599 0
M  V30 1315 C 127.549 0.00382547 -1.701 0
M  V30 1316 O 128.734 -0.166325 -1.93486 0
M  V30 1317 C 125.864 -0.709542 -3.39975 0
M  V30 1318 C 124.818 -1.75206 -3.90496 0
M  V30 1319 C 124.144 -1.22811 -5.20405 0
M  V30 1320 C 125.444 -3.15153 -4.16504 0
M  V30 1321 H 127.138 -2.02048 -2.20946 0
M  V30 1322 H 124.684 -0.972835 -1.06169 0
M  V30 1323 H 126.637 -0.578649 -4.17408 0
M  V30 1324 H 125.361 0.258556 -3.25575 0
M  V30 1325 H 124.02 -1.87145 -3.15234 0
M  V30 1326 H 123.668 -0.250145 -5.02378 0
M  V30 1327 H 123.368 -1.92492 -5.55176 0
M  V30 1328 H 124.892 -1.10968 -6.00432 0
M  V30 1329 H 126.306 -3.06349 -4.84586 0
M  V30 1330 H 124.703 -3.82333 -4.62538 0
M  V30 1331 H 125.773 -3.61966 -3.22658 0
M  V30 1332 N 127.117 1.15442 -1.07289 0
M  V30 1333 C 128.065 2.22225 -0.686952 0
M  V30 1334 C 129.059 1.66688 0.30193 0
M  V30 1335 O 130.265 1.79236 0.165712 0
M  V30 1336 H 126.64 0.723783 -0.204064 0
M  V30 1337 H 128.611 2.52056 -1.5972 0
M  V30 1338 C 127.36 3.47556 -0.100149 0
M  V30 1339 H 126.683 3.90612 -0.852211 0
M  V30 1340 H 128.123 4.23794 0.132235 0
M  V30 1341 C 126.582 3.16337 1.159 0
M  V30 1342 O 127.112 3.33074 2.24555 0
M  V30 1343 N 125.318 2.70385 1.06491 0
M  V30 1344 H 124.865 2.56966 0.180668 0
M  V30 1345 H 124.823 2.49871 1.90819 0
M  V30 1346 N 128.595 0.856903 1.32268 0
M  V30 1347 C 129.841 0.462069 1.97466 0
M  V30 1348 C 130.174 -0.980298 1.67642 0
M  V30 1349 O 129.449 -1.68824 0.965858 0
M  V30 1350 C 129.732 0.704336 3.53145 0
M  V30 1351 C 129.585 2.19529 3.9259 0
M  V30 1352 C 130.904 0.1622 4.39801 0
M  V30 1353 H 128.023 0.169357 0.717278 0
M  V30 1354 H 130.665 1.07574 1.56614 0
M  V30 1355 H 128.815 0.181999 3.88073 0
M  V30 1356 H 130.487 2.78387 3.67829 0
M  V30 1357 H 128.73 2.67292 3.41668 0
M  V30 1358 H 129.401 2.31549 5.01088 0
M  V30 1359 H 131.877 0.608905 4.11621 0
M  V30 1360 H 130.753 0.361265 5.4771 0
M  V30 1361 H 131.014 -0.935158 4.32096 0
M  V30 1362 N 130.073 -1.45103 0.615059 0
M  V30 1363 C 131.021 -2.32331 -0.111791 0
M  V30 1364 C 132.015 -1.46409 -0.852102 0
M  V30 1365 O 133.221 -1.62849 -0.766821 0
M  V30 1366 H 129.596 -0.749993 -0.0549072 0
M  V30 1367 H 131.567 -2.91407 0.642225 0
M  V30 1368 C 130.316 -3.3015 -1.09071 0
M  V30 1369 H 129.639 -3.96265 -0.530485 0
M  V30 1370 H 131.079 -3.93898 -1.56908 0
M  V30 1371 C 129.538 -2.57875 -2.168 0
M  V30 1372 O 130.068 -2.36567 -3.24652 0
M  V30 1373 N 128.274 -2.17884 -1.92289 0
M  V30 1374 H 127.821 -2.35413 -1.04587 0
M  V30 1375 H 127.779 -1.6985 -2.64572 0
M  V30 1376 N 131.551 -0.354651 -1.53558 0
M  V30 1377 C 132.776 0.242153 -2.05981 0
M  V30 1378 C 133.201 1.42553 -1.2272 0
M  V30 1379 O 132.559 1.79656 -0.243604 0
M  V30 1380 C 132.607 0.624367 -3.55154 0
M  V30 1381 O 131.711 1.72301 -3.74681 0
M  V30 1382 H 131.052 0.0378432 -0.662921 0
M  V30 1383 H 133.582 -0.512087 -1.98088 0
M  V30 1384 H 133.592 0.898433 -3.97985 0
M  V30 1385 H 132.267 -0.240989 -4.15201 0
M  V30 1386 H 130.844 1.44535 -3.4375 0
M  V30 1387 N 133.029 1.57378 -0.0835403 0
M  V30 1388 C 133.961 2.10389 0.909338 0
M  V30 1389 C 134.974 1.03858 1.25369 0
M  V30 1390 O 136.163 1.31338 1.20882 0
M  V30 1391 C 133.263 2.55908 2.2218 0
M  V30 1392 C 132.436 3.86145 2.05453 0
M  V30 1393 C 131.495 4.17633 3.20108 0
M  V30 1394 O 130.521 4.87043 2.94581 0
M  V30 1395 N 131.723 3.72113 4.45547 0
M  V30 1396 H 134.488 2.962 0.456657 0
M  V30 1397 H 132.049 1.61579 0.101877 0
M  V30 1398 H 134.041 2.74027 2.97811 0
M  V30 1399 H 132.611 1.75171 2.58909 0
M  V30 1400 H 131.831 3.7729 1.1422 0
M  V30 1401 H 133.119 4.7137 1.91541 0
M  V30 1402 H 132.517 3.16062 4.69171 0
M  V30 1403 H 131.074 3.95409 5.18165 0
M  V30 1404 N 134.507 -0.190092 1.56449 0
M  V30 1405 C 135.753 -0.911052 1.81184 0
M  V30 1406 C 136.086 -1.82699 0.658396 0
M  V30 1407 O 135.361 -1.91491 -0.340775 0
M  V30 1408 C 135.644 -1.72297 3.16205 0
M  V30 1409 C 135.497 -0.831419 4.42049 0
M  V30 1410 C 136.816 -2.69454 3.47969 0
M  V30 1411 H 133.935 -0.32977 0.659106 0
M  V30 1412 H 136.577 -0.178169 1.89163 0
M  V30 1413 H 134.727 -2.34778 3.09534 0
M  V30 1414 H 136.399 -0.220929 4.60771 0
M  V30 1415 H 134.642 -0.138406 4.33579 0
M  V30 1416 H 135.313 -1.43461 5.33032 0
M  V30 1417 H 137.789 -2.17104 3.54972 0
M  V30 1418 H 136.665 -3.23342 4.43555 0
M  V30 1419 H 136.926 -3.48744 2.71717 0
M  V30 1420 N 135.985 -1.50799 -0.457987 0
M  V30 1421 C 137.213 -1.66218 -1.23203 0
M  V30 1422 C 137.628 -0.350894 -1.85511 0
M  V30 1423 O 136.985 0.668546 -1.69814 0
M  V30 1424 C 137.036 -2.76291 -2.33121 0
M  V30 1425 O 136.757 -4.02338 -1.73366 0
M  V30 1426 C 138.258 -3.028 -3.2377 0
M  V30 1427 H 135.478 -0.558361 -0.372121 0
M  V30 1428 H 138.022 -1.97099 -0.545179 0
M  V30 1429 H 136.177 -2.48068 -2.97558 0
M  V30 1430 H 136.591 -4.63312 -2.4585 0
M  V30 1431 H 138.065 -3.8345 -3.97077 0
M  V30 1432 H 138.542 -2.14385 -3.83322 0
M  V30 1433 H 139.148 -3.32604 -2.65056 0
M  V30 1434 N 137.463 0.71206 -1.40597 0
M  V30 1435 C 138.691 1.50111 -1.42388 0
M  V30 1436 C 139.106 1.88784 -0.0245395 0
M  V30 1437 O 138.463 1.55681 0.952351 0
M  V30 1438 C 138.514 2.7742 -2.31776 0
M  V30 1439 O 138.235 2.40382 -3.66262 0
M  V30 1440 C 139.736 3.7129 -2.42196 0
M  V30 1441 H 136.956 0.46314 -0.485533 0
M  V30 1442 H 139.5 0.878068 -1.8469 0
M  V30 1443 H 137.655 3.36001 -1.92827 0
M  V30 1444 H 138.069 3.22324 -4.13772 0
M  V30 1445 H 139.543 4.57448 -3.08943 0
M  V30 1446 H 140.02 4.14641 -1.44809 0
M  V30 1447 H 140.626 3.18619 -2.81712 0
M  V30 1448 N 138.941 1.26152 0.944643 0
M  V30 1449 C 140.187 1.11657 1.69294 0
M  V30 1450 C 140.52 -0.339926 1.91202 0
M  V30 1451 O 139.795 -1.24994 1.49019 0
M  V30 1452 C 140.078 1.88236 3.06984 0
M  V30 1453 C 139.931 3.41772 2.92424 0
M  V30 1454 C 141.25 1.67343 4.07043 0
M  V30 1455 H 138.369 0.407004 0.614424 0
M  V30 1456 H 141.011 1.55106 1.09737 0
M  V30 1457 H 139.161 1.51308 3.57824 0
M  V30 1458 H 140.833 3.88433 2.48832 0
M  V30 1459 H 139.076 3.68974 2.28124 0
M  V30 1460 H 139.747 3.90579 3.90067 0
M  V30 1461 H 142.223 1.99509 3.65151 0
M  V30 1462 H 141.099 2.23346 5.01406 0
M  V30 1463 H 141.36 0.617158 4.37771 0
M  V30 1464 N 140.419 -1.14872 1.07899 0
M  V30 1465 C 141.659 -1.8745 0.814965 0
M  V30 1466 C 142.023 -1.80758 -0.64733 0
M  V30 1467 O 143.224 -2.48422 -1.02664 0
M  V30 1468 C 141.495 -3.32286 1.31607 0
M  V30 1469 S 143.054 -4.22537 1.18357 0
M  V30 1470 H 139.872 -0.646833 0.295174 0
M  V30 1471 H 142.474 -1.38555 1.37923 0
M  V30 1472 H 141.178 -3.34703 2.37491 0
M  V30 1473 H 140.709 -3.86238 0.747261 0
M  V30 1474 H 142.724 -4.96044 0.124586 0
M  V30 1475 N 141.898 -0.863906 -1.31812 0
M  V30 1476 C 142.83 -0.272485 -2.27575 0
M  V30 1477 C 143.843 0.56104 -1.52827 0
M  V30 1478 O 145.032 0.384021 -1.7432 0
M  V30 1479 C 142.132 0.63283 -3.32939 0
M  V30 1480 C 141.305 -0.166902 -4.37081 0
M  V30 1481 C 140.364 0.665608 -5.21973 0
M  V30 1482 O 139.39 0.0958091 -5.69119 0
M  V30 1483 N 140.592 1.9787 -5.45736 0
M  V30 1484 H 143.357 -1.0954 -2.78964 0
M  V30 1485 H 140.918 -0.724791 -1.4477 0
M  V30 1486 H 142.91 1.19532 -3.86645 0
M  V30 1487 H 141.48 1.35642 -2.81638 0
M  V30 1488 H 140.7 -0.910838 -3.83533 0
M  V30 1489 H 141.988 -0.715874 -5.03739 0
M  V30 1490 H 141.386 2.46484 -5.09178 0
M  V30 1491 H 139.943 2.48911 -6.024 0
M  V30 1492 N 143.376 1.44774 -0.622745 0
M  V30 1493 C 144.339 2.29069 0.0774015 0
M  V30 1494 C 145.339 1.4059 0.780461 0
M  V30 1495 O 146.529 1.62551 0.626322 0
M  V30 1496 C 143.661 3.21974 1.12006 0
M  V30 1497 H 144.854 2.92459 -0.663901 0
M  V30 1498 H 142.407 1.51548 -0.382486 0
M  V30 1499 H 143.142 2.63417 1.89162 0
M  V30 1500 H 142.927 3.87168 0.619951 0
M  V30 1501 H 144.417 3.85318 1.60995 0
M  V30 1502 N 144.854 0.36279 1.53368 0
M  V30 1503 C 145.784 -0.476976 2.28576 0
M  V30 1504 C 146.765 -1.08631 1.30894 0
M  V30 1505 O 147.95 -1.10409 1.59761 0
M  V30 1506 C 145.08 -1.61828 3.07293 0
M  V30 1507 C 144.034 -1.13633 4.1264 0
M  V30 1508 C 143.36 -2.36766 4.79423 0
M  V30 1509 C 144.66 -0.223061 5.21823 0
M  V30 1510 H 146.354 0.150474 2.99022 0
M  V30 1511 H 143.9 0.0738103 1.43811 0
M  V30 1512 H 145.853 -2.21237 3.58653 0
M  V30 1513 H 144.577 -2.27292 2.34533 0
M  V30 1514 H 143.236 -0.564945 3.62221 0
M  V30 1515 H 142.884 -3.0068 4.03238 0
M  V30 1516 H 142.584 -2.05192 5.50609 0
M  V30 1517 H 144.108 -2.96865 5.33576 0
M  V30 1518 H 145.522 -0.724545 5.68703 0
M  V30 1519 H 143.919 0.001678 6.001 0
M  V30 1520 H 144.989 0.735553 4.79289 0
M  V30 1521 N 146.332 -1.57332 0.0918853 0
M  V30 1522 C 147.295 -2.12708 -0.85369 0
M  V30 1523 C 148.295 -1.05561 -1.213 0
M  V30 1524 O 149.485 -1.31461 -1.14296 0
M  V30 1525 C 146.617 -2.64503 -2.15061 0
M  V30 1526 H 147.81 -2.97573 -0.3729 0
M  V30 1527 H 145.363 -1.55509 -0.157072 0
M  V30 1528 H 146.098 -1.83149 -2.67632 0
M  V30 1529 H 145.883 -3.4284 -1.90272 0
M  V30 1530 H 147.373 -3.07351 -2.82711 0
M  V30 1531 N 147.81 0.181792 -1.56548 0
M  V30 1532 C 148.757 1.22521 -1.95595 0
M  V30 1533 C 149.727 1.4454 -0.818373 0
M  V30 1534 O 150.912 1.57454 -1.07763 0
M  V30 1535 C 148.052 2.56193 -2.31212 0
M  V30 1536 C 147.165 2.41641 -3.58097 0
M  V30 1537 C 146.3 3.68108 -3.82975 0
M  V30 1538 C 145.339 3.48445 -5.03242 0
M  V30 1539 N 144.476 4.66956 -5.24306 0
M  V30 1540 H 149.316 0.885226 -2.84548 0
M  V30 1541 H 146.853 0.425718 -1.40805 0
M  V30 1542 H 148.811 3.34088 -2.49882 0
M  V30 1543 H 147.441 2.88208 -1.45382 0
M  V30 1544 H 146.493 1.54976 -3.474 0
M  V30 1545 H 147.805 2.23052 -4.46149 0
M  V30 1546 H 146.959 4.54441 -4.01956 0
M  V30 1547 H 145.698 3.89666 -2.93278 0
M  V30 1548 H 144.703 2.60499 -4.8417 0
M  V30 1549 H 145.928 3.2832 -5.9446 0
M  V30 1550 H 143.874 4.88752 -4.37559 0
M  V30 1551 H 143.791 4.51242 -6.06561 0
M  V30 1552 H 145.059 5.54602 -5.47756 0
M  V30 1553 N 149.288 1.51039 0.449983 0
M  V30 1554 C 150.565 1.53612 1.21089 0
M  V30 1555 C 150.945 0.292997 2.09057 0
M  V30 1556 O 150.293 -0.72259 2.16774 0
M  V30 1557 C 150.503 2.84337 2.0237 0
M  V30 1558 C 151.851 3.35807 2.59843 0
M  V30 1559 O 152.875 2.85802 2.12593 0
M  V30 1560 O 151.734 4.23029 3.45989 0
M  V30 1561 H 148.828 0.617057 0.550608 0
M  V30 1562 H 151.374 1.63344 0.460082 0
M  V30 1563 H 150.146 3.66278 1.37681 0
M  V30 1564 H 149.769 2.77708 2.84542 0
M  V30 1565 N 150.766 -0.704594 1.40972 0
M  V30 1566 C 152.177 -1.28418 1.3552 0
M  V30 1567 C 152.528 -1.96171 0.0339434 0
M  V30 1568 O 151.653 -1.98231 -0.867944 0
M  V30 1569 C 152.248 -2.33528 2.45459 0
M  V30 1570 C 150.807 -2.87085 2.43433 0
M  V30 1571 C 149.954 -1.61007 2.2577 0
M  V30 1572 H 152.905 -0.499963 1.50619 0
M  V30 1573 H 152.926 -3.14619 2.13998 0
M  V30 1574 H 152.438 -1.84187 3.41609 0
M  V30 1575 H 150.539 -3.40626 1.51013 0
M  V30 1576 H 150.652 -3.3813 3.39419 0
M  V30 1577 H 149.016 -1.86482 1.73483 0
M  V30 1578 H 149.799 -1.13675 3.23933 0
M  V30 1579 N 152.244 -1.26651 -0.937939 0
M  V30 1580 C 153.191 -1.0849 -2.03712 0
M  V30 1581 C 154.161 0.011033 -1.66096 0
M  V30 1582 O 155.346 -0.149353 -1.90215 0
M  V30 1583 C 152.486 -0.72735 -3.37348 0
M  V30 1584 C 151.599 -1.89986 -3.87981 0
M  V30 1585 C 150.734 -1.48513 -5.10017 0
M  V30 1586 C 149.773 -2.62575 -5.5292 0
M  V30 1587 N 148.91 -2.21762 -6.66158 0
M  V30 1588 H 153.75 -2.02551 -2.18579 0
M  V30 1589 H 151.287 -1.00844 -1.07093 0
M  V30 1590 H 153.245 -0.50092 -4.14182 0
M  V30 1591 H 151.875 0.176298 -3.22318 0
M  V30 1592 H 150.927 -2.23913 -3.07518 0
M  V30 1593 H 152.239 -2.75586 -4.15757 0
M  V30 1594 H 151.393 -1.21934 -5.94321 0
M  V30 1595 H 150.132 -0.60009 -4.83994 0
M  V30 1596 H 149.137 -2.8988 -4.67172 0
M  V30 1597 H 150.362 -3.51685 -5.80943 0
M  V30 1598 H 148.308 -1.35696 -6.41812 0
M  V30 1599 H 148.225 -3.00903 -6.93537 0
M  V30 1600 H 149.493 -1.98403 -7.53828 0
M  V30 1601 N 153.722 1.14298 -1.08507 0
M  V30 1602 C 154.652 2.21542 -0.737646 0
M  V30 1603 C 155.633 1.67773 0.280377 0
M  V30 1604 O 156.818 1.93616 0.150521 0
M  V30 1605 C 153.948 3.46988 -0.147259 0
M  V30 1606 C 152.902 4.13789 -1.09374 0
M  V30 1607 C 152.228 5.33449 -0.365524 0
M  V30 1608 C 153.528 4.62208 -2.4323 0
M  V30 1609 H 155.222 2.5086 -1.6343 0
M  V30 1610 H 152.768 1.20576 -0.787243 0
M  V30 1611 H 154.721 4.21262 0.107808 0
M  V30 1612 H 153.445 3.17037 0.784538 0
M  V30 1613 H 152.104 3.4147 -1.33393 0
M  V30 1614 H 151.752 4.99759 0.57011 0
M  V30 1615 H 151.452 5.79088 -0.996512 0
M  V30 1616 H 152.976 6.10485 -0.118534 0
M  V30 1617 H 154.39 5.27952 -2.23472 0
M  V30 1618 H 152.787 5.18553 -3.02031 0
M  V30 1619 H 153.857 3.77224 -3.04681 0
M  V30 1620 N 155.201 0.870884 1.31352 0
M  V30 1621 C 156.133 0.28455 2.27427 0
M  V30 1622 C 157.146 -0.552927 1.53123 0
M  V30 1623 O 158.335 -0.374771 1.74521 0
M  V30 1624 C 155.435 -0.615164 3.3327 0
M  V30 1625 C 154.608 0.190079 4.36987 0
M  V30 1626 C 153.667 -0.637917 5.22319 0
M  V30 1627 O 152.693 -0.065626 5.69162 0
M  V30 1628 N 153.895 -1.94973 5.46778 0
M  V30 1629 H 156.66 1.11017 2.7838 0
M  V30 1630 H 154.221 0.732458 1.44384 0
M  V30 1631 H 156.213 -1.1748 3.87273 0
M  V30 1632 H 154.783 -1.34146 2.82354 0
M  V30 1633 H 154.003 0.931165 3.83044 0
M  V30 1634 H 155.291 0.742579 5.03352 0
M  V30 1635 H 154.689 -2.4378 5.10478 0
M  V30 1636 H 153.246 -2.45713 6.03712 0
M  V30 1637 N 156.679 -1.44442 0.630414 0
M  V30 1638 C 157.611 -2.2892 -0.113347 0
M  V30 1639 C 158.624 -1.41243 -0.80959 0
M  V30 1640 O 159.813 -1.65402 -0.671156 0
M  V30 1641 C 156.913 -3.17594 -1.18266 0
M  V30 1642 C 156.086 -4.33682 -0.569073 0
M  V30 1643 C 155.145 -5.03397 -1.53226 0
M  V30 1644 O 154.171 -5.59438 -1.04967 0
M  V30 1645 N 155.373 -5.04783 -2.86661 0
M  V30 1646 H 158.138 -2.93392 0.611636 0
M  V30 1647 H 155.699 -1.54881 0.471523 0
M  V30 1648 H 157.691 -3.61097 -1.82732 0
M  V30 1649 H 156.261 -2.54876 -1.80988 0
M  V30 1650 H 155.481 -3.9338 0.254187 0
M  V30 1651 H 156.769 -5.08608 -0.139767 0
M  V30 1652 H 156.167 -4.60584 -3.28449 0
M  V30 1653 H 154.724 -5.52077 -3.46489 0
M  V30 1654 N 158.157 -0.370918 -1.53173 0
M  V30 1655 C 159.405 0.216673 -2.00935 0
M  V30 1656 C 159.726 1.48845 -1.25977 0
M  V30 1657 O 158.996 1.92286 -0.374551 0
M  V30 1658 H 157.576 0.0830565 -0.742368 0
M  V30 1659 H 160.238 -0.49838 -1.8842 0
M  V30 1660 H 159.334 0.439893 -3.08984 0
M  V30 1661 N 159.635 1.57281 -0.100228 0
M  V30 1662 C 160.865 1.98591 0.569681 0
M  V30 1663 C 161.273 0.978315 1.61943 0
M  V30 1664 O 160.616 -0.0396108 1.83657 0
M  V30 1665 C 160.678 3.36282 1.271 0
M  V30 1666 C 160.342 4.55488 0.371409 0
M  V30 1667 C 161.339 5.18491 -0.382504 0
M  V30 1668 C 159.024 5.01474 0.287965 0
M  V30 1669 C 161.018 6.25852 -1.20779 0
M  V30 1670 C 158.705 6.08701 -0.540965 0
M  V30 1671 C 159.703 6.70755 -1.28749 0
M  V30 1672 O 159.391 7.75914 -2.10269 0
M  V30 1673 H 159.123 0.65752 0.156982 0
M  V30 1674 H 161.677 2.0463 -0.177734 0
M  V30 1675 H 159.907 3.26941 2.0651 0
M  V30 1676 H 161.596 3.62005 1.83595 0
M  V30 1677 H 162.362 4.83891 -0.3278 0
M  V30 1678 H 158.241 4.52932 0.858689 0
M  V30 1679 H 161.785 6.74218 -1.79096 0
M  V30 1680 H 157.682 6.42732 -0.597131 0
M  V30 1681 H 158.45 7.92925 -2.03007 0
M  V30 1682 N 161.113 -0.173488 1.56642 0
M  V30 1683 C 162.061 -1.23417 1.97157 0
M  V30 1684 C 163.055 -1.45946 0.860013 0
M  V30 1685 O 164.261 -1.46551 1.04512 0
M  V30 1686 H 160.636 -0.414818 0.62724 0
M  V30 1687 H 162.607 -0.865582 2.8557 0
M  V30 1688 C 161.356 -2.5665 2.34576 0
M  V30 1689 H 160.679 -2.40137 3.19647 0
M  V30 1690 H 162.119 -3.2956 2.6677 0
M  V30 1691 C 160.578 -3.15245 1.18836 0
M  V30 1692 O 161.108 -3.98883 0.474869 0
M  V30 1693 N 159.314 -2.74303 0.959497 0
M  V30 1694 H 158.861 -2.0639 1.54146 0
M  V30 1695 H 158.819 -3.13844 0.186932 0
M  V30 1696 N 162.591 -1.51276 -0.441967 0
M  V30 1697 C 163.554 -1.7167 -1.51862 0
M  V30 1698 C 164.554 -0.586793 -1.49711 0
M  V30 1699 O 165.744 -0.854276 -1.51815 0
M  V30 1700 C 162.876 -1.76889 -2.91416 0
M  V30 1701 H 164.069 -2.67754 -1.35084 0
M  V30 1702 H 161.622 -1.41196 -0.670333 0
M  V30 1703 H 162.357 -0.826026 -3.13604 0
M  V30 1704 H 162.142 -2.59001 -2.94382 0
M  V30 1705 H 163.632 -1.94522 -3.69528 0
M  V30 1706 N 164.069 0.697108 -1.41344 0
M  V30 1707 C 165.002 1.82134 -1.37486 0
M  V30 1708 C 165.98 1.60784 -0.242351 0
M  V30 1709 O 167.164 1.83553 -0.429012 0
M  V30 1710 C 164.291 3.18788 -1.14421 0
M  V30 1711 C 163.337 3.58932 -2.3037 0
M  V30 1712 S 164.17 3.63916 -3.92843 0
M  V30 1713 C 165.326 5.03298 -3.72078 0
M  V30 1714 H 165.559 1.85129 -2.32625 0
M  V30 1715 H 163.092 0.865671 -1.2785 0
M  V30 1716 H 165.05 3.97677 -1.018 0
M  V30 1717 H 163.711 3.13404 -0.20905 0
M  V30 1718 H 162.904 4.58202 -2.09922 0
M  V30 1719 H 162.506 2.87347 -2.39391 0
M  V30 1720 H 164.798 5.90753 -3.31688 0
M  V30 1721 H 165.741 5.28788 -4.70945 0
M  V30 1722 H 166.149 4.74764 -3.05384 0
M  V30 1723 N 165.547 1.27147 0.931209 0
M  V30 1724 C 166.795 1.13055 1.6752 0
M  V30 1725 C 167.116 -0.324791 1.92276 0
M  V30 1726 O 166.386 -1.22775 1.52654 0
M  V30 1727 H 164.966 0.415391 0.620854 0
M  V30 1728 H 167.628 1.59623 1.11833 0
M  V30 1729 H 166.724 1.65694 2.64485 0
M  V30 1730 N 167.025 -1.13721 1.09112 0
M  V30 1731 C 168.272 -1.84924 0.825192 0
M  V30 1732 C 168.6 -1.83347 -0.649151 0
M  V30 1733 O 167.855 -1.26449 -1.49362 0
M  V30 1734 C 168.154 -3.32861 1.30146 0
M  V30 1735 C 167.82 -3.54621 2.78486 0
M  V30 1736 C 166.482 -3.60268 3.18999 0
M  V30 1737 C 168.834 -3.62855 3.74146 0
M  V30 1738 C 166.162 -3.71679 4.53951 0
M  V30 1739 C 168.514 -3.75793 5.08883 0
M  V30 1740 C 167.178 -3.79692 5.4899 0
M  V30 1741 H 166.448 -0.676684 0.301959 0
M  V30 1742 H 169.095 -1.3428 1.36533 0
M  V30 1743 H 167.4 -3.85835 0.681064 0
M  V30 1744 H 169.097 -3.86395 1.07236 0
M  V30 1745 H 165.687 -3.50879 2.46134 0
M  V30 1746 H 169.871 -3.57775 3.43963 0
M  V30 1747 H 165.127 -3.72963 4.84467 0
M  V30 1748 H 169.301 -3.81107 5.82864 0
M  V30 1749 H 166.928 -3.88287 6.53558 0
M  V30 1750 N 168.503 -0.877838 -1.30888 0
M  V30 1751 C 169.728 -0.506629 -2.01117 0
M  V30 1752 C 170.153 0.895564 -1.65412 0
M  V30 1753 O 169.511 1.5923 -0.866922 0
M  V30 1754 C 169.559 -0.680223 -3.54126 0
M  V30 1755 O 168.663 0.277033 -4.11468 0
M  V30 1756 H 168.004 -0.200518 -0.633 0
M  V30 1757 H 170.534 -1.18342 -1.66902 0
M  V30 1758 H 170.544 -0.5765 -4.03907 0
M  V30 1759 H 169.219 -1.70261 -3.79452 0
M  V30 1760 H 167.796 0.127606 -3.72682 0
M  V30 1761 N 169.982 1.44106 -0.638065 0
M  V30 1762 C 170.914 2.28976 0.101205 0
M  V30 1763 C 171.927 1.4167 0.802088 0
M  V30 1764 O 173.116 1.65755 0.662375 0
M  V30 1765 C 170.216 3.18217 1.16581 0
M  V30 1766 C 169.389 4.33978 0.546066 0
M  V30 1767 C 168.448 5.04202 1.50554 0
M  V30 1768 O 167.474 5.59986 1.01999 0
M  V30 1769 N 168.676 5.06296 2.8398 0
M  V30 1770 H 171.441 2.93064 -0.627186 0
M  V30 1771 H 169.002 1.54629 -0.479731 0
M  V30 1772 H 170.994 3.62061 1.80815 0
M  V30 1773 H 169.564 2.55833 1.79634 0
M  V30 1774 H 168.784 3.93239 -0.275046 0
M  V30 1775 H 170.072 5.08675 0.112793 0
M  V30 1776 H 169.47 4.62319 3.26002 0
M  V30 1777 H 168.027 5.53907 3.43556 0
M  V30 1778 N 171.46 0.379036 1.52974 0
M  V30 1779 C 172.708 -0.206014 2.01047 0
M  V30 1780 C 173.029 -1.48175 1.26765 0
M  V30 1781 O 172.299 -1.92085 0.384743 0
M  V30 1782 H 170.879 -0.0791184 0.742798 0
M  V30 1783 H 173.541 0.508366 1.88153 0
M  V30 1784 H 172.637 -0.423501 3.09213 0
M  V30 1785 N 172.938 -1.57226 0.108567 0
M  V30 1786 C 174.186 -1.94448 -0.550853 0
M  V30 1787 C 174.507 -0.992074 -1.67878 0
M  V30 1788 O 173.777 -0.0465 -1.95845 0
M  V30 1789 H 172.357 -0.717897 -0.206479 0
M  V30 1790 H 175.019 -1.94112 0.175062 0
M  V30 1791 H 174.115 -2.97218 -0.952259 0
M  V30 1792 N 174.416 0.165178 -1.56732 0
M  V30 1793 C 175.348 1.22911 -1.93457 0
M  V30 1794 C 176.361 1.40152 -0.828333 0
M  V30 1795 O 177.55 1.40046 -1.10677 0
M  V30 1796 C 174.65 2.59686 -2.17753 0
M  V30 1797 C 173.823 2.63663 -3.48999 0
M  V30 1798 C 172.882 3.81845 -3.62051 0
M  V30 1799 O 171.908 3.67559 -4.34613 0
M  V30 1800 N 173.11 4.98557 -2.97357 0
M  V30 1801 H 175.875 0.917118 -2.85323 0
M  V30 1802 H 173.436 0.354895 -1.57962 0
M  V30 1803 H 175.428 3.37225 -2.23743 0
M  V30 1804 H 173.998 2.83251 -1.32242 0
M  V30 1805 H 173.218 1.72173 -3.54612 0
M  V30 1806 H 174.506 2.63336 -4.35352 0
M  V30 1807 H 173.904 5.13065 -2.38287 0
M  V30 1808 H 172.461 5.73936 -3.08934 0
M  V30 1809 N 175.894 1.51508 0.433938 0
M  V30 1810 C 177.141 1.64345 1.18309 0
M  V30 1811 C 177.469 0.361315 1.91115 0
M  V30 1812 O 176.724 -0.654753 1.84422 0
M  V30 1813 C 177.023 2.79928 2.22205 0
M  V30 1814 C 176.689 4.19078 1.66387 0
M  V30 1815 C 175.351 4.56932 1.50887 0
M  V30 1816 C 177.703 5.05894 1.25381 0
M  V30 1817 C 175.031 5.79305 0.928608 0
M  V30 1818 C 177.383 6.2885 0.687823 0
M  V30 1819 C 176.047 6.65473 0.519755 0
M  V30 1820 H 175.317 0.601381 0.432923 0
M  V30 1821 H 177.964 1.85549 0.473676 0
M  V30 1822 H 176.269 2.52959 2.99197 0
M  V30 1823 H 177.966 2.87059 2.79997 0
M  V30 1824 H 174.556 3.89234 1.79428 0
M  V30 1825 H 178.74 4.77253 1.36175 0
M  V30 1826 H 173.996 6.06324 0.786186 0
M  V30 1827 H 178.17 6.95461 0.361581 0
M  V30 1828 H 175.797 7.6017 0.0679979 0
M  V30 1829 N 177.372 -0.689602 1.41712 0
M  V30 1830 C 178.302 -1.81577 1.46806 0
M  V30 1831 C 179.283 -1.66945 0.326105 0
M  V30 1832 O 180.468 -1.86588 0.538377 0
M  V30 1833 C 177.598 -3.19762 1.35535 0
M  V30 1834 C 176.552 -3.49107 2.47605 0
M  V30 1835 C 175.878 -4.86711 2.21397 0
M  V30 1836 C 177.178 -3.47483 3.89939 0
M  V30 1837 H 178.872 -1.7757 2.41058 0
M  V30 1838 H 176.418 -0.852887 1.16025 0
M  V30 1839 H 178.371 -3.98263 1.3771 0
M  V30 1840 H 177.095 -3.24409 0.377708 0
M  V30 1841 H 175.754 -2.72959 2.44722 0
M  V30 1842 H 175.402 -4.8799 1.21961 0
M  V30 1843 H 175.102 -5.0731 2.96497 0
M  V30 1844 H 176.626 -5.67515 2.25297 0
M  V30 1845 H 178.04 -4.1598 3.94505 0
M  V30 1846 H 176.437 -3.79615 4.64771 0
M  V30 1847 H 177.507 -2.46341 4.17665 0
M  V30 1848 N 178.85 -1.27639 -0.924453 0
M  V30 1849 C 180.266 -1.05113 -1.20097 0
M  V30 1850 C 180.466 0.213262 -2.00368 0
M  V30 1851 O 179.522 0.91787 -2.35226 0
M  V30 1852 C 180.835 -2.29244 -1.94596 0
M  V30 1853 C 182.383 -2.34315 -2.07522 0
M  V30 1854 C 182.858 -3.58183 -2.85427 0
M  V30 1855 N 184.349 -3.5876 -2.92994 0
M  V30 1856 C 185.084 -4.51277 -3.53746 0
M  V30 1857 N 184.58 -5.54102 -4.15863 0
M  V30 1858 N 186.373 -4.38894 -3.51181 0
M  V30 1859 H 178.524 -2.08821 -0.388264 0
M  V30 1860 H 180.787 -0.918568 -0.234385 0
M  V30 1861 H 180.493 -3.21301 -1.43034 0
M  V30 1862 H 180.367 -2.34816 -2.95197 0
M  V30 1863 H 182.754 -1.42762 -2.58269 0
M  V30 1864 H 182.835 -2.32744 -1.06131 0
M  V30 1865 H 182.479 -4.50074 -2.35363 0
M  V30 1866 H 182.409 -3.57006 -3.8711 0
M  V30 1867 H 184.9 -2.84398 -2.4885 0
M  V30 1868 H 185.213 -6.20859 -4.60168 0
M  V30 1869 H 183.558 -5.57941 -4.144 0
M  V30 1870 H 186.749 -3.57772 -3.01856 0
M  V30 1871 H 186.922 -5.11186 -3.98237 0
M  V30 1872 N 180.328 1.1314 -1.09713 0
M  V30 1873 C 181.291 2.16831 -0.742751 0
M  V30 1874 C 182.291 1.59159 0.229129 0
M  V30 1875 O 183.481 1.74199 0.00693237 0
M  V30 1876 C 180.613 3.40756 -0.0989168 0
M  V30 1877 H 181.806 2.49695 -1.66109 0
M  V30 1878 H 179.359 1.2802 -0.896699 0
M  V30 1879 H 180.094 3.13485 0.830514 0
M  V30 1880 H 179.879 3.83888 -0.798265 0
M  V30 1881 H 181.369 4.17386 0.133524 0
M  V30 1882 N 181.806 0.884767 1.30421 0
M  V30 1883 C 183.052 0.503851 1.96441 0
M  V30 1884 C 183.385 -0.944518 1.69684 0
M  V30 1885 O 182.66 -1.66737 1.00145 0
M  V30 1886 C 182.943 0.779085 3.51571 0
M  V30 1887 C 182.796 2.27807 3.87846 0
M  V30 1888 C 184.115 0.255452 4.39358 0
M  V30 1889 H 181.234 0.184533 0.713524 0
M  V30 1890 H 183.876 1.10872 1.54297 0
M  V30 1891 H 182.026 0.264274 3.876 0
M  V30 1892 H 183.698 2.86127 3.61841 0
M  V30 1893 H 181.941 2.74479 3.35922 0
M  V30 1894 H 182.612 2.42125 4.96064 0
M  V30 1895 H 185.088 0.696079 4.10236 0
M  V30 1896 H 183.964 0.477361 5.4682 0
M  V30 1897 H 184.225 -0.843293 4.33983 0
M  V30 1898 N 183.284 -1.43765 0.645699 0
M  V30 1899 C 184.247 -2.29163 -0.0409488 0
M  V30 1900 C 185.247 -1.41813 -0.757996 0
M  V30 1901 O 186.437 -1.63527 -0.600382 0
M  V30 1902 C 183.569 -3.23716 -1.06869 0
M  V30 1903 H 184.762 -2.91366 0.710345 0
M  V30 1904 H 182.315 -1.5092 0.406547 0
M  V30 1905 H 183.05 -2.66393 -1.84947 0
M  V30 1906 H 182.835 -3.88105 -0.558277 0
M  V30 1907 H 184.325 -3.87831 -1.54845 0
M  V30 1908 N 184.763 -0.387143 -1.52771 0
M  V30 1909 C 185.695 0.484089 -2.2403 0
M  V30 1910 C 186.708 1.02849 -1.26198 0
M  V30 1911 O 187.897 0.931186 -1.52286 0
M  V30 1912 C 184.997 1.68337 -2.94136 0
M  V30 1913 C 184.17 1.26672 -4.18656 0
M  V30 1914 C 183.229 2.33045 -4.7178 0
M  V30 1915 O 182.255 1.94541 -5.34923 0
M  V30 1916 N 183.457 3.64929 -4.5145 0
M  V30 1917 H 186.222 -0.126404 -2.99433 0
M  V30 1918 H 183.783 -0.213392 -1.60488 0
M  V30 1919 H 185.775 2.39019 -3.26577 0
M  V30 1920 H 184.345 2.20025 -2.22053 0
M  V30 1921 H 183.565 0.388878 -3.92277 0
M  V30 1922 H 184.853 0.964964 -4.99566 0
M  V30 1923 H 184.251 3.98974 -4.01044 0
M  V30 1924 H 182.808 4.31651 -4.88386 0
M  V30 1925 N 186.241 1.57166 -0.116904 0
M  V30 1926 C 187.657 1.5779 0.239693 0
M  V30 1927 C 187.857 1.1295 1.66867 0
M  V30 1928 O 186.913 0.81592 2.38954 0
M  V30 1929 C 188.226 3.00699 0.00828202 0
M  V30 1930 C 189.774 3.12912 0.0743438 0
M  V30 1931 C 190.249 4.57817 -0.129348 0
M  V30 1932 N 191.74 4.63139 -0.075247 0
M  V30 1933 C 192.475 5.73023 -0.207788 0
M  V30 1934 N 191.971 6.91665 -0.396382 0
M  V30 1935 N 193.764 5.61906 -0.14751 0
M  V30 1936 H 185.915 1.84615 -1.05029 0
M  V30 1937 H 188.178 0.85311 -0.41341 0
M  V30 1938 H 187.884 3.37784 -0.979531 0
M  V30 1939 H 187.758 3.69848 0.741077 0
M  V30 1940 H 190.145 2.75686 1.05268 0
M  V30 1941 H 190.226 2.4631 -0.690297 0
M  V30 1942 H 189.87 4.95742 -1.10465 0
M  V30 1943 H 189.8 5.22507 0.655253 0
M  V30 1944 H 192.291 3.7784 0.0670898 0
M  V30 1945 H 192.604 7.71255 -0.488437 0
M  V30 1946 H 190.949 6.93654 -0.432329 0
M  V30 1947 H 194.14 4.681 -0.00115036 0
M  V30 1948 H 194.313 6.47501 -0.254247 0
M  V30 1949 N 187.719 -0.156864 1.56817 0
M  V30 1950 C 188.959 -0.877453 1.84608 0
M  V30 1951 C 189.323 -1.78791 0.699845 0
M  V30 1952 O 190.524 -2.5472 0.858553 0
M  V30 1953 C 188.795 -1.63992 3.17555 0
M  V30 1954 S 190.354 -2.40729 3.66872 0
M  V30 1955 H 187.172 -0.293612 0.647544 0
M  V30 1956 H 189.774 -0.138099 1.95012 0
M  V30 1957 H 188.478 -0.962363 3.98957 0
M  V30 1958 H 188.009 -2.42038 3.10131 0
M  V30 1959 H 190.024 -3.65725 3.3535 0
M  V30 1960 N 189.197 -1.51736 -0.425897 0
M  V30 1961 C 190.608 -1.5732 -1.00536 0
M  V30 1962 C 190.959 -0.403537 -1.92005 0
M  V30 1963 O 190.084 0.478256 -2.11049 0
M  V30 1964 C 190.679 -2.85119 -1.8301 0
M  V30 1965 C 189.238 -2.93236 -2.35987 0
M  V30 1966 C 188.385 -2.52098 -1.15508 0
M  V30 1967 H 191.336 -1.57348 -0.206739 0
M  V30 1968 H 191.357 -2.69526 -2.68581 0
M  V30 1969 H 190.869 -3.7023 -1.16411 0
M  V30 1970 H 188.97 -2.12581 -3.06007 0
M  V30 1971 H 189.083 -3.9713 -2.68001 0
M  V30 1972 H 187.447 -2.05558 -1.50393 0
M  V30 1973 H 188.23 -3.39565 -0.505014 0
M  V30 1974 N 190.675 0.682077 -1.42076 0
M  V30 1975 C 191.9 1.47558 -1.45744 0
M  V30 1976 C 192.325 1.87977 -0.0680981 0
M  V30 1977 O 191.683 1.55522 0.9318 0
M  V30 1978 C 191.731 2.70575 -2.38373 0
M  V30 1979 O 190.835 3.68573 -1.85007 0
M  V30 1980 H 190.176 0.443585 -0.494093 0
M  V30 1981 H 192.706 0.837238 -1.86686 0
M  V30 1982 H 192.716 3.18729 -2.54707 0
M  V30 1983 H 191.391 2.40495 -3.39315 0
M  V30 1984 H 189.968 3.2757 -1.78192 0
M  V30 1985 N 192.153 1.28127 0.917671 0
M  V30 1986 C 193.564 1.13622 1.48145 0
M  V30 1987 C 193.915 -0.275207 1.9426 0
M  V30 1988 O 193.04 -1.1691 1.82102 0
M  V30 1989 C 193.635 2.05648 2.69248 0
M  V30 1990 C 192.194 1.95219 3.21818 0
M  V30 1991 C 191.341 1.97618 1.94532 0
M  V30 1992 H 194.292 1.40874 0.730772 0
M  V30 1993 H 194.313 1.61818 3.44377 0
M  V30 1994 H 193.825 3.08365 2.35653 0
M  V30 1995 H 191.926 0.955244 3.60147 0
M  V30 1996 H 192.039 2.81976 3.87333 0
M  V30 1997 H 190.403 1.41973 2.11461 0
M  V30 1998 H 191.186 3.02007 1.63238 0
M  V30 1999 N 193.631 -1.12557 1.10312 0
M  V30 2000 C 195.042 -1.65574 0.862678 0
M  V30 2001 C 195.393 -1.86566 -0.607256 0
M  V30 2002 O 194.518 -1.59121 -1.46662 0
M  V30 2003 C 195.113 -3.00776 1.55947 0
M  V30 2004 C 193.672 -3.50748 1.36576 0
M  V30 2005 C 192.819 -2.25797 1.60968 0
M  V30 2006 H 195.77 -0.963552 1.26101 0
M  V30 2007 H 195.791 -3.67185 0.997753 0
M  V30 2008 H 195.303 -2.85465 2.62928 0
M  V30 2009 H 193.404 -3.71245 0.317531 0
M  V30 2010 H 193.517 -4.30289 2.10686 0
M  V30 2011 H 191.881 -2.32841 1.03234 0
M  V30 2012 H 192.664 -2.13043 2.69198 0
M  V30 2013 N 195.109 -0.891671 -1.2995 0
M  V30 2014 C 196.042 -0.307994 -2.26112 0
M  V30 2015 C 197.02 0.575262 -1.52084 0
M  V30 2016 O 198.204 0.523864 -1.81074 0
M  V30 2017 C 195.331 0.561734 -3.34009 0
M  V30 2018 C 194.377 -0.253107 -4.25748 0
M  V30 2019 S 195.21 -1.64572 -5.09584 0
M  V30 2020 C 196.366 -0.782699 -6.20987 0
M  V30 2021 H 196.599 -1.12309 -2.75271 0
M  V30 2022 H 194.132 -0.691509 -1.38049 0
M  V30 2023 H 196.09 1.05777 -3.96638 0
M  V30 2024 H 194.751 1.35099 -2.83561 0
M  V30 2025 H 193.944 0.410908 -5.02322 0
M  V30 2026 H 193.546 -0.682004 -3.67729 0
M  V30 2027 H 195.838 -0.00257476 -6.775 0
M  V30 2028 H 196.781 -1.52026 -6.91588 0
M  V30 2029 H 197.189 -0.340638 -5.63471 0
M  V30 2030 N 196.587 1.43421 -0.653314 0
M  V30 2031 C 197.836 2.01032 -0.164076 0
M  V30 2032 C 198.149 1.52147 1.22926 0
M  V30 2033 O 199.355 2.02031 1.81371 0
M  V30 2034 C 197.811 3.59082 -0.24252 0
M  V30 2035 C 197.419 4.1696 -1.63855 0
M  V30 2036 C 199.163 4.24079 0.18911 0
M  V30 2037 C 197.07 5.67304 -1.67092 0
M  V30 2038 H 196 0.751798 -0.0575769 0
M  V30 2039 H 198.651 1.6439 -0.815362 0
M  V30 2040 H 197.033 3.93125 0.476276 0
M  V30 2041 H 198.207 3.94416 -2.38271 0
M  V30 2042 H 196.522 3.64335 -2.01616 0
M  V30 2043 H 199.119 5.34381 0.184775 0
M  V30 2044 H 199.462 3.98005 1.22056 0
M  V30 2045 H 199.995 3.94918 -0.477938 0
M  V30 2046 H 196.734 5.98145 -2.68146 0
M  V30 2047 H 196.254 5.91904 -0.970014 0
M  V30 2048 H 197.933 6.31344 -1.4147 0
M  V30 2049 N 198.065 0.39524 1.52563 0
M  V30 2050 C 199.013 -0.451859 2.28169 0
M  V30 2051 C 200.007 -1.05792 1.32304 0
M  V30 2052 O 201.213 -0.997718 1.49818 0
M  V30 2053 H 197.588 -0.164481 0.733792 0
M  V30 2054 H 199.559 0.207199 2.9768 0
M  V30 2055 C 198.308 -1.56385 3.10546 0
M  V30 2056 H 197.631 -1.10682 3.84174 0
M  V30 2057 H 199.071 -2.13067 3.66577 0
M  V30 2058 C 197.53 -2.52328 2.23231 0
M  V30 2059 O 198.06 -3.5588 1.86312 0
M  V30 2060 N 196.266 -2.22209 1.87274 0
M  V30 2061 H 195.813 -1.38033 2.17496 0
M  V30 2062 H 195.771 -2.86652 1.29143 0
M  V30 2063 N 199.544 -1.57102 0.125237 0
M  V30 2064 C 200.474 -2.18659 -0.819174 0
M  V30 2065 C 201.455 -1.12843 -1.27281 0
M  V30 2066 O 202.64 -1.41104 -1.33429 0
M  V30 2067 C 199.77 -2.79096 -2.06695 0
M  V30 2068 C 198.724 -3.90548 -1.75088 0
M  V30 2069 C 198.05 -4.37821 -3.06948 0
M  V30 2070 C 199.35 -5.12356 -1.01435 0
M  V30 2071 H 201.044 -2.9783 -0.306202 0
M  V30 2072 H 198.59 -1.4326 -0.145839 0
M  V30 2073 H 200.543 -3.2082 -2.73226 0
M  V30 2074 H 199.267 -1.97223 -2.60328 0
M  V30 2075 H 197.926 -3.49409 -1.10944 0
M  V30 2076 H 197.574 -3.52799 -3.58527 0
M  V30 2077 H 197.274 -5.12982 -2.86571 0
M  V30 2078 H 198.798 -4.822 -3.74587 0
M  V30 2079 H 200.212 -5.5106 -1.58132 0
M  V30 2080 H 198.609 -5.9314 -0.911319 0
M  V30 2081 H 199.679 -4.849 -0.00218681 0
M  V30 2082 N 201.022 0.148545 -1.56898 0
M  V30 2083 C 202.271 0.85984 -1.82454 0
M  V30 2084 C 202.584 1.82406 -0.706229 0
M  V30 2085 O 203.79 2.57938 -0.847349 0
M  V30 2086 C 202.246 1.57967 -3.2338 0
M  V30 2087 C 201.854 0.65794 -4.43142 0
M  V30 2088 C 203.598 2.27784 -3.58211 0
M  V30 2089 C 201.505 1.3793 -5.75091 0
M  V30 2090 H 200.435 0.324834 -0.68044 0
M  V30 2091 H 203.086 0.112588 -1.83154 0
M  V30 2092 H 201.468 2.37249 -3.17063 0
M  V30 2093 H 202.642 -0.0995497 -4.60692 0
M  V30 2094 H 200.957 0.0682643 -4.16344 0
M  V30 2095 H 203.554 2.8239 -4.54048 0
M  V30 2096 H 203.897 3.04204 -2.84193 0
M  V30 2097 H 204.43 1.55421 -3.66182 0
M  V30 2098 H 201.169 0.656982 -6.52199 0
M  V30 2099 H 200.689 2.10954 -5.61479 0
M  V30 2100 H 202.368 1.92063 -6.17835 0
M  V30 2101 N 202.5 1.5196 0.417844 0
M  V30 2102 C 203.725 1.69717 1.1921 0
M  V30 2103 C 204.15 0.402148 1.83751 0
M  V30 2104 O 203.508 -0.639593 1.69643 0
M  V30 2105 C 203.556 2.82794 2.2374 0
M  V30 2106 O 202.66 2.47756 3.29683 0
M  V30 2107 H 202.001 0.565263 0.348387 0
M  V30 2108 H 204.531 1.98621 0.490985 0
M  V30 2109 H 204.541 3.07452 2.68212 0
M  V30 2110 H 203.216 3.76756 1.76146 0
M  V30 2111 H 201.793 2.33739 2.90552 0
M  V30 2112 N 203.978 -0.674533 1.42435 0
M  V30 2113 C 205.224 -1.43671 1.43131 0
M  V30 2114 C 205.557 -1.94142 0.0476021 0
M  V30 2115 O 204.832 -1.70924 -0.928188 0
M  V30 2116 C 205.115 -2.63355 2.45594 0
M  V30 2117 C 204.968 -2.18514 3.93156 0
M  V30 2118 C 206.287 -3.65571 2.45043 0
M  V30 2119 H 203.406 -0.521077 0.521198 0
M  V30 2120 H 206.048 -0.766551 1.7385 0
M  V30 2121 H 204.198 -3.2053 2.19528 0
M  V30 2122 H 205.87 -1.66504 4.30202 0
M  V30 2123 H 204.113 -1.50086 4.07009 0
M  V30 2124 H 204.784 -3.04484 4.60428 0
M  V30 2125 H 207.26 -3.18113 2.68223 0
M  V30 2126 H 206.136 -4.46893 3.18713 0
M  V30 2127 H 206.397 -4.16716 1.47649 0
M  V30 2128 N 205.456 -1.28612 -0.910864 0
M  V30 2129 C 206.704 -1.15705 -1.65701 0
M  V30 2130 C 207.025 0.29416 -1.92769 0
M  V30 2131 O 206.295 1.20331 -1.54588 0
M  V30 2132 H 204.875 -0.425216 -0.614167 0
M  V30 2133 H 207.537 -1.61381 -1.0928 0
M  V30 2134 H 206.633 -1.6988 -2.61815 0
M  V30 2135 N 206.934 1.1197 -1.10907 0
M  V30 2136 C 208.182 1.83225 -0.852819 0
M  V30 2137 C 208.503 1.84769 0.623341 0
M  V30 2138 O 207.773 1.3143 1.45269 0
M  V30 2139 H 206.353 0.67849 -0.312507 0
M  V30 2140 H 209.015 1.3556 -1.40033 0
M  V30 2141 H 208.111 2.87265 -1.22005 0
M  V30 2142 N 208.412 0.89855 1.29475 0
M  V30 2143 C 209.344 0.332726 2.26772 0
M  V30 2144 C 210.357 -0.520323 1.54261 0
M  V30 2145 O 211.546 -0.337668 1.75277 0
M  V30 2146 C 208.646 -0.544334 3.345 0
M  V30 2147 C 207.819 0.282728 4.36485 0
M  V30 2148 C 206.878 -0.526982 5.23555 0
M  V30 2149 O 205.904 0.0551165 5.69173 0
M  V30 2150 N 207.106 -1.83331 5.5079 0
M  V30 2151 H 209.871 1.16897 2.75962 0
M  V30 2152 H 207.432 0.762919 1.42798 0
M  V30 2153 H 209.424 -1.09239 3.89678 0
M  V30 2154 H 207.994 -1.28127 2.85136 0
M  V30 2155 H 207.214 1.01221 3.80983 0
M  V30 2156 H 208.502 0.84918 5.01664 0
M  V30 2157 H 207.9 -2.32898 5.15534 0
M  V30 2158 H 206.457 -2.32852 6.08788 0
M  V30 2159 N 209.89 -1.43072 0.660911 0
M  V30 2160 C 210.84 -2.27948 -0.04847 0
M  V30 2161 C 211.824 -1.40325 -0.787246 0
M  V30 2162 O 213.016 -1.63893 -0.668446 0
M  V30 2163 C 210.145 -3.28143 -1.00881 0
M  V30 2164 C 209.231 -4.23252 -0.268108 0
M  V30 2165 N 209.622 -5.00656 0.719528 0
M  V30 2166 C 207.92 -4.43092 -0.508493 0
M  V30 2167 C 208.621 -5.70019 1.15988 0
M  V30 2168 N 207.597 -5.41364 0.492584 0
M  V30 2169 H 211.399 -2.85213 0.709279 0
M  V30 2170 H 208.913 -1.54869 0.488822 0
M  V30 2171 H 210.91 -3.87736 -1.53188 0
M  V30 2172 H 209.57 -2.7244 -1.76654 0
M  V30 2173 H 210.581 -5.06115 1.09855 0
M  V30 2174 H 207.258 -3.98449 -1.24679 0
M  V30 2175 H 208.648 -6.4214 1.97751 0
M  V30 2176 N 211.368 -0.403325 -1.52352 0
M  V30 2177 C 212.3 0.4603 -2.2453 0
M  V30 2178 C 213.313 1.01505 -1.27282 0
M  V30 2179 O 214.502 0.914982 -1.53266 0
M  V30 2180 C 211.602 1.65208 -2.95905 0
M  V30 2181 C 210.775 1.22224 -4.19976 0
M  V30 2182 C 209.834 2.28028 -4.74226 0
M  V30 2183 O 208.86 1.88857 -5.36956 0
M  V30 2184 N 210.062 3.6012 -4.55295 0
M  V30 2185 H 212.827 -0.158156 -2.99282 0
M  V30 2186 H 210.388 -0.230402 -1.60252 0
M  V30 2187 H 212.38 2.35541 -3.29093 0
M  V30 2188 H 210.95 2.17658 -2.24374 0
M  V30 2189 H 210.17 0.34725 -3.92668 0
M  V30 2190 H 211.458 0.911924 -5.00561 0
M  V30 2191 H 210.856 3.94698 -4.05253 0
M  V30 2192 H 209.413 4.26447 -4.92936 0
M  V30 2193 N 212.846 1.57033 -0.133567 0
M  V30 2194 C 214.094 1.953 0.519848 0
M  V30 2195 C 214.415 1.01866 1.66278 0
M  V30 2196 O 213.685 0.0776513 1.95746 0
M  V30 2197 H 212.265 0.721091 0.195032 0
M  V30 2198 H 214.927 1.93809 -0.205921 0
M  V30 2199 H 214.023 2.98695 0.904854 0
M  V30 2200 N 214.325 -0.140222 1.56975 0
M  V30 2201 C 215.571 -0.852949 1.83991 0
M  V30 2202 C 215.904 -1.80512 0.716187 0
M  V30 2203 O 215.179 -1.92479 -0.279681 0
M  V30 2204 C 215.462 -1.6215 3.21527 0
M  V30 2205 C 215.315 -0.690363 4.4447 0
M  V30 2206 C 216.634 -2.58247 3.56366 0
M  V30 2207 H 213.753 -0.308634 0.669264 0
M  V30 2208 H 216.395 -0.117898 1.89634 0
M  V30 2209 H 214.545 -2.24812 3.16847 0
M  V30 2210 H 216.217 -0.0742264 4.6124 0
M  V30 2211 H 214.46 -0.000396433 4.338 0
M  V30 2212 H 215.131 -1.2643 5.37326 0
M  V30 2213 H 217.607 -2.05701 3.61699 0
M  V30 2214 H 216.483 -3.09067 4.53617 0
M  V30 2215 H 216.744 -3.39923 2.82674 0
M  V30 2216 N 215.803 -1.52179 -0.40978 0
M  V30 2217 C 217.05 -1.66206 -1.15679 0
M  V30 2218 C 217.378 -0.391674 -1.90516 0
M  V30 2219 O 216.633 0.62533 -1.8544 0
M  V30 2220 C 216.932 -2.83428 -2.17723 0
M  V30 2221 C 216.598 -4.21672 -1.59699 0
M  V30 2222 C 215.26 -4.59274 -1.43599 0
M  V30 2223 C 217.612 -5.07825 -1.17317 0
M  V30 2224 C 214.94 -5.80709 -0.836328 0
M  V30 2225 C 217.292 -6.29864 -0.587691 0
M  V30 2226 C 215.956 -6.66216 -0.413818 0
M  V30 2227 H 215.226 -0.608192 -0.423301 0
M  V30 2228 H 217.873 -1.86279 -0.444097 0
M  V30 2229 H 216.178 -2.57687 -2.95135 0
M  V30 2230 H 217.875 -2.91477 -2.75394 0
M  V30 2231 H 214.465 -3.9204 -1.73213 0
M  V30 2232 H 218.649 -4.79359 -1.28565 0
M  V30 2233 H 213.905 -6.07498 -0.689626 0
M  V30 2234 H 218.079 -6.95948 -0.250894 0
M  V30 2235 H 215.706 -7.60182 0.0529471 0
M  V30 2236 N 217.281 0.66697 -1.42791 0
M  V30 2237 C 218.529 1.42417 -1.43394 0
M  V30 2238 C 218.85 1.94925 -0.0542373 0
M  V30 2239 O 218.12 1.73564 0.908415 0
M  V30 2240 H 216.7 0.528515 -0.527902 0
M  V30 2241 H 219.362 0.787562 -1.78279 0
M  V30 2242 H 218.458 2.27333 -2.13837 0
M  V30 2243 N 218.759 1.29093 0.90403 0
M  V30 2244 C 219.689 1.16401 2.02418 0
M  V30 2245 C 220.67 0.0593085 1.69997 0
M  V30 2246 O 221.855 0.238021 1.92736 0
M  V30 2247 C 218.985 0.835233 3.37107 0
M  V30 2248 C 217.939 1.89578 3.83724 0
M  V30 2249 C 217.265 1.42041 5.15489 0
M  V30 2250 C 218.565 3.30394 4.04521 0
M  V30 2251 H 220.259 2.10109 2.13295 0
M  V30 2252 H 217.805 1.01157 1.02486 0
M  V30 2253 H 219.758 0.733169 4.14973 0
M  V30 2254 H 218.482 -0.137543 3.2631 0
M  V30 2255 H 217.141 1.98715 3.08071 0
M  V30 2256 H 216.789 0.436426 5.01103 0
M  V30 2257 H 216.489 2.12964 5.4765 0
M  V30 2258 H 218.013 1.33176 5.959 0
M  V30 2259 H 219.427 3.24123 4.72882 0
M  V30 2260 H 217.824 3.99237 4.48029 0
M  V30 2261 H 218.894 3.73692 3.09002 0
M  V30 2262 N 220.237 -1.11381 1.11499 0
M  V30 2263 C 221.648 -1.6465 0.880191 0
M  V30 2264 C 221.999 -1.87199 -0.587434 0
M  V30 2265 O 221.124 -1.60667 -1.44966 0
M  V30 2266 C 221.719 -2.99105 1.59128 0
M  V30 2267 C 220.278 -3.49279 1.40289 0
M  V30 2268 C 219.425 -2.24077 1.63354 0
M  V30 2269 H 222.376 -0.950123 1.27116 0
M  V30 2270 H 222.397 -3.66107 1.03664 0
M  V30 2271 H 221.909 -2.82661 2.65941 0
M  V30 2272 H 220.01 -3.70887 0.356888 0
M  V30 2273 H 220.123 -4.2803 2.15238 0
M  V30 2274 H 218.487 -2.31733 1.05698 0
M  V30 2275 H 219.27 -2.10175 2.71443 0
M  V30 2276 N 221.715 -0.905404 -1.28997 0
M  V30 2277 C 223.131 -0.60233 -1.47798 0
M  V30 2278 C 223.331 0.854645 -1.82478 0
M  V30 2279 O 222.387 1.63439 -1.92468 0
M  V30 2280 C 223.7 -1.53306 -2.58685 0
M  V30 2281 C 225.248 -1.53887 -2.72558 0
M  V30 2282 C 225.723 -2.45602 -3.86579 0
M  V30 2283 N 227.214 -2.43681 -3.93921 0
M  V30 2284 C 227.949 -3.11347 -4.81509 0
M  V30 2285 N 227.445 -3.88313 -5.73746 0
M  V30 2286 N 229.238 -3.00476 -4.75048 0
M  V30 2287 H 221.389 -1.84765 -1.04764 0
M  V30 2288 H 223.652 -0.792025 -0.520961 0
M  V30 2289 H 223.358 -2.57141 -2.39941 0
M  V30 2290 H 223.232 -1.25787 -3.55609 0
M  V30 2291 H 225.619 -0.507941 -2.90696 0
M  V30 2292 H 225.7 -1.85447 -1.76191 0
M  V30 2293 H 225.344 -3.48792 -3.69197 0
M  V30 2294 H 225.274 -2.11349 -4.82327 0
M  V30 2295 H 227.765 -1.87767 -3.27951 0
M  V30 2296 H 228.078 -4.36985 -6.37389 0
M  V30 2297 H 226.423 -3.92419 -5.73614 0
M  V30 2298 H 229.614 -2.39858 -4.01977 0
M  V30 2299 H 229.787 -3.53485 -5.43095 0
M  V30 2300 N 223.193 1.4272 -0.668489 0
M  V30 2301 C 224.433 2.03497 -0.19194 0
M  V30 2302 C 224.797 1.51684 1.17712 0
M  V30 2303 O 225.998 2.04205 1.74796 0
M  V30 2304 C 224.269 3.56734 -0.218032 0
M  V30 2305 S 225.828 4.38395 0.188438 0
M  V30 2306 H 222.646 0.706542 -0.0794959 0
M  V30 2307 H 225.248 1.74563 -0.880235 0
M  V30 2308 H 223.952 3.91943 -1.2169 0
M  V30 2309 H 223.483 3.90333 0.490303 0
M  V30 2310 H 225.498 4.75345 1.42345 0
M  V30 2311 N 224.671 0.411399 1.52136 0
M  V30 2312 C 226.082 -0.0576826 1.86611 0
M  V30 2313 C 226.433 -1.44238 1.33003 0
M  V30 2314 O 225.558 -2.05759 0.670228 0
M  V30 2315 C 226.153 -0.111448 3.38617 0
M  V30 2316 C 224.712 -0.52487 3.72723 0
M  V30 2317 C 223.859 0.299176 2.75681 0
M  V30 2318 H 226.81 0.628368 1.4573 0
M  V30 2319 H 226.831 -0.926252 3.69054 0
M  V30 2320 H 226.343 0.896488 3.77604 0
M  V30 2321 H 224.444 -1.53936 3.39315 0
M  V30 2322 H 224.557 -0.267681 4.78352 0
M  V30 2323 H 222.921 -0.238814 2.53578 0
M  V30 2324 H 223.704 1.3055 3.17508 0
M  V30 2325 N 226.149 -1.5696 0.141893 0
M  V30 2326 C 227.397 -1.95573 -0.509484 0
M  V30 2327 C 227.718 -1.02746 -1.65736 0
M  V30 2328 O 226.988 -0.0880311 -1.95702 0
M  V30 2329 H 225.568 -0.722115 -0.191205 0
M  V30 2330 H 228.23 -1.93697 0.216196 0
M  V30 2331 H 227.326 -2.99171 -0.889 0
M  V30 2332 N 227.627 0.131896 -1.57047 0
M  V30 2333 C 228.537 1.1815 -2.02676 0
M  V30 2334 C 229.553 1.46113 -0.944824 0
M  V30 2335 O 230.729 1.57485 -1.25541 0
M  V30 2336 C 227.794 2.49139 -2.41103 0
M  V30 2337 C 226.855 2.28688 -3.63318 0
M  V30 2338 C 226.088 3.53431 -3.99903 0
M  V30 2339 O 226.311 4.60223 -3.36973 0
M  V30 2340 O 225.245 3.45198 -4.93074 0
M  V30 2341 H 229.071 0.824069 -2.92306 0
M  V30 2342 H 226.656 0.341745 -1.45439 0
M  V30 2343 H 228.538 3.26338 -2.66611 0
M  V30 2344 H 227.213 2.84382 -1.54624 0
M  V30 2345 H 226.12 1.4939 -3.42977 0
M  V30 2346 H 227.453 1.98355 -4.50462 0
M  V30 2347 N 229.106 1.52395 0.401703 0
M  V30 2348 C 230.331 1.70972 1.17403 0
M  V30 2349 C 230.756 0.421615 1.83314 0
M  V30 2350 O 230.114 -0.621564 1.70312 0
M  V30 2351 C 230.162 2.85151 2.20728 0
M  V30 2352 O 229.266 2.51238 3.27037 0
M  V30 2353 H 228.607 0.568927 0.342372 0
M  V30 2354 H 231.137 1.99131 0.469891 0
M  V30 2355 H 231.147 3.10279 2.64936 0
M  V30 2356 H 229.822 3.78603 1.7214 0
M  V30 2357 H 228.399 2.36808 2.88057 0
M  V30 2358 N 230.584 -0.659388 1.43143 0
M  V30 2359 C 231.809 -1.45221 1.48073 0
M  V30 2360 C 232.234 -1.87845 0.097995 0
M  V30 2361 O 231.592 -1.56985 -0.90694 0
M  V30 2362 C 231.64 -2.66748 2.42647 0
M  V30 2363 O 230.744 -3.65583 1.90848 0
M  V30 2364 H 230.085 -0.435669 0.501088 0
M  V30 2365 H 232.615 -0.807432 1.87994 0
M  V30 2366 H 232.625 -3.14637 2.59745 0
M  V30 2367 H 231.3 -2.35067 3.43098 0
M  V30 2368 H 229.877 -3.24693 1.83381 0
M  V30 2369 N 232.062 -1.29571 -0.897171 0
M  V30 2370 C 233.012 -1.11539 -1.98855 0
M  V30 2371 C 233.996 -0.0340716 -1.60864 0
M  V30 2372 O 235.188 -0.256062 -1.75138 0
M  V30 2373 C 232.317 -0.796603 -3.3393 0
M  V30 2374 C 231.403 -1.91758 -3.78272 0
M  V30 2375 N 231.794 -3.16143 -3.94826 0
M  V30 2376 C 230.092 -1.81119 -4.07568 0
M  V30 2377 C 230.793 -3.89293 -4.32233 0
M  V30 2378 N 229.769 -3.17255 -4.41419 0
M  V30 2379 H 233.571 -2.05894 -2.09726 0
M  V30 2380 H 231.085 -1.20732 -1.08616 0
M  V30 2381 H 233.082 -0.648459 -4.11826 0
M  V30 2382 H 231.742 0.139003 -3.24402 0
M  V30 2383 H 232.753 -3.5157 -3.80288 0
M  V30 2384 H 229.43 -0.948461 -4.06584 0
M  V30 2385 H 230.82 -4.9635 -4.52865 0
M  V30 2386 N 233.54 1.10788 -1.12088 0
M  V30 2387 C 234.789 1.82036 -0.868659 0
M  V30 2388 C 235.102 1.85929 0.607426 0
M  V30 2389 O 236.308 2.53346 0.97613 0
M  V30 2390 C 234.764 3.26951 -1.50435 0
M  V30 2391 C 234.372 3.31367 -3.01496 0
M  V30 2392 C 236.116 4.03053 -1.33225 0
M  V30 2393 C 234.023 4.7072 -3.58017 0
M  V30 2394 H 232.953 0.682108 -0.321318 0
M  V30 2395 H 235.604 1.24618 -1.34694 0
M  V30 2396 H 233.986 3.84343 -0.953735 0
M  V30 2397 H 235.16 2.83819 -3.6302 0
M  V30 2398 H 233.475 2.6875 -3.18061 0
M  V30 2399 H 236.072 5.05981 -1.72878 0
M  V30 2400 H 236.415 4.15387 -0.275529 0
M  V30 2401 H 236.948 3.52066 -1.85188 0
M  V30 2402 H 233.687 4.63585 -4.63432 0
M  V30 2403 H 233.207 5.1865 -3.01268 0
M  V30 2404 H 234.886 5.39685 -3.56859 0
M  V30 2405 N 235.018 0.912232 1.28515 0
M  V30 2406 C 236.258 0.551677 1.96814 0
M  V30 2407 C 236.622 -0.887825 1.7024 0
M  V30 2408 O 237.823 -1.35588 2.32098 0
M  V30 2409 C 236.094 0.850555 3.47132 0
M  V30 2410 S 237.653 0.59619 4.34731 0
M  V30 2411 H 234.471 0.204191 0.681049 0
M  V30 2412 H 237.073 1.17736 1.56072 0
M  V30 2413 H 235.777 1.8962 3.63968 0
M  V30 2414 H 235.308 0.213471 3.9282 0
M  V30 2415 H 237.323 -0.553154 4.93107 0
M  V30 2416 N 236.496 -1.42363 0.676048 0
M  V30 2417 C 237.773 -1.95183 0.127726 0
M  V30 2418 C 238.153 -1.61641 -1.35777 0
M  V30 2419 O 237.501 -0.913216 -2.09458 0
M  V30 2420 C 237.711 -3.46721 0.398199 0
M  V30 2421 C 239.059 -4.23427 0.315383 0
M  V30 2422 O 240.083 -3.54649 0.332016 0
M  V30 2423 O 238.942 -5.45888 0.25865 0
M  V30 2424 H 236.036 -0.826992 0.00359427 0
M  V30 2425 H 238.582 -1.52184 0.750864 0
M  V30 2426 H 237.354 -3.64344 1.4272 0
M  V30 2427 H 236.977 -3.96769 -0.256885 0
M  V30 2428 N 237.974 -0.419461 -1.51915 0
M  V30 2429 C 239.221 0.152939 -2.01922 0
M  V30 2430 C 239.549 1.4426 -1.30458 0
M  V30 2431 O 238.804 1.91514 -0.402593 0
M  V30 2432 C 239.103 0.437067 -3.54717 0
M  V30 2433 C 238.769 -0.764632 -4.44369 0
M  V30 2434 C 237.431 -1.09423 -4.68594 0
M  V30 2435 C 239.783 -1.56713 -4.97082 0
M  V30 2436 C 237.111 -2.22732 -5.42777 0
M  V30 2437 C 239.463 -2.69107 -5.72507 0
M  V30 2438 C 238.127 -3.02541 -5.95 0
M  V30 2439 H 237.397 0.0559644 -0.738884 0
M  V30 2440 H 240.044 -0.562998 -1.83037 0
M  V30 2441 H 238.349 1.23469 -3.71837 0
M  V30 2442 H 240.046 0.893083 -3.90928 0
M  V30 2443 H 236.636 -0.497775 -4.257 0
M  V30 2444 H 240.82 -1.32571 -4.78266 0
M  V30 2445 H 236.076 -2.48971 -5.58411 0
M  V30 2446 H 240.25 -3.31671 -6.12346 0
M  V30 2447 H 237.877 -3.90457 -6.52264 0
M  V30 2448 N 239.452 1.56882 -0.150215 0
M  V30 2449 C 240.701 1.95403 0.500071 0
M  V30 2450 C 241.014 1.03777 1.658 0
M  V30 2451 O 242.22 1.31889 2.37313 0
M  V30 2452 C 240.676 3.4738 0.941018 0
M  V30 2453 C 240.284 4.47596 -0.190158 0
M  V30 2454 C 242.028 3.9476 1.56091 0
M  V30 2455 C 239.935 5.90787 0.269237 0
M  V30 2456 H 238.865 0.729515 0.190588 0
M  V30 2457 H 241.516 1.81988 -0.235074 0
M  V30 2458 H 239.898 3.56138 1.73152 0
M  V30 2459 H 241.072 4.50536 -0.967157 0
M  V30 2460 H 239.387 4.10151 -0.718666 0
M  V30 2461 H 241.984 4.99181 1.9163 0
M  V30 2462 H 242.327 3.36494 2.45107 0
M  V30 2463 H 242.86 3.88932 0.835249 0
M  V30 2464 H 239.599 6.52879 -0.585621 0
M  V30 2465 H 239.119 5.912 1.01204 0
M  V30 2466 H 240.798 6.42979 0.720176 0
M  V30 2467 N 240.93 -0.123565 1.57115 0
M  V30 2468 C 242.346 -0.476961 1.52306 0
M  V30 2469 C 242.546 -1.82109 0.86248 0
M  V30 2470 O 241.602 -2.48586 0.442884 0
M  V30 2471 C 242.915 -0.465661 2.97073 0
M  V30 2472 C 244.463 -0.549534 3.08138 0
M  V30 2473 C 244.938 -0.568669 4.54456 0
M  V30 2474 N 246.429 -0.630237 4.58892 0
M  V30 2475 C 247.164 -0.666415 5.69514 0
M  V30 2476 N 246.66 -0.660514 6.89644 0
M  V30 2477 N 248.453 -0.709077 5.5761 0
M  V30 2478 H 240.604 0.757198 1.98445 0
M  V30 2479 H 242.867 0.278808 0.906074 0
M  V30 2480 H 242.573 0.454232 3.48754 0
M  V30 2481 H 242.447 -1.29513 3.54269 0
M  V30 2482 H 244.834 -1.45985 2.56461 0
M  V30 2483 H 244.915 0.307532 2.53945 0
M  V30 2484 H 244.559 0.337581 5.06777 0
M  V30 2485 H 244.489 -1.44256 5.06456 0
M  V30 2486 H 246.98 -0.641146 3.72421 0
M  V30 2487 H 247.293 -0.690616 7.69708 0
M  V30 2488 H 245.638 -0.628012 6.92157 0
M  V30 2489 H 248.829 -0.711019 4.62668 0
M  V30 2490 H 249.002 -0.733804 6.43832 0
M  V30 2491 N 242.408 -1.52605 -0.393616 0
M  V30 2492 C 243.355 -1.77055 -1.48054 0
M  V30 2493 C 244.325 -0.61358 -1.54352 0
M  V30 2494 O 245.51 -0.852806 -1.70681 0
M  V30 2495 C 242.65 -1.94108 -2.85335 0
M  V30 2496 C 241.763 -3.21792 -2.88226 0
M  V30 2497 C 240.898 -3.29188 -4.16904 0
M  V30 2498 C 239.937 -4.51013 -4.13828 0
M  V30 2499 N 239.074 -4.55716 -5.34105 0
M  V30 2500 H 243.914 -2.69815 -1.26506 0
M  V30 2501 H 241.451 -1.33683 -0.61379 0
M  V30 2502 H 243.409 -2.01979 -3.65049 0
M  V30 2503 H 242.039 -1.04713 -3.05344 0
M  V30 2504 H 241.091 -3.23015 -2.00911 0
M  V30 2505 H 242.403 -4.11557 -2.8182 0
M  V30 2506 H 241.557 -3.36216 -5.05018 0
M  V30 2507 H 240.296 -2.37389 -4.26026 0
M  V30 2508 H 239.301 -4.44115 -3.24102 0
M  V30 2509 H 240.526 -5.44123 -4.06333 0
M  V30 2510 H 238.472 -3.66807 -5.43865 0
M  V30 2511 H 238.389 -5.39346 -5.29756 0
M  V30 2512 H 239.657 -4.66993 -6.2413 0
M  V30 2513 N 243.887 0.651787 -1.4349 0
M  V30 2514 C 245.115 1.43937 -1.48626 0
M  V30 2515 C 245.53 1.8851 -0.104587 0
M  V30 2516 O 244.887 1.5958 0.885464 0
M  V30 2517 C 244.938 2.6734 -2.43334 0
M  V30 2518 O 244.659 2.24631 -3.76128 0
M  V30 2519 C 246.16 3.60683 -2.57726 0
M  V30 2520 H 243.38 0.44213 -0.504739 0
M  V30 2521 H 245.924 0.798944 -1.88248 0
M  V30 2522 H 244.079 3.2752 -2.06904 0
M  V30 2523 H 244.493 3.04485 -4.2707 0
M  V30 2524 H 245.967 4.43933 -3.28067 0
M  V30 2525 H 246.444 4.08126 -1.62265 0
M  V30 2526 H 247.05 3.06384 -2.94973 0
M  V30 2527 N 245.365 1.30045 0.890287 0
M  V30 2528 C 246.295 1.18541 2.01172 0
M  V30 2529 C 247.276 0.0773356 1.69924 0
M  V30 2530 O 248.461 0.25845 1.92473 0
M  V30 2531 C 245.591 0.870941 3.36202 0
M  V30 2532 C 244.545 1.93637 3.81692 0
M  V30 2533 C 243.871 1.475 5.13953 0
M  V30 2534 C 245.171 3.34666 4.00994 0
M  V30 2535 H 246.865 2.12359 2.11054 0
M  V30 2536 H 244.411 1.02238 1.01407 0
M  V30 2537 H 246.364 0.777141 4.14172 0
M  V30 2538 H 245.088 -0.102926 3.26438 0
M  V30 2539 H 243.747 2.01972 3.05946 0
M  V30 2540 H 243.395 0.489551 5.00612 0
M  V30 2541 H 243.095 2.1876 5.4536 0
M  V30 2542 H 244.619 1.39489 5.94454 0
M  V30 2543 H 246.033 3.2912 4.69417 0
M  V30 2544 H 244.43 4.03966 4.43769 0
M  V30 2545 H 245.5 3.76949 3.05021 0
M  V30 2546 N 246.843 -1.10192 1.12674 0
M  V30 2547 C 247.791 -2.18694 0.792196 0
M  V30 2548 C 248.785 -1.67938 -0.222058 0
M  V30 2549 O 249.991 -1.79822 -0.0800074 0
M  V30 2550 H 246.366 -0.713223 0.238364 0
M  V30 2551 H 248.337 -2.44149 1.71564 0
M  V30 2552 C 247.086 -3.46682 0.265859 0
M  V30 2553 H 246.409 -3.86101 1.03761 0
M  V30 2554 H 247.849 -4.23942 0.0701128 0
M  V30 2555 C 246.308 -3.21506 -1.00675 0
M  V30 2556 O 246.838 -3.43408 -2.08408 0
M  V30 2557 N 245.044 -2.75158 -0.934692 0
M  V30 2558 H 244.591 -2.57535 -0.0578604 0
M  V30 2559 H 244.549 -2.58691 -1.7868 0
M  V30 2560 N 248.321 -0.919034 -1.28029 0
M  V30 2561 C 249.284 -0.416182 -2.2539 0
M  V30 2562 C 250.284 0.460438 -1.54067 0
M  V30 2563 O 251.474 0.262744 -1.72207 0
M  V30 2564 C 248.606 0.402707 -3.38513 0
M  V30 2565 H 249.799 -1.27629 -2.71387 0
M  V30 2566 H 247.352 -0.698919 -1.39803 0
M  V30 2567 H 248.087 1.282 -2.97885 0
M  V30 2568 H 247.872 -0.225698 -3.9145 0
M  V30 2569 H 249.362 0.745191 -4.10897 0
M  V30 2570 N 249.799 1.42003 -0.683588 0
M  V30 2571 C 251.047 2.01015 -0.209101 0
M  V30 2572 C 251.368 1.54365 1.19149 0
M  V30 2573 O 250.638 0.769083 1.80172 0
M  V30 2574 H 249.218 0.743294 -0.074315 0
M  V30 2575 H 251.88 1.73798 -0.882066 0
M  V30 2576 H 250.976 3.11343 -0.2172 0
M  V30 2577 N 251.277 0.427512 1.51691 0
M  V30 2578 C 252.24 -0.377132 2.26076 0
M  V30 2579 C 253.24 -0.958089 1.29141 0
M  V30 2580 O 254.43 -0.83408 1.52934 0
M  V30 2581 C 251.562 -1.53262 3.04506 0
M  V30 2582 H 252.755 0.27464 2.9864 0
M  V30 2583 H 250.308 0.180445 1.55255 0
M  V30 2584 H 251.043 -2.22072 2.36335 0
M  V30 2585 H 250.828 -1.12232 3.75694 0
M  V30 2586 H 252.318 -2.10135 3.60878 0
M  V30 2587 N 252.755 -1.56801 0.158532 0
M  V30 2588 C 253.985 -2.00568 -0.495583 0
M  V30 2589 C 254.393 -1.03774 -1.58201 0
M  V30 2590 O 253.736 -0.0285797 -1.83678 0
M  V30 2591 C 253.798 -3.40768 -1.14532 0
M  V30 2592 C 253.462 -4.56553 -0.202101 0
M  V30 2593 C 254.459 -5.16714 0.574675 0
M  V30 2594 C 252.144 -5.02197 -0.101648 0
M  V30 2595 C 254.138 -6.20939 1.43924 0
M  V30 2596 C 251.825 -6.06274 0.766508 0
M  V30 2597 C 252.823 -6.65515 1.53555 0
M  V30 2598 O 252.511 -7.67575 2.38922 0
M  V30 2599 H 252.243 -0.662893 -0.13247 0
M  V30 2600 H 254.797 -2.03829 0.253559 0
M  V30 2601 H 253.027 -3.34381 -1.94233 0
M  V30 2602 H 254.716 -3.6857 -1.70033 0
M  V30 2603 H 255.482 -4.82341 0.507167 0
M  V30 2604 H 251.361 -4.55807 -0.689994 0
M  V30 2605 H 254.905 -6.67107 2.03996 0
M  V30 2606 H 250.802 -6.40073 0.835266 0
M  V30 2607 H 251.57 -7.84844 2.32296 0
M  V30 2608 N 254.233 0.115231 -1.57178 0
M  V30 2609 C 255.458 0.840354 -1.89612 0
M  V30 2610 C 255.883 1.72464 -0.750845 0
M  V30 2611 O 255.241 1.78826 0.298478 0
M  V30 2612 C 255.289 1.64654 -3.20814 0
M  V30 2613 O 254.393 2.7538 -3.06985 0
M  V30 2614 H 253.734 0.232158 -0.622092 0
M  V30 2615 H 256.264 0.0964977 -2.04372 0
M  V30 2616 H 256.274 2.03499 -3.53627 0
M  V30 2617 H 254.949 0.997416 -4.03763 0
M  V30 2618 H 253.526 2.3971 -2.85646 0
M  V30 2619 N 255.711 1.52812 0.385517 0
M  V30 2620 C 256.658 1.77838 1.47113 0
M  V30 2621 C 257.628 0.621757 1.54024 0
M  V30 2622 O 258.813 0.861846 1.70226 0
M  V30 2623 C 255.953 1.95618 2.84302 0
M  V30 2624 C 255.066 3.23316 2.86515 0
M  V30 2625 C 254.201 3.31394 4.15152 0
M  V30 2626 C 253.24 4.53201 4.1143 0
M  V30 2627 N 252.377 4.58542 5.3168 0
M  V30 2628 H 257.217 2.70482 1.25073 0
M  V30 2629 H 254.754 1.34006 0.606692 0
M  V30 2630 H 256.712 2.03912 3.63972 0
M  V30 2631 H 255.342 1.06331 3.04784 0
M  V30 2632 H 254.394 3.24076 1.99195 0
M  V30 2633 H 255.706 4.13045 2.79634 0
M  V30 2634 H 254.86 3.3889 5.03228 0
M  V30 2635 H 253.599 2.39645 4.24761 0
M  V30 2636 H 252.604 4.45827 3.21742 0
M  V30 2637 H 253.829 5.46271 4.03442 0
M  V30 2638 H 251.775 3.69686 5.41912 0
M  V30 2639 H 251.692 5.42148 5.26889 0
M  V30 2640 H 252.96 4.70296 6.21644 0
M  V30 2641 N 257.189 -0.644168 1.43834 0
M  V30 2642 C 258.435 -1.40603 1.46146 0
M  V30 2643 C 258.768 -1.93997 0.0887717 0
M  V30 2644 O 258.043 -1.72854 -0.891724 0
M  V30 2645 C 258.326 -2.58086 2.51124 0
M  V30 2646 C 258.179 -2.10126 3.97702 0
M  V30 2647 C 259.498 -3.60291 2.52742 0
M  V30 2648 H 256.617 -0.509905 0.532134 0
M  V30 2649 H 259.259 -0.729502 1.75437 0
M  V30 2650 H 257.409 -3.15801 2.26278 0
M  V30 2651 H 259.081 -1.57342 4.33637 0
M  V30 2652 H 257.324 -1.41419 4.10101 0
M  V30 2653 H 257.995 -2.94649 4.66783 0
M  V30 2654 H 260.471 -3.12352 2.7491 0
M  V30 2655 H 259.347 -4.40032 3.28121 0
M  V30 2656 H 259.608 -4.1349 1.56455 0
M  V30 2657 N 258.668 -1.30515 -0.883378 0
M  V30 2658 C 259.914 -1.19607 -1.63774 0
M  V30 2659 C 260.247 0.248314 -1.92606 0
M  V30 2660 O 259.522 1.17742 -1.54813 0
M  V30 2661 C 259.805 -2.02669 -2.97653 0
M  V30 2662 C 259.658 -3.55335 -2.75784 0
M  V30 2663 C 260.977 -1.86573 -3.98596 0
M  V30 2664 H 258.096 -0.435856 -0.594305 0
M  V30 2665 H 260.738 -1.60165 -1.02212 0
M  V30 2666 H 258.888 -1.68208 -3.50197 0
M  V30 2667 H 260.56 -3.99863 -2.30016 0
M  V30 2668 H 258.803 -3.79438 -2.1026 0
M  V30 2669 H 259.474 -4.08745 -3.70988 0
M  V30 2670 H 261.95 -2.16703 -3.55217 0
M  V30 2671 H 260.826 -2.47014 -4.90179 0
M  V30 2672 H 261.087 -0.825321 -4.34328 0
M  V30 2673 N 260.146 1.09593 -1.13257 0
M  V30 2674 C 261.078 2.16015 -0.766167 0
M  V30 2675 C 262.091 1.61423 0.211303 0
M  V30 2676 O 263.28 1.78498 -0.00863946 0
M  V30 2677 C 260.38 3.38706 -0.114662 0
M  V30 2678 C 259.553 4.22717 -1.12379 0
M  V30 2679 C 258.612 5.23835 -0.498301 0
M  V30 2680 O 257.638 5.573 -1.15781 0
M  V30 2681 N 258.84 5.75886 0.730417 0
M  V30 2682 H 261.605 2.48055 -1.68193 0
M  V30 2683 H 259.166 1.25292 -1.02535 0
M  V30 2684 H 261.158 4.03464 0.315991 0
M  V30 2685 H 259.728 3.04569 0.704011 0
M  V30 2686 H 258.948 3.54122 -1.73179 0
M  V30 2687 H 260.236 4.75673 -1.80589 0
M  V30 2688 H 259.634 5.50911 1.28504 0
M  V30 2689 H 258.191 6.42387 1.10376 0
M  V30 2690 N 261.624 0.925811 1.2754 0
M  V30 2691 C 262.534 0.428993 2.30644 0
M  V30 2692 C 263.55 -0.489387 1.66976 0
M  V30 2693 O 264.726 -0.372653 1.97922 0
M  V30 2694 C 261.791 -0.311967 3.45294 0
M  V30 2695 C 260.852 0.641098 4.24486 0
M  V30 2696 C 260.085 -0.0645955 5.33661 0
M  V30 2697 O 260.308 -1.28429 5.55754 0
M  V30 2698 O 259.242 0.606265 5.98839 0
M  V30 2699 H 263.068 1.28504 2.75173 0
M  V30 2700 H 260.653 0.691086 1.32455 0
M  V30 2701 H 262.535 -0.729972 4.15029 0
M  V30 2702 H 261.21 -1.14365 3.02824 0
M  V30 2703 H 260.117 1.10874 3.57292 0
M  V30 2704 H 261.45 1.43995 4.70666 0
M  V30 2705 N 263.102 -1.41638 0.69111 0
M  V30 2706 C 264.518 -1.55435 0.362224 0
M  V30 2707 C 264.718 -1.66754 -1.13117 0
M  V30 2708 O 263.774 -1.64348 -1.91692 0
M  V30 2709 C 265.087 -2.79588 1.10684 0
M  V30 2710 C 266.635 -2.9338 1.09075 0
M  V30 2711 C 267.11 -4.20414 1.81703 0
M  V30 2712 N 268.601 -4.27362 1.7865 0
M  V30 2713 C 269.336 -5.24507 2.31689 0
M  V30 2714 N 268.832 -6.27708 2.93179 0
M  V30 2715 N 270.625 -5.16416 2.2197 0
M  V30 2716 H 262.776 -1.32536 1.65976 0
M  V30 2717 H 265.039 -0.639115 0.700168 0
M  V30 2718 H 264.745 -2.77419 2.16175 0
M  V30 2719 H 264.619 -3.70973 0.682545 0
M  V30 2720 H 267.006 -2.95067 0.0441238 0
M  V30 2721 H 267.087 -2.0318 1.55407 0
M  V30 2722 H 266.731 -4.19488 2.86343 0
M  V30 2723 H 266.661 -5.09578 1.32808 0
M  V30 2724 H 269.152 -3.53415 1.33815 0
M  V30 2725 H 269.465 -6.98217 3.31229 0
M  V30 2726 H 267.81 -6.28223 2.97255 0
M  V30 2727 H 271.001 -4.34716 1.73607 0
M  V30 2728 H 271.174 -5.91958 2.63609 0
M  V30 2729 N 264.58 -0.43555 -1.51462 0
M  V30 2730 C 265.51 0.367376 -2.30592 0
M  V30 2731 C 266.491 1.02263 -1.35928 0
M  V30 2732 O 267.676 1.02661 -1.64847 0
M  V30 2733 C 264.806 1.46983 -3.14664 0
M  V30 2734 C 263.76 0.938161 -4.17591 0
M  V30 2735 C 263.086 2.13622 -4.90173 0
M  V30 2736 C 264.386 -0.0261621 -5.22293 0
M  V30 2737 H 266.08 -0.292969 -2.97963 0
M  V30 2738 H 263.626 -0.14234 -1.43295 0
M  V30 2739 H 265.579 2.03873 -3.688 0
M  V30 2740 H 264.303 2.15843 -2.4511 0
M  V30 2741 H 262.962 0.391481 -3.64504 0
M  V30 2742 H 262.61 2.81098 -4.17124 0
M  V30 2743 H 262.31 1.78688 -5.59772 0
M  V30 2744 H 263.834 2.7107 -5.47132 0
M  V30 2745 H 265.248 0.452384 -5.71512 0
M  V30 2746 H 263.645 -0.287992 -5.99409 0
M  V30 2747 H 264.715 -0.963391 -4.75233 0
M  V30 2748 N 266.058 1.56714 -0.166846 0
M  V30 2749 C 267.304 1.97039 0.479962 0
M  V30 2750 C 267.637 1.05264 1.63197 0
M  V30 2751 O 266.912 0.0988833 1.94248 0
M  V30 2752 C 267.195 3.46867 0.967212 0
M  V30 2753 C 267.048 4.49421 -0.18466 0
M  V30 2754 C 268.367 3.9968 1.84238 0
M  V30 2755 H 265.486 0.71641 0.172992 0
M  V30 2756 H 268.128 1.8832 -0.252079 0
M  V30 2757 H 266.278 3.54428 1.59101 0
M  V30 2758 H 267.95 4.53924 -0.821621 0
M  V30 2759 H 266.193 4.25573 -0.840837 0
M  V30 2760 H 266.864 5.51644 0.198317 0
M  V30 2761 H 269.34 3.94723 1.31655 0
M  V30 2762 H 268.216 5.04941 2.15234 0
M  V30 2763 H 268.477 3.43226 2.78654 0
M  V30 2764 N 267.536 -0.106894 1.57237 0
M  V30 2765 C 268.468 -1.15646 1.97885 0
M  V30 2766 C 269.481 -1.36981 0.879779 0
M  V30 2767 O 270.67 -1.35841 1.15799 0
M  V30 2768 C 267.77 -2.51425 2.27241 0
M  V30 2769 C 266.943 -2.50529 3.58545 0
M  V30 2770 C 266.002 -3.68145 3.75973 0
M  V30 2771 O 265.028 -3.51176 4.47956 0
M  V30 2772 N 266.23 -4.87177 3.15656 0
M  V30 2773 H 268.995 -0.81059 2.8853 0
M  V30 2774 H 266.556 -0.296024 1.59171 0
M  V30 2775 H 268.548 -3.28689 2.36105 0
M  V30 2776 H 267.118 -2.78147 1.42663 0
M  V30 2777 H 266.338 -1.58894 3.60758 0
M  V30 2778 H 267.626 -2.46997 4.44826 0
M  V30 2779 H 267.024 -5.03868 2.57165 0
M  V30 2780 H 265.581 -5.62075 3.30023 0
M  V30 2781 N 269.014 -1.53014 -0.377408 0
M  V30 2782 C 269.977 -1.77957 -1.44444 0
M  V30 2783 C 270.977 -0.649763 -1.47087 0
M  V30 2784 O 272.167 -0.917897 -1.48055 0
M  V30 2785 C 269.299 -1.89089 -2.83651 0
M  V30 2786 H 270.492 -2.73243 -1.23606 0
M  V30 2787 H 268.045 -1.43912 -0.609844 0
M  V30 2788 H 268.78 -0.958293 -3.09818 0
M  V30 2789 H 268.565 -2.71254 -2.83132 0
M  V30 2790 H 270.055 -2.1002 -3.60945 0
M  V30 2791 N 270.492 0.636531 -1.44174 0
M  V30 2792 C 271.402 1.77754 -1.53103 0
M  V30 2793 C 272.418 1.68928 -0.417034 0
M  V30 2794 O 273.594 1.89801 -0.6736 0
M  V30 2795 C 270.659 3.14115 -1.46741 0
M  V30 2796 C 269.72 3.34612 -2.68948 0
M  V30 2797 C 268.953 4.64467 -2.6288 0
M  V30 2798 O 269.176 5.44919 -1.68581 0
M  V30 2799 O 268.11 4.87049 -3.53648 0
M  V30 2800 H 271.936 1.73174 -2.49489 0
M  V30 2801 H 269.521 0.79709 -1.2636 0
M  V30 2802 H 271.403 3.95412 -1.45696 0
M  V30 2803 H 270.078 3.19249 -0.534975 0
M  V30 2804 H 268.985 2.53014 -2.75562 0
M  V30 2805 H 270.318 3.34336 -3.61221 0
M  V30 2806 N 271.97 1.30982 0.876444 0
M  V30 2807 C 273.2 1.23063 1.65949 0
M  V30 2808 C 273.608 -0.207537 1.88058 0
M  V30 2809 O 272.951 -1.14781 1.43426 0
M  V30 2810 C 273.013 1.89768 3.05333 0
M  V30 2811 C 272.677 3.39106 3.0636 0
M  V30 2812 C 273.674 4.3496 2.84791 0
M  V30 2813 C 271.359 3.80693 3.27686 0
M  V30 2814 C 273.353 5.70375 2.84519 0
M  V30 2815 C 271.04 5.16223 3.27043 0
M  V30 2816 C 272.038 6.10875 3.05485 0
M  V30 2817 O 271.726 7.43928 3.04674 0
M  V30 2818 H 271.458 0.426685 0.524324 0
M  V30 2819 H 274.012 1.7329 1.10271 0
M  V30 2820 H 272.242 1.34082 3.6271 0
M  V30 2821 H 273.931 1.75853 3.65829 0
M  V30 2822 H 274.697 4.0416 2.68103 0
M  V30 2823 H 270.576 3.07457 3.43499 0
M  V30 2824 H 274.12 6.44228 2.67611 0
M  V30 2825 H 270.017 5.4666 3.43269 0
M  V30 2826 H 270.785 7.53022 3.2078 0
M  V30 2827 N 273.449 -1.08991 1.13837 0
M  V30 2828 C 274.695 -1.81699 0.91417 0
M  V30 2829 C 275.05 -1.84264 -0.553594 0
M  V30 2830 O 274.343 -1.30313 -1.4046 0
M  V30 2831 C 274.537 -3.27042 1.44147 0
M  V30 2832 C 274.366 -3.38637 2.95897 0
M  V30 2833 C 273.136 -3.50177 3.64286 0
M  V30 2834 C 275.334 -3.30791 3.93804 0
M  V30 2835 N 273.316 -3.50501 5.04006 0
M  V30 2836 C 274.687 -3.38037 5.19741 0
M  V30 2837 C 276.742 -3.14488 3.86007 0
M  V30 2838 C 275.445 -3.30659 6.38793 0
M  V30 2839 C 277.471 -3.08438 5.04599 0
M  V30 2840 C 276.833 -3.1628 6.29402 0
M  V30 2841 H 272.932 -0.678967 0.387979 0
M  V30 2842 H 275.516 -1.30224 1.4474 0
M  V30 2843 H 273.687 -3.76976 0.935091 0
M  V30 2844 H 275.419 -3.87785 1.1578 0
M  V30 2845 H 272.174 -3.53815 3.1482 0
M  V30 2846 H 272.598 -3.54236 5.76928 0
M  V30 2847 H 277.24 -3.07291 2.90399 0
M  V30 2848 H 274.958 -3.36618 7.34652 0
M  V30 2849 H 278.544 -2.96952 5.0031 0
M  V30 2850 H 277.424 -3.1162 7.19627 0
M  V30 2851 N 274.927 -0.932562 -1.27047 0
M  V30 2852 C 275.877 -0.406392 -2.24349 0
M  V30 2853 C 276.861 0.492066 -1.53191 0
M  V30 2854 O 278.053 0.328717 -1.73921 0
M  V30 2855 C 275.182 0.335214 -3.41659 0
M  V30 2856 C 274.268 -0.58004 -4.20115 0
M  V30 2857 N 274.659 -1.70203 -4.76303 0
M  V30 2858 C 272.957 -0.383974 -4.44344 0
M  V30 2859 C 273.658 -2.27167 -5.35509 0
M  V30 2860 N 272.634 -1.56068 -5.20715 0
M  V30 2861 H 276.436 -1.26299 -2.65378 0
M  V30 2862 H 273.95 -0.787408 -1.42034 0
M  V30 2863 H 275.947 0.729142 -4.10474 0
M  V30 2864 H 274.607 1.18868 -3.0216 0
M  V30 2865 H 275.618 -2.08433 -4.74106 0
M  V30 2866 H 272.295 0.428436 -4.15296 0
M  V30 2867 H 273.685 -3.21654 -5.89905 0
M  V30 2868 N 276.405 1.4127 -0.698611 0
M  V30 2869 C 277.682 1.94955 -0.158762 0
M  V30 2870 C 278.062 1.63781 1.33188 0
M  V30 2871 O 277.41 0.946423 2.07979 0
M  V30 2872 C 277.62 3.46044 -0.453309 0
M  V30 2873 C 278.968 4.22872 -0.382707 0
M  V30 2874 O 279.992 3.54076 -0.388396 0
M  V30 2875 O 278.851 5.45407 -0.345463 0
M  V30 2876 H 275.945 0.82683 -0.0167505 0
M  V30 2877 H 278.491 1.50971 -0.77498 0
M  V30 2878 H 277.263 3.62028 -1.48498 0
M  V30 2879 H 276.886 3.97128 0.19373 0
M  V30 2880 N 277.883 0.443576 1.51229 0
M  V30 2881 C 279.294 -0.0180867 1.86691 0
M  V30 2882 C 279.645 -1.41384 1.36033 0
M  V30 2883 O 278.77 -2.04291 0.713722 0
M  V30 2884 C 279.365 -0.039597 3.38777 0
M  V30 2885 C 277.924 -0.445692 3.73752 0
M  V30 2886 C 277.071 0.357584 2.74985 0
M  V30 2887 H 280.022 0.659138 1.44364 0
M  V30 2888 H 280.043 -0.847761 3.70936 0
M  V30 2889 H 279.555 0.976382 3.75617 0
M  V30 2890 H 277.656 -1.46704 3.42503 0
M  V30 2891 H 277.769 -0.166155 4.78812 0
M  V30 2892 H 276.133 -0.184973 2.54027 0
M  V30 2893 H 276.916 1.37256 3.14668 0
M  V30 2894 N 279.361 -1.56624 0.175154 0
M  V30 2895 C 280.61 -1.96173 -0.468921 0
M  V30 2896 C 280.923 -1.06401 -1.64128 0
M  V30 2897 O 282.129 -1.35648 -2.35185 0
M  V30 2898 C 280.585 -3.48833 -0.885633 0
M  V30 2899 C 280.193 -4.47237 0.261343 0
M  V30 2900 C 281.937 -3.97194 -1.49791 0
M  V30 2901 C 279.844 -5.9114 -0.175214 0
M  V30 2902 H 278.774 -0.732455 -0.178958 0
M  V30 2903 H 281.425 -1.81591 0.263997 0
M  V30 2904 H 279.807 -3.58848 -1.67464 0
M  V30 2905 H 280.981 -4.4894 1.03871 0
M  V30 2906 H 279.296 -4.08956 0.783827 0
M  V30 2907 H 281.893 -5.02167 -1.83665 0
M  V30 2908 H 282.236 -3.40351 -2.39722 0
M  V30 2909 H 282.769 -3.90212 -0.773267 0
M  V30 2910 H 279.508 -6.51865 0.689414 0
M  V30 2911 H 279.028 -5.92735 -0.91786 0
M  V30 2912 H 280.707 -6.44044 -0.617792 0
M  V30 2913 N 280.839 0.0985539 -1.57292 0
M  V30 2914 C 281.786 1.11981 -2.01814 0
M  V30 2915 C 282.756 1.39999 -0.89384 0
M  V30 2916 O 283.941 1.5152 -1.15958 0
M  V30 2917 C 281.081 2.43577 -2.44467 0
M  V30 2918 C 280.194 2.2232 -3.70402 0
M  V30 2919 C 279.329 3.4729 -4.01949 0
M  V30 2920 C 278.368 3.2128 -5.21005 0
M  V30 2921 N 277.505 4.38507 -5.48321 0
M  V30 2922 H 282.345 0.733149 -2.88841 0
M  V30 2923 H 279.882 0.350482 -1.42864 0
M  V30 2924 H 281.84 3.20373 -2.6724 0
M  V30 2925 H 280.47 2.80097 -1.60455 0
M  V30 2926 H 279.522 1.36343 -3.55126 0
M  V30 2927 H 280.834 1.99089 -4.57345 0
M  V30 2928 H 279.988 4.32495 -4.25479 0
M  V30 2929 H 278.727 3.73572 -3.13521 0
M  V30 2930 H 277.732 2.34468 -4.97298 0
M  V30 2931 H 278.957 2.96348 -6.11028 0
M  V30 2932 H 276.903 4.64871 -4.62851 0
M  V30 2933 H 276.82 4.18455 -6.29628 0
M  V30 2934 H 278.088 5.24787 -5.76385 0
M  V30 2935 N 282.317 1.53212 0.369288 0
M  V30 2936 C 283.227 1.82342 1.47609 0
M  V30 2937 C 284.243 0.711532 1.58787 0
M  V30 2938 O 285.419 1.0012 1.74751 0
M  V30 2939 C 282.484 2.00393 2.8292 0
M  V30 2940 C 281.545 3.24297 2.81301 0
M  V30 2941 C 280.778 3.41478 4.10157 0
M  V30 2942 O 281.001 2.63033 5.06132 0
M  V30 2943 O 279.935 4.34817 4.16194 0
M  V30 2944 H 283.761 2.76366 1.25918 0
M  V30 2945 H 281.346 1.38547 0.559034 0
M  V30 2946 H 283.228 2.13859 3.63101 0
M  V30 2947 H 281.903 1.09559 3.04596 0
M  V30 2948 H 280.81 3.16257 1.99831 0
M  V30 2949 H 282.143 4.15041 2.64578 0
M  V30 2950 N 283.795 -0.628877 1.44509 0
M  V30 2951 C 285.072 -1.38733 1.37886 0
M  V30 2952 C 285.452 -2.11065 0.0387008 0
M  V30 2953 O 284.8 -2.06476 -0.97878 0
M  V30 2954 C 285.01 -2.35188 2.57852 0
M  V30 2955 C 286.358 -2.9845 3.02014 0
M  V30 2956 O 287.382 -2.45513 2.58073 0
M  V30 2957 O 286.241 -3.94487 3.78209 0
M  V30 2958 H 283.335 -0.621015 0.54614 0
M  V30 2959 H 285.881 -0.653744 1.56602 0
M  V30 2960 H 284.653 -1.80855 3.46998 0
M  V30 2961 H 284.276 -3.1596 2.4136 0
M  V30 2962 N 285.273 -1.31445 -0.869486 0
M  V30 2963 C 286.519 -1.21337 -1.62496 0
M  V30 2964 C 286.852 0.227872 -1.92858 0
M  V30 2965 O 286.127 1.16094 -1.56053 0
M  V30 2966 C 286.41 -2.05814 -2.95487 0
M  V30 2967 C 286.263 -3.5824 -2.72 0
M  V30 2968 C 287.582 -1.9079 -3.96594 0
M  V30 2969 H 284.701 -0.442135 -0.589649 0
M  V30 2970 H 287.343 -1.6124 -1.00507 0
M  V30 2971 H 285.493 -1.71913 -3.48394 0
M  V30 2972 H 287.165 -4.0228 -2.25762 0
M  V30 2973 H 285.408 -3.81647 -2.06224 0
M  V30 2974 H 286.079 -4.12657 -3.66631 0
M  V30 2975 H 288.555 -2.20459 -3.52898 0
M  V30 2976 H 287.431 -2.52199 -4.87531 0
M  V30 2977 H 287.692 -0.871341 -4.33428 0
M  V30 2978 N 286.751 1.08385 -1.14413 0
M  V30 2979 C 287.981 1.8425 -0.934644 0
M  V30 2980 C 288.389 1.81907 0.520234 0
M  V30 2981 O 287.732 1.22126 1.37226 0
M  V30 2982 C 287.794 3.32853 -1.35828 0
M  V30 2983 C 287.458 3.5893 -2.82875 0
M  V30 2984 C 288.455 3.53756 -3.80989 0
M  V30 2985 C 286.14 3.86934 -3.20293 0
M  V30 2986 C 288.134 3.76216 -5.14529 0
M  V30 2987 C 285.821 4.09047 -4.54008 0
M  V30 2988 C 286.819 4.03682 -5.50936 0
M  V30 2989 O 286.507 4.25214 -6.82238 0
M  V30 2990 H 286.239 0.588502 -0.332628 0
M  V30 2991 H 288.793 1.37792 -1.52324 0
M  V30 2992 H 287.023 3.8007 -0.713019 0
M  V30 2993 H 288.712 3.90154 -1.11957 0
M  V30 2994 H 289.478 3.32135 -3.53428 0
M  V30 2995 H 285.357 3.9023 -2.45442 0
M  V30 2996 H 288.901 3.71943 -5.90173 0
M  V30 2997 H 284.798 4.30151 -4.8129 0
M  V30 2998 H 285.566 4.42619 -6.88499 0
M  V30 2999 N 288.23 0.939286 1.26551 0
M  V30 3000 C 289.646 0.641304 1.46149 0
M  V30 3001 C 289.846 -0.805964 1.84679 0
M  V30 3002 O 288.902 -1.58278 1.96734 0
M  V30 3003 C 290.215 1.6011 2.54529 0
M  V30 3004 C 291.763 1.6106 2.68382 0
M  V30 3005 C 292.238 2.55765 3.79932 0
M  V30 3006 N 293.729 2.5404 3.87322 0
M  V30 3007 C 294.464 3.24004 4.73085 0
M  V30 3008 N 293.96 4.03388 5.63249 0
M  V30 3009 N 295.753 3.12965 4.66914 0
M  V30 3010 H 287.904 1.87478 0.998285 0
M  V30 3011 H 290.167 0.805559 0.499779 0
M  V30 3012 H 289.873 2.63412 2.33039 0
M  V30 3013 H 289.747 1.35171 3.52149 0
M  V30 3014 H 292.134 0.584835 2.89247 0
M  V30 3015 H 292.215 1.90053 1.71212 0
M  V30 3016 H 291.859 3.58458 3.5982 0
M  V30 3017 H 291.789 2.24063 4.76554 0
M  V30 3018 H 294.28 1.96396 3.22858 0
M  V30 3019 H 294.593 4.5373 6.25579 0
M  V30 3020 H 292.938 4.07489 5.63008 0
M  V30 3021 H 296.129 2.50432 3.95476 0
M  V30 3022 H 296.302 3.67759 5.33533 0
M  V30 3023 N 289.708 -1.40897 0.706093 0
M  V30 3024 C 290.656 -2.32572 0.0361893 0
M  V30 3025 C 291.65 -1.51532 -0.757266 0
M  V30 3026 O 292.856 -1.67396 -0.661703 0
M  V30 3027 H 289.231 -0.751966 -0.00709935 0
M  V30 3028 H 291.202 -2.86733 0.826249 0
M  V30 3029 C 289.951 -3.36418 -0.87854 0
M  V30 3030 H 289.274 -3.98836 -0.277401 0
M  V30 3031 H 290.714 -4.0308 -1.3154 0
M  V30 3032 C 289.173 -2.71141 -1.99961 0
M  V30 3033 O 289.703 -2.56735 -3.0895 0
M  V30 3034 N 287.909 -2.29671 -1.78043 0
M  V30 3035 H 287.456 -2.41588 -0.894042 0
M  V30 3036 H 287.414 -1.86332 -2.53235 0
M  V30 3037 N 291.186 -0.45159 -1.50991 0
M  V30 3038 C 292.136 0.370861 -2.24964 0
M  V30 3039 C 293.12 0.978074 -1.2776 0
M  V30 3040 O 294.312 0.893854 -1.52772 0
M  V30 3041 C 291.441 1.46344 -3.10545 0
M  V30 3042 C 290.527 0.864924 -4.15187 0
M  V30 3043 N 290.918 -0.00311354 -5.058 0
M  V30 3044 C 289.216 1.13099 -4.31422 0
M  V30 3045 C 289.917 -0.340772 -5.80701 0
M  V30 3046 N 288.893 0.279203 -5.42883 0
M  V30 3047 H 292.695 -0.298134 -2.92384 0
M  V30 3048 H 290.209 -0.264528 -1.60231 0
M  V30 3049 H 292.206 2.06565 -3.62128 0
M  V30 3050 H 290.866 2.13463 -2.4467 0
M  V30 3051 H 291.877 -0.37058 -5.16572 0
M  V30 3052 H 288.554 1.79861 -3.76771 0
M  V30 3053 H 289.944 -1.048 -6.63677 0
M  V30 3054 N 292.664 1.56529 -0.183458 0
M  V30 3055 C 293.889 2.02064 0.467428 0
M  V30 3056 C 294.314 1.06282 1.55196 0
M  V30 3057 O 293.672 0.0443565 1.81246 0
M  V30 3058 C 293.72 3.46122 1.01153 0
M  V30 3059 O 292.824 3.53437 2.12499 0
M  V30 3060 H 292.165 0.654726 0.110588 0
M  V30 3061 H 294.695 2.02521 -0.290917 0
M  V30 3062 H 294.705 3.85676 1.33108 0
M  V30 3063 H 293.38 4.15331 0.217533 0
M  V30 3064 H 291.957 3.2575 1.81497 0
M  V30 3065 N 294.142 -0.090211 1.57342 0
M  V30 3066 C 295.391 -0.791531 1.8552 0
M  V30 3067 C 295.704 -1.79659 0.773441 0
M  V30 3068 O 296.91 -2.54616 0.942497 0
M  V30 3069 C 295.366 -1.45856 3.2902 0
M  V30 3070 C 294.974 -0.493017 4.45279 0
M  V30 3071 C 296.718 -2.14332 3.66418 0
M  V30 3072 C 294.625 -1.16491 5.79814 0
M  V30 3073 H 293.555 -0.299356 0.692027 0
M  V30 3074 H 296.206 -0.0445343 1.83446 0
M  V30 3075 H 294.588 -2.25318 3.2565 0
M  V30 3076 H 295.762 0.270464 4.60006 0
M  V30 3077 H 294.077 0.0863061 4.16311 0
M  V30 3078 H 296.674 -2.65344 4.64216 0
M  V30 3079 H 297.017 -2.93447 2.95287 0
M  V30 3080 H 297.55 -1.41724 3.71698 0
M  V30 3081 H 294.289 -0.41447 6.54188 0
M  V30 3082 H 293.809 -1.8997 5.68921 0
M  V30 3083 H 295.488 -1.69001 6.24538 0
M  V30 3084 N 295.62 -1.53406 -0.361157 0
M  V30 3085 C 296.867 -1.69802 -1.10333 0
M  V30 3086 C 297.195 -0.452087 -1.89173 0
M  V30 3087 O 296.45 0.566017 -1.87336 0
M  V30 3088 C 296.749 -2.90211 -2.08596 0
M  V30 3089 C 296.415 -4.26539 -1.46203 0
M  V30 3090 C 295.077 -4.6361 -1.28915 0
M  V30 3091 C 297.429 -5.113 -1.01101 0
M  V30 3092 C 294.757 -5.83075 -0.651157 0
M  V30 3093 C 297.109 -6.31415 -0.387007 0
M  V30 3094 C 295.773 -6.67195 -0.201657 0
M  V30 3095 H 295.043 -0.621351 -0.403737 0
M  V30 3096 H 297.69 -1.87598 -0.384609 0
M  V30 3097 H 295.995 -2.66946 -2.86788 0
M  V30 3098 H 297.692 -3.00091 -2.65982 0
M  V30 3099 H 294.282 -3.97352 -1.60653 0
M  V30 3100 H 298.466 -4.83206 -1.13249 0
M  V30 3101 H 293.722 -6.09385 -0.496006 0
M  V30 3102 H 297.896 -6.96394 -0.0293563 0
M  V30 3103 H 295.523 -7.59628 0.294766 0
M  V30 3104 N 297.098 0.621204 -1.44841 0
M  V30 3105 C 298.028 1.74366 -1.55303 0
M  V30 3106 C 299.009 1.65199 -0.405385 0
M  V30 3107 O 300.194 1.83807 -0.626787 0
M  V30 3108 C 297.324 3.12931 -1.50637 0
M  V30 3109 C 296.278 3.36896 -2.63979 0
M  V30 3110 C 295.604 4.75594 -2.44366 0
M  V30 3111 C 296.904 3.28483 -4.06074 0
M  V30 3112 H 298.598 1.65867 -2.49256 0
M  V30 3113 H 296.144 0.796558 -1.19962 0
M  V30 3114 H 298.097 3.9124 -1.56555 0
M  V30 3115 H 296.821 3.22237 -0.532057 0
M  V30 3116 H 295.48 2.60972 -2.57467 0
M  V30 3117 H 295.128 4.81616 -1.45105 0
M  V30 3118 H 294.828 4.92586 -3.20364 0
M  V30 3119 H 296.352 5.5612 -2.52117 0
M  V30 3120 H 297.766 3.96684 -4.13902 0
M  V30 3121 H 296.163 3.57008 -4.82354 0
M  V30 3122 H 297.233 2.26133 -4.28943 0
M  V30 3123 N 298.576 1.31904 0.862503 0
M  V30 3124 C 299.539 1.20131 1.95195 0
M  V30 3125 C 300.539 0.126409 1.60302 0
M  V30 3126 O 301.729 0.376234 1.70089 0
M  V30 3127 C 298.861 0.845691 3.30244 0
M  V30 3128 H 300.054 2.16943 2.07064 0
M  V30 3129 H 297.607 1.15622 1.05172 0
M  V30 3130 H 298.342 -0.120957 3.24074 0
M  V30 3131 H 298.127 1.62276 3.56944 0
M  V30 3132 H 299.617 0.787418 4.10109 0
M  V30 3133 N 300.054 -1.07777 1.14986 0
M  V30 3134 C 301.331 -1.7699 0.832695 0
M  V30 3135 C 301.711 -2.001 -0.672561 0
M  V30 3136 O 301.059 -1.61598 -1.6155 0
M  V30 3137 C 301.269 -3.08139 1.63863 0
M  V30 3138 C 302.617 -3.8256 1.84208 0
M  V30 3139 O 303.641 -3.17939 1.60603 0
M  V30 3140 O 302.5 -4.98612 2.23714 0
M  V30 3141 H 299.594 -0.768389 0.305791 0
M  V30 3142 H 302.14 -1.14182 1.25541 0
M  V30 3143 H 300.912 -2.86909 2.6608 0
M  V30 3144 H 300.535 -3.78678 1.21197 0
M  V30 3145 N 301.532 -0.945985 -1.26051 0
M  V30 3146 C 302.781 -0.591836 -1.92822 0
M  V30 3147 C 303.094 0.873956 -1.7499 0
M  V30 3148 O 304.3 1.33769 -2.36259 0
M  V30 3149 C 302.756 -1.00776 -3.45503 0
M  V30 3150 C 302.364 -2.4955 -3.7206 0
M  V30 3151 C 304.108 -0.725735 -4.1825 0
M  V30 3152 C 302.015 -2.84988 -5.18205 0
M  V30 3153 H 300.945 -0.217635 -0.721908 0
M  V30 3154 H 303.596 -1.14927 -1.43052 0
M  V30 3155 H 301.978 -0.378812 -3.94184 0
M  V30 3156 H 303.152 -3.1739 -3.34066 0
M  V30 3157 H 301.467 -2.75133 -3.12555 0
M  V30 3158 H 304.064 -0.966771 -5.25887 0
M  V30 3159 H 304.407 0.337639 -4.14929 0
M  V30 3160 H 304.94 -1.31463 -3.7545 0
M  V30 3161 H 301.679 -3.90307 -5.26631 0
M  V30 3162 H 301.199 -2.21813 -5.57278 0
M  V30 3163 H 302.878 -2.73712 -5.86252 0
M  V30 3164 N 303.011 1.40521 -0.713556 0
M  V30 3165 C 303.959 2.32549 -0.0485227 0
M  V30 3166 C 304.953 1.51931 0.74922 0
M  V30 3167 O 306.159 1.67745 0.652816 0
M  V30 3168 H 302.534 0.751994 0.00311138 0
M  V30 3169 H 304.505 2.86291 -0.841443 0
M  V30 3170 C 303.254 3.36879 0.860687 0
M  V30 3171 H 302.577 3.98978 0.256246 0
M  V30 3172 H 304.017 4.03772 1.294 0
M  V30 3173 C 302.476 2.72197 1.9852 0
M  V30 3174 O 303.006 2.5837 3.07584 0
M  V30 3175 N 301.212 2.30612 1.76823 0
M  V30 3176 H 300.759 2.42059 0.881217 0
M  V30 3177 H 300.717 1.87672 2.52243 0
M  V30 3178 N 304.489 0.459591 1.5075 0
M  V30 3179 C 305.421 -0.37665 2.26084 0
M  V30 3180 C 306.434 -0.967109 1.30961 0
M  V30 3181 O 307.623 -0.857468 1.56556 0
M  V30 3182 C 304.723 -1.54112 3.01832 0
M  V30 3183 C 303.896 -1.06553 4.24223 0
M  V30 3184 C 302.955 -2.1027 4.82362 0
M  V30 3185 O 301.981 -1.68798 5.43595 0
M  V30 3186 N 303.183 -3.42974 4.68347 0
M  V30 3187 H 305.948 0.269124 2.98489 0
M  V30 3188 H 303.509 0.28972 1.59287 0
M  V30 3189 H 305.501 -2.23165 3.37608 0
M  V30 3190 H 304.071 -2.0918 2.32298 0
M  V30 3191 H 303.291 -0.201274 3.93686 0
M  V30 3192 H 304.579 -0.725516 5.03601 0
M  V30 3193 H 303.977 -3.79385 4.19623 0
M  V30 3194 H 302.534 -4.07858 5.08424 0
M  V30 3195 N 305.967 -1.56429 0.191757 0
M  V30 3196 C 306.877 -2.22541 -0.742481 0
M  V30 3197 C 307.893 -1.22342 -1.23727 0
M  V30 3198 O 309.069 -1.55069 -1.28513 0
M  V30 3199 C 306.134 -2.8692 -1.94623 0
M  V30 3200 C 305.195 -4.02378 -1.49633 0
M  V30 3201 C 304.428 -4.63678 -2.6427 0
M  V30 3202 O 304.651 -4.23895 -3.81666 0
M  V30 3203 O 303.585 -5.53202 -2.37174 0
M  V30 3204 H 307.411 -3.02977 -0.209462 0
M  V30 3205 H 304.996 -1.49353 -0.0373832 0
M  V30 3206 H 306.878 -3.27663 -2.64982 0
M  V30 3207 H 305.553 -2.09466 -2.46791 0
M  V30 3208 H 304.46 -3.66265 -0.761636 0
M  V30 3209 H 305.793 -4.81487 -1.02134 0
M  V30 3210 N 307.445 0.0818655 -1.57387 0
M  V30 3211 C 308.861 0.436412 -1.53517 0
M  V30 3212 C 309.061 1.79758 -0.910459 0
M  V30 3213 O 308.117 2.47324 -0.508636 0
M  V30 3214 C 309.43 0.386734 -2.98203 0
M  V30 3215 C 310.978 0.467644 -3.09487 0
M  V30 3216 C 311.453 0.447978 -4.55804 0
M  V30 3217 N 312.944 0.508348 -4.60402 0
M  V30 3218 C 313.679 0.515184 -5.71081 0
M  V30 3219 N 313.175 0.477435 -6.91153 0
M  V30 3220 N 314.968 0.560988 -5.59294 0
M  V30 3221 H 307.119 -0.809546 -1.96367 0
M  V30 3222 H 309.382 -0.302733 -0.898363 0
M  V30 3223 H 309.088 -0.546539 -3.47427 0
M  V30 3224 H 308.962 1.20075 -3.57578 0
M  V30 3225 H 311.349 1.39134 -2.60242 0
M  V30 3226 H 311.43 -0.374753 -2.5304 0
M  V30 3227 H 311.074 -0.471826 -5.05704 0
M  V30 3228 H 311.004 1.30777 -5.10103 0
M  V30 3229 H 313.495 0.54218 -3.7399 0
M  V30 3230 H 313.808 0.486299 -7.71268 0
M  V30 3231 H 312.153 0.444278 -6.93579 0
M  V30 3232 H 315.344 0.5881 -4.64391 0
M  V30 3233 H 315.517 0.562846 -6.45551 0
M  V30 3234 N 308.923 1.53595 0.353017 0
M  V30 3235 C 310.171 1.70049 1.09215 0
M  V30 3236 C 310.492 0.461406 1.89463 0
M  V30 3237 O 309.762 -0.524633 1.88744 0
M  V30 3238 H 308.342 0.626912 0.40619 0
M  V30 3239 H 311.004 1.90822 0.396585 0
M  V30 3240 H 310.1 2.56718 1.77488 0
M  V30 3241 N 310.401 -0.613514 1.45168 0
M  V30 3242 C 311.65 -1.36874 1.4815 0
M  V30 3243 C 311.963 -1.952 0.124982 0
M  V30 3244 O 313.169 -2.71481 0.0324176 0
M  V30 3245 C 311.625 -2.47905 2.60904 0
M  V30 3246 C 311.233 -1.96016 4.02842 0
M  V30 3247 C 312.977 -3.24965 2.73126 0
M  V30 3248 C 310.884 -3.04494 5.06988 0
M  V30 3249 H 309.814 -0.514428 0.551253 0
M  V30 3250 H 312.465 -0.658182 1.7129 0
M  V30 3251 H 310.847 -3.21618 2.31037 0
M  V30 3252 H 312.021 -1.29051 4.4236 0
M  V30 3253 H 310.336 -1.31719 3.95018 0
M  V30 3254 H 312.933 -4.05865 3.48106 0
M  V30 3255 H 313.276 -3.75588 1.79553 0
M  V30 3256 H 313.809 -2.5835 3.0249 0
M  V30 3257 H 310.548 -2.58795 6.0225 0
M  V30 3258 H 310.068 -3.70044 4.72046 0
M  V30 3259 H 311.747 -3.68976 5.31475 0
M  V30 3260 N 311.879 -1.3236 -0.855495 0
M  V30 3261 C 312.827 -1.2118 -1.9854 0
M  V30 3262 C 313.821 -0.116788 -1.68997 0
M  V30 3263 O 315.027 -0.279657 -1.77814 0
M  V30 3264 H 311.402 -0.375608 -0.651477 0
M  V30 3265 H 313.373 -2.16743 -2.05098 0
M  V30 3266 C 312.122 -0.950849 -3.34446 0
M  V30 3267 H 311.445 -1.78563 -3.57708 0
M  V30 3268 H 312.885 -0.912863 -4.14057 0
M  V30 3269 C 311.344 0.346404 -3.35114 0
M  V30 3270 O 311.874 1.35855 -3.7803 0
M  V30 3271 N 310.08 0.36808 -2.88259 0
M  V30 3272 H 309.627 -0.456102 -2.5353 0
M  V30 3273 H 309.585 1.23591 -2.89089 0
M  V30 3274 N 313.357 1.07166 -1.15556 0
M  V30 3275 C 314.267 2.17947 -0.868116 0
M  V30 3276 C 315.283 1.73297 0.156297 0
M  V30 3277 O 316.459 2.01392 -0.0182327 0
M  V30 3278 C 313.524 3.44789 -0.36355 0
M  V30 3279 C 312.585 4.03996 -1.45209 0
M  V30 3280 C 311.818 5.24783 -0.971508 0
M  V30 3281 O 312.041 5.70109 0.182194 0
M  V30 3282 O 310.975 5.75715 -1.75603 0
M  V30 3283 H 314.801 2.4503 -1.79427 0
M  V30 3284 H 312.386 1.16539 -0.934824 0
M  V30 3285 H 314.268 4.21307 -0.0887113 0
M  V30 3286 H 312.943 3.19253 0.534708 0
M  V30 3287 H 311.85 3.29009 -1.78056 0
M  V30 3288 H 313.183 4.33808 -2.32533 0
M  V30 3289 N 314.835 0.952656 1.25548 0
M  V30 3290 C 316.06 0.623025 1.97821 0
M  V30 3291 C 316.485 -0.7976 1.70352 0
M  V30 3292 O 315.843 -1.53905 0.958283 0
M  V30 3293 C 315.891 0.885532 3.49558 0
M  V30 3294 O 314.995 -0.0366641 4.12384 0
M  V30 3295 H 314.336 0.237082 0.620232 0
M  V30 3296 H 316.866 1.27871 1.59719 0
M  V30 3297 H 316.876 0.811009 3.99858 0
M  V30 3298 H 315.551 1.92094 3.6888 0
M  V30 3299 H 314.128 0.0898954 3.72792 0
M  V30 3300 N 316.313 -1.40141 0.720998 0
M  V30 3301 C 317.543 -2.04798 0.27226 0
M  V30 3302 C 317.951 -1.54442 -1.09289 0
M  V30 3303 O 317.294 -0.698342 -1.69908 0
M  V30 3304 C 317.356 -3.59048 0.18027 0
M  V30 3305 C 317.02 -4.32317 1.48159 0
M  V30 3306 C 318.017 -4.59902 2.42458 0
M  V30 3307 C 315.702 -4.71125 1.74202 0
M  V30 3308 C 317.696 -5.25288 3.61042 0
M  V30 3309 C 315.383 -5.36242 2.93066 0
M  V30 3310 C 316.381 -5.63254 3.86308 0
M  V30 3311 O 316.069 -6.27024 5.03086 0
M  V30 3312 H 315.801 -0.665419 0.119139 0
M  V30 3313 H 318.355 -1.80436 0.981432 0
M  V30 3314 H 316.585 -3.82251 -0.58489 0
M  V30 3315 H 318.274 -4.05221 -0.234618 0
M  V30 3316 H 319.04 -4.30379 2.23604 0
M  V30 3317 H 314.919 -4.49466 1.02477 0
M  V30 3318 H 318.463 -5.46289 4.33837 0
M  V30 3319 H 314.36 -5.65185 3.11826 0
M  V30 3320 H 315.128 -6.4552 5.03235 0
M  V30 3321 N 317.792 -0.46758 -1.50504 0
M  V30 3322 C 318.739 0.328413 -2.28452 0
M  V30 3323 C 319.709 0.990313 -1.33349 0
M  V30 3324 O 320.894 1.00343 -1.62284 0
M  V30 3325 C 318.034 1.40648 -3.15138 0
M  V30 3326 C 317.147 0.759709 -4.25267 0
M  V30 3327 C 316.282 1.81537 -4.99217 0
M  V30 3328 C 315.321 1.14866 -6.01226 0
M  V30 3329 N 314.458 2.14702 -6.68467 0
M  V30 3330 H 319.298 -0.342603 -2.96024 0
M  V30 3331 H 316.835 -0.180801 -1.45985 0
M  V30 3332 H 318.793 2.04315 -3.63746 0
M  V30 3333 H 317.423 2.04671 -2.49619 0
M  V30 3334 H 316.475 0.0105671 -3.80399 0
M  V30 3335 H 317.787 0.233243 -4.98254 0
M  V30 3336 H 316.941 2.52793 -5.51526 0
M  V30 3337 H 315.68 2.37564 -4.25928 0
M  V30 3338 H 314.685 0.42171 -5.4818 0
M  V30 3339 H 315.91 0.595334 -6.76485 0
M  V30 3340 H 313.856 2.69752 -5.97972 0
M  V30 3341 H 313.773 1.6703 -7.37317 0
M  V30 3342 H 315.041 2.85348 -7.25394 0
M  V30 3343 N 319.27 1.56325 -0.20005 0
M  V30 3344 C 320.217 2.1932 0.718833 0
M  V30 3345 C 321.187 1.14198 1.20615 0
M  V30 3346 O 322.372 1.42469 1.26914 0
M  V30 3347 C 319.512 2.86041 1.93066 0
M  V30 3348 C 318.625 4.05702 1.48425 0
M  V30 3349 C 317.76 4.60266 2.65196 0
M  V30 3350 C 316.799 5.72273 2.17185 0
M  V30 3351 N 315.936 6.21221 3.27152 0
M  V30 3352 H 320.776 2.97486 0.17489 0
M  V30 3353 H 318.313 1.46911 0.0745794 0
M  V30 3354 H 320.271 3.22897 2.64184 0
M  V30 3355 H 318.901 2.1043 2.44783 0
M  V30 3356 H 317.953 3.74475 0.668755 0
M  V30 3357 H 319.265 4.86699 1.09204 0
M  V30 3358 H 318.419 4.99453 3.4443 0
M  V30 3359 H 317.158 3.78386 3.07693 0
M  V30 3360 H 316.163 5.3261 1.36407 0
M  V30 3361 H 317.388 6.55974 1.75713 0
M  V30 3362 H 315.334 5.42263 3.69171 0
M  V30 3363 H 315.251 6.97284 2.92116 0
M  V30 3364 H 316.519 6.65063 4.06585 0
M  V30 3365 N 320.748 -0.0735177 1.57428 0
M  V30 3366 C 321.696 -1.10628 2.04607 0
M  V30 3367 C 322.69 -1.40181 0.951088 0
M  V30 3368 O 323.896 -1.39608 1.1362 0
M  V30 3369 H 320.271 -0.374088 0.652351 0
M  V30 3370 H 322.242 -0.682218 2.90497 0
M  V30 3371 C 320.991 -2.41212 2.50423 0
M  V30 3372 H 320.314 -2.19322 3.34272 0
M  V30 3373 H 321.754 -3.11927 2.87189 0
M  V30 3374 C 320.213 -3.0705 1.38644 0
M  V30 3375 O 320.743 -3.95056 0.727582 0
M  V30 3376 N 318.949 -2.67645 1.132 0
M  V30 3377 H 318.496 -1.96169 1.66959 0
M  V30 3378 H 318.454 -3.1202 0.386147 0
M  V30 3379 N 322.226 -1.5378 -0.344866 0
M  V30 3380 C 323.156 -1.84662 -1.42906 0
M  V30 3381 C 324.137 -0.701648 -1.54955 0
M  V30 3382 O 325.322 -0.953438 -1.69184 0
M  V30 3383 C 322.452 -2.05503 -2.79974 0
M  V30 3384 C 321.406 -3.21318 -2.82734 0
M  V30 3385 C 320.732 -3.2749 -4.22675 0
M  V30 3386 C 322.032 -4.59456 -2.48389 0
M  V30 3387 H 323.726 -2.75461 -1.17311 0
M  V30 3388 H 321.272 -1.32542 -0.562896 0
M  V30 3389 H 323.225 -2.25691 -3.55867 0
M  V30 3390 H 321.949 -1.11434 -3.07002 0
M  V30 3391 H 320.608 -3.00984 -2.09294 0
M  V30 3392 H 320.256 -2.31019 -4.4681 0
M  V30 3393 H 319.956 -4.05316 -4.25433 0
M  V30 3394 H 321.48 -3.49887 -5.00412 0
M  V30 3395 H 322.894 -4.79667 -3.13995 0
M  V30 3396 H 321.291 -5.39675 -2.62432 0
M  V30 3397 H 322.361 -4.63155 -1.4358 0
M  V30 3398 N 323.704 0.605807 -1.45491 0
M  V30 3399 C 324.637 1.73022 -1.48791 0
M  V30 3400 C 325.615 1.58917 -0.344112 0
M  V30 3401 O 326.799 1.80453 -0.544876 0
M  V30 3402 C 323.926 3.10865 -1.34463 0
M  V30 3403 C 322.972 3.43554 -2.5273 0
M  V30 3404 S 323.805 3.38196 -4.15191 0
M  V30 3405 C 324.961 4.78616 -4.03333 0
M  V30 3406 H 325.194 1.69961 -2.43928 0
M  V30 3407 H 322.727 0.782611 -1.33096 0
M  V30 3408 H 324.685 3.90398 -1.26884 0
M  V30 3409 H 323.346 3.1144 -0.40794 0
M  V30 3410 H 322.539 4.43924 -2.38637 0
M  V30 3411 H 322.141 2.71541 -2.5718 0
M  V30 3412 H 324.433 5.68463 -3.68587 0
M  V30 3413 H 325.376 4.97767 -5.03621 0
M  V30 3414 H 325.784 4.54381 -3.34959 0
M  V30 3415 N 325.182 1.32811 0.848464 0
M  V30 3416 C 326.145 1.22194 1.9391 0
M  V30 3417 C 327.145 0.143404 1.60159 0
M  V30 3418 O 328.335 0.394253 1.6968 0
M  V30 3419 C 325.467 0.88067 3.29328 0
M  V30 3420 H 326.66 2.19127 2.04752 0
M  V30 3421 H 324.213 1.16731 1.0394 0
M  V30 3422 H 324.948 -0.0865776 3.24184 0
M  V30 3423 H 324.733 1.66052 3.55203 0
M  V30 3424 H 326.223 0.830871 4.09251 0
M  V30 3425 N 326.66 -1.06551 1.16123 0
M  V30 3426 C 327.59 -2.15935 0.88851 0
M  V30 3427 C 328.571 -1.69306 -0.164135 0
M  V30 3428 O 329.756 -1.94193 -0.0167857 0
M  V30 3429 C 326.886 -3.45149 0.385942 0
M  V30 3430 C 325.84 -4.05271 1.3762 0
M  V30 3431 C 325.166 -5.29664 0.732137 0
M  V30 3432 C 326.466 -4.44355 2.74493 0
M  V30 3433 H 328.16 -2.39006 1.80323 0
M  V30 3434 H 325.706 -1.14866 0.868435 0
M  V30 3435 H 327.659 -4.21004 0.182647 0
M  V30 3436 H 326.383 -3.21689 -0.564274 0
M  V30 3437 H 325.042 -3.3147 1.56599 0
M  V30 3438 H 324.69 -5.02499 -0.224483 0
M  V30 3439 H 324.39 -5.70848 1.39307 0
M  V30 3440 H 325.914 -6.08218 0.538802 0
M  V30 3441 H 327.328 -5.11303 2.59311 0
M  V30 3442 H 325.725 -4.96515 3.37035 0
M  V30 3443 H 326.795 -3.55339 3.29943 0
M  V30 3444 N 328.138 -0.959301 -1.25041 0
M  V30 3445 C 329.085 -0.482057 -2.2571 0
M  V30 3446 C 330.055 0.467939 -1.59372 0
M  V30 3447 O 331.24 0.380159 -1.86974 0
M  V30 3448 C 328.38 0.229623 -3.44335 0
M  V30 3449 C 327.493 -0.758156 -4.25295 0
M  V30 3450 C 326.628 -0.0234403 -5.31195 0
M  V30 3451 C 325.667 -1.00184 -6.03846 0
M  V30 3452 N 324.804 -0.29769 -7.01469 0
M  V30 3453 H 329.644 -1.34538 -2.65901 0
M  V30 3454 H 327.181 -0.674592 -1.3072 0
M  V30 3455 H 329.139 0.658856 -4.11965 0
M  V30 3456 H 327.769 1.05696 -3.05005 0
M  V30 3457 H 326.821 -1.30586 -3.57284 0
M  V30 3458 H 328.133 -1.50458 -4.75567 0
M  V30 3459 H 327.287 0.464201 -6.04922 0
M  V30 3460 H 326.026 0.755741 -4.81809 0
M  V30 3461 H 325.031 -1.50044 -5.2893 0
M  V30 3462 H 326.256 -1.78133 -6.55321 0
M  V30 3463 H 324.202 0.462668 -6.54366 0
M  V30 3464 H 324.119 -0.983128 -7.4958 0
M  V30 3465 H 325.387 0.16826 -7.79318 0
M  V30 3466 N 329.616 1.39756 -0.72842 0
M  V30 3467 C 330.563 2.30647 -0.0841519 0
M  V30 3468 C 331.533 1.48869 0.7367 0
M  V30 3469 O 332.718 1.77574 0.698015 0
M  V30 3470 C 329.858 3.35165 0.822091 0
M  V30 3471 C 328.971 4.31999 -0.0106663 0
M  V30 3472 C 328.106 5.23585 0.896241 0
M  V30 3473 C 327.145 6.12072 0.0583381 0
M  V30 3474 N 326.282 6.96035 0.920818 0
M  V30 3475 H 331.122 2.85173 -0.864891 0
M  V30 3476 H 328.659 1.40422 -0.438179 0
M  V30 3477 H 330.617 3.94345 1.36189 0
M  V30 3478 H 329.247 2.8211 1.56888 0
M  V30 3479 H 328.299 3.74492 -0.66781 0
M  V30 3480 H 329.611 4.9443 -0.658825 0
M  V30 3481 H 328.765 5.87759 1.50412 0
M  V30 3482 H 327.504 4.61459 1.57819 0
M  V30 3483 H 326.509 5.46916 -0.562389 0
M  V30 3484 H 327.734 6.76261 -0.6203 0
M  V30 3485 H 325.68 6.36485 1.58818 0
M  V30 3486 H 325.597 7.55284 0.32899 0
M  V30 3487 H 326.865 7.64646 1.51447 0
M  V30 3488 N 331.094 0.475555 1.50254 0
M  V30 3489 C 332.341 -0.0778919 2.0235 0
M  V30 3490 C 332.669 -1.39319 1.35722 0
M  V30 3491 O 331.924 -1.89888 0.473395 0
M  V30 3492 C 332.223 -0.305114 3.56095 0
M  V30 3493 C 331.889 0.92903 4.41225 0
M  V30 3494 C 330.551 1.26739 4.6421 0
M  V30 3495 C 332.903 1.75054 4.90923 0
M  V30 3496 C 330.231 2.42724 5.34137 0
M  V30 3497 C 332.583 2.9017 5.62125 0
M  V30 3498 C 331.247 3.24416 5.83362 0
M  V30 3499 H 330.517 -0.0285027 0.740452 0
M  V30 3500 H 333.164 0.630543 1.80821 0
M  V30 3501 H 331.469 -1.09584 3.76163 0
M  V30 3502 H 333.166 -0.747377 3.93974 0
M  V30 3503 H 329.756 0.655428 4.23559 0
M  V30 3504 H 333.94 1.50231 4.73016 0
M  V30 3505 H 329.196 2.69525 5.48786 0
M  V30 3506 H 333.37 3.54169 5.99614 0
M  V30 3507 H 330.997 4.14396 6.37323 0
M  V30 3508 N 332.573 -1.56217 0.208337 0
M  V30 3509 C 333.819 -1.98242 -0.427552 0
M  V30 3510 C 334.152 -1.09554 -1.60348 0
M  V30 3511 O 333.427 -0.15035 -1.93918 0
M  V30 3512 C 333.71 -3.4931 -0.874907 0
M  V30 3513 C 333.563 -4.48773 0.303751 0
M  V30 3514 C 334.882 -4.04424 -1.73577 0
M  V30 3515 H 332.001 -0.720744 -0.153936 0
M  V30 3516 H 334.643 -1.87586 0.30192 0
M  V30 3517 H 332.793 -3.58522 -1.49648 0
M  V30 3518 H 334.465 -4.51586 0.941682 0
M  V30 3519 H 332.708 -4.23194 0.953375 0
M  V30 3520 H 333.379 -5.51976 -0.0519883 0
M  V30 3521 H 335.855 -3.98075 -1.21143 0
M  V30 3522 H 334.731 -5.1047 -2.01771 0
M  V30 3523 H 334.992 -3.50494 -2.69456 0
M  V30 3524 N 334.051 0.0651679 -1.57465 0
M  V30 3525 C 334.984 1.10876 -1.99453 0
M  V30 3526 C 335.962 1.37205 -0.872555 0
M  V30 3527 O 337.146 1.50468 -1.13542 0
M  V30 3528 C 334.273 2.45167 -2.3369 0
M  V30 3529 C 333.319 2.3493 -3.55964 0
M  V30 3530 S 334.152 1.73708 -5.06543 0
M  V30 3531 C 335.308 3.09563 -5.43987 0
M  V30 3532 H 335.541 0.750967 -2.87659 0
M  V30 3533 H 333.074 0.273933 -1.51951 0
M  V30 3534 H 335.032 3.22412 -2.54088 0
M  V30 3535 H 333.693 2.78105 -1.46001 0
M  V30 3536 H 332.886 3.3398 -3.77457 0
M  V30 3537 H 332.488 1.65823 -3.3523 0
M  V30 3538 H 334.78 4.05882 -5.42463 0
M  V30 3539 H 335.723 2.92843 -6.44708 0
M  V30 3540 H 336.131 3.10474 -4.71451 0
M  V30 3541 N 335.529 1.53961 0.336706 0
M  V30 3542 C 336.775 1.7179 1.07777 0
M  V30 3543 C 337.108 0.483263 1.88091 0
M  V30 3544 O 336.383 -0.519747 1.87427 0
M  V30 3545 C 336.666 2.98558 2.01334 0
M  V30 3546 C 336.519 4.32245 1.24437 0
M  V30 3547 C 337.838 3.21023 3.01052 0
M  V30 3548 H 334.957 0.625089 0.390426 0
M  V30 3549 H 337.599 1.86641 0.35567 0
M  V30 3550 H 335.749 2.86028 2.62908 0
M  V30 3551 H 337.421 4.56637 0.654243 0
M  V30 3552 H 335.664 4.30344 0.546458 0
M  V30 3553 H 336.335 5.17137 1.93063 0
M  V30 3554 H 338.811 3.32929 2.49595 0
M  V30 3555 H 337.687 4.11104 3.6371 0
M  V30 3556 H 337.948 2.37637 3.72802 0
M  V30 3557 N 337.007 -0.598083 1.45811 0
M  V30 3558 C 337.954 -1.7082 1.55207 0
M  V30 3559 C 338.924 -1.61278 0.39732 0
M  V30 3560 O 340.109 -1.80717 0.612038 0
M  V30 3561 C 337.249 -3.09144 1.53376 0
M  V30 3562 C 336.362 -3.29423 2.79472 0
M  V30 3563 C 335.497 -4.57907 2.69248 0
M  V30 3564 C 334.536 -4.71476 3.90354 0
M  V30 3565 N 333.673 -5.9127 3.78608 0
M  V30 3566 H 338.513 -1.62125 2.50039 0
M  V30 3567 H 336.05 -0.790389 1.24062 0
M  V30 3568 H 338.008 -3.89186 1.50301 0
M  V30 3569 H 336.638 -3.16773 0.620876 0
M  V30 3570 H 335.69 -2.43091 2.92594 0
M  V30 3571 H 337.002 -3.3532 3.69272 0
M  V30 3572 H 336.156 -5.46157 2.64192 0
M  V30 3573 H 334.895 -4.54423 1.77063 0
M  V30 3574 H 333.9 -3.81648 3.95759 0
M  V30 3575 H 335.125 -4.76751 4.83617 0
M  V30 3576 H 333.071 -5.88813 2.89199 0
M  V30 3577 H 332.988 -5.98369 4.6205 0
M  V30 3578 H 334.256 -6.81992 3.77501 0
M  V30 3579 N 338.485 -1.33259 -0.841409 0
M  V30 3580 C 339.732 -1.24572 -1.5965 0
M  V30 3581 C 340.06 0.189137 -1.93578 0
M  V30 3582 O 339.315 1.14566 -1.5866 0
M  V30 3583 C 339.614 -2.06381 -2.9179 0
M  V30 3584 C 339.28 -3.556 -2.77235 0
M  V30 3585 C 337.942 -3.96282 -2.72973 0
M  V30 3586 C 340.294 -4.50433 -2.62221 0
M  V30 3587 C 337.622 -5.30017 -2.51592 0
M  V30 3588 C 339.974 -5.84327 -2.42374 0
M  V30 3589 C 338.638 -6.24194 -2.36512 0
M  V30 3590 H 337.908 -0.455842 -0.5842 0
M  V30 3591 H 340.555 -1.6482 -0.975016 0
M  V30 3592 H 338.86 -1.58903 -3.5813 0
M  V30 3593 H 340.557 -1.97019 -3.49263 0
M  V30 3594 H 337.147 -3.23298 -2.81384 0
M  V30 3595 H 341.331 -4.19914 -2.64549 0
M  V30 3596 H 336.587 -5.59947 -2.45499 0
M  V30 3597 H 340.761 -6.57414 -2.29739 0
M  V30 3598 H 338.388 -7.27759 -2.19706 0
M  V30 3599 N 339.963 1.05934 -1.16686 0
M  V30 3600 C 340.893 2.1546 -0.899949 0
M  V30 3601 C 341.874 1.69391 0.155154 0
M  V30 3602 O 343.059 1.94199 0.00648693 0
M  V30 3603 C 340.189 3.44939 -0.404241 0
M  V30 3604 C 339.143 4.04536 -1.39767 0
M  V30 3605 C 338.469 5.29268 -0.760216 0
M  V30 3606 C 339.769 4.42893 -2.76845 0
M  V30 3607 H 341.463 2.38046 -1.81588 0
M  V30 3608 H 339.009 1.14404 -0.874514 0
M  V30 3609 H 340.962 4.20901 -0.204971 0
M  V30 3610 H 339.686 3.21983 0.547206 0
M  V30 3611 H 338.345 3.30635 -1.58355 0
M  V30 3612 H 337.993 5.02611 0.197831 0
M  V30 3613 H 337.693 5.70101 -1.42332 0
M  V30 3614 H 339.217 6.07924 -0.57105 0
M  V30 3615 H 340.631 5.09921 -2.62019 0
M  V30 3616 H 339.028 4.94721 -3.39663 0
M  V30 3617 H 340.098 3.53584 -3.31823 0
M  V30 3618 N 341.441 0.965919 1.2453 0
M  V30 3619 C 342.389 0.486506 2.27455 0
M  V30 3620 C 343.383 -0.449041 1.6334 0
M  V30 3621 O 344.589 -0.324527 1.7705 0
M  V30 3622 H 340.964 0.138857 0.739069 0
M  V30 3623 H 342.935 1.3666 2.65267 0
M  V30 3624 C 341.684 -0.209481 3.47068 0
M  V30 3625 H 341.007 0.50129 3.96645 0
M  V30 3626 H 342.447 -0.508775 4.20936 0
M  V30 3627 C 340.906 -1.43586 3.0477 0
M  V30 3628 O 341.436 -2.53299 3.11773 0
M  V30 3629 N 339.642 -1.30126 2.59838 0
M  V30 3630 H 339.189 -0.408583 2.54339 0
M  V30 3631 H 339.147 -2.12294 2.31902 0
M  V30 3632 N 342.919 -1.39368 0.735821 0
M  V30 3633 C 344.196 -1.94465 0.210395 0
M  V30 3634 C 344.576 -1.67254 -1.28799 0
M  V30 3635 O 343.924 -1.00123 -2.05396 0
M  V30 3636 C 344.134 -3.4472 0.544897 0
M  V30 3637 C 345.482 -4.21708 0.494689 0
M  V30 3638 O 346.506 -3.52922 0.482136 0
M  V30 3639 O 345.365 -5.44299 0.489947 0
M  V30 3640 H 342.459 -0.826096 0.0386666 0
M  V30 3641 H 345.005 -1.48863 0.814735 0
M  V30 3642 H 343.777 -3.57963 1.58045 0
M  V30 3643 H 343.4 -3.97502 -0.08837 0
M  V30 3644 N 344.397 -0.483516 -1.5 0
M  V30 3645 C 345.622 0.0667119 -2.07293 0
M  V30 3646 C 346.047 1.3164 -1.3436 0
M  V30 3647 O 345.405 1.76945 -0.394987 0
M  V30 3648 C 345.453 0.321126 -3.59167 0
M  V30 3649 O 344.557 1.39927 -3.87936 0
M  V30 3650 H 343.898 -0.0184758 -0.663743 0
M  V30 3651 H 346.428 -0.678125 -1.93035 0
M  V30 3652 H 346.438 0.557906 -4.04168 0
M  V30 3653 H 345.113 -0.592007 -4.11665 0
M  V30 3654 H 343.69 1.14882 -3.54763 0
M  V30 3655 N 345.875 1.56104 -0.216619 0
M  V30 3656 C 347.124 1.97348 0.416744 0
M  V30 3657 C 347.437 1.10715 1.6125 0
M  V30 3658 O 348.643 1.41836 2.31506 0
M  V30 3659 C 347.099 3.51059 0.792835 0
M  V30 3660 C 346.707 4.46387 -0.379828 0
M  V30 3661 C 348.451 4.01026 1.39208 0
M  V30 3662 C 346.358 5.91397 0.0184223 0
M  V30 3663 H 345.288 0.736942 0.159475 0
M  V30 3664 H 347.939 1.80827 -0.31205 0
M  V30 3665 H 346.321 3.63162 1.57891 0
M  V30 3666 H 347.495 4.46029 -1.15737 0
M  V30 3667 H 345.81 4.06734 -0.891979 0
M  V30 3668 H 348.407 5.0686 1.70286 0
M  V30 3669 H 348.75 3.46587 2.30614 0
M  V30 3670 H 349.283 3.92125 0.669537 0
M  V30 3671 H 346.022 6.49807 -0.862002 0
M  V30 3672 H 345.542 5.94961 0.760384 0
M  V30 3673 H 347.221 6.45455 0.446818 0
M  V30 3674 N 347.353 -0.0568162 1.57498 0
M  V30 3675 C 348.599 -0.75422 1.88253 0
M  V30 3676 C 348.932 -1.76461 0.810865 0
M  V30 3677 O 348.207 -1.93691 -0.177259 0
M  V30 3678 C 348.49 -1.44878 3.2967 0
M  V30 3679 C 348.343 -0.453789 4.47505 0
M  V30 3680 C 349.662 -2.38994 3.69554 0
M  V30 3681 H 346.781 -0.272724 0.684683 0
M  V30 3682 H 349.423 -0.0172113 1.89992 0
M  V30 3683 H 347.573 -2.077 3.28318 0
M  V30 3684 H 349.245 0.170371 4.60985 0
M  V30 3685 H 347.488 0.229552 4.33192 0
M  V30 3686 H 348.159 -0.977699 5.43273 0
M  V30 3687 H 350.635 -1.86239 3.72095 0
M  V30 3688 H 349.511 -2.84587 4.69363 0
M  V30 3689 H 349.772 -3.24461 3.00296 0
M  V30 3690 N 348.832 -1.54138 -0.328536 0
M  V30 3691 C 350.109 -1.62749 -1.08499 0
M  V30 3692 C 350.489 -0.458198 -2.06067 0
M  V30 3693 O 349.837 0.548046 -2.2183 0
M  V30 3694 C 350.047 -2.99519 -1.79135 0
M  V30 3695 C 351.395 -3.55394 -2.32337 0
M  V30 3696 O 352.419 -3.01792 -1.89209 0
M  V30 3697 O 351.278 -4.49186 -3.11279 0
M  V30 3698 H 348.372 -0.65886 -0.499832 0
M  V30 3699 H 350.918 -1.66484 -0.328826 0
M  V30 3700 H 349.69 -3.76061 -1.08139 0
M  V30 3701 H 349.313 -2.99441 -2.61574 0
M  V30 3702 N 350.31 0.590341 -1.46126 0
M  V30 3703 C 351.721 1.17243 -1.45296 0
M  V30 3704 C 352.072 1.95281 -0.189723 0
M  V30 3705 O 351.197 2.04502 0.707674 0
M  V30 3706 C 351.792 2.13284 -2.6324 0
M  V30 3707 C 350.351 2.66832 -2.65476 0
M  V30 3708 C 349.498 1.42557 -2.3785 0
M  V30 3709 H 352.449 0.378692 -1.54116 0
M  V30 3710 H 352.47 2.96619 -2.38323 0
M  V30 3711 H 351.982 1.56459 -3.55165 0
M  V30 3712 H 350.083 3.27548 -1.77603 0
M  V30 3713 H 350.196 3.10088 -3.65215 0
M  V30 3714 H 348.56 1.72107 -1.87753 0
M  V30 3715 H 349.343 0.875741 -3.31942 0
M  V30 3716 N 351.788 1.33704 0.83433 0
M  V30 3717 C 353.034 1.25603 1.59222 0
M  V30 3718 C 353.367 -0.176659 1.93395 0
M  V30 3719 O 352.642 -1.11915 1.59076 0
M  V30 3720 C 352.925 2.13576 2.89926 0
M  V30 3721 C 352.778 3.65326 2.62406 0
M  V30 3722 C 354.097 2.01238 3.91397 0
M  V30 3723 H 351.216 0.457613 0.577719 0
M  V30 3724 H 353.858 1.63848 0.961972 0
M  V30 3725 H 352.008 1.8109 3.43713 0
M  V30 3726 H 353.68 4.08124 2.15017 0
M  V30 3727 H 351.923 3.8698 1.96033 0
M  V30 3728 H 352.594 4.22232 3.55562 0
M  V30 3729 H 355.07 2.29738 3.46929 0
M  V30 3730 H 353.946 2.65036 4.80673 0
M  V30 3731 H 354.207 0.985951 4.30966 0
M  V30 3732 N 353.266 -1.05314 1.17247 0
M  V30 3733 C 354.543 -1.75184 0.87005 0
M  V30 3734 C 354.923 -2.01481 -0.629965 0
M  V30 3735 O 354.271 -1.64988 -1.58086 0
M  V30 3736 C 354.481 -3.04594 1.70363 0
M  V30 3737 C 355.829 -3.78567 1.92281 0
M  V30 3738 O 356.853 -3.14461 1.67311 0
M  V30 3739 O 355.712 -4.93755 2.3424 0
M  V30 3740 H 352.806 -0.761729 0.322021 0
M  V30 3741 H 355.352 -1.11493 1.27935 0
M  V30 3742 H 354.124 -2.81201 2.72106 0
M  V30 3743 H 353.747 -3.76022 1.29202 0
M  V30 3744 N 354.744 -0.972509 -1.24016 0
M  V30 3745 C 355.969 -0.654417 -1.96805 0
M  V30 3746 C 356.394 0.770398 -1.716 0
M  V30 3747 O 355.752 1.52361 -0.982647 0
M  V30 3748 C 355.8 -0.941031 -3.48105 0
M  V30 3749 O 354.904 -0.0289472 -4.1239 0
M  V30 3750 H 354.245 -0.24692 -0.616382 0
M  V30 3751 H 356.775 -1.30396 -1.57664 0
M  V30 3752 H 356.785 -0.87452 -3.98517 0
M  V30 3753 H 355.46 -1.97939 -3.65777 0
M  V30 3754 H 354.037 -0.149192 -3.72601 0
M  V30 3755 N 356.222 1.38976 -0.743202 0
M  V30 3756 C 357.132 2.3434 -0.110399 0
M  V30 3757 C 358.148 1.58741 0.712559 0
M  V30 3758 O 359.324 1.9099 0.639125 0
M  V30 3759 C 356.389 3.37812 0.780012 0
M  V30 3760 C 355.45 4.29263 -0.0561319 0
M  V30 3761 C 354.683 5.27793 0.791875 0
M  V30 3762 O 354.906 5.33043 2.03031 0
M  V30 3763 O 353.84 6.01512 0.216183 0
M  V30 3764 H 357.666 2.90129 -0.897714 0
M  V30 3765 H 355.251 1.40643 -0.503966 0
M  V30 3766 H 357.133 4.01194 1.28923 0
M  V30 3767 H 355.808 2.84395 1.546 0
M  V30 3768 H 354.715 3.69076 -0.611056 0
M  V30 3769 H 356.048 4.85907 -0.784531 0
M  V30 3770 N 357.7 0.491464 1.49741 0
M  V30 3771 C 358.946 -0.0485431 2.03342 0
M  V30 3772 C 359.301 -1.35566 1.36527 0
M  V30 3773 O 358.594 -1.85262 0.488729 0
M  V30 3774 C 358.788 -0.267329 3.56399 0
M  V30 3775 C 358.617 1.01703 4.38049 0
M  V30 3776 C 357.387 1.56614 4.80417 0
M  V30 3777 C 359.585 1.91782 4.77204 0
M  V30 3778 N 357.567 2.7974 5.4646 0
M  V30 3779 C 358.938 2.99489 5.42868 0
M  V30 3780 C 360.993 1.92575 4.5915 0
M  V30 3781 C 359.696 4.08005 5.92389 0
M  V30 3782 C 361.722 3.0006 5.09626 0
M  V30 3783 C 361.084 4.06485 5.75282 0
M  V30 3784 H 357.183 0.0227779 0.781668 0
M  V30 3785 H 359.767 0.664204 1.8302 0
M  V30 3786 H 357.938 -0.949126 3.76625 0
M  V30 3787 H 359.67 -0.803492 3.96644 0
M  V30 3788 H 356.425 1.11256 4.60347 0
M  V30 3789 H 356.849 3.42323 5.84075 0
M  V30 3790 H 361.491 1.11605 4.07804 0
M  V30 3791 H 359.209 4.89779 6.42761 0
M  V30 3792 H 362.795 3.01681 4.97473 0
M  V30 3793 H 361.675 4.88287 6.13633 0
M  V30 3794 N 359.178 -1.55987 0.224894 0
M  V30 3795 C 360.425 -1.9839 -0.4059 0
M  V30 3796 C 360.753 -1.11261 -1.59535 0
M  V30 3797 O 360.008 -0.158314 -1.95059 0
M  V30 3798 C 360.307 -3.46394 -0.880106 0
M  V30 3799 C 359.973 -4.5046 0.19918 0
M  V30 3800 C 358.635 -4.7864 0.495661 0
M  V30 3801 C 360.987 -5.12855 0.928939 0
M  V30 3802 C 358.315 -5.66497 1.52636 0
M  V30 3803 C 360.667 -6.01828 1.949 0
M  V30 3804 C 359.331 -6.28351 2.25236 0
M  V30 3805 H 358.601 -0.725961 -0.148529 0
M  V30 3806 H 361.248 -1.88668 0.328113 0
M  V30 3807 H 359.553 -3.53337 -1.69294 0
M  V30 3808 H 361.25 -3.76577 -1.37808 0
M  V30 3809 H 357.84 -4.28579 -0.0420526 0
M  V30 3810 H 362.024 -4.9115 0.713129 0
M  V30 3811 H 357.28 -5.8531 1.76698 0
M  V30 3812 H 361.454 -6.49225 2.51951 0
M  V30 3813 H 359.081 -6.96226 3.05244 0
M  V30 3814 N 360.656 0.0484629 -1.57525 0
M  V30 3815 C 361.904 0.741657 -1.88 0
M  V30 3816 C 362.225 1.76918 -0.820054 0
M  V30 3817 O 361.495 1.95335 0.148661 0
M  V30 3818 H 360.075 0.276908 -0.69378 0
M  V30 3819 H 362.737 0.019013 -1.94891 0
M  V30 3820 H 361.833 1.24336 -2.86264 0
M  V30 3821 N 362.134 1.5431 0.320358 0
M  V30 3822 C 363.381 1.72668 1.05792 0
M  V30 3823 C 363.709 0.502084 1.87908 0
M  V30 3824 O 362.964 -0.516149 1.88771 0
M  V30 3825 C 363.263 2.95639 2.00828 0
M  V30 3826 C 362.929 4.30265 1.34843 0
M  V30 3827 C 361.591 4.66865 1.16578 0
M  V30 3828 C 363.943 5.13801 0.875095 0
M  V30 3829 C 361.271 5.84597 0.496336 0
M  V30 3830 C 363.623 6.32219 0.219463 0
M  V30 3831 C 362.287 6.67495 0.0246915 0
M  V30 3832 H 361.557 0.631837 0.387121 0
M  V30 3833 H 364.204 1.88552 0.334735 0
M  V30 3834 H 362.509 2.74456 2.79609 0
M  V30 3835 H 364.206 3.07038 2.57932 0
M  V30 3836 H 360.796 4.01472 1.50061 0
M  V30 3837 H 364.98 4.86039 1.00398 0
M  V30 3838 H 360.236 6.10486 0.334264 0
M  V30 3839 H 364.41 6.96227 -0.155291 0
M  V30 3840 H 362.037 7.5858 -0.496065 0
M  V30 3841 N 363.613 -0.582584 1.46437 0
M  V30 3842 C 364.843 -1.36484 1.55099 0
M  V30 3843 C 365.251 -1.88233 0.191056 0
M  V30 3844 O 364.594 -1.6429 -0.821858 0
M  V30 3845 C 364.656 -2.588 2.49525 0
M  V30 3846 C 364.32 -2.28517 3.95764 0
M  V30 3847 C 365.317 -1.87346 4.84972 0
M  V30 3848 C 363.002 -2.40658 4.40896 0
M  V30 3849 C 364.996 -1.5871 6.17325 0
M  V30 3850 C 362.683 -2.11635 5.73284 0
M  V30 3851 C 363.681 -1.70725 6.61318 0
M  V30 3852 O 363.369 -1.42057 7.91249 0
M  V30 3853 H 363.101 -0.423297 0.527063 0
M  V30 3854 H 365.655 -0.715188 1.92547 0
M  V30 3855 H 363.885 -3.26571 2.07095 0
M  V30 3856 H 365.574 -3.20868 2.48593 0
M  V30 3857 H 366.34 -1.77481 4.5136 0
M  V30 3858 H 362.219 -2.71463 3.72598 0
M  V30 3859 H 365.763 -1.26704 6.85997 0
M  V30 3860 H 361.66 -2.21124 6.06444 0
M  V30 3861 H 362.428 -1.55901 8.03515 0
M  V30 3862 N 365.091 -1.34144 -0.827227 0
M  V30 3863 C 366.507 -1.13732 -1.11969 0
M  V30 3864 C 366.707 0.0640463 -2.01398 0
M  V30 3865 O 365.763 0.740856 -2.41387 0
M  V30 3866 C 367.076 -2.43047 -1.77055 0
M  V30 3867 C 368.624 -2.49063 -1.89569 0
M  V30 3868 C 369.099 -3.78369 -2.58072 0
M  V30 3869 N 370.59 -3.79505 -2.65575 0
M  V30 3870 C 371.325 -4.76274 -3.19297 0
M  V30 3871 N 370.821 -5.83424 -3.73616 0
M  V30 3872 N 372.614 -4.63735 -3.17658 0
M  V30 3873 H 364.765 -2.11126 -0.232296 0
M  V30 3874 H 367.028 -0.933424 -0.165602 0
M  V30 3875 H 366.734 -3.31025 -1.18807 0
M  V30 3876 H 366.608 -2.56066 -2.76966 0
M  V30 3877 H 368.995 -1.61527 -2.46968 0
M  V30 3878 H 369.076 -2.39975 -0.885745 0
M  V30 3879 H 368.72 -4.66293 -2.01329 0
M  V30 3880 H 368.65 -3.84737 -3.59562 0
M  V30 3881 H 371.141 -3.02074 -2.27068 0
M  V30 3882 H 371.454 -6.53282 -4.12846 0
M  V30 3883 H 369.799 -5.87143 -3.71871 0
M  V30 3884 H 372.99 -3.79177 -2.74486 0
M  V30 3885 H 373.163 -5.39318 -3.59221 0
M  V30 3886 N 366.569 1.04691 -1.17803 0
M  V30 3887 C 367.794 1.81984 -0.994813 0
M  V30 3888 C 368.219 1.82586 0.452112 0
M  V30 3889 O 367.577 1.23854 1.324 0
M  V30 3890 C 367.625 3.2575 -1.54659 0
M  V30 3891 O 366.729 4.05267 -0.763728 0
M  V30 3892 H 366.07 0.562483 -0.352857 0
M  V30 3893 H 368.6 1.3189 -1.56417 0
M  V30 3894 H 368.61 3.76541 -1.57102 0
M  V30 3895 H 367.285 3.24627 -2.59981 0
M  V30 3896 H 365.862 3.63972 -0.811108 0
M  V30 3897 N 368.047 0.979072 1.23499 0
M  V30 3898 C 369.295 0.645941 1.91499 0
M  V30 3899 C 369.616 -0.822948 1.76784 0
M  V30 3900 O 368.886 -1.58854 1.14639 0
M  V30 3901 H 367.466 0.235919 0.708767 0
M  V30 3902 H 370.128 1.2426 1.50152 0
M  V30 3903 H 369.224 0.896411 2.9895 0
M  V30 3904 N 369.525 -1.3858 0.750561 0
M  V30 3905 C 370.457 -2.29057 0.0810714 0
M  V30 3906 C 371.47 -1.47596 -0.686973 0
M  V30 3907 O 372.659 -1.70495 -0.528563 0
M  V30 3908 C 369.759 -3.26475 -0.909247 0
M  V30 3909 C 368.932 -4.36945 -0.199478 0
M  V30 3910 C 367.991 -5.14572 -1.10011 0
M  V30 3911 O 367.017 -5.66321 -0.57177 0
M  V30 3912 N 368.219 -5.27262 -2.42849 0
M  V30 3913 H 370.984 -2.87153 0.858087 0
M  V30 3914 H 368.545 -1.50328 0.60109 0
M  V30 3915 H 370.537 -3.75285 -1.51471 0
M  V30 3916 H 369.107 -2.69298 -1.58736 0
M  V30 3917 H 368.327 -3.8981 0.586664 0
M  V30 3918 H 369.615 -5.07963 0.291783 0
M  V30 3919 H 369.013 -4.86763 -2.88233 0
M  V30 3920 H 367.57 -5.79456 -2.98453 0
M  V30 3921 N 371.003 -0.499398 -1.49478 0
M  V30 3922 C 371.966 0.268838 -2.27618 0
M  V30 3923 C 372.966 0.895383 -1.33565 0
M  V30 3924 O 374.156 0.760164 -1.56739 0
M  V30 3925 C 371.288 1.38559 -3.11471 0
M  V30 3926 H 372.481 -0.416812 -2.96989 0
M  V30 3927 H 370.034 -0.254313 -1.54217 0
M  V30 3928 H 370.769 2.10544 -2.46661 0
M  V30 3929 H 370.554 0.941797 -3.80621 0
M  V30 3930 H 372.044 1.92678 -3.70493 0
M  V30 3931 N 372.481 1.55866 -0.233164 0
M  V30 3932 C 373.428 2.20796 0.67215 0
M  V30 3933 C 374.398 1.16731 1.18166 0
M  V30 3934 O 375.583 1.45129 1.23864 0
M  V30 3935 C 372.723 2.90072 1.86955 0
M  V30 3936 C 371.836 4.08759 1.39786 0
M  V30 3937 C 370.971 4.65787 2.55374 0
M  V30 3938 C 370.01 5.76752 2.04998 0
M  V30 3939 N 369.147 6.28021 3.13901 0
M  V30 3940 H 373.987 2.9779 0.111749 0
M  V30 3941 H 371.524 1.47036 0.0434007 0
M  V30 3942 H 373.482 3.28428 2.57276 0
M  V30 3943 H 372.112 2.15575 2.40265 0
M  V30 3944 H 371.164 3.7581 0.589173 0
M  V30 3945 H 372.476 4.88906 0.98856 0
M  V30 3946 H 371.63 5.06646 3.33758 0
M  V30 3947 H 370.369 3.84828 2.99598 0
M  V30 3948 H 369.374 5.35383 1.25079 0
M  V30 3949 H 370.599 6.59553 1.61759 0
M  V30 3950 H 368.545 5.49971 3.57586 0
M  V30 3951 H 368.462 7.03323 2.7726 0
M  V30 3952 H 369.73 6.73538 3.92386 0
M  V30 3953 N 373.959 -0.0401083 1.57549 0
M  V30 3954 C 374.869 -1.06133 2.0922 0
M  V30 3955 C 375.885 -1.40356 1.0284 0
M  V30 3956 O 377.061 -1.49897 1.34509 0
M  V30 3957 C 374.126 -2.34658 2.55218 0
M  V30 3958 C 373.187 -2.07117 3.76033 0
M  V30 3959 C 372.42 -3.29514 4.19829 0
M  V30 3960 O 372.643 -4.39794 3.63232 0
M  V30 3961 O 371.577 -3.15863 5.12362 0
M  V30 3962 H 375.403 -0.652244 2.96613 0
M  V30 3963 H 372.988 -0.256368 1.47184 0
M  V30 3964 H 374.87 -3.10239 2.85184 0
M  V30 3965 H 373.545 -2.74883 1.70941 0
M  V30 3966 H 372.452 -1.29139 3.51104 0
M  V30 3967 H 373.785 -1.71754 4.61261 0
M  V30 3968 N 375.437 -1.54477 -0.31217 0
M  V30 3969 C 376.665 -1.77205 -1.068 0
M  V30 3970 C 377.08 -0.526114 -1.81321 0
M  V30 3971 O 376.437 0.503647 -1.75413 0
M  V30 3972 C 376.488 -2.97253 -2.05725 0
M  V30 3973 O 376.209 -4.1703 -1.34228 0
M  V30 3974 C 377.71 -3.32281 -2.93435 0
M  V30 3975 H 374.93 -0.591287 -0.317208 0
M  V30 3976 H 377.474 -2.01398 -0.354834 0
M  V30 3977 H 375.629 -2.753 -2.72559 0
M  V30 3978 H 376.043 -4.84636 -2.00571 0
M  V30 3979 H 377.517 -4.19551 -3.58721 0
M  V30 3980 H 377.994 -2.49945 -3.61143 0
M  V30 3981 H 378.6 -3.56353 -2.32147 0
M  V30 3982 N 376.915 0.57481 -1.46744 0
M  V30 3983 C 378.164 1.32898 -1.51727 0
M  V30 3984 C 378.477 1.948 -0.176692 0
M  V30 3985 O 379.683 2.71299 -0.104385 0
M  V30 3986 C 378.139 2.40901 -2.67385 0
M  V30 3987 C 377.747 1.85266 -4.07898 0
M  V30 3988 C 379.491 3.17609 -2.81646 0
M  V30 3989 C 377.398 2.90945 -5.14883 0
M  V30 3990 H 376.328 0.499631 -0.564699 0
M  V30 3991 H 378.979 0.612536 -1.72975 0
M  V30 3992 H 377.361 3.15379 -2.39483 0
M  V30 3993 H 378.535 1.17278 -4.45626 0
M  V30 3994 H 376.85 1.21199 -3.98371 0
M  V30 3995 H 379.447 3.96493 -3.58744 0
M  V30 3996 H 379.79 3.70696 -1.89448 0
M  V30 3997 H 380.323 2.50239 -3.09233 0
M  V30 3998 H 377.062 2.42736 -6.089 0
M  V30 3999 H 376.582 3.57398 -4.81691 0
M  V30 4000 H 378.261 3.54755 -5.41071 0
M  V30 4001 N 378.394 1.34581 0.820102 0
M  V30 4002 C 379.805 1.24298 1.39309 0
M  V30 4003 C 380.156 -0.130351 1.95767 0
M  V30 4004 O 379.281 -1.0308 1.90272 0
M  V30 4005 C 379.876 2.25054 2.53251 0
M  V30 4006 C 378.435 2.18552 3.0645 0
M  V30 4007 C 377.582 2.11503 1.79337 0
M  V30 4008 H 380.533 1.45906 0.624262 0
M  V30 4009 H 380.554 1.86917 3.31425 0
M  V30 4010 H 380.066 3.24996 2.1213 0
M  V30 4011 H 378.167 1.21976 3.52069 0
M  V30 4012 H 378.28 3.0993 3.65349 0
M  V30 4013 H 376.644 1.57268 2.00347 0
M  V30 4014 H 377.427 3.13284 1.40386 0
M  V30 4015 N 379.872 -1.04064 1.18357 0
M  V30 4016 C 380.802 -2.14001 0.934113 0
M  V30 4017 C 381.783 -1.69616 -0.128186 0
M  V30 4018 O 382.968 -1.94185 0.0244093 0
M  V30 4019 C 380.098 -3.44253 0.459066 0
M  V30 4020 C 379.052 -4.02261 1.46185 0
M  V30 4021 C 378.378 -5.27992 0.844322 0
M  V30 4022 C 379.678 -4.38432 2.83856 0
M  V30 4023 H 381.372 -2.35127 1.85352 0
M  V30 4024 H 378.918 -1.12998 0.892604 0
M  V30 4025 H 380.871 -4.20522 0.271907 0
M  V30 4026 H 379.595 -3.22813 -0.495912 0
M  V30 4027 H 378.254 -3.28074 1.63595 0
M  V30 4028 H 377.902 -5.02862 -0.117845 0
M  V30 4029 H 377.602 -5.67765 1.51384 0
M  V30 4030 H 379.126 -6.06938 0.667693 0
M  V30 4031 H 380.54 -5.05688 2.70098 0
M  V30 4032 H 378.937 -4.89254 3.47491 0
M  V30 4033 H 380.007 -3.4826 3.37406 0
M  V30 4034 N 381.35 -0.985608 -1.22978 0
M  V30 4035 C 382.282 -0.488154 -2.23941 0
M  V30 4036 C 383.295 0.41282 -1.57479 0
M  V30 4037 O 384.484 0.216121 -1.77187 0
M  V30 4038 C 381.584 0.312611 -3.37455 0
M  V30 4039 C 380.757 -0.582741 -4.33501 0
M  V30 4040 C 379.816 0.165064 -5.25941 0
M  V30 4041 O 378.842 -0.447077 -5.67442 0
M  V30 4042 N 380.044 1.44953 -5.62111 0
M  V30 4043 H 382.809 -1.3563 -2.67254 0
M  V30 4044 H 380.37 -0.859477 -1.37203 0
M  V30 4045 H 382.362 0.821357 -3.96277 0
M  V30 4046 H 380.932 1.0818 -2.93285 0
M  V30 4047 H 380.152 -1.27225 -3.73105 0
M  V30 4048 H 381.44 -1.19275 -4.94622 0
M  V30 4049 H 380.838 1.9683 -5.30353 0
M  V30 4050 H 379.395 1.90361 -6.23383 0
M  V30 4051 N 382.828 1.3818 -0.7579 0
M  V30 4052 C 383.738 2.3421 -0.135247 0
M  V30 4053 C 384.754 1.59487 0.695683 0
M  V30 4054 O 385.93 1.91657 0.618832 0
M  V30 4055 C 382.995 3.3862 0.744139 0
M  V30 4056 C 382.056 4.2918 -0.101658 0
M  V30 4057 C 381.289 5.28603 0.735851 0
M  V30 4058 O 381.512 5.35166 1.97366 0
M  V30 4059 O 380.446 6.01707 0.152372 0
M  V30 4060 H 384.272 2.8916 -0.928436 0
M  V30 4061 H 381.857 1.40101 -0.518855 0
M  V30 4062 H 383.739 4.02539 1.2466 0
M  V30 4063 H 382.414 2.86019 1.51575 0
M  V30 4064 H 381.321 3.68407 -0.650167 0
M  V30 4065 H 382.654 4.85048 -0.836024 0
M  V30 4066 N 384.306 0.507319 1.49211 0
M  V30 4067 C 385.534 -0.0315749 2.06876 0
M  V30 4068 C 385.949 -1.30241 1.36685 0
M  V30 4069 O 385.306 -1.76937 0.447152 0
M  V30 4070 C 385.357 -0.282627 3.60393 0
M  V30 4071 O 385.078 0.937835 4.27944 0
M  V30 4072 C 386.579 -0.864453 4.3479 0
M  V30 4073 H 383.799 0.0233048 0.670595 0
M  V30 4074 H 386.343 0.706484 1.91909 0
M  V30 4075 H 384.498 -0.97068 3.75042 0
M  V30 4076 H 384.912 0.704567 5.19746 0
M  V30 4077 H 386.386 -0.989664 5.43056 0
M  V30 4078 H 386.863 -1.86382 3.97692 0
M  V30 4079 H 387.469 -0.213672 4.24763 0
M  V30 4080 N 385.784 -1.5574 0.241426 0
M  V30 4081 C 387.009 -2.0366 -0.392111 0
M  V30 4082 C 387.434 -1.11969 -1.51144 0
M  V30 4083 O 386.792 -0.111594 -1.80956 0
M  V30 4084 C 386.84 -3.49638 -0.882371 0
M  V30 4085 O 385.944 -3.6108 -1.99235 0
M  V30 4086 H 385.285 -0.658379 -0.0862122 0
M  V30 4087 H 387.815 -2.01302 0.365881 0
M  V30 4088 H 387.825 -3.90351 -1.18702 0
M  V30 4089 H 386.5 -4.15852 -0.0632361 0
M  V30 4090 H 385.077 -3.32262 -1.69282 0
M  V30 4091 N 387.262 0.0317525 -1.57568 0
M  V30 4092 C 388.192 1.03274 -2.0942 0
M  V30 4093 C 389.173 1.3788 -0.996143 0
M  V30 4094 O 390.358 1.46811 -1.27122 0
M  V30 4095 C 387.488 2.33448 -2.57137 0
M  V30 4096 C 386.442 2.13091 -3.71182 0
M  V30 4097 C 385.768 3.49001 -4.05095 0
M  V30 4098 C 387.068 1.51928 -4.99715 0
M  V30 4099 H 388.762 0.60112 -2.93303 0
M  V30 4100 H 386.308 0.287705 -1.41097 0
M  V30 4101 H 388.261 3.03802 -2.92032 0
M  V30 4102 H 386.985 2.78665 -1.70333 0
M  V30 4103 H 385.644 1.45171 -3.36632 0
M  V30 4104 H 385.292 3.91862 -3.15362 0
M  V30 4105 H 384.992 3.36207 -4.81911 0
M  V30 4106 H 386.516 4.20721 -4.42522 0
M  V30 4107 H 387.93 2.12196 -5.32584 0
M  V30 4108 H 386.327 1.49716 -5.81124 0
M  V30 4109 H 387.397 0.484811 -4.8247 0
M  V30 4110 N 388.74 1.54641 0.303973 0
M  V30 4111 C 389.97 1.77511 1.05705 0
M  V30 4112 C 390.378 0.533228 1.81531 0
M  V30 4113 O 389.721 -0.506423 1.76582 0
M  V30 4114 C 389.783 2.92779 2.08617 0
M  V30 4115 C 389.447 4.30977 1.52013 0
M  V30 4116 C 390.444 5.11115 0.9517 0
M  V30 4117 C 388.129 4.77571 1.55665 0
M  V30 4118 C 390.123 6.35966 0.427327 0
M  V30 4119 C 387.81 6.02384 1.02841 0
M  V30 4120 C 388.808 6.81417 0.464713 0
M  V30 4121 O 388.496 8.03881 -0.0555283 0
M  V30 4122 H 388.228 0.59579 0.319391 0
M  V30 4123 H 390.782 2.02401 0.349712 0
M  V30 4124 H 389.012 2.63506 2.83022 0
M  V30 4125 H 390.701 3.03252 2.69802 0
M  V30 4126 H 391.467 4.76264 0.916407 0
M  V30 4127 H 387.346 4.16085 1.9848 0
M  V30 4128 H 390.89 6.97599 -0.0133062 0
M  V30 4129 H 386.787 6.36723 1.06084 0
M  V30 4130 H 387.555 8.18479 0.0580522 0
M  V30 4131 N 390.218 -0.567019 1.47046 0
M  V30 4132 C 391.446 -1.35027 1.56765 0
M  V30 4133 C 391.861 -1.8758 0.214316 0
M  V30 4134 O 391.218 -1.64471 -0.790919 0
M  V30 4135 C 391.269 -2.52698 2.58507 0
M  V30 4136 O 390.99 -2.0232 3.88585 0
M  V30 4137 C 392.491 -3.45043 2.78316 0
M  V30 4138 H 389.711 -0.41195 0.529658 0
M  V30 4139 H 392.255 -0.687832 1.92585 0
M  V30 4140 H 390.41 -3.149 2.25648 0
M  V30 4141 H 390.824 -2.79068 4.44096 0
M  V30 4142 H 392.298 -4.2405 3.53391 0
M  V30 4143 H 392.775 -3.97971 1.85784 0
M  V30 4144 H 393.381 -2.88665 3.12334 0
M  V30 4145 N 391.696 -1.35014 -0.812953 0
M  V30 4146 C 392.628 -1.23262 -1.93233 0
M  V30 4147 C 393.641 -0.157371 -1.62038 0
M  V30 4148 O 394.83 -0.410096 -1.73725 0
M  V30 4149 C 391.93 -0.87392 -3.27438 0
M  V30 4150 C 391.103 -2.04622 -3.86586 0
M  V30 4151 C 390.162 -1.66432 -4.99186 0
M  V30 4152 O 389.188 -2.38222 -5.16951 0
M  V30 4153 N 390.39 -0.584248 -5.77552 0
M  V30 4154 H 393.155 -2.19699 -2.03844 0
M  V30 4155 H 390.716 -1.281 -0.99005 0
M  V30 4156 H 392.708 -0.600039 -4.00227 0
M  V30 4157 H 391.278 0.00057392 -3.126 0
M  V30 4158 H 390.498 -2.48427 -3.06068 0
M  V30 4159 H 391.786 -2.82999 -4.22835 0
M  V30 4160 H 391.184 0.0123526 -5.65699 0
M  V30 4161 H 389.741 -0.37013 -6.50748 0
M  V30 4162 N 393.175 1.03435 -1.18907 0
M  V30 4163 C 394.452 1.73778 -0.89781 0
M  V30 4164 C 394.832 2.02458 0.597832 0
M  V30 4165 O 394.18 1.67482 1.55441 0
M  V30 4166 C 394.39 3.01845 -1.75187 0
M  V30 4167 C 395.738 3.7546 -1.9828 0
M  V30 4168 O 396.762 3.11759 -1.72293 0
M  V30 4169 O 395.621 4.89966 -2.42065 0
M  V30 4170 H 392.715 0.75651 -0.334098 0
M  V30 4171 H 395.261 1.09444 -1.29693 0
M  V30 4172 H 394.033 2.76836 -2.76545 0
M  V30 4173 H 393.656 3.73919 -1.35167 0
M  V30 4174 N 394.653 0.992116 1.22453 0
M  V30 4175 C 396.069 0.702713 1.43297 0
M  V30 4176 C 396.269 -0.726909 1.87932 0
M  V30 4177 O 395.325 -1.49792 2.0327 0
M  V30 4178 C 396.638 1.70762 2.47509 0
M  V30 4179 C 398.186 1.72298 2.61309 0
M  V30 4180 C 398.661 2.71649 3.68742 0
M  V30 4181 N 400.152 2.70239 3.76199 0
M  V30 4182 C 400.887 3.43778 4.58917 0
M  V30 4183 N 400.383 4.26914 5.45633 0
M  V30 4184 N 402.176 3.32487 4.5322 0
M  V30 4185 H 394.327 1.91543 0.917871 0
M  V30 4186 H 396.59 0.826031 0.465162 0
M  V30 4187 H 396.296 2.73059 2.21657 0
M  V30 4188 H 396.17 1.49985 3.46099 0
M  V30 4189 H 398.557 0.706989 2.86506 0
M  V30 4190 H 398.638 1.97143 1.62997 0
M  V30 4191 H 398.282 3.73397 3.44292 0
M  V30 4192 H 398.212 2.44074 4.66622 0
M  V30 4193 H 400.703 2.09912 3.14237 0
M  V30 4194 H 401.016 4.79855 6.05771 0
M  V30 4195 H 399.361 4.31002 5.45218 0
M  V30 4196 H 402.552 2.6698 3.84499 0
M  V30 4197 H 402.725 3.90058 5.17454 0
M  V30 4198 N 396.131 -1.37776 0.765217 0
M  V30 4199 C 397.061 -2.32945 0.160953 0
M  V30 4200 C 398.042 -1.55454 -0.690516 0
M  V30 4201 O 399.227 -1.83721 -0.629318 0
M  V30 4202 C 396.357 -3.39669 -0.724031 0
M  V30 4203 C 395.311 -4.27992 0.0256173 0
M  V30 4204 C 394.637 -5.25673 -0.978383 0
M  V30 4205 C 395.937 -5.08309 1.20082 0
M  V30 4206 H 397.631 -2.83728 0.955969 0
M  V30 4207 H 395.177 -1.36416 0.461149 0
M  V30 4208 H 397.13 -4.05219 -1.15652 0
M  V30 4209 H 395.854 -2.87396 -1.5515 0
M  V30 4210 H 394.513 -3.63964 0.438812 0
M  V30 4211 H 394.161 -4.69682 -1.80022 0
M  V30 4212 H 393.861 -5.85625 -0.481378 0
M  V30 4213 H 395.385 -5.94098 -1.40995 0
M  V30 4214 H 396.799 -5.67034 0.845307 0
M  V30 4215 H 395.196 -5.77554 1.62947 0
M  V30 4216 H 396.266 -4.41365 2.00811 0
M  V30 4217 N 397.609 -0.515225 -1.4894 0
M  V30 4218 C 398.857 0.0241671 -2.02086 0
M  V30 4219 C 399.178 1.3616 -1.3959 0
M  V30 4220 O 398.448 1.87841 -0.556121 0
M  V30 4221 H 397.028 0.0119203 -0.746905 0
M  V30 4222 H 399.69 -0.675702 -1.82812 0
M  V30 4223 H 398.786 0.143385 -3.1177 0
M  V30 4224 N 399.087 1.5561 -0.249682 0
M  V30 4225 C 400.017 2.24477 0.642826 0
M  V30 4226 C 400.998 1.22601 1.17911 0
M  V30 4227 O 402.183 1.5126 1.21795 0
M  V30 4228 C 399.313 2.94638 1.83863 0
M  V30 4229 C 398.267 4.03227 1.435 0
M  V30 4230 C 397.593 4.60828 2.71186 0
M  V30 4231 C 398.893 5.18796 0.604002 0
M  V30 4232 H 400.587 2.99321 0.0685625 0
M  V30 4233 H 398.133 1.43965 0.0315363 0
M  V30 4234 H 400.086 3.41517 2.46868 0
M  V30 4235 H 398.81 2.17287 2.43832 0
M  V30 4236 H 397.469 3.57121 0.828275 0
M  V30 4237 H 397.117 3.80174 3.29358 0
M  V30 4238 H 396.817 5.34132 2.44901 0
M  V30 4239 H 398.341 5.10442 3.35084 0
M  V30 4240 H 399.755 5.61883 1.13842 0
M  V30 4241 H 398.152 5.98506 0.437097 0
M  V30 4242 H 399.222 4.83384 -0.383147 0
M  V30 4243 N 400.565 -0.0233959 1.57583 0
M  V30 4244 C 401.512 -1.02224 2.06927 0
M  V30 4245 C 402.482 -1.35575 0.959617 0
M  V30 4246 O 403.667 -1.45815 1.23055 0
M  V30 4247 C 400.807 -2.31636 2.5581 0
M  V30 4248 C 399.92 -2.04394 3.80588 0
M  V30 4249 C 399.055 -3.27717 4.18061 0
M  V30 4250 C 398.094 -2.96056 5.3574 0
M  V30 4251 N 397.231 -4.11847 5.68618 0
M  V30 4252 H 402.071 -0.594504 2.9201 0
M  V30 4253 H 399.608 -0.281921 1.44373 0
M  V30 4254 H 401.566 -3.07258 2.82221 0
M  V30 4255 H 400.196 -2.72122 1.73636 0
M  V30 4256 H 399.248 -1.19244 3.61227 0
M  V30 4257 H 400.56 -1.77042 4.66323 0
M  V30 4258 H 399.714 -4.11702 4.4563 0
M  V30 4259 H 398.453 -3.58188 3.30988 0
M  V30 4260 H 397.458 -2.10474 5.07918 0
M  V30 4261 H 398.683 -2.66857 6.24471 0
M  V30 4262 H 396.629 -4.42258 4.84504 0
M  V30 4263 H 396.546 -3.87938 6.48876 0
M  V30 4264 H 397.814 -4.96689 6.00766 0
M  V30 4265 N 402.043 -1.548 -0.295768 0
M  V30 4266 C 402.953 -1.89177 -1.38742 0
M  V30 4267 C 403.969 -0.786481 -1.55211 0
M  V30 4268 O 405.145 -1.08344 -1.69775 0
M  V30 4269 C 402.21 -2.13663 -2.73036 0
M  V30 4270 C 401.271 -3.37349 -2.65508 0
M  V30 4271 C 400.504 -3.60658 -3.93398 0
M  V30 4272 O 400.727 -2.86882 -4.93006 0
M  V30 4273 O 399.661 -4.54179 -3.94975 0
M  V30 4274 H 403.487 -2.82059 -1.12589 0
M  V30 4275 H 401.072 -1.41056 -0.492295 0
M  V30 4276 H 402.954 -2.3094 -3.52484 0
M  V30 4277 H 401.629 -1.23967 -2.99022 0
M  V30 4278 H 400.536 -3.25431 -1.84514 0
M  V30 4279 H 401.869 -4.27192 -2.44474 0
M  V30 4280 N 403.521 0.559213 -1.47345 0
M  V30 4281 C 404.454 1.68201 -1.5422 0
M  V30 4282 C 405.432 1.57742 -0.394497 0
M  V30 4283 O 406.616 1.78628 -0.60201 0
M  V30 4284 C 403.743 3.0643 -1.44285 0
M  V30 4285 C 402.789 3.3534 -2.63532 0
M  V30 4286 S 403.622 3.24816 -4.25741 0
M  V30 4287 C 404.778 4.65542 -4.18355 0
M  V30 4288 H 405.011 1.62114 -2.49211 0
M  V30 4289 H 402.544 0.739871 -1.35519 0
M  V30 4290 H 404.502 3.86164 -1.3924 0
M  V30 4291 H 403.163 3.09984 -0.506816 0
M  V30 4292 H 402.356 4.36107 -2.52639 0
M  V30 4293 H 401.958 2.63221 -2.65689 0
M  V30 4294 H 404.25 5.56449 -3.86485 0
M  V30 4295 H 405.193 4.81493 -5.19202 0
M  V30 4296 H 405.601 4.43495 -3.49246 0
M  V30 4297 N 404.999 1.35443 0.805782 0
M  V30 4298 C 406.276 1.19325 1.54987 0
M  V30 4299 C 406.656 -0.227294 2.09873 0
M  V30 4300 O 406.004 -1.2309 1.92512 0
M  V30 4301 C 406.214 2.26196 2.65775 0
M  V30 4302 C 407.562 2.62043 3.34094 0
M  V30 4303 O 408.586 2.25115 2.76046 0
M  V30 4304 O 407.445 3.25542 4.38958 0
M  V30 4305 H 404.539 0.463623 0.684823 0
M  V30 4306 H 407.085 1.47127 0.845674 0
M  V30 4307 H 405.857 3.21471 2.23096 0
M  V30 4308 H 405.48 1.99667 3.43829 0
M  V30 4309 N 406.477 -1.02803 1.19454 0
M  V30 4310 C 407.425 -2.13213 0.929673 0
M  V30 4311 C 408.419 -1.69011 -0.114806 0
M  V30 4312 O 409.625 -1.79967 0.0345147 0
M  V30 4313 H 406 -0.69662 0.28324 0
M  V30 4314 H 407.971 -2.32744 1.86743 0
M  V30 4315 C 406.72 -3.4429 0.485797 0
M  V30 4316 H 406.043 -3.7872 1.28105 0
M  V30 4317 H 407.483 -4.22638 0.339582 0
M  V30 4318 C 405.942 -3.27258 -0.800244 0
M  V30 4319 O 406.472 -3.55967 -1.86146 0
M  V30 4320 N 404.678 -2.80545 -0.75781 0
M  V30 4321 H 404.225 -2.57382 0.106039 0
M  V30 4322 H 404.183 -2.6953 -1.61867 0
M  V30 4323 N 407.956 -0.998596 -1.21925 0
M  V30 4324 C 408.919 -0.558679 -2.22287 0
M  V30 4325 C 409.919 0.361525 -1.56683 0
M  V30 4326 O 411.109 0.152695 -1.73529 0
M  V30 4327 C 408.241 0.18661 -3.40389 0
M  V30 4328 H 409.434 -1.4463 -2.62721 0
M  V30 4329 H 406.987 -0.786413 -1.35075 0
M  V30 4330 H 407.722 1.08996 -3.05435 0
M  V30 4331 H 407.507 -0.474188 -3.89222 0
M  V30 4332 H 408.997 0.482367 -4.14805 0
M  V30 4333 N 409.434 1.37368 -0.772513 0
M  V30 4334 C 410.682 1.99279 -0.336516 0
M  V30 4335 C 411.003 1.6163 1.09091 0
M  V30 4336 O 410.273 0.882109 1.74916 0
M  V30 4337 H 408.853 0.737063 -0.121435 0
M  V30 4338 H 411.515 1.67836 -0.990809 0
M  V30 4339 H 410.611 3.09332 -0.414763 0
M  V30 4340 N 410.912 0.523116 1.48665 0
M  V30 4341 C 411.844 -0.280421 2.27478 0
M  V30 4342 C 412.857 -0.910694 1.34945 0
M  V30 4343 O 414.046 -0.790295 1.60052 0
M  V30 4344 C 411.146 -1.41171 3.08097 0
M  V30 4345 C 410.319 -0.884642 4.28361 0
M  V30 4346 C 409.378 -1.89622 4.90846 0
M  V30 4347 O 408.404 -1.4559 5.50265 0
M  V30 4348 N 409.606 -3.22801 4.82472 0
M  V30 4349 H 412.371 0.395481 2.97079 0
M  V30 4350 H 409.932 0.357018 1.57915 0
M  V30 4351 H 411.924 -2.08645 3.4677 0
M  V30 4352 H 410.494 -1.99139 2.40961 0
M  V30 4353 H 409.714 -0.0341177 3.94185 0
M  V30 4354 H 411.002 -0.511268 5.06225 0
M  V30 4355 H 410.4 -3.61246 4.35336 0
M  V30 4356 H 408.957 -3.85927 5.25265 0
M  V30 4357 N 412.39 -1.55475 0.257931 0
M  V30 4358 C 413.32 -2.24815 -0.630912 0
M  V30 4359 C 414.301 -1.23224 -1.17259 0
M  V30 4360 O 415.486 -1.51904 -1.20991 0
M  V30 4361 C 412.616 -2.95609 -1.82298 0
M  V30 4362 C 411.57 -4.03982 -1.41359 0
M  V30 4363 C 410.896 -4.6226 -2.68738 0
M  V30 4364 C 412.196 -5.19109 -0.57648 0
M  V30 4365 H 413.89 -2.99354 -0.0526878 0
M  V30 4366 H 411.436 -1.4398 -0.023901 0
M  V30 4367 H 413.389 -3.42822 -2.45054 0
M  V30 4368 H 412.113 -2.18577 -2.42676 0
M  V30 4369 H 410.772 -3.57555 -0.809324 0
M  V30 4370 H 410.42 -3.81915 -3.27338 0
M  V30 4371 H 410.12 -5.35424 -2.42065 0
M  V30 4372 H 411.644 -5.12212 -3.32372 0
M  V30 4373 H 413.058 -5.62479 -1.10861 0
M  V30 4374 H 411.455 -5.98729 -0.405351 0
M  V30 4375 H 412.525 -4.83174 0.408776 0
M  V30 4376 N 413.868 0.0150385 -1.57593 0
M  V30 4377 C 415.114 0.704043 -1.90187 0
M  V30 4378 C 415.447 1.74249 -0.857366 0
M  V30 4379 O 414.722 1.94092 0.125843 0
M  V30 4380 C 415.005 1.36087 -3.33395 0
M  V30 4381 C 414.858 0.334981 -4.48551 0
M  V30 4382 C 416.177 2.29112 -3.7576 0
M  V30 4383 H 413.296 0.254475 -0.691673 0
M  V30 4384 H 415.938 -0.0331678 -1.89971 0
M  V30 4385 H 414.088 1.98922 -3.3371 0
M  V30 4386 H 415.76 -0.292534 -4.60372 0
M  V30 4387 H 414.003 -0.344325 -4.32431 0
M  V30 4388 H 414.674 0.833316 -5.45674 0
M  V30 4389 H 417.15 1.76308 -3.76902 0
M  V30 4390 H 416.026 2.72043 -4.76743 0
M  V30 4391 H 416.287 3.16385 -3.08793 0
M  V30 4392 N 415.346 1.54954 0.287554 0
M  V30 4393 C 416.593 1.74873 1.02106 0
M  V30 4394 C 416.921 0.541829 1.86801 0
M  V30 4395 O 416.176 -0.475992 1.89823 0
M  V30 4396 C 416.475 2.99833 1.94512 0
M  V30 4397 C 416.141 4.33029 1.25686 0
M  V30 4398 C 414.803 4.69233 1.06649 0
M  V30 4399 C 417.155 5.15542 0.765913 0
M  V30 4400 C 414.483 5.85518 0.372222 0
M  V30 4401 C 416.835 6.32542 0.0853101 0
M  V30 4402 C 415.499 6.67398 -0.1169 0
M  V30 4403 H 414.769 0.639906 0.373632 0
M  V30 4404 H 417.416 1.89219 0.294665 0
M  V30 4405 H 415.721 2.80325 2.73725 0
M  V30 4406 H 417.418 3.1244 2.51361 0
M  V30 4407 H 414.008 4.04564 1.41512 0
M  V30 4408 H 418.192 4.88059 0.90066 0
M  V30 4409 H 413.448 6.11057 0.204695 0
M  V30 4410 H 417.622 6.95741 -0.302936 0
M  V30 4411 H 415.249 7.57357 -0.656859 0
M  V30 4412 N 416.824 -0.551391 1.4764 0
M  V30 4413 C 417.754 -1.66757 1.63445 0
M  V30 4414 C 418.735 -1.63077 0.483742 0
M  V30 4415 O 419.92 -1.80607 0.71377 0
M  V30 4416 C 417.05 -3.05387 1.65396 0
M  V30 4417 C 416.004 -3.23918 2.79752 0
M  V30 4418 C 415.33 -4.63393 2.66779 0
M  V30 4419 C 416.63 -3.08735 4.21284 0
M  V30 4420 H 418.324 -1.53786 2.56886 0
M  V30 4421 H 415.87 -0.738415 1.23626 0
M  V30 4422 H 417.823 -3.83325 1.75043 0
M  V30 4423 H 416.547 -3.19332 0.685195 0
M  V30 4424 H 415.206 -2.48391 2.69625 0
M  V30 4425 H 414.854 -4.74144 1.67918 0
M  V30 4426 H 414.554 -4.7674 3.43501 0
M  V30 4427 H 416.078 -5.43458 2.78364 0
M  V30 4428 H 417.492 -3.76484 4.32357 0
M  V30 4429 H 415.889 -3.33588 4.98838 0
M  V30 4430 H 416.959 -2.0541 4.39243 0
M  V30 4431 N 418.302 -1.35869 -0.798587 0
M  V30 4432 C 419.265 -1.29307 -1.89242 0
M  V30 4433 C 420.265 -0.202747 -1.59517 0
M  V30 4434 O 421.455 -0.456957 -1.681 0
M  V30 4435 C 418.587 -1.00229 -3.25833 0
M  V30 4436 H 419.78 -2.26576 -1.96478 0
M  V30 4437 H 417.333 -1.20509 -0.995358 0
M  V30 4438 H 418.068 -0.033801 -3.24282 0
M  V30 4439 H 417.853 -1.79121 -3.48795 0
M  V30 4440 H 419.343 -0.98219 -4.05885 0
M  V30 4441 N 419.78 1.02168 -1.19998 0
M  V30 4442 C 421.008 1.79296 -1.03249 0
M  V30 4443 C 421.423 1.84103 0.418502 0
M  V30 4444 O 420.78 1.29031 1.29063 0
M  V30 4445 C 420.831 3.24007 -1.60319 0
M  V30 4446 O 420.552 3.19512 -2.99739 0
M  V30 4447 C 422.053 4.17704 -1.48453 0
M  V30 4448 H 419.273 0.564016 -0.363493 0
M  V30 4449 H 421.817 1.28639 -1.58973 0
M  V30 4450 H 419.972 3.7183 -1.08727 0
M  V30 4451 H 420.386 4.10306 -3.26725 0
M  V30 4452 H 421.86 5.17104 -1.93153 0
M  V30 4453 H 422.337 4.37029 -0.436193 0
M  V30 4454 H 422.943 3.7576 -1.99211 0
M  V30 4455 N 421.258 1.00505 1.21394 0
M  V30 4456 C 422.168 0.574806 2.27449 0
M  V30 4457 C 423.184 -0.382206 1.6975 0
M  V30 4458 O 424.36 -0.246027 1.99892 0
M  V30 4459 C 421.425 -0.0917414 3.46579 0
M  V30 4460 C 420.486 0.909758 4.1955 0
M  V30 4461 C 419.719 0.274924 5.32991 0
M  V30 4462 O 419.942 -0.928254 5.62796 0
M  V30 4463 O 418.876 0.985877 5.93771 0
M  V30 4464 H 422.702 1.45744 2.66444 0
M  V30 4465 H 420.287 0.773923 1.27792 0
M  V30 4466 H 422.169 -0.464551 4.18832 0
M  V30 4467 H 420.844 -0.948755 3.09484 0
M  V30 4468 H 419.751 1.33372 3.49518 0
M  V30 4469 H 421.084 1.73636 4.60555 0
M  V30 4470 N 422.737 -1.36956 0.779787 0
M  V30 4471 C 423.985 -1.99097 0.347079 0
M  V30 4472 C 424.306 -1.62206 -1.08232 0
M  V30 4473 O 423.576 -0.891373 -1.74446 0
M  V30 4474 H 422.156 -0.736409 0.125342 0
M  V30 4475 H 424.818 -1.67308 0.999696 0
M  V30 4476 H 423.914 -3.09107 0.431162 0
M  V30 4477 N 424.215 -0.530993 -1.48385 0
M  V30 4478 C 425.492 0.0671788 -1.95485 0
M  V30 4479 C 425.872 1.51191 -1.47324 0
M  V30 4480 O 425.22 2.17507 -0.700202 0
M  V30 4481 C 425.43 -0.0511206 -3.48963 0
M  V30 4482 C 426.778 0.107632 -4.24464 0
M  V30 4483 O 427.802 0.0226248 -3.56193 0
M  V30 4484 O 426.661 0.285972 -5.45751 0
M  V30 4485 H 423.755 0.0787365 -0.823243 0
M  V30 4486 H 426.301 -0.595662 -1.58902 0
M  V30 4487 H 425.073 -1.05747 -3.7674 0
M  V30 4488 H 424.696 0.650525 -3.92242 0
M  V30 4489 N 425.693 1.55336 -0.266172 0
M  V30 4490 C 426.643 2.18848 0.639497 0
M  V30 4491 C 427.627 1.1503 1.12503 0
M  V30 4492 O 428.819 1.40875 1.0716 0
M  V30 4493 C 425.948 2.90626 1.82733 0
M  V30 4494 C 425.034 4.01723 1.35939 0
M  V30 4495 N 425.425 5.02145 0.606988 0
M  V30 4496 C 423.723 4.1463 1.6431 0
M  V30 4497 C 424.424 5.80572 0.362138 0
M  V30 4498 N 423.4 5.35551 0.931971 0
M  V30 4499 H 427.202 2.93845 0.0567057 0
M  V30 4500 H 424.716 1.62252 -0.0693312 0
M  V30 4501 H 426.713 3.34569 2.48735 0
M  V30 4502 H 425.373 2.17137 2.41416 0
M  V30 4503 H 426.384 5.17271 0.255198 0
M  V30 4504 H 423.061 3.52326 2.23993 0
M  V30 4505 H 424.451 6.71472 -0.239848 0
M  V30 4506 N 427.171 -0.0066808 1.57599 0
M  V30 4507 C 428.101 -0.999296 2.11036 0
M  V30 4508 C 429.082 -1.36278 1.01795 0
M  V30 4509 O 430.267 -1.4477 1.29442 0
M  V30 4510 C 427.397 -2.29328 2.60818 0
M  V30 4511 C 426.351 -2.07159 3.74525 0
M  V30 4512 C 425.677 -3.42512 4.10596 0
M  V30 4513 C 426.977 -1.43959 5.02069 0
M  V30 4514 H 428.671 -0.554382 2.94223 0
M  V30 4515 H 426.217 -0.265221 1.41536 0
M  V30 4516 H 428.17 -2.99117 2.96828 0
M  V30 4517 H 426.894 -2.7592 1.74745 0
M  V30 4518 H 425.553 -1.39797 3.38899 0
M  V30 4519 H 425.201 -3.86795 3.21556 0
M  V30 4520 H 424.901 -3.28498 4.87199 0
M  V30 4521 H 426.425 -4.13628 4.4916 0
M  V30 4522 H 427.839 -2.03696 5.35893 0
M  V30 4523 H 426.236 -1.40452 5.83432 0
M  V30 4524 H 427.306 -0.407992 4.83181 0
M  V30 4525 N 428.649 -1.55105 -0.279332 0
M  V30 4526 C 429.581 -1.83952 -1.36727 0
M  V30 4527 C 430.594 -0.723642 -1.45833 0
M  V30 4528 O 431.783 -1.00141 -1.47763 0
M  V30 4529 C 428.883 -1.98183 -2.74912 0
M  V30 4530 C 428.056 -3.28787 -2.88475 0
M  V30 4531 C 427.115 -3.33162 -4.07295 0
M  V30 4532 O 426.141 -4.06576 -3.98353 0
M  V30 4533 N 427.343 -2.60109 -5.18964 0
M  V30 4534 H 430.108 -2.77853 -1.12328 0
M  V30 4535 H 427.669 -1.54945 -0.469442 0
M  V30 4536 H 429.661 -1.98488 -3.52682 0
M  V30 4537 H 428.231 -1.11177 -2.92162 0
M  V30 4538 H 427.451 -3.41075 -1.97641 0
M  V30 4539 H 428.739 -4.14933 -2.94463 0
M  V30 4540 H 428.137 -2.00136 -5.29115 0
M  V30 4541 H 426.694 -2.66143 -5.94988 0
M  V30 4542 N 430.127 0.543554 -1.4793 0
M  V30 4543 C 431.057 1.65888 -1.64327 0
M  V30 4544 C 432.038 1.62818 -0.492383 0
M  V30 4545 O 433.223 1.80226 -0.723338 0
M  V30 4546 C 430.353 3.04506 -1.67013 0
M  V30 4547 C 429.307 3.2243 -2.81466 0
M  V30 4548 C 428.633 4.61972 -2.69233 0
M  V30 4549 C 429.933 3.06496 -4.22915 0
M  V30 4550 H 431.627 1.52421 -2.57698 0
M  V30 4551 H 429.173 0.731849 -1.24016 0
M  V30 4552 H 431.126 3.82391 -1.77074 0
M  V30 4553 H 429.85 3.18964 -0.70212 0
M  V30 4554 H 428.509 2.46957 -2.70938 0
M  V30 4555 H 428.157 4.73247 -1.7043 0
M  V30 4556 H 427.857 4.74911 -3.46025 0
M  V30 4557 H 429.381 5.41974 -2.81242 0
M  V30 4558 H 430.795 3.74186 -4.34348 0
M  V30 4559 H 429.192 3.30938 -5.006 0
M  V30 4560 H 430.262 2.03077 -4.40327 0
M  V30 4561 N 431.605 1.3629 0.791371 0
M  V30 4562 C 432.83 1.33726 1.58531 0
M  V30 4563 C 433.255 -0.0794933 1.87932 0
M  V30 4564 O 432.613 -1.05087 1.47738 0
M  V30 4565 C 432.661 2.16425 2.88431 0
M  V30 4566 O 431.765 1.5554 3.81944 0
M  V30 4567 H 431.106 0.457793 0.480959 0
M  V30 4568 H 433.636 1.79547 0.981031 0
M  V30 4569 H 433.646 2.28933 3.37718 0
M  V30 4570 H 432.321 3.19415 2.66359 0
M  V30 4571 H 430.898 1.51961 3.40532 0
M  V30 4572 N 433.083 -1.0153 1.20538 0
M  V30 4573 C 433.993 -2.13557 0.971113 0
M  V30 4574 C 435.009 -1.73845 -0.0734366 0
M  V30 4575 O 436.185 -2.01075 0.114299 0
M  V30 4576 C 433.25 -3.42661 0.527639 0
M  V30 4577 C 432.311 -3.96608 1.64319 0
M  V30 4578 C 431.544 -5.1955 1.22078 0
M  V30 4579 O 431.767 -5.70329 0.0900198 0
M  V30 4580 O 430.701 -5.66681 2.02871 0
M  V30 4581 H 434.527 -2.3619 1.90913 0
M  V30 4582 H 432.112 -1.11946 0.989362 0
M  V30 4583 H 433.994 -4.20404 0.289621 0
M  V30 4584 H 432.669 -3.21441 -0.381779 0
M  V30 4585 H 431.576 -3.20139 1.93551 0
M  V30 4586 H 432.909 -4.22219 2.52966 0
M  V30 4587 N 434.561 -1.01147 -1.20859 0
M  V30 4588 C 435.471 -0.58686 -2.27141 0
M  V30 4589 C 436.487 0.373198 -1.69951 0
M  V30 4590 O 437.663 0.235423 -2.00019 0
M  V30 4591 C 434.728 0.0733602 -3.46622 0
M  V30 4592 C 433.789 -0.931995 -4.19061 0
M  V30 4593 C 433.022 -0.303186 -5.32838 0
M  V30 4594 O 433.245 0.898395 -5.63281 0
M  V30 4595 O 432.179 -1.01735 -5.9324 0
M  V30 4596 H 436.005 -1.47155 -2.65667 0
M  V30 4597 H 433.59 -0.780689 -1.2738 0
M  V30 4598 H 435.472 0.442333 -4.19072 0
M  V30 4599 H 434.147 0.932329 -3.09983 0
M  V30 4600 H 433.054 -1.35224 -3.48805 0
M  V30 4601 H 434.387 -1.76076 -4.59628 0
M  V30 4602 N 436.039 1.36541 -0.78704 0
M  V30 4603 C 437.285 2.00044 -0.367938 0
M  V30 4604 C 437.64 1.61345 1.04812 0
M  V30 4605 O 436.933 0.856936 1.71368 0
M  V30 4606 C 437.127 3.54343 -0.466485 0
M  V30 4607 C 436.956 4.08029 -1.89058 0
M  V30 4608 C 435.726 4.38284 -2.51466 0
M  V30 4609 C 437.924 4.27954 -2.85236 0
M  V30 4610 N 435.906 4.77778 -3.85488 0
M  V30 4611 C 437.277 4.70227 -4.04088 0
M  V30 4612 C 439.332 4.10119 -2.82324 0
M  V30 4613 C 438.035 4.96532 -5.20432 0
M  V30 4614 C 440.061 4.37569 -3.97854 0
M  V30 4615 C 439.423 4.80095 -5.15449 0
M  V30 4616 H 435.522 0.760525 -0.182004 0
M  V30 4617 H 438.106 1.65589 -1.02413 0
M  V30 4618 H 436.277 3.88072 0.159606 0
M  V30 4619 H 438.009 4.04693 -0.0238577 0
M  V30 4620 H 434.764 4.27905 -2.02965 0
M  V30 4621 H 435.188 5.01813 -4.54437 0
M  V30 4622 H 439.83 3.76399 -1.92571 0
M  V30 4623 H 437.548 5.29134 -6.10773 0
M  V30 4624 H 441.134 4.25341 -3.96958 0
M  V30 4625 H 440.014 5.00925 -6.0336 0
M  V30 4626 N 437.518 0.538854 1.48102 0
M  V30 4627 C 438.765 0.0080018 2.02498 0
M  V30 4628 C 439.093 -1.33437 1.41509 0
M  V30 4629 O 438.348 -1.87709 0.553507 0
M  V30 4630 C 438.647 -0.153808 3.57069 0
M  V30 4631 C 438.313 1.11533 4.36888 0
M  V30 4632 C 436.975 1.46314 4.58417 0
M  V30 4633 C 439.327 1.95718 4.83057 0
M  V30 4634 C 436.655 2.6516 5.23361 0
M  V30 4635 C 439.007 3.13751 5.49312 0
M  V30 4636 C 437.671 3.48866 5.69077 0
M  V30 4637 H 436.941 0.00292807 0.740994 0
M  V30 4638 H 439.588 0.706668 1.77984 0
M  V30 4639 H 437.893 -0.935309 3.80472 0
M  V30 4640 H 439.59 -0.579607 3.96789 0
M  V30 4641 H 436.18 0.834484 4.20398 0
M  V30 4642 H 440.364 1.70158 4.66219 0
M  V30 4643 H 435.62 2.92558 5.36861 0
M  V30 4644 H 439.794 3.79282 5.84053 0
M  V30 4645 H 437.421 4.41054 6.19173 0
M  V30 4646 N 438.996 -1.55193 0.274407 0
M  V30 4647 C 440.226 -2.03692 -0.345442 0
M  V30 4648 C 440.634 -1.15224 -1.50067 0
M  V30 4649 O 439.977 -0.164749 -1.8296 0
M  V30 4650 C 440.039 -3.48325 -0.88939 0
M  V30 4651 C 439.703 -4.56794 0.137115 0
M  V30 4652 C 440.7 -5.11028 0.956378 0
M  V30 4653 C 438.385 -5.01568 0.27115 0
M  V30 4654 C 440.379 -6.08552 1.89587 0
M  V30 4655 C 438.066 -5.98918 1.21412 0
M  V30 4656 C 439.064 -6.52291 2.02498 0
M  V30 4657 O 438.752 -7.47738 2.952 0
M  V30 4658 H 438.484 -0.670893 -0.0829332 0
M  V30 4659 H 441.038 -2.01387 0.404056 0
M  V30 4660 H 439.268 -3.47867 -1.68895 0
M  V30 4661 H 440.957 -3.80167 -1.42225 0
M  V30 4662 H 441.723 -4.7725 0.863559 0
M  V30 4663 H 437.602 -4.5967 -0.349987 0
M  V30 4664 H 441.146 -6.50137 2.52918 0
M  V30 4665 H 437.043 -6.32114 1.30776 0
M  V30 4666 H 437.811 -7.65451 2.89874 0
M  V30 4667 N 440.474 -0.00167713 -1.576 0
M  V30 4668 C 441.437 0.974046 -2.07473 0
M  V30 4669 C 442.437 1.27143 -0.984444 0
M  V30 4670 O 443.627 1.21633 -1.24703 0
M  V30 4671 C 440.759 2.29849 -2.51759 0
M  V30 4672 H 441.952 0.54262 -2.9495 0
M  V30 4673 H 439.505 0.245829 -1.54355 0
M  V30 4674 H 440.24 2.77677 -1.67529 0
M  V30 4675 H 440.025 2.09584 -3.31386 0
M  V30 4676 H 441.515 2.9984 -2.90664 0
M  V30 4677 N 441.952 1.55251 0.271103 0
M  V30 4678 C 442.902 1.84649 1.33749 0
M  V30 4679 C 443.886 0.705529 1.44607 0
M  V30 4680 O 445.078 0.966916 1.48256 0
M  V30 4681 C 442.207 2.12354 2.69742 0
M  V30 4682 C 441.293 3.32714 2.62988 0
M  V30 4683 N 441.684 4.52575 2.25853 0
M  V30 4684 C 439.982 3.35341 2.94045 0
M  V30 4685 C 440.683 5.34669 2.29136 0
M  V30 4686 N 439.659 4.73123 2.67685 0
M  V30 4687 H 443.461 2.74865 1.0405 0
M  V30 4688 H 440.975 1.55152 0.479738 0
M  V30 4689 H 442.972 2.31572 3.4667 0
M  V30 4690 H 441.632 1.23422 3.00328 0
M  V30 4691 H 442.643 4.78639 1.978 0
M  V30 4692 H 439.32 2.56608 3.2933 0
M  V30 4693 H 440.71 6.40509 2.02971 0
M  V30 4694 N 443.43 -0.535701 1.48216 0
M  V30 4695 C 444.679 -1.28828 1.55197 0
M  V30 4696 C 444.992 -1.94263 0.228278 0
M  V30 4697 O 446.198 -2.70927 0.176278 0
M  V30 4698 C 444.654 -2.33727 2.73678 0
M  V30 4699 C 444.262 -1.74386 4.12666 0
M  V30 4700 C 446.006 -3.1003 2.89968 0
M  V30 4701 C 443.913 -2.77192 5.22416 0
M  V30 4702 H 442.843 -0.484484 0.577747 0
M  V30 4703 H 445.494 -0.56646 1.74538 0
M  V30 4704 H 443.876 -3.08919 2.4776 0
M  V30 4705 H 445.05 -1.05421 4.48579 0
M  V30 4706 H 443.365 -1.10595 4.01445 0
M  V30 4707 H 445.962 -3.86842 3.6913 0
M  V30 4708 H 446.305 -3.65542 1.9921 0
M  V30 4709 H 446.838 -2.41952 3.15759 0
M  V30 4710 H 443.577 -2.26507 6.15122 0
M  V30 4711 H 443.097 -3.44502 4.90998 0
M  V30 4712 H 444.776 -3.40285 5.50286 0
M  V30 4713 N 444.908 -1.36708 -0.784132 0
M  V30 4714 C 446.157 -1.30559 -1.53744 0
M  V30 4715 C 446.47 0.111374 -1.95283 0
M  V30 4716 O 447.676 0.29527 -2.6989 0
M  V30 4717 C 446.132 -2.29098 -2.77565 0
M  V30 4718 C 445.74 -3.76258 -2.43174 0
M  V30 4719 C 447.484 -2.31936 -3.55536 0
M  V30 4720 C 445.391 -4.6656 -3.63422 0
M  V30 4721 H 444.321 -0.48518 -0.577162 0
M  V30 4722 H 446.972 -1.62101 -0.859981 0
M  V30 4723 H 445.354 -1.90557 -3.47137 0
M  V30 4724 H 446.528 -4.23565 -1.81465 0
M  V30 4725 H 444.843 -3.76246 -1.78403 0
M  V30 4726 H 447.44 -2.9661 -4.44889 0
M  V30 4727 H 447.783 -1.3294 -3.94503 0
M  V30 4728 H 448.316 -2.6912 -2.92949 0
M  V30 4729 H 445.055 -5.66638 -3.29547 0
M  V30 4730 H 444.575 -4.23966 -4.24279 0
M  V30 4731 H 446.254 -4.8309 -4.30387 0
M  V30 4732 N 446.386 1.0089 -1.21074 0
M  V30 4733 C 447.797 1.56056 -1.02486 0
M  V30 4734 C 448.148 1.91728 0.416506 0
M  V30 4735 O 447.273 1.73066 1.29912 0
M  V30 4736 C 447.868 2.83563 -1.85411 0
M  V30 4737 C 446.427 3.3523 -1.71166 0
M  V30 4738 C 445.574 2.0846 -1.82865 0
M  V30 4739 H 448.525 0.831818 -1.35154 0
M  V30 4740 H 448.546 3.55286 -1.36205 0
M  V30 4741 H 448.058 2.57569 -2.9031 0
M  V30 4742 H 446.159 3.66167 -0.689361 0
M  V30 4743 H 446.272 4.06913 -2.52901 0
M  V30 4744 H 444.636 2.21275 -1.26132 0
M  V30 4745 H 445.419 1.84883 -2.89263 0
M  V30 4746 N 447.864 1.01787 1.20321 0
M  V30 4747 C 449.111 0.707936 1.89722 0
M  V30 4748 C 449.439 -0.762535 1.78929 0
M  V30 4749 O 448.694 -1.56977 1.16861 0
M  V30 4750 C 448.993 1.09076 3.40349 0
M  V30 4751 C 448.659 2.55765 3.71342 0
M  V30 4752 C 447.321 2.95845 3.79511 0
M  V30 4753 C 449.673 3.50723 3.85542 0
M  V30 4754 C 447.001 4.2982 3.99339 0
M  V30 4755 C 449.353 4.84387 4.06881 0
M  V30 4756 C 448.017 5.24172 4.1328 0
M  V30 4757 H 447.287 0.259052 0.694243 0
M  V30 4758 H 449.934 1.27868 1.42555 0
M  V30 4759 H 448.239 0.438453 3.89339 0
M  V30 4760 H 449.936 0.828636 3.92345 0
M  V30 4761 H 446.526 2.2371 3.65584 0
M  V30 4762 H 450.71 3.20916 3.78585 0
M  V30 4763 H 445.966 4.60196 4.02529 0
M  V30 4764 H 450.14 5.57891 4.1681 0
M  V30 4765 H 447.767 6.27997 4.28396 0
M  V30 4766 N 449.342 -1.36122 0.79427 0
M  V30 4767 C 450.272 -2.32551 0.210328 0
M  V30 4768 C 451.253 -1.56884 -0.657386 0
M  V30 4769 O 452.438 -1.85014 -0.590207 0
M  V30 4770 C 449.568 -3.41128 -0.651819 0
M  V30 4771 C 448.522 -4.27842 0.116395 0
M  V30 4772 C 447.848 -5.2763 -0.86666 0
M  V30 4773 C 449.148 -5.05647 1.30837 0
M  V30 4774 H 450.842 -2.81636 1.01594 0
M  V30 4775 H 448.388 -1.35407 0.489981 0
M  V30 4776 H 450.341 -4.07581 -1.07031 0
M  V30 4777 H 449.065 -2.90622 -1.49019 0
M  V30 4778 H 447.724 -3.62952 0.515915 0
M  V30 4779 H 447.372 -4.73395 -1.70019 0
M  V30 4780 H 447.072 -5.86514 -0.35705 0
M  V30 4781 H 448.596 -5.96955 -1.28361 0
M  V30 4782 H 450.01 -5.65113 0.965393 0
M  V30 4783 H 448.407 -5.73967 1.75161 0
M  V30 4784 H 449.477 -4.37006 2.10128 0
M  V30 4785 N 450.82 -0.546701 -1.47814 0
M  V30 4786 C 452.068 -0.0187037 -2.02091 0
M  V30 4787 C 452.389 1.33168 -1.42447 0
M  V30 4788 O 451.659 1.86619 -0.595839 0
M  V30 4789 H 450.239 -0.00392531 -0.74699 0
M  V30 4790 H 452.901 -0.714327 -1.81338 0
M  V30 4791 H 451.997 0.0772219 -3.12004 0
M  V30 4792 O 452.337 1.55818 -0.424622 0
M  V30 4793 H 453.028 1.93375 0.112184 0
M  V30 END ATOM
M  V30 BEGIN BOND
M  V30 END BOND
M  V30 END CTAB
M  END
$$$$
