5460481
  -OEChem-10051720363D

 54 55  0     0  0  0  0  0  0999 V2000
    5.0854   -1.9283   -2.7348 O   0  0  0  0  0  0  0  0  0  0  0  0
   -2.4612   -3.3180    1.6196 O   0  0  0  0  0  0  0  0  0  0  0  0
    5.1268    4.0062    1.1069 O   0  0  0  0  0  0  0  0  0  0  0  0
    2.8292   -1.8801   -2.4736 O   0  0  0  0  0  0  0  0  0  0  0  0
   -1.5697   -2.3560   -0.2352 O   0  0  0  0  0  0  0  0  0  0  0  0
    3.9069    3.8776   -0.8022 O   0  0  0  0  0  0  0  0  0  0  0  0
   -7.6939    1.4919   -0.1863 O   0  0  0  0  0  0  0  0  0  0  0  0
   -6.9274   -0.0689   -1.6441 O   0  0  0  0  0  0  0  0  0  0  0  0
    1.1610   -1.5561    1.4316 N   0  0  0  0  0  0  0  0  0  0  0  0
   -0.9279    1.8817   -0.2056 N   0  0  0  0  0  0  0  0  0  0  0  0
    1.2574   -0.2436    1.1488 C   0  0  0  0  0  0  0  0  0  0  0  0
    2.3508    0.0144    0.4072 C   0  0  0  0  0  0  0  0  0  0  0  0
    0.1913    0.7121    1.6708 C   0  0  0  0  0  0  0  0  0  0  0  0
   -0.9430    0.8944    0.7447 C   0  0  0  0  0  0  0  0  0  0  0  0
    2.9880   -1.2356    0.2104 C   0  0  0  0  0  0  0  0  0  0  0  0
   -2.1329    0.2109    0.6241 C   0  0  0  0  0  0  0  0  0  0  0  0
    2.2307   -2.1891    0.8542 C   0  0  0  0  0  0  0  0  0  0  0  0
    2.8071    1.3229   -0.1051 C   0  0  0  0  0  0  0  0  0  0  0  0
   -2.8345    0.8154   -0.4273 C   0  0  0  0  0  0  0  0  0  0  0  0
    4.2347   -1.4768   -0.5454 C   0  0  0  0  0  0  0  0  0  0  0  0
   -2.0897    1.8384   -0.9314 C   0  0  0  0  0  0  0  0  0  0  0  0
   -4.1915    0.4091   -0.9294 C   0  0  0  0  0  0  0  0  0  0  0  0
   -2.5680   -0.9346    1.4497 C   0  0  0  0  0  0  0  0  0  0  0  0
    3.7530    2.0864    0.8439 C   0  0  0  0  0  0  0  0  0  0  0  0
    2.4133   -3.6477    0.9839 C   0  0  0  0  0  0  0  0  0  0  0  0
   -5.3468    1.1283   -0.2263 C   0  0  0  0  0  0  0  0  0  0  0  0
    3.9543   -1.7651   -2.0039 C   0  0  0  0  0  0  0  0  0  0  0  0
   -2.1292   -2.2521    0.8491 C   0  0  0  0  0  0  0  0  0  0  0  0
    4.2358    3.4039    0.2761 C   0  0  0  0  0  0  0  0  0  0  0  0
   -6.7101    0.7584   -0.7703 C   0  0  0  0  0  0  0  0  0  0  0  0
   -0.1665    0.3514    2.6436 H   0  0  0  0  0  0  0  0  0  0  0  0
    0.6609    1.6816    1.8839 H   0  0  0  0  0  0  0  0  0  0  0  0
    3.3090    1.1863   -1.0719 H   0  0  0  0  0  0  0  0  0  0  0  0
    1.9470    1.9623   -0.3305 H   0  0  0  0  0  0  0  0  0  0  0  0
    0.4380   -2.0039    1.9791 H   0  0  0  0  0  0  0  0  0  0  0  0
   -0.1848    2.5516   -0.3461 H   0  0  0  0  0  0  0  0  0  0  0  0
    4.8965   -0.6060   -0.4882 H   0  0  0  0  0  0  0  0  0  0  0  0
    4.7749   -2.3346   -0.1290 H   0  0  0  0  0  0  0  0  0  0  0  0
   -2.2661    2.5437   -1.7314 H   0  0  0  0  0  0  0  0  0  0  0  0
   -4.2455    0.6091   -2.0082 H   0  0  0  0  0  0  0  0  0  0  0  0
   -4.3167   -0.6764   -0.8293 H   0  0  0  0  0  0  0  0  0  0  0  0
   -2.1501   -0.8645    2.4598 H   0  0  0  0  0  0  0  0  0  0  0  0
   -3.6590   -0.9515    1.5443 H   0  0  0  0  0  0  0  0  0  0  0  0
    4.6329    1.4684    1.0575 H   0  0  0  0  0  0  0  0  0  0  0  0
    3.2384    2.2936    1.7893 H   0  0  0  0  0  0  0  0  0  0  0  0
    3.2492   -3.8688    1.6552 H   0  0  0  0  0  0  0  0  0  0  0  0
    1.5189   -4.1359    1.3850 H   0  0  0  0  0  0  0  0  0  0  0  0
    2.6278   -4.0988    0.0096 H   0  0  0  0  0  0  0  0  0  0  0  0
   -5.2244    2.2122   -0.3399 H   0  0  0  0  0  0  0  0  0  0  0  0
   -5.3363    0.8921    0.8440 H   0  0  0  0  0  0  0  0  0  0  0  0
    4.8881   -2.1342   -3.6734 H   0  0  0  0  0  0  0  0  0  0  0  0
   -2.1866   -4.1656    1.2092 H   0  0  0  0  0  0  0  0  0  0  0  0
    5.4547    4.8541    0.7380 H   0  0  0  0  0  0  0  0  0  0  0  0
   -8.5789    1.2672   -0.5448 H   0  0  0  0  0  0  0  0  0  0  0  0
  1 27  1  0  0  0  0
  1 51  1  0  0  0  0
  2 28  1  0  0  0  0
  2 52  1  0  0  0  0
  3 29  1  0  0  0  0
  3 53  1  0  0  0  0
  4 27  2  0  0  0  0
  5 28  2  0  0  0  0
  6 29  2  0  0  0  0
  7 30  1  0  0  0  0
  7 54  1  0  0  0  0
  8 30  2  0  0  0  0
  9 11  1  0  0  0  0
  9 17  1  0  0  0  0
  9 35  1  0  0  0  0
 10 14  1  0  0  0  0
 10 21  1  0  0  0  0
 10 36  1  0  0  0  0
 11 12  2  0  0  0  0
 11 13  1  0  0  0  0
 12 15  1  0  0  0  0
 12 18  1  0  0  0  0
 13 14  1  0  0  0  0
 13 31  1  0  0  0  0
 13 32  1  0  0  0  0
 14 16  2  0  0  0  0
 15 17  2  0  0  0  0
 15 20  1  0  0  0  0
 16 19  1  0  0  0  0
 16 23  1  0  0  0  0
 17 25  1  0  0  0  0
 18 24  1  0  0  0  0
 18 33  1  0  0  0  0
 18 34  1  0  0  0  0
 19 21  2  0  0  0  0
 19 22  1  0  0  0  0
 20 27  1  0  0  0  0
 20 37  1  0  0  0  0
 20 38  1  0  0  0  0
 21 39  1  0  0  0  0
 22 26  1  0  0  0  0
 22 40  1  0  0  0  0
 22 41  1  0  0  0  0
 23 28  1  0  0  0  0
 23 42  1  0  0  0  0
 23 43  1  0  0  0  0
 24 29  1  0  0  0  0
 24 44  1  0  0  0  0
 24 45  1  0  0  0  0
 25 46  1  0  0  0  0
 25 47  1  0  0  0  0
 25 48  1  0  0  0  0
 26 30  1  0  0  0  0
 26 49  1  0  0  0  0
 26 50  1  0  0  0  0
M  END
> <DATABASE_ID>
DB04517

> <DATABASE_NAME>
drugbank

> <ORIGINAL_SOURCE>
PUBCHEM

> <ORIGINAL_SOURCE_URL>
https://pubchem.ncbi.nlm.nih.gov/rest/pug/compound/inchikey/LCAXMKQKEYTFDM-UHFFFAOYSA-N/SDF?record_type=3d

> <SMILES>
CC1=C(CC(O)=O)C(CCC(O)=O)=C(CC2=C(CC(O)=O)C(CCC(O)=O)=CN2)N1

> <INCHI_IDENTIFIER>
InChI=1S/C20H24N2O8/c1-10-13(6-19(27)28)12(3-5-18(25)26)16(22-10)8-15-14(7-20(29)30)11(9-21-15)2-4-17(23)24/h9,21-22H,2-8H2,1H3,(H,23,24)(H,25,26)(H,27,28)(H,29,30)

> <INCHI_KEY>
LCAXMKQKEYTFDM-UHFFFAOYSA-N

> <FORMULA>
C20H24N2O8

> <MOLECULAR_WEIGHT>
420.4132

> <EXACT_MASS>
420.153265754

> <JCHEM_ACCEPTOR_COUNT>
8

> <JCHEM_AVERAGE_POLARIZABILITY>
42.103972073642

> <JCHEM_BIOAVAILABILITY>
0

> <JCHEM_DONOR_COUNT>
6

> <JCHEM_FORMAL_CHARGE>
0

> <JCHEM_GHOSE_FILTER>
1

> <JCHEM_IUPAC>
3-(2-{[4-(2-carboxyethyl)-3-(carboxymethyl)-1H-pyrrol-2-yl]methyl}-4-(carboxymethyl)-5-methyl-1H-pyrrol-3-yl)propanoic acid

> <ALOGPS_LOGP>
0.92

> <JCHEM_LOGP>
1.3198931999999988

> <ALOGPS_LOGS>
-3.57

> <JCHEM_MDDR_LIKE_RULE>
0

> <JCHEM_NUMBER_OF_RINGS>
2

> <JCHEM_PHYSIOLOGICAL_CHARGE>
-4

> <JCHEM_PKA>
4.139173676883499

> <JCHEM_PKA_STRONGEST_ACIDIC>
3.681876861417117

> <JCHEM_POLAR_SURFACE_AREA>
180.77999999999997

> <JCHEM_REFRACTIVITY>
104.91429999999997

> <JCHEM_ROTATABLE_BOND_COUNT>
12

> <JCHEM_RULE_OF_FIVE>
0

> <ALOGPS_SOLUBILITY>
1.14e-01 g/l

> <JCHEM_TRADITIONAL_IUPAC>
dipyrromethane cofactor

> <JCHEM_VEBER_RULE>
0

> <DRUGBANK_ID>
DB04517

> <SECONDARY_ACCESSION_NUMBERS>
EXPT01256

> <DRUG_GROUPS>
experimental

> <GENERIC_NAME>
Dipyrromethane Cofactor

$$$$