drugbank_target|P06983 Porphobilinogen deaminase (DB04517)
 OpenBabel12092119593D

  0  0  0     0  0            999 V3000
M  V30 BEGIN CTAB
M  V30 COUNTS 4802 4834 0 0 0
M  V30 BEGIN ATOM
M  V30 1 H -0.908 1.98254 -0.117106 0
M  V30 2 N 0 1.576 0 0
M  V30 3 C 0.933 2.03868 1.02534 0
M  V30 4 C 1.911 0.928543 1.3348 0
M  V30 5 O 3.095 1.19667 1.45644 0
M  V30 6 C 0.222 2.43627 2.35294 0
M  V30 7 C -0.732 3.65373 2.2001 0
M  V30 8 S 0.101 5.13292 1.52614 0
M  V30 9 C 1.257 5.56322 2.86805 0
M  V30 10 H 1.49 2.90518 0.631377 0
M  V30 11 H -0.977 1.52953 0.210867 0
M  V30 12 H 0.981 2.67203 3.11629 0
M  V30 13 H -0.358 1.57376 2.7183 0
M  V30 14 H -1.165 3.90944 3.18086 0
M  V30 15 H -1.563 3.418 1.51819 0
M  V30 16 H 0.729 5.58782 3.83104 0
M  V30 17 H 1.672 6.56266 2.65933 0
M  V30 18 H 2.08 4.83886 2.90714 0
M  V30 19 N 1.4781 -0.272755 1.55222 0
M  V30 20 C 2.4081 -1.34136 1.91127 0
M  V30 21 C 3.3891 -1.51513 0.773168 0
M  V30 22 O 4.5741 -1.64552 1.03132 0
M  V30 23 C 1.7041 -2.70083 2.1834 0
M  V30 24 C 0.6581 -2.67437 3.34158 0
M  V30 25 C -0.0159 -4.06938 3.46851 0
M  V30 26 C 1.2841 -2.26686 4.70543 0
M  V30 27 H 2.9781 -1.04333 2.80633 0
M  V30 28 H 0.5241 -0.500454 1.35024 0
M  V30 29 H 2.4771 -3.44952 2.42046 0
M  V30 30 H 1.2011 -3.01469 1.25634 0
M  V30 31 H -0.1399 -1.95026 3.1042 0
M  V30 32 H -0.4919 -4.35547 2.51611 0
M  V30 33 H -0.7919 -4.06062 4.2472 0
M  V30 34 H 0.7321 -4.83545 3.72849 0
M  V30 35 H 2.1461 -2.91277 4.93792 0
M  V30 36 H 0.5431 -2.36971 5.5133 0
M  V30 37 H 1.6131 -1.21818 4.69349 0
M  V30 38 N 2.9562 -1.48159 -0.537278 0
M  V30 39 C 4.2332 -1.46291 -1.29839 0
M  V30 40 C 4.6132 -0.170613 -2.10409 0
M  V30 41 O 3.9612 0.847746 -2.12192 0
M  V30 42 C 4.1712 -2.72055 -2.18603 0
M  V30 43 C 5.5192 -3.20087 -2.7898 0
M  V30 44 O 6.5432 -2.72921 -2.28894 0
M  V30 45 O 5.4022 -4.02138 -3.70064 0
M  V30 46 H 2.4962 -0.583906 -0.585647 0
M  V30 47 H 5.0422 -1.60384 -0.554534 0
M  V30 48 H 3.8142 -3.57628 -1.58801 0
M  V30 49 H 3.4372 -2.60646 -3.00249 0
M  V30 50 N 4.4343 0.785586 -1.36625 0
M  V30 51 C 5.3823 1.91978 -1.31329 0
M  V30 52 C 6.3763 1.68162 -0.204416 0
M  V30 53 O 7.5823 1.76122 -0.371645 0
M  V30 54 H 3.9573 0.631087 -0.408942 0
M  V30 55 H 5.9283 1.93562 -2.27104 0
M  V30 56 C 4.6773 3.29055 -1.12329 0
M  V30 57 H 4.0003 3.4795 -1.96903 0
M  V30 58 H 5.4403 4.08756 -1.12671 0
M  V30 59 C 3.8993 3.36461 0.171861 0
M  V30 60 O 4.4293 3.84576 1.16035 0
M  V30 61 N 2.6353 2.89782 0.217846 0
M  V30 62 H 2.1823 2.50819 -0.587183 0
M  V30 63 H 2.1403 2.95119 1.08408 0
M  V30 64 N 5.9124 1.20967 1.01018 0
M  V30 65 C 7.1584 1.02526 1.74975 0
M  V30 66 C 7.4914 -0.4408 1.89131 0
M  V30 67 O 6.7664 -1.32718 1.42184 0
M  V30 68 C 7.0494 1.71699 3.1653 0
M  V30 69 C 6.9024 3.25791 3.10129 0
M  V30 70 C 8.2214 1.45531 4.15342 0
M  V30 71 H 5.3404 0.373863 0.635134 0
M  V30 72 H 7.9824 1.49071 1.17805 0
M  V30 73 H 6.1324 1.32128 3.65341 0
M  V30 74 H 7.8044 3.74697 2.69072 0
M  V30 75 H 6.0474 3.56363 2.47362 0
M  V30 76 H 6.7184 3.69353 4.10222 0
M  V30 77 H 9.1944 1.79872 3.75213 0
M  V30 78 H 8.0704 1.96453 5.1254 0
M  V30 79 H 8.3314 0.384237 4.40427 0
M  V30 80 N 7.3905 -1.2043 1.01659 0
M  V30 81 C 8.3205 -2.25466 0.607226 0
M  V30 82 C 9.3015 -1.65853 -0.377716 0
M  V30 83 O 10.4865 -1.92409 -0.263149 0
M  V30 84 C 7.6165 -3.47256 -0.0552949 0
M  V30 85 C 6.5705 -4.19462 0.850632 0
M  V30 86 C 5.8965 -5.34673 0.0538859 0
M  V30 87 C 7.1965 -4.75603 2.15868 0
M  V30 88 H 8.8905 -2.59962 1.48526 0
M  V30 89 H 6.4365 -1.2496 0.715605 0
M  V30 90 H 8.3895 -4.19917 -0.353233 0
M  V30 91 H 7.1135 -3.11924 -0.968045 0
M  V30 92 H 5.7725 -3.48667 1.13257 0
M  V30 93 H 5.4205 -4.95585 -0.860514 0
M  V30 94 H 5.1205 -5.83913 0.657192 0
M  V30 95 H 6.6445 -6.10138 -0.237598 0
M  V30 96 H 8.0585 -5.40083 1.92311 0
M  V30 97 H 6.4555 -5.3528 2.71284 0
M  V30 98 H 7.5255 -3.94346 2.82169 0
M  V30 99 N 8.8686 -0.792821 -1.36206 0
M  V30 100 C 10.2846 -0.474903 -1.52371 0
M  V30 101 C 10.4846 1.00622 -1.74578 0
M  V30 102 O 9.5406 1.79162 -1.77924 0
M  V30 103 C 10.8536 -1.3083 -2.70747 0
M  V30 104 C 12.4016 -1.30234 -2.84619 0
M  V30 105 C 12.8766 -2.11956 -4.06004 0
M  V30 106 N 14.3676 -2.09419 -4.13156 0
M  V30 107 C 15.1026 -2.69419 -5.06163 0
M  V30 108 N 14.5986 -3.3829 -6.04592 0
M  V30 109 N 16.3916 -2.59134 -4.98804 0
M  V30 110 H 8.5426 -1.75222 -1.20046 0
M  V30 111 H 10.8056 -0.745024 -0.586211 0
M  V30 112 H 10.5116 -2.35881 -2.6087 0
M  V30 113 H 10.3856 -0.95196 -3.6499 0
M  V30 114 H 12.7726 -0.259748 -2.93955 0
M  V30 115 H 12.8536 -1.69847 -1.91274 0
M  V30 116 H 12.4976 -3.16248 -3.97429 0
M  V30 117 H 12.4276 -1.69711 -4.98503 0
M  V30 118 H 14.9186 -1.59297 -3.42685 0
M  V30 119 H 15.2316 -3.81394 -6.7213 0
M  V30 120 H 13.5766 -3.42393 -6.04807 0
M  V30 121 H 16.7676 -2.04927 -4.20859 0
M  V30 122 H 16.9406 -3.06185 -5.711 0
M  V30 123 N 10.3467 1.47872 -0.545128 0
M  V30 124 C 11.5957 2.01695 -0.0145033 0
M  V30 125 C 11.9087 1.42609 1.33873 0
M  V30 126 O 13.1147 1.88021 1.95858 0
M  V30 127 C 11.5707 3.59892 0.0245068 0
M  V30 128 C 11.1787 4.27966 -1.32475 0
M  V30 129 C 12.9227 4.21507 0.50316 0
M  V30 130 C 10.8297 5.78136 -1.2455 0
M  V30 131 H 9.7597 0.753998 -0.00165172 0
M  V30 132 H 12.4107 1.69985 -0.691175 0
M  V30 133 H 10.7927 3.88509 0.766575 0
M  V30 134 H 11.9667 4.11003 -2.08357 0
M  V30 135 H 10.2817 3.78286 -1.74036 0
M  V30 136 H 12.8787 5.31538 0.580656 0
M  V30 137 H 13.2217 3.87855 1.51243 0
M  V30 138 H 13.7547 3.97376 -0.183681 0
M  V30 139 H 10.4937 6.16388 -2.23039 0
M  V30 140 H 10.0137 5.97469 -0.528282 0
M  V30 141 H 11.6927 6.40099 -0.942488 0
M  V30 142 N 11.8248 0.280983 1.55075 0
M  V30 143 C 12.7878 -0.590896 2.21452 0
M  V30 144 C 13.7878 -1.07682 1.19421 0
M  V30 145 O 14.9778 -0.97605 1.44288 0
M  V30 146 C 12.1098 -1.81587 2.88511 0
M  V30 147 H 13.3028 -0.0112554 2.99898 0
M  V30 148 H 10.8558 0.0316438 1.56268 0
M  V30 149 H 11.5908 -2.43587 2.14093 0
M  V30 150 H 11.3758 -1.4753 3.63287 0
M  V30 151 H 12.8658 -2.43575 3.39206 0
M  V30 152 N 13.3029 -1.57598 0.00835791 0
M  V30 153 C 14.5309 -1.95214 -0.68549 0
M  V30 154 C 14.9459 -0.883706 -1.66841 0
M  V30 155 O 14.3029 0.136565 -1.81988 0
M  V30 156 C 14.3539 -3.32865 -1.41007 0
M  V30 157 O 14.0749 -4.35609 -0.466552 0
M  V30 158 C 15.5759 -3.84991 -2.19765 0
M  V30 159 H 12.7959 -0.643422 -0.190392 0
M  V30 160 H 15.3399 -2.04406 0.0619607 0
M  V30 161 H 13.4949 -3.24956 -2.10908 0
M  V30 162 H 13.9089 -5.15288 -0.978699 0
M  V30 163 H 15.3829 -4.8371 -2.65948 0
M  V30 164 H 15.8599 -3.18137 -3.02796 0
M  V30 165 H 16.4659 -3.96103 -1.54864 0
M  V30 166 N 14.781 0.264519 -1.55364 0
M  V30 167 C 16.197 0.61215 -1.47394 0
M  V30 168 C 16.397 1.89134 -0.695018 0
M  V30 169 O 15.453 2.51563 -0.217275 0
M  V30 170 C 16.766 0.731235 -2.91674 0
M  V30 171 C 18.314 0.82473 -3.01939 0
M  V30 172 C 18.789 0.975522 -4.4749 0
M  V30 173 N 20.28 1.04083 -4.51354 0
M  V30 174 C 21.015 1.17646 -5.61201 0
M  V30 175 N 20.511 1.27874 -6.80896 0
M  V30 176 N 22.304 1.20823 -5.48961 0
M  V30 177 H 14.455 -0.575456 -2.04456 0
M  V30 178 H 16.718 -0.196099 -0.927496 0
M  V30 179 H 16.424 -0.138392 -3.51428 0
M  V30 180 H 16.298 1.60883 -3.41169 0
M  V30 181 H 18.685 1.68482 -2.42276 0
M  V30 182 H 18.766 -0.0776479 -2.55682 0
M  V30 183 H 18.41 0.120058 -5.07758 0
M  V30 184 H 18.34 1.89268 -4.91412 0
M  V30 185 H 20.831 0.973846 -3.65136 0
M  V30 186 H 21.144 1.38081 -7.60364 0
M  V30 187 H 19.489 1.24863 -6.83692 0
M  V30 188 H 22.68 1.12469 -4.54388 0
M  V30 189 H 22.853 1.31049 -6.3461 0
M  V30 190 N 16.2591 1.48442 0.529413 0
M  V30 191 C 17.1911 1.59095 1.64989 0
M  V30 192 C 18.2041 0.475212 1.5571 0
M  V30 193 O 19.3931 0.746081 1.6216 0
M  V30 194 C 16.4931 1.50518 3.0364 0
M  V30 195 C 15.6661 2.77142 3.38395 0
M  V30 196 C 14.7251 2.62012 4.56329 0
M  V30 197 O 13.7511 3.35898 4.59522 0
M  V30 198 N 14.9531 1.71667 5.54536 0
M  V30 199 H 17.7181 2.55723 1.56287 0
M  V30 200 H 15.2791 1.45173 0.716697 0
M  V30 201 H 17.2711 1.38091 3.80412 0
M  V30 202 H 15.8411 0.618627 3.06418 0
M  V30 203 H 15.0611 3.0413 2.50796 0
M  V30 204 H 16.3491 3.61146 3.58401 0
M  V30 205 H 15.7471 1.10841 5.54735 0
M  V30 206 H 14.3041 1.65178 6.30523 0
M  V30 207 N 17.7372 -0.778329 1.37039 0
M  V30 208 C 18.9622 -1.57248 1.35233 0
M  V30 209 C 19.3872 -1.87999 -0.0615568 0
M  V30 210 O 18.7452 -1.48734 -1.03672 0
M  V30 211 C 18.7932 -2.86353 2.19167 0
M  V30 212 O 17.8972 -3.80442 1.59178 0
M  V30 213 H 17.2382 -0.476569 0.462362 0
M  V30 214 H 19.7682 -0.963853 1.80474 0
M  V30 215 H 19.7782 -3.35519 2.32145 0
M  V30 216 H 18.4532 -2.63299 3.21942 0
M  V30 217 H 17.0302 -3.39067 1.55203 0
M  V30 218 N 19.2153 -1.21501 -1.00376 0
M  V30 219 C 20.6263 -1.03146 -1.55621 0
M  V30 220 C 20.9773 0.408375 -1.91903 0
M  V30 221 O 20.1023 1.29177 -1.73616 0
M  V30 222 C 20.6973 -1.86612 -2.82775 0
M  V30 223 C 19.2563 -1.72586 -3.34501 0
M  V30 224 C 18.4033 -1.83747 -2.07683 0
M  V30 225 H 21.3543 -1.35505 -0.826081 0
M  V30 226 H 21.3753 -1.3771 -3.54706 0
M  V30 227 H 20.8873 -2.91399 -2.56336 0
M  V30 228 H 18.9883 -0.704877 -3.65872 0
M  V30 229 H 19.1013 -2.54623 -4.05837 0
M  V30 230 H 17.4653 -1.27069 -2.20739 0
M  V30 231 H 18.2483 -2.90044 -1.83655 0
M  V30 232 N 20.6934 1.19889 -1.02296 0
M  V30 233 C 21.6234 2.25141 -0.619174 0
M  V30 234 C 22.6044 1.66051 0.368915 0
M  V30 235 O 23.7894 1.92546 0.252941 0
M  V30 236 C 20.9194 3.4728 0.0368783 0
M  V30 237 C 19.8734 4.19005 -0.872865 0
M  V30 238 C 19.1994 5.34637 -0.0822402 0
M  V30 239 C 20.4994 4.74452 -2.18387 0
M  V30 240 H 22.1934 2.59171 -1.49903 0
M  V30 241 H 19.7394 1.24579 -0.722222 0
M  V30 242 H 21.6924 4.20098 0.330958 0
M  V30 243 H 20.4164 3.12433 0.95149 0
M  V30 244 H 19.0754 3.48061 -1.15105 0
M  V30 245 H 18.7234 4.96034 0.83422 0
M  V30 246 H 18.4234 5.83557 -0.688149 0
M  V30 247 H 19.9474 6.10255 0.205238 0
M  V30 248 H 21.3614 5.39055 -1.95172 0
M  V30 249 H 19.7584 5.33834 -2.74119 0
M  V30 250 H 20.8284 3.92844 -2.84257 0
M  V30 251 N 22.1715 0.800033 1.35784 0
M  V30 252 C 23.1345 0.211565 2.28221 0
M  V30 253 C 24.1345 -0.59728 1.49296 0
M  V30 254 O 25.3245 -0.416721 1.69142 0
M  V30 255 C 22.4565 -0.705846 3.33513 0
M  V30 256 H 23.6495 1.02677 2.81776 0
M  V30 257 H 21.2025 0.570211 1.45528 0
M  V30 258 H 21.9375 -1.54498 2.85133 0
M  V30 259 H 21.7225 -0.127655 3.91892 0
M  V30 260 H 23.2125 -1.11211 4.02519 0
M  V30 261 N 23.6496 -1.47581 0.552962 0
M  V30 262 C 24.5796 -2.32762 -0.185451 0
M  V30 263 C 25.5606 -1.43527 -0.912905 0
M  V30 264 O 26.7456 -1.72388 -0.894201 0
M  V30 265 C 23.8756 -3.25219 -1.21859 0
M  V30 266 C 22.8296 -4.23661 -0.607864 0
M  V30 267 C 22.1556 -5.05413 -1.74533 0
M  V30 268 C 23.4556 -5.20481 0.435582 0
M  V30 269 H 25.1496 -2.94749 0.525684 0
M  V30 270 H 22.6956 -1.41738 0.254251 0
M  V30 271 H 24.6486 -3.8365 -1.7433 0
M  V30 272 H 23.3726 -2.61279 -1.95961 0
M  V30 273 H 22.0316 -3.66451 -0.104489 0
M  V30 274 H 21.6796 -4.3788 -2.47529 0
M  V30 275 H 21.3796 -5.72059 -1.34249 0
M  V30 276 H 22.9036 -5.66701 -2.27338 0
M  V30 277 H 24.3176 -5.733 -0.00290157 0
M  V30 278 H 22.7146 -5.95305 0.757067 0
M  V30 279 H 23.7846 -4.66217 1.33303 0
M  V30 280 N 25.1277 -0.289203 -1.54924 0
M  V30 281 C 26.3737 0.316922 -2.00916 0
M  V30 282 C 26.7287 1.52424 -1.17408 0
M  V30 283 O 26.0217 1.90097 -0.239536 0
M  V30 284 C 26.2157 0.736119 -3.49737 0
M  V30 285 C 26.0447 -0.429036 -4.47649 0
M  V30 286 C 24.8147 -0.917311 -4.96904 0
M  V30 287 C 27.0127 -1.27016 -4.98369 0
M  V30 288 N 24.9947 -2.05046 -5.78644 0
M  V30 289 C 26.3657 -2.25097 -5.77695 0
M  V30 290 C 28.4207 -1.30188 -4.80578 0
M  V30 291 C 27.1237 -3.26114 -6.41126 0
M  V30 292 C 29.1497 -2.30057 -5.44819 0
M  V30 293 C 28.5117 -3.2687 -6.23968 0
M  V30 294 H 24.6107 0.0807535 -0.777819 0
M  V30 295 H 27.1947 -0.416434 -1.90194 0
M  V30 296 H 25.3657 1.43867 -3.60773 0
M  V30 297 H 27.0977 1.32078 -3.82541 0
M  V30 298 H 23.8527 -0.494248 -4.71014 0
M  V30 299 H 24.2767 -2.62108 -6.24202 0
M  V30 300 H 28.9187 -0.567163 -4.18979 0
M  V30 301 H 26.6367 -4.00512 -7.01866 0
M  V30 302 H 30.2227 -2.33271 -5.32988 0
M  V30 303 H 29.1027 -4.02883 -6.72796 0
M  V30 304 N 26.6058 1.57591 -0.0167156 0
M  V30 305 C 27.5378 2.06343 0.997753 0
M  V30 306 C 28.5508 0.984469 1.29661 0
M  V30 307 O 29.7398 1.26093 1.26344 0
M  V30 308 C 26.8398 2.46255 2.32834 0
M  V30 309 C 26.0128 3.77083 2.21646 0
M  V30 310 C 25.0718 4.0368 3.37534 0
M  V30 311 O 24.0978 4.7411 3.14973 0
M  V30 312 N 25.2998 3.52881 4.60929 0
M  V30 313 H 28.0648 2.93997 0.581875 0
M  V30 314 H 25.6258 1.61002 0.170316 0
M  V30 315 H 27.6178 2.61149 3.09166 0
M  V30 316 H 26.1878 1.64032 2.66106 0
M  V30 317 H 25.4078 3.72106 1.30119 0
M  V30 318 H 26.6958 4.62822 2.11361 0
M  V30 319 H 26.0938 2.95878 4.82154 0
M  V30 320 H 24.6508 3.73076 5.34469 0
M  V30 321 N 28.0839 -0.256276 1.55502 0
M  V30 322 C 29.0469 -1.30047 1.88734 0
M  V30 323 C 30.0469 -1.4154 0.763086 0
M  V30 324 O 31.2369 -1.40403 1.03115 0
M  V30 325 C 28.3689 -2.67953 2.10747 0
M  V30 326 H 29.5619 -1.01802 2.82093 0
M  V30 327 H 27.1149 -0.495134 1.4825 0
M  V30 328 H 27.8499 -3.01351 1.19825 0
M  V30 329 H 27.6349 -2.60993 2.92617 0
M  V30 330 H 29.1249 -3.43368 2.37673 0
M  V30 331 N 29.562 -1.4872 -0.521534 0
M  V30 332 C 30.512 -1.60269 -1.62166 0
M  V30 333 C 31.496 -0.45935 -1.54204 0
M  V30 334 O 32.688 -0.711241 -1.62081 0
M  V30 335 C 29.817 -1.65344 -3.00859 0
M  V30 336 C 28.903 -2.85187 -3.13894 0
M  V30 337 N 29.294 -4.09509 -2.96877 0
M  V30 338 C 27.592 -2.82695 -3.44963 0
M  V30 339 C 28.293 -4.89959 -3.13552 0
M  V30 340 N 27.269 -4.22934 -3.41508 0
M  V30 341 H 31.071 -2.5413 -1.47632 0
M  V30 342 H 28.585 -1.45209 -0.727194 0
M  V30 343 H 30.582 -1.71713 -3.79895 0
M  V30 344 H 29.242 -0.726058 -3.16478 0
M  V30 345 H 30.253 -4.39814 -2.73467 0
M  V30 346 H 26.93 -1.99249 -3.66887 0
M  V30 347 H 28.32 -5.98654 -3.05061 0
M  V30 348 N 31.0401 0.771051 -1.3745 0
M  V30 349 C 32.2701 1.55789 -1.35696 0
M  V30 350 C 32.6781 1.89107 0.0594523 0
M  V30 351 O 32.0211 1.51984 1.03183 0
M  V30 352 C 32.0831 2.89515 -2.13123 0
M  V30 353 C 31.7471 2.78829 -3.62082 0
M  V30 354 C 32.7441 2.49812 -4.5595 0
M  V30 355 C 30.4291 2.9683 -4.05213 0
M  V30 356 C 32.4231 2.38923 -5.90927 0
M  V30 357 C 30.1101 2.85562 -5.40276 0
M  V30 358 C 31.1081 2.56649 -6.32946 0
M  V30 359 O 30.7961 2.45408 -7.65526 0
M  V30 360 H 30.5281 0.489257 -0.466481 0
M  V30 361 H 33.0821 0.963446 -1.81403 0
M  V30 362 H 31.3121 3.51081 -1.62107 0
M  V30 363 H 33.0011 3.50915 -2.03994 0
M  V30 364 H 33.7671 2.3559 -4.23937 0
M  V30 365 H 29.6461 3.18335 -3.33442 0
M  V30 366 H 33.1901 2.16277 -6.63227 0
M  V30 367 H 29.0871 2.99351 -5.71891 0
M  V30 368 H 29.8551 2.60753 -7.75855 0
M  V30 369 N 32.5182 1.22032 0.997298 0
M  V30 370 C 33.7642 1.04376 1.73878 0
M  V30 371 C 34.0972 -0.420716 1.89588 0
M  V30 372 O 33.3722 -1.31202 1.43583 0
M  V30 373 C 33.6552 1.75047 3.14691 0
M  V30 374 C 33.5082 3.29062 3.06656 0
M  V30 375 C 34.8272 1.49928 4.13775 0
M  V30 376 H 31.9462 0.380578 0.631133 0
M  V30 377 H 34.5882 1.50312 1.16217 0
M  V30 378 H 32.7382 1.35996 3.63919 0
M  V30 379 H 34.4102 3.7753 2.65083 0
M  V30 380 H 32.6532 3.58967 2.43568 0
M  V30 381 H 33.3242 3.73683 4.06282 0
M  V30 382 H 35.8002 1.83842 3.73285 0
M  V30 383 H 34.6762 2.01878 5.10428 0
M  V30 384 H 34.9372 0.430929 4.39995 0
M  V30 385 N 33.9963 -1.19345 1.0293 0
M  V30 386 C 34.9433 -2.2258 0.610464 0
M  V30 387 C 35.9133 -1.6179 -0.375946 0
M  V30 388 O 37.0983 -1.88844 -0.272511 0
M  V30 389 C 34.2383 -3.45085 -0.0321473 0
M  V30 390 C 33.3513 -4.20258 1.00035 0
M  V30 391 C 32.4863 -5.3019 0.32746 0
M  V30 392 C 31.5253 -5.97121 1.34584 0
M  V30 393 N 30.6623 -6.98615 0.698726 0
M  V30 394 H 35.5023 -2.57764 1.49538 0
M  V30 395 H 33.0393 -1.26644 0.748311 0
M  V30 396 H 34.9973 -4.15061 -0.421966 0
M  V30 397 H 33.6273 -3.10555 -0.88064 0
M  V30 398 H 32.6793 -3.49223 1.50823 0
M  V30 399 H 33.9913 -4.66175 1.77433 0
M  V30 400 H 33.1453 -6.06587 -0.11718 0
M  V30 401 H 31.8843 -4.85345 -0.478713 0
M  V30 402 H 30.8893 -5.19474 1.80074 0
M  V30 403 H 32.1143 -6.4405 2.15352 0
M  V30 404 H 30.0603 -6.55942 -0.0873471 0
M  V30 405 H 29.9773 -7.42724 1.41058 0
M  V30 406 H 31.2453 -7.79004 0.278102 0
M  V30 407 N 35.4744 -0.807222 -1.35358 0
M  V30 408 C 36.7514 -0.311126 -1.9311 0
M  V30 409 C 37.1314 1.19937 -1.73719 0
M  V30 410 O 36.4794 1.99918 -1.10657 0
M  V30 411 C 36.6894 -0.723226 -3.41424 0
M  V30 412 C 38.0374 -0.713078 -4.18569 0
M  V30 413 O 39.0614 -0.664811 -3.49941 0
M  V30 414 O 37.9204 -0.772022 -5.41019 0
M  V30 415 H 35.0144 -0.081526 -0.822972 0
M  V30 416 H 37.5604 -0.890962 -1.4443 0
M  V30 417 H 36.3324 -1.76426 -3.4927 0
M  V30 418 H 35.9554 -0.118232 -3.97424 0
M  V30 419 N 36.9525 1.47285 -0.560781 0
M  V30 420 C 37.8995 2.30058 0.18491 0
M  V30 421 C 38.8695 1.39281 0.904986 0
M  V30 422 O 40.0545 1.68241 0.899979 0
M  V30 423 C 37.1945 3.23317 1.20666 0
M  V30 424 C 36.3075 4.29186 0.492285 0
M  V30 425 C 35.4425 5.09592 1.49964 0
M  V30 426 C 34.4815 6.07232 0.770439 0
M  V30 427 N 33.6185 6.80584 1.72479 0
M  V30 428 H 38.4585 2.93302 -0.527048 0
M  V30 429 H 35.9955 1.44568 -0.271738 0
M  V30 430 H 37.9535 3.75811 1.81168 0
M  V30 431 H 36.5835 2.61929 1.88661 0
M  V30 432 H 35.6355 3.7972 -0.227333 0
M  V30 433 H 36.9475 4.98738 -0.0787929 0
M  V30 434 H 36.1015 5.66254 2.17809 0
M  V30 435 H 34.8405 4.3995 2.10464 0
M  V30 436 H 33.8455 5.49745 0.0780846 0
M  V30 437 H 35.0705 6.78884 0.171134 0
M  V30 438 H 33.0165 6.1367 2.3183 0
M  V30 439 H 32.9335 7.46319 1.20596 0
M  V30 440 H 34.2015 7.41818 2.39428 0
M  V30 441 N 38.4306 0.297415 1.54768 0
M  V30 442 C 39.3606 -0.573494 2.26348 0
M  V30 443 C 40.3416 -1.14085 1.26169 0
M  V30 444 O 41.5266 -1.17086 1.54934 0
M  V30 445 C 38.6566 -1.74716 3.00153 0
M  V30 446 C 37.6106 -1.31032 4.07449 0
M  V30 447 C 36.9366 -2.56887 4.68949 0
M  V30 448 C 38.2366 -0.444183 5.20408 0
M  V30 449 H 39.9306 0.0235131 2.99391 0
M  V30 450 H 37.4766 0.0127488 1.43994 0
M  V30 451 H 39.4296 -2.3625 3.48947 0
M  V30 452 H 38.1536 -2.37035 2.24682 0
M  V30 453 H 36.8126 -0.718066 3.59499 0
M  V30 454 H 36.4606 -3.17512 3.90122 0
M  V30 455 H 36.1606 -2.2836 5.41411 0
M  V30 456 H 37.6846 -3.19229 5.20505 0
M  V30 457 H 39.0986 -0.9651 5.65118 0
M  V30 458 H 37.4956 -0.252846 5.99567 0
M  V30 459 H 38.5656 0.531609 4.81977 0
M  V30 460 N 39.9087 -1.5758 0.0250728 0
M  V30 461 C 40.8417 -2.05473 -0.992777 0
M  V30 462 C 41.8197 -0.949661 -1.31986 0
M  V30 463 O 43.0037 -1.21969 -1.43722 0
M  V30 464 C 40.1307 -2.4734 -2.31389 0
M  V30 465 C 39.1767 -3.68827 -2.1417 0
M  V30 466 S 40.0097 -5.15655 -1.44429 0
M  V30 467 C 41.1657 -5.60814 -2.77918 0
M  V30 468 H 41.3987 -2.91486 -0.585078 0
M  V30 469 H 38.9317 -1.53269 -0.186507 0
M  V30 470 H 40.8897 -2.72127 -3.07339 0
M  V30 471 H 39.5507 -1.6168 -2.69292 0
M  V30 472 H 38.7437 -3.95955 -3.11826 0
M  V30 473 H 38.3457 -3.44172 -1.46362 0
M  V30 474 H 40.6377 -5.64806 -3.74166 0
M  V30 475 H 41.5807 -6.60414 -2.55459 0
M  V30 476 H 41.9887 -4.8845 -2.82979 0
M  V30 477 N 41.3868 0.248026 -1.55636 0
M  V30 478 C 42.3498 1.29044 -1.89421 0
M  V30 479 C 43.3498 1.41134 -0.770581 0
M  V30 480 O 44.5398 1.39854 -1.03858 0
M  V30 481 C 41.6718 2.66831 -2.12165 0
M  V30 482 H 42.8648 1.00305 -2.82629 0
M  V30 483 H 40.4178 0.487265 -1.48511 0
M  V30 484 H 41.1528 3.00711 -1.21422 0
M  V30 485 H 40.9378 2.59438 -2.93997 0
M  V30 486 H 42.4278 3.42103 -2.3949 0
M  V30 487 N 42.8649 1.48995 0.513639 0
M  V30 488 C 44.0899 1.61792 1.29762 0
M  V30 489 C 44.5149 0.284475 1.85936 0
M  V30 490 O 43.8729 -0.746185 1.65232 0
M  V30 491 C 43.9209 2.67993 2.41272 0
M  V30 492 O 43.0249 2.26287 3.44772 0
M  V30 493 H 42.3659 0.541963 0.38363 0
M  V30 494 H 44.8959 1.95097 0.616307 0
M  V30 495 H 44.9059 2.89772 2.87221 0
M  V30 496 H 43.5809 3.64791 1.9975 0
M  V30 497 H 42.1579 2.14788 3.04829 0
M  V30 498 N 44.343 -0.763751 1.37857 0
M  V30 499 C 45.293 -1.86765 1.30777 0
M  V30 500 C 46.277 -1.59726 0.194015 0
M  V30 501 O 47.469 -1.7172 0.42911 0
M  V30 502 C 44.598 -3.24343 1.12502 0
M  V30 503 C 43.684 -3.57307 2.28456 0
M  V30 504 N 44.075 -3.61398 3.53871 0
M  V30 505 C 42.373 -3.87517 2.20786 0
M  V30 506 C 43.074 -3.91339 4.30382 0
M  V30 507 N 42.05 -4.07649 3.59615 0
M  V30 508 H 45.852 -1.88191 2.25746 0
M  V30 509 H 43.366 -0.9606 1.30944 0
M  V30 510 H 45.363 -4.03327 1.05514 0
M  V30 511 H 44.023 -3.24175 0.184574 0
M  V30 512 H 45.034 -3.43407 3.87675 0
M  V30 513 H 41.711 -3.95125 1.34844 0
M  V30 514 H 43.101 -4.01213 5.3896 0
M  V30 515 N 45.8211 -1.22559 -0.990812 0
M  V30 516 C 47.2321 -1.04791 -1.54518 0
M  V30 517 C 47.5831 0.387998 -1.92325 0
M  V30 518 O 46.7081 1.27328 -1.74976 0
M  V30 519 C 47.3031 -1.896 -2.80779 0
M  V30 520 C 45.8621 -1.76124 -3.32652 0
M  V30 521 C 45.0091 -1.8594 -2.05722 0
M  V30 522 H 47.9601 -1.36374 -0.811662 0
M  V30 523 H 47.9811 -1.41464 -3.53225 0
M  V30 524 H 47.4931 -2.94101 -2.53231 0
M  V30 525 H 45.5941 -0.743643 -3.65104 0
M  V30 526 H 45.7071 -2.58913 -4.03114 0
M  V30 527 H 44.0711 -1.29403 -2.19379 0
M  V30 528 H 44.8541 -2.91976 -1.80568 0
M  V30 529 N 47.2992 1.18797 -1.03562 0
M  V30 530 C 48.5472 1.88278 -0.734569 0
M  V30 531 C 48.8682 1.8043 0.739586 0
M  V30 532 O 48.1382 1.21925 1.53333 0
M  V30 533 H 46.7182 0.696991 -0.268725 0
M  V30 534 H 49.3802 1.44192 -1.31129 0
M  V30 535 H 48.4762 2.94443 -1.03489 0
M  V30 536 N 48.7773 0.814389 1.34928 0
M  V30 537 C 49.7073 0.244827 2.32213 0
M  V30 538 C 50.6883 -0.634024 1.57842 0
M  V30 539 O 51.8733 -0.562676 1.8587 0
M  V30 540 C 49.0033 -0.601106 3.42058 0
M  V30 541 C 47.9573 0.179896 4.27622 0
M  V30 542 C 47.2833 -0.788237 5.28858 0
M  V30 543 C 48.5833 1.38329 5.03649 0
M  V30 544 H 50.2773 1.05763 2.80097 0
M  V30 545 H 47.8233 0.510029 1.34665 0
M  V30 546 H 49.7763 -1.00968 4.09125 0
M  V30 547 H 48.5003 -1.44688 2.92802 0
M  V30 548 H 47.1593 0.569739 3.62146 0
M  V30 549 H 46.8073 -1.62973 4.75866 0
M  V30 550 H 46.5073 -0.269942 5.8698 0
M  V30 551 H 48.0313 -1.19485 5.98795 0
M  V30 552 H 49.4453 1.04918 5.63618 0
M  V30 553 H 47.8423 1.83662 5.71304 0
M  V30 554 H 48.9123 2.16592 4.33839 0
M  V30 555 N 50.2554 -1.46986 0.568584 0
M  V30 556 C 51.5014 -2.02741 0.0488709 0
M  V30 557 C 51.8344 -1.44077 -1.30214 0
M  V30 558 O 51.1094 -0.600552 -1.84996 0
M  V30 559 C 51.3924 -3.60086 -0.032047 0
M  V30 560 C 51.2454 -4.29162 1.34686 0
M  V30 561 C 52.5644 -4.33838 -0.739798 0
M  V30 562 H 49.6834 -0.736749 0.0192338 0
M  V30 563 H 52.3254 -1.75289 0.733065 0
M  V30 564 H 50.4754 -3.83606 -0.61473 0
M  V30 565 H 52.1474 -4.16948 1.97362 0
M  V30 566 H 50.3904 -3.89073 1.91846 0
M  V30 567 H 51.0614 -5.37826 1.24285 0
M  V30 568 H 53.5374 -4.15378 -0.244939 0
M  V30 569 H 52.4134 -5.43537 -0.765406 0
M  V30 570 H 52.6744 -4.03875 -1.79827 0
M  V30 571 N 51.7335 -0.305618 -1.54608 0
M  V30 572 C 52.9795 0.302746 -2.00528 0
M  V30 573 C 53.3125 1.53184 -1.19367 0
M  V30 574 O 52.5875 1.92598 -0.271321 0
M  V30 575 C 52.8705 0.654756 -3.54097 0
M  V30 576 C 52.7235 -0.583793 -4.45995 0
M  V30 577 C 54.0425 1.47947 -4.14487 0
M  V30 578 H 51.1615 0.108564 -0.72896 0
M  V30 579 H 53.8035 -0.418634 -1.85331 0
M  V30 580 H 51.9535 1.26935 -3.67178 0
M  V30 581 H 53.6255 -1.22224 -4.44814 0
M  V30 582 H 51.8685 -1.21615 -4.16404 0
M  V30 583 H 52.5395 -0.293287 -5.5122 0
M  V30 584 H 55.0155 0.96013 -4.04871 0
M  V30 585 H 53.8915 1.69454 -5.22088 0
M  V30 586 H 54.1525 2.47011 -3.66658 0
M  V30 587 N 53.2116 1.57565 -0.0334293 0
M  V30 588 C 54.1216 2.13943 0.962572 0
M  V30 589 C 55.1376 1.09276 1.35406 0
M  V30 590 O 56.3136 1.41355 1.4346 0
M  V30 591 C 53.3786 2.65887 2.22497 0
M  V30 592 C 52.4396 3.85286 1.8935 0
M  V30 593 C 51.6726 4.34743 3.09571 0
M  V30 594 O 51.8956 3.83352 4.22371 0
M  V30 595 O 50.8296 5.26538 2.91618 0
M  V30 596 H 54.6556 2.99333 0.513169 0
M  V30 597 H 52.2406 1.4822 0.18743 0
M  V30 598 H 54.1226 2.99346 2.96598 0
M  V30 599 H 52.7976 1.83578 2.6661 0
M  V30 600 H 51.7046 3.56746 1.1262 0
M  V30 601 H 53.0376 4.68771 1.5005 0
M  V30 602 N 54.6897 -0.239769 1.55765 0
M  V30 603 C 55.6197 -1.30052 1.9393 0
M  V30 604 C 56.6007 -1.49839 0.805132 0
M  V30 605 O 57.7857 -1.62328 1.06599 0
M  V30 606 C 54.9157 -2.65391 2.2402 0
M  V30 607 C 53.8697 -2.60289 3.39755 0
M  V30 608 C 53.1957 -3.99489 3.55405 0
M  V30 609 C 54.4957 -2.16654 4.75246 0
M  V30 610 H 56.1897 -0.983573 2.82783 0
M  V30 611 H 53.7357 -0.471701 1.36055 0
M  V30 612 H 55.6887 -3.3974 2.49308 0
M  V30 613 H 54.4127 -2.98736 1.32 0
M  V30 614 H 53.0717 -1.88398 3.14487 0
M  V30 615 H 52.7197 -4.30112 2.60793 0
M  V30 616 H 52.4197 -3.96962 4.33238 0
M  V30 617 H 53.9437 -4.75528 3.83022 0
M  V30 618 H 55.3577 -2.80737 4.99859 0
M  V30 619 H 53.7547 -2.25223 5.56232 0
M  V30 620 H 54.8247 -1.11835 4.71827 0
M  V30 621 N 56.1678 -1.49265 -0.50573 0
M  V30 622 C 57.4138 -1.58748 -1.26202 0
M  V30 623 C 57.7468 -0.271227 -1.92297 0
M  V30 624 O 57.0218 0.724831 -1.80489 0
M  V30 625 C 57.3048 -2.74332 -2.33268 0
M  V30 626 C 57.1578 -4.15737 -1.71705 0
M  V30 627 C 58.4768 -2.85576 -3.34865 0
M  V30 628 H 55.5958 -0.577826 -0.457478 0
M  V30 629 H 58.2378 -1.81532 -0.560897 0
M  V30 630 H 56.3878 -2.55036 -2.93068 0
M  V30 631 H 58.0598 -4.46537 -1.15769 0
M  V30 632 H 56.3028 -4.21605 -1.02135 0
M  V30 633 H 56.9738 -4.92477 -2.49341 0
M  V30 634 H 59.4498 -3.03127 -2.8505 0
M  V30 635 H 58.3258 -3.68135 -4.07146 0
M  V30 636 H 58.5868 -1.94732 -3.96903 0
M  V30 637 N 57.6459 0.756429 -1.3826 0
M  V30 638 C 59.0569 1.33359 -1.30661 0
M  V30 639 C 59.4079 1.96161 0.0388875 0
M  V30 640 O 58.5329 1.94874 0.940918 0
M  V30 641 C 59.1279 2.42477 -2.36622 0
M  V30 642 C 57.6869 2.95922 -2.3261 0
M  V30 643 C 56.8339 1.69275 -2.19639 0
M  V30 644 H 59.7849 0.55552 -1.4866 0
M  V30 645 H 59.8059 3.22345 -2.02174 0
M  V30 646 H 59.3179 1.96739 -3.34538 0
M  V30 647 H 57.4189 3.45996 -1.38267 0
M  V30 648 H 57.5319 3.50494 -3.26636 0
M  V30 649 H 55.8959 1.92793 -1.66442 0
M  V30 650 H 56.6789 1.25619 -3.19491 0
M  V30 651 N 59.124 1.23083 0.984299 0
M  V30 652 C 60.057 0.951786 2.07404 0
M  V30 653 C 61.035 -0.10848 1.62238 0
M  V30 654 O 62.219 0.0249467 1.88483 0
M  V30 655 C 59.346 0.433142 3.35919 0
M  V30 656 C 58.392 1.47941 4.0002 0
M  V30 657 S 59.225 3.05556 4.39768 0
M  V30 658 C 60.381 2.55351 5.71442 0
M  V30 659 H 60.614 1.87456 2.30754 0
M  V30 660 H 58.147 1.06284 1.11996 0
M  V30 661 H 60.105 0.140506 4.10259 0
M  V30 662 H 58.766 -0.468656 3.10584 0
M  V30 663 H 57.959 1.06658 4.92585 0
M  V30 664 H 57.561 1.7212 3.3204 0
M  V30 665 H 59.853 1.97128 6.48187 0
M  V30 666 H 60.796 3.46441 6.17563 0
M  V30 667 H 61.204 1.96339 5.29255 0
M  V30 668 N 60.6021 -1.18246 1.0419 0
M  V30 669 C 61.8481 -1.88536 0.747122 0
M  V30 670 C 62.1811 -1.80223 -0.723409 0
M  V30 671 O 61.4561 -1.20337 -1.52804 0
M  V30 672 C 61.7391 -3.38968 1.21544 0
M  V30 673 C 61.5921 -3.56084 2.74816 0
M  V30 674 C 62.9111 -4.32648 0.806482 0
M  V30 675 H 60.0301 -0.684619 0.272883 0
M  V30 676 H 62.6721 -1.39113 1.29413 0
M  V30 677 H 60.8221 -3.8119 0.750081 0
M  V30 678 H 62.4941 -3.22946 3.29399 0
M  V30 679 H 60.7371 -2.98699 3.14582 0
M  V30 680 H 61.4081 -4.61639 3.02644 0
M  V30 681 H 63.8841 -3.98211 1.20695 0
M  V30 682 H 62.7601 -5.36462 1.1619 0
M  V30 683 H 63.0211 -4.41146 -0.29029 0
M  V30 684 N 62.0802 -0.821533 -1.34494 0
M  V30 685 C 63.3082 -0.421884 -2.02553 0
M  V30 686 C 63.7232 0.971745 -1.61872 0
M  V30 687 O 63.0802 1.62864 -0.823496 0
M  V30 688 C 63.1312 -0.51285 -3.57844 0
M  V30 689 O 62.8522 -1.85155 -3.97051 0
M  V30 690 C 64.3532 -0.107921 -4.43169 0
M  V30 691 H 61.5732 -0.169482 -0.649243 0
M  V30 692 H 64.1172 -1.1093 -1.71798 0
M  V30 693 H 62.2722 0.126474 -3.87193 0
M  V30 694 H 62.6862 -1.82482 -4.91732 0
M  V30 695 H 64.1602 -0.222657 -5.51551 0
M  V30 696 H 64.6372 0.948401 -4.28838 0
M  V30 697 H 65.2432 -0.720989 -4.19144 0
M  V30 698 N 63.5583 1.46682 -0.576371 0
M  V30 699 C 64.9743 1.57822 -0.237562 0
M  V30 700 C 65.1743 1.57237 1.26011 0
M  V30 701 O 64.2303 1.48596 2.04146 0
M  V30 702 C 65.5433 2.87499 -0.881168 0
M  V30 703 C 67.0913 3.01119 -0.85417 0
M  V30 704 C 67.5663 4.33524 -1.4772 0
M  V30 705 N 69.0573 4.40207 -1.44125 0
M  V30 706 C 69.7923 5.4126 -1.89276 0
M  V30 707 N 69.2883 6.49021 -2.42371 0
M  V30 708 N 71.0813 5.32422 -1.80231 0
M  V30 709 H 63.2323 1.45306 -1.54919 0
M  V30 710 H 65.4953 0.692733 -0.647167 0
M  V30 711 H 65.2013 2.9372 -1.93447 0
M  V30 712 H 65.0753 3.75224 -0.385592 0
M  V30 713 H 67.4623 2.94485 0.190491 0
M  V30 714 H 67.5433 2.14887 -1.3877 0
M  V30 715 H 67.1873 4.40916 -2.52103 0
M  V30 716 H 67.1173 5.1852 -0.918947 0
M  V30 717 H 69.6083 3.62931 -1.05307 0
M  V30 718 H 69.9213 7.2233 -2.74698 0
M  V30 719 H 68.2663 6.49858 -2.46393 0
M  V30 720 H 71.4573 4.47137 -1.38514 0
M  V30 721 H 71.6303 6.11034 -2.15735 0
M  V30 722 N 65.0364 0.313813 1.54444 0
M  V30 723 C 66.2844 -0.291099 1.99993 0
M  V30 724 C 66.6054 -1.53418 1.20366 0
M  V30 725 O 65.8754 -1.93544 0.302927 0
M  V30 726 H 64.4554 -0.110552 0.738774 0
M  V30 727 H 67.1174 0.428106 1.9014 0
M  V30 728 H 66.2134 -0.554268 3.07139 0
M  V30 729 N 66.5145 -1.57545 0.0417849 0
M  V30 730 C 67.7915 -1.83642 -0.673433 0
M  V30 731 C 68.1715 -0.928298 -1.89594 0
M  V30 732 O 67.5195 0.0129955 -2.28496 0
M  V30 733 C 67.7295 -3.33155 -1.03964 0
M  V30 734 C 69.0775 -3.99941 -1.42592 0
M  V30 735 O 70.1015 -3.37725 -1.13226 0
M  V30 736 O 68.9605 -5.09619 -1.9736 0
M  V30 737 H 66.0545 -0.757638 -0.331533 0
M  V30 738 H 68.6005 -1.69554 0.070433 0
M  V30 739 H 67.3725 -3.9093 -0.170098 0
M  V30 740 H 66.9955 -3.52396 -1.84126 0
M  V30 741 N 67.9926 0.231505 -1.5589 0
M  V30 742 C 69.2386 0.95877 -1.78705 0
M  V30 743 C 69.5716 1.8438 -0.609725 0
M  V30 744 O 68.8466 1.90521 0.391426 0
M  V30 745 C 69.1296 1.8062 -3.11526 0
M  V30 746 C 68.9826 0.948328 -4.39689 0
M  V30 747 C 70.3016 2.78585 -3.40703 0
M  V30 748 H 67.4206 0.347129 -0.650131 0
M  V30 749 H 70.0626 0.228259 -1.88624 0
M  V30 750 H 68.2126 2.42902 -3.03201 0
M  V30 751 H 69.8846 0.343016 -4.60023 0
M  V30 752 H 68.1276 0.253314 -4.3306 0
M  V30 753 H 68.7986 1.57543 -5.29041 0
M  V30 754 H 71.2746 2.26439 -3.49091 0
M  V30 755 H 70.1506 3.34988 -4.34826 0
M  V30 756 H 70.4116 3.55825 -2.62375 0
M  V30 757 N 69.4707 1.49531 0.497807 0
M  V30 758 C 70.7197 1.58426 1.24837 0
M  V30 759 C 71.0327 0.277643 1.93619 0
M  V30 760 O 72.2387 0.24517 2.70391 0
M  V30 761 C 70.6947 2.79538 2.26686 0
M  V30 762 C 70.3027 4.16971 1.63828 0
M  V30 763 C 72.0467 2.97764 3.0255 0
M  V30 764 C 69.9537 5.29301 2.63807 0
M  V30 765 H 68.8837 0.58989 0.469623 0
M  V30 766 H 71.5347 1.75923 0.521857 0
M  V30 767 H 69.9167 2.55542 3.02514 0
M  V30 768 H 71.0907 4.51116 0.939711 0
M  V30 769 H 69.4057 4.04129 1.00342 0
M  V30 770 H 72.0027 3.78856 3.77323 0
M  V30 771 H 72.3457 2.08448 3.60354 0
M  V30 772 H 72.8787 3.21815 2.33838 0
M  V30 773 H 69.6177 6.20687 2.10779 0
M  V30 774 H 69.1377 4.99606 3.31894 0
M  V30 775 H 70.8167 5.58768 3.2617 0
M  V30 776 N 70.9488 -0.749086 1.3866 0
M  V30 777 C 71.8788 -1.8764 1.38973 0
M  V30 778 C 72.8598 -1.68178 0.255004 0
M  V30 779 O 74.0448 -1.88704 0.458754 0
M  V30 780 C 71.1748 -3.25222 1.21851 0
M  V30 781 C 70.1288 -3.59295 2.32575 0
M  V30 782 C 69.4548 -4.95663 2.00555 0
M  V30 783 C 70.7548 -3.63709 3.7485 0
M  V30 784 H 72.4488 -1.87635 2.3331 0
M  V30 785 H 69.9948 -0.901329 1.12303 0
M  V30 786 H 71.9478 -4.03746 1.20695 0
M  V30 787 H 70.6718 -3.25719 0.239775 0
M  V30 788 H 69.3308 -2.83093 2.32925 0
M  V30 789 H 68.9788 -4.92724 1.01154 0
M  V30 790 H 68.6788 -5.19429 2.74714 0
M  V30 791 H 70.2028 -5.7656 2.01024 0
M  V30 792 H 71.6168 -4.32338 3.76506 0
M  V30 793 H 70.0138 -3.98986 4.48252 0
M  V30 794 H 71.0838 -2.63834 4.06841 0
M  V30 795 N 72.4269 -1.23603 -0.977757 0
M  V30 796 C 73.7039 -0.977897 -1.69401 0
M  V30 797 C 74.0839 0.502738 -2.05026 0
M  V30 798 O 73.4319 1.47459 -1.74551 0
M  V30 799 C 73.6419 -1.89077 -2.93345 0
M  V30 800 C 74.9899 -2.15579 -3.65802 0
M  V30 801 O 76.0139 -1.86648 -3.03383 0
M  V30 802 O 74.8729 -2.64658 -4.78141 0
M  V30 803 H 71.9669 -0.369025 -0.740101 0
M  V30 804 H 74.5129 -1.34657 -1.03274 0
M  V30 805 H 73.2849 -2.89158 -2.63634 0
M  V30 806 H 72.9079 -1.52463 -3.67207 0
M  V30 807 N 73.905 1.17692 -1.04816 0
M  V30 808 C 75.133 1.91786 -0.776254 0
M  V30 809 C 75.548 1.76604 0.667577 0
M  V30 810 O 74.905 1.10067 1.45573 0
M  V30 811 C 74.956 3.42967 -1.14263 0
M  V30 812 O 74.677 3.57678 -2.52978 0
M  V30 813 C 76.178 4.34144 -0.896311 0
M  V30 814 H 73.398 0.608624 -0.282519 0
M  V30 815 H 75.942 1.49268 -1.39783 0
M  V30 816 H 74.097 3.83245 -0.565874 0
M  V30 817 H 74.511 4.51319 -2.67229 0
M  V30 818 H 75.985 5.38744 -1.20244 0
M  V30 819 H 76.462 4.38876 0.168636 0
M  V30 820 H 77.068 3.99574 -1.45672 0
M  V30 821 N 75.3831 0.828654 1.34056 0
M  V30 822 C 76.7941 0.477534 1.8049 0
M  V30 823 C 77.1451 -1.00258 1.6865 0
M  V30 824 O 76.2701 -1.78057 1.22982 0
M  V30 825 C 76.8651 0.860018 3.27703 0
M  V30 826 C 75.4241 0.561185 3.72193 0
M  V30 827 C 74.5711 1.07385 2.55663 0
M  V30 828 H 77.5221 1.0183 1.21722 0
M  V30 829 H 77.5431 0.166038 3.80138 0
M  V30 830 H 77.0551 1.93731 3.36288 0
M  V30 831 H 75.1561 -0.506465 3.69142 0
M  V30 832 H 75.2691 1.10926 4.66082 0
M  V30 833 H 73.6331 0.495149 2.49841 0
M  V30 834 H 74.4161 2.15771 2.67016 0
M  V30 835 N 76.8612 -1.46375 0.584142 0
M  V30 836 C 77.7912 -2.33103 -0.136037 0
M  V30 837 C 78.7722 -1.45431 -0.882255 0
M  V30 838 O 79.9572 -1.74246 -0.857434 0
M  V30 839 C 77.0872 -3.27731 -1.14933 0
M  V30 840 C 76.0412 -4.24855 -0.517862 0
M  V30 841 C 75.3672 -5.09001 -1.63773 0
M  V30 842 C 76.6672 -5.19439 0.545886 0
M  V30 843 H 78.3612 -2.93568 0.588086 0
M  V30 844 H 75.9072 -1.41166 0.284259 0
M  V30 845 H 77.8602 -3.87261 -1.66153 0
M  V30 846 H 76.5842 -2.65377 -1.90375 0
M  V30 847 H 75.2432 -3.6659 -0.0267361 0
M  V30 848 H 74.8912 -4.43031 -2.38185 0
M  V30 849 H 74.5912 -5.74777 -1.22085 0
M  V30 850 H 76.1152 -5.71396 -2.15266 0
M  V30 851 H 77.5292 -5.73177 0.118704 0
M  V30 852 H 75.9262 -5.93566 0.88317 0
M  V30 853 H 76.9962 -4.63285 1.43162 0
M  V30 854 N 78.3393 -0.321999 -1.54275 0
M  V30 855 C 79.3023 0.531975 -2.22941 0
M  V30 856 C 80.3023 1.04478 -1.22234 0
M  V30 857 O 81.4923 0.937452 -1.46825 0
M  V30 858 C 78.6243 1.73874 -2.93224 0
M  V30 859 H 79.8173 -0.0682612 -2.99822 0
M  V30 860 H 77.3703 -0.0730644 -1.56129 0
M  V30 861 H 78.1053 2.37825 -2.20476 0
M  V30 862 H 77.8903 1.37847 -3.6707 0
M  V30 863 H 79.3803 2.34496 -3.45545 0
M  V30 864 N 79.8174 1.5752 -0.0501392 0
M  V30 865 C 80.7644 2.1147 0.924603 0
M  V30 866 C 81.7344 1.02182 1.30951 0
M  V30 867 O 82.9194 1.29723 1.39916 0
M  V30 868 C 80.0594 2.66337 2.19451 0
M  V30 869 C 79.1724 3.89708 1.86418 0
M  V30 870 C 78.3074 4.32893 3.07859 0
M  V30 871 C 77.3464 5.48967 2.70742 0
M  V30 872 N 76.4834 5.87211 3.84874 0
M  V30 873 H 81.3234 2.94465 0.457639 0
M  V30 874 H 78.8604 1.45531 0.214266 0
M  V30 875 H 80.8184 2.96247 2.93758 0
M  V30 876 H 79.4484 1.86141 2.63726 0
M  V30 877 H 78.5004 3.66396 1.02264 0
M  V30 878 H 79.8124 4.74074 1.55096 0
M  V30 879 H 78.9664 4.6435 3.90466 0
M  V30 880 H 77.7054 3.47336 3.42358 0
M  V30 881 H 76.7104 5.17183 1.86551 0
M  V30 882 H 77.9354 6.3624 2.37436 0
M  V30 883 H 75.8814 5.04607 4.19175 0
M  V30 884 H 75.7984 6.66266 3.57247 0
M  V30 885 H 77.0664 6.23282 4.68123 0
M  V30 886 N 81.2955 -0.223234 1.56011 0
M  V30 887 C 82.5415 -0.949279 1.79211 0
M  V30 888 C 82.8745 -1.84054 0.619494 0
M  V30 889 O 82.1495 -1.90726 -0.381317 0
M  V30 890 C 82.4325 -1.78965 3.12479 0
M  V30 891 C 82.2855 -0.924997 4.40186 0
M  V30 892 C 83.6045 -2.76774 3.42175 0
M  V30 893 H 80.7235 -0.343676 0.651963 0
M  V30 894 H 83.3655 -0.218253 1.88742 0
M  V30 895 H 81.5155 -2.41291 3.04485 0
M  V30 896 H 83.1875 -0.318615 4.60198 0
M  V30 897 H 81.4305 -0.230344 4.33188 0
M  V30 898 H 82.1015 -1.54735 5.29869 0
M  V30 899 H 84.5775 -2.24584 3.50287 0
M  V30 900 H 83.4535 -3.32678 4.36597 0
M  V30 901 H 83.7145 -3.54429 2.64258 0
M  V30 902 N 82.7736 -1.49793 -0.48987 0
M  V30 903 C 84.0216 -1.59525 -1.24081 0
M  V30 904 C 84.3426 -0.288953 -1.92847 0
M  V30 905 O 83.6126 0.692436 -1.83254 0
M  V30 906 H 82.1926 -0.587796 -0.460983 0
M  V30 907 H 84.8546 -1.86477 -0.566778 0
M  V30 908 H 83.9506 -2.39696 -1.99881 0
M  V30 909 N 84.2517 0.741722 -1.39055 0
M  V30 910 C 85.4997 1.49818 -1.35643 0
M  V30 911 C 85.8207 1.94938 0.0491642 0
M  V30 912 O 85.0907 1.68505 0.999141 0
M  V30 913 H 83.6707 0.555755 -0.499144 0
M  V30 914 H 86.3327 0.880957 -1.73854 0
M  V30 915 H 85.4287 2.38348 -2.01486 0
M  V30 916 N 85.7298 1.2412 0.971189 0
M  V30 917 C 86.6768 1.0305 2.06517 0
M  V30 918 C 87.6468 -0.0550666 1.66009 0
M  V30 919 O 88.8318 0.0988688 1.90544 0
M  V30 920 C 85.9718 0.637653 3.39158 0
M  V30 921 C 85.0848 1.79633 3.92882 0
M  V30 922 C 84.2198 1.34939 5.13775 0
M  V30 923 C 83.2588 2.47823 5.59687 0
M  V30 924 N 82.3958 2.04022 6.71803 0
M  V30 925 H 87.2358 1.96685 2.23873 0
M  V30 926 H 84.7728 0.979694 1.09729 0
M  V30 927 H 86.7308 0.390931 4.15364 0
M  V30 928 H 85.3608 -0.261693 3.21737 0
M  V30 929 H 84.4128 2.15681 3.13346 0
M  V30 930 H 85.7248 2.64466 4.22918 0
M  V30 931 H 84.8788 1.06134 5.97345 0
M  V30 932 H 83.6178 0.471557 4.85415 0
M  V30 933 H 82.6228 2.77392 4.74693 0
M  V30 934 H 83.8478 3.36158 5.90063 0
M  V30 935 H 81.7938 1.18632 6.45184 0
M  V30 936 H 81.7108 2.82409 7.01271 0
M  V30 937 H 82.9788 1.78347 7.58823 0
M  V30 938 N 87.2079 -1.17134 1.05439 0
M  V30 939 C 88.4559 -1.87085 0.764429 0
M  V30 940 C 88.7769 -1.81584 -0.710787 0
M  V30 941 O 88.0469 -1.24349 -1.51374 0
M  V30 942 H 86.6269 -0.692627 0.279779 0
M  V30 943 H 89.2889 -1.42087 1.33406 0
M  V30 944 H 88.3849 -2.92759 1.0816 0
M  V30 945 N 88.686 -0.835752 -1.33615 0
M  V30 946 C 89.616 -0.281739 -2.31794 0
M  V30 947 C 90.597 0.608833 -1.58831 0
M  V30 948 O 91.782 0.533035 -1.86741 0
M  V30 949 C 88.912 0.546612 -3.42971 0
M  V30 950 C 87.866 -0.247904 -4.27281 0
M  V30 951 C 87.192 0.704001 -5.30045 0
M  V30 952 C 88.492 -1.46324 -5.01385 0
M  V30 953 H 90.186 -1.10206 -2.78379 0
M  V30 954 H 87.732 -0.531388 -1.33837 0
M  V30 955 H 89.685 0.944467 -4.1068 0
M  V30 956 H 88.409 1.40011 -2.95067 0
M  V30 957 H 87.068 -0.627281 -3.61194 0
M  V30 958 H 86.716 1.55381 -4.78399 0
M  V30 959 H 86.416 0.176524 -5.87335 0
M  V30 960 H 87.94 1.09944 -6.0062 0
M  V30 961 H 89.354 -1.13871 -5.61877 0
M  V30 962 H 87.751 -1.92728 -5.6831 0
M  V30 963 H 88.821 -2.23467 -4.30338 0
M  V30 964 N 90.1641 1.46063 -0.591896 0
M  V30 965 C 91.4111 2.02338 -0.0809991 0
M  V30 966 C 91.7391 1.46228 1.28249 0
M  V30 967 O 90.9941 0.620818 1.85592 0
M  V30 968 C 91.2931 3.57391 0.0249813 0
M  V30 969 C 90.9591 4.32583 -1.27211 0
M  V30 970 C 89.6211 4.52844 -1.62745 0
M  V30 971 C 91.9731 4.75687 -2.13005 0
M  V30 972 C 89.3011 5.13462 -2.83855 0
M  V30 973 C 91.6531 5.37644 -3.3335 0
M  V30 974 C 90.3171 5.5613 -3.69155 0
M  V30 975 H 89.5871 0.740407 -0.0296397 0
M  V30 976 H 92.2341 1.75321 -0.770374 0
M  V30 977 H 90.5391 3.83597 0.797537 0
M  V30 978 H 92.2361 3.98621 0.436184 0
M  V30 979 H 88.8261 4.17116 -0.985499 0
M  V30 980 H 93.0101 4.59782 -1.86855 0
M  V30 981 H 88.2661 5.25965 -3.11722 0
M  V30 982 H 92.4401 5.7 -4.00092 0
M  V30 983 H 90.0671 6.0287 -4.63089 0
M  V30 984 N 91.6422 0.330177 1.54103 0
M  V30 985 C 92.8882 -0.270806 2.00984 0
M  V30 986 C 93.2212 -1.51265 1.21789 0
M  V30 987 O 92.4962 -1.92142 0.301927 0
M  V30 988 C 92.7792 -0.598339 3.55094 0
M  V30 989 C 92.6322 0.654674 4.4501 0
M  V30 990 C 93.9512 -1.41334 4.16789 0
M  V30 991 H 91.0702 -0.0969531 0.730595 0
M  V30 992 H 93.7122 0.448066 1.84641 0
M  V30 993 H 91.8622 -1.21078 3.69151 0
M  V30 994 H 93.5342 1.29285 4.42813 0
M  V30 995 H 91.7772 1.28224 4.14416 0
M  V30 996 H 92.4482 0.380944 5.50684 0
M  V30 997 H 94.9242 -0.895597 4.06347 0
M  V30 998 H 93.8002 -1.61127 5.24718 0
M  V30 999 H 94.0612 -2.41146 3.70541 0
M  V30 1000 N 93.1203 -1.57491 0.0584922 0
M  V30 1001 C 94.0673 -2.11958 -0.913376 0
M  V30 1002 C 95.0373 -1.02875 -1.30407 0
M  V30 1003 O 96.2223 -1.30464 -1.39226 0
M  V30 1004 C 93.3623 -2.67497 -2.18035 0
M  V30 1005 C 92.4753 -3.90691 -1.84349 0
M  V30 1006 C 91.6103 -4.3452 -3.05559 0
M  V30 1007 C 90.6493 -5.50395 -2.67827 0
M  V30 1008 N 89.7863 -5.89244 -3.81754 0
M  V30 1009 H 94.6263 -2.94704 -0.442017 0
M  V30 1010 H 92.1633 -1.45643 -0.206545 0
M  V30 1011 H 94.1213 -2.978 -2.92183 0
M  V30 1012 H 92.7513 -1.87537 -2.62735 0
M  V30 1013 H 91.8033 -3.66934 -1.00319 0
M  V30 1014 H 93.1153 -4.7489 -1.5258 0
M  V30 1015 H 92.2693 -4.66414 -3.87998 0
M  V30 1016 H 91.0083 -3.49147 -3.40511 0
M  V30 1017 H 90.0133 -5.18165 -1.83806 0
M  V30 1018 H 91.2383 -6.3749 -2.34059 0
M  V30 1019 H 89.1843 -5.06823 -4.16493 0
M  V30 1020 H 89.1013 -6.68151 -3.53708 0
M  V30 1021 H 90.3693 -6.25756 -4.64811 0
M  V30 1022 N 94.5984 0.214957 -1.56127 0
M  V30 1023 C 95.5084 1.28727 -1.96129 0
M  V30 1024 C 96.5244 1.50916 -0.866044 0
M  V30 1025 O 97.7004 1.63918 -1.17016 0
M  V30 1026 C 94.7654 2.61569 -2.27558 0
M  V30 1027 C 93.8264 2.47625 -3.50685 0
M  V30 1028 C 93.0594 3.74132 -3.80606 0
M  V30 1029 O 93.2824 4.77438 -3.12104 0
M  V30 1030 O 92.2164 3.70849 -4.74083 0
M  V30 1031 H 96.0424 0.977855 -2.87527 0
M  V30 1032 H 93.6274 0.418358 -1.43423 0
M  V30 1033 H 95.5094 3.40012 -2.48938 0
M  V30 1034 H 94.1844 2.92178 -1.39332 0
M  V30 1035 H 93.0914 1.67361 -3.34576 0
M  V30 1036 H 94.4244 2.21954 -4.39315 0
M  V30 1037 N 96.0765 1.50051 0.48192 0
M  V30 1038 C 97.0065 1.71046 1.58951 0
M  V30 1039 C 97.9875 0.559288 1.60642 0
M  V30 1040 O 99.1725 0.797243 1.77081 0
M  V30 1041 C 96.3025 1.79462 2.97339 0
M  V30 1042 C 95.2565 2.94558 3.10515 0
M  V30 1043 C 94.5825 2.88105 4.50444 0
M  V30 1044 C 95.8825 4.35227 2.88747 0
M  V30 1045 H 97.5765 2.6378 1.41635 0
M  V30 1046 H 95.1225 1.26936 0.679942 0
M  V30 1047 H 97.0755 1.92734 3.74742 0
M  V30 1048 H 95.7995 0.833412 3.15788 0
M  V30 1049 H 94.4585 2.80918 2.35543 0
M  V30 1050 H 94.1065 1.89853 4.65795 0
M  V30 1051 H 93.8065 3.65366 4.60197 0
M  V30 1052 H 95.3305 3.03412 5.29881 0
M  V30 1053 H 96.7445 4.49449 3.55905 0
M  V30 1054 H 95.1415 5.13856 3.09955 0
M  V30 1055 H 96.2115 4.48347 1.84696 0
M  V30 1056 N 97.5546 -0.734337 1.39446 0
M  V30 1057 C 98.4646 -1.87879 1.40495 0
M  V30 1058 C 99.4806 -1.714 0.299672 0
M  V30 1059 O 100.657 -1.93991 0.541249 0
M  V30 1060 C 97.7216 -3.23477 1.24754 0
M  V30 1061 C 96.7826 -3.52344 2.45259 0
M  V30 1062 C 96.0156 -4.81473 2.30259 0
M  V30 1063 O 96.2386 -5.55237 1.30643 0
M  V30 1064 O 95.1726 -5.10254 3.19256 0
M  V30 1065 H 98.9986 -1.89949 2.36966 0
M  V30 1066 H 96.5836 -0.882243 1.20569 0
M  V30 1067 H 98.4656 -4.04509 1.18111 0
M  V30 1068 H 97.1406 -3.22176 0.313781 0
M  V30 1069 H 96.0476 -2.71396 2.57478 0
M  V30 1070 H 97.3806 -3.58426 3.37331 0
M  V30 1071 N 99.0327 -1.24633 -0.964593 0
M  V30 1072 C 100.279 -1.08949 -1.71049 0
M  V30 1073 C 100.612 0.370302 -1.90637 0
M  V30 1074 O 99.8867 1.27349 -1.47011 0
M  V30 1075 C 100.17 -1.83329 -3.0994 0
M  V30 1076 C 100.023 -3.37077 -2.97824 0
M  V30 1077 C 101.342 -1.60846 -4.09654 0
M  V30 1078 H 98.4607 -0.397178 -0.620821 0
M  V30 1079 H 101.103 -1.5334 -1.12191 0
M  V30 1080 H 99.2527 -1.45597 -3.60186 0
M  V30 1081 H 100.925 -3.84425 -2.5498 0
M  V30 1082 H 99.1677 -3.65298 -2.33965 0
M  V30 1083 H 99.8387 -3.84324 -3.96231 0
M  V30 1084 H 102.315 -1.93674 -3.68279 0
M  V30 1085 H 101.191 -2.1534 -5.04896 0
M  V30 1086 H 101.452 -0.547434 -4.38698 0
M  V30 1087 N 100.511 1.16574 -1.06058 0
M  V30 1088 C 101.474 2.19085 -0.673392 0
M  V30 1089 C 102.474 1.5835 0.279648 0
M  V30 1090 O 103.664 1.74088 0.0623488 0
M  V30 1091 C 100.796 3.40899 0.00954234 0
M  V30 1092 H 101.989 2.54853 -1.58081 0
M  V30 1093 H 99.5418 1.30808 -0.855516 0
M  V30 1094 H 100.277 3.10684 0.929826 0
M  V30 1095 H 100.062 3.86233 -0.67573 0
M  V30 1096 H 101.552 4.1675 0.266245 0
M  V30 1097 N 101.989 0.842826 1.3317 0
M  V30 1098 C 102.919 0.294028 2.31641 0
M  V30 1099 C 103.9 -0.600401 1.59151 0
M  V30 1100 O 105.085 -0.523124 1.87022 0
M  V30 1101 C 102.215 -0.528416 3.43257 0
M  V30 1102 C 101.169 0.27056 4.27144 0
M  V30 1103 C 100.495 -0.675881 5.30411 0
M  V30 1104 C 101.795 1.48981 5.00602 0
M  V30 1105 H 103.489 1.11681 2.77791 0
M  V30 1106 H 101.035 0.538478 1.33553 0
M  V30 1107 H 102.988 -0.922674 4.11175 0
M  V30 1108 H 101.712 -1.38445 2.95805 0
M  V30 1109 H 100.371 0.646427 3.60856 0
M  V30 1110 H 100.019 -1.52842 4.79216 0
M  V30 1111 H 99.7189 -0.145374 5.8742 0
M  V30 1112 H 101.243 -1.06757 6.01195 0
M  V30 1113 H 102.657 1.16849 5.61266 0
M  V30 1114 H 101.054 1.95739 5.6728 0
M  V30 1115 H 102.124 2.25746 4.29147 0
M  V30 1116 N 103.467 -1.45747 0.599634 0
M  V30 1117 C 104.397 -2.33235 -0.111306 0
M  V30 1118 C 105.378 -1.46359 -0.866781 0
M  V30 1119 O 106.563 -1.75146 -0.838904 0
M  V30 1120 C 103.693 -3.28932 -1.11451 0
M  V30 1121 C 102.647 -4.25381 -0.472772 0
M  V30 1122 C 101.973 -5.1071 -1.58365 0
M  V30 1123 C 103.273 -5.18831 0.600948 0
M  V30 1124 H 104.967 -2.92927 0.61919 0
M  V30 1125 H 102.513 -1.40857 0.299215 0
M  V30 1126 H 104.466 -3.89002 -1.62036 0
M  V30 1127 H 103.19 -2.67381 -1.8755 0
M  V30 1128 H 101.849 -3.66598 0.0121472 0
M  V30 1129 H 101.497 -4.45533 -2.33473 0
M  V30 1130 H 101.197 -5.7604 -1.15982 0
M  V30 1131 H 102.721 -5.73647 -2.09194 0
M  V30 1132 H 104.135 -5.73019 0.179491 0
M  V30 1133 H 102.532 -5.92595 0.946076 0
M  V30 1134 H 103.602 -4.6174 1.48068 0
M  V30 1135 N 104.945 -0.338344 -1.53925 0
M  V30 1136 C 105.855 0.529421 -2.28548 0
M  V30 1137 C 106.871 1.11645 -1.3346 0
M  V30 1138 O 108.047 1.13325 -1.66492 0
M  V30 1139 C 105.112 1.66713 -3.03987 0
M  V30 1140 C 104.173 1.11041 -4.14691 0
M  V30 1141 C 103.406 2.19389 -4.86522 0
M  V30 1142 O 103.629 3.40013 -4.57982 0
M  V30 1143 O 102.563 1.83976 -5.73094 0
M  V30 1144 H 106.389 -0.0770399 -3.03602 0
M  V30 1145 H 103.974 -0.103555 -1.49041 0
M  V30 1146 H 105.856 2.32918 -3.5118 0
M  V30 1147 H 104.531 2.25949 -2.31794 0
M  V30 1148 H 103.438 0.413024 -3.71813 0
M  V30 1149 H 104.771 0.562975 -4.8897 0
M  V30 1150 N 106.423 1.57458 -0.0668435 0
M  V30 1151 C 107.371 2.13639 0.919851 0
M  V30 1152 C 108.365 1.07204 1.31163 0
M  V30 1153 O 109.571 1.25591 1.28945 0
M  V30 1154 H 105.946 0.683048 0.314562 0
M  V30 1155 H 107.917 2.95415 0.421047 0
M  V30 1156 C 106.666 2.70892 2.17975 0
M  V30 1157 H 105.989 3.5246 1.88711 0
M  V30 1158 H 107.429 3.13803 2.85138 0
M  V30 1159 C 105.888 1.65414 2.93496 0
M  V30 1160 O 106.418 1.07619 3.87015 0
M  V30 1161 N 104.624 1.36564 2.56512 0
M  V30 1162 H 104.171 1.83751 1.80536 0
M  V30 1163 H 104.129 0.66223 3.07347 0
M  V30 1164 N 107.901 -0.206675 1.56239 0
M  V30 1165 C 109.317 -0.557025 1.49564 0
M  V30 1166 C 109.517 -1.86424 0.764735 0
M  V30 1167 O 108.573 -2.50584 0.310491 0
M  V30 1168 C 109.886 -0.622478 2.94186 0
M  V30 1169 C 111.434 -0.712099 3.04792 0
M  V30 1170 C 111.909 -0.808767 4.50803 0
M  V30 1171 N 113.4 -0.8726 4.54907 0
M  V30 1172 C 114.135 -0.967365 5.65181 0
M  V30 1173 N 113.631 -1.02515 6.85173 0
M  V30 1174 N 115.424 -1.00366 5.53067 0
M  V30 1175 H 107.575 0.650943 2.02179 0
M  V30 1176 H 109.838 0.230387 0.919579 0
M  V30 1177 H 109.544 0.268727 3.50672 0
M  V30 1178 H 109.418 -1.4811 3.46905 0
M  V30 1179 H 111.805 -1.59374 2.48363 0
M  V30 1180 H 111.886 0.172489 2.55218 0
M  V30 1181 H 111.53 0.0684754 5.07854 0
M  V30 1182 H 111.46 -1.70899 4.98098 0
M  V30 1183 H 113.951 -0.837657 3.68499 0
M  V30 1184 H 114.264 -1.09765 7.64965 0
M  V30 1185 H 112.609 -0.994026 6.87855 0
M  V30 1186 H 115.8 -0.95527 4.58249 0
M  V30 1187 H 115.973 -1.07405 6.39037 0
M  V30 1188 N 109.379 -1.50304 -0.473955 0
M  V30 1189 C 110.342 -1.6841 -1.55469 0
M  V30 1190 C 111.342 -0.554905 -1.50922 0
M  V30 1191 O 112.532 -0.821882 -1.53593 0
M  V30 1192 C 109.664 -1.70667 -2.95102 0
M  V30 1193 H 110.857 -2.64828 -1.40733 0
M  V30 1194 H 108.41 -1.39742 -0.700132 0
M  V30 1195 H 109.145 -0.75932 -3.15285 0
M  V30 1196 H 108.93 -2.52698 -2.9981 0
M  V30 1197 H 110.42 -1.8664 -3.73571 0
M  V30 1198 N 110.857 0.726932 -1.39834 0
M  V30 1199 C 112.134 1.47902 -1.28001 0
M  V30 1200 C 112.514 2.1083 0.106789 0
M  V30 1201 O 111.862 1.99242 1.11869 0
M  V30 1202 C 112.072 2.52392 -2.41038 0
M  V30 1203 C 113.42 3.18546 -2.80737 0
M  V30 1204 O 114.444 2.62708 -2.40547 0
M  V30 1205 O 113.303 4.19604 -3.50135 0
M  V30 1206 H 110.397 0.657163 -0.502062 0
M  V30 1207 H 112.943 0.760071 -1.51727 0
M  V30 1208 H 111.715 2.04329 -3.33715 0
M  V30 1209 H 111.338 3.31837 -2.19021 0
M  V30 1210 N 112.336 1.25143 0.95797 0
M  V30 1211 C 113.585 1.0909 1.69654 0
M  V30 1212 C 113.898 -0.368548 1.92097 0
M  V30 1213 O 115.104 -0.649455 2.63618 0
M  V30 1214 C 113.56 1.90395 3.05414 0
M  V30 1215 C 113.168 3.4081 2.90779 0
M  V30 1216 C 114.912 1.82901 3.83076 0
M  V30 1217 C 112.819 4.14423 4.21909 0
M  V30 1218 H 111.749 0.404625 0.636235 0
M  V30 1219 H 114.4 1.4931 1.06672 0
M  V30 1220 H 112.782 1.42996 3.69281 0
M  V30 1221 H 113.956 3.95859 2.35865 0
M  V30 1222 H 112.271 3.49361 2.26575 0
M  V30 1223 H 114.868 2.35196 4.80195 0
M  V30 1224 H 115.211 0.796224 4.08615 0
M  V30 1225 H 115.744 2.28033 3.25954 0
M  V30 1226 H 112.483 5.18102 4.01561 0
M  V30 1227 H 112.003 3.64159 4.76601 0
M  V30 1228 H 113.682 4.21956 4.90471 0
M  V30 1229 N 113.814 -1.1601 1.06675 0
M  V30 1230 C 114.777 -2.18724 0.685001 0
M  V30 1231 C 115.777 -1.58496 -0.271246 0
M  V30 1232 O 116.967 -1.74119 -0.0531156 0
M  V30 1233 C 114.099 -3.40899 0.00853648 0
M  V30 1234 H 115.292 -2.54011 1.59431 0
M  V30 1235 H 112.845 -1.30352 0.862441 0
M  V30 1236 H 113.58 -3.11173 -0.913337 0
M  V30 1237 H 113.365 -3.8587 0.696204 0
M  V30 1238 H 114.855 -4.16886 -0.24414 0
M  V30 1239 N 115.292 -0.849877 -1.32721 0
M  V30 1240 C 116.538 -0.451591 -1.97708 0
M  V30 1241 C 116.871 0.989175 -1.6712 0
M  V30 1242 O 116.146 1.69334 -0.956891 0
M  V30 1243 C 116.429 -0.685598 -3.53513 0
M  V30 1244 C 116.282 -2.17444 -3.93749 0
M  V30 1245 C 117.601 -0.138874 -4.39881 0
M  V30 1246 H 114.72 -0.16555 -0.718166 0
M  V30 1247 H 117.362 -1.06742 -1.57182 0
M  V30 1248 H 115.512 -0.161416 -3.88165 0
M  V30 1249 H 117.184 -2.76433 -3.693 0
M  V30 1250 H 115.427 -2.65476 -3.43081 0
M  V30 1251 H 116.098 -2.28888 -5.02309 0
M  V30 1252 H 118.574 -0.587068 -4.11938 0
M  V30 1253 H 117.45 -0.332213 -5.47894 0
M  V30 1254 H 117.711 0.95806 -4.31594 0
M  V30 1255 N 116.77 1.45427 -0.607355 0
M  V30 1256 C 117.72 2.27612 0.133038 0
M  V30 1257 C 118.704 1.37307 0.838785 0
M  V30 1258 O 119.896 1.61299 0.728813 0
M  V30 1259 C 117.025 3.24173 1.12991 0
M  V30 1260 C 116.111 4.21965 0.425011 0
M  V30 1261 N 116.502 5.02982 -0.533217 0
M  V30 1262 C 114.8 4.40899 0.672593 0
M  V30 1263 C 115.501 5.73931 -0.947518 0
M  V30 1264 N 114.477 5.42819 -0.291321 0
M  V30 1265 H 118.279 2.87649 -0.602935 0
M  V30 1266 H 115.793 1.56576 -0.431006 0
M  V30 1267 H 117.79 3.81783 1.67473 0
M  V30 1268 H 116.45 2.65696 1.86644 0
M  V30 1269 H 117.461 5.09843 -0.90995 0
M  V30 1270 H 114.138 3.93547 1.39382 0
M  V30 1271 H 115.528 6.49037 -1.73782 0
M  V30 1272 N 118.248 0.346503 1.53744 0
M  V30 1273 C 119.473 -0.253074 2.0585 0
M  V30 1274 C 119.898 -1.43202 1.21962 0
M  V30 1275 O 119.256 -1.79783 0.234073 0
M  V30 1276 C 119.304 -0.643193 3.54817 0
M  V30 1277 O 118.408 -1.74286 3.73762 0
M  V30 1278 H 117.749 -0.0413583 0.662711 0
M  V30 1279 H 120.279 0.501574 1.98357 0
M  V30 1280 H 120.289 -0.919526 3.97503 0
M  V30 1281 H 118.964 0.218966 4.15323 0
M  V30 1282 H 117.541 -1.46356 3.42979 0
M  V30 1283 N 119.726 -1.57421 0.075193 0
M  V30 1284 C 120.659 -2.08528 -0.926904 0
M  V30 1285 C 121.637 -0.991171 -1.28898 0
M  V30 1286 O 122.821 -1.26479 -1.39769 0
M  V30 1287 C 119.948 -2.54576 -2.23402 0
M  V30 1288 C 118.994 -3.75454 -2.02327 0
M  V30 1289 S 119.827 -5.19989 -1.27951 0
M  V30 1290 C 120.983 -5.69372 -2.59935 0
M  V30 1291 H 121.216 -2.932 -0.492048 0
M  V30 1292 H 118.749 -1.53785 -0.137651 0
M  V30 1293 H 120.707 -2.81767 -2.98526 0
M  V30 1294 H 119.368 -1.70166 -2.64012 0
M  V30 1295 H 118.561 -4.05675 -2.99071 0
M  V30 1296 H 118.163 -3.48654 -1.35339 0
M  V30 1297 H 120.455 -5.76424 -3.56008 0
M  V30 1298 H 121.398 -6.68207 -2.34319 0
M  V30 1299 H 121.806 -4.97205 -2.67296 0
M  V30 1300 N 121.204 0.198386 -1.56346 0
M  V30 1301 C 122.151 1.24589 -1.94284 0
M  V30 1302 C 123.121 1.454 -0.802997 0
M  V30 1303 O 124.306 1.58588 -1.06087 0
M  V30 1304 C 121.446 2.58631 -2.28482 0
M  V30 1305 C 120.559 2.45426 -3.55514 0
M  V30 1306 C 119.694 3.7215 -3.79049 0
M  V30 1307 C 118.733 3.53763 -4.99518 0
M  V30 1308 N 117.87 4.72491 -5.19323 0
M  V30 1309 H 122.71 0.915356 -2.83593 0
M  V30 1310 H 120.247 0.440629 -1.40346 0
M  V30 1311 H 122.205 3.3672 -2.46324 0
M  V30 1312 H 120.835 2.89734 -1.42317 0
M  V30 1313 H 119.887 1.58652 -3.45737 0
M  V30 1314 H 121.199 2.27772 -4.43758 0
M  V30 1315 H 120.353 4.58679 -3.97113 0
M  V30 1316 H 119.092 3.92754 -2.89129 0
M  V30 1317 H 118.097 2.65619 -4.8138 0
M  V30 1318 H 119.322 3.34607 -5.90944 0
M  V30 1319 H 117.268 4.93365 -4.3235 0
M  V30 1320 H 117.185 4.5765 -6.01741 0
M  V30 1321 H 118.453 5.6038 -5.41843 0
M  V30 1322 N 122.682 1.50554 0.465978 0
M  V30 1323 C 123.959 1.5232 1.22712 0
M  V30 1324 C 124.339 0.270807 2.09356 0
M  V30 1325 O 123.687 -0.745541 2.15995 0
M  V30 1326 C 123.897 2.82175 2.05374 0
M  V30 1327 C 125.245 3.33033 2.6339 0
M  V30 1328 O 126.269 2.83531 2.15612 0
M  V30 1329 O 125.128 4.19336 3.50456 0
M  V30 1330 H 122.222 0.611183 0.557122 0
M  V30 1331 H 124.768 1.62847 0.477381 0
M  V30 1332 H 123.54 3.64797 1.41558 0
M  V30 1333 H 123.163 2.74675 2.87471 0
M  V30 1334 N 124.16 -0.719506 1.40217 0
M  V30 1335 C 125.406 -1.48152 1.38488 0
M  V30 1336 C 125.739 -1.94195 -0.0141867 0
M  V30 1337 O 125.014 -1.67884 -0.982096 0
M  V30 1338 C 125.297 -2.71035 2.37091 0
M  V30 1339 C 125.15 -2.30912 3.86005 0
M  V30 1340 C 126.469 -3.73182 2.33288 0
M  V30 1341 H 123.588 -0.537395 0.504357 0
M  V30 1342 H 126.23 -0.821472 1.71324 0
M  V30 1343 H 124.38 -3.27352 2.0922 0
M  V30 1344 H 126.052 -1.80107 4.24687 0
M  V30 1345 H 124.295 -1.62958 4.02029 0
M  V30 1346 H 124.966 -3.18978 4.50508 0
M  V30 1347 H 127.442 -3.26485 2.57966 0
M  V30 1348 H 126.318 -4.56806 3.04334 0
M  V30 1349 H 126.579 -4.21202 1.34317 0
M  V30 1350 N 125.638 -1.25649 -0.95132 0
M  V30 1351 C 127.049 -1.09654 -1.51106 0
M  V30 1352 C 127.4 0.326615 -1.93462 0
M  V30 1353 O 126.525 1.21697 -1.78938 0
M  V30 1354 C 127.12 -1.98437 -2.74605 0
M  V30 1355 C 125.679 -1.86618 -3.2688 0
M  V30 1356 C 124.826 -1.9239 -1.99703 0
M  V30 1357 H 127.777 -1.38887 -0.767865 0
M  V30 1358 H 127.798 -1.5263 -3.48546 0
M  V30 1359 H 127.31 -3.02009 -2.43746 0
M  V30 1360 H 125.411 -0.859421 -3.62553 0
M  V30 1361 H 125.524 -2.71607 -3.94673 0
M  V30 1362 H 123.888 -1.36317 -2.15151 0
M  V30 1363 H 124.671 -2.97573 -1.71188 0
M  V30 1364 N 127.117 1.15442 -1.07289 0
M  V30 1365 C 128.363 1.86489 -0.796846 0
M  V30 1366 C 128.696 1.82078 0.675371 0
M  V30 1367 O 127.971 1.24346 1.4956 0
M  V30 1368 C 128.254 3.35626 -1.30489 0
M  V30 1369 C 128.107 3.48673 -2.84161 0
M  V30 1370 C 129.426 4.30357 -0.920907 0
M  V30 1371 H 126.545 0.677144 -0.290939 0
M  V30 1372 H 129.187 1.35633 -1.33056 0
M  V30 1373 H 127.337 3.79068 -0.850883 0
M  V30 1374 H 129.009 3.14099 -3.37846 0
M  V30 1375 H 127.252 2.90253 -3.22391 0
M  V30 1376 H 127.923 4.53453 -3.14777 0
M  V30 1377 H 130.399 3.94871 -1.3121 0
M  V30 1378 H 129.275 5.33193 -1.30372 0
M  V30 1379 H 129.536 4.4176 0.173226 0
M  V30 1380 N 128.595 0.856903 1.32268 0
M  V30 1381 C 129.505 0.306131 2.32594 0
M  V30 1382 C 130.521 -0.577209 1.64147 0
M  V30 1383 O 131.697 -0.477043 1.95669 0
M  V30 1384 C 128.762 -0.494561 3.43154 0
M  V30 1385 C 127.823 0.415186 4.27288 0
M  V30 1386 C 127.056 -0.347387 5.32568 0
M  V30 1387 O 127.279 -1.57708 5.48165 0
M  V30 1388 O 126.213 0.287982 6.01211 0
M  V30 1389 H 130.039 1.13737 2.81598 0
M  V30 1390 H 127.624 0.619902 1.35932 0
M  V30 1391 H 129.506 -0.948944 4.10576 0
M  V30 1392 H 128.181 -1.30257 2.96336 0
M  V30 1393 H 127.088 0.917793 3.62667 0
M  V30 1394 H 128.421 1.18844 4.77637 0
M  V30 1395 N 130.073 -1.45103 0.615059 0
M  V30 1396 C 131.32 -2.02183 0.113179 0
M  V30 1397 C 131.648 -1.48249 -1.25906 0
M  V30 1398 O 130.903 -0.650265 -1.84581 0
M  V30 1399 C 131.202 -3.57386 0.0318797 0
M  V30 1400 C 130.868 -4.30505 1.34077 0
M  V30 1401 C 129.53 -4.50197 1.69929 0
M  V30 1402 C 131.882 -4.72238 2.20546 0
M  V30 1403 C 129.21 -5.08881 2.91988 0
M  V30 1404 C 131.562 -5.32272 3.41861 0
M  V30 1405 C 130.226 -5.50187 3.77956 0
M  V30 1406 H 129.496 -0.739842 0.0414151 0
M  V30 1407 H 132.143 -1.74073 0.798168 0
M  V30 1408 H 130.448 -3.84817 -0.736409 0
M  V30 1409 H 132.145 -3.99264 -0.372712 0
M  V30 1410 H 128.735 -4.15496 1.05173 0
M  V30 1411 H 132.919 -4.56751 1.94146 0
M  V30 1412 H 128.175 -5.20939 3.2005 0
M  V30 1413 H 132.349 -5.63563 4.09109 0
M  V30 1414 H 129.976 -5.95427 4.72622 0
M  V30 1415 N 131.551 -0.354651 -1.53558 0
M  V30 1416 C 132.962 0.126902 -1.86268 0
M  V30 1417 C 133.313 1.49075 -1.27558 0
M  V30 1418 O 132.438 2.08105 -0.5934 0
M  V30 1419 C 133.033 0.237046 -3.3797 0
M  V30 1420 C 131.592 0.662842 -3.70518 0
M  V30 1421 C 130.739 -0.196652 -2.76602 0
M  V30 1422 H 133.69 -0.573849 -1.47962 0
M  V30 1423 H 133.711 1.06259 -3.65362 0
M  V30 1424 H 133.223 -0.755725 -3.80671 0
M  V30 1425 H 131.324 1.66424 -3.33367 0
M  V30 1426 H 131.437 0.445034 -4.77029 0
M  V30 1427 H 129.801 0.332763 -2.52517 0
M  V30 1428 H 130.584 -1.18676 -3.22135 0
M  V30 1429 N 133.029 1.57378 -0.0835403 0
M  V30 1430 C 133.961 2.10389 0.909338 0
M  V30 1431 C 134.974 1.03858 1.25369 0
M  V30 1432 O 136.163 1.31338 1.20882 0
M  V30 1433 C 133.263 2.55908 2.2218 0
M  V30 1434 C 132.436 3.86145 2.05453 0
M  V30 1435 C 131.495 4.17633 3.20108 0
M  V30 1436 O 130.521 4.87043 2.94581 0
M  V30 1437 N 131.723 3.72113 4.45547 0
M  V30 1438 H 134.488 2.962 0.456657 0
M  V30 1439 H 132.049 1.61579 0.101877 0
M  V30 1440 H 134.041 2.74027 2.97811 0
M  V30 1441 H 132.611 1.75171 2.58909 0
M  V30 1442 H 131.831 3.7729 1.1422 0
M  V30 1443 H 133.119 4.7137 1.91541 0
M  V30 1444 H 132.517 3.16062 4.69171 0
M  V30 1445 H 131.074 3.95409 5.18165 0
M  V30 1446 N 134.507 -0.190092 1.56449 0
M  V30 1447 C 135.755 -0.907908 1.80559 0
M  V30 1448 C 136.076 -1.83583 0.657438 0
M  V30 1449 O 135.346 -1.93203 -0.323924 0
M  V30 1450 H 133.926 -0.338247 0.666032 0
M  V30 1451 H 136.588 -0.194403 1.93928 0
M  V30 1452 H 135.684 -1.49604 2.73907 0
M  V30 1453 N 135.985 -1.50799 -0.457987 0
M  V30 1454 C 136.915 -1.73553 -1.5621 0
M  V30 1455 C 137.896 -0.584774 -1.59732 0
M  V30 1456 O 139.081 -0.825314 -1.7579 0
M  V30 1457 C 136.211 -1.84169 -2.94447 0
M  V30 1458 C 135.165 -2.99461 -3.0579 0
M  V30 1459 C 134.491 -2.95235 -4.45803 0
M  V30 1460 C 135.791 -4.39766 -2.81786 0
M  V30 1461 H 137.485 -2.66 -1.37421 0
M  V30 1462 H 135.031 -1.28002 -0.659662 0
M  V30 1463 H 136.984 -1.98672 -3.71628 0
M  V30 1464 H 135.708 -0.883545 -3.14422 0
M  V30 1465 H 134.367 -2.8463 -2.31044 0
M  V30 1466 H 134.015 -1.97239 -4.62715 0
M  V30 1467 H 133.715 -3.72642 -4.54326 0
M  V30 1468 H 135.239 -3.11803 -5.24987 0
M  V30 1469 H 136.653 -4.55054 -3.4871 0
M  V30 1470 H 135.05 -5.18722 -3.0174 0
M  V30 1471 H 136.12 -4.51229 -1.7754 0
M  V30 1472 N 137.463 0.71206 -1.40597 0
M  V30 1473 C 138.711 1.46907 -1.38791 0
M  V30 1474 C 139.032 1.94998 0.00780391 0
M  V30 1475 O 138.302 1.70587 0.963174 0
M  V30 1476 H 136.882 0.545043 -0.51082 0
M  V30 1477 H 139.544 0.843882 -1.75683 0
M  V30 1478 H 138.64 2.34021 -2.06496 0
M  V30 1479 N 138.941 1.26152 0.944643 0
M  V30 1480 C 139.871 1.09902 2.06019 0
M  V30 1481 C 140.852 0.00519538 1.70099 0
M  V30 1482 O 142.037 0.176583 1.93396 0
M  V30 1483 C 139.167 0.727562 3.39594 0
M  V30 1484 C 138.121 1.77274 3.89561 0
M  V30 1485 C 137.447 1.25569 5.19747 0
M  V30 1486 C 138.747 3.17357 4.14827 0
M  V30 1487 H 140.441 2.03217 2.19871 0
M  V30 1488 H 137.987 0.978452 1.05652 0
M  V30 1489 H 139.94 0.600777 4.17095 0
M  V30 1490 H 138.664 -0.241287 3.25707 0
M  V30 1491 H 137.323 1.88814 3.14237 0
M  V30 1492 H 136.971 0.276783 5.02238 0
M  V30 1493 H 136.671 1.95433 5.54148 0
M  V30 1494 H 138.195 1.1415 5.99835 0
M  V30 1495 H 139.609 3.08914 4.82954 0
M  V30 1496 H 138.006 3.84781 4.60504 0
M  V30 1497 H 139.076 3.63673 3.20734 0
M  V30 1498 N 140.419 -1.14872 1.07899 0
M  V30 1499 C 141.665 -1.86064 0.806725 0
M  V30 1500 C 141.998 -1.82434 -0.665706 0
M  V30 1501 O 141.273 -1.25138 -1.48899 0
M  V30 1502 C 141.556 -3.34929 1.32267 0
M  V30 1503 C 141.409 -3.47161 2.86006 0
M  V30 1504 C 142.728 -4.29863 0.943717 0
M  V30 1505 H 139.847 -0.675591 0.294526 0
M  V30 1506 H 142.489 -1.34925 1.33773 0
M  V30 1507 H 140.639 -3.78611 0.870974 0
M  V30 1508 H 142.311 -3.12302 3.39507 0
M  V30 1509 H 140.554 -2.88539 3.23925 0
M  V30 1510 H 141.225 -4.51777 3.17177 0
M  V30 1511 H 143.701 -3.9417 1.33302 0
M  V30 1512 H 142.577 -5.32494 1.33198 0
M  V30 1513 H 142.838 -4.41846 -0.149796 0
M  V30 1514 N 141.898 -0.863906 -1.31812 0
M  V30 1515 C 143.126 -0.486111 -2.01108 0
M  V30 1516 C 143.541 0.919755 -1.64882 0
M  V30 1517 O 142.898 1.60162 -0.874893 0
M  V30 1518 C 142.949 -0.626435 -3.56031 0
M  V30 1519 O 142.67 -1.97693 -3.90959 0
M  V30 1520 C 144.171 -0.248857 -4.42601 0
M  V30 1521 H 141.391 -0.190052 -0.643523 0
M  V30 1522 H 143.935 -1.1634 -1.68182 0
M  V30 1523 H 142.09 0.00322717 -3.874 0
M  V30 1524 H 142.504 -1.98034 -4.85678 0
M  V30 1525 H 143.978 -0.398016 -5.50563 0
M  V30 1526 H 144.455 0.811489 -4.31638 0
M  V30 1527 H 145.061 -0.853971 -4.16638 0
M  V30 1528 N 143.376 1.44774 -0.622745 0
M  V30 1529 C 144.625 2.01334 -0.121397 0
M  V30 1530 C 144.938 1.49505 1.26125 0
M  V30 1531 O 146.144 1.98139 1.85616 0
M  V30 1532 C 144.6 3.59516 -0.166298 0
M  V30 1533 C 144.208 4.20342 -1.54974 0
M  V30 1534 C 145.952 4.23582 0.279021 0
M  V30 1535 C 143.859 5.70721 -1.55021 0
M  V30 1536 H 142.789 0.752851 -0.0416172 0
M  V30 1537 H 145.44 1.66083 -0.780309 0
M  V30 1538 H 143.822 3.92027 0.559557 0
M  V30 1539 H 144.996 3.99381 -2.29851 0
M  V30 1540 H 143.311 3.68529 -1.93843 0
M  V30 1541 H 145.908 5.33868 0.298083 0
M  V30 1542 H 146.251 3.95327 1.30471 0
M  V30 1543 H 146.784 3.95843 -0.394063 0
M  V30 1544 H 143.523 6.03698 -2.55399 0
M  V30 1545 H 143.043 5.93829 -0.844245 0
M  V30 1546 H 144.722 6.34203 -1.28047 0
M  V30 1547 N 144.854 0.36279 1.53368 0
M  V30 1548 C 146.094 -0.227882 2.03126 0
M  V30 1549 C 146.458 -1.4622 1.24434 0
M  V30 1550 O 147.659 -2.12831 1.64184 0
M  V30 1551 C 145.93 -0.515427 3.53664 0
M  V30 1552 S 147.489 -1.08017 4.25297 0
M  V30 1553 H 144.307 -0.0665377 0.70788 0
M  V30 1554 H 146.909 0.50501 1.88865 0
M  V30 1555 H 145.613 0.390436 4.08539 0
M  V30 1556 H 145.144 -1.27747 3.72081 0
M  V30 1557 H 147.159 -2.36462 4.36234 0
M  V30 1558 N 146.332 -1.57332 0.0918853 0
M  V30 1559 C 147.242 -2.17368 -0.882505 0
M  V30 1560 C 148.258 -1.14226 -1.31257 0
M  V30 1561 O 149.434 -1.46582 -1.38115 0
M  V30 1562 C 146.499 -2.73962 -2.12476 0
M  V30 1563 C 145.56 -3.92048 -1.7492 0
M  V30 1564 C 144.793 -4.45933 -2.93223 0
M  V30 1565 O 145.016 -3.98764 -4.07852 0
M  V30 1566 O 143.95 -5.36999 -2.71875 0
M  V30 1567 H 147.776 -3.01031 -0.40172 0
M  V30 1568 H 145.361 -1.48813 -0.132291 0
M  V30 1569 H 147.243 -3.10147 -2.85283 0
M  V30 1570 H 145.918 -1.93347 -2.59613 0
M  V30 1571 H 144.825 -3.6068 -0.993025 0
M  V30 1572 H 146.158 -4.74017 -1.32548 0
M  V30 1573 N 147.81 0.181792 -1.56548 0
M  V30 1574 C 149.226 0.53316 -1.50431 0
M  V30 1575 C 149.426 1.85184 -0.794297 0
M  V30 1576 O 148.482 2.50058 -0.350318 0
M  V30 1577 C 149.795 0.575597 -2.9514 0
M  V30 1578 C 151.343 0.663519 -3.05886 0
M  V30 1579 C 151.818 0.736946 -4.52032 0
M  V30 1580 N 153.309 0.800118 -4.56237 0
M  V30 1581 C 154.044 0.877327 -5.66649 0
M  V30 1582 N 153.54 0.916016 -6.86718 0
M  V30 1583 N 155.333 0.915542 -5.54594 0
M  V30 1584 H 147.484 -0.683025 -2.01118 0
M  V30 1585 H 149.747 -0.244988 -0.915797 0
M  V30 1586 H 149.453 -0.324482 -3.502 0
M  V30 1587 H 149.327 1.42572 -3.49218 0
M  V30 1588 H 151.714 1.55403 -2.50867 0
M  V30 1589 H 151.795 -0.21307 -2.54911 0
M  V30 1590 H 151.439 -0.149262 -5.07681 0
M  V30 1591 H 151.369 1.62953 -5.00753 0
M  V30 1592 H 153.86 0.778926 -3.69785 0
M  V30 1593 H 154.173 0.975813 -7.66614 0
M  V30 1594 H 152.518 0.884469 -6.89349 0
M  V30 1595 H 155.709 0.882245 -4.59711 0
M  V30 1596 H 155.882 0.972253 -6.40665 0
M  V30 1597 N 149.288 1.51039 0.449983 0
M  V30 1598 C 150.198 1.74261 1.57067 0
M  V30 1599 C 151.214 0.626363 1.62335 0
M  V30 1600 O 152.39 0.907162 1.79812 0
M  V30 1601 C 149.455 1.85114 2.93144 0
M  V30 1602 C 148.516 3.0893 2.98095 0
M  V30 1603 C 147.749 3.19256 4.27681 0
M  V30 1604 O 147.972 2.35835 5.19363 0
M  V30 1605 O 146.906 4.12144 4.38658 0
M  V30 1606 H 150.732 2.69303 1.40391 0
M  V30 1607 H 148.317 1.35389 0.631688 0
M  V30 1608 H 150.199 1.94311 3.73926 0
M  V30 1609 H 148.874 0.932588 3.09975 0
M  V30 1610 H 147.781 3.0522 2.16314 0
M  V30 1611 H 149.114 4.00433 2.86206 0
M  V30 1612 N 150.766 -0.704594 1.40972 0
M  V30 1613 C 152.043 -1.45847 1.30338 0
M  V30 1614 C 152.423 -2.10973 -0.0732344 0
M  V30 1615 O 151.771 -2.00997 -1.08685 0
M  V30 1616 C 151.981 -2.48525 2.45023 0
M  V30 1617 C 153.329 -3.1404 2.8577 0
M  V30 1618 O 154.353 -2.58848 2.44696 0
M  V30 1619 O 153.212 -4.13981 3.56766 0
M  V30 1620 H 150.306 -0.649092 0.512454 0
M  V30 1621 H 152.852 -0.735836 1.52917 0
M  V30 1622 H 151.624 -1.98994 3.36923 0
M  V30 1623 H 151.247 -3.2831 2.24272 0
M  V30 1624 N 152.244 -1.26651 -0.937939 0
M  V30 1625 C 153.655 -1.1125 -1.49934 0
M  V30 1626 C 154.006 0.306077 -1.93798 0
M  V30 1627 O 153.131 1.19792 -1.80219 0
M  V30 1628 C 153.726 -2.01339 -2.72485 0
M  V30 1629 C 152.285 -1.90074 -3.24883 0
M  V30 1630 C 151.432 -1.94498 -1.97651 0
M  V30 1631 H 154.383 -1.39693 -0.753091 0
M  V30 1632 H 154.404 -1.56319 -3.46907 0
M  V30 1633 H 153.916 -3.04577 -2.40529 0
M  V30 1634 H 152.017 -0.897827 -3.61621 0
M  V30 1635 H 152.13 -2.75778 -3.9177 0
M  V30 1636 H 150.494 -1.38591 -2.13693 0
M  V30 1637 H 151.277 -2.99372 -1.68022 0
M  V30 1638 N 153.722 1.14298 -1.08507 0
M  V30 1639 C 155.138 1.37347 -0.812901 0
M  V30 1640 C 155.338 1.93052 0.577325 0
M  V30 1641 O 154.394 2.14389 1.33393 0
M  V30 1642 C 155.707 2.33359 -1.89642 0
M  V30 1643 C 157.255 2.46996 -1.92255 0
M  V30 1644 C 157.73 3.46309 -2.99724 0
M  V30 1645 N 159.221 3.53853 -2.98902 0
M  V30 1646 C 159.956 4.3055 -3.787 0
M  V30 1647 N 159.452 5.10482 -4.6838 0
M  V30 1648 N 161.245 4.25757 -3.66998 0
M  V30 1649 H 153.396 0.764867 -1.9815 0
M  V30 1650 H 155.659 0.398966 -0.859959 0
M  V30 1651 H 155.365 1.99565 -2.89597 0
M  V30 1652 H 155.239 3.33274 -1.76659 0
M  V30 1653 H 157.626 2.80081 -0.929445 0
M  V30 1654 H 157.707 1.47039 -2.09316 0
M  V30 1655 H 157.351 3.13957 -3.99241 0
M  V30 1656 H 157.281 4.46049 -2.79907 0
M  V30 1657 H 159.772 2.96812 -2.33904 0
M  V30 1658 H 160.085 5.66284 -5.25873 0
M  V30 1659 H 158.43 5.09747 -4.72422 0
M  V30 1660 H 161.621 3.62383 -2.96304 0
M  V30 1661 H 161.794 4.85279 -4.29427 0
M  V30 1662 N 155.201 0.870884 1.31352 0
M  V30 1663 C 156.478 0.402907 1.91405 0
M  V30 1664 C 156.858 -1.11512 1.79244 0
M  V30 1665 O 156.206 -1.94411 1.2007 0
M  V30 1666 C 156.416 0.885301 3.37585 0
M  V30 1667 C 157.764 0.911971 4.14691 0
M  V30 1668 O 158.788 0.831016 3.46371 0
M  V30 1669 O 157.647 1.02927 5.3672 0
M  V30 1670 H 154.741 0.120698 0.818145 0
M  V30 1671 H 157.287 0.958857 1.40014 0
M  V30 1672 H 156.059 1.92889 3.40455 0
M  V30 1673 H 155.682 0.307714 3.96407 0
M  V30 1674 N 156.679 -1.44442 0.630414 0
M  V30 1675 C 157.642 -2.29107 -0.0652523 0
M  V30 1676 C 158.642 -1.41002 -0.772995 0
M  V30 1677 O 159.832 -1.62881 -0.617692 0
M  V30 1678 C 156.964 -3.22564 -1.10296 0
M  V30 1679 H 158.157 -2.92103 0.679401 0
M  V30 1680 H 155.71 -1.51343 0.390517 0
M  V30 1681 H 156.445 -2.64416 -1.87762 0
M  V30 1682 H 156.23 -3.87491 -0.59941 0
M  V30 1683 H 157.72 -3.86167 -1.5895 0
M  V30 1684 N 158.157 -0.370918 -1.53173 0
M  V30 1685 C 159.404 0.217102 -2.01333 0
M  V30 1686 C 159.732 1.48338 -1.25802 0
M  V30 1687 O 158.987 1.92698 -0.34146 0
M  V30 1688 C 159.286 0.549696 -3.53147 0
M  V30 1689 C 158.952 -0.622872 -4.46577 0
M  V30 1690 C 157.614 -0.944595 -4.71838 0
M  V30 1691 C 159.966 -1.40819 -5.01816 0
M  V30 1692 C 157.294 -2.05351 -5.49589 0
M  V30 1693 C 159.646 -2.50757 -5.80778 0
M  V30 1694 C 158.31 -2.83458 -6.04324 0
M  V30 1695 H 157.58 0.0794431 -0.736729 0
M  V30 1696 H 160.227 -0.504481 -1.84736 0
M  V30 1697 H 158.532 1.35237 -3.6772 0
M  V30 1698 H 160.229 1.017 -3.87889 0
M  V30 1699 H 156.819 -0.36209 -4.27068 0
M  V30 1700 H 161.003 -1.17289 -4.82242 0
M  V30 1701 H 156.259 -2.3108 -5.6605 0
M  V30 1702 H 160.433 -3.12022 -6.22588 0
M  V30 1703 H 158.06 -3.69508 -6.64355 0
M  V30 1704 N 159.635 1.57281 -0.100228 0
M  V30 1705 C 160.881 1.94826 0.563101 0
M  V30 1706 C 161.214 0.982475 1.67514 0
M  V30 1707 O 160.489 0.0164069 1.94493 0
M  V30 1708 C 160.772 3.42453 1.11346 0
M  V30 1709 C 160.625 4.498 0.00612081 0
M  V30 1710 C 161.944 3.91506 2.01024 0
M  V30 1711 H 159.063 0.708428 0.203221 0
M  V30 1712 H 161.705 1.8922 -0.171979 0
M  V30 1713 H 159.855 3.47361 1.7399 0
M  V30 1714 H 161.527 4.57 -0.628357 0
M  V30 1715 H 159.77 4.28756 -0.659581 0
M  V30 1716 H 160.441 5.50306 0.432109 0
M  V30 1717 H 162.917 3.88784 1.48278 0
M  V30 1718 H 161.793 4.95358 2.36457 0
M  V30 1719 H 162.054 3.31099 2.92961 0
M  V30 1720 N 161.113 -0.173488 1.56642 0
M  V30 1721 C 162.338 -0.910149 1.86363 0
M  V30 1722 C 162.763 -1.75132 0.686318 0
M  V30 1723 O 162.121 -1.77595 -0.364643 0
M  V30 1724 C 162.169 -1.76447 3.14482 0
M  V30 1725 O 161.273 -2.86584 2.96553 0
M  V30 1726 H 160.614 -0.255086 0.613047 0
M  V30 1727 H 163.144 -0.172283 2.03873 0
M  V30 1728 H 163.154 -2.16483 3.45831 0
M  V30 1729 H 161.829 -1.14658 3.99783 0
M  V30 1730 H 160.406 -2.50146 2.76553 0
M  V30 1731 N 162.591 -1.51276 -0.441967 0
M  V30 1732 C 163.539 -1.72823 -1.55676 0
M  V30 1733 C 164.533 -0.59445 -1.58627 0
M  V30 1734 O 165.739 -0.775715 -1.62427 0
M  V30 1735 H 162.114 -0.545983 -0.517113 0
M  V30 1736 H 164.085 -2.6628 -1.34675 0
M  V30 1737 C 162.834 -1.86619 -2.93375 0
M  V30 1738 H 162.157 -2.73264 -2.91834 0
M  V30 1739 H 163.597 -2.05709 -3.70756 0
M  V30 1740 C 162.056 -0.624842 -3.31055 0
M  V30 1741 O 162.586 0.222636 -4.01083 0
M  V30 1742 N 160.792 -0.470288 -2.86769 0
M  V30 1743 H 160.339 -1.161 -2.29953 0
M  V30 1744 H 160.297 0.359051 -3.12343 0
M  V30 1745 N 164.069 0.697108 -1.41344 0
M  V30 1746 C 165.017 1.83237 -1.43272 0
M  V30 1747 C 166.011 1.66522 -0.310947 0
M  V30 1748 O 167.217 1.73402 -0.482899 0
M  V30 1749 H 163.592 0.603802 -0.448249 0
M  V30 1750 H 165.563 1.78727 -2.38954 0
M  V30 1751 C 164.312 3.21245 -1.33029 0
M  V30 1752 H 163.635 3.34723 -2.18633 0
M  V30 1753 H 165.075 4.00763 -1.38439 0
M  V30 1754 C 163.534 3.36873 -0.0424635 0
M  V30 1755 O 164.064 3.91177 0.913421 0
M  V30 1756 N 162.27 2.90581 0.0331145 0
M  V30 1757 H 161.817 2.46577 -0.745506 0
M  V30 1758 H 161.775 3.01416 0.894199 0
M  V30 1759 N 165.547 1.27147 0.931209 0
M  V30 1760 C 166.777 1.15914 1.71019 0
M  V30 1761 C 167.185 -0.287112 1.87009 0
M  V30 1762 O 166.528 -1.20761 1.38429 0
M  V30 1763 C 166.59 1.76647 3.13107 0
M  V30 1764 C 166.254 3.25807 3.20467 0
M  V30 1765 C 167.251 4.22489 3.02983 0
M  V30 1766 C 164.936 3.66452 3.43538 0
M  V30 1767 C 166.93 5.57794 3.08454 0
M  V30 1768 C 164.617 5.01888 3.48643 0
M  V30 1769 C 165.615 5.97369 3.31119 0
M  V30 1770 O 165.303 7.30337 3.35952 0
M  V30 1771 H 165.035 0.404062 0.54195 0
M  V30 1772 H 167.589 1.68457 1.17521 0
M  V30 1773 H 165.819 1.18578 3.68071 0
M  V30 1774 H 167.508 1.60179 3.72958 0
M  V30 1775 H 168.274 3.92425 2.85004 0
M  V30 1776 H 164.153 2.92611 3.5623 0
M  V30 1777 H 167.697 6.32298 2.94694 0
M  V30 1778 H 163.594 5.31609 3.66145 0
M  V30 1779 H 164.362 7.38739 3.5243 0
M  V30 1780 N 167.025 -1.13721 1.09112 0
M  V30 1781 C 168.302 -1.81155 0.737706 0
M  V30 1782 C 168.682 -1.96253 -0.777683 0
M  V30 1783 O 168.03 -1.52807 -1.69889 0
M  V30 1784 C 168.24 -3.16392 1.47299 0
M  V30 1785 C 169.588 -3.91787 1.63671 0
M  V30 1786 O 170.612 -3.26005 1.43524 0
M  V30 1787 O 169.471 -5.0977 1.96969 0
M  V30 1788 H 166.565 -0.783518 0.26463 0
M  V30 1789 H 169.111 -1.20676 1.19312 0
M  V30 1790 H 167.883 -3.0061 2.50498 0
M  V30 1791 H 167.506 -3.8457 1.00953 0
M  V30 1792 N 168.503 -0.877838 -1.30888 0
M  V30 1793 C 169.728 -0.506629 -2.01117 0
M  V30 1794 C 170.153 0.895564 -1.65412 0
M  V30 1795 O 169.511 1.5923 -0.866922 0
M  V30 1796 C 169.559 -0.680223 -3.54126 0
M  V30 1797 O 168.663 0.277033 -4.11468 0
M  V30 1798 H 168.004 -0.200518 -0.633 0
M  V30 1799 H 170.534 -1.18342 -1.66902 0
M  V30 1800 H 170.544 -0.5765 -4.03907 0
M  V30 1801 H 169.219 -1.70261 -3.79452 0
M  V30 1802 H 167.796 0.127606 -3.72682 0
M  V30 1803 N 169.982 1.44106 -0.638065 0
M  V30 1804 C 170.912 2.33448 0.0494287 0
M  V30 1805 C 171.893 1.48606 0.827672 0
M  V30 1806 O 173.078 1.77308 0.792173 0
M  V30 1807 C 170.208 3.31771 1.02691 0
M  V30 1808 C 169.162 4.26485 0.359823 0
M  V30 1809 C 168.488 5.14729 1.44769 0
M  V30 1810 C 169.788 5.17056 -0.738296 0
M  V30 1811 H 171.482 2.91183 -0.696636 0
M  V30 1812 H 169.028 1.40014 -0.336456 0
M  V30 1813 H 170.981 3.93161 1.51666 0
M  V30 1814 H 169.705 2.7226 1.80395 0
M  V30 1815 H 168.364 3.66437 -0.10934 0
M  V30 1816 H 168.012 4.51566 2.21578 0
M  V30 1817 H 167.712 5.78913 1.00668 0
M  V30 1818 H 169.236 5.78991 1.93911 0
M  V30 1819 H 170.65 5.72342 -0.331354 0
M  V30 1820 H 169.047 5.89879 -1.10286 0
M  V30 1821 H 170.117 4.57652 -1.60258 0
M  V30 1822 N 171.46 0.379036 1.52974 0
M  V30 1823 C 172.737 -0.263479 1.93817 0
M  V30 1824 C 173.117 -1.65244 1.31368 0
M  V30 1825 O 172.465 -2.23448 0.477856 0
M  V30 1826 C 172.675 -0.300166 3.47707 0
M  V30 1827 C 174.023 -0.534061 4.21228 0
M  V30 1828 O 175.047 -0.38081 3.54159 0
M  V30 1829 O 173.906 -0.833501 5.40106 0
M  V30 1830 H 171 -0.161149 0.811147 0
M  V30 1831 H 173.546 0.432798 1.64088 0
M  V30 1832 H 172.318 0.673138 3.85467 0
M  V30 1833 H 171.941 -1.04179 3.83709 0
M  V30 1834 N 172.938 -1.57226 0.108567 0
M  V30 1835 C 173.901 -2.13602 -0.831082 0
M  V30 1836 C 174.901 -1.06841 -1.20173 0
M  V30 1837 O 176.091 -1.32666 -1.12895 0
M  V30 1838 C 173.223 -2.66769 -2.12243 0
M  V30 1839 H 174.416 -2.97951 -0.341317 0
M  V30 1840 H 171.969 -1.55667 -0.14057 0
M  V30 1841 H 172.704 -1.85977 -2.65675 0
M  V30 1842 H 172.489 -3.44839 -1.86625 0
M  V30 1843 H 173.979 -3.10332 -2.79435 0
M  V30 1844 N 174.416 0.165178 -1.56732 0
M  V30 1845 C 175.346 1.20651 -1.99914 0
M  V30 1846 C 176.327 1.45827 -0.875705 0
M  V30 1847 O 177.512 1.57057 -1.14223 0
M  V30 1848 C 174.642 2.54401 -2.36427 0
M  V30 1849 C 173.596 2.43782 -3.51787 0
M  V30 1850 C 172.922 3.82078 -3.7406 0
M  V30 1851 C 174.222 1.93732 -4.85041 0
M  V30 1852 H 175.916 0.847534 -2.87154 0
M  V30 1853 H 173.462 0.40625 -1.38151 0
M  V30 1854 H 175.415 3.27458 -2.65234 0
M  V30 1855 H 174.139 2.92098 -1.46103 0
M  V30 1856 H 172.798 1.73178 -3.23117 0
M  V30 1857 H 172.446 4.17179 -2.81017 0
M  V30 1858 H 172.146 3.7584 -4.51684 0
M  V30 1859 H 173.67 4.56712 -4.05274 0
M  V30 1860 H 175.084 2.56569 -5.12684 0
M  V30 1861 H 173.481 1.98428 -5.66345 0
M  V30 1862 H 174.551 0.891962 -4.76626 0
M  V30 1863 N 175.894 1.51508 0.433938 0
M  V30 1864 C 177.305 1.56784 1.01369 0
M  V30 1865 C 177.656 0.393349 1.92217 0
M  V30 1866 O 176.781 -0.489441 2.10792 0
M  V30 1867 C 177.376 2.84144 1.8452 0
M  V30 1868 C 175.935 2.9198 2.37539 0
M  V30 1869 C 175.082 2.51482 1.16843 0
M  V30 1870 H 178.033 1.57236 0.215081 0
M  V30 1871 H 178.054 2.68098 2.70007 0
M  V30 1872 H 177.566 3.69607 1.18373 0
M  V30 1873 H 175.667 2.10955 3.0713 0
M  V30 1874 H 175.78 3.95704 2.70103 0
M  V30 1875 H 174.144 2.04758 1.51481 0
M  V30 1876 H 174.927 3.39293 0.523015 0
M  V30 1877 N 177.372 -0.689602 1.41712 0
M  V30 1878 C 178.335 -1.78521 1.43746 0
M  V30 1879 C 179.335 -1.57436 0.327191 0
M  V30 1880 O 180.525 -1.64 0.587348 0
M  V30 1881 C 177.657 -3.16971 1.25467 0
M  V30 1882 H 178.85 -1.78108 2.41283 0
M  V30 1883 H 176.403 -0.89781 1.27942 0
M  V30 1884 H 177.138 -3.23019 0.287948 0
M  V30 1885 H 176.923 -3.33678 2.05917 0
M  V30 1886 H 178.413 -3.96935 1.2974 0
M  V30 1887 N 178.85 -1.27639 -0.924453 0
M  V30 1888 C 180.098 -1.13941 -1.66918 0
M  V30 1889 C 180.419 0.314589 -1.92446 0
M  V30 1890 O 179.689 1.21964 -1.53303 0
M  V30 1891 H 178.269 -0.418678 -0.618642 0
M  V30 1892 H 180.931 -1.60213 -1.10985 0
M  V30 1893 H 180.027 -1.67094 -2.63602 0
M  V30 1894 N 180.328 1.1314 -1.09713 0
M  V30 1895 C 181.553 1.88862 -0.857081 0
M  V30 1896 C 181.978 1.78729 0.586304 0
M  V30 1897 O 181.336 1.13692 1.41222 0
M  V30 1898 C 181.384 3.36325 -1.30069 0
M  V30 1899 O 180.488 4.09815 -0.461007 0
M  V30 1900 H 179.829 0.587108 -0.310162 0
M  V30 1901 H 182.359 1.43129 -1.46203 0
M  V30 1902 H 182.369 3.87157 -1.28738 0
M  V30 1903 H 181.044 3.43017 -2.35185 0
M  V30 1904 H 179.621 3.68986 -0.538888 0
M  V30 1905 N 181.806 0.884767 1.30421 0
M  V30 1906 C 183.055 0.499164 1.95426 0
M  V30 1907 C 183.368 -0.95645 1.70621 0
M  V30 1908 O 184.574 -1.44889 2.29607 0
M  V30 1909 C 183.03 0.84177 3.49917 0
M  V30 1910 C 182.638 2.31514 3.83543 0
M  V30 1911 C 184.382 0.525355 4.21237 0
M  V30 1912 C 182.289 2.59939 5.31212 0
M  V30 1913 H 181.219 0.182944 0.73147 0
M  V30 1914 H 183.87 1.07971 1.48373 0
M  V30 1915 H 182.252 0.190311 3.95542 0
M  V30 1916 H 183.426 3.0109 3.48829 0
M  V30 1917 H 181.741 2.59907 3.25326 0
M  V30 1918 H 184.338 0.714762 5.29901 0
M  V30 1919 H 184.681 -0.535222 4.12845 0
M  V30 1920 H 185.214 1.134 3.81294 0
M  V30 1921 H 181.953 3.64736 5.44654 0
M  V30 1922 H 181.473 1.94972 5.67227 0
M  V30 1923 H 183.152 2.45429 5.98643 0
M  V30 1924 N 183.284 -1.43765 0.645699 0
M  V30 1925 C 184.53 -2.02197 0.156271 0
M  V30 1926 C 184.863 -1.50776 -1.22393 0
M  V30 1927 O 184.138 -0.697771 -1.81553 0
M  V30 1928 C 184.421 -3.59749 0.158872 0
M  V30 1929 C 184.274 -4.21419 1.57245 0
M  V30 1930 C 185.593 -4.37149 -0.50879 0
M  V30 1931 H 182.712 -0.734694 0.0582602 0
M  V30 1932 H 185.354 -1.71157 0.824951 0
M  V30 1933 H 183.504 -3.86325 -0.410525 0
M  V30 1934 H 185.176 -4.059 2.19186 0
M  V30 1935 H 183.419 -3.78356 2.122 0
M  V30 1936 H 184.09 -5.30482 1.52619 0
M  V30 1937 H 186.566 -4.16093 -0.024412 0
M  V30 1938 H 185.442 -5.4683 -0.476213 0
M  V30 1939 H 185.703 -4.12839 -1.58165 0
M  V30 1940 N 184.763 -0.387143 -1.52771 0
M  V30 1941 C 186.011 0.195349 -2.01154 0
M  V30 1942 C 186.332 1.475 -1.27549 0
M  V30 1943 O 185.602 1.91878 -0.394924 0
M  V30 1944 H 184.182 0.075178 -0.743207 0
M  V30 1945 H 186.844 -0.518337 -1.87881 0
M  V30 1946 H 185.94 0.407096 -3.09434 0
M  V30 1947 N 186.241 1.57166 -0.116904 0
M  V30 1948 C 187.469 1.99473 0.549383 0
M  V30 1949 C 187.884 0.996541 1.60357 0
M  V30 1950 O 187.241 -0.0108731 1.82497 0
M  V30 1951 C 187.292 3.41788 1.17741 0
M  V30 1952 O 187.013 4.37788 0.165362 0
M  V30 1953 C 188.514 3.99216 1.92722 0
M  V30 1954 H 185.734 0.655009 0.145616 0
M  V30 1955 H 188.278 2.03494 -0.202625 0
M  V30 1956 H 186.433 3.38713 1.88021 0
M  V30 1957 H 186.847 5.20806 0.621403 0
M  V30 1958 H 188.321 5.00882 2.31995 0
M  V30 1959 H 188.798 3.3824 2.80161 0
M  V30 1960 H 189.404 4.0583 1.27209 0
M  V30 1961 N 187.719 -0.156864 1.56817 0
M  V30 1962 C 188.944 -0.890331 1.87318 0
M  V30 1963 C 189.369 -1.74394 0.704855 0
M  V30 1964 O 188.727 -1.77972 -0.345786 0
M  V30 1965 C 188.775 -1.73102 3.16336 0
M  V30 1966 O 187.879 -2.83422 2.99576 0
M  V30 1967 H 187.22 -0.24857 0.615718 0
M  V30 1968 H 189.75 -0.150649 2.04045 0
M  V30 1969 H 189.76 -2.12803 3.48107 0
M  V30 1970 H 188.435 -1.10412 4.00976 0
M  V30 1971 H 187.012 -2.47199 2.7919 0
M  V30 1972 N 189.197 -1.51736 -0.425897 0
M  V30 1973 C 190.422 -1.69082 -1.20108 0
M  V30 1974 C 190.847 -0.392398 -1.83962 0
M  V30 1975 O 190.205 0.64858 -1.69302 0
M  V30 1976 C 190.253 -2.81604 -2.25237 0
M  V30 1977 O 189.357 -2.46004 -3.30992 0
M  V30 1978 H 188.698 -0.563408 -0.35138 0
M  V30 1979 H 191.228 -1.98358 -0.501512 0
M  V30 1980 H 191.238 -3.06025 -2.69838 0
M  V30 1981 H 189.913 -3.75817 -1.78142 0
M  V30 1982 H 188.49 -2.32195 -2.91787 0
M  V30 1983 N 190.675 0.682077 -1.42076 0
M  V30 1984 C 191.605 1.80796 -1.47767 0
M  V30 1985 C 192.586 1.6677 -0.334954 0
M  V30 1986 O 193.771 1.863 -0.548264 0
M  V30 1987 C 190.901 3.19038 -1.37229 0
M  V30 1988 C 189.855 3.47789 -2.49453 0
M  V30 1989 C 189.181 4.8553 -2.23975 0
M  V30 1990 C 190.481 3.45411 -3.91776 0
M  V30 1991 H 192.175 1.7629 -2.41997 0
M  V30 1992 H 189.721 0.846721 -1.16476 0
M  V30 1993 H 191.674 3.97528 -1.39821 0
M  V30 1994 H 190.398 3.24204 -0.394907 0
M  V30 1995 H 189.057 2.71657 -2.46166 0
M  V30 1996 H 188.705 4.87337 -1.24547 0
M  V30 1997 H 188.405 5.0573 -2.99184 0
M  V30 1998 H 189.929 5.66312 -2.28304 0
M  V30 1999 H 191.343 4.13882 -3.96705 0
M  V30 2000 H 189.74 3.77145 -4.66778 0
M  V30 2001 H 190.81 2.44122 -4.18966 0
M  V30 2002 N 192.153 1.28127 0.917671 0
M  V30 2003 C 193.569 1.05749 1.19538 0
M  V30 2004 C 193.769 -0.202633 2.00479 0
M  V30 2005 O 192.825 -0.905382 2.3571 0
M  V30 2006 C 194.138 2.30273 1.93378 0
M  V30 2007 C 195.686 2.35412 2.06277 0
M  V30 2008 C 196.161 3.59692 2.83524 0
M  V30 2009 N 197.652 3.60309 2.91087 0
M  V30 2010 C 198.387 4.53147 3.51348 0
M  V30 2011 N 197.883 5.563 4.12919 0
M  V30 2012 N 199.676 4.40751 3.48849 0
M  V30 2013 H 191.827 2.09024 0.377184 0
M  V30 2014 H 194.09 0.919798 0.22951 0
M  V30 2015 H 193.796 3.22055 1.41328 0
M  V30 2016 H 193.67 2.36378 2.93947 0
M  V30 2017 H 196.057 1.4413 2.57508 0
M  V30 2018 H 196.138 2.33304 1.04895 0
M  V30 2019 H 195.782 4.51316 2.32973 0
M  V30 2020 H 195.712 3.59054 3.85211 0
M  V30 2021 H 198.203 2.85714 2.47338 0
M  V30 2022 H 198.516 6.2329 4.56869 0
M  V30 2023 H 196.861 5.60131 4.11435 0
M  V30 2024 H 200.052 3.59367 2.99955 0
M  V30 2025 H 200.225 5.13291 3.9552 0
M  V30 2026 N 193.631 -1.12557 1.10312 0
M  V30 2027 C 195.047 -1.36036 0.834649 0
M  V30 2028 C 195.247 -1.93946 -0.546539 0
M  V30 2029 O 194.303 -2.16484 -1.29966 0
M  V30 2030 C 195.616 -2.30312 1.9333 0
M  V30 2031 C 197.164 -2.43906 1.9616 0
M  V30 2032 C 197.639 -3.41496 3.05195 0
M  V30 2033 N 199.13 -3.49053 3.04494 0
M  V30 2034 C 199.865 -4.24471 3.85502 0
M  V30 2035 N 199.361 -5.02966 4.76442 0
M  V30 2036 N 201.154 -4.19864 3.73725 0
M  V30 2037 H 193.305 -0.733246 1.99342 0
M  V30 2038 H 195.568 -0.385234 0.866198 0
M  V30 2039 H 195.274 -1.94933 2.92735 0
M  V30 2040 H 195.148 -3.30421 1.81939 0
M  V30 2041 H 197.535 -2.78567 0.973886 0
M  V30 2042 H 197.616 -1.4369 2.11629 0
M  V30 2043 H 197.26 -3.07565 4.04186 0
M  V30 2044 H 197.19 -4.41539 2.86968 0
M  V30 2045 H 199.681 -2.93053 2.38596 0
M  V30 2046 H 199.994 -5.57846 5.34815 0
M  V30 2047 H 198.339 -5.02167 4.80472 0
M  V30 2048 H 201.53 -3.57623 3.02032 0
M  V30 2049 H 201.703 -4.78386 4.37093 0
M  V30 2050 N 195.109 -0.891671 -1.2995 0
M  V30 2051 C 196.041 -0.320695 -2.26945 0
M  V30 2052 C 197.054 0.528497 -1.53983 0
M  V30 2053 O 198.243 0.346959 -1.75096 0
M  V30 2054 C 195.343 0.562066 -3.34207 0
M  V30 2055 C 194.516 -0.259576 -4.36629 0
M  V30 2056 C 193.575 0.554739 -5.23268 0
M  V30 2057 O 192.601 -0.0249311 -5.69195 0
M  V30 2058 N 193.803 1.8625 -5.4981 0
M  V30 2059 H 196.568 -1.15432 -2.76578 0
M  V30 2060 H 194.129 -0.755336 -1.432 0
M  V30 2061 H 196.121 1.11304 -3.89093 0
M  V30 2062 H 194.691 1.29637 -2.84452 0
M  V30 2063 H 193.911 -0.991986 -3.81514 0
M  V30 2064 H 195.199 -0.822564 -5.02107 0
M  V30 2065 H 194.597 2.35628 -5.14292 0
M  V30 2066 H 193.154 2.36078 -6.07545 0
M  V30 2067 N 196.587 1.43421 -0.653314 0
M  V30 2068 C 197.827 2.03689 -0.170346 0
M  V30 2069 C 198.191 1.50427 1.19314 0
M  V30 2070 O 199.392 2.0234 1.76952 0
M  V30 2071 C 197.663 3.56946 -0.180183 0
M  V30 2072 S 199.222 4.38171 0.234925 0
M  V30 2073 H 196.04 0.707345 -0.0719976 0
M  V30 2074 H 198.642 1.75486 -0.86167 0
M  V30 2075 H 197.346 3.93212 -1.17526 0
M  V30 2076 H 196.877 3.89791 0.531675 0
M  V30 2077 H 198.892 4.73808 1.47378 0
M  V30 2078 N 198.065 0.39524 1.52563 0
M  V30 2079 C 198.997 -0.472201 2.24283 0
M  V30 2080 C 200.01 -1.02178 1.26742 0
M  V30 2081 O 201.199 -0.923097 1.52778 0
M  V30 2082 C 198.299 -1.66775 2.95024 0
M  V30 2083 C 197.472 -1.2445 4.19322 0
M  V30 2084 C 196.531 -2.30539 4.7301 0
M  V30 2085 O 195.557 -1.91702 5.35947 0
M  V30 2086 N 196.759 -3.6253 4.53379 0
M  V30 2087 H 199.524 0.142282 2.99362 0
M  V30 2088 H 197.085 0.2219 1.60372 0
M  V30 2089 H 199.077 -2.37283 3.27839 0
M  V30 2090 H 197.647 -2.18845 2.23217 0
M  V30 2091 H 196.867 -0.368069 3.92478 0
M  V30 2092 H 198.155 -0.938457 5.0007 0
M  V30 2093 H 197.553 -3.96841 4.03154 0
M  V30 2094 H 196.11 -4.29055 4.90668 0
M  V30 2095 N 199.544 -1.57102 0.125237 0
M  V30 2096 C 200.474 -2.18659 -0.819174 0
M  V30 2097 C 201.455 -1.12843 -1.27281 0
M  V30 2098 O 202.64 -1.41104 -1.33429 0
M  V30 2099 C 199.77 -2.79096 -2.06695 0
M  V30 2100 C 198.724 -3.90548 -1.75088 0
M  V30 2101 C 198.05 -4.37821 -3.06948 0
M  V30 2102 C 199.35 -5.12356 -1.01435 0
M  V30 2103 H 201.044 -2.9783 -0.306202 0
M  V30 2104 H 198.59 -1.4326 -0.145839 0
M  V30 2105 H 200.543 -3.2082 -2.73226 0
M  V30 2106 H 199.267 -1.97223 -2.60328 0
M  V30 2107 H 197.926 -3.49409 -1.10944 0
M  V30 2108 H 197.574 -3.52799 -3.58527 0
M  V30 2109 H 197.274 -5.12982 -2.86571 0
M  V30 2110 H 198.798 -4.822 -3.74587 0
M  V30 2111 H 200.212 -5.5106 -1.58132 0
M  V30 2112 H 198.609 -5.9314 -0.911319 0
M  V30 2113 H 199.679 -4.849 -0.00218681 0
M  V30 2114 N 201.022 0.148545 -1.56898 0
M  V30 2115 C 201.985 1.16736 -1.97244 0
M  V30 2116 C 202.985 1.35947 -0.858777 0
M  V30 2117 O 204.175 1.32966 -1.12542 0
M  V30 2118 C 201.307 2.52798 -2.28705 0
M  V30 2119 H 202.5 0.821279 -2.88435 0
M  V30 2120 H 200.053 0.391831 -1.51309 0
M  V30 2121 H 200.788 2.92381 -1.403 0
M  V30 2122 H 200.573 2.40216 -3.09901 0
M  V30 2123 H 202.063 3.26179 -2.60762 0
M  V30 2124 N 202.5 1.5196 0.417844 0
M  V30 2125 C 203.41 1.77554 1.53336 0
M  V30 2126 C 204.426 0.660655 1.6097 0
M  V30 2127 O 205.602 0.945099 1.77848 0
M  V30 2128 C 202.667 1.91291 2.89152 0
M  V30 2129 C 201.728 3.15183 2.91475 0
M  V30 2130 C 200.961 3.28256 4.20813 0
M  V30 2131 O 201.184 2.46798 5.14244 0
M  V30 2132 O 200.118 4.21356 4.29817 0
M  V30 2133 H 203.944 2.7222 1.34647 0
M  V30 2134 H 201.529 1.36698 0.602828 0
M  V30 2135 H 203.411 2.02199 3.69721 0
M  V30 2136 H 202.086 0.998129 3.07927 0
M  V30 2137 H 200.993 3.09739 2.09791 0
M  V30 2138 H 202.326 4.06414 2.77648 0
M  V30 2139 N 203.978 -0.674533 1.42435 0
M  V30 2140 C 205.394 -0.98769 1.25367 0
M  V30 2141 C 205.594 -2.00879 0.158044 0
M  V30 2142 O 204.65 -2.48075 -0.470633 0
M  V30 2143 C 205.963 -1.49224 2.6106 0
M  V30 2144 C 207.511 -1.61 2.68417 0
M  V30 2145 C 207.986 -2.14852 4.04478 0
M  V30 2146 N 209.477 -2.22185 4.06434 0
M  V30 2147 C 210.212 -2.64928 5.08528 0
M  V30 2148 N 209.708 -3.07121 6.21006 0
M  V30 2149 N 211.501 -2.64679 4.95885 0
M  V30 2150 H 203.652 0.00152503 2.124 0
M  V30 2151 H 205.915 -0.0618434 0.945981 0
M  V30 2152 H 205.621 -0.816453 3.42092 0
M  V30 2153 H 205.495 -2.47094 2.84999 0
M  V30 2154 H 207.882 -2.27686 1.87732 0
M  V30 2155 H 207.963 -0.616195 2.48267 0
M  V30 2156 H 207.607 -1.48775 4.85622 0
M  V30 2157 H 207.537 -3.15024 4.2198 0
M  V30 2158 H 210.028 -1.92435 3.25234 0
M  V30 2159 H 210.341 -3.38423 6.94759 0
M  V30 2160 H 208.686 -3.04978 6.24511 0
M  V30 2161 H 211.877 -2.31078 4.07088 0
M  V30 2162 H 212.05 -2.9767 5.75584 0
M  V30 2163 N 205.456 -1.28612 -0.910864 0
M  V30 2164 C 206.872 -1.06381 -1.18976 0
M  V30 2165 C 207.072 0.191998 -2.00583 0
M  V30 2166 O 206.128 0.892869 -2.36187 0
M  V30 2167 C 207.441 -2.31295 -1.92154 0
M  V30 2168 C 208.989 -2.36503 -2.05025 0
M  V30 2169 C 209.464 -3.61191 -2.81612 0
M  V30 2170 N 210.955 -3.61847 -2.89172 0
M  V30 2171 C 211.69 -4.55004 -3.4894 0
M  V30 2172 N 211.186 -5.58482 -4.09963 0
M  V30 2173 N 212.979 -4.42594 -3.46506 0
M  V30 2174 H 205.13 -2.09221 -0.366094 0
M  V30 2175 H 207.393 -0.921003 -0.224629 0
M  V30 2176 H 207.099 -3.228 -1.39618 0
M  V30 2177 H 206.973 -2.37934 -2.9269 0
M  V30 2178 H 209.36 -1.45494 -2.5674 0
M  V30 2179 H 209.441 -2.33857 -1.03657 0
M  V30 2180 H 209.085 -4.52545 -2.30576 0
M  V30 2181 H 209.015 -3.61092 -3.83302 0
M  V30 2182 H 211.506 -2.87022 -2.45819 0
M  V30 2183 H 211.819 -6.25704 -4.53557 0
M  V30 2184 H 210.164 -5.62305 -4.08459 0
M  V30 2185 H 213.355 -3.60953 -2.98045 0
M  V30 2186 H 213.528 -5.15381 -3.92793 0
M  V30 2187 N 206.934 1.1197 -1.10907 0
M  V30 2188 C 208.345 1.65114 -0.871446 0
M  V30 2189 C 208.696 1.86885 0.597353 0
M  V30 2190 O 207.821 1.59896 1.45816 0
M  V30 2191 C 208.416 2.99944 -1.5754 0
M  V30 2192 C 206.975 3.50018 -1.38435 0
M  V30 2193 C 206.122 2.24941 -1.62164 0
M  V30 2194 H 209.073 0.956851 -1.2661 0
M  V30 2195 H 209.094 3.66651 -1.01721 0
M  V30 2196 H 208.606 2.84067 -2.64438 0
M  V30 2197 H 206.707 3.71071 -0.337214 0
M  V30 2198 H 206.82 4.29165 -2.12965 0
M  V30 2199 H 205.184 2.3229 -1.04467 0
M  V30 2200 H 205.967 2.11612 -2.70324 0
M  V30 2201 N 208.412 0.89855 1.29475 0
M  V30 2202 C 209.689 0.443416 1.90508 0
M  V30 2203 C 210.069 -1.07685 1.81569 0
M  V30 2204 O 209.417 -1.9182 1.24166 0
M  V30 2205 C 209.627 0.956708 3.35631 0
M  V30 2206 C 210.975 0.999728 4.12663 0
M  V30 2207 O 211.999 0.904299 3.4453 0
M  V30 2208 O 210.858 1.14289 5.34416 0
M  V30 2209 H 207.952 0.138025 0.815401 0
M  V30 2210 H 210.498 0.98834 1.37949 0
M  V30 2211 H 209.27 2.00067 3.36287 0
M  V30 2212 H 208.893 0.391728 3.95666 0
M  V30 2213 N 209.89 -1.43072 0.660911 0
M  V30 2214 C 210.82 -2.33497 -0.0122829 0
M  V30 2215 C 211.801 -1.49903 -0.803925 0
M  V30 2216 O 212.986 -1.78546 -0.763864 0
M  V30 2217 C 210.116 -3.33363 -0.973994 0
M  V30 2218 C 209.07 -4.27003 -0.291928 0
M  V30 2219 C 208.396 -5.16967 -1.36562 0
M  V30 2220 C 209.696 -5.15816 0.820462 0
M  V30 2221 H 211.39 -2.90038 0.742873 0
M  V30 2222 H 208.936 -1.39461 0.358688 0
M  V30 2223 H 210.889 -3.95524 -1.45392 0
M  V30 2224 H 209.613 -2.75095 -1.7604 0
M  V30 2225 H 208.272 -3.66217 0.167623 0
M  V30 2226 H 207.92 -4.55034 -2.14366 0
M  V30 2227 H 207.62 -5.80441 -0.914454 0
M  V30 2228 H 209.144 -5.82003 -1.84675 0
M  V30 2229 H 210.558 -5.71742 0.422366 0
M  V30 2230 H 208.955 -5.8805 1.19656 0
M  V30 2231 H 210.025 -4.55045 1.67518 0
M  V30 2232 N 211.368 -0.403325 -1.52352 0
M  V30 2233 C 212.617 0.175668 -2.00934 0
M  V30 2234 C 212.93 1.46718 -1.29356 0
M  V30 2235 O 214.136 2.12708 -1.68724 0
M  V30 2236 C 212.592 0.363612 -3.58058 0
M  V30 2237 C 212.2 -0.915472 -4.38547 0
M  V30 2238 C 213.944 0.89821 -4.14888 0
M  V30 2239 C 211.851 -0.695035 -5.87302 0
M  V30 2240 H 210.781 0.0694234 -0.750797 0
M  V30 2241 H 213.432 -0.527879 -1.75743 0
M  V30 2242 H 211.814 1.12935 -3.79555 0
M  V30 2243 H 212.988 -1.68691 -4.28812 0
M  V30 2244 H 211.303 -1.37606 -3.93006 0
M  V30 2245 H 213.9 1.07907 -5.23699 0
M  V30 2246 H 214.243 1.87126 -3.71873 0
M  V30 2247 H 214.776 0.191681 -3.97338 0
M  V30 2248 H 211.515 -1.63948 -6.34666 0
M  V30 2249 H 211.035 0.0372116 -5.99788 0
M  V30 2250 H 212.714 -0.33497 -6.46132 0
M  V30 2251 N 212.846 1.57033 -0.133567 0
M  V30 2252 C 214.095 1.94861 0.520768 0
M  V30 2253 C 214.408 1.02012 1.66892 0
M  V30 2254 O 215.614 1.29365 2.38699 0
M  V30 2255 C 214.07 3.46362 0.977809 0
M  V30 2256 C 213.678 4.47773 -0.142674 0
M  V30 2257 C 215.422 3.93083 1.60269 0
M  V30 2258 C 213.329 5.90468 0.331883 0
M  V30 2259 H 212.259 0.727453 0.198315 0
M  V30 2260 H 214.91 1.82227 -0.215759 0
M  V30 2261 H 213.292 3.54282 1.7692 0
M  V30 2262 H 214.466 4.51536 -0.919317 0
M  V30 2263 H 212.781 4.10891 -0.675124 0
M  V30 2264 H 215.378 4.97121 1.96914 0
M  V30 2265 H 215.721 3.33876 2.48662 0
M  V30 2266 H 216.254 3.88025 0.876453 0
M  V30 2267 H 212.993 6.53463 -0.516341 0
M  V30 2268 H 212.513 5.90094 1.07469 0
M  V30 2269 H 214.192 6.42179 0.788332 0
M  V30 2270 N 214.325 -0.140222 1.56975 0
M  V30 2271 C 215.741 -0.493088 1.51792 0
M  V30 2272 C 215.941 -1.83013 0.843116 0
M  V30 2273 O 214.997 -2.49041 0.416493 0
M  V30 2274 C 216.31 -0.497144 2.96562 0
M  V30 2275 C 217.858 -0.582186 3.07538 0
M  V30 2276 C 218.333 -0.616838 4.53827 0
M  V30 2277 N 219.824 -0.678873 4.58198 0
M  V30 2278 C 220.559 -0.726782 5.68775 0
M  V30 2279 N 220.055 -0.733623 6.88905 0
M  V30 2280 N 221.848 -0.768179 5.56826 0
M  V30 2281 H 213.999 0.736108 1.99237 0
M  V30 2282 H 216.262 0.269182 0.90898 0
M  V30 2283 H 215.968 0.417217 3.49217 0
M  V30 2284 H 215.842 -1.33263 3.52875 0
M  V30 2285 H 218.229 -1.48697 2.54899 0
M  V30 2286 H 218.31 0.280581 2.54257 0
M  V30 2287 H 217.954 0.283812 5.07106 0
M  V30 2288 H 217.884 -1.49619 5.04898 0
M  V30 2289 H 220.375 -0.68061 3.7172 0
M  V30 2290 H 220.688 -0.772215 7.68932 0
M  V30 2291 H 219.033 -0.701389 6.91452 0
M  V30 2292 H 222.224 -0.760051 4.61888 0
M  V30 2293 H 222.397 -0.80205 6.43017 0
M  V30 2294 N 215.803 -1.52179 -0.40978 0
M  V30 2295 C 217.028 -1.70347 -1.18308 0
M  V30 2296 C 217.453 -0.411887 -1.83535 0
M  V30 2297 O 216.811 0.630587 -1.6998 0
M  V30 2298 C 216.859 -2.83977 -2.22238 0
M  V30 2299 O 215.963 -2.495 -3.28365 0
M  V30 2300 H 215.304 -0.567103 -0.345384 0
M  V30 2301 H 217.834 -1.98879 -0.480445 0
M  V30 2302 H 217.844 -3.0887 -2.66577 0
M  V30 2303 H 216.519 -3.77685 -1.74146 0
M  V30 2304 H 215.096 -2.35277 -2.89308 0
M  V30 2305 N 217.281 0.66697 -1.42791 0
M  V30 2306 C 218.211 1.79218 -1.49677 0
M  V30 2307 C 219.192 1.66405 -0.352623 0
M  V30 2308 O 220.377 1.85708 -0.567993 0
M  V30 2309 C 217.507 3.17565 -1.40605 0
M  V30 2310 C 216.461 3.45124 -2.53127 0
M  V30 2311 C 215.787 4.83127 -2.29112 0
M  V30 2312 C 217.087 3.41236 -3.95418 0
M  V30 2313 H 218.781 1.73713 -2.43853 0
M  V30 2314 H 216.327 0.83432 -1.17367 0
M  V30 2315 H 218.28 3.96022 -1.44029 0
M  V30 2316 H 217.004 3.23767 -0.429271 0
M  V30 2317 H 215.663 2.69031 -2.49034 0
M  V30 2318 H 215.311 4.85988 -1.29709 0
M  V30 2319 H 215.011 5.02528 -3.04531 0
M  V30 2320 H 216.535 5.63859 -2.34297 0
M  V30 2321 H 217.949 4.09651 -4.01073 0
M  V30 2322 H 216.346 3.72173 -4.70752 0
M  V30 2323 H 217.416 2.39665 -4.21532 0
M  V30 2324 N 218.759 1.29093 0.90403 0
M  V30 2325 C 220.175 1.07011 1.1841 0
M  V30 2326 C 220.375 -0.181358 2.00682 0
M  V30 2327 O 219.431 -0.880331 2.36657 0
M  V30 2328 C 220.744 2.32311 1.90924 0
M  V30 2329 C 222.292 2.37587 2.03768 0
M  V30 2330 C 222.767 3.62679 2.79693 0
M  V30 2331 N 224.258 3.63376 2.87249 0
M  V30 2332 C 224.993 4.56848 3.46522 0
M  V30 2333 N 224.489 5.60648 4.06996 0
M  V30 2334 N 226.282 4.44426 3.44154 0
M  V30 2335 H 218.433 2.09412 0.354993 0
M  V30 2336 H 220.696 0.922181 0.219742 0
M  V30 2337 H 220.402 3.23536 1.37905 0
M  V30 2338 H 220.276 2.39483 2.91424 0
M  V30 2339 H 222.663 1.46853 2.55965 0
M  V30 2340 H 222.744 2.34403 1.02415 0
M  V30 2341 H 222.388 4.53762 2.28173 0
M  V30 2342 H 222.318 3.63119 3.81381 0
M  V30 2343 H 224.809 2.88321 2.44293 0
M  V30 2344 H 225.122 6.28101 4.50232 0
M  V30 2345 H 223.467 5.64463 4.05471 0
M  V30 2346 H 226.658 3.62529 2.96126 0
M  V30 2347 H 226.831 5.17457 3.90054 0
M  V30 2348 N 220.237 -1.11381 1.11499 0
M  V30 2349 C 221.485 -1.8277 0.862524 0
M  V30 2350 C 221.806 -1.85097 -0.613534 0
M  V30 2351 O 221.076 -1.32198 -1.4457 0
M  V30 2352 H 219.656 -0.676823 0.316101 0
M  V30 2353 H 222.318 -1.34816 1.4075 0
M  V30 2354 H 221.414 -2.86614 1.23527 0
M  V30 2355 N 221.715 -0.905404 -1.28997 0
M  V30 2356 C 222.663 -0.377431 -2.29517 0
M  V30 2357 C 223.657 0.526461 -1.61012 0
M  V30 2358 O 224.863 0.40863 -1.753 0
M  V30 2359 H 221.238 -0.103437 -0.744852 0
M  V30 2360 H 223.209 -1.23848 -2.71485 0
M  V30 2361 C 221.958 0.374833 -3.45674 0
M  V30 2362 H 221.281 -0.311474 -3.98585 0
M  V30 2363 H 222.721 0.70903 -4.1803 0
M  V30 2364 C 221.18 1.57963 -2.97572 0
M  V30 2365 O 221.71 2.67886 -2.99333 0
M  V30 2366 N 219.916 1.42375 -2.53333 0
M  V30 2367 H 219.463 0.529466 -2.521 0
M  V30 2368 H 219.421 2.23117 -2.21509 0
M  V30 2369 N 223.193 1.4272 -0.668489 0
M  V30 2370 C 224.439 2.01923 -0.188419 0
M  V30 2371 C 224.772 1.52704 1.19979 0
M  V30 2372 O 224.047 0.726566 1.8042 0
M  V30 2373 C 224.33 3.59451 -0.216085 0
M  V30 2374 C 224.183 4.18864 -1.6393 0
M  V30 2375 C 225.502 4.37903 0.439179 0
M  V30 2376 H 222.621 0.733674 -0.0699412 0
M  V30 2377 H 225.263 1.69822 -0.852076 0
M  V30 2378 H 223.413 3.86929 0.349012 0
M  V30 2379 H 225.085 4.02362 -2.25616 0
M  V30 2380 H 223.328 3.74933 -2.18193 0
M  V30 2381 H 223.999 5.27987 -1.61039 0
M  V30 2382 H 226.475 4.16079 -0.0417878 0
M  V30 2383 H 225.351 5.47519 0.389157 0
M  V30 2384 H 225.612 4.15303 1.51577 0
M  V30 2385 N 224.671 0.411399 1.52136 0
M  V30 2386 C 225.919 -0.163322 2.01439 0
M  V30 2387 C 226.24 -1.45453 1.29879 0
M  V30 2388 O 225.51 -1.91225 0.4254 0
M  V30 2389 H 224.09 -0.0633447 0.744309 0
M  V30 2390 H 226.752 0.548161 1.87033 0
M  V30 2391 H 225.848 -0.357817 3.10042 0
M  V30 2392 N 226.149 -1.5696 0.141893 0
M  V30 2393 C 227.377 -2.00322 -0.517579 0
M  V30 2394 C 227.792 -1.02193 -1.58752 0
M  V30 2395 O 227.149 -0.0181619 -1.82491 0
M  V30 2396 C 227.2 -3.43618 -1.12289 0
M  V30 2397 O 226.921 -4.37995 -0.0956929 0
M  V30 2398 C 228.422 -4.02231 -1.86347 0
M  V30 2399 H 225.642 -0.657243 -0.135177 0
M  V30 2400 H 228.186 -2.03146 0.234973 0
M  V30 2401 H 226.341 -3.41662 -1.82609 0
M  V30 2402 H 226.755 -5.21729 -0.538469 0
M  V30 2403 H 228.229 -5.04509 -2.23997 0
M  V30 2404 H 228.706 -3.42655 -2.74744 0
M  V30 2405 H 229.312 -4.07802 -1.20737 0
M  V30 2406 N 227.627 0.131896 -1.57047 0
M  V30 2407 C 229.043 0.485031 -1.52051 0
M  V30 2408 C 229.243 1.82563 -0.85281 0
M  V30 2409 O 228.299 2.48817 -0.429694 0
M  V30 2410 C 229.612 0.481409 -2.96821 0
M  V30 2411 C 231.16 0.565868 -3.07842 0
M  V30 2412 C 231.635 0.592762 -4.54148 0
M  V30 2413 N 233.126 0.654564 -4.58552 0
M  V30 2414 C 233.861 0.696608 -5.69153 0
M  V30 2415 N 233.357 0.697078 -6.89284 0
M  V30 2416 N 235.15 0.738639 -5.57226 0
M  V30 2417 H 227.301 -0.746664 -1.98843 0
M  V30 2418 H 229.564 -0.273999 -0.90754 0
M  V30 2419 H 229.27 -0.435731 -3.4899 0
M  V30 2420 H 229.144 1.3139 -3.53577 0
M  V30 2421 H 231.531 1.47343 -2.55684 0
M  V30 2422 H 231.612 -0.29406 -2.54104 0
M  V30 2423 H 231.256 -0.310701 -5.06949 0
M  V30 2424 H 231.186 1.46939 -5.05684 0
M  V30 2425 H 233.677 0.660887 -3.72076 0
M  V30 2426 H 233.99 0.731426 -7.69331 0
M  V30 2427 H 232.335 0.66471 -6.91814 0
M  V30 2428 H 235.526 0.735545 -4.62285 0
M  V30 2429 H 235.699 0.767938 -6.43434 0
M  V30 2430 N 229.106 1.52395 0.401703 0
M  V30 2431 C 230.036 1.79231 1.49661 0
M  V30 2432 C 231.017 0.643654 1.57452 0
M  V30 2433 O 232.202 0.889989 1.72606 0
M  V30 2434 C 229.332 1.94971 2.87409 0
M  V30 2435 C 228.286 3.10604 2.94465 0
M  V30 2436 C 227.612 3.11577 4.34538 0
M  V30 2437 C 228.912 4.49921 2.6527 0
M  V30 2438 H 230.606 2.70917 1.27454 0
M  V30 2439 H 228.152 1.30362 0.6117 0
M  V30 2440 H 230.105 2.12328 3.63999 0
M  V30 2441 H 228.829 0.999632 3.10926 0
M  V30 2442 H 227.488 2.93009 2.20321 0
M  V30 2443 H 227.136 2.14277 4.55076 0
M  V30 2444 H 226.836 3.89247 4.40183 0
M  V30 2445 H 228.36 3.31073 5.13053 0
M  V30 2446 H 229.774 4.67683 3.31581 0
M  V30 2447 H 228.171 5.29564 2.82281 0
M  V30 2448 H 229.241 4.57507 1.60671 0
M  V30 2449 N 230.584 -0.659388 1.43143 0
M  V30 2450 C 231.809 -1.45221 1.48073 0
M  V30 2451 C 232.234 -1.87845 0.097995 0
M  V30 2452 O 231.592 -1.56985 -0.90694 0
M  V30 2453 C 231.64 -2.66748 2.42647 0
M  V30 2454 O 230.744 -3.65583 1.90848 0
M  V30 2455 H 230.085 -0.435669 0.501088 0
M  V30 2456 H 232.615 -0.807432 1.87994 0
M  V30 2457 H 232.625 -3.14637 2.59745 0
M  V30 2458 H 231.3 -2.35067 3.43098 0
M  V30 2459 H 229.877 -3.24693 1.83381 0
M  V30 2460 N 232.062 -1.29571 -0.897171 0
M  V30 2461 C 233.009 -1.14916 -2.00158 0
M  V30 2462 C 233.979 -0.0418149 -1.66047 0
M  V30 2463 O 235.164 -0.209793 -1.89643 0
M  V30 2464 C 232.304 -0.834307 -3.34863 0
M  V30 2465 C 231.417 -2.02234 -3.8174 0
M  V30 2466 C 230.552 -1.64664 -5.05034 0
M  V30 2467 C 229.591 -2.80033 -5.44286 0
M  V30 2468 N 228.728 -2.42843 -6.58765 0
M  V30 2469 H 233.568 -2.09403 -2.12025 0
M  V30 2470 H 231.105 -1.042 -1.0383 0
M  V30 2471 H 233.063 -0.632436 -4.12379 0
M  V30 2472 H 231.693 0.0736656 -3.22716 0
M  V30 2473 H 230.745 -2.33583 -3.00238 0
M  V30 2474 H 232.057 -2.88673 -4.06779 0
M  V30 2475 H 231.211 -1.4078 -5.9014 0
M  V30 2476 H 229.95 -0.753766 -4.8184 0
M  V30 2477 H 228.955 -3.04596 -4.57713 0
M  V30 2478 H 230.18 -3.69989 -5.6946 0
M  V30 2479 H 228.126 -1.56046 -6.3717 0
M  V30 2480 H 228.043 -3.22815 -6.83613 0
M  V30 2481 H 229.311 -2.22285 -7.47134 0
M  V30 2482 N 233.54 1.10788 -1.12088 0
M  V30 2483 C 234.47 2.19083 -0.807755 0
M  V30 2484 C 235.451 1.6858 0.226859 0
M  V30 2485 O 236.636 1.93997 0.0888475 0
M  V30 2486 C 233.766 3.46344 -0.257576 0
M  V30 2487 C 232.72 4.101 -1.22483 0
M  V30 2488 C 232.046 5.32016 -0.535052 0
M  V30 2489 C 233.346 4.54236 -2.57811 0
M  V30 2490 H 235.04 2.45534 -1.71328 0
M  V30 2491 H 232.586 1.1801 -0.825205 0
M  V30 2492 H 234.539 4.21392 -0.0262679 0
M  V30 2493 H 233.263 3.19373 0.683278 0
M  V30 2494 H 231.922 3.37054 -1.44189 0
M  V30 2495 H 231.57 5.01319 0.410827 0
M  V30 2496 H 231.27 5.75625 -1.18024 0
M  V30 2497 H 232.794 6.09799 -0.312695 0
M  V30 2498 H 234.208 5.20575 -2.40155 0
M  V30 2499 H 232.605 5.08682 -3.18375 0
M  V30 2500 H 233.675 3.6734 -3.16528 0
M  V30 2501 N 235.018 0.912232 1.28515 0
M  V30 2502 C 236.295 0.463597 1.90027 0
M  V30 2503 C 236.675 -1.05753 1.82701 0
M  V30 2504 O 236.023 -1.90492 1.26194 0
M  V30 2505 C 236.233 0.992253 3.34597 0
M  V30 2506 C 237.581 1.04344 4.11579 0
M  V30 2507 O 238.605 0.94079 3.43551 0
M  V30 2508 O 237.464 1.1995 5.33174 0
M  V30 2509 H 234.558 0.146666 0.813891 0
M  V30 2510 H 237.104 1.00292 1.36893 0
M  V30 2511 H 235.876 2.03623 3.34146 0
M  V30 2512 H 235.499 0.433672 3.95228 0
M  V30 2513 N 236.496 -1.42363 0.676048 0
M  V30 2514 C 237.444 -2.32596 -0.0131507 0
M  V30 2515 C 238.438 -1.49891 -0.789238 0
M  V30 2516 O 239.644 -1.65955 -0.697061 0
M  V30 2517 H 236.019 -0.751647 -0.0230481 0
M  V30 2518 H 237.99 -2.88421 0.765243 0
M  V30 2519 C 236.739 -3.34479 -0.949702 0
M  V30 2520 H 236.062 -3.98158 -0.361938 0
M  V30 2521 H 237.502 -4.00199 -1.4006 0
M  V30 2522 C 235.961 -2.66838 -2.05667 0
M  V30 2523 O 236.491 -2.50124 -3.14326 0
M  V30 2524 N 234.697 -2.25843 -1.82875 0
M  V30 2525 H 234.244 -2.39637 -0.945085 0
M  V30 2526 H 234.202 -1.80918 -2.5713 0
M  V30 2527 N 237.974 -0.419461 -1.51915 0
M  V30 2528 C 239.222 0.152637 -2.01523 0
M  V30 2529 C 239.543 1.44762 -1.30649 0
M  V30 2530 O 238.813 1.90997 -0.435535 0
M  V30 2531 H 237.393 0.0593966 -0.744635 0
M  V30 2532 H 240.055 -0.558073 -1.86739 0
M  V30 2533 H 239.151 0.341369 -3.10227 0
M  V30 2534 N 239.452 1.56882 -0.150215 0
M  V30 2535 C 240.362 2.20494 0.801222 0
M  V30 2536 C 241.378 1.19019 1.26927 0
M  V30 2537 O 242.554 1.51607 1.32579 0
M  V30 2538 C 239.619 2.81659 2.02161 0
M  V30 2539 C 238.68 3.9827 1.60249 0
M  V30 2540 C 237.913 4.56508 2.7647 0
M  V30 2541 O 238.136 4.13627 3.92771 0
M  V30 2542 O 237.07 5.46719 2.51757 0
M  V30 2543 H 240.896 3.02315 0.289717 0
M  V30 2544 H 238.481 1.49202 0.0769684 0
M  V30 2545 H 240.363 3.20522 2.73576 0
M  V30 2546 H 239.038 2.02849 2.52258 0
M  V30 2547 H 237.945 3.64117 0.858477 0
M  V30 2548 H 239.278 4.78609 1.14864 0
M  V30 2549 N 240.93 -0.123565 1.57115 0
M  V30 2550 C 242.16 -0.845233 1.88519 0
M  V30 2551 C 242.568 -1.74168 0.739064 0
M  V30 2552 O 241.911 -1.81244 -0.299355 0
M  V30 2553 C 241.973 -1.73452 3.14888 0
M  V30 2554 C 241.637 -1.01285 4.45635 0
M  V30 2555 C 242.634 -0.355774 5.18681 0
M  V30 2556 C 240.319 -0.99538 4.92339 0
M  V30 2557 C 242.313 0.309114 6.3665 0
M  V30 2558 C 240 -0.32669 6.10226 0
M  V30 2559 C 240.998 0.324406 6.82229 0
M  V30 2560 O 240.686 0.982437 7.97874 0
M  V30 2561 H 240.418 -0.248534 0.628655 0
M  V30 2562 H 242.972 -0.113907 2.05084 0
M  V30 2563 H 241.202 -2.50737 2.94394 0
M  V30 2564 H 242.891 -2.33021 3.32349 0
M  V30 2565 H 243.657 -0.360918 4.83655 0
M  V30 2566 H 239.536 -1.49159 4.36202 0
M  V30 2567 H 243.08 0.8179 6.92789 0
M  V30 2568 H 238.977 -0.319294 6.4471 0
M  V30 2569 H 239.745 0.886454 8.13686 0
M  V30 2570 N 242.408 -1.52605 -0.393616 0
M  V30 2571 C 243.685 -1.58001 -1.15304 0
M  V30 2572 C 244.065 -0.370385 -2.07825 0
M  V30 2573 O 243.413 0.641638 -2.19306 0
M  V30 2574 C 243.623 -2.91652 -1.91677 0
M  V30 2575 C 244.971 -3.4522 -2.47201 0
M  V30 2576 O 245.995 -2.93495 -2.01839 0
M  V30 2577 O 244.854 -4.35579 -3.3005 0
M  V30 2578 H 241.948 -0.637068 -0.527327 0
M  V30 2579 H 244.494 -1.64939 -0.399141 0
M  V30 2580 H 243.266 -3.71136 -1.23992 0
M  V30 2581 H 242.889 -2.88077 -2.74039 0
M  V30 2582 N 243.887 0.651787 -1.4349 0
M  V30 2583 C 244.85 1.74647 -1.48429 0
M  V30 2584 C 245.85 1.56513 -0.368817 0
M  V30 2585 O 247.04 1.62385 -0.630623 0
M  V30 2586 C 244.172 3.13533 -1.33827 0
M  V30 2587 H 245.365 1.71649 -2.4592 0
M  V30 2588 H 242.918 0.863573 -1.30277 0
M  V30 2589 H 243.653 3.22142 -0.37349 0
M  V30 2590 H 243.438 3.28101 -2.14691 0
M  V30 2591 H 244.928 3.93356 -1.40218 0
M  V30 2592 N 245.365 1.30045 0.890287 0
M  V30 2593 C 246.614 1.17929 1.63633 0
M  V30 2594 C 246.927 -0.266204 1.9378 0
M  V30 2595 O 248.133 -0.508804 2.6669 0
M  V30 2596 C 246.589 2.06317 2.94892 0
M  V30 2597 C 246.197 3.55745 2.72305 0
M  V30 2598 C 247.941 2.0295 3.72843 0
M  V30 2599 C 245.848 4.36205 3.99348 0
M  V30 2600 H 244.778 0.437782 0.613892 0
M  V30 2601 H 247.429 1.54754 0.986075 0
M  V30 2602 H 245.811 1.6237 3.61182 0
M  V30 2603 H 246.985 4.07805 2.1455 0
M  V30 2604 H 245.3 3.6088 2.07737 0
M  V30 2605 H 247.897 2.60319 4.67053 0
M  V30 2606 H 248.24 1.0117 4.0382 0
M  V30 2607 H 248.773 2.4499 3.13408 0
M  V30 2608 H 245.512 5.38659 3.73533 0
M  V30 2609 H 245.032 3.8891 4.56628 0
M  V30 2610 H 246.711 4.47362 4.67415 0
M  V30 2611 N 246.843 -1.10192 1.12674 0
M  V30 2612 C 248.092 -1.81573 0.8783 0
M  V30 2613 C 248.405 -1.86249 -0.597557 0
M  V30 2614 O 249.611 -2.5386 -0.962681 0
M  V30 2615 C 248.067 -3.26149 1.52167 0
M  V30 2616 C 247.675 -3.29763 3.03249 0
M  V30 2617 C 249.419 -4.0234 1.3536 0
M  V30 2618 C 247.326 -4.68815 3.60508 0
M  V30 2619 H 246.256 -0.680394 0.324931 0
M  V30 2620 H 248.907 -1.23902 1.35353 0
M  V30 2621 H 247.289 -3.83832 0.974104 0
M  V30 2622 H 248.463 -2.8189 3.6452 0
M  V30 2623 H 246.778 -2.67059 3.19481 0
M  V30 2624 H 249.375 -5.05058 1.75559 0
M  V30 2625 H 249.718 -4.15235 0.297554 0
M  V30 2626 H 250.251 -3.51079 1.87052 0
M  V30 2627 H 246.99 -4.61121 4.65884 0
M  V30 2628 H 246.51 -5.17045 3.04014 0
M  V30 2629 H 248.189 -5.37785 3.59717 0
M  V30 2630 N 248.321 -0.919034 -1.28029 0
M  V30 2631 C 249.251 -0.428581 -2.29533 0
M  V30 2632 C 250.232 0.50659 -1.62381 0
M  V30 2633 O 251.417 0.413195 -1.89753 0
M  V30 2634 C 248.547 0.327388 -3.45753 0
M  V30 2635 C 247.501 -0.519137 -4.2484 0
M  V30 2636 C 246.827 0.365486 -5.33449 0
M  V30 2637 C 248.127 -1.77914 -4.91064 0
M  V30 2638 H 249.821 -1.27687 -2.70807 0
M  V30 2639 H 247.367 -0.615428 -1.30186 0
M  V30 2640 H 249.32 0.681378 -4.15855 0
M  V30 2641 H 248.044 1.20963 -3.03374 0
M  V30 2642 H 246.703 -0.855717 -3.56473 0
M  V30 2643 H 246.351 1.24642 -4.87312 0
M  V30 2644 H 246.051 -0.197356 -5.87268 0
M  V30 2645 H 247.575 0.715241 -6.06396 0
M  V30 2646 H 248.989 -1.49374 -5.53498 0
M  V30 2647 H 247.386 -2.2848 -5.54903 0
M  V30 2648 H 248.456 -2.50382 -4.15255 0
M  V30 2649 N 249.799 1.42003 -0.683588 0
M  V30 2650 C 250.762 2.29191 -0.0198243 0
M  V30 2651 C 251.762 1.43773 0.72013 0
M  V30 2652 O 252.952 1.65061 0.556815 0
M  V30 2653 C 250.084 3.26435 0.982487 0
M  V30 2654 H 251.277 2.8938 -0.787345 0
M  V30 2655 H 248.83 1.49789 -0.446418 0
M  V30 2656 H 249.565 2.71203 1.77819 0
M  V30 2657 H 249.35 3.89449 0.455182 0
M  V30 2658 H 250.84 3.918 1.44508 0
M  V30 2659 N 251.277 0.427512 1.51691 0
M  V30 2660 C 252.523 -0.142439 2.02299 0
M  V30 2661 C 252.856 -1.43214 1.31162 0
M  V30 2662 O 252.131 -1.89833 0.423511 0
M  V30 2663 C 252.414 -0.371301 3.58181 0
M  V30 2664 C 252.267 0.936358 4.39946 0
M  V30 2665 C 253.586 -1.14542 4.24933 0
M  V30 2666 H 250.705 -0.0502937 0.735282 0
M  V30 2667 H 253.347 0.564584 1.81418 0
M  V30 2668 H 251.497 -0.973559 3.76104 0
M  V30 2669 H 253.169 1.57184 4.33694 0
M  V30 2670 H 251.412 1.5432 4.05423 0
M  V30 2671 H 252.083 0.730388 5.47147 0
M  V30 2672 H 254.559 -0.635362 4.11221 0
M  V30 2673 H 253.435 -1.27431 5.33903 0
M  V30 2674 H 253.696 -2.17093 3.85127 0
M  V30 2675 N 252.755 -1.56801 0.158532 0
M  V30 2676 C 253.718 -2.16138 -0.762705 0
M  V30 2677 C 254.718 -1.1061 -1.16713 0
M  V30 2678 O 255.908 -1.36191 -1.08617 0
M  V30 2679 C 253.04 -2.73386 -2.03649 0
M  V30 2680 H 254.233 -2.98886 -0.246354 0
M  V30 2681 H 251.786 -1.56035 -0.0909744 0
M  V30 2682 H 252.521 -1.94335 -2.59623 0
M  V30 2683 H 252.306 -3.50601 -1.75559 0
M  V30 2684 H 253.796 -3.19065 -2.6942 0
M  V30 2685 N 254.233 0.115231 -1.57178 0
M  V30 2686 C 255.481 0.820727 -1.84685 0
M  V30 2687 C 255.802 1.80237 -0.744279 0
M  V30 2688 O 255.072 1.94529 0.231375 0
M  V30 2689 H 253.652 0.306084 -0.681411 0
M  V30 2690 H 256.314 0.101656 -1.94635 0
M  V30 2691 H 255.41 1.36366 -2.80733 0
M  V30 2692 N 255.711 1.52812 0.385517 0
M  V30 2693 C 256.641 1.80808 1.47752 0
M  V30 2694 C 257.622 0.660318 1.5676 0
M  V30 2695 O 258.807 0.908246 1.71652 0
M  V30 2696 C 255.937 1.98008 2.85324 0
M  V30 2697 C 254.891 3.13709 2.91154 0
M  V30 2698 C 254.217 3.16169 4.31209 0
M  V30 2699 C 255.517 4.52709 2.60483 0
M  V30 2700 H 257.211 2.72253 1.24573 0
M  V30 2701 H 254.757 1.31003 0.597839 0
M  V30 2702 H 256.71 2.16176 3.61726 0
M  V30 2703 H 255.434 1.03255 3.09848 0
M  V30 2704 H 254.093 2.95329 2.17201 0
M  V30 2705 H 253.741 2.19092 4.52778 0
M  V30 2706 H 253.441 3.93894 4.36029 0
M  V30 2707 H 254.965 3.36496 5.09512 0
M  V30 2708 H 256.379 4.71173 3.26602 0
M  V30 2709 H 254.776 5.32528 2.76648 0
M  V30 2710 H 255.846 4.59186 1.55809 0
M  V30 2711 N 257.189 -0.644168 1.43834 0
M  V30 2712 C 258.136 -1.75671 1.49694 0
M  V30 2713 C 259.106 -1.6246 0.345809 0
M  V30 2714 O 260.291 -1.82573 0.554234 0
M  V30 2715 C 257.431 -3.13867 1.43463 0
M  V30 2716 C 256.544 -3.38147 2.6885 0
M  V30 2717 C 255.679 -4.66241 2.54544 0
M  V30 2718 C 254.718 -4.83657 3.75157 0
M  V30 2719 N 253.855 -6.03016 3.59605 0
M  V30 2720 H 258.695 -1.69998 2.44754 0
M  V30 2721 H 256.232 -0.829458 1.21484 0
M  V30 2722 H 258.19 -3.9377 1.37843 0
M  V30 2723 H 256.82 -3.18588 0.519783 0
M  V30 2724 H 255.872 -2.52276 2.84712 0
M  V30 2725 H 257.184 -3.46899 3.58417 0
M  V30 2726 H 256.338 -5.54285 2.46683 0
M  V30 2727 H 255.077 -4.59826 1.62516 0
M  V30 2728 H 254.082 -3.94046 3.83416 0
M  V30 2729 H 255.307 -4.91896 4.68204 0
M  V30 2730 H 253.253 -5.97715 2.7032 0
M  V30 2731 H 253.17 -6.12766 4.42779 0
M  V30 2732 H 254.438 -6.93657 3.55613 0
M  V30 2733 N 258.668 -1.30515 -0.883378 0
M  V30 2734 C 260.084 -1.08881 -1.16692 0
M  V30 2735 C 260.284 0.149409 -2.00945 0
M  V30 2736 O 259.34 0.84257 -2.38027 0
M  V30 2737 C 260.653 -2.35319 -1.87204 0
M  V30 2738 C 262.201 -2.40799 -1.99962 0
M  V30 2739 C 262.676 -3.67083 -2.73887 0
M  V30 2740 N 264.167 -3.679 -2.81432 0
M  V30 2741 C 264.902 -4.62303 -3.3921 0
M  V30 2742 N 264.398 -5.67052 -3.98025 0
M  V30 2743 N 266.191 -4.49845 -3.3704 0
M  V30 2744 H 258.342 -2.09951 -0.321633 0
M  V30 2745 H 260.605 -0.92556 -0.205043 0
M  V30 2746 H 260.311 -3.25689 -1.3274 0
M  V30 2747 H 260.185 -2.44089 -2.87577 0
M  V30 2748 H 262.572 -1.50907 -2.53597 0
M  V30 2749 H 262.653 -2.36003 -0.98673 0
M  V30 2750 H 262.297 -4.57334 -2.20925 0
M  V30 2751 H 262.227 -3.69141 -3.75556 0
M  V30 2752 H 264.718 -2.92171 -2.39676 0
M  V30 2753 H 265.031 -6.35184 -4.40183 0
M  V30 2754 H 263.376 -5.70842 -3.96439 0
M  V30 2755 H 266.567 -3.67194 -2.90321 0
M  V30 2756 H 266.74 -5.23597 -3.81772 0
M  V30 2757 N 260.146 1.09593 -1.13257 0
M  V30 2758 C 261.076 2.18214 -0.830946 0
M  V30 2759 C 262.057 1.68812 0.208966 0
M  V30 2760 O 263.242 1.9408 0.0682666 0
M  V30 2761 C 260.372 3.46051 -0.294296 0
M  V30 2762 C 259.326 4.08778 -1.26826 0
M  V30 2763 C 258.652 5.31419 -0.591449 0
M  V30 2764 C 259.952 4.51476 -2.62615 0
M  V30 2765 H 261.646 2.43703 -1.73923 0
M  V30 2766 H 259.192 1.17128 -0.837675 0
M  V30 2767 H 261.145 4.2134 -0.0709606 0
M  V30 2768 H 259.869 3.20079 0.649366 0
M  V30 2769 H 258.528 3.35505 -1.47756 0
M  V30 2770 H 258.176 5.01727 0.357633 0
M  V30 2771 H 257.876 5.74341 -1.24123 0
M  V30 2772 H 259.4 6.09433 -0.377355 0
M  V30 2773 H 260.814 5.17999 -2.45663 0
M  V30 2774 H 259.211 5.05277 -3.23752 0
M  V30 2775 H 260.281 3.63962 -3.20406 0
M  V30 2776 N 261.624 0.925811 1.2754 0
M  V30 2777 C 262.872 0.564138 1.94067 0
M  V30 2778 C 263.193 -0.897188 1.73134 0
M  V30 2779 O 262.463 -1.63573 1.07799 0
M  V30 2780 H 261.043 0.205645 0.718136 0
M  V30 2781 H 263.705 1.1778 1.55287 0
M  V30 2782 H 262.801 0.76881 3.02483 0
M  V30 2783 N 263.102 -1.41638 0.69111 0
M  V30 2784 C 264.032 -2.3347 0.037248 0
M  V30 2785 C 265.013 -1.51575 -0.771947 0
M  V30 2786 O 266.198 -1.80126 -0.72582 0
M  V30 2787 C 263.328 -3.35354 -0.903064 0
M  V30 2788 C 262.282 -4.27526 -0.201288 0
M  V30 2789 C 261.608 -5.19747 -1.25565 0
M  V30 2790 C 262.908 -5.13959 0.929689 0
M  V30 2791 H 264.602 -2.88397 0.804227 0
M  V30 2792 H 262.148 -1.38669 0.388189 0
M  V30 2793 H 264.101 -3.98519 -1.36969 0
M  V30 2794 H 262.825 -2.78767 -1.70166 0
M  V30 2795 H 261.484 -3.65779 0.245265 0
M  V30 2796 H 261.132 -4.59479 -2.04666 0
M  V30 2797 H 260.832 -5.8225 -0.791128 0
M  V30 2798 H 262.356 -5.85789 -1.72288 0
M  V30 2799 H 263.77 -5.70718 0.543546 0
M  V30 2800 H 262.167 -5.85379 1.32103 0
M  V30 2801 H 263.237 -4.51389 1.77133 0
M  V30 2802 N 264.58 -0.43555 -1.51462 0
M  V30 2803 C 265.49 0.383001 -2.31453 0
M  V30 2804 C 266.506 1.02931 -1.4029 0
M  V30 2805 O 267.682 1.02507 -1.73362 0
M  V30 2806 C 264.747 1.47043 -3.13973 0
M  V30 2807 C 263.808 0.844433 -4.20913 0
M  V30 2808 C 263.041 1.88004 -4.9949 0
M  V30 2809 O 263.264 3.10199 -4.78678 0
M  V30 2810 O 262.198 1.47157 -5.83634 0
M  V30 2811 H 266.024 -0.269964 -3.02498 0
M  V30 2812 H 263.609 -0.19813 -1.4808 0
M  V30 2813 H 265.491 2.10113 -3.65281 0
M  V30 2814 H 264.166 2.10751 -2.45695 0
M  V30 2815 H 263.073 0.175729 -3.73687 0
M  V30 2816 H 264.406 0.250869 -4.9156 0
M  V30 2817 N 266.058 1.56714 -0.166846 0
M  V30 2818 C 267.283 2.01557 0.488833 0
M  V30 2819 C 267.708 1.0463 1.56314 0
M  V30 2820 O 267.066 0.0251304 1.81283 0
M  V30 2821 C 267.114 3.4503 1.04818 0
M  V30 2822 O 266.218 3.51163 2.16236 0
M  V30 2823 H 265.559 0.653516 0.117526 0
M  V30 2824 H 268.089 2.02818 -0.269421 0
M  V30 2825 H 268.099 3.84243 1.37191 0
M  V30 2826 H 266.774 4.15077 0.261572 0
M  V30 2827 H 265.351 3.23807 1.84942 0
M  V30 2828 N 267.536 -0.106894 1.57237 0
M  V30 2829 C 268.952 -0.46078 1.52804 0
M  V30 2830 C 269.152 -1.81184 0.881746 0
M  V30 2831 O 268.208 -2.48102 0.469224 0
M  V30 2832 C 269.521 -0.434127 2.9755 0
M  V30 2833 C 271.069 -0.516821 3.08704 0
M  V30 2834 C 271.544 -0.520436 4.55033 0
M  V30 2835 N 273.035 -0.58153 4.59535 0
M  V30 2836 C 273.77 -0.605973 5.70189 0
M  V30 2837 N 273.266 -0.587331 6.90306 0
M  V30 2838 N 275.059 -0.649895 5.5833 0
M  V30 2839 H 267.21 0.778203 1.9763 0
M  V30 2840 H 269.473 0.288403 0.903066 0
M  V30 2841 H 269.179 0.491197 3.48253 0
M  V30 2842 H 269.053 -1.25748 3.55622 0
M  V30 2843 H 271.44 -1.43256 2.57995 0
M  V30 2844 H 271.521 0.334449 2.53604 0
M  V30 2845 H 271.165 0.391313 5.0639 0
M  V30 2846 H 271.095 -1.38876 5.07958 0
M  V30 2847 H 273.586 -0.60161 3.73081 0
M  V30 2848 H 273.899 -0.60894 7.70397 0
M  V30 2849 H 272.244 -0.554564 6.92784 0
M  V30 2850 H 275.435 -0.661907 4.63397 0
M  V30 2851 H 275.608 -0.665476 6.44574 0
M  V30 2852 N 269.014 -1.53014 -0.377408 0
M  V30 2853 C 270.263 -1.67845 -1.11853 0
M  V30 2854 C 270.576 -0.430625 -1.90801 0
M  V30 2855 O 271.782 -0.459261 -2.67587 0
M  V30 2856 C 270.238 -2.96668 -2.03756 0
M  V30 2857 C 269.846 -4.28671 -1.30175 0
M  V30 2858 C 271.59 -3.20865 -2.77932 0
M  V30 2859 C 269.497 -5.48591 -2.20911 0
M  V30 2860 H 268.427 -0.625343 -0.421263 0
M  V30 2861 H 271.078 -1.79514 -0.380409 0
M  V30 2862 H 269.46 -2.78773 -2.8125 0
M  V30 2863 H 270.634 -4.57157 -0.578259 0
M  V30 2864 H 268.949 -4.10825 -0.679108 0
M  V30 2865 H 271.546 -4.07642 -3.46024 0
M  V30 2866 H 271.889 -2.36424 -3.4265 0
M  V30 2867 H 272.422 -3.39379 -2.07525 0
M  V30 2868 H 269.161 -6.35474 -1.6079 0
M  V30 2869 H 268.681 -5.244 -2.91144 0
M  V30 2870 H 270.36 -5.8292 -2.80736 0
M  V30 2871 N 270.492 0.636531 -1.44174 0
M  V30 2872 C 271.908 0.954104 -1.27941 0
M  V30 2873 C 272.108 2.0039 -0.211248 0
M  V30 2874 O 271.164 2.49236 0.404695 0
M  V30 2875 C 272.477 1.4225 -2.64925 0
M  V30 2876 C 274.025 1.53827 -2.72592 0
M  V30 2877 C 274.5 2.04053 -4.10032 0
M  V30 2878 N 275.991 2.11331 -4.12182 0
M  V30 2879 C 276.726 2.51352 -5.15374 0
M  V30 2880 N 276.222 2.90549 -6.2893 0
M  V30 2881 N 278.015 2.51438 -5.02728 0
M  V30 2882 H 270.166 -0.0578386 -2.12321 0
M  V30 2883 H 272.429 0.0367406 -0.947288 0
M  V30 2884 H 272.135 0.725466 -3.44136 0
M  V30 2885 H 272.009 2.39451 -2.9145 0
M  V30 2886 H 274.396 2.22628 -1.93702 0
M  V30 2887 H 274.477 0.550154 -2.49814 0
M  V30 2888 H 274.121 1.35848 -4.89395 0
M  V30 2889 H 274.051 3.03726 -4.30184 0
M  V30 2890 H 276.542 1.83745 -3.30222 0
M  V30 2891 H 276.855 3.19884 -7.03487 0
M  V30 2892 H 275.2 2.88313 -6.32377 0
M  V30 2893 H 278.391 2.20203 -4.13072 0
M  V30 2894 H 278.564 2.82304 -5.83274 0
M  V30 2895 N 271.97 1.30982 0.876444 0
M  V30 2896 C 272.933 1.18054 1.96459 0
M  V30 2897 C 273.933 0.109399 1.60427 0
M  V30 2898 O 275.123 0.358173 1.70478 0
M  V30 2899 C 272.255 0.810616 3.31122 0
M  V30 2900 H 273.448 2.14735 2.09354 0
M  V30 2901 H 271.001 1.145 1.06392 0
M  V30 2902 H 271.736 -0.155322 3.23928 0
M  V30 2903 H 271.521 1.58481 3.58645 0
M  V30 2904 H 273.011 0.743876 4.10921 0
M  V30 2905 N 273.449 -1.08991 1.13837 0
M  V30 2906 C 274.412 -2.13925 0.822715 0
M  V30 2907 C 275.412 -1.599 -0.1699 0
M  V30 2908 O 276.602 -1.74104 0.0577251 0
M  V30 2909 C 273.734 -3.40155 0.225318 0
M  V30 2910 H 274.927 -2.43358 1.75262 0
M  V30 2911 H 272.48 -1.24603 0.943594 0
M  V30 2912 H 273.215 -3.16352 -0.713594 0
M  V30 2913 H 273 -3.80661 0.940193 0
M  V30 2914 H 274.49 -4.17594 0.0214784 0
M  V30 2915 N 274.927 -0.932562 -1.27047 0
M  V30 2916 C 275.857 -0.452902 -2.29066 0
M  V30 2917 C 276.838 0.489338 -1.62909 0
M  V30 2918 O 278.023 0.393046 -1.90181 0
M  V30 2919 C 275.153 0.290698 -3.46081 0
M  V30 2920 C 274.107 -0.564168 -4.24265 0
M  V30 2921 C 273.433 0.308886 -5.33807 0
M  V30 2922 C 274.733 -1.83112 -4.89149 0
M  V30 2923 H 276.427 -1.30552 -2.69437 0
M  V30 2924 H 273.973 -0.629201 -1.29526 0
M  V30 2925 H 275.926 0.637233 -4.16554 0
M  V30 2926 H 274.65 1.17738 -3.0464 0
M  V30 2927 H 273.309 -0.893477 -3.55545 0
M  V30 2928 H 272.957 1.19467 -4.88607 0
M  V30 2929 H 272.657 -0.259633 -5.87026 0
M  V30 2930 H 274.181 0.650884 -6.07121 0
M  V30 2931 H 275.595 -1.55236 -5.51883 0
M  V30 2932 H 273.992 -2.34353 -5.52448 0
M  V30 2933 H 275.062 -2.54772 -4.12576 0
M  V30 2934 N 276.405 1.4127 -0.698611 0
M  V30 2935 C 277.816 1.84187 -0.305289 0
M  V30 2936 C 278.167 1.58449 1.15708 0
M  V30 2937 O 277.292 1.05651 1.88856 0
M  V30 2938 C 277.887 3.3435 -0.547314 0
M  V30 2939 C 276.446 3.75826 -0.207878 0
M  V30 2940 C 275.593 2.64647 -0.828099 0
M  V30 2941 H 278.544 1.30778 -0.89904 0
M  V30 2942 H 278.565 3.8001 0.192998 0
M  V30 2943 H 278.077 3.53051 -1.61172 0
M  V30 2944 H 276.178 3.62725 0.852143 0
M  V30 2945 H 276.291 4.74462 -0.665021 0
M  V30 2946 H 274.655 2.53395 -0.257458 0
M  V30 2947 H 275.438 2.86165 -1.89643 0
M  V30 2948 N 277.883 0.443576 1.51229 0
M  V30 2949 C 279.294 -0.0180867 1.86691 0
M  V30 2950 C 279.645 -1.41384 1.36033 0
M  V30 2951 O 278.77 -2.04291 0.713722 0
M  V30 2952 C 279.365 -0.039597 3.38777 0
M  V30 2953 C 277.924 -0.445692 3.73752 0
M  V30 2954 C 277.071 0.357584 2.74985 0
M  V30 2955 H 280.022 0.659138 1.44364 0
M  V30 2956 H 280.043 -0.847761 3.70936 0
M  V30 2957 H 279.555 0.976382 3.75617 0
M  V30 2958 H 277.656 -1.46704 3.42503 0
M  V30 2959 H 277.769 -0.166155 4.78812 0
M  V30 2960 H 276.133 -0.184973 2.54027 0
M  V30 2961 H 276.916 1.37256 3.14668 0
M  V30 2962 N 279.361 -1.56624 0.175154 0
M  V30 2963 C 280.271 -2.21741 -0.766042 0
M  V30 2964 C 281.287 -1.21023 -1.25018 0
M  V30 2965 O 282.463 -1.53697 -1.3015 0
M  V30 2966 C 279.528 -2.84839 -1.97655 0
M  V30 2967 C 278.589 -4.00769 -1.53892 0
M  V30 2968 C 277.822 -4.60849 -2.69173 0
M  V30 2969 O 278.045 -4.19823 -3.86141 0
M  V30 2970 O 276.979 -5.50655 -2.43028 0
M  V30 2971 H 280.805 -3.02738 -0.241585 0
M  V30 2972 H 278.39 -1.49305 -0.053222 0
M  V30 2973 H 280.272 -3.24834 -2.68442 0
M  V30 2974 H 278.947 -2.06836 -2.48999 0
M  V30 2975 H 277.854 -3.65436 -0.80044 0
M  V30 2976 H 279.187 -4.80376 -1.07236 0
M  V30 2977 N 280.839 0.0985539 -1.57292 0
M  V30 2978 C 282.088 0.801358 -1.85098 0
M  V30 2979 C 282.401 1.80066 -0.763902 0
M  V30 2980 O 283.607 2.55112 -0.928981 0
M  V30 2981 C 282.063 1.47599 -3.28242 0
M  V30 2982 C 281.671 0.516624 -4.45011 0
M  V30 2983 C 283.415 2.16272 -3.65276 0
M  V30 2984 C 281.322 1.19564 -5.79188 0
M  V30 2985 H 280.252 0.303022 -0.69043 0
M  V30 2986 H 282.903 0.0542623 -1.8342 0
M  V30 2987 H 281.285 2.27042 -3.2445 0
M  V30 2988 H 282.459 -0.246065 -4.60143 0
M  V30 2989 H 280.774 -0.064227 -4.1635 0
M  V30 2990 H 283.371 2.67802 -4.62803 0
M  V30 2991 H 283.714 2.95009 -2.93727 0
M  V30 2992 H 284.247 1.43693 -3.70941 0
M  V30 2993 H 280.986 0.449157 -6.53959 0
M  V30 2994 H 280.506 1.92984 -5.67906 0
M  V30 2995 H 282.185 1.7231 -6.23633 0
M  V30 2996 N 282.317 1.53212 0.369288 0
M  V30 2997 C 283.542 1.73423 1.1375 0
M  V30 2998 C 283.967 0.460404 1.82378 0
M  V30 2999 O 283.325 -0.585298 1.71592 0
M  V30 3000 C 283.373 2.89769 2.1463 0
M  V30 3001 O 282.477 2.58119 3.21634 0
M  V30 3002 H 281.818 0.576061 0.330227 0
M  V30 3003 H 284.348 2.00083 0.427547 0
M  V30 3004 H 284.358 3.15829 2.58294 0
M  V30 3005 H 283.033 3.8217 1.64071 0
M  V30 3006 H 281.61 2.42864 2.82969 0
M  V30 3007 N 283.795 -0.628877 1.44509 0
M  V30 3008 C 284.725 -1.75187 1.54376 0
M  V30 3009 C 285.706 -1.65411 0.396618 0
M  V30 3010 O 286.891 -1.84137 0.617031 0
M  V30 3011 C 284.021 -3.13725 1.48976 0
M  V30 3012 C 282.975 -3.38291 2.62189 0
M  V30 3013 C 282.301 -4.76883 2.41841 0
M  V30 3014 C 283.601 -3.30632 4.04326 0
M  V30 3015 H 285.295 -1.67187 2.48373 0
M  V30 3016 H 282.841 -0.802909 1.19538 0
M  V30 3017 H 284.794 -3.92064 1.54478 0
M  V30 3018 H 283.518 -3.22515 0.514961 0
M  V30 3019 H 282.177 -2.62334 2.56079 0
M  V30 3020 H 281.825 -4.82378 1.42548 0
M  V30 3021 H 281.525 -4.94278 3.17747 0
M  V30 3022 H 283.049 -5.57449 2.49165 0
M  V30 3023 H 284.463 -3.98873 4.11793 0
M  V30 3024 H 282.86 -3.59561 4.80454 0
M  V30 3025 H 283.93 -2.28404 4.27738 0
M  V30 3026 N 285.273 -1.31445 -0.869486 0
M  V30 3027 C 286.684 -1.19042 -1.43826 0
M  V30 3028 C 287.035 0.202919 -1.95148 0
M  V30 3029 O 286.16 1.10071 -1.86315 0
M  V30 3030 C 286.755 -2.15499 -2.6143 0
M  V30 3031 C 285.314 -2.07028 -3.14351 0
M  V30 3032 C 284.461 -2.04701 -1.87063 0
M  V30 3033 H 287.412 -1.43489 -0.677984 0
M  V30 3034 H 287.433 -1.74488 -3.38134 0
M  V30 3035 H 286.945 -3.16899 -2.24046 0
M  V30 3036 H 285.046 -1.08825 -3.56354 0
M  V30 3037 H 285.159 -2.96157 -3.766 0
M  V30 3038 H 283.523 -1.49724 -2.06046 0
M  V30 3039 H 284.306 -3.07857 -1.51917 0
M  V30 3040 N 286.751 1.08385 -1.14413 0
M  V30 3041 C 287.714 2.13486 -0.834048 0
M  V30 3042 C 288.714 1.59988 0.161418 0
M  V30 3043 O 289.904 1.74071 -0.0669575 0
M  V30 3044 C 287.036 3.4003 -0.243354 0
M  V30 3045 H 288.229 2.42425 -1.7655 0
M  V30 3046 H 285.782 1.24101 -0.950189 0
M  V30 3047 H 286.517 3.16726 0.696807 0
M  V30 3048 H 286.302 3.80157 -0.960367 0
M  V30 3049 H 287.792 4.17577 -0.0436242 0
M  V30 3050 N 288.23 0.939286 1.26551 0
M  V30 3051 C 289.476 0.586715 1.94128 0
M  V30 3052 C 289.809 -0.8717 1.73537 0
M  V30 3053 O 289.084 -1.62339 1.07127 0
M  V30 3054 C 289.367 0.927497 3.4795 0
M  V30 3055 C 289.22 2.44052 3.77834 0
M  V30 3056 C 290.539 0.441569 4.37879 0
M  V30 3057 H 287.658 0.21463 0.705055 0
M  V30 3058 H 290.3 1.17316 1.49455 0
M  V30 3059 H 288.45 0.428431 3.8613 0
M  V30 3060 H 290.122 3.01216 3.4938 0
M  V30 3061 H 288.365 2.8848 3.23978 0
M  V30 3062 H 289.036 2.62947 4.85348 0
M  V30 3063 H 291.512 0.869448 4.06915 0
M  V30 3064 H 290.388 0.708856 5.44304 0
M  V30 3065 H 290.649 -0.658467 4.37169 0
M  V30 3066 N 289.708 -1.40897 0.706093 0
M  V30 3067 C 290.956 -2.00657 0.241054 0
M  V30 3068 C 291.277 -1.56241 -1.16678 0
M  V30 3069 O 290.547 -0.79765 -1.78926 0
M  V30 3070 H 289.127 -0.742018 0.0861308 0
M  V30 3071 H 291.789 -1.72372 0.909604 0
M  V30 3072 H 290.885 -3.10958 0.266705 0
M  V30 3073 N 291.186 -0.45159 -1.50991 0
M  V30 3074 C 292.118 0.388634 -2.25881 0
M  V30 3075 C 293.131 0.974041 -1.30446 0
M  V30 3076 O 294.32 0.865758 -1.56099 0
M  V30 3077 C 291.42 1.5571 -3.01011 0
M  V30 3078 C 290.593 1.08801 -4.23652 0
M  V30 3079 C 289.652 2.12825 -4.8124 0
M  V30 3080 O 288.678 1.71678 -5.42693 0
M  V30 3081 N 289.88 3.45453 -4.66522 0
M  V30 3082 H 292.645 -0.25329 -2.98628 0
M  V30 3083 H 290.206 -0.281268 -1.59438 0
M  V30 3084 H 292.198 2.24952 -3.3642 0
M  V30 3085 H 290.768 2.10409 -2.31186 0
M  V30 3086 H 289.988 0.22215 -3.93574 0
M  V30 3087 H 291.276 0.752213 -5.03209 0
M  V30 3088 H 290.674 3.81605 -4.17605 0
M  V30 3089 H 289.231 4.10549 -5.06254 0
M  V30 3090 N 292.664 1.56529 -0.183458 0
M  V30 3091 C 293.912 1.96855 0.457452 0
M  V30 3092 C 294.233 1.07104 1.62953 0
M  V30 3093 O 293.503 0.139887 1.954 0
M  V30 3094 H 292.083 0.72693 0.171992 0
M  V30 3095 H 294.745 1.93056 -0.267476 0
M  V30 3096 H 293.841 3.01423 0.809368 0
M  V30 3097 N 294.142 -0.090211 1.57342 0
M  V30 3098 C 295.105 -1.09335 2.01441 0
M  V30 3099 C 296.105 -1.32666 0.908641 0
M  V30 3100 O 297.295 -1.28697 1.174 0
M  V30 3101 C 294.427 -2.44136 2.3793 0
M  V30 3102 H 295.62 -0.713662 2.91285 0
M  V30 3103 H 293.173 -0.335404 1.52659 0
M  V30 3104 H 293.908 -2.86972 1.51055 0
M  V30 3105 H 293.693 -2.28548 3.18603 0
M  V30 3106 H 295.183 -3.16277 2.72688 0
M  V30 3107 N 295.62 -1.53406 -0.361157 0
M  V30 3108 C 296.866 -1.70054 -1.10496 0
M  V30 3109 C 297.199 -0.453278 -1.88836 0
M  V30 3110 O 296.474 0.5495 -1.86576 0
M  V30 3111 C 296.757 -2.95317 -2.06058 0
M  V30 3112 C 296.61 -4.3021 -1.31298 0
M  V30 3113 C 297.929 -3.16193 -3.06121 0
M  V30 3114 H 295.048 -0.618799 -0.400321 0
M  V30 3115 H 297.69 -1.86052 -0.385318 0
M  V30 3116 H 295.84 -2.81809 -2.67425 0
M  V30 3117 H 297.512 -4.55538 -0.726807 0
M  V30 3118 H 295.755 -4.29421 -0.614853 0
M  V30 3119 H 296.426 -5.14 -2.01265 0
M  V30 3120 H 298.902 -3.28916 -2.5486 0
M  V30 3121 H 297.778 -4.05266 -3.70204 0
M  V30 3122 H 298.039 -2.31676 -3.76535 0
M  V30 3123 N 297.098 0.621204 -1.44841 0
M  V30 3124 C 298.346 1.37783 -1.47852 0
M  V30 3125 C 298.667 1.94653 -0.116224 0
M  V30 3126 O 297.937 1.76367 0.852737 0
M  V30 3127 H 296.517 0.511453 -0.544449 0
M  V30 3128 H 299.179 0.730446 -1.80694 0
M  V30 3129 H 298.275 2.20414 -2.20961 0
M  V30 3130 N 298.576 1.31904 0.862503 0
M  V30 3131 C 299.825 1.21373 1.61094 0
M  V30 3132 C 300.138 -0.22504 1.94301 0
M  V30 3133 O 301.344 -0.452121 2.67709 0
M  V30 3134 C 299.8 2.12525 2.9045 0
M  V30 3135 C 299.408 3.61441 2.64697 0
M  V30 3136 C 301.152 2.10813 3.68454 0
M  V30 3137 C 299.059 4.44578 3.90006 0
M  V30 3138 H 297.989 0.450705 0.604468 0
M  V30 3139 H 300.64 1.56811 0.953027 0
M  V30 3140 H 299.022 1.69994 3.57656 0
M  V30 3141 H 300.196 4.12264 2.05851 0
M  V30 3142 H 298.511 3.65205 2.00036 0
M  V30 3143 H 301.108 2.70167 4.61426 0
M  V30 3144 H 301.451 1.09713 4.01583 0
M  V30 3145 H 301.984 2.51583 3.08141 0
M  V30 3146 H 298.723 5.46461 3.62023 0
M  V30 3147 H 298.243 3.98508 4.48276 0
M  V30 3148 H 299.922 4.57176 4.5782 0
M  V30 3149 N 300.054 -1.07777 1.14986 0
M  V30 3150 C 300.964 -2.18404 0.856546 0
M  V30 3151 C 301.98 -1.73211 -0.165485 0
M  V30 3152 O 303.156 -2.01399 0.00755219 0
M  V30 3153 C 300.221 -3.44977 0.34526 0
M  V30 3154 C 299.282 -4.0476 1.43065 0
M  V30 3155 C 298.515 -5.25291 0.943663 0
M  V30 3156 O 298.738 -5.70004 -0.212426 0
M  V30 3157 O 297.672 -5.76638 1.72547 0
M  V30 3158 H 301.498 -2.45978 1.78125 0
M  V30 3159 H 299.083 -1.17033 0.928631 0
M  V30 3160 H 300.965 -4.21348 0.0663671 0
M  V30 3161 H 299.64 -3.18965 -0.551631 0
M  V30 3162 H 298.547 -3.29949 1.76309 0
M  V30 3163 H 299.88 -4.35035 2.30229 0
M  V30 3164 N 301.532 -0.945985 -1.26051 0
M  V30 3165 C 302.772 -0.603665 -1.95282 0
M  V30 3166 C 303.136 0.842377 -1.72534 0
M  V30 3167 O 304.337 1.29387 -2.35611 0
M  V30 3168 C 302.608 -0.942292 -3.44754 0
M  V30 3169 S 304.167 -0.711242 -4.32997 0
M  V30 3170 H 300.985 -0.222176 -0.675395 0
M  V30 3171 H 303.587 -1.21832 -1.52896 0
M  V30 3172 H 302.291 -1.99203 -3.58812 0
M  V30 3173 H 301.822 -0.317546 -3.92116 0
M  V30 3174 H 303.837 0.422221 -4.944 0
M  V30 3175 N 303.011 1.40521 -0.713556 0
M  V30 3176 C 304.427 1.54839 -0.386907 0
M  V30 3177 C 304.627 1.68532 1.1045 0
M  V30 3178 O 303.683 1.67377 1.89053 0
M  V30 3179 C 304.996 2.77792 -1.15118 0
M  V30 3180 C 306.544 2.91607 -1.13729 0
M  V30 3181 C 307.019 4.1747 -1.88368 0
M  V30 3182 N 308.51 4.24466 -1.85427 0
M  V30 3183 C 309.245 5.20755 -2.40004 0
M  V30 3184 N 308.741 6.22965 -3.03129 0
M  V30 3185 N 310.534 5.1282 -2.30158 0
M  V30 3186 H 302.685 1.29879 -1.68063 0
M  V30 3187 H 304.948 0.627896 -0.710247 0
M  V30 3188 H 304.654 2.73944 -2.20561 0
M  V30 3189 H 304.528 3.6984 -0.741477 0
M  V30 3190 H 306.915 2.94959 -0.0910608 0
M  V30 3191 H 306.996 2.00682 -1.5862 0
M  V30 3192 H 306.64 4.1488 -2.9298 0
M  V30 3193 H 306.57 5.074 -1.40898 0
M  V30 3194 H 309.061 3.51241 -1.3942 0
M  V30 3195 H 309.374 6.92859 -3.42295 0
M  V30 3196 H 307.719 6.23415 -3.07212 0
M  V30 3197 H 310.91 4.31899 -1.80501 0
M  V30 3198 H 311.083 5.87689 -2.72993 0
M  V30 3199 N 304.489 0.459591 1.5075 0
M  V30 3200 C 305.419 -0.330644 2.31147 0
M  V30 3201 C 306.4 -1.00087 1.37538 0
M  V30 3202 O 307.585 -1.00025 1.66459 0
M  V30 3203 C 304.715 -1.41958 3.16962 0
M  V30 3204 C 303.669 -0.871608 4.19031 0
M  V30 3205 C 302.995 -2.05797 4.9351 0
M  V30 3206 C 304.295 0.109251 5.22186 0
M  V30 3207 H 305.989 0.340336 2.97459 0
M  V30 3208 H 303.535 0.165119 1.4305 0
M  V30 3209 H 305.488 -1.9798 3.71997 0
M  V30 3210 H 304.212 -2.11917 2.48513 0
M  V30 3211 H 302.871 -0.333442 3.6508 0
M  V30 3212 H 302.519 -2.74427 4.21544 0
M  V30 3213 H 302.219 -1.6976 5.62544 0
M  V30 3214 H 303.743 -2.62331 5.51375 0
M  V30 3215 H 305.157 -0.361405 5.7216 0
M  V30 3216 H 303.554 0.383316 5.98875 0
M  V30 3217 H 304.624 1.03887 4.73641 0
M  V30 3218 N 305.967 -1.56429 0.191757 0
M  V30 3219 C 307.244 -1.89224 -0.495332 0
M  V30 3220 C 307.624 -1.10478 -1.79883 0
M  V30 3221 O 306.972 -0.204852 -2.2758 0
M  V30 3222 C 307.182 -3.41548 -0.717367 0
M  V30 3223 C 308.53 -4.11711 -1.03823 0
M  V30 3224 O 309.554 -3.4698 -0.805204 0
M  V30 3225 O 308.413 -5.2611 -1.47887 0
M  V30 3226 H 305.507 -0.785788 -0.25781 0
M  V30 3227 H 308.053 -1.68111 0.231721 0
M  V30 3228 H 306.825 -3.90772 0.203287 0
M  V30 3229 H 306.448 -3.68342 -1.497 0
M  V30 3230 N 307.445 0.0818655 -1.57387 0
M  V30 3231 C 308.722 0.815343 -1.77796 0
M  V30 3232 C 309.102 1.96289 -0.77679 0
M  V30 3233 O 308.45 2.27691 0.192106 0
M  V30 3234 C 308.66 1.29765 -3.23978 0
M  V30 3235 C 310.008 1.7351 -3.8753 0
M  V30 3236 O 311.032 1.39356 -3.27808 0
M  V30 3237 O 309.891 2.36708 -4.92576 0
M  V30 3238 H 306.985 0.389914 -0.729312 0
M  V30 3239 H 309.531 0.0627213 -1.69584 0
M  V30 3240 H 308.303 0.47608 -3.88393 0
M  V30 3241 H 307.926 2.11189 -3.36875 0
M  V30 3242 N 308.923 1.53595 0.353017 0
M  V30 3243 C 310.148 1.7462 1.11904 0
M  V30 3244 C 310.573 0.479721 1.8188 0
M  V30 3245 O 309.931 -0.567066 1.72204 0
M  V30 3246 C 309.979 2.92029 2.11545 0
M  V30 3247 O 309.083 2.61516 3.18878 0
M  V30 3248 H 308.424 0.579531 0.324099 0
M  V30 3249 H 310.954 2.00525 0.406301 0
M  V30 3250 H 310.964 3.18551 2.5493 0
M  V30 3251 H 309.639 3.83888 1.60008 0
M  V30 3252 H 308.216 2.45852 2.80377 0
M  V30 3253 N 310.401 -0.613514 1.45168 0
M  V30 3254 C 311.817 -0.933629 1.29443 0
M  V30 3255 C 312.017 -2.00028 0.243101 0
M  V30 3256 O 311.073 -2.49848 -0.364992 0
M  V30 3257 C 312.386 -1.38018 2.67155 0
M  V30 3258 C 313.934 -1.49471 2.75004 0
M  V30 3259 C 314.409 -1.97503 4.13227 0
M  V30 3260 N 315.9 -2.04746 4.15491 0
M  V30 3261 C 316.635 -2.43121 5.19307 0
M  V30 3262 N 316.131 -2.80506 6.33473 0
M  V30 3263 N 317.924 -2.43408 5.06664 0
M  V30 3264 H 310.075 0.0916097 2.12202 0
M  V30 3265 H 312.338 -0.0216655 0.947752 0
M  V30 3266 H 312.044 -0.670625 3.45247 0
M  V30 3267 H 311.918 -2.34784 2.95222 0
M  V30 3268 H 314.305 -2.19519 1.9722 0
M  V30 3269 H 314.386 -0.510342 2.50657 0
M  V30 3270 H 314.03 -1.28045 4.91495 0
M  V30 3271 H 313.96 -2.96843 4.34962 0
M  V30 3272 H 316.451 -1.78468 3.33103 0
M  V30 3273 H 316.764 -3.08652 7.08487 0
M  V30 3274 H 315.109 -2.78216 6.36884 0
M  V30 3275 H 318.3 -2.13604 4.16523 0
M  V30 3276 H 318.473 -2.72989 5.87691 0
M  V30 3277 N 311.879 -1.3236 -0.855495 0
M  V30 3278 C 313.107 -1.2587 -1.64208 0
M  V30 3279 C 313.522 0.173457 -1.88002 0
M  V30 3280 O 312.879 1.11027 -1.44842 0
M  V30 3281 C 312.93 -2.01424 -3.00184 0
M  V30 3282 O 312.651 -3.39051 -2.77445 0
M  V30 3283 C 314.152 -2.01948 -3.94629 0
M  V30 3284 H 311.372 -0.434318 -0.511477 0
M  V30 3285 H 313.916 -1.74469 -1.0668 0
M  V30 3286 H 312.071 -1.56549 -3.5436 0
M  V30 3287 H 312.485 -3.77711 -3.63916 0
M  V30 3288 H 313.959 -2.59297 -4.87308 0
M  V30 3289 H 314.436 -1.00554 -4.27534 0
M  V30 3290 H 315.042 -2.46767 -3.4639 0
M  V30 3291 N 313.357 1.07166 -1.15556 0
M  V30 3292 C 314.773 1.31899 -0.898603 0
M  V30 3293 C 314.973 1.96333 0.453383 0
M  V30 3294 O 314.029 2.22438 1.19489 0
M  V30 3295 C 315.342 2.20826 -2.04099 0
M  V30 3296 C 316.89 2.34269 -2.07574 0
M  V30 3297 C 317.365 3.26546 -3.21141 0
M  V30 3298 N 318.856 3.34127 -3.20801 0
M  V30 3299 C 319.591 4.05595 -4.05315 0
M  V30 3300 N 319.087 4.79661 -4.99897 0
M  V30 3301 N 320.88 4.01555 -3.93332 0
M  V30 3302 H 313.031 0.637302 -2.02613 0
M  V30 3303 H 315.294 0.343468 -0.883591 0
M  V30 3304 H 315 1.80744 -3.01703 0
M  V30 3305 H 314.874 3.21364 -1.97496 0
M  V30 3306 H 317.261 2.73603 -1.10568 0
M  V30 3307 H 317.342 1.33429 -2.18244 0
M  V30 3308 H 316.986 2.87931 -4.184 0
M  V30 3309 H 316.916 4.27345 -3.07708 0
M  V30 3310 H 319.407 2.81336 -2.52306 0
M  V30 3311 H 319.72 5.31694 -5.60822 0
M  V30 3312 H 318.065 4.78671 -5.03884 0
M  V30 3313 H 321.256 3.42806 -3.18751 0
M  V30 3314 H 321.429 4.56987 -4.5942 0
M  V30 3315 N 314.835 0.952656 1.25548 0
M  V30 3316 C 315.745 0.47782 2.29682 0
M  V30 3317 C 316.761 -0.453859 1.67977 0
M  V30 3318 O 317.937 -0.330587 1.98668 0
M  V30 3319 C 315.002 -0.238655 3.45878 0
M  V30 3320 C 314.063 0.730994 4.23031 0
M  V30 3321 C 313.296 0.0486165 5.33678 0
M  V30 3322 O 313.519 -1.16612 5.58353 0
M  V30 3323 O 312.453 0.733152 5.97418 0
M  V30 3324 H 316.279 1.34312 2.72386 0
M  V30 3325 H 313.864 0.719026 1.30959 0
M  V30 3326 H 315.746 -0.641774 4.16484 0
M  V30 3327 H 314.421 -1.07916 3.05181 0
M  V30 3328 H 313.328 1.18428 3.5486 0
M  V30 3329 H 314.661 1.53946 4.67506 0
M  V30 3330 N 316.313 -1.40141 0.720998 0
M  V30 3331 C 317.243 -2.33339 0.0867621 0
M  V30 3332 C 318.224 -1.53178 -0.739622 0
M  V30 3333 O 319.409 -1.81625 -0.687449 0
M  V30 3334 C 316.539 -3.37194 -0.831728 0
M  V30 3335 C 315.493 -4.27857 -0.110558 0
M  V30 3336 C 314.819 -5.22294 -1.14513 0
M  V30 3337 C 316.119 -5.11872 1.0385 0
M  V30 3338 H 317.813 -2.86626 0.865219 0
M  V30 3339 H 315.359 -1.37814 0.417516 0
M  V30 3340 H 317.312 -4.01335 -1.28485 0
M  V30 3341 H 316.036 -2.82314 -1.64214 0
M  V30 3342 H 314.695 -3.65176 0.322797 0
M  V30 3343 H 314.343 -4.63717 -1.94874 0
M  V30 3344 H 314.043 -5.83797 -0.667446 0
M  V30 3345 H 315.567 -5.89312 -1.59824 0
M  V30 3346 H 316.981 -5.69436 0.664482 0
M  V30 3347 H 315.378 -5.82445 1.4449 0
M  V30 3348 H 316.448 -4.4753 1.86668 0
M  V30 3349 N 317.792 -0.46758 -1.50504 0
M  V30 3350 C 318.722 0.318381 -2.31319 0
M  V30 3351 C 319.703 0.993564 -1.38066 0
M  V30 3352 O 320.888 0.991411 -1.66987 0
M  V30 3353 C 318.018 1.40275 -3.17711 0
M  V30 3354 C 316.972 0.849373 -4.19487 0
M  V30 3355 C 316.298 2.03177 -4.94594 0
M  V30 3356 C 317.598 -0.136942 -5.2212 0
M  V30 3357 H 319.292 -0.356106 -2.97275 0
M  V30 3358 H 316.838 -0.172703 -1.42961 0
M  V30 3359 H 318.791 1.96004 -3.73042 0
M  V30 3360 H 317.515 2.10596 -2.49634 0
M  V30 3361 H 316.174 0.314076 -3.65252 0
M  V30 3362 H 315.822 2.72187 -4.22993 0
M  V30 3363 H 315.522 1.66774 -5.63436 0
M  V30 3364 H 317.046 2.59403 -5.52759 0
M  V30 3365 H 318.46 0.331056 -5.72343 0
M  V30 3366 H 316.857 -0.41507 -5.98663 0
M  V30 3367 H 317.927 -1.06398 -4.73083 0
M  V30 3368 N 319.27 1.56325 -0.20005 0
M  V30 3369 C 320.233 2.18084 0.705132 0
M  V30 3370 C 321.233 1.13666 1.1374 0
M  V30 3371 O 322.423 1.39023 1.04968 0
M  V30 3372 C 319.555 2.78689 1.96329 0
M  V30 3373 H 320.748 2.99435 0.167023 0
M  V30 3374 H 318.301 1.56221 0.0495725 0
M  V30 3375 H 319.036 2.0115 2.5438 0
M  V30 3376 H 318.821 3.55133 1.66202 0
M  V30 3377 H 320.311 3.26096 2.60866 0
M  V30 3378 N 320.748 -0.0735177 1.57428 0
M  V30 3379 C 321.711 -1.07192 2.02589 0
M  V30 3380 C 322.711 -1.31695 0.922661 0
M  V30 3381 O 323.901 -1.27445 1.18758 0
M  V30 3382 C 321.033 -2.41599 2.40506 0
M  V30 3383 H 322.226 -0.682727 2.92025 0
M  V30 3384 H 319.779 -0.319193 1.53006 0
M  V30 3385 H 320.514 -2.85354 1.5409 0
M  V30 3386 H 320.299 -2.25156 3.21009 0
M  V30 3387 H 321.789 -3.13367 2.76027 0
M  V30 3388 N 322.226 -1.5378 -0.344866 0
M  V30 3389 C 323.156 -1.84662 -1.42906 0
M  V30 3390 C 324.137 -0.701648 -1.54955 0
M  V30 3391 O 325.322 -0.953438 -1.69184 0
M  V30 3392 C 322.452 -2.05503 -2.79974 0
M  V30 3393 C 321.406 -3.21318 -2.82734 0
M  V30 3394 C 320.732 -3.2749 -4.22675 0
M  V30 3395 C 322.032 -4.59456 -2.48389 0
M  V30 3396 H 323.726 -2.75461 -1.17311 0
M  V30 3397 H 321.272 -1.32542 -0.562896 0
M  V30 3398 H 323.225 -2.25691 -3.55867 0
M  V30 3399 H 321.949 -1.11434 -3.07002 0
M  V30 3400 H 320.608 -3.00984 -2.09294 0
M  V30 3401 H 320.256 -2.31019 -4.4681 0
M  V30 3402 H 319.956 -4.05316 -4.25433 0
M  V30 3403 H 321.48 -3.49887 -5.00412 0
M  V30 3404 H 322.894 -4.79667 -3.13995 0
M  V30 3405 H 321.291 -5.39675 -2.62432 0
M  V30 3406 H 322.361 -4.63155 -1.4358 0
M  V30 3407 N 323.704 0.605807 -1.45491 0
M  V30 3408 C 324.652 1.73754 -1.54636 0
M  V30 3409 C 325.646 1.64207 -0.416219 0
M  V30 3410 O 326.852 1.69979 -0.592199 0
M  V30 3411 H 323.227 0.574073 -0.485741 0
M  V30 3412 H 325.198 1.63169 -2.49837 0
M  V30 3413 C 323.947 3.12135 -1.53189 0
M  V30 3414 H 323.27 3.20141 -2.39478 0
M  V30 3415 H 324.71 3.91147 -1.63645 0
M  V30 3416 C 323.169 3.35921 -0.256616 0
M  V30 3417 O 323.699 3.96194 0.662798 0
M  V30 3418 N 321.905 2.90204 -0.151751 0
M  V30 3419 H 321.452 2.41336 -0.90081 0
M  V30 3420 H 321.41 3.06492 0.700699 0
M  V30 3421 N 325.182 1.32811 0.848464 0
M  V30 3422 C 326.132 1.18842 1.94578 0
M  V30 3423 C 327.116 0.0937517 1.60627 0
M  V30 3424 O 328.308 0.320887 1.74067 0
M  V30 3425 C 325.437 0.91999 3.30743 0
M  V30 3426 C 324.523 2.05665 3.70894 0
M  V30 3427 N 324.914 3.30579 3.8282 0
M  V30 3428 C 323.212 1.9612 4.00566 0
M  V30 3429 C 323.913 4.05067 4.17487 0
M  V30 3430 N 322.889 3.33419 4.2934 0
M  V30 3431 H 326.691 2.13536 2.0194 0
M  V30 3432 H 324.205 1.2468 1.0406 0
M  V30 3433 H 326.202 0.800859 4.09136 0
M  V30 3434 H 324.862 -0.0185076 3.24695 0
M  V30 3435 H 325.873 3.65441 3.66978 0
M  V30 3436 H 322.55 1.09871 4.02784 0
M  V30 3437 H 323.94 5.12815 4.34131 0
M  V30 3438 N 326.66 -1.06551 1.16123 0
M  V30 3439 C 327.61 -2.12209 0.833736 0
M  V30 3440 C 328.594 -1.59825 -0.185656 0
M  V30 3441 O 329.786 -1.76994 0.0147906 0
M  V30 3442 C 326.915 -3.41674 0.333697 0
M  V30 3443 C 326.001 -4.00892 1.38372 0
M  V30 3444 N 326.392 -4.34256 2.59337 0
M  V30 3445 C 324.69 -4.28463 1.23836 0
M  V30 3446 C 325.391 -4.81291 3.26701 0
M  V30 3447 N 324.367 -4.80565 2.54083 0
M  V30 3448 H 328.169 -2.35849 1.75364 0
M  V30 3449 H 325.683 -1.24068 1.04789 0
M  V30 3450 H 327.68 -4.16822 0.0806918 0
M  V30 3451 H 326.34 -3.19475 -0.58017 0
M  V30 3452 H 327.351 -4.24687 2.96415 0
M  V30 3453 H 324.028 -4.15721 0.38504 0
M  V30 3454 H 325.418 -5.16332 4.29943 0
M  V30 3455 N 328.138 -0.959301 -1.25041 0
M  V30 3456 C 329.048 -0.489994 -2.29426 0
M  V30 3457 C 330.064 0.444944 -1.68215 0
M  V30 3458 O 331.24 0.320046 -1.98841 0
M  V30 3459 C 328.305 0.220309 -3.45999 0
M  V30 3460 C 327.366 -0.753418 -4.22637 0
M  V30 3461 C 326.599 -0.076918 -5.33645 0
M  V30 3462 O 326.822 1.13649 -5.58963 0
M  V30 3463 O 325.756 -0.764824 -5.97021 0
M  V30 3464 H 329.582 -1.35755 -2.71669 0
M  V30 3465 H 327.167 -0.725961 -1.30576 0
M  V30 3466 H 329.049 0.619677 -4.16819 0
M  V30 3467 H 327.724 1.06296 -3.0575 0
M  V30 3468 H 326.631 -1.20308 -3.54227 0
M  V30 3469 H 327.964 -1.56423 -4.66683 0
M  V30 3470 N 329.616 1.39756 -0.72842 0
M  V30 3471 C 330.844 2.04948 -0.283528 0
M  V30 3472 C 331.259 1.54908 1.0793 0
M  V30 3473 O 330.616 0.711135 1.68075 0
M  V30 3474 C 330.667 3.60498 -0.268957 0
M  V30 3475 O 330.388 4.08695 -1.57798 0
M  V30 3476 C 331.889 4.4288 0.192912 0
M  V30 3477 H 329.109 0.659243 -0.125056 0
M  V30 3478 H 331.653 1.78927 -0.990226 0
M  V30 3479 H 329.808 3.85444 0.388801 0
M  V30 3480 H 330.222 5.02977 -1.48709 0
M  V30 3481 H 331.696 5.51791 0.151952 0
M  V30 3482 H 332.173 4.21418 1.23708 0
M  V30 3483 H 332.779 4.23069 -0.435039 0
M  V30 3484 N 331.094 0.475555 1.50254 0
M  V30 3485 C 332.057 -0.305016 2.27161 0
M  V30 3486 C 333.057 -0.916519 1.32123 0
M  V30 3487 O 334.247 -0.785003 1.5551 0
M  V30 3488 C 331.379 -1.43496 3.09227 0
M  V30 3489 H 332.572 0.369511 2.97615 0
M  V30 3490 H 330.125 0.229747 1.54602 0
M  V30 3491 H 330.86 -2.14441 2.43281 0
M  V30 3492 H 330.645 -1.00223 3.79075 0
M  V30 3493 H 332.135 -1.98548 3.67381 0
M  V30 3494 N 332.573 -1.56217 0.208337 0
M  V30 3495 C 333.503 -2.22694 -0.702116 0
M  V30 3496 C 334.484 -1.19432 -1.2112 0
M  V30 3497 O 335.669 -1.47978 -1.25762 0
M  V30 3498 C 332.799 -2.8966 -1.9161 0
M  V30 3499 C 331.753 -3.9928 -1.5414 0
M  V30 3500 C 331.079 -4.53476 -2.83308 0
M  V30 3501 C 332.379 -5.17012 -0.741339 0
M  V30 3502 H 334.073 -2.99034 -0.147898 0
M  V30 3503 H 331.619 -1.43831 -0.0696951 0
M  V30 3504 H 333.572 -3.34852 -2.55836 0
M  V30 3505 H 332.296 -2.10746 -2.49507 0
M  V30 3506 H 330.955 -3.54799 -0.922668 0
M  V30 3507 H 330.603 -3.71308 -3.39322 0
M  V30 3508 H 330.303 -5.27451 -2.58976 0
M  V30 3509 H 331.827 -5.01378 -3.485 0
M  V30 3510 H 333.241 -5.58667 -1.28699 0
M  V30 3511 H 331.638 -5.97137 -0.595627 0
M  V30 3512 H 332.708 -4.8423 0.254851 0
M  V30 3513 N 334.051 0.0651679 -1.57465 0
M  V30 3514 C 335.467 0.420105 -1.53972 0
M  V30 3515 C 335.667 1.78782 -0.929474 0
M  V30 3516 O 334.723 2.46771 -0.534839 0
M  V30 3517 C 336.036 0.355084 -2.98596 0
M  V30 3518 C 337.584 0.434792 -3.09965 0
M  V30 3519 C 338.059 0.399609 -4.56253 0
M  V30 3520 N 339.55 0.459488 -4.60915 0
M  V30 3521 C 340.285 0.454584 -5.71595 0
M  V30 3522 N 339.781 0.404102 -6.9162 0
M  V30 3523 N 341.574 0.501635 -5.59857 0
M  V30 3524 H 333.725 -0.830328 -1.95498 0
M  V30 3525 H 335.988 -0.312244 -0.895102 0
M  V30 3526 H 335.694 -0.583357 -3.46828 0
M  V30 3527 H 335.568 1.16275 -3.58831 0
M  V30 3528 H 337.955 1.36366 -2.61703 0
M  V30 3529 H 338.036 -0.40157 -2.52628 0
M  V30 3530 H 337.68 -0.525436 -5.05175 0
M  V30 3531 H 337.61 1.25359 -5.11461 0
M  V30 3532 H 340.101 0.502482 -3.74544 0
M  V30 3533 H 340.414 0.404468 -7.71741 0
M  V30 3534 H 338.759 0.37069 -6.94011 0
M  V30 3535 H 341.95 0.538812 -4.64989 0
M  V30 3536 H 342.123 0.494345 -6.46112 0
M  V30 3537 N 335.529 1.53961 0.336706 0
M  V30 3538 C 336.775 1.7179 1.07777 0
M  V30 3539 C 337.108 0.483263 1.88091 0
M  V30 3540 O 336.383 -0.519747 1.87427 0
M  V30 3541 C 336.666 2.98558 2.01334 0
M  V30 3542 C 336.519 4.32245 1.24437 0
M  V30 3543 C 337.838 3.21023 3.01052 0
M  V30 3544 H 334.957 0.625089 0.390426 0
M  V30 3545 H 337.599 1.86641 0.35567 0
M  V30 3546 H 335.749 2.86028 2.62908 0
M  V30 3547 H 337.421 4.56637 0.654243 0
M  V30 3548 H 335.664 4.30344 0.546458 0
M  V30 3549 H 336.335 5.17137 1.93063 0
M  V30 3550 H 338.811 3.32929 2.49595 0
M  V30 3551 H 337.687 4.11104 3.6371 0
M  V30 3552 H 337.948 2.37637 3.72802 0
M  V30 3553 N 337.007 -0.598083 1.45811 0
M  V30 3554 C 338.235 -1.38322 1.53866 0
M  V30 3555 C 338.65 -1.87992 0.174479 0
M  V30 3556 O 338.007 -1.62756 -0.825627 0
M  V30 3557 C 338.058 -2.58125 2.53089 0
M  V30 3558 O 337.779 -2.10516 3.84206 0
M  V30 3559 C 339.28 -3.50869 2.70935 0
M  V30 3560 H 336.5 -0.423093 0.520801 0
M  V30 3561 H 339.044 -0.728527 1.91083 0
M  V30 3562 H 337.199 -3.19615 2.18917 0
M  V30 3563 H 337.613 -2.88425 4.38077 0
M  V30 3564 H 339.087 -4.31451 3.44317 0
M  V30 3565 H 339.564 -4.01822 1.77301 0
M  V30 3566 H 340.17 -2.95225 3.06141 0
M  V30 3567 N 338.485 -1.33259 -0.841409 0
M  V30 3568 C 339.448 -1.23221 -1.9326 0
M  V30 3569 C 340.448 -0.151895 -1.60081 0
M  V30 3570 O 341.638 -0.403246 -1.69468 0
M  V30 3571 C 338.77 -0.898123 -3.28856 0
M  V30 3572 H 339.963 -2.2021 -2.03587 0
M  V30 3573 H 337.516 -1.17281 -1.03319 0
M  V30 3574 H 338.251 0.0693841 -3.24226 0
M  V30 3575 H 338.036 -1.67934 -3.54317 0
M  V30 3576 H 339.526 -0.852563 -4.08805 0
M  V30 3577 N 339.963 1.05934 -1.16686 0
M  V30 3578 C 340.873 2.17014 -0.891183 0
M  V30 3579 C 341.889 1.73453 0.137907 0
M  V30 3580 O 343.065 2.01361 -0.039592 0
M  V30 3581 C 340.13 3.44384 -0.400099 0
M  V30 3582 C 339.191 4.02433 -1.49486 0
M  V30 3583 C 338.424 5.23723 -1.02711 0
M  V30 3584 O 338.647 5.7027 0.121716 0
M  V30 3585 O 337.581 5.7382 -1.81699 0
M  V30 3586 H 341.407 2.43113 -1.82015 0
M  V30 3587 H 338.992 1.15541 -0.947132 0
M  V30 3588 H 340.874 4.21189 -0.133392 0
M  V30 3589 H 339.549 3.19802 0.500817 0
M  V30 3590 H 338.456 3.27102 -1.81535 0
M  V30 3591 H 339.789 4.31317 -2.37121 0
M  V30 3592 N 341.441 0.965919 1.2453 0
M  V30 3593 C 342.857 0.67216 1.44756 0
M  V30 3594 C 343.057 -0.766609 1.86347 0
M  V30 3595 O 342.113 -1.5407 2.00047 0
M  V30 3596 C 343.426 1.65473 2.51076 0
M  V30 3597 C 344.974 1.66716 2.64905 0
M  V30 3598 C 345.449 2.63766 3.74421 0
M  V30 3599 N 346.94 2.62198 3.81846 0
M  V30 3600 C 347.675 3.33966 4.66106 0
M  V30 3601 N 347.171 4.15245 5.54566 0
M  V30 3602 N 348.964 3.22799 4.60171 0
M  V30 3603 H 341.115 1.89553 0.958293 0
M  V30 3604 H 343.378 0.815979 0.482579 0
M  V30 3605 H 343.084 2.68296 2.27399 0
M  V30 3606 H 342.958 1.4261 3.49202 0
M  V30 3607 H 345.345 0.646057 2.87941 0
M  V30 3608 H 345.426 1.93642 1.67142 0
M  V30 3609 H 345.07 3.6601 3.52135 0
M  V30 3610 H 345 2.34121 4.71694 0
M  V30 3611 H 347.491 2.032 3.18619 0
M  V30 3612 H 347.804 4.66898 6.15814 0
M  V30 3613 H 346.149 4.1934 5.54237 0
M  V30 3614 H 349.34 2.58764 3.90075 0
M  V30 3615 H 349.513 3.78994 5.25612 0
M  V30 3616 N 342.919 -1.39368 0.735821 0
M  V30 3617 C 343.882 -2.2896 0.104874 0
M  V30 3618 C 344.882 -1.46347 -0.666274 0
M  V30 3619 O 346.072 -1.67014 -0.49517 0
M  V30 3620 C 343.204 -3.29857 -0.860656 0
M  V30 3621 H 344.397 -2.86259 0.894205 0
M  V30 3622 H 341.95 -1.48029 0.501704 0
M  V30 3623 H 342.685 -2.77615 -1.67631 0
M  V30 3624 H 342.47 -3.9087 -0.310327 0
M  V30 3625 H 343.96 -3.96893 -1.29867 0
M  V30 3626 N 344.397 -0.483516 -1.5 0
M  V30 3627 C 345.33 0.350427 -2.25493 0
M  V30 3628 C 346.308 0.985549 -1.29328 0
M  V30 3629 O 347.492 1.01906 -1.58579 0
M  V30 3630 C 344.619 1.49202 -3.04066 0
M  V30 3631 C 343.665 0.973036 -4.15252 0
M  V30 3632 S 344.498 -0.122237 -5.3536 0
M  V30 3633 C 345.654 1.02294 -6.17484 0
M  V30 3634 H 345.887 -0.290381 -2.95878 0
M  V30 3635 H 343.42 -0.268562 -1.52046 0
M  V30 3636 H 345.378 2.14623 -3.49925 0
M  V30 3637 H 344.039 2.10438 -2.33183 0
M  V30 3638 H 343.232 1.82804 -4.69679 0
M  V30 3639 H 342.834 0.396335 -3.71894 0
M  V30 3640 H 345.126 1.93195 -6.49371 0
M  V30 3641 H 346.069 0.517664 -7.06205 0
M  V30 3642 H 346.477 1.28238 -5.49741 0
M  V30 3643 N 345.875 1.56104 -0.216619 0
M  V30 3644 C 346.823 2.21434 0.712036 0
M  V30 3645 C 347.817 1.19218 1.20348 0
M  V30 3646 O 349.023 1.3731 1.16387 0
M  V30 3647 H 345.398 0.70992 0.248026 0
M  V30 3648 H 347.369 2.98083 0.137558 0
M  V30 3649 C 346.118 2.90434 1.91163 0
M  V30 3650 H 345.441 3.68842 1.54258 0
M  V30 3651 H 346.881 3.39552 2.5393 0
M  V30 3652 C 345.34 1.92635 2.76394 0
M  V30 3653 O 345.87 1.44017 3.74996 0
M  V30 3654 N 344.076 1.60392 2.42328 0
M  V30 3655 H 343.623 2.00122 1.622 0
M  V30 3656 H 343.581 0.952159 2.99635 0
M  V30 3657 N 347.353 -0.0568162 1.57498 0
M  V30 3658 C 348.581 -0.765626 1.92213 0
M  V30 3659 C 348.996 -1.70353 0.813961 0
M  V30 3660 O 348.353 -1.81268 -0.211701 0
M  V30 3661 C 348.404 -1.5465 3.2675 0
M  V30 3662 O 348.125 -0.646278 4.33307 0
M  V30 3663 C 349.626 -2.35497 3.75574 0
M  V30 3664 H 346.846 -0.216835 0.634999 0
M  V30 3665 H 349.39 -0.0226146 2.04487 0
M  V30 3666 H 347.545 -2.24165 3.15957 0
M  V30 3667 H 347.959 -1.19093 5.108 0
M  V30 3668 H 349.433 -2.85722 4.72299 0
M  V30 3669 H 349.91 -3.15692 3.05344 0
M  V30 3670 H 350.516 -1.7111 3.8936 0
M  V30 3671 N 348.832 -1.54138 -0.328536 0
M  V30 3672 C 350.248 -1.44736 -0.672574 0
M  V30 3673 C 350.448 -0.616217 -1.91846 0
M  V30 3674 O 349.504 -0.113067 -2.52247 0
M  V30 3675 C 350.817 -2.884 -0.851217 0
M  V30 3676 C 352.365 -2.98271 -0.948877 0
M  V30 3677 C 352.84 -4.43074 -1.15973 0
M  V30 3678 N 354.331 -4.46665 -1.22658 0
M  V30 3679 C 355.066 -5.55857 -1.40751 0
M  V30 3680 N 354.562 -6.75026 -1.5592 0
M  V30 3681 N 356.355 -5.43495 -1.4342 0
M  V30 3682 H 348.506 -2.06661 0.490421 0
M  V30 3683 H 350.769 -0.934812 0.157579 0
M  V30 3684 H 350.475 -3.51699 -0.00704236 0
M  V30 3685 H 350.349 -3.34225 -1.74853 0
M  V30 3686 H 352.736 -2.35102 -1.78356 0
M  V30 3687 H 352.817 -2.55785 -0.0281435 0
M  V30 3688 H 352.461 -5.06827 -0.329915 0
M  V30 3689 H 352.391 -4.83165 -2.09426 0
M  V30 3690 H 354.882 -3.60797 -1.124 0
M  V30 3691 H 355.195 -7.54004 -1.69404 0
M  V30 3692 H 353.54 -6.77944 -1.53027 0
M  V30 3693 H 356.731 -4.49349 -1.31162 0
M  V30 3694 H 356.904 -6.28649 -1.57178 0
M  V30 3695 N 350.31 0.590341 -1.46126 0
M  V30 3696 C 351.24 1.71032 -1.58966 0
M  V30 3697 C 352.221 1.64302 -0.440335 0
M  V30 3698 O 353.406 1.82436 -0.665634 0
M  V30 3699 C 350.536 3.09665 -1.57241 0
M  V30 3700 C 349.49 3.31221 -2.71066 0
M  V30 3701 C 348.816 4.70303 -2.54399 0
M  V30 3702 C 350.116 3.19796 -4.1295 0
M  V30 3703 H 351.81 1.60543 -2.52718 0
M  V30 3704 H 349.356 0.770933 -1.21625 0
M  V30 3705 H 351.309 3.87831 -1.64819 0
M  V30 3706 H 350.033 3.21036 -0.600289 0
M  V30 3707 H 348.692 2.55452 -2.62944 0
M  V30 3708 H 348.34 4.78429 -1.55288 0
M  V30 3709 H 348.04 4.85679 -3.30741 0
M  V30 3710 H 349.564 5.50647 -2.63857 0
M  V30 3711 H 350.978 3.87815 -4.22223 0
M  V30 3712 H 349.375 3.46696 -4.89818 0
M  V30 3713 H 350.445 2.16983 -4.33643 0
M  V30 3714 N 351.788 1.33704 0.83433 0
M  V30 3715 C 352.698 1.26382 1.97648 0
M  V30 3716 C 353.714 0.173548 1.73132 0
M  V30 3717 O 354.89 0.397962 1.97429 0
M  V30 3718 C 351.955 1.00769 3.31733 0
M  V30 3719 C 351.016 2.1884 3.69334 0
M  V30 3720 C 350.249 1.9444 4.9702 0
M  V30 3721 O 350.472 0.896961 5.63303 0
M  V30 3722 O 349.406 2.81093 5.32231 0
M  V30 3723 H 353.232 2.22444 2.06767 0
M  V30 3724 H 350.817 1.13795 0.968037 0
M  V30 3725 H 352.699 0.882186 4.12062 0
M  V30 3726 H 351.374 0.0773783 3.23608 0
M  V30 3727 H 350.281 2.36946 2.89495 0
M  V30 3728 H 351.614 3.10221 3.82131 0
M  V30 3729 N 353.266 -1.05314 1.17247 0
M  V30 3730 C 354.514 -1.77941 0.958194 0
M  V30 3731 C 354.835 -1.88089 -0.514556 0
M  V30 3732 O 354.105 -1.39676 -1.37359 0
M  V30 3733 H 352.685 -0.659116 0.351533 0
M  V30 3734 H 355.347 -1.27166 1.47699 0
M  V30 3735 H 354.443 -2.79663 1.38546 0
M  V30 3736 N 354.744 -0.972509 -1.24016 0
M  V30 3737 C 355.992 -0.635776 -1.91839 0
M  V30 3738 C 356.313 0.832312 -1.76345 0
M  V30 3739 O 355.583 1.5946 -1.13795 0
M  V30 3740 H 354.163 -0.232157 -0.710009 0
M  V30 3741 H 356.825 -1.23462 -1.50809 0
M  V30 3742 H 355.921 -0.880545 -2.99421 0
M  V30 3743 N 356.222 1.38976 -0.743202 0
M  V30 3744 C 357.462 2.02193 -0.29954 0
M  V30 3745 C 357.826 1.5771 1.09506 0
M  V30 3746 O 359.027 2.13184 1.63726 0
M  V30 3747 C 357.298 3.55077 -0.406822 0
M  V30 3748 S 358.857 4.38778 -0.0442109 0
M  V30 3749 H 355.675 0.701335 -0.116836 0
M  V30 3750 H 358.277 1.69651 -0.971529 0
M  V30 3751 H 356.981 3.84942 -1.42295 0
M  V30 3752 H 356.512 3.92383 0.282707 0
M  V30 3753 H 358.527 4.82222 1.16947 0
M  V30 3754 N 357.7 0.491464 1.49741 0
M  V30 3755 C 358.632 -0.328609 2.26832 0
M  V30 3756 C 359.645 -0.939113 1.32983 0
M  V30 3757 O 360.834 -0.824067 1.58339 0
M  V30 3758 C 357.934 -1.47675 3.05033 0
M  V30 3759 C 357.107 -0.975305 4.26388 0
M  V30 3760 C 356.166 -1.99991 4.86714 0
M  V30 3761 O 355.192 -1.57229 5.47054 0
M  V30 3762 N 356.394 -3.32962 4.75517 0
M  V30 3763 H 359.159 0.332377 2.97851 0
M  V30 3764 H 356.72 0.323441 1.58636 0
M  V30 3765 H 358.712 -2.15954 3.42266 0
M  V30 3766 H 357.282 -2.04206 2.36683 0
M  V30 3767 H 356.502 -0.117723 3.94024 0
M  V30 3768 H 357.79 -0.618531 5.05026 0
M  V30 3769 H 357.188 -3.70399 4.27576 0
M  V30 3770 H 355.745 -3.96982 5.16961 0
M  V30 3771 N 359.178 -1.55987 0.224894 0
M  V30 3772 C 360.424 -1.98684 -0.406502 0
M  V30 3773 C 360.757 -1.11248 -1.59177 0
M  V30 3774 O 360.032 -0.170909 -1.93748 0
M  V30 3775 C 360.315 -3.50218 -0.837808 0
M  V30 3776 C 360.168 -4.48426 0.351332 0
M  V30 3777 C 361.487 -4.06243 -1.69278 0
M  V30 3778 H 358.606 -0.722337 -0.146283 0
M  V30 3779 H 361.248 -1.87255 0.321799 0
M  V30 3780 H 359.398 -3.60089 -1.45837 0
M  V30 3781 H 361.07 -4.50562 0.989526 0
M  V30 3782 H 359.313 -4.22159 0.998207 0
M  V30 3783 H 359.984 -5.52 0.00655905 0
M  V30 3784 H 362.46 -3.99337 -1.16914 0
M  V30 3785 H 361.336 -5.12581 -1.96346 0
M  V30 3786 H 361.597 -3.53332 -2.65723 0
M  V30 3787 N 360.656 0.0484629 -1.57525 0
M  V30 3788 C 362.067 0.597486 -1.76881 0
M  V30 3789 C 362.418 1.76664 -0.853475 0
M  V30 3790 O 361.543 2.16357 -0.0433656 0
M  V30 3791 C 362.138 1.09066 -3.20765 0
M  V30 3792 C 360.697 1.58535 -3.41385 0
M  V30 3793 C 359.844 0.514868 -2.72478 0
M  V30 3794 H 362.795 -0.177758 -1.57701 0
M  V30 3795 H 362.816 1.95875 -3.2621 0
M  V30 3796 H 362.328 0.239521 -3.8736 0
M  V30 3797 H 360.429 2.45898 -2.79937 0
M  V30 3798 H 360.542 1.64622 -4.49929 0
M  V30 3799 H 358.906 0.965407 -2.35695 0
M  V30 3800 H 359.689 -0.32648 -3.41744 0
M  V30 3801 N 362.134 1.5431 0.320358 0
M  V30 3802 C 363.383 1.7188 1.05546 0
M  V30 3803 C 363.696 0.501143 1.89071 0
M  V30 3804 O 364.902 0.558258 2.65699 0
M  V30 3805 C 363.358 3.04025 1.92605 0
M  V30 3806 C 362.966 4.33207 1.14176 0
M  V30 3807 C 364.71 3.30959 2.65832 0
M  V30 3808 C 362.617 5.56412 2.00399 0
M  V30 3809 H 361.547 0.640547 0.397763 0
M  V30 3810 H 364.198 1.80802 0.313522 0
M  V30 3811 H 362.58 2.89019 2.7071 0
M  V30 3812 H 363.754 4.58989 0.40819 0
M  V30 3813 H 362.069 4.13062 0.526165 0
M  V30 3814 H 364.666 4.20203 3.30656 0
M  V30 3815 H 365.009 2.48979 3.33639 0
M  V30 3816 H 365.542 3.46847 1.94787 0
M  V30 3817 H 362.281 6.41004 1.37094 0
M  V30 3818 H 361.801 5.34844 2.7148 0
M  V30 3819 H 363.48 5.92938 2.58908 0
M  V30 3820 N 363.613 -0.582584 1.46437 0
M  V30 3821 C 364.861 -1.33814 1.51453 0
M  V30 3822 C 365.182 -1.94277 0.167792 0
M  V30 3823 O 364.452 -1.78566 -0.805677 0
M  V30 3824 H 363.032 -0.496838 0.557818 0
M  V30 3825 H 365.694 -0.682281 1.82568 0
M  V30 3826 H 364.79 -2.14479 2.26728 0
M  V30 3827 N 365.091 -1.34144 -0.827227 0
M  V30 3828 C 366.316 -1.29476 -1.62021 0
M  V30 3829 C 366.741 0.129292 -1.87655 0
M  V30 3830 O 366.099 1.08967 -1.449 0
M  V30 3831 C 366.147 -2.08702 -2.94068 0
M  V30 3832 O 365.251 -1.45359 -3.85933 0
M  V30 3833 H 364.592 -0.444881 -0.492927 0
M  V30 3834 H 367.122 -1.76882 -1.02829 0
M  V30 3835 H 367.132 -2.19898 -3.43669 0
M  V30 3836 H 365.807 -3.12241 -2.74734 0
M  V30 3837 H 364.384 -1.42879 -3.44442 0
M  V30 3838 N 366.569 1.04691 -1.17803 0
M  V30 3839 C 367.799 1.81183 -0.992788 0
M  V30 3840 C 368.207 1.8347 0.462098 0
M  V30 3841 O 367.55 1.2643 1.33271 0
M  V30 3842 C 367.612 3.28363 -1.46349 0
M  V30 3843 C 367.276 3.49749 -2.94151 0
M  V30 3844 C 368.273 3.41456 -3.92051 0
M  V30 3845 C 365.958 3.76548 -3.32441 0
M  V30 3846 C 367.952 3.59656 -5.26238 0
M  V30 3847 C 365.639 3.94396 -4.66792 0
M  V30 3848 C 366.637 3.8595 -5.635 0
M  V30 3849 O 366.325 4.03294 -6.9542 0
M  V30 3850 H 366.057 0.577622 -0.351182 0
M  V30 3851 H 368.611 1.32876 -1.5663 0
M  V30 3852 H 366.841 3.77609 -0.833574 0
M  V30 3853 H 368.53 3.86395 -1.24313 0
M  V30 3854 H 369.296 3.20723 -3.63815 0
M  V30 3855 H 365.175 3.82224 -2.57732 0
M  V30 3856 H 368.719 3.52979 -6.01707 0
M  V30 3857 H 364.616 4.14622 -4.94731 0
M  V30 3858 H 365.384 4.2049 -7.02232 0
M  V30 3859 N 368.047 0.979072 1.23499 0
M  V30 3860 C 369.01 0.523244 2.23147 0
M  V30 3861 C 370.01 -0.386406 1.56088 0
M  V30 3862 O 371.2 -0.180283 1.73265 0
M  V30 3863 C 368.332 -0.240739 3.40049 0
M  V30 3864 H 369.525 1.40432 2.64989 0
M  V30 3865 H 367.078 0.764824 1.36309 0
M  V30 3866 H 367.813 -1.13841 3.03662 0
M  V30 3867 H 367.598 0.412207 3.89927 0
M  V30 3868 H 369.088 -0.548297 4.13985 0
M  V30 3869 N 369.525 -1.3858 0.750561 0
M  V30 3870 C 370.435 -2.34278 0.122825 0
M  V30 3871 C 371.451 -1.59116 -0.704131 0
M  V30 3872 O 372.627 -1.91326 -0.628987 0
M  V30 3873 C 369.692 -3.38221 -0.762086 0
M  V30 3874 C 368.753 -4.29227 0.078896 0
M  V30 3875 C 367.986 -5.28205 -0.763874 0
M  V30 3876 O 368.209 -5.34112 -2.00201 0
M  V30 3877 O 367.143 -6.01618 -0.18428 0
M  V30 3878 H 370.969 -2.89649 0.913088 0
M  V30 3879 H 368.554 -1.40374 0.511417 0
M  V30 3880 H 370.436 -4.01872 -1.26793 0
M  V30 3881 H 369.111 -2.85211 -1.5309 0
M  V30 3882 H 368.018 -3.68747 0.630621 0
M  V30 3883 H 369.351 -4.85484 0.810289 0
M  V30 3884 N 371.003 -0.499398 -1.49478 0
M  V30 3885 C 371.933 0.269244 -2.31943 0
M  V30 3886 C 372.914 0.964054 -1.40143 0
M  V30 3887 O 374.099 0.955767 -1.69052 0
M  V30 3888 C 371.229 1.33504 -3.20615 0
M  V30 3889 C 370.183 0.760202 -4.21195 0
M  V30 3890 C 369.509 1.9264 -4.98792 0
M  V30 3891 C 370.809 -0.247661 -5.21712 0
M  V30 3892 H 372.503 -0.419082 -2.96452 0
M  V30 3893 H 370.049 -0.202988 -1.42562 0
M  V30 3894 H 372.002 1.88048 -3.77115 0
M  V30 3895 H 370.726 2.05253 -2.54045 0
M  V30 3896 H 369.385 0.23653 -3.65836 0
M  V30 3897 H 369.033 2.63154 -4.28671 0
M  V30 3898 H 368.733 1.54785 -5.66847 0
M  V30 3899 H 370.257 2.4762 -5.58137 0
M  V30 3900 H 371.671 0.209579 -5.72917 0
M  V30 3901 H 370.068 -0.541962 -5.97648 0
M  V30 3902 H 371.138 -1.16409 -4.7072 0
M  V30 3903 N 372.481 1.55866 -0.233164 0
M  V30 3904 C 373.73 1.97779 0.39579 0
M  V30 3905 C 374.043 1.12419 1.60066 0
M  V30 3906 O 375.249 1.44283 2.29988 0
M  V30 3907 C 373.705 3.5188 0.755556 0
M  V30 3908 C 373.313 4.45959 -0.427152 0
M  V30 3909 C 375.057 4.02479 1.34946 0
M  V30 3910 C 372.964 5.91383 -0.0443043 0
M  V30 3911 H 371.894 0.738592 0.15165 0
M  V30 3912 H 374.545 1.80486 -0.331212 0
M  V30 3913 H 372.927 3.64816 1.5403 0
M  V30 3914 H 374.101 4.44776 -1.20462 0
M  V30 3915 H 372.416 4.05765 -0.935068 0
M  V30 3916 H 375.013 5.08637 1.649 0
M  V30 3917 H 375.356 3.49014 2.26925 0
M  V30 3918 H 375.889 3.92813 0.62791 0
M  V30 3919 H 372.628 6.48857 -0.930874 0
M  V30 3920 H 372.148 5.95734 0.697238 0
M  V30 3921 H 373.827 6.45893 0.378334 0
M  V30 3922 N 373.959 -0.0401083 1.57549 0
M  V30 3923 C 375.236 -0.767917 1.79896 0
M  V30 3924 C 375.616 -1.9416 0.82856 0
M  V30 3925 O 374.964 -2.2812 -0.131671 0
M  V30 3926 C 375.174 -1.2113 3.27305 0
M  V30 3927 C 376.522 -1.63175 3.91994 0
M  V30 3928 O 377.546 -1.30616 3.31388 0
M  V30 3929 O 376.405 -2.23565 4.98679 0
M  V30 3930 H 373.499 -0.370441 0.739393 0
M  V30 3931 H 376.045 -0.017737 1.69691 0
M  V30 3932 H 374.817 -0.372937 3.89519 0
M  V30 3933 H 374.44 -2.02183 3.42356 0
M  V30 3934 N 375.437 -1.54477 -0.31217 0
M  V30 3935 C 376.685 -1.72884 -1.04668 0
M  V30 3936 C 377.006 -0.511477 -1.88173 0
M  V30 3937 O 376.276 0.474407 -1.90069 0
M  V30 3938 H 374.856 -0.637461 -0.389425 0
M  V30 3939 H 377.518 -1.91807 -0.345852 0
M  V30 3940 H 376.614 -2.61334 -1.70619 0
M  V30 3941 N 376.915 0.57481 -1.46744 0
M  V30 3942 C 377.825 1.711 -1.60505 0
M  V30 3943 C 378.841 1.67008 -0.488307 0
M  V30 3944 O 380.017 1.86774 -0.753495 0
M  V30 3945 C 377.082 3.07608 -1.59932 0
M  V30 3946 C 376.143 3.22904 -2.82898 0
M  V30 3947 C 375.376 4.529 -2.82343 0
M  V30 3948 O 375.599 5.37278 -1.91542 0
M  V30 3949 O 374.533 4.71611 -3.73987 0
M  V30 3950 H 378.359 1.62436 -2.56609 0
M  V30 3951 H 375.944 0.742779 -1.29627 0
M  V30 3952 H 377.826 3.88877 -1.62336 0
M  V30 3953 H 376.501 3.16692 -0.669898 0
M  V30 3954 H 375.408 2.41099 -2.86046 0
M  V30 3955 H 376.741 3.18715 -3.75076 0
M  V30 3956 N 378.394 1.34581 0.820102 0
M  V30 3957 C 379.643 1.26437 1.57151 0
M  V30 3958 C 379.956 -0.163111 1.94919 0
M  V30 3959 O 381.162 -0.366722 2.69012 0
M  V30 3960 C 379.618 2.21658 2.83541 0
M  V30 3961 C 379.226 3.69679 2.53065 0
M  V30 3962 C 380.97 2.22428 3.61561 0
M  V30 3963 C 378.877 4.56761 3.75664 0
M  V30 3964 H 377.807 0.469707 0.589823 0
M  V30 3965 H 380.458 1.59763 0.902656 0
M  V30 3966 H 378.84 1.81287 3.52067 0
M  V30 3967 H 380.014 4.18605 1.92631 0
M  V30 3968 H 378.329 3.71384 1.88316 0
M  V30 3969 H 380.926 2.8471 4.52597 0
M  V30 3970 H 381.269 1.22434 3.97889 0
M  V30 3971 H 381.802 2.61259 2.99981 0
M  V30 3972 H 378.541 5.57702 3.44454 0
M  V30 3973 H 378.061 4.12568 4.35371 0
M  V30 3974 H 379.74 4.71509 4.43044 0
M  V30 3975 N 379.872 -1.04064 1.18357 0
M  V30 3976 C 381.118 -1.77658 0.990412 0
M  V30 3977 C 381.473 -1.86446 -0.474944 0
M  V30 3978 O 380.766 -1.36153 -1.34807 0
M  V30 3979 C 380.96 -3.20634 1.57888 0
M  V30 3980 C 380.789 -3.25782 3.09994 0
M  V30 3981 C 379.559 -3.34411 3.7881 0
M  V30 3982 C 381.757 -3.13791 4.0748 0
M  V30 3983 N 379.739 -3.28809 5.18418 0
M  V30 3984 C 381.11 -3.15689 5.33611 0
M  V30 3985 C 383.165 -2.97833 3.98998 0
M  V30 3986 C 381.868 -3.03268 6.52243 0
M  V30 3987 C 383.894 -2.86759 5.17227 0
M  V30 3988 C 383.256 -2.893 6.4225 0
M  V30 3989 H 379.355 -0.661901 0.416427 0
M  V30 3990 H 381.939 -1.23968 1.50133 0
M  V30 3991 H 380.11 -3.7267 1.09414 0
M  V30 3992 H 381.842 -3.82525 1.32124 0
M  V30 3993 H 378.597 -3.40144 3.29543 0
M  V30 3994 H 379.021 -3.29448 5.91433 0
M  V30 3995 H 383.663 -2.94698 3.03171 0
M  V30 3996 H 381.381 -3.05156 7.48268 0
M  V30 3997 H 384.967 -2.75465 5.12455 0
M  V30 3998 H 383.847 -2.80818 7.32196 0
M  V30 3999 N 381.35 -0.985608 -1.22978 0
M  V30 4000 C 382.28 -0.549649 -2.26939 0
M  V30 4001 C 383.261 0.419803 -1.64838 0
M  V30 4002 O 384.446 0.31203 -1.91677 0
M  V30 4003 C 381.576 0.143652 -3.47003 0
M  V30 4004 C 380.53 -0.743606 -4.21491 0
M  V30 4005 C 379.856 0.0822027 -5.34637 0
M  V30 4006 C 381.156 -2.03694 -4.80943 0
M  V30 4007 H 382.85 -1.41862 -2.63658 0
M  V30 4008 H 380.396 -0.683571 -1.26741 0
M  V30 4009 H 382.349 0.459985 -4.18882 0
M  V30 4010 H 381.073 1.04711 -3.09359 0
M  V30 4011 H 379.732 -1.04347 -3.51436 0
M  V30 4012 H 379.38 0.986359 -4.93234 0
M  V30 4013 H 379.08 -0.508377 -5.85397 0
M  V30 4014 H 380.604 0.392797 -6.09335 0
M  V30 4015 H 382.018 -1.78504 -5.44802 0
M  V30 4016 H 380.415 -2.57573 -5.42011 0
M  V30 4017 H 381.485 -2.72042 -4.01399 0
M  V30 4018 N 382.828 1.3818 -0.7579 0
M  V30 4019 C 384.244 1.5353 -0.435972 0
M  V30 4020 C 384.444 1.71961 1.05032 0
M  V30 4021 O 383.5 1.73307 1.83633 0
M  V30 4022 C 384.813 2.73989 -1.23898 0
M  V30 4023 C 386.361 2.87841 -1.22949 0
M  V30 4024 C 386.836 4.11266 -2.01554 0
M  V30 4025 N 388.327 4.18352 -1.98837 0
M  V30 4026 C 389.062 5.12856 -2.5645 0
M  V30 4027 N 388.558 6.13005 -3.22794 0
M  V30 4028 N 390.351 5.05238 -2.46356 0
M  V30 4029 H 382.502 1.24467 -1.7211 0
M  V30 4030 H 384.765 0.604982 -0.729864 0
M  V30 4031 H 384.471 2.66789 -2.29165 0
M  V30 4032 H 384.345 3.67294 -0.858764 0
M  V30 4033 H 386.732 2.9452 -0.184854 0
M  V30 4034 H 386.813 1.95534 -1.64924 0
M  V30 4035 H 386.457 4.05349 -3.06031 0
M  V30 4036 H 386.387 5.02661 -1.5697 0
M  V30 4037 H 388.878 3.46628 -1.50524 0
M  V30 4038 H 389.191 6.81619 -3.64165 0
M  V30 4039 H 387.536 6.13325 -3.2689 0
M  V30 4040 H 390.727 4.25938 -1.9415 0
M  V30 4041 H 390.9 5.78707 -2.91552 0
M  V30 4042 N 384.306 0.507319 1.49211 0
M  V30 4043 C 385.269 -0.256763 2.27757 0
M  V30 4044 C 386.269 -0.888287 1.34038 0
M  V30 4045 O 387.459 -0.751841 1.5714 0
M  V30 4046 C 384.591 -1.36905 3.12202 0
M  V30 4047 H 385.784 0.432557 2.96764 0
M  V30 4048 H 383.337 0.262488 1.5408 0
M  V30 4049 H 384.072 -2.09233 2.47775 0
M  V30 4050 H 383.857 -0.921599 3.81115 0
M  V30 4051 H 385.347 -1.9071 3.7151 0
M  V30 4052 N 385.784 -1.5574 0.241426 0
M  V30 4053 C 386.714 -2.24133 -0.654722 0
M  V30 4054 C 387.695 -1.21974 -1.1856 0
M  V30 4055 O 388.88 -1.50612 -1.22595 0
M  V30 4056 C 386.01 -2.93659 -1.85423 0
M  V30 4057 C 384.964 -4.0246 -1.45636 0
M  V30 4058 C 384.29 -4.59383 -2.73626 0
M  V30 4059 C 385.59 -5.18468 -0.631506 0
M  V30 4060 H 387.284 -2.99281 -0.0844353 0
M  V30 4061 H 384.83 -1.43947 -0.0391707 0
M  V30 4062 H 386.783 -3.40203 -2.48676 0
M  V30 4063 H 385.507 -2.15991 -2.44981 0
M  V30 4064 H 384.166 -3.56676 -0.847202 0
M  V30 4065 H 383.814 -3.78422 -3.3137 0
M  V30 4066 H 383.514 -5.32826 -2.4773 0
M  V30 4067 H 385.038 -5.08658 -3.37786 0
M  V30 4068 H 386.452 -5.61272 -1.1682 0
M  V30 4069 H 384.849 -5.98266 -0.468831 0
M  V30 4070 H 385.919 -4.8358 0.357506 0
M  V30 4071 N 387.262 0.0317525 -1.57568 0
M  V30 4072 C 388.508 0.724175 -1.8943 0
M  V30 4073 C 388.841 1.75149 -0.838836 0
M  V30 4074 O 388.116 1.93948 0.146422 0
M  V30 4075 C 388.399 1.39615 -3.31933 0
M  V30 4076 C 388.252 0.382537 -4.4817 0
M  V30 4077 C 389.571 2.33084 -3.73309 0
M  V30 4078 H 386.69 0.261797 -0.688935 0
M  V30 4079 H 389.332 -0.013017 -1.89996 0
M  V30 4080 H 387.482 2.02451 -3.31581 0
M  V30 4081 H 389.154 -0.243689 -4.60656 0
M  V30 4082 H 387.397 -0.29844 -4.32772 0
M  V30 4083 H 388.068 0.891145 -5.44759 0
M  V30 4084 H 390.544 1.80295 -3.7501 0
M  V30 4085 H 389.42 2.77084 -4.73831 0
M  V30 4086 H 389.681 3.19643 -3.05419 0
M  V30 4087 N 388.74 1.54641 0.303973 0
M  V30 4088 C 389.988 1.73437 1.0375 0
M  V30 4089 C 390.309 0.521449 1.87899 0
M  V30 4090 O 389.579 -0.46432 1.90318 0
M  V30 4091 H 388.159 0.639518 0.386039 0
M  V30 4092 H 390.821 1.91988 0.335675 0
M  V30 4093 H 389.917 2.62235 1.69231 0
M  V30 4094 N 390.218 -0.567019 1.47046 0
M  V30 4095 C 391.181 -1.65696 1.58359 0
M  V30 4096 C 392.181 -1.54097 0.459441 0
M  V30 4097 O 393.371 -1.58432 0.724225 0
M  V30 4098 C 390.503 -3.05197 1.51879 0
M  V30 4099 H 391.696 -1.57019 2.5551 0
M  V30 4100 H 389.249 -0.786148 1.3509 0
M  V30 4101 H 389.984 -3.19417 0.560673 0
M  V30 4102 H 389.769 -3.15025 2.33455 0
M  V30 4103 H 391.259 -3.84511 1.62913 0
M  V30 4104 N 391.696 -1.35014 -0.812953 0
M  V30 4105 C 393.107 -1.25035 -1.38648 0
M  V30 4106 C 393.458 0.119967 -1.95833 0
M  V30 4107 O 392.583 1.02069 -1.90816 0
M  V30 4108 C 393.178 -2.26394 -2.52054 0
M  V30 4109 C 391.737 -2.20175 -3.05287 0
M  V30 4110 C 390.884 -2.12451 -1.78213 0
M  V30 4111 H 393.835 -1.46235 -0.616516 0
M  V30 4112 H 393.856 -1.88672 -3.30429 0
M  V30 4113 H 393.368 -3.26116 -2.10404 0
M  V30 4114 H 391.469 -1.23841 -3.51417 0
M  V30 4115 H 391.582 -3.11863 -3.63701 0
M  V30 4116 H 389.946 -1.58328 -1.9951 0
M  V30 4117 H 390.729 -3.14024 -1.38723 0
M  V30 4118 N 393.175 1.03435 -1.18907 0
M  V30 4119 C 394.452 1.73778 -0.89781 0
M  V30 4120 C 394.832 2.02458 0.597832 0
M  V30 4121 O 394.18 1.67482 1.55441 0
M  V30 4122 C 394.39 3.01845 -1.75187 0
M  V30 4123 C 395.738 3.7546 -1.9828 0
M  V30 4124 O 396.762 3.11759 -1.72293 0
M  V30 4125 O 395.621 4.89966 -2.42065 0
M  V30 4126 H 392.715 0.75651 -0.334098 0
M  V30 4127 H 395.261 1.09444 -1.29693 0
M  V30 4128 H 394.033 2.76836 -2.76545 0
M  V30 4129 H 393.656 3.73919 -1.35167 0
M  V30 4130 N 394.653 0.992116 1.22453 0
M  V30 4131 C 395.901 0.666215 1.90804 0
M  V30 4132 C 396.222 -0.804152 1.77647 0
M  V30 4133 O 395.492 -1.57629 1.16318 0
M  V30 4134 H 394.072 0.243423 0.706225 0
M  V30 4135 H 396.734 1.25845 1.48825 0
M  V30 4136 H 395.83 0.928069 2.97982 0
M  V30 4137 N 396.131 -1.37776 0.765217 0
M  V30 4138 C 397.356 -2.04651 0.336537 0
M  V30 4139 C 397.781 -1.57337 -1.03086 0
M  V30 4140 O 397.139 -0.730621 -1.65927 0
M  V30 4141 C 397.187 -3.58577 0.381468 0
M  V30 4142 O 396.291 -4.07706 -0.62042 0
M  V30 4143 H 395.632 -0.64756 0.146838 0
M  V30 4144 H 398.162 -1.76221 1.03959 0
M  V30 4145 H 398.172 -4.07314 0.236448 0
M  V30 4146 H 396.847 -3.9237 1.37907 0
M  V30 4147 H 395.424 -3.70306 -0.439056 0
M  V30 4148 N 397.609 -0.515225 -1.4894 0
M  V30 4149 C 398.541 0.292481 -2.27326 0
M  V30 4150 C 399.554 0.917838 -1.3446 0
M  V30 4151 O 400.743 0.798772 -1.5963 0
M  V30 4152 C 397.843 1.42803 -3.07344 0
M  V30 4153 C 397.016 0.907347 -4.27885 0
M  V30 4154 C 396.075 1.92222 -4.89834 0
M  V30 4155 O 395.101 1.48506 -5.49486 0
M  V30 4156 N 396.303 3.25355 -4.80754 0
M  V30 4157 H 399.068 -0.379721 -2.97285 0
M  V30 4158 H 396.629 -0.348638 -1.58102 0
M  V30 4159 H 398.621 2.10481 -3.45658 0
M  V30 4160 H 397.191 2.00414 -2.39902 0
M  V30 4161 H 396.411 0.0550218 -3.94162 0
M  V30 4162 H 397.699 0.538108 -5.05946 0
M  V30 4163 H 397.097 3.6355 -4.33414 0
M  V30 4164 H 395.654 3.88707 -5.23211 0
M  V30 4165 N 399.087 1.5561 -0.249682 0
M  V30 4166 C 400.336 1.98187 0.37479 0
M  V30 4167 C 400.649 1.14111 1.58865 0
M  V30 4168 O 401.855 1.46714 2.28445 0
M  V30 4169 C 400.311 3.52661 0.718192 0
M  V30 4170 C 399.919 4.45481 -0.474428 0
M  V30 4171 C 401.663 4.03888 1.3067 0
M  V30 4172 C 399.57 5.91303 -0.107026 0
M  V30 4173 H 398.5 0.740159 0.143808 0
M  V30 4174 H 401.151 1.80125 -0.350336 0
M  V30 4175 H 399.533 3.66429 1.50152 0
M  V30 4176 H 400.707 4.43473 -1.25172 0
M  V30 4177 H 399.022 4.04751 -0.978052 0
M  V30 4178 H 401.619 5.10358 1.59496 0
M  V30 4179 H 401.962 3.51401 2.23211 0
M  V30 4180 H 402.495 3.93457 0.586211 0
M  V30 4181 H 399.234 6.47833 -0.999642 0
M  V30 4182 H 398.754 5.9644 0.634013 0
M  V30 4183 H 400.433 6.46258 0.309807 0
M  V30 4184 N 400.565 -0.0233959 1.57583 0
M  V30 4185 C 401.814 -0.712133 1.8871 0
M  V30 4186 C 402.127 -1.76217 0.848944 0
M  V30 4187 O 403.333 -2.50389 1.04964 0
M  V30 4188 C 401.789 -1.3177 3.3491 0
M  V30 4189 C 401.397 -0.303715 4.46969 0
M  V30 4190 C 403.141 -1.98598 3.75179 0
M  V30 4191 C 401.048 -0.917945 5.84233 0
M  V30 4192 H 399.978 -0.269735 0.704101 0
M  V30 4193 H 402.629 0.0333114 1.8347 0
M  V30 4194 H 401.011 -2.11304 3.34913 0
M  V30 4195 H 402.185 0.465325 4.58445 0
M  V30 4196 H 400.5 0.2628 4.1557 0
M  V30 4197 H 403.097 -2.45416 4.75053 0
M  V30 4198 H 403.44 -2.80659 3.07468 0
M  V30 4199 H 403.973 -1.25831 3.77374 0
M  V30 4200 H 400.712 -0.136633 6.55358 0
M  V30 4201 H 400.232 -1.65669 5.76467 0
M  V30 4202 H 401.911 -1.4236 6.31144 0
M  V30 4203 N 402.043 -1.548 -0.295768 0
M  V30 4204 C 403.459 -1.4613 -0.641722 0
M  V30 4205 C 403.659 -0.656771 -1.90496 0
M  V30 4206 O 402.715 -0.166547 -2.5195 0
M  V30 4207 C 404.028 -2.90141 -0.789852 0
M  V30 4208 C 405.576 -3.00216 -0.885396 0
M  V30 4209 C 406.051 -4.45434 -1.06548 0
M  V30 4210 N 407.542 -4.49166 -1.13156 0
M  V30 4211 C 408.277 -5.58717 -1.28929 0
M  V30 4212 N 407.773 -6.78182 -1.41567 0
M  V30 4213 N 409.566 -5.46415 -1.31859 0
M  V30 4214 H 401.717 -2.05574 0.534147 0
M  V30 4215 H 403.98 -0.931259 0.177372 0
M  V30 4216 H 403.686 -3.51635 0.0675598 0
M  V30 4217 H 403.56 -3.37859 -1.67724 0
M  V30 4218 H 405.947 -2.38833 -1.73329 0
M  V30 4219 H 406.028 -2.55787 0.0261185 0
M  V30 4220 H 405.672 -5.07413 -0.222335 0
M  V30 4221 H 405.602 -4.87499 -1.9913 0
M  V30 4222 H 408.093 -3.631 -1.04721 0
M  V30 4223 H 408.406 -7.57428 -1.53372 0
M  V30 4224 H 406.751 -6.81037 -1.38613 0
M  V30 4225 H 409.942 -4.5203 -1.21601 0
M  V30 4226 H 410.115 -6.31841 -1.43808 0
M  V30 4227 N 403.521 0.559213 -1.47345 0
M  V30 4228 C 404.769 1.31388 -1.53563 0
M  V30 4229 C 405.09 1.93985 -0.198678 0
M  V30 4230 O 404.36 1.79825 0.777167 0
M  V30 4231 H 402.94 0.487901 -0.565652 0
M  V30 4232 H 405.602 0.65315 -1.8363 0
M  V30 4233 H 404.698 2.10844 -2.30111 0
M  V30 4234 N 404.999 1.35443 0.805782 0
M  V30 4235 C 405.909 1.30546 1.94923 0
M  V30 4236 C 406.925 0.210233 1.72725 0
M  V30 4237 O 408.101 0.43975 1.9654 0
M  V30 4238 C 405.166 1.07782 3.29521 0
M  V30 4239 C 404.227 2.26625 3.64609 0
M  V30 4240 C 403.46 2.04938 4.92784 0
M  V30 4241 O 403.683 1.01624 5.61274 0
M  V30 4242 O 402.617 2.9232 5.26149 0
M  V30 4243 H 406.443 2.26779 2.02002 0
M  V30 4244 H 404.028 1.15823 0.943682 0
M  V30 4245 H 405.91 0.969392 4.10098 0
M  V30 4246 H 404.585 0.146003 3.23371 0
M  V30 4247 H 403.492 2.43033 2.84404 0
M  V30 4248 H 404.825 3.18257 3.75464 0
M  V30 4249 N 406.477 -1.02803 1.19454 0
M  V30 4250 C 407.893 -1.28473 0.946937 0
M  V30 4251 C 408.093 -1.97881 -0.380202 0
M  V30 4252 O 407.149 -2.26719 -1.11151 0
M  V30 4253 C 408.462 -2.13099 2.12154 0
M  V30 4254 C 410.01 -2.26404 2.16126 0
M  V30 4255 C 410.485 -3.14402 3.33039 0
M  V30 4256 N 411.976 -3.21991 3.32981 0
M  V30 4257 C 412.711 -3.90272 4.20089 0
M  V30 4258 N 412.207 -4.60777 5.17355 0
M  V30 4259 N 414 -3.8668 4.07964 0
M  V30 4260 H 406.151 -0.561665 2.04839 0
M  V30 4261 H 408.414 -0.310438 0.89573 0
M  V30 4262 H 408.12 -1.69422 3.08203 0
M  V30 4263 H 407.994 -3.13813 2.09287 0
M  V30 4264 H 410.381 -2.69311 1.20647 0
M  V30 4265 H 410.462 -1.25237 2.23045 0
M  V30 4266 H 410.106 -2.72204 4.28798 0
M  V30 4267 H 410.036 -4.1563 3.23356 0
M  V30 4268 H 412.527 -2.71778 2.62574 0
M  V30 4269 H 412.84 -5.10513 5.80169 0
M  V30 4270 H 411.185 -4.5964 5.21302 0
M  V30 4271 H 414.376 -3.30739 3.31254 0
M  V30 4272 H 414.549 -4.39621 4.76064 0
M  V30 4273 N 407.956 -0.998596 -1.21925 0
M  V30 4274 C 409.372 -0.710303 -1.42923 0
M  V30 4275 C 409.572 0.716933 -1.88314 0
M  V30 4276 O 408.628 1.48712 -2.04062 0
M  V30 4277 C 409.941 -1.72072 -2.466 0
M  V30 4278 C 411.489 -1.73681 -2.60392 0
M  V30 4279 C 411.964 -2.73601 -3.67296 0
M  V30 4280 N 413.455 -2.7223 -3.7476 0
M  V30 4281 C 414.19 -3.46206 -4.57087 0
M  V30 4282 N 413.686 -4.29802 -5.43362 0
M  V30 4283 N 415.479 -3.34886 -4.51451 0
M  V30 4284 H 407.63 -1.92028 -0.9077 0
M  V30 4285 H 409.893 -0.828487 -0.460775 0
M  V30 4286 H 409.599 -2.74231 -2.20206 0
M  V30 4287 H 409.473 -1.51818 -3.45299 0
M  V30 4288 H 411.86 -0.722173 -2.86127 0
M  V30 4289 H 411.941 -1.98005 -1.61949 0
M  V30 4290 H 411.585 -3.75217 -3.42307 0
M  V30 4291 H 411.515 -2.46545 -4.65321 0
M  V30 4292 H 414.006 -2.11576 -3.1312 0
M  V30 4293 H 414.319 -4.83061 -6.03218 0
M  V30 4294 H 412.664 -4.33887 -5.42925 0
M  V30 4295 H 415.855 -2.69015 -3.83078 0
M  V30 4296 H 416.028 -3.92796 -5.15379 0
M  V30 4297 N 409.434 1.37368 -0.772513 0
M  V30 4298 C 410.682 1.99279 -0.336516 0
M  V30 4299 C 411.003 1.6163 1.09091 0
M  V30 4300 O 410.273 0.882109 1.74916 0
M  V30 4301 H 408.853 0.737063 -0.121435 0
M  V30 4302 H 411.515 1.67836 -0.990809 0
M  V30 4303 H 410.611 3.09332 -0.414763 0
M  V30 4304 N 410.912 0.523116 1.48665 0
M  V30 4305 C 411.875 -0.232592 2.28017 0
M  V30 4306 C 412.875 -0.874021 1.34972 0
M  V30 4307 O 414.065 -0.735132 1.57929 0
M  V30 4308 C 411.197 -1.33586 3.13636 0
M  V30 4309 H 412.39 0.464008 2.96289 0
M  V30 4310 H 409.943 0.278816 1.53793 0
M  V30 4311 H 410.678 -2.06593 2.4998 0
M  V30 4312 H 410.463 -0.881125 3.82071 0
M  V30 4313 H 411.953 -1.86759 3.73511 0
M  V30 4314 N 412.39 -1.55475 0.257931 0
M  V30 4315 C 413.801 -1.8511 -0.243135 0
M  V30 4316 C 414.152 -1.17986 -1.5676 0
M  V30 4317 O 413.277 -0.462102 -2.11409 0
M  V30 4318 C 413.872 -3.35826 -0.447929 0
M  V30 4319 C 412.431 -3.65647 -0.893245 0
M  V30 4320 C 411.578 -2.7729 0.0232965 0
M  V30 4321 H 414.529 -1.51261 0.480199 0
M  V30 4322 H 414.55 -3.58002 -1.28898 0
M  V30 4323 H 414.062 -3.84652 0.516196 0
M  V30 4324 H 412.163 -3.22308 -1.86945 0
M  V30 4325 H 412.276 -4.73312 -0.742469 0
M  V30 4326 H 410.64 -2.49942 -0.490021 0
M  V30 4327 H 411.423 -3.28926 0.982994 0
M  V30 4328 N 413.868 0.0150385 -1.57593 0
M  V30 4329 C 414.8 1.03912 -2.04291 0
M  V30 4330 C 415.813 1.31618 -0.958146 0
M  V30 4331 O 417.002 1.28859 -1.23522 0
M  V30 4332 C 414.102 2.37749 -2.41514 0
M  V30 4333 C 413.275 2.29198 -3.72541 0
M  V30 4334 C 412.334 3.45598 -3.96797 0
M  V30 4335 O 411.36 3.24461 -4.67668 0
M  V30 4336 N 412.562 4.67945 -3.43523 0
M  V30 4337 H 415.327 0.64099 -2.92765 0
M  V30 4338 H 412.888 0.20272 -1.60626 0
M  V30 4339 H 414.88 3.14364 -2.54867 0
M  V30 4340 H 413.45 2.69357 -1.58637 0
M  V30 4341 H 412.67 1.3759 -3.69408 0
M  V30 4342 H 413.958 2.20642 -4.5847 0
M  V30 4343 H 413.356 4.88017 -2.86104 0
M  V30 4344 H 411.913 5.41878 -3.62232 0
M  V30 4345 N 415.346 1.54954 0.287554 0
M  V30 4346 C 416.623 1.65569 1.04146 0
M  V30 4347 C 417.003 0.512672 2.0478 0
M  V30 4348 O 416.351 -0.489038 2.23205 0
M  V30 4349 C 416.561 3.04163 1.71131 0
M  V30 4350 C 417.909 3.61429 2.22832 0
M  V30 4351 O 418.933 3.06702 1.81141 0
M  V30 4352 O 417.792 4.57281 2.9926 0
M  V30 4353 H 414.886 0.671881 0.482188 0
M  V30 4354 H 417.432 1.67297 0.28457 0
M  V30 4355 H 416.204 3.78796 0.981303 0
M  V30 4356 H 415.827 3.06271 2.53543 0
M  V30 4357 N 416.824 -0.551391 1.4764 0
M  V30 4358 C 417.787 -1.64007 1.60107 0
M  V30 4359 C 418.787 -1.53601 0.47576 0
M  V30 4360 O 419.977 -1.57655 0.740988 0
M  V30 4361 C 417.109 -3.03569 1.55108 0
M  V30 4362 H 418.302 -1.543 2.57161 0
M  V30 4363 H 415.855 -0.771776 1.35917 0
M  V30 4364 H 416.59 -3.18804 0.594519 0
M  V30 4365 H 416.375 -3.12532 2.36783 0
M  V30 4366 H 417.865 -3.82762 1.66982 0
M  V30 4367 N 418.302 -1.35869 -0.798587 0
M  V30 4368 C 419.212 -1.31578 -1.94228 0
M  V30 4369 C 420.228 -0.21939 -1.72611 0
M  V30 4370 O 421.404 -0.450167 -1.96305 0
M  V30 4371 C 418.469 -1.09528 -3.28944 0
M  V30 4372 C 417.53 -2.28556 -3.63402 0
M  V30 4373 C 416.763 -2.07549 -4.9169 0
M  V30 4374 O 416.986 -1.046 -5.60727 0
M  V30 4375 O 415.92 -2.95106 -5.24591 0
M  V30 4376 H 419.746 -2.27847 -2.00796 0
M  V30 4377 H 417.331 -1.16322 -0.937526 0
M  V30 4378 H 419.213 -0.991127 -4.09579 0
M  V30 4379 H 417.888 -0.16315 -3.23289 0
M  V30 4380 H 416.795 -2.44538 -2.83112 0
M  V30 4381 H 418.128 -3.20244 -3.73771 0
M  V30 4382 N 419.78 1.02168 -1.19998 0
M  V30 4383 C 420.712 2.10705 -0.901994 0
M  V30 4384 C 421.725 1.6244 0.108216 0
M  V30 4385 O 422.914 1.78082 -0.12214 0
M  V30 4386 C 420.014 3.37291 -0.329834 0
M  V30 4387 C 419.187 4.14714 -1.39035 0
M  V30 4388 C 418.246 5.19606 -0.830432 0
M  V30 4389 O 417.272 5.48809 -1.50989 0
M  V30 4390 N 418.474 5.79366 0.362696 0
M  V30 4391 H 421.239 2.36856 -1.83628 0
M  V30 4392 H 418.8 1.18518 -1.10296 0
M  V30 4393 H 420.792 4.04657 0.0587633 0
M  V30 4394 H 419.362 3.0843 0.508891 0
M  V30 4395 H 418.582 3.42392 -1.9535 0
M  V30 4396 H 419.87 4.63226 -2.10474 0
M  V30 4397 H 419.268 5.57968 0.932081 0
M  V30 4398 H 417.825 6.48106 0.69299 0
M  V30 4399 N 421.258 1.00505 1.21394 0
M  V30 4400 C 422.191 0.51032 2.22421 0
M  V30 4401 C 423.169 -0.436 1.56645 0
M  V30 4402 O 424.353 -0.358709 1.85055 0
M  V30 4403 C 421.48 -0.258733 3.3771 0
M  V30 4404 C 420.526 0.635395 4.2174 0
M  V30 4405 S 421.359 2.09783 4.92698 0
M  V30 4406 C 422.515 1.33862 6.11418 0
M  V30 4407 H 422.748 1.36637 2.64041 0
M  V30 4408 H 420.281 0.812991 1.31262 0
M  V30 4409 H 422.239 -0.696372 4.0455 0
M  V30 4410 H 420.9 -1.0902 2.94573 0
M  V30 4411 H 420.093 0.0430189 5.03982 0
M  V30 4412 H 419.695 1.01031 3.60095 0
M  V30 4413 H 421.987 0.612541 6.74725 0
M  V30 4414 H 422.93 2.13675 6.75092 0
M  V30 4415 H 423.338 0.846568 5.58116 0
M  V30 4416 N 422.737 -1.36956 0.779787 0
M  V30 4417 C 423.985 -1.99097 0.347079 0
M  V30 4418 C 424.306 -1.62206 -1.08232 0
M  V30 4419 O 423.576 -0.891373 -1.74446 0
M  V30 4420 H 422.156 -0.736409 0.125342 0
M  V30 4421 H 424.818 -1.67308 0.999696 0
M  V30 4422 H 423.914 -3.09107 0.431162 0
M  V30 4423 N 424.215 -0.530993 -1.48385 0
M  V30 4424 C 425.464 0.00474348 -2.01699 0
M  V30 4425 C 425.777 1.35227 -1.41325 0
M  V30 4426 O 426.983 1.97643 -1.86144 0
M  V30 4427 C 425.439 0.0588473 -3.59852 0
M  V30 4428 C 425.047 -1.28385 -4.2921 0
M  V30 4429 C 426.791 0.543358 -4.21008 0
M  V30 4430 C 424.698 -1.19028 -5.79298 0
M  V30 4431 H 423.628 0.00554317 -0.75398 0
M  V30 4432 H 426.279 -0.674924 -1.70637 0
M  V30 4433 H 424.661 0.803612 -3.8776 0
M  V30 4434 H 425.835 -2.04426 -4.12973 0
M  V30 4435 H 424.15 -1.70418 -3.7993 0
M  V30 4436 H 426.747 0.631351 -5.3096 0
M  V30 4437 H 427.09 1.54937 -3.86394 0
M  V30 4438 H 427.623 -0.145754 -3.97533 0
M  V30 4439 H 424.362 -2.17147 -6.18488 0
M  V30 4440 H 423.882 -0.471246 -5.97946 0
M  V30 4441 H 425.561 -0.881365 -6.40969 0
M  V30 4442 N 425.693 1.55336 -0.266172 0
M  V30 4443 C 426.918 2.04258 0.359661 0
M  V30 4444 C 427.343 1.14359 1.49344 0
M  V30 4445 O 426.701 0.140369 1.80756 0
M  V30 4446 C 426.749 3.50997 0.826635 0
M  V30 4447 O 425.853 3.64204 1.93466 0
M  V30 4448 H 425.194 0.659668 0.075727 0
M  V30 4449 H 427.724 2.00694 -0.39786 0
M  V30 4450 H 427.734 3.9219 1.12477 0
M  V30 4451 H 426.409 4.159 -0.00293032 0
M  V30 4452 H 424.986 3.34913 1.63974 0
M  V30 4453 N 427.171 -0.0066808 1.57599 0
M  V30 4454 C 428.101 -0.999296 2.11036 0
M  V30 4455 C 429.082 -1.36278 1.01795 0
M  V30 4456 O 430.267 -1.4477 1.29442 0
M  V30 4457 C 427.397 -2.29328 2.60818 0
M  V30 4458 C 426.351 -2.07159 3.74525 0
M  V30 4459 C 425.677 -3.42512 4.10596 0
M  V30 4460 C 426.977 -1.43959 5.02069 0
M  V30 4461 H 428.671 -0.554382 2.94223 0
M  V30 4462 H 426.217 -0.265221 1.41536 0
M  V30 4463 H 428.17 -2.99117 2.96828 0
M  V30 4464 H 426.894 -2.7592 1.74745 0
M  V30 4465 H 425.553 -1.39797 3.38899 0
M  V30 4466 H 425.201 -3.86795 3.21556 0
M  V30 4467 H 424.901 -3.28498 4.87199 0
M  V30 4468 H 426.425 -4.13628 4.4916 0
M  V30 4469 H 427.839 -2.03696 5.35893 0
M  V30 4470 H 426.236 -1.40452 5.83432 0
M  V30 4471 H 427.306 -0.407992 4.83181 0
M  V30 4472 N 428.649 -1.55105 -0.279332 0
M  V30 4473 C 429.612 -1.86783 -1.32834 0
M  V30 4474 C 430.612 -0.74199 -1.42657 0
M  V30 4475 O 431.802 -1.0102 -1.41918 0
M  V30 4476 C 428.934 -2.06746 -2.71052 0
M  V30 4477 H 430.127 -2.8055 -1.05979 0
M  V30 4478 H 427.68 -1.47499 -0.517087 0
M  V30 4479 H 428.415 -1.15339 -3.03097 0
M  V30 4480 H 428.2 -2.88711 -2.65309 0
M  V30 4481 H 429.69 -2.32549 -3.46858 0
M  V30 4482 N 430.127 0.543554 -1.4793 0
M  V30 4483 C 431.037 1.67657 -1.64098 0
M  V30 4484 C 432.053 1.65934 -0.523622 0
M  V30 4485 O 433.229 1.85133 -0.792943 0
M  V30 4486 C 430.294 3.04146 -1.66421 0
M  V30 4487 C 429.355 3.16831 -2.89684 0
M  V30 4488 C 428.588 4.46809 -2.91886 0
M  V30 4489 O 428.811 5.33095 -2.02895 0
M  V30 4490 O 427.745 4.63573 -3.83906 0
M  V30 4491 H 431.571 1.56957 -2.59997 0
M  V30 4492 H 429.156 0.715116 -1.31173 0
M  V30 4493 H 431.038 3.85346 -1.70548 0
M  V30 4494 H 429.713 3.152 -0.736923 0
M  V30 4495 H 428.62 2.34977 -2.91095 0
M  V30 4496 H 429.953 3.10687 -3.81752 0
M  V30 4497 N 431.605 1.3629 0.791371 0
M  V30 4498 C 432.515 1.32606 1.93527 0
M  V30 4499 C 433.531 0.228541 1.72493 0
M  V30 4500 O 434.707 0.460571 1.96063 0
M  V30 4501 C 431.772 1.11271 3.28359 0
M  V30 4502 C 430.833 2.3048 3.62185 0
M  V30 4503 C 430.066 2.10154 4.90583 0
M  V30 4504 O 430.289 1.07572 5.60165 0
M  V30 4505 O 429.223 2.97884 5.23019 0
M  V30 4506 H 433.049 2.28909 1.99585 0
M  V30 4507 H 430.634 1.16818 0.931344 0
M  V30 4508 H 432.516 1.01283 4.09047 0
M  V30 4509 H 431.191 0.180292 3.23198 0
M  V30 4510 H 430.098 2.46036 2.81811 0
M  V30 4511 H 431.431 3.22221 3.72068 0
M  V30 4512 N 433.083 -1.0153 1.20538 0
M  V30 4513 C 434.013 -2.11972 0.979295 0
M  V30 4514 C 434.994 -1.6985 -0.0921787 0
M  V30 4515 O 436.179 -1.94089 0.0655932 0
M  V30 4516 C 433.309 -3.43201 0.531984 0
M  V30 4517 C 432.263 -3.9907 1.54685 0
M  V30 4518 C 431.589 -5.26082 0.956127 0
M  V30 4519 C 432.889 -4.32313 2.93092 0
M  V30 4520 H 434.583 -2.31143 1.90298 0
M  V30 4521 H 432.129 -1.11079 0.916372 0
M  V30 4522 H 434.082 -4.1985 0.361044 0
M  V30 4523 H 432.806 -3.23792 -0.427327 0
M  V30 4524 H 431.465 -3.2453 1.70517 0
M  V30 4525 H 431.113 -5.02999 -0.0111538 0
M  V30 4526 H 430.813 -5.64426 1.63393 0
M  V30 4527 H 432.337 -6.05386 0.796284 0
M  V30 4528 H 433.751 -4.99845 2.80763 0
M  V30 4529 H 432.148 -4.81774 3.57791 0
M  V30 4530 H 433.218 -3.41025 3.44717 0
M  V30 4531 N 434.561 -1.01147 -1.20859 0
M  V30 4532 C 435.491 -0.597663 -2.25722 0
M  V30 4533 C 436.472 0.384744 -1.65692 0
M  V30 4534 O 437.657 0.271303 -1.92296 0
M  V30 4535 C 434.787 0.0700149 -3.47229 0
M  V30 4536 C 433.741 -0.832843 -4.19819 0
M  V30 4537 C 433.067 -0.0312202 -5.34691 0
M  V30 4538 C 434.367 -2.1385 -4.76514 0
M  V30 4539 H 436.061 -1.47423 -2.60589 0
M  V30 4540 H 433.607 -0.710301 -1.25263 0
M  V30 4541 H 435.56 0.37103 -4.19763 0
M  V30 4542 H 434.284 0.981259 -3.11511 0
M  V30 4543 H 432.943 -1.11778 -3.49144 0
M  V30 4544 H 432.591 0.881515 -4.95215 0
M  V30 4545 H 432.291 -0.632434 -5.84187 0
M  V30 4546 H 433.815 0.26346 -6.10031 0
M  V30 4547 H 435.229 -1.9002 -5.40893 0
M  V30 4548 H 433.626 -2.69012 -5.36426 0
M  V30 4549 H 434.696 -2.80495 -3.95538 0
M  V30 4550 N 436.039 1.36541 -0.78704 0
M  V30 4551 C 436.987 2.31965 -0.171724 0
M  V30 4552 C 437.981 1.55689 0.667631 0
M  V30 4553 O 439.187 1.70969 0.562981 0
M  V30 4554 H 435.562 0.751101 -0.0367545 0
M  V30 4555 H 437.533 2.81428 -0.992017 0
M  V30 4556 C 436.282 3.40968 0.680904 0
M  V30 4557 H 435.605 3.99775 0.0443961 0
M  V30 4558 H 437.045 4.10063 1.07815 0
M  V30 4559 C 435.504 2.82338 1.83813 0
M  V30 4560 O 436.034 2.74311 2.93456 0
M  V30 4561 N 434.24 2.39661 1.6435 0
M  V30 4562 H 433.787 2.46389 0.751668 0
M  V30 4563 H 433.745 2.00779 2.4194 0
M  V30 4564 N 437.518 0.538854 1.48102 0
M  V30 4565 C 438.466 -0.232325 2.31437 0
M  V30 4566 C 439.46 -0.927004 1.41785 0
M  V30 4567 O 440.666 -0.850378 1.58646 0
M  V30 4568 H 437.041 -0.0937916 0.746128 0
M  V30 4569 H 439.012 0.489986 2.9435 0
M  V30 4570 C 437.761 -1.26074 3.24038 0
M  V30 4571 H 437.084 -0.735609 3.92974 0
M  V30 4572 H 438.524 -1.77157 3.85216 0
M  V30 4573 C 436.983 -2.29902 2.46265 0
M  V30 4574 O 437.513 -3.36502 2.19384 0
M  V30 4575 N 435.719 -2.03348 2.07601 0
M  V30 4576 H 435.266 -1.16675 2.29662 0
M  V30 4577 H 435.224 -2.73038 1.55877 0
M  V30 4578 N 438.996 -1.55193 0.274407 0
M  V30 4579 C 440.244 -1.99187 -0.341902 0
M  V30 4580 C 440.565 -1.16422 -1.56431 0
M  V30 4581 O 439.835 -0.253573 -1.94252 0
M  V30 4582 H 438.415 -0.735721 -0.129317 0
M  V30 4583 H 441.077 -1.91168 0.379578 0
M  V30 4584 H 440.173 -3.05629 -0.632253 0
M  V30 4585 N 440.474 -0.00167713 -1.576 0
M  V30 4586 C 441.437 0.974046 -2.07473 0
M  V30 4587 C 442.437 1.27143 -0.984444 0
M  V30 4588 O 443.627 1.21633 -1.24703 0
M  V30 4589 C 440.759 2.29849 -2.51759 0
M  V30 4590 H 441.952 0.54262 -2.9495 0
M  V30 4591 H 439.505 0.245829 -1.54355 0
M  V30 4592 H 440.24 2.77677 -1.67529 0
M  V30 4593 H 440.025 2.09584 -3.31386 0
M  V30 4594 H 441.515 2.9984 -2.90664 0
M  V30 4595 N 441.952 1.55251 0.271103 0
M  V30 4596 C 443.368 1.47133 0.618393 0
M  V30 4597 C 443.568 0.686994 1.89427 0
M  V30 4598 O 442.624 0.206609 2.51653 0
M  V30 4599 C 443.937 2.91361 0.743593 0
M  V30 4600 C 445.485 3.01587 0.837522 0
M  V30 4601 C 445.96 4.47073 0.994483 0
M  V30 4602 N 447.451 4.50909 1.05996 0
M  V30 4603 C 448.186 5.60698 1.20024 0
M  V30 4604 N 447.682 6.80348 1.30759 0
M  V30 4605 N 449.475 5.48444 1.23149 0
M  V30 4606 H 441.626 2.04698 -0.566784 0
M  V30 4607 H 443.889 0.928319 -0.192165 0
M  V30 4608 H 443.595 3.51483 -0.123493 0
M  V30 4609 H 443.469 3.40484 1.62328 0
M  V30 4610 H 445.856 2.4156 1.69507 0
M  V30 4611 H 445.937 2.55713 -0.0668086 0
M  V30 4612 H 445.581 5.07703 0.141582 0
M  V30 4613 H 445.511 4.90605 1.91349 0
M  V30 4614 H 448.002 3.6472 0.989316 0
M  V30 4615 H 448.315 7.59772 1.41303 0
M  V30 4616 H 446.66 6.83156 1.27761 0
M  V30 4617 H 449.851 4.53907 1.14394 0
M  V30 4618 H 450.024 6.34049 1.33738 0
M  V30 4619 N 443.43 -0.535701 1.48216 0
M  V30 4620 C 444.34 -1.66785 1.64985 0
M  V30 4621 C 445.356 -1.65654 0.532414 0
M  V30 4622 O 446.532 -1.8471 0.80275 0
M  V30 4623 C 443.597 -3.0326 1.68031 0
M  V30 4624 C 442.658 -3.1529 2.9136 0
M  V30 4625 C 441.891 -4.45255 2.94252 0
M  V30 4626 O 442.114 -5.32011 2.05719 0
M  V30 4627 O 441.048 -4.6153 3.86359 0
M  V30 4628 H 444.874 -1.55576 2.60825 0
M  V30 4629 H 442.459 -0.70815 1.31551 0
M  V30 4630 H 444.341 -3.84436 1.72589 0
M  V30 4631 H 443.016 -3.14805 0.753628 0
M  V30 4632 H 441.923 -2.3343 2.92337 0
M  V30 4633 H 443.256 -3.08658 3.83394 0
M  V30 4634 N 444.908 -1.36708 -0.784132 0
M  V30 4635 C 446.157 -1.30559 -1.53744 0
M  V30 4636 C 446.47 0.111374 -1.95283 0
M  V30 4637 O 447.676 0.29527 -2.6989 0
M  V30 4638 C 446.132 -2.29098 -2.77565 0
M  V30 4639 C 445.74 -3.76258 -2.43174 0
M  V30 4640 C 447.484 -2.31936 -3.55536 0
M  V30 4641 C 445.391 -4.6656 -3.63422 0
M  V30 4642 H 444.321 -0.48518 -0.577162 0
M  V30 4643 H 446.972 -1.62101 -0.859981 0
M  V30 4644 H 445.354 -1.90557 -3.47137 0
M  V30 4645 H 446.528 -4.23565 -1.81465 0
M  V30 4646 H 444.843 -3.76246 -1.78403 0
M  V30 4647 H 447.44 -2.9661 -4.44889 0
M  V30 4648 H 447.783 -1.3294 -3.94503 0
M  V30 4649 H 448.316 -2.6912 -2.92949 0
M  V30 4650 H 445.055 -5.66638 -3.29547 0
M  V30 4651 H 444.575 -4.23966 -4.24279 0
M  V30 4652 H 446.254 -4.8309 -4.30387 0
M  V30 4653 N 446.386 1.0089 -1.21074 0
M  V30 4654 C 447.316 2.1145 -0.990523 0
M  V30 4655 C 448.297 1.69897 0.0831699 0
M  V30 4656 O 449.482 1.94052 -0.0758853 0
M  V30 4657 C 446.612 3.42914 -0.550177 0
M  V30 4658 C 445.566 3.98244 -1.56799 0
M  V30 4659 C 444.892 5.25568 -0.984013 0
M  V30 4660 C 446.192 4.30752 -2.95381 0
M  V30 4661 H 447.886 2.3013 -1.91521 0
M  V30 4662 H 445.432 1.10592 -0.92225 0
M  V30 4663 H 447.385 4.19653 -0.383305 0
M  V30 4664 H 446.109 3.24014 0.41015 0
M  V30 4665 H 444.768 3.23621 -1.72236 0
M  V30 4666 H 444.416 5.02998 -0.0155216 0
M  V30 4667 H 444.116 5.63551 -1.66384 0
M  V30 4668 H 445.64 6.04955 -0.828378 0
M  V30 4669 H 447.054 4.98349 -2.8341 0
M  V30 4670 H 445.451 4.79869 -3.60341 0
M  V30 4671 H 446.521 3.39192 -3.46521 0
M  V30 4672 N 447.864 1.01787 1.20321 0
M  V30 4673 C 448.827 0.593972 2.2137 0
M  V30 4674 C 449.827 -0.336553 1.57239 0
M  V30 4675 O 451.017 -0.125069 1.7375 0
M  V30 4676 C 448.149 -0.132433 3.40643 0
M  V30 4677 H 449.342 1.48791 2.60387 0
M  V30 4678 H 446.895 0.807803 1.33807 0
M  V30 4679 H 447.63 -1.04123 3.0713 0
M  V30 4680 H 447.415 0.53605 3.88418 0
M  V30 4681 H 448.905 -0.416314 4.1552 0
M  V30 4682 N 449.342 -1.36122 0.79427 0
M  V30 4683 C 450.252 -2.33769 0.197296 0
M  V30 4684 C 451.268 -1.61276 -0.653153 0
M  V30 4685 O 452.444 -1.9323 -0.5678 0
M  V30 4686 C 449.509 -3.40474 -0.654098 0
M  V30 4687 C 448.57 -4.28759 0.215411 0
M  V30 4688 C 447.803 -5.30368 -0.595443 0
M  V30 4689 O 448.026 -5.40211 -1.83107 0
M  V30 4690 O 446.96 -6.019 0.00721351 0
M  V30 4691 H 450.786 -2.86597 1.00478 0
M  V30 4692 H 448.371 -1.38676 0.555818 0
M  V30 4693 H 450.253 -4.05703 -1.13944 0
M  V30 4694 H 448.928 -2.89937 -1.43938 0
M  V30 4695 H 447.835 -3.66554 0.747615 0
M  V30 4696 H 449.168 -4.82661 0.964332 0
M  V30 4697 N 450.82 -0.546701 -1.47814 0
M  V30 4698 C 452.066 -0.0187684 -2.02791 0
M  V30 4699 C 452.399 1.32338 -1.42128 0
M  V30 4700 O 451.674 1.85867 -0.573023 0
M  V30 4701 C 451.957 0.0854985 -3.59998 0
M  V30 4702 C 451.81 -1.283 -4.31114 0
M  V30 4703 C 453.129 0.80412 -4.32691 0
M  V30 4704 H 450.248 -0.0082946 -0.736953 0
M  V30 4705 H 452.89 -0.706962 -1.76358 0
M  V30 4706 H 451.04 0.671609 -3.82651 0
M  V30 4707 H 452.712 -1.91151 -4.19832 0
M  V30 4708 H 450.955 -1.86049 -3.91878 0
M  V30 4709 H 451.626 -1.16287 -5.39612 0
M  V30 4710 H 454.102 0.306576 -4.14969 0
M  V30 4711 H 452.978 0.846011 -5.42341 0
M  V30 4712 H 453.239 1.85802 -4.01161 0
M  V30 4713 N 452.299 1.55045 -0.282633 0
M  V30 4714 C 453.529 2.03872 0.334635 0
M  V30 4715 C 453.937 1.16018 1.49454 0
M  V30 4716 O 453.28 0.174449 1.8287 0
M  V30 4717 C 453.342 3.48791 0.870905 0
M  V30 4718 C 453.006 4.56715 -0.161338 0
M  V30 4719 C 454.003 5.10513 -0.983466 0
M  V30 4720 C 451.688 5.01417 -0.297745 0
M  V30 4721 C 453.682 6.07538 -1.92811 0
M  V30 4722 C 451.369 5.98265 -1.24586 0
M  V30 4723 C 452.367 6.51208 -2.05954 0
M  V30 4724 O 452.055 7.46162 -2.99162 0
M  V30 4725 H 451.787 0.671324 0.0793742 0
M  V30 4726 H 454.341 2.01169 -0.41473 0
M  V30 4727 H 452.571 3.48758 1.67047 0
M  V30 4728 H 454.26 3.80916 1.40207 0
M  V30 4729 H 455.026 4.76785 -0.888856 0
M  V30 4730 H 450.905 4.59849 0.325604 0
M  V30 4731 H 454.449 6.48787 -2.56363 0
M  V30 4732 H 450.346 6.31412 -1.34126 0
M  V30 4733 H 451.114 7.63903 -2.93929 0
M  V30 4734 N 453.777 0.010035 1.57597 0
M  V30 4735 C 454.725 -0.996272 2.10184 0
M  V30 4736 C 455.719 -1.34942 1.02406 0
M  V30 4737 O 456.925 -1.33389 1.20861 0
M  V30 4738 H 453.3 -0.338982 0.671264 0
M  V30 4739 H 455.271 -0.527272 2.93705 0
M  V30 4740 C 454.02 -2.27599 2.62857 0
M  V30 4741 H 453.343 -2.01295 3.45428 0
M  V30 4742 H 454.783 -2.96265 3.0332 0
M  V30 4743 C 453.242 -2.99269 1.54725 0
M  V30 4744 O 453.772 -3.90644 0.93597 0
M  V30 4745 N 451.978 -2.61269 1.27228 0
M  V30 4746 H 451.525 -1.87043 1.77123 0
M  V30 4747 H 451.483 -3.09534 0.550999 0
M  V30 4748 N 455.255 -1.55392 -0.262866 0
M  V30 4749 C 456.503 -1.76127 -0.991147 0
M  V30 4750 C 456.824 -0.571083 -1.8645 0
M  V30 4751 O 456.094 0.413698 -1.91482 0
M  V30 4752 H 454.674 -0.649528 -0.368948 0
M  V30 4753 H 457.336 -1.9281 -0.284655 0
M  V30 4754 H 456.432 -2.6663 -1.62219 0
M  V30 4755 N 456.733 0.527833 -1.48498 0
M  V30 4756 C 458.01 1.28905 -1.47115 0
M  V30 4757 C 458.39 2.10297 -0.184007 0
M  V30 4758 O 457.738 2.12728 0.834218 0
M  V30 4759 C 457.948 2.16866 -2.73441 0
M  V30 4760 C 459.296 2.76936 -3.21857 0
M  V30 4761 O 460.32 2.27152 -2.74373 0
M  V30 4762 O 459.179 3.67496 -4.04486 0
M  V30 4763 H 456.273 0.581918 -0.587623 0
M  V30 4764 H 458.819 0.544311 -1.60734 0
M  V30 4765 H 457.591 1.56521 -3.58632 0
M  V30 4766 H 457.214 2.98583 -2.62553 0
M  V30 4767 N 458.211 1.37122 0.776871 0
M  V30 4768 C 459.174 1.32301 1.8716 0
M  V30 4769 C 460.174 0.228099 1.59174 0
M  V30 4770 O 461.364 0.483642 1.67352 0
M  V30 4771 C 458.496 1.054 3.24197 0
M  V30 4772 H 459.689 2.29673 1.92848 0
M  V30 4773 H 457.242 1.22077 0.97606 0
M  V30 4774 H 457.977 0.0853872 3.24188 0
M  V30 4775 H 457.762 1.84648 3.45901 0
M  V30 4776 H 459.252 1.04664 4.04271 0
M  V30 4777 N 459.689 -1.00246 1.21608 0
M  V30 4778 C 461.1 -1.55511 1.03312 0
M  V30 4779 C 461.451 -1.91946 -0.406332 0
M  V30 4780 O 460.576 -1.73753 -1.28992 0
M  V30 4781 C 461.171 -2.82576 1.86913 0
M  V30 4782 C 459.73 -3.34318 1.72941 0
M  V30 4783 C 458.877 -2.07487 1.83968 0
M  V30 4784 H 461.828 -0.824638 1.35593 0
M  V30 4785 H 461.849 -3.54559 1.38087 0
M  V30 4786 H 461.361 -2.56026 2.91672 0
M  V30 4787 H 459.462 -3.65797 0.70877 0
M  V30 4788 H 459.575 -4.05566 2.55055 0
M  V30 4789 H 457.939 -2.20603 1.27304 0
M  V30 4790 H 458.722 -1.83346 2.9024 0
M  V30 4791 N 461.167 -1.02423 -1.1978 0
M  V30 4792 C 462.13 -0.605703 -2.21052 0
M  V30 4793 C 463.13 0.328209 -1.57415 0
M  V30 4794 O 464.32 0.115853 -1.73814 0
M  V30 4795 C 461.452 0.114366 -3.40708 0
M  V30 4796 H 462.645 -1.5017 -2.59594 0
M  V30 4797 H 460.198 -0.814888 -1.33376 0
M  V30 4798 H 460.933 1.02492 -3.07678 0
M  V30 4799 H 460.718 -0.556641 -3.88129 0
M  V30 4800 H 462.208 0.394272 -4.15735 0
M  V30 4801 O 462.684 1.31512 -0.937375 0
M  V30 4802 H 463.375 1.85319 -0.563611 0
M  V30 END ATOM
M  V30 BEGIN BOND
M  V30 END BOND
M  V30 END CTAB
M  END
$$$$
