drugbank_target|P20711 Aromatic-L-amino-acid decarboxylase (DB00114; DB00190; DB00968; DB12783)
 OpenBabel12092120063D

  0  0  0     0  0            999 V3000
M  V30 BEGIN CTAB
M  V30 COUNTS 7562 7656 0 0 0
M  V30 BEGIN ATOM
M  V30 1 H -0.908 1.98254 -0.117106 0
M  V30 2 N 0 1.576 0 0
M  V30 3 C 0.933 2.03868 1.02534 0
M  V30 4 C 1.911 0.928543 1.3348 0
M  V30 5 O 3.095 1.19667 1.45644 0
M  V30 6 C 0.222 2.43627 2.35294 0
M  V30 7 C -0.732 3.65373 2.2001 0
M  V30 8 S 0.101 5.13292 1.52614 0
M  V30 9 C 1.257 5.56322 2.86805 0
M  V30 10 H 1.49 2.90518 0.631377 0
M  V30 11 H -0.977 1.52953 0.210867 0
M  V30 12 H 0.981 2.67203 3.11629 0
M  V30 13 H -0.358 1.57376 2.7183 0
M  V30 14 H -1.165 3.90944 3.18086 0
M  V30 15 H -1.563 3.418 1.51819 0
M  V30 16 H 0.729 5.58782 3.83104 0
M  V30 17 H 1.672 6.56266 2.65933 0
M  V30 18 H 2.08 4.83886 2.90714 0
M  V30 19 N 1.4781 -0.272755 1.55222 0
M  V30 20 C 2.4261 -1.35705 1.88909 0
M  V30 21 C 3.4201 -1.5112 0.765456 0
M  V30 22 O 4.6261 -1.52901 0.949802 0
M  V30 23 H 1.0011 -0.453868 0.59959 0
M  V30 24 H 2.9721 -1.04544 2.79487 0
M  V30 25 C 1.7211 -2.71049 2.17779 0
M  V30 26 H 1.0441 -2.59979 3.03728 0
M  V30 27 H 2.4841 -3.45858 2.45272 0
M  V30 28 C 0.9431 -3.22165 0.985473 0
M  V30 29 O 1.4731 -4.01096 0.220233 0
M  V30 30 N -0.3209 -2.7985 0.783108 0
M  V30 31 H -0.7739 -2.15775 1.40708 0
M  V30 32 H -0.8159 -3.14397 -0.0130392 0
M  V30 33 N 2.9562 -1.48159 -0.537278 0
M  V30 34 C 3.9192 -1.61665 -1.62472 0
M  V30 35 C 4.9192 -0.490395 -1.5314 0
M  V30 36 O 6.1092 -0.755998 -1.5694 0
M  V30 37 C 3.2412 -1.57997 -3.02076 0
M  V30 38 H 4.4342 -2.58621 -1.51839 0
M  V30 39 H 1.9872 -1.36647 -0.758771 0
M  V30 40 H 2.7222 -0.624913 -3.18222 0
M  V30 41 H 2.5072 -2.39755 -3.10258 0
M  V30 42 H 3.9972 -1.70627 -3.81151 0
M  V30 43 N 4.4343 0.785586 -1.36625 0
M  V30 44 C 5.6593 1.57963 -1.34397 0
M  V30 45 C 6.0843 1.87964 0.071526 0
M  V30 46 O 5.4423 1.48182 1.0446 0
M  V30 47 C 5.4903 2.87511 -2.17646 0
M  V30 48 O 4.5943 3.81281 -1.57158 0
M  V30 49 H 3.9353 0.479014 -0.459828 0
M  V30 50 H 6.4653 0.973411 -1.79961 0
M  V30 51 H 6.4753 3.36745 -2.30362 0
M  V30 52 H 5.1503 2.65002 -3.20541 0
M  V30 53 H 3.7273 3.39885 -1.53403 0
M  V30 54 N 5.9124 1.20967 1.01018 0
M  V30 55 C 6.8224 0.980157 2.13143 0
M  V30 56 C 7.8384 -0.0660665 1.73875 0
M  V30 57 O 9.0144 0.122821 2.01025 0
M  V30 58 C 6.0794 0.54216 3.42435 0
M  V30 59 C 5.1404 1.65999 3.95908 0
M  V30 60 C 4.3734 1.2428 5.19028 0
M  V30 61 O 4.5964 0.114196 5.70286 0
M  V30 62 O 3.5304 2.05271 5.65816 0
M  V30 63 H 7.3564 1.91913 2.35379 0
M  V30 64 H 4.9414 0.994099 1.11526 0
M  V30 65 H 6.8234 0.30744 4.20277 0
M  V30 66 H 5.4984 -0.36815 3.216 0
M  V30 67 H 4.4054 1.94906 3.19316 0
M  V30 68 H 5.7384 2.54753 4.21143 0
M  V30 69 N 7.3905 -1.2043 1.01659 0
M  V30 70 C 8.6375 -1.89797 0.705917 0
M  V30 71 C 8.9655 -1.78848 -0.764439 0
M  V30 72 O 8.2205 -1.16694 -1.57102 0
M  V30 73 C 8.5195 -3.40464 1.08714 0
M  V30 74 C 8.1855 -3.71614 2.5537 0
M  V30 75 C 6.8475 -3.79826 2.95441 0
M  V30 76 C 9.1995 -3.85915 3.50313 0
M  V30 77 C 6.5275 -3.99797 4.29394 0
M  V30 78 C 8.8795 -4.07396 4.83954 0
M  V30 79 C 7.5435 -4.13837 5.23732 0
M  V30 80 H 6.8135 -0.694518 0.258313 0
M  V30 81 H 9.4605 -1.42691 1.27717 0
M  V30 82 H 7.7655 -3.89385 0.434309 0
M  V30 83 H 9.4625 -3.92433 0.824461 0
M  V30 84 H 6.0525 -3.65822 2.23321 0
M  V30 85 H 10.2365 -3.78926 3.20513 0
M  V30 86 H 5.4925 -4.03018 4.59768 0
M  V30 87 H 9.6665 -4.17404 5.57447 0
M  V30 88 H 7.2935 -4.29064 6.27541 0
M  V30 89 N 8.8686 -0.792821 -1.36206 0
M  V30 90 C 10.2846 -0.474903 -1.52371 0
M  V30 91 C 10.4846 1.00622 -1.74578 0
M  V30 92 O 9.5406 1.79162 -1.77924 0
M  V30 93 C 10.8536 -1.3083 -2.70747 0
M  V30 94 C 12.4016 -1.30234 -2.84619 0
M  V30 95 C 12.8766 -2.11956 -4.06004 0
M  V30 96 N 14.3676 -2.09419 -4.13156 0
M  V30 97 C 15.1026 -2.69419 -5.06163 0
M  V30 98 N 14.5986 -3.3829 -6.04592 0
M  V30 99 N 16.3916 -2.59134 -4.98804 0
M  V30 100 H 8.5426 -1.75222 -1.20046 0
M  V30 101 H 10.8056 -0.745024 -0.586211 0
M  V30 102 H 10.5116 -2.35881 -2.6087 0
M  V30 103 H 10.3856 -0.95196 -3.6499 0
M  V30 104 H 12.7726 -0.259748 -2.93955 0
M  V30 105 H 12.8536 -1.69847 -1.91274 0
M  V30 106 H 12.4976 -3.16248 -3.97429 0
M  V30 107 H 12.4276 -1.69711 -4.98503 0
M  V30 108 H 14.9186 -1.59297 -3.42685 0
M  V30 109 H 15.2316 -3.81394 -6.7213 0
M  V30 110 H 13.5766 -3.42393 -6.04807 0
M  V30 111 H 16.7676 -2.04927 -4.20859 0
M  V30 112 H 16.9406 -3.06185 -5.711 0
M  V30 113 N 10.3467 1.47872 -0.545128 0
M  V30 114 C 11.7627 1.5829 -0.204032 0
M  V30 115 C 11.9627 1.54529 1.29317 0
M  V30 116 O 11.0187 1.44232 2.07252 0
M  V30 117 C 12.3317 2.89304 -0.819987 0
M  V30 118 C 13.8797 3.02864 -0.790105 0
M  V30 119 C 14.3547 4.3656 -1.38491 0
M  V30 120 N 15.8457 4.43165 -1.34755 0
M  V30 121 C 16.5807 5.45153 -1.77753 0
M  V30 122 N 16.0767 6.54016 -2.2855 0
M  V30 123 N 17.8697 5.36125 -1.68897 0
M  V30 124 H 10.0207 1.4856 -1.51802 0
M  V30 125 H 12.2837 0.706305 -0.632327 0
M  V30 126 H 11.9897 2.97757 -1.87173 0
M  V30 127 H 11.8637 3.75957 -0.305915 0
M  V30 128 H 14.2507 2.94014 0.252913 0
M  V30 129 H 14.3317 2.17782 -1.34181 0
M  V30 130 H 13.9757 4.46164 -2.42693 0
M  V30 131 H 13.9057 5.20353 -0.808754 0
M  V30 132 H 16.3967 3.65083 -0.975855 0
M  V30 133 H 16.7097 7.27994 -2.59314 0
M  V30 134 H 15.0547 6.54938 -2.32553 0
M  V30 135 H 18.2457 4.49975 -1.28998 0
M  V30 136 H 18.4187 6.15472 -2.02726 0
M  V30 137 N 11.8248 0.280983 1.55075 0
M  V30 138 C 13.2408 -0.0729964 1.59433 0
M  V30 139 C 13.4408 -1.5411 1.29817 0
M  V30 140 O 12.4968 -2.29086 1.06187 0
M  V30 141 C 13.8098 0.306921 2.9913 0
M  V30 142 C 15.3578 0.254023 3.11968 0
M  V30 143 C 15.8328 0.608467 4.5394 0
M  V30 144 N 17.3238 0.560241 4.59799 0
M  V30 145 C 18.0588 0.80722 5.6769 0
M  V30 146 N 17.5548 1.11912 6.83701 0
M  V30 147 N 19.3478 0.735623 5.57266 0
M  V30 148 H 11.4988 1.238 1.7259 0
M  V30 149 H 13.7618 0.500547 0.805082 0
M  V30 150 H 13.4678 1.32816 3.25657 0
M  V30 151 H 13.3418 -0.349363 3.75579 0
M  V30 152 H 15.7288 -0.75794 2.852 0
M  V30 153 H 15.8098 0.944649 2.37718 0
M  V30 154 H 15.4538 1.61814 4.81434 0
M  V30 155 H 15.3838 -0.104013 5.26497 0
M  V30 156 H 17.8748 0.329288 3.76463 0
M  V30 157 H 18.1878 1.29409 7.61888 0
M  V30 158 H 16.5328 1.15695 6.85303 0
M  V30 159 H 19.7238 0.491752 4.6551 0
M  V30 160 H 19.8968 0.931482 6.4127 0
M  V30 161 N 13.3029 -1.57598 0.00835791 0
M  V30 162 C 14.5509 -1.90551 -0.6734 0
M  V30 163 C 14.8719 -0.883301 -1.73847 0
M  V30 164 O 14.1419 0.0781442 -1.95744 0
M  V30 165 H 12.7219 -0.703312 -0.251717 0
M  V30 166 H 15.3839 -1.94833 0.0512592 0
M  V30 167 H 14.4799 -2.9056 -1.13935 0
M  V30 168 N 14.781 0.264519 -1.55364 0
M  V30 169 C 15.728 1.32717 -1.88825 0
M  V30 170 C 16.698 1.48675 -0.740605 0
M  V30 171 O 17.883 1.62945 -0.992657 0
M  V30 172 C 15.023 2.68089 -2.17307 0
M  V30 173 C 14.136 2.60284 -3.44785 0
M  V30 174 C 13.271 3.87892 -3.62924 0
M  V30 175 C 12.31 3.74631 -4.84064 0
M  V30 176 N 11.447 4.94092 -4.98816 0
M  V30 177 H 16.287 1.03481 -2.79456 0
M  V30 178 H 13.824 0.499757 -1.3835 0
M  V30 179 H 15.782 3.46864 -2.31821 0
M  V30 180 H 14.412 2.95509 -1.299 0
M  V30 181 H 13.464 1.73173 -3.38697 0
M  V30 182 H 14.776 2.46388 -4.33698 0
M  V30 183 H 13.93 4.75109 -3.77302 0
M  V30 184 H 12.669 4.04664 -2.7221 0
M  V30 185 H 11.674 2.85797 -4.69681 0
M  V30 186 H 12.899 3.5937 -5.76221 0
M  V30 187 H 10.845 5.11259 -4.11036 0
M  V30 188 H 10.762 4.8276 -5.81789 0
M  V30 189 H 12.03 5.82857 -5.17588 0
M  V30 190 N 16.2591 1.48442 0.529413 0
M  V30 191 C 17.1691 1.6569 1.66084 0
M  V30 192 C 18.1851 0.539432 1.65427 0
M  V30 193 O 19.3611 0.810572 1.84368 0
M  V30 194 C 16.4261 1.69315 3.02545 0
M  V30 195 C 15.4871 2.92694 3.14052 0
M  V30 196 C 14.7201 2.96137 4.44003 0
M  V30 197 O 14.9431 2.07973 5.31134 0
M  V30 198 O 13.8771 3.88312 4.59888 0
M  V30 199 H 17.7031 2.61483 1.54469 0
M  V30 200 H 15.2881 1.3185 0.702567 0
M  V30 201 H 17.1701 1.74217 3.83701 0
M  V30 202 H 15.8451 0.766966 3.14483 0
M  V30 203 H 14.7521 2.93324 2.32189 0
M  V30 204 H 16.0851 3.84699 3.0703 0
M  V30 205 N 17.7372 -0.778329 1.37039 0
M  V30 206 C 18.6702 -1.8984 1.26633 0
M  V30 207 C 19.6482 -1.61923 0.148197 0
M  V30 208 O 20.8322 -1.85742 0.321265 0
M  V30 209 C 17.9592 -3.24916 0.956403 0
M  V30 210 C 17.0052 -3.71752 2.09051 0
M  V30 211 S 17.8382 -3.86201 3.70957 0
M  V30 212 C 18.9942 -5.24135 3.42101 0
M  V30 213 H 19.2272 -1.98377 2.21436 0
M  V30 214 H 16.7602 -0.938738 1.22585 0
M  V30 215 H 18.7182 -4.02936 0.784409 0
M  V30 216 H 17.3792 -3.14089 0.0259713 0
M  V30 217 H 16.5722 -4.69661 1.8285 0
M  V30 218 H 16.1742 -3.00815 2.2223 0
M  V30 219 H 18.4662 -6.09086 2.96682 0
M  V30 220 H 19.4092 -5.55346 4.39314 0
M  V30 221 H 19.8172 -4.91761 2.77185 0
M  V30 222 N 19.2153 -1.21501 -1.00376 0
M  V30 223 C 20.4613 -1.03452 -1.74429 0
M  V30 224 C 20.7943 0.430764 -1.89362 0
M  V30 225 O 20.0693 1.31962 -1.42886 0
M  V30 226 C 20.3523 -1.73375 -3.15615 0
M  V30 227 C 20.2053 -3.27431 -3.08397 0
M  V30 228 C 21.5243 -1.47732 -4.14564 0
M  V30 229 H 18.6433 -0.377226 -0.633143 0
M  V30 230 H 21.2853 -1.49693 -1.17013 0
M  V30 231 H 19.4353 -1.34064 -3.64636 0
M  V30 232 H 21.1073 -3.76119 -2.67081 0
M  V30 233 H 19.3503 -3.5767 -2.45468 0
M  V30 234 H 20.0213 -3.71524 -4.08258 0
M  V30 235 H 22.4973 -1.8186 -3.74254 0
M  V30 236 H 21.3733 -1.99169 -5.11491 0
M  V30 237 H 21.6343 -0.407589 -4.40217 0
M  V30 238 N 20.6934 1.19889 -1.02296 0
M  V30 239 C 21.9704 1.85148 -0.630832 0
M  V30 240 C 22.3504 1.91385 0.890782 0
M  V30 241 O 21.6984 1.42642 1.78509 0
M  V30 242 C 21.9084 3.24442 -1.28602 0
M  V30 243 C 23.2564 4.00663 -1.4055 0
M  V30 244 O 24.2804 3.33818 -1.24273 0
M  V30 245 O 23.1394 5.20387 -1.66913 0
M  V30 246 H 20.2334 0.797613 -0.218499 0
M  V30 247 H 22.7794 1.27427 -1.12074 0
M  V30 248 H 21.5514 3.14704 -2.32545 0
M  V30 249 H 21.1744 3.89802 -0.7836 0
M  V30 250 N 22.1715 0.800033 1.35784 0
M  V30 251 C 23.4015 0.389041 2.02904 0
M  V30 252 C 23.8095 -1.0027 1.60445 0
M  V30 253 O 23.1525 -1.65633 0.794453 0
M  V30 254 C 23.2145 0.385495 3.57427 0
M  V30 255 C 22.8785 1.72662 4.23127 0
M  V30 256 C 23.8755 2.68385 4.4527 0
M  V30 257 C 21.5605 2.00883 4.60381 0
M  V30 258 C 23.5545 3.90517 5.03761 0
M  V30 259 C 21.2415 3.2328 5.18588 0
M  V30 260 C 22.2395 4.17915 5.40218 0
M  V30 261 O 21.9275 5.38153 5.97199 0
M  V30 262 H 21.6595 0.157032 0.657508 0
M  V30 263 H 24.2135 1.08311 1.74522 0
M  V30 264 H 22.4435 -0.365128 3.84972 0
M  V30 265 H 24.1325 -0.00228296 4.059 0
M  V30 266 H 24.8985 2.47872 4.16874 0
M  V30 267 H 20.7775 1.28037 4.42863 0
M  V30 268 H 24.3215 4.64395 5.2056 0
M  V30 269 H 20.2185 3.43667 5.4641 0
M  V30 270 H 20.9865 5.3936 6.15656 0
M  V30 271 N 23.6496 -1.47581 0.552962 0
M  V30 272 C 24.5826 -2.26883 -0.244857 0
M  V30 273 C 25.5606 -1.33784 -0.924147 0
M  V30 274 O 26.7446 -1.6316 -0.943981 0
M  V30 275 C 23.8716 -3.10695 -1.34856 0
M  V30 276 C 22.9176 -4.19339 -0.778268 0
M  V30 277 S 23.7506 -5.34207 0.37184 0
M  V30 278 C 24.9066 -6.21584 -0.733779 0
M  V30 279 H 25.1396 -2.94202 0.428087 0
M  V30 280 H 22.6726 -1.50628 0.339197 0
M  V30 281 H 24.6306 -3.59555 -1.98066 0
M  V30 282 H 23.2916 -2.42746 -1.99332 0
M  V30 283 H 22.4846 -4.77695 -1.60696 0
M  V30 284 H 22.0866 -3.73338 -0.222422 0
M  V30 285 H 24.3786 -6.57676 -1.62692 0
M  V30 286 H 25.3216 -7.07851 -0.187668 0
M  V30 287 H 25.7296 -5.55125 -1.02454 0
M  V30 288 N 25.1277 -0.289203 -1.54924 0
M  V30 289 C 26.0907 0.579144 -2.21762 0
M  V30 290 C 27.0907 1.07047 -1.1999 0
M  V30 291 O 28.2807 0.968384 -1.44803 0
M  V30 292 C 25.4127 1.80055 -2.8947 0
M  V30 293 H 26.6057 -0.00464908 -2.999 0
M  V30 294 H 24.1587 -0.0399306 -1.56249 0
M  V30 295 H 24.8937 2.42449 -2.15381 0
M  V30 296 H 24.6787 1.45602 -3.64064 0
M  V30 297 H 26.1687 2.41773 -3.40493 0
M  V30 298 N 26.6058 1.57591 -0.0167156 0
M  V30 299 C 27.5538 2.10604 0.987353 0
M  V30 300 C 28.5478 1.02977 1.34507 0
M  V30 301 O 29.7538 1.21425 1.32875 0
M  V30 302 H 26.1288 0.672695 0.336134 0
M  V30 303 H 28.0998 2.93925 0.514817 0
M  V30 304 C 26.8488 2.6382 2.26483 0
M  V30 305 H 26.1718 3.46278 1.99829 0
M  V30 306 H 27.6118 3.04573 2.94977 0
M  V30 307 C 26.0708 1.55992 2.9861 0
M  V30 308 O 26.6008 0.952521 3.90243 0
M  V30 309 N 24.8068 1.28335 2.60727 0
M  V30 310 H 24.3538 1.77914 1.86291 0
M  V30 311 H 24.3118 0.564115 3.09298 0
M  V30 312 N 28.0839 -0.256276 1.55502 0
M  V30 313 C 29.3139 -1.00196 1.80677 0
M  V30 314 C 29.7219 -1.79805 0.588797 0
M  V30 315 O 29.0649 -1.78055 -0.451883 0
M  V30 316 C 29.1269 -1.99515 2.99055 0
M  V30 317 C 28.7909 -1.38688 4.35448 0
M  V30 318 C 29.7879 -0.794079 5.138 0
M  V30 319 C 27.4729 -1.40906 4.82132 0
M  V30 320 C 29.4669 -0.231562 6.36979 0
M  V30 321 C 27.1539 -0.842684 6.05262 0
M  V30 322 C 28.1519 -0.254953 6.82524 0
M  V30 323 O 27.8399 0.3027 8.0333 0
M  V30 324 H 27.5719 -0.300919 0.60533 0
M  V30 325 H 30.1259 -0.287307 2.03381 0
M  V30 326 H 28.3559 -2.74785 2.72084 0
M  V30 327 H 30.0449 -2.60349 3.11405 0
M  V30 328 H 30.8109 -0.769519 4.78856 0
M  V30 329 H 26.6899 -1.85591 4.21992 0
M  V30 330 H 30.2339 0.227816 6.97228 0
M  V30 331 H 26.1309 -0.86454 6.39684 0
M  V30 332 H 26.8989 0.193662 8.18271 0
M  V30 333 N 29.562 -1.4872 -0.521534 0
M  V30 334 C 30.495 -1.58451 -1.64221 0
M  V30 335 C 31.473 -0.434513 -1.56687 0
M  V30 336 O 32.657 -0.647275 -1.77038 0
M  V30 337 C 29.784 -1.52037 -3.02659 0
M  V30 338 C 28.83 -2.71981 -3.28525 0
M  V30 339 S 29.663 -4.33869 -3.13876 0
M  V30 340 C 30.819 -4.30067 -4.54745 0
M  V30 341 H 31.052 -2.53256 -1.55719 0
M  V30 342 H 28.585 -1.37358 -0.705143 0
M  V30 343 H 30.543 -1.49023 -3.82495 0
M  V30 344 H 29.204 -0.585541 -3.08594 0
M  V30 345 H 28.397 -2.63656 -4.29536 0
M  V30 346 H 27.999 -2.72302 -2.56374 0
M  V30 347 H 30.291 -4.00521 -5.46433 0
M  V30 348 H 31.234 -5.31287 -4.68123 0
M  V30 349 H 31.642 -3.60419 -4.34463 0
M  V30 350 N 31.0401 0.771051 -1.3745 0
M  V30 351 C 31.9501 1.91538 -1.35464 0
M  V30 352 C 32.9661 1.72134 -0.254123 0
M  V30 353 O 34.1421 1.95358 -0.489626 0
M  V30 354 C 31.2071 3.26671 -1.16134 0
M  V30 355 C 30.2681 3.58723 -2.35831 0
M  V30 356 C 29.5011 4.87409 -2.17413 0
M  V30 357 O 29.7241 5.58506 -1.15876 0
M  V30 358 O 28.6581 5.18539 -3.05615 0
M  V30 359 H 32.4841 1.96165 -2.31847 0
M  V30 360 H 30.0691 0.9139 -1.18187 0
M  V30 361 H 31.9511 4.07499 -1.07345 0
M  V30 362 H 30.6261 3.22894 -0.228251 0
M  V30 363 H 29.5331 2.78127 -2.50192 0
M  V30 364 H 30.8661 3.67243 -3.27709 0
M  V30 365 N 32.5182 1.22032 0.997298 0
M  V30 366 C 33.7662 1.04016 1.73278 0
M  V30 367 C 34.0872 -0.426255 1.90284 0
M  V30 368 O 33.3572 -1.30694 1.45931 0
M  V30 369 H 31.9372 0.381897 0.642 0
M  V30 370 H 34.5992 1.5347 1.20137 0
M  V30 371 H 33.6952 1.51441 2.72896 0
M  V30 372 N 33.9963 -1.19345 1.0293 0
M  V30 373 C 35.2453 -1.88363 0.721256 0
M  V30 374 C 35.5583 -1.80514 -0.753254 0
M  V30 375 O 36.7643 -2.44788 -1.17436 0
M  V30 376 C 35.2203 -3.37872 1.23978 0
M  V30 377 C 34.8283 -3.54278 2.74211 0
M  V30 378 C 36.5723 -4.12365 1.00775 0
M  V30 379 C 34.4793 -4.97682 3.19479 0
M  V30 380 H 33.4093 -0.705484 0.266098 0
M  V30 381 H 36.0603 -1.34928 1.24365 0
M  V30 382 H 34.4423 -3.90707 0.6453 0
M  V30 383 H 35.6163 -3.11769 3.39318 0
M  V30 384 H 33.9313 -2.93174 2.95699 0
M  V30 385 H 36.5283 -5.18119 1.32123 0
M  V30 386 H 36.8713 -4.16263 -0.0554308 0
M  V30 387 H 37.4043 -3.65668 1.56625 0
M  V30 388 H 34.1433 -4.98945 4.25128 0
M  V30 389 H 33.6633 -5.4095 2.591 0
M  V30 390 H 35.3423 -5.66337 3.12845 0
M  V30 391 N 35.4744 -0.807222 -1.35358 0
M  V30 392 C 36.3844 -0.219594 -2.3357 0
M  V30 393 C 37.4004 0.637734 -1.61892 0
M  V30 394 O 38.5764 0.549336 -1.93763 0
M  V30 395 C 35.6414 0.62158 -3.41083 0
M  V30 396 C 34.7024 -0.256315 -4.28534 0
M  V30 397 C 33.9354 0.544807 -5.30912 0
M  V30 398 O 34.1584 1.77944 -5.41934 0
M  V30 399 O 33.0924 -0.0646478 -6.01865 0
M  V30 400 H 36.9184 -1.03208 -2.85625 0
M  V30 401 H 34.5034 -0.569025 -1.38139 0
M  V30 402 H 36.3854 1.10067 -4.06772 0
M  V30 403 H 35.0604 1.41165 -2.91297 0
M  V30 404 H 33.9674 -0.782559 -3.65823 0
M  V30 405 H 35.3004 -1.01034 -4.81719 0
M  V30 406 N 36.9525 1.47285 -0.560781 0
M  V30 407 C 38.2005 2.02064 -0.0379868 0
M  V30 408 C 38.5215 1.43711 1.31803 0
M  V30 409 O 37.7915 0.61362 1.86042 0
M  V30 410 H 36.3715 0.746918 -0.0110531 0
M  V30 411 H 39.0335 1.80648 -0.731598 0
M  V30 412 H 38.1295 3.12064 0.0474463 0
M  V30 413 N 38.4306 0.297415 1.54768 0
M  V30 414 C 39.8466 -0.0560823 1.59501 0
M  V30 415 C 40.0466 -1.52725 1.31444 0
M  V30 416 O 39.1026 -2.27947 1.08611 0
M  V30 417 C 40.4156 0.338631 2.98787 0
M  V30 418 C 41.9636 0.287097 3.11681 0
M  V30 419 C 42.4386 0.656579 4.53269 0
M  V30 420 N 43.9296 0.608977 4.59179 0
M  V30 421 C 44.6646 0.867385 5.66802 0
M  V30 422 N 44.1606 1.19157 6.82476 0
M  V30 423 N 45.9536 0.794687 5.56454 0
M  V30 424 H 38.1046 1.25624 1.71267 0
M  V30 425 H 40.3676 0.509057 0.799728 0
M  V30 426 H 40.0736 1.36263 3.2423 0
M  V30 427 H 39.9476 -0.309508 3.75928 0
M  V30 428 H 42.3346 -0.727649 2.85988 0
M  V30 429 H 42.4156 0.969809 2.36703 0
M  V30 430 H 42.0596 1.66912 4.7969 0
M  V30 431 H 41.9896 -0.0481649 5.26578 0
M  V30 432 H 44.4806 0.369198 3.76092 0
M  V30 433 H 44.7936 1.37482 7.60473 0
M  V30 434 H 43.1386 1.22958 6.84037 0
M  V30 435 H 46.3296 0.541098 4.64962 0
M  V30 436 H 46.5026 0.999445 6.40246 0
M  V30 437 N 39.9087 -1.5758 0.0250728 0
M  V30 438 C 40.8407 -2.06869 -0.986796 0
M  V30 439 C 41.8537 -0.991332 -1.29137 0
M  V30 440 O 43.0427 -1.26761 -1.25674 0
M  V30 441 C 40.1427 -2.47486 -2.31525 0
M  V30 442 C 39.3157 -3.78253 -2.19643 0
M  V30 443 C 38.3747 -4.05464 -3.35388 0
M  V30 444 O 37.4007 -4.75774 -3.12454 0
M  V30 445 N 38.6027 -3.55321 -4.59051 0
M  V30 446 H 41.3677 -2.94302 -0.566276 0
M  V30 447 H 38.9287 -1.6109 -0.161776 0
M  V30 448 H 40.9207 -2.62785 -3.07776 0
M  V30 449 H 39.4907 -1.65441 -2.65232 0
M  V30 450 H 38.7107 -3.7279 -1.28144 0
M  V30 451 H 39.9987 -4.63936 -2.08903 0
M  V30 452 H 39.3967 -2.98431 -4.80578 0
M  V30 453 H 37.9537 -3.75905 -5.32483 0
M  V30 454 N 41.3868 0.248026 -1.55636 0
M  V30 455 C 42.6328 0.97767 -1.77678 0
M  V30 456 C 42.9658 1.85016 -0.590135 0
M  V30 457 O 42.2408 1.90095 0.411611 0
M  V30 458 C 42.5238 1.83914 -3.09593 0
M  V30 459 C 42.3768 0.99491 -4.38659 0
M  V30 460 C 43.6958 2.82183 -3.37729 0
M  V30 461 H 40.8148 0.354005 -0.646413 0
M  V30 462 H 43.4568 0.248253 -1.88371 0
M  V30 463 H 41.6068 2.46104 -3.00608 0
M  V30 464 H 43.2788 0.391789 -4.59633 0
M  V30 465 H 41.5218 0.299231 -4.32767 0
M  V30 466 H 42.1928 1.63145 -5.2734 0
M  V30 467 H 44.6688 2.30129 -3.4667 0
M  V30 468 H 43.5448 3.39582 -4.31249 0
M  V30 469 H 43.8058 3.58588 -2.58586 0
M  V30 470 N 42.8649 1.48995 0.513639 0
M  V30 471 C 44.0949 1.61297 1.291 0
M  V30 472 C 44.5029 0.278656 1.87137 0
M  V30 473 O 43.8459 -0.744325 1.67945 0
M  V30 474 C 43.9079 2.61326 2.46879 0
M  V30 475 C 43.5719 4.05993 2.09807 0
M  V30 476 C 44.5689 4.93183 1.64519 0
M  V30 477 C 42.2539 4.51642 2.19829 0
M  V30 478 C 44.2479 6.24056 1.2974 0
M  V30 479 C 41.9349 5.82532 1.84662 0
M  V30 480 C 42.9329 6.68562 1.3969 0
M  V30 481 O 42.6209 7.97014 1.04992 0
M  V30 482 H 42.3529 0.546236 0.39825 0
M  V30 483 H 44.9069 1.95673 0.62459 0
M  V30 484 H 43.1369 2.22104 3.16554 0
M  V30 485 H 44.8259 2.6329 3.08923 0
M  V30 486 H 45.5919 4.59147 1.56233 0
M  V30 487 H 41.4709 3.84855 2.53786 0
M  V30 488 H 45.0149 6.91161 0.945659 0
M  V30 489 H 40.9119 6.16099 1.92594 0
M  V30 490 H 41.6799 8.09913 1.18249 0
M  V30 491 N 44.343 -0.763751 1.37857 0
M  V30 492 C 45.754 -1.3405 1.29952 0
M  V30 493 C 46.105 -1.96138 -0.0492898 0
M  V30 494 O 45.23 -1.94372 -0.951239 0
M  V30 495 C 45.825 -2.43729 2.35333 0
M  V30 496 C 44.384 -2.97151 2.31037 0
M  V30 497 C 43.531 -1.70438 2.18738 0
M  V30 498 H 46.482 -0.563396 1.48363 0
M  V30 499 H 46.503 -3.23412 2.00462 0
M  V30 500 H 46.015 -1.9851 3.33489 0
M  V30 501 H 44.116 -3.46724 1.3643 0
M  V30 502 H 44.229 -3.52221 3.24772 0
M  V30 503 H 42.593 -1.93673 1.65418 0
M  V30 504 H 43.376 -1.27312 3.18821 0
M  V30 505 N 45.8211 -1.22559 -0.990812 0
M  V30 506 C 47.0981 -0.959875 -1.70428 0
M  V30 507 C 47.4781 0.524455 -2.04481 0
M  V30 508 O 46.8261 1.49302 -1.72977 0
M  V30 509 C 47.0361 -1.85955 -2.95333 0
M  V30 510 C 48.3841 -2.11687 -3.68068 0
M  V30 511 O 49.4081 -1.8342 -3.05345 0
M  V30 512 O 48.2671 -2.59572 -4.80921 0
M  V30 513 H 45.3611 -0.361154 -0.743974 0
M  V30 514 H 47.9071 -1.33554 -1.04697 0
M  V30 515 H 46.6791 -2.86346 -2.66687 0
M  V30 516 H 46.3021 -1.4856 -3.68803 0
M  V30 517 N 47.2992 1.18797 -1.03562 0
M  V30 518 C 48.5452 1.8893 -0.737113 0
M  V30 519 C 48.8782 1.79837 0.732956 0
M  V30 520 O 48.1532 1.19525 1.5344 0
M  V30 521 C 48.4362 3.39607 -1.19745 0
M  V30 522 C 48.2892 3.57537 -2.72924 0
M  V30 523 C 49.6082 4.33069 -0.783526 0
M  V30 524 H 46.7272 0.686057 -0.269249 0
M  V30 525 H 49.3692 1.39797 -1.28673 0
M  V30 526 H 47.5192 3.81583 -0.729855 0
M  V30 527 H 49.1912 3.24688 -3.27682 0
M  V30 528 H 47.4342 3.00363 -3.12993 0
M  V30 529 H 48.1052 4.63238 -3.00191 0
M  V30 530 H 50.5812 3.98846 -1.18581 0
M  V30 531 H 49.4572 5.3707 -1.13343 0
M  V30 532 H 49.7182 4.40986 0.313681 0
M  V30 533 N 48.7773 0.814389 1.34928 0
M  V30 534 C 49.6873 0.231978 2.3345 0
M  V30 535 C 50.7033 -0.629139 1.62228 0
M  V30 536 O 51.8793 -0.539052 1.94052 0
M  V30 537 C 48.9443 -0.603482 3.41407 0
M  V30 538 C 48.0053 0.279037 4.28392 0
M  V30 539 C 47.2383 -0.516643 5.31193 0
M  V30 540 O 47.4613 -1.75068 5.4287 0
M  V30 541 O 46.3953 0.0965652 6.01823 0
M  V30 542 H 50.2213 1.04721 2.85074 0
M  V30 543 H 47.8063 0.576343 1.37836 0
M  V30 544 H 49.6883 -1.07908 4.0735 0
M  V30 545 H 48.3633 -1.39618 2.92042 0
M  V30 546 H 47.2703 0.801948 3.65403 0
M  V30 547 H 48.6033 1.03588 4.81176 0
M  V30 548 N 50.2554 -1.46986 0.568584 0
M  V30 549 C 51.6664 -1.86188 0.138219 0
M  V30 550 C 52.0174 -1.47388 -1.29504 0
M  V30 551 O 51.1424 -0.88219 -1.97602 0
M  V30 552 C 51.7374 -3.3792 0.244065 0
M  V30 553 C 50.2964 -3.76171 -0.131335 0
M  V30 554 C 49.4434 -2.71027 0.586465 0
M  V30 555 H 52.3944 -1.38342 0.777645 0
M  V30 556 H 52.4154 -3.76729 -0.534351 0
M  V30 557 H 51.9274 -3.66128 1.28731 0
M  V30 558 H 50.0284 -3.5358 -1.17526 0
M  V30 559 H 50.1414 -4.78523 0.235146 0
M  V30 560 H 48.5054 -2.54684 0.0282722 0
M  V30 561 H 49.2884 -3.02077 1.63109 0
M  V30 562 N 51.7335 -0.305618 -1.54608 0
M  V30 563 C 52.9815 0.301701 -1.99835 0
M  V30 564 C 53.3025 1.54054 -1.19551 0
M  V30 565 O 52.5725 1.93702 -0.292658 0
M  V30 566 H 51.1525 0.114468 -0.738178 0
M  V30 567 H 53.8145 -0.418016 -1.90364 0
M  V30 568 H 52.9105 0.570548 -3.06841 0
M  V30 569 N 53.2116 1.57565 -0.0334293 0
M  V30 570 C 54.4416 1.95996 0.653398 0
M  V30 571 C 54.8496 0.908749 1.65947 0
M  V30 572 O 54.1926 -0.117471 1.83324 0
M  V30 573 C 54.2546 3.30589 1.41249 0
M  V30 574 C 53.9186 4.53503 0.564263 0
M  V30 575 C 54.9156 5.19647 -0.16225 0
M  V30 576 C 52.6006 4.99801 0.500398 0
M  V30 577 C 54.5946 6.30412 -0.941255 0
M  V30 578 C 52.2816 6.10448 -0.282308 0
M  V30 579 C 53.2796 6.75612 -1.00184 0
M  V30 580 O 52.9676 7.84134 -1.77171 0
M  V30 581 H 52.6996 0.65027 0.184728 0
M  V30 582 H 55.2536 2.05199 -0.0907841 0
M  V30 583 H 53.4836 3.17888 2.20191 0
M  V30 584 H 55.1726 3.53892 1.98784 0
M  V30 585 H 55.9386 4.84846 -0.12227 0
M  V30 586 H 51.8176 4.48883 1.05002 0
M  V30 587 H 55.3616 6.81208 -1.50339 0
M  V30 588 H 51.2586 6.44686 -0.323989 0
M  V30 589 H 52.0266 8.00822 -1.69194 0
M  V30 590 N 54.6897 -0.239769 1.55765 0
M  V30 591 C 55.6197 -1.30052 1.9393 0
M  V30 592 C 56.6007 -1.49839 0.805132 0
M  V30 593 O 57.7857 -1.62328 1.06599 0
M  V30 594 C 54.9157 -2.65391 2.2402 0
M  V30 595 C 53.8697 -2.60289 3.39755 0
M  V30 596 C 53.1957 -3.99489 3.55405 0
M  V30 597 C 54.4957 -2.16654 4.75246 0
M  V30 598 H 56.1897 -0.983573 2.82783 0
M  V30 599 H 53.7357 -0.471701 1.36055 0
M  V30 600 H 55.6887 -3.3974 2.49308 0
M  V30 601 H 54.4127 -2.98736 1.32 0
M  V30 602 H 53.0717 -1.88398 3.14487 0
M  V30 603 H 52.7197 -4.30112 2.60793 0
M  V30 604 H 52.4197 -3.96962 4.33238 0
M  V30 605 H 53.9437 -4.75528 3.83022 0
M  V30 606 H 55.3577 -2.80737 4.99859 0
M  V30 607 H 53.7547 -2.25223 5.56232 0
M  V30 608 H 54.8247 -1.11835 4.71827 0
M  V30 609 N 56.1678 -1.49265 -0.50573 0
M  V30 610 C 57.5838 -1.35923 -0.836486 0
M  V30 611 C 57.7838 -0.388704 -1.97715 0
M  V30 612 O 56.8398 0.181336 -2.51848 0
M  V30 613 C 58.1528 -2.76531 -1.18115 0
M  V30 614 C 59.7008 -2.85197 -1.28964 0
M  V30 615 C 60.1758 -4.26561 -1.66761 0
M  V30 616 N 61.6668 -4.2935 -1.73819 0
M  V30 617 C 62.4018 -5.35693 -2.045 0
M  V30 618 N 61.8978 -6.52287 -2.33438 0
M  V30 619 N 63.6908 -5.23105 -2.05711 0
M  V30 620 H 55.8418 -2.10965 0.246519 0
M  V30 621 H 58.1048 -0.9468 0.0476887 0
M  V30 622 H 57.8108 -3.49226 -0.416398 0
M  V30 623 H 57.6848 -3.11599 -2.1257 0
M  V30 624 H 60.0718 -2.12742 -2.04511 0
M  V30 625 H 60.1528 -2.53718 -0.325704 0
M  V30 626 H 59.7968 -4.99541 -0.917656 0
M  V30 627 H 59.7268 -4.55502 -2.64246 0
M  V30 628 H 62.2178 -3.4526 -1.53635 0
M  V30 629 H 62.5308 -7.29158 -2.56024 0
M  V30 630 H 60.8758 -6.55521 -2.30905 0
M  V30 631 H 64.0668 -4.31026 -1.82577 0
M  V30 632 H 64.2398 -6.06078 -2.29289 0
M  V30 633 N 57.6459 0.756429 -1.3826 0
M  V30 634 C 59.0569 1.33359 -1.30661 0
M  V30 635 C 59.4079 1.96161 0.0388875 0
M  V30 636 O 58.5329 1.94874 0.940918 0
M  V30 637 C 59.1279 2.42477 -2.36622 0
M  V30 638 C 57.6869 2.95922 -2.3261 0
M  V30 639 C 56.8339 1.69275 -2.19639 0
M  V30 640 H 59.7849 0.55552 -1.4866 0
M  V30 641 H 59.8059 3.22345 -2.02174 0
M  V30 642 H 59.3179 1.96739 -3.34538 0
M  V30 643 H 57.4189 3.45996 -1.38267 0
M  V30 644 H 57.5319 3.50494 -3.26636 0
M  V30 645 H 55.8959 1.92793 -1.66442 0
M  V30 646 H 56.6789 1.25619 -3.19491 0
M  V30 647 N 59.124 1.23083 0.984299 0
M  V30 648 C 60.054 1.03292 2.09411 0
M  V30 649 C 61.035 -0.048923 1.7003 0
M  V30 650 O 62.22 0.114967 1.93859 0
M  V30 651 C 59.35 0.619155 3.41736 0
M  V30 652 C 58.304 1.64791 3.95004 0
M  V30 653 C 57.63 1.0897 5.23478 0
M  V30 654 C 58.93 3.03999 4.24714 0
M  V30 655 H 60.624 1.96119 2.26225 0
M  V30 656 H 58.17 0.944344 1.08711 0
M  V30 657 H 60.123 0.467777 4.18796 0
M  V30 658 H 58.847 -0.344786 3.24775 0
M  V30 659 H 57.506 1.78721 3.20085 0
M  V30 660 H 57.154 0.11686 5.02864 0
M  V30 661 H 56.854 1.77704 5.60085 0
M  V30 662 H 58.378 0.950093 6.03163 0
M  V30 663 H 59.792 2.93393 4.92538 0
M  V30 664 H 58.189 3.69936 4.72512 0
M  V30 665 H 59.259 3.53285 3.32142 0
M  V30 666 N 60.6021 -1.18246 1.0419 0
M  V30 667 C 61.8511 -1.87588 0.741194 0
M  V30 668 C 62.1641 -1.81303 -0.734066 0
M  V30 669 O 63.3701 -2.46019 -1.14834 0
M  V30 670 C 61.8261 -3.36538 1.27555 0
M  V30 671 C 61.4341 -3.51349 2.77953 0
M  V30 672 C 63.1781 -4.11273 1.05143 0
M  V30 673 C 61.0851 -4.94265 3.2474 0
M  V30 674 H 60.0151 -0.702622 0.273565 0
M  V30 675 H 62.6661 -1.33601 1.25789 0
M  V30 676 H 61.0481 -3.9 0.686703 0
M  V30 677 H 62.2221 -3.08153 3.42605 0
M  V30 678 H 60.5371 -2.90022 2.98791 0
M  V30 679 H 63.1341 -5.16689 1.37611 0
M  V30 680 H 63.4771 -4.16298 -0.0112774 0
M  V30 681 H 64.0101 -3.63987 1.60495 0
M  V30 682 H 60.7491 -4.94408 4.30396 0
M  V30 683 H 60.2691 -5.38172 2.64823 0
M  V30 684 H 61.9481 -5.62987 3.18834 0
M  V30 685 N 62.0802 -0.821533 -1.34494 0
M  V30 686 C 63.4912 -0.467956 -1.8074 0
M  V30 687 C 63.8422 1.01151 -1.68116 0
M  V30 688 O 62.9672 1.78707 -1.22036 0
M  V30 689 C 63.5622 -0.842627 -3.28154 0
M  V30 690 C 62.1212 -0.541439 -3.72485 0
M  V30 691 C 61.2682 -1.06028 -2.56229 0
M  V30 692 H 64.2192 -1.01183 -1.22261 0
M  V30 693 H 64.2402 -0.145876 -3.8022 0
M  V30 694 H 63.7522 -1.91945 -3.37311 0
M  V30 695 H 61.8532 0.526034 -3.68868 0
M  V30 696 H 61.9662 -1.08453 -4.66663 0
M  V30 697 H 60.3302 -0.481892 -2.501 0
M  V30 698 H 61.1132 -2.14352 -2.68157 0
M  V30 699 N 63.5583 1.46682 -0.576371 0
M  V30 700 C 64.5213 2.28707 0.150239 0
M  V30 701 C 65.5213 1.38035 0.824794 0
M  V30 702 O 66.7113 1.60476 0.677719 0
M  V30 703 C 63.8433 3.18248 1.22192 0
M  V30 704 H 65.0363 2.94423 -0.570521 0
M  V30 705 H 62.5893 1.52688 -0.334078 0
M  V30 706 H 63.3243 2.57265 1.97447 0
M  V30 707 H 63.1093 3.85 0.742812 0
M  V30 708 H 64.5993 3.80001 1.73172 0
M  V30 709 N 65.0364 0.313813 1.54444 0
M  V30 710 C 65.9994 -0.54379 2.22656 0
M  V30 711 C 66.9994 -1.05124 1.21678 0
M  V30 712 O 68.1894 -0.945225 1.46325 0
M  V30 713 C 65.3214 -1.75427 2.92298 0
M  V30 714 H 66.5144 0.0523599 2.99854 0
M  V30 715 H 64.0674 0.0647834 1.56166 0
M  V30 716 H 64.8024 -2.38991 2.19211 0
M  V30 717 H 64.5874 -1.39791 3.66334 0
M  V30 718 H 66.0774 -2.36325 3.44297 0
M  V30 719 N 66.5145 -1.57545 0.0417849 0
M  V30 720 C 67.4775 -2.09885 -0.92093 0
M  V30 721 C 68.4775 -1.01648 -1.24596 0
M  V30 722 O 69.6675 -1.27759 -1.1842 0
M  V30 723 C 66.7995 -2.57527 -2.23367 0
M  V30 724 H 67.9925 -2.96236 -0.467382 0
M  V30 725 H 65.5455 -1.5493 -0.206467 0
M  V30 726 H 66.2805 -1.74542 -2.73323 0
M  V30 727 H 66.0655 -3.36613 -2.01083 0
M  V30 728 H 67.5555 -2.98201 -2.92346 0
M  V30 729 N 67.9926 0.231505 -1.5589 0
M  V30 730 C 69.4036 0.799327 -1.68724 0
M  V30 731 C 69.7546 1.85398 -0.642022 0
M  V30 732 O 68.8796 2.1539 0.208784 0
M  V30 733 C 69.4746 1.45664 -3.05888 0
M  V30 734 C 68.0336 1.97197 -3.20609 0
M  V30 735 C 67.1806 0.828552 -2.64632 0
M  V30 736 H 70.1316 0.00702616 -1.58698 0
M  V30 737 H 70.1526 2.32517 -3.01191 0
M  V30 738 H 69.6646 0.688808 -3.81939 0
M  V30 739 H 67.7656 2.76813 -2.4941 0
M  V30 740 H 67.8786 2.15878 -4.27707 0
M  V30 741 H 66.2426 1.23321 -2.22854 0
M  V30 742 H 67.0256 0.0735544 -3.43221 0
M  V30 743 N 69.4707 1.49531 0.497807 0
M  V30 744 C 70.4027 1.62559 1.61578 0
M  V30 745 C 71.4157 0.508134 1.54667 0
M  V30 746 O 72.6047 0.780309 1.60541 0
M  V30 747 C 69.7047 1.56925 3.00379 0
M  V30 748 C 68.8777 2.84257 3.3244 0
M  V30 749 C 67.9367 2.71632 4.50669 0
M  V30 750 O 66.9627 3.4557 4.52294 0
M  V30 751 N 68.1647 1.83391 5.5077 0
M  V30 752 H 70.9297 2.58981 1.50828 0
M  V30 753 H 68.4907 1.4666 0.685743 0
M  V30 754 H 70.4827 1.46129 3.77397 0
M  V30 755 H 69.0527 0.683483 3.05037 0
M  V30 756 H 68.2727 3.09381 2.44289 0
M  V30 757 H 69.5607 3.68666 3.5066 0
M  V30 758 H 68.9587 1.22583 5.52259 0
M  V30 759 H 67.5157 1.78515 6.26878 0
M  V30 760 N 70.9488 -0.749086 1.3866 0
M  V30 761 C 71.8588 -1.89358 1.38494 0
M  V30 762 C 72.8748 -1.71708 0.281476 0
M  V30 763 O 74.0508 -1.94554 0.520643 0
M  V30 764 C 71.1158 -3.24782 1.21316 0
M  V30 765 C 70.1768 -3.54926 2.41508 0
M  V30 766 C 69.4098 -4.83888 2.2514 0
M  V30 767 O 69.6328 -5.56592 1.24746 0
M  V30 768 O 68.5668 -5.13612 3.13826 0
M  V30 769 H 72.3928 -1.92452 2.34938 0
M  V30 770 H 69.9778 -0.894981 1.19626 0
M  V30 771 H 71.8598 -4.05739 1.13814 0
M  V30 772 H 70.5348 -3.2249 0.279592 0
M  V30 773 H 69.4418 -2.74112 2.54585 0
M  V30 774 H 70.7748 -3.61983 3.3351 0
M  V30 775 N 72.4269 -1.23603 -0.977757 0
M  V30 776 C 73.8379 -1.06424 -1.53398 0
M  V30 777 C 74.1889 0.367578 -1.92726 0
M  V30 778 O 73.3139 1.25465 -1.76316 0
M  V30 779 C 73.9089 -1.92568 -2.78753 0
M  V30 780 C 72.4679 -1.79642 -3.30765 0
M  V30 781 C 71.6149 -1.88111 -2.03739 0
M  V30 782 H 74.5659 -1.37227 -0.797152 0
M  V30 783 H 74.5869 -1.45203 -3.51705 0
M  V30 784 H 74.0989 -2.96771 -2.50098 0
M  V30 785 H 72.1999 -0.782325 -3.64294 0
M  V30 786 H 72.3129 -2.63174 -4.00345 0
M  V30 787 H 70.6769 -1.31723 -2.17994 0
M  V30 788 H 71.4599 -2.93875 -1.77461 0
M  V30 789 N 73.905 1.17692 -1.04816 0
M  V30 790 C 75.182 1.83768 -0.669963 0
M  V30 791 C 75.562 1.93232 0.849986 0
M  V30 792 O 74.91 1.46397 1.75443 0
M  V30 793 C 75.12 3.21641 -1.35455 0
M  V30 794 C 76.468 3.97592 -1.49017 0
M  V30 795 O 77.492 3.31107 -1.31326 0
M  V30 796 O 76.351 5.16729 -1.77914 0
M  V30 797 H 73.445 0.792799 -0.235368 0
M  V30 798 H 75.991 1.25021 -1.14751 0
M  V30 799 H 74.763 3.097 -2.39168 0
M  V30 800 H 74.386 3.88052 -0.866107 0
M  V30 801 N 75.3831 0.828654 1.34056 0
M  V30 802 C 76.6111 0.43262 2.02326 0
M  V30 803 C 77.0261 -0.963147 1.62385 0
M  V30 804 O 76.3831 -1.62425 0.832121 0
M  V30 805 C 76.4341 0.53182 3.57567 0
M  V30 806 O 76.1551 1.87258 3.96063 0
M  V30 807 C 77.6561 0.131422 4.43105 0
M  V30 808 H 74.8761 0.172923 0.648335 0
M  V30 809 H 77.4201 1.1184 1.71208 0
M  V30 810 H 75.5751 -0.105938 3.87255 0
M  V30 811 H 75.9891 1.85087 4.90758 0
M  V30 812 H 77.4631 0.251904 5.51425 0
M  V30 813 H 77.9401 -0.925645 4.29335 0
M  V30 814 H 78.5461 0.743207 4.18756 0
M  V30 815 N 76.8612 -1.46375 0.584142 0
M  V30 816 C 78.1082 -2.02378 0.0702675 0
M  V30 817 C 78.4362 -1.45545 -1.29023 0
M  V30 818 O 77.6912 -0.610967 -1.85918 0
M  V30 819 C 77.9902 -3.57373 -0.0439342 0
M  V30 820 C 77.6562 -4.33252 1.24915 0
M  V30 821 C 76.3182 -4.53701 1.60341 0
M  V30 822 C 78.6702 -4.7681 2.1048 0
M  V30 823 C 75.9982 -5.1496 2.81128 0
M  V30 824 C 78.3502 -5.39404 3.30494 0
M  V30 825 C 77.0142 -5.5808 3.66201 0
M  V30 826 H 76.2842 -0.740554 0.0257127 0
M  V30 827 H 78.9312 -1.75727 0.761065 0
M  V30 828 H 77.2362 -3.83169 -0.817869 0
M  V30 829 H 78.9332 -3.98384 -0.457318 0
M  V30 830 H 75.5232 -4.17633 0.963364 0
M  V30 831 H 79.7072 -4.60766 1.84414 0
M  V30 832 H 74.9632 -5.27611 3.08928 0
M  V30 833 H 79.1372 -5.72114 3.97063 0
M  V30 834 H 76.7642 -6.05318 4.59885 0
M  V30 835 N 78.3393 -0.321999 -1.54275 0
M  V30 836 C 79.2493 0.553631 -2.27974 0
M  V30 837 C 80.2653 1.13054 -1.32268 0
M  V30 838 O 81.4413 1.15084 -1.6528 0
M  V30 839 C 78.5063 1.69927 -3.02201 0
M  V30 840 C 77.5673 1.15433 -4.1349 0
M  V30 841 C 76.8003 2.24537 -4.84168 0
M  V30 842 O 77.0233 3.44852 -4.5435 0
M  V30 843 O 75.9573 1.90044 -5.7111 0
M  V30 844 H 79.7833 -0.0448345 -3.03667 0
M  V30 845 H 77.3683 -0.0877418 -1.49142 0
M  V30 846 H 79.2503 2.3663 -3.48689 0
M  V30 847 H 77.9253 2.28395 -2.29385 0
M  V30 848 H 76.8323 0.452436 -3.71354 0
M  V30 849 H 78.1653 0.614805 -4.88345 0
M  V30 850 N 79.8174 1.5752 -0.0501392 0
M  V30 851 C 81.0944 1.83996 0.663685 0
M  V30 852 C 81.4744 0.938339 1.89099 0
M  V30 853 O 80.8224 -0.00087759 2.285 0
M  V30 854 C 81.0324 3.33702 1.02196 0
M  V30 855 C 82.3804 4.00691 1.40469 0
M  V30 856 O 83.4044 3.38321 1.11433 0
M  V30 857 O 82.2634 5.10658 1.94654 0
M  V30 858 H 79.3574 0.759385 0.32751 0
M  V30 859 H 81.9034 1.69514 -0.0794238 0
M  V30 860 H 80.6754 3.91015 0.149364 0
M  V30 861 H 80.2984 3.53368 1.82255 0
M  V30 862 N 81.2955 -0.223234 1.56011 0
M  V30 863 C 82.5445 -0.945912 1.78144 0
M  V30 864 C 82.8575 -1.85567 0.618396 0
M  V30 865 O 84.0635 -2.61688 0.723318 0
M  V30 866 C 82.5195 -1.73216 3.15475 0
M  V30 867 C 82.1275 -0.868619 4.39499 0
M  V30 868 C 83.8715 -2.44615 3.46935 0
M  V30 869 C 81.7785 -1.65212 5.67855 0
M  V30 870 H 80.7085 -0.356929 0.664167 0
M  V30 871 H 83.3595 -0.199845 1.82409 0
M  V30 872 H 81.7415 -2.52107 3.05382 0
M  V30 873 H 82.9155 -0.120366 4.60643 0
M  V30 874 H 81.2305 -0.26683 4.15544 0
M  V30 875 H 83.8275 -3.03732 4.40058 0
M  V30 876 H 84.1705 -3.17417 2.69355 0
M  V30 877 H 84.7035 -1.72715 3.58349 0
M  V30 878 H 81.4425 -0.967407 6.48322 0
M  V30 879 H 80.9625 -2.37503 5.50774 0
M  V30 880 H 82.6415 -2.21322 6.07968 0
M  V30 881 N 82.7736 -1.49793 -0.48987 0
M  V30 882 C 84.0226 -1.59085 -1.23995 0
M  V30 883 C 84.3356 -0.287907 -1.9347 0
M  V30 884 O 85.5416 -0.259506 -2.70257 0
M  V30 885 C 83.9976 -2.80736 -2.252 0
M  V30 886 C 83.6056 -4.17833 -1.61614 0
M  V30 887 C 85.3496 -2.99364 -3.00967 0
M  V30 888 C 83.2566 -5.30693 -2.60996 0
M  V30 889 H 82.1866 -0.592372 -0.466488 0
M  V30 890 H 84.8376 -1.76197 -0.51252 0
M  V30 891 H 83.2196 -2.57142 -3.01154 0
M  V30 892 H 84.3936 -4.51608 -0.915774 0
M  V30 893 H 82.7086 -4.04656 -0.981977 0
M  V30 894 H 85.3056 -3.80851 -3.75308 0
M  V30 895 H 85.6486 -2.10356 -3.59244 0
M  V30 896 H 86.1816 -3.2305 -2.32128 0
M  V30 897 H 82.9206 -6.21796 -2.07485 0
M  V30 898 H 82.4406 -5.01359 -3.2924 0
M  V30 899 H 84.1196 -5.6049 -3.23202 0
M  V30 900 N 84.2517 0.741722 -1.39055 0
M  V30 901 C 85.1997 1.87702 -1.3737 0
M  V30 902 C 86.1937 1.67427 -0.257812 0
M  V30 903 O 87.3997 1.7485 -0.427489 0
M  V30 904 H 83.7747 0.617757 -0.428812 0
M  V30 905 H 85.7457 1.86239 -2.33147 0
M  V30 906 C 84.4947 3.25315 -1.22741 0
M  V30 907 H 83.8177 3.41509 -2.07873 0
M  V30 908 H 85.2577 4.04964 -1.25618 0
M  V30 909 C 83.7167 3.36838 0.0647316 0
M  V30 910 O 84.2467 3.88073 1.03741 0
M  V30 911 N 82.4527 2.90329 0.125544 0
M  V30 912 H 81.9997 2.48823 -0.666682 0
M  V30 913 H 81.9577 2.98418 0.989639 0
M  V30 914 N 85.7298 1.2412 0.971189 0
M  V30 915 C 87.0068 0.986867 1.6888 0
M  V30 916 C 87.3868 -0.491857 2.0529 0
M  V30 917 O 86.7348 -1.46531 1.75331 0
M  V30 918 C 86.9448 1.9063 2.92338 0
M  V30 919 C 88.2928 2.17515 3.64654 0
M  V30 920 O 89.3168 1.88254 3.02388 0
M  V30 921 O 88.1758 2.6719 4.7673 0
M  V30 922 H 85.2698 0.372944 0.738134 0
M  V30 923 H 87.8158 1.35203 1.02559 0
M  V30 924 H 86.5878 2.90552 2.62097 0
M  V30 925 H 86.2108 1.54408 3.66393 0
M  V30 926 N 87.2079 -1.17134 1.05439 0
M  V30 927 C 88.4539 -1.87733 0.767077 0
M  V30 928 C 88.7869 -1.8098 -0.704253 0
M  V30 929 O 88.0619 -1.21951 -1.5152 0
M  V30 930 C 88.3449 -3.37659 1.25133 0
M  V30 931 C 88.1979 -3.53149 2.78578 0
M  V30 932 C 89.5169 -4.31768 0.852324 0
M  V30 933 H 86.6359 -0.681687 0.280129 0
M  V30 934 H 89.2779 -1.37732 1.30881 0
M  V30 935 H 87.4279 -3.80373 0.790469 0
M  V30 936 H 89.0999 -3.19434 3.32806 0
M  V30 937 H 87.3429 -2.95345 3.17732 0
M  V30 938 H 88.0139 -4.58403 3.07523 0
M  V30 939 H 90.4899 -3.96909 1.24911 0
M  V30 940 H 89.3659 -5.35199 1.21873 0
M  V30 941 H 89.6269 -4.41429 -0.243485 0
M  V30 942 N 88.686 -0.835752 -1.33615 0
M  V30 943 C 89.596 -0.269088 -2.33052 0
M  V30 944 C 90.612 0.603251 -1.63208 0
M  V30 945 O 91.788 0.508112 -1.94885 0
M  V30 946 C 88.853 0.549091 -3.42324 0
M  V30 947 C 87.914 -0.347156 -4.27894 0
M  V30 948 C 87.147 0.43207 -5.31948 0
M  V30 949 O 87.37 1.66409 -5.45586 0
M  V30 950 O 86.304 -0.192298 -6.01593 0
M  V30 951 H 90.13 -1.09243 -2.83372 0
M  V30 952 H 87.715 -0.598198 -1.36901 0
M  V30 953 H 89.597 1.01414 -4.09015 0
M  V30 954 H 88.272 1.34955 -2.94226 0
M  V30 955 H 87.179 -0.859979 -3.64081 0
M  V30 956 H 88.512 -1.1123 -4.79467 0
M  V30 957 N 90.1641 1.46063 -0.591896 0
M  V30 958 C 91.1111 2.30399 0.136069 0
M  V30 959 C 92.0811 1.41169 0.875238 0
M  V30 960 O 93.2661 1.70112 0.86409 0
M  V30 961 C 90.4061 3.25804 1.13781 0
M  V30 962 C 89.5191 4.30134 0.401137 0
M  V30 963 C 88.6541 5.12659 1.39121 0
M  V30 964 C 87.6931 6.0873 0.641462 0
M  V30 965 N 86.8301 6.8409 1.58004 0
M  V30 966 H 91.6701 2.92118 -0.589144 0
M  V30 967 H 89.2071 1.43959 -0.302342 0
M  V30 968 H 91.1651 3.79569 1.73156 0
M  V30 969 H 89.7951 2.65872 1.83062 0
M  V30 970 H 88.8471 3.79152 -0.307826 0
M  V30 971 H 90.1591 4.98458 -0.184565 0
M  V30 972 H 89.3131 5.70747 2.05749 0
M  V30 973 H 88.0521 4.44316 2.01084 0
M  V30 974 H 87.0571 5.49786 -0.0385419 0
M  V30 975 H 88.2821 6.79095 0.0270945 0
M  V30 976 H 86.2281 6.18449 2.18761 0
M  V30 977 H 86.1451 7.48709 1.04738 0
M  V30 978 H 87.4131 7.4673 2.23639 0
M  V30 979 N 91.6422 0.330177 1.54103 0
M  V30 980 C 92.8912 -0.271336 1.99867 0
M  V30 981 C 93.2042 -1.52723 1.22209 0
M  V30 982 O 94.4102 -2.20515 1.58383 0
M  V30 983 C 92.8662 -0.534032 3.55916 0
M  V30 984 C 92.4742 0.705193 4.42415 0
M  V30 985 C 94.2182 -1.09514 4.1013 0
M  V30 986 C 92.1252 0.414035 5.89949 0
M  V30 987 H 91.0552 -0.105166 0.74663 0
M  V30 988 H 93.7062 0.443429 1.78062 0
M  V30 989 H 92.0882 -1.30915 3.73734 0
M  V30 990 H 93.2622 1.4804 4.36372 0
M  V30 991 H 91.5772 1.18698 3.99124 0
M  V30 992 H 94.1742 -1.3277 5.17954 0
M  V30 993 H 94.5172 -2.04656 3.62521 0
M  V30 994 H 95.0502 -0.381038 3.95971 0
M  V30 995 H 91.7892 1.33481 6.41766 0
M  V30 996 H 91.3092 -0.323336 5.98928 0
M  V30 997 H 92.9882 0.0263105 6.46995 0
M  V30 998 N 93.1203 -1.57491 0.0584922 0
M  V30 999 C 94.3693 -1.92155 -0.613146 0
M  V30 1000 C 94.6823 -0.939334 -1.71569 0
M  V30 1001 O 95.8883 -1.17829 -2.44599 0
M  V30 1002 C 94.3443 -3.41303 -1.14195 0
M  V30 1003 C 93.9523 -4.47944 -0.0711265 0
M  V30 1004 C 95.6963 -3.84988 -1.78841 0
M  V30 1005 C 93.6033 -5.88212 -0.613225 0
M  V30 1006 H 92.5333 -0.717162 -0.232796 0
M  V30 1007 H 95.1843 -1.83049 0.12857 0
M  V30 1008 H 93.5663 -3.45437 -1.93621 0
M  V30 1009 H 94.7403 -4.55408 0.702836 0
M  V30 1010 H 93.0553 -4.13644 0.478313 0
M  V30 1011 H 95.6523 -4.87159 -2.20408 0
M  V30 1012 H 95.9953 -3.21632 -2.64308 0
M  V30 1013 H 96.5283 -3.83401 -1.06059 0
M  V30 1014 H 93.2673 -6.55183 0.203978 0
M  V30 1015 H 92.7873 -5.84294 -1.35501 0
M  V30 1016 H 94.4663 -6.37687 -1.09383 0
M  V30 1017 N 94.5984 0.214957 -1.56127 0
M  V30 1018 C 95.5314 1.29382 -1.87977 0
M  V30 1019 C 96.5094 1.44897 -0.737807 0
M  V30 1020 O 97.6934 1.60605 -0.986833 0
M  V30 1021 C 94.8204 2.66325 -2.09258 0
M  V30 1022 C 93.8664 2.67789 -3.31951 0
M  V30 1023 S 94.6994 2.21198 -4.8768 0
M  V30 1024 C 95.8554 3.60003 -5.12004 0
M  V30 1025 H 96.0884 1.02173 -2.79192 0
M  V30 1026 H 93.6214 0.417516 -1.48648 0
M  V30 1027 H 95.5794 3.45162 -2.22201 0
M  V30 1028 H 94.2404 2.90755 -1.18829 0
M  V30 1029 H 93.4334 3.68436 -3.43906 0
M  V30 1030 H 93.0354 1.9702 -3.17898 0
M  V30 1031 H 95.3274 4.55739 -5.01307 0
M  V30 1032 H 96.2704 3.52959 -6.13861 0
M  V30 1033 H 96.6784 3.53996 -4.39712 0
M  V30 1034 N 96.0765 1.50051 0.48192 0
M  V30 1035 C 97.4875 1.5348 1.06305 0
M  V30 1036 C 97.8385 0.331997 1.93371 0
M  V30 1037 O 96.9635 -0.556256 2.09129 0
M  V30 1038 C 97.5585 2.7813 1.93466 0
M  V30 1039 C 96.1175 2.84275 2.46707 0
M  V30 1040 C 95.2645 2.47637 1.24785 0
M  V30 1041 H 98.2155 1.56472 0.264995 0
M  V30 1042 H 98.2365 2.59372 2.78399 0
M  V30 1043 H 97.7485 3.65654 1.30072 0
M  V30 1044 H 95.8495 2.01077 3.13686 0
M  V30 1045 H 95.9625 3.8691 2.82555 0
M  V30 1046 H 94.3265 1.99835 1.57918 0
M  V30 1047 H 95.1095 3.37457 0.630694 0
M  V30 1048 N 97.5546 -0.734337 1.39446 0
M  V30 1049 C 98.8026 -1.49096 1.36436 0
M  V30 1050 C 99.1236 -1.94961 -0.0388255 0
M  V30 1051 O 98.3936 -1.69033 -0.990191 0
M  V30 1052 H 96.9736 -0.5531 0.502085 0
M  V30 1053 H 99.6356 -0.871725 1.74319 0
M  V30 1054 H 98.7316 -2.37276 2.02747 0
M  V30 1055 N 99.0327 -1.24633 -0.964593 0
M  V30 1056 C 100.279 -1.08949 -1.71049 0
M  V30 1057 C 100.612 0.370302 -1.90637 0
M  V30 1058 O 99.8867 1.27349 -1.47011 0
M  V30 1059 C 100.17 -1.83329 -3.0994 0
M  V30 1060 C 100.023 -3.37077 -2.97824 0
M  V30 1061 C 101.342 -1.60846 -4.09654 0
M  V30 1062 H 98.4607 -0.397178 -0.620821 0
M  V30 1063 H 101.103 -1.5334 -1.12191 0
M  V30 1064 H 99.2527 -1.45597 -3.60186 0
M  V30 1065 H 100.925 -3.84425 -2.5498 0
M  V30 1066 H 99.1677 -3.65298 -2.33965 0
M  V30 1067 H 99.8387 -3.84324 -3.96231 0
M  V30 1068 H 102.315 -1.93674 -3.68279 0
M  V30 1069 H 101.191 -2.1534 -5.04896 0
M  V30 1070 H 101.452 -0.547434 -4.38698 0
M  V30 1071 N 100.511 1.16574 -1.06058 0
M  V30 1072 C 101.739 1.90952 -0.796552 0
M  V30 1073 C 102.154 1.77302 0.648808 0
M  V30 1074 O 101.511 1.11605 1.44397 0
M  V30 1075 C 101.562 3.41736 -1.17894 0
M  V30 1076 O 101.283 3.54975 -2.56758 0
M  V30 1077 C 102.784 4.33169 -0.942308 0
M  V30 1078 H 100.004 0.605594 -0.288959 0
M  V30 1079 H 102.548 1.47777 -1.41358 0
M  V30 1080 H 100.703 3.82623 -0.606491 0
M  V30 1081 H 101.117 4.4846 -2.72 0
M  V30 1082 H 102.591 5.37439 -1.25952 0
M  V30 1083 H 103.068 4.3903 0.122078 0
M  V30 1084 H 103.674 3.98007 -1.49902 0
M  V30 1085 N 101.989 0.842826 1.3317 0
M  V30 1086 C 102.939 0.250877 2.26616 0
M  V30 1087 C 103.923 -0.596427 1.49437 0
M  V30 1088 O 105.115 -0.447747 1.71243 0
M  V30 1089 C 102.244 -0.569779 3.38539 0
M  V30 1090 C 101.33 0.289254 4.23112 0
M  V30 1091 N 101.721 1.36987 4.86897 0
M  V30 1092 C 100.019 0.0769631 4.45934 0
M  V30 1093 C 100.72 1.89737 5.49886 0
M  V30 1094 N 99.6959 1.19827 5.30229 0
M  V30 1095 H 103.498 1.07718 2.73448 0
M  V30 1096 H 101.012 0.687693 1.47121 0
M  V30 1097 H 103.009 -1.01018 4.04476 0
M  V30 1098 H 101.669 -1.39401 2.93253 0
M  V30 1099 H 102.68 1.75277 4.87338 0
M  V30 1100 H 99.3569 -0.713507 4.11358 0
M  V30 1101 H 100.747 2.80253 6.10662 0
M  V30 1102 N 103.467 -1.45747 0.599634 0
M  V30 1103 C 104.713 -2.03153 0.100263 0
M  V30 1104 C 105.068 -1.46073 -1.25221 0
M  V30 1105 O 104.361 -0.622878 -1.81193 0
M  V30 1106 C 104.555 -3.57399 -0.00602758 0
M  V30 1107 C 104.384 -4.2944 1.3346 0
M  V30 1108 C 103.154 -4.6768 1.91321 0
M  V30 1109 C 105.352 -4.61905 2.2616 0
M  V30 1110 N 103.334 -5.24544 3.18946 0
M  V30 1111 C 104.705 -5.19518 3.3838 0
M  V30 1112 C 106.76 -4.43841 2.25631 0
M  V30 1113 C 105.463 -5.60972 4.50226 0
M  V30 1114 C 107.489 -4.86322 3.36518 0
M  V30 1115 C 106.851 -5.44021 4.4746 0
M  V30 1116 H 102.95 -0.777911 0.0798696 0
M  V30 1117 H 105.534 -1.77674 0.796244 0
M  V30 1118 H 103.705 -3.82556 -0.671212 0
M  V30 1119 H 105.437 -4.01457 -0.51133 0
M  V30 1120 H 102.192 -4.5098 1.44617 0
M  V30 1121 H 102.616 -5.57483 3.84112 0
M  V30 1122 H 107.258 -3.98552 1.41123 0
M  V30 1123 H 104.976 -6.0523 5.35464 0
M  V30 1124 H 108.562 -4.74084 3.37247 0
M  V30 1125 H 107.442 -5.76289 5.31846 0
M  V30 1126 N 104.945 -0.338344 -1.53925 0
M  V30 1127 C 105.895 0.536712 -2.21593 0
M  V30 1128 C 106.879 1.07015 -1.20153 0
M  V30 1129 O 108.071 1.00471 -1.45721 0
M  V30 1130 C 105.2 1.68977 -2.98834 0
M  V30 1131 C 104.286 1.17052 -4.07627 0
M  V30 1132 N 104.677 0.372085 -5.0443 0
M  V30 1133 C 102.975 1.44789 -4.21844 0
M  V30 1134 C 103.676 0.0909171 -5.81629 0
M  V30 1135 N 102.652 0.681131 -5.39316 0
M  V30 1136 H 106.454 -0.0804298 -2.9379 0
M  V30 1137 H 103.968 -0.144943 -1.61752 0
M  V30 1138 H 105.965 2.32857 -3.45808 0
M  V30 1139 H 104.625 2.31024 -2.28162 0
M  V30 1140 H 105.636 0.0136217 -5.17898 0
M  V30 1141 H 102.313 2.07313 -3.62391 0
M  V30 1142 H 103.703 -0.552817 -6.69622 0
M  V30 1143 N 106.423 1.57458 -0.0668435 0
M  V30 1144 C 107.648 1.9804 0.616027 0
M  V30 1145 C 108.073 0.944771 1.62652 0
M  V30 1146 O 107.431 -0.0902094 1.81075 0
M  V30 1147 C 107.479 3.37665 1.26549 0
M  V30 1148 O 106.583 3.36701 2.38131 0
M  V30 1149 H 105.924 0.644719 0.158849 0
M  V30 1150 H 108.454 2.04121 -0.139891 0
M  V30 1151 H 108.464 3.7474 1.6135 0
M  V30 1152 H 107.139 4.12573 0.525016 0
M  V30 1153 H 105.716 3.1139 2.0516 0
M  V30 1154 N 107.901 -0.206675 1.56239 0
M  V30 1155 C 109.312 -0.772383 1.69974 0
M  V30 1156 C 109.663 -1.84353 0.671436 0
M  V30 1157 O 108.788 -2.15695 -0.174491 0
M  V30 1158 C 109.383 -1.40779 3.08167 0
M  V30 1159 C 107.942 -1.92072 3.23706 0
M  V30 1160 C 107.089 -0.786347 2.65917 0
M  V30 1161 H 110.04 0.0182223 1.5869 0
M  V30 1162 H 110.061 -2.27696 3.04852 0
M  V30 1163 H 109.573 -0.627958 3.82986 0
M  V30 1164 H 107.674 -2.7281 2.53782 0
M  V30 1165 H 107.787 -2.09046 4.31087 0
M  V30 1166 H 106.151 -1.1976 2.24788 0
M  V30 1167 H 106.934 -0.0189416 3.43295 0
M  V30 1168 N 109.379 -1.50304 -0.473955 0
M  V30 1169 C 110.609 -1.64663 -1.24778 0
M  V30 1170 C 111.017 -0.328174 -1.86332 0
M  V30 1171 O 110.36 0.699536 -1.69859 0
M  V30 1172 C 110.422 -2.6778 -2.39863 0
M  V30 1173 C 110.086 -4.11413 -1.98969 0
M  V30 1174 C 111.083 -4.97372 -1.51385 0
M  V30 1175 C 108.768 -4.57312 -2.07777 0
M  V30 1176 C 110.762 -6.27277 -1.13148 0
M  V30 1177 C 108.449 -5.87223 -1.69152 0
M  V30 1178 C 109.447 -6.72031 -1.21915 0
M  V30 1179 O 109.135 -7.99518 -0.838237 0
M  V30 1180 H 108.867 -0.556602 -0.383627 0
M  V30 1181 H 111.421 -1.9726 -0.572491 0
M  V30 1182 H 109.651 -2.30419 -3.10554 0
M  V30 1183 H 111.34 -2.71388 -3.01833 0
M  V30 1184 H 112.106 -4.63128 -1.44004 0
M  V30 1185 H 107.985 -3.91449 -2.43493 0
M  V30 1186 H 111.529 -6.93425 -0.762077 0
M  V30 1187 H 107.426 -6.20989 -1.76191 0
M  V30 1188 H 108.194 -8.12764 -0.967339 0
M  V30 1189 N 110.857 0.726932 -1.39834 0
M  V30 1190 C 112.104 1.48664 -1.37496 0
M  V30 1191 C 112.432 1.94482 0.0264678 0
M  V30 1192 O 111.687 1.67692 1.00886 0
M  V30 1193 C 111.986 2.73495 -2.30077 0
M  V30 1194 C 111.652 2.46502 -3.77555 0
M  V30 1195 C 110.314 2.3885 -4.17737 0
M  V30 1196 C 112.666 2.23604 -4.70798 0
M  V30 1197 C 109.994 2.06352 -5.49214 0
M  V30 1198 C 112.346 1.92622 -6.02561 0
M  V30 1199 C 111.01 1.83444 -6.41798 0
M  V30 1200 H 110.28 0.544001 -0.503135 0
M  V30 1201 H 112.927 0.833657 -1.72402 0
M  V30 1202 H 111.232 3.43575 -1.88317 0
M  V30 1203 H 112.929 3.31549 -2.25558 0
M  V30 1204 H 109.519 2.5334 -3.45712 0
M  V30 1205 H 113.703 2.28479 -4.40581 0
M  V30 1206 H 108.959 1.97776 -5.78528 0
M  V30 1207 H 113.133 1.73914 -6.74334 0
M  V30 1208 H 110.76 1.58029 -7.43593 0
M  V30 1209 N 112.336 1.25143 0.95797 0
M  V30 1210 C 113.583 1.09692 1.70217 0
M  V30 1211 C 113.911 -0.362654 1.91089 0
M  V30 1212 O 113.166 -1.28386 1.47701 0
M  V30 1213 C 113.465 1.79272 3.09187 0
M  V30 1214 C 113.131 3.29196 3.08125 0
M  V30 1215 C 111.793 3.70096 3.07543 0
M  V30 1216 C 114.145 4.24995 3.0171 0
M  V30 1217 C 111.473 5.05213 2.9829 0
M  V30 1218 C 113.825 5.60132 2.93999 0
M  V30 1219 C 112.489 6.00365 2.9175 0
M  V30 1220 H 111.759 0.401393 0.622868 0
M  V30 1221 H 114.406 1.55372 1.11945 0
M  V30 1222 H 112.711 1.26014 3.70982 0
M  V30 1223 H 114.408 1.64773 3.65583 0
M  V30 1224 H 110.998 2.96651 3.09348 0
M  V30 1225 H 115.182 3.9439 3.01281 0
M  V30 1226 H 110.438 5.35569 2.94916 0
M  V30 1227 H 114.612 6.3406 2.87996 0
M  V30 1228 H 112.239 7.05023 2.84336 0
M  V30 1229 N 113.814 -1.1601 1.06675 0
M  V30 1230 C 114.777 -2.18724 0.685001 0
M  V30 1231 C 115.777 -1.58496 -0.271246 0
M  V30 1232 O 116.967 -1.74119 -0.0531156 0
M  V30 1233 C 114.099 -3.40899 0.00853648 0
M  V30 1234 H 115.292 -2.54011 1.59431 0
M  V30 1235 H 112.845 -1.30352 0.862441 0
M  V30 1236 H 113.58 -3.11173 -0.913337 0
M  V30 1237 H 113.365 -3.8587 0.696204 0
M  V30 1238 H 114.855 -4.16886 -0.24414 0
M  V30 1239 N 115.292 -0.849877 -1.32721 0
M  V30 1240 C 116.522 -0.46408 -2.0132 0
M  V30 1241 C 116.93 0.94246 -1.64056 0
M  V30 1242 O 116.273 1.6257 -0.855379 0
M  V30 1243 C 116.335 -0.517887 -3.5575 0
M  V30 1244 C 115.999 -1.88248 -4.16427 0
M  V30 1245 C 116.996 -2.84726 -4.35002 0
M  V30 1246 C 114.681 -2.17832 -4.52609 0
M  V30 1247 C 116.675 -4.08945 -4.8892 0
M  V30 1248 C 114.362 -3.42304 -5.06232 0
M  V30 1249 C 115.36 -4.37677 -5.24335 0
M  V30 1250 O 115.048 -5.59946 -5.76815 0
M  V30 1251 H 114.78 -0.181327 -0.651227 0
M  V30 1252 H 117.334 -1.14713 -1.70382 0
M  V30 1253 H 115.564 0.221997 -3.86062 0
M  V30 1254 H 117.253 -0.148366 -4.05629 0
M  V30 1255 H 118.019 -2.63174 -4.07388 0
M  V30 1256 H 113.898 -1.44385 -4.37806 0
M  V30 1257 H 117.442 -4.83396 -5.02966 0
M  V30 1258 H 113.339 -3.63709 -5.33278 0
M  V30 1259 H 114.107 -5.61838 -5.95214 0
M  V30 1260 N 116.77 1.45427 -0.607355 0
M  V30 1261 C 118.017 2.02241 -0.102455 0
M  V30 1262 C 118.345 1.4758 1.26691 0
M  V30 1263 O 117.6 0.640468 1.84923 0
M  V30 1264 C 117.899 3.57398 -0.0129263 0
M  V30 1265 C 117.565 4.3121 -1.31792 0
M  V30 1266 C 116.227 4.51092 -1.67539 0
M  V30 1267 C 118.579 4.73401 -2.18039 0
M  V30 1268 C 115.907 5.10422 -2.89285 0
M  V30 1269 C 118.259 5.34078 -3.39034 0
M  V30 1270 C 116.923 5.52184 -3.75033 0
M  V30 1271 H 116.193 0.740051 -0.037491 0
M  V30 1272 H 118.84 1.74494 -0.788926 0
M  V30 1273 H 117.145 3.84421 0.756806 0
M  V30 1274 H 118.842 3.99061 0.393881 0
M  V30 1275 H 115.432 4.16047 -1.02968 0
M  V30 1276 H 119.616 4.57774 -1.91721 0
M  V30 1277 H 114.872 5.22629 -3.17283 0
M  V30 1278 H 119.046 5.65724 -4.06115 0
M  V30 1279 H 116.673 5.97925 -4.69457 0
M  V30 1280 N 118.248 0.346503 1.53744 0
M  V30 1281 C 119.659 -0.136779 1.86198 0
M  V30 1282 C 120.01 -1.49749 1.26766 0
M  V30 1283 O 119.135 -2.08417 0.582355 0
M  V30 1284 C 119.73 -0.254966 3.37839 0
M  V30 1285 C 118.289 -0.682482 3.70161 0
M  V30 1286 C 117.436 0.181981 2.76702 0
M  V30 1287 H 120.387 0.565994 1.48264 0
M  V30 1288 H 120.408 -1.08195 3.64793 0
M  V30 1289 H 119.92 0.735526 3.81066 0
M  V30 1290 H 118.021 -1.68189 3.3248 0
M  V30 1291 H 118.134 -0.470326 4.76786 0
M  V30 1292 H 116.498 -0.34615 2.52337 0
M  V30 1293 H 117.281 1.16966 3.2276 0
M  V30 1294 N 119.726 -1.57421 0.075193 0
M  V30 1295 C 120.954 -1.97946 -0.602076 0
M  V30 1296 C 121.369 -0.953674 -1.62943 0
M  V30 1297 O 120.726 0.0592551 -1.82404 0
M  V30 1298 C 120.777 -3.38546 -1.26762 0
M  V30 1299 O 120.498 -4.37195 -0.281376 0
M  V30 1300 C 121.999 -3.93966 -2.03239 0
M  V30 1301 H 119.219 -0.650918 -0.162931 0
M  V30 1302 H 121.763 -2.03959 0.148601 0
M  V30 1303 H 119.918 -3.33609 -1.96936 0
M  V30 1304 H 120.332 -5.18975 -0.759267 0
M  V30 1305 H 121.806 -4.94555 -2.45193 0
M  V30 1306 H 122.283 -3.30693 -2.8903 0
M  V30 1307 H 122.889 -4.02315 -1.37924 0
M  V30 1308 N 121.204 0.198386 -1.56346 0
M  V30 1309 C 122.167 1.22952 -1.93431 0
M  V30 1310 C 123.167 1.38611 -0.815092 0
M  V30 1311 O 124.357 1.36479 -1.08255 0
M  V30 1312 C 121.489 2.59946 -2.20546 0
M  V30 1313 H 122.682 0.912626 -2.85677 0
M  V30 1314 H 120.235 0.43977 -1.49986 0
M  V30 1315 H 120.97 2.96696 -1.30927 0
M  V30 1316 H 120.755 2.49953 -3.02102 0
M  V30 1317 H 122.245 3.3431 -2.50253 0
M  V30 1318 N 122.682 1.50554 0.465978 0
M  V30 1319 C 123.907 1.65838 1.24549 0
M  V30 1320 C 124.332 0.343486 1.84937 0
M  V30 1321 O 123.69 -0.69324 1.67523 0
M  V30 1322 C 123.738 2.75533 2.32624 0
M  V30 1323 O 122.842 2.37142 3.37398 0
M  V30 1324 H 122.183 0.553893 0.366194 0
M  V30 1325 H 124.713 1.96959 0.553927 0
M  V30 1326 H 124.723 2.98763 2.77857 0
M  V30 1327 H 123.398 3.70962 1.88043 0
M  V30 1328 H 121.975 2.24377 2.97841 0
M  V30 1329 N 124.16 -0.719506 1.40217 0
M  V30 1330 C 125.385 -1.51371 1.4178 0
M  V30 1331 C 125.81 -1.88091 0.0182355 0
M  V30 1332 O 125.168 -1.52997 -0.972707 0
M  V30 1333 C 125.216 -2.768 2.31115 0
M  V30 1334 O 124.32 -3.73349 1.7517 0
M  V30 1335 H 123.661 -0.456529 0.482159 0
M  V30 1336 H 126.191 -0.88644 1.844 0
M  V30 1337 H 126.201 -3.25371 2.46167 0
M  V30 1338 H 124.876 -2.49407 3.3282 0
M  V30 1339 H 123.453 -3.32179 1.69444 0
M  V30 1340 N 125.638 -1.25649 -0.95132 0
M  V30 1341 C 126.868 -1.13179 -1.72841 0
M  V30 1342 C 127.276 0.316827 -1.86528 0
M  V30 1343 O 126.619 1.22948 -1.3649 0
M  V30 1344 C 126.681 -1.71644 -3.15878 0
M  V30 1345 C 126.345 -3.20667 -3.25609 0
M  V30 1346 C 127.342 -4.17616 -3.09666 0
M  V30 1347 C 125.027 -3.6094 -3.49324 0
M  V30 1348 C 127.021 -5.52817 -3.17289 0
M  V30 1349 C 124.708 -4.96278 -3.56584 0
M  V30 1350 C 125.706 -5.92025 -3.40581 0
M  V30 1351 O 125.394 -7.24899 -3.47528 0
M  V30 1352 H 125.126 -0.395389 -0.54831 0
M  V30 1353 H 127.68 -1.66566 -1.20187 0
M  V30 1354 H 125.91 -1.12707 -3.69911 0
M  V30 1355 H 127.599 -1.54225 -3.75459 0
M  V30 1356 H 128.365 -3.87842 -2.91211 0
M  V30 1357 H 124.244 -2.86907 -3.6084 0
M  V30 1358 H 127.788 -6.2753 -3.04716 0
M  V30 1359 H 123.685 -5.25716 -3.74556 0
M  V30 1360 H 124.453 -7.33039 -3.64138 0
M  V30 1361 N 127.117 1.15442 -1.07289 0
M  V30 1362 C 128.528 1.67803 -0.818475 0
M  V30 1363 C 128.879 1.8489 0.656507 0
M  V30 1364 O 128.004 1.55176 1.50829 0
M  V30 1365 C 128.599 3.04805 -1.47917 0
M  V30 1366 C 127.158 3.54245 -1.27229 0
M  V30 1367 C 126.305 2.29986 -1.54925 0
M  V30 1368 H 129.256 0.996646 -1.23502 0
M  V30 1369 H 129.277 3.69702 -0.90005 0
M  V30 1370 H 128.789 2.92336 -2.55267 0
M  V30 1371 H 126.89 3.71956 -0.21899 0
M  V30 1372 H 127.003 4.35723 -1.99203 0
M  V30 1373 H 125.367 2.35496 -0.970242 0
M  V30 1374 H 126.15 2.20105 -2.63455 0
M  V30 1375 N 128.595 0.856903 1.32268 0
M  V30 1376 C 129.558 0.308171 2.27119 0
M  V30 1377 C 130.558 -0.533421 1.51695 0
M  V30 1378 O 131.748 -0.344607 1.70757 0
M  V30 1379 C 128.88 -0.563757 3.36206 0
M  V30 1380 H 130.073 1.14535 2.77167 0
M  V30 1381 H 127.626 0.631421 1.42978 0
M  V30 1382 H 128.361 -1.42266 2.91429 0
M  V30 1383 H 128.146 0.0386749 3.92081 0
M  V30 1384 H 129.636 -0.940386 4.06874 0
M  V30 1385 N 130.073 -1.45103 0.615059 0
M  V30 1386 C 131.006 -2.27717 -0.148408 0
M  V30 1387 C 131.984 -1.37584 -0.866572 0
M  V30 1388 O 133.168 -1.67017 -0.87393 0
M  V30 1389 C 130.295 -3.16136 -1.21557 0
M  V30 1390 C 129.341 -4.22263 -0.599712 0
M  V30 1391 S 130.174 -5.3215 0.598081 0
M  V30 1392 C 131.33 -6.24137 -0.469484 0
M  V30 1393 H 131.563 -2.92121 0.552483 0
M  V30 1394 H 129.096 -1.49054 0.402778 0
M  V30 1395 H 131.054 -3.67633 -1.82638 0
M  V30 1396 H 129.715 -2.50982 -1.88857 0
M  V30 1397 H 128.908 -4.84081 -1.4029 0
M  V30 1398 H 128.51 -3.73945 -0.063876 0
M  V30 1399 H 130.802 -6.63984 -1.34652 0
M  V30 1400 H 131.745 -7.0801 0.112725 0
M  V30 1401 H 132.153 -5.58971 -0.788168 0
M  V30 1402 N 131.551 -0.354651 -1.53558 0
M  V30 1403 C 132.481 0.489091 -2.2832 0
M  V30 1404 C 133.462 1.09324 -1.30316 0
M  V30 1405 O 134.647 1.11255 -1.59173 0
M  V30 1406 C 131.777 1.63456 -3.0643 0
M  V30 1407 C 130.731 1.1582 -4.12031 0
M  V30 1408 C 130.057 2.39305 -4.7816 0
M  V30 1409 C 131.357 0.250731 -5.21698 0
M  V30 1410 H 133.051 -0.134614 -2.99097 0
M  V30 1411 H 130.597 -0.0661826 -1.43848 0
M  V30 1412 H 132.55 2.23136 -3.57475 0
M  V30 1413 H 131.274 2.28533 -2.33325 0
M  V30 1414 H 129.933 0.584146 -3.61916 0
M  V30 1415 H 129.581 3.02814 -4.01637 0
M  V30 1416 H 129.281 2.08109 -5.49513 0
M  V30 1417 H 130.805 2.99691 -5.31994 0
M  V30 1418 H 132.219 0.754695 -5.68311 0
M  V30 1419 H 130.616 0.0301468 -6.00092 0
M  V30 1420 H 131.686 -0.710125 -4.79672 0
M  V30 1421 N 133.029 1.57378 -0.0835403 0
M  V30 1422 C 133.992 2.12252 0.864959 0
M  V30 1423 C 134.992 1.04916 1.21858 0
M  V30 1424 O 136.182 1.30853 1.14991 0
M  V30 1425 C 133.314 2.63358 2.16461 0
M  V30 1426 H 134.507 2.97371 0.388676 0
M  V30 1427 H 132.06 1.55423 0.165317 0
M  V30 1428 H 132.795 1.81727 2.686 0
M  V30 1429 H 132.58 3.41826 1.92087 0
M  V30 1430 H 134.07 3.05847 2.84337 0
M  V30 1431 N 134.507 -0.190092 1.56449 0
M  V30 1432 C 135.784 -0.935886 1.71757 0
M  V30 1433 C 136.164 -2.01173 0.639726 0
M  V30 1434 O 135.512 -2.25827 -0.348502 0
M  V30 1435 C 135.722 -1.51775 3.1427 0
M  V30 1436 C 137.07 -1.99794 3.74656 0
M  V30 1437 O 138.094 -1.61607 3.1743 0
M  V30 1438 O 136.953 -2.70079 4.751 0
M  V30 1439 H 134.047 -0.439229 0.700719 0
M  V30 1440 H 136.593 -0.179395 1.68749 0
M  V30 1441 H 135.365 -0.742505 3.84191 0
M  V30 1442 H 134.988 -2.33894 3.21527 0
M  V30 1443 N 135.985 -1.50799 -0.457987 0
M  V30 1444 C 136.918 -1.65273 -1.57353 0
M  V30 1445 C 137.896 -0.500578 -1.54703 0
M  V30 1446 O 139.08 -0.721781 -1.74134 0
M  V30 1447 C 136.207 -1.64737 -2.95938 0
M  V30 1448 C 135.253 -2.8567 -3.16693 0
M  V30 1449 S 136.086 -4.46791 -2.95191 0
M  V30 1450 C 137.242 -4.48968 -4.36095 0
M  V30 1451 H 137.475 -2.59633 -1.44838 0
M  V30 1452 H 135.008 -1.40225 -0.64625 0
M  V30 1453 H 136.966 -1.65112 -3.7583 0
M  V30 1454 H 135.627 -0.715899 -3.05833 0
M  V30 1455 H 134.82 -2.81637 -4.17967 0
M  V30 1456 H 134.422 -2.8293 -2.44594 0
M  V30 1457 H 136.714 -4.23337 -5.28954 0
M  V30 1458 H 137.657 -5.50664 -4.45168 0
M  V30 1459 H 138.065 -3.78522 -4.18786 0
M  V30 1460 N 137.463 0.71206 -1.40597 0
M  V30 1461 C 138.393 1.83889 -1.43899 0
M  V30 1462 C 139.374 1.67442 -0.299504 0
M  V30 1463 O 140.559 1.87421 -0.508624 0
M  V30 1464 C 137.689 3.21877 -1.30431 0
M  V30 1465 C 136.643 3.53002 -2.42019 0
M  V30 1466 C 135.969 4.90172 -2.13626 0
M  V30 1467 C 137.269 3.53643 -3.84362 0
M  V30 1468 H 138.963 1.81383 -2.38203 0
M  V30 1469 H 136.509 0.871237 -1.14654 0
M  V30 1470 H 138.462 4.00404 -1.31357 0
M  V30 1471 H 137.186 3.24968 -0.326049 0
M  V30 1472 H 135.845 2.76818 -2.40349 0
M  V30 1473 H 135.493 4.89869 -1.14182 0
M  V30 1474 H 135.193 5.11962 -2.88389 0
M  V30 1475 H 136.717 5.71028 -2.1624 0
M  V30 1476 H 138.131 4.22203 -3.87837 0
M  V30 1477 H 136.528 3.86961 -4.58673 0
M  V30 1478 H 137.598 2.52954 -4.13693 0
M  V30 1479 N 138.941 1.26152 0.944643 0
M  V30 1480 C 140.181 1.12708 1.70517 0
M  V30 1481 C 140.545 -0.324727 1.89234 0
M  V30 1482 O 141.746 -0.581211 2.62441 0
M  V30 1483 C 140.017 1.8713 3.04495 0
M  V30 1484 S 141.576 1.89698 3.95677 0
M  V30 1485 H 138.394 0.402665 0.585988 0
M  V30 1486 H 140.996 1.59821 1.12594 0
M  V30 1487 H 139.7 2.91833 2.88551 0
M  V30 1488 H 139.231 1.40444 3.67477 0
M  V30 1489 H 141.246 0.981198 4.86402 0
M  V30 1490 N 140.419 -1.14872 1.07899 0
M  V30 1491 C 141.667 -1.85422 0.803941 0
M  V30 1492 C 141.988 -1.83051 -0.67211 0
M  V30 1493 O 141.258 -1.27532 -1.48703 0
M  V30 1494 H 139.838 -0.686537 0.294408 0
M  V30 1495 H 142.5 -1.39226 1.3639 0
M  V30 1496 H 141.596 -2.90399 1.14346 0
M  V30 1497 N 141.898 -0.863906 -1.31812 0
M  V30 1498 C 142.861 -0.320212 -2.26952 0
M  V30 1499 C 143.861 0.525369 -1.51975 0
M  V30 1500 O 145.051 0.335547 -1.70938 0
M  V30 1501 C 142.183 0.545919 -3.365 0
M  V30 1502 H 143.376 -1.16004 -2.76556 0
M  V30 1503 H 140.929 -0.638995 -1.42641 0
M  V30 1504 H 141.664 1.40718 -2.92179 0
M  V30 1505 H 141.449 -0.0594674 -3.92055 0
M  V30 1506 H 142.939 0.918796 -4.07367 0
M  V30 1507 N 143.376 1.44774 -0.622745 0
M  V30 1508 C 144.625 2.01334 -0.121397 0
M  V30 1509 C 144.938 1.49505 1.26125 0
M  V30 1510 O 146.144 1.98139 1.85616 0
M  V30 1511 C 144.6 3.59516 -0.166298 0
M  V30 1512 C 144.208 4.20342 -1.54974 0
M  V30 1513 C 145.952 4.23582 0.279021 0
M  V30 1514 C 143.859 5.70721 -1.55021 0
M  V30 1515 H 142.789 0.752851 -0.0416172 0
M  V30 1516 H 145.44 1.66083 -0.780309 0
M  V30 1517 H 143.822 3.92027 0.559557 0
M  V30 1518 H 144.996 3.99381 -2.29851 0
M  V30 1519 H 143.311 3.68529 -1.93843 0
M  V30 1520 H 145.908 5.33868 0.298083 0
M  V30 1521 H 146.251 3.95327 1.30471 0
M  V30 1522 H 146.784 3.95843 -0.394063 0
M  V30 1523 H 143.523 6.03698 -2.55399 0
M  V30 1524 H 143.043 5.93829 -0.844245 0
M  V30 1525 H 144.722 6.34203 -1.28047 0
M  V30 1526 N 144.854 0.36279 1.53368 0
M  V30 1527 C 146.102 -0.227326 2.00817 0
M  V30 1528 C 146.423 -1.49511 1.25186 0
M  V30 1529 O 145.693 -1.92482 0.364348 0
M  V30 1530 H 144.273 -0.0869923 0.741917 0
M  V30 1531 H 146.935 0.488381 1.88682 0
M  V30 1532 H 146.031 -0.456273 3.08747 0
M  V30 1533 N 146.332 -1.57332 0.0918853 0
M  V30 1534 C 147.572 -1.96117 -0.575988 0
M  V30 1535 C 147.936 -0.972499 -1.65549 0
M  V30 1536 O 149.137 -1.24872 -2.38034 0
M  V30 1537 C 147.408 -3.39407 -1.11973 0
M  V30 1538 S 148.967 -4.00185 -1.79992 0
M  V30 1539 H 145.785 -0.685682 -0.188045 0
M  V30 1540 H 148.387 -1.94755 0.170525 0
M  V30 1541 H 147.091 -4.09131 -0.322504 0
M  V30 1542 H 146.622 -3.44358 -1.90214 0
M  V30 1543 H 148.637 -3.88728 -3.08391 0
M  V30 1544 N 147.81 0.181792 -1.56548 0
M  V30 1545 C 149.059 0.898348 -1.8059 0
M  V30 1546 C 149.372 1.83862 -0.667379 0
M  V30 1547 O 150.578 2.59678 -0.792446 0
M  V30 1548 C 149.034 1.64791 -3.19956 0
M  V30 1549 C 148.642 0.751789 -4.41647 0
M  V30 1550 C 150.386 2.35331 -3.53298 0
M  V30 1551 C 148.293 1.50098 -5.72035 0
M  V30 1552 H 147.223 0.339194 -0.673397 0
M  V30 1553 H 149.874 0.151413 -1.82874 0
M  V30 1554 H 148.256 2.43921 -3.11959 0
M  V30 1555 H 149.43 -0.0018076 -4.608 0
M  V30 1556 H 147.745 0.156562 -4.16106 0
M  V30 1557 H 150.342 2.91958 -4.47956 0
M  V30 1558 H 150.685 3.10164 -2.77676 0
M  V30 1559 H 151.218 1.63154 -3.62803 0
M  V30 1560 H 147.957 0.795175 -6.50659 0
M  V30 1561 H 147.477 2.22817 -5.56878 0
M  V30 1562 H 149.156 2.05125 -6.13622 0
M  V30 1563 N 149.288 1.51039 0.449983 0
M  V30 1564 C 150.536 1.62759 1.19808 0
M  V30 1565 C 150.857 0.339981 1.92013 0
M  V30 1566 O 150.127 -0.643606 1.85026 0
M  V30 1567 H 148.707 0.599811 0.445237 0
M  V30 1568 H 151.369 1.87914 0.517138 0
M  V30 1569 H 150.465 2.44911 1.93455 0
M  V30 1570 N 150.766 -0.704594 1.40972 0
M  V30 1571 C 152.013 -1.46458 1.39844 0
M  V30 1572 C 152.341 -1.94499 0.00447594 0
M  V30 1573 O 151.596 -1.69275 -0.982057 0
M  V30 1574 C 151.895 -2.698 2.34399 0
M  V30 1575 C 151.561 -2.40464 3.81429 0
M  V30 1576 C 150.223 -2.32174 4.21484 0
M  V30 1577 C 152.575 -2.16086 4.74296 0
M  V30 1578 C 149.903 -1.97589 5.52427 0
M  V30 1579 C 152.255 -1.83011 6.05549 0
M  V30 1580 C 150.919 -1.7321 6.44635 0
M  V30 1581 H 150.189 -0.535927 0.511725 0
M  V30 1582 H 152.836 -0.806124 1.73706 0
M  V30 1583 H 151.141 -3.40536 1.93759 0
M  V30 1584 H 152.838 -3.27919 2.30804 0
M  V30 1585 H 149.428 -2.47808 3.49699 0
M  V30 1586 H 153.612 -2.2144 4.4416 0
M  V30 1587 H 148.868 -1.88547 5.81601 0
M  V30 1588 H 153.042 -1.63164 6.77016 0
M  V30 1589 H 150.669 -1.46179 7.46013 0
M  V30 1590 N 152.244 -1.26651 -0.937939 0
M  V30 1591 C 153.469 -1.15279 -1.72411 0
M  V30 1592 C 153.894 0.287866 -1.85884 0
M  V30 1593 O 153.252 1.20855 -1.35143 0
M  V30 1594 C 153.3 -1.83028 -3.10698 0
M  V30 1595 O 152.404 -1.12128 -3.96864 0
M  V30 1596 H 151.745 -0.401504 -0.528858 0
M  V30 1597 H 154.275 -1.67531 -1.1745 0
M  V30 1598 H 154.285 -1.89981 -3.6107 0
M  V30 1599 H 152.96 -2.87833 -3.00208 0
M  V30 1600 H 151.537 -1.13173 -3.55312 0
M  V30 1601 N 153.722 1.14298 -1.08507 0
M  V30 1602 C 154.968 1.85854 -0.826438 0
M  V30 1603 C 155.323 1.81413 0.640878 0
M  V30 1604 O 154.616 1.23463 1.46518 0
M  V30 1605 C 154.81 3.33547 -1.28379 0
M  V30 1606 C 154.639 3.52369 -2.79403 0
M  V30 1607 C 153.409 3.67159 -3.47164 0
M  V30 1608 C 155.607 3.49203 -3.77573 0
M  V30 1609 N 153.589 3.74149 -4.86709 0
M  V30 1610 C 154.96 3.6245 -5.03021 0
M  V30 1611 C 157.015 3.32547 -3.70563 0
M  V30 1612 C 155.718 3.60761 -6.2229 0
M  V30 1613 C 157.744 3.32162 -4.89308 0
M  V30 1614 C 157.106 3.45949 -6.13595 0
M  V30 1615 H 153.205 0.696705 -0.355143 0
M  V30 1616 H 155.789 1.36981 -1.38362 0
M  V30 1617 H 153.96 3.81008 -0.754166 0
M  V30 1618 H 155.692 3.92867 -0.971469 0
M  V30 1619 H 152.447 3.68433 -2.9758 0
M  V30 1620 H 152.871 3.81359 -5.5937 0
M  V30 1621 H 157.513 3.20797 -2.75407 0
M  V30 1622 H 155.231 3.71286 -7.17755 0
M  V30 1623 H 158.817 3.20485 -4.85573 0
M  V30 1624 H 157.697 3.456 -7.03939 0
M  V30 1625 N 155.201 0.870884 1.31352 0
M  V30 1626 C 156.164 0.332243 2.26779 0
M  V30 1627 C 157.164 -0.517302 1.52252 0
M  V30 1628 O 158.354 -0.326477 1.71113 0
M  V30 1629 C 155.486 -0.528066 3.36785 0
M  V30 1630 H 156.679 1.17469 2.75937 0
M  V30 1631 H 154.232 0.64655 1.423 0
M  V30 1632 H 154.967 -1.39167 2.92922 0
M  V30 1633 H 154.752 0.0802582 3.92018 0
M  V30 1634 H 156.242 -0.897179 4.07849 0
M  V30 1635 N 156.679 -1.44442 0.630414 0
M  V30 1636 C 157.642 -2.29107 -0.0652523 0
M  V30 1637 C 158.642 -1.41002 -0.772995 0
M  V30 1638 O 159.832 -1.62881 -0.617692 0
M  V30 1639 C 156.964 -3.22564 -1.10296 0
M  V30 1640 H 158.157 -2.92103 0.679401 0
M  V30 1641 H 155.71 -1.51343 0.390517 0
M  V30 1642 H 156.445 -2.64416 -1.87762 0
M  V30 1643 H 156.23 -3.87491 -0.59941 0
M  V30 1644 H 157.72 -3.86167 -1.5895 0
M  V30 1645 N 158.157 -0.370918 -1.53173 0
M  V30 1646 C 159.382 0.220293 -2.06227 0
M  V30 1647 C 159.807 1.41243 -1.24225 0
M  V30 1648 O 159.165 1.79387 -0.262645 0
M  V30 1649 C 159.213 0.586663 -3.55796 0
M  V30 1650 O 158.317 1.68317 -3.76488 0
M  V30 1651 H 157.658 0.0308099 -0.663285 0
M  V30 1652 H 160.188 -0.533068 -1.97534 0
M  V30 1653 H 160.198 0.85617 -3.98916 0
M  V30 1654 H 158.873 -0.285013 -4.14922 0
M  V30 1655 H 157.45 1.40881 -3.45264 0
M  V30 1656 N 159.635 1.57281 -0.100228 0
M  V30 1657 C 161.046 1.81725 0.428107 0
M  V30 1658 C 161.397 1.01619 1.67833 0
M  V30 1659 O 160.522 0.247098 2.14985 0
M  V30 1660 C 161.117 3.29617 0.78347 0
M  V30 1661 C 159.676 3.54808 1.25653 0
M  V30 1662 C 158.823 2.76118 0.255752 0
M  V30 1663 H 161.774 1.55324 -0.325608 0
M  V30 1664 H 161.795 3.4322 1.64256 0
M  V30 1665 H 161.307 3.87893 -0.12665 0
M  V30 1666 H 159.408 3.01868 2.18418 0
M  V30 1667 H 159.521 4.63443 1.21482 0
M  V30 1668 H 157.885 2.43745 0.738956 0
M  V30 1669 H 158.668 3.37145 -0.647136 0
M  V30 1670 N 161.113 -0.173488 1.56642 0
M  V30 1671 C 162.076 -1.19859 1.95362 0
M  V30 1672 C 163.076 -1.37296 0.83704 0
M  V30 1673 O 164.266 -1.34739 1.10413 0
M  V30 1674 C 161.398 -2.56405 2.24654 0
M  V30 1675 H 162.591 -0.867062 2.87092 0
M  V30 1676 H 160.144 -0.415853 1.50666 0
M  V30 1677 H 160.879 -2.94576 1.35631 0
M  V30 1678 H 160.664 -2.45115 3.06041 0
M  V30 1679 H 162.154 -3.30287 2.5554 0
M  V30 1680 N 162.591 -1.51276 -0.441967 0
M  V30 1681 C 163.831 -1.65372 -1.20132 0
M  V30 1682 C 164.195 -0.359871 -1.88597 0
M  V30 1683 O 165.396 -0.376551 -2.66149 0
M  V30 1684 C 163.667 -2.8207 -2.1948 0
M  V30 1685 S 165.226 -3.16467 -3.03964 0
M  V30 1686 H 162.044 -0.582669 -0.407453 0
M  V30 1687 H 164.646 -1.89166 -0.493609 0
M  V30 1688 H 163.35 -3.74523 -1.67812 0
M  V30 1689 H 162.881 -2.6045 -2.94838 0
M  V30 1690 H 164.896 -2.62543 -4.21053 0
M  V30 1691 N 164.069 0.697108 -1.41344 0
M  V30 1692 C 165.297 1.48593 -1.43972 0
M  V30 1693 C 165.712 1.88747 -0.0445612 0
M  V30 1694 O 165.069 1.56682 0.935785 0
M  V30 1695 C 165.12 2.74946 -2.34706 0
M  V30 1696 O 164.841 2.36484 -3.68791 0
M  V30 1697 C 166.342 3.687 -2.46121 0
M  V30 1698 H 163.562 0.457964 -0.490418 0
M  V30 1699 H 166.106 0.858429 -1.8561 0
M  V30 1700 H 164.261 3.33937 -1.9638 0
M  V30 1701 H 164.675 3.17918 -4.17167 0
M  V30 1702 H 166.149 4.54145 -3.13777 0
M  V30 1703 H 166.626 4.13081 -1.49199 0
M  V30 1704 H 167.232 3.15613 -2.85076 0
M  V30 1705 N 165.547 1.27147 0.931209 0
M  V30 1706 C 166.457 1.11372 2.06478 0
M  V30 1707 C 167.473 0.044645 1.73943 0
M  V30 1708 O 168.649 0.250417 1.99837 0
M  V30 1709 C 165.714 0.758838 3.38294 0
M  V30 1710 C 164.775 1.90841 3.84549 0
M  V30 1711 C 164.008 1.57036 5.10074 0
M  V30 1712 O 164.231 0.476645 5.68405 0
M  V30 1713 O 163.165 2.40839 5.51616 0
M  V30 1714 H 166.991 2.06493 2.22698 0
M  V30 1715 H 164.576 1.06301 1.04978 0
M  V30 1716 H 166.458 0.574098 4.17471 0
M  V30 1717 H 165.133 -0.162879 3.2329 0
M  V30 1718 H 164.04 2.14819 3.06274 0
M  V30 1719 H 165.373 2.81021 4.04089 0
M  V30 1720 N 167.025 -1.13721 1.09112 0
M  V30 1721 C 167.955 -2.21148 0.749385 0
M  V30 1722 C 168.936 -1.6792 -0.271475 0
M  V30 1723 O 170.121 -1.93693 -0.140251 0
M  V30 1724 C 167.251 -3.46905 0.165659 0
M  V30 1725 C 166.205 -4.13203 1.11567 0
M  V30 1726 C 165.531 -5.33248 0.393809 0
M  V30 1727 C 166.831 -4.60912 2.45678 0
M  V30 1728 H 168.525 -2.4999 1.64758 0
M  V30 1729 H 166.071 -1.20156 0.793626 0
M  V30 1730 H 168.024 -4.21313 -0.085466 0
M  V30 1731 H 166.748 -3.17449 -0.767714 0
M  V30 1732 H 165.407 -3.40758 1.35202 0
M  V30 1733 H 165.055 -5.00054 -0.543599 0
M  V30 1734 H 164.755 -5.78552 1.02721 0
M  V30 1735 H 166.279 -6.10413 0.150908 0
M  V30 1736 H 167.693 -5.26759 2.26269 0
M  V30 1737 H 166.09 -5.16944 3.04776 0
M  V30 1738 H 167.16 -3.75603 3.06677 0
M  V30 1739 N 168.503 -0.877838 -1.30888 0
M  V30 1740 C 169.413 -0.343096 -2.32078 0
M  V30 1741 C 170.429 0.551022 -1.65045 0
M  V30 1742 O 171.605 0.445854 -1.96403 0
M  V30 1743 C 168.67 0.439905 -3.43898 0
M  V30 1744 C 167.731 -0.483111 -4.26573 0
M  V30 1745 C 166.964 0.262616 -5.33053 0
M  V30 1746 O 167.187 1.48967 -5.50604 0
M  V30 1747 O 166.121 -0.383593 -6.00676 0
M  V30 1748 H 169.947 -1.18203 -2.79753 0
M  V30 1749 H 167.532 -0.64145 -1.34929 0
M  V30 1750 H 169.414 0.883504 -4.12034 0
M  V30 1751 H 168.089 1.25526 -2.98371 0
M  V30 1752 H 166.996 -0.975374 -3.61161 0
M  V30 1753 H 168.329 -1.26427 -4.75686 0
M  V30 1754 N 169.982 1.44106 -0.638065 0
M  V30 1755 C 171.21 2.06336 -0.152615 0
M  V30 1756 C 171.625 1.47731 1.17563 0
M  V30 1757 O 170.982 0.602806 1.72257 0
M  V30 1758 C 171.033 3.61479 -0.0391491 0
M  V30 1759 O 170.754 4.17903 -1.31487 0
M  V30 1760 C 172.255 4.40757 0.474176 0
M  V30 1761 H 169.475 0.665862 -0.0828776 0
M  V30 1762 H 172.019 1.84862 -0.87443 0
M  V30 1763 H 170.174 3.82191 0.633142 0
M  V30 1764 H 170.588 5.11416 -1.16421 0
M  V30 1765 H 172.062 5.49707 0.502562 0
M  V30 1766 H 172.539 4.12697 1.50258 0
M  V30 1767 H 173.145 4.24979 -0.165102 0
M  V30 1768 N 171.46 0.379036 1.52974 0
M  V30 1769 C 172.706 -0.206727 2.01744 0
M  V30 1770 C 173.039 -1.47314 1.26539 0
M  V30 1771 O 172.314 -1.91084 0.362903 0
M  V30 1772 C 172.597 -0.485066 3.56818 0
M  V30 1773 C 172.45 0.795919 4.42702 0
M  V30 1774 C 173.769 -1.28003 4.21074 0
M  V30 1775 H 170.888 -0.0736607 0.73331 0
M  V30 1776 H 173.53 0.506581 1.83122 0
M  V30 1777 H 171.68 -1.09272 3.72816 0
M  V30 1778 H 173.352 1.43307 4.38476 0
M  V30 1779 H 171.595 1.41344 4.10127 0
M  V30 1780 H 172.266 0.555947 5.49193 0
M  V30 1781 H 174.742 -0.765867 4.08991 0
M  V30 1782 H 173.618 -1.44352 5.29579 0
M  V30 1783 H 173.879 -2.29236 3.78026 0
M  V30 1784 N 172.938 -1.57226 0.108567 0
M  V30 1785 C 173.871 -2.10447 -0.882464 0
M  V30 1786 C 174.849 -1.01829 -1.26766 0
M  V30 1787 O 176.033 -1.29415 -1.37054 0
M  V30 1788 C 173.16 -2.59258 -2.17952 0
M  V30 1789 C 172.206 -3.79662 -1.94318 0
M  V30 1790 S 173.039 -5.22586 -1.16892 0
M  V30 1791 C 174.195 -5.74758 -2.47799 0
M  V30 1792 H 174.428 -2.94178 -0.429745 0
M  V30 1793 H 171.961 -1.54043 -0.105 0
M  V30 1794 H 173.919 -2.88036 -2.92482 0
M  V30 1795 H 172.58 -1.75728 -2.60343 0
M  V30 1796 H 171.773 -4.11928 -2.90399 0
M  V30 1797 H 171.375 -3.51446 -1.27913 0
M  V30 1798 H 173.667 -5.83846 -3.43701 0
M  V30 1799 H 174.61 -6.73027 -2.20093 0
M  V30 1800 H 175.018 -5.02763 -2.56689 0
M  V30 1801 N 174.416 0.165178 -1.56732 0
M  V30 1802 C 175.349 1.23336 -1.91998 0
M  V30 1803 C 176.327 1.42476 -0.783531 0
M  V30 1804 O 177.511 1.57384 -1.03743 0
M  V30 1805 C 174.638 2.59533 -2.17625 0
M  V30 1806 C 173.684 2.57093 -3.40302 0
M  V30 1807 S 174.517 2.05571 -4.9447 0
M  V30 1808 C 175.673 3.43532 -5.23198 0
M  V30 1809 H 175.906 0.932387 -2.82301 0
M  V30 1810 H 173.439 0.370013 -1.49901 0
M  V30 1811 H 175.397 3.37918 -2.3307 0
M  V30 1812 H 174.058 2.86827 -1.28019 0
M  V30 1813 H 173.251 3.57308 -3.55453 0
M  V30 1814 H 172.853 1.86806 -3.24005 0
M  V30 1815 H 175.145 4.39559 -5.15552 0
M  V30 1816 H 176.088 3.33251 -6.2478 0
M  V30 1817 H 176.496 3.39828 -4.50752 0
M  V30 1818 N 175.894 1.51508 0.433938 0
M  V30 1819 C 177.171 1.54888 1.19453 0
M  V30 1820 C 177.551 0.315154 2.08734 0
M  V30 1821 O 176.899 -0.699558 2.17528 0
M  V30 1822 C 177.109 2.86467 1.99342 0
M  V30 1823 C 178.457 3.38545 2.56267 0
M  V30 1824 O 179.481 2.88041 2.0955 0
M  V30 1825 O 178.34 4.26675 3.41483 0
M  V30 1826 H 175.434 0.622863 0.544032 0
M  V30 1827 H 177.98 1.63823 0.442732 0
M  V30 1828 H 176.752 3.67718 1.33788 0
M  V30 1829 H 176.375 2.8071 2.8158 0
M  V30 1830 N 177.372 -0.689602 1.41712 0
M  V30 1831 C 178.618 -1.45041 1.42599 0
M  V30 1832 C 178.973 -1.92366 0.0363764 0
M  V30 1833 O 178.266 -1.67022 -0.938844 0
M  V30 1834 C 178.46 -2.67298 2.37247 0
M  V30 1835 C 178.289 -2.31935 3.85274 0
M  V30 1836 C 177.059 -2.2201 4.53916 0
M  V30 1837 C 179.257 -1.94526 4.76093 0
M  V30 1838 N 177.239 -1.79594 5.87043 0
M  V30 1839 C 178.61 -1.62915 5.98213 0
M  V30 1840 C 180.665 -1.81388 4.63684 0
M  V30 1841 C 179.368 -1.19486 7.09306 0
M  V30 1842 C 181.394 -1.39364 5.74745 0
M  V30 1843 C 180.756 -1.08668 6.95967 0
M  V30 1844 H 176.855 -0.527806 0.577014 0
M  V30 1845 H 179.439 -0.797266 1.77628 0
M  V30 1846 H 177.61 -3.30325 2.04304 0
M  V30 1847 H 179.342 -3.33806 2.28814 0
M  V30 1848 H 176.097 -2.406 4.07932 0
M  V30 1849 H 176.521 -1.60851 6.57614 0
M  V30 1850 H 181.163 -2.03772 3.70455 0
M  V30 1851 H 178.881 -0.958477 8.02396 0
M  V30 1852 H 182.467 -1.2974 5.6715 0
M  V30 1853 H 181.347 -0.766417 7.80446 0
M  V30 1854 N 178.85 -1.27639 -0.924453 0
M  V30 1855 C 179.78 -1.13166 -2.04244 0
M  V30 1856 C 180.761 -0.032256 -1.70069 0
M  V30 1857 O 181.946 -0.207328 -1.9309 0
M  V30 1858 C 179.076 -0.781496 -3.38393 0
M  V30 1859 C 178.03 -1.83449 -3.86692 0
M  V30 1860 C 177.356 -1.33822 -5.17683 0
M  V30 1861 C 178.656 -3.23917 -4.09726 0
M  V30 1862 H 180.35 -2.06689 -2.1661 0
M  V30 1863 H 177.896 -0.995136 -1.04082 0
M  V30 1864 H 179.849 -0.667057 -4.16087 0
M  V30 1865 H 178.573 0.189439 -3.2605 0
M  V30 1866 H 177.232 -1.93789 -3.11193 0
M  V30 1867 H 176.88 -0.35665 -5.01734 0
M  V30 1868 H 176.58 -2.04224 -5.50968 0
M  V30 1869 H 178.104 -1.23679 -5.97943 0
M  V30 1870 H 179.518 -3.16559 -4.77978 0
M  V30 1871 H 177.915 -3.92059 -4.54324 0
M  V30 1872 H 178.985 -3.68729 -3.14908 0
M  V30 1873 N 180.328 1.1314 -1.09713 0
M  V30 1874 C 181.576 1.84119 -0.833338 0
M  V30 1875 C 181.897 1.84097 0.642904 0
M  V30 1876 O 181.167 1.29881 1.46655 0
M  V30 1877 H 179.747 0.681766 -0.305293 0
M  V30 1878 H 182.409 1.37038 -1.38588 0
M  V30 1879 H 181.505 2.88543 -1.18951 0
M  V30 1880 N 181.806 0.884767 1.30421 0
M  V30 1881 C 182.753 0.349642 2.28136 0
M  V30 1882 C 183.723 -0.560061 1.56373 0
M  V30 1883 O 184.908 -0.488524 1.8444 0
M  V30 1884 C 182.048 -0.42999 3.42411 0
M  V30 1885 C 181.161 0.508907 4.28992 0
M  V30 1886 C 180.296 -0.286301 5.30428 0
M  V30 1887 C 179.335 0.648079 6.08659 0
M  V30 1888 N 178.472 -0.111792 7.02011 0
M  V30 1889 H 183.312 1.18807 2.73293 0
M  V30 1890 H 180.849 0.597231 1.3443 0
M  V30 1891 H 182.807 -0.897923 4.07423 0
M  V30 1892 H 181.437 -1.23299 2.98324 0
M  V30 1893 H 180.489 1.09533 3.64289 0
M  V30 1894 H 181.801 1.22475 4.8353 0
M  V30 1895 H 180.955 -0.816098 6.01186 0
M  V30 1896 H 179.694 -1.03536 4.76583 0
M  V30 1897 H 178.699 1.18951 5.36778 0
M  V30 1898 H 179.924 1.39623 6.64592 0
M  V30 1899 H 177.87 -0.843395 6.50556 0
M  V30 1900 H 177.787 0.544429 7.54037 0
M  V30 1901 H 179.055 -0.622339 7.77012 0
M  V30 1902 N 183.284 -1.43765 0.645699 0
M  V30 1903 C 184.217 -2.2798 -0.100072 0
M  V30 1904 C 185.195 -1.39391 -0.837194 0
M  V30 1905 O 186.379 -1.68833 -0.838306 0
M  V30 1906 C 183.506 -3.18643 -1.14823 0
M  V30 1907 C 182.552 -4.2344 -0.510009 0
M  V30 1908 S 183.385 -5.30761 0.710824 0
M  V30 1909 C 184.541 -6.24992 -0.33699 0
M  V30 1910 H 184.774 -2.90884 0.614322 0
M  V30 1911 H 182.307 -1.48166 0.434304 0
M  V30 1912 H 184.265 -3.71424 -1.74799 0
M  V30 1913 H 182.926 -2.54932 -1.8349 0
M  V30 1914 H 182.119 -4.86948 -1.29991 0
M  V30 1915 H 181.721 -3.73997 0.0154577 0
M  V30 1916 H 184.013 -6.66691 -1.20537 0
M  V30 1917 H 184.956 -7.07612 0.262879 0
M  V30 1918 H 185.364 -5.60517 -0.669425 0
M  V30 1919 N 184.763 -0.387143 -1.52771 0
M  V30 1920 C 185.693 0.440551 -2.29306 0
M  V30 1921 C 186.674 1.06535 -1.32606 0
M  V30 1922 O 187.859 1.07853 -1.61497 0
M  V30 1923 C 184.989 1.56919 -3.09829 0
M  V30 1924 C 183.943 1.07054 -4.14395 0
M  V30 1925 C 183.269 2.29109 -4.83129 0
M  V30 1926 C 184.569 0.140015 -5.22112 0
M  V30 1927 H 186.263 -0.198026 -2.98744 0
M  V30 1928 H 183.809 -0.09668 -1.43675 0
M  V30 1929 H 185.762 2.15503 -3.62128 0
M  V30 1930 H 184.486 2.23532 -2.3812 0
M  V30 1931 H 183.145 0.507247 -3.63074 0
M  V30 1932 H 182.793 2.94227 -4.0797 0
M  V30 1933 H 182.493 1.96406 -5.53804 0
M  V30 1934 H 184.017 2.88339 -5.38231 0
M  V30 1935 H 185.431 0.633978 -5.69784 0
M  V30 1936 H 183.828 -0.0971485 -6.00021 0
M  V30 1937 H 184.898 -0.811711 -4.78058 0
M  V30 1938 N 186.241 1.57166 -0.116904 0
M  V30 1939 C 187.151 2.18745 0.847812 0
M  V30 1940 C 188.167 1.163 1.29423 0
M  V30 1941 O 189.343 1.48761 1.35765 0
M  V30 1942 C 186.408 2.77307 2.0809 0
M  V30 1943 C 185.469 3.94781 1.68661 0
M  V30 1944 C 184.702 4.50541 2.86091 0
M  V30 1945 O 184.925 4.05202 4.01456 0
M  V30 1946 O 183.859 5.41256 2.63298 0
M  V30 1947 H 187.685 3.01632 0.353778 0
M  V30 1948 H 185.27 1.49005 0.108599 0
M  V30 1949 H 187.152 3.14647 2.80313 0
M  V30 1950 H 185.827 1.97452 2.56504 0
M  V30 1951 H 184.734 3.62214 0.935518 0
M  V30 1952 H 186.067 4.76065 1.24991 0
M  V30 1953 N 187.719 -0.156864 1.56817 0
M  V30 1954 C 188.649 -1.19589 2.00551 0
M  V30 1955 C 189.63 -1.4536 0.883426 0
M  V30 1956 O 190.815 -1.56449 1.15054 0
M  V30 1957 C 187.945 -2.53143 2.37773 0
M  V30 1958 C 186.899 -2.41913 3.53075 0
M  V30 1959 C 186.225 -3.80088 3.76081 0
M  V30 1960 C 187.525 -1.91157 4.86062 0
M  V30 1961 H 189.219 -0.832293 2.87599 0
M  V30 1962 H 186.765 -0.398918 1.38364 0
M  V30 1963 H 188.718 -3.26047 2.66967 0
M  V30 1964 H 187.442 -2.91319 1.4765 0
M  V30 1965 H 186.101 -1.71462 3.24031 0
M  V30 1966 H 185.749 -4.15683 2.83225 0
M  V30 1967 H 185.449 -3.73439 4.53671 0
M  V30 1968 H 186.973 -4.54556 4.0769 0
M  V30 1969 H 188.387 -2.53846 5.14038 0
M  V30 1970 H 186.784 -1.95422 5.67389 0
M  V30 1971 H 187.854 -0.866673 4.77092 0
M  V30 1972 N 189.197 -1.51736 -0.425897 0
M  V30 1973 C 190.608 -1.5732 -1.00536 0
M  V30 1974 C 190.959 -0.403537 -1.92005 0
M  V30 1975 O 190.084 0.478256 -2.11049 0
M  V30 1976 C 190.679 -2.85119 -1.8301 0
M  V30 1977 C 189.238 -2.93236 -2.35987 0
M  V30 1978 C 188.385 -2.52098 -1.15508 0
M  V30 1979 H 191.336 -1.57348 -0.206739 0
M  V30 1980 H 191.357 -2.69526 -2.68581 0
M  V30 1981 H 190.869 -3.7023 -1.16411 0
M  V30 1982 H 188.97 -2.12581 -3.06007 0
M  V30 1983 H 189.083 -3.9713 -2.68001 0
M  V30 1984 H 187.447 -2.05558 -1.50393 0
M  V30 1985 H 188.23 -3.39565 -0.505014 0
M  V30 1986 N 190.675 0.682077 -1.42076 0
M  V30 1987 C 191.622 1.79578 -1.44984 0
M  V30 1988 C 192.592 1.6332 -0.302614 0
M  V30 1989 O 193.777 1.83978 -0.505633 0
M  V30 1990 C 190.917 3.1756 -1.35091 0
M  V30 1991 C 190.03 3.45156 -2.59791 0
M  V30 1992 C 189.165 4.72826 -2.42093 0
M  V30 1993 C 188.204 4.93433 -3.62202 0
M  V30 1994 N 187.341 6.12338 -3.43491 0
M  V30 1995 H 192.181 1.76427 -2.40161 0
M  V30 1996 H 189.718 0.861376 -1.19242 0
M  V30 1997 H 191.676 3.97287 -1.27354 0
M  V30 1998 H 190.306 3.19854 -0.435133 0
M  V30 1999 H 189.358 2.59736 -2.77923 0
M  V30 2000 H 190.67 3.5628 -3.49094 0
M  V30 2001 H 189.824 5.60631 -2.319 0
M  V30 2002 H 188.563 4.63973 -1.50268 0
M  V30 2003 H 187.568 4.04073 -3.72834 0
M  V30 2004 H 188.793 5.04136 -4.54998 0
M  V30 2005 H 186.739 6.04672 -2.54377 0
M  V30 2006 H 186.656 6.2429 -4.26377 0
M  V30 2007 H 187.924 7.02841 -3.37097 0
M  V30 2008 N 192.153 1.28127 0.917671 0
M  V30 2009 C 193.116 1.11744 2.00115 0
M  V30 2010 C 194.116 0.0583052 1.60694 0
M  V30 2011 O 195.306 0.303755 1.71531 0
M  V30 2012 C 192.438 0.704862 3.33533 0
M  V30 2013 H 193.631 2.07966 2.16079 0
M  V30 2014 H 191.184 1.11058 1.09981 0
M  V30 2015 H 191.919 -0.258299 3.2327 0
M  V30 2016 H 191.704 1.4699 3.63505 0
M  V30 2017 H 193.194 0.612768 4.1308 0
M  V30 2018 N 193.631 -1.12557 1.10312 0
M  V30 2019 C 194.878 -1.84038 0.844759 0
M  V30 2020 C 195.206 -1.84026 -0.629668 0
M  V30 2021 O 194.461 -1.28026 -1.48013 0
M  V30 2022 C 194.76 -3.31462 1.33669 0
M  V30 2023 C 194.426 -3.51647 2.82232 0
M  V30 2024 C 193.088 -3.56864 3.22802 0
M  V30 2025 C 195.44 -3.58867 3.77974 0
M  V30 2026 C 192.768 -3.66844 4.57867 0
M  V30 2027 C 195.12 -3.70375 5.1284 0
M  V30 2028 C 193.784 -3.73848 5.52986 0
M  V30 2029 H 193.054 -0.673444 0.309119 0
M  V30 2030 H 195.701 -1.32824 1.37949 0
M  V30 2031 H 194.006 -3.85091 0.721949 0
M  V30 2032 H 195.703 -3.85236 1.11329 0
M  V30 2033 H 192.293 -3.48249 2.49842 0
M  V30 2034 H 196.477 -3.54107 3.47738 0
M  V30 2035 H 191.733 -3.67804 4.88396 0
M  V30 2036 H 195.907 -3.74904 5.86873 0
M  V30 2037 H 193.534 -3.81333 6.57639 0
M  V30 2038 N 195.109 -0.891671 -1.2995 0
M  V30 2039 C 196.039 -0.379797 -2.30391 0
M  V30 2040 C 197.02 0.540919 -1.6127 0
M  V30 2041 O 198.205 0.453352 -1.88834 0
M  V30 2042 C 195.335 0.400654 -3.44981 0
M  V30 2043 C 194.289 -0.428905 -4.25846 0
M  V30 2044 C 193.615 0.478557 -5.32554 0
M  V30 2045 C 194.915 -1.67458 -4.94727 0
M  V30 2046 H 196.609 -1.21914 -2.73454 0
M  V30 2047 H 194.155 -0.587675 -1.31462 0
M  V30 2048 H 196.108 0.769434 -4.14316 0
M  V30 2049 H 194.832 1.27371 -3.0074 0
M  V30 2050 H 193.491 -0.779911 -3.58208 0
M  V30 2051 H 193.139 1.34951 -4.84559 0
M  V30 2052 H 192.839 -0.0727433 -5.87555 0
M  V30 2053 H 194.363 0.843705 -6.04743 0
M  V30 2054 H 195.777 -1.376 -5.56542 0
M  V30 2055 H 194.174 -2.16659 -5.59624 0
M  V30 2056 H 195.244 -2.41518 -4.20473 0
M  V30 2057 N 196.587 1.43421 -0.653314 0
M  V30 2058 C 197.535 2.32546 0.0501531 0
M  V30 2059 C 198.529 1.48617 0.812985 0
M  V30 2060 O 199.735 1.64825 0.723375 0
M  V30 2061 H 196.11 0.751185 0.0350032 0
M  V30 2062 H 198.081 2.89602 -0.719261 0
M  V30 2063 C 196.83 3.32925 1.00279 0
M  V30 2064 H 196.153 3.97532 0.425236 0
M  V30 2065 H 197.593 3.9792 1.46409 0
M  V30 2066 C 196.052 2.63532 2.09886 0
M  V30 2067 O 196.582 2.45092 3.18265 0
M  V30 2068 N 194.788 2.22905 1.86445 0
M  V30 2069 H 194.335 2.38103 0.98309 0
M  V30 2070 H 194.293 1.76805 2.59976 0
M  V30 2071 N 198.065 0.39524 1.52563 0
M  V30 2072 C 198.975 -0.444232 2.30356 0
M  V30 2073 C 199.991 -1.06615 1.37511 0
M  V30 2074 O 201.167 -1.07067 1.70583 0
M  V30 2075 C 198.232 -1.55315 3.09964 0
M  V30 2076 C 197.293 -0.955734 4.18526 0
M  V30 2077 C 196.526 -2.01181 4.9433 0
M  V30 2078 O 196.749 -3.22781 4.70285 0
M  V30 2079 O 195.683 -1.62579 5.79527 0
M  V30 2080 H 199.509 0.189667 3.03107 0
M  V30 2081 H 197.094 0.1588 1.48554 0
M  V30 2082 H 198.976 -2.19724 3.59582 0
M  V30 2083 H 197.651 -2.17191 2.4002 0
M  V30 2084 H 196.558 -0.274743 3.7309 0
M  V30 2085 H 197.891 -0.381109 4.90722 0
M  V30 2086 N 199.544 -1.57102 0.125237 0
M  V30 2087 C 200.491 -2.15641 -0.822655 0
M  V30 2088 C 201.461 -1.08313 -1.25927 0
M  V30 2089 O 202.646 -1.36251 -1.33567 0
M  V30 2090 C 199.786 -2.76504 -2.06494 0
M  V30 2091 C 198.899 -3.98158 -1.67612 0
M  V30 2092 C 198.034 -4.47088 -2.86854 0
M  V30 2093 C 197.073 -5.6126 -2.44242 0
M  V30 2094 N 196.21 -6.04905 -3.56419 0
M  V30 2095 H 201.05 -2.96313 -0.316625 0
M  V30 2096 H 198.587 -1.46388 -0.144588 0
M  V30 2097 H 200.545 -3.09925 -2.79289 0
M  V30 2098 H 199.175 -1.98512 -2.54545 0
M  V30 2099 H 198.227 -3.70858 -0.846661 0
M  V30 2100 H 199.539 -4.80934 -1.32301 0
M  V30 2101 H 198.693 -4.82451 -3.67867 0
M  V30 2102 H 197.432 -3.63275 -3.25396 0
M  V30 2103 H 196.437 -5.25495 -1.61663 0
M  V30 2104 H 197.662 -6.46843 -2.0681 0
M  V30 2105 H 195.608 -5.24032 -3.94623 0
M  V30 2106 H 195.525 -6.82552 -3.25051 0
M  V30 2107 H 196.793 -6.44907 -4.37853 0
M  V30 2108 N 201.022 0.148545 -1.56898 0
M  V30 2109 C 201.985 1.16736 -1.97244 0
M  V30 2110 C 202.985 1.35947 -0.858777 0
M  V30 2111 O 204.175 1.32966 -1.12542 0
M  V30 2112 C 201.307 2.52798 -2.28705 0
M  V30 2113 H 202.5 0.821279 -2.88435 0
M  V30 2114 H 200.053 0.391831 -1.51309 0
M  V30 2115 H 200.788 2.92381 -1.403 0
M  V30 2116 H 200.573 2.40216 -3.09901 0
M  V30 2117 H 202.063 3.26179 -2.60762 0
M  V30 2118 N 202.5 1.5196 0.417844 0
M  V30 2119 C 203.748 1.65263 1.16329 0
M  V30 2120 C 204.069 0.380634 1.91249 0
M  V30 2121 O 203.339 -0.604214 1.86349 0
M  V30 2122 H 201.919 0.60912 0.432414 0
M  V30 2123 H 204.581 1.88969 0.477162 0
M  V30 2124 H 203.677 2.4896 1.88217 0
M  V30 2125 N 203.978 -0.674533 1.42435 0
M  V30 2126 C 204.888 -1.81751 1.48337 0
M  V30 2127 C 205.904 -1.69975 0.372099 0
M  V30 2128 O 207.08 -1.91521 0.62304 0
M  V30 2129 C 204.145 -3.17895 1.38361 0
M  V30 2130 C 203.206 -3.41625 2.59982 0
M  V30 2131 C 202.439 -4.71274 2.50473 0
M  V30 2132 O 202.662 -5.49197 1.54075 0
M  V30 2133 O 201.596 -4.96254 3.4061 0
M  V30 2134 H 205.422 -1.79728 2.44809 0
M  V30 2135 H 203.007 -0.830312 1.24202 0
M  V30 2136 H 204.889 -3.99136 1.35161 0
M  V30 2137 H 203.564 -3.20555 0.450144 0
M  V30 2138 H 202.471 -2.60231 2.68757 0
M  V30 2139 H 203.804 -3.43796 3.52229 0
M  V30 2140 N 205.456 -1.28612 -0.910864 0
M  V30 2141 C 206.704 -1.15705 -1.65701 0
M  V30 2142 C 207.025 0.29416 -1.92769 0
M  V30 2143 O 206.295 1.20331 -1.54588 0
M  V30 2144 H 204.875 -0.425216 -0.614167 0
M  V30 2145 H 207.537 -1.61381 -1.0928 0
M  V30 2146 H 206.633 -1.6988 -2.61815 0
M  V30 2147 N 206.934 1.1197 -1.10907 0
M  V30 2148 C 208.182 1.83225 -0.852819 0
M  V30 2149 C 208.503 1.84769 0.623341 0
M  V30 2150 O 207.773 1.3143 1.45269 0
M  V30 2151 H 206.353 0.67849 -0.312507 0
M  V30 2152 H 209.015 1.3556 -1.40033 0
M  V30 2153 H 208.111 2.87265 -1.22005 0
M  V30 2154 N 208.412 0.89855 1.29475 0
M  V30 2155 C 209.66 0.522847 1.9522 0
M  V30 2156 C 209.981 -0.93371 1.71192 0
M  V30 2157 O 209.251 -1.65823 1.04305 0
M  V30 2158 H 207.831 0.190366 0.722336 0
M  V30 2159 H 210.493 1.14459 1.5775 0
M  V30 2160 H 209.589 0.704476 3.04045 0
M  V30 2161 N 209.89 -1.43072 0.660911 0
M  V30 2162 C 211.136 -2.0202 0.177708 0
M  V30 2163 C 211.469 -1.52066 -1.20787 0
M  V30 2164 O 210.744 -0.716987 -1.80802 0
M  V30 2165 C 211.027 -3.59561 0.197019 0
M  V30 2166 C 210.88 -4.19727 1.61706 0
M  V30 2167 C 212.199 -4.37664 -0.462396 0
M  V30 2168 H 209.318 -0.734034 0.0660494 0
M  V30 2169 H 211.96 -1.70272 0.843058 0
M  V30 2170 H 210.11 -3.86739 -0.369527 0
M  V30 2171 H 211.782 -4.03553 2.23479 0
M  V30 2172 H 210.025 -3.76084 2.16201 0
M  V30 2173 H 210.696 -5.28834 1.58237 0
M  V30 2174 H 213.172 -4.16095 0.0197215 0
M  V30 2175 H 212.048 -5.47305 -0.418188 0
M  V30 2176 H 212.309 -4.14493 -1.53778 0
M  V30 2177 N 211.368 -0.403325 -1.52352 0
M  V30 2178 C 212.617 0.175668 -2.00934 0
M  V30 2179 C 212.93 1.46718 -1.29356 0
M  V30 2180 O 214.136 2.12708 -1.68724 0
M  V30 2181 C 212.592 0.363612 -3.58058 0
M  V30 2182 C 212.2 -0.915472 -4.38547 0
M  V30 2183 C 213.944 0.89821 -4.14888 0
M  V30 2184 C 211.851 -0.695035 -5.87302 0
M  V30 2185 H 210.781 0.0694234 -0.750797 0
M  V30 2186 H 213.432 -0.527879 -1.75743 0
M  V30 2187 H 211.814 1.12935 -3.79555 0
M  V30 2188 H 212.988 -1.68691 -4.28812 0
M  V30 2189 H 211.303 -1.37606 -3.93006 0
M  V30 2190 H 213.9 1.07907 -5.23699 0
M  V30 2191 H 214.243 1.87126 -3.71873 0
M  V30 2192 H 214.776 0.191681 -3.97338 0
M  V30 2193 H 211.515 -1.63948 -6.34666 0
M  V30 2194 H 211.035 0.0372116 -5.99788 0
M  V30 2195 H 212.714 -0.33497 -6.46132 0
M  V30 2196 N 212.846 1.57033 -0.133567 0
M  V30 2197 C 213.778 2.13176 0.841944 0
M  V30 2198 C 214.791 1.07794 1.22001 0
M  V30 2199 O 215.98 1.35117 1.16643 0
M  V30 2200 C 213.08 2.62847 2.13926 0
M  V30 2201 C 212.253 3.92486 1.93064 0
M  V30 2202 C 211.312 4.27605 3.0666 0
M  V30 2203 O 210.338 4.96168 2.78937 0
M  V30 2204 N 211.54 3.861 4.33483 0
M  V30 2205 H 214.305 2.97503 0.362192 0
M  V30 2206 H 211.866 1.61821 0.05042 0
M  V30 2207 H 213.858 2.83363 2.88942 0
M  V30 2208 H 212.428 1.83319 2.53205 0
M  V30 2209 H 211.648 3.80732 1.02159 0
M  V30 2210 H 212.936 4.77225 1.76447 0
M  V30 2211 H 212.334 3.30828 4.58878 0
M  V30 2212 H 210.891 4.11694 5.05323 0
M  V30 2213 N 214.325 -0.140222 1.56975 0
M  V30 2214 C 215.573 -0.850005 1.83356 0
M  V30 2215 C 215.894 -1.81399 0.71551 0
M  V30 2216 O 215.164 -1.94136 -0.262294 0
M  V30 2217 H 213.744 -0.316886 0.676456 0
M  V30 2218 H 216.406 -0.132608 1.94448 0
M  V30 2219 H 215.502 -1.40814 2.78528 0
M  V30 2220 N 215.803 -1.52179 -0.40978 0
M  V30 2221 C 217.028 -1.70347 -1.18308 0
M  V30 2222 C 217.453 -0.411887 -1.83535 0
M  V30 2223 O 216.811 0.630587 -1.6998 0
M  V30 2224 C 216.859 -2.83977 -2.22238 0
M  V30 2225 O 215.963 -2.495 -3.28365 0
M  V30 2226 H 215.304 -0.567103 -0.345384 0
M  V30 2227 H 217.834 -1.98879 -0.480445 0
M  V30 2228 H 217.844 -3.0887 -2.66577 0
M  V30 2229 H 216.519 -3.77685 -1.74146 0
M  V30 2230 H 215.096 -2.35277 -2.89308 0
M  V30 2231 N 217.281 0.66697 -1.42791 0
M  V30 2232 C 218.244 1.76211 -1.46568 0
M  V30 2233 C 219.244 1.56896 -0.352196 0
M  V30 2234 O 220.434 1.63044 -0.613364 0
M  V30 2235 C 217.566 3.14935 -1.30494 0
M  V30 2236 H 218.759 1.74247 -2.44086 0
M  V30 2237 H 216.312 0.877342 -1.29354 0
M  V30 2238 H 217.047 3.2252 -0.339301 0
M  V30 2239 H 216.832 3.30359 -2.11199 0
M  V30 2240 H 218.322 3.94821 -1.36038 0
M  V30 2241 N 218.759 1.29093 0.90403 0
M  V30 2242 C 219.984 1.19809 1.69294 0
M  V30 2243 C 220.409 -0.238481 1.86582 0
M  V30 2244 O 219.767 -1.1723 1.383 0
M  V30 2245 C 219.815 1.91202 3.05736 0
M  V30 2246 O 218.919 1.22611 3.93752 0
M  V30 2247 H 218.26 0.415385 0.518027 0
M  V30 2248 H 220.79 1.70586 1.12967 0
M  V30 2249 H 220.8 1.99487 3.55906 0
M  V30 2250 H 219.475 2.95692 2.92471 0
M  V30 2251 H 218.052 1.22554 3.52186 0
M  V30 2252 N 220.237 -1.11381 1.11499 0
M  V30 2253 C 221.147 -2.21019 0.786628 0
M  V30 2254 C 222.163 -1.72597 -0.220507 0
M  V30 2255 O 223.339 -2.01321 -0.0565251 0
M  V30 2256 C 220.404 -3.459 0.235333 0
M  V30 2257 C 219.465 -4.09107 1.30115 0
M  V30 2258 C 218.698 -5.28027 0.776068 0
M  V30 2259 O 218.921 -5.6904 -0.393661 0
M  V30 2260 O 217.855 -5.81835 1.54114 0
M  V30 2261 H 221.681 -2.51521 1.70209 0
M  V30 2262 H 219.266 -1.19928 0.890928 0
M  V30 2263 H 221.148 -4.21346 -0.067715 0
M  V30 2264 H 219.823 -3.17049 -0.652828 0
M  V30 2265 H 218.73 -3.35391 1.65722 0
M  V30 2266 H 220.063 -4.42139 2.16273 0
M  V30 2267 N 221.715 -0.905404 -1.28997 0
M  V30 2268 C 222.678 -0.392253 -2.25819 0
M  V30 2269 C 223.678 0.476753 -1.5357 0
M  V30 2270 O 224.868 0.280994 -1.71919 0
M  V30 2271 C 222 0.438588 -3.38067 0
M  V30 2272 H 223.193 -1.24743 -2.72725 0
M  V30 2273 H 220.746 -0.684051 -1.40536 0
M  V30 2274 H 221.481 1.31352 -2.96508 0
M  V30 2275 H 221.266 -0.184167 -3.91667 0
M  V30 2276 H 222.756 0.78873 -4.10084 0
M  V30 2277 N 223.193 1.4272 -0.668489 0
M  V30 2278 C 224.421 2.05966 -0.196348 0
M  V30 2279 C 224.836 1.50191 1.14403 0
M  V30 2280 O 224.193 0.639208 1.7094 0
M  V30 2281 C 224.244 3.61314 -0.115815 0
M  V30 2282 O 223.965 4.1502 -1.40322 0
M  V30 2283 C 225.466 4.41663 0.380579 0
M  V30 2284 H 222.686 0.663954 -0.0969829 0
M  V30 2285 H 225.23 1.82966 -0.913446 0
M  V30 2286 H 223.385 3.83448 0.551931 0
M  V30 2287 H 223.799 5.08832 -1.27243 0
M  V30 2288 H 225.273 5.5065 0.385848 0
M  V30 2289 H 225.75 4.15792 1.41471 0
M  V30 2290 H 226.356 4.24534 -0.255209 0
M  V30 2291 N 224.671 0.411399 1.52136 0
M  V30 2292 C 225.601 -0.404015 2.29978 0
M  V30 2293 C 226.582 -1.04412 1.34284 0
M  V30 2294 O 227.767 -1.0527 1.63192 0
M  V30 2295 C 224.897 -1.5197 3.12286 0
M  V30 2296 C 223.851 -1.00448 4.16046 0
M  V30 2297 C 223.177 -2.21393 4.86712 0
M  V30 2298 C 224.477 -0.0569336 5.22269 0
M  V30 2299 H 226.171 0.245529 2.98392 0
M  V30 2300 H 223.717 0.119525 1.43503 0
M  V30 2301 H 225.67 -2.09715 3.6551 0
M  V30 2302 H 224.394 -2.19716 2.41646 0
M  V30 2303 H 223.053 -0.449421 3.63835 0
M  V30 2304 H 222.701 -2.87699 4.12599 0
M  V30 2305 H 222.401 -1.87571 5.56858 0
M  V30 2306 H 223.925 -2.7974 5.4275 0
M  V30 2307 H 225.339 -0.54325 5.7072 0
M  V30 2308 H 223.736 0.192594 5.99791 0
M  V30 2309 H 224.806 0.887663 4.76706 0
M  V30 2310 N 226.149 -1.5696 0.141893 0
M  V30 2311 C 227.395 -1.9625 -0.511248 0
M  V30 2312 C 227.728 -1.02654 -1.64851 0
M  V30 2313 O 227.003 -0.0679676 -1.94381 0
M  V30 2314 C 227.286 -3.45285 -1.02227 0
M  V30 2315 C 227.139 -4.49658 0.113138 0
M  V30 2316 C 228.458 -3.96698 -1.90574 0
M  V30 2317 H 225.577 -0.713567 -0.184367 0
M  V30 2318 H 228.219 -1.88698 0.222087 0
M  V30 2319 H 226.369 -3.51852 -1.64719 0
M  V30 2320 H 228.041 -4.55174 0.749302 0
M  V30 2321 H 226.284 -4.26857 0.773026 0
M  V30 2322 H 226.955 -5.51258 -0.286053 0
M  V30 2323 H 229.431 -3.92578 -1.37918 0
M  V30 2324 H 228.307 -5.01453 -2.2324 0
M  V30 2325 H 228.568 -3.3875 -2.84079 0
M  V30 2326 N 227.627 0.131896 -1.57047 0
M  V30 2327 C 228.59 1.14638 -1.98471 0
M  V30 2328 C 229.59 1.35029 -0.873148 0
M  V30 2329 O 230.78 1.31764 -1.13946 0
M  V30 2330 C 227.912 2.50358 -2.31373 0
M  V30 2331 H 229.105 0.79064 -2.8929 0
M  V30 2332 H 226.658 0.375761 -1.51716 0
M  V30 2333 H 227.393 2.90876 -1.43393 0
M  V30 2334 H 227.178 2.36915 -3.12432 0
M  V30 2335 H 228.668 3.23395 -2.64207 0
M  V30 2336 N 229.106 1.52395 0.401703 0
M  V30 2337 C 230.036 1.79231 1.49661 0
M  V30 2338 C 231.017 0.643654 1.57452 0
M  V30 2339 O 232.202 0.889989 1.72606 0
M  V30 2340 C 229.332 1.94971 2.87409 0
M  V30 2341 C 228.286 3.10604 2.94465 0
M  V30 2342 C 227.612 3.11577 4.34538 0
M  V30 2343 C 228.912 4.49921 2.6527 0
M  V30 2344 H 230.606 2.70917 1.27454 0
M  V30 2345 H 228.152 1.30362 0.6117 0
M  V30 2346 H 230.105 2.12328 3.63999 0
M  V30 2347 H 228.829 0.999632 3.10926 0
M  V30 2348 H 227.488 2.93009 2.20321 0
M  V30 2349 H 227.136 2.14277 4.55076 0
M  V30 2350 H 226.836 3.89247 4.40183 0
M  V30 2351 H 228.36 3.31073 5.13053 0
M  V30 2352 H 229.774 4.67683 3.31581 0
M  V30 2353 H 228.171 5.29564 2.82281 0
M  V30 2354 H 229.241 4.57507 1.60671 0
M  V30 2355 N 230.584 -0.659388 1.43143 0
M  V30 2356 C 231.514 -1.78422 1.50625 0
M  V30 2357 C 232.495 -1.66216 0.361443 0
M  V30 2358 O 233.68 -1.85404 0.577834 0
M  V30 2359 C 230.81 -3.16815 1.42287 0
M  V30 2360 C 229.764 -3.43777 2.54954 0
M  V30 2361 C 229.09 -4.81905 2.31671 0
M  V30 2362 C 230.39 -3.39134 3.97222 0
M  V30 2363 H 232.084 -1.72417 2.44771 0
M  V30 2364 H 229.63 -0.828084 1.17808 0
M  V30 2365 H 231.583 -3.95253 1.46127 0
M  V30 2366 H 230.307 -3.23534 0.446435 0
M  V30 2367 H 228.966 -2.67707 2.50457 0
M  V30 2368 H 228.614 -4.85294 1.32284 0
M  V30 2369 H 228.314 -5.00906 3.07192 0
M  V30 2370 H 229.838 -5.62609 2.37284 0
M  V30 2371 H 231.252 -4.07518 4.03239 0
M  V30 2372 H 229.649 -3.69671 4.72719 0
M  V30 2373 H 230.719 -2.37426 4.22797 0
M  V30 2374 N 232.062 -1.29571 -0.897171 0
M  V30 2375 C 233.025 -1.14913 -1.98312 0
M  V30 2376 C 234.025 -0.0838629 -1.60581 0
M  V30 2377 O 235.215 -0.331006 -1.71026 0
M  V30 2378 C 232.347 -0.757835 -3.3237 0
M  V30 2379 H 233.54 -2.11377 -2.12743 0
M  V30 2380 H 231.093 -1.12793 -1.08201 0
M  V30 2381 H 231.828 0.206837 -3.2364 0
M  V30 2382 H 231.613 -1.52755 -3.61121 0
M  V30 2383 H 233.103 -0.678408 -4.12053 0
M  V30 2384 N 233.54 1.10788 -1.12088 0
M  V30 2385 C 234.503 2.15207 -0.788577 0
M  V30 2386 C 235.503 1.59609 0.195317 0
M  V30 2387 O 236.693 1.74174 -0.0300193 0
M  V30 2388 C 233.825 3.4047 -0.171174 0
M  V30 2389 H 235.018 2.46116 -1.71368 0
M  V30 2390 H 232.571 1.26089 -0.923652 0
M  V30 2391 H 233.306 3.15176 0.763832 0
M  V30 2392 H 233.091 3.82109 -0.879514 0
M  V30 2393 H 234.581 4.17576 0.04496 0
M  V30 2394 N 235.018 0.912232 1.28515 0
M  V30 2395 C 236.434 0.610159 1.47476 0
M  V30 2396 C 236.634 -0.844955 1.82928 0
M  V30 2397 O 235.69 -1.62416 1.93332 0
M  V30 2398 C 237.003 1.54675 2.57868 0
M  V30 2399 C 238.551 1.55331 2.71738 0
M  V30 2400 C 239.026 2.47649 3.85272 0
M  V30 2401 N 240.517 2.45767 3.92623 0
M  V30 2402 C 241.252 3.13896 4.79851 0
M  V30 2403 N 240.748 3.9135 5.71679 0
M  V30 2404 N 242.541 3.02991 4.73448 0
M  V30 2405 H 234.692 1.85318 1.03783 0
M  V30 2406 H 236.955 0.794777 0.516753 0
M  V30 2407 H 236.661 2.5841 2.38574 0
M  V30 2408 H 236.535 1.27671 3.54937 0
M  V30 2409 H 238.922 0.52335 2.90422 0
M  V30 2410 H 239.003 1.86378 1.75205 0
M  V30 2411 H 238.647 3.50745 3.67342 0
M  V30 2412 H 238.577 2.13904 4.81199 0
M  V30 2413 H 241.068 1.89503 3.26951 0
M  V30 2414 H 241.381 4.40359 6.35062 0
M  V30 2415 H 239.726 3.95455 5.71524 0
M  V30 2416 H 242.917 2.41987 4.007 0
M  V30 2417 H 243.09 3.5636 5.41213 0
M  V30 2418 N 236.496 -1.42363 0.676048 0
M  V30 2419 C 237.724 -2.05859 0.207268 0
M  V30 2420 C 238.139 -1.50796 -1.13605 0
M  V30 2421 O 237.496 -0.648265 -1.70598 0
M  V30 2422 C 237.547 -3.61248 0.134975 0
M  V30 2423 O 237.268 -4.1427 1.42521 0
M  V30 2424 C 238.769 -4.41859 -0.357151 0
M  V30 2425 H 235.989 -0.663431 0.100503 0
M  V30 2426 H 238.533 -1.82479 0.923136 0
M  V30 2427 H 236.688 -3.83735 -0.531588 0
M  V30 2428 H 237.102 -5.0815 1.29939 0
M  V30 2429 H 238.576 -5.50847 -0.356641 0
M  V30 2430 H 239.053 -4.16536 -1.39264 0
M  V30 2431 H 239.659 -4.24392 0.27772 0
M  V30 2432 N 237.974 -0.419461 -1.51915 0
M  V30 2433 C 238.921 0.400927 -2.27291 0
M  V30 2434 C 239.891 1.03224 -1.30131 0
M  V30 2435 O 241.076 1.05455 -1.59009 0
M  V30 2436 C 238.216 1.50603 -3.10504 0
M  V30 2437 C 237.329 0.89462 -4.22635 0
M  V30 2438 C 236.464 1.97328 -4.93189 0
M  V30 2439 C 235.503 1.33935 -5.97267 0
M  V30 2440 N 234.64 2.3586 -6.61298 0
M  V30 2441 H 239.48 -0.248251 -2.96964 0
M  V30 2442 H 237.017 -0.134266 -1.46486 0
M  V30 2443 H 238.975 2.15783 -3.57062 0
M  V30 2444 H 237.605 2.12509 -2.42981 0
M  V30 2445 H 236.657 0.131583 -3.80172 0
M  V30 2446 H 237.969 0.391641 -4.9726 0
M  V30 2447 H 237.123 2.70211 -5.43204 0
M  V30 2448 H 235.862 2.50994 -4.18155 0
M  V30 2449 H 234.867 0.595896 -5.46561 0
M  V30 2450 H 236.092 0.810252 -6.74249 0
M  V30 2451 H 234.038 2.88639 -5.89087 0
M  V30 2452 H 233.955 1.90403 -7.3163 0
M  V30 2453 H 235.223 3.08282 -7.15949 0
M  V30 2454 N 239.452 1.56882 -0.150215 0
M  V30 2455 C 240.698 1.96518 0.500834 0
M  V30 2456 C 241.031 1.03527 1.64304 0
M  V30 2457 O 240.306 0.0782751 1.94342 0
M  V30 2458 C 240.589 3.45822 1.00395 0
M  V30 2459 C 240.442 4.49591 -0.136983 0
M  V30 2460 C 241.761 3.97704 1.88467 0
M  V30 2461 H 238.88 0.714535 0.18058 0
M  V30 2462 H 241.522 1.88577 -0.232091 0
M  V30 2463 H 239.672 3.5272 1.62851 0
M  V30 2464 H 241.344 4.5477 -0.77343 0
M  V30 2465 H 239.587 4.26441 -0.795652 0
M  V30 2466 H 240.258 5.51402 0.256815 0
M  V30 2467 H 242.734 3.93304 1.35834 0
M  V30 2468 H 241.61 5.0263 2.20578 0
M  V30 2469 H 241.871 3.40252 2.82279 0
M  V30 2470 N 240.93 -0.123565 1.57115 0
M  V30 2471 C 242.179 -0.830704 1.83799 0
M  V30 2472 C 242.492 -1.81259 0.735158 0
M  V30 2473 O 243.698 -2.56558 0.888278 0
M  V30 2474 C 242.154 -1.52802 3.25852 0
M  V30 2475 C 241.762 -0.587356 4.44133 0
M  V30 2476 C 243.506 -2.22056 3.61789 0
M  V30 2477 C 241.413 -1.28764 5.77212 0
M  V30 2478 H 240.343 -0.313967 0.685522 0
M  V30 2479 H 242.994 -0.0834359 1.8331 0
M  V30 2480 H 241.376 -2.32175 3.20797 0
M  V30 2481 H 242.55 0.172829 4.60476 0
M  V30 2482 H 240.865 -0.00201892 4.164 0
M  V30 2483 H 243.462 -2.75131 4.58483 0
M  V30 2484 H 243.805 -2.99644 2.88997 0
M  V30 2485 H 244.338 -1.49576 3.68608 0
M  V30 2486 H 241.077 -0.55314 6.53162 0
M  V30 2487 H 240.597 -2.01995 5.64764 0
M  V30 2488 H 242.276 -1.8221 6.20813 0
M  V30 2489 N 242.408 -1.52605 -0.393616 0
M  V30 2490 C 243.358 -1.73436 -1.48 0
M  V30 2491 C 244.342 -0.588386 -1.49756 0
M  V30 2492 O 245.534 -0.846047 -1.5547 0
M  V30 2493 C 242.663 -1.90247 -2.85764 0
M  V30 2494 C 241.749 -3.10763 -2.88595 0
M  V30 2495 N 242.14 -4.33196 -2.61103 0
M  V30 2496 C 240.438 -3.10914 -3.19763 0
M  V30 2497 C 241.139 -5.1477 -2.70899 0
M  V30 2498 N 240.115 -4.50356 -3.04435 0
M  V30 2499 H 243.917 -2.65727 -1.25563 0
M  V30 2500 H 241.431 -1.5085 -0.601513 0
M  V30 2501 H 243.428 -2.03291 -3.63976 0
M  V30 2502 H 242.088 -0.991663 -3.09186 0
M  V30 2503 H 243.099 -4.61408 -2.35209 0
M  V30 2504 H 239.776 -2.29626 -3.4868 0
M  V30 2505 H 241.166 -6.22355 -2.53227 0
M  V30 2506 N 243.887 0.651787 -1.4349 0
M  V30 2507 C 245.303 0.96762 -1.26922 0
M  V30 2508 C 245.503 2.00602 -0.189982 0
M  V30 2509 O 244.559 2.48793 0.431107 0
M  V30 2510 C 245.872 1.45052 -2.63401 0
M  V30 2511 C 247.42 1.5671 -2.70945 0
M  V30 2512 C 247.895 2.0839 -4.07845 0
M  V30 2513 N 249.386 2.1569 -4.09917 0
M  V30 2514 C 250.121 2.56804 -5.12679 0
M  V30 2515 N 249.617 2.97203 -6.25813 0
M  V30 2516 N 251.41 2.56756 -5.00033 0
M  V30 2517 H 243.561 -0.0353158 -2.12371 0
M  V30 2518 H 245.824 0.0467858 -0.946845 0
M  V30 2519 H 245.53 0.761926 -3.43348 0
M  V30 2520 H 245.404 2.42529 -2.88894 0
M  V30 2521 H 247.791 2.2467 -1.9133 0
M  V30 2522 H 247.872 0.57662 -2.49216 0
M  V30 2523 H 247.516 1.41031 -4.87927 0
M  V30 2524 H 247.446 3.08271 -4.26938 0
M  V30 2525 H 249.937 1.87237 -3.28254 0
M  V30 2526 H 250.25 3.27328 -7.00055 0
M  V30 2527 H 248.595 2.95004 -6.29283 0
M  V30 2528 H 251.786 2.24572 -4.10713 0
M  V30 2529 H 251.959 2.88475 -5.80247 0
M  V30 2530 N 245.365 1.30045 0.890287 0
M  V30 2531 C 246.295 1.18541 2.01172 0
M  V30 2532 C 247.276 0.0773356 1.69924 0
M  V30 2533 O 248.461 0.25845 1.92473 0
M  V30 2534 C 245.591 0.870941 3.36202 0
M  V30 2535 C 244.545 1.93637 3.81692 0
M  V30 2536 C 243.871 1.475 5.13953 0
M  V30 2537 C 245.171 3.34666 4.00994 0
M  V30 2538 H 246.865 2.12359 2.11054 0
M  V30 2539 H 244.411 1.02238 1.01407 0
M  V30 2540 H 246.364 0.777141 4.14172 0
M  V30 2541 H 245.088 -0.102926 3.26438 0
M  V30 2542 H 243.747 2.01972 3.05946 0
M  V30 2543 H 243.395 0.489551 5.00612 0
M  V30 2544 H 243.095 2.1876 5.4536 0
M  V30 2545 H 244.619 1.39489 5.94454 0
M  V30 2546 H 246.033 3.2912 4.69417 0
M  V30 2547 H 244.43 4.03966 4.43769 0
M  V30 2548 H 245.5 3.76949 3.05021 0
M  V30 2549 N 246.843 -1.10192 1.12674 0
M  V30 2550 C 247.775 -2.16418 0.754701 0
M  V30 2551 C 248.788 -1.61309 -0.21986 0
M  V30 2552 O 249.977 -1.785 -0.000826841 0
M  V30 2553 C 247.077 -3.38762 0.096698 0
M  V30 2554 C 246.25 -4.23307 1.10136 0
M  V30 2555 C 245.309 -5.24092 0.470513 0
M  V30 2556 O 244.335 -5.57906 1.12824 0
M  V30 2557 N 245.537 -5.75491 -0.760948 0
M  V30 2558 H 248.302 -2.48943 1.66875 0
M  V30 2559 H 245.863 -1.25834 1.01869 0
M  V30 2560 H 247.855 -4.03291 -0.337384 0
M  V30 2561 H 246.425 -3.04192 -0.720153 0
M  V30 2562 H 245.645 -3.55036 1.71299 0
M  V30 2563 H 246.933 -4.76624 1.78064 0
M  V30 2564 H 246.331 -5.50222 -1.31424 0
M  V30 2565 H 244.888 -6.41792 -1.13781 0
M  V30 2566 N 248.321 -0.919034 -1.28029 0
M  V30 2567 C 249.284 -0.416182 -2.2539 0
M  V30 2568 C 250.284 0.460438 -1.54067 0
M  V30 2569 O 251.474 0.262744 -1.72207 0
M  V30 2570 C 248.606 0.402707 -3.38513 0
M  V30 2571 H 249.799 -1.27629 -2.71387 0
M  V30 2572 H 247.352 -0.698919 -1.39803 0
M  V30 2573 H 248.087 1.282 -2.97885 0
M  V30 2574 H 247.872 -0.225698 -3.9145 0
M  V30 2575 H 249.362 0.745191 -4.10897 0
M  V30 2576 N 249.799 1.42003 -0.683588 0
M  V30 2577 C 250.762 2.29191 -0.0198243 0
M  V30 2578 C 251.762 1.43773 0.72013 0
M  V30 2579 O 252.952 1.65061 0.556815 0
M  V30 2580 C 250.084 3.26435 0.982487 0
M  V30 2581 H 251.277 2.8938 -0.787345 0
M  V30 2582 H 248.83 1.49789 -0.446418 0
M  V30 2583 H 249.565 2.71203 1.77819 0
M  V30 2584 H 249.35 3.89449 0.455182 0
M  V30 2585 H 250.84 3.918 1.44508 0
M  V30 2586 N 251.277 0.427512 1.51691 0
M  V30 2587 C 252.502 -0.143601 2.06902 0
M  V30 2588 C 252.927 -1.36536 1.29382 0
M  V30 2589 O 252.285 -1.78289 0.329043 0
M  V30 2590 C 252.333 -0.454207 3.57728 0
M  V30 2591 O 251.437 -1.54228 3.82475 0
M  V30 2592 H 250.778 -0.00617128 0.663971 0
M  V30 2593 H 253.308 0.606014 1.95419 0
M  V30 2594 H 253.318 -0.707525 4.01818 0
M  V30 2595 H 251.993 0.438812 4.13579 0
M  V30 2596 H 250.57 -1.2797 3.50254 0
M  V30 2597 N 252.755 -1.56801 0.158532 0
M  V30 2598 C 254.166 -1.83189 -0.360366 0
M  V30 2599 C 254.517 -1.07778 -1.63946 0
M  V30 2600 O 253.642 -0.326718 -2.13919 0
M  V30 2601 C 254.237 -3.32297 -0.660595 0
M  V30 2602 C 252.796 -3.59227 -1.12398 0
M  V30 2603 C 251.943 -2.76877 -0.153097 0
M  V30 2604 H 254.894 -1.54008 0.383031 0
M  V30 2605 H 254.915 -3.4908 -1.51405 0
M  V30 2606 H 254.427 -3.87156 0.270527 0
M  V30 2607 H 252.528 -3.09766 -2.07064 0
M  V30 2608 H 252.641 -4.67632 -1.04197 0
M  V30 2609 H 251.005 -2.46319 -0.647983 0
M  V30 2610 H 251.788 -3.34511 0.77182 0
M  V30 2611 N 254.233 0.115231 -1.57178 0
M  V30 2612 C 255.143 1.15994 -2.03918 0
M  V30 2613 C 256.159 1.45103 -0.960268 0
M  V30 2614 O 257.335 1.56144 -1.27204 0
M  V30 2615 C 254.4 2.46568 -2.43732 0
M  V30 2616 C 253.461 2.24822 -3.65723 0
M  V30 2617 C 252.694 3.4917 -4.03629 0
M  V30 2618 O 252.917 4.56623 -3.41835 0
M  V30 2619 O 251.851 3.39949 -4.96708 0
M  V30 2620 H 255.677 0.793019 -2.93164 0
M  V30 2621 H 253.262 0.3263 -1.45793 0
M  V30 2622 H 255.144 3.23492 -2.70057 0
M  V30 2623 H 253.819 2.82726 -1.57631 0
M  V30 2624 H 252.726 1.45744 -3.44542 0
M  V30 2625 H 254.059 1.93566 -4.52541 0
M  V30 2626 N 255.711 1.52812 0.385517 0
M  V30 2627 C 256.641 1.80808 1.47752 0
M  V30 2628 C 257.622 0.660318 1.5676 0
M  V30 2629 O 258.807 0.908246 1.71652 0
M  V30 2630 C 255.937 1.98008 2.85324 0
M  V30 2631 C 254.891 3.13709 2.91154 0
M  V30 2632 C 254.217 3.16169 4.31209 0
M  V30 2633 C 255.517 4.52709 2.60483 0
M  V30 2634 H 257.211 2.72253 1.24573 0
M  V30 2635 H 254.757 1.31003 0.597839 0
M  V30 2636 H 256.71 2.16176 3.61726 0
M  V30 2637 H 255.434 1.03255 3.09848 0
M  V30 2638 H 254.093 2.95329 2.17201 0
M  V30 2639 H 253.741 2.19092 4.52778 0
M  V30 2640 H 253.441 3.93894 4.36029 0
M  V30 2641 H 254.965 3.36496 5.09512 0
M  V30 2642 H 256.379 4.71173 3.26602 0
M  V30 2643 H 254.776 5.32528 2.76648 0
M  V30 2644 H 255.846 4.59186 1.55809 0
M  V30 2645 N 257.189 -0.644168 1.43834 0
M  V30 2646 C 258.417 -1.43147 1.49387 0
M  V30 2647 C 258.832 -1.88452 0.114583 0
M  V30 2648 O 258.189 -1.60047 -0.876989 0
M  V30 2649 C 258.24 -2.66046 2.44748 0
M  V30 2650 O 257.961 -2.22633 3.77314 0
M  V30 2651 C 259.462 -3.59311 2.59635 0
M  V30 2652 H 256.682 -0.439447 0.507077 0
M  V30 2653 H 259.226 -0.78895 1.88669 0
M  V30 2654 H 257.381 -3.26418 2.08638 0
M  V30 2655 H 257.795 -3.02216 4.28679 0
M  V30 2656 H 259.269 -4.42187 3.30416 0
M  V30 2657 H 259.746 -4.07259 1.64427 0
M  V30 2658 H 260.352 -3.04816 2.96593 0
M  V30 2659 N 258.668 -1.30515 -0.883378 0
M  V30 2660 C 259.6 -1.12846 -1.99496 0
M  V30 2661 C 260.613 -0.0712571 -1.62644 0
M  V30 2662 O 261.802 -0.317432 -1.75655 0
M  V30 2663 C 258.902 -0.699123 -3.3161 0
M  V30 2664 C 258.075 -1.83842 -3.96889 0
M  V30 2665 C 257.134 -1.39737 -5.07307 0
M  V30 2666 O 256.16 -2.10485 -5.28852 0
M  V30 2667 N 257.362 -0.277279 -5.79837 0
M  V30 2668 H 260.127 -2.08585 -2.15203 0
M  V30 2669 H 257.688 -1.22672 -1.05656 0
M  V30 2670 H 259.68 -0.387044 -4.02845 0
M  V30 2671 H 258.25 0.166276 -3.12157 0
M  V30 2672 H 257.47 -2.31853 -3.18807 0
M  V30 2673 H 258.758 -2.60187 -4.37241 0
M  V30 2674 H 258.156 0.3122 -5.64838 0
M  V30 2675 H 256.713 -0.0246623 -6.51795 0
M  V30 2676 N 260.146 1.09593 -1.13257 0
M  V30 2677 C 261.109 2.14359 -0.811358 0
M  V30 2678 C 262.109 1.59808 0.178377 0
M  V30 2679 O 263.299 1.74132 -0.0484911 0
M  V30 2680 C 260.431 3.40269 -0.207276 0
M  V30 2681 H 261.624 2.44284 -1.73969 0
M  V30 2682 H 259.177 1.25102 -0.936973 0
M  V30 2683 H 259.912 3.15969 0.73036 0
M  V30 2684 H 259.697 3.81154 -0.919992 0
M  V30 2685 H 261.187 4.176 0.000667944 0
M  V30 2686 N 261.624 0.925811 1.2754 0
M  V30 2687 C 262.587 0.428129 2.25166 0
M  V30 2688 C 263.587 -0.452261 1.54309 0
M  V30 2689 O 264.777 -0.253608 1.72344 0
M  V30 2690 C 261.909 -0.384749 3.38722 0
M  V30 2691 H 263.102 1.29066 2.70706 0
M  V30 2692 H 260.655 0.706323 1.3943 0
M  V30 2693 H 261.39 -1.26618 2.98561 0
M  V30 2694 H 261.175 0.246454 3.91325 0
M  V30 2695 H 262.665 -0.723389 4.11287 0
M  V30 2696 N 263.102 -1.41638 0.69111 0
M  V30 2697 C 264.351 -2.00526 0.217318 0
M  V30 2698 C 264.664 -1.55353 -1.18848 0
M  V30 2699 O 265.87 -2.06769 -1.75951 0
M  V30 2700 C 264.326 -3.58313 0.337639 0
M  V30 2701 C 263.934 -4.12469 1.74852 0
M  V30 2702 C 265.678 -4.24431 -0.0766066 0
M  V30 2703 C 263.585 -5.62675 1.82074 0
M  V30 2704 H 262.515 -0.750008 0.0774893 0
M  V30 2705 H 265.166 -1.6217 0.858661 0
M  V30 2706 H 263.548 -3.9425 -0.371879 0
M  V30 2707 H 264.722 -3.8796 2.48644 0
M  V30 2708 H 263.037 -3.58861 2.11205 0
M  V30 2709 H 265.634 -5.34683 -0.0430284 0
M  V30 2710 H 265.977 -4.01101 -1.1146 0
M  V30 2711 H 266.51 -3.93512 0.582476 0
M  V30 2712 H 263.249 -5.90826 2.83911 0
M  V30 2713 H 262.769 -5.89124 1.12661 0
M  V30 2714 H 264.448 -6.27371 1.58159 0
M  V30 2715 N 264.58 -0.43555 -1.51462 0
M  V30 2716 C 265.513 0.421989 -2.24264 0
M  V30 2717 C 266.491 1.02619 -1.26127 0
M  V30 2718 O 267.675 1.069 -1.55257 0
M  V30 2719 C 264.802 1.588 -2.99166 0
M  V30 2720 C 263.848 1.10465 -4.11946 0
M  V30 2721 S 264.681 0.048146 -5.35478 0
M  V30 2722 C 265.837 1.21887 -6.13917 0
M  V30 2723 H 266.07 -0.196102 -2.96653 0
M  V30 2724 H 263.603 -0.220054 -1.52824 0
M  V30 2725 H 265.561 2.25647 -3.42919 0
M  V30 2726 H 264.222 2.1775 -2.26371 0
M  V30 2727 H 263.415 1.97654 -4.63626 0
M  V30 2728 H 263.017 0.51445 -3.70445 0
M  V30 2729 H 265.309 2.13756 -6.42895 0
M  V30 2730 H 266.252 0.742076 -7.04201 0
M  V30 2731 H 266.66 1.45663 -5.45383 0
M  V30 2732 N 266.058 1.56714 -0.166846 0
M  V30 2733 C 266.968 2.21331 0.777791 0
M  V30 2734 C 267.984 1.20358 1.25658 0
M  V30 2735 O 269.16 1.53005 1.30964 0
M  V30 2736 C 266.225 2.83787 1.99163 0
M  V30 2737 C 265.286 3.99947 1.56016 0
M  V30 2738 C 264.519 4.59415 2.71613 0
M  V30 2739 O 264.742 4.17769 3.88362 0
M  V30 2740 O 263.676 5.49359 2.45945 0
M  V30 2741 H 267.502 3.02605 0.257636 0
M  V30 2742 H 265.087 1.49275 0.0611393 0
M  V30 2743 H 266.969 3.23405 2.70161 0
M  V30 2744 H 265.644 2.05513 2.50092 0
M  V30 2745 H 264.551 3.65007 0.819809 0
M  V30 2746 H 265.884 4.79801 1.09782 0
M  V30 2747 N 267.536 -0.106894 1.57237 0
M  V30 2748 C 268.483 -1.13049 2.01217 0
M  V30 2749 C 269.453 -1.40471 0.886403 0
M  V30 2750 O 270.638 -1.52133 1.15153 0
M  V30 2751 C 267.778 -2.4487 2.43172 0
M  V30 2752 C 266.891 -2.24281 3.69218 0
M  V30 2753 C 266.026 -3.49417 4.00101 0
M  V30 2754 C 265.065 -3.24038 5.19294 0
M  V30 2755 N 264.202 -4.41409 5.45988 0
M  V30 2756 H 269.042 -0.748456 2.88448 0
M  V30 2757 H 266.579 -0.358054 1.42676 0
M  V30 2758 H 268.537 -3.21786 2.65537 0
M  V30 2759 H 267.167 -2.80944 1.58967 0
M  V30 2760 H 266.219 -1.38224 3.54398 0
M  V30 2761 H 267.531 -2.01512 4.56283 0
M  V30 2762 H 266.685 -4.34746 4.2318 0
M  V30 2763 H 265.424 -3.75229 3.11535 0
M  V30 2764 H 264.429 -2.37102 4.96047 0
M  V30 2765 H 265.654 -2.99584 6.09447 0
M  V30 2766 H 263.6 -4.67319 4.60379 0
M  V30 2767 H 263.517 -4.21788 6.274 0
M  V30 2768 H 264.785 -5.27836 5.73593 0
M  V30 2769 N 269.014 -1.53014 -0.377408 0
M  V30 2770 C 269.944 -1.81589 -1.46791 0
M  V30 2771 C 270.925 -0.668622 -1.56408 0
M  V30 2772 O 272.11 -0.917337 -1.71168 0
M  V30 2773 C 269.24 -1.99519 -2.8427 0
M  V30 2774 C 268.194 -3.15249 -2.89486 0
M  V30 2775 C 267.52 -3.18451 -4.29527 0
M  V30 2776 C 268.82 -4.54084 -2.58079 0
M  V30 2777 H 270.514 -2.7291 -1.23127 0
M  V30 2778 H 268.06 -1.31319 -0.590883 0
M  V30 2779 H 270.013 -2.18092 -3.60575 0
M  V30 2780 H 268.737 -1.04897 -3.09296 0
M  V30 2781 H 267.396 -2.96477 -2.15631 0
M  V30 2782 H 267.044 -2.2149 -4.5161 0
M  V30 2783 H 266.744 -3.962 -4.33934 0
M  V30 2784 H 268.268 -3.39193 -5.07721 0
M  V30 2785 H 269.682 -4.72899 -3.24098 0
M  V30 2786 H 268.079 -5.33987 -2.7382 0
M  V30 2787 H 269.149 -4.60006 -1.53372 0
M  V30 2788 N 270.492 0.636531 -1.44174 0
M  V30 2789 C 271.738 1.39826 -1.4689 0
M  V30 2790 C 272.071 1.93947 -0.0990585 0
M  V30 2791 O 271.346 1.73325 0.882544 0
M  V30 2792 C 271.629 2.56751 -2.5249 0
M  V30 2793 C 271.482 2.08014 -3.98811 0
M  V30 2794 C 272.801 3.58946 -2.54649 0
M  V30 2795 H 269.92 0.507075 -0.53483 0
M  V30 2796 H 272.562 0.720188 -1.75822 0
M  V30 2797 H 270.712 3.14597 -2.2795 0
M  V30 2798 H 272.384 1.5504 -4.34466 0
M  V30 2799 H 270.627 1.39242 -4.10846 0
M  V30 2800 H 271.298 2.92169 -4.68339 0
M  V30 2801 H 273.774 3.1089 -2.76563 0
M  V30 2802 H 272.65 4.38286 -3.3045 0
M  V30 2803 H 272.911 4.12655 -1.58646 0
M  V30 2804 N 271.97 1.30982 0.876444 0
M  V30 2805 C 272.933 1.18054 1.96459 0
M  V30 2806 C 273.933 0.109399 1.60427 0
M  V30 2807 O 275.123 0.358173 1.70478 0
M  V30 2808 C 272.255 0.810616 3.31122 0
M  V30 2809 H 273.448 2.14735 2.09354 0
M  V30 2810 H 271.001 1.145 1.06392 0
M  V30 2811 H 271.736 -0.155322 3.23928 0
M  V30 2812 H 271.521 1.58481 3.58645 0
M  V30 2813 H 273.011 0.743876 4.10921 0
M  V30 2814 N 273.449 -1.08991 1.13837 0
M  V30 2815 C 274.679 -1.84743 0.924859 0
M  V30 2816 C 275.087 -1.81629 -0.529874 0
M  V30 2817 O 274.43 -1.21397 -1.37872 0
M  V30 2818 C 274.492 -3.33568 1.34061 0
M  V30 2819 C 274.156 -3.60425 2.80968 0
M  V30 2820 C 275.153 -3.55771 3.79108 0
M  V30 2821 C 272.838 -3.88627 3.18236 0
M  V30 2822 C 274.832 -3.78939 5.12527 0
M  V30 2823 C 272.519 -4.11449 4.51833 0
M  V30 2824 C 273.517 -4.06598 5.48787 0
M  V30 2825 O 273.205 -4.28826 6.79973 0
M  V30 2826 H 272.937 -0.590258 0.329502 0
M  V30 2827 H 275.491 -1.38598 1.51591 0
M  V30 2828 H 273.721 -3.80442 0.692853 0
M  V30 2829 H 275.41 -3.90743 1.09886 0
M  V30 2830 H 276.176 -3.34005 3.51661 0
M  V30 2831 H 272.055 -3.91526 2.43369 0
M  V30 2832 H 275.599 -3.75068 5.88192 0
M  V30 2833 H 271.496 -4.32698 4.79002 0
M  V30 2834 H 272.264 -4.46264 6.86142 0
M  V30 2835 N 274.927 -0.932562 -1.27047 0
M  V30 2836 C 276.152 -0.591474 -1.98787 0
M  V30 2837 C 276.577 0.824601 -1.69062 0
M  V30 2838 O 275.935 1.5541 -0.933677 0
M  V30 2839 C 275.983 -0.829808 -3.50922 0
M  V30 2840 O 275.087 0.102266 -4.12273 0
M  V30 2841 H 274.428 -0.227185 -0.623926 0
M  V30 2842 H 276.958 -1.25314 -1.61733 0
M  V30 2843 H 276.968 -0.747292 -4.01098 0
M  V30 2844 H 275.643 -1.86201 -3.7189 0
M  V30 2845 H 274.22 -0.0305761 -3.72887 0
M  V30 2846 N 276.405 1.4127 -0.698611 0
M  V30 2847 C 277.63 2.06024 -0.238512 0
M  V30 2848 C 278.055 1.5224 1.10475 0
M  V30 2849 O 277.413 0.650623 1.69223 0
M  V30 2850 C 277.461 3.59988 -0.209952 0
M  V30 2851 O 276.565 4.04282 0.814235 0
M  V30 2852 H 275.906 0.653829 -0.115775 0
M  V30 2853 H 278.436 1.8098 -0.954326 0
M  V30 2854 H 278.446 4.07979 -0.0418436 0
M  V30 2855 H 277.121 3.98503 -1.1903 0
M  V30 2856 H 275.698 3.6779 0.615234 0
M  V30 2857 N 277.883 0.443576 1.51229 0
M  V30 2858 C 279.16 -0.181038 1.9476 0
M  V30 2859 C 279.54 -1.59523 1.38259 0
M  V30 2860 O 278.888 -2.2122 0.572198 0
M  V30 2861 C 279.098 -0.152422 3.48667 0
M  V30 2862 C 280.446 -0.354923 4.23114 0
M  V30 2863 O 281.47 -0.230257 3.55455 0
M  V30 2864 O 280.329 -0.603674 5.43156 0
M  V30 2865 H 277.423 -0.1266 0.817252 0
M  V30 2866 H 279.969 0.502004 1.62105 0
M  V30 2867 H 278.741 0.836022 3.82265 0
M  V30 2868 H 278.364 -0.878107 3.87782 0
M  V30 2869 N 279.361 -1.56624 0.175154 0
M  V30 2870 C 280.293 -2.15333 -0.785128 0
M  V30 2871 C 281.306 -1.1099 -1.19101 0
M  V30 2872 O 282.495 -1.38162 -1.13019 0
M  V30 2873 C 279.595 -2.68427 -2.06882 0
M  V30 2874 C 278.768 -3.97466 -1.8259 0
M  V30 2875 C 277.827 -4.35585 -2.95215 0
M  V30 2876 O 276.853 -5.03389 -2.65684 0
M  V30 2877 N 278.055 -3.97457 -4.23094 0
M  V30 2878 H 280.82 -2.98359 -0.283187 0
M  V30 2879 H 278.381 -1.61898 -0.00749817 0
M  V30 2880 H 280.373 -2.90924 -2.81328 0
M  V30 2881 H 278.943 -1.89968 -2.48256 0
M  V30 2882 H 278.163 -3.83307 -0.920287 0
M  V30 2883 H 279.451 -4.81736 -1.63733 0
M  V30 2884 H 278.849 -3.42878 -4.49945 0
M  V30 2885 H 277.406 -4.24947 -4.9423 0
M  V30 2886 N 280.839 0.0985539 -1.57292 0
M  V30 2887 C 281.802 1.10402 -2.00858 0
M  V30 2888 C 282.802 1.33146 -0.901593 0
M  V30 2889 O 283.992 1.29318 -1.16716 0
M  V30 2890 C 281.124 2.45394 -2.36632 0
M  V30 2891 H 282.317 0.729099 -2.90902 0
M  V30 2892 H 279.87 0.343495 -1.52479 0
M  V30 2893 H 280.605 2.87769 -1.49531 0
M  V30 2894 H 280.39 2.30235 -3.17387 0
M  V30 2895 H 281.88 3.17718 -2.71007 0
M  V30 2896 N 282.317 1.53212 0.369288 0
M  V30 2897 C 283.267 1.75769 1.45222 0
M  V30 2898 C 284.251 0.612136 1.48801 0
M  V30 2899 O 285.443 0.870674 1.54105 0
M  V30 2900 C 282.572 1.94769 2.82701 0
M  V30 2901 C 281.658 3.15315 2.83615 0
M  V30 2902 N 282.049 4.37295 2.54178 0
M  V30 2903 C 280.347 3.15962 3.14776 0
M  V30 2904 C 281.048 5.19015 2.62675 0
M  V30 2905 N 280.024 4.55142 2.97232 0
M  V30 2906 H 283.826 2.67691 1.2132 0
M  V30 2907 H 281.34 1.51787 0.577438 0
M  V30 2908 H 283.337 2.09056 3.60696 0
M  V30 2909 H 281.997 1.04073 3.07569 0
M  V30 2910 H 283.008 4.65091 2.27839 0
M  V30 2911 H 279.685 2.35144 3.44983 0
M  V30 2912 H 281.075 6.26305 2.43294 0
M  V30 2913 N 283.795 -0.628877 1.44509 0
M  V30 2914 C 285.02 -1.42048 1.5112 0
M  V30 2915 C 285.445 -1.87594 0.137818 0
M  V30 2916 O 284.803 -1.58873 -0.873437 0
M  V30 2917 C 284.851 -2.61541 2.48251 0
M  V30 2918 O 283.955 -3.61453 1.98559 0
M  V30 2919 H 283.296 -0.424942 0.510216 0
M  V30 2920 H 285.826 -0.767374 1.89664 0
M  V30 2921 H 285.836 -3.09057 2.66361 0
M  V30 2922 H 284.511 -2.27736 3.48007 0
M  V30 2923 H 283.088 -3.20731 1.90227 0
M  V30 2924 N 285.273 -1.31445 -0.869486 0
M  V30 2925 C 286.498 -1.24256 -1.66058 0
M  V30 2926 C 286.923 0.188928 -1.87149 0
M  V30 2927 O 286.281 1.13522 -1.4136 0
M  V30 2928 C 286.329 -1.9924 -3.00559 0
M  V30 2929 O 285.433 -1.33007 -3.90362 0
M  V30 2930 H 284.774 -0.428973 -0.506831 0
M  V30 2931 H 287.304 -1.73521 -1.08404 0
M  V30 2932 H 287.314 -2.08854 -3.50491 0
M  V30 2933 H 285.989 -3.03342 -2.84528 0
M  V30 2934 H 284.566 -1.31848 -3.48813 0
M  V30 2935 N 286.751 1.08385 -1.14413 0
M  V30 2936 C 287.997 1.81044 -0.913834 0
M  V30 2937 C 288.33 1.86004 0.558209 0
M  V30 2938 O 287.605 1.33606 1.4135 0
M  V30 2939 C 287.888 3.26648 -1.51569 0
M  V30 2940 C 287.741 3.29895 -3.0576 0
M  V30 2941 C 289.06 4.23629 -1.19273 0
M  V30 2942 H 286.179 0.65727 -0.333414 0
M  V30 2943 H 288.821 1.26896 -1.41412 0
M  V30 2944 H 286.971 3.72889 -1.09023 0
M  V30 2945 H 288.643 2.91977 -3.57137 0
M  V30 2946 H 286.886 2.69163 -3.40197 0
M  V30 2947 H 287.557 4.32516 -3.42977 0
M  V30 2948 H 290.033 3.85727 -1.56057 0
M  V30 2949 H 288.909 5.23822 -1.64017 0
M  V30 2950 H 289.17 4.41968 -0.108068 0
M  V30 2951 N 288.23 0.939286 1.26551 0
M  V30 2952 C 289.14 0.453432 2.30176 0
M  V30 2953 C 290.156 -0.471649 1.67486 0
M  V30 2954 O 291.332 -0.35164 1.98306 0
M  V30 2955 C 288.397 -0.275326 3.45605 0
M  V30 2956 C 287.458 0.686084 4.23782 0
M  V30 2957 C 286.691 -0.00798994 5.33699 0
M  V30 2958 O 286.914 -1.22528 5.57085 0
M  V30 2959 O 285.848 0.669746 5.98162 0
M  V30 2960 H 289.674 1.31416 2.73795 0
M  V30 2961 H 287.259 0.705095 1.31715 0
M  V30 2962 H 289.141 -0.685911 4.1578 0
M  V30 2963 H 287.816 -1.11147 3.0402 0
M  V30 2964 H 286.723 1.14658 3.56096 0
M  V30 2965 H 288.056 1.48979 4.69112 0
M  V30 2966 N 289.708 -1.40897 0.706093 0
M  V30 2967 C 291.124 -1.55042 0.37869 0
M  V30 2968 C 291.324 -1.67944 -1.11342 0
M  V30 2969 O 290.38 -1.66372 -1.89938 0
M  V30 2970 C 291.693 -2.78398 1.13643 0
M  V30 2971 C 293.241 -2.92206 1.12181 0
M  V30 2972 C 293.716 -4.18463 1.86152 0
M  V30 2973 N 295.207 -4.25443 1.83173 0
M  V30 2974 C 295.942 -5.2202 2.37239 0
M  V30 2975 N 295.438 -6.24563 2.99821 0
M  V30 2976 N 297.231 -5.14033 2.27435 0
M  V30 2977 H 289.382 -1.30769 1.67372 0
M  V30 2978 H 291.645 -0.631653 0.706907 0
M  V30 2979 H 291.351 -2.7511 2.19106 0
M  V30 2980 H 291.225 -3.70228 0.721853 0
M  V30 2981 H 293.612 -2.95004 0.0754171 0
M  V30 2982 H 293.693 -2.01521 1.57554 0
M  V30 2983 H 293.337 -4.16427 2.90776 0
M  V30 2984 H 293.267 -5.08141 1.38206 0
M  V30 2985 H 295.758 -3.51976 1.37556 0
M  V30 2986 H 296.071 -6.94665 3.38616 0
M  V30 2987 H 294.416 -6.25035 3.03902 0
M  V30 2988 H 297.607 -4.3285 1.78208 0
M  V30 2989 H 297.78 -5.89129 2.69873 0
M  V30 2990 N 291.186 -0.45159 -1.50991 0
M  V30 2991 C 292.149 0.341117 -2.26647 0
M  V30 2992 C 293.149 0.937422 -1.30649 0
M  V30 2993 O 294.339 0.809644 -1.54241 0
M  V30 2994 C 291.471 1.48398 -3.06905 0
M  V30 2995 H 292.664 -0.322117 -2.98165 0
M  V30 2996 H 290.217 -0.205122 -1.54948 0
M  V30 2997 H 290.952 2.18284 -2.39838 0
M  V30 2998 H 290.737 1.06241 -3.77432 0
M  V30 2999 H 292.227 2.04367 -3.64176 0
M  V30 3000 N 292.664 1.56529 -0.183458 0
M  V30 3001 C 293.912 1.96855 0.457452 0
M  V30 3002 C 294.233 1.07104 1.62953 0
M  V30 3003 O 293.503 0.139887 1.954 0
M  V30 3004 H 292.083 0.72693 0.171992 0
M  V30 3005 H 294.745 1.93056 -0.267476 0
M  V30 3006 H 293.841 3.01423 0.809368 0
M  V30 3007 N 294.142 -0.090211 1.57342 0
M  V30 3008 C 295.072 -1.10976 2.05443 0
M  V30 3009 C 296.053 -1.41482 0.944284 0
M  V30 3010 O 297.238 -1.51428 1.21586 0
M  V30 3011 C 294.368 -2.42831 2.48295 0
M  V30 3012 C 293.322 -2.26721 3.63018 0
M  V30 3013 C 292.648 -3.63796 3.91863 0
M  V30 3014 C 293.948 -1.7037 4.93732 0
M  V30 3015 H 295.642 -0.709564 2.9087 0
M  V30 3016 H 293.188 -0.339874 1.39932 0
M  V30 3017 H 295.141 -3.14431 2.80555 0
M  V30 3018 H 293.865 -2.84795 1.59873 0
M  V30 3019 H 292.524 -1.57565 3.31012 0
M  V30 3020 H 292.172 -4.03297 3.00601 0
M  V30 3021 H 291.872 -3.53861 4.69101 0
M  V30 3022 H 293.396 -4.36855 4.26603 0
M  V30 3023 H 294.81 -2.31816 5.24342 0
M  V30 3024 H 293.207 -1.71181 5.75167 0
M  V30 3025 H 294.277 -0.663542 4.80339 0
M  V30 3026 N 295.62 -1.53406 -0.361157 0
M  V30 3027 C 296.869 -1.69022 -1.10066 0
M  V30 3028 C 297.182 -0.450838 -1.90333 0
M  V30 3029 O 298.388 -0.487617 -2.67085 0
M  V30 3030 C 296.844 -2.98812 -2.00598 0
M  V30 3031 C 296.452 -4.30027 -1.25621 0
M  V30 3032 C 298.196 -3.23795 -2.74513 0
M  V30 3033 C 296.103 -5.50903 -2.1508 0
M  V30 3034 H 295.033 -0.629776 -0.414606 0
M  V30 3035 H 297.684 -1.79907 -0.361348 0
M  V30 3036 H 296.066 -2.8174 -2.78278 0
M  V30 3037 H 297.24 -4.57745 -0.529739 0
M  V30 3038 H 295.555 -4.11522 -0.635496 0
M  V30 3039 H 298.152 -4.11289 -3.41681 0
M  V30 3040 H 298.495 -2.40045 -3.40123 0
M  V30 3041 H 299.028 -3.41561 -2.03914 0
M  V30 3042 H 295.767 -6.37143 -1.54041 0
M  V30 3043 H 295.287 -5.27459 -2.85565 0
M  V30 3044 H 296.966 -5.85865 -2.74538 0
M  V30 3045 N 297.098 0.621204 -1.44841 0
M  V30 3046 C 298.346 1.37783 -1.47852 0
M  V30 3047 C 298.667 1.94653 -0.116224 0
M  V30 3048 O 297.937 1.76367 0.852737 0
M  V30 3049 H 296.517 0.511453 -0.544449 0
M  V30 3050 H 299.179 0.730446 -1.80694 0
M  V30 3051 H 298.275 2.20414 -2.20961 0
M  V30 3052 N 298.576 1.31904 0.862503 0
M  V30 3053 C 299.824 1.21776 1.61292 0
M  V30 3054 C 300.145 -0.222413 1.93727 0
M  V30 3055 O 299.415 -1.1451 1.58947 0
M  V30 3056 H 297.995 0.447717 0.597962 0
M  V30 3057 H 300.657 1.65326 1.03215 0
M  V30 3058 H 299.753 1.7948 2.5533 0
M  V30 3059 N 300.054 -1.07777 1.14986 0
M  V30 3060 C 301.3 -1.80557 0.923422 0
M  V30 3061 C 301.633 -1.86298 -0.548337 0
M  V30 3062 O 300.908 -1.34354 -1.40639 0
M  V30 3063 C 301.191 -3.25839 1.53299 0
M  V30 3064 C 301.044 -3.28269 3.07505 0
M  V30 3065 C 302.363 -4.22991 1.21518 0
M  V30 3066 H 299.482 -0.655493 0.336894 0
M  V30 3067 H 302.124 -1.26144 1.42083 0
M  V30 3068 H 300.274 -3.72306 1.10999 0
M  V30 3069 H 301.946 -2.90079 3.58681 0
M  V30 3070 H 300.189 -2.67355 3.4162 0
M  V30 3071 H 300.86 -4.30691 3.45266 0
M  V30 3072 H 303.336 -3.84894 1.581 0
M  V30 3073 H 302.212 -5.22945 1.66793 0
M  V30 3074 H 302.473 -4.41904 0.131505 0
M  V30 3075 N 301.532 -0.945985 -1.26051 0
M  V30 3076 C 302.479 -0.45809 -2.26208 0
M  V30 3077 C 303.449 0.484816 -1.58867 0
M  V30 3078 O 304.634 0.399969 -1.86561 0
M  V30 3079 C 301.774 0.266131 -3.44072 0
M  V30 3080 C 300.887 -0.713005 -4.26075 0
M  V30 3081 C 300.022 0.0329013 -5.3119 0
M  V30 3082 C 299.061 -0.93774 -6.04874 0
M  V30 3083 N 298.198 -0.223274 -7.01745 0
M  V30 3084 H 303.038 -1.3171 -2.67313 0
M  V30 3085 H 300.575 -0.66069 -1.31428 0
M  V30 3086 H 302.533 0.702514 -4.11243 0
M  V30 3087 H 301.163 1.08925 -3.03867 0
M  V30 3088 H 300.215 -1.26789 -3.58648 0
M  V30 3089 H 301.527 -1.45406 -4.77136 0
M  V30 3090 H 300.681 0.528335 -6.04395 0
M  V30 3091 H 299.42 0.806801 -4.8098 0
M  V30 3092 H 298.425 -1.44425 -5.30492 0
M  V30 3093 H 299.65 -1.71172 -6.57173 0
M  V30 3094 H 297.596 0.532046 -6.53839 0
M  V30 3095 H 297.513 -0.90357 -7.50581 0
M  V30 3096 H 298.781 0.250907 -7.79096 0
M  V30 3097 N 303.011 1.40521 -0.713556 0
M  V30 3098 C 303.941 2.33381 -0.0743864 0
M  V30 3099 C 304.922 1.52784 0.747735 0
M  V30 3100 O 306.107 1.81258 0.697071 0
M  V30 3101 C 303.237 3.36748 0.849598 0
M  V30 3102 C 302.191 4.27793 0.133247 0
M  V30 3103 C 301.517 5.21679 1.17281 0
M  V30 3104 C 302.817 5.12415 -1.01134 0
M  V30 3105 H 304.511 2.87081 -0.850007 0
M  V30 3106 H 302.057 1.38034 -0.410201 0
M  V30 3107 H 304.01 4.00648 1.30612 0
M  V30 3108 H 302.734 2.81439 1.65709 0
M  V30 3109 H 301.393 3.65342 -0.303426 0
M  V30 3110 H 301.041 4.62677 1.9733 0
M  V30 3111 H 300.741 5.83435 0.698397 0
M  V30 3112 H 302.265 5.88456 1.62947 0
M  V30 3113 H 303.679 5.69781 -0.634274 0
M  V30 3114 H 302.076 5.83203 -1.41399 0
M  V30 3115 H 303.146 4.48514 -1.84292 0
M  V30 3116 N 304.489 0.459591 1.5075 0
M  V30 3117 C 305.436 -0.340524 2.28274 0
M  V30 3118 C 306.406 -0.997371 1.32822 0
M  V30 3119 O 307.591 -1.01202 1.61749 0
M  V30 3120 C 304.731 -1.42317 3.14388 0
M  V30 3121 C 303.844 -0.782251 4.24859 0
M  V30 3122 C 302.979 -1.84182 4.98247 0
M  V30 3123 C 302.018 -1.18053 6.00608 0
M  V30 3124 N 301.155 -2.18244 6.67319 0
M  V30 3125 H 305.995 0.326899 2.96202 0
M  V30 3126 H 303.532 0.173057 1.46078 0
M  V30 3127 H 305.49 -2.06241 3.62658 0
M  V30 3128 H 304.12 -2.05992 2.4853 0
M  V30 3129 H 303.172 -0.0307404 3.80388 0
M  V30 3130 H 304.484 -0.259663 4.98124 0
M  V30 3131 H 303.638 -2.55714 5.50177 0
M  V30 3132 H 302.377 -2.39819 4.24662 0
M  V30 3133 H 301.382 -0.450776 5.47949 0
M  V30 3134 H 302.607 -0.631202 6.7616 0
M  V30 3135 H 300.553 -2.72919 5.96533 0
M  V30 3136 H 300.47 -1.70938 7.36421 0
M  V30 3137 H 301.738 -2.89191 7.23871 0
M  V30 3138 N 305.967 -1.56429 0.191757 0
M  V30 3139 C 306.93 -2.17707 -0.716688 0
M  V30 3140 C 307.93 -1.13061 -1.14341 0
M  V30 3141 O 309.12 -1.38464 -1.05704 0
M  V30 3142 C 306.252 -2.77644 -1.97804 0
M  V30 3143 H 307.445 -2.99342 -0.1829 0
M  V30 3144 H 304.998 -1.56193 -0.0578566 0
M  V30 3145 H 305.733 -1.99799 -2.55443 0
M  V30 3146 H 305.518 -3.54246 -1.68083 0
M  V30 3147 H 307.008 -3.24708 -2.62592 0
M  V30 3148 N 307.445 0.0818655 -1.57387 0
M  V30 3149 C 308.694 0.781681 -1.85937 0
M  V30 3150 C 309.007 1.79246 -0.782957 0
M  V30 3151 O 310.213 2.54112 -0.955987 0
M  V30 3152 C 308.669 1.44109 -3.29789 0
M  V30 3153 C 308.277 0.469396 -4.45534 0
M  V30 3154 C 310.021 2.12386 -3.67549 0
M  V30 3155 C 307.928 1.13415 -5.80423 0
M  V30 3156 H 306.858 0.295682 -0.693605 0
M  V30 3157 H 309.509 0.0348051 -1.83467 0
M  V30 3158 H 307.891 2.23588 -3.2684 0
M  V30 3159 H 309.065 -0.294856 -4.59856 0
M  V30 3160 H 307.38 -0.108383 -4.16259 0
M  V30 3161 H 309.977 2.62878 -4.65617 0
M  V30 3162 H 310.32 2.91877 -2.96839 0
M  V30 3163 H 310.853 1.39751 -3.72444 0
M  V30 3164 H 307.592 0.379771 -6.54399 0
M  V30 3165 H 307.112 1.8695 -5.69921 0
M  V30 3166 H 308.791 1.65686 -6.25426 0
M  V30 3167 N 308.923 1.53595 0.353017 0
M  V30 3168 C 310.334 1.61937 0.929153 0
M  V30 3169 C 310.685 0.494686 1.89861 0
M  V30 3170 O 309.81 -0.377017 2.1309 0
M  V30 3171 C 310.405 2.93526 1.69199 0
M  V30 3172 C 308.964 3.04161 2.21727 0
M  V30 3173 C 308.111 2.57322 1.03348 0
M  V30 3174 H 311.062 1.58155 0.131431 0
M  V30 3175 H 311.083 2.82034 2.55416 0
M  V30 3176 H 310.595 3.75362 0.986144 0
M  V30 3177 H 308.696 2.26938 2.95516 0
M  V30 3178 H 308.809 4.09465 2.48748 0
M  V30 3179 H 307.173 2.12499 1.40414 0
M  V30 3180 H 307.956 3.41588 0.342428 0
M  V30 3181 N 310.401 -0.613514 1.45168 0
M  V30 3182 C 311.626 -1.40437 1.52618 0
M  V30 3183 C 312.051 -1.87438 0.157707 0
M  V30 3184 O 311.409 -1.59791 -0.856537 0
M  V30 3185 C 311.457 -2.58894 2.51011 0
M  V30 3186 O 310.561 -3.59326 2.02382 0
M  V30 3187 H 309.902 -0.419506 0.514695 0
M  V30 3188 H 312.432 -0.747215 1.90467 0
M  V30 3189 H 312.442 -3.06214 2.69624 0
M  V30 3190 H 311.117 -2.24032 3.50403 0
M  V30 3191 H 309.694 -3.18695 1.93618 0
M  V30 3192 N 311.879 -1.3236 -0.855495 0
M  V30 3193 C 313.156 -1.13491 -1.59309 0
M  V30 3194 C 313.536 0.30503 -2.08885 0
M  V30 3195 O 312.884 1.30151 -1.87811 0
M  V30 3196 C 313.094 -2.16176 -2.73987 0
M  V30 3197 C 314.442 -2.49463 -3.43589 0
M  V30 3198 O 315.466 -2.14715 -2.84211 0
M  V30 3199 O 314.325 -3.09027 -4.50738 0
M  V30 3200 H 311.419 -0.437887 -0.701559 0
M  V30 3201 H 313.965 -1.43887 -0.899696 0
M  V30 3202 H 312.737 -3.1297 -2.34873 0
M  V30 3203 H 312.36 -1.86769 -3.51003 0
M  V30 3204 N 313.357 1.07166 -1.15556 0
M  V30 3205 C 314.605 1.79443 -0.929764 0
M  V30 3206 C 314.926 1.87246 0.544414 0
M  V30 3207 O 314.196 1.37473 1.39564 0
M  V30 3208 H 312.776 0.664625 -0.341003 0
M  V30 3209 H 315.438 1.29499 -1.45657 0
M  V30 3210 H 314.534 2.81832 -1.34079 0
M  V30 3211 N 314.835 0.952656 1.25548 0
M  V30 3212 C 315.783 0.462354 2.27958 0
M  V30 3213 C 316.777 -0.46634 1.62855 0
M  V30 3214 O 317.983 -0.343287 1.76696 0
M  V30 3215 H 314.358 0.13101 0.7405 0
M  V30 3216 H 316.329 1.33839 2.66702 0
M  V30 3217 C 315.078 -0.24628 3.46827 0
M  V30 3218 H 314.401 0.459192 3.97154 0
M  V30 3219 H 315.841 -0.553393 4.20373 0
M  V30 3220 C 314.3 -1.4681 3.0323 0
M  V30 3221 O 314.83 -2.56591 3.09069 0
M  V30 3222 N 313.036 -1.32874 2.58443 0
M  V30 3223 H 312.583 -0.435536 2.53891 0
M  V30 3224 H 312.541 -2.14742 2.29637 0
M  V30 3225 N 316.313 -1.40141 0.720998 0
M  V30 3226 C 317.56 -2.00787 0.262842 0
M  V30 3227 C 317.888 -1.5718 -1.14563 0
M  V30 3228 O 317.143 -0.785391 -1.79249 0
M  V30 3229 C 317.442 -3.56165 0.296892 0
M  V30 3230 C 317.108 -4.19373 1.65641 0
M  V30 3231 C 315.77 -4.36352 2.02855 0
M  V30 3232 C 318.122 -4.54578 2.54968 0
M  V30 3233 C 315.45 -4.8582 3.28931 0
M  V30 3234 C 317.802 -5.05447 3.80402 0
M  V30 3235 C 316.466 -5.20635 4.17726 0
M  V30 3236 H 315.736 -0.734731 0.0961807 0
M  V30 3237 H 318.383 -1.67673 0.925093 0
M  V30 3238 H 316.688 -3.8922 -0.448932 0
M  V30 3239 H 318.385 -4.00929 -0.0755208 0
M  V30 3240 H 314.975 -4.06549 1.35704 0
M  V30 3241 H 319.159 -4.41091 2.27491 0
M  V30 3242 H 314.415 -4.95764 3.57811 0
M  V30 3243 H 318.589 -5.31663 4.49786 0
M  V30 3244 H 316.216 -5.58728 5.15487 0
M  V30 3245 N 317.792 -0.46758 -1.50504 0
M  V30 3246 C 318.755 0.317059 -2.26996 0
M  V30 3247 C 319.755 0.923513 -1.31635 0
M  V30 3248 O 320.945 0.793239 -1.55091 0
M  V30 3249 C 318.077 1.45134 -3.08462 0
M  V30 3250 H 319.27 -0.353723 -2.97807 0
M  V30 3251 H 316.823 -0.221545 -1.54722 0
M  V30 3252 H 317.558 2.15728 -2.4214 0
M  V30 3253 H 317.343 1.02232 -3.78538 0
M  V30 3254 H 318.833 2.00493 -3.66323 0
M  V30 3255 N 319.27 1.56325 -0.20005 0
M  V30 3256 C 320.203 2.15234 0.758267 0
M  V30 3257 C 321.181 1.09046 1.20614 0
M  V30 3258 O 322.365 1.37186 1.29276 0
M  V30 3259 C 319.492 2.71524 2.02466 0
M  V30 3260 C 318.538 3.90345 1.71852 0
M  V30 3261 S 319.371 5.28513 0.862249 0
M  V30 3262 C 320.527 5.88227 2.13868 0
M  V30 3263 H 320.76 2.96183 0.2575 0
M  V30 3264 H 318.293 1.54393 0.0150099 0
M  V30 3265 H 320.251 3.04598 2.75191 0
M  V30 3266 H 318.912 1.90607 2.49655 0
M  V30 3267 H 318.105 4.28158 2.65888 0
M  V30 3268 H 317.707 3.58306 1.07205 0
M  V30 3269 H 319.999 6.02891 3.09076 0
M  V30 3270 H 320.942 6.84714 1.80479 0
M  V30 3271 H 321.35 5.16874 2.2694 0
M  V30 3272 N 320.748 -0.0735177 1.57428 0
M  V30 3273 C 322.164 -0.428264 1.53747 0
M  V30 3274 C 322.364 -1.79272 0.91998 0
M  V30 3275 O 321.42 -2.47051 0.521745 0
M  V30 3276 C 322.733 -0.370914 2.98404 0
M  V30 3277 C 324.281 -0.451224 3.0973 0
M  V30 3278 C 324.756 -0.4238 4.56035 0
M  V30 3279 N 326.247 -0.483925 4.60665 0
M  V30 3280 C 326.982 -0.484891 5.71346 0
M  V30 3281 N 326.478 -0.440775 6.91396 0
M  V30 3282 N 328.271 -0.531319 5.59583 0
M  V30 3283 H 320.422 0.819949 1.95935 0
M  V30 3284 H 322.685 0.307493 0.896745 0
M  V30 3285 H 322.391 0.564956 3.47133 0
M  V30 3286 H 322.265 -1.18176 3.5821 0
M  V30 3287 H 324.652 -1.37752 2.60976 0
M  V30 3288 H 324.733 0.388167 2.52838 0
M  V30 3289 H 324.377 0.498638 5.05446 0
M  V30 3290 H 324.307 -1.2807 5.10789 0
M  V30 3291 H 326.798 -0.522338 3.74273 0
M  V30 3292 H 327.111 -0.44539 7.71515 0
M  V30 3293 H 325.456 -0.40749 6.93804 0
M  V30 3294 H 328.647 -0.563464 4.64696 0
M  V30 3295 H 328.82 -0.528603 6.4584 0
M  V30 3296 N 322.226 -1.5378 -0.344866 0
M  V30 3297 C 323.189 -1.80981 -1.40637 0
M  V30 3298 C 324.189 -0.680816 -1.45676 0
M  V30 3299 O 325.379 -0.949095 -1.46075 0
M  V30 3300 C 322.511 -1.95063 -2.79577 0
M  V30 3301 H 323.704 -2.75803 -1.17783 0
M  V30 3302 H 321.257 -1.45173 -0.579181 0
M  V30 3303 H 321.992 -1.02379 -3.07716 0
M  V30 3304 H 321.777 -2.77198 -2.77315 0
M  V30 3305 H 323.267 -2.17629 -3.56409 0
M  V30 3306 N 323.704 0.605807 -1.45491 0
M  V30 3307 C 324.929 1.39625 -1.53361 0
M  V30 3308 C 325.354 1.87351 -0.167645 0
M  V30 3309 O 324.712 1.60243 0.848051 0
M  V30 3310 C 324.76 2.57559 -2.5238 0
M  V30 3311 O 323.864 3.58248 -2.04285 0
M  V30 3312 H 323.205 0.416771 -0.516912 0
M  V30 3313 H 325.735 0.737103 -1.90861 0
M  V30 3314 H 325.745 3.0478 -2.71244 0
M  V30 3315 H 324.42 2.22171 -3.51586 0
M  V30 3316 H 322.997 3.17664 -1.95305 0
M  V30 3317 N 325.182 1.32811 0.848464 0
M  V30 3318 C 326.145 1.22194 1.9391 0
M  V30 3319 C 327.145 0.143404 1.60159 0
M  V30 3320 O 328.335 0.394253 1.6968 0
M  V30 3321 C 325.467 0.88067 3.29328 0
M  V30 3322 H 326.66 2.19127 2.04752 0
M  V30 3323 H 324.213 1.16731 1.0394 0
M  V30 3324 H 324.948 -0.0865776 3.24184 0
M  V30 3325 H 324.733 1.66052 3.55203 0
M  V30 3326 H 326.223 0.830871 4.09251 0
M  V30 3327 N 326.66 -1.06551 1.16123 0
M  V30 3328 C 327.59 -2.15935 0.88851 0
M  V30 3329 C 328.571 -1.69306 -0.164135 0
M  V30 3330 O 329.756 -1.94193 -0.0167857 0
M  V30 3331 C 326.886 -3.45149 0.385942 0
M  V30 3332 C 325.84 -4.05271 1.3762 0
M  V30 3333 C 325.166 -5.29664 0.732137 0
M  V30 3334 C 326.466 -4.44355 2.74493 0
M  V30 3335 H 328.16 -2.39006 1.80323 0
M  V30 3336 H 325.706 -1.14866 0.868435 0
M  V30 3337 H 327.659 -4.21004 0.182647 0
M  V30 3338 H 326.383 -3.21689 -0.564274 0
M  V30 3339 H 325.042 -3.3147 1.56599 0
M  V30 3340 H 324.69 -5.02499 -0.224483 0
M  V30 3341 H 324.39 -5.70848 1.39307 0
M  V30 3342 H 325.914 -6.08218 0.538802 0
M  V30 3343 H 327.328 -5.11303 2.59311 0
M  V30 3344 H 325.725 -4.96515 3.37035 0
M  V30 3345 H 326.795 -3.55339 3.29943 0
M  V30 3346 N 328.138 -0.959301 -1.25041 0
M  V30 3347 C 329.07 -0.440543 -2.24926 0
M  V30 3348 C 330.083 0.446131 -1.56568 0
M  V30 3349 O 331.272 0.253657 -1.76689 0
M  V30 3350 C 328.372 0.38412 -3.36716 0
M  V30 3351 C 327.545 -0.490658 -4.34639 0
M  V30 3352 C 326.604 0.276587 -5.25473 0
M  V30 3353 O 325.63 -0.326614 -5.68262 0
M  V30 3354 N 326.832 1.56844 -5.5891 0
M  V30 3355 H 329.597 -1.29931 -2.70071 0
M  V30 3356 H 327.158 -0.830181 -1.38995 0
M  V30 3357 H 329.15 0.905228 -3.94446 0
M  V30 3358 H 327.72 1.14377 -2.90924 0
M  V30 3359 H 326.94 -1.19282 -3.7572 0
M  V30 3360 H 328.228 -1.08756 -4.97041 0
M  V30 3361 H 327.626 2.08036 -5.26059 0
M  V30 3362 H 326.183 2.03541 -6.19205 0
M  V30 3363 N 329.616 1.39756 -0.72842 0
M  V30 3364 C 330.526 2.34444 -0.0855374 0
M  V30 3365 C 331.542 1.57976 0.729356 0
M  V30 3366 O 332.718 1.90301 0.659346 0
M  V30 3367 C 329.783 3.36965 0.815798 0
M  V30 3368 C 328.844 4.29299 -0.0105996 0
M  V30 3369 C 328.077 5.26923 0.84781 0
M  V30 3370 O 328.3 5.30859 2.08673 0
M  V30 3371 O 327.234 6.01249 0.279969 0
M  V30 3372 H 331.06 2.91065 -0.866892 0
M  V30 3373 H 328.645 1.4117 -0.48902 0
M  V30 3374 H 330.527 3.99804 1.33171 0
M  V30 3375 H 329.202 2.82739 1.57608 0
M  V30 3376 H 328.109 3.69703 -0.571877 0
M  V30 3377 H 329.442 4.86712 -0.73295 0
M  V30 3378 N 331.094 0.475555 1.50254 0
M  V30 3379 C 332.057 -0.305016 2.27161 0
M  V30 3380 C 333.057 -0.916519 1.32123 0
M  V30 3381 O 334.247 -0.785003 1.5551 0
M  V30 3382 C 331.379 -1.43496 3.09227 0
M  V30 3383 H 332.572 0.369511 2.97615 0
M  V30 3384 H 330.125 0.229747 1.54602 0
M  V30 3385 H 330.86 -2.14441 2.43281 0
M  V30 3386 H 330.645 -1.00223 3.79075 0
M  V30 3387 H 332.135 -1.98548 3.67381 0
M  V30 3388 N 332.573 -1.56217 0.208337 0
M  V30 3389 C 333.503 -2.22694 -0.702116 0
M  V30 3390 C 334.484 -1.19432 -1.2112 0
M  V30 3391 O 335.669 -1.47978 -1.25762 0
M  V30 3392 C 332.799 -2.8966 -1.9161 0
M  V30 3393 C 331.753 -3.9928 -1.5414 0
M  V30 3394 C 331.079 -4.53476 -2.83308 0
M  V30 3395 C 332.379 -5.17012 -0.741339 0
M  V30 3396 H 334.073 -2.99034 -0.147898 0
M  V30 3397 H 331.619 -1.43831 -0.0696951 0
M  V30 3398 H 333.572 -3.34852 -2.55836 0
M  V30 3399 H 332.296 -2.10746 -2.49507 0
M  V30 3400 H 330.955 -3.54799 -0.922668 0
M  V30 3401 H 330.603 -3.71308 -3.39322 0
M  V30 3402 H 330.303 -5.27451 -2.58976 0
M  V30 3403 H 331.827 -5.01378 -3.485 0
M  V30 3404 H 333.241 -5.58667 -1.28699 0
M  V30 3405 H 331.638 -5.97137 -0.595627 0
M  V30 3406 H 332.708 -4.8423 0.254851 0
M  V30 3407 N 334.051 0.0651679 -1.57465 0
M  V30 3408 C 334.961 1.09448 -2.07505 0
M  V30 3409 C 335.977 1.41974 -1.00595 0
M  V30 3410 O 337.153 1.52018 -1.32107 0
M  V30 3411 C 334.218 2.38689 -2.51453 0
M  V30 3412 C 333.279 2.13073 -3.72691 0
M  V30 3413 C 332.512 3.36152 -4.14533 0
M  V30 3414 O 332.735 4.45517 -3.56189 0
M  V30 3415 O 331.669 3.23974 -5.07272 0
M  V30 3416 H 335.495 0.69935 -2.95538 0
M  V30 3417 H 333.08 0.279752 -1.46757 0
M  V30 3418 H 334.962 3.14736 -2.80212 0
M  V30 3419 H 333.637 2.77568 -1.66546 0
M  V30 3420 H 332.544 1.34709 -3.49005 0
M  V30 3421 H 333.877 1.79071 -4.5847 0
M  V30 3422 N 335.529 1.53961 0.336706 0
M  V30 3423 C 336.945 1.44378 0.680241 0
M  V30 3424 C 337.145 0.606034 1.9217 0
M  V30 3425 O 336.201 0.099688 2.52303 0
M  V30 3426 C 337.514 2.87945 0.8665 0
M  V30 3427 C 339.062 2.97763 0.964682 0
M  V30 3428 C 339.537 4.42453 1.18321 0
M  V30 3429 N 341.028 4.46008 1.25025 0
M  V30 3430 C 341.763 5.55102 1.43697 0
M  V30 3431 N 341.259 6.7419 1.59498 0
M  V30 3432 N 343.052 5.42727 1.463 0
M  V30 3433 H 335.203 2.06918 -0.479455 0
M  V30 3434 H 337.466 0.935634 -0.152619 0
M  V30 3435 H 337.172 3.51691 0.0256937 0
M  V30 3436 H 337.046 3.33293 1.76623 0
M  V30 3437 H 339.433 2.34153 1.796 0
M  V30 3438 H 339.514 2.55766 0.041708 0
M  V30 3439 H 339.158 5.06645 0.356788 0
M  V30 3440 H 339.088 4.82048 2.11985 0
M  V30 3441 H 341.579 3.60196 1.14312 0
M  V30 3442 H 341.892 7.53095 1.734 0
M  V30 3443 H 340.237 6.77123 1.56621 0
M  V30 3444 H 343.428 4.48647 1.33543 0
M  V30 3445 H 343.601 6.27806 1.6051 0
M  V30 3446 N 337.007 -0.598083 1.45811 0
M  V30 3447 C 338.284 -1.35777 1.40797 0
M  V30 3448 C 338.664 -2.10935 0.083462 0
M  V30 3449 O 338.012 -2.08505 -0.934763 0
M  V30 3450 C 338.222 -2.29666 2.62783 0
M  V30 3451 C 339.57 -2.91977 3.08277 0
M  V30 3452 O 340.594 -2.39984 2.63223 0
M  V30 3453 O 339.453 -3.86376 3.86491 0
M  V30 3454 H 336.547 -0.609291 0.55919 0
M  V30 3455 H 339.093 -0.620379 1.57954 0
M  V30 3456 H 337.865 -1.73454 3.50756 0
M  V30 3457 H 337.488 -3.1077 2.48008 0
M  V30 3458 N 338.485 -1.33259 -0.841409 0
M  V30 3459 C 339.432 -1.23302 -1.95103 0
M  V30 3460 C 340.402 -0.112204 -1.65721 0
M  V30 3461 O 341.587 -0.290038 -1.88583 0
M  V30 3462 C 338.727 -0.975583 -3.31023 0
M  V30 3463 C 337.84 -2.18243 -3.72819 0
M  V30 3464 C 336.975 -1.85936 -4.97595 0
M  V30 3465 C 336.014 -3.02866 -5.3192 0
M  V30 3466 N 335.151 -2.70565 -6.47873 0
M  V30 3467 H 339.991 -2.18207 -2.02952 0
M  V30 3468 H 337.528 -1.0851 -0.993173 0
M  V30 3469 H 339.486 -0.80677 -4.09325 0
M  V30 3470 H 338.116 -0.0632755 -3.22738 0
M  V30 3471 H 337.168 -2.46107 -2.90061 0
M  V30 3472 H 338.48 -3.05666 -3.94169 0
M  V30 3473 H 337.634 -1.65684 -5.83638 0
M  V30 3474 H 336.373 -0.957452 -4.78209 0
M  V30 3475 H 335.378 -3.23736 -4.44382 0
M  V30 3476 H 336.603 -3.93809 -5.53255 0
M  V30 3477 H 334.549 -1.8293 -6.29978 0
M  V30 3478 H 334.466 -3.51519 -6.69306 0
M  V30 3479 H 335.734 -2.53774 -7.37034 0
M  V30 3480 N 339.963 1.05934 -1.16686 0
M  V30 3481 C 340.926 2.11669 -0.879144 0
M  V30 3482 C 341.926 1.60294 0.127445 0
M  V30 3483 O 343.116 1.7389 -0.103865 0
M  V30 3484 C 340.248 3.39438 -0.315425 0
M  V30 3485 H 341.441 2.38626 -1.81653 0
M  V30 3486 H 338.994 1.22058 -0.976299 0
M  V30 3487 H 339.729 3.18132 0.629468 0
M  V30 3488 H 339.514 3.78034 -1.04079 0
M  V30 3489 H 341.004 4.17391 -0.132189 0
M  V30 3490 N 341.441 0.965919 1.2453 0
M  V30 3491 C 342.404 0.499547 2.2369 0
M  V30 3492 C 343.404 -0.40294 1.5567 0
M  V30 3493 O 344.594 -0.19865 1.73064 0
M  V30 3494 C 341.726 -0.276792 3.39774 0
M  V30 3495 H 342.919 1.37613 2.66463 0
M  V30 3496 H 340.472 0.750324 1.37112 0
M  V30 3497 H 341.207 -1.17055 3.02438 0
M  V30 3498 H 340.992 0.370826 3.90343 0
M  V30 3499 H 342.482 -0.592175 4.1338 0
M  V30 3500 N 342.919 -1.39368 0.735821 0
M  V30 3501 C 344.167 -2.00101 0.283562 0
M  V30 3502 C 344.488 -1.5868 -1.13338 0
M  V30 3503 O 343.758 -0.835423 -1.77193 0
M  V30 3504 H 342.338 -0.740024 0.101851 0
M  V30 3505 H 345 -1.70404 0.945962 0
M  V30 3506 H 344.096 -3.10323 0.332604 0
M  V30 3507 N 344.397 -0.483516 -1.5 0
M  V30 3508 C 345.327 0.293829 -2.31644 0
M  V30 3509 C 346.308 0.978864 -1.39112 0
M  V30 3510 O 347.493 0.973644 -1.68029 0
M  V30 3511 C 344.623 1.36897 -3.19181 0
M  V30 3512 C 343.577 0.804833 -4.20365 0
M  V30 3513 C 342.903 1.9792 -4.96721 0
M  V30 3514 C 344.203 -0.192313 -5.21946 0
M  V30 3515 H 345.897 -0.387616 -2.9688 0
M  V30 3516 H 343.443 -0.187856 -1.42769 0
M  V30 3517 H 345.396 1.92037 -3.751 0
M  V30 3518 H 344.12 2.07936 -2.51853 0
M  V30 3519 H 342.779 0.275319 -3.65565 0
M  V30 3520 H 342.427 2.67686 -4.25856 0
M  V30 3521 H 342.127 1.60789 -5.65173 0
M  V30 3522 H 343.651 2.53526 -5.55479 0
M  V30 3523 H 345.065 0.270333 -5.72662 0
M  V30 3524 H 343.462 -0.478543 -5.98189 0
M  V30 3525 H 344.532 -1.11409 -4.71928 0
M  V30 3526 N 345.875 1.56104 -0.216619 0
M  V30 3527 C 347.124 1.97348 0.416744 0
M  V30 3528 C 347.437 1.10715 1.6125 0
M  V30 3529 O 348.643 1.41836 2.31506 0
M  V30 3530 C 347.099 3.51059 0.792835 0
M  V30 3531 C 346.707 4.46387 -0.379828 0
M  V30 3532 C 348.451 4.01026 1.39208 0
M  V30 3533 C 346.358 5.91397 0.0184223 0
M  V30 3534 H 345.288 0.736942 0.159475 0
M  V30 3535 H 347.939 1.80827 -0.31205 0
M  V30 3536 H 346.321 3.63162 1.57891 0
M  V30 3537 H 347.495 4.46029 -1.15737 0
M  V30 3538 H 345.81 4.06734 -0.891979 0
M  V30 3539 H 348.407 5.0686 1.70286 0
M  V30 3540 H 348.75 3.46587 2.30614 0
M  V30 3541 H 349.283 3.92125 0.669537 0
M  V30 3542 H 346.022 6.49807 -0.862002 0
M  V30 3543 H 345.542 5.94961 0.760384 0
M  V30 3544 H 347.221 6.45455 0.446818 0
M  V30 3545 N 347.353 -0.0568162 1.57498 0
M  V30 3546 C 348.764 -0.606858 1.76562 0
M  V30 3547 C 349.115 -1.77114 0.844094 0
M  V30 3548 O 348.24 -2.16376 0.0318911 0
M  V30 3549 C 348.835 -1.10766 3.20182 0
M  V30 3550 C 347.394 -1.60344 3.40539 0
M  V30 3551 C 346.541 -0.529311 2.72201 0
M  V30 3552 H 349.492 0.169393 1.57793 0
M  V30 3553 H 349.513 -1.97602 3.25167 0
M  V30 3554 H 349.025 -0.26006 3.87228 0
M  V30 3555 H 347.126 -2.47379 2.78629 0
M  V30 3556 H 347.239 -1.67006 4.4905 0
M  V30 3557 H 345.603 -0.977893 2.35179 0
M  V30 3558 H 346.386 0.308352 3.41912 0
M  V30 3559 N 348.832 -1.54138 -0.328536 0
M  V30 3560 C 350.079 -1.72105 -1.06706 0
M  V30 3561 C 350.407 -0.492111 -1.88171 0
M  V30 3562 O 349.662 0.526153 -1.88494 0
M  V30 3563 C 349.961 -2.9457 -2.02393 0
M  V30 3564 C 349.627 -4.29544 -1.37122 0
M  V30 3565 C 348.289 -4.6624 -1.19052 0
M  V30 3566 C 350.641 -5.1333 -0.902331 0
M  V30 3567 C 347.969 -5.84325 -0.527331 0
M  V30 3568 C 350.321 -6.32094 -0.252988 0
M  V30 3569 C 348.985 -6.67473 -0.0600901 0
M  V30 3570 H 348.255 -0.629775 -0.390466 0
M  V30 3571 H 350.902 -1.88372 -0.34473 0
M  V30 3572 H 349.207 -2.72969 -2.81061 0
M  V30 3573 H 350.904 -3.05665 -2.59557 0
M  V30 3574 H 347.494 -4.0067 -1.52188 0
M  V30 3575 H 351.678 -4.855 -1.02974 0
M  V30 3576 H 346.934 -6.103 -0.366634 0
M  V30 3577 H 351.108 -6.96299 0.118366 0
M  V30 3578 H 348.735 -7.58832 0.455828 0
M  V30 3579 N 350.31 0.590341 -1.46126 0
M  V30 3580 C 351.557 1.34882 -1.5104 0
M  V30 3581 C 351.885 1.93849 -0.159021 0
M  V30 3582 O 351.14 1.76544 0.844436 0
M  V30 3583 C 351.439 2.5032 -2.55097 0
M  V30 3584 C 351.105 2.09394 -3.99331 0
M  V30 3585 C 349.767 1.97947 -4.38601 0
M  V30 3586 C 352.119 1.77712 -4.89967 0
M  V30 3587 C 349.447 1.53065 -5.66381 0
M  V30 3588 C 351.799 1.34312 -6.18177 0
M  V30 3589 C 350.463 1.21436 -6.56361 0
M  V30 3590 H 349.733 0.493568 -0.552695 0
M  V30 3591 H 352.38 0.665539 -1.79563 0
M  V30 3592 H 350.685 3.24062 -2.20207 0
M  V30 3593 H 352.382 3.08541 -2.56132 0
M  V30 3594 H 348.972 2.19235 -3.68285 0
M  V30 3595 H 353.156 1.85445 -4.60352 0
M  V30 3596 H 348.412 1.41733 -5.94745 0
M  V30 3597 H 352.586 1.08849 -6.87841 0
M  V30 3598 H 350.213 0.864345 -7.5527 0
M  V30 3599 N 351.788 1.33704 0.83433 0
M  V30 3600 C 352.721 1.18675 1.94914 0
M  V30 3601 C 353.699 0.0811145 1.62398 0
M  V30 3602 O 354.883 0.244186 1.86912 0
M  V30 3603 C 352.01 0.821231 3.28593 0
M  V30 3604 C 351.056 1.93501 3.80079 0
M  V30 3605 S 351.889 3.54671 4.01209 0
M  V30 3606 C 353.045 3.20136 5.37833 0
M  V30 3607 H 353.278 2.13043 2.07364 0
M  V30 3608 H 350.811 1.18598 0.988624 0
M  V30 3609 H 352.769 0.617123 4.05835 0
M  V30 3610 H 351.43 -0.103927 3.13928 0
M  V30 3611 H 350.623 1.63273 4.76821 0
M  V30 3612 H 350.225 2.09601 3.09747 0
M  V30 3613 H 352.517 2.71242 6.20833 0
M  V30 3614 H 353.46 4.15975 5.73036 0
M  V30 3615 H 353.868 2.56613 5.02802 0
M  V30 3616 N 353.266 -1.05314 1.17247 0
M  V30 3617 C 354.512 -1.78557 0.961513 0
M  V30 3618 C 354.845 -1.87419 -0.508697 0
M  V30 3619 O 354.12 -1.37307 -1.37757 0
M  V30 3620 C 354.403 -3.22514 1.60176 0
M  V30 3621 C 354.256 -3.21673 3.14399 0
M  V30 3622 C 355.575 -4.20318 1.30463 0
M  V30 3623 H 352.694 -0.6482 0.350723 0
M  V30 3624 H 355.336 -1.23102 1.44727 0
M  V30 3625 H 353.486 -3.69867 1.18871 0
M  V30 3626 H 355.158 -2.82405 3.64753 0
M  V30 3627 H 353.401 -2.60048 3.47214 0
M  V30 3628 H 354.072 -4.23271 3.54324 0
M  V30 3629 H 356.548 -3.81454 1.66229 0
M  V30 3630 H 355.424 -5.19289 1.77848 0
M  V30 3631 H 355.685 -4.41526 0.22521 0
M  V30 3632 N 354.744 -0.972509 -1.24016 0
M  V30 3633 C 355.707 -0.511403 -2.23422 0
M  V30 3634 C 356.707 0.394679 -1.55881 0
M  V30 3635 O 357.897 0.189469 -1.73167 0
M  V30 3636 C 355.029 0.258769 -3.39916 0
M  V30 3637 H 356.222 -1.39024 -2.6573 0
M  V30 3638 H 353.775 -0.757585 -1.36713 0
M  V30 3639 H 354.51 1.1545 -3.03054 0
M  V30 3640 H 354.295 -0.391522 -3.9014 0
M  V30 3641 H 355.785 0.570244 -4.13688 0
M  V30 3642 N 356.222 1.38976 -0.743202 0
M  V30 3643 C 357.45 2.04636 -0.30525 0
M  V30 3644 C 357.865 1.56044 1.06281 0
M  V30 3645 O 357.222 0.728921 1.67311 0
M  V30 3646 C 357.273 3.60193 -0.307177 0
M  V30 3647 O 356.994 4.06998 -1.62124 0
M  V30 3648 C 358.495 4.4306 0.145928 0
M  V30 3649 H 355.715 0.65788 -0.132041 0
M  V30 3650 H 358.259 1.77866 -1.00915 0
M  V30 3651 H 356.414 3.85835 0.347898 0
M  V30 3652 H 356.828 5.01371 -1.54036 0
M  V30 3653 H 358.302 5.51921 0.0934183 0
M  V30 3654 H 358.779 4.22706 1.19231 0
M  V30 3655 H 359.385 4.22584 -0.479886 0
M  V30 3656 N 357.7 0.491464 1.49741 0
M  V30 3657 C 358.63 -0.28154 2.31796 0
M  V30 3658 C 359.611 -0.971473 1.3963 0
M  V30 3659 O 360.796 -0.964719 1.68543 0
M  V30 3660 C 357.926 -1.35203 3.19902 0
M  V30 3661 C 356.88 -0.782529 4.20786 0
M  V30 3662 C 356.206 -1.95283 4.97764 0
M  V30 3663 C 357.506 0.21999 5.21837 0
M  V30 3664 H 359.2 0.403355 2.96671 0
M  V30 3665 H 356.746 0.195425 1.42668 0
M  V30 3666 H 358.699 -1.90045 3.76113 0
M  V30 3667 H 357.423 -2.06598 2.52953 0
M  V30 3668 H 356.082 -0.255928 3.65706 0
M  V30 3669 H 355.73 -2.65423 4.2727 0
M  V30 3670 H 355.43 -1.57789 5.66018 0
M  V30 3671 H 356.954 -2.50577 5.56816 0
M  V30 3672 H 358.368 -0.23996 5.72798 0
M  V30 3673 H 356.765 0.51026 5.97927 0
M  V30 3674 H 357.835 1.13911 4.7133 0
M  V30 3675 N 359.178 -1.55987 0.224894 0
M  V30 3676 C 360.426 -1.97998 -0.405099 0
M  V30 3677 C 360.747 -1.11387 -1.60056 0
M  V30 3678 O 360.017 -0.191645 -1.9496 0
M  V30 3679 H 358.597 -0.731235 -0.152658 0
M  V30 3680 H 361.259 -1.92279 0.318567 0
M  V30 3681 H 360.355 -3.03463 -0.729167 0
M  V30 3682 N 360.656 0.0484629 -1.57525 0
M  V30 3683 C 361.884 0.755421 -1.92616 0
M  V30 3684 C 362.299 1.69919 -0.822984 0
M  V30 3685 O 361.656 1.81378 0.202085 0
M  V30 3686 C 361.707 1.52915 -3.27566 0
M  V30 3687 O 361.428 0.62329 -4.33644 0
M  V30 3688 C 362.929 2.33502 -3.76818 0
M  V30 3689 H 360.149 0.213465 -0.63614 0
M  V30 3690 H 362.693 0.0117698 -2.04497 0
M  V30 3691 H 360.848 2.22486 -3.17142 0
M  V30 3692 H 361.262 1.16383 -5.11425 0
M  V30 3693 H 362.736 2.83214 -4.73808 0
M  V30 3694 H 363.213 3.14068 -3.07014 0
M  V30 3695 H 363.819 1.69043 -3.90262 0
M  V30 3696 N 362.134 1.5431 0.320358 0
M  V30 3697 C 363.362 1.76636 1.07738 0
M  V30 3698 C 363.777 0.51649 1.81598 0
M  V30 3699 O 363.134 -0.512942 1.75143 0
M  V30 3700 C 363.185 2.96158 2.07299 0
M  V30 3701 O 362.906 4.16313 1.36438 0
M  V30 3702 C 364.407 3.3072 2.95193 0
M  V30 3703 H 361.627 0.589597 0.320339 0
M  V30 3704 H 364.171 2.01207 0.36551 0
M  V30 3705 H 362.326 2.73851 2.74016 0
M  V30 3706 H 362.74 4.83565 2.03138 0
M  V30 3707 H 364.214 4.17643 3.60941 0
M  V30 3708 H 364.691 2.48026 3.62463 0
M  V30 3709 H 365.297 3.55117 2.34034 0
M  V30 3710 N 363.613 -0.582584 1.46437 0
M  V30 3711 C 364.841 -1.36682 1.55324 0
M  V30 3712 C 365.256 -1.87796 0.194409 0
M  V30 3713 O 364.613 -1.63623 -0.808318 0
M  V30 3714 C 364.664 -2.55426 2.55812 0
M  V30 3715 O 364.385 -2.0643 3.86417 0
M  V30 3716 C 365.886 -3.47976 2.74641 0
M  V30 3717 H 363.106 -0.417545 0.525259 0
M  V30 3718 H 365.65 -0.708219 1.91845 0
M  V30 3719 H 363.805 -3.17275 2.22295 0
M  V30 3720 H 364.219 -2.83762 4.41111 0
M  V30 3721 H 365.693 -4.27775 3.48874 0
M  V30 3722 H 366.17 -3.99919 1.81553 0
M  V30 3723 H 366.776 -2.91962 3.09255 0
M  V30 3724 N 365.091 -1.34144 -0.827227 0
M  V30 3725 C 366.331 -1.27603 -1.59677 0
M  V30 3726 C 366.695 0.153035 -1.91389 0
M  V30 3727 O 367.896 0.342566 -2.66608 0
M  V30 3728 C 366.167 -2.13784 -2.86411 0
M  V30 3729 S 367.726 -2.24552 -3.76991 0
M  V30 3730 H 364.544 -0.453789 -0.547354 0
M  V30 3731 H 367.146 -1.69309 -0.977479 0
M  V30 3732 H 365.85 -3.16627 -2.61104 0
M  V30 3733 H 365.381 -1.72959 -3.5334 0
M  V30 3734 H 367.396 -1.41514 -4.75593 0
M  V30 3735 N 366.569 1.04691 -1.17803 0
M  V30 3736 C 367.809 1.79352 -0.980423 0
M  V30 3737 C 368.173 1.85853 0.481958 0
M  V30 3738 O 369.374 2.56656 0.798809 0
M  V30 3739 C 367.645 3.19088 -1.6099 0
M  V30 3740 S 369.204 4.10164 -1.55918 0
M  V30 3741 H 366.022 0.617631 -0.352211 0
M  V30 3742 H 368.624 1.25575 -1.49837 0
M  V30 3743 H 367.328 3.11962 -2.66661 0
M  V30 3744 H 366.859 3.77941 -1.09197 0
M  V30 3745 H 368.874 4.92907 -0.570685 0
M  V30 3746 N 368.047 0.979072 1.23499 0
M  V30 3747 C 369.272 0.664845 1.96455 0
M  V30 3748 C 369.697 -0.761287 1.72006 0
M  V30 3749 O 369.055 -1.51837 0.990713 0
M  V30 3750 C 369.103 0.959479 3.47601 0
M  V30 3751 O 368.207 0.0508168 4.12369 0
M  V30 3752 H 367.548 0.250185 0.615064 0
M  V30 3753 H 370.078 1.31231 1.5697 0
M  V30 3754 H 370.088 0.895642 3.98048 0
M  V30 3755 H 368.763 1.99876 3.64723 0
M  V30 3756 H 367.34 0.16895 3.72517 0
M  V30 3757 N 369.525 -1.3858 0.750561 0
M  V30 3758 C 370.772 -2.00184 0.305373 0
M  V30 3759 C 371.1 -1.59575 -1.11203 0
M  V30 3760 O 370.355 -0.823236 -1.77542 0
M  V30 3761 C 370.654 -3.55455 0.372373 0
M  V30 3762 C 370.32 -4.15765 1.745 0
M  V30 3763 C 368.982 -4.31951 2.12065 0
M  V30 3764 C 371.334 -4.49067 2.64553 0
M  V30 3765 C 368.662 -4.78734 3.39162 0
M  V30 3766 C 371.014 -4.97265 3.91038 0
M  V30 3767 C 369.678 -5.11658 4.28676 0
M  V30 3768 H 368.948 -0.732526 0.111744 0
M  V30 3769 H 371.595 -1.65673 0.960451 0
M  V30 3770 H 369.9 -3.90084 -0.366272 0
M  V30 3771 H 371.597 -4.00999 0.00953918 0
M  V30 3772 H 368.187 -4.03579 1.44297 0
M  V30 3773 H 372.371 -4.36166 2.36796 0
M  V30 3774 H 367.627 -4.88062 3.68246 0
M  V30 3775 H 371.801 -5.22003 4.60962 0
M  V30 3776 H 369.428 -5.47668 5.27222 0
M  V30 3777 N 371.003 -0.499398 -1.49478 0
M  V30 3778 C 372.28 0.108629 -1.95298 0
M  V30 3779 C 372.66 1.54282 -1.44084 0
M  V30 3780 O 372.008 2.18944 -0.653908 0
M  V30 3781 C 372.218 0.0229111 -3.48992 0
M  V30 3782 C 373.566 0.197643 -4.2414 0
M  V30 3783 O 374.59 0.0981735 -3.56065 0
M  V30 3784 O 373.449 0.401669 -5.45022 0
M  V30 3785 H 370.543 0.096181 -0.821388 0
M  V30 3786 H 373.089 -0.561822 -1.6013 0
M  V30 3787 H 371.861 -0.977321 -3.78899 0
M  V30 3788 H 371.484 0.733579 -3.90774 0
M  V30 3789 N 372.481 1.55866 -0.233164 0
M  V30 3790 C 373.429 2.22176 0.68851 0
M  V30 3791 C 374.423 1.20487 1.19076 0
M  V30 3792 O 375.629 1.38536 1.14925 0
M  V30 3793 H 372.004 0.712511 0.240483 0
M  V30 3794 H 373.975 2.98212 0.105935 0
M  V30 3795 C 372.724 2.92446 1.88071 0
M  V30 3796 H 372.047 3.70458 1.50337 0
M  V30 3797 H 373.487 3.42226 2.50314 0
M  V30 3798 C 371.946 1.95555 2.74335 0
M  V30 3799 O 372.476 1.47986 3.73447 0
M  V30 3800 N 370.682 1.62953 2.40613 0
M  V30 3801 H 370.229 2.01831 1.60069 0
M  V30 3802 H 370.187 0.983886 2.98609 0
M  V30 3803 N 373.959 -0.0401083 1.57549 0
M  V30 3804 C 374.889 -1.04384 2.08869 0
M  V30 3805 C 375.87 -1.38407 0.988817 0
M  V30 3806 O 377.055 -1.47483 1.26342 0
M  V30 3807 C 374.185 -2.34808 2.55895 0
M  V30 3808 C 373.139 -2.15057 3.70047 0
M  V30 3809 C 372.465 -3.51145 4.03239 0
M  V30 3810 C 373.765 -1.54576 4.98902 0
M  V30 3811 H 375.459 -0.616666 2.92981 0
M  V30 3812 H 373.005 -0.295184 1.40942 0
M  V30 3813 H 374.958 -3.05346 2.90417 0
M  V30 3814 H 373.682 -2.79565 1.68853 0
M  V30 3815 H 372.341 -1.46954 3.35857 0
M  V30 3816 H 371.989 -3.93529 3.13279 0
M  V30 3817 H 371.689 -3.38758 4.80122 0
M  V30 3818 H 373.213 -4.23062 4.40285 0
M  V30 3819 H 374.627 -2.15017 5.31451 0
M  V30 3820 H 373.024 -1.52796 5.80322 0
M  V30 3821 H 374.094 -0.51039 4.82206 0
M  V30 3822 N 375.437 -1.54477 -0.31217 0
M  V30 3823 C 376.367 -1.87652 -1.38957 0
M  V30 3824 C 377.348 -0.734358 -1.53431 0
M  V30 3825 O 378.533 -0.98911 -1.67123 0
M  V30 3826 C 375.663 -2.11396 -2.75552 0
M  V30 3827 C 374.617 -3.27243 -2.75855 0
M  V30 3828 C 373.943 -3.36382 -4.15633 0
M  V30 3829 C 375.243 -4.64622 -2.38587 0
M  V30 3830 H 376.937 -2.77887 -1.11442 0
M  V30 3831 H 374.483 -1.33707 -0.534655 0
M  V30 3832 H 376.436 -2.33189 -3.51 0
M  V30 3833 H 375.16 -1.17921 -3.04569 0
M  V30 3834 H 373.819 -3.05356 -2.02863 0
M  V30 3835 H 373.467 -2.40445 -4.41809 0
M  V30 3836 H 373.167 -4.14249 -4.1674 0
M  V30 3837 H 374.691 -3.60422 -4.92877 0
M  V30 3838 H 376.105 -4.86219 -3.03749 0
M  V30 3839 H 374.502 -5.45121 -2.50925 0
M  V30 3840 H 375.572 -4.66097 -1.33723 0
M  V30 3841 N 376.915 0.57481 -1.46744 0
M  V30 3842 C 377.825 1.711 -1.60505 0
M  V30 3843 C 378.841 1.67008 -0.488307 0
M  V30 3844 O 380.017 1.86774 -0.753495 0
M  V30 3845 C 377.082 3.07608 -1.59932 0
M  V30 3846 C 376.143 3.22904 -2.82898 0
M  V30 3847 C 375.376 4.529 -2.82343 0
M  V30 3848 O 375.599 5.37278 -1.91542 0
M  V30 3849 O 374.533 4.71611 -3.73987 0
M  V30 3850 H 378.359 1.62436 -2.56609 0
M  V30 3851 H 375.944 0.742779 -1.29627 0
M  V30 3852 H 377.826 3.88877 -1.62336 0
M  V30 3853 H 376.501 3.16692 -0.669898 0
M  V30 3854 H 375.408 2.41099 -2.86046 0
M  V30 3855 H 376.741 3.18715 -3.75076 0
M  V30 3856 N 378.394 1.34581 0.820102 0
M  V30 3857 C 379.64 1.27285 1.57881 0
M  V30 3858 C 379.973 -0.156137 1.93571 0
M  V30 3859 O 379.248 -1.10222 1.60254 0
M  V30 3860 C 379.531 2.16639 2.87645 0
M  V30 3861 C 379.384 3.68088 2.58517 0
M  V30 3862 C 380.703 2.05378 3.8924 0
M  V30 3863 H 377.822 0.463714 0.572833 0
M  V30 3864 H 380.464 1.64859 0.944539 0
M  V30 3865 H 378.614 1.84725 3.41773 0
M  V30 3866 H 380.286 4.10382 2.10676 0
M  V30 3867 H 378.529 3.89038 1.91917 0
M  V30 3868 H 379.2 4.2598 3.51063 0
M  V30 3869 H 381.676 2.33404 3.44473 0
M  V30 3870 H 380.552 2.7012 4.77835 0
M  V30 3871 H 380.813 1.0316 4.29896 0
M  V30 3872 N 379.872 -1.04064 1.18357 0
M  V30 3873 C 381.12 -1.76915 0.977013 0
M  V30 3874 C 381.441 -1.88624 -0.494577 0
M  V30 3875 O 380.711 -1.41125 -1.3587 0
M  V30 3876 H 379.291 -0.65535 0.358504 0
M  V30 3877 H 381.953 -1.25592 1.49039 0
M  V30 3878 H 381.049 -2.78178 1.41504 0
M  V30 3879 N 381.35 -0.985608 -1.22978 0
M  V30 3880 C 382.761 -0.693593 -1.73338 0
M  V30 3881 C 383.112 0.789935 -1.79595 0
M  V30 3882 O 382.237 1.61771 -1.43733 0
M  V30 3883 C 382.832 -1.25235 -3.14804 0
M  V30 3884 C 381.391 -1.00987 -3.626 0
M  V30 3885 C 380.538 -1.37695 -2.40698 0
M  V30 3886 H 383.489 -1.15884 -1.08428 0
M  V30 3887 H 383.51 -0.627329 -3.75293 0
M  V30 3888 H 383.022 -2.33209 -3.10218 0
M  V30 3889 H 381.123 0.0535565 -3.72562 0
M  V30 3890 H 381.236 -1.66812 -4.49122 0
M  V30 3891 H 379.6 -0.795459 -2.4196 0
M  V30 3892 H 380.383 -2.46657 -2.38779 0
M  V30 3893 N 382.828 1.3818 -0.7579 0
M  V30 3894 C 384.077 1.99261 -0.312744 0
M  V30 3895 C 384.39 1.60846 1.11301 0
M  V30 3896 O 385.596 2.14929 1.65885 0
M  V30 3897 C 384.052 3.56294 -0.50821 0
M  V30 3898 C 383.66 4.03657 -1.94333 0
M  V30 3899 C 385.404 4.24313 -0.125982 0
M  V30 3900 C 383.311 5.53347 -2.08712 0
M  V30 3901 H 382.241 0.745456 -0.113185 0
M  V30 3902 H 384.892 1.57889 -0.935056 0
M  V30 3903 H 383.274 3.95575 0.183353 0
M  V30 3904 H 384.448 3.75655 -2.66871 0
M  V30 3905 H 382.763 3.48376 -2.28086 0
M  V30 3906 H 385.36 5.34279 -0.212125 0
M  V30 3907 H 385.703 4.05962 0.921964 0
M  V30 3908 H 386.236 3.90285 -0.769563 0
M  V30 3909 H 382.975 5.76607 -3.11777 0
M  V30 3910 H 382.495 5.83078 -1.4064 0
M  V30 3911 H 384.174 6.19111 -1.87912 0
M  V30 3912 N 384.306 0.507319 1.49211 0
M  V30 3913 C 385.546 -0.0332372 2.04373 0
M  V30 3914 C 385.91 -1.33694 1.37804 0
M  V30 3915 O 387.111 -1.96213 1.83722 0
M  V30 3916 C 385.382 -0.17599 3.56966 0
M  V30 3917 S 386.941 -0.669882 4.33657 0
M  V30 3918 H 383.759 0.00123603 0.710999 0
M  V30 3919 H 386.361 0.682725 1.83191 0
M  V30 3920 H 385.065 0.778053 4.02957 0
M  V30 3921 H 384.596 -0.917005 3.82563 0
M  V30 3922 H 386.611 -1.93806 4.56786 0
M  V30 3923 N 385.784 -1.5574 0.241426 0
M  V30 3924 C 386.732 -2.22538 -0.676718 0
M  V30 3925 C 387.726 -1.21117 -1.18436 0
M  V30 3926 O 388.932 -1.39144 -1.14188 0
M  V30 3927 H 385.307 -0.713776 -0.236701 0
M  V30 3928 H 387.278 -2.98264 -0.0901187 0
M  V30 3929 C 386.027 -2.93439 -1.86518 0
M  V30 3930 H 385.35 -3.7125 -1.4837 0
M  V30 3931 H 386.79 -3.43549 -2.48495 0
M  V30 3932 C 385.249 -1.97008 -2.73294 0
M  V30 3933 O 385.779 -1.49965 -3.72657 0
M  V30 3934 N 383.985 -1.64227 -2.39745 0
M  V30 3935 H 383.532 -2.02677 -1.58996 0
M  V30 3936 H 383.49 -0.999708 -2.98083 0
M  V30 3937 N 387.262 0.0317525 -1.57568 0
M  V30 3938 C 388.209 1.0332 -2.06382 0
M  V30 3939 C 389.179 1.36082 -0.952414 0
M  V30 3940 O 390.364 1.46466 -1.2228 0
M  V30 3941 C 387.504 2.32989 -2.54578 0
M  V30 3942 C 386.617 2.0641 -3.79498 0
M  V30 3943 C 385.752 3.2993 -4.16317 0
M  V30 3944 C 384.791 2.98893 -5.34162 0
M  V30 3945 N 383.928 4.14857 -5.66426 0
M  V30 3946 H 388.768 0.609982 -2.9169 0
M  V30 3947 H 386.305 0.289573 -1.44222 0
M  V30 3948 H 388.263 3.0875 -2.80587 0
M  V30 3949 H 386.893 2.73039 -1.7219 0
M  V30 3950 H 385.945 1.21158 -3.6059 0
M  V30 3951 H 387.257 1.79513 -4.65378 0
M  V30 3952 H 386.411 4.1406 -4.4344 0
M  V30 3953 H 385.15 3.59938 -3.29083 0
M  V30 3954 H 384.155 2.13164 -5.06795 0
M  V30 3955 H 385.38 2.70165 -6.23047 0
M  V30 3956 H 383.326 4.44821 -4.82151 0
M  V30 3957 H 383.243 3.91374 -6.4681 0
M  V30 3958 H 384.511 4.99868 -5.98124 0
M  V30 3959 N 388.74 1.54641 0.303973 0
M  V30 3960 C 389.65 1.88439 1.39743 0
M  V30 3961 C 390.666 0.778239 1.55626 0
M  V30 3962 O 391.842 1.07442 1.70347 0
M  V30 3963 C 388.907 2.12212 2.74166 0
M  V30 3964 C 387.968 3.35936 2.67293 0
M  V30 3965 C 387.201 3.58566 3.95305 0
M  V30 3966 O 387.424 2.84263 4.9452 0
M  V30 3967 O 386.358 4.52078 3.97378 0
M  V30 3968 H 390.184 2.81458 1.14083 0
M  V30 3969 H 387.769 1.40793 0.499768 0
M  V30 3970 H 389.651 2.29067 3.53704 0
M  V30 3971 H 388.326 1.22379 2.99675 0
M  V30 3972 H 387.233 3.24448 1.86237 0
M  V30 3973 H 388.566 4.2589 2.46736 0
M  V30 3974 N 390.218 -0.567019 1.47046 0
M  V30 3975 C 391.495 -1.3276 1.43646 0
M  V30 3976 C 391.875 -2.1071 0.128186 0
M  V30 3977 O 391.223 -2.10441 -0.890326 0
M  V30 3978 C 391.433 -2.2404 2.67595 0
M  V30 3979 C 392.781 -2.85372 3.14401 0
M  V30 3980 O 393.805 -2.34346 2.68254 0
M  V30 3981 O 392.664 -3.78091 3.946 0
M  V30 3982 H 389.758 -0.597293 0.571988 0
M  V30 3983 H 392.304 -0.586735 1.59234 0
M  V30 3984 H 391.076 -1.65975 3.54356 0
M  V30 3985 H 390.699 -3.05439 2.54544 0
M  V30 3986 N 391.696 -1.35014 -0.812953 0
M  V30 3987 C 392.945 -1.27269 -1.56479 0
M  V30 3988 C 393.258 0.152771 -1.95002 0
M  V30 3989 O 394.464 0.352451 -2.69203 0
M  V30 3990 C 392.92 -2.23159 -2.82362 0
M  V30 3991 C 392.528 -3.71016 -2.511 0
M  V30 3992 C 394.272 -2.24342 -3.60376 0
M  V30 3993 C 392.179 -4.58746 -3.73237 0
M  V30 3994 H 391.109 -0.472829 -0.587324 0
M  V30 3995 H 393.76 -1.6024 -0.894171 0
M  V30 3996 H 392.142 -1.83151 -3.51101 0
M  V30 3997 H 393.316 -4.1962 -1.90409 0
M  V30 3998 H 391.631 -3.72378 -1.86343 0
M  V30 3999 H 394.228 -2.87107 -4.51081 0
M  V30 4000 H 394.571 -1.24542 -3.97234 0
M  V30 4001 H 395.104 -2.62846 -2.98591 0
M  V30 4002 H 391.843 -5.59521 -3.41492 0
M  V30 4003 H 391.363 -4.14871 -4.33176 0
M  V30 4004 H 393.042 -4.73852 -4.40537 0
M  V30 4005 N 393.175 1.03435 -1.18907 0
M  V30 4006 C 394.421 1.7713 -0.99982 0
M  V30 4007 C 394.776 1.86695 0.465049 0
M  V30 4008 O 394.069 1.36866 1.34083 0
M  V30 4009 C 394.263 3.19792 -1.59586 0
M  V30 4010 C 394.092 3.24134 -3.11717 0
M  V30 4011 C 392.862 3.32398 -3.80578 0
M  V30 4012 C 395.06 3.11625 -4.09138 0
M  V30 4013 N 393.042 3.26055 -5.20155 0
M  V30 4014 C 394.413 3.12855 -5.35277 0
M  V30 4015 C 396.468 2.95713 -4.00572 0
M  V30 4016 C 395.171 2.99805 -6.53842 0
M  V30 4017 C 397.197 2.84011 -5.1874 0
M  V30 4018 C 396.559 2.8589 -6.43775 0
M  V30 4019 H 392.658 0.659683 -0.419931 0
M  V30 4020 H 395.242 1.2317 -1.50789 0
M  V30 4021 H 393.413 3.72085 -1.11389 0
M  V30 4022 H 395.145 3.81819 -1.3415 0
M  V30 4023 H 391.9 3.38392 -3.31342 0
M  V30 4024 H 392.324 3.26307 -5.93172 0
M  V30 4025 H 396.966 2.93086 -3.0473 0
M  V30 4026 H 394.684 3.01184 -7.49876 0
M  V30 4027 H 398.27 2.72744 -5.13909 0
M  V30 4028 H 397.15 2.76931 -7.33675 0
M  V30 4029 N 394.653 0.992116 1.22453 0
M  V30 4030 C 395.583 0.561677 2.26644 0
M  V30 4031 C 396.564 -0.411055 1.65059 0
M  V30 4032 O 397.749 -0.301861 1.9184 0
M  V30 4033 C 394.879 -0.125247 3.47074 0
M  V30 4034 C 393.833 0.765948 4.21091 0
M  V30 4035 C 393.159 -0.0538484 5.34673 0
M  V30 4036 C 394.459 2.06242 4.79856 0
M  V30 4037 H 396.153 1.43259 2.62902 0
M  V30 4038 H 393.699 0.690283 1.26377 0
M  V30 4039 H 395.652 -0.437764 4.1912 0
M  V30 4040 H 394.376 -1.03069 3.0991 0
M  V30 4041 H 393.035 1.0621 3.50878 0
M  V30 4042 H 392.683 -0.960188 4.9375 0
M  V30 4043 H 392.383 0.539415 5.85119 0
M  V30 4044 H 393.907 -0.360477 6.09535 0
M  V30 4045 H 395.321 1.8139 5.43848 0
M  V30 4046 H 393.718 2.60444 5.40638 0
M  V30 4047 H 394.788 2.74167 3.99951 0
M  V30 4048 N 396.131 -1.37776 0.765217 0
M  V30 4049 C 397.081 -2.2768 0.12075 0
M  V30 4050 C 398.065 -1.45778 -0.680988 0
M  V30 4051 O 399.257 -1.684 -0.545033 0
M  V30 4052 C 396.386 -3.34722 -0.762626 0
M  V30 4053 C 395.472 -4.24074 0.0465881 0
M  V30 4054 N 395.863 -4.93939 1.08892 0
M  V30 4055 C 394.161 -4.45643 -0.178418 0
M  V30 4056 C 394.862 -5.59845 1.57951 0
M  V30 4057 N 393.838 -5.36218 0.892797 0
M  V30 4058 H 397.64 -2.79166 0.918889 0
M  V30 4059 H 395.154 -1.50816 0.602353 0
M  V30 4060 H 397.151 -3.98031 -1.24005 0
M  V30 4061 H 395.811 -2.84793 -1.55959 0
M  V30 4062 H 396.822 -4.96572 1.47095 0
M  V30 4063 H 393.499 -4.06599 -0.9478 0
M  V30 4064 H 394.889 -6.25703 2.44838 0
M  V30 4065 N 397.609 -0.515225 -1.4894 0
M  V30 4066 C 398.855 0.0242508 -2.02785 0
M  V30 4067 C 399.188 1.35323 -1.39289 0
M  V30 4068 O 398.463 1.87041 -0.533469 0
M  V30 4069 C 398.746 0.16184 -3.59736 0
M  V30 4070 C 398.599 -1.19127 -4.33738 0
M  V30 4071 C 399.918 0.895719 -4.30888 0
M  V30 4072 H 397.037 0.00733914 -0.736963 0
M  V30 4073 H 399.679 -0.669395 -1.77818 0
M  V30 4074 H 397.829 0.752624 -3.8114 0
M  V30 4075 H 399.501 -1.82202 -4.23792 0
M  V30 4076 H 397.744 -1.77695 -3.95736 0
M  V30 4077 H 398.415 -1.04815 -5.41957 0
M  V30 4078 H 400.891 0.394528 -4.14225 0
M  V30 4079 H 399.767 0.960859 -5.40425 0
M  V30 4080 H 400.028 1.9427 -3.97129 0
M  V30 4081 N 399.087 1.5561 -0.249682 0
M  V30 4082 C 400.364 1.90932 0.424761 0
M  V30 4083 C 400.744 1.17078 1.75658 0
M  V30 4084 O 400.092 0.289176 2.26663 0
M  V30 4085 C 400.302 3.43975 0.590109 0
M  V30 4086 C 401.65 4.15281 0.884714 0
M  V30 4087 O 402.674 3.49729 0.67587 0
M  V30 4088 O 401.533 5.31236 1.28259 0
M  V30 4089 H 398.627 0.794815 0.228468 0
M  V30 4090 H 401.173 1.67135 -0.293954 0
M  V30 4091 H 399.945 3.89748 -0.34818 0
M  V30 4092 H 399.568 3.73644 1.35926 0
M  V30 4093 N 400.565 -0.0233959 1.57583 0
M  V30 4094 C 401.528 -1.00693 2.05897 0
M  V30 4095 C 402.528 -1.28693 0.964092 0
M  V30 4096 O 403.718 -1.23602 1.22753 0
M  V30 4097 C 400.85 -2.33825 2.4807 0
M  V30 4098 H 402.043 -0.589476 2.9405 0
M  V30 4099 H 399.596 -0.270354 1.53944 0
M  V30 4100 H 400.331 -2.80307 1.6309 0
M  V30 4101 H 400.116 -2.1483 3.2801 0
M  V30 4102 H 401.606 -3.04426 2.85857 0
M  V30 4103 N 402.043 -1.548 -0.295768 0
M  V30 4104 C 403.006 -1.85363 -1.34808 0
M  V30 4105 C 404.006 -0.726817 -1.43436 0
M  V30 4106 O 405.196 -0.995088 -1.42981 0
M  V30 4107 C 402.328 -2.03859 -2.73229 0
M  V30 4108 H 403.521 -2.7941 -1.08949 0
M  V30 4109 H 401.074 -1.46942 -0.532702 0
M  V30 4110 H 401.809 -1.12117 -3.04303 0
M  V30 4111 H 401.594 -2.8588 -2.68356 0
M  V30 4112 H 403.084 -2.28857 -3.49305 0
M  V30 4113 N 403.521 0.559213 -1.47345 0
M  V30 4114 C 404.751 1.33999 -1.57251 0
M  V30 4115 C 405.159 1.87905 -0.220978 0
M  V30 4116 O 404.502 1.65577 0.795617 0
M  V30 4117 C 404.564 2.54798 -2.53611 0
M  V30 4118 C 404.228 2.22192 -3.99349 0
M  V30 4119 C 405.225 1.79607 -4.87891 0
M  V30 4120 C 402.91 2.33613 -4.44669 0
M  V30 4121 C 404.904 1.48868 -6.19772 0
M  V30 4122 C 402.591 2.02487 -5.76578 0
M  V30 4123 C 403.589 1.60183 -6.63951 0
M  V30 4124 O 403.277 1.29451 -7.93409 0
M  V30 4125 H 403.009 0.414858 -0.533731 0
M  V30 4126 H 405.563 0.684465 -1.9366 0
M  V30 4127 H 403.793 3.23235 -2.12265 0
M  V30 4128 H 405.482 3.16873 -2.53666 0
M  V30 4129 H 406.248 1.70278 -4.54126 0
M  V30 4130 H 402.127 2.65501 -3.76869 0
M  V30 4131 H 405.671 1.15775 -6.87926 0
M  V30 4132 H 401.568 2.11448 -6.09885 0
M  V30 4133 H 402.336 1.43098 -8.05894 0
M  V30 4134 N 404.999 1.35443 0.805782 0
M  V30 4135 C 405.962 1.28301 1.89925 0
M  V30 4136 C 406.962 0.194285 1.59622 0
M  V30 4137 O 408.152 0.448036 1.6834 0
M  V30 4138 C 405.284 0.984997 3.2636 0
M  V30 4139 H 406.477 2.2553 1.97677 0
M  V30 4140 H 404.03 1.19979 1.00173 0
M  V30 4141 H 404.765 0.016603 3.24296 0
M  V30 4142 H 404.55 1.77269 3.4974 0
M  V30 4143 H 406.04 0.960651 4.064 0
M  V30 4144 N 406.477 -1.02803 1.19454 0
M  V30 4145 C 407.725 -1.75869 0.995722 0
M  V30 4146 C 408.046 -1.89138 -0.474543 0
M  V30 4147 O 407.316 -1.42558 -1.34366 0
M  V30 4148 H 405.896 -0.651511 0.365435 0
M  V30 4149 H 408.558 -1.24004 1.50363 0
M  V30 4150 H 407.654 -2.76661 1.44447 0
M  V30 4151 N 407.956 -0.998596 -1.21925 0
M  V30 4152 C 409.181 -0.696015 -1.95372 0
M  V30 4153 C 409.606 0.733826 -1.73195 0
M  V30 4154 O 408.964 1.50242 -1.01474 0
M  V30 4155 C 409.012 -1.01466 -3.4603 0
M  V30 4156 O 408.116 -0.116415 -4.12236 0
M  V30 4157 H 407.457 -0.259938 -0.611006 0
M  V30 4158 H 409.987 -1.33711 -1.54863 0
M  V30 4159 H 409.997 -0.958855 -3.96573 0
M  V30 4160 H 408.672 -2.05653 -3.61497 0
M  V30 4161 H 407.249 -0.228193 -3.72201 0
M  V30 4162 N 409.434 1.37368 -0.772513 0
M  V30 4163 C 410.397 2.28601 -0.165541 0
M  V30 4164 C 411.397 1.48062 0.627238 0
M  V30 4165 O 412.587 1.68268 0.450715 0
M  V30 4166 C 409.719 3.32023 0.772897 0
M  V30 4167 H 410.912 2.83787 -0.969787 0
M  V30 4168 H 408.465 1.46647 -0.540775 0
M  V30 4169 H 409.2 2.81962 1.60212 0
M  V30 4170 H 408.985 3.91555 0.206585 0
M  V30 4171 H 410.475 4.00197 1.19298 0
M  V30 4172 N 410.912 0.523116 1.48665 0
M  V30 4173 C 412.159 -0.0134763 2.02496 0
M  V30 4174 C 412.487 -1.3493 1.40086 0
M  V30 4175 O 411.742 -1.88286 0.533567 0
M  V30 4176 C 412.041 -0.191671 3.56886 0
M  V30 4177 C 411.707 1.06893 4.38046 0
M  V30 4178 C 410.369 1.41443 4.59943 0
M  V30 4179 C 412.721 1.90584 4.85106 0
M  V30 4180 C 410.049 2.59594 5.26144 0
M  V30 4181 C 412.401 3.07907 5.52609 0
M  V30 4182 C 411.065 3.42811 5.72745 0
M  V30 4183 H 410.335 -0.00493133 0.740984 0
M  V30 4184 H 412.982 0.687751 1.78724 0
M  V30 4185 H 411.287 -0.97561 3.79459 0
M  V30 4186 H 412.984 -0.621659 3.96152 0
M  V30 4187 H 409.574 0.789848 4.21259 0
M  V30 4188 H 413.758 1.65203 4.67997 0
M  V30 4189 H 409.014 2.86847 5.39934 0
M  V30 4190 H 413.188 3.73066 5.88043 0
M  V30 4191 H 410.815 4.34462 6.23816 0
M  V30 4192 N 412.39 -1.55475 0.257931 0
M  V30 4193 C 413.639 -1.98383 -0.364275 0
M  V30 4194 C 413.952 -1.14952 -1.58258 0
M  V30 4195 O 415.158 -1.47924 -2.27664 0
M  V30 4196 C 413.614 -3.53037 -0.699479 0
M  V30 4197 C 413.222 -4.45223 0.498046 0
M  V30 4198 C 414.966 -4.04575 -1.28526 0
M  V30 4199 C 412.873 -5.91238 0.138383 0
M  V30 4200 H 411.803 -0.740911 -0.13988 0
M  V30 4201 H 414.454 -1.79936 0.359883 0
M  V30 4202 H 412.836 -3.6722 -1.48207 0
M  V30 4203 H 414.01 -4.42803 1.27522 0
M  V30 4204 H 412.325 -4.04226 0.999503 0
M  V30 4205 H 414.922 -5.11196 -1.56788 0
M  V30 4206 H 415.265 -3.5258 -2.21344 0
M  V30 4207 H 415.798 -3.93762 -0.565337 0
M  V30 4208 H 412.537 -6.47294 1.03398 0
M  V30 4209 H 412.057 -5.96768 -0.602374 0
M  V30 4210 H 413.736 -6.46413 -0.27553 0
M  V30 4211 N 413.868 0.0150385 -1.57593 0
M  V30 4212 C 415.108 0.70768 -1.91758 0
M  V30 4213 C 415.472 1.71764 -0.857974 0
M  V30 4214 O 416.673 2.45956 -1.0844 0
M  V30 4215 C 414.944 1.34736 -3.3103 0
M  V30 4216 S 416.503 2.06721 -3.87056 0
M  V30 4217 H 413.321 0.234119 -0.671349 0
M  V30 4218 H 415.923 -0.0380373 -1.95463 0
M  V30 4219 H 414.627 0.59926 -4.06001 0
M  V30 4220 H 414.158 2.13133 -3.30663 0
M  V30 4221 H 416.173 3.34047 -3.66915 0
M  V30 4222 N 415.346 1.54954 0.287554 0
M  V30 4223 C 416.757 1.65732 0.859634 0
M  V30 4224 C 417.108 0.574767 1.87592 0
M  V30 4225 O 416.233 -0.286299 2.14498 0
M  V30 4226 C 416.828 3.00438 1.56597 0
M  V30 4227 C 415.387 3.13292 2.08627 0
M  V30 4228 C 414.534 2.61473 0.923416 0
M  V30 4229 H 417.485 1.5857 0.0642338 0
M  V30 4230 H 417.506 2.92613 2.43224 0
M  V30 4231 H 417.018 3.79207 0.826053 0
M  V30 4232 H 415.119 2.39268 2.85625 0
M  V30 4233 H 415.232 4.19647 2.31157 0
M  V30 4234 H 413.596 2.18264 1.31275 0
M  V30 4235 H 414.379 3.42733 0.197241 0
M  V30 4236 N 416.824 -0.551391 1.4764 0
M  V30 4237 C 417.734 -1.68525 1.63207 0
M  V30 4238 C 418.75 -1.6621 0.514815 0
M  V30 4239 O 419.926 -1.85551 0.783113 0
M  V30 4240 C 416.991 -3.05025 1.64805 0
M  V30 4241 C 416.052 -3.18362 2.88 0
M  V30 4242 C 415.285 -4.4835 2.89513 0
M  V30 4243 O 415.508 -5.34163 2.00065 0
M  V30 4244 O 414.442 -4.65602 3.81443 0
M  V30 4245 H 418.268 -1.58333 2.59161 0
M  V30 4246 H 415.853 -0.722063 1.30792 0
M  V30 4247 H 417.735 -3.86245 1.68502 0
M  V30 4248 H 416.41 -3.15587 0.720197 0
M  V30 4249 H 415.317 -2.36518 2.89845 0
M  V30 4250 H 416.65 -3.12707 3.80099 0
M  V30 4251 N 418.302 -1.35869 -0.798587 0
M  V30 4252 C 419.549 -1.29588 -1.55606 0
M  V30 4253 C 419.877 0.127456 -1.94082 0
M  V30 4254 O 419.132 1.09461 -1.62225 0
M  V30 4255 C 419.431 -2.1556 -2.85077 0
M  V30 4256 C 419.097 -3.6424 -2.65781 0
M  V30 4257 C 417.759 -4.04766 -2.60227 0
M  V30 4258 C 420.111 -4.58547 -2.47758 0
M  V30 4259 C 417.439 -5.37753 -2.34603 0
M  V30 4260 C 419.791 -5.91742 -2.23662 0
M  V30 4261 C 418.455 -6.31402 -2.16534 0
M  V30 4262 H 417.725 -0.474197 -0.569402 0
M  V30 4263 H 420.372 -1.67839 -0.922086 0
M  V30 4264 H 418.677 -1.70216 -3.52893 0
M  V30 4265 H 420.374 -2.08031 -3.42818 0
M  V30 4266 H 416.964 -3.32086 -2.70956 0
M  V30 4267 H 421.148 -4.28117 -2.51056 0
M  V30 4268 H 416.404 -5.67474 -2.2756 0
M  V30 4269 H 420.578 -6.6439 -2.08708 0
M  V30 4270 H 418.205 -7.34381 -1.96441 0
M  V30 4271 N 419.78 1.02168 -1.19998 0
M  V30 4272 C 421.196 1.27969 -0.953737 0
M  V30 4273 C 421.396 1.98079 0.369703 0
M  V30 4274 O 420.452 2.27306 1.09947 0
M  V30 4275 C 421.765 2.11971 -2.13281 0
M  V30 4276 C 423.313 2.25255 -2.17323 0
M  V30 4277 C 423.788 3.12632 -3.34702 0
M  V30 4278 N 425.279 3.2022 -3.34684 0
M  V30 4279 C 426.014 3.88039 -4.22153 0
M  V30 4280 N 425.51 4.58027 -5.19791 0
M  V30 4281 N 427.303 3.84511 -4.10009 0
M  V30 4282 H 419.454 0.550794 -2.05134 0
M  V30 4283 H 421.717 0.305683 -0.897364 0
M  V30 4284 H 421.423 1.67785 -3.09097 0
M  V30 4285 H 421.297 3.12699 -2.10949 0
M  V30 4286 H 423.684 2.68667 -1.22073 0
M  V30 4287 H 423.765 1.24053 -2.23706 0
M  V30 4288 H 423.409 2.69926 -4.30235 0
M  V30 4289 H 423.339 4.13909 -3.25556 0
M  V30 4290 H 425.83 2.70382 -2.64012 0
M  V30 4291 H 426.143 5.07429 -5.82868 0
M  V30 4292 H 424.488 4.56869 -5.23733 0
M  V30 4293 H 427.679 3.28978 -3.33003 0
M  V30 4294 H 427.852 4.3709 -4.78389 0
M  V30 4295 N 421.258 1.00505 1.21394 0
M  V30 4296 C 422.208 0.536503 2.21598 0
M  V30 4297 C 423.192 -0.401914 1.55799 0
M  V30 4298 O 424.384 -0.226757 1.75541 0
M  V30 4299 C 421.513 -0.135446 3.43033 0
M  V30 4300 C 420.599 0.823992 4.16018 0
M  V30 4301 N 420.99 1.97683 4.6557 0
M  V30 4302 C 419.288 0.642387 4.4135 0
M  V30 4303 C 419.989 2.58003 5.21354 0
M  V30 4304 N 418.965 1.86162 5.1073 0
M  V30 4305 H 422.767 1.41557 2.57563 0
M  V30 4306 H 420.281 0.868878 1.37202 0
M  V30 4307 H 422.278 -0.488584 4.14027 0
M  V30 4308 H 420.938 -1.01049 3.08576 0
M  V30 4309 H 421.949 2.3572 4.61147 0
M  V30 4310 H 418.626 -0.185578 4.17087 0
M  V30 4311 H 420.016 3.555 5.70149 0
M  V30 4312 N 422.737 -1.36956 0.779787 0
M  V30 4313 C 423.667 -2.32761 0.185651 0
M  V30 4314 C 424.648 -1.56177 -0.673989 0
M  V30 4315 O 425.833 -1.84378 -0.609797 0
M  V30 4316 C 422.963 -3.40418 -0.687964 0
M  V30 4317 C 421.917 -4.27941 0.0710102 0
M  V30 4318 C 421.243 -5.26681 -0.922573 0
M  V30 4319 C 422.543 -5.07006 1.25467 0
M  V30 4320 H 424.237 -2.82698 0.986008 0
M  V30 4321 H 421.783 -1.3592 0.475592 0
M  V30 4322 H 423.736 -4.06423 -1.11348 0
M  V30 4323 H 422.46 -2.89025 -1.52093 0
M  V30 4324 H 421.119 -3.63478 0.47739 0
M  V30 4325 H 420.767 -4.71565 -1.7503 0
M  V30 4326 H 420.467 -5.86103 -0.419237 0
M  V30 4327 H 421.991 -5.9556 -1.34686 0
M  V30 4328 H 423.405 -5.66105 0.905401 0
M  V30 4329 H 421.802 -5.75793 1.69063 0
M  V30 4330 H 422.872 -4.3921 2.05481 0
M  V30 4331 N 424.215 -0.530993 -1.48385 0
M  V30 4332 C 425.145 0.219985 -2.32461 0
M  V30 4333 C 426.126 0.934111 -1.42156 0
M  V30 4334 O 427.311 0.919694 -1.71042 0
M  V30 4335 C 424.441 1.26674 -3.23375 0
M  V30 4336 C 423.395 0.67069 -4.22712 0
M  V30 4337 C 422.721 1.82017 -5.02766 0
M  V30 4338 C 424.021 -0.358268 -5.2107 0
M  V30 4339 H 425.715 -0.48187 -2.95497 0
M  V30 4340 H 423.261 -0.233182 -1.42099 0
M  V30 4341 H 425.214 1.80006 -3.81019 0
M  V30 4342 H 423.938 1.99818 -2.58341 0
M  V30 4343 H 422.597 0.158878 -3.66256 0
M  V30 4344 H 422.245 2.54002 -4.34157 0
M  V30 4345 H 421.945 1.42727 -5.70003 0
M  V30 4346 H 423.469 2.35725 -5.63264 0
M  V30 4347 H 424.883 0.0880081 -5.73232 0
M  V30 4348 H 423.28 -0.66861 -5.96364 0
M  V30 4349 H 424.35 -1.26367 -4.68145 0
M  V30 4350 N 425.693 1.55336 -0.266172 0
M  V30 4351 C 426.641 2.23587 0.641228 0
M  V30 4352 C 427.635 1.22986 1.16494 0
M  V30 4353 O 428.841 1.40943 1.1196 0
M  V30 4354 H 425.216 0.717452 0.225315 0
M  V30 4355 H 427.187 2.9837 0.0426561 0
M  V30 4356 C 425.936 2.96369 1.81826 0
M  V30 4357 H 425.259 3.73563 1.42445 0
M  V30 4358 H 426.699 3.47459 2.42998 0
M  V30 4359 C 425.158 2.0133 2.70125 0
M  V30 4360 O 425.688 1.55875 3.70224 0
M  V30 4361 N 423.894 1.6802 2.37102 0
M  V30 4362 H 423.441 2.05181 1.55751 0
M  V30 4363 H 423.399 1.047 2.96454 0
M  V30 4364 N 427.171 -0.0066808 1.57599 0
M  V30 4365 C 428.419 -0.691552 1.899 0
M  V30 4366 C 428.74 -1.74682 0.866672 0
M  V30 4367 O 428.01 -1.95661 -0.0968189 0
M  V30 4368 H 426.59 -0.258416 0.700878 0
M  V30 4369 H 429.252 0.0326655 1.94873 0
M  V30 4370 H 428.348 -1.16702 2.8946 0
M  V30 4371 N 428.649 -1.55105 -0.279332 0
M  V30 4372 C 429.895 -1.75672 -1.01327 0
M  V30 4373 C 430.228 -0.552739 -1.86168 0
M  V30 4374 O 429.503 0.449827 -1.89227 0
M  V30 4375 C 429.786 -3.05825 -1.90114 0
M  V30 4376 C 429.639 -4.36565 -1.08309 0
M  V30 4377 C 430.958 -3.31975 -2.8893 0
M  V30 4378 H 428.077 -0.639149 -0.366957 0
M  V30 4379 H 430.719 -1.87833 -0.286154 0
M  V30 4380 H 428.869 -2.95588 -2.52111 0
M  V30 4381 H 430.541 -4.58751 -0.484314 0
M  V30 4382 H 428.784 -4.32076 -0.386362 0
M  V30 4383 H 429.455 -5.23946 -1.73737 0
M  V30 4384 H 431.931 -3.41963 -2.37067 0
M  V30 4385 H 430.807 -4.2432 -3.48201 0
M  V30 4386 H 431.068 -2.51309 -3.63725 0
M  V30 4387 N 430.127 0.543554 -1.4793 0
M  V30 4388 C 431.037 1.67657 -1.64098 0
M  V30 4389 C 432.053 1.65934 -0.523622 0
M  V30 4390 O 433.229 1.85133 -0.792943 0
M  V30 4391 C 430.294 3.04146 -1.66421 0
M  V30 4392 C 429.355 3.16831 -2.89684 0
M  V30 4393 C 428.588 4.46809 -2.91886 0
M  V30 4394 O 428.811 5.33095 -2.02895 0
M  V30 4395 O 427.745 4.63573 -3.83906 0
M  V30 4396 H 431.571 1.56957 -2.59997 0
M  V30 4397 H 429.156 0.715116 -1.31173 0
M  V30 4398 H 431.038 3.85346 -1.70548 0
M  V30 4399 H 429.713 3.152 -0.736923 0
M  V30 4400 H 428.62 2.34977 -2.91095 0
M  V30 4401 H 429.953 3.10687 -3.81752 0
M  V30 4402 N 431.605 1.3629 0.791371 0
M  V30 4403 C 432.852 1.30412 1.54916 0
M  V30 4404 C 433.18 -0.117162 1.94147 0
M  V30 4405 O 432.435 -1.08599 1.62803 0
M  V30 4406 C 432.734 2.17068 2.8393 0
M  V30 4407 C 432.4 3.65645 2.63846 0
M  V30 4408 C 431.062 4.0614 2.58077 0
M  V30 4409 C 433.414 4.59855 2.45322 0
M  V30 4410 C 430.742 5.3899 2.31748 0
M  V30 4411 C 433.094 5.9292 2.2052 0
M  V30 4412 C 431.758 6.32542 2.13183 0
M  V30 4413 H 431.028 0.47721 0.566879 0
M  V30 4414 H 433.675 1.68325 0.913172 0
M  V30 4415 H 431.98 1.72085 3.51986 0
M  V30 4416 H 433.677 2.09846 3.4171 0
M  V30 4417 H 430.267 3.33518 2.69191 0
M  V30 4418 H 434.451 4.29443 2.48782 0
M  V30 4419 H 429.707 5.68672 2.24548 0
M  V30 4420 H 433.881 6.65487 2.05182 0
M  V30 4421 H 431.508 7.35412 1.92544 0
M  V30 4422 N 433.083 -1.0153 1.20538 0
M  V30 4423 C 434.046 -2.0826 0.957098 0
M  V30 4424 C 435.046 -1.60657 -0.0678655 0
M  V30 4425 O 436.236 -1.73385 0.168332 0
M  V30 4426 C 433.368 -3.38033 0.441188 0
M  V30 4427 H 434.561 -2.31719 1.90384 0
M  V30 4428 H 432.114 -1.1835 1.02093 0
M  V30 4429 H 432.849 -3.20249 -0.510961 0
M  V30 4430 H 432.634 -3.73911 1.18038 0
M  V30 4431 H 434.124 -4.16613 0.287009 0
M  V30 4432 N 434.561 -1.01147 -1.20859 0
M  V30 4433 C 435.838 -0.613136 -1.85742 0
M  V30 4434 C 436.218 0.909004 -1.90526 0
M  V30 4435 O 435.566 1.79862 -1.40932 0
M  V30 4436 C 435.776 -1.255 -3.25654 0
M  V30 4437 C 437.124 -1.3672 -4.01986 0
M  V30 4438 O 438.148 -1.21082 -3.34989 0
M  V30 4439 O 437.007 -1.6194 -5.21956 0
M  V30 4440 H 434.101 -0.210878 -0.799662 0
M  V30 4441 H 436.647 -1.10853 -1.2849 0
M  V30 4442 H 435.419 -2.29532 -3.16908 0
M  V30 4443 H 435.042 -0.746369 -3.90532 0
M  V30 4444 N 436.039 1.36541 -0.78704 0
M  V30 4445 C 437.264 2.0409 -0.369053 0
M  V30 4446 C 437.689 1.58957 1.00569 0
M  V30 4447 O 437.047 0.756926 1.64743 0
M  V30 4448 C 437.095 3.57924 -0.438466 0
M  V30 4449 O 436.199 4.08642 0.555479 0
M  V30 4450 H 435.54 0.645142 -0.157122 0
M  V30 4451 H 438.07 1.74545 -1.06749 0
M  V30 4452 H 438.08 4.06887 -0.301218 0
M  V30 4453 H 436.755 3.90127 -1.44132 0
M  V30 4454 H 435.332 3.70958 0.380088 0
M  V30 4455 N 437.518 0.538854 1.48102 0
M  V30 4456 C 438.765 0.0080018 2.02498 0
M  V30 4457 C 439.093 -1.33437 1.41509 0
M  V30 4458 O 438.348 -1.87709 0.553507 0
M  V30 4459 C 438.647 -0.153808 3.57069 0
M  V30 4460 C 438.313 1.11533 4.36888 0
M  V30 4461 C 436.975 1.46314 4.58417 0
M  V30 4462 C 439.327 1.95718 4.83057 0
M  V30 4463 C 436.655 2.6516 5.23361 0
M  V30 4464 C 439.007 3.13751 5.49312 0
M  V30 4465 C 437.671 3.48866 5.69077 0
M  V30 4466 H 436.941 0.00292807 0.740994 0
M  V30 4467 H 439.588 0.706668 1.77984 0
M  V30 4468 H 437.893 -0.935309 3.80472 0
M  V30 4469 H 439.59 -0.579607 3.96789 0
M  V30 4470 H 436.18 0.834484 4.20398 0
M  V30 4471 H 440.364 1.70158 4.66219 0
M  V30 4472 H 435.62 2.92558 5.36861 0
M  V30 4473 H 439.794 3.79282 5.84053 0
M  V30 4474 H 437.421 4.41054 6.19173 0
M  V30 4475 N 438.996 -1.55193 0.274407 0
M  V30 4476 C 439.944 -2.23924 -0.629362 0
M  V30 4477 C 440.938 -1.23602 -1.1584 0
M  V30 4478 O 442.144 -1.41535 -1.11211 0
M  V30 4479 H 438.519 -0.718637 -0.221507 0
M  V30 4480 H 440.49 -2.98388 -0.0268322 0
M  V30 4481 C 439.239 -2.97329 -1.80252 0
M  V30 4482 H 438.562 -3.74313 -1.40462 0
M  V30 4483 H 440.002 -3.48743 -2.41152 0
M  V30 4484 C 438.461 -2.0276 -2.69054 0
M  V30 4485 O 438.991 -1.57836 -3.69392 0
M  V30 4486 N 437.197 -1.69275 -2.36208 0
M  V30 4487 H 436.744 -2.06004 -1.54661 0
M  V30 4488 H 436.702 -1.06271 -2.95895 0
M  V30 4489 N 440.474 -0.00167713 -1.576 0
M  V30 4490 C 441.721 0.68282 -1.90641 0
M  V30 4491 C 442.049 1.73686 -0.875415 0
M  V30 4492 O 441.304 1.95334 0.119575 0
M  V30 4493 C 441.603 1.36189 -3.30435 0
M  V30 4494 C 441.269 0.440887 -4.48739 0
M  V30 4495 C 439.931 0.187312 -4.80835 0
M  V30 4496 C 442.283 -0.193134 -5.20842 0
M  V30 4497 C 439.611 -0.70855 -5.82406 0
M  V30 4498 C 441.963 -1.07688 -6.23367 0
M  V30 4499 C 440.627 -1.33962 -6.53919 0
M  V30 4500 H 439.897 0.249862 -0.697603 0
M  V30 4501 H 442.544 -0.0575642 -1.91413 0
M  V30 4502 H 440.849 2.17636 -3.25794 0
M  V30 4503 H 442.546 1.89759 -3.5326 0
M  V30 4504 H 439.136 0.648694 -4.23663 0
M  V30 4505 H 443.32 -0.0102445 -4.96299 0
M  V30 4506 H 438.576 -0.920097 -6.04437 0
M  V30 4507 H 442.75 -1.57451 -6.78367 0
M  V30 4508 H 440.377 -2.03549 -7.32442 0
M  V30 4509 N 441.952 1.55251 0.271103 0
M  V30 4510 C 442.9 1.89054 1.35504 0
M  V30 4511 C 443.894 0.767064 1.51038 0
M  V30 4512 O 445.1 0.951429 1.528 0
M  V30 4513 H 441.475 0.600072 0.45323 0
M  V30 4514 H 443.446 2.79598 1.04247 0
M  V30 4515 C 442.195 2.18068 2.70817 0
M  V30 4516 H 441.518 3.04005 2.59656 0
M  V30 4517 H 442.958 2.4564 3.45597 0
M  V30 4518 C 441.417 0.988901 3.2206 0
M  V30 4519 O 441.947 0.224501 4.01072 0
M  V30 4520 N 440.153 0.786085 2.79766 0
M  V30 4521 H 439.7 1.40937 2.15626 0
M  V30 4522 H 439.658 -0.00969349 3.14399 0
M  V30 4523 N 443.43 -0.535701 1.48216 0
M  V30 4524 C 444.841 -1.11769 1.49548 0
M  V30 4525 C 445.192 -1.94442 0.26207 0
M  V30 4526 O 444.317 -2.06987 -0.631287 0
M  V30 4527 C 444.912 -2.03367 2.70975 0
M  V30 4528 C 443.471 -2.56795 2.75196 0
M  V30 4529 C 442.618 -1.33631 2.42977 0
M  V30 4530 H 445.569 -0.321232 1.55415 0
M  V30 4531 H 445.59 -2.87569 2.49167 0
M  V30 4532 H 445.102 -1.43169 3.60727 0
M  V30 4533 H 443.203 -3.20731 1.89638 0
M  V30 4534 H 443.316 -2.9632 3.76472 0
M  V30 4535 H 441.68 -1.6502 1.94012 0
M  V30 4536 H 442.463 -0.75194 3.34964 0
M  V30 4537 N 444.908 -1.36708 -0.784132 0
M  V30 4538 C 445.858 -1.2799 -1.88686 0
M  V30 4539 C 446.842 -0.170282 -1.59996 0
M  V30 4540 O 448.034 -0.403571 -1.72338 0
M  V30 4541 C 445.163 -1.07674 -3.25977 0
M  V30 4542 C 444.249 -2.23127 -3.60659 0
M  V30 4543 N 444.64 -3.48467 -3.66612 0
M  V30 4544 C 442.938 -2.15009 -3.90752 0
M  V30 4545 C 443.639 -4.24525 -3.97685 0
M  V30 4546 N 442.615 -3.53524 -4.12943 0
M  V30 4547 H 446.417 -2.22927 -1.91522 0
M  V30 4548 H 443.931 -1.29503 -0.979933 0
M  V30 4549 H 445.928 -0.995151 -4.04849 0
M  V30 4550 H 444.588 -0.13643 -3.24413 0
M  V30 4551 H 445.599 -3.82534 -3.49125 0
M  V30 4552 H 442.276 -1.28963 -3.97083 0
M  V30 4553 H 443.666 -5.32944 -4.0917 0
M  V30 4554 N 446.386 1.0089 -1.21074 0
M  V30 4555 C 447.333 2.09588 -0.966512 0
M  V30 4556 C 448.303 1.65761 0.106089 0
M  V30 4557 O 449.488 1.90758 -0.0402287 0
M  V30 4558 C 446.628 3.40958 -0.533058 0
M  V30 4559 C 445.741 3.9822 -1.67467 0
M  V30 4560 C 444.876 5.17682 -1.19076 0
M  V30 4561 C 443.915 5.67043 -2.30496 0
M  V30 4562 N 443.052 6.77759 -1.83267 0
M  V30 4563 H 447.892 2.29815 -1.89708 0
M  V30 4564 H 445.429 1.12689 -0.945489 0
M  V30 4565 H 447.387 4.1637 -0.263019 0
M  V30 4566 H 446.017 3.20781 0.360505 0
M  V30 4567 H 445.069 3.1983 -2.05944 0
M  V30 4568 H 446.381 4.3085 -2.51336 0
M  V30 4569 H 445.535 6.00326 -0.877151 0
M  V30 4570 H 444.274 4.86635 -0.322066 0
M  V30 4571 H 443.279 4.82999 -2.62664 0
M  V30 4572 H 444.504 6.00121 -3.17855 0
M  V30 4573 H 442.45 6.48527 -0.987356 0
M  V30 4574 H 442.367 7.09624 -2.60711 0
M  V30 4575 H 443.635 7.63949 -1.54928 0
M  V30 4576 N 447.864 1.01787 1.20321 0
M  V30 4577 C 449.11 0.718699 1.90279 0
M  V30 4578 C 449.465 -0.743669 1.77447 0
M  V30 4579 O 448.758 -1.53345 1.14874 0
M  V30 4580 C 448.952 1.09076 3.40349 0
M  V30 4581 C 448.781 2.58775 3.67784 0
M  V30 4582 C 447.551 3.25578 3.86428 0
M  V30 4583 C 449.749 3.56966 3.70243 0
M  V30 4584 N 447.731 4.64495 4.01395 0
M  V30 4585 C 449.102 4.8145 3.90649 0
M  V30 4586 C 451.157 3.5092 3.53213 0
M  V30 4587 C 449.86 6.00619 3.95789 0
M  V30 4588 C 451.886 4.69493 3.59625 0
M  V30 4589 C 451.248 5.92786 3.80505 0
M  V30 4590 H 447.347 0.31468 0.715891 0
M  V30 4591 H 449.931 1.30295 1.44677 0
M  V30 4592 H 448.102 0.534839 3.847 0
M  V30 4593 H 449.834 0.744997 3.97784 0
M  V30 4594 H 446.589 2.76003 3.84862 0
M  V30 4595 H 447.013 5.36624 4.12752 0
M  V30 4596 H 451.655 2.56593 3.36035 0
M  V30 4597 H 449.373 6.95326 4.11762 0
M  V30 4598 H 452.959 4.66432 3.47754 0
M  V30 4599 H 451.839 6.83003 3.85327 0
M  V30 4600 N 449.342 -1.36122 0.79427 0
M  V30 4601 C 450.272 -2.32551 0.210328 0
M  V30 4602 C 451.253 -1.56884 -0.657386 0
M  V30 4603 O 452.438 -1.85014 -0.590207 0
M  V30 4604 C 449.568 -3.41128 -0.651819 0
M  V30 4605 C 448.522 -4.27842 0.116395 0
M  V30 4606 C 447.848 -5.2763 -0.86666 0
M  V30 4607 C 449.148 -5.05647 1.30837 0
M  V30 4608 H 450.842 -2.81636 1.01594 0
M  V30 4609 H 448.388 -1.35407 0.489981 0
M  V30 4610 H 450.341 -4.07581 -1.07031 0
M  V30 4611 H 449.065 -2.90622 -1.49019 0
M  V30 4612 H 447.724 -3.62952 0.515915 0
M  V30 4613 H 447.372 -4.73395 -1.70019 0
M  V30 4614 H 447.072 -5.86514 -0.35705 0
M  V30 4615 H 448.596 -5.96955 -1.28361 0
M  V30 4616 H 450.01 -5.65113 0.965393 0
M  V30 4617 H 448.407 -5.73967 1.75161 0
M  V30 4618 H 449.477 -4.37006 2.10128 0
M  V30 4619 N 450.82 -0.546701 -1.47814 0
M  V30 4620 C 451.75 0.195317 -2.32682 0
M  V30 4621 C 452.731 0.918981 -1.43139 0
M  V30 4622 O 453.916 0.901501 -1.72008 0
M  V30 4623 C 451.046 1.23237 -3.247 0
M  V30 4624 C 450 0.625818 -4.234 0
M  V30 4625 C 449.326 1.76674 -5.04669 0
M  V30 4626 C 450.626 -0.413515 -5.2066 0
M  V30 4627 H 452.32 -0.513184 -2.94969 0
M  V30 4628 H 449.866 -0.248241 -1.41844 0
M  V30 4629 H 451.819 1.75955 -3.82907 0
M  V30 4630 H 450.543 1.97067 -2.60446 0
M  V30 4631 H 449.202 0.120023 -3.66403 0
M  V30 4632 H 448.85 2.49383 -4.36826 0
M  V30 4633 H 448.55 1.36673 -5.71484 0
M  V30 4634 H 450.074 2.29738 -5.65732 0
M  V30 4635 H 451.488 0.0272042 -5.73294 0
M  V30 4636 H 449.885 -0.731825 -5.95621 0
M  V30 4637 H 450.955 -1.31325 -4.66778 0
M  V30 4638 N 452.299 1.55045 -0.282633 0
M  V30 4639 C 453.545 2.00056 0.332481 0
M  V30 4640 C 453.878 1.1708 1.54939 0
M  V30 4641 O 453.153 0.2427 1.9298 0
M  V30 4642 C 453.436 3.53086 0.70725 0
M  V30 4643 C 453.289 4.46813 -0.517521 0
M  V30 4644 C 454.608 4.12245 1.54084 0
M  V30 4645 H 451.727 0.727268 0.119373 0
M  V30 4646 H 454.369 1.85932 -0.391076 0
M  V30 4647 H 452.519 3.65253 1.32372 0
M  V30 4648 H 454.191 4.46579 -1.15607 0
M  V30 4649 H 452.434 4.18163 -1.1542 0
M  V30 4650 H 453.105 5.51595 -0.211426 0
M  V30 4651 H 455.581 4.03401 1.02013 0
M  V30 4652 H 454.457 5.19515 1.77186 0
M  V30 4653 H 454.718 3.62951 2.52427 0
M  V30 4654 N 453.777 0.010035 1.57597 0
M  V30 4655 C 454.725 -0.996272 2.10184 0
M  V30 4656 C 455.719 -1.34942 1.02406 0
M  V30 4657 O 456.925 -1.33389 1.20861 0
M  V30 4658 H 453.3 -0.338982 0.671264 0
M  V30 4659 H 455.271 -0.527272 2.93705 0
M  V30 4660 C 454.02 -2.27599 2.62857 0
M  V30 4661 H 453.343 -2.01295 3.45428 0
M  V30 4662 H 454.783 -2.96265 3.0332 0
M  V30 4663 C 453.242 -2.99269 1.54725 0
M  V30 4664 O 453.772 -3.90644 0.93597 0
M  V30 4665 N 451.978 -2.61269 1.27228 0
M  V30 4666 H 451.525 -1.87043 1.77123 0
M  V30 4667 H 451.483 -3.09534 0.550999 0
M  V30 4668 N 455.255 -1.55392 -0.262866 0
M  V30 4669 C 456.502 -1.76476 -0.993109 0
M  V30 4670 C 456.83 -0.571479 -1.85915 0
M  V30 4671 O 456.085 0.445733 -1.90556 0
M  V30 4672 C 456.384 -3.02889 -1.89718 0
M  V30 4673 C 456.05 -4.34974 -1.18781 0
M  V30 4674 C 454.712 -4.7087 -0.991699 0
M  V30 4675 C 457.064 -5.16695 -0.683798 0
M  V30 4676 C 454.392 -5.86036 -0.279024 0
M  V30 4677 C 456.744 -6.32598 0.0153327 0
M  V30 4678 C 455.408 -6.67127 0.223062 0
M  V30 4679 H 454.678 -0.64577 -0.363404 0
M  V30 4680 H 457.325 -1.89664 -0.264525 0
M  V30 4681 H 455.63 -2.84644 -2.6923 0
M  V30 4682 H 457.327 -3.16399 -2.46359 0
M  V30 4683 H 453.917 -4.06765 -1.35058 0
M  V30 4684 H 458.101 -4.8943 -0.8229 0
M  V30 4685 H 453.357 -6.11306 -0.107456 0
M  V30 4686 H 457.531 -6.95171 0.413584 0
M  V30 4687 H 455.158 -7.56216 0.777265 0
M  V30 4688 N 456.733 0.527833 -1.48498 0
M  V30 4689 C 458.01 1.28905 -1.47115 0
M  V30 4690 C 458.39 2.10297 -0.184007 0
M  V30 4691 O 457.738 2.12728 0.834218 0
M  V30 4692 C 457.948 2.16866 -2.73441 0
M  V30 4693 C 459.296 2.76936 -3.21857 0
M  V30 4694 O 460.32 2.27152 -2.74373 0
M  V30 4695 O 459.179 3.67496 -4.04486 0
M  V30 4696 H 456.273 0.581918 -0.587623 0
M  V30 4697 H 458.819 0.544311 -1.60734 0
M  V30 4698 H 457.591 1.56521 -3.58632 0
M  V30 4699 H 457.214 2.98583 -2.62553 0
M  V30 4700 N 458.211 1.37122 0.776871 0
M  V30 4701 C 459.451 1.33441 1.54831 0
M  V30 4702 C 459.815 -0.0818963 1.91825 0
M  V30 4703 O 461.016 -0.24338 2.67696 0
M  V30 4704 C 459.287 2.24267 2.78279 0
M  V30 4705 S 460.846 2.38389 3.68397 0
M  V30 4706 H 457.664 0.473791 0.530135 0
M  V30 4707 H 460.266 1.7282 0.913968 0
M  V30 4708 H 458.97 3.261 2.49173 0
M  V30 4709 H 458.501 1.85953 3.46677 0
M  V30 4710 H 460.516 1.59068 4.70013 0
M  V30 4711 N 459.689 -1.00246 1.21608 0
M  V30 4712 C 460.914 -1.78167 1.06167 0
M  V30 4713 C 461.339 -1.84138 -0.384035 0
M  V30 4714 O 460.697 -1.28683 -1.27712 0
M  V30 4715 C 460.745 -3.19786 1.66642 0
M  V30 4716 O 459.849 -4.02153 0.913613 0
M  V30 4717 H 459.19 -0.549 0.37349 0
M  V30 4718 H 461.72 -1.25994 1.61204 0
M  V30 4719 H 461.73 -3.70451 1.70969 0
M  V30 4720 H 460.405 -3.14754 2.7185 0
M  V30 4721 H 458.982 -3.60711 0.945635 0
M  V30 4722 N 461.167 -1.02423 -1.1978 0
M  V30 4723 C 462.13 -0.605703 -2.21052 0
M  V30 4724 C 463.13 0.328209 -1.57415 0
M  V30 4725 O 464.32 0.115853 -1.73814 0
M  V30 4726 C 461.452 0.114366 -3.40708 0
M  V30 4727 H 462.645 -1.5017 -2.59594 0
M  V30 4728 H 460.198 -0.814888 -1.33376 0
M  V30 4729 H 460.933 1.02492 -3.07678 0
M  V30 4730 H 460.718 -0.556641 -3.88129 0
M  V30 4731 H 462.208 0.394272 -4.15735 0
M  V30 4732 N 462.645 1.35699 -0.801477 0
M  V30 4733 C 463.578 2.2768 -0.153922 0
M  V30 4734 C 464.556 1.47832 0.67709 0
M  V30 4735 O 465.74 1.77104 0.645474 0
M  V30 4736 C 462.867 3.2943 0.786986 0
M  V30 4737 C 461.913 4.26485 0.0362447 0
M  V30 4738 S 462.746 5.19573 -1.2963 0
M  V30 4739 C 463.902 6.24866 -0.359705 0
M  V30 4740 H 464.135 2.82254 -0.9338 0
M  V30 4741 H 461.668 1.42421 -0.596283 0
M  V30 4742 H 463.626 3.8855 1.32436 0
M  V30 4743 H 462.287 2.73745 1.54021 0
M  V30 4744 H 461.48 4.98378 0.750668 0
M  V30 4745 H 461.082 3.71508 -0.431017 0
M  V30 4746 H 463.374 6.75957 0.456954 0
M  V30 4747 H 464.317 7.00307 -1.04768 0
M  V30 4748 H 464.725 5.64484 0.0423274 0
M  V30 4749 N 464.123 0.554532 1.47522 0
M  V30 4750 C 465.369 0.0377449 2.03365 0
M  V30 4751 C 465.724 -1.29654 1.42154 0
M  V30 4752 O 465.017 -1.83022 0.566865 0
M  V30 4753 C 465.211 -0.115927 3.57212 0
M  V30 4754 C 465.04 1.20191 4.33341 0
M  V30 4755 C 463.81 1.76849 4.73342 0
M  V30 4756 C 466.008 2.11849 4.68641 0
M  V30 4757 N 463.99 3.02665 5.34104 0
M  V30 4758 C 465.361 3.22245 5.29677 0
M  V30 4759 C 467.416 2.11876 4.5057 0
M  V30 4760 C 466.119 4.32763 5.74551 0
M  V30 4761 C 468.145 3.21405 4.9644 0
M  V30 4762 C 467.507 4.30519 5.57523 0
M  V30 4763 H 463.606 0.0559107 0.779999 0
M  V30 4764 H 466.19 0.741232 1.80038 0
M  V30 4765 H 464.361 -0.788533 3.80311 0
M  V30 4766 H 466.093 -0.634538 3.99695 0
M  V30 4767 H 462.848 1.30681 4.55214 0
M  V30 4768 H 463.272 3.66788 5.69031 0
M  V30 4769 H 467.914 1.28801 4.02704 0
M  V30 4770 H 465.632 5.166 6.2141 0
M  V30 4771 H 469.218 3.22509 4.8423 0
M  V30 4772 H 468.098 5.13873 5.92371 0
M  V30 4773 N 465.601 -1.54893 0.290851 0
M  V30 4774 C 466.847 -2.0023 -0.321867 0
M  V30 4775 C 467.18 -1.179 -1.54316 0
M  V30 4776 O 466.455 -0.25293 -1.92848 0
M  V30 4777 C 466.738 -3.53456 -0.688515 0
M  V30 4778 C 466.591 -4.46532 0.541209 0
M  V30 4779 C 467.91 -4.13057 -1.51895 0
M  V30 4780 H 465.029 -0.727891 -0.115515 0
M  V30 4781 H 467.671 -1.85722 0.400931 0
M  V30 4782 H 465.821 -3.6595 -1.30433 0
M  V30 4783 H 467.493 -4.4596 1.17973 0
M  V30 4784 H 465.736 -4.17545 1.17636 0
M  V30 4785 H 466.407 -5.51475 0.240675 0
M  V30 4786 H 468.883 -4.03937 -0.99872 0
M  V30 4787 H 467.759 -5.20448 -1.74429 0
M  V30 4788 H 468.02 -3.64284 -2.50498 0
M  V30 4789 N 467.08 -0.0183926 -1.57589 0
M  V30 4790 C 468.027 0.967022 -2.09565 0
M  V30 4791 C 468.997 1.32983 -0.995225 0
M  V30 4792 O 470.182 1.42501 -1.26878 0
M  V30 4793 C 467.322 2.24772 -2.61861 0
M  V30 4794 C 466.435 1.94232 -3.85873 0
M  V30 4795 C 465.57 3.16518 -4.26603 0
M  V30 4796 C 464.609 2.81748 -5.43401 0
M  V30 4797 N 463.746 3.96626 -5.79338 0
M  V30 4798 H 468.586 0.516874 -2.93483 0
M  V30 4799 H 466.123 0.243544 -1.4507 0
M  V30 4800 H 468.081 2.99667 -2.90268 0
M  V30 4801 H 466.711 2.67423 -1.8079 0
M  V30 4802 H 465.763 1.09625 -3.64262 0
M  V30 4803 H 467.075 1.64616 -4.70853 0
M  V30 4804 H 466.229 3.99743 -4.56389 0
M  V30 4805 H 464.968 3.49286 -3.40368 0
M  V30 4806 H 463.973 1.96933 -5.1332 0
M  V30 4807 H 465.198 2.50207 -6.31327 0
M  V30 4808 H 463.144 4.29257 -4.96059 0
M  V30 4809 H 463.061 3.70598 -6.58933 0
M  V30 4810 H 464.329 4.80586 -6.13724 0
M  V30 4811 N 468.558 1.5553 0.254621 0
M  V30 4812 C 469.505 1.89666 1.31512 0
M  V30 4813 C 470.475 0.750057 1.482 0
M  V30 4814 O 471.66 1.00301 1.62309 0
M  V30 4815 C 468.8 2.19009 2.667 0
M  V30 4816 C 467.913 3.46435 2.58083 0
M  V30 4817 C 467.048 3.65386 3.85573 0
M  V30 4818 C 466.087 4.8644 3.71541 0
M  V30 4819 N 465.224 5.01952 4.90906 0
M  V30 4820 H 470.064 2.80109 1.017 0
M  V30 4821 H 467.601 1.38666 0.490938 0
M  V30 4822 H 469.559 2.34025 3.45381 0
M  V30 4823 H 468.189 1.31779 2.94676 0
M  V30 4824 H 467.241 3.39792 1.71013 0
M  V30 4825 H 468.553 4.35258 2.43622 0
M  V30 4826 H 467.707 3.80319 4.72697 0
M  V30 4827 H 466.446 2.74781 4.02922 0
M  V30 4828 H 465.451 4.71491 2.82801 0
M  V30 4829 H 466.676 5.78497 3.55694 0
M  V30 4830 H 464.622 4.14283 5.08631 0
M  V30 4831 H 464.539 5.84851 4.79046 0
M  V30 4832 H 465.807 5.21289 5.7955 0
M  V30 4833 N 470.036 -0.519951 1.48776 0
M  V30 4834 C 471.452 -0.849418 1.35119 0
M  V30 4835 C 471.652 -1.98077 0.36982 0
M  V30 4836 O 470.708 -2.51664 -0.205359 0
M  V30 4837 C 472.021 -1.20748 2.75391 0
M  V30 4838 C 473.569 -1.31679 2.83954 0
M  V30 4839 C 474.044 -1.70824 4.24951 0
M  V30 4840 N 475.535 -1.77908 4.27672 0
M  V30 4841 C 476.27 -2.09603 5.33717 0
M  V30 4842 N 475.766 -2.39652 6.5003 0
M  V30 4843 N 477.559 -2.10694 5.21119 0
M  V30 4844 H 469.71 0.226377 2.1119 0
M  V30 4845 H 471.973 0.0386519 0.947212 0
M  V30 4846 H 471.679 -0.449703 3.48813 0
M  V30 4847 H 471.553 -2.15534 3.09556 0
M  V30 4848 H 473.94 -2.06532 2.10781 0
M  V30 4849 H 474.021 -0.3499 2.53396 0
M  V30 4850 H 473.665 -0.965282 4.98643 0
M  V30 4851 H 473.595 -2.6858 4.52959 0
M  V30 4852 H 476.086 -1.56923 3.43779 0
M  V30 4853 H 476.399 -2.6297 7.26682 0
M  V30 4854 H 474.744 -2.37149 6.53288 0
M  V30 4855 H 477.935 -1.86682 4.29264 0
M  V30 4856 H 478.108 -2.35062 6.03863 0
M  V30 4857 N 471.514 -1.37532 -0.769588 0
M  V30 4858 C 472.742 -1.36059 -1.55871 0
M  V30 4859 C 473.157 0.053544 -1.88724 0
M  V30 4860 O 472.514 1.01591 -1.5161 0
M  V30 4861 C 472.565 -2.20107 -2.86767 0
M  V30 4862 O 472.286 -3.56009 -2.55321 0
M  V30 4863 C 473.787 -2.26636 -3.80987 0
M  V30 4864 H 471.007 -0.465967 -0.482821 0
M  V30 4865 H 473.551 -1.80901 -0.953686 0
M  V30 4866 H 471.706 -1.78768 -3.43687 0
M  V30 4867 H 472.12 -4.0009 -3.39158 0
M  V30 4868 H 473.594 -2.89763 -4.69831 0
M  V30 4869 H 474.071 -1.2754 -4.20274 0
M  V30 4870 H 474.677 -2.68296 -3.29996 0
M  V30 4871 N 472.992 0.995999 -1.22138 0
M  V30 4872 C 474.269 1.70834 -0.952642 0
M  V30 4873 C 474.649 2.04257 0.533119 0
M  V30 4874 O 473.997 1.72343 1.50034 0
M  V30 4875 C 474.207 2.96119 -1.84701 0
M  V30 4876 C 475.555 3.68962 -2.10124 0
M  V30 4877 O 476.579 3.0612 -1.82124 0
M  V30 4878 O 475.438 4.82017 -2.57531 0
M  V30 4879 H 472.532 0.745498 -0.357997 0
M  V30 4880 H 475.078 1.05262 -1.33109 0
M  V30 4881 H 473.85 2.67898 -2.85213 0
M  V30 4882 H 473.473 3.6943 -1.46995 0
M  V30 4883 N 474.47 1.03057 1.19235 0
M  V30 4884 C 475.4 0.633497 2.24742 0
M  V30 4885 C 476.381 -0.358335 1.66283 0
M  V30 4886 O 477.566 -0.240676 1.92703 0
M  V30 4887 C 474.696 -0.0147648 3.47297 0
M  V30 4888 C 473.65 0.899527 4.18441 0
M  V30 4889 C 472.976 0.116281 5.34574 0
M  V30 4890 C 474.276 2.21404 4.73051 0
M  V30 4891 H 475.97 1.5155 2.58211 0
M  V30 4892 H 473.516 0.73014 1.24117 0
M  V30 4893 H 475.469 -0.304202 4.20301 0
M  V30 4894 H 474.193 -0.931577 3.13032 0
M  V30 4895 H 472.852 1.17319 3.47321 0
M  V30 4896 H 472.5 -0.802619 4.96555 0
M  V30 4897 H 472.2 0.725293 5.83107 0
M  V30 4898 H 473.724 -0.166376 6.10373 0
M  V30 4899 H 475.138 1.98601 5.37802 0
M  V30 4900 H 473.535 2.77512 5.32078 0
M  V30 4901 H 474.605 2.86752 3.91026 0
M  V30 4902 N 475.948 -1.35272 0.808662 0
M  V30 4903 C 477.176 -2.02946 0.402537 0
M  V30 4904 C 477.591 -1.60937 -0.987147 0
M  V30 4905 O 476.948 -0.807917 -1.63643 0
M  V30 4906 C 476.999 -3.58317 0.47868 0
M  V30 4907 O 476.72 -3.98799 1.81358 0
M  V30 4908 C 478.221 -4.43251 0.0656281 0
M  V30 4909 H 475.441 -0.650831 0.163279 0
M  V30 4910 H 477.985 -1.72849 1.09286 0
M  V30 4911 H 476.14 -3.87055 -0.163415 0
M  V30 4912 H 476.554 -4.93451 1.77781 0
M  V30 4913 H 478.028 -5.51738 0.170017 0
M  V30 4914 H 478.505 -4.27913 -0.989278 0
M  V30 4915 H 479.111 -4.19813 0.68096 0
M  V30 4916 N 477.426 -0.562348 -1.47226 0
M  V30 4917 C 478.674 -0.0401371 -2.0206 0
M  V30 4918 C 478.995 1.3165 -1.43852 0
M  V30 4919 O 478.265 1.85976 -0.615599 0
M  V30 4920 H 476.845 -0.0118479 -0.746906 0
M  V30 4921 H 479.507 -0.73352 -1.8057 0
M  V30 4922 H 478.603 0.0441254 -3.12069 0
M  V30 4923 N 478.904 1.54736 -0.299062 0
M  V30 4924 C 479.867 2.22127 0.565012 0
M  V30 4925 C 480.867 1.20669 1.06281 0
M  V30 4926 O 482.057 1.45417 0.959145 0
M  V30 4927 C 479.189 2.90611 1.78208 0
M  V30 4928 H 480.382 2.99891 -0.0237448 0
M  V30 4929 H 477.935 1.5622 -0.0498788 0
M  V30 4930 H 478.67 2.16921 2.41072 0
M  V30 4931 H 478.455 3.64984 1.43281 0
M  V30 4932 H 479.945 3.42026 2.396 0
M  V30 4933 N 480.382 0.0267497 1.57577 0
M  V30 4934 C 481.629 -0.652404 1.91703 0
M  V30 4935 C 481.957 -1.72271 0.902936 0
M  V30 4936 O 481.212 -1.955 -0.0884843 0
M  V30 4937 C 481.511 -1.30914 3.3256 0
M  V30 4938 C 481.177 -0.369441 4.49384 0
M  V30 4939 C 479.839 -0.110791 4.81072 0
M  V30 4940 C 482.191 0.275971 5.20469 0
M  V30 4941 C 479.519 0.801116 5.81205 0
M  V30 4942 C 481.871 1.17592 6.21575 0
M  V30 4943 C 480.535 1.44348 6.51705 0
M  V30 4944 H 479.805 -0.238732 0.70149 0
M  V30 4945 H 482.452 0.0880091 1.91298 0
M  V30 4946 H 480.757 -2.12425 3.29216 0
M  V30 4947 H 482.454 -1.84115 3.56234 0
M  V30 4948 H 479.044 -0.581211 4.24641 0
M  V30 4949 H 483.228 0.0892 4.9622 0
M  V30 4950 H 478.484 1.01614 6.02897 0
M  V30 4951 H 482.658 1.68223 6.75777 0
M  V30 4952 H 480.285 2.15176 7.29111 0
M  V30 4953 N 481.861 -1.55662 -0.24637 0
M  V30 4954 C 483.277 -1.48098 -0.594907 0
M  V30 4955 C 483.477 -0.717044 -1.8831 0
M  V30 4956 O 482.533 -0.246618 -2.51293 0
M  V30 4957 C 483.846 -2.92507 -0.697146 0
M  V30 4958 C 485.394 -3.02881 -0.789436 0
M  V30 4959 C 485.869 -4.48598 -0.923232 0
M  V30 4960 N 487.36 -4.52538 -0.988088 0
M  V30 4961 C 488.095 -5.62536 -1.11089 0
M  V30 4962 N 487.591 -6.82342 -1.19919 0
M  V30 4963 N 489.384 -5.50334 -1.14408 0
M  V30 4964 H 481.535 -2.0377 0.599278 0
M  V30 4965 H 483.798 -0.925145 0.20691 0
M  V30 4966 H 483.504 -3.51242 0.179396 0
M  V30 4967 H 483.378 -3.43024 -1.5689 0
M  V30 4968 H 485.765 -2.44226 -1.65643 0
M  V30 4969 H 485.846 -2.55574 0.107482 0
M  V30 4970 H 485.49 -5.07864 -0.0607927 0
M  V30 4971 H 485.42 -4.93587 -1.8352 0
M  V30 4972 H 487.911 -3.66248 -0.931167 0
M  V30 4973 H 488.224 -7.61924 -1.29197 0
M  V30 4974 H 486.569 -6.85102 -1.16876 0
M  V30 4975 H 489.76 -4.5567 -1.07158 0
M  V30 4976 H 489.933 -6.36096 -1.23634 0
M  V30 4977 N 483.339 0.512053 -1.4905 0
M  V30 4978 C 484.269 1.62365 -1.67809 0
M  V30 4979 C 485.25 1.61737 -0.526809 0
M  V30 4980 O 486.435 1.78651 -0.761404 0
M  V30 4981 C 483.565 3.00895 -1.73435 0
M  V30 4982 C 482.519 3.16387 -2.88242 0
M  V30 4983 C 481.845 4.56157 -2.78971 0
M  V30 4984 C 483.145 2.97457 -4.29321 0
M  V30 4985 H 484.839 1.46921 -2.60873 0
M  V30 4986 H 482.385 0.705379 -1.2554 0
M  V30 4987 H 484.338 3.78549 -1.85145 0
M  V30 4988 H 483.062 3.17403 -0.769619 0
M  V30 4989 H 481.721 2.41155 -2.76116 0
M  V30 4990 H 481.369 4.69525 -1.8043 0
M  V30 4991 H 481.069 4.67465 -3.5602 0
M  V30 4992 H 482.593 5.35886 -2.92675 0
M  V30 4993 H 484.007 3.64888 -4.42187 0
M  V30 4994 H 482.404 3.20245 -5.07507 0
M  V30 4995 H 483.474 1.93692 -4.44535 0
M  V30 4996 N 484.817 1.37938 0.762283 0
M  V30 4997 C 486.094 1.24196 1.51112 0
M  V30 4998 C 486.474 -0.160409 2.1049 0
M  V30 4999 O 485.822 -1.16904 1.96331 0
M  V30 5000 C 486.032 2.34537 2.58445 0
M  V30 5001 C 487.38 2.7254 3.25588 0
M  V30 5002 O 488.404 2.33783 2.68745 0
M  V30 5003 O 487.263 3.39343 4.28379 0
M  V30 5004 H 484.357 0.485175 0.669727 0
M  V30 5005 H 486.903 1.49743 0.798438 0
M  V30 5006 H 485.675 3.28406 2.12756 0
M  V30 5007 H 485.298 2.10505 3.37303 0
M  V30 5008 N 486.295 -0.989507 1.22664 0
M  V30 5009 C 487.706 -1.54406 1.04955 0
M  V30 5010 C 488.057 -1.92366 -0.385951 0
M  V30 5011 O 487.182 -1.75111 -1.27142 0
M  V30 5012 C 487.777 -2.80578 1.89899 0
M  V30 5013 C 486.336 -3.32464 1.76478 0
M  V30 5014 C 485.483 -2.05524 1.86159 0
M  V30 5015 H 488.434 -0.810211 1.3646 0
M  V30 5016 H 488.455 -3.53075 1.4184 0
M  V30 5017 H 487.967 -2.52918 2.94371 0
M  V30 5018 H 486.068 -3.65024 0.747528 0
M  V30 5019 H 486.181 -4.02838 2.59342 0
M  V30 5020 H 484.545 -2.19241 1.29636 0
M  V30 5021 H 485.328 -1.80258 2.92168 0
M  V30 5022 N 487.773 -1.03688 -1.18687 0
M  V30 5023 C 489.001 -0.757918 -1.92518 0
M  V30 5024 C 489.416 0.684398 -1.75959 0
M  V30 5025 O 488.773 1.46617 -1.08673 0
M  V30 5026 C 488.824 -1.10985 -3.44042 0
M  V30 5027 O 488.545 -2.49554 -3.60076 0
M  V30 5028 C 490.046 -0.854844 -4.3498 0
M  V30 5029 H 487.266 -0.276699 -0.611293 0
M  V30 5030 H 489.81 -1.38352 -1.50595 0
M  V30 5031 H 487.965 -0.529279 -3.83767 0
M  V30 5032 H 488.379 -2.6291 -4.53849 0
M  V30 5033 H 489.853 -1.15098 -5.39867 0
M  V30 5034 H 490.33 0.210507 -4.38695 0
M  V30 5035 H 490.936 -1.41853 -4.00946 0
M  V30 5036 N 489.251 1.34841 -0.815825 0
M  V30 5037 C 490.481 2.02436 -0.412695 0
M  V30 5038 C 490.889 1.61604 0.983906 0
M  V30 5039 O 490.232 0.813729 1.64694 0
M  V30 5040 C 490.294 3.56953 -0.427182 0
M  V30 5041 C 489.958 4.21083 -1.77589 0
M  V30 5042 C 490.955 4.42107 -2.73564 0
M  V30 5043 C 488.64 4.58006 -2.06243 0
M  V30 5044 C 490.634 4.99169 -3.9637 0
M  V30 5045 C 488.321 5.1478 -3.2931 0
M  V30 5046 C 489.319 5.35304 -4.24191 0
M  V30 5047 O 489.007 5.90878 -5.45086 0
M  V30 5048 H 488.739 0.655631 -0.164695 0
M  V30 5049 H 491.293 1.73246 -1.1034 0
M  V30 5050 H 489.523 3.85372 0.320175 0
M  V30 5051 H 491.212 4.05875 -0.0450875 0
M  V30 5052 H 491.978 4.13953 -2.52721 0
M  V30 5053 H 487.857 4.41339 -1.33196 0
M  V30 5054 H 491.401 5.15105 -4.70439 0
M  V30 5055 H 487.298 5.42362 -3.5002 0
M  V30 5056 H 488.066 6.0932 -5.46508 0
M  V30 5057 N 490.729 0.570148 1.46925 0
M  V30 5058 C 491.659 -0.158274 2.32963 0
M  V30 5059 C 492.64 -0.896093 1.44583 0
M  V30 5060 O 493.825 -0.874022 1.7342 0
M  V30 5061 C 490.955 -1.18055 3.26619 0
M  V30 5062 C 489.909 -0.558379 4.24342 0
M  V30 5063 C 489.235 -1.68623 5.07415 0
M  V30 5064 C 490.535 0.496295 5.19937 0
M  V30 5065 H 492.229 0.560046 2.94115 0
M  V30 5066 H 489.775 0.270775 1.41431 0
M  V30 5067 H 491.728 -1.69841 3.85658 0
M  V30 5068 H 490.452 -1.92899 2.63548 0
M  V30 5069 H 489.111 -0.0617157 3.66548 0
M  V30 5070 H 488.759 -2.42402 4.40738 0
M  V30 5071 H 488.459 -1.27564 5.73586 0
M  V30 5072 H 489.983 -2.20709 5.69315 0
M  V30 5073 H 491.397 0.0640052 5.73264 0
M  V30 5074 H 489.794 0.82649 5.94381 0
M  V30 5075 H 490.864 1.38735 4.6463 0
M  V30 5076 N 492.207 -1.54576 0.307264 0
M  V30 5077 C 493.154 -2.23751 -0.56604 0
M  V30 5078 C 494.124 -1.22235 -1.12462 0
M  V30 5079 O 495.309 -1.50873 -1.16799 0
M  V30 5080 C 492.449 -2.98661 -1.72903 0
M  V30 5081 C 491.562 -4.14963 -1.20124 0
M  V30 5082 C 490.697 -4.77441 -2.3286 0
M  V30 5083 C 489.736 -5.85875 -1.77247 0
M  V30 5084 N 488.873 -6.42282 -2.8358 0
M  V30 5085 H 493.713 -2.97984 0.0304578 0
M  V30 5086 H 491.25 -1.47076 0.0268015 0
M  V30 5087 H 493.208 -3.40329 -2.41313 0
M  V30 5088 H 491.838 -2.26793 -2.29706 0
M  V30 5089 H 490.89 -3.78193 -0.409198 0
M  V30 5090 H 492.202 -4.93066 -0.754171 0
M  V30 5091 H 491.356 -5.21993 -3.09205 0
M  V30 5092 H 490.095 -3.98684 -2.80896 0
M  V30 5093 H 489.1 -5.40741 -0.993926 0
M  V30 5094 H 490.325 -6.6652 -1.30107 0
M  V30 5095 H 488.271 -5.66406 -3.30939 0
M  V30 5096 H 488.188 -7.1575 -2.43388 0
M  V30 5097 H 489.456 -6.91492 -3.59804 0
M  V30 5098 N 493.685 -0.035106 -1.57561 0
M  V30 5099 C 494.635 0.954034 -2.0708 0
M  V30 5100 C 495.619 1.2818 -0.972558 0
M  V30 5101 O 496.811 1.26691 -1.23606 0
M  V30 5102 C 493.94 2.23442 -2.60631 0
M  V30 5103 C 493.026 1.93475 -3.77396 0
M  V30 5104 N 493.417 1.33802 -4.87781 0
M  V30 5105 C 491.715 2.23434 -3.85996 0
M  V30 5106 C 492.416 1.21103 -5.68954 0
M  V30 5107 N 491.392 1.70855 -5.16052 0
M  V30 5108 H 495.194 0.487731 -2.89825 0
M  V30 5109 H 492.708 0.169759 -1.6151 0
M  V30 5110 H 494.705 2.95183 -2.94402 0
M  V30 5111 H 493.365 2.70693 -1.79319 0
M  V30 5112 H 494.376 1.01227 -5.07911 0
M  V30 5113 H 491.053 2.73317 -3.15601 0
M  V30 5114 H 492.443 0.749105 -6.67711 0
M  V30 5115 N 495.163 1.55791 0.238111 0
M  V30 5116 C 496.388 1.8244 0.986432 0
M  V30 5117 C 496.813 0.613314 1.7782 0
M  V30 5118 O 496.171 -0.437767 1.75935 0
M  V30 5119 C 496.219 3.06917 1.893 0
M  V30 5120 O 495.323 2.84449 2.98601 0
M  V30 5121 H 494.664 0.601975 0.280218 0
M  V30 5122 H 497.194 2.02987 0.256437 0
M  V30 5123 H 497.204 3.36583 2.30598 0
M  V30 5124 H 495.879 3.947 1.31091 0
M  V30 5125 H 494.456 2.65972 2.61368 0
M  V30 5126 N 496.642 -0.504142 1.49319 0
M  V30 5127 C 497.592 -1.60284 1.62151 0
M  V30 5128 C 498.576 -1.53657 0.477315 0
M  V30 5129 O 499.768 -1.6124 0.730108 0
M  V30 5130 C 496.897 -2.98909 1.68844 0
M  V30 5131 C 495.983 -3.10544 2.8883 0
M  V30 5132 N 496.374 -2.92078 4.12946 0
M  V30 5133 C 494.672 -3.4164 2.86702 0
M  V30 5134 C 495.373 -3.07812 4.93585 0
M  V30 5135 N 494.349 -3.36549 4.26891 0
M  V30 5136 H 498.151 -1.44656 2.55835 0
M  V30 5137 H 495.665 -0.710198 1.46048 0
M  V30 5138 H 497.662 -3.77865 1.76134 0
M  V30 5139 H 496.322 -3.15609 0.762943 0
M  V30 5140 H 497.333 -2.68316 4.42975 0
M  V30 5141 H 494.01 -3.64537 2.03517 0
M  V30 5142 H 495.4 -2.98054 6.02174 0
M  V30 5143 N 498.12 -1.38341 -0.754957 0
M  V30 5144 C 499.052 -1.31347 -1.87831 0
M  V30 5145 C 500.065 -0.225955 -1.61224 0
M  V30 5146 O 501.254 -0.48341 -1.7183 0
M  V30 5147 C 498.354 -1.01201 -3.23437 0
M  V30 5148 C 497.527 -2.20834 -3.77559 0
M  V30 5149 C 496.586 -1.87454 -4.91678 0
M  V30 5150 O 495.612 -2.59934 -5.06382 0
M  V30 5151 N 496.814 -0.828682 -5.74555 0
M  V30 5152 H 499.579 -2.28147 -1.94342 0
M  V30 5153 H 497.14 -1.32184 -0.934828 0
M  V30 5154 H 499.132 -0.769249 -3.97322 0
M  V30 5155 H 497.702 -0.132011 -3.12321 0
M  V30 5156 H 496.922 -2.61184 -2.95256 0
M  V30 5157 H 498.21 -3.00678 -4.10451 0
M  V30 5158 H 497.608 -0.227591 -5.65242 0
M  V30 5159 H 496.165 -0.645802 -6.48593 0
M  V30 5160 N 499.598 0.982988 -1.23187 0
M  V30 5161 C 500.875 1.69814 -0.970707 0
M  V30 5162 C 501.255 2.04811 0.511424 0
M  V30 5163 O 500.603 1.73924 1.48198 0
M  V30 5164 C 500.813 2.94143 -1.87831 0
M  V30 5165 C 502.161 3.66712 -2.14026 0
M  V30 5166 O 503.185 3.04171 -1.8536 0
M  V30 5167 O 502.044 4.79258 -2.62629 0
M  V30 5168 H 499.138 0.741659 -0.365884 0
M  V30 5169 H 501.684 1.03844 -1.34218 0
M  V30 5170 H 500.456 2.64858 -2.88038 0
M  V30 5171 H 500.079 3.6785 -1.50905 0
M  V30 5172 N 501.076 1.04316 1.18135 0
M  V30 5173 C 502.301 0.768047 1.92655 0
M  V30 5174 C 502.726 -0.66904 1.758 0
M  V30 5175 O 502.084 -1.46372 1.06981 0
M  V30 5176 C 502.132 1.14239 3.42026 0
M  V30 5177 O 501.236 0.269333 4.1152 0
M  V30 5178 H 500.577 0.282436 0.600937 0
M  V30 5179 H 503.107 1.39367 1.49793 0
M  V30 5180 H 503.117 1.10538 3.92741 0
M  V30 5181 H 501.792 2.18928 3.53615 0
M  V30 5182 H 500.369 0.366175 3.71098 0
M  V30 5183 N 502.554 -1.34406 0.822964 0
M  V30 5184 C 503.802 -1.97892 0.410245 0
M  V30 5185 C 504.123 -1.65567 -1.03017 0
M  V30 5186 O 503.393 -0.94642 -1.71522 0
M  V30 5187 H 501.973 -0.732049 0.148707 0
M  V30 5188 H 504.635 -1.64043 1.05242 0
M  V30 5189 H 503.731 -3.07579 0.529284 0
M  V30 5190 N 504.032 -0.577932 -1.46621 0
M  V30 5191 C 504.962 0.145917 -2.33044 0
M  V30 5192 C 505.943 0.888412 -1.45056 0
M  V30 5193 O 507.128 0.864812 -1.73881 0
M  V30 5194 C 504.258 1.16322 -3.27241 0
M  V30 5195 C 503.212 0.535868 -4.24632 0
M  V30 5196 C 502.538 1.65929 -5.08303 0
M  V30 5197 C 503.838 -0.523861 -5.19666 0
M  V30 5198 H 505.532 -0.575636 -2.93814 0
M  V30 5199 H 503.078 -0.278272 -1.41286 0
M  V30 5200 H 505.031 1.67793 -3.86553 0
M  V30 5201 H 503.755 1.91498 -2.64567 0
M  V30 5202 H 502.414 0.0422759 -3.66576 0
M  V30 5203 H 502.062 2.40061 -4.42018 0
M  V30 5204 H 501.762 1.2452 -5.74255 0
M  V30 5205 H 503.286 2.17686 -5.70478 0
M  V30 5206 H 504.7 -0.0944059 -5.73222 0
M  V30 5207 H 503.097 -0.858 -5.93935 0
M  V30 5208 H 504.167 -1.41197 -4.63887 0
M  V30 5209 N 505.51 1.54411 -0.315457 0
M  V30 5210 C 506.759 1.99599 0.290395 0
M  V30 5211 C 507.072 1.20746 1.53882 0
M  V30 5212 O 508.278 1.56272 2.22017 0
M  V30 5213 C 506.734 3.5539 0.56797 0
M  V30 5214 C 506.342 4.43068 -0.662945 0
M  V30 5215 C 508.086 4.09067 1.13422 0
M  V30 5216 C 505.993 5.90317 -0.357722 0
M  V30 5217 H 504.923 0.745592 0.112286 0
M  V30 5218 H 507.574 1.78477 -0.426418 0
M  V30 5219 H 505.956 3.72468 1.34476 0
M  V30 5220 H 507.13 4.37765 -1.43869 0
M  V30 5221 H 505.445 4.00238 -1.14884 0
M  V30 5222 H 508.042 5.16663 1.37707 0
M  V30 5223 H 508.385 3.60552 2.08106 0
M  V30 5224 H 508.918 3.95589 0.418805 0
M  V30 5225 H 505.657 6.4301 -1.27351 0
M  V30 5226 H 505.177 5.98592 0.380472 0
M  V30 5227 H 506.856 6.4699 0.0354284 0
M  V30 5228 N 506.988 0.0434614 1.5754 0
M  V30 5229 C 508.216 -0.641835 1.96693 0
M  V30 5230 C 508.631 -1.64832 0.920652 0
M  V30 5231 O 507.988 -1.82247 -0.095993 0
M  V30 5232 C 508.039 -1.33557 3.35924 0
M  V30 5233 O 507.76 -0.369403 4.3654 0
M  V30 5234 C 509.261 -2.11135 3.89791 0
M  V30 5235 H 506.481 -0.176013 0.647503 0
M  V30 5236 H 509.025 0.107478 2.04217 0
M  V30 5237 H 507.18 -2.03617 3.29574 0
M  V30 5238 H 507.594 -0.863674 5.1734 0
M  V30 5239 H 509.068 -2.55107 4.89514 0
M  V30 5240 H 509.545 -2.95634 3.24803 0
M  V30 5241 H 510.151 -1.46002 3.99454 0
M  V30 5242 N 508.466 -1.55915 -0.229846 0
M  V30 5243 C 509.743 -1.6932 -0.979295 0
M  V30 5244 C 510.123 -0.588321 -2.02736 0
M  V30 5245 O 509.471 0.40586 -2.24867 0
M  V30 5246 C 509.681 -3.10305 -1.59724 0
M  V30 5247 C 511.029 -3.6945 -2.09264 0
M  V30 5248 O 512.053 -3.13214 -1.69633 0
M  V30 5249 O 510.912 -4.68072 -2.82082 0
M  V30 5250 H 508.006 -0.689314 -0.456919 0
M  V30 5251 H 510.552 -1.68238 -0.222283 0
M  V30 5252 H 509.324 -3.82177 -0.840039 0
M  V30 5253 H 508.947 -3.1547 -2.42001 0
M  V30 5254 N 509.944 0.496216 -1.49584 0
M  V30 5255 C 511.174 1.27209 -1.62793 0
M  V30 5256 C 511.582 1.86799 -0.300476 0
M  V30 5257 O 510.925 1.68802 0.724674 0
M  V30 5258 C 510.987 2.43812 -2.64189 0
M  V30 5259 C 510.651 2.05055 -4.08414 0
M  V30 5260 C 511.648 1.58752 -4.9507 0
M  V30 5261 C 509.333 2.14543 -4.54177 0
M  V30 5262 C 511.327 1.22448 -6.25528 0
M  V30 5263 C 509.014 1.77851 -5.84647 0
M  V30 5264 C 510.012 1.31878 -6.70147 0
M  V30 5265 O 509.7 0.956834 -7.98185 0
M  V30 5266 H 509.432 0.391848 -0.550846 0
M  V30 5267 H 511.986 0.601712 -1.96389 0
M  V30 5268 H 510.216 3.13941 -2.25783 0
M  V30 5269 H 511.905 3.05829 -2.66877 0
M  V30 5270 H 512.671 1.50863 -4.60939 0
M  V30 5271 H 508.55 2.49277 -3.87791 0
M  V30 5272 H 512.094 0.864933 -6.92217 0
M  V30 5273 H 507.991 1.8539 -6.18305 0
M  V30 5274 H 508.759 1.08789 -8.11238 0
M  V30 5275 N 511.423 1.38739 0.74761 0
M  V30 5276 C 512.839 1.20067 1.05148 0
M  V30 5277 C 513.039 0.0534835 2.01429 0
M  V30 5278 O 512.095 -0.59886 2.45296 0
M  V30 5279 C 513.408 2.52957 1.62584 0
M  V30 5280 C 514.956 2.59692 1.74726 0
M  V30 5281 C 515.431 3.92772 2.35573 0
M  V30 5282 N 516.922 3.94343 2.42997 0
M  V30 5283 C 517.657 4.9408 2.90985 0
M  V30 5284 N 517.153 6.04214 3.38965 0
M  V30 5285 N 518.946 4.81466 2.9008 0
M  V30 5286 H 511.097 2.12121 0.108808 0
M  V30 5287 H 513.36 0.941491 0.110899 0
M  V30 5288 H 513.066 3.37389 0.993051 0
M  V30 5289 H 512.94 2.71779 2.61565 0
M  V30 5290 H 515.327 1.75651 2.3713 0
M  V30 5291 H 515.408 2.44731 0.744326 0
M  V30 5292 H 515.052 4.77238 1.738 0
M  V30 5293 H 514.982 4.05046 3.36519 0
M  V30 5294 H 517.473 3.14799 2.0907 0
M  V30 5295 H 517.786 6.76241 3.74056 0
M  V30 5296 H 516.131 6.07825 3.37007 0
M  V30 5297 H 519.322 3.94535 2.51912 0
M  V30 5298 H 519.495 5.59344 3.27166 0
M  V30 5299 N 512.901 -0.976442 1.23707 0
M  V30 5300 C 513.851 -2.0544 0.988851 0
M  V30 5301 C 514.835 -1.60762 -0.0665901 0
M  V30 5302 O 516.027 -1.76396 0.14604 0
M  V30 5303 C 513.156 -3.38258 0.586223 0
M  V30 5304 C 512.242 -3.89523 1.67728 0
M  V30 5305 N 512.633 -4.13823 2.90834 0
M  V30 5306 C 510.931 -4.18097 1.55277 0
M  V30 5307 C 511.632 -4.55731 3.61502 0
M  V30 5308 N 510.608 -4.60394 2.8903 0
M  V30 5309 H 514.41 -2.22191 1.92376 0
M  V30 5310 H 511.924 -1.15954 1.13704 0
M  V30 5311 H 513.921 -4.15075 0.389658 0
M  V30 5312 H 512.581 -3.22898 -0.341594 0
M  V30 5313 H 513.592 -4.01529 3.271 0
M  V30 5314 H 510.269 -4.11719 0.692351 0
M  V30 5315 H 511.659 -4.83018 4.67059 0
M  V30 5316 N 514.379 -1.04941 -1.1758 0
M  V30 5317 C 515.625 -0.768896 -1.88307 0
M  V30 5318 C 515.98 0.696361 -1.79356 0
M  V30 5319 O 515.273 1.50245 -1.18899 0
M  V30 5320 C 515.467 -1.18062 -3.37337 0
M  V30 5321 C 515.296 -2.68436 -3.60794 0
M  V30 5322 C 514.066 -3.35709 -3.77661 0
M  V30 5323 C 516.264 -3.66657 -3.60649 0
M  V30 5324 N 514.246 -4.74974 -3.88939 0
M  V30 5325 C 515.617 -4.91638 -3.77747 0
M  V30 5326 C 517.672 -3.60162 -3.43785 0
M  V30 5327 C 516.375 -6.10902 -3.79726 0
M  V30 5328 C 518.401 -4.78863 -3.47051 0
M  V30 5329 C 517.763 -6.02666 -3.64654 0
M  V30 5330 H 513.862 -0.33355 -0.707296 0
M  V30 5331 H 516.446 -1.34085 -1.41171 0
M  V30 5332 H 514.617 -0.636648 -3.83147 0
M  V30 5333 H 516.349 -0.8502 -3.95669 0
M  V30 5334 H 513.104 -2.8611 -3.77409 0
M  V30 5335 H 513.528 -5.47378 -3.98379 0
M  V30 5336 H 518.17 -2.65412 -3.29114 0
M  V30 5337 H 515.888 -7.05998 -3.93182 0
M  V30 5338 H 519.474 -4.75488 -3.35265 0
M  V30 5339 H 518.354 -6.92979 -3.67083 0
M  V30 5340 N 515.857 1.33968 -0.830081 0
M  V30 5341 C 516.789 2.28194 -0.21448 0
M  V30 5342 C 517.802 1.5135 0.599752 0
M  V30 5343 O 518.991 1.73286 0.42826 0
M  V30 5344 C 516.091 3.31221 0.717356 0
M  V30 5345 C 515.264 4.37365 -0.055613 0
M  V30 5346 C 514.323 5.2011 0.798231 0
M  V30 5347 O 513.349 5.68691 0.240616 0
M  V30 5348 N 514.551 5.40523 2.11695 0
M  V30 5349 H 517.316 2.81662 -1.02405 0
M  V30 5350 H 514.877 1.46568 -0.687713 0
M  V30 5351 H 516.869 3.83477 1.29334 0
M  V30 5352 H 515.439 2.78095 1.42765 0
M  V30 5353 H 514.659 3.85727 -0.812936 0
M  V30 5354 H 515.947 5.05397 -0.587444 0
M  V30 5355 H 515.345 5.0274 2.59363 0
M  V30 5356 H 513.902 5.95871 2.64162 0
M  V30 5357 N 517.335 0.585699 1.46312 0
M  V30 5358 C 518.584 0.0701192 2.01578 0
M  V30 5359 C 518.897 -1.29889 1.46247 0
M  V30 5360 O 520.103 -1.90598 1.93351 0
M  V30 5361 C 518.559 0.0747499 3.59822 0
M  V30 5362 C 518.167 1.44226 4.24149 0
M  V30 5363 C 519.911 -0.38673 4.22735 0
M  V30 5364 C 517.818 1.40446 5.74481 0
M  V30 5365 H 516.748 0.0224441 0.753666 0
M  V30 5366 H 519.399 0.737789 1.68015 0
M  V30 5367 H 517.781 -0.659144 3.90476 0
M  V30 5368 H 518.955 2.19612 4.05101 0
M  V30 5369 H 517.27 1.84401 3.73343 0
M  V30 5370 H 519.867 -0.433853 5.32937 0
M  V30 5371 H 520.21 -1.40489 3.91878 0
M  V30 5372 H 520.743 0.293195 3.96718 0
M  V30 5373 H 517.482 2.39952 6.10003 0
M  V30 5374 H 517.002 0.692845 5.95785 0
M  V30 5375 H 518.681 1.11865 6.37256 0
M  V30 5376 N 518.813 -1.54241 0.323641 0
M  V30 5377 C 520.224 -1.85975 -0.164405 0
M  V30 5378 C 520.575 -1.24529 -1.51615 0
M  V30 5379 O 519.7 -0.551351 -2.09258 0
M  V30 5380 C 520.295 -3.37424 -0.305091 0
M  V30 5381 C 518.854 -3.69107 -0.737358 0
M  V30 5382 C 518.001 -2.76942 0.140884 0
M  V30 5383 H 520.952 -1.49088 0.543922 0
M  V30 5384 H 520.973 -3.63147 -1.13598 0
M  V30 5385 H 520.485 -3.82116 0.678876 0
M  V30 5386 H 518.586 -3.29947 -1.73107 0
M  V30 5387 H 518.699 -4.76035 -0.541053 0
M  V30 5388 H 517.063 -2.51795 -0.383572 0
M  V30 5389 H 517.846 -3.24461 1.12162 0
M  V30 5390 N 520.291 -0.0518155 -1.57515 0
M  V30 5391 C 521.221 0.920283 -2.146 0
M  V30 5392 C 522.202 1.32406 -1.06783 0
M  V30 5393 O 523.387 1.39866 -1.34726 0
M  V30 5394 C 520.517 2.1949 -2.6915 0
M  V30 5395 C 519.471 1.93116 -3.81956 0
M  V30 5396 C 518.797 3.27037 -4.23026 0
M  V30 5397 C 520.097 1.25225 -5.07066 0
M  V30 5398 H 521.791 0.444801 -2.96077 0
M  V30 5399 H 519.337 0.212508 -1.42423 0
M  V30 5400 H 521.29 2.87894 -3.07725 0
M  V30 5401 H 520.014 2.69244 -1.84865 0
M  V30 5402 H 518.673 1.27123 -3.43854 0
M  V30 5403 H 518.321 3.74595 -3.3569 0
M  V30 5404 H 518.021 3.10189 -4.99056 0
M  V30 5405 H 519.545 3.96673 -4.64202 0
M  V30 5406 H 520.959 1.83666 -5.43083 0
M  V30 5407 H 519.356 1.18702 -5.88243 0
M  V30 5408 H 520.426 0.228382 -4.84362 0
M  V30 5409 N 521.769 1.56035 0.221574 0
M  V30 5410 C 523.017 1.78693 0.944102 0
M  V30 5411 C 523.338 0.620317 1.8487 0
M  V30 5412 O 522.608 -0.362784 1.92512 0
M  V30 5413 H 521.188 0.659082 0.351597 0
M  V30 5414 H 523.85 1.93497 0.233435 0
M  V30 5415 H 522.946 2.70837 1.55093 0
M  V30 5416 N 523.247 -0.488276 1.49845 0
M  V30 5417 C 524.663 -0.820566 1.3689 0
M  V30 5418 C 524.863 -1.97248 0.411752 0
M  V30 5419 O 523.919 -2.52042 -0.151931 0
M  V30 5420 C 525.232 -1.1488 2.77891 0
M  V30 5421 C 526.78 -1.25626 2.86683 0
M  V30 5422 C 527.255 -1.61772 4.28479 0
M  V30 5423 N 528.746 -1.68797 4.31349 0
M  V30 5424 C 529.481 -1.98235 5.38043 0
M  V30 5425 N 528.977 -2.2581 6.54967 0
M  V30 5426 N 530.77 -1.99593 5.2547 0
M  V30 5427 H 522.921 0.271123 2.10662 0
M  V30 5428 H 525.184 0.058735 0.946179 0
M  V30 5429 H 524.89 -0.375614 3.49688 0
M  V30 5430 H 524.764 -2.08919 3.14058 0
M  V30 5431 H 527.151 -2.02014 2.15114 0
M  V30 5432 H 527.232 -0.296072 2.54081 0
M  V30 5433 H 526.876 -0.859295 5.00578 0
M  V30 5434 H 526.806 -2.58912 4.58554 0
M  V30 5435 H 529.297 -1.49595 3.4703 0
M  V30 5436 H 529.61 -2.47497 7.32096 0
M  V30 5437 H 527.955 -2.23239 6.58171 0
M  V30 5438 H 531.146 -1.77535 4.33127 0
M  V30 5439 H 531.319 -2.222 6.08713 0
M  V30 5440 N 524.725 -1.39134 -0.740242 0
M  V30 5441 C 526.141 -1.20623 -1.0451 0
M  V30 5442 C 526.341 -0.0641651 -2.01398 0
M  V30 5443 O 525.397 0.585843 -2.4561 0
M  V30 5444 C 526.71 -2.53815 -1.6124 0
M  V30 5445 C 528.258 -2.60615 -1.73346 0
M  V30 5446 C 528.733 -3.94015 -2.33486 0
M  V30 5447 N 530.224 -3.95627 -2.40902 0
M  V30 5448 C 530.959 -4.95616 -2.88361 0
M  V30 5449 N 530.455 -6.06003 -3.35756 0
M  V30 5450 N 532.248 -4.82998 -2.87523 0
M  V30 5451 H 524.399 -2.12176 -0.0975576 0
M  V30 5452 H 526.662 -0.942066 -0.105904 0
M  V30 5453 H 526.368 -3.37911 -0.975144 0
M  V30 5454 H 526.242 -2.73162 -2.6012 0
M  V30 5455 H 528.629 -1.76906 -2.36195 0
M  V30 5456 H 528.71 -2.45123 -0.731336 0
M  V30 5457 H 528.354 -4.78153 -1.71267 0
M  V30 5458 H 528.284 -4.06825 -3.34366 0
M  V30 5459 H 530.775 -3.15903 -2.07398 0
M  V30 5460 H 531.088 -6.78215 -3.70464 0
M  V30 5461 H 529.433 -6.09604 -3.33778 0
M  V30 5462 H 532.624 -3.95866 -2.49816 0
M  V30 5463 H 532.797 -5.61072 -3.24196 0
M  V30 5464 N 526.204 0.969867 -1.24223 0
M  V30 5465 C 527.451 1.71256 -1.08063 0
M  V30 5466 C 527.779 1.90734 0.380872 0
M  V30 5467 O 527.034 1.46469 1.29789 0
M  V30 5468 C 527.333 3.10883 -1.76314 0
M  V30 5469 C 526.999 3.11252 -3.26241 0
M  V30 5470 C 525.661 3.1106 -3.67144 0
M  V30 5471 C 528.013 3.05751 -4.22097 0
M  V30 5472 C 525.341 3.03097 -5.02344 0
M  V30 5473 C 527.693 2.9933 -5.57301 0
M  V30 5474 C 526.357 2.97466 -5.97554 0
M  V30 5475 H 525.627 0.62667 -0.395431 0
M  V30 5476 H 528.274 1.13422 -1.54297 0
M  V30 5477 H 526.579 3.72168 -1.22468 0
M  V30 5478 H 528.276 3.67138 -1.61277 0
M  V30 5479 H 524.866 3.12165 -2.93685 0
M  V30 5480 H 529.05 3.05031 -3.91497 0
M  V30 5481 H 524.306 3.00013 -5.32731 0
M  V30 5482 H 528.48 2.94033 -6.31283 0
M  V30 5483 H 526.107 2.91051 -7.02277 0
M  V30 5484 N 527.682 1.05563 1.17022 0
M  V30 5485 C 529.098 0.777684 1.39371 0
M  V30 5486 C 529.298 -0.626269 1.91521 0
M  V30 5487 O 528.354 -1.38806 2.10924 0
M  V30 5488 C 529.667 1.83642 2.3811 0
M  V30 5489 C 531.215 1.85907 2.51809 0
M  V30 5490 C 531.69 2.90813 3.53824 0
M  V30 5491 N 533.181 2.898 3.61345 0
M  V30 5492 C 533.916 3.6762 4.40049 0
M  V30 5493 N 533.412 4.55237 5.22237 0
M  V30 5494 N 535.205 3.56044 4.34959 0
M  V30 5495 H 527.356 1.9614 0.815047 0
M  V30 5496 H 529.619 0.849527 0.420722 0
M  V30 5497 H 529.325 2.84425 2.06871 0
M  V30 5498 H 529.199 1.6812 3.37662 0
M  V30 5499 H 531.586 0.857865 2.82356 0
M  V30 5500 H 531.667 2.05506 1.52318 0
M  V30 5501 H 531.311 3.91122 3.24015 0
M  V30 5502 H 531.241 2.68465 4.53028 0
M  V30 5503 H 533.732 2.26274 3.02669 0
M  V30 5504 H 534.045 5.11291 5.79484 0
M  V30 5505 H 532.39 4.59296 5.21605 0
M  V30 5506 H 535.581 2.86986 3.69806 0
M  V30 5507 H 535.754 4.16938 4.96051 0
M  V30 5508 N 529.16 -1.33526 0.837174 0
M  V30 5509 C 530.385 -2.0258 0.444545 0
M  V30 5510 C 530.81 -1.6258 -0.946006 0
M  V30 5511 O 530.168 -0.817548 -1.6182 0
M  V30 5512 C 530.216 -3.5605 0.571006 0
M  V30 5513 O 529.32 -4.10422 -0.403431 0
M  V30 5514 H 528.661 -0.638866 0.180958 0
M  V30 5515 H 531.191 -1.70462 1.13154 0
M  V30 5516 H 531.201 -4.05488 0.452024 0
M  V30 5517 H 529.876 -3.84509 1.58512 0
M  V30 5518 H 528.453 -3.72113 -0.242147 0
M  V30 5519 N 530.638 -0.59345 -1.46 0
M  V30 5520 C 531.568 0.121192 -2.33185 0
M  V30 5521 C 532.549 0.872977 -1.4599 0
M  V30 5522 O 533.734 0.846321 -1.74789 0
M  V30 5523 C 530.864 1.12844 -3.28456 0
M  V30 5524 C 529.818 0.4908 -4.25177 0
M  V30 5525 C 529.144 1.60529 -5.10034 0
M  V30 5526 C 530.444 -0.578949 -5.19081 0
M  V30 5527 H 532.138 -0.606767 -2.93187 0
M  V30 5528 H 529.684 -0.293242 -1.40983 0
M  V30 5529 H 531.637 1.63684 -3.88311 0
M  V30 5530 H 530.361 1.88681 -2.66584 0
M  V30 5531 H 529.02 0.00339328 -3.666 0
M  V30 5532 H 528.668 2.35359 -4.44539 0
M  V30 5533 H 528.368 1.18422 -5.75543 0
M  V30 5534 H 529.892 2.11623 -5.72755 0
M  V30 5535 H 531.306 -0.155199 -5.7309 0
M  V30 5536 H 529.703 -0.920947 -5.92991 0
M  V30 5537 H 530.773 -1.46109 -4.62364 0
M  V30 5538 N 532.116 1.54067 -0.331816 0
M  V30 5539 C 533.063 2.24623 0.530372 0
M  V30 5540 C 534.033 1.24009 1.10503 0
M  V30 5541 O 535.218 1.52712 1.14384 0
M  V30 5542 C 532.358 3.01374 1.68129 0
M  V30 5543 C 531.471 4.16821 1.13507 0
M  V30 5544 C 530.606 4.81085 2.25234 0
M  V30 5545 C 529.645 5.88621 1.67903 0
M  V30 5546 N 528.782 6.46713 2.73326 0
M  V30 5547 H 533.622 2.97898 -0.0778607 0
M  V30 5548 H 531.159 1.47014 -0.0501965 0
M  V30 5549 H 533.117 3.44125 2.35868 0
M  V30 5550 H 531.747 2.30419 2.26069 0
M  V30 5551 H 530.799 3.78796 0.348979 0
M  V30 5552 H 532.111 4.94203 0.675633 0
M  V30 5553 H 531.265 5.26846 3.00862 0
M  V30 5554 H 530.004 4.03102 2.74518 0
M  V30 5555 H 529.009 5.42254 0.907773 0
M  V30 5556 H 530.234 6.68506 1.19487 0
M  V30 5557 H 528.18 5.71599 3.21886 0
M  V30 5558 H 528.097 7.19532 2.3197 0
M  V30 5559 H 529.365 6.97129 3.48758 0
M  V30 5560 N 533.594 0.0601682 1.57485 0
M  V30 5561 C 534.527 -0.94676 2.07634 0
M  V30 5562 C 535.505 -1.29837 0.978826 0
M  V30 5563 O 536.689 -1.40969 1.2514 0
M  V30 5564 C 533.816 -2.25822 2.52433 0
M  V30 5565 C 532.862 -2.05901 3.73507 0
M  V30 5566 S 533.695 -1.32907 5.18745 0
M  V30 5567 C 534.851 -2.65356 5.66866 0
M  V30 5568 H 535.084 -0.520003 2.92717 0
M  V30 5569 H 532.617 -0.152319 1.53647 0
M  V30 5570 H 534.575 -3.01201 2.78905 0
M  V30 5571 H 533.236 -2.65624 1.67639 0
M  V30 5572 H 532.429 -3.02929 4.02803 0
M  V30 5573 H 532.031 -1.38659 3.47347 0
M  V30 5574 H 534.323 -3.61492 5.73001 0
M  V30 5575 H 535.266 -2.40685 6.6594 0
M  V30 5576 H 535.674 -2.72028 4.94632 0
M  V30 5577 N 535.072 -1.5615 -0.213296 0
M  V30 5578 C 536.318 -1.80718 -0.933402 0
M  V30 5579 C 536.673 -0.634441 -1.81639 0
M  V30 5580 O 535.966 0.371182 -1.8797 0
M  V30 5581 C 536.16 -3.08772 -1.79985 0
M  V30 5582 C 535.989 -4.38389 -1.00224 0
M  V30 5583 C 534.759 -5.00513 -0.693885 0
M  V30 5584 C 536.957 -5.13013 -0.363598 0
M  V30 5585 N 534.939 -6.13774 0.124266 0
M  V30 5586 C 536.31 -6.19186 0.31757 0
M  V30 5587 C 538.365 -4.97126 -0.277468 0
M  V30 5588 C 537.068 -7.11197 1.07664 0
M  V30 5589 C 539.094 -5.89544 0.468155 0
M  V30 5590 C 538.456 -6.95149 1.13784 0
M  V30 5591 H 534.555 -0.712833 -0.321549 0
M  V30 5592 H 537.139 -1.93633 -0.203588 0
M  V30 5593 H 535.31 -2.97126 -2.50142 0
M  V30 5594 H 537.042 -3.21499 -2.45806 0
M  V30 5595 H 533.797 -4.62619 -1.01391 0
M  V30 5596 H 534.221 -6.74981 0.522418 0
M  V30 5597 H 538.863 -4.15526 -0.78087 0
M  V30 5598 H 536.581 -7.92273 1.59153 0
M  V30 5599 H 540.167 -5.79327 0.535911 0
M  V30 5600 H 539.047 -7.65428 1.70557 0
M  V30 5601 N 536.55 0.480323 -1.50102 0
M  V30 5602 C 537.797 1.23307 -1.60629 0
M  V30 5603 C 538.125 1.92135 -0.302375 0
M  V30 5604 O 537.38 1.82321 0.711154 0
M  V30 5605 C 537.679 2.30708 -2.72963 0
M  V30 5606 C 537.345 1.79195 -4.13763 0
M  V30 5607 C 536.007 1.64867 -4.52076 0
M  V30 5608 C 538.359 1.40878 -5.018 0
M  V30 5609 C 535.687 1.10631 -5.76175 0
M  V30 5610 C 538.039 0.880872 -6.26437 0
M  V30 5611 C 536.703 0.724146 -6.6356 0
M  V30 5612 H 535.973 0.451211 -0.587784 0
M  V30 5613 H 538.62 0.53051 -1.84005 0
M  V30 5614 H 536.925 3.06834 -2.43639 0
M  V30 5615 H 538.622 2.88692 -2.78313 0
M  V30 5616 H 535.212 1.91313 -3.83533 0
M  V30 5617 H 539.396 1.50786 -4.7284 0
M  V30 5618 H 534.652 0.972263 -6.0362 0
M  V30 5619 H 538.826 0.575269 -6.9402 0
M  V30 5620 H 536.453 0.301722 -7.59601 0
M  V30 5621 N 538.028 1.39524 0.732853 0
M  V30 5622 C 539.274 1.37068 1.49467 0
M  V30 5623 C 539.607 -0.0327166 1.94172 0
M  V30 5624 O 538.882 -0.998071 1.66939 0
M  V30 5625 C 539.165 2.34494 2.73285 0
M  V30 5626 C 539.018 3.83784 2.34585 0
M  V30 5627 C 540.337 2.29717 3.75391 0
M  V30 5628 H 537.456 0.499206 0.542183 0
M  V30 5629 H 540.098 1.70532 0.837783 0
M  V30 5630 H 538.248 2.06087 3.29333 0
M  V30 5631 H 539.92 4.22949 1.84151 0
M  V30 5632 H 538.163 4.00455 1.66787 0
M  V30 5633 H 538.834 4.47444 3.23262 0
M  V30 5634 H 541.31 2.54839 3.28932 0
M  V30 5635 H 540.186 2.99962 4.59689 0
M  V30 5636 H 540.447 1.30291 4.22465 0
M  V30 5637 N 539.506 -0.963266 1.24736 0
M  V30 5638 C 540.753 -1.7068 1.0897 0
M  V30 5639 C 541.081 -1.90934 -0.370751 0
M  V30 5640 O 540.336 -1.47155 -1.29011 0
M  V30 5641 C 540.635 -3.09944 1.7796 0
M  V30 5642 C 540.301 -3.09518 3.27887 0
M  V30 5643 C 538.963 -3.09109 3.68789 0
M  V30 5644 C 541.315 -3.03509 4.23712 0
M  V30 5645 C 538.643 -3.00429 5.03944 0
M  V30 5646 C 540.995 -2.96371 5.5888 0
M  V30 5647 C 539.659 -2.94293 5.99123 0
M  V30 5648 H 538.929 -0.624564 0.398749 0
M  V30 5649 H 541.576 -1.12603 1.54896 0
M  V30 5650 H 539.881 -3.71513 1.2444 0
M  V30 5651 H 541.578 -3.66278 1.63222 0
M  V30 5652 H 538.168 -3.10603 2.95337 0
M  V30 5653 H 542.352 -3.0295 3.93109 0
M  V30 5654 H 537.608 -2.97183 5.34314 0
M  V30 5655 H 541.782 -2.90681 6.32833 0
M  V30 5656 H 539.409 -2.87322 7.03811 0
M  V30 5657 N 540.985 -1.06182 -1.16461 0
M  V30 5658 C 542.401 -0.785065 -1.38956 0
M  V30 5659 C 542.601 0.616103 -1.9185 0
M  V30 5660 O 541.657 1.37686 -2.11657 0
M  V30 5661 C 542.97 -1.84902 -2.37132 0
M  V30 5662 C 544.518 -1.8724 -2.50819 0
M  V30 5663 C 544.993 -2.92686 -3.52277 0
M  V30 5664 N 546.484 -2.91712 -3.59803 0
M  V30 5665 C 547.219 -3.69949 -4.38093 0
M  V30 5666 N 546.715 -4.58 -5.19815 0
M  V30 5667 N 548.508 -3.58346 -4.33064 0
M  V30 5668 H 540.659 -1.96569 -0.804634 0
M  V30 5669 H 542.922 -0.851747 -0.416211 0
M  V30 5670 H 542.628 -2.85518 -2.0536 0
M  V30 5671 H 542.502 -1.69908 -3.36766 0
M  V30 5672 H 544.889 -0.872827 -2.81897 0
M  V30 5673 H 544.97 -2.06311 -1.51226 0
M  V30 5674 H 544.614 -3.92835 -3.21937 0
M  V30 5675 H 544.544 -2.70864 -4.51598 0
M  V30 5676 H 547.035 -2.27876 -3.01464 0
M  V30 5677 H 547.348 -5.14357 -5.76764 0
M  V30 5678 H 545.693 -4.62056 -5.19162 0
M  V30 5679 H 548.884 -2.88943 -3.68279 0
M  V30 5680 H 549.057 -4.19563 -4.93833 0
M  V30 5681 N 542.463 1.3308 -0.844243 0
M  V30 5682 C 543.396 2.27075 -0.226279 0
M  V30 5683 C 544.374 1.49911 0.629716 0
M  V30 5684 O 545.558 1.79068 0.588803 0
M  V30 5685 C 542.685 3.31767 0.681782 0
M  V30 5686 C 541.731 4.26384 -0.0994565 0
M  V30 5687 S 542.564 5.15186 -1.46094 0
M  V30 5688 C 543.72 6.23405 -0.558319 0
M  V30 5689 H 543.953 2.79141 -1.02312 0
M  V30 5690 H 541.486 1.40452 -0.641292 0
M  V30 5691 H 543.444 3.92566 1.20008 0
M  V30 5692 H 542.105 2.78507 1.45234 0
M  V30 5693 H 541.298 5.00514 0.591733 0
M  V30 5694 H 540.9 3.69949 -0.548991 0
M  V30 5695 H 543.192 6.77069 0.241672 0
M  V30 5696 H 544.135 6.96619 -1.26995 0
M  V30 5697 H 544.543 5.64333 -0.13728 0
M  V30 5698 N 543.941 0.601185 1.45683 0
M  V30 5699 C 545.171 0.0999093 2.06358 0
M  V30 5700 C 545.579 -1.21831 1.44754 0
M  V30 5701 O 544.922 -1.75157 0.553695 0
M  V30 5702 C 544.984 -0.12085 3.59297 0
M  V30 5703 C 544.648 1.11459 4.432 0
M  V30 5704 C 545.645 2.03118 4.7858 0
M  V30 5705 C 543.33 1.34162 4.84051 0
M  V30 5706 C 545.324 3.15814 5.53661 0
M  V30 5707 C 543.011 2.4716 5.58888 0
M  V30 5708 C 544.009 3.37814 5.93608 0
M  V30 5709 O 543.697 4.48846 6.66928 0
M  V30 5710 H 543.429 0.0630316 0.673055 0
M  V30 5711 H 545.983 0.826982 1.88016 0
M  V30 5712 H 544.213 -0.902744 3.76015 0
M  V30 5713 H 545.902 -0.572925 4.01836 0
M  V30 5714 H 546.668 1.86801 4.47583 0
M  V30 5715 H 542.547 0.645018 4.56465 0
M  V30 5716 H 546.091 3.86596 5.8068 0
M  V30 5717 H 541.988 2.63432 5.89299 0
M  V30 5718 H 542.756 4.47446 6.85371 0
M  V30 5719 N 545.419 -1.53889 0.339982 0
M  V30 5720 C 546.667 -2.00458 -0.257112 0
M  V30 5721 C 546.988 -1.22953 -1.51353 0
M  V30 5722 O 546.258 -0.335734 -1.93002 0
M  V30 5723 H 544.838 -0.740544 -0.0979965 0
M  V30 5724 H 547.5 -1.89386 0.460317 0
M  V30 5725 H 546.596 -3.08035 -0.502057 0
M  V30 5726 N 546.897 -0.0685191 -1.57451 0
M  V30 5727 C 548.143 0.602239 -1.93652 0
M  V30 5728 C 548.476 1.6946 -0.948526 0
M  V30 5729 O 547.751 1.94487 0.022782 0
M  V30 5730 C 548.034 1.18223 -3.4014 0
M  V30 5731 C 547.887 0.0967431 -4.49696 0
M  V30 5732 C 549.206 2.08872 -3.87377 0
M  V30 5733 H 546.325 0.217453 -0.70419 0
M  V30 5734 H 548.967 -0.133821 -1.89528 0
M  V30 5735 H 547.117 1.80953 -3.43785 0
M  V30 5736 H 548.789 -0.536155 -4.58174 0
M  V30 5737 H 547.032 -0.573063 -4.29998 0
M  V30 5738 H 547.703 0.542894 -5.49324 0
M  V30 5739 H 550.179 1.56081 -3.85717 0
M  V30 5740 H 549.055 2.46389 -4.90493 0
M  V30 5741 H 549.316 2.99572 -3.25129 0
M  V30 5742 N 548.375 1.56261 0.205012 0
M  V30 5743 C 549.322 1.93754 1.25411 0
M  V30 5744 C 550.292 0.796826 1.45739 0
M  V30 5745 O 551.477 1.05414 1.59036 0
M  V30 5746 C 548.617 2.27383 2.59598 0
M  V30 5747 C 547.73 3.5447 2.46931 0
M  V30 5748 C 546.865 3.77468 3.73753 0
M  V30 5749 C 545.904 4.98014 3.55877 0
M  V30 5750 N 545.041 5.17316 4.74688 0
M  V30 5751 H 549.881 2.83203 0.92737 0
M  V30 5752 H 547.418 1.40158 0.446574 0
M  V30 5753 H 549.376 2.44895 3.37761 0
M  V30 5754 H 548.006 1.41088 2.90335 0
M  V30 5755 H 547.058 3.45061 1.60116 0
M  V30 5756 H 548.37 4.42789 2.29651 0
M  V30 5757 H 547.524 3.95165 4.60358 0
M  V30 5758 H 546.263 2.87461 3.93976 0
M  V30 5759 H 545.268 4.80249 2.67657 0
M  V30 5760 H 546.493 5.8952 3.37109 0
M  V30 5761 H 544.439 4.30255 4.95194 0
M  V30 5762 H 544.356 5.99796 4.60197 0
M  V30 5763 H 545.624 5.39463 5.62672 0
M  V30 5764 N 549.853 -0.472356 1.50355 0
M  V30 5765 C 551.101 -1.22211 1.60962 0
M  V30 5766 C 551.422 -1.92497 0.311439 0
M  V30 5767 O 550.692 -1.8405 -0.671002 0
M  V30 5768 H 549.272 -0.454092 0.593135 0
M  V30 5769 H 551.934 -0.544977 1.87126 0
M  V30 5770 H 551.03 -1.9707 2.42012 0
M  V30 5771 N 551.331 -1.39911 -0.725443 0
M  V30 5772 C 552.261 -1.42138 -1.85254 0
M  V30 5773 C 553.242 -0.283513 -1.67721 0
M  V30 5774 O 554.427 -0.490717 -1.87898 0
M  V30 5775 C 551.557 -1.27354 -3.23107 0
M  V30 5776 C 550.511 -2.3864 -3.55296 0
M  V30 5777 C 549.837 -2.08939 -4.92188 0
M  V30 5778 C 551.137 -3.8097 -3.57295 0
M  V30 5779 H 552.831 -2.36461 -1.83648 0
M  V30 5780 H 550.377 -1.13817 -0.882138 0
M  V30 5781 H 552.33 -1.2753 -4.01639 0
M  V30 5782 H 551.054 -0.295025 -3.25265 0
M  V30 5783 H 549.713 -2.37696 -2.79099 0
M  V30 5784 H 549.361 -1.09502 -4.90936 0
M  V30 5785 H 549.061 -2.83491 -5.14691 0
M  V30 5786 H 550.585 -2.10781 -5.73065 0
M  V30 5787 H 551.999 -3.8379 -4.25885 0
M  V30 5788 H 550.396 -4.5496 -3.9132 0
M  V30 5789 H 551.466 -4.11261 -2.5689 0
M  V30 5790 N 552.809 0.956637 -1.25245 0
M  V30 5791 C 553.741 2.05628 -1.01242 0
M  V30 5792 C 554.754 1.62785 0.0219579 0
M  V30 5793 O 555.943 1.77184 -0.216365 0
M  V30 5794 C 553.043 3.35069 -0.508161 0
M  V30 5795 C 552.216 4.06761 -1.60823 0
M  V30 5796 C 551.275 5.14473 -1.1047 0
M  V30 5797 O 550.301 5.40033 -1.79868 0
M  V30 5798 N 551.503 5.80474 0.0550773 0
M  V30 5799 H 554.268 2.2679 -1.95925 0
M  V30 5800 H 551.829 1.12505 -1.16423 0
M  V30 5801 H 553.821 4.044 -0.155819 0
M  V30 5802 H 552.391 3.10694 0.344683 0
M  V30 5803 H 551.611 3.31555 -2.13224 0
M  V30 5804 H 552.899 4.51418 -2.34733 0
M  V30 5805 H 552.297 5.62125 0.635004 0
M  V30 5806 H 550.854 6.50868 0.348469 0
M  V30 5807 N 554.287 1.06798 1.15896 0
M  V30 5808 C 555.25 0.687328 2.18651 0
M  V30 5809 C 556.25 -0.269559 1.58524 0
M  V30 5810 O 557.44 -0.0512627 1.74125 0
M  V30 5811 C 554.572 0.0121642 3.40898 0
M  V30 5812 H 555.765 1.59701 2.53842 0
M  V30 5813 H 553.318 0.863828 1.3026 0
M  V30 5814 H 554.053 -0.910025 3.1127 0
M  V30 5815 H 553.838 0.700309 3.85795 0
M  V30 5816 H 555.328 -0.239703 4.16911 0
M  V30 5817 N 555.766 -1.3263 0.851289 0
M  V30 5818 C 556.996 -2.01271 0.466222 0
M  V30 5819 C 557.404 -1.64156 -0.940714 0
M  V30 5820 O 556.747 -0.857109 -1.62479 0
M  V30 5821 C 556.809 -3.55695 0.521672 0
M  V30 5822 C 556.473 -4.16227 1.88691 0
M  V30 5823 C 557.47 -4.34699 2.85189 0
M  V30 5824 C 555.155 -4.52377 2.18313 0
M  V30 5825 C 557.149 -4.88484 4.09465 0
M  V30 5826 C 554.836 -5.05868 3.42843 0
M  V30 5827 C 555.834 -5.23869 4.38235 0
M  V30 5828 O 555.522 -5.76218 5.6056 0
M  V30 5829 H 555.254 -0.651034 0.18202 0
M  V30 5830 H 557.808 -1.7026 1.14894 0
M  V30 5831 H 556.038 -3.86086 -0.217888 0
M  V30 5832 H 557.727 -4.05613 0.152682 0
M  V30 5833 H 558.493 -4.07107 2.63607 0
M  V30 5834 H 554.372 -4.37652 1.44851 0
M  V30 5835 H 557.916 -5.02451 4.83931 0
M  V30 5836 H 553.813 -5.32891 3.64277 0
M  V30 5837 H 554.581 -5.94616 5.62471 0
M  V30 5838 N 557.244 -0.608902 -1.45362 0
M  V30 5839 C 558.493 -0.10218 -2.01441 0
M  V30 5840 C 558.806 1.27546 -1.48295 0
M  V30 5841 O 560.012 1.87498 -1.96359 0
M  V30 5842 C 558.468 -0.131985 -3.59658 0
M  V30 5843 C 558.076 -1.50956 -4.21801 0
M  V30 5844 C 559.82 0.319427 -4.23296 0
M  V30 5845 C 557.727 -1.49568 -5.72174 0
M  V30 5846 H 556.657 -0.0344314 -0.753213 0
M  V30 5847 H 559.308 -0.764426 -1.6682 0
M  V30 5848 H 557.69 0.596939 -3.91475 0
M  V30 5849 H 558.864 -2.26029 -4.01556 0
M  V30 5850 H 557.179 -1.90318 -3.70362 0
M  V30 5851 H 559.776 0.349013 -5.3356 0
M  V30 5852 H 560.119 1.34237 -3.94064 0
M  V30 5853 H 560.652 -0.356273 -3.96201 0
M  V30 5854 H 557.391 -2.49626 -6.06108 0
M  V30 5855 H 556.911 -0.787542 -5.94607 0
M  V30 5856 H 558.59 -1.21989 -6.35396 0
M  V30 5857 N 558.722 1.53707 -0.348139 0
M  V30 5858 C 560.138 1.596 0.00361134 0
M  V30 5859 C 560.338 1.36394 1.4832 0
M  V30 5860 O 559.394 1.16046 2.24253 0
M  V30 5861 C 560.707 2.97512 -0.436682 0
M  V30 5862 C 562.255 3.10568 -0.389416 0
M  V30 5863 C 562.73 4.50866 -0.805249 0
M  V30 5864 N 564.221 4.56929 -0.759616 0
M  V30 5865 C 564.956 5.63643 -1.05327 0
M  V30 5866 N 564.452 6.78189 -1.41531 0
M  V30 5867 N 566.245 5.5354 -0.977207 0
M  V30 5868 H 558.396 1.67044 -1.31187 0
M  V30 5869 H 560.659 0.782559 -0.535075 0
M  V30 5870 H 560.365 3.19575 -1.46849 0
M  V30 5871 H 560.239 3.76742 0.185744 0
M  V30 5872 H 562.626 2.88226 0.633228 0
M  V30 5873 H 562.707 2.33387 -1.04711 0
M  V30 5874 H 562.351 4.73943 -1.82593 0
M  V30 5875 H 562.281 5.26452 -0.124989 0
M  V30 5876 H 564.772 3.74675 -0.49265 0
M  V30 5877 H 565.085 7.55541 -1.62411 0
M  V30 5878 H 563.43 6.79624 -1.45381 0
M  V30 5879 H 566.621 4.62932 -0.693675 0
M  V30 5880 H 566.794 6.36614 -1.2094 0
M  V30 5881 N 560.2 0.0768682 1.57412 0
M  V30 5882 C 561.147 -0.888577 2.13009 0
M  V30 5883 C 562.117 -1.29198 1.0439 0
M  V30 5884 O 563.302 -1.37694 1.3208 0
M  V30 5885 C 560.442 -2.14899 2.70023 0
M  V30 5886 C 559.555 -1.79777 3.92816 0
M  V30 5887 C 558.69 -3.00467 4.38056 0
M  V30 5888 C 557.729 -2.61385 5.53484 0
M  V30 5889 N 556.866 -3.74851 5.93659 0
M  V30 5890 H 561.706 -0.407593 2.95199 0
M  V30 5891 H 559.243 -0.189534 1.45874 0
M  V30 5892 H 561.201 -2.88688 3.0119 0
M  V30 5893 H 559.831 -2.60529 1.9059 0
M  V30 5894 H 558.883 -0.960301 3.68079 0
M  V30 5895 H 560.195 -1.47027 4.76639 0
M  V30 5896 H 559.349 -3.82529 4.7091 0
M  V30 5897 H 558.088 -3.36413 3.53097 0
M  V30 5898 H 557.093 -1.77746 5.20275 0
M  V30 5899 H 558.318 -2.26603 6.40178 0
M  V30 5900 H 556.264 -4.1055 5.11649 0
M  V30 5901 H 556.181 -3.45887 6.72234 0
M  V30 5902 H 557.449 -4.57477 6.31138 0
M  V30 5903 N 561.678 -1.56367 -0.196722 0
M  V30 5904 C 562.628 -1.9082 -1.24787 0
M  V30 5905 C 563.612 -0.773719 -1.41076 0
M  V30 5906 O 564.804 -1.03655 -1.43474 0
M  V30 5907 C 561.933 -2.24982 -2.59303 0
M  V30 5908 C 561.019 -3.44882 -2.46814 0
M  V30 5909 N 561.41 -4.62835 -2.04003 0
M  V30 5910 C 559.708 -3.48988 -2.77711 0
M  V30 5911 C 560.409 -5.44993 -2.03366 0
M  V30 5912 N 559.385 -4.85356 -2.44807 0
M  V30 5913 H 563.187 -2.79516 -0.908175 0
M  V30 5914 H 560.701 -1.57265 -0.405166 0
M  V30 5915 H 562.698 -2.47848 -3.35227 0
M  V30 5916 H 561.358 -1.37611 -2.94098 0
M  V30 5917 H 562.369 -4.87532 -1.74738 0
M  V30 5918 H 559.046 -2.72029 -3.16712 0
M  V30 5919 H 560.436 -6.49464 -1.72181 0
M  V30 5920 N 563.156 0.464375 -1.50603 0
M  V30 5921 C 564.402 1.21776 -1.62168 0
M  V30 5922 C 564.735 1.91476 -0.324154 0
M  V30 5923 O 564.01 1.8242 0.674782 0
M  V30 5924 C 564.293 2.25614 -2.80661 0
M  V30 5925 C 564.146 1.60175 -4.20314 0
M  V30 5926 C 565.465 3.26862 -2.94702 0
M  V30 5927 H 562.584 0.44137 -0.590222 0
M  V30 5928 H 565.226 0.510623 -1.8301 0
M  V30 5929 H 563.376 2.85923 -2.63021 0
M  V30 5930 H 565.048 1.03411 -4.4956 0
M  V30 5931 H 563.291 0.904697 -4.24261 0
M  V30 5932 H 563.962 2.35665 -4.99165 0
M  V30 5933 H 566.438 2.76582 -3.10872 0
M  V30 5934 H 565.314 3.96839 -3.79223 0
M  V30 5935 H 565.575 3.91382 -2.05603 0
M  V30 5936 N 564.634 1.40294 0.718013 0
M  V30 5937 C 565.566 1.36281 1.84283 0
M  V30 5938 C 566.579 0.268621 1.60569 0
M  V30 5939 O 567.768 0.528798 1.70487 0
M  V30 5940 C 564.868 1.09741 3.2064 0
M  V30 5941 C 564.041 2.30767 3.71571 0
M  V30 5942 C 563.1 2.00424 4.86535 0
M  V30 5943 O 562.126 2.73268 4.99313 0
M  V30 5944 N 563.328 0.980724 5.72156 0
M  V30 5945 H 566.093 2.3322 1.88225 0
M  V30 5946 H 563.654 1.34616 0.899453 0
M  V30 5947 H 565.646 0.874322 3.95143 0
M  V30 5948 H 564.216 0.214771 3.11861 0
M  V30 5949 H 563.436 2.68921 2.88228 0
M  V30 5950 H 564.724 3.11455 4.02335 0
M  V30 5951 H 564.122 0.377375 5.6444 0
M  V30 5952 H 562.679 0.817538 6.46653 0
M  V30 5953 N 566.112 -0.949982 1.2575 0
M  V30 5954 C 567.042 -2.06483 1.09028 0
M  V30 5955 C 568.023 -1.701 -0.00201532 0
M  V30 5956 O 569.208 -1.93469 0.168383 0
M  V30 5957 C 566.338 -3.39899 0.71316 0
M  V30 5958 C 565.292 -3.90309 1.75621 0
M  V30 5959 C 564.618 -5.20274 1.23365 0
M  V30 5960 C 565.918 -4.16169 3.15596 0
M  V30 5961 H 567.612 -2.20731 2.02283 0
M  V30 5962 H 565.158 -1.06066 0.973964 0
M  V30 5963 H 567.111 -4.17346 0.58309 0
M  V30 5964 H 565.835 -3.25602 -0.255091 0
M  V30 5965 H 564.494 -3.15035 1.8748 0
M  V30 5966 H 564.142 -5.02351 0.255491 0
M  V30 5967 H 563.842 -5.54971 1.93082 0
M  V30 5968 H 565.366 -6.00314 1.11607 0
M  V30 5969 H 566.78 -4.84259 3.06864 0
M  V30 5970 H 565.177 -4.62131 3.82825 0
M  V30 5971 H 566.247 -3.22273 3.6231 0
M  V30 5972 N 567.59 -1.07411 -1.15328 0
M  V30 5973 C 568.815 -0.818856 -1.90551 0
M  V30 5974 C 569.24 0.622194 -1.77512 0
M  V30 5975 O 568.598 1.43484 -1.10824 0
M  V30 5976 C 568.646 -1.23267 -3.38877 0
M  V30 5977 O 567.75 -0.378345 -4.10661 0
M  V30 5978 H 567.091 -0.29827 -0.593238 0
M  V30 5979 H 569.621 -1.43289 -1.46046 0
M  V30 5980 H 569.631 -1.20912 -3.89672 0
M  V30 5981 H 568.306 -2.28226 -3.47686 0
M  V30 5982 H 566.883 -0.464437 -3.69996 0
M  V30 5983 N 569.068 1.32177 -0.85831 0
M  V30 5984 C 570.018 2.26307 -0.277307 0
M  V30 5985 C 571.002 1.50123 0.578946 0
M  V30 5986 O 572.194 1.71754 0.427731 0
M  V30 5987 C 569.323 3.39181 0.530232 0
M  V30 5988 C 568.409 4.22746 -0.338613 0
M  V30 5989 N 568.8 4.85265 -1.4266 0
M  V30 5990 C 567.098 4.45813 -0.129 0
M  V30 5991 C 567.799 5.47634 -1.96142 0
M  V30 5992 N 566.775 5.28794 -1.26007 0
M  V30 5993 H 570.577 2.72173 -1.10902 0
M  V30 5994 H 568.091 1.46308 -0.704816 0
M  V30 5995 H 570.088 4.05628 0.962904 0
M  V30 5996 H 568.748 2.9486 1.35969 0
M  V30 5997 H 569.759 4.85259 -1.80953 0
M  V30 5998 H 566.436 4.12163 0.665451 0
M  V30 5999 H 567.826 6.0735 -2.8736 0
M  V30 6000 N 570.547 0.616602 1.45037 0
M  V30 6001 C 571.457 -0.0985401 2.34393 0
M  V30 6002 C 572.473 -0.850971 1.51771 0
M  V30 6003 O 573.649 -0.806521 1.84546 0
M  V30 6004 C 570.714 -1.07748 3.29532 0
M  V30 6005 C 569.775 -0.326022 4.2806 0
M  V30 6006 C 569.008 -1.25833 5.18654 0
M  V30 6007 O 569.231 -2.49652 5.12864 0
M  V30 6008 O 568.165 -0.750512 5.97203 0
M  V30 6009 H 571.991 0.636016 2.96966 0
M  V30 6010 H 569.576 0.376832 1.44569 0
M  V30 6011 H 571.458 -1.64107 3.88133 0
M  V30 6012 H 570.133 -1.79291 2.69512 0
M  V30 6013 H 569.04 0.280253 3.73049 0
M  V30 6014 H 570.373 0.349091 4.9096 0
M  V30 6015 N 572.025 -1.5352 0.356285 0
M  V30 6016 C 573.272 -2.01117 -0.236303 0
M  V30 6017 C 573.6 -1.24381 -1.49531 0
M  V30 6018 O 572.855 -0.323057 -1.93015 0
M  V30 6019 C 573.154 -3.52607 -0.583369 0
M  V30 6020 C 572.82 -4.47151 0.58023 0
M  V30 6021 C 571.482 -4.72718 0.899528 0
M  V30 6022 C 573.834 -5.03137 1.36024 0
M  V30 6023 C 571.162 -5.51523 2.00098 0
M  V30 6024 C 573.514 -5.83145 2.45204 0
M  V30 6025 C 572.178 -6.07001 2.77679 0
M  V30 6026 H 571.448 -0.735938 -0.0864695 0
M  V30 6027 H 574.095 -1.85209 0.48683 0
M  V30 6028 H 572.4 -3.66413 -1.38739 0
M  V30 6029 H 574.097 -3.86901 -1.05397 0
M  V30 6030 H 570.687 -4.27394 0.321322 0
M  V30 6031 H 574.871 -4.83339 1.12682 0
M  V30 6032 H 570.127 -5.68229 2.25668 0
M  V30 6033 H 574.301 -6.25537 3.06067 0
M  V30 6034 H 571.928 -6.67851 3.63151 0
M  V30 6035 N 573.503 -0.0852151 -1.57369 0
M  V30 6036 C 574.413 0.891712 -2.16992 0
M  V30 6037 C 575.429 1.3174 -1.13669 0
M  V30 6038 O 576.605 1.38735 -1.45995 0
M  V30 6039 C 573.67 2.13635 -2.73059 0
M  V30 6040 C 572.731 1.7658 -3.91303 0
M  V30 6041 C 571.964 2.95111 -4.44686 0
M  V30 6042 O 572.187 4.09539 -3.97032 0
M  V30 6043 O 571.121 2.74149 -5.35841 0
M  V30 6044 H 574.947 0.414477 -3.00858 0
M  V30 6045 H 572.532 0.138598 -1.48756 0
M  V30 6046 H 574.414 2.86595 -3.08935 0
M  V30 6047 H 573.089 2.6043 -1.92244 0
M  V30 6048 H 571.996 1.00831 -3.60255 0
M  V30 6049 H 573.329 1.34557 -4.7345 0
M  V30 6050 N 574.981 1.5647 0.188427 0
M  V30 6051 C 576.206 1.85486 0.927891 0
M  V30 6052 C 576.631 0.669575 1.75779 0
M  V30 6053 O 575.989 -0.381573 1.77239 0
M  V30 6054 C 576.037 3.12784 1.7944 0
M  V30 6055 O 575.141 2.93805 2.894 0
M  V30 6056 H 574.482 0.610585 0.260925 0
M  V30 6057 H 577.012 2.037 0.191729 0
M  V30 6058 H 577.022 3.43749 2.19774 0
M  V30 6059 H 575.697 3.98671 1.18468 0
M  V30 6060 H 574.274 2.74153 2.52774 0
M  V30 6061 N 576.459 -0.456382 1.50847 0
M  V30 6062 C 577.389 -1.56025 1.73719 0
M  V30 6063 C 578.37 -1.5967 0.586473 0
M  V30 6064 O 579.555 -1.75702 0.827185 0
M  V30 6065 C 576.685 -2.94251 1.84483 0
M  V30 6066 C 575.639 -3.05471 2.99786 0
M  V30 6067 C 574.965 -4.45489 2.95709 0
M  V30 6068 C 576.265 -2.81318 4.40065 0
M  V30 6069 H 577.959 -1.37138 2.66146 0
M  V30 6070 H 575.505 -0.658299 1.28072 0
M  V30 6071 H 577.458 -3.71417 1.99067 0
M  V30 6072 H 576.182 -3.14328 0.886891 0
M  V30 6073 H 574.841 -2.30741 2.84876 0
M  V30 6074 H 574.489 -4.62505 1.97732 0
M  V30 6075 H 574.189 -4.53929 3.73125 0
M  V30 6076 H 575.713 -5.24655 3.12362 0
M  V30 6077 H 577.127 -3.48226 4.55425 0
M  V30 6078 H 575.524 -3.01188 5.19043 0
M  V30 6079 H 576.594 -1.7706 4.51418 0
M  V30 6080 N 577.937 -1.40673 -0.710563 0
M  V30 6081 C 579.183 -1.39428 -1.47267 0
M  V30 6082 C 579.516 0.00182129 -1.942 0
M  V30 6083 O 578.791 0.971387 -1.68506 0
M  V30 6084 C 579.074 -2.38812 -2.6952 0
M  V30 6085 C 578.927 -3.87467 -2.28449 0
M  V30 6086 C 580.246 -2.3566 -3.71689 0
M  V30 6087 H 577.365 -0.507768 -0.534173 0
M  V30 6088 H 580.007 -1.71843 -0.810547 0
M  V30 6089 H 578.157 -2.113 -3.26013 0
M  V30 6090 H 579.829 -4.25825 -1.77399 0
M  V30 6091 H 578.072 -4.03058 -1.60395 0
M  V30 6092 H 578.743 -4.5253 -3.16103 0
M  V30 6093 H 581.219 -2.6004 -3.24836 0
M  V30 6094 H 580.095 -3.07237 -4.54859 0
M  V30 6095 H 580.356 -1.36996 -4.20339 0
M  V30 6096 N 579.415 0.9433 -1.26252 0
M  V30 6097 C 580.831 1.21644 -1.03319 0
M  V30 6098 C 581.031 2.0003 0.242983 0
M  V30 6099 O 580.087 2.33838 0.952688 0
M  V30 6100 C 581.4 1.97978 -2.2633 0
M  V30 6101 C 582.948 2.10978 -2.31209 0
M  V30 6102 C 583.423 2.90713 -3.53907 0
M  V30 6103 N 584.914 2.98287 -3.54371 0
M  V30 6104 C 585.649 3.60406 -4.45976 0
M  V30 6105 N 585.145 4.24043 -5.47868 0
M  V30 6106 N 586.938 3.57658 -4.33633 0
M  V30 6107 H 579.089 0.419221 -2.08222 0
M  V30 6108 H 581.352 0.247995 -0.914988 0
M  V30 6109 H 581.058 1.47788 -3.19142 0
M  V30 6110 H 580.932 2.9865 -2.30408 0
M  V30 6111 H 583.319 2.6036 -1.38913 0
M  V30 6112 H 583.4 1.09575 -2.31143 0
M  V30 6113 H 583.044 2.42018 -4.46531 0
M  V30 6114 H 582.974 3.92367 -3.5122 0
M  V30 6115 H 585.465 2.53044 -2.80673 0
M  V30 6116 H 585.778 4.69334 -6.13959 0
M  V30 6117 H 584.123 4.22637 -5.51728 0
M  V30 6118 H 587.314 3.07134 -3.53251 0
M  V30 6119 H 587.487 4.05782 -5.05218 0
M  V30 6120 N 580.893 1.08022 1.14757 0
M  V30 6121 C 581.825 0.664566 2.19354 0
M  V30 6122 C 582.838 -0.286374 1.60261 0
M  V30 6123 O 584.027 -0.0746362 1.78344 0
M  V30 6124 C 581.127 -0.0434634 3.38872 0
M  V30 6125 C 580.3 0.925381 4.27499 0
M  V30 6126 C 579.359 0.253398 5.2559 0
M  V30 6127 O 578.385 0.896581 5.62094 0
M  V30 6128 N 579.587 -0.998263 5.71852 0
M  V30 6129 H 582.352 1.56438 2.55631 0
M  V30 6130 H 579.913 0.965788 1.29939 0
M  V30 6131 H 581.905 -0.503857 4.01551 0
M  V30 6132 H 580.475 -0.845321 3.00954 0
M  V30 6133 H 579.695 1.56472 3.61815 0
M  V30 6134 H 580.983 1.58203 4.8358 0
M  V30 6135 H 580.381 -1.54063 5.44317 0
M  V30 6136 H 578.938 -1.40222 6.36538 0
M  V30 6137 N 582.371 -1.3172 0.865308 0
M  V30 6138 C 583.648 -1.91574 0.394789 0
M  V30 6139 C 584.028 -1.78769 -1.12271 0
M  V30 6140 O 583.376 -1.19245 -1.94918 0
M  V30 6141 C 583.586 -3.37957 0.870982 0
M  V30 6142 C 584.934 -4.15073 0.894384 0
M  V30 6143 O 585.958 -3.4672 0.816325 0
M  V30 6144 O 584.817 -5.37151 1.00651 0
M  V30 6145 H 581.911 -0.818649 0.117229 0
M  V30 6146 H 584.457 -1.4042 0.952913 0
M  V30 6147 H 583.229 -3.41269 1.91444 0
M  V30 6148 H 582.852 -3.96534 0.290907 0
M  V30 6149 N 583.85 -0.624285 -1.44708 0
M  V30 6150 C 585.26 -0.2092 -1.85524 0
M  V30 6151 C 585.611 1.23783 -1.52225 0
M  V30 6152 O 584.736 1.94089 -0.956986 0
M  V30 6153 C 585.332 -0.372897 -3.36742 0
M  V30 6154 C 583.891 -0.012374 -3.76398 0
M  V30 6155 C 583.038 -0.68951 -2.68591 0
M  V30 6156 H 585.989 -0.829894 -1.35272 0
M  V30 6157 H 586.01 0.390134 -3.78495 0
M  V30 6158 H 585.522 -1.42615 -3.60947 0
M  V30 6159 H 583.623 1.03941 -3.57809 0
M  V30 6160 H 583.736 -0.417663 -4.77276 0
M  V30 6161 H 582.1 -0.125484 -2.54391 0
M  V30 6162 H 582.883 -1.74522 -2.9563 0
M  V30 6163 N 585.328 1.53329 -0.364422 0
M  V30 6164 C 586.744 1.59594 -0.0133165 0
M  V30 6165 C 586.944 1.37959 1.46865 0
M  V30 6166 O 586 1.18418 2.2301 0
M  V30 6167 C 587.313 2.97032 -0.468213 0
M  V30 6168 C 588.861 3.10138 -0.422334 0
M  V30 6169 C 589.336 4.49986 -0.853024 0
M  V30 6170 N 590.827 4.56098 -0.808037 0
M  V30 6171 C 591.562 5.62495 -1.11299 0
M  V30 6172 N 591.058 6.7665 -1.48717 0
M  V30 6173 N 592.851 5.52473 -1.03586 0
M  V30 6174 H 585.002 1.65644 -1.32951 0
M  V30 6175 H 587.265 0.77684 -0.543345 0
M  V30 6176 H 586.971 3.18 -1.5023 0
M  V30 6177 H 586.845 3.76918 0.145775 0
M  V30 6178 H 589.232 2.88881 0.602622 0
M  V30 6179 H 589.313 2.32263 -1.0718 0
M  V30 6180 H 588.957 4.7198 -1.87609 0
M  V30 6181 H 588.887 5.26289 -0.180819 0
M  V30 6182 H 591.378 3.74131 -0.532361 0
M  V30 6183 H 591.691 7.53776 -1.70415 0
M  V30 6184 H 590.036 6.78044 -1.52581 0
M  V30 6185 H 593.227 4.6217 -0.742736 0
M  V30 6186 H 593.4 6.35295 -1.27686 0
M  V30 6187 N 586.806 0.0935595 1.57322 0
M  V30 6188 C 588.053 -0.570509 1.94297 0
M  V30 6189 C 588.381 -1.68286 0.97519 0
M  V30 6190 O 587.636 -1.95699 -0.00548655 0
M  V30 6191 C 587.935 -1.16692 3.37813 0
M  V30 6192 C 587.601 -0.178509 4.50547 0
M  V30 6193 C 586.263 0.0933475 4.81109 0
M  V30 6194 C 588.615 0.496472 5.1883 0
M  V30 6195 C 585.943 1.0469 5.77284 0
M  V30 6196 C 588.295 1.43849 6.16028 0
M  V30 6197 C 586.959 1.71859 6.44997 0
M  V30 6198 H 586.229 -0.208764 0.710984 0
M  V30 6199 H 588.876 0.169066 1.90752 0
M  V30 6200 H 587.181 -1.98271 3.37929 0
M  V30 6201 H 588.878 -1.6884 3.63722 0
M  V30 6202 H 585.468 -0.400584 4.26724 0
M  V30 6203 H 589.652 0.299584 4.95395 0
M  V30 6204 H 584.908 1.27094 5.98044 0
M  V30 6205 H 589.082 1.96734 6.68034 0
M  V30 6206 H 586.709 2.45906 7.19329 0
M  V30 6207 N 588.284 -1.56567 -0.180126 0
M  V30 6208 C 589.194 -1.98947 -1.24327 0
M  V30 6209 C 590.21 -0.899446 -1.4895 0
M  V30 6210 O 591.386 -1.20639 -1.61271 0
M  V30 6211 C 588.451 -2.33328 -2.56435 0
M  V30 6212 C 587.512 -3.56114 -2.39752 0
M  V30 6213 C 586.745 -3.88845 -3.65561 0
M  V30 6214 O 586.968 -3.22662 -4.70368 0
M  V30 6215 O 585.902 -4.82226 -3.60197 0
M  V30 6216 H 589.728 -2.89634 -0.913565 0
M  V30 6217 H 587.313 -1.44319 -0.386306 0
M  V30 6218 H 589.195 -2.5645 -3.34382 0
M  V30 6219 H 587.87 -1.45806 -2.89002 0
M  V30 6220 H 586.777 -3.38221 -1.59866 0
M  V30 6221 H 588.11 -4.4415 -2.12113 0
M  V30 6222 N 589.762 0.448376 -1.51087 0
M  V30 6223 C 591.011 1.19561 -1.62444 0
M  V30 6224 C 591.324 1.92602 -0.341151 0
M  V30 6225 O 592.53 2.69439 -0.333936 0
M  V30 6226 C 590.986 2.17373 -2.8684 0
M  V30 6227 C 590.594 1.5003 -4.22131 0
M  V30 6228 C 592.338 2.92597 -3.0755 0
M  V30 6229 C 590.245 2.46262 -5.37689 0
M  V30 6230 H 589.175 0.449975 -0.605011 0
M  V30 6231 H 591.826 0.463735 -1.77544 0
M  V30 6232 H 590.208 2.93948 -2.65349 0
M  V30 6233 H 591.382 0.790886 -4.53962 0
M  V30 6234 H 589.697 0.870011 -4.0721 0
M  V30 6235 H 592.294 3.64663 -3.91056 0
M  V30 6236 H 592.637 3.53306 -2.20183 0
M  V30 6237 H 593.17 2.23131 -3.29329 0
M  V30 6238 H 589.909 1.90258 -6.27281 0
M  V30 6239 H 589.429 3.15289 -5.10248 0
M  V30 6240 H 591.108 3.07623 -5.6919 0
M  V30 6241 N 591.24 1.41047 0.703093 0
M  V30 6242 C 592.48 1.41461 1.4754 0
M  V30 6243 C 592.844 0.0199013 1.9199 0
M  V30 6244 O 594.045 -0.101138 2.6861 0
M  V30 6245 C 592.316 2.38703 2.66 0
M  V30 6246 S 593.875 2.57582 3.55242 0
M  V30 6247 H 590.693 0.501226 0.504275 0
M  V30 6248 H 593.295 1.77422 0.821074 0
M  V30 6249 H 591.999 3.3885 2.31536 0
M  V30 6250 H 591.53 2.04069 3.36333 0
M  V30 6251 H 593.545 1.83758 4.6092 0
M  V30 6252 N 592.718 -0.936591 1.26751 0
M  V30 6253 C 593.964 -1.6858 1.12733 0
M  V30 6254 C 594.297 -1.91414 -0.327745 0
M  V30 6255 O 593.572 -1.49812 -1.24043 0
M  V30 6256 C 593.855 -3.05779 1.90187 0
M  V30 6257 C 593.708 -2.90242 3.43627 0
M  V30 6258 C 595.027 -4.0597 1.69931 0
M  V30 6259 H 592.146 -0.61182 0.410908 0
M  V30 6260 H 594.788 -1.08747 1.55801 0
M  V30 6261 H 592.938 -3.56853 1.53584 0
M  V30 6262 H 594.61 -2.46354 3.9001 0
M  V30 6263 H 592.853 -2.2577 3.70419 0
M  V30 6264 H 593.524 -3.87572 3.93055 0
M  V30 6265 H 596 -3.63874 2.0183 0
M  V30 6266 H 594.876 -4.99974 2.26534 0
M  V30 6267 H 595.137 -4.37369 0.64502 0
M  V30 6268 N 594.196 -1.08629 -1.14182 0
M  V30 6269 C 595.106 -0.730126 -2.22949 0
M  V30 6270 C 596.122 0.26436 -1.7198 0
M  V30 6271 O 597.298 0.107742 -2.01112 0
M  V30 6272 C 594.363 -0.147227 -3.46387 0
M  V30 6273 C 593.424 -1.19662 -4.12286 0
M  V30 6274 C 592.657 -0.641437 -5.29831 0
M  V30 6275 O 592.88 0.538351 -5.67854 0
M  V30 6276 O 591.814 -1.39257 -5.85569 0
M  V30 6277 H 595.64 -1.63753 -2.55771 0
M  V30 6278 H 593.225 -0.860118 -1.22157 0
M  V30 6279 H 595.107 0.174923 -4.21037 0
M  V30 6280 H 593.782 0.733304 -3.15285 0
M  V30 6281 H 592.689 -1.57133 -3.395 0
M  V30 6282 H 594.022 -2.0495 -4.475 0
M  V30 6283 N 595.674 1.31259 -0.872281 0
M  V30 6284 C 596.92 1.96913 -0.485083 0
M  V30 6285 C 597.253 1.68774 0.960667 0
M  V30 6286 O 596.528 0.985495 1.67685 0
M  V30 6287 C 596.811 3.52299 -0.745502 0
M  V30 6288 C 596.664 3.90002 -2.24095 0
M  V30 6289 C 597.983 4.39582 -0.213516 0
M  V30 6290 H 595.102 0.715252 -0.177716 0
M  V30 6291 H 597.744 1.55347 -1.09395 0
M  V30 6292 H 595.894 3.87835 -0.227276 0
M  V30 6293 H 597.566 3.64555 -2.82661 0
M  V30 6294 H 595.809 3.38526 -2.71261 0
M  V30 6295 H 596.48 4.98352 -2.37381 0
M  V30 6296 H 598.956 4.10882 -0.656902 0
M  V30 6297 H 597.832 5.47251 -0.42516 0
M  V30 6298 H 598.093 4.33158 0.884666 0
M  V30 6299 N 597.152 0.631951 1.44375 0
M  V30 6300 C 598.401 0.134214 2.01253 0
M  V30 6301 C 598.714 -1.25171 1.50305 0
M  V30 6302 O 599.92 -1.8435 1.99317 0
M  V30 6303 C 598.376 0.189187 3.59402 0
M  V30 6304 C 597.984 1.57647 4.19346 0
M  V30 6305 C 599.728 -0.252044 4.23751 0
M  V30 6306 C 597.635 1.58651 5.69722 0
M  V30 6307 H 596.565 0.0464101 0.75257 0
M  V30 6308 H 599.216 0.790868 1.65582 0
M  V30 6309 H 597.598 -0.534584 3.92375 0
M  V30 6310 H 598.772 2.32389 3.97909 0
M  V30 6311 H 597.087 1.96186 3.67288 0
M  V30 6312 H 599.684 -0.264084 5.34047 0
M  V30 6313 H 600.027 -1.27951 3.96149 0
M  V30 6314 H 600.56 0.41926 3.95584 0
M  V30 6315 H 597.299 2.59237 6.0206 0
M  V30 6316 H 596.819 0.882039 5.93279 0
M  V30 6317 H 598.498 1.32082 6.33375 0
M  V30 6318 N 598.631 -1.53133 0.372548 0
M  V30 6319 C 599.561 -2.28876 -0.462412 0
M  V30 6320 C 600.542 -1.31583 -1.07796 0
M  V30 6321 O 601.727 -1.60461 -1.09389 0
M  V30 6322 C 598.857 -3.08317 -1.59868 0
M  V30 6323 C 597.811 -4.13355 -1.11003 0
M  V30 6324 C 597.137 -4.8092 -2.33708 0
M  V30 6325 C 598.437 -5.21955 -0.18983 0
M  V30 6326 H 600.131 -2.9892 0.169511 0
M  V30 6327 H 597.677 -1.43761 0.0829658 0
M  V30 6328 H 599.63 -3.60055 -2.18949 0
M  V30 6329 H 598.354 -2.35976 -2.25794 0
M  V30 6330 H 597.013 -3.62573 -0.541869 0
M  V30 6331 H 596.661 -4.05144 -2.98106 0
M  V30 6332 H 596.361 -5.51904 -2.01682 0
M  V30 6333 H 597.885 -5.35455 -2.93462 0
M  V30 6334 H 599.299 -5.69153 -0.688319 0
M  V30 6335 H 597.696 -6.00087 0.0398887 0
M  V30 6336 H 598.766 -4.78811 0.766057 0
M  V30 6337 N 600.109 -0.101901 -1.5727 0
M  V30 6338 C 601.357 0.559091 -1.94213 0
M  V30 6339 C 601.678 1.68297 -0.984948 0
M  V30 6340 O 600.948 1.95863 -0.0381975 0
M  V30 6341 H 599.528 0.20952 -0.717015 0
M  V30 6342 H 602.19 -0.166831 -1.94185 0
M  V30 6343 H 601.286 0.96485 -2.96811 0
M  V30 6344 N 601.587 1.56661 0.17182 0
M  V30 6345 C 602.517 1.99401 1.21498 0
M  V30 6346 C 603.498 0.869516 1.46197 0
M  V30 6347 O 604.683 1.13556 1.57539 0
M  V30 6348 C 601.813 2.35346 2.55401 0
M  V30 6349 C 600.767 3.5075 2.45272 0
M  V30 6350 C 600.093 3.72437 3.8366 0
M  V30 6351 C 601.393 4.84216 1.95787 0
M  V30 6352 H 603.087 2.86792 0.859699 0
M  V30 6353 H 600.633 1.37977 0.412103 0
M  V30 6354 H 602.586 2.63843 3.2858 0
M  V30 6355 H 601.31 1.44864 2.92715 0
M  V30 6356 H 599.969 3.2238 1.74547 0
M  V30 6357 H 599.617 2.79246 4.18367 0
M  V30 6358 H 599.317 4.50087 3.77751 0
M  V30 6359 H 600.841 4.03334 4.58426 0
M  V30 6360 H 602.255 5.11592 2.5874 0
M  V30 6361 H 600.652 5.65498 2.00827 0
M  V30 6362 H 601.722 4.76243 0.912159 0
M  V30 6363 N 603.065 -0.440357 1.51323 0
M  V30 6364 C 604.311 -1.19181 1.64085 0
M  V30 6365 C 604.644 -1.90936 0.354575 0
M  V30 6366 O 603.919 -1.8347 -0.645675 0
M  V30 6367 C 604.202 -2.2112 2.84215 0
M  V30 6368 C 604.055 -1.53468 4.22809 0
M  V30 6369 C 605.374 -3.22133 2.99864 0
M  V30 6370 H 602.493 -0.431924 0.597169 0
M  V30 6371 H 605.135 -0.481443 1.83799 0
M  V30 6372 H 603.285 -2.81703 2.67537 0
M  V30 6373 H 604.957 -0.962455 4.51148 0
M  V30 6374 H 603.2 -0.837086 4.25647 0
M  V30 6375 H 603.871 -2.27694 5.02852 0
M  V30 6376 H 606.347 -2.71601 3.15233 0
M  V30 6377 H 605.223 -3.90756 3.85488 0
M  V30 6378 H 605.484 -3.88061 2.11804 0
M  V30 6379 N 604.543 -1.41418 -0.695603 0
M  V30 6380 C 605.783 -1.42241 -1.46788 0
M  V30 6381 C 606.147 -0.0300827 -1.91976 0
M  V30 6382 O 607.348 0.0868914 -2.6866 0
M  V30 6383 C 605.619 -2.4011 -2.6473 0
M  V30 6384 S 607.178 -2.59462 -3.53871 0
M  V30 6385 H 603.996 -0.503893 -0.50161 0
M  V30 6386 H 606.598 -1.77855 -0.811654 0
M  V30 6387 H 605.302 -3.40073 -2.29736 0
M  V30 6388 H 604.833 -2.05849 -3.35246 0
M  V30 6389 H 606.848 -1.862 -4.59939 0
M  V30 6390 N 606.021 0.929856 -1.27246 0
M  V30 6391 C 607.268 1.67731 -1.13457 0
M  V30 6392 C 607.596 1.9185 0.319998 0
M  V30 6393 O 606.851 1.50524 1.25064 0
M  V30 6394 C 607.15 3.05116 -1.86115 0
M  V30 6395 C 606.816 3.00715 -3.35978 0
M  V30 6396 C 605.478 2.99222 -3.76855 0
M  V30 6397 C 607.83 2.92168 -4.3161 0
M  V30 6398 C 605.158 2.86962 -5.11732 0
M  V30 6399 C 607.51 2.81449 -5.66542 0
M  V30 6400 C 606.174 2.78305 -6.06715 0
M  V30 6401 H 605.444 0.613772 -0.415168 0
M  V30 6402 H 608.091 1.08456 -1.57827 0
M  V30 6403 H 606.396 3.68083 -1.34246 0
M  V30 6404 H 608.093 3.61822 -1.72876 0
M  V30 6405 H 604.683 3.02664 -3.03468 0
M  V30 6406 H 608.867 2.92421 -4.01003 0
M  V30 6407 H 604.123 2.82913 -5.42006 0
M  V30 6408 H 608.297 2.738 -6.40317 0
M  V30 6409 H 605.924 2.68561 -7.11181 0
M  V30 6410 N 607.499 1.09233 1.13605 0
M  V30 6411 C 608.915 0.82163 1.36826 0
M  V30 6412 C 609.115 -0.565021 1.93416 0
M  V30 6413 O 608.171 -1.32026 2.15234 0
M  V30 6414 C 609.484 1.91124 2.32147 0
M  V30 6415 C 611.032 1.93824 2.45767 0
M  V30 6416 C 611.507 3.01923 3.44393 0
M  V30 6417 N 612.998 3.01149 3.51942 0
M  V30 6418 C 613.733 3.81434 4.2813 0
M  V30 6419 N 613.229 4.71621 5.07489 0
M  V30 6420 N 615.022 3.69702 4.23411 0
M  V30 6421 H 607.173 1.98633 0.752234 0
M  V30 6422 H 609.436 0.862482 0.393482 0
M  V30 6423 H 609.142 2.90862 1.97717 0
M  V30 6424 H 609.016 1.78777 3.32142 0
M  V30 6425 H 611.403 0.94726 2.79483 0
M  V30 6426 H 611.484 2.10248 1.45703 0
M  V30 6427 H 611.128 4.01232 3.11408 0
M  V30 6428 H 611.058 2.82742 4.44257 0
M  V30 6429 H 613.549 2.35789 2.95317 0
M  V30 6430 H 613.862 5.29468 5.62924 0
M  V30 6431 H 612.207 4.75658 5.06729 0
M  V30 6432 H 615.398 2.98606 3.60489 0
M  V30 6433 H 615.571 4.32509 4.82535 0
M  V30 6434 N 608.977 -1.30795 0.87923 0
M  V30 6435 C 609.907 -2.30742 0.357796 0
M  V30 6436 C 610.888 -1.60747 -0.556283 0
M  V30 6437 O 612.073 -1.88393 -0.47135 0
M  V30 6438 C 609.203 -3.44583 -0.433555 0
M  V30 6439 C 608.157 -4.26235 0.388251 0
M  V30 6440 C 607.483 -5.32073 -0.529352 0
M  V30 6441 C 608.783 -4.96303 1.62729 0
M  V30 6442 H 610.477 -2.74605 1.19299 0
M  V30 6443 H 608.023 -1.32017 0.575104 0
M  V30 6444 H 609.976 -4.13563 -0.808934 0
M  V30 6445 H 608.7 -2.99511 -1.30234 0
M  V30 6446 H 607.359 -3.58936 0.745695 0
M  V30 6447 H 607.007 -4.83249 -1.39569 0
M  V30 6448 H 606.707 -5.87598 0.0166741 0
M  V30 6449 H 608.231 -6.0391 -0.901373 0
M  V30 6450 H 609.645 -5.5783 1.32283 0
M  V30 6451 H 608.042 -5.61666 2.11309 0
M  V30 6452 H 609.112 -4.22758 2.37494 0
M  V30 6453 N 610.455 -0.639598 -1.44038 0
M  V30 6454 C 611.402 0.0602458 -2.30721 0
M  V30 6455 C 612.372 0.828352 -1.43971 0
M  V30 6456 O 613.557 0.807693 -1.72861 0
M  V30 6457 C 610.697 1.03008 -3.29368 0
M  V30 6458 C 609.81 0.259502 -4.3122 0
M  V30 6459 C 608.945 1.22191 -5.16955 0
M  V30 6460 C 607.984 0.440978 -6.10509 0
M  V30 6461 N 607.121 1.35428 -6.88915 0
M  V30 6462 H 611.961 -0.684867 -2.90023 0
M  V30 6463 H 609.498 -0.349509 -1.42888 0
M  V30 6464 H 611.456 1.60583 -3.85057 0
M  V30 6465 H 610.086 1.74222 -2.71747 0
M  V30 6466 H 609.138 -0.432317 -3.77935 0
M  V30 6467 H 610.45 -0.348347 -4.97582 0
M  V30 6468 H 609.604 1.86873 -5.77203 0
M  V30 6469 H 608.343 1.86367 -4.50687 0
M  V30 6470 H 607.348 -0.219279 -5.49363 0
M  V30 6471 H 608.573 -0.196192 -6.78817 0
M  V30 6472 H 606.519 1.9831 -6.25307 0
M  V30 6473 H 606.436 0.800657 -7.51748 0
M  V30 6474 H 607.704 1.98967 -7.53679 0
M  V30 6475 N 611.933 1.52934 -0.380664 0
M  V30 6476 C 613.181 2.01069 0.203874 0
M  V30 6477 C 613.502 1.26922 1.4804 0
M  V30 6478 O 612.772 0.386787 1.92044 0
M  V30 6479 H 611.352 0.742882 0.0783279 0
M  V30 6480 H 614.014 1.88099 -0.510368 0
M  V30 6481 H 613.11 3.09258 0.42021 0
M  V30 6482 N 613.412 0.11024 1.57214 0
M  V30 6483 C 614.637 -0.561179 1.99664 0
M  V30 6484 C 615.062 -1.59985 0.989266 0
M  V30 6485 O 614.42 -1.81255 -0.0402399 0
M  V30 6486 C 614.468 -1.17189 3.41027 0
M  V30 6487 O 613.572 -2.28755 3.4314 0
M  V30 6488 H 612.913 -0.14101 0.648855 0
M  V30 6489 H 615.443 0.196128 2.03658 0
M  V30 6490 H 615.453 -1.50954 3.79047 0
M  V30 6491 H 614.128 -0.411041 4.13864 0
M  V30 6492 H 612.705 -1.96495 3.16929 0
M  V30 6493 N 614.89 -1.56749 -0.16351 0
M  V30 6494 C 615.838 -1.97939 -1.22159 0
M  V30 6495 C 616.832 -0.869288 -1.45395 0
M  V30 6496 O 618.038 -1.05443 -1.45883 0
M  V30 6497 H 614.413 -0.629869 -0.410815 0
M  V30 6498 H 616.384 -2.86115 -0.847381 0
M  V30 6499 C 615.133 -2.36206 -2.55151 0
M  V30 6500 H 614.456 -3.2117 -2.38097 0
M  V30 6501 H 615.896 -2.68863 -3.27854 0
M  V30 6502 C 614.355 -1.20841 -3.14482 0
M  V30 6503 O 614.885 -0.500258 -3.98573 0
M  V30 6504 N 613.091 -0.976943 -2.73686 0
M  V30 6505 H 612.638 -1.55457 -2.05404 0
M  V30 6506 H 612.596 -0.206912 -3.13718 0
M  V30 6507 N 616.368 0.432326 -1.51554 0
M  V30 6508 C 617.315 1.52512 -1.7323 0
M  V30 6509 C 618.285 1.55863 -0.5741 0
M  V30 6510 O 619.47 1.72796 -0.809093 0
M  V30 6511 C 616.61 2.90183 -1.86783 0
M  V30 6512 C 615.723 2.96322 -3.14352 0
M  V30 6513 C 614.858 4.25147 -3.18471 0
M  V30 6514 C 613.897 4.25172 -4.40335 0
M  V30 6515 N 613.034 5.45529 -4.41975 0
M  V30 6516 H 617.874 1.33332 -2.66508 0
M  V30 6517 H 615.411 0.647613 -1.32077 0
M  V30 6518 H 617.369 3.70071 -1.92623 0
M  V30 6519 H 615.999 3.0791 -0.969087 0
M  V30 6520 H 615.051 2.09066 -3.17798 0
M  V30 6521 H 616.363 2.92203 -4.04251 0
M  V30 6522 H 615.517 5.13411 -3.23255 0
M  V30 6523 H 614.256 4.31929 -2.2647 0
M  V30 6524 H 613.261 3.353 -4.35723 0
M  V30 6525 H 614.486 4.20049 -5.33606 0
M  V30 6526 H 612.432 5.53024 -3.52847 0
M  V30 6527 H 612.349 5.43311 -5.25689 0
M  V30 6528 H 613.617 6.35812 -4.50958 0
M  V30 6529 N 617.846 1.41785 0.688094 0
M  V30 6530 C 619.092 1.41753 1.4503 0
M  V30 6531 C 619.425 0.0290745 1.94178 0
M  V30 6532 O 618.7 -0.944456 1.7003 0
M  V30 6533 C 618.983 2.43069 2.65686 0
M  V30 6534 C 618.836 3.91053 2.22256 0
M  V30 6535 C 620.155 2.41543 3.67893 0
M  V30 6536 H 617.274 0.516202 0.526027 0
M  V30 6537 H 619.916 1.73111 0.783105 0
M  V30 6538 H 618.066 2.1646 3.2261 0
M  V30 6539 H 619.738 4.28594 1.70602 0
M  V30 6540 H 617.981 4.05559 1.53963 0
M  V30 6541 H 618.652 4.57501 3.08863 0
M  V30 6542 H 621.128 2.65175 3.20658 0
M  V30 6543 H 620.004 3.14434 4.49914 0
M  V30 6544 H 620.265 1.43666 4.18106 0
M  V30 6545 N 619.324 -0.923095 1.27737 0
M  V30 6546 C 620.272 -2.04567 1.10703 0
M  V30 6547 C 621.266 -1.69375 0.0288445 0
M  V30 6548 O 622.472 -1.79027 0.186913 0
M  V30 6549 H 618.847 -0.670109 0.34126 0
M  V30 6550 H 620.818 -2.1608 2.05796 0
M  V30 6551 C 619.567 -3.38934 0.775837 0
M  V30 6552 H 618.89 -3.66501 1.59741 0
M  V30 6553 H 620.33 -4.18239 0.696548 0
M  V30 6554 C 618.789 -3.32863 -0.520012 0
M  V30 6555 O 619.319 -3.70462 -1.55308 0
M  V30 6556 N 617.525 -2.85958 -0.51732 0
M  V30 6557 H 617.072 -2.55557 0.32379 0
M  V30 6558 H 617.03 -2.82279 -1.38441 0
M  V30 6559 N 620.802 -1.09834 -1.13024 0
M  V30 6560 C 621.712 -0.753731 -2.22162 0
M  V30 6561 C 622.728 0.246105 -1.72251 0
M  V30 6562 O 623.904 0.0864051 -2.01215 0
M  V30 6563 C 620.969 -0.183958 -3.46212 0
M  V30 6564 C 620.03 -1.24028 -4.10993 0
M  V30 6565 C 619.263 -0.697597 -5.29121 0
M  V30 6566 O 619.486 0.478092 -5.68393 0
M  V30 6567 O 618.42 -1.4546 -5.84059 0
M  V30 6568 H 622.246 -1.66456 -2.5402 0
M  V30 6569 H 619.831 -0.873026 -1.21238 0
M  V30 6570 H 621.713 0.130257 -4.21199 0
M  V30 6571 H 620.388 0.699823 -3.16045 0
M  V30 6572 H 619.295 -1.60725 -3.37814 0
M  V30 6573 H 620.628 -2.09685 -4.45301 0
M  V30 6574 N 622.28 1.30327 -0.886154 0
M  V30 6575 C 623.243 2.26376 -0.358687 0
M  V30 6576 C 624.243 1.52845 0.499498 0
M  V30 6577 O 625.433 1.71483 0.306485 0
M  V30 6578 C 622.565 3.37379 0.488726 0
M  V30 6579 H 623.758 2.74547 -1.20681 0
M  V30 6580 H 621.311 1.41536 -0.663113 0
M  V30 6581 H 622.046 2.94526 1.35739 0
M  V30 6582 H 621.831 3.91897 -0.126003 0
M  V30 6583 H 623.321 4.08868 0.84952 0
M  V30 6584 N 623.758 0.647228 1.43697 0
M  V30 6585 C 624.688 -0.0345631 2.33474 0
M  V30 6586 C 625.669 -0.818193 1.4913 0
M  V30 6587 O 626.854 -0.780867 1.77809 0
M  V30 6588 C 623.984 -1.00576 3.32418 0
M  V30 6589 C 622.938 -0.33266 4.26705 0
M  V30 6590 C 622.264 -1.41489 5.1564 0
M  V30 6591 C 623.564 0.771204 5.16575 0
M  V30 6592 H 625.258 0.715163 2.90733 0
M  V30 6593 H 622.804 0.345364 1.39797 0
M  V30 6594 H 624.757 -1.49159 3.94119 0
M  V30 6595 H 623.481 -1.78657 2.73403 0
M  V30 6596 H 622.14 0.13267 3.6636 0
M  V30 6597 H 621.788 -2.18698 4.52968 0
M  V30 6598 H 621.488 -0.969799 5.79542 0
M  V30 6599 H 623.012 -1.9022 5.80214 0
M  V30 6600 H 624.426 0.36779 5.72119 0
M  V30 6601 H 622.823 1.1404 5.89165 0
M  V30 6602 H 623.893 1.63169 4.56622 0
M  V30 6603 N 625.236 -1.5273 0.388769 0
M  V30 6604 C 626.166 -2.29353 -0.438111 0
M  V30 6605 C 627.147 -1.32719 -1.06394 0
M  V30 6606 O 628.332 -1.61612 -1.07681 0
M  V30 6607 C 625.462 -3.09995 -1.56589 0
M  V30 6608 C 624.416 -4.14509 -1.06613 0
M  V30 6609 C 623.742 -4.83372 -2.28594 0
M  V30 6610 C 625.042 -5.22127 -0.134459 0
M  V30 6611 H 626.736 -2.98723 0.201206 0
M  V30 6612 H 624.282 -1.43665 0.0982089 0
M  V30 6613 H 626.235 -3.62357 -2.15118 0
M  V30 6614 H 624.959 -2.38357 -2.23279 0
M  V30 6615 H 623.618 -3.63128 -0.503383 0
M  V30 6616 H 623.266 -4.08283 -2.93792 0
M  V30 6617 H 622.966 -5.54012 -1.95817 0
M  V30 6618 H 624.49 -5.38538 -2.87766 0
M  V30 6619 H 625.904 -5.69851 -0.627914 0
M  V30 6620 H 624.301 -6.00011 0.103534 0
M  V30 6621 H 625.371 -4.77971 0.816798 0
M  V30 6622 N 626.714 -0.118576 -1.57153 0
M  V30 6623 C 627.646 0.862247 -2.12363 0
M  V30 6624 C 628.659 1.23025 -1.06625 0
M  V30 6625 O 629.848 1.17927 -1.33998 0
M  V30 6626 C 626.948 2.16425 -2.60794 0
M  V30 6627 C 626.121 1.96801 -3.90626 0
M  V30 6628 C 625.18 3.10726 -4.2466 0
M  V30 6629 O 624.206 2.83659 -4.93484 0
M  V30 6630 N 625.408 4.37147 -3.81946 0
M  V30 6631 H 628.173 0.390564 -2.97144 0
M  V30 6632 H 625.734 0.0658591 -1.61766 0
M  V30 6633 H 627.726 2.91633 -2.80593 0
M  V30 6634 H 626.296 2.54943 -1.80895 0
M  V30 6635 H 625.516 1.05787 -3.7974 0
M  V30 6636 H 626.804 1.80993 -4.7552 0
M  V30 6637 H 626.202 4.62014 -3.26435 0
M  V30 6638 H 624.759 5.09229 -4.06853 0
M  V30 6639 N 628.193 1.56834 0.155195 0
M  V30 6640 C 629.609 1.51315 0.50755 0
M  V30 6641 C 629.809 0.825614 1.83809 0
M  V30 6642 O 628.865 0.39271 2.49427 0
M  V30 6643 C 630.178 2.96074 0.52542 0
M  V30 6644 C 631.726 3.06968 0.611505 0
M  V30 6645 C 632.201 4.53218 0.660115 0
M  V30 6646 N 633.692 4.5753 0.722564 0
M  V30 6647 C 634.427 5.68056 0.781023 0
M  V30 6648 N 633.923 6.88173 0.799327 0
M  V30 6649 N 635.716 5.56068 0.821278 0
M  V30 6650 H 627.867 1.9993 -0.717063 0
M  V30 6651 H 630.13 0.911507 -0.260496 0
M  V30 6652 H 629.836 3.49599 -0.383875 0
M  V30 6653 H 629.71 3.51587 1.36624 0
M  V30 6654 H 632.097 2.53468 1.51122 0
M  V30 6655 H 632.178 2.54513 -0.256306 0
M  V30 6656 H 631.822 5.07354 -0.23541 0
M  V30 6657 H 631.752 5.03447 1.5443 0
M  V30 6658 H 634.243 3.71054 0.716049 0
M  V30 6659 H 634.556 7.6816 0.845553 0
M  V30 6660 H 632.901 6.90751 0.767337 0
M  V30 6661 H 636.092 4.61142 0.804091 0
M  V30 6662 H 636.265 6.42223 0.863372 0
M  V30 6663 N 629.671 -0.424282 1.51781 0
M  V30 6664 C 630.92 -1.16961 1.64326 0
M  V30 6665 C 631.233 -1.92035 0.371749 0
M  V30 6666 O 632.439 -2.68873 0.37676 0
M  V30 6667 C 630.895 -2.12782 2.90262 0
M  V30 6668 C 630.503 -1.43295 4.24465 0
M  V30 6669 C 632.247 -2.87667 3.12166 0
M  V30 6670 C 630.154 -2.37676 5.41538 0
M  V30 6671 H 629.084 -0.440293 0.612093 0
M  V30 6672 H 631.735 -0.435431 1.78259 0
M  V30 6673 H 630.117 -2.8969 2.69992 0
M  V30 6674 H 631.291 -0.718564 4.55163 0
M  V30 6675 H 629.606 -0.805118 4.08542 0
M  V30 6676 H 632.203 -3.58395 3.96808 0
M  V30 6677 H 632.546 -3.49758 2.25776 0
M  V30 6678 H 633.079 -2.17863 3.32837 0
M  V30 6679 H 629.818 -1.80255 6.30229 0
M  V30 6680 H 629.338 -3.07132 5.15199 0
M  V30 6681 H 631.017 -2.98529 5.74012 0
M  V30 6682 N 631.149 -1.42148 -0.680565 0
M  V30 6683 C 632.097 -1.45401 -1.81552 0
M  V30 6684 C 633.091 -0.33036 -1.66147 0
M  V30 6685 O 634.297 -0.503103 -1.72826 0
M  V30 6686 H 630.672 -0.455265 -0.59853 0
M  V30 6687 H 632.643 -2.41024 -1.75926 0
M  V30 6688 C 631.392 -1.36769 -3.19671 0
M  V30 6689 H 630.715 -2.22525 -3.32149 0
M  V30 6690 H 632.155 -1.43106 -3.9912 0
M  V30 6691 C 630.614 -0.0817752 -3.36801 0
M  V30 6692 O 631.144 0.867707 -3.92216 0
M  V30 6693 N 629.35 -0.000799811 -2.906 0
M  V30 6694 H 628.897 -0.774231 -2.4569 0
M  V30 6695 H 628.855 0.858961 -3.02439 0
M  V30 6696 N 632.627 0.916307 -1.28225 0
M  V30 6697 C 633.852 1.7043 -1.18188 0
M  V30 6698 C 634.277 1.86346 0.256274 0
M  V30 6699 O 633.635 1.37175 1.18544 0
M  V30 6700 C 633.683 3.07546 -1.88275 0
M  V30 6701 O 632.787 3.94904 -1.18848 0
M  V30 6702 H 632.128 0.521967 -0.410423 0
M  V30 6703 H 634.658 1.14589 -1.69501 0
M  V30 6704 H 634.668 3.57793 -1.96082 0
M  V30 6705 H 633.343 2.95279 -2.92887 0
M  V30 6706 H 631.92 3.53339 -1.19187 0
M  V30 6707 N 634.105 1.10431 1.1244 0
M  V30 6708 C 635.068 0.756542 2.16354 0
M  V30 6709 C 636.068 -0.21899 1.59302 0
M  V30 6710 O 637.258 0.00415969 1.742 0
M  V30 6711 C 634.39 0.120612 3.40687 0
M  V30 6712 H 635.583 1.67696 2.48632 0
M  V30 6713 H 633.136 0.904832 1.27446 0
M  V30 6714 H 633.871 -0.810536 3.14008 0
M  V30 6715 H 633.656 0.822693 3.83372 0
M  V30 6716 H 635.146 -0.106945 4.17463 0
M  V30 6717 N 635.583 -1.29855 0.893053 0
M  V30 6718 C 636.53 -2.27909 0.364161 0
M  V30 6719 C 637.5 -1.56726 -0.550093 0
M  V30 6720 O 638.685 -1.84747 -0.47677 0
M  V30 6721 C 635.825 -3.42678 -0.408178 0
M  V30 6722 C 634.938 -4.28659 0.536212 0
M  V30 6723 C 634.073 -5.30599 -0.252521 0
M  V30 6724 C 633.112 -6.08234 0.686822 0
M  V30 6725 N 632.249 -7.02068 -0.0670902 0
M  V30 6726 H 637.089 -2.72531 1.20544 0
M  V30 6727 H 634.626 -1.34047 0.605779 0
M  V30 6728 H 636.584 -4.07986 -0.871962 0
M  V30 6729 H 635.214 -2.99103 -1.21397 0
M  V30 6730 H 634.266 -3.63584 1.1185 0
M  V30 6731 H 635.578 -4.8274 1.25552 0
M  V30 6732 H 634.732 -6.01694 -0.777801 0
M  V30 6733 H 633.471 -4.77233 -1.005 0
M  V30 6734 H 632.476 -5.3601 1.22366 0
M  V30 6735 H 633.701 -6.63689 1.43852 0
M  V30 6736 H 631.647 -6.5108 -0.801955 0
M  V30 6737 H 631.564 -7.53675 0.59243 0
M  V30 6738 H 632.832 -7.77392 -0.572851 0
M  V30 6739 N 637.061 -0.65484 -1.43351 0
M  V30 6740 C 638.008 0.0357713 -2.30772 0
M  V30 6741 C 638.978 0.813035 -1.44841 0
M  V30 6742 O 640.163 0.789314 -1.73708 0
M  V30 6743 C 637.303 0.995084 -3.30442 0
M  V30 6744 C 636.416 0.21375 -4.31471 0
M  V30 6745 C 635.551 1.16701 -5.18222 0
M  V30 6746 C 634.59 0.376201 -6.10943 0
M  V30 6747 N 633.727 1.28113 -6.90313 0
M  V30 6748 H 638.567 -0.71559 -2.89281 0
M  V30 6749 H 636.104 -0.364645 -1.42509 0
M  V30 6750 H 638.062 1.5649 -3.86739 0
M  V30 6751 H 636.692 1.7133 -2.7358 0
M  V30 6752 H 635.744 -0.472377 -3.77456 0
M  V30 6753 H 637.056 -0.401103 -4.97185 0
M  V30 6754 H 636.21 1.8074 -5.79153 0
M  V30 6755 H 634.949 1.81577 -4.52638 0
M  V30 6756 H 633.954 -0.277534 -5.49099 0
M  V30 6757 H 635.179 -0.268178 -6.7857 0
M  V30 6758 H 633.125 1.91666 -6.27376 0
M  V30 6759 H 633.042 0.720879 -7.52555 0
M  V30 6760 H 634.31 1.90962 -7.55747 0
M  V30 6761 N 638.539 1.52521 -0.396863 0
M  V30 6762 C 639.788 2.00857 0.184184 0
M  V30 6763 C 640.101 1.28733 1.47265 0
M  V30 6764 O 641.307 1.67821 2.13421 0
M  V30 6765 C 639.763 3.57901 0.378787 0
M  V30 6766 C 639.371 4.38931 -0.896873 0
M  V30 6767 C 641.115 4.14504 0.915789 0
M  V30 6768 C 639.022 5.87591 -0.670133 0
M  V30 6769 H 637.952 0.750496 0.0726055 0
M  V30 6770 H 640.603 1.75965 -0.520425 0
M  V30 6771 H 638.985 3.79072 1.14543 0
M  V30 6772 H 640.159 4.29524 -1.66872 0
M  V30 6773 H 638.474 3.93586 -1.35938 0
M  V30 6774 H 641.071 5.23236 1.10126 0
M  V30 6775 H 641.414 3.71076 1.88701 0
M  V30 6776 H 641.947 3.97253 0.208523 0
M  V30 6777 H 638.686 6.35355 -1.61257 0
M  V30 6778 H 638.206 5.99767 0.0626368 0
M  V30 6779 H 639.885 6.46268 -0.307577 0
M  V30 6780 N 640.017 0.126909 1.57088 0
M  V30 6781 C 640.967 -0.831678 2.1229 0
M  V30 6782 C 641.951 -1.22292 1.04564 0
M  V30 6783 O 643.143 -1.19269 1.30782 0
M  V30 6784 C 640.272 -2.07866 2.73215 0
M  V30 6785 C 639.358 -1.71143 3.88035 0
M  V30 6786 N 639.749 -1.05136 4.94753 0
M  V30 6787 C 638.047 -2.00549 3.98367 0
M  V30 6788 C 638.748 -0.877257 5.75047 0
M  V30 6789 N 637.724 -1.40477 5.25135 0
M  V30 6790 H 641.526 -0.317926 2.92175 0
M  V30 6791 H 639.04 -0.0753052 1.62225 0
M  V30 6792 H 641.037 -2.77516 3.11111 0
M  V30 6793 H 639.697 -2.59778 1.94796 0
M  V30 6794 H 640.708 -0.71442 5.12949 0
M  V30 6795 H 637.385 -2.54452 3.30999 0
M  V30 6796 H 638.775 -0.358536 6.70943 0
M  V30 6797 N 641.495 -1.56914 -0.146875 0
M  V30 6798 C 642.425 -2.01308 -1.1831 0
M  V30 6799 C 643.406 -0.892664 -1.44795 0
M  V30 6800 O 644.591 -1.16048 -1.55713 0
M  V30 6801 C 641.721 -2.3938 -2.51624 0
M  V30 6802 C 640.675 -3.54608 -2.3966 0
M  V30 6803 C 640.001 -3.78493 -3.77686 0
M  V30 6804 C 641.301 -4.87269 -1.88058 0
M  V30 6805 H 642.995 -2.88123 -0.813964 0
M  V30 6806 H 640.541 -1.38615 -0.3901 0
M  V30 6807 H 642.494 -2.69037 -3.24341 0
M  V30 6808 H 641.218 -1.49502 -2.90373 0
M  V30 6809 H 639.877 -3.25116 -1.69396 0
M  V30 6810 H 639.525 -2.85866 -4.13871 0
M  V30 6811 H 639.225 -4.56039 -3.70543 0
M  V30 6812 H 640.749 -4.10576 -4.51951 0
M  V30 6813 H 642.163 -5.15644 -2.50568 0
M  V30 6814 H 640.56 -5.68622 -1.91805 0
M  V30 6815 H 641.63 -4.77634 -0.836277 0
M  V30 6816 N 642.974 0.416227 -1.52004 0
M  V30 6817 C 644.22 1.16555 -1.6596 0
M  V30 6818 C 644.553 1.90347 -0.384906 0
M  V30 6819 O 643.828 1.84474 0.616405 0
M  V30 6820 C 644.111 2.1657 -2.87696 0
M  V30 6821 C 643.964 1.46722 -4.25197 0
M  V30 6822 C 645.283 3.17321 -3.04951 0
M  V30 6823 H 642.402 0.422369 -0.603965 0
M  V30 6824 H 645.044 0.452141 -1.84542 0
M  V30 6825 H 643.194 2.77411 -2.71985 0
M  V30 6826 H 644.866 0.89056 -4.52622 0
M  V30 6827 H 643.109 0.769263 -4.26925 0
M  V30 6828 H 643.78 2.19665 -5.0641 0
M  V30 6829 H 646.256 2.66552 -3.19514 0
M  V30 6830 H 645.132 3.84573 -3.91656 0
M  V30 6831 H 645.393 3.84643 -2.17951 0
M  V30 6832 N 644.452 1.42507 0.673017 0
M  V30 6833 C 645.863 1.38347 1.25367 0
M  V30 6834 C 646.214 0.0776327 1.96046 0
M  V30 6835 O 645.339 -0.823571 2.00116 0
M  V30 6836 C 645.934 2.506 2.28002 0
M  V30 6837 C 644.493 2.49767 2.81591 0
M  V30 6838 C 643.64 2.293 1.55938 0
M  V30 6839 H 646.591 1.51695 0.466288 0
M  V30 6840 H 646.612 2.20953 3.09774 0
M  V30 6841 H 646.124 3.45627 1.76532 0
M  V30 6842 H 644.225 1.58563 3.37177 0
M  V30 6843 H 644.338 3.46867 3.30485 0
M  V30 6844 H 642.702 1.77594 1.82572 0
M  V30 6845 H 643.485 3.26385 1.06431 0
M  V30 6846 N 645.93 -0.909495 1.28709 0
M  V30 6847 C 647.17 -1.67344 1.17368 0
M  V30 6848 C 647.534 -1.90058 -0.272419 0
M  V30 6849 O 648.735 -2.63944 -0.508617 0
M  V30 6850 C 647.006 -2.99219 1.95455 0
M  V30 6851 S 648.565 -3.90295 2.00538 0
M  V30 6852 H 645.383 -0.57466 0.418672 0
M  V30 6853 H 647.985 -1.08144 1.62865 0
M  V30 6854 H 646.689 -2.80393 2.9968 0
M  V30 6855 H 646.22 -3.63464 1.50524 0
M  V30 6856 H 648.235 -4.83511 1.11496 0
M  V30 6857 N 647.408 -1.11026 -1.11852 0
M  V30 6858 C 648.358 -0.733836 -2.15868 0
M  V30 6859 C 649.342 0.26001 -1.58785 0
M  V30 6860 O 650.534 0.0677901 -1.7687 0
M  V30 6861 C 647.663 -0.173948 -3.42859 0
M  V30 6862 C 646.749 -1.1952 -4.0691 0
M  V30 6863 N 647.14 -2.38797 -4.45881 0
M  V30 6864 C 645.438 -1.03714 -4.33773 0
M  V30 6865 C 646.139 -3.03894 -4.96007 0
M  V30 6866 N 645.115 -2.31389 -4.91894 0
M  V30 6867 H 648.917 -1.64171 -2.43773 0
M  V30 6868 H 646.431 -0.988877 -1.28822 0
M  V30 6869 H 648.428 0.113836 -4.16745 0
M  V30 6870 H 647.088 0.728568 -3.16421 0
M  V30 6871 H 648.099 -2.76281 -4.38051 0
M  V30 6872 H 644.776 -0.190694 -4.17064 0
M  V30 6873 H 646.166 -4.05389 -5.35826 0
M  V30 6874 N 648.886 1.2938 -0.899927 0
M  V30 6875 C 649.816 2.30144 -0.39446 0
M  V30 6876 C 650.797 1.61611 0.530639 0
M  V30 6877 O 651.982 1.89119 0.441319 0
M  V30 6878 C 649.112 3.45229 0.37868 0
M  V30 6879 C 648.066 4.25564 -0.456012 0
M  V30 6880 C 647.392 5.32848 0.444637 0
M  V30 6881 C 648.692 4.93651 -1.70605 0
M  V30 6882 H 650.386 2.72673 -1.23653 0
M  V30 6883 H 647.932 1.31086 -0.596034 0
M  V30 6884 H 649.885 4.14797 0.743037 0
M  V30 6885 H 648.609 3.01545 1.25453 0
M  V30 6886 H 647.268 3.57704 -0.802704 0
M  V30 6887 H 646.916 4.85408 1.31863 0
M  V30 6888 H 646.616 5.87497 -0.110154 0
M  V30 6889 H 648.14 6.05268 0.805182 0
M  V30 6890 H 649.554 5.55655 -1.41141 0
M  V30 6891 H 647.951 5.58233 -2.20217 0
M  V30 6892 H 649.021 4.18926 -2.4419 0
M  V30 6893 N 650.364 0.662433 1.43002 0
M  V30 6894 C 651.78 0.330835 1.56133 0
M  V30 6895 C 651.98 -1.16454 1.64441 0
M  V30 6896 O 651.036 -1.94964 1.60453 0
M  V30 6897 C 652.349 1.05029 2.81761 0
M  V30 6898 C 653.897 1.03142 2.95518 0
M  V30 6899 C 654.372 1.73196 4.2399 0
M  V30 6900 N 655.863 1.70004 4.30875 0
M  V30 6901 C 656.598 2.21074 5.29069 0
M  V30 6902 N 656.094 2.80473 6.33488 0
M  V30 6903 N 657.887 2.1152 5.20784 0
M  V30 6904 H 650.038 1.63272 1.35853 0
M  V30 6905 H 652.301 0.687149 0.653092 0
M  V30 6906 H 652.007 2.10542 2.81718 0
M  V30 6907 H 651.881 0.607664 3.72273 0
M  V30 6908 H 654.268 -0.0153339 2.95096 0
M  V30 6909 H 654.349 1.51282 2.0627 0
M  V30 6910 H 653.993 2.77833 4.25172 0
M  V30 6911 H 653.923 1.22515 5.1215 0
M  V30 6912 H 656.414 1.26667 3.56039 0
M  V30 6913 H 656.727 3.17094 7.04749 0
M  V30 6914 H 655.072 2.84538 6.34085 0
M  V30 6915 H 658.263 1.64814 4.38126 0
M  V30 6916 H 658.436 2.51629 5.97149 0
M  V30 6917 N 651.842 -1.52309 0.404946 0
M  V30 6918 C 653.119 -1.94237 -0.230544 0
M  V30 6919 C 653.499 -1.34154 -1.6299 0
M  V30 6920 O 652.847 -0.515713 -2.22604 0
M  V30 6921 C 653.057 -3.48166 -0.241106 0
M  V30 6922 C 654.405 -4.22074 -0.462488 0
M  V30 6923 O 655.429 -3.54754 -0.320644 0
M  V30 6924 O 654.288 -5.41443 -0.741708 0
M  V30 6925 H 651.382 -0.813766 -0.147358 0
M  V30 6926 H 653.928 -1.6333 0.460587 0
M  V30 6927 H 652.7 -3.84269 0.738467 0
M  V30 6928 H 652.323 -3.85422 -0.97651 0
M  V30 6929 N 653.32 -0.135238 -1.57019 0
M  V30 6930 C 654.267 0.808908 -2.1616 0
M  V30 6931 C 655.237 1.25234 -1.09113 0
M  V30 6932 O 656.422 1.32697 -1.37099 0
M  V30 6933 C 653.562 2.04729 -2.77813 0
M  V30 6934 C 652.675 1.65074 -3.99218 0
M  V30 6935 C 651.81 2.84002 -4.48906 0
M  V30 6936 C 650.849 2.40663 -5.62803 0
M  V30 6937 N 649.986 3.5256 -6.07162 0
M  V30 6938 H 654.826 0.297751 -2.96509 0
M  V30 6939 H 652.363 0.135264 -1.46477 0
M  V30 6940 H 654.321 2.7731 -3.11697 0
M  V30 6941 H 652.951 2.53275 -2.00128 0
M  V30 6942 H 652.003 0.823029 -3.7139 0
M  V30 6943 H 653.315 1.29236 -4.81767 0
M  V30 6944 H 652.469 3.64788 -4.84783 0
M  V30 6945 H 651.208 3.23076 -3.65339 0
M  V30 6946 H 650.213 1.58314 -5.26514 0
M  V30 6947 H 651.438 2.02687 -6.48147 0
M  V30 6948 H 649.384 3.91278 -5.26534 0
M  V30 6949 H 649.301 3.20699 -6.84608 0
M  V30 6950 H 650.569 4.33738 -6.47682 0
M  V30 6951 N 654.798 1.5699 0.138552 0
M  V30 6952 C 656.045 1.83809 0.849732 0
M  V30 6953 C 656.373 0.717409 1.80786 0
M  V30 6954 O 655.628 -0.292897 1.93496 0
M  V30 6955 C 655.927 3.17007 1.65049 0
M  V30 6956 C 655.593 4.43037 0.838398 0
M  V30 6957 C 654.255 4.77262 0.614385 0
M  V30 6958 C 656.607 5.20495 0.271044 0
M  V30 6959 C 653.935 5.864 -0.187552 0
M  V30 6960 C 656.287 6.30476 -0.517979 0
M  V30 6961 C 654.951 6.63245 -0.75249 0
M  V30 6962 H 654.221 0.672605 0.310939 0
M  V30 6963 H 656.868 1.91166 0.112971 0
M  V30 6964 H 655.173 3.05138 2.4576 0
M  V30 6965 H 656.87 3.34975 2.20437 0
M  V30 6966 H 653.46 4.16211 1.02307 0
M  V30 6967 H 657.644 4.94422 0.431371 0
M  V30 6968 H 652.9 6.10226 -0.378659 0
M  V30 6969 H 657.074 6.89686 -0.964694 0
M  V30 6970 H 654.701 7.47648 -1.37573 0
M  V30 6971 N 656.276 -0.40816 1.52223 0
M  V30 6972 C 657.522 -1.15673 1.66576 0
M  V30 6973 C 657.855 -1.90141 0.394996 0
M  V30 6974 O 657.13 -1.84798 -0.606613 0
M  V30 6975 C 657.413 -2.15042 2.88841 0
M  V30 6976 C 657.266 -1.44465 4.25969 0
M  V30 6977 C 658.585 -3.15699 3.0663 0
M  V30 6978 H 655.704 -0.41916 0.606196 0
M  V30 6979 H 658.346 -0.442348 1.84779 0
M  V30 6980 H 656.496 -2.75964 2.73452 0
M  V30 6981 H 658.168 -0.866544 4.53088 0
M  V30 6982 H 656.411 -0.746612 4.27327 0
M  V30 6983 H 657.082 -2.16976 5.07568 0
M  V30 6984 H 659.558 -2.64854 3.20923 0
M  V30 6985 H 658.434 -3.82491 3.9369 0
M  V30 6986 H 658.695 -3.83481 2.19987 0
M  V30 6987 N 657.755 -1.42862 -0.66545 0
M  V30 6988 C 658.685 -1.49867 -1.79059 0
M  V30 6989 C 659.666 -0.354394 -1.66367 0
M  V30 6990 O 660.851 -0.569969 -1.85647 0
M  V30 6991 C 657.981 -1.40943 -3.17415 0
M  V30 6992 C 656.935 -2.53495 -3.44854 0
M  V30 6993 C 656.261 -2.29626 -4.82883 0
M  V30 6994 C 657.561 -3.95781 -3.40815 0
M  V30 6995 H 659.255 -2.44037 -1.73453 0
M  V30 6996 H 656.801 -1.17456 -0.833071 0
M  V30 6997 H 658.754 -1.4445 -3.95869 0
M  V30 6998 H 657.478 -0.432716 -3.23721 0
M  V30 6999 H 656.137 -2.4932 -2.68766 0
M  V30 7000 H 655.785 -1.30226 -4.8585 0
M  V30 7001 H 655.485 -3.05065 -5.02204 0
M  V30 7002 H 657.009 -2.34897 -5.63609 0
M  V30 7003 H 658.423 -4.01508 -4.09224 0
M  V30 7004 H 656.82 -4.71148 -3.71672 0
M  V30 7005 H 657.89 -4.21786 -2.39216 0
M  V30 7006 N 659.233 0.902656 -1.29189 0
M  V30 7007 C 660.649 1.18296 -1.07137 0
M  V30 7008 C 660.849 2.00701 0.179223 0
M  V30 7009 O 659.905 2.3675 0.877812 0
M  V30 7010 C 661.218 1.90677 -2.32514 0
M  V30 7011 C 662.766 2.03515 -2.37804 0
M  V30 7012 C 663.241 2.79307 -3.62976 0
M  V30 7013 N 664.732 2.86862 -3.63681 0
M  V30 7014 C 665.467 3.46035 -4.57217 0
M  V30 7015 N 664.963 4.06399 -5.61081 0
M  V30 7016 N 666.756 3.43681 -4.44792 0
M  V30 7017 H 658.907 0.352765 -2.0945 0
M  V30 7018 H 661.17 0.21876 -0.922414 0
M  V30 7019 H 660.876 1.3756 -3.23682 0
M  V30 7020 H 660.75 2.91169 -2.39793 0
M  V30 7021 H 663.137 2.55809 -1.47125 0
M  V30 7022 H 663.218 1.02166 -2.34512 0
M  V30 7023 H 662.862 2.2769 -4.54004 0
M  V30 7024 H 662.792 3.80995 -3.63525 0
M  V30 7025 H 665.283 2.43987 -2.88581 0
M  V30 7026 H 665.596 4.49564 -6.2858 0
M  V30 7027 H 663.941 4.0487 -5.64894 0
M  V30 7028 H 667.132 2.9574 -3.62843 0
M  V30 7029 H 667.305 3.89503 -5.17872 0
M  V30 7030 N 660.711 1.11618 1.11262 0
M  V30 7031 C 661.958 0.86618 1.8304 0
M  V30 7032 C 662.286 -0.608149 1.84748 0
M  V30 7033 O 661.541 -1.46508 1.29745 0
M  V30 7034 C 661.84 1.37529 3.2988 0
M  V30 7035 C 661.506 2.86317 3.4833 0
M  V30 7036 C 660.168 3.26945 3.53073 0
M  V30 7037 C 662.52 3.82136 3.54431 0
M  V30 7038 C 659.848 4.62117 3.61475 0
M  V30 7039 C 662.2 5.17128 3.64365 0
M  V30 7040 C 660.864 5.57312 3.67369 0
M  V30 7041 H 660.134 0.316958 0.66979 0
M  V30 7042 H 662.781 1.3949 1.31205 0
M  V30 7043 H 661.086 0.766842 3.84222 0
M  V30 7044 H 662.783 1.15817 3.83911 0
M  V30 7045 H 659.373 2.53889 3.45309 0
M  V30 7046 H 663.557 3.51847 3.50025 0
M  V30 7047 H 658.813 4.92655 3.62079 0
M  V30 7048 H 662.987 5.91208 3.68029 0
M  V30 7049 H 660.614 6.62045 3.73632 0
M  V30 7050 N 662.189 -1.289 0.906776 0
M  V30 7051 C 663.152 -2.25777 0.394656 0
M  V30 7052 C 664.152 -1.53621 -0.475119 0
M  V30 7053 O 665.342 -1.71949 -0.279165 0
M  V30 7054 C 662.474 -3.38113 -0.43499 0
M  V30 7055 H 663.667 -2.72592 1.25033 0
M  V30 7056 H 661.22 -1.40463 0.685547 0
M  V30 7057 H 661.955 -2.96648 -1.31036 0
M  V30 7058 H 661.74 -3.91647 0.188334 0
M  V30 7059 H 663.23 -4.10168 -0.784365 0
M  V30 7060 N 663.667 -0.670007 -1.42649 0
M  V30 7061 C 664.916 -0.187526 -2.00826 0
M  V30 7062 C 665.229 1.21142 -1.53571 0
M  V30 7063 O 666.435 1.79001 -2.04134 0
M  V30 7064 C 664.891 -0.284409 -3.58774 0
M  V30 7065 C 664.499 -1.6871 -4.15019 0
M  V30 7066 C 666.243 0.139605 -4.2427 0
M  V30 7067 C 664.15 -1.73701 -5.65316 0
M  V30 7068 H 663.08 -0.0663468 -0.751075 0
M  V30 7069 H 665.731 -0.834492 -1.63427 0
M  V30 7070 H 664.113 0.430364 -3.93655 0
M  V30 7071 H 665.287 -2.42857 -3.91608 0
M  V30 7072 H 663.602 -2.05855 -3.61957 0
M  V30 7073 H 666.199 0.122398 -5.3456 0
M  V30 7074 H 666.542 1.17403 -3.99402 0
M  V30 7075 H 667.075 -0.523995 -3.94334 0
M  V30 7076 H 663.814 -2.75109 -5.94975 0
M  V30 7077 H 663.334 -1.03903 -5.90732 0
M  V30 7078 H 665.013 -1.48829 -6.2965 0
M  V30 7079 N 665.145 1.52092 -0.413018 0
M  V30 7080 C 666.385 2.03765 0.160975 0
M  V30 7081 C 666.749 1.29174 1.4205 0
M  V30 7082 O 667.95 1.71093 2.07318 0
M  V30 7083 C 666.221 3.55167 0.398871 0
M  V30 7084 S 667.78 4.28619 0.939755 0
M  V30 7085 H 664.598 0.709685 0.0432281 0
M  V30 7086 H 667.2 1.87102 -0.566831 0
M  V30 7087 H 665.904 4.07034 -0.524544 0
M  V30 7088 H 665.435 3.7608 1.15444 0
M  V30 7089 H 667.45 4.43773 2.21991 0
M  V30 7090 N 666.623 0.143563 1.56945 0
M  V30 7091 C 667.848 -0.518701 2.00809 0
M  V30 7092 C 668.273 -1.5785 1.02298 0
M  V30 7093 O 667.631 -1.813 -0.0017839 0
M  V30 7094 C 667.679 -1.09929 3.43436 0
M  V30 7095 O 666.783 -2.21425 3.47915 0
M  V30 7096 H 666.124 -0.127215 0.6517 0
M  V30 7097 H 668.654 0.239283 2.03196 0
M  V30 7098 H 668.664 -1.4288 3.82164 0
M  V30 7099 H 667.339 -0.323162 4.14643 0
M  V30 7100 H 665.916 -1.89728 3.21026 0
M  V30 7101 N 668.101 -1.57061 -0.130224 0
M  V30 7102 C 669.517 -1.52103 -0.483413 0
M  V30 7103 C 669.717 -0.854752 -1.82473 0
M  V30 7104 O 668.773 -0.432342 -2.48771 0
M  V30 7105 C 670.086 -2.96872 -0.47825 0
M  V30 7106 C 671.634 -3.07902 -0.562592 0
M  V30 7107 C 672.109 -4.54211 -0.587929 0
M  V30 7108 N 673.6 -4.58621 -0.649684 0
M  V30 7109 C 674.335 -5.69227 -0.690551 0
M  V30 7110 N 673.831 -6.89358 -0.689743 0
M  V30 7111 N 675.624 -5.57304 -0.732708 0
M  V30 7112 H 667.775 -1.98764 0.748779 0
M  V30 7113 H 670.038 -0.907248 0.274965 0
M  V30 7114 H 669.744 -3.48944 0.439444 0
M  V30 7115 H 669.618 -3.53716 -1.31013 0
M  V30 7116 H 672.005 -2.5584 -1.47071 0
M  V30 7117 H 672.086 -2.54073 0.296764 0
M  V30 7118 H 671.73 -5.06915 0.316096 0
M  V30 7119 H 671.66 -5.0584 -1.46401 0
M  V30 7120 H 674.151 -3.72146 -0.656927 0
M  V30 7121 H 674.464 -7.69408 -0.723239 0
M  V30 7122 H 672.809 -6.91884 -0.657347 0
M  V30 7123 H 676 -4.62363 -0.730625 0
M  V30 7124 H 676.173 -6.43515 -0.76109 0
M  V30 7125 N 669.579 0.400081 -1.52437 0
M  V30 7126 C 670.807 1.16768 -1.70801 0
M  V30 7127 C 671.222 1.84036 -0.421462 0
M  V30 7128 O 670.579 1.72242 0.603228 0
M  V30 7129 C 670.63 2.22403 -2.8499 0
M  V30 7130 O 670.351 1.57879 -4.08663 0
M  V30 7131 C 671.852 3.11974 -3.1494 0
M  V30 7132 H 669.072 0.350533 -0.57216 0
M  V30 7133 H 671.616 0.469534 -1.99037 0
M  V30 7134 H 669.771 2.87871 -2.59247 0
M  V30 7135 H 670.185 2.27982 -4.7236 0
M  V30 7136 H 671.659 3.82148 -3.9833 0
M  V30 7137 H 672.136 3.74858 -2.28863 0
M  V30 7138 H 672.742 2.52165 -3.42481 0
M  V30 7139 N 671.057 1.43213 0.657864 0
M  V30 7140 C 672.303 1.44798 1.41991 0
M  V30 7141 C 672.636 0.070256 1.94073 0
M  V30 7142 O 671.911 -0.908177 1.71995 0
M  V30 7143 C 672.194 2.4865 2.60471 0
M  V30 7144 C 672.047 3.95679 2.13911 0
M  V30 7145 C 673.366 2.49292 3.62686 0
M  V30 7146 H 670.485 0.527244 0.514959 0
M  V30 7147 H 673.127 1.74733 0.74621 0
M  V30 7148 H 671.277 2.23254 3.17946 0
M  V30 7149 H 672.949 4.32116 1.61472 0
M  V30 7150 H 671.192 4.08733 1.45325 0
M  V30 7151 H 671.863 4.6395 2.99089 0
M  V30 7152 H 674.339 2.71917 3.14961 0
M  V30 7153 H 673.215 3.23907 4.43143 0
M  V30 7154 H 673.476 1.52502 4.14964 0
M  V30 7155 N 672.536 -0.895792 1.29666 0
M  V30 7156 C 673.446 -2.03329 1.17024 0
M  V30 7157 C 674.462 -1.73753 0.0925962 0
M  V30 7158 O 675.638 -1.99071 0.305431 0
M  V30 7159 C 672.703 -3.36072 0.851841 0
M  V30 7160 C 671.764 -3.7914 2.01373 0
M  V30 7161 C 670.997 -5.05549 1.71043 0
M  V30 7162 O 671.22 -5.66874 0.633213 0
M  V30 7163 O 670.154 -5.44764 2.5596 0
M  V30 7164 H 673.98 -2.16918 2.12556 0
M  V30 7165 H 671.565 -1.02007 1.09156 0
M  V30 7166 H 673.447 -4.15729 0.689006 0
M  V30 7167 H 672.122 -3.23616 -0.0736634 0
M  V30 7168 H 671.029 -3.00233 2.23183 0
M  V30 7169 H 672.362 -3.96186 2.92058 0
M  V30 7170 N 674.014 -1.12206 -1.10668 0
M  V30 7171 C 675.239 -0.898938 -1.86906 0
M  V30 7172 C 675.664 0.546346 -1.79991 0
M  V30 7173 O 675.022 1.38655 -1.1681 0
M  V30 7174 C 675.07 -1.37529 -3.33344 0
M  V30 7175 O 674.174 -0.55218 -4.08687 0
M  V30 7176 H 673.515 -0.323163 -0.580053 0
M  V30 7177 H 676.045 -1.49355 -1.39837 0
M  V30 7178 H 676.055 -1.3733 -3.84193 0
M  V30 7179 H 674.73 -2.42767 -3.37693 0
M  V30 7180 H 673.307 -0.620947 -3.67694 0
M  V30 7181 N 675.492 1.28418 -0.913599 0
M  V30 7182 C 676.455 2.25564 -0.406624 0
M  V30 7183 C 677.455 1.5387 0.466965 0
M  V30 7184 O 678.645 1.72094 0.270042 0
M  V30 7185 C 675.777 3.38339 0.417053 0
M  V30 7186 H 676.97 2.71926 -1.26477 0
M  V30 7187 H 674.523 1.40098 -0.692986 0
M  V30 7188 H 675.258 2.97339 1.29461 0
M  V30 7189 H 675.043 3.91542 -0.209102 0
M  V30 7190 H 676.533 4.10578 0.762602 0
M  V30 7191 N 676.97 0.677563 1.42291 0
M  V30 7192 C 677.92 -0.0218641 2.2799 0
M  V30 7193 C 678.904 -0.770816 1.41235 0
M  V30 7194 O 680.096 -0.649273 1.64662 0
M  V30 7195 C 677.225 -0.970449 3.29298 0
M  V30 7196 C 676.311 -0.218695 4.23536 0
M  V30 7197 N 676.702 0.777908 4.99782 0
M  V30 7198 C 675 -0.456748 4.43655 0
M  V30 7199 C 675.701 1.22632 5.68627 0
M  V30 7200 N 674.677 0.55573 5.40752 0
M  V30 7201 H 678.479 0.742516 2.84366 0
M  V30 7202 H 675.993 0.506862 1.54288 0
M  V30 7203 H 677.99 -1.48652 3.89497 0
M  V30 7204 H 676.65 -1.73463 2.74483 0
M  V30 7205 H 677.661 1.15754 5.04798 0
M  V30 7206 H 674.338 -1.20021 3.99877 0
M  V30 7207 H 675.728 2.05231 6.39789 0
M  V30 7208 N 678.448 -1.51871 0.421078 0
M  V30 7209 C 679.694 -2.02237 -0.151014 0
M  V30 7210 C 680.027 -1.30554 -1.43768 0
M  V30 7211 O 679.302 -0.41546 -1.90011 0
M  V30 7212 C 679.585 -3.5802 -0.386482 0
M  V30 7213 C 679.438 -4.40339 0.9177 0
M  V30 7214 C 680.757 -4.24444 -1.16342 0
M  V30 7215 H 677.876 -0.735062 -0.0534102 0
M  V30 7216 H 680.518 -1.81656 0.556888 0
M  V30 7217 H 678.668 -3.75688 -0.989494 0
M  V30 7218 H 680.34 -4.34357 1.55344 0
M  V30 7219 H 678.583 -4.06073 1.526 0
M  V30 7220 H 679.254 -5.47451 0.707187 0
M  V30 7221 H 681.73 -4.10948 -0.652788 0
M  V30 7222 H 680.606 -5.33358 -1.29693 0
M  V30 7223 H 680.867 -3.84204 -2.18724 0
M  V30 7224 N 679.926 -0.151884 -1.56866 0
M  V30 7225 C 680.858 0.817008 -2.14144 0
M  V30 7226 C 681.871 1.20735 -1.0921 0
M  V30 7227 O 683.06 1.15058 -1.36469 0
M  V30 7228 C 680.16 2.10844 -2.65326 0
M  V30 7229 C 679.333 1.88471 -3.94712 0
M  V30 7230 C 678.392 3.01649 -4.31155 0
M  V30 7231 O 677.418 2.73127 -4.9939 0
M  V30 7232 N 678.62 4.28947 -3.91132 0
M  V30 7233 H 681.385 0.327448 -2.97906 0
M  V30 7234 H 678.946 0.0315313 -1.61869 0
M  V30 7235 H 680.938 2.85616 -2.86715 0
M  V30 7236 H 679.508 2.51049 -1.86262 0
M  V30 7237 H 678.728 0.977088 -3.81899 0
M  V30 7238 H 680.016 1.70866 -4.79252 0
M  V30 7239 H 679.414 4.54986 -3.36161 0
M  V30 7240 H 677.971 5.00484 -4.17563 0
M  V30 7241 N 681.404 1.57128 0.121893 0
M  V30 7242 C 682.82 1.52357 0.47534 0
M  V30 7243 C 683.02 0.864417 1.82017 0
M  V30 7244 O 682.076 0.445529 2.48538 0
M  V30 7245 C 683.389 2.97122 0.4625 0
M  V30 7246 C 684.937 3.08196 0.546255 0
M  V30 7247 C 685.412 4.54516 0.563833 0
M  V30 7248 N 686.903 4.58959 0.625353 0
M  V30 7249 C 687.638 5.69585 0.660354 0
M  V30 7250 N 687.134 6.89714 0.653175 0
M  V30 7251 N 688.927 5.57685 0.703143 0
M  V30 7252 H 681.078 1.98364 -0.75931 0
M  V30 7253 H 683.341 0.905777 -0.279772 0
M  V30 7254 H 683.047 3.48706 -0.457943 0
M  V30 7255 H 682.921 3.54406 1.29136 0
M  V30 7256 H 685.308 2.56617 1.45712 0
M  V30 7257 H 685.389 2.53912 -0.310234 0
M  V30 7258 H 685.033 5.06741 -0.342974 0
M  V30 7259 H 684.963 5.06609 1.43716 0
M  V30 7260 H 687.454 3.72489 0.637182 0
M  V30 7261 H 687.767 7.69781 0.682425 0
M  V30 7262 H 686.112 6.92223 0.620646 0
M  V30 7263 H 689.303 4.62744 0.706095 0
M  V30 7264 H 689.476 6.43909 0.726952 0
M  V30 7265 N 682.882 -0.391992 1.52647 0
M  V30 7266 C 683.845 -1.46135 1.7657 0
M  V30 7267 C 684.845 -1.47701 0.635698 0
M  V30 7268 O 686.035 -1.48924 0.903728 0
M  V30 7269 C 683.167 -2.85443 1.86374 0
M  V30 7270 H 684.36 -1.26208 2.72051 0
M  V30 7271 H 681.913 -0.623549 1.43323 0
M  V30 7272 H 682.648 -3.10718 0.928685 0
M  V30 7273 H 682.433 -2.85708 2.68539 0
M  V30 7274 H 683.923 -3.62933 2.06566 0
M  V30 7275 N 684.36 -1.4356 -0.65026 0
M  V30 7276 C 685.606 -1.46545 -1.41054 0
M  V30 7277 C 685.961 -0.0894113 -1.92192 0
M  V30 7278 O 685.254 0.892427 -1.69547 0
M  V30 7279 C 685.448 -2.44528 -2.60654 0
M  V30 7280 C 685.277 -3.91524 -2.21222 0
M  V30 7281 C 684.047 -4.59866 -2.09408 0
M  V30 7282 C 686.245 -4.81276 -1.81323 0
M  V30 7283 N 684.227 -5.91772 -1.63337 0
M  V30 7284 C 685.598 -6.02478 -1.46356 0
M  V30 7285 C 687.653 -4.6851 -1.68532 0
M  V30 7286 C 686.356 -7.12332 -0.998805 0
M  V30 7287 C 688.382 -5.78369 -1.23461 0
M  V30 7288 C 687.744 -6.98699 -0.894337 0
M  V30 7289 H 683.843 -0.59135 -0.511693 0
M  V30 7290 H 686.427 -1.79759 -0.747978 0
M  V30 7291 H 684.598 -2.13336 -3.24565 0
M  V30 7292 H 686.33 -2.37932 -3.27369 0
M  V30 7293 H 683.085 -4.14412 -2.29259 0
M  V30 7294 H 683.509 -6.61799 -1.42655 0
M  V30 7295 H 688.151 -3.75933 -1.93479 0
M  V30 7296 H 685.869 -8.04734 -0.736835 0
M  V30 7297 H 689.455 -5.70512 -1.1405 0
M  V30 7298 H 688.335 -7.82263 -0.550901 0
M  V30 7299 N 685.838 0.888903 -1.30139 0
M  V30 7300 C 686.748 2.02705 -1.18101 0
M  V30 7301 C 687.764 1.73702 -0.101809 0
M  V30 7302 O 688.94 1.98906 -0.315984 0
M  V30 7303 C 686.005 3.35616 -0.869651 0
M  V30 7304 C 685.066 3.78067 -2.03381 0
M  V30 7305 C 684.299 5.04635 -1.73721 0
M  V30 7306 O 684.522 5.66531 -0.663267 0
M  V30 7307 O 683.456 5.43399 -2.58845 0
M  V30 7308 H 687.282 2.15788 -2.13704 0
M  V30 7309 H 684.867 1.01426 -1.09695 0
M  V30 7310 H 686.749 4.15358 -0.711043 0
M  V30 7311 H 685.424 3.23651 0.0565002 0
M  V30 7312 H 684.331 2.99046 -2.24772 0
M  V30 7313 H 685.664 3.94631 -2.94155 0
M  V30 7314 N 687.317 1.12792 1.10072 0
M  V30 7315 C 688.267 0.768086 2.14673 0
M  V30 7316 C 689.251 -0.234716 1.59179 0
M  V30 7317 O 690.443 -0.039643 1.76956 0
M  V30 7318 C 687.572 0.228472 3.42539 0
M  V30 7319 C 686.658 1.25979 4.04957 0
M  V30 7320 N 687.049 2.4586 4.42025 0
M  V30 7321 C 685.347 1.10602 4.32069 0
M  V30 7322 C 686.048 3.11747 4.9111 0
M  V30 7323 N 685.024 2.39185 4.88151 0
M  V30 7324 H 688.826 1.68029 2.4113 0
M  V30 7325 H 686.34 1.00925 1.27232 0
M  V30 7326 H 688.337 -0.0475216 4.16873 0
M  V30 7327 H 686.997 -0.678136 3.1754 0
M  V30 7328 H 688.008 2.83215 4.33601 0
M  V30 7329 H 684.685 0.257021 4.16708 0
M  V30 7330 H 686.075 4.13862 5.29309 0
M  V30 7331 N 688.795 -1.27931 0.920396 0
M  V30 7332 C 690.044 -1.93975 0.552867 0
M  V30 7333 C 690.357 -1.73193 -0.909035 0
M  V30 7334 O 691.563 -2.33515 -1.38502 0
M  V30 7335 C 690.019 -3.47463 0.937947 0
M  V30 7336 C 689.627 -3.77013 2.42003 0
M  V30 7337 C 691.371 -4.19628 0.64132 0
M  V30 7338 C 689.278 -5.23841 2.74489 0
M  V30 7339 H 688.208 -0.726146 0.203046 0
M  V30 7340 H 690.859 -1.45339 1.12022 0
M  V30 7341 H 689.241 -3.94867 0.299317 0
M  V30 7342 H 690.415 -3.40393 3.10595 0
M  V30 7343 H 688.73 -3.18035 2.6878 0
M  V30 7344 H 691.327 -5.27729 0.860622 0
M  V30 7345 H 691.67 -4.14164 -0.421168 0
M  V30 7346 H 692.203 -3.78022 1.23872 0
M  V30 7347 H 688.942 -5.34388 3.79618 0
M  V30 7348 H 688.462 -5.61634 2.1054 0
M  V30 7349 H 690.141 -5.91647 2.61845 0
M  V30 7350 N 690.273 -0.685099 -1.4193 0
M  V30 7351 C 691.22 -0.0131869 -2.30796 0
M  V30 7352 C 692.19 0.782129 -1.46533 0
M  V30 7353 O 693.375 0.75229 -1.75343 0
M  V30 7354 C 690.515 0.924768 -3.32479 0
M  V30 7355 C 689.628 0.122181 -4.31827 0
M  V30 7356 C 688.763 1.05682 -5.20581 0
M  V30 7357 C 687.802 0.246526 -6.11603 0
M  V30 7358 N 686.939 1.13442 -6.92875 0
M  V30 7359 H 691.779 -0.776789 -2.87698 0
M  V30 7360 H 689.316 -0.394791 -1.41703 0
M  V30 7361 H 691.274 1.48251 -3.89971 0
M  V30 7362 H 689.904 1.65488 -2.77152 0
M  V30 7363 H 688.956 -0.552335 -3.76369 0
M  V30 7364 H 690.268 -0.506473 -4.96222 0
M  V30 7365 H 689.422 1.68415 -5.82856 0
M  V30 7366 H 688.161 1.71935 -4.56388 0
M  V30 7367 H 687.166 -0.393944 -5.48387 0
M  V30 7368 H 688.391 -0.412053 -6.77849 0
M  V30 7369 H 686.337 1.78316 -6.313 0
M  V30 7370 H 686.254 0.561089 -7.53915 0
M  V30 7371 H 687.522 1.74889 -7.59628 0
M  V30 7372 N 691.751 1.51645 -0.429126 0
M  V30 7373 C 692.661 2.31288 0.392809 0
M  V30 7374 C 693.677 1.39852 1.03525 0
M  V30 7375 O 694.853 1.72926 1.03241 0
M  V30 7376 C 691.918 3.13347 1.48372 0
M  V30 7377 C 690.979 4.20551 0.862268 0
M  V30 7378 C 690.212 4.98688 1.9012 0
M  V30 7379 O 690.435 4.77359 3.12225 0
M  V30 7380 O 689.369 5.83005 1.4963 0
M  V30 7381 H 693.195 3.02609 -0.257138 0
M  V30 7382 H 690.78 1.48163 -0.191851 0
M  V30 7383 H 692.662 3.64387 2.1166 0
M  V30 7384 H 691.337 2.44799 2.1179 0
M  V30 7385 H 690.244 3.73609 0.191568 0
M  V30 7386 H 691.577 4.91449 0.271704 0
M  V30 7387 N 693.229 0.160201 1.56784 0
M  V30 7388 C 694.159 -0.770264 2.2043 0
M  V30 7389 C 695.14 -1.24736 1.15651 0
M  V30 7390 O 696.325 -1.30253 1.44041 0
M  V30 7391 C 693.455 -2.00427 2.83631 0
M  V30 7392 C 692.409 -1.66345 3.94352 0
M  V30 7393 C 691.735 -2.97119 4.4455 0
M  V30 7394 C 693.035 -0.899972 5.14488 0
M  V30 7395 H 694.729 -0.239783 2.98438 0
M  V30 7396 H 692.275 -0.113891 1.43549 0
M  V30 7397 H 694.228 -2.66012 3.26827 0
M  V30 7398 H 692.952 -2.5587 2.02973 0
M  V30 7399 H 691.611 -1.03133 3.51794 0
M  V30 7400 H 691.259 -3.5058 3.60698 0
M  V30 7401 H 690.959 -2.75073 5.19238 0
M  V30 7402 H 692.483 -3.63753 4.90425 0
M  V30 7403 H 693.897 -1.45818 5.54446 0
M  V30 7404 H 692.294 -0.778968 5.95023 0
M  V30 7405 H 693.364 0.105827 4.84785 0
M  V30 7406 N 694.707 -1.5719 -0.113559 0
M  V30 7407 C 695.67 -1.99796 -1.12314 0
M  V30 7408 C 696.67 -0.888847 -1.34001 0
M  V30 7409 O 697.86 -1.15476 -1.30426 0
M  V30 7410 C 694.992 -2.34279 -2.47641 0
M  V30 7411 H 696.185 -2.90193 -0.756825 0
M  V30 7412 H 693.738 -1.52144 -0.358029 0
M  V30 7413 H 694.473 -1.46778 -2.89183 0
M  V30 7414 H 694.258 -3.15175 -2.33253 0
M  V30 7415 H 695.748 -2.67963 -3.2029 0
M  V30 7416 N 696.185 0.383891 -1.52853 0
M  V30 7417 C 697.148 1.45197 -1.77343 0
M  V30 7418 C 698.148 1.47362 -0.643522 0
M  V30 7419 O 699.338 1.48443 -0.911613 0
M  V30 7420 C 696.47 2.8445 -1.87885 0
M  V30 7421 H 697.663 1.24764 -2.72716 0
M  V30 7422 H 695.216 0.615939 -1.43652 0
M  V30 7423 H 695.951 3.10222 -0.94515 0
M  V30 7424 H 695.736 2.8428 -2.70051 0
M  V30 7425 H 697.226 3.61832 -2.08488 0
M  V30 7426 N 697.663 1.43903 0.642637 0
M  V30 7427 C 698.94 1.36556 1.40043 0
M  V30 7428 C 699.32 0.0185588 2.11092 0
M  V30 7429 O 698.668 -0.998438 2.05532 0
M  V30 7430 C 698.878 2.55596 2.37638 0
M  V30 7431 C 700.226 2.99153 3.01318 0
M  V30 7432 O 701.25 2.55719 2.47965 0
M  V30 7433 O 700.109 3.74427 3.98078 0
M  V30 7434 H 697.203 0.540189 0.626198 0
M  V30 7435 H 699.749 1.55971 0.668657 0
M  V30 7436 H 698.521 3.45256 1.84158 0
M  V30 7437 H 698.144 2.38334 3.18249 0
M  V30 7438 N 699.141 -0.881989 1.30609 0
M  V30 7439 C 700.387 -1.63647 1.19781 0
M  V30 7440 C 700.72 -1.92632 -0.246265 0
M  V30 7441 O 699.995 -1.54938 -1.17577 0
M  V30 7442 C 700.278 -2.97437 2.02985 0
M  V30 7443 C 700.131 -2.75406 3.55628 0
M  V30 7444 C 701.45 -3.98397 1.86997 0
M  V30 7445 H 698.569 -0.593841 0.436488 0
M  V30 7446 H 701.211 -1.02041 1.60273 0
M  V30 7447 H 699.361 -3.50018 1.68581 0
M  V30 7448 H 701.033 -2.2959 4.00107 0
M  V30 7449 H 699.276 -2.09856 3.79662 0
M  V30 7450 H 699.947 -3.70552 4.09139 0
M  V30 7451 H 702.423 -3.54986 2.17081 0
M  V30 7452 H 701.299 -4.89916 2.47536 0
M  V30 7453 H 701.56 -4.3424 0.829943 0
M  V30 7454 N 700.619 -1.13374 -1.09472 0
M  V30 7455 C 701.549 -0.833268 -2.18126 0
M  V30 7456 C 702.53 0.207169 -1.68834 0
M  V30 7457 O 703.715 0.0662012 -1.94087 0
M  V30 7458 C 700.845 -0.297979 -3.46019 0
M  V30 7459 C 699.799 -1.27261 -4.08642 0
M  V30 7460 C 699.125 -0.597104 -5.31356 0
M  V30 7461 C 700.425 -2.63095 -4.51197 0
M  V30 7462 H 702.119 -1.74182 -2.43518 0
M  V30 7463 H 699.665 -0.838921 -1.17039 0
M  V30 7464 H 701.618 -0.0754444 -4.21332 0
M  V30 7465 H 700.342 0.645959 -3.20148 0
M  V30 7466 H 699.001 -1.48113 -3.35348 0
M  V30 7467 H 698.649 0.352293 -5.01765 0
M  V30 7468 H 698.349 -1.24734 -5.74208 0
M  V30 7469 H 699.873 -0.38384 -6.09392 0
M  V30 7470 H 701.287 -2.46214 -5.17737 0
M  V30 7471 H 699.684 -3.2429 -5.04932 0
M  V30 7472 H 700.754 -3.20793 -3.6362 0
M  V30 7473 N 702.098 1.27442 -0.927168 0
M  V30 7474 C 703.514 1.46754 -0.627329 0
M  V30 7475 C 703.714 1.83902 0.823549 0
M  V30 7476 O 702.77 1.95215 1.60148 0
M  V30 7477 C 704.083 2.56045 -1.57674 0
M  V30 7478 C 705.631 2.69906 -1.58491 0
M  V30 7479 C 706.106 3.82355 -2.52128 0
M  V30 7480 N 707.597 3.89728 -2.50332 0
M  V30 7481 C 708.332 4.76155 -3.19475 0
M  V30 7482 N 707.828 5.67073 -3.97995 0
M  V30 7483 N 709.621 4.6988 -3.08496 0
M  V30 7484 H 701.772 1.01613 -1.86517 0
M  V30 7485 H 704.035 0.507443 -0.800753 0
M  V30 7486 H 703.741 2.35542 -2.61176 0
M  V30 7487 H 703.615 3.53423 -1.31804 0
M  V30 7488 H 706.002 2.89792 -0.557208 0
M  V30 7489 H 706.083 1.73018 -1.8841 0
M  V30 7490 H 705.727 3.63224 -3.55008 0
M  V30 7491 H 705.657 4.7867 -2.19505 0
M  V30 7492 H 708.148 3.24717 -1.93306 0
M  V30 7493 H 708.461 6.2988 -4.4774 0
M  V30 7494 H 706.806 5.6687 -4.02098 0
M  V30 7495 H 709.997 3.97848 -2.46646 0
M  V30 7496 H 710.17 5.37017 -3.62652 0
M  V30 7497 N 703.576 0.692616 1.41565 0
M  V30 7498 C 704.539 0.0344174 2.29174 0
M  V30 7499 C 705.539 -0.710961 1.44229 0
M  V30 7500 O 706.729 -0.546293 1.65412 0
M  V30 7501 C 703.861 -0.961682 3.27054 0
M  V30 7502 H 705.054 0.805755 2.88873 0
M  V30 7503 H 702.607 0.455947 1.49502 0
M  V30 7504 H 703.342 -1.76089 2.72329 0
M  V30 7505 H 703.127 -0.430375 3.89731 0
M  V30 7506 H 704.617 -1.4201 3.92712 0
M  V30 7507 N 705.054 -1.51416 0.437162 0
M  V30 7508 C 705.964 -2.31493 -0.380537 0
M  V30 7509 C 706.98 -1.40399 -1.02782 0
M  V30 7510 O 708.156 -1.73471 -1.02323 0
M  V30 7511 C 705.221 -3.1413 -1.46709 0
M  V30 7512 C 704.282 -4.21003 -0.839953 0
M  V30 7513 C 703.515 -4.9969 -1.87473 0
M  V30 7514 O 703.738 -4.79008 -3.09689 0
M  V30 7515 O 702.672 -5.8379 -1.46536 0
M  V30 7516 H 706.498 -3.02469 0.273183 0
M  V30 7517 H 704.083 -1.48059 0.199706 0
M  V30 7518 H 705.965 -3.65505 -2.09724 0
M  V30 7519 H 704.64 -2.45919 -2.10489 0
M  V30 7520 H 703.547 -3.73706 -0.171752 0
M  V30 7521 H 704.88 -4.91587 -0.245638 0
M  V30 7522 N 706.532 -0.168513 -1.56696 0
M  V30 7523 C 707.948 0.187686 -1.58493 0
M  V30 7524 C 708.148 1.63063 -1.18375 0
M  V30 7525 O 707.204 2.36142 -0.894042 0
M  V30 7526 C 708.517 -0.0905858 -3.00564 0
M  V30 7527 C 710.065 -0.028575 -3.12987 0
M  V30 7528 C 710.54 -0.279799 -4.57145 0
M  V30 7529 N 712.031 -0.227476 -4.62641 0
M  V30 7530 C 712.766 -0.396073 -5.7203 0
M  V30 7531 N 712.262 -0.623572 -6.89988 0
M  V30 7532 N 714.055 -0.332173 -5.61118 0
M  V30 7533 H 706.206 -1.11042 -1.81062 0
M  V30 7534 H 708.469 -0.441235 -0.839056 0
M  V30 7535 H 708.175 -1.09006 -3.34381 0
M  V30 7536 H 708.049 0.619078 -3.72085 0
M  V30 7537 H 710.436 0.961471 -2.78998 0
M  V30 7538 H 710.517 -0.770905 -2.43907 0
M  V30 7539 H 710.161 -1.26704 -4.91842 0
M  V30 7540 H 710.091 0.48311 -5.24379 0
M  V30 7541 H 712.582 -0.0571723 -3.77857 0
M  V30 7542 H 712.895 -0.741745 -7.69232 0
M  V30 7543 H 711.24 -0.660153 -6.91858 0
M  V30 7544 H 714.431 -0.155051 -4.67843 0
M  V30 7545 H 714.604 -0.466994 -6.46315 0
M  V30 7546 N 708.01 1.57248 0.105221 0
M  V30 7547 C 708.92 2.04653 1.14693 0
M  V30 7548 C 709.936 0.969488 1.44489 0
M  V30 7549 O 711.112 1.28196 1.55331 0
M  V30 7550 C 708.177 2.45297 2.45011 0
M  V30 7551 C 707.238 3.67148 2.22489 0
M  V30 7552 C 706.471 4.05844 3.46592 0
M  V30 7553 O 706.694 3.44736 4.54437 0
M  V30 7554 O 705.628 4.98862 3.36779 0
M  V30 7555 H 709.454 2.93663 0.774336 0
M  V30 7556 H 707.039 1.45998 0.31701 0
M  V30 7557 H 708.921 2.72112 3.21766 0
M  V30 7558 H 707.596 1.59429 2.81717 0
M  V30 7559 H 706.503 3.45463 1.43547 0
M  V30 7560 H 707.836 4.53764 1.9068 0
M  V30 7561 O 709.527 -0.249352 1.59563 0
M  V30 7562 H 710.218 -0.892778 1.71899 0
M  V30 END ATOM
M  V30 BEGIN BOND
M  V30 END BOND
M  V30 END CTAB
M  END
$$$$
