drugbank_target|P08574 Cytochrome c1, heme protein, mitochondrial (DB04141; DB04799; DB07401; DB07636; DB07763; DB07778; DB08330; DB08453; DB08690)
 OpenBabel12092120423D

  0  0  0     0  0            999 V3000
M  V30 BEGIN CTAB
M  V30 COUNTS 4977 5042 0 0 0
M  V30 BEGIN ATOM
M  V30 1 H -0.908 1.98254 -0.117106 0
M  V30 2 N 0 1.576 0 0
M  V30 3 C 0.933 2.03868 1.02534 0
M  V30 4 C 1.911 0.928543 1.3348 0
M  V30 5 O 3.095 1.19667 1.45644 0
M  V30 6 C 0.222 2.43627 2.35294 0
M  V30 7 C -0.732 3.65373 2.2001 0
M  V30 8 S 0.101 5.13292 1.52614 0
M  V30 9 C 1.257 5.56322 2.86805 0
M  V30 10 H 1.49 2.90518 0.631377 0
M  V30 11 H -0.977 1.52953 0.210867 0
M  V30 12 H 0.981 2.67203 3.11629 0
M  V30 13 H -0.358 1.57376 2.7183 0
M  V30 14 H -1.165 3.90944 3.18086 0
M  V30 15 H -1.563 3.418 1.51819 0
M  V30 16 H 0.729 5.58782 3.83104 0
M  V30 17 H 1.672 6.56266 2.65933 0
M  V30 18 H 2.08 4.83886 2.90714 0
M  V30 19 N 1.4781 -0.272755 1.55222 0
M  V30 20 C 2.4411 -1.32041 1.87344 0
M  V30 21 C 3.4411 -1.42342 0.74803 0
M  V30 22 O 4.6311 -1.41488 1.0162 0
M  V30 23 C 1.7631 -2.70173 2.07893 0
M  V30 24 H 2.9561 -1.04789 2.80997 0
M  V30 25 H 0.5091 -0.51083 1.47717 0
M  V30 26 H 1.2441 -3.02605 1.16622 0
M  V30 27 H 1.0291 -2.64082 2.89833 0
M  V30 28 H 2.5191 -3.45869 2.34017 0
M  V30 29 N 2.9562 -1.48159 -0.537278 0
M  V30 30 C 3.9192 -1.61665 -1.62472 0
M  V30 31 C 4.9192 -0.490395 -1.5314 0
M  V30 32 O 6.1092 -0.755998 -1.5694 0
M  V30 33 C 3.2412 -1.57997 -3.02076 0
M  V30 34 H 4.4342 -2.58621 -1.51839 0
M  V30 35 H 1.9872 -1.36647 -0.758771 0
M  V30 36 H 2.7222 -0.624913 -3.18222 0
M  V30 37 H 2.5072 -2.39755 -3.10258 0
M  V30 38 H 3.9972 -1.70627 -3.81151 0
M  V30 39 N 4.4343 0.785586 -1.36625 0
M  V30 40 C 5.3973 1.87999 -1.31107 0
M  V30 41 C 6.3973 1.59316 -0.217959 0
M  V30 42 O 7.5873 1.67656 -0.472977 0
M  V30 43 C 4.7193 3.24861 -1.03334 0
M  V30 44 H 5.9123 1.94307 -2.2844 0
M  V30 45 H 3.4653 0.983813 -1.21453 0
M  V30 46 H 4.2003 3.24235 -0.0647432 0
M  V30 47 H 3.9853 3.4707 -1.82441 0
M  V30 48 H 5.4753 4.04929 -1.02088 0
M  V30 49 N 5.9124 1.20967 1.01018 0
M  V30 50 C 6.8754 0.965918 2.07853 0
M  V30 51 C 7.8754 -0.0610545 1.60684 0
M  V30 52 O 9.0654 0.175681 1.73312 0
M  V30 53 C 6.1974 0.455513 3.37843 0
M  V30 54 H 7.3904 1.91365 2.3091 0
M  V30 55 H 4.9434 1.02594 1.17916 0
M  V30 56 H 5.6784 -0.497381 3.20463 0
M  V30 57 H 5.4634 1.19622 3.73407 0
M  V30 58 H 6.9534 0.304667 4.16487 0
M  V30 59 N 7.3905 -1.2043 1.01659 0
M  V30 60 C 8.3535 -2.21433 0.591616 0
M  V30 61 C 9.3535 -1.57203 -0.338226 0
M  V30 62 O 10.5435 -1.73737 -0.126918 0
M  V30 63 C 7.6755 -3.40628 -0.136058 0
M  V30 64 H 8.8685 -2.60545 1.48514 0
M  V30 65 H 6.4215 -1.33893 0.806379 0
M  V30 66 H 7.1565 -3.07019 -1.04449 0
M  V30 67 H 6.9415 -3.88475 0.531917 0
M  V30 68 H 8.4315 -4.15475 -0.420735 0
M  V30 69 N 8.8686 -0.792821 -1.36206 0
M  V30 70 C 10.0936 -0.377701 -2.03932 0
M  V30 71 C 10.5186 0.998947 -1.59382 0
M  V30 72 O 9.8766 1.64421 -0.763903 0
M  V30 73 C 9.9246 -0.453635 -3.57735 0
M  V30 74 O 9.0286 0.538151 -4.08874 0
M  V30 75 H 8.3696 -0.159855 -0.644471 0
M  V30 76 H 10.8996 -1.07488 -1.7409 0
M  V30 77 H 10.9096 -0.318464 -4.06755 0
M  V30 78 H 9.5846 -1.45784 -3.89512 0
M  V30 79 H 8.1616 0.364359 -3.71116 0
M  V30 80 N 10.3467 1.47872 -0.545128 0
M  V30 81 C 11.2767 2.32661 0.197793 0
M  V30 82 C 12.2577 1.43041 0.920504 0
M  V30 83 O 13.4427 1.71912 0.90333 0
M  V30 84 C 10.5727 3.24569 1.23582 0
M  V30 85 C 9.5267 4.23333 0.630323 0
M  V30 86 C 8.8527 5.0448 1.77211 0
M  V30 87 C 10.1527 5.20704 -0.407974 0
M  V30 88 H 11.8467 2.95024 -0.510045 0
M  V30 89 H 9.3927 1.4187 -0.246731 0
M  V30 90 H 11.3457 3.8272 1.76362 0
M  V30 91 H 10.0697 2.60236 1.97344 0
M  V30 92 H 8.7287 3.6639 0.123922 0
M  V30 93 H 8.3767 4.36561 2.49847 0
M  V30 94 H 8.0767 5.71339 1.37281 0
M  V30 95 H 9.6007 5.65487 2.3034 0
M  V30 96 H 11.0147 5.7329 0.033305 0
M  V30 97 H 9.4117 5.95699 -0.725486 0
M  V30 98 H 10.4817 4.66917 -1.30828 0
M  V30 99 N 11.8248 0.280983 1.55075 0
M  V30 100 C 13.2408 -0.0729964 1.59433 0
M  V30 101 C 13.4408 -1.5411 1.29817 0
M  V30 102 O 12.4968 -2.29086 1.06187 0
M  V30 103 C 13.8098 0.306921 2.9913 0
M  V30 104 C 15.3578 0.254023 3.11968 0
M  V30 105 C 15.8328 0.608467 4.5394 0
M  V30 106 N 17.3238 0.560241 4.59799 0
M  V30 107 C 18.0588 0.80722 5.6769 0
M  V30 108 N 17.5548 1.11912 6.83701 0
M  V30 109 N 19.3478 0.735623 5.57266 0
M  V30 110 H 11.4988 1.238 1.7259 0
M  V30 111 H 13.7618 0.500547 0.805082 0
M  V30 112 H 13.4678 1.32816 3.25657 0
M  V30 113 H 13.3418 -0.349363 3.75579 0
M  V30 114 H 15.7288 -0.75794 2.852 0
M  V30 115 H 15.8098 0.944649 2.37718 0
M  V30 116 H 15.4538 1.61814 4.81434 0
M  V30 117 H 15.3838 -0.104013 5.26497 0
M  V30 118 H 17.8748 0.329288 3.76463 0
M  V30 119 H 18.1878 1.29409 7.61888 0
M  V30 120 H 16.5328 1.15695 6.85303 0
M  V30 121 H 19.7238 0.491752 4.6551 0
M  V30 122 H 19.8968 0.931482 6.4127 0
M  V30 123 N 13.3029 -1.57598 0.00835791 0
M  V30 124 C 14.5509 -1.90551 -0.6734 0
M  V30 125 C 14.8719 -0.883301 -1.73847 0
M  V30 126 O 14.1419 0.0781442 -1.95744 0
M  V30 127 H 12.7219 -0.703312 -0.251717 0
M  V30 128 H 15.3839 -1.94833 0.0512592 0
M  V30 129 H 14.4799 -2.9056 -1.13935 0
M  V30 130 N 14.781 0.264519 -1.55364 0
M  V30 131 C 16.027 0.99646 -1.76631 0
M  V30 132 C 16.36 1.85632 -0.570478 0
M  V30 133 O 15.635 1.89647 0.43175 0
M  V30 134 C 15.918 1.87187 -3.07625 0
M  V30 135 C 15.771 1.04138 -4.37579 0
M  V30 136 C 17.09 2.85749 -3.34717 0
M  V30 137 H 14.209 0.360841 -0.642622 0
M  V30 138 H 16.851 0.268218 -1.88097 0
M  V30 139 H 15.001 2.49279 -2.9798 0
M  V30 140 H 16.673 0.440517 -4.59192 0
M  V30 141 H 14.916 0.345115 -4.32425 0
M  V30 142 H 15.587 1.68729 -5.2558 0
M  V30 143 H 18.063 2.33793 -3.4421 0
M  V30 144 H 16.939 3.44136 -4.27623 0
M  V30 145 H 17.2 3.61311 -2.54768 0
M  V30 146 N 16.2591 1.48442 0.529413 0
M  V30 147 C 17.5051 1.5672 1.28711 0
M  V30 148 C 17.8381 0.2406 1.92704 0
M  V30 149 O 17.1131 -0.753454 1.79313 0
M  V30 150 C 17.3961 2.70587 2.37603 0
M  V30 151 C 17.2491 4.12953 1.78297 0
M  V30 152 C 18.5681 2.80212 3.39366 0
M  V30 153 H 15.6871 0.570474 0.466613 0
M  V30 154 H 18.3291 1.80617 0.589706 0
M  V30 155 H 16.4791 2.50342 2.97088 0
M  V30 156 H 18.1511 4.44639 1.22858 0
M  V30 157 H 16.3941 4.19927 1.0883 0
M  V30 158 H 17.0651 4.88448 2.57144 0
M  V30 159 H 19.5411 2.98553 2.89836 0
M  V30 160 H 18.4171 3.61611 4.12951 0
M  V30 161 H 18.6781 1.88393 3.99951 0
M  V30 162 N 17.7372 -0.778329 1.37039 0
M  V30 163 C 18.6672 -1.90546 1.34962 0
M  V30 164 C 19.6482 -1.68681 0.219274 0
M  V30 165 O 20.8332 -1.89634 0.418624 0
M  V30 166 C 17.9632 -3.27734 1.14925 0
M  V30 167 C 16.9172 -3.64147 2.24902 0
M  V30 168 C 16.2432 -4.99806 1.89996 0
M  V30 169 C 17.5432 -3.71579 3.67051 0
M  V30 170 H 19.2372 -1.92541 2.29277 0
M  V30 171 H 16.7832 -0.924948 1.10366 0
M  V30 172 H 18.7362 -4.06215 1.12104 0
M  V30 173 H 17.4602 -3.26154 0.170631 0
M  V30 174 H 16.1192 -2.8797 2.26868 0
M  V30 175 H 15.7672 -4.94759 0.906796 0
M  V30 176 H 15.4672 -5.25139 2.63634 0
M  V30 177 H 16.9912 -5.80694 1.88749 0
M  V30 178 H 18.4052 -4.40227 3.67251 0
M  V30 179 H 16.8022 -4.08405 4.39688 0
M  V30 180 H 17.8722 -2.72404 4.01154 0
M  V30 181 N 19.2153 -1.21501 -1.00376 0
M  V30 182 C 20.4633 -1.03095 -1.73827 0
M  V30 183 C 20.7843 0.436341 -1.90055 0
M  V30 184 O 20.0543 1.31466 -1.45236 0
M  V30 185 H 18.6343 -0.378487 -0.644016 0
M  V30 186 H 21.2963 -1.52831 -1.20949 0
M  V30 187 H 20.3923 -1.49991 -2.73695 0
M  V30 188 N 20.6934 1.19889 -1.02296 0
M  V30 189 C 22.1044 1.71124 -0.746568 0
M  V30 190 C 22.4554 1.81939 0.734335 0
M  V30 191 O 21.5804 1.48639 1.57275 0
M  V30 192 C 22.1754 3.10804 -1.34857 0
M  V30 193 C 20.7344 3.59323 -1.1209 0
M  V30 194 C 19.8814 2.3635 -1.45031 0
M  V30 195 H 22.8324 1.04813 -1.19163 0
M  V30 196 H 22.8534 3.73186 -0.742437 0
M  V30 197 H 22.3654 3.029 -2.42638 0
M  V30 198 H 20.4664 3.7255 -0.0610337 0
M  V30 199 H 20.5794 4.4378 -1.80544 0
M  V30 200 H 18.9434 2.39399 -0.869487 0
M  V30 201 H 19.7264 2.31081 -2.53883 0
M  V30 202 N 22.1715 0.800033 1.35784 0
M  V30 203 C 23.5875 0.482977 1.52117 0
M  V30 204 C 23.7875 -0.996948 1.75109 0
M  V30 205 O 22.8435 -1.78216 1.78872 0
M  V30 206 C 24.1565 1.32264 2.70049 0
M  V30 207 C 25.7045 1.31742 2.83924 0
M  V30 208 C 26.1795 2.14106 4.04874 0
M  V30 209 N 27.6705 2.11607 4.12039 0
M  V30 210 C 28.4055 2.72099 5.04727 0
M  V30 211 N 27.9015 3.41492 6.02789 0
M  V30 212 N 29.6945 2.61776 4.97423 0
M  V30 213 H 21.8455 1.75856 1.19115 0
M  V30 214 H 24.1085 0.748122 0.582252 0
M  V30 215 H 23.8145 2.37261 2.59616 0
M  V30 216 H 23.6885 0.971303 3.6448 0
M  V30 217 H 26.0755 0.275333 2.93813 0
M  V30 218 H 26.1565 1.70859 1.9037 0
M  V30 219 H 25.8005 3.18351 3.95746 0
M  V30 220 H 25.7305 1.72353 4.97596 0
M  V30 221 H 28.2215 1.61112 3.41835 0
M  V30 222 H 28.5345 3.84953 6.70098 0
M  V30 223 H 26.8795 3.45596 6.02983 0
M  V30 224 H 30.0705 2.07157 4.19766 0
M  V30 225 H 30.2435 3.0921 5.69468 0
M  V30 226 N 23.6496 -1.47581 0.552962 0
M  V30 227 C 24.8976 -2.02082 0.0272703 0
M  V30 228 C 25.2186 -1.4301 -1.32563 0
M  V30 229 O 24.4886 -0.603745 -1.86365 0
M  V30 230 H 23.0686 -0.746966 0.00709182 0
M  V30 231 H 25.7306 -1.81033 0.722008 0
M  V30 232 H 24.8266 -3.12034 -0.0639951 0
M  V30 233 N 25.1277 -0.289203 -1.54924 0
M  V30 234 C 26.0907 0.579144 -2.21762 0
M  V30 235 C 27.0907 1.07047 -1.1999 0
M  V30 236 O 28.2807 0.968384 -1.44803 0
M  V30 237 C 25.4127 1.80055 -2.8947 0
M  V30 238 H 26.6057 -0.00464908 -2.999 0
M  V30 239 H 24.1587 -0.0399306 -1.56249 0
M  V30 240 H 24.8937 2.42449 -2.15381 0
M  V30 241 H 24.6787 1.45602 -3.64064 0
M  V30 242 H 26.1687 2.41773 -3.40493 0
M  V30 243 N 26.6058 1.57591 -0.0167156 0
M  V30 244 C 27.8538 1.90906 0.663285 0
M  V30 245 C 28.1748 0.892509 1.73376 0
M  V30 246 O 27.4448 -0.0677623 1.95783 0
M  V30 247 H 26.0248 0.704637 0.247983 0
M  V30 248 H 28.6868 1.94803 -0.0615909 0
M  V30 249 H 27.7828 2.9116 1.12393 0
M  V30 250 N 28.0839 -0.256276 1.55502 0
M  V30 251 C 29.0139 -1.32102 1.92539 0
M  V30 252 C 29.9949 -1.50684 0.789194 0
M  V30 253 O 31.1799 -1.63449 1.04872 0
M  V30 254 C 28.3099 -2.67752 2.21192 0
M  V30 255 C 27.2639 -2.63878 3.36975 0
M  V30 256 C 26.5899 -4.03236 3.51147 0
M  V30 257 C 27.8899 -2.21682 4.72921 0
M  V30 258 H 29.5839 -1.01351 2.81724 0
M  V30 259 H 27.1299 -0.486105 1.35547 0
M  V30 260 H 29.0829 -3.42365 2.45691 0
M  V30 261 H 27.8069 -3.0012 1.28824 0
M  V30 262 H 26.4659 -1.91722 3.12471 0
M  V30 263 H 26.1139 -4.32854 2.56216 0
M  V30 264 H 25.8139 -4.01535 4.29003 0
M  V30 265 H 27.3379 -4.79563 3.77957 0
M  V30 266 H 28.7519 -2.86023 4.96854 0
M  V30 267 H 27.1489 -2.3111 5.53812 0
M  V30 268 H 28.2189 -1.16833 4.70615 0
M  V30 269 N 29.562 -1.4872 -0.521534 0
M  V30 270 C 30.973 -1.50607 -1.10337 0
M  V30 271 C 31.324 -0.280612 -1.94183 0
M  V30 272 O 30.449 0.611507 -2.0758 0
M  V30 273 C 31.044 -2.72903 -2.00772 0
M  V30 274 C 29.603 -2.77634 -2.54158 0
M  V30 275 C 28.75 -2.44241 -1.31307 0
M  V30 276 H 31.701 -1.55714 -0.306388 0
M  V30 277 H 31.722 -2.519 -2.85178 0
M  V30 278 H 31.234 -3.62077 -1.39721 0
M  V30 279 H 29.335 -1.92689 -3.18907 0
M  V30 280 H 29.448 -3.79283 -2.92714 0
M  V30 281 H 27.812 -1.95577 -1.63161 0
M  V30 282 H 28.595 -3.35666 -0.719943 0
M  V30 283 N 31.0401 0.771051 -1.3745 0
M  V30 284 C 32.2881 1.52661 -1.32435 0
M  V30 285 C 32.6091 1.9479 0.0905024 0
M  V30 286 O 31.8791 1.66348 1.03466 0
M  V30 287 H 30.4591 0.566218 -0.487244 0
M  V30 288 H 33.1211 0.917636 -1.71946 0
M  V30 289 H 32.2171 2.42568 -1.96385 0
M  V30 290 N 32.5182 1.22032 0.997298 0
M  V30 291 C 33.4812 0.987909 2.06816 0
M  V30 292 C 34.4812 -0.0440084 1.6074 0
M  V30 293 O 35.6712 0.194053 1.73116 0
M  V30 294 C 32.8032 0.49132 3.37341 0
M  V30 295 H 33.9962 1.93803 2.28868 0
M  V30 296 H 31.5492 1.03838 1.16822 0
M  V30 297 H 32.2842 -0.463364 3.20973 0
M  V30 298 H 32.0692 1.23575 3.72118 0
M  V30 299 H 33.5592 0.348824 4.16141 0
M  V30 300 N 33.9963 -1.19345 1.0293 0
M  V30 301 C 35.4123 -1.41069 0.746446 0
M  V30 302 C 35.6123 -1.90078 -0.668776 0
M  V30 303 O 34.6683 -2.0778 -1.4347 0
M  V30 304 C 35.9813 -2.42141 1.78292 0
M  V30 305 C 37.5293 -2.55887 1.80252 0
M  V30 306 C 38.0043 -3.60214 2.8286 0
M  V30 307 N 39.4953 -3.67711 2.81679 0
M  V30 308 C 40.2303 -4.48128 3.57727 0
M  V30 309 N 39.7263 -5.32248 4.43491 0
M  V30 310 N 41.5193 -4.42782 3.46267 0
M  V30 311 H 33.6703 -0.858536 1.94275 0
M  V30 312 H 35.9333 -0.439541 0.839945 0
M  V30 313 H 35.6393 -2.13155 2.79746 0
M  V30 314 H 35.5133 -3.41323 1.60557 0
M  V30 315 H 37.9003 -2.84196 0.794757 0
M  V30 316 H 37.9813 -1.56858 2.02062 0
M  V30 317 H 37.6253 -3.32647 3.83807 0
M  V30 318 H 37.5553 -4.58895 2.58307 0
M  V30 319 H 40.0463 -3.07634 2.19476 0
M  V30 320 H 40.3593 -5.90729 4.98256 0
M  V30 321 H 38.7043 -5.31707 4.47564 0
M  V30 322 H 41.8953 -3.76107 2.78677 0
M  V30 323 H 42.0683 -5.05215 4.05785 0
M  V30 324 N 35.4744 -0.807222 -1.35358 0
M  V30 325 C 36.4374 -0.223665 -2.28106 0
M  V30 326 C 37.4374 0.589354 -1.4961 0
M  V30 327 O 38.6274 0.407745 -1.69361 0
M  V30 328 C 35.7594 0.688149 -3.33882 0
M  V30 329 H 36.9524 -1.04169 -2.81227 0
M  V30 330 H 34.5054 -0.577921 -1.45223 0
M  V30 331 H 35.2404 1.52984 -2.85948 0
M  V30 332 H 35.0254 0.10687 -3.91954 0
M  V30 333 H 36.5154 1.09075 -4.03104 0
M  V30 334 N 36.9525 1.47285 -0.560781 0
M  V30 335 C 38.3685 1.58065 -0.22081 0
M  V30 336 C 38.5685 1.55892 1.27671 0
M  V30 337 O 37.6245 1.46422 2.0571 0
M  V30 338 C 38.9375 2.88418 -0.850625 0
M  V30 339 C 40.4855 3.02009 -0.822184 0
M  V30 340 C 40.9605 4.35066 -1.43113 0
M  V30 341 N 42.4515 4.41711 -1.39448 0
M  V30 342 C 43.1865 5.43237 -1.83525 0
M  V30 343 N 42.6825 6.51555 -2.35474 0
M  V30 344 N 44.4755 5.34304 -1.74574 0
M  V30 345 H 36.6265 1.46941 -1.53369 0
M  V30 346 H 38.8895 0.699558 -0.639783 0
M  V30 347 H 38.5955 2.95755 -1.9032 0
M  V30 348 H 38.4695 3.75612 -0.345773 0
M  V30 349 H 40.8565 2.94266 0.221714 0
M  V30 350 H 40.9375 2.16347 -1.36483 0
M  V30 351 H 40.5815 4.43565 -2.47412 0
M  V30 352 H 40.5115 5.19465 -0.863899 0
M  V30 353 H 43.0025 3.64027 -1.01452 0
M  V30 354 H 43.3155 7.25203 -2.67021 0
M  V30 355 H 41.6605 6.52435 -2.39487 0
M  V30 356 H 44.8515 4.48581 -1.33763 0
M  V30 357 H 45.0245 6.13288 -2.09242 0
M  V30 358 N 38.4306 0.297415 1.54768 0
M  V30 359 C 39.6786 -0.312295 1.99673 0
M  V30 360 C 39.9996 -1.54686 1.18732 0
M  V30 361 O 39.2696 -1.93854 0.282382 0
M  V30 362 H 37.8496 -0.118381 0.73756 0
M  V30 363 H 40.5116 0.407915 1.90583 0
M  V30 364 H 39.6076 -0.586813 3.06534 0
M  V30 365 N 39.9087 -1.5758 0.0250728 0
M  V30 366 C 40.8387 -2.13007 -0.956575 0
M  V30 367 C 41.8197 -1.0452 -1.342 0
M  V30 368 O 43.0047 -1.32332 -1.42133 0
M  V30 369 C 40.1347 -2.65386 -2.24026 0
M  V30 370 C 39.0887 -3.78623 -1.99571 0
M  V30 371 C 38.4147 -4.17414 -3.3417 0
M  V30 372 C 39.7147 -5.04867 -1.33814 0
M  V30 373 H 41.4087 -2.9528 -0.494991 0
M  V30 374 H 38.9547 -1.42042 -0.236651 0
M  V30 375 H 40.9077 -3.02794 -2.93076 0
M  V30 376 H 39.6317 -1.80268 -2.72343 0
M  V30 377 H 38.2907 -3.41646 -1.32941 0
M  V30 378 H 37.9387 -3.29284 -3.80238 0
M  V30 379 H 37.6387 -4.93719 -3.18615 0
M  V30 380 H 39.1627 -4.57402 -4.04495 0
M  V30 381 H 40.5767 -5.39888 -1.92857 0
M  V30 382 H 38.9737 -5.86144 -1.28669 0
M  V30 383 H 40.0437 -4.83904 -0.310561 0
M  V30 384 N 41.3868 0.248026 -1.55636 0
M  V30 385 C 42.3168 1.31079 -1.93237 0
M  V30 386 C 43.2978 1.50264 -0.797174 0
M  V30 387 O 44.4828 1.62891 -1.05737 0
M  V30 388 C 41.6128 2.66575 -2.22609 0
M  V30 389 C 40.5668 2.62087 -3.3837 0
M  V30 390 C 39.8928 4.01369 -3.53281 0
M  V30 391 C 41.1928 2.19171 -4.7409 0
M  V30 392 H 42.8868 0.998556 -2.82257 0
M  V30 393 H 40.4328 0.47891 -1.35803 0
M  V30 394 H 42.3858 3.41057 -2.47503 0
M  V30 395 H 41.1098 2.99432 -1.30414 0
M  V30 396 H 39.7688 1.90063 -3.13483 0
M  V30 397 H 39.4168 4.31489 -2.58508 0
M  V30 398 H 39.1168 3.99254 -4.31127 0
M  V30 399 H 40.6408 4.77552 -3.80495 0
M  V30 400 H 42.0548 2.83384 -4.98363 0
M  V30 401 H 40.4518 2.2817 -5.5503 0
M  V30 402 H 41.5218 1.14336 -4.71227 0
M  V30 403 N 42.8649 1.48995 0.513639 0
M  V30 404 C 44.1049 1.59452 1.27885 0
M  V30 405 C 44.4689 0.269479 1.90099 0
M  V30 406 O 45.6699 0.249139 2.67643 0
M  V30 407 C 43.9409 2.71277 2.32688 0
M  V30 408 S 45.4999 3.01604 3.18717 0
M  V30 409 H 42.3179 0.562565 0.434789 0
M  V30 410 H 44.9199 1.86595 0.583301 0
M  V30 411 H 43.6239 3.66089 1.8549 0
M  V30 412 H 43.1549 2.46086 3.06929 0
M  V30 413 H 45.1699 2.42155 4.331 0
M  V30 414 N 44.343 -0.763751 1.37857 0
M  V30 415 C 45.568 -1.55805 1.36893 0
M  V30 416 C 45.993 -1.88054 -0.0416135 0
M  V30 417 O 45.351 -1.49825 -1.02089 0
M  V30 418 C 45.399 -2.84012 2.22192 0
M  V30 419 O 44.503 -3.78732 1.63204 0
M  V30 420 H 43.844 -0.471638 0.46739 0
M  V30 421 H 46.374 -0.944657 1.81487 0
M  V30 422 H 46.384 -3.33037 2.35691 0
M  V30 423 H 45.059 -2.59869 3.24716 0
M  V30 424 H 43.636 -3.37402 1.58791 0
M  V30 425 N 45.8211 -1.22559 -0.990812 0
M  V30 426 C 46.7841 -0.998863 -2.0629 0
M  V30 427 C 47.7841 0.0354834 -1.60761 0
M  V30 428 O 48.9741 -0.203231 -1.7301 0
M  V30 429 C 46.1061 -0.509203 -3.37076 0
M  V30 430 H 47.2991 -1.95014 -2.27837 0
M  V30 431 H 44.8521 -1.04456 -1.16269 0
M  V30 432 H 45.5871 0.446335 -3.21214 0
M  V30 433 H 45.3721 -1.25547 -3.71457 0
M  V30 434 H 46.8621 -0.370888 -4.1595 0
M  V30 435 N 47.2992 1.18797 -1.03562 0
M  V30 436 C 48.7152 1.40671 -0.753917 0
M  V30 437 C 48.9152 1.9043 0.658686 0
M  V30 438 O 47.9712 2.08538 1.42366 0
M  V30 439 C 49.2842 2.41192 -1.79574 0
M  V30 440 C 50.8322 2.54928 -1.81606 0
M  V30 441 C 51.3072 3.58709 -2.84766 0
M  V30 442 N 52.7982 3.66212 -2.83625 0
M  V30 443 C 53.5332 4.46225 -3.60098 0
M  V30 444 N 53.0292 5.29888 -4.46308 0
M  V30 445 N 54.8222 4.40939 -3.4861 0
M  V30 446 H 46.9732 0.848221 -1.94728 0
M  V30 447 H 49.2362 0.435081 -0.842264 0
M  V30 448 H 48.9422 2.11669 -2.80872 0
M  V30 449 H 48.8162 3.40467 -1.62365 0
M  V30 450 H 51.2032 2.83771 -0.809817 0
M  V30 451 H 51.2842 1.55784 -2.02891 0
M  V30 452 H 50.9282 3.30607 -3.85566 0
M  V30 453 H 50.8582 4.57519 -2.60737 0
M  V30 454 H 53.3492 3.06466 -2.21105 0
M  V30 455 H 53.6622 5.88078 -5.01382 0
M  V30 456 H 52.0072 5.29326 -4.50377 0
M  V30 457 H 55.1982 3.74624 -2.80668 0
M  V30 458 H 55.3712 5.03056 -4.08459 0
M  V30 459 N 48.7773 0.814389 1.34928 0
M  V30 460 C 50.1883 0.458364 1.80986 0
M  V30 461 C 50.5393 -1.02042 1.67577 0
M  V30 462 O 49.6643 -1.79352 1.21086 0
M  V30 463 C 50.2593 0.825212 3.28597 0
M  V30 464 C 48.8183 0.521677 3.72767 0
M  V30 465 C 47.9653 1.04668 2.56788 0
M  V30 466 H 50.9163 1.00533 1.22795 0
M  V30 467 H 50.9373 0.12571 3.80292 0
M  V30 468 H 50.4493 1.90154 3.38324 0
M  V30 469 H 48.5503 -0.545589 3.68584 0
M  V30 470 H 48.6633 1.05977 4.67232 0
M  V30 471 H 47.0273 0.468622 2.50352 0
M  V30 472 H 47.8103 2.12927 2.6929 0
M  V30 473 N 50.2554 -1.46986 0.568584 0
M  V30 474 C 51.5034 -2.02041 0.0487022 0
M  V30 475 C 51.8244 -1.44408 -1.31039 0
M  V30 476 O 51.0944 -0.623477 -1.85714 0
M  V30 477 H 49.6744 -0.746849 0.015014 0
M  V30 478 H 52.3364 -1.80257 0.741168 0
M  V30 479 H 51.4324 -3.12085 -0.0308961 0
M  V30 480 N 51.7335 -0.305618 -1.54608 0
M  V30 481 C 52.6655 0.602161 -2.21149 0
M  V30 482 C 53.6785 1.09394 -1.20569 0
M  V30 483 O 54.8675 1.0106 -1.47136 0
M  V30 484 C 51.9675 1.83692 -2.84799 0
M  V30 485 C 51.1405 1.48686 -4.11353 0
M  V30 486 C 50.1995 2.57725 -4.58764 0
M  V30 487 O 49.2255 2.22623 -5.23858 0
M  V30 488 N 50.4275 3.88346 -4.31471 0
M  V30 489 H 53.1925 0.0324966 -2.99682 0
M  V30 490 H 50.7535 -0.128021 -1.61393 0
M  V30 491 H 52.7455 2.55994 -3.13448 0
M  V30 492 H 51.3155 2.31486 -2.10078 0
M  V30 493 H 50.5355 0.596269 -3.89664 0
M  V30 494 H 51.8235 1.22842 -4.93748 0
M  V30 495 H 51.2215 4.19671 -3.79331 0
M  V30 496 H 49.7785 4.56932 -4.64818 0
M  V30 497 N 53.2116 1.57565 -0.0334293 0
M  V30 498 C 54.1416 2.13511 0.945265 0
M  V30 499 C 55.1226 1.05231 1.33643 0
M  V30 500 O 56.3076 1.33084 1.41429 0
M  V30 501 C 53.4376 2.6657 2.22616 0
M  V30 502 C 52.3916 3.79676 1.97561 0
M  V30 503 C 51.7176 4.1918 3.31952 0
M  V30 504 C 53.0176 5.0557 1.31135 0
M  V30 505 H 54.7116 2.95538 0.479325 0
M  V30 506 H 52.2576 1.42166 0.229115 0
M  V30 507 H 54.2106 3.04344 2.91466 0
M  V30 508 H 52.9346 1.8171 2.71384 0
M  V30 509 H 51.5936 3.42347 1.31127 0
M  V30 510 H 51.2416 3.31296 3.78487 0
M  V30 511 H 50.9416 4.95402 3.15992 0
M  V30 512 H 52.4656 4.59541 4.02063 0
M  V30 513 H 53.8796 5.40903 1.89992 0
M  V30 514 H 52.2766 5.86818 1.25559 0
M  V30 515 H 53.3466 4.84062 0.284894 0
M  V30 516 N 54.6897 -0.239769 1.55765 0
M  V30 517 C 56.1007 -0.808263 1.68297 0
M  V30 518 C 56.4517 -1.85736 0.632181 0
M  V30 519 O 55.5767 -2.15277 -0.220204 0
M  V30 520 C 56.1717 -1.47284 3.05111 0
M  V30 521 C 54.7307 -1.98895 3.19559 0
M  V30 522 C 53.8777 -0.842575 2.64189 0
M  V30 523 H 56.8287 -0.0154422 1.58692 0
M  V30 524 H 56.8497 -2.34111 2.99954 0
M  V30 525 H 56.3617 -0.709053 3.81568 0
M  V30 526 H 54.4627 -2.78132 2.47938 0
M  V30 527 H 54.5757 -2.18143 4.26556 0
M  V30 528 H 52.9397 -1.24501 2.22197 0
M  V30 529 H 53.7227 -0.0917552 3.43177 0
M  V30 530 N 56.1678 -1.49265 -0.50573 0
M  V30 531 C 57.0978 -1.68495 -1.61653 0
M  V30 532 C 58.0788 -0.53366 -1.61512 0
M  V30 533 O 59.2638 -0.76897 -1.78327 0
M  V30 534 C 56.3938 -1.74709 -3.00157 0
M  V30 535 C 55.3478 -2.89581 -3.15162 0
M  V30 536 C 54.6738 -2.80903 -4.5497 0
M  V30 537 C 55.9738 -4.30578 -2.95634 0
M  V30 538 H 57.6678 -2.61493 -1.45814 0
M  V30 539 H 55.2138 -1.25838 -0.70005 0
M  V30 540 H 57.1668 -1.86748 -3.77761 0
M  V30 541 H 55.8908 -0.783067 -3.17074 0
M  V30 542 H 54.5498 -2.77136 -2.39982 0
M  V30 543 H 54.1978 -1.82419 -4.68756 0
M  V30 544 H 53.8978 -3.57999 -4.65951 0
M  V30 545 H 55.4218 -2.94944 -5.34641 0
M  V30 546 H 56.8358 -4.4373 -3.63011 0
M  V30 547 H 55.2328 -5.0886 -3.18091 0
M  V30 548 H 56.3028 -4.45352 -1.91806 0
M  V30 549 N 57.6459 0.756429 -1.3826 0
M  V30 550 C 59.0619 1.0591 -1.19395 0
M  V30 551 C 59.2619 2.01459 -0.0406567 0
M  V30 552 O 58.3179 2.44909 0.614467 0
M  V30 553 C 59.6309 1.64191 -2.51916 0
M  V30 554 C 61.1789 1.76376 -2.58574 0
M  V30 555 C 61.6539 2.38069 -3.91264 0
M  V30 556 N 63.1449 2.45503 -3.92788 0
M  V30 557 C 63.8799 2.94126 -4.92217 0
M  V30 558 N 63.3759 3.42805 -6.02043 0
M  V30 559 N 65.1689 2.9314 -4.7961 0
M  V30 560 H 57.3199 0.122313 -2.12048 0
M  V30 561 H 59.5829 0.116892 -0.940766 0
M  V30 562 H 59.2889 1.01451 -3.3675 0
M  V30 563 H 59.1629 2.6329 -2.70108 0
M  V30 564 H 61.5499 2.38244 -1.74137 0
M  V30 565 H 61.6309 0.759894 -2.44252 0
M  V30 566 H 61.2749 1.76835 -4.76121 0
M  V30 567 H 61.2049 3.39091 -4.02895 0
M  V30 568 H 63.6959 2.1107 -3.13461 0
M  V30 569 H 64.0089 3.78354 -6.73846 0
M  V30 570 H 62.3539 3.4087 -6.05667 0
M  V30 571 H 65.5449 2.54419 -3.92923 0
M  V30 572 H 65.7179 3.30721 -5.5725 0
M  V30 573 N 59.124 1.23083 0.984299 0
M  V30 574 C 60.352 1.08714 1.76037 0
M  V30 575 C 60.767 -0.361691 1.85303 0
M  V30 576 O 60.124 -1.25034 1.32939 0
M  V30 577 C 60.175 1.70206 3.18923 0
M  V30 578 O 59.896 3.09423 3.10144 0
M  V30 579 C 61.397 1.61227 4.12941 0
M  V30 580 H 58.617 0.380664 0.552572 0
M  V30 581 H 61.161 1.62853 1.23689 0
M  V30 582 H 59.316 1.20109 3.6831 0
M  V30 583 H 59.73 3.39188 4.00065 0
M  V30 584 H 61.204 2.08962 5.10919 0
M  V30 585 H 61.681 0.570375 4.35481 0
M  V30 586 H 62.287 2.10671 3.69456 0
M  V30 587 N 60.6021 -1.18246 1.0419 0
M  V30 588 C 62.0131 -1.69914 0.773698 0
M  V30 589 C 62.3641 -1.83085 -0.705297 0
M  V30 590 O 61.4891 -1.51123 -1.5489 0
M  V30 591 C 62.0841 -3.08619 1.39784 0
M  V30 592 C 60.6431 -3.57494 1.17792 0
M  V30 593 C 59.7901 -2.34013 1.48773 0
M  V30 594 H 62.7411 -1.02904 1.20816 0
M  V30 595 H 62.7621 -3.71958 0.801714 0
M  V30 596 H 62.2741 -2.99001 2.47426 0
M  V30 597 H 60.3751 -3.72406 0.120295 0
M  V30 598 H 60.4881 -4.40852 1.87581 0
M  V30 599 H 58.8521 -2.37986 0.907463 0
M  V30 600 H 59.6351 -2.27013 2.57527 0
M  V30 601 N 62.0802 -0.821533 -1.34494 0
M  V30 602 C 63.0122 -0.199946 -2.28326 0
M  V30 603 C 64.0252 0.609377 -1.50965 0
M  V30 604 O 65.2142 0.439285 -1.7301 0
M  V30 605 C 62.3142 0.738431 -3.30757 0
M  V30 606 C 61.4872 -0.0277632 -4.37391 0
M  V30 607 C 60.5462 0.831332 -5.19591 0
M  V30 608 O 59.5722 0.276822 -5.68526 0
M  V30 609 N 60.7742 2.15132 -5.39165 0
M  V30 610 H 63.5392 -1.00609 -2.82308 0
M  V30 611 H 61.1002 -0.678366 -1.47003 0
M  V30 612 H 63.0922 1.31773 -3.82646 0
M  V30 613 H 61.6622 1.44533 -2.7718 0
M  V30 614 H 60.8822 -0.788359 -3.86236 0
M  V30 615 H 62.1702 -0.555251 -5.05761 0
M  V30 616 H 61.5682 2.62559 -5.01078 0
M  V30 617 H 60.1252 2.6795 -5.94177 0
M  V30 618 N 63.5583 1.46682 -0.576371 0
M  V30 619 C 64.5213 2.28707 0.150239 0
M  V30 620 C 65.5213 1.38035 0.824794 0
M  V30 621 O 66.7113 1.60476 0.677719 0
M  V30 622 C 63.8433 3.18248 1.22192 0
M  V30 623 H 65.0363 2.94423 -0.570521 0
M  V30 624 H 62.5893 1.52688 -0.334078 0
M  V30 625 H 63.3243 2.57265 1.97447 0
M  V30 626 H 63.1093 3.85 0.742812 0
M  V30 627 H 64.5993 3.80001 1.73172 0
M  V30 628 N 65.0364 0.313813 1.54444 0
M  V30 629 C 66.2824 -0.292108 2.00685 0
M  V30 630 C 66.6154 -1.52548 1.20177 0
M  V30 631 O 65.8904 -1.92452 0.281531 0
M  V30 632 C 66.1734 -0.635968 3.5444 0
M  V30 633 C 66.0264 0.607437 4.4568 0
M  V30 634 C 67.3454 -1.45747 4.15266 0
M  V30 635 H 64.4644 -0.104697 0.729526 0
M  V30 636 H 67.1064 0.428457 1.85106 0
M  V30 637 H 65.2564 -1.24986 3.67846 0
M  V30 638 H 66.9284 1.24581 4.44159 0
M  V30 639 H 65.1714 1.23822 4.15753 0
M  V30 640 H 65.8424 0.322515 5.51057 0
M  V30 641 H 68.3184 -0.938645 4.05375 0
M  V30 642 H 67.1944 -1.66683 5.2298 0
M  V30 643 H 67.4554 -2.45063 3.67963 0
M  V30 644 N 66.5145 -1.57545 0.0417849 0
M  V30 645 C 67.4775 -2.09885 -0.92093 0
M  V30 646 C 68.4775 -1.01648 -1.24596 0
M  V30 647 O 69.6675 -1.27759 -1.1842 0
M  V30 648 C 66.7995 -2.57527 -2.23367 0
M  V30 649 H 67.9925 -2.96236 -0.467382 0
M  V30 650 H 65.5455 -1.5493 -0.206467 0
M  V30 651 H 66.2805 -1.74542 -2.73323 0
M  V30 652 H 66.0655 -3.36613 -2.01083 0
M  V30 653 H 67.5555 -2.98201 -2.92346 0
M  V30 654 N 67.9926 0.231505 -1.5589 0
M  V30 655 C 68.9226 1.29022 -1.94617 0
M  V30 656 C 69.9036 1.4941 -0.813067 0
M  V30 657 O 71.0886 1.6176 -1.07459 0
M  V30 658 C 68.2186 2.64199 -2.25424 0
M  V30 659 C 67.1726 2.58484 -3.41131 0
M  V30 660 C 66.4986 3.97599 -3.57518 0
M  V30 661 C 67.7986 2.1413 -4.76388 0
M  V30 662 H 69.4926 0.968563 -2.83301 0
M  V30 663 H 67.0386 0.464479 -1.36303 0
M  V30 664 H 68.9916 3.38413 -2.51107 0
M  V30 665 H 67.7156 2.98032 -1.33583 0
M  V30 666 H 66.3746 1.86727 -3.15481 0
M  V30 667 H 66.0226 4.28723 -2.6307 0
M  V30 668 H 65.7226 3.94659 -4.35337 0
M  V30 669 H 67.2466 4.7349 -3.85538 0
M  V30 670 H 68.6606 2.78083 -5.01341 0
M  V30 671 H 67.0576 2.2227 -5.57419 0
M  V30 672 H 68.1276 1.09331 -4.72414 0
M  V30 673 N 69.4707 1.49531 0.497807 0
M  V30 674 C 70.6957 1.63159 1.28039 0
M  V30 675 C 71.1207 0.30418 1.85624 0
M  V30 676 O 70.4787 -0.728618 1.66015 0
M  V30 677 C 70.5267 2.70537 2.38416 0
M  V30 678 O 69.6307 2.29931 3.42353 0
M  V30 679 H 68.9717 0.546001 0.377861 0
M  V30 680 H 71.5017 1.9574 0.59558 0
M  V30 681 H 71.5117 2.92802 2.84132 0
M  V30 682 H 70.1867 3.6689 1.95869 0
M  V30 683 H 68.7637 2.18009 3.02533 0
M  V30 684 N 70.9488 -0.749086 1.3866 0
M  V30 685 C 72.1738 -1.54344 1.38538 0
M  V30 686 C 72.5988 -1.88088 -0.0216655 0
M  V30 687 O 71.9568 -1.50899 -1.00494 0
M  V30 688 C 72.0048 -2.8164 2.25192 0
M  V30 689 O 71.1088 -3.7698 1.67212 0
M  V30 690 H 70.4498 -0.466654 0.472367 0
M  V30 691 H 72.9798 -0.925355 1.82478 0
M  V30 692 H 72.9898 -3.30519 2.3921 0
M  V30 693 H 71.6648 -2.56411 3.27454 0
M  V30 694 H 70.2418 -3.35699 1.6236 0
M  V30 695 N 72.4269 -1.23603 -0.977757 0
M  V30 696 C 73.3739 -1.01954 -2.07061 0
M  V30 697 C 74.3439 0.0638697 -1.65977 0
M  V30 698 O 75.5289 -0.0887624 -1.90593 0
M  V30 699 C 72.6689 -0.619658 -3.39491 0
M  V30 700 C 71.7819 -1.77547 -3.93829 0
M  V30 701 C 70.9169 -1.32212 -5.14484 0
M  V30 702 C 69.9559 -2.44852 -5.60994 0
M  V30 703 N 69.0929 -2.00456 -6.72876 0
M  V30 704 H 73.9329 -1.95495 -2.24913 0
M  V30 705 H 71.4699 -0.973861 -1.10247 0
M  V30 706 H 73.4279 -0.368898 -4.15566 0
M  V30 707 H 72.0579 0.278752 -3.21594 0
M  V30 708 H 71.1099 -2.14016 -3.14486 0
M  V30 709 H 72.4219 -2.62219 -4.24314 0
M  V30 710 H 71.5759 -1.02965 -5.97899 0
M  V30 711 H 70.3149 -0.445808 -4.85658 0
M  V30 712 H 69.3199 -2.74871 -4.76157 0
M  V30 713 H 70.5449 -3.33024 -5.91837 0
M  V30 714 H 68.4909 -1.15208 -6.45804 0
M  V30 715 H 68.4079 -2.78687 -7.02759 0
M  V30 716 H 69.6759 -1.7432 -7.59758 0
M  V30 717 N 73.905 1.17692 -1.04816 0
M  V30 718 C 75.13 1.92327 -0.776207 0
M  V30 719 C 75.555 1.76082 0.661581 0
M  V30 720 O 74.913 1.076 1.45917 0
M  V30 721 C 74.961 3.41539 -1.15687 0
M  V30 722 O 74.065 4.11402 -0.286775 0
M  V30 723 H 73.406 0.599735 -0.284981 0
M  V30 724 H 75.936 1.49201 -1.4 0
M  V30 725 H 75.946 3.92269 -1.12202 0
M  V30 726 H 74.621 3.52684 -2.20425 0
M  V30 727 H 73.198 3.70939 -0.381903 0
M  V30 728 N 75.3831 0.828654 1.34056 0
M  V30 729 C 76.6311 0.41863 1.97717 0
M  V30 730 C 76.9521 -1.02314 1.66002 0
M  V30 731 O 76.2221 -1.71119 0.953683 0
M  V30 732 H 74.8021 0.151809 0.731412 0
M  V30 733 H 77.4641 1.05936 1.63596 0
M  V30 734 H 76.5601 0.542318 3.07352 0
M  V30 735 N 76.8612 -1.46375 0.584142 0
M  V30 736 C 77.7912 -2.33103 -0.136037 0
M  V30 737 C 78.7722 -1.45431 -0.882255 0
M  V30 738 O 79.9572 -1.74246 -0.857434 0
M  V30 739 C 77.0872 -3.27731 -1.14933 0
M  V30 740 C 76.0412 -4.24855 -0.517862 0
M  V30 741 C 75.3672 -5.09001 -1.63773 0
M  V30 742 C 76.6672 -5.19439 0.545886 0
M  V30 743 H 78.3612 -2.93568 0.588086 0
M  V30 744 H 75.9072 -1.41166 0.284259 0
M  V30 745 H 77.8602 -3.87261 -1.66153 0
M  V30 746 H 76.5842 -2.65377 -1.90375 0
M  V30 747 H 75.2432 -3.6659 -0.0267361 0
M  V30 748 H 74.8912 -4.43031 -2.38185 0
M  V30 749 H 74.5912 -5.74777 -1.22085 0
M  V30 750 H 76.1152 -5.71396 -2.15266 0
M  V30 751 H 77.5292 -5.73177 0.118704 0
M  V30 752 H 75.9262 -5.93566 0.88317 0
M  V30 753 H 76.9962 -4.63285 1.43162 0
M  V30 754 N 78.3393 -0.321999 -1.54275 0
M  V30 755 C 79.5643 0.285791 -2.05422 0
M  V30 756 C 79.9893 1.45124 -1.19669 0
M  V30 757 O 79.3473 1.80132 -0.205441 0
M  V30 758 C 79.3953 0.69956 -3.53749 0
M  V30 759 O 78.4993 1.8021 -3.70942 0
M  V30 760 H 77.8403 0.0518962 -0.661969 0
M  V30 761 H 80.3703 -0.469954 -1.9913 0
M  V30 762 H 80.3803 0.982649 -3.9599 0
M  V30 763 H 79.0553 -0.152864 -4.15619 0
M  V30 764 H 77.6323 1.51794 -3.40607 0
M  V30 765 N 79.8174 1.5752 -0.0501392 0
M  V30 766 C 81.2334 1.56631 0.306402 0
M  V30 767 C 81.4334 1.0577 1.71508 0
M  V30 768 O 80.4894 0.713837 2.422 0
M  V30 769 C 81.8024 3.00393 0.135811 0
M  V30 770 C 83.3504 3.12315 0.206993 0
M  V30 771 C 83.8254 4.57954 0.064944 0
M  V30 772 N 85.3164 4.63041 0.121254 0
M  V30 773 C 86.0514 5.73389 0.0354381 0
M  V30 774 N 85.5474 6.92724 -0.102666 0
M  V30 775 N 87.3404 5.62026 0.090946 0
M  V30 776 H 79.4914 1.88903 -0.971046 0
M  V30 777 H 81.7544 0.869876 -0.376855 0
M  V30 778 H 81.4604 3.41635 -0.835384 0
M  V30 779 H 81.3344 3.66373 0.897275 0
M  V30 780 H 83.7214 2.70973 1.16866 0
M  V30 781 H 83.8024 2.49016 -0.585208 0
M  V30 782 H 83.4464 4.99981 -0.893394 0
M  V30 783 H 83.3764 5.19258 0.876277 0
M  V30 784 H 85.8674 3.77216 0.227284 0
M  V30 785 H 86.1804 7.72633 -0.160882 0
M  V30 786 H 84.5254 6.94864 -0.137737 0
M  V30 787 H 87.7164 4.67684 0.197388 0
M  V30 788 H 87.8894 6.47997 0.0206089 0
M  V30 789 N 81.2955 -0.223234 1.56011 0
M  V30 790 C 82.5435 -0.946003 1.78592 0
M  V30 791 C 82.8645 -1.84936 0.618349 0
M  V30 792 O 82.1345 -1.92473 -0.364833 0
M  V30 793 H 80.7145 -0.352298 0.658707 0
M  V30 794 H 83.3765 -0.235494 1.93472 0
M  V30 795 H 82.4725 -1.55381 2.70672 0
M  V30 796 N 82.7736 -1.49793 -0.48987 0
M  V30 797 C 84.1896 -1.36803 -0.822022 0
M  V30 798 C 84.3896 -0.409652 -1.97292 0
M  V30 799 O 83.4456 0.154614 -2.52026 0
M  V30 800 C 84.7586 -2.77768 -1.15175 0
M  V30 801 C 86.3066 -2.86549 -1.25931 0
M  V30 802 C 86.7816 -4.28306 -1.62228 0
M  V30 803 N 88.2726 -4.31169 -1.69256 0
M  V30 804 C 89.0076 -5.37832 -1.98807 0
M  V30 805 N 88.5036 -6.54726 -2.26507 0
M  V30 806 N 90.2966 -5.25258 -2.00152 0
M  V30 807 H 82.4476 -2.10691 0.268881 0
M  V30 808 H 84.7106 -0.946241 0.057728 0
M  V30 809 H 84.4166 -3.49648 -0.379335 0
M  V30 810 H 84.2906 -3.13836 -2.09253 0
M  V30 811 H 86.6776 -2.14899 -2.02243 0
M  V30 812 H 86.7586 -2.54049 -0.298776 0
M  V30 813 H 86.4026 -5.00486 -0.864622 0
M  V30 814 H 86.3326 -4.58279 -2.594 0
M  V30 815 H 88.8236 -3.4687 -1.49965 0
M  V30 816 H 89.1366 -7.31833 -2.48276 0
M  V30 817 H 87.4816 -6.57933 -2.23939 0
M  V30 818 H 90.6726 -4.32938 -1.77996 0
M  V30 819 H 90.8456 -6.08476 -2.22848 0
M  V30 820 N 84.2517 0.741722 -1.39055 0
M  V30 821 C 85.1987 1.85566 -1.37237 0
M  V30 822 C 86.1687 1.64457 -0.233072 0
M  V30 823 O 87.3537 1.85957 -0.427147 0
M  V30 824 C 84.4937 3.23004 -1.215 0
M  V30 825 C 83.6067 3.55864 -2.44918 0
M  V30 826 C 82.7417 4.82669 -2.21821 0
M  V30 827 C 81.7807 5.08351 -3.40948 0
M  V30 828 N 80.9177 6.26356 -3.17211 0
M  V30 829 H 85.7577 1.86455 -2.32462 0
M  V30 830 H 83.2947 0.911176 -1.15482 0
M  V30 831 H 85.2527 4.02331 -1.10389 0
M  V30 832 H 83.8827 3.21411 -0.29908 0
M  V30 833 H 82.9347 2.7129 -2.66657 0
M  V30 834 H 84.2467 3.70765 -3.33668 0
M  V30 835 H 83.4007 5.69962 -2.07914 0
M  V30 836 H 82.1397 4.69929 -1.30454 0
M  V30 837 H 81.1447 4.19522 -3.55361 0
M  V30 838 H 82.3697 5.22981 -4.33207 0
M  V30 839 H 80.3157 6.14917 -2.28502 0
M  V30 840 H 80.2327 6.41813 -3.99515 0
M  V30 841 H 81.5007 7.16506 -3.06984 0
M  V30 842 N 85.7298 1.2412 0.971189 0
M  V30 843 C 86.9758 1.08041 1.71625 0
M  V30 844 C 87.3088 -0.380407 1.90438 0
M  V30 845 O 86.5838 -1.28127 1.46334 0
M  V30 846 C 86.8668 1.81682 3.10908 0
M  V30 847 C 86.7198 3.35493 2.99608 0
M  V30 848 C 88.0388 1.58671 4.10501 0
M  V30 849 H 85.1578 0.39388 0.622919 0
M  V30 850 H 87.7998 1.52743 1.13003 0
M  V30 851 H 85.9498 1.43684 3.60953 0
M  V30 852 H 87.6218 3.83068 2.57015 0
M  V30 853 H 85.8648 3.64052 2.35899 0
M  V30 854 H 86.5358 3.82217 3.98264 0
M  V30 855 H 89.0118 1.91719 3.69301 0
M  V30 856 H 87.8878 2.1266 5.06031 0
M  V30 857 H 88.1488 0.524161 4.38982 0
M  V30 858 N 87.2079 -1.17134 1.05439 0
M  V30 859 C 88.1409 -2.2012 0.601855 0
M  V30 860 C 89.1189 -1.58314 -0.370854 0
M  V30 861 O 90.3029 -1.8638 -0.281882 0
M  V30 862 C 87.4299 -3.38491 -0.118868 0
M  V30 863 C 86.4759 -4.18752 0.809242 0
M  V30 864 S 87.3089 -4.83602 2.29977 0
M  V30 865 C 88.4649 -6.0536 1.59029 0
M  V30 866 H 88.6979 -2.58165 1.47438 0
M  V30 867 H 86.2309 -1.27788 0.866573 0
M  V30 868 H 88.1889 -4.07084 -0.528495 0
M  V30 869 H 86.8499 -2.98829 -0.967465 0
M  V30 870 H 86.0429 -5.03373 0.251379 0
M  V30 871 H 85.6449 -3.5561 1.15835 0
M  V30 872 H 87.9369 -6.71615 0.891017 0
M  V30 873 H 88.8799 -6.65679 2.41407 0
M  V30 874 H 89.2879 -5.54138 1.07663 0
M  V30 875 N 88.686 -0.835752 -1.33615 0
M  V30 876 C 89.616 -0.281739 -2.31794 0
M  V30 877 C 90.597 0.608833 -1.58831 0
M  V30 878 O 91.782 0.533035 -1.86741 0
M  V30 879 C 88.912 0.546612 -3.42971 0
M  V30 880 C 87.866 -0.247904 -4.27281 0
M  V30 881 C 87.192 0.704001 -5.30045 0
M  V30 882 C 88.492 -1.46324 -5.01385 0
M  V30 883 H 90.186 -1.10206 -2.78379 0
M  V30 884 H 87.732 -0.531388 -1.33837 0
M  V30 885 H 89.685 0.944467 -4.1068 0
M  V30 886 H 88.409 1.40011 -2.95067 0
M  V30 887 H 87.068 -0.627281 -3.61194 0
M  V30 888 H 86.716 1.55381 -4.78399 0
M  V30 889 H 86.416 0.176524 -5.87335 0
M  V30 890 H 87.94 1.09944 -6.0062 0
M  V30 891 H 89.354 -1.13871 -5.61877 0
M  V30 892 H 87.751 -1.92728 -5.6831 0
M  V30 893 H 88.821 -2.23467 -4.30338 0
M  V30 894 N 90.1641 1.46063 -0.591896 0
M  V30 895 C 91.3891 2.07226 -0.0850314 0
M  V30 896 C 91.8141 1.43625 1.21463 0
M  V30 897 O 91.1721 0.523305 1.73583 0
M  V30 898 C 91.2201 3.60554 0.0576567 0
M  V30 899 O 90.3241 3.97128 1.11188 0
M  V30 900 H 89.6651 0.660615 -0.0669568 0
M  V30 901 H 92.1951 1.8756 -0.81745 0
M  V30 902 H 92.2051 4.07165 0.2609 0
M  V30 903 H 90.8801 4.06235 -0.891416 0
M  V30 904 H 89.4571 3.62213 0.886356 0
M  V30 905 N 91.6422 0.330177 1.54103 0
M  V30 906 C 92.6052 -0.520144 2.2322 0
M  V30 907 C 93.6052 -1.03828 1.22786 0
M  V30 908 O 94.7952 -0.929652 1.4732 0
M  V30 909 C 91.9272 -1.72317 2.94142 0
M  V30 910 H 93.1202 0.0841605 2.99782 0
M  V30 911 H 90.6732 0.0813433 1.56088 0
M  V30 912 H 91.4082 -2.36653 2.21734 0
M  V30 913 H 91.1932 -1.35898 3.67796 0
M  V30 914 H 92.6832 -2.3266 3.46784 0
M  V30 915 N 93.1203 -1.57491 0.0584922 0
M  V30 916 C 94.0503 -2.14988 -0.911178 0
M  V30 917 C 95.0313 -1.07343 -1.31952 0
M  V30 918 O 96.2163 -1.35318 -1.39294 0
M  V30 919 C 93.3463 -2.70078 -2.18347 0
M  V30 920 C 92.3003 -3.82771 -1.91495 0
M  V30 921 C 91.6263 -4.24408 -3.25241 0
M  V30 922 C 92.9263 -5.07592 -1.23075 0
M  V30 923 H 94.6203 -2.96263 -0.432246 0
M  V30 924 H 92.1663 -1.42512 -0.206469 0
M  V30 925 H 94.1193 -3.08943 -2.86587 0
M  V30 926 H 92.8433 -1.86005 -2.68458 0
M  V30 927 H 91.5023 -3.44389 -1.25664 0
M  V30 928 H 91.1503 -3.37275 -3.73168 0
M  V30 929 H 90.8503 -5.00366 -3.08071 0
M  V30 930 H 92.3743 -4.65879 -3.94701 0
M  V30 931 H 93.7883 -5.43857 -1.81362 0
M  V30 932 H 92.1853 -5.88741 -1.16207 0
M  V30 933 H 93.2553 -4.84454 -0.207847 0
M  V30 934 N 94.5984 0.214957 -1.56127 0
M  V30 935 C 95.8464 0.936518 -1.79091 0
M  V30 936 C 96.1674 1.84606 -0.628148 0
M  V30 937 O 95.4374 1.92664 0.35462 0
M  V30 938 H 94.0174 0.3488 -0.660566 0
M  V30 939 H 96.6794 0.22523 -1.93594 0
M  V30 940 H 95.7754 1.53943 -2.71492 0
M  V30 941 N 96.0765 1.50051 0.48192 0
M  V30 942 C 97.0095 1.62749 1.59963 0
M  V30 943 C 97.9875 0.475903 1.5548 0
M  V30 944 O 99.1715 0.693986 1.7526 0
M  V30 945 C 96.2985 1.60008 2.98522 0
M  V30 946 C 95.3445 2.80596 3.21198 0
M  V30 947 S 96.1775 4.42038 3.02262 0
M  V30 948 C 97.3335 4.41973 4.43182 0
M  V30 949 H 97.5665 2.57296 1.4895 0
M  V30 950 H 95.0995 1.39179 0.668477 0
M  V30 951 H 97.0575 1.59112 3.78409 0
M  V30 952 H 95.7185 0.667153 3.06933 0
M  V30 953 H 94.9115 2.74952 4.22395 0
M  V30 954 H 94.5135 2.79003 2.49065 0
M  V30 955 H 96.8055 4.14868 5.35622 0
M  V30 956 H 97.7485 5.43512 4.53873 0
M  V30 957 H 98.1565 3.71812 4.24755 0
M  V30 958 N 97.5546 -0.734337 1.39446 0
M  V30 959 C 98.4846 -1.86155 1.40955 0
M  V30 960 C 99.4656 -1.67898 0.272827 0
M  V30 961 O 100.651 -1.88207 0.478743 0
M  V30 962 C 97.7806 -3.23912 1.25294 0
M  V30 963 C 96.7346 -3.56808 2.36373 0
M  V30 964 C 96.0606 -4.93508 2.058 0
M  V30 965 C 97.3606 -3.59713 3.78687 0
M  V30 966 H 99.0546 -1.8515 2.35287 0
M  V30 967 H 96.6006 -0.889367 1.13253 0
M  V30 968 H 98.5536 -4.02443 1.2497 0
M  V30 969 H 97.2776 -3.25446 0.274308 0
M  V30 970 H 95.9366 -2.80606 2.35914 0
M  V30 971 H 95.5846 -4.91623 1.06374 0
M  V30 972 H 95.2846 -5.16486 2.80208 0
M  V30 973 H 96.8086 -5.74396 2.07128 0
M  V30 974 H 98.2226 -4.2832 3.81071 0
M  V30 975 H 96.6196 -3.94209 4.52459 0
M  V30 976 H 97.6896 -2.59504 4.09617 0
M  V30 977 N 99.0327 -1.24633 -0.964593 0
M  V30 978 C 99.9957 -1.0424 -2.04124 0
M  V30 979 C 100.996 0.00137563 -1.608 0
M  V30 980 O 102.186 -0.239883 -1.7254 0
M  V30 981 C 99.3177 -0.580588 -3.3592 0
M  V30 982 H 100.511 -1.99803 -2.23649 0
M  V30 983 H 98.0637 -1.06899 -1.14027 0
M  V30 984 H 98.7987 0.3781 -3.22088 0
M  V30 985 H 98.5837 -1.33398 -3.6871 0
M  V30 986 H 100.074 -0.459034 -4.15069 0
M  V30 987 N 100.511 1.16574 -1.06058 0
M  V30 988 C 101.474 2.19085 -0.673392 0
M  V30 989 C 102.474 1.5835 0.279648 0
M  V30 990 O 103.664 1.74088 0.0623488 0
M  V30 991 C 100.796 3.40899 0.00954234 0
M  V30 992 H 101.989 2.54853 -1.58081 0
M  V30 993 H 99.5418 1.30808 -0.855516 0
M  V30 994 H 100.277 3.10684 0.929826 0
M  V30 995 H 100.062 3.86233 -0.67573 0
M  V30 996 H 101.552 4.1675 0.266245 0
M  V30 997 N 101.989 0.842826 1.3317 0
M  V30 998 C 103.237 0.439577 1.97262 0
M  V30 999 C 103.558 -1.00548 1.67078 0
M  V30 1000 O 102.828 -1.70098 0.971779 0
M  V30 1001 H 101.408 0.159558 0.72976 0
M  V30 1002 H 104.07 1.07665 1.62463 0
M  V30 1003 H 103.166 0.574886 3.0676 0
M  V30 1004 N 103.467 -1.45747 0.599634 0
M  V30 1005 C 104.715 -2.01893 0.0915472 0
M  V30 1006 C 105.036 -1.47155 -1.27946 0
M  V30 1007 O 104.306 -0.66273 -1.84349 0
M  V30 1008 H 102.886 -0.746363 0.0308524 0
M  V30 1009 H 105.548 -1.78645 0.779237 0
M  V30 1010 H 104.644 -3.1208 0.0353086 0
M  V30 1011 N 104.945 -0.338344 -1.53925 0
M  V30 1012 C 105.908 0.508299 -2.23493 0
M  V30 1013 C 106.908 1.03175 -1.23335 0
M  V30 1014 O 108.098 0.921826 -1.47811 0
M  V30 1015 C 105.23 1.70754 -2.95052 0
M  V30 1016 H 106.423 -0.100058 -2.99733 0
M  V30 1017 H 103.976 -0.0896198 -1.56043 0
M  V30 1018 H 104.711 2.35474 -2.22986 0
M  V30 1019 H 104.496 1.33946 -3.68512 0
M  V30 1020 H 105.986 2.30818 -3.48013 0
M  V30 1021 N 106.423 1.57458 -0.0668435 0
M  V30 1022 C 107.671 1.92919 0.602214 0
M  V30 1023 C 107.992 0.947215 1.70449 0
M  V30 1024 O 107.262 -0.00544117 1.95899 0
M  V30 1025 H 105.842 0.71217 0.22544 0
M  V30 1026 H 108.504 1.94508 -0.123535 0
M  V30 1027 H 107.6 2.94589 1.03073 0
M  V30 1028 N 107.901 -0.206675 1.56239 0
M  V30 1029 C 108.831 -1.25909 1.96645 0
M  V30 1030 C 109.812 -1.48097 0.836734 0
M  V30 1031 O 110.997 -1.6003 1.10019 0
M  V30 1032 C 108.127 -2.6058 2.29599 0
M  V30 1033 C 107.081 -2.53024 3.452 0
M  V30 1034 C 106.407 -3.91861 3.63798 0
M  V30 1035 C 107.707 -2.06524 4.79734 0
M  V30 1036 H 109.401 -0.923369 2.84806 0
M  V30 1037 H 106.947 -0.442735 1.37025 0
M  V30 1038 H 108.9 -3.34375 2.56459 0
M  V30 1039 H 107.624 -2.95869 1.38307 0
M  V30 1040 H 106.283 -1.81684 3.18412 0
M  V30 1041 H 105.931 -4.24483 2.69857 0
M  V30 1042 H 105.631 -3.87683 4.4156 0
M  V30 1043 H 107.155 -4.67296 3.93022 0
M  V30 1044 H 108.569 -2.70072 5.05702 0
M  V30 1045 H 106.966 -2.13374 5.60885 0
M  V30 1046 H 108.036 -1.01802 4.74093 0
M  V30 1047 N 109.379 -1.50304 -0.473955 0
M  V30 1048 C 110.342 -1.6841 -1.55469 0
M  V30 1049 C 111.342 -0.554905 -1.50922 0
M  V30 1050 O 112.532 -0.821882 -1.53593 0
M  V30 1051 C 109.664 -1.70667 -2.95102 0
M  V30 1052 H 110.857 -2.64828 -1.40733 0
M  V30 1053 H 108.41 -1.39742 -0.700132 0
M  V30 1054 H 109.145 -0.75932 -3.15285 0
M  V30 1055 H 108.93 -2.52698 -2.9981 0
M  V30 1056 H 110.42 -1.8664 -3.73571 0
M  V30 1057 N 110.857 0.726932 -1.39834 0
M  V30 1058 C 111.79 1.8501 -1.33592 0
M  V30 1059 C 112.768 1.61262 -0.208191 0
M  V30 1060 O 113.952 1.84422 -0.389981 0
M  V30 1061 C 111.079 3.21143 -1.07633 0
M  V30 1062 C 110.125 3.63737 -2.22705 0
M  V30 1063 S 110.958 3.72167 -3.85035 0
M  V30 1064 C 112.114 5.11077 -3.61318 0
M  V30 1065 H 112.347 1.90022 -2.28646 0
M  V30 1066 H 109.88 0.892595 -1.25985 0
M  V30 1067 H 111.838 3.99747 -0.933415 0
M  V30 1068 H 110.499 3.13776 -0.142526 0
M  V30 1069 H 109.692 4.62551 -2.00155 0
M  V30 1070 H 109.294 2.9236 -2.33242 0
M  V30 1071 H 111.586 5.97656 -3.19083 0
M  V30 1072 H 112.529 5.38658 -4.59623 0
M  V30 1073 H 112.937 4.81135 -2.95245 0
M  V30 1074 N 112.336 1.25143 0.95797 0
M  V30 1075 C 113.299 1.05321 2.03569 0
M  V30 1076 C 114.299 0.007152 1.60798 0
M  V30 1077 O 115.489 0.24903 1.72411 0
M  V30 1078 C 112.621 0.598394 3.35607 0
M  V30 1079 H 113.814 2.00986 2.22586 0
M  V30 1080 H 111.367 1.07502 1.13459 0
M  V30 1081 H 112.102 -0.361014 3.22284 0
M  V30 1082 H 111.887 1.35351 3.67998 0
M  V30 1083 H 113.377 0.48104 4.1482 0
M  V30 1084 N 113.814 -1.1601 1.06675 0
M  V30 1085 C 114.744 -2.22688 0.702307 0
M  V30 1086 C 115.725 -1.67306 -0.307032 0
M  V30 1087 O 116.91 -1.93352 -0.181305 0
M  V30 1088 C 114.04 -3.47178 0.092038 0
M  V30 1089 C 112.994 -4.15477 1.02777 0
M  V30 1090 C 112.32 -5.33963 0.28061 0
M  V30 1091 C 113.62 -4.66019 2.35846 0
M  V30 1092 H 115.314 -2.53429 1.59419 0
M  V30 1093 H 112.86 -1.21813 0.767961 0
M  V30 1094 H 114.813 -4.21037 -0.174814 0
M  V30 1095 H 113.537 -3.15749 -0.834877 0
M  V30 1096 H 112.196 -3.43549 1.27944 0
M  V30 1097 H 111.844 -4.98788 -0.649545 0
M  V30 1098 H 111.544 -5.806 0.904258 0
M  V30 1099 H 113.068 -6.10596 0.021396 0
M  V30 1100 H 114.482 -5.3144 2.15045 0
M  V30 1101 H 112.879 -5.23293 2.93743 0
M  V30 1102 H 113.949 -3.82023 2.98641 0
M  V30 1103 N 115.292 -0.849877 -1.32721 0
M  V30 1104 C 116.242 -0.262892 -2.26479 0
M  V30 1105 C 117.226 0.588493 -1.49752 0
M  V30 1106 O 118.418 0.438659 -1.71478 0
M  V30 1107 C 115.547 0.551818 -3.38836 0
M  V30 1108 C 114.633 -0.311689 -4.22953 0
M  V30 1109 N 115.024 -1.39567 -4.86163 0
M  V30 1110 C 113.322 -0.100611 -4.45887 0
M  V30 1111 C 114.023 -1.92651 -5.48872 0
M  V30 1112 N 112.999 -1.22637 -5.29586 0
M  V30 1113 H 116.801 -1.09166 -2.72873 0
M  V30 1114 H 114.315 -0.695486 -1.46754 0
M  V30 1115 H 116.312 0.988713 -4.05006 0
M  V30 1116 H 114.972 1.37844 -2.93988 0
M  V30 1117 H 115.983 -1.77859 -4.86402 0
M  V30 1118 H 112.66 0.691681 -4.11731 0
M  V30 1119 H 114.05 -2.83487 -6.09167 0
M  V30 1120 N 116.77 1.45427 -0.607355 0
M  V30 1121 C 117.995 2.07124 -0.107006 0
M  V30 1122 C 118.42 1.44906 1.19933 0
M  V30 1123 O 117.778 0.541687 1.73019 0
M  V30 1124 C 117.826 3.60595 0.0194119 0
M  V30 1125 O 116.93 3.98285 1.0697 0
M  V30 1126 H 116.271 0.659868 -0.0739597 0
M  V30 1127 H 118.801 1.86683 -0.837297 0
M  V30 1128 H 118.811 4.07419 0.2177 0
M  V30 1129 H 117.486 4.05266 -0.934453 0
M  V30 1130 H 116.063 3.63133 0.847889 0
M  V30 1131 N 118.248 0.346503 1.53744 0
M  V30 1132 C 119.211 -0.496439 2.23759 0
M  V30 1133 C 120.211 -1.0252 1.2388 0
M  V30 1134 O 121.401 -0.913974 1.48297 0
M  V30 1135 C 118.533 -1.69187 2.95954 0
M  V30 1136 H 119.726 0.115952 2.99676 0
M  V30 1137 H 117.279 0.0978939 1.55993 0
M  V30 1138 H 118.014 -2.34288 2.24231 0
M  V30 1139 H 117.799 -1.31989 3.69217 0
M  V30 1140 H 119.289 -2.28969 3.49232 0
M  V30 1141 N 119.726 -1.57421 0.075193 0
M  V30 1142 C 120.972 -1.93905 -0.594025 0
M  V30 1143 C 121.305 -0.955701 -1.69056 0
M  V30 1144 O 120.58 0.0145373 -1.94495 0
M  V30 1145 C 120.863 -3.40638 -1.1678 0
M  V30 1146 C 120.716 -4.49733 -0.0776792 0
M  V30 1147 C 122.035 -3.88259 -2.07228 0
M  V30 1148 H 119.154 -0.705105 -0.214466 0
M  V30 1149 H 121.796 -1.8947 0.141854 0
M  V30 1150 H 119.946 -3.44549 -1.79494 0
M  V30 1151 H 121.618 -4.57942 0.555573 0
M  V30 1152 H 119.861 -4.29751 0.591286 0
M  V30 1153 H 120.532 -5.49549 -0.519603 0
M  V30 1154 H 123.008 -3.86376 -1.54445 0
M  V30 1155 H 121.884 -4.91533 -2.44308 0
M  V30 1156 H 122.145 -3.26396 -2.98191 0
M  V30 1157 N 121.204 0.198386 -1.56346 0
M  V30 1158 C 122.429 0.939682 -1.84891 0
M  V30 1159 C 122.854 1.76202 -0.658369 0
M  V30 1160 O 122.212 1.76993 0.392851 0
M  V30 1161 C 122.26 1.81428 -3.11635 0
M  V30 1162 O 121.364 2.91265 -2.91956 0
M  V30 1163 H 120.705 0.264807 -0.608912 0
M  V30 1164 H 123.235 0.204695 -2.03573 0
M  V30 1165 H 123.245 2.21958 -3.42343 0
M  V30 1166 H 121.92 1.21004 -3.97908 0
M  V30 1167 H 120.497 2.54514 -2.72538 0
M  V30 1168 N 122.682 1.50554 0.465978 0
M  V30 1169 C 123.645 1.69233 1.54574 0
M  V30 1170 C 124.645 0.562901 1.50626 0
M  V30 1171 O 125.835 0.830016 1.53155 0
M  V30 1172 C 122.967 1.7223 2.94193 0
M  V30 1173 H 124.16 2.65571 1.39327 0
M  V30 1174 H 121.713 1.40111 0.692711 0
M  V30 1175 H 122.448 0.77603 3.14878 0
M  V30 1176 H 122.233 2.54285 2.98466 0
M  V30 1177 H 123.723 1.88618 3.72576 0
M  V30 1178 N 124.16 -0.719506 1.40217 0
M  V30 1179 C 125.385 -1.51371 1.4178 0
M  V30 1180 C 125.81 -1.88091 0.0182355 0
M  V30 1181 O 125.168 -1.52997 -0.972707 0
M  V30 1182 C 125.216 -2.768 2.31115 0
M  V30 1183 O 124.32 -3.73349 1.7517 0
M  V30 1184 H 123.661 -0.456529 0.482159 0
M  V30 1185 H 126.191 -0.88644 1.844 0
M  V30 1186 H 126.201 -3.25371 2.46167 0
M  V30 1187 H 124.876 -2.49407 3.3282 0
M  V30 1188 H 123.453 -3.32179 1.69444 0
M  V30 1189 N 125.638 -1.25649 -0.95132 0
M  V30 1190 C 126.915 -1.01361 -1.67288 0
M  V30 1191 C 127.295 0.459135 -2.06046 0
M  V30 1192 O 126.643 1.43723 -1.7764 0
M  V30 1193 C 126.853 -1.95256 -2.89268 0
M  V30 1194 C 128.201 -2.23289 -3.61147 0
M  V30 1195 O 129.225 -1.93041 -2.99355 0
M  V30 1196 O 128.084 -2.74741 -4.72419 0
M  V30 1197 H 125.178 -0.38464 -0.732107 0
M  V30 1198 H 127.724 -1.36817 -1.00395 0
M  V30 1199 H 126.496 -2.94685 -2.57442 0
M  V30 1200 H 126.119 -1.60218 -3.6389 0
M  V30 1201 N 127.117 1.15442 -1.07289 0
M  V30 1202 C 128.047 2.22312 -0.714107 0
M  V30 1203 C 129.028 1.67467 0.298155 0
M  V30 1204 O 130.213 1.93445 0.171048 0
M  V30 1205 C 127.343 3.47124 -0.110448 0
M  V30 1206 C 126.297 4.14926 -1.04979 0
M  V30 1207 C 125.623 5.33807 -0.308924 0
M  V30 1208 C 126.923 4.64762 -2.38314 0
M  V30 1209 H 128.617 2.5258 -1.6076 0
M  V30 1210 H 126.163 1.21404 -0.77441 0
M  V30 1211 H 128.116 4.21124 0.152482 0
M  V30 1212 H 126.84 3.16187 0.81812 0
M  V30 1213 H 125.499 3.42866 -1.29764 0
M  V30 1214 H 125.147 4.99126 0.623084 0
M  V30 1215 H 124.847 5.80113 -0.935036 0
M  V30 1216 H 126.371 6.10576 -0.0537771 0
M  V30 1217 H 127.785 5.30292 -2.1786 0
M  V30 1218 H 126.182 5.21728 -2.96514 0
M  V30 1219 H 127.252 3.80434 -3.00663 0
M  V30 1220 N 128.595 0.856903 1.32268 0
M  V30 1221 C 129.505 0.306131 2.32594 0
M  V30 1222 C 130.521 -0.577209 1.64147 0
M  V30 1223 O 131.697 -0.477043 1.95669 0
M  V30 1224 C 128.762 -0.494561 3.43154 0
M  V30 1225 C 127.823 0.415186 4.27288 0
M  V30 1226 C 127.056 -0.347387 5.32568 0
M  V30 1227 O 127.279 -1.57708 5.48165 0
M  V30 1228 O 126.213 0.287982 6.01211 0
M  V30 1229 H 130.039 1.13737 2.81598 0
M  V30 1230 H 127.624 0.619902 1.35932 0
M  V30 1231 H 129.506 -0.948944 4.10576 0
M  V30 1232 H 128.181 -1.30257 2.96336 0
M  V30 1233 H 127.088 0.917793 3.62667 0
M  V30 1234 H 128.421 1.18844 4.77637 0
M  V30 1235 N 130.073 -1.45103 0.615059 0
M  V30 1236 C 131.003 -2.33339 -0.0865619 0
M  V30 1237 C 131.984 -1.4727 -0.851209 0
M  V30 1238 O 133.169 -1.76026 -0.820281 0
M  V30 1239 C 130.299 -3.30095 -1.07956 0
M  V30 1240 C 129.253 -4.25858 -0.427628 0
M  V30 1241 C 128.579 -5.12361 -1.5294 0
M  V30 1242 C 129.879 -5.18165 0.655944 0
M  V30 1243 H 131.573 -2.92254 0.650224 0
M  V30 1244 H 129.119 -1.40532 0.314138 0
M  V30 1245 H 131.072 -3.90698 -1.57901 0
M  V30 1246 H 129.796 -2.69355 -1.84703 0
M  V30 1247 H 128.455 -3.66564 0.0510292 0
M  V30 1248 H 128.103 -4.47984 -2.28734 0
M  V30 1249 H 127.803 -5.77238 -1.09865 0
M  V30 1250 H 129.327 -5.75833 -2.03098 0
M  V30 1251 H 130.741 -5.72796 0.240257 0
M  V30 1252 H 129.138 -5.91559 1.00888 0
M  V30 1253 H 130.208 -4.60144 1.52957 0
M  V30 1254 N 131.551 -0.354651 -1.53558 0
M  V30 1255 C 132.501 0.513179 -2.2215 0
M  V30 1256 C 133.485 1.05734 -1.21281 0
M  V30 1257 O 134.677 0.989202 -1.46778 0
M  V30 1258 C 131.806 1.65798 -3.00609 0
M  V30 1259 C 130.892 1.12722 -4.08845 0
M  V30 1260 N 131.283 0.318563 -5.04796 0
M  V30 1261 C 129.581 1.40307 -4.23356 0
M  V30 1262 C 130.282 0.0292224 -5.81693 0
M  V30 1263 N 129.258 0.623891 -5.40008 0
M  V30 1264 H 133.06 -0.111586 -2.93688 0
M  V30 1265 H 130.574 -0.162091 -1.61589 0
M  V30 1266 H 132.571 2.29176 -3.48258 0
M  V30 1267 H 131.231 2.28591 -2.306 0
M  V30 1268 H 132.242 -0.0413091 -5.17884 0
M  V30 1269 H 128.919 2.03458 -3.6457 0
M  V30 1270 H 130.309 -0.623808 -6.68998 0
M  V30 1271 N 133.029 1.57378 -0.0835403 0
M  V30 1272 C 134.44 1.81261 0.447358 0
M  V30 1273 C 134.791 0.998331 1.68902 0
M  V30 1274 O 133.916 0.224282 2.15235 0
M  V30 1275 C 134.511 3.28767 0.818386 0
M  V30 1276 C 133.07 3.53455 1.29409 0
M  V30 1277 C 132.217 2.75831 0.285024 0
M  V30 1278 H 135.168 1.5566 -0.309115 0
M  V30 1279 H 135.189 3.41459 1.67887 0
M  V30 1280 H 134.701 3.88006 -0.0855019 0
M  V30 1281 H 132.802 2.99534 2.21608 0
M  V30 1282 H 132.915 4.62128 1.2639 0
M  V30 1283 H 131.279 2.42947 0.764767 0
M  V30 1284 H 132.062 3.37813 -0.611341 0
M  V30 1285 N 134.507 -0.190092 1.56449 0
M  V30 1286 C 135.918 -0.754312 1.70784 0
M  V30 1287 C 136.269 -1.83631 0.690951 0
M  V30 1288 O 135.394 -2.15868 -0.151604 0
M  V30 1289 C 135.989 -1.37503 3.09642 0
M  V30 1290 C 134.548 -1.88628 3.25725 0
M  V30 1291 C 133.695 -0.758098 2.66736 0
M  V30 1292 H 136.646 0.0350524 1.58661 0
M  V30 1293 H 136.667 -2.2445 3.0725 0
M  V30 1294 H 136.179 -0.587302 3.83631 0
M  V30 1295 H 134.28 -2.70103 2.56661 0
M  V30 1296 H 134.393 -2.04462 4.3328 0
M  V30 1297 H 132.757 -1.17369 2.26046 0
M  V30 1298 H 133.54 0.0174705 3.43296 0
M  V30 1299 N 135.985 -1.50799 -0.457987 0
M  V30 1300 C 137.21 -1.66496 -1.23668 0
M  V30 1301 C 137.635 -0.353288 -1.84752 0
M  V30 1302 O 136.993 0.684346 -1.67888 0
M  V30 1303 C 137.041 -2.76763 -2.3116 0
M  V30 1304 O 136.145 -2.38928 -3.36136 0
M  V30 1305 H 135.486 -0.555828 -0.363252 0
M  V30 1306 H 138.016 -1.9725 -0.543474 0
M  V30 1307 H 138.026 -3.00232 -2.76269 0
M  V30 1308 H 136.701 -3.71954 -1.86073 0
M  V30 1309 H 135.278 -2.25953 -2.96647 0
M  V30 1310 N 137.463 0.71206 -1.40597 0
M  V30 1311 C 138.693 1.49894 -1.42181 0
M  V30 1312 C 139.101 1.89189 -0.0208078 0
M  V30 1313 O 138.444 1.56223 0.966436 0
M  V30 1314 C 138.506 2.80215 -2.25211 0
M  V30 1315 C 138.17 2.63221 -3.73582 0
M  V30 1316 C 139.167 2.30249 -4.66135 0
M  V30 1317 C 136.852 2.79376 -4.17438 0
M  V30 1318 C 138.846 2.13645 -6.00529 0
M  V30 1319 C 136.533 2.6239 -5.51901 0
M  V30 1320 C 137.531 2.29573 -6.43262 0
M  V30 1321 O 137.219 2.12719 -7.75246 0
M  V30 1322 H 136.951 0.469031 -0.486812 0
M  V30 1323 H 139.505 0.88564 -1.85326 0
M  V30 1324 H 137.735 3.4389 -1.76852 0
M  V30 1325 H 139.424 3.41947 -2.18694 0
M  V30 1326 H 140.19 2.17398 -4.33547 0
M  V30 1327 H 136.069 3.03906 -3.46644 0
M  V30 1328 H 139.613 1.87953 -6.71803 0
M  V30 1329 H 135.51 2.74826 -5.84073 0
M  V30 1330 H 136.278 2.27611 -7.86216 0
M  V30 1331 N 138.941 1.26152 0.944643 0
M  V30 1332 C 140.352 1.10454 1.50522 0
M  V30 1333 C 140.703 -0.31635 1.93633 0
M  V30 1334 O 139.828 -1.20746 1.79581 0
M  V30 1335 C 140.423 1.99891 2.73549 0
M  V30 1336 C 138.982 1.88348 3.25886 0
M  V30 1337 C 138.129 1.93447 1.9868 0
M  V30 1338 H 141.08 1.39292 0.760489 0
M  V30 1339 H 141.101 1.54477 3.47732 0
M  V30 1340 H 140.613 3.03297 2.42141 0
M  V30 1341 H 138.714 0.878636 3.62092 0
M  V30 1342 H 138.827 2.73696 3.93227 0
M  V30 1343 H 137.191 1.37456 2.14425 0
M  V30 1344 H 137.974 2.98476 1.69607 0
M  V30 1345 N 140.419 -1.14872 1.07899 0
M  V30 1346 C 141.665 -1.86289 0.81657 0
M  V30 1347 C 142.02 -1.8107 -0.65049 0
M  V30 1348 O 141.313 -1.22684 -1.47171 0
M  V30 1349 C 141.507 -3.34223 1.26609 0
M  V30 1350 C 141.336 -3.53846 2.77531 0
M  V30 1351 C 140.106 -3.68995 3.45212 0
M  V30 1352 C 142.304 -3.51201 3.75716 0
M  V30 1353 N 140.286 -3.76725 4.84718 0
M  V30 1354 C 141.657 -3.65112 5.01092 0
M  V30 1355 C 143.712 -3.34507 3.68794 0
M  V30 1356 C 142.415 -3.64056 6.20368 0
M  V30 1357 C 144.441 -3.34752 4.8754 0
M  V30 1358 C 143.803 -3.49199 6.11751 0
M  V30 1359 H 139.902 -0.698579 0.351443 0
M  V30 1360 H 142.486 -1.37713 1.37634 0
M  V30 1361 H 140.657 -3.81402 0.73395 0
M  V30 1362 H 142.389 -3.93377 0.95062 0
M  V30 1363 H 139.144 -3.70006 2.95622 0
M  V30 1364 H 139.568 -3.8432 5.5734 0
M  V30 1365 H 144.21 -3.22253 2.73702 0
M  V30 1366 H 141.928 -3.75087 7.15776 0
M  V30 1367 H 145.514 -3.23055 4.83866 0
M  V30 1368 H 144.394 -3.49328 7.02097 0
M  V30 1369 N 141.898 -0.863906 -1.31812 0
M  V30 1370 C 143.123 -0.48527 -2.01643 0
M  V30 1371 C 143.548 0.913058 -1.64453 0
M  V30 1372 O 142.906 1.6014 -0.849985 0
M  V30 1373 C 142.954 -0.642625 -3.54828 0
M  V30 1374 O 142.058 0.320659 -4.11151 0
M  V30 1375 H 141.399 -0.193793 -0.635091 0
M  V30 1376 H 143.929 -1.16565 -1.68148 0
M  V30 1377 H 143.939 -0.533628 -4.04495 0
M  V30 1378 H 142.614 -1.66227 -3.81237 0
M  V30 1379 H 141.191 0.167126 -3.72525 0
M  V30 1380 N 143.376 1.44774 -0.622745 0
M  V30 1381 C 144.326 2.2774 0.108889 0
M  V30 1382 C 145.31 1.38189 0.824175 0
M  V30 1383 O 146.502 1.62063 0.711664 0
M  V30 1384 C 143.631 3.25353 1.09546 0
M  V30 1385 C 142.717 4.22392 0.380232 0
M  V30 1386 N 143.108 5.02388 -0.586535 0
M  V30 1387 C 141.406 4.41588 0.625792 0
M  V30 1388 C 142.107 5.72894 -1.00834 0
M  V30 1389 N 141.083 5.42479 -0.348878 0
M  V30 1390 H 144.885 2.86993 -0.63341 0
M  V30 1391 H 142.399 1.5611 -0.447589 0
M  V30 1392 H 144.396 3.83538 1.63414 0
M  V30 1393 H 143.056 2.6766 1.83815 0
M  V30 1394 H 144.067 5.0885 -0.963975 0
M  V30 1395 H 140.744 3.95003 1.352 0
M  V30 1396 H 142.134 6.47158 -1.80656 0
M  V30 1397 N 144.854 0.36279 1.53368 0
M  V30 1398 C 146.27 0.0116182 1.59596 0
M  V30 1399 C 146.47 -1.47012 1.37803 0
M  V30 1400 O 145.526 -2.23136 1.18181 0
M  V30 1401 C 146.839 0.465052 2.97082 0
M  V30 1402 C 148.387 0.419033 3.10182 0
M  V30 1403 C 148.862 0.848235 4.50077 0
M  V30 1404 N 150.353 0.803183 4.56183 0
M  V30 1405 C 151.088 1.107 5.62613 0
M  V30 1406 N 150.584 1.47996 6.76808 0
M  V30 1407 N 152.377 1.02998 5.52583 0
M  V30 1408 H 144.528 1.32775 1.65785 0
M  V30 1409 H 146.791 0.542518 0.777417 0
M  V30 1410 H 146.497 1.49892 3.18159 0
M  V30 1411 H 146.371 -0.149786 3.76902 0
M  V30 1412 H 148.758 -0.605696 2.88817 0
M  V30 1413 H 148.839 1.06933 2.32377 0
M  V30 1414 H 148.483 1.87107 4.7218 0
M  V30 1415 H 148.413 0.175218 5.26308 0
M  V30 1416 H 150.904 0.52838 3.74188 0
M  V30 1417 H 151.217 1.69613 7.53957 0
M  V30 1418 H 149.562 1.51859 6.78206 0
M  V30 1419 H 152.753 0.737817 4.62249 0
M  V30 1420 H 152.926 1.2701 6.35431 0
M  V30 1421 N 146.332 -1.57332 0.0918853 0
M  V30 1422 C 147.58 -1.93853 -0.571446 0
M  V30 1423 C 147.901 -0.974212 -1.6892 0
M  V30 1424 O 147.171 -0.0257254 -1.95883 0
M  V30 1425 H 145.751 -0.715666 -0.214082 0
M  V30 1426 H 148.413 -1.94287 0.154464 0
M  V30 1427 H 147.509 -2.96191 -0.983729 0
M  V30 1428 N 147.81 0.181792 -1.56548 0
M  V30 1429 C 148.74 1.22765 -1.98623 0
M  V30 1430 C 149.721 1.46747 -0.860189 0
M  V30 1431 O 150.906 1.58259 -1.12551 0
M  V30 1432 C 148.036 2.56894 -2.33715 0
M  V30 1433 C 146.99 2.475 -3.49182 0
M  V30 1434 C 146.316 3.86023 -3.69986 0
M  V30 1435 C 147.616 1.98866 -4.82959 0
M  V30 1436 H 149.31 0.877942 -2.86239 0
M  V30 1437 H 146.856 0.42088 -1.37712 0
M  V30 1438 H 148.809 3.30253 -2.61746 0
M  V30 1439 H 147.533 2.93632 -1.42997 0
M  V30 1440 H 146.192 1.76596 -3.21262 0
M  V30 1441 H 145.84 4.20136 -2.76576 0
M  V30 1442 H 145.54 3.80609 -4.47672 0
M  V30 1443 H 147.064 4.60984 -4.00407 0
M  V30 1444 H 148.478 2.61992 -5.09934 0
M  V30 1445 H 146.875 2.04424 -5.64208 0
M  V30 1446 H 147.945 0.942465 -4.75653 0
M  V30 1447 N 149.288 1.51039 0.449983 0
M  V30 1448 C 150.218 1.74379 1.55288 0
M  V30 1449 C 151.199 0.593236 1.5942 0
M  V30 1450 O 152.384 0.834625 1.7535 0
M  V30 1451 C 149.514 1.85728 2.93466 0
M  V30 1452 C 148.468 3.01078 3.04197 0
M  V30 1453 C 147.794 2.97595 4.44231 0
M  V30 1454 C 149.094 4.41254 2.7945 0
M  V30 1455 H 150.788 2.66725 1.36008 0
M  V30 1456 H 148.334 1.2835 0.652864 0
M  V30 1457 H 150.287 2.0064 3.70569 0
M  V30 1458 H 149.011 0.900207 3.13949 0
M  V30 1459 H 147.67 2.85851 2.29531 0
M  V30 1460 H 147.318 1.99691 4.61663 0
M  V30 1461 H 147.018 3.75046 4.52343 0
M  V30 1462 H 148.542 3.14583 5.23326 0
M  V30 1463 H 149.956 4.56897 3.46292 0
M  V30 1464 H 148.353 5.20315 2.98985 0
M  V30 1465 H 149.423 4.52164 1.75144 0
M  V30 1466 N 150.766 -0.704594 1.40972 0
M  V30 1467 C 151.991 -1.49858 1.43378 0
M  V30 1468 C 152.416 -1.88061 0.038184 0
M  V30 1469 O 151.774 -1.5402 -0.956425 0
M  V30 1470 C 151.822 -2.74333 2.34038 0
M  V30 1471 O 150.926 -3.7147 1.7912 0
M  V30 1472 H 150.267 -0.45139 0.486974 0
M  V30 1473 H 152.797 -0.866832 1.8533 0
M  V30 1474 H 152.807 -3.22741 2.49604 0
M  V30 1475 H 151.482 -2.45863 3.35446 0
M  V30 1476 H 150.059 -3.30363 1.72958 0
M  V30 1477 N 152.244 -1.26651 -0.937939 0
M  V30 1478 C 153.469 -1.15279 -1.72411 0
M  V30 1479 C 153.894 0.287866 -1.85884 0
M  V30 1480 O 153.252 1.20855 -1.35143 0
M  V30 1481 C 153.3 -1.83028 -3.10698 0
M  V30 1482 O 152.404 -1.12128 -3.96864 0
M  V30 1483 H 151.745 -0.401504 -0.528858 0
M  V30 1484 H 154.275 -1.67531 -1.1745 0
M  V30 1485 H 154.285 -1.89981 -3.6107 0
M  V30 1486 H 152.96 -2.87833 -3.00208 0
M  V30 1487 H 151.537 -1.13173 -3.55312 0
M  V30 1488 N 153.722 1.14298 -1.08507 0
M  V30 1489 C 154.652 2.21542 -0.737646 0
M  V30 1490 C 155.633 1.67773 0.280377 0
M  V30 1491 O 156.818 1.93616 0.150521 0
M  V30 1492 C 153.948 3.46988 -0.147259 0
M  V30 1493 C 152.902 4.13789 -1.09374 0
M  V30 1494 C 152.228 5.33449 -0.365524 0
M  V30 1495 C 153.528 4.62208 -2.4323 0
M  V30 1496 H 155.222 2.5086 -1.6343 0
M  V30 1497 H 152.768 1.20576 -0.787243 0
M  V30 1498 H 154.721 4.21262 0.107808 0
M  V30 1499 H 153.445 3.17037 0.784538 0
M  V30 1500 H 152.104 3.4147 -1.33393 0
M  V30 1501 H 151.752 4.99759 0.57011 0
M  V30 1502 H 151.452 5.79088 -0.996512 0
M  V30 1503 H 152.976 6.10485 -0.118534 0
M  V30 1504 H 154.39 5.27952 -2.23472 0
M  V30 1505 H 152.787 5.18553 -3.02031 0
M  V30 1506 H 153.857 3.77224 -3.04681 0
M  V30 1507 N 155.201 0.870884 1.31352 0
M  V30 1508 C 156.478 0.402907 1.91405 0
M  V30 1509 C 156.858 -1.11512 1.79244 0
M  V30 1510 O 156.206 -1.94411 1.2007 0
M  V30 1511 C 156.416 0.885301 3.37585 0
M  V30 1512 C 157.764 0.911971 4.14691 0
M  V30 1513 O 158.788 0.831016 3.46371 0
M  V30 1514 O 157.647 1.02927 5.3672 0
M  V30 1515 H 154.741 0.120698 0.818145 0
M  V30 1516 H 157.287 0.958857 1.40014 0
M  V30 1517 H 156.059 1.92889 3.40455 0
M  V30 1518 H 155.682 0.307714 3.96407 0
M  V30 1519 N 156.679 -1.44442 0.630414 0
M  V30 1520 C 157.629 -2.27794 -0.0968103 0
M  V30 1521 C 158.613 -1.38624 -0.816834 0
M  V30 1522 O 159.805 -1.62438 -0.70306 0
M  V30 1523 C 156.934 -3.25929 -1.07819 0
M  V30 1524 C 156.02 -4.22588 -0.357826 0
M  V30 1525 N 156.411 -5.0207 0.613169 0
M  V30 1526 C 154.709 -4.41914 -0.602365 0
M  V30 1527 C 155.41 -5.72351 1.03871 0
M  V30 1528 N 154.386 -5.42287 0.377642 0
M  V30 1529 H 158.188 -2.86653 0.648621 0
M  V30 1530 H 155.702 -1.55871 0.455862 0
M  V30 1531 H 157.699 -3.84399 -1.61378 0
M  V30 1532 H 156.359 -2.68631 -1.82393 0
M  V30 1533 H 157.37 -5.08331 0.990947 0
M  V30 1534 H 154.047 -3.95714 -1.33103 0
M  V30 1535 H 155.437 -6.4619 1.84086 0
M  V30 1536 N 158.157 -0.370918 -1.53173 0
M  V30 1537 C 159.385 0.217704 -2.05751 0
M  V30 1538 C 159.8 1.42018 -1.24404 0
M  V30 1539 O 159.157 1.80245 -0.286033 0
M  V30 1540 C 159.208 0.605954 -3.56385 0
M  V30 1541 O 158.929 -0.548734 -4.3465 0
M  V30 1542 C 160.43 1.2524 -4.25241 0
M  V30 1543 H 157.65 0.0371659 -0.66997 0
M  V30 1544 H 160.194 -0.530832 -1.9749 0
M  V30 1545 H 158.349 1.3044 -3.6478 0
M  V30 1546 H 158.763 -0.23376 -5.23979 0
M  V30 1547 H 160.237 1.47458 -5.3194 0
M  V30 1548 H 160.714 2.2143 -3.79296 0
M  V30 1549 H 161.32 0.595233 -4.21114 0
M  V30 1550 N 159.635 1.57281 -0.100228 0
M  V30 1551 C 160.86 1.99302 0.573881 0
M  V30 1552 C 161.285 0.979059 1.60611 0
M  V30 1553 O 160.643 -0.0517803 1.81226 0
M  V30 1554 C 160.691 3.40274 1.19358 0
M  V30 1555 O 159.795 3.41676 2.30935 0
M  V30 1556 H 159.136 0.647944 0.145138 0
M  V30 1557 H 161.666 2.03779 -0.183156 0
M  V30 1558 H 161.676 3.78078 1.53365 0
M  V30 1559 H 160.351 4.13594 0.437385 0
M  V30 1560 H 158.928 3.15672 1.98509 0
M  V30 1561 N 161.113 -0.173488 1.56642 0
M  V30 1562 C 162.362 -0.888758 1.81063 0
M  V30 1563 C 162.675 -1.83506 0.67712 0
M  V30 1564 O 163.881 -2.59254 0.806206 0
M  V30 1565 C 162.337 -1.63091 3.20826 0
M  V30 1566 C 161.945 -0.728357 4.4204 0
M  V30 1567 C 163.689 -2.33454 3.54541 0
M  V30 1568 C 161.596 -1.47062 5.72823 0
M  V30 1569 H 160.526 -0.335618 0.675186 0
M  V30 1570 H 163.177 -0.141712 1.82952 0
M  V30 1571 H 161.559 -2.42263 3.13248 0
M  V30 1572 H 162.733 0.0262449 4.60793 0
M  V30 1573 H 161.048 -0.134492 4.16183 0
M  V30 1574 H 163.645 -2.89578 4.49498 0
M  V30 1575 H 163.988 -3.08687 2.79317 0
M  V30 1576 H 164.521 -1.61227 3.63663 0
M  V30 1577 H 161.26 -0.760658 6.51072 0
M  V30 1578 H 160.78 -2.1986 5.58052 0
M  V30 1579 H 162.459 -2.01868 6.14702 0
M  V30 1580 N 162.591 -1.51276 -0.441967 0
M  V30 1581 C 164.007 -1.39349 -0.778083 0
M  V30 1582 C 164.207 -0.472212 -1.95889 0
M  V30 1583 O 163.263 0.0743551 -2.5239 0
M  V30 1584 C 164.576 -2.81292 -1.0628 0
M  V30 1585 C 166.124 -2.9041 -1.16751 0
M  V30 1586 C 166.599 -4.33251 -1.48519 0
M  V30 1587 N 168.09 -4.36336 -1.55453 0
M  V30 1588 C 168.825 -5.43885 -1.81596 0
M  V30 1589 N 168.321 -6.61601 -2.05562 0
M  V30 1590 N 170.114 -5.3136 -1.8334 0
M  V30 1591 H 162.265 -2.09729 0.335774 0
M  V30 1592 H 164.528 -0.943925 0.0878028 0
M  V30 1593 H 164.234 -3.50678 -0.267905 0
M  V30 1594 H 164.108 -3.20334 -1.99163 0
M  V30 1595 H 166.495 -2.21225 -1.95304 0
M  V30 1596 H 166.576 -2.54871 -0.217801 0
M  V30 1597 H 166.22 -5.02984 -0.704958 0
M  V30 1598 H 166.15 -4.66299 -2.44689 0
M  V30 1599 H 168.641 -3.51466 -1.38853 0
M  V30 1600 H 168.954 -7.39361 -2.24867 0
M  V30 1601 H 167.299 -6.64725 -2.02894 0
M  V30 1602 H 170.49 -4.38382 -1.64132 0
M  V30 1603 H 170.663 -6.15258 -2.03377 0
M  V30 1604 N 164.069 0.697108 -1.41344 0
M  V30 1605 C 165.485 1.00751 -1.2378 0
M  V30 1606 C 165.685 2.01105 -0.126066 0
M  V30 1607 O 164.741 2.47295 0.51004 0
M  V30 1608 C 166.054 1.53359 -2.58653 0
M  V30 1609 C 167.602 1.6525 -2.65822 0
M  V30 1610 C 168.077 2.2126 -4.01009 0
M  V30 1611 N 169.568 2.28622 -4.02847 0
M  V30 1612 C 170.303 2.72984 -5.04249 0
M  V30 1613 N 169.799 3.16962 -6.16041 0
M  V30 1614 N 171.592 2.72534 -4.91611 0
M  V30 1615 H 163.743 0.0322662 -2.12375 0
M  V30 1616 H 166.006 0.0768853 -0.944877 0
M  V30 1617 H 165.712 0.870773 -3.4075 0
M  V30 1618 H 165.586 2.51597 -2.81032 0
M  V30 1619 H 167.973 2.30644 -1.84086 0
M  V30 1620 H 168.054 0.655614 -2.47256 0
M  V30 1621 H 167.698 1.56482 -4.83193 0
M  V30 1622 H 167.628 3.21698 -4.16915 0
M  V30 1623 H 170.119 1.97585 -3.22131 0
M  V30 1624 H 170.432 3.49434 -6.89287 0
M  V30 1625 H 168.777 3.14875 -6.1958 0
M  V30 1626 H 171.968 2.37525 -4.0336 0
M  V30 1627 H 172.141 3.06789 -5.70775 0
M  V30 1628 N 165.547 1.27147 0.931209 0
M  V30 1629 C 166.795 1.13055 1.6752 0
M  V30 1630 C 167.116 -0.324791 1.92276 0
M  V30 1631 O 166.386 -1.22775 1.52654 0
M  V30 1632 H 164.966 0.415391 0.620854 0
M  V30 1633 H 167.628 1.59623 1.11833 0
M  V30 1634 H 166.724 1.65694 2.64485 0
M  V30 1635 N 167.025 -1.13721 1.09112 0
M  V30 1636 C 168.272 -1.84924 0.825192 0
M  V30 1637 C 168.6 -1.83347 -0.649151 0
M  V30 1638 O 167.855 -1.26449 -1.49362 0
M  V30 1639 C 168.154 -3.32861 1.30146 0
M  V30 1640 C 167.82 -3.54621 2.78486 0
M  V30 1641 C 166.482 -3.60268 3.18999 0
M  V30 1642 C 168.834 -3.62855 3.74146 0
M  V30 1643 C 166.162 -3.71679 4.53951 0
M  V30 1644 C 168.514 -3.75793 5.08883 0
M  V30 1645 C 167.178 -3.79692 5.4899 0
M  V30 1646 H 166.448 -0.676684 0.301959 0
M  V30 1647 H 169.095 -1.3428 1.36533 0
M  V30 1648 H 167.4 -3.85835 0.681064 0
M  V30 1649 H 169.097 -3.86395 1.07236 0
M  V30 1650 H 165.687 -3.50879 2.46134 0
M  V30 1651 H 169.871 -3.57775 3.43963 0
M  V30 1652 H 165.127 -3.72963 4.84467 0
M  V30 1653 H 169.301 -3.81107 5.82864 0
M  V30 1654 H 166.928 -3.88287 6.53558 0
M  V30 1655 N 168.503 -0.877838 -1.30888 0
M  V30 1656 C 169.435 -0.296607 -2.27273 0
M  V30 1657 C 170.448 0.544799 -1.53414 0
M  V30 1658 O 171.637 0.365511 -1.74718 0
M  V30 1659 C 168.737 0.597481 -3.33592 0
M  V30 1660 C 167.91 -0.213251 -4.3688 0
M  V30 1661 C 166.969 0.610208 -5.2265 0
M  V30 1662 O 165.995 0.035441 -5.69189 0
M  V30 1663 N 167.197 1.92071 -5.47804 0
M  V30 1664 H 169.962 -1.12492 -2.77787 0
M  V30 1665 H 167.523 -0.740105 -1.43993 0
M  V30 1666 H 169.515 1.15425 -3.87891 0
M  V30 1667 H 168.085 1.32647 -2.83061 0
M  V30 1668 H 167.305 -0.951466 -3.82545 0
M  V30 1669 H 168.593 -0.769262 -5.02951 0
M  V30 1670 H 167.991 2.4107 -5.11763 0
M  V30 1671 H 166.548 2.42508 -6.05007 0
M  V30 1672 N 169.982 1.44106 -0.638065 0
M  V30 1673 C 171.228 2.02277 -0.145546 0
M  V30 1674 C 171.561 1.50125 1.23191 0
M  V30 1675 O 170.836 0.688133 1.8192 0
M  V30 1676 C 171.119 3.59829 -0.139791 0
M  V30 1677 C 170.972 4.22247 -1.55008 0
M  V30 1678 C 172.291 4.36873 0.531966 0
M  V30 1679 H 169.41 0.734992 -0.0543632 0
M  V30 1680 H 172.052 1.71592 -0.815863 0
M  V30 1681 H 170.202 3.86102 0.431007 0
M  V30 1682 H 171.874 4.07057 -2.1703 0
M  V30 1683 H 170.117 3.79476 -2.10191 0
M  V30 1684 H 170.788 5.31284 -1.49804 0
M  V30 1685 H 173.264 4.16074 0.0464781 0
M  V30 1686 H 172.14 5.4657 0.505206 0
M  V30 1687 H 172.401 4.11995 1.60352 0
M  V30 1688 N 171.46 0.379036 1.52974 0
M  V30 1689 C 172.69 -0.20649 2.05566 0
M  V30 1690 C 173.098 -1.41906 1.25137 0
M  V30 1691 O 172.441 -1.81421 0.288464 0
M  V30 1692 C 172.503 -0.651086 3.53555 0
M  V30 1693 C 172.167 0.446626 4.54812 0
M  V30 1694 C 173.164 1.30079 5.03364 0
M  V30 1695 C 170.849 0.610719 4.98573 0
M  V30 1696 C 172.843 2.30426 5.94292 0
M  V30 1697 C 170.53 1.61754 5.89304 0
M  V30 1698 C 171.528 2.46274 6.37054 0
M  V30 1699 O 171.216 3.45237 7.25994 0
M  V30 1700 H 170.948 -0.0372381 0.674974 0
M  V30 1701 H 173.502 0.539718 1.98182 0
M  V30 1702 H 171.732 -1.44911 3.58522 0
M  V30 1703 H 173.421 -1.16112 3.88938 0
M  V30 1704 H 174.187 1.18527 4.70294 0
M  V30 1705 H 170.066 -0.0374044 4.60985 0
M  V30 1706 H 173.61 2.96432 6.31485 0
M  V30 1707 H 169.507 1.73348 6.21788 0
M  V30 1708 H 170.275 3.41124 7.44027 0
M  V30 1709 N 172.938 -1.57226 0.108567 0
M  V30 1710 C 173.885 -2.14756 -0.845481 0
M  V30 1711 C 174.855 -1.06971 -1.27068 0
M  V30 1712 O 176.04 -1.34827 -1.35005 0
M  V30 1713 C 173.18 -2.74298 -2.09415 0
M  V30 1714 C 172.293 -3.96358 -1.71826 0
M  V30 1715 C 171.428 -4.44021 -2.9158 0
M  V30 1716 C 170.467 -5.58637 -2.50181 0
M  V30 1717 N 169.604 -6.01091 -3.62814 0
M  V30 1718 H 174.444 -2.95961 -0.348035 0
M  V30 1719 H 171.981 -1.46226 -0.160106 0
M  V30 1720 H 173.939 -3.06945 -2.82561 0
M  V30 1721 H 172.569 -1.95801 -2.56636 0
M  V30 1722 H 171.621 -3.69939 -0.885947 0
M  V30 1723 H 172.933 -4.79504 -1.37394 0
M  V30 1724 H 172.087 -4.78522 -3.72963 0
M  V30 1725 H 170.826 -3.59803 -3.29231 0
M  V30 1726 H 169.831 -5.23751 -1.67228 0
M  V30 1727 H 171.056 -6.44613 -2.13659 0
M  V30 1728 H 169.002 -5.19817 -4.00158 0
M  V30 1729 H 168.919 -6.79066 -3.32273 0
M  V30 1730 H 170.187 -6.40227 -4.44668 0
M  V30 1731 N 174.416 0.165178 -1.56732 0
M  V30 1732 C 175.348 1.22911 -1.93457 0
M  V30 1733 C 176.361 1.40152 -0.828333 0
M  V30 1734 O 177.55 1.40046 -1.10677 0
M  V30 1735 C 174.65 2.59686 -2.17753 0
M  V30 1736 C 173.823 2.63663 -3.48999 0
M  V30 1737 C 172.882 3.81845 -3.62051 0
M  V30 1738 O 171.908 3.67559 -4.34613 0
M  V30 1739 N 173.11 4.98557 -2.97357 0
M  V30 1740 H 175.875 0.917118 -2.85323 0
M  V30 1741 H 173.436 0.354895 -1.57962 0
M  V30 1742 H 175.428 3.37225 -2.23743 0
M  V30 1743 H 173.998 2.83251 -1.32242 0
M  V30 1744 H 173.218 1.72173 -3.54612 0
M  V30 1745 H 174.506 2.63336 -4.35352 0
M  V30 1746 H 173.904 5.13065 -2.38287 0
M  V30 1747 H 172.461 5.73936 -3.08934 0
M  V30 1748 N 175.894 1.51508 0.433938 0
M  V30 1749 C 177.14 1.64588 1.18484 0
M  V30 1750 C 177.473 0.362666 1.90784 0
M  V30 1751 O 176.748 -0.637892 1.83742 0
M  V30 1752 C 177.031 2.85149 2.19913 0
M  V30 1753 C 176.884 4.23456 1.51674 0
M  V30 1754 C 178.203 3.01227 3.20858 0
M  V30 1755 H 175.322 0.598994 0.429389 0
M  V30 1756 H 177.964 1.84002 0.473647 0
M  V30 1757 H 176.114 2.68729 2.80566 0
M  V30 1758 H 177.786 4.51552 0.943322 0
M  V30 1759 H 176.029 4.25998 0.819035 0
M  V30 1760 H 176.7 5.03812 2.2556 0
M  V30 1761 H 179.176 3.16382 2.70263 0
M  V30 1762 H 178.052 3.87141 3.89118 0
M  V30 1763 H 178.313 2.13447 3.8716 0
M  V30 1764 N 177.372 -0.689602 1.41712 0
M  V30 1765 C 178.612 -1.46184 1.42862 0
M  V30 1766 C 178.976 -1.91962 0.0382204 0
M  V30 1767 O 180.177 -2.68694 -0.0755019 0
M  V30 1768 C 178.448 -2.6371 2.4123 0
M  V30 1769 S 180.007 -3.52768 2.6096 0
M  V30 1770 H 176.825 -0.49947 0.506015 0
M  V30 1771 H 179.427 -0.804107 1.78198 0
M  V30 1772 H 178.131 -2.28293 3.41044 0
M  V30 1773 H 177.662 -3.3437 2.07269 0
M  V30 1774 H 179.677 -4.59146 1.88148 0
M  V30 1775 N 178.85 -1.27639 -0.924453 0
M  V30 1776 C 179.813 -1.10681 -2.00705 0
M  V30 1777 C 180.813 -0.0497823 -1.60723 0
M  V30 1778 O 182.003 -0.294654 -1.7169 0
M  V30 1779 C 179.135 -0.687164 -3.33902 0
M  V30 1780 H 180.328 -2.06817 -2.17179 0
M  V30 1781 H 177.881 -1.10473 -1.10569 0
M  V30 1782 H 178.616 0.275439 -3.23128 0
M  V30 1783 H 178.401 -1.45061 -3.6428 0
M  V30 1784 H 179.891 -0.590853 -4.13399 0
M  V30 1785 N 180.328 1.1314 -1.09713 0
M  V30 1786 C 181.553 1.88862 -0.857081 0
M  V30 1787 C 181.978 1.78729 0.586304 0
M  V30 1788 O 181.336 1.13692 1.41222 0
M  V30 1789 C 181.384 3.36325 -1.30069 0
M  V30 1790 O 180.488 4.09815 -0.461007 0
M  V30 1791 H 179.829 0.587108 -0.310162 0
M  V30 1792 H 182.359 1.43129 -1.46203 0
M  V30 1793 H 182.369 3.87157 -1.28738 0
M  V30 1794 H 181.044 3.43017 -2.35185 0
M  V30 1795 H 179.621 3.68986 -0.538888 0
M  V30 1796 N 181.806 0.884767 1.30421 0
M  V30 1797 C 183.046 0.509806 1.9794 0
M  V30 1798 C 183.41 -0.923736 1.68319 0
M  V30 1799 O 184.611 -1.40481 2.29169 0
M  V30 1800 C 182.882 0.776732 3.48858 0
M  V30 1801 S 184.441 0.503843 4.35898 0
M  V30 1802 H 181.259 0.189699 0.685227 0
M  V30 1803 H 183.861 1.14399 1.58535 0
M  V30 1804 H 182.565 1.81857 3.67908 0
M  V30 1805 H 182.096 0.1301 3.93185 0
M  V30 1806 H 184.111 -0.657625 4.91823 0
M  V30 1807 N 183.284 -1.43765 0.645699 0
M  V30 1808 C 184.234 -2.27884 -0.0726442 0
M  V30 1809 C 185.218 -1.39483 -0.802086 0
M  V30 1810 O 186.41 -1.63174 -0.685791 0
M  V30 1811 C 183.539 -3.27055 -1.04356 0
M  V30 1812 C 182.625 -4.22944 -0.312985 0
M  V30 1813 N 183.016 -5.01391 0.666386 0
M  V30 1814 C 181.314 -4.42528 -0.55546 0
M  V30 1815 C 182.015 -5.71217 1.09935 0
M  V30 1816 N 180.991 -5.41856 0.435137 0
M  V30 1817 H 184.793 -2.85949 0.678988 0
M  V30 1818 H 182.307 -1.55378 0.472368 0
M  V30 1819 H 184.304 -3.86089 -1.57292 0
M  V30 1820 H 182.964 -2.70551 -1.79534 0
M  V30 1821 H 183.975 -5.07252 1.04481 0
M  V30 1822 H 180.652 -3.97104 -1.28899 0
M  V30 1823 H 182.042 -6.44202 1.90929 0
M  V30 1824 N 184.763 -0.387143 -1.52771 0
M  V30 1825 C 185.988 0.198407 -2.06449 0
M  V30 1826 C 186.413 1.39918 -1.25716 0
M  V30 1827 O 185.771 1.79099 -0.281657 0
M  V30 1828 C 185.819 0.548893 -3.56398 0
M  V30 1829 O 184.923 1.64315 -3.78252 0
M  V30 1830 H 184.264 0.0237731 -0.663574 0
M  V30 1831 H 186.794 -0.553989 -1.96957 0
M  V30 1832 H 186.804 0.813812 -3.99801 0
M  V30 1833 H 185.479 -0.329005 -4.14597 0
M  V30 1834 H 184.056 1.37211 -3.46738 0
M  V30 1835 N 186.241 1.57166 -0.116904 0
M  V30 1836 C 187.174 2.10912 0.871291 0
M  V30 1837 C 188.152 1.025 1.26224 0
M  V30 1838 O 189.336 1.3014 1.36366 0
M  V30 1839 C 186.463 2.6041 2.16574 0
M  V30 1840 C 185.509 3.80687 1.92302 0
M  V30 1841 S 186.342 5.23199 1.14119 0
M  V30 1842 C 187.498 5.76064 2.44748 0
M  V30 1843 H 187.731 2.94401 0.414138 0
M  V30 1844 H 185.264 1.54096 0.096829 0
M  V30 1845 H 187.222 2.89583 2.9095 0
M  V30 1846 H 185.883 1.77106 2.59408 0
M  V30 1847 H 185.076 4.13462 2.8821 0
M  V30 1848 H 184.678 3.5212 1.26047 0
M  V30 1849 H 186.97 5.8566 3.406 0
M  V30 1850 H 187.913 6.74184 2.16521 0
M  V30 1851 H 188.321 5.04117 2.54019 0
M  V30 1852 N 187.719 -0.156864 1.56817 0
M  V30 1853 C 188.996 -0.899244 1.73704 0
M  V30 1854 C 189.376 -1.99771 0.682254 0
M  V30 1855 O 188.724 -2.26515 -0.300522 0
M  V30 1856 C 188.934 -1.45075 3.17418 0
M  V30 1857 C 190.282 -1.91802 3.7881 0
M  V30 1858 O 191.306 -1.54838 3.20786 0
M  V30 1859 O 190.165 -2.5994 4.80722 0
M  V30 1860 H 187.259 -0.424267 0.709878 0
M  V30 1861 H 189.805 -0.143561 1.69092 0
M  V30 1862 H 188.577 -0.660846 3.85679 0
M  V30 1863 H 188.2 -2.27021 3.26416 0
M  V30 1864 N 189.197 -1.51736 -0.425897 0
M  V30 1865 C 190.444 -1.6497 -1.17436 0
M  V30 1866 C 190.772 -0.371445 -1.9092 0
M  V30 1867 O 190.027 0.644963 -1.84767 0
M  V30 1868 C 190.326 -2.81103 -2.20717 0
M  V30 1869 C 189.992 -4.19954 -1.64162 0
M  V30 1870 C 188.654 -4.57725 -1.48462 0
M  V30 1871 C 191.006 -5.06552 -1.22696 0
M  V30 1872 C 188.334 -5.79789 -0.897873 0
M  V30 1873 C 190.686 -6.29205 -0.654464 0
M  V30 1874 C 189.35 -6.6574 -0.484456 0
M  V30 1875 H 188.62 -0.603668 -0.429727 0
M  V30 1876 H 191.267 -1.85798 -0.463829 0
M  V30 1877 H 189.572 -2.54542 -2.97852 0
M  V30 1878 H 191.269 -2.8854 -2.78471 0
M  V30 1879 H 187.859 -3.90181 -1.77361 0
M  V30 1880 H 192.043 -4.77968 -1.33642 0
M  V30 1881 H 187.299 -6.06733 -0.75402 0
M  V30 1882 H 191.473 -6.95643 -0.324694 0
M  V30 1883 H 189.1 -7.60195 -0.0276833 0
M  V30 1884 N 190.675 0.682077 -1.42076 0
M  V30 1885 C 191.921 1.44428 -1.42367 0
M  V30 1886 C 192.254 1.94164 -0.0373056 0
M  V30 1887 O 191.529 1.70429 0.937239 0
M  V30 1888 C 191.812 2.64654 -2.44194 0
M  V30 1889 C 191.665 2.20596 -3.91991 0
M  V30 1890 C 192.984 3.66865 -2.431 0
M  V30 1891 H 190.103 0.523834 -0.518428 0
M  V30 1892 H 192.745 0.77576 -1.73442 0
M  V30 1893 H 190.895 3.2169 -2.17826 0
M  V30 1894 H 192.567 1.68783 -4.29313 0
M  V30 1895 H 190.81 1.52242 -4.06208 0
M  V30 1896 H 191.481 3.06921 -4.58807 0
M  V30 1897 H 193.957 3.19531 -2.66532 0
M  V30 1898 H 192.833 4.48577 -3.16339 0
M  V30 1899 H 193.094 4.17493 -1.45437 0
M  V30 1900 N 192.153 1.28127 0.917671 0
M  V30 1901 C 193.116 1.11744 2.00115 0
M  V30 1902 C 194.116 0.0583052 1.60694 0
M  V30 1903 O 195.306 0.303755 1.71531 0
M  V30 1904 C 192.438 0.704862 3.33533 0
M  V30 1905 H 193.631 2.07966 2.16079 0
M  V30 1906 H 191.184 1.11058 1.09981 0
M  V30 1907 H 191.919 -0.258299 3.2327 0
M  V30 1908 H 191.704 1.4699 3.63505 0
M  V30 1909 H 193.194 0.612768 4.1308 0
M  V30 1910 N 193.631 -1.12557 1.10312 0
M  V30 1911 C 194.861 -1.87592 0.865617 0
M  V30 1912 C 195.269 -1.79851 -0.587389 0
M  V30 1913 O 194.612 -1.16949 -1.41664 0
M  V30 1914 C 194.674 -3.37665 1.23381 0
M  V30 1915 C 194.338 -3.69181 2.69359 0
M  V30 1916 C 195.335 -3.67652 3.67597 0
M  V30 1917 C 193.02 -3.98555 3.05711 0
M  V30 1918 C 195.014 -3.95053 5.00212 0
M  V30 1919 C 192.701 -4.25616 4.38514 0
M  V30 1920 C 193.699 -4.23851 5.35574 0
M  V30 1921 O 193.387 -4.50242 6.65986 0
M  V30 1922 H 193.119 -0.600442 0.310557 0
M  V30 1923 H 195.673 -1.4335 1.47105 0
M  V30 1924 H 193.903 -3.82454 0.571467 0
M  V30 1925 H 195.592 -3.94041 0.973994 0
M  V30 1926 H 196.358 -3.45024 3.40857 0
M  V30 1927 H 192.237 -3.99071 2.30789 0
M  V30 1928 H 195.781 -3.93591 5.75962 0
M  V30 1929 H 191.678 -4.47718 4.64994 0
M  V30 1930 H 192.446 -4.67867 6.71597 0
M  V30 1931 N 195.109 -0.891671 -1.2995 0
M  V30 1932 C 196.525 -0.58662 -1.48428 0
M  V30 1933 C 196.725 0.873951 -1.81561 0
M  V30 1934 O 195.781 1.65471 -1.90724 0
M  V30 1935 C 197.094 -1.50553 -2.60296 0
M  V30 1936 C 198.642 -1.50988 -2.74175 0
M  V30 1937 C 199.117 -2.41488 -3.89163 0
M  V30 1938 N 200.608 -2.39489 -3.96483 0
M  V30 1939 C 201.343 -3.06223 -4.84784 0
M  V30 1940 N 200.839 -3.82206 -5.77833 0
M  V30 1941 N 202.632 -2.95421 -4.78208 0
M  V30 1942 H 194.783 -1.83644 -1.06718 0
M  V30 1943 H 197.046 -0.786455 -0.529332 0
M  V30 1944 H 196.752 -2.54581 -2.42654 0
M  V30 1945 H 196.626 -1.22008 -3.56923 0
M  V30 1946 H 199.013 -0.47708 -2.91218 0
M  V30 1947 H 199.094 -1.83567 -1.78148 0
M  V30 1948 H 198.738 -3.44857 -3.72876 0
M  V30 1949 H 198.668 -2.06222 -4.84541 0
M  V30 1950 H 201.159 -1.84278 -3.29924 0
M  V30 1951 H 201.472 -4.302 -6.41988 0
M  V30 1952 H 199.817 -3.86313 -5.77743 0
M  V30 1953 H 203.008 -2.35581 -4.04499 0
M  V30 1954 H 203.181 -3.47704 -5.46814 0
M  V30 1955 N 196.587 1.43421 -0.653314 0
M  V30 1956 C 197.537 2.2792 0.060558 0
M  V30 1957 C 198.521 1.39906 0.794677 0
M  V30 1958 O 199.713 1.63536 0.677128 0
M  V30 1959 C 196.842 3.27603 1.0262 0
M  V30 1960 C 195.928 4.23104 0.290551 0
M  V30 1961 N 196.319 5.01031 -0.692967 0
M  V30 1962 C 194.617 4.42816 0.531984 0
M  V30 1963 C 195.318 5.70626 -1.12963 0
M  V30 1964 N 194.294 5.41617 -0.463867 0
M  V30 1965 H 198.096 2.85585 -0.694143 0
M  V30 1966 H 195.61 1.55126 -0.480602 0
M  V30 1967 H 197.607 3.86918 1.55242 0
M  V30 1968 H 196.267 2.71499 1.78096 0
M  V30 1969 H 197.278 5.0669 -1.07169 0
M  V30 1970 H 193.955 3.97782 1.26791 0
M  V30 1971 H 195.345 6.4318 -1.94343 0
M  V30 1972 N 198.065 0.39524 1.52563 0
M  V30 1973 C 198.995 -0.428384 2.29537 0
M  V30 1974 C 199.976 -1.05831 1.33169 0
M  V30 1975 O 201.161 -1.06995 1.62067 0
M  V30 1976 C 198.291 -1.55274 3.10656 0
M  V30 1977 C 197.245 -1.04855 4.14957 0
M  V30 1978 C 196.571 -2.26543 4.84337 0
M  V30 1979 C 197.871 -0.112324 5.22179 0
M  V30 1980 H 199.565 0.213867 2.98635 0
M  V30 1981 H 197.111 0.104298 1.43622 0
M  V30 1982 H 199.064 -2.1358 3.63265 0
M  V30 1983 H 197.788 -2.22266 2.39302 0
M  V30 1984 H 196.447 -0.487985 3.63338 0
M  V30 1985 H 196.095 -2.92059 4.09525 0
M  V30 1986 H 195.795 -1.93466 5.54837 0
M  V30 1987 H 197.319 -2.85481 5.39753 0
M  V30 1988 H 198.733 -0.603752 5.70112 0
M  V30 1989 H 197.13 0.128968 5.99961 0
M  V30 1990 H 198.2 0.837052 4.77621 0
M  V30 1991 N 199.544 -1.57102 0.125237 0
M  V30 1992 C 200.79 -1.95697 -0.532035 0
M  V30 1993 C 201.123 -1.009 -1.6593 0
M  V30 1994 O 200.398 -0.047347 -1.94442 0
M  V30 1995 C 200.681 -3.44181 -1.05884 0
M  V30 1996 C 200.534 -4.49752 0.0654392 0
M  V30 1997 C 201.853 -3.94655 -1.9477 0
M  V30 1998 H 198.972 -0.711571 -0.191925 0
M  V30 1999 H 201.614 -1.88923 0.20206 0
M  V30 2000 H 199.764 -3.50085 -1.68442 0
M  V30 2001 H 201.436 -4.55943 0.700982 0
M  V30 2002 H 199.679 -4.27653 0.727709 0
M  V30 2003 H 200.35 -5.50924 -0.344505 0
M  V30 2004 H 202.826 -3.91094 -1.42074 0
M  V30 2005 H 201.702 -4.99057 -2.28546 0
M  V30 2006 H 201.963 -3.35718 -2.87656 0
M  V30 2007 N 201.022 0.148545 -1.56898 0
M  V30 2008 C 202.27 0.859717 -1.82902 0
M  V30 2009 C 202.591 1.81775 -0.70588 0
M  V30 2010 O 201.861 1.93994 0.272586 0
M  V30 2011 H 200.441 0.320469 -0.674766 0
M  V30 2012 H 203.103 0.142918 -1.94375 0
M  V30 2013 H 202.199 1.4229 -2.77777 0
M  V30 2014 N 202.5 1.5196 0.417844 0
M  V30 2015 C 203.746 1.65836 1.16732 0
M  V30 2016 C 204.079 0.382881 1.90388 0
M  V30 2017 O 203.354 -0.618368 1.84408 0
M  V30 2018 C 203.637 2.87466 2.16876 0
M  V30 2019 C 203.49 4.25041 1.47174 0
M  V30 2020 C 204.809 3.04613 3.17646 0
M  V30 2021 H 201.928 0.603515 0.423011 0
M  V30 2022 H 204.57 1.84494 0.454105 0
M  V30 2023 H 202.72 2.71689 2.777 0
M  V30 2024 H 204.392 4.52527 0.895376 0
M  V30 2025 H 202.635 4.26843 0.773806 0
M  V30 2026 H 203.306 5.06176 2.20204 0
M  V30 2027 H 205.782 3.1923 2.66892 0
M  V30 2028 H 204.658 3.91247 3.8499 0
M  V30 2029 H 204.919 2.17541 3.84874 0
M  V30 2030 N 203.978 -0.674533 1.42435 0
M  V30 2031 C 205.218 -1.4466 1.44405 0
M  V30 2032 C 205.582 -1.91911 0.0585784 0
M  V30 2033 O 206.783 -2.68759 -0.0469991 0
M  V30 2034 C 205.054 -2.61136 2.44013 0
M  V30 2035 S 206.613 -3.49981 2.64687 0
M  V30 2036 H 203.431 -0.494074 0.511284 0
M  V30 2037 H 206.033 -0.785162 1.7904 0
M  V30 2038 H 204.737 -2.24662 3.43446 0
M  V30 2039 H 204.268 -3.32153 2.10803 0
M  V30 2040 H 206.283 -4.57124 1.93007 0
M  V30 2041 N 205.456 -1.28612 -0.910864 0
M  V30 2042 C 206.686 -1.1862 -1.69153 0
M  V30 2043 C 207.094 0.257324 -1.87442 0
M  V30 2044 O 206.437 1.18543 -1.40332 0
M  V30 2045 C 206.499 -1.81606 -3.10257 0
M  V30 2046 C 206.163 -3.30864 -3.15243 0
M  V30 2047 C 207.16 -4.27256 -2.96223 0
M  V30 2048 C 204.845 -3.71871 -3.37664 0
M  V30 2049 C 206.839 -5.62631 -2.99541 0
M  V30 2050 C 204.526 -5.07371 -3.40614 0
M  V30 2051 C 205.524 -6.02561 -3.21573 0
M  V30 2052 O 205.212 -7.35589 -3.2429 0
M  V30 2053 H 204.944 -0.412633 -0.535453 0
M  V30 2054 H 207.498 -1.70306 -1.14827 0
M  V30 2055 H 205.728 -1.24418 -3.66138 0
M  V30 2056 H 207.417 -1.66092 -3.70362 0
M  V30 2057 H 208.183 -3.9691 -2.78725 0
M  V30 2058 H 204.062 -2.98241 -3.5153 0
M  V30 2059 H 207.606 -6.36907 -2.84597 0
M  V30 2060 H 203.503 -5.37366 -3.57642 0
M  V30 2061 H 204.271 -7.44252 -3.40633 0
M  V30 2062 N 206.934 1.1197 -1.10907 0
M  V30 2063 C 208.162 1.87402 -0.876824 0
M  V30 2064 C 208.577 1.79894 0.573025 0
M  V30 2065 O 207.934 1.17629 1.39534 0
M  V30 2066 C 207.985 3.36428 -1.32282 0
M  V30 2067 O 207.706 3.43765 -2.71582 0
M  V30 2068 C 209.207 4.28783 -1.12518 0
M  V30 2069 H 206.427 0.592793 -0.314384 0
M  V30 2070 H 208.971 1.41649 -1.47499 0
M  V30 2071 H 207.126 3.79706 -0.768229 0
M  V30 2072 H 207.54 4.3652 -2.90776 0
M  V30 2073 H 209.014 5.31613 -1.48633 0
M  V30 2074 H 209.491 4.39153 -0.0642394 0
M  V30 2075 H 210.097 3.91291 -1.66648 0
M  V30 2076 N 208.412 0.89855 1.29475 0
M  V30 2077 C 209.322 0.379974 2.31502 0
M  V30 2078 C 210.338 -0.524695 1.659 0
M  V30 2079 O 211.514 -0.414551 1.97087 0
M  V30 2080 C 208.579 -0.385138 3.44554 0
M  V30 2081 C 207.64 0.550914 4.2575 0
M  V30 2082 C 206.873 -0.177778 5.33404 0
M  V30 2083 O 207.096 -1.40189 5.52904 0
M  V30 2084 O 206.03 0.479106 5.9999 0
M  V30 2085 H 209.856 1.22639 2.77837 0
M  V30 2086 H 207.441 0.662834 1.33891 0
M  V30 2087 H 209.323 -0.817841 4.13388 0
M  V30 2088 H 207.998 -1.20763 3.0033 0
M  V30 2089 H 206.905 1.03271 3.59564 0
M  V30 2090 H 208.238 1.33979 4.73614 0
M  V30 2091 N 209.89 -1.43072 0.660911 0
M  V30 2092 C 211.167 -1.95307 0.107017 0
M  V30 2093 C 211.547 -1.60192 -1.37484 0
M  V30 2094 O 210.895 -0.890949 -2.10415 0
M  V30 2095 C 211.105 -3.47124 0.361402 0
M  V30 2096 C 212.453 -4.23738 0.270455 0
M  V30 2097 O 213.477 -3.54981 0.294382 0
M  V30 2098 O 212.336 -5.46131 0.200737 0
M  V30 2099 H 209.43 -0.826984 -0.00517729 0
M  V30 2100 H 211.976 -1.52972 0.734681 0
M  V30 2101 H 210.748 -3.65837 1.38848 0
M  V30 2102 H 210.371 -3.96475 -0.298953 0
M  V30 2103 N 211.368 -0.403325 -1.52352 0
M  V30 2104 C 212.278 0.432009 -2.30588 0
M  V30 2105 C 213.294 1.05884 -1.38075 0
M  V30 2106 O 214.47 1.06161 -1.71148 0
M  V30 2107 C 211.535 1.53669 -3.10784 0
M  V30 2108 C 210.596 0.933525 -4.19027 0
M  V30 2109 C 209.829 1.98557 -4.9539 0
M  V30 2110 O 210.052 3.20283 -4.71991 0
M  V30 2111 O 208.986 1.59504 -5.80381 0
M  V30 2112 H 212.812 -0.205739 -3.03002 0
M  V30 2113 H 210.397 -0.166675 -1.48467 0
M  V30 2114 H 212.279 2.17814 -3.60742 0
M  V30 2115 H 210.954 2.15915 -2.41169 0
M  V30 2116 H 209.861 0.254954 -3.7323 0
M  V30 2117 H 211.194 0.35508 -4.90918 0
M  V30 2118 N 212.846 1.57033 -0.133567 0
M  V30 2119 C 213.809 2.14897 0.796995 0
M  V30 2120 C 214.809 1.0874 1.18458 0
M  V30 2121 O 215.999 1.34446 1.1077 0
M  V30 2122 C 213.131 2.70112 2.07973 0
M  V30 2123 H 214.324 2.98457 0.293873 0
M  V30 2124 H 211.877 1.55871 0.115787 0
M  V30 2125 H 212.612 1.9018 2.62682 0
M  V30 2126 H 212.397 3.47764 1.81115 0
M  V30 2127 H 213.887 3.14738 2.74462 0
M  V30 2128 N 214.325 -0.140222 1.56975 0
M  V30 2129 C 215.272 -1.17292 1.98774 0
M  V30 2130 C 216.242 -1.4232 0.856408 0
M  V30 2131 O 217.427 -1.54541 1.119 0
M  V30 2132 C 214.567 -2.49973 2.37923 0
M  V30 2133 C 213.68 -2.32062 3.64378 0
M  V30 2134 C 212.815 -3.57825 3.926 0
M  V30 2135 C 211.854 -3.3498 5.12303 0
M  V30 2136 N 210.991 -4.52891 5.36502 0
M  V30 2137 H 215.831 -0.809472 2.86795 0
M  V30 2138 H 213.368 -0.388237 1.41884 0
M  V30 2139 H 215.326 -3.27346 2.58652 0
M  V30 2140 H 213.956 -2.84252 1.52972 0
M  V30 2141 H 213.008 -1.45711 3.51387 0
M  V30 2142 H 214.32 -2.11145 4.51906 0
M  V30 2143 H 213.474 -4.43624 4.13863 0
M  V30 2144 H 212.213 -3.81753 3.03506 0
M  V30 2145 H 211.218 -2.4757 4.90906 0
M  V30 2146 H 212.443 -3.12444 6.02956 0
M  V30 2147 H 210.389 -4.76979 4.50363 0
M  V30 2148 H 210.306 -4.35001 6.18312 0
M  V30 2149 H 211.574 -5.39884 5.62268 0
M  V30 2150 N 215.803 -1.52179 -0.40978 0
M  V30 2151 C 216.713 -1.78364 -1.52392 0
M  V30 2152 C 217.729 -0.669183 -1.60617 0
M  V30 2153 O 218.905 -0.954518 -1.77344 0
M  V30 2154 C 215.97 -1.92822 -2.88133 0
M  V30 2155 C 215.031 -3.16725 -2.898 0
M  V30 2156 C 214.264 -3.30483 -4.19067 0
M  V30 2157 O 214.487 -2.49522 -5.12928 0
M  V30 2158 O 213.421 -4.2363 -4.27576 0
M  V30 2159 H 217.247 -2.72931 -1.33201 0
M  V30 2160 H 214.832 -1.37016 -0.59557 0
M  V30 2161 H 216.714 -2.04157 -3.68643 0
M  V30 2162 H 215.389 -1.01444 -3.07393 0
M  V30 2163 H 214.296 -3.10848 -2.08146 0
M  V30 2164 H 215.629 -4.07881 -2.75489 0
M  V30 2165 N 217.281 0.66697 -1.42791 0
M  V30 2166 C 218.211 1.79218 -1.49677 0
M  V30 2167 C 219.192 1.66405 -0.352623 0
M  V30 2168 O 220.377 1.85708 -0.567993 0
M  V30 2169 C 217.507 3.17565 -1.40605 0
M  V30 2170 C 216.461 3.45124 -2.53127 0
M  V30 2171 C 215.787 4.83127 -2.29112 0
M  V30 2172 C 217.087 3.41236 -3.95418 0
M  V30 2173 H 218.781 1.73713 -2.43853 0
M  V30 2174 H 216.327 0.83432 -1.17367 0
M  V30 2175 H 218.28 3.96022 -1.44029 0
M  V30 2176 H 217.004 3.23767 -0.429271 0
M  V30 2177 H 215.663 2.69031 -2.49034 0
M  V30 2178 H 215.311 4.85988 -1.29709 0
M  V30 2179 H 215.011 5.02528 -3.04531 0
M  V30 2180 H 216.535 5.63859 -2.34297 0
M  V30 2181 H 217.949 4.09651 -4.01073 0
M  V30 2182 H 216.346 3.72173 -4.70752 0
M  V30 2183 H 217.416 2.39665 -4.21532 0
M  V30 2184 N 218.759 1.29093 0.90403 0
M  V30 2185 C 219.722 1.1386 1.98919 0
M  V30 2186 C 220.722 0.0753457 1.60623 0
M  V30 2187 O 221.912 0.321931 1.71199 0
M  V30 2188 C 219.044 0.740198 3.32767 0
M  V30 2189 H 220.237 2.10246 2.13861 0
M  V30 2190 H 217.79 1.12218 1.08797 0
M  V30 2191 H 218.525 -0.223997 3.23525 0
M  V30 2192 H 218.31 1.50838 3.61926 0
M  V30 2193 H 219.8 0.656546 4.12407 0
M  V30 2194 N 220.237 -1.11381 1.11499 0
M  V30 2195 C 221.2 -2.15622 0.777153 0
M  V30 2196 C 222.2 -1.59504 -0.203779 0
M  V30 2197 O 223.39 -1.74188 0.020782 0
M  V30 2198 C 220.522 -3.40556 0.153116 0
M  V30 2199 H 221.715 -2.47021 1.70061 0
M  V30 2200 H 219.268 -1.26577 0.916952 0
M  V30 2201 H 220.003 -3.14767 -0.780536 0
M  V30 2202 H 219.788 -3.8257 0.859238 0
M  V30 2203 H 221.278 -4.17546 -0.0671044 0
M  V30 2204 N 221.715 -0.905404 -1.28997 0
M  V30 2205 C 222.625 -0.392246 -2.31298 0
M  V30 2206 C 223.641 0.515889 -1.66176 0
M  V30 2207 O 224.817 0.404093 -1.97304 0
M  V30 2208 C 221.882 0.36686 -3.44754 0
M  V30 2209 C 220.943 -0.573485 -4.25452 0
M  V30 2210 C 220.176 0.149488 -5.33491 0
M  V30 2211 O 220.399 1.37255 -5.5364 0
M  V30 2212 O 219.333 -0.510919 -5.99728 0
M  V30 2213 H 223.159 -1.2411 -2.77183 0
M  V30 2214 H 220.744 -0.669926 -1.33538 0
M  V30 2215 H 222.626 0.795907 -4.13816 0
M  V30 2216 H 221.301 1.19169 -3.00966 0
M  V30 2217 H 220.208 -1.05176 -3.59011 0
M  V30 2218 H 221.541 -1.36489 -4.72897 0
M  V30 2219 N 223.193 1.4272 -0.668489 0
M  V30 2220 C 224.439 2.01923 -0.188419 0
M  V30 2221 C 224.772 1.52704 1.19979 0
M  V30 2222 O 224.047 0.726566 1.8042 0
M  V30 2223 C 224.33 3.59451 -0.216085 0
M  V30 2224 C 224.183 4.18864 -1.6393 0
M  V30 2225 C 225.502 4.37903 0.439179 0
M  V30 2226 H 222.621 0.733674 -0.0699412 0
M  V30 2227 H 225.263 1.69822 -0.852076 0
M  V30 2228 H 223.413 3.86929 0.349012 0
M  V30 2229 H 225.085 4.02362 -2.25616 0
M  V30 2230 H 223.328 3.74933 -2.18193 0
M  V30 2231 H 223.999 5.27987 -1.61039 0
M  V30 2232 H 226.475 4.16079 -0.0417878 0
M  V30 2233 H 225.351 5.47519 0.389157 0
M  V30 2234 H 225.612 4.15303 1.51577 0
M  V30 2235 N 224.671 0.411399 1.52136 0
M  V30 2236 C 225.581 -0.419774 2.30814 0
M  V30 2237 C 226.597 -1.0515 1.38634 0
M  V30 2238 O 227.773 -1.05252 1.71709 0
M  V30 2239 C 224.838 -1.52019 3.11594 0
M  V30 2240 C 223.899 -0.91129 4.19516 0
M  V30 2241 C 223.132 -1.95927 4.96436 0
M  V30 2242 O 223.355 -3.17775 4.73683 0
M  V30 2243 O 222.289 -1.56423 5.81219 0
M  V30 2244 H 226.115 0.221805 3.02889 0
M  V30 2245 H 223.7 0.174547 1.48377 0
M  V30 2246 H 225.582 -2.15898 3.61892 0
M  V30 2247 H 224.257 -2.14633 2.42311 0
M  V30 2248 H 223.164 -0.235157 3.7336 0
M  V30 2249 H 224.497 -0.32904 4.91099 0
M  V30 2250 N 226.149 -1.5696 0.141893 0
M  V30 2251 C 227.395 -1.9625 -0.511248 0
M  V30 2252 C 227.728 -1.02654 -1.64851 0
M  V30 2253 O 227.003 -0.0679676 -1.94381 0
M  V30 2254 C 227.286 -3.45285 -1.02227 0
M  V30 2255 C 227.139 -4.49658 0.113138 0
M  V30 2256 C 228.458 -3.96698 -1.90574 0
M  V30 2257 H 225.577 -0.713567 -0.184367 0
M  V30 2258 H 228.219 -1.88698 0.222087 0
M  V30 2259 H 226.369 -3.51852 -1.64719 0
M  V30 2260 H 228.041 -4.55174 0.749302 0
M  V30 2261 H 226.284 -4.26857 0.773026 0
M  V30 2262 H 226.955 -5.51258 -0.286053 0
M  V30 2263 H 229.431 -3.92578 -1.37918 0
M  V30 2264 H 228.307 -5.01453 -2.2324 0
M  V30 2265 H 228.568 -3.3875 -2.84079 0
M  V30 2266 N 227.627 0.131896 -1.57047 0
M  V30 2267 C 228.559 1.1878 -1.9602 0
M  V30 2268 C 229.572 1.38363 -0.857875 0
M  V30 2269 O 230.761 1.37666 -1.13623 0
M  V30 2270 C 227.861 2.55008 -2.23213 0
M  V30 2271 C 227.034 2.56201 -3.54513 0
M  V30 2272 C 226.093 3.7408 -3.70069 0
M  V30 2273 O 225.119 3.58258 -4.42312 0
M  V30 2274 N 226.321 4.92137 -3.07866 0
M  V30 2275 H 229.086 0.85639 -2.87204 0
M  V30 2276 H 226.647 0.321309 -1.5868 0
M  V30 2277 H 228.639 3.32404 -2.30846 0
M  V30 2278 H 227.209 2.80382 -1.3822 0
M  V30 2279 H 226.429 1.64613 -3.58185 0
M  V30 2280 H 227.717 2.54043 -4.4084 0
M  V30 2281 H 227.115 5.07895 -2.49116 0
M  V30 2282 H 225.672 5.67254 -3.21039 0
M  V30 2283 N 229.106 1.52395 0.401703 0
M  V30 2284 C 230.383 1.57387 1.16141 0
M  V30 2285 C 230.763 0.359359 2.08019 0
M  V30 2286 O 230.111 -0.65326 2.18963 0
M  V30 2287 C 230.321 2.90631 1.93221 0
M  V30 2288 C 231.669 3.43904 2.49028 0
M  V30 2289 O 232.693 2.92421 2.03393 0
M  V30 2290 O 231.552 4.33823 3.32356 0
M  V30 2291 H 228.646 0.634262 0.530698 0
M  V30 2292 H 231.192 1.64725 0.407883 0
M  V30 2293 H 229.964 3.70473 1.25958 0
M  V30 2294 H 229.587 2.8662 2.75563 0
M  V30 2295 N 230.584 -0.659388 1.43143 0
M  V30 2296 C 231.832 -1.41654 1.44147 0
M  V30 2297 C 232.153 -1.94893 0.0645739 0
M  V30 2298 O 231.423 -1.74044 -0.899198 0
M  V30 2299 H 230.003 -0.525708 0.530697 0
M  V30 2300 H 232.665 -0.778097 1.78694 0
M  V30 2301 H 231.761 -2.26195 2.1504 0
M  V30 2302 N 232.062 -1.29571 -0.897171 0
M  V30 2303 C 233.473 -1.15964 -1.46319 0
M  V30 2304 C 233.824 0.244267 -1.94674 0
M  V30 2305 O 232.949 1.13998 -1.83939 0
M  V30 2306 C 233.544 -2.09906 -2.65942 0
M  V30 2307 C 232.103 -2.00314 -3.18671 0
M  V30 2308 C 231.25 -2.00687 -1.91363 0
M  V30 2309 H 234.201 -1.42019 -0.708268 0
M  V30 2310 H 234.222 -1.67276 -3.41759 0
M  V30 2311 H 233.734 -3.12075 -2.30718 0
M  V30 2312 H 231.835 -1.01242 -3.58582 0
M  V30 2313 H 231.948 -2.88102 -3.82798 0
M  V30 2314 H 230.312 -1.45319 -2.09175 0
M  V30 2315 H 231.095 -3.04566 -1.58413 0
M  V30 2316 N 233.54 1.10788 -1.12088 0
M  V30 2317 C 234.488 2.19111 -0.780587 0
M  V30 2318 C 235.482 1.67818 0.230961 0
M  V30 2319 O 236.688 1.79777 0.0895427 0
M  V30 2320 H 233.063 0.714477 -0.234578 0
M  V30 2321 H 235.034 2.45055 -1.70266 0
M  V30 2322 C 233.783 3.46818 -0.24747 0
M  V30 2323 H 233.106 3.86646 -1.01712 0
M  V30 2324 H 234.546 4.23973 -0.0476291 0
M  V30 2325 C 233.005 3.20968 1.02378 0
M  V30 2326 O 233.535 3.42298 2.10226 0
M  V30 2327 N 231.741 2.74658 0.949271 0
M  V30 2328 H 231.288 2.57501 0.0715173 0
M  V30 2329 H 231.246 2.57739 1.80049 0
M  V30 2330 N 235.018 0.912232 1.28515 0
M  V30 2331 C 235.928 0.404506 2.31086 0
M  V30 2332 C 236.944 -0.50707 1.66448 0
M  V30 2333 O 238.12 -0.393624 1.97516 0
M  V30 2334 C 235.185 -0.348572 3.44943 0
M  V30 2335 C 234.246 0.59604 4.25142 0
M  V30 2336 C 233.479 -0.121194 5.33562 0
M  V30 2337 O 233.702 -1.34317 5.5436 0
M  V30 2338 O 232.636 0.542716 5.99448 0
M  V30 2339 H 236.462 1.25579 2.76521 0
M  V30 2340 H 234.047 0.676998 1.33181 0
M  V30 2341 H 235.929 -0.77395 4.14232 0
M  V30 2342 H 234.604 -1.17571 3.01594 0
M  V30 2343 H 233.511 1.07079 3.58448 0
M  V30 2344 H 234.844 1.38995 4.72167 0
M  V30 2345 N 236.496 -1.42363 0.676048 0
M  V30 2346 C 237.773 -1.95183 0.127726 0
M  V30 2347 C 238.153 -1.61641 -1.35777 0
M  V30 2348 O 237.501 -0.913216 -2.09458 0
M  V30 2349 C 237.711 -3.46721 0.398199 0
M  V30 2350 C 239.059 -4.23427 0.315383 0
M  V30 2351 O 240.083 -3.54649 0.332016 0
M  V30 2352 O 238.942 -5.45888 0.25865 0
M  V30 2353 H 236.036 -0.826992 0.00359427 0
M  V30 2354 H 238.582 -1.52184 0.750864 0
M  V30 2355 H 237.354 -3.64344 1.4272 0
M  V30 2356 H 236.977 -3.96769 -0.256885 0
M  V30 2357 N 237.974 -0.419461 -1.51915 0
M  V30 2358 C 239.222 0.152637 -2.01523 0
M  V30 2359 C 239.543 1.44762 -1.30649 0
M  V30 2360 O 238.813 1.90997 -0.435535 0
M  V30 2361 H 237.393 0.0593966 -0.744635 0
M  V30 2362 H 240.055 -0.558073 -1.86739 0
M  V30 2363 H 239.151 0.341369 -3.10227 0
M  V30 2364 N 239.452 1.56882 -0.150215 0
M  V30 2365 C 240.362 2.20494 0.801222 0
M  V30 2366 C 241.378 1.19019 1.26927 0
M  V30 2367 O 242.554 1.51607 1.32579 0
M  V30 2368 C 239.619 2.81659 2.02161 0
M  V30 2369 C 238.68 3.9827 1.60249 0
M  V30 2370 C 237.913 4.56508 2.7647 0
M  V30 2371 O 238.136 4.13627 3.92771 0
M  V30 2372 O 237.07 5.46719 2.51757 0
M  V30 2373 H 240.896 3.02315 0.289717 0
M  V30 2374 H 238.481 1.49202 0.0769684 0
M  V30 2375 H 240.363 3.20522 2.73576 0
M  V30 2376 H 239.038 2.02849 2.52258 0
M  V30 2377 H 237.945 3.64117 0.858477 0
M  V30 2378 H 239.278 4.78609 1.14864 0
M  V30 2379 N 240.93 -0.123565 1.57115 0
M  V30 2380 C 241.863 -1.18202 1.95201 0
M  V30 2381 C 242.841 -1.40349 0.821031 0
M  V30 2382 O 244.025 -1.54578 1.07879 0
M  V30 2383 C 241.152 -2.53671 2.24429 0
M  V30 2384 C 240.198 -2.4798 3.46999 0
M  V30 2385 S 241.031 -1.92389 4.99747 0
M  V30 2386 C 242.187 -3.2954 5.32123 0
M  V30 2387 H 242.42 -0.857212 2.84674 0
M  V30 2388 H 239.953 -0.33014 1.50829 0
M  V30 2389 H 241.911 -3.3162 2.41947 0
M  V30 2390 H 240.572 -2.83332 1.35579 0
M  V30 2391 H 239.765 -3.47758 3.64801 0
M  V30 2392 H 239.367 -1.7815 3.28844 0
M  V30 2393 H 241.659 -4.25736 5.27025 0
M  V30 2394 H 242.602 -3.16569 6.33395 0
M  V30 2395 H 243.01 -3.27758 4.59603 0
M  V30 2396 N 242.408 -1.52605 -0.393616 0
M  V30 2397 C 243.655 -1.67424 -1.1391 0
M  V30 2398 C 243.983 -0.411859 -1.90089 0
M  V30 2399 O 243.238 0.605626 -1.86093 0
M  V30 2400 C 243.537 -2.85721 -2.14705 0
M  V30 2401 C 243.203 -4.23342 -1.55218 0
M  V30 2402 C 241.865 -4.60771 -1.3872 0
M  V30 2403 C 244.217 -5.09041 -1.11924 0
M  V30 2404 C 241.545 -5.81563 -0.774689 0
M  V30 2405 C 243.897 -6.30452 -0.520853 0
M  V30 2406 C 242.561 -6.66617 -0.343134 0
M  V30 2407 H 241.831 -0.612648 -0.416826 0
M  V30 2408 H 244.478 -1.8674 -0.424315 0
M  V30 2409 H 242.783 -2.60803 -2.92385 0
M  V30 2410 H 244.48 -2.94382 -2.72288 0
M  V30 2411 H 241.07 -3.93855 -1.69045 0
M  V30 2412 H 245.254 -4.80695 -1.23473 0
M  V30 2413 H 240.51 -6.08196 -0.625154 0
M  V30 2414 H 244.684 -6.96175 -0.177065 0
M  V30 2415 H 242.311 -7.60083 0.133571 0
M  V30 2416 N 243.887 0.651787 -1.4349 0
M  V30 2417 C 244.82 1.77668 -1.43211 0
M  V30 2418 C 245.798 1.59931 -0.29338 0
M  V30 2419 O 246.982 1.82095 -0.487191 0
M  V30 2420 C 244.109 3.14986 -1.24505 0
M  V30 2421 C 243.155 3.51421 -2.41673 0
M  V30 2422 S 243.988 3.51234 -4.04222 0
M  V30 2423 C 245.144 4.91206 -3.87902 0
M  V30 2424 H 245.377 1.77635 -2.38397 0
M  V30 2425 H 242.91 0.824558 -1.30539 0
M  V30 2426 H 244.868 3.94237 -1.144 0
M  V30 2427 H 243.529 3.1258 -0.308651 0
M  V30 2428 H 242.722 4.51291 -2.24393 0
M  V30 2429 H 242.324 2.79585 -2.48411 0
M  V30 2430 H 244.616 5.79902 -3.50315 0
M  V30 2431 H 245.559 5.13537 -4.8753 0
M  V30 2432 H 245.967 4.64808 -3.20334 0
M  V30 2433 N 245.365 1.30045 0.890287 0
M  V30 2434 C 246.781 1.08261 1.17268 0
M  V30 2435 C 246.981 -0.160063 2.00863 0
M  V30 2436 O 246.037 -0.855181 2.37577 0
M  V30 2437 C 247.35 2.34323 1.8845 0
M  V30 2438 C 248.898 2.39735 2.01237 0
M  V30 2439 C 249.373 3.65625 2.7583 0
M  V30 2440 N 250.864 3.66402 2.83379 0
M  V30 2441 C 251.599 4.60498 3.41657 0
M  V30 2442 N 251.095 5.64933 4.01026 0
M  V30 2443 N 252.888 4.48051 3.39421 0
M  V30 2444 H 245.039 2.09777 0.332762 0
M  V30 2445 H 247.302 0.92446 0.209948 0
M  V30 2446 H 247.008 3.2498 1.34465 0
M  V30 2447 H 246.882 2.4256 2.88867 0
M  V30 2448 H 249.269 1.4956 2.54393 0
M  V30 2449 H 249.35 2.35476 0.999232 0
M  V30 2450 H 248.994 4.56156 2.23347 0
M  V30 2451 H 248.924 3.67144 3.77509 0
M  V30 2452 H 251.415 2.90896 2.41222 0
M  V30 2453 H 251.728 6.32841 4.43545 0
M  V30 2454 H 250.073 5.68732 3.99461 0
M  V30 2455 H 253.264 3.65649 2.92264 0
M  V30 2456 H 253.437 5.21565 3.84544 0
M  V30 2457 N 246.843 -1.10192 1.12674 0
M  V30 2458 C 248.254 -1.63707 0.897604 0
M  V30 2459 C 248.605 -1.87812 -0.567546 0
M  V30 2460 O 247.73 -1.62196 -1.43253 0
M  V30 2461 C 248.325 -2.974 1.62292 0
M  V30 2462 C 246.884 -3.47772 1.43986 0
M  V30 2463 C 246.031 -2.22332 1.65722 0
M  V30 2464 H 248.982 -0.936587 1.28116 0
M  V30 2465 H 249.003 -3.64986 1.07541 0
M  V30 2466 H 248.515 -2.79824 2.68924 0
M  V30 2467 H 246.616 -3.70487 0.396206 0
M  V30 2468 H 246.729 -4.25723 2.19765 0
M  V30 2469 H 245.093 -2.30599 1.08149 0
M  V30 2470 H 245.876 -2.07285 2.73657 0
M  V30 2471 N 248.321 -0.919034 -1.28029 0
M  V30 2472 C 249.569 -0.553838 -1.94363 0
M  V30 2473 C 249.89 0.906357 -1.72656 0
M  V30 2474 O 249.16 1.64143 -1.0693 0
M  V30 2475 H 247.74 -0.201834 -0.719216 0
M  V30 2476 H 250.402 -1.16954 -1.55909 0
M  V30 2477 H 249.498 -0.752758 -3.02886 0
M  V30 2478 N 249.799 1.42003 -0.683588 0
M  V30 2479 C 250.746 2.30798 -0.0107309 0
M  V30 2480 C 251.716 1.4645 0.783688 0
M  V30 2481 O 252.901 1.75263 0.754156 0
M  V30 2482 C 250.041 3.3238 0.928306 0
M  V30 2483 C 249.154 4.31814 0.126776 0
M  V30 2484 C 248.289 5.20468 1.06236 0
M  V30 2485 C 247.328 6.11577 0.253035 0
M  V30 2486 N 246.465 6.92754 1.14179 0
M  V30 2487 H 251.305 2.8778 -0.773727 0
M  V30 2488 H 248.842 1.41745 -0.393283 0
M  V30 2489 H 250.8 3.89813 1.48666 0
M  V30 2490 H 249.43 2.76976 1.65783 0
M  V30 2491 H 248.482 3.76427 -0.54833 0
M  V30 2492 H 249.794 4.96276 -0.501192 0
M  V30 2493 H 248.948 5.82677 1.69035 0
M  V30 2494 H 247.687 4.56204 1.7242 0
M  V30 2495 H 246.692 5.48428 -0.388108 0
M  V30 2496 H 247.917 6.77892 -0.404839 0
M  V30 2497 H 245.863 6.3111 1.78987 0
M  V30 2498 H 245.78 7.53855 0.569111 0
M  V30 2499 H 247.048 7.59441 1.75697 0
M  V30 2500 N 251.277 0.427512 1.51691 0
M  V30 2501 C 252.207 -0.3796 2.30394 0
M  V30 2502 C 253.188 -1.02982 1.35384 0
M  V30 2503 O 254.373 -1.03534 1.643 0
M  V30 2504 C 251.503 -1.48649 3.1388 0
M  V30 2505 C 250.457 -0.960294 4.17088 0
M  V30 2506 C 249.783 -2.16219 4.89033 0
M  V30 2507 C 251.083 -0.00153679 5.223 0
M  V30 2508 H 252.777 0.277164 2.98114 0
M  V30 2509 H 250.323 0.134739 1.43368 0
M  V30 2510 H 252.276 -2.05826 3.67714 0
M  V30 2511 H 251 -2.1714 2.43962 0
M  V30 2512 H 249.659 -0.410806 3.64291 0
M  V30 2513 H 249.307 -2.83307 4.15628 0
M  V30 2514 H 249.007 -1.81654 5.58816 0
M  V30 2515 H 250.531 -2.73968 5.45687 0
M  V30 2516 H 251.945 -0.482687 5.71264 0
M  V30 2517 H 250.342 0.256199 5.99553 0
M  V30 2518 H 251.412 0.938174 4.75738 0
M  V30 2519 N 252.755 -1.56801 0.158532 0
M  V30 2520 C 254.002 -1.9649 -0.489679 0
M  V30 2521 C 254.33 -1.04394 -1.6411 0
M  V30 2522 O 253.585 -0.0754401 -1.95555 0
M  V30 2523 C 253.884 -3.4235 -1.02623 0
M  V30 2524 C 253.55 -4.50899 0.00794526 0
M  V30 2525 C 252.212 -4.80312 0.292207 0
M  V30 2526 C 254.564 -5.16333 0.710584 0
M  V30 2527 C 251.892 -5.72461 1.28472 0
M  V30 2528 C 254.244 -6.09553 1.69199 0
M  V30 2529 C 252.908 -6.37339 1.98383 0
M  V30 2530 H 252.178 -0.719009 -0.179186 0
M  V30 2531 H 254.825 -1.8989 0.247798 0
M  V30 2532 H 253.13 -3.45838 -1.84128 0
M  V30 2533 H 254.827 -3.70393 -1.53656 0
M  V30 2534 H 251.417 -4.28015 -0.22379 0
M  V30 2535 H 255.601 -4.93732 0.504174 0
M  V30 2536 H 250.857 -5.92278 1.51714 0
M  V30 2537 H 255.031 -6.59327 2.24189 0
M  V30 2538 H 252.658 -7.08546 2.7544 0
M  V30 2539 N 254.233 0.115231 -1.57178 0
M  V30 2540 C 255.51 0.852873 -1.76027 0
M  V30 2541 C 255.89 1.97892 -0.73498 0
M  V30 2542 O 255.238 2.27232 0.24036 0
M  V30 2543 C 255.448 1.36608 -3.21153 0
M  V30 2544 C 256.796 1.81692 -3.83762 0
M  V30 2545 O 257.82 1.46278 -3.24779 0
M  V30 2546 O 256.679 2.47104 -4.87444 0
M  V30 2547 H 253.773 0.405296 -0.720877 0
M  V30 2548 H 256.319 0.0986785 -1.69413 0
M  V30 2549 H 255.091 0.558357 -3.87296 0
M  V30 2550 H 254.714 2.18287 -3.3232 0
M  V30 2551 N 255.711 1.52812 0.385517 0
M  V30 2552 C 256.941 1.71658 1.14966 0
M  V30 2553 C 257.349 0.436253 1.84102 0
M  V30 2554 O 256.692 -0.599313 1.73649 0
M  V30 2555 C 256.754 2.81309 2.23843 0
M  V30 2556 C 256.418 4.22313 1.74644 0
M  V30 2557 C 257.415 5.05352 1.22129 0
M  V30 2558 C 255.1 4.68648 1.80761 0
M  V30 2559 C 257.094 6.32807 0.763838 0
M  V30 2560 C 254.781 5.96086 1.34627 0
M  V30 2561 C 255.779 6.77996 0.825264 0
M  V30 2562 O 255.467 8.03045 0.370669 0
M  V30 2563 H 255.199 0.578022 0.350523 0
M  V30 2564 H 257.753 2.00263 0.456509 0
M  V30 2565 H 255.983 2.48133 2.96592 0
M  V30 2566 H 257.672 2.88524 2.85497 0
M  V30 2567 H 258.438 4.70736 1.16758 0
M  V30 2568 H 254.317 4.04979 2.20256 0
M  V30 2569 H 257.861 6.96689 0.356494 0
M  V30 2570 H 253.758 6.30205 1.39686 0
M  V30 2571 H 254.526 8.17021 0.491829 0
M  V30 2572 N 257.189 -0.644168 1.43834 0
M  V30 2573 C 258.436 -1.40395 1.4593 0
M  V30 2574 C 258.764 -1.94305 0.0869658 0
M  V30 2575 O 258.019 -1.73288 -0.909378 0
M  V30 2576 C 258.318 -2.59615 2.45631 0
M  V30 2577 C 257.984 -2.2407 3.91284 0
M  V30 2578 C 256.646 -2.14089 4.30952 0
M  V30 2579 C 258.998 -1.95775 4.83034 0
M  V30 2580 C 256.326 -1.73981 5.6031 0
M  V30 2581 C 258.678 -1.57163 6.12766 0
M  V30 2582 C 257.342 -1.45713 6.51402 0
M  V30 2583 H 256.612 -0.513741 0.533995 0
M  V30 2584 H 259.259 -0.731724 1.76969 0
M  V30 2585 H 257.564 -3.32011 2.08028 0
M  V30 2586 H 259.261 -3.17834 2.44504 0
M  V30 2587 H 255.851 -2.32753 3.59895 0
M  V30 2588 H 260.035 -2.02403 4.53152 0
M  V30 2589 H 255.291 -1.63709 5.89075 0
M  V30 2590 H 259.465 -1.34303 6.83327 0
M  V30 2591 H 257.092 -1.14406 7.51542 0
M  V30 2592 N 258.668 -1.30515 -0.883378 0
M  V30 2593 C 260.079 -1.17509 -1.45081 0
M  V30 2594 C 260.43 0.223605 -1.94922 0
M  V30 2595 O 259.555 1.12041 -1.85137 0
M  V30 2596 C 260.15 -2.12715 -2.63701 0
M  V30 2597 C 258.709 -2.03682 -3.16529 0
M  V30 2598 C 257.856 -2.02706 -1.89224 0
M  V30 2599 H 260.807 -1.42762 -0.693165 0
M  V30 2600 H 260.828 -1.70891 -3.39965 0
M  V30 2601 H 260.34 -3.14505 -2.27395 0
M  V30 2602 H 258.441 -1.05039 -3.57488 0
M  V30 2603 H 258.554 -2.92146 -3.7972 0
M  V30 2604 H 256.918 -1.4753 -2.07622 0
M  V30 2605 H 257.701 -3.06229 -1.55174 0
M  V30 2606 N 260.146 1.09593 -1.13257 0
M  V30 2607 C 261.093 2.1618 -0.808381 0
M  V30 2608 C 262.063 1.64517 0.228754 0
M  V30 2609 O 263.248 1.9053 0.101381 0
M  V30 2610 C 260.388 3.43973 -0.278675 0
M  V30 2611 C 259.501 4.09545 -1.37466 0
M  V30 2612 C 258.636 5.25088 -0.803479 0
M  V30 2613 C 257.675 5.82579 -1.87799 0
M  V30 2614 N 256.812 6.89486 -1.32488 0
M  V30 2615 H 261.652 2.43254 -1.72138 0
M  V30 2616 H 259.189 1.19392 -0.859294 0
M  V30 2617 H 261.147 4.17174 0.0465583 0
M  V30 2618 H 259.777 3.17223 0.597459 0
M  V30 2619 H 258.829 3.34226 -1.81652 0
M  V30 2620 H 260.141 4.48307 -2.18684 0
M  V30 2621 H 259.295 6.05178 -0.429427 0
M  V30 2622 H 258.034 4.87684 0.0397956 0
M  V30 2623 H 257.039 5.01152 -2.26113 0
M  V30 2624 H 258.264 6.22045 -2.72463 0
M  V30 2625 H 256.21 6.54064 -0.503575 0
M  V30 2626 H 256.127 7.27007 -2.07355 0
M  V30 2627 H 257.395 7.73336 -0.978336 0
M  V30 2628 N 261.624 0.925811 1.2754 0
M  V30 2629 C 263.035 0.610102 1.7645 0
M  V30 2630 C 263.386 -0.874723 1.75622 0
M  V30 2631 O 262.511 -1.68444 1.35851 0
M  V30 2632 C 263.106 1.10073 3.20421 0
M  V30 2633 C 261.665 0.835723 3.67005 0
M  V30 2634 C 260.812 1.26054 2.46993 0
M  V30 2635 H 263.763 1.10579 1.13833 0
M  V30 2636 H 263.784 0.447557 3.77859 0
M  V30 2637 H 263.296 2.18143 3.20991 0
M  V30 2638 H 261.397 -0.231249 3.71882 0
M  V30 2639 H 261.51 1.45193 4.56569 0
M  V30 2640 H 259.874 0.679111 2.45479 0
M  V30 2641 H 260.657 2.34984 2.50275 0
M  V30 2642 N 263.102 -1.41638 0.69111 0
M  V30 2643 C 264.332 -2.0533 0.228758 0
M  V30 2644 C 264.74 -1.52089 -1.12541 0
M  V30 2645 O 264.083 -0.662145 -1.71351 0
M  V30 2646 C 264.145 -3.59349 0.10407 0
M  V30 2647 C 263.809 -4.35362 1.38956 0
M  V30 2648 C 264.806 -4.64942 2.32648 0
M  V30 2649 C 262.491 -4.74714 1.64169 0
M  V30 2650 C 264.485 -5.32828 3.49818 0
M  V30 2651 C 262.172 -5.42338 2.81625 0
M  V30 2652 C 263.17 -5.71322 3.74273 0
M  V30 2653 O 262.858 -6.37554 4.89673 0
M  V30 2654 H 262.59 -0.667796 0.104997 0
M  V30 2655 H 265.144 -1.82477 0.942938 0
M  V30 2656 H 263.374 -3.80924 -0.665839 0
M  V30 2657 H 265.063 -4.04633 -0.320519 0
M  V30 2658 H 265.829 -4.35025 2.14425 0
M  V30 2659 H 261.708 -4.51538 0.929202 0
M  V30 2660 H 265.252 -5.55368 4.22152 0
M  V30 2661 H 261.149 -5.71673 2.99768 0
M  V30 2662 H 261.917 -6.56049 4.8943 0
M  V30 2663 N 264.58 -0.43555 -1.51462 0
M  V30 2664 C 265.991 0.0279871 -1.86679 0
M  V30 2665 C 266.342 1.42104 -1.35281 0
M  V30 2666 O 265.467 2.04667 -0.702878 0
M  V30 2667 C 266.062 0.0575626 -3.38751 0
M  V30 2668 C 264.621 0.465507 -3.7351 0
M  V30 2669 C 263.768 -0.342996 -2.75171 0
M  V30 2670 H 266.719 -0.651473 -1.44712 0
M  V30 2671 H 266.74 0.867421 -3.70481 0
M  V30 2672 H 266.252 -0.956448 -3.7613 0
M  V30 2673 H 264.353 1.48519 -3.41721 0
M  V30 2674 H 264.466 0.191546 -4.78717 0
M  V30 2675 H 262.83 0.198442 -2.53926 0
M  V30 2676 H 263.613 -1.35585 -3.15391 0
M  V30 2677 N 266.058 1.56714 -0.166846 0
M  V30 2678 C 267.006 2.19056 0.782123 0
M  V30 2679 C 268 1.15328 1.24079 0
M  V30 2680 O 269.206 1.33537 1.20697 0
M  V30 2681 H 265.581 0.70167 0.270486 0
M  V30 2682 H 267.552 2.97494 0.232322 0
M  V30 2683 C 266.301 2.84206 2.00306 0
M  V30 2684 H 265.624 3.63748 1.65914 0
M  V30 2685 H 267.064 3.31302 2.64604 0
M  V30 2686 C 265.523 1.83744 2.82382 0
M  V30 2687 O 266.053 1.32014 3.79388 0
M  V30 2688 N 264.259 1.52601 2.47308 0
M  V30 2689 H 263.806 1.9486 1.68485 0
M  V30 2690 H 263.764 0.856351 3.02513 0
M  V30 2691 N 267.536 -0.106894 1.57237 0
M  V30 2692 C 268.761 -0.830287 1.90055 0
M  V30 2693 C 269.186 -1.72064 0.75998 0
M  V30 2694 O 268.544 -1.78982 -0.288991 0
M  V30 2695 C 268.592 -1.6295 3.21683 0
M  V30 2696 O 267.696 -2.73748 3.08441 0
M  V30 2697 H 267.037 -0.228855 0.623315 0
M  V30 2698 H 269.567 -0.085658 2.04421 0
M  V30 2699 H 269.577 -2.01621 3.54701 0
M  V30 2700 H 268.252 -0.975989 4.04286 0
M  V30 2701 H 266.829 -2.38192 2.86913 0
M  V30 2702 N 269.014 -1.53014 -0.377408 0
M  V30 2703 C 269.924 -1.81557 -1.48574 0
M  V30 2704 C 270.94 -0.703102 -1.59162 0
M  V30 2705 O 272.116 -0.99192 -1.75279 0
M  V30 2706 C 269.181 -1.9889 -2.83978 0
M  V30 2707 C 268.242 -3.22801 -2.83016 0
M  V30 2708 C 267.475 -3.39298 -4.11962 0
M  V30 2709 O 267.698 -2.60345 -5.0752 0
M  V30 2710 O 266.632 -4.32604 -4.18494 0
M  V30 2711 H 270.458 -2.75695 -1.27382 0
M  V30 2712 H 268.043 -1.38248 -0.566373 0
M  V30 2713 H 269.925 -2.11931 -3.6423 0
M  V30 2714 H 268.6 -1.07942 -3.05172 0
M  V30 2715 H 267.507 -3.15193 -2.01505 0
M  V30 2716 H 268.84 -4.13632 -2.66775 0
M  V30 2717 N 270.492 0.636531 -1.44174 0
M  V30 2718 C 271.455 1.73063 -1.50273 0
M  V30 2719 C 272.455 1.56113 -0.385397 0
M  V30 2720 O 273.645 1.61707 -0.64781 0
M  V30 2721 C 270.777 3.12096 -1.37145 0
M  V30 2722 H 271.97 1.69031 -2.47727 0
M  V30 2723 H 269.523 0.849706 -1.31186 0
M  V30 2724 H 270.258 3.21728 -0.407636 0
M  V30 2725 H 270.043 3.25805 -2.18159 0
M  V30 2726 H 271.533 3.91846 -1.44382 0
M  V30 2727 N 271.97 1.30982 0.876444 0
M  V30 2728 C 272.933 1.18054 1.96459 0
M  V30 2729 C 273.933 0.109399 1.60427 0
M  V30 2730 O 275.123 0.358173 1.70478 0
M  V30 2731 C 272.255 0.810616 3.31122 0
M  V30 2732 H 273.448 2.14735 2.09354 0
M  V30 2733 H 271.001 1.145 1.06392 0
M  V30 2734 H 271.736 -0.155322 3.23928 0
M  V30 2735 H 271.521 1.58481 3.58645 0
M  V30 2736 H 273.011 0.743876 4.10921 0
M  V30 2737 N 273.449 -1.08991 1.13837 0
M  V30 2738 C 274.865 -1.33312 0.877506 0
M  V30 2739 C 275.065 -1.95587 -0.48456 0
M  V30 2740 O 274.121 -2.20509 -1.23013 0
M  V30 2741 C 275.434 -2.24045 2.0056 0
M  V30 2742 C 276.982 -2.37542 2.03821 0
M  V30 2743 C 277.457 -3.31614 3.15905 0
M  V30 2744 N 278.948 -3.39189 3.15445 0
M  V30 2745 C 279.683 -4.11992 3.98811 0
M  V30 2746 N 279.179 -4.87553 4.92203 0
M  V30 2747 N 280.972 -4.07762 3.86894 0
M  V30 2748 H 273.123 -0.669456 2.01574 0
M  V30 2749 H 275.386 -0.357482 0.878015 0
M  V30 2750 H 275.092 -1.85521 2.98789 0
M  V30 2751 H 274.966 -3.24466 1.92359 0
M  V30 2752 H 277.353 -2.75327 1.06202 0
M  V30 2753 H 277.434 -1.36884 2.16093 0
M  V30 2754 H 277.078 -2.94551 4.13766 0
M  V30 2755 H 277.008 -4.32186 3.0087 0
M  V30 2756 H 279.499 -2.85314 2.47799 0
M  V30 2757 H 279.812 -5.40549 5.52292 0
M  V30 2758 H 278.157 -4.86627 4.96205 0
M  V30 2759 H 281.348 -3.47833 3.13257 0
M  V30 2760 H 281.521 -4.64238 4.52092 0
M  V30 2761 N 274.927 -0.932562 -1.27047 0
M  V30 2762 C 275.89 -0.440064 -2.24936 0
M  V30 2763 C 276.89 0.444071 -1.54547 0
M  V30 2764 O 278.08 0.244465 -1.72476 0
M  V30 2765 C 275.212 0.36678 -3.38921 0
M  V30 2766 H 276.405 -1.305 -2.70018 0
M  V30 2767 H 273.958 -0.713707 -1.39054 0
M  V30 2768 H 274.693 1.25033 -2.99228 0
M  V30 2769 H 274.478 -0.267204 -3.91188 0
M  V30 2770 H 275.968 0.701567 -4.11665 0
M  V30 2771 N 276.405 1.4127 -0.698611 0
M  V30 2772 C 277.368 2.29158 -0.044132 0
M  V30 2773 C 278.368 1.44529 0.704841 0
M  V30 2774 O 279.558 1.65643 0.539276 0
M  V30 2775 C 276.69 3.27459 0.947809 0
M  V30 2776 H 277.883 2.88529 -0.817994 0
M  V30 2777 H 275.436 1.49307 -0.46228 0
M  V30 2778 H 276.171 2.73073 1.74933 0
M  V30 2779 H 275.956 3.8991 0.41385 0
M  V30 2780 H 277.446 3.93311 1.40344 0
M  V30 2781 N 277.883 0.443576 1.51229 0
M  V30 2782 C 278.831 -0.37904 2.29491 0
M  V30 2783 C 279.825 -1.0153 1.35603 0
M  V30 2784 O 281.031 -0.94955 1.52917 0
M  V30 2785 H 277.406 -0.141053 0.738653 0
M  V30 2786 H 279.377 0.301799 2.9687 0
M  V30 2787 C 278.126 -1.46426 3.15364 0
M  V30 2788 H 277.449 -0.984037 3.87501 0
M  V30 2789 H 278.889 -2.01297 3.7317 0
M  V30 2790 C 277.348 -2.45099 2.31146 0
M  V30 2791 O 277.878 -3.49773 1.9754 0
M  V30 2792 N 276.084 -2.16139 1.94249 0
M  V30 2793 H 275.631 -1.31044 2.21777 0
M  V30 2794 H 275.589 -2.82398 1.38198 0
M  V30 2795 N 279.361 -1.56624 0.175154 0
M  V30 2796 C 280.309 -2.19468 -0.770495 0
M  V30 2797 C 281.303 -1.15985 -1.23466 0
M  V30 2798 O 282.509 -1.34176 -1.19987 0
M  V30 2799 H 278.884 -0.703095 -0.266761 0
M  V30 2800 H 280.855 -2.97613 -0.216542 0
M  V30 2801 C 279.604 -2.85264 -1.98796 0
M  V30 2802 H 278.927 -3.64623 -1.63983 0
M  V30 2803 H 280.367 -3.327 -2.62843 0
M  V30 2804 C 278.826 -1.85239 -2.81404 0
M  V30 2805 O 279.356 -1.34024 -3.78682 0
M  V30 2806 N 277.562 -1.53911 -2.46495 0
M  V30 2807 H 277.109 -1.95751 -1.67449 0
M  V30 2808 H 277.067 -0.872382 -3.02054 0
M  V30 2809 N 280.839 0.0985539 -1.57292 0
M  V30 2810 C 282.087 0.801092 -1.85545 0
M  V30 2811 C 282.408 1.79438 -0.763353 0
M  V30 2812 O 281.678 1.94763 0.21073 0
M  V30 2813 H 280.258 0.29884 -0.684619 0
M  V30 2814 H 282.92 0.0810064 -1.94732 0
M  V30 2815 H 282.016 1.3338 -2.82163 0
M  V30 2816 N 282.317 1.53212 0.369288 0
M  V30 2817 C 283.28 1.7872 1.43498 0
M  V30 2818 C 284.28 0.657554 1.46741 0
M  V30 2819 O 285.47 0.925736 1.47566 0
M  V30 2820 C 282.602 1.90591 2.82645 0
M  V30 2821 H 283.795 2.73894 1.22156 0
M  V30 2822 H 281.348 1.44233 0.602203 0
M  V30 2823 H 282.083 0.974709 3.09306 0
M  V30 2824 H 281.868 2.72751 2.8169 0
M  V30 2825 H 283.358 2.11931 3.59826 0
M  V30 2826 N 283.795 -0.628877 1.44509 0
M  V30 2827 C 284.725 -1.75187 1.54376 0
M  V30 2828 C 285.706 -1.65411 0.396618 0
M  V30 2829 O 286.891 -1.84137 0.617031 0
M  V30 2830 C 284.021 -3.13725 1.48976 0
M  V30 2831 C 282.975 -3.38291 2.62189 0
M  V30 2832 C 282.301 -4.76883 2.41841 0
M  V30 2833 C 283.601 -3.30632 4.04326 0
M  V30 2834 H 285.295 -1.67187 2.48373 0
M  V30 2835 H 282.841 -0.802909 1.19538 0
M  V30 2836 H 284.794 -3.92064 1.54478 0
M  V30 2837 H 283.518 -3.22515 0.514961 0
M  V30 2838 H 282.177 -2.62334 2.56079 0
M  V30 2839 H 281.825 -4.82378 1.42548 0
M  V30 2840 H 281.525 -4.94278 3.17747 0
M  V30 2841 H 283.049 -5.57449 2.49165 0
M  V30 2842 H 284.463 -3.98873 4.11793 0
M  V30 2843 H 282.86 -3.59561 4.80454 0
M  V30 2844 H 283.93 -2.28404 4.27738 0
M  V30 2845 N 285.273 -1.31445 -0.869486 0
M  V30 2846 C 286.684 -1.19042 -1.43826 0
M  V30 2847 C 287.035 0.202919 -1.95148 0
M  V30 2848 O 286.16 1.10071 -1.86315 0
M  V30 2849 C 286.755 -2.15499 -2.6143 0
M  V30 2850 C 285.314 -2.07028 -3.14351 0
M  V30 2851 C 284.461 -2.04701 -1.87063 0
M  V30 2852 H 287.412 -1.43489 -0.677984 0
M  V30 2853 H 287.433 -1.74488 -3.38134 0
M  V30 2854 H 286.945 -3.16899 -2.24046 0
M  V30 2855 H 285.046 -1.08825 -3.56354 0
M  V30 2856 H 285.159 -2.96157 -3.766 0
M  V30 2857 H 283.523 -1.49724 -2.06046 0
M  V30 2858 H 284.306 -3.07857 -1.51917 0
M  V30 2859 N 286.751 1.08385 -1.14413 0
M  V30 2860 C 288.162 1.62258 -0.923535 0
M  V30 2861 C 288.513 1.88691 0.537595 0
M  V30 2862 O 287.638 1.64454 1.40655 0
M  V30 2863 C 288.233 2.94781 -1.67002 0
M  V30 2864 C 286.792 3.45437 -1.495 0
M  V30 2865 C 285.939 2.19668 -1.69238 0
M  V30 2866 H 288.89 0.916086 -1.2959 0
M  V30 2867 H 288.911 3.63229 -1.13334 0
M  V30 2868 H 288.423 2.7551 -2.73342 0
M  V30 2869 H 286.524 3.6981 -0.455097 0
M  V30 2870 H 286.637 4.22173 -2.2651 0
M  V30 2871 H 285.001 2.28849 -1.11804 0
M  V30 2872 H 285.784 2.02905 -2.7692 0
M  V30 2873 N 288.23 0.939286 1.26551 0
M  V30 2874 C 289.507 0.5038 1.89001 0
M  V30 2875 C 289.887 -1.01854 1.84903 0
M  V30 2876 O 289.235 -1.87773 1.30206 0
M  V30 2877 C 289.445 1.063 3.32417 0
M  V30 2878 C 290.793 1.13051 4.09273 0
M  V30 2879 O 291.817 1.01345 3.41479 0
M  V30 2880 O 290.676 1.31233 5.30509 0
M  V30 2881 H 287.77 0.163897 0.810597 0
M  V30 2882 H 290.316 1.03173 1.34735 0
M  V30 2883 H 289.088 2.10665 3.29752 0
M  V30 2884 H 288.711 0.517408 3.94219 0
M  V30 2885 N 289.708 -1.40897 0.706093 0
M  V30 2886 C 290.638 -2.33418 0.0620085 0
M  V30 2887 C 291.619 -1.52385 -0.755827 0
M  V30 2888 O 292.804 -1.80886 -0.706674 0
M  V30 2889 C 289.934 -3.36293 -0.867445 0
M  V30 2890 C 288.888 -4.27716 -0.155932 0
M  V30 2891 C 288.214 -5.2105 -1.20046 0
M  V30 2892 C 289.514 -5.12944 0.984149 0
M  V30 2893 H 291.208 -2.87527 0.83477 0
M  V30 2894 H 288.754 -1.38249 0.402875 0
M  V30 2895 H 290.707 -3.99949 -1.32735 0
M  V30 2896 H 289.431 -2.80556 -1.67199 0
M  V30 2897 H 288.09 -3.65498 0.284047 0
M  V30 2898 H 287.738 -4.61624 -1.99781 0
M  V30 2899 H 287.438 -5.83056 -0.729328 0
M  V30 2900 H 288.962 -5.87584 -1.66066 0
M  V30 2901 H 290.376 -5.70109 0.604048 0
M  V30 2902 H 288.773 -5.83945 1.38304 0
M  V30 2903 H 289.843 -4.49485 1.81911 0
M  V30 2904 N 291.186 -0.45159 -1.50991 0
M  V30 2905 C 292.411 0.110667 -2.07105 0
M  V30 2906 C 292.836 1.3446 -1.31538 0
M  V30 2907 O 292.194 1.77743 -0.357365 0
M  V30 2908 C 292.242 0.397238 -3.58405 0
M  V30 2909 O 291.346 1.48124 -3.84881 0
M  V30 2910 H 290.687 -0.00439271 -0.663985 0
M  V30 2911 H 293.217 -0.637026 -1.9443 0
M  V30 2912 H 293.227 0.64351 -4.02893 0
M  V30 2913 H 291.902 -0.504553 -4.12828 0
M  V30 2914 H 290.479 1.22381 -3.52246 0
M  V30 2915 N 292.664 1.56529 -0.183458 0
M  V30 2916 C 293.894 2.01331 0.463612 0
M  V30 2917 C 294.302 1.06278 1.5653 0
M  V30 2918 O 293.645 0.0577976 1.83609 0
M  V30 2919 C 293.707 3.42547 1.09096 0
M  V30 2920 C 293.371 4.56817 0.129442 0
M  V30 2921 C 294.368 5.15734 -0.656807 0
M  V30 2922 C 292.053 5.02295 0.02174 0
M  V30 2923 C 294.047 6.1857 -1.53784 0
M  V30 2924 C 291.734 6.04978 -0.862864 0
M  V30 2925 C 292.732 6.62988 -1.64123 0
M  V30 2926 O 292.42 7.63677 -2.51103 0
M  V30 2927 H 292.152 0.664917 0.121907 0
M  V30 2928 H 294.706 2.034 -0.285954 0
M  V30 2929 H 292.936 3.37428 1.88889 0
M  V30 2930 H 294.625 3.71228 1.64148 0
M  V30 2931 H 295.391 4.81473 -0.583839 0
M  V30 2932 H 291.27 4.56847 0.617392 0
M  V30 2933 H 294.814 6.63777 -2.14583 0
M  V30 2934 H 290.711 6.38663 -0.93699 0
M  V30 2935 H 291.479 7.81049 -2.44753 0
M  V30 2936 N 294.142 -0.090211 1.57342 0
M  V30 2937 C 295.391 -0.791531 1.8552 0
M  V30 2938 C 295.704 -1.79659 0.773441 0
M  V30 2939 O 296.91 -2.54616 0.942497 0
M  V30 2940 C 295.366 -1.45856 3.2902 0
M  V30 2941 C 294.974 -0.493017 4.45279 0
M  V30 2942 C 296.718 -2.14332 3.66418 0
M  V30 2943 C 294.625 -1.16491 5.79814 0
M  V30 2944 H 293.555 -0.299356 0.692027 0
M  V30 2945 H 296.206 -0.0445343 1.83446 0
M  V30 2946 H 294.588 -2.25318 3.2565 0
M  V30 2947 H 295.762 0.270464 4.60006 0
M  V30 2948 H 294.077 0.0863061 4.16311 0
M  V30 2949 H 296.674 -2.65344 4.64216 0
M  V30 2950 H 297.017 -2.93447 2.95287 0
M  V30 2951 H 297.55 -1.41724 3.71698 0
M  V30 2952 H 294.289 -0.41447 6.54188 0
M  V30 2953 H 293.809 -1.8997 5.68921 0
M  V30 2954 H 295.488 -1.69001 6.24538 0
M  V30 2955 N 295.62 -1.53406 -0.361157 0
M  V30 2956 C 296.866 -1.70054 -1.10496 0
M  V30 2957 C 297.199 -0.453278 -1.88836 0
M  V30 2958 O 296.474 0.5495 -1.86576 0
M  V30 2959 C 296.757 -2.95317 -2.06058 0
M  V30 2960 C 296.61 -4.3021 -1.31298 0
M  V30 2961 C 297.929 -3.16193 -3.06121 0
M  V30 2962 H 295.048 -0.618799 -0.400321 0
M  V30 2963 H 297.69 -1.86052 -0.385318 0
M  V30 2964 H 295.84 -2.81809 -2.67425 0
M  V30 2965 H 297.512 -4.55538 -0.726807 0
M  V30 2966 H 295.755 -4.29421 -0.614853 0
M  V30 2967 H 296.426 -5.14 -2.01265 0
M  V30 2968 H 298.902 -3.28916 -2.5486 0
M  V30 2969 H 297.778 -4.05266 -3.70204 0
M  V30 2970 H 298.039 -2.31676 -3.76535 0
M  V30 2971 N 297.098 0.621204 -1.44841 0
M  V30 2972 C 298.514 0.94048 -1.28946 0
M  V30 2973 C 298.714 2.00154 -0.23249 0
M  V30 2974 O 297.77 2.49651 0.378237 0
M  V30 2975 C 299.083 1.39433 -2.66419 0
M  V30 2976 C 300.631 1.50927 -2.74208 0
M  V30 2977 C 301.106 1.99692 -4.12174 0
M  V30 2978 N 302.597 2.06947 -4.144 0
M  V30 2979 C 303.332 2.45871 -5.1801 0
M  V30 2980 N 302.828 2.83862 -6.31977 0
M  V30 2981 N 304.621 2.46092 -5.05366 0
M  V30 2982 H 296.772 -0.0803548 -2.12248 0
M  V30 2983 H 299.035 0.0266913 -0.947624 0
M  V30 2984 H 298.741 0.688925 -3.44887 0
M  V30 2985 H 298.615 2.36347 -2.93973 0
M  V30 2986 H 301.002 2.20561 -1.96053 0
M  V30 2987 H 301.083 0.523627 -2.50383 0
M  V30 2988 H 300.727 1.30649 -4.90809 0
M  V30 2989 H 300.657 2.99146 -4.33381 0
M  V30 2990 H 303.148 1.80232 -3.32152 0
M  V30 2991 H 303.461 3.12405 -7.0684 0
M  V30 2992 H 301.806 2.8159 -6.35399 0
M  V30 2993 H 304.997 2.1581 -4.15384 0
M  V30 2994 H 305.17 2.76102 -5.86235 0
M  V30 2995 N 298.576 1.31904 0.862503 0
M  V30 2996 C 299.539 1.20131 1.95195 0
M  V30 2997 C 300.539 0.126409 1.60302 0
M  V30 2998 O 301.729 0.376234 1.70089 0
M  V30 2999 C 298.861 0.845691 3.30244 0
M  V30 3000 H 300.054 2.16943 2.07064 0
M  V30 3001 H 297.607 1.15622 1.05172 0
M  V30 3002 H 298.342 -0.120957 3.24074 0
M  V30 3003 H 298.127 1.62276 3.56944 0
M  V30 3004 H 299.617 0.787418 4.10109 0
M  V30 3005 N 300.054 -1.07777 1.14986 0
M  V30 3006 C 301.47 -1.32373 0.891596 0
M  V30 3007 C 301.67 -1.9609 -0.463788 0
M  V30 3008 O 300.726 -2.21801 -1.20667 0
M  V30 3009 C 302.039 -2.21905 2.02925 0
M  V30 3010 C 303.587 -2.35367 2.06329 0
M  V30 3011 C 304.062 -3.28245 3.19405 0
M  V30 3012 N 305.553 -3.35824 3.19024 0
M  V30 3013 C 306.288 -4.07739 4.03158 0
M  V30 3014 N 305.784 -4.82306 4.97346 0
M  V30 3015 N 307.577 -4.03635 3.91197 0
M  V30 3016 H 299.728 -0.648039 2.02273 0
M  V30 3017 H 301.991 -0.348149 0.881757 0
M  V30 3018 H 301.697 -1.82342 3.0074 0
M  V30 3019 H 301.571 -3.22407 1.95789 0
M  V30 3020 H 303.958 -2.74186 1.09116 0
M  V30 3021 H 304.039 -1.34585 2.17533 0
M  V30 3022 H 303.683 -2.90146 4.16867 0
M  V30 3023 H 303.613 -4.28971 3.05437 0
M  V30 3024 H 306.104 -2.8267 2.50811 0
M  V30 3025 H 306.417 -5.34661 5.57994 0
M  V30 3026 H 304.762 -4.81337 5.01338 0
M  V30 3027 H 307.953 -3.44491 3.16928 0
M  V30 3028 H 308.126 -4.59417 4.5699 0
M  V30 3029 N 301.532 -0.945985 -1.26051 0
M  V30 3030 C 302.482 -0.430164 -2.23905 0
M  V30 3031 C 303.466 0.47579 -1.53704 0
M  V30 3032 O 304.658 0.310252 -1.7426 0
M  V30 3033 C 301.787 0.298957 -3.41996 0
M  V30 3034 C 300.873 -0.624566 -4.19476 0
M  V30 3035 N 301.264 -1.75245 -4.74471 0
M  V30 3036 C 299.562 -0.431082 -4.43912 0
M  V30 3037 C 300.263 -2.32834 -5.3307 0
M  V30 3038 N 299.239 -1.61583 -5.1903 0
M  V30 3039 H 303.041 -1.29107 -2.64024 0
M  V30 3040 H 300.555 -0.802428 -1.41191 0
M  V30 3041 H 302.552 0.685565 -4.11225 0
M  V30 3042 H 301.212 1.15657 -3.03403 0
M  V30 3043 H 302.223 -2.13449 -4.71868 0
M  V30 3044 H 298.9 0.384364 -4.15727 0
M  V30 3045 H 300.29 -3.27893 -5.86461 0
M  V30 3046 N 303.011 1.40521 -0.713556 0
M  V30 3047 C 304.259 2.00527 -0.251692 0
M  V30 3048 C 304.58 1.56857 1.15848 0
M  V30 3049 O 303.85 0.807127 1.785 0
M  V30 3050 H 302.43 0.741551 -0.0900646 0
M  V30 3051 H 305.092 1.71887 -0.918733 0
M  V30 3052 H 304.188 3.10813 -0.283192 0
M  V30 3053 N 304.489 0.459591 1.5075 0
M  V30 3054 C 305.737 -0.0991532 2.01857 0
M  V30 3055 C 306.058 -1.41247 1.34441 0
M  V30 3056 O 305.328 -1.89775 0.486022 0
M  V30 3057 H 303.908 -0.039633 0.745948 0
M  V30 3058 H 306.57 0.607387 1.85194 0
M  V30 3059 H 305.666 -0.258998 3.11023 0
M  V30 3060 N 305.967 -1.56429 0.191757 0
M  V30 3061 C 306.877 -2.22541 -0.742481 0
M  V30 3062 C 307.893 -1.22342 -1.23727 0
M  V30 3063 O 309.069 -1.55069 -1.28513 0
M  V30 3064 C 306.134 -2.8692 -1.94623 0
M  V30 3065 C 305.195 -4.02378 -1.49633 0
M  V30 3066 C 304.428 -4.63678 -2.6427 0
M  V30 3067 O 304.651 -4.23895 -3.81666 0
M  V30 3068 O 303.585 -5.53202 -2.37174 0
M  V30 3069 H 307.411 -3.02977 -0.209462 0
M  V30 3070 H 304.996 -1.49353 -0.0373832 0
M  V30 3071 H 306.878 -3.27663 -2.64982 0
M  V30 3072 H 305.553 -2.09466 -2.46791 0
M  V30 3073 H 304.46 -3.66265 -0.761636 0
M  V30 3074 H 305.793 -4.81487 -1.02134 0
M  V30 3075 N 307.445 0.0818655 -1.57387 0
M  V30 3076 C 308.722 0.815343 -1.77796 0
M  V30 3077 C 309.102 1.96289 -0.77679 0
M  V30 3078 O 308.45 2.27691 0.192106 0
M  V30 3079 C 308.66 1.29765 -3.23978 0
M  V30 3080 C 310.008 1.7351 -3.8753 0
M  V30 3081 O 311.032 1.39356 -3.27808 0
M  V30 3082 O 309.891 2.36708 -4.92576 0
M  V30 3083 H 306.985 0.389914 -0.729312 0
M  V30 3084 H 309.531 0.0627213 -1.69584 0
M  V30 3085 H 308.303 0.47608 -3.88393 0
M  V30 3086 H 307.926 2.11189 -3.36875 0
M  V30 3087 N 308.923 1.53595 0.353017 0
M  V30 3088 C 310.153 1.74058 1.11299 0
M  V30 3089 C 310.561 0.475205 1.83135 0
M  V30 3090 O 309.904 -0.562344 1.74881 0
M  V30 3091 C 309.966 2.85994 2.17825 0
M  V30 3092 C 309.63 4.25923 1.65647 0
M  V30 3093 C 310.627 5.07829 1.11383 0
M  V30 3094 C 308.312 4.72377 1.7078 0
M  V30 3095 C 310.306 6.34285 0.629439 0
M  V30 3096 C 307.993 5.98808 1.21953 0
M  V30 3097 C 308.991 6.79594 0.681265 0
M  V30 3098 O 308.679 8.03651 0.200248 0
M  V30 3099 H 308.411 0.585327 0.338183 0
M  V30 3100 H 310.965 2.01186 0.413927 0
M  V30 3101 H 309.195 2.54368 2.91262 0
M  V30 3102 H 310.884 2.94515 2.79313 0
M  V30 3103 H 311.65 4.73107 1.06746 0
M  V30 3104 H 307.529 4.0956 2.11617 0
M  V30 3105 H 311.073 6.97288 0.208636 0
M  V30 3106 H 306.97 6.33026 1.26287 0
M  V30 3107 H 307.738 8.1788 0.318416 0
M  V30 3108 N 310.401 -0.613514 1.45168 0
M  V30 3109 C 311.647 -1.37471 1.49096 0
M  V30 3110 C 311.98 -1.93765 0.129901 0
M  V30 3111 O 311.255 -1.74707 -0.854858 0
M  V30 3112 C 311.538 -2.52701 2.56542 0
M  V30 3113 C 311.391 -2.01643 4.0207 0
M  V30 3114 C 312.71 -3.54849 2.60327 0
M  V30 3115 H 309.829 -0.498502 0.54283 0
M  V30 3116 H 312.471 -0.692125 1.76945 0
M  V30 3117 H 310.621 -3.10931 2.32926 0
M  V30 3118 H 312.293 -1.48108 4.36877 0
M  V30 3119 H 310.536 -1.32688 4.13009 0
M  V30 3120 H 311.207 -2.84681 4.72928 0
M  V30 3121 H 313.683 -3.0645 2.81474 0
M  V30 3122 H 312.559 -4.32973 3.37381 0
M  V30 3123 H 312.82 -4.10079 1.6519 0
M  V30 3124 N 311.879 -1.3236 -0.855495 0
M  V30 3125 C 313.126 -1.22872 -1.60962 0
M  V30 3126 C 313.454 0.209658 -1.93367 0
M  V30 3127 O 312.709 1.16243 -1.57436 0
M  V30 3128 C 313.008 -2.03275 -2.93963 0
M  V30 3129 C 312.674 -3.5264 -2.80991 0
M  V30 3130 C 311.336 -3.93364 -2.7716 0
M  V30 3131 C 313.688 -4.47626 -2.66983 0
M  V30 3132 C 311.016 -5.27319 -2.572 0
M  V30 3133 C 313.368 -5.81723 -2.48558 0
M  V30 3134 C 312.032 -6.2165 -2.4312 0
M  V30 3135 H 311.302 -0.44962 -0.589001 0
M  V30 3136 H 313.949 -1.63777 -0.992442 0
M  V30 3137 H 312.254 -1.55095 -3.59795 0
M  V30 3138 H 313.951 -1.93303 -3.51333 0
M  V30 3139 H 310.541 -3.20295 -2.84797 0
M  V30 3140 H 314.725 -4.17084 -2.68988 0
M  V30 3141 H 309.981 -5.57311 -2.51424 0
M  V30 3142 H 314.155 -6.5494 -2.36699 0
M  V30 3143 H 311.782 -7.25388 -2.27412 0
M  V30 3144 N 313.357 1.07166 -1.15556 0
M  V30 3145 C 314.582 1.84053 -0.955988 0
M  V30 3146 C 315.007 1.81586 0.490739 0
M  V30 3147 O 314.365 1.21018 1.34997 0
M  V30 3148 C 314.413 3.28957 -1.47714 0
M  V30 3149 O 313.517 4.06795 -0.677593 0
M  V30 3150 H 312.858 0.569842 -0.340847 0
M  V30 3151 H 315.388 1.35178 -1.53584 0
M  V30 3152 H 315.398 3.79788 -1.4908 0
M  V30 3153 H 314.073 3.30068 -2.53037 0
M  V30 3154 H 312.65 3.6561 -0.733721 0
M  V30 3155 N 314.835 0.952656 1.25548 0
M  V30 3156 C 315.765 0.489287 2.28316 0
M  V30 3157 C 316.746 -0.463359 1.63667 0
M  V30 3158 O 317.931 -0.36274 1.90782 0
M  V30 3159 C 315.061 -0.235603 3.465 0
M  V30 3160 C 314.015 0.631593 4.23314 0
M  V30 3161 C 313.341 -0.223923 5.34231 0
M  V30 3162 C 314.641 1.90871 4.86174 0
M  V30 3163 H 316.335 1.34822 2.67326 0
M  V30 3164 H 313.881 0.649728 1.28509 0
M  V30 3165 H 315.834 -0.570882 4.17515 0
M  V30 3166 H 314.558 -1.12877 3.06474 0
M  V30 3167 H 313.217 0.949929 3.54079 0
M  V30 3168 H 312.865 -1.11678 4.90446 0
M  V30 3169 H 312.565 0.35299 5.86539 0
M  V30 3170 H 314.089 -0.554214 6.0808 0
M  V30 3171 H 315.503 1.63997 5.49343 0
M  V30 3172 H 313.9 2.43112 5.4865 0
M  V30 3173 H 314.97 2.61304 4.08471 0
M  V30 3174 N 316.313 -1.40141 0.720998 0
M  V30 3175 C 317.243 -2.33339 0.0867621 0
M  V30 3176 C 318.224 -1.53178 -0.739622 0
M  V30 3177 O 319.409 -1.81625 -0.687449 0
M  V30 3178 C 316.539 -3.37194 -0.831728 0
M  V30 3179 C 315.493 -4.27857 -0.110558 0
M  V30 3180 C 314.819 -5.22294 -1.14513 0
M  V30 3181 C 316.119 -5.11872 1.0385 0
M  V30 3182 H 317.813 -2.86626 0.865219 0
M  V30 3183 H 315.359 -1.37814 0.417516 0
M  V30 3184 H 317.312 -4.01335 -1.28485 0
M  V30 3185 H 316.036 -2.82314 -1.64214 0
M  V30 3186 H 314.695 -3.65176 0.322797 0
M  V30 3187 H 314.343 -4.63717 -1.94874 0
M  V30 3188 H 314.043 -5.83797 -0.667446 0
M  V30 3189 H 315.567 -5.89312 -1.59824 0
M  V30 3190 H 316.981 -5.69436 0.664482 0
M  V30 3191 H 315.378 -5.82445 1.4449 0
M  V30 3192 H 316.448 -4.4753 1.86668 0
M  V30 3193 N 317.792 -0.46758 -1.50504 0
M  V30 3194 C 319.02 0.0864133 -2.06719 0
M  V30 3195 C 319.435 1.33819 -1.33184 0
M  V30 3196 O 318.792 1.78061 -0.400083 0
M  V30 3197 C 318.843 0.378079 -3.59517 0
M  V30 3198 O 318.564 -0.824044 -4.3028 0
M  V30 3199 C 320.065 0.979426 -4.32345 0
M  V30 3200 H 317.285 -0.00551697 -0.670977 0
M  V30 3201 H 319.829 -0.655354 -1.93715 0
M  V30 3202 H 317.984 1.06977 -3.72337 0
M  V30 3203 H 318.398 -0.566518 -5.21432 0
M  V30 3204 H 319.872 1.1333 -5.40241 0
M  V30 3205 H 320.349 1.9686 -3.9261 0
M  V30 3206 H 320.955 0.326216 -4.24047 0
M  V30 3207 N 319.27 1.56325 -0.20005 0
M  V30 3208 C 320.518 1.97329 0.436547 0
M  V30 3209 C 320.839 1.08826 1.61808 0
M  V30 3210 O 320.109 0.160604 1.95241 0
M  V30 3211 H 318.689 0.728714 0.164272 0
M  V30 3212 H 321.351 1.92761 -0.287937 0
M  V30 3213 H 320.447 3.02264 0.777353 0
M  V30 3214 N 320.748 -0.0735177 1.57428 0
M  V30 3215 C 321.978 -0.78483 1.91112 0
M  V30 3216 C 322.386 -1.71729 0.7941 0
M  V30 3217 O 321.729 -1.82105 -0.241542 0
M  V30 3218 C 321.791 -1.63346 3.20247 0
M  V30 3219 C 321.455 -0.870557 4.48632 0
M  V30 3220 C 322.452 -0.19058 5.19551 0
M  V30 3221 C 320.137 -0.838242 4.95256 0
M  V30 3222 C 322.131 0.511503 6.35344 0
M  V30 3223 C 319.818 -0.132386 6.10957 0
M  V30 3224 C 320.816 0.541288 6.80852 0
M  V30 3225 O 320.504 1.23578 7.94345 0
M  V30 3226 H 320.236 -0.228408 0.636244 0
M  V30 3227 H 322.79 -0.0486039 2.05342 0
M  V30 3228 H 321.02 -2.41245 3.02222 0
M  V30 3229 H 322.709 -2.22329 3.39595 0
M  V30 3230 H 323.475 -0.206864 4.84559 0
M  V30 3231 H 319.354 -1.35206 4.40727 0
M  V30 3232 H 322.898 1.03789 6.89836 0
M  V30 3233 H 318.795 -0.114023 6.45399 0
M  V30 3234 H 319.563 1.14487 8.10454 0
M  V30 3235 N 322.226 -1.5378 -0.344866 0
M  V30 3236 C 323.466 -1.72677 -1.09371 0
M  V30 3237 C 323.83 -0.479084 -1.85927 0
M  V30 3238 O 325.031 -0.54505 -2.63216 0
M  V30 3239 C 323.302 -2.95457 -2.01097 0
M  V30 3240 S 324.861 -3.35158 -2.83222 0
M  V30 3241 H 321.679 -0.607402 -0.369573 0
M  V30 3242 H 324.281 -1.91922 -0.372307 0
M  V30 3243 H 322.985 -3.84437 -1.43655 0
M  V30 3244 H 322.516 -2.78673 -2.77678 0
M  V30 3245 H 324.531 -2.88789 -4.03504 0
M  V30 3246 N 323.704 0.605807 -1.45491 0
M  V30 3247 C 324.614 1.74466 -1.56839 0
M  V30 3248 C 325.63 1.68006 -0.452772 0
M  V30 3249 O 326.806 1.8833 -0.713708 0
M  V30 3250 C 323.871 3.10931 -1.53371 0
M  V30 3251 C 322.932 3.28832 -2.75986 0
M  V30 3252 C 322.165 4.58787 -2.72673 0
M  V30 3253 O 322.388 5.4122 -1.80102 0
M  V30 3254 O 321.322 4.79438 -3.63899 0
M  V30 3255 H 325.148 1.67843 -2.53106 0
M  V30 3256 H 322.733 0.770108 -1.28022 0
M  V30 3257 H 324.615 3.92233 -1.54051 0
M  V30 3258 H 323.29 3.18042 -0.602572 0
M  V30 3259 H 322.197 2.47112 -2.80867 0
M  V30 3260 H 323.53 3.26599 -3.68231 0
M  V30 3261 N 325.182 1.32811 0.848464 0
M  V30 3262 C 326.593 1.21315 1.41914 0
M  V30 3263 C 326.944 -0.171847 1.95446 0
M  V30 3264 O 326.069 -1.07093 1.88043 0
M  V30 3265 C 326.664 2.19631 2.57968 0
M  V30 3266 C 325.223 2.12003 3.11017 0
M  V30 3267 C 324.37 2.07651 1.83783 0
M  V30 3268 H 327.321 1.44549 0.655071 0
M  V30 3269 H 327.342 1.79845 3.35315 0
M  V30 3270 H 326.854 3.20423 2.18976 0
M  V30 3271 H 324.955 1.14481 3.54577 0
M  V30 3272 H 325.068 3.02111 3.71841 0
M  V30 3273 H 323.432 1.52983 2.03638 0
M  V30 3274 H 324.215 3.10235 1.47 0
M  V30 3275 N 326.66 -1.06551 1.16123 0
M  V30 3276 C 328.071 -1.60768 0.949232 0
M  V30 3277 C 328.422 -1.89523 -0.507508 0
M  V30 3278 O 327.547 -1.66671 -1.38021 0
M  V30 3279 C 328.142 -2.92086 1.71671 0
M  V30 3280 C 326.701 -3.43015 1.54977 0
M  V30 3281 C 325.848 -2.16947 1.72711 0
M  V30 3282 H 328.799 -0.895354 1.31031 0
M  V30 3283 H 328.82 -3.6138 1.19099 0
M  V30 3284 H 328.332 -2.71127 2.7769 0
M  V30 3285 H 326.433 -3.69039 0.513873 0
M  V30 3286 H 326.546 -4.18516 2.33198 0
M  V30 3287 H 324.91 -2.27041 1.15431 0
M  V30 3288 H 325.693 -1.98473 2.80113 0
M  V30 3289 N 328.138 -0.959301 -1.25041 0
M  V30 3290 C 329.366 -0.633949 -1.96948 0
M  V30 3291 C 329.781 0.794916 -1.7125 0
M  V30 3292 O 329.138 1.53231 -0.991287 0
M  V30 3293 C 329.189 -0.888805 -3.50403 0
M  V30 3294 O 328.91 -2.26149 -3.75218 0
M  V30 3295 C 330.411 -0.576482 -4.39536 0
M  V30 3296 H 327.631 -0.237263 -0.627652 0
M  V30 3297 H 330.175 -1.28495 -1.59089 0
M  V30 3298 H 328.33 -0.284145 -3.86357 0
M  V30 3299 H 328.744 -2.33514 -4.6965 0
M  V30 3300 H 330.218 -0.805314 -5.46094 0
M  V30 3301 H 330.695 0.489075 -4.36468 0
M  V30 3302 H 331.301 -1.16067 -4.09156 0
M  V30 3303 N 329.616 1.39756 -0.72842 0
M  V30 3304 C 330.864 2.00248 -0.272946 0
M  V30 3305 C 331.185 1.58077 1.14178 0
M  V30 3306 O 330.455 0.826014 1.77634 0
M  V30 3307 H 329.035 0.740554 -0.0979247 0
M  V30 3308 H 331.697 1.70903 -0.936912 0
M  V30 3309 H 330.793 3.10495 -0.316142 0
M  V30 3310 N 331.094 0.475555 1.50254 0
M  V30 3311 C 332.34 -0.0780073 2.0265 0
M  V30 3312 C 332.673 -1.38968 1.35652 0
M  V30 3313 O 331.948 -1.8839 0.483691 0
M  V30 3314 C 332.231 -0.257161 3.59181 0
M  V30 3315 C 332.084 1.07585 4.36744 0
M  V30 3316 C 333.403 -1.00965 4.28362 0
M  V30 3317 H 330.522 -0.0268758 0.73651 0
M  V30 3318 H 333.164 0.622015 1.7953 0
M  V30 3319 H 331.314 -0.853412 3.79011 0
M  V30 3320 H 332.986 1.70902 4.28474 0
M  V30 3321 H 331.229 1.6714 4.00308 0
M  V30 3322 H 331.9 0.904088 5.44546 0
M  V30 3323 H 334.376 -0.504214 4.13034 0
M  V30 3324 H 333.252 -1.10381 5.37687 0
M  V30 3325 H 333.513 -2.04731 3.91839 0
M  V30 3326 N 332.573 -1.56217 0.208337 0
M  V30 3327 C 333.798 -2.02782 -0.435222 0
M  V30 3328 C 334.223 -1.08738 -1.53485 0
M  V30 3329 O 333.581 -0.0731855 -1.81152 0
M  V30 3330 C 333.629 -3.47687 -0.956335 0
M  V30 3331 O 332.733 -3.56773 -2.06849 0
M  V30 3332 H 332.074 -0.656403 -0.100158 0
M  V30 3333 H 334.604 -2.02033 0.3231 0
M  V30 3334 H 334.614 -3.87745 -1.26955 0
M  V30 3335 H 333.289 -4.15624 -0.15143 0
M  V30 3336 H 331.866 -3.28597 -1.76292 0
M  V30 3337 N 334.051 0.0651679 -1.57465 0
M  V30 3338 C 334.981 1.07693 -2.07182 0
M  V30 3339 C 335.962 1.39962 -0.966673 0
M  V30 3340 O 337.147 1.49475 -1.2398 0
M  V30 3341 C 334.277 2.3885 -2.52127 0
M  V30 3342 C 333.231 2.20917 -3.66579 0
M  V30 3343 C 332.557 3.57515 -3.97601 0
M  V30 3344 C 333.857 1.62493 -4.9638 0
M  V30 3345 H 335.551 0.663199 -2.91962 0
M  V30 3346 H 333.097 0.317569 -1.40455 0
M  V30 3347 H 335.05 3.09928 -2.85522 0
M  V30 3348 H 333.774 2.82215 -1.64384 0
M  V30 3349 H 332.433 1.52279 -3.33477 0
M  V30 3350 H 332.081 3.98463 -3.06979 0
M  V30 3351 H 331.781 3.46353 -4.74672 0
M  V30 3352 H 333.305 4.30013 -4.33499 0
M  V30 3353 H 334.719 2.23445 -5.27963 0
M  V30 3354 H 333.116 1.62009 -5.77818 0
M  V30 3355 H 334.186 0.587041 -4.81333 0
M  V30 3356 N 335.529 1.53961 0.336706 0
M  V30 3357 C 336.945 1.44378 0.680241 0
M  V30 3358 C 337.145 0.606034 1.9217 0
M  V30 3359 O 336.201 0.099688 2.52303 0
M  V30 3360 C 337.514 2.87945 0.8665 0
M  V30 3361 C 339.062 2.97763 0.964682 0
M  V30 3362 C 339.537 4.42453 1.18321 0
M  V30 3363 N 341.028 4.46008 1.25025 0
M  V30 3364 C 341.763 5.55102 1.43697 0
M  V30 3365 N 341.259 6.7419 1.59498 0
M  V30 3366 N 343.052 5.42727 1.463 0
M  V30 3367 H 335.203 2.06918 -0.479455 0
M  V30 3368 H 337.466 0.935634 -0.152619 0
M  V30 3369 H 337.172 3.51691 0.0256937 0
M  V30 3370 H 337.046 3.33293 1.76623 0
M  V30 3371 H 339.433 2.34153 1.796 0
M  V30 3372 H 339.514 2.55766 0.041708 0
M  V30 3373 H 339.158 5.06645 0.356788 0
M  V30 3374 H 339.088 4.82048 2.11985 0
M  V30 3375 H 341.579 3.60196 1.14312 0
M  V30 3376 H 341.892 7.53095 1.734 0
M  V30 3377 H 340.237 6.77123 1.56621 0
M  V30 3378 H 343.428 4.48647 1.33543 0
M  V30 3379 H 343.601 6.27806 1.6051 0
M  V30 3380 N 337.007 -0.598083 1.45811 0
M  V30 3381 C 337.917 -1.73632 1.57763 0
M  V30 3382 C 338.933 -1.67763 0.461676 0
M  V30 3383 O 340.109 -1.87949 0.723685 0
M  V30 3384 C 337.174 -3.10114 1.55018 0
M  V30 3385 C 336.235 -3.27364 2.77726 0
M  V30 3386 C 335.468 -4.57334 2.75102 0
M  V30 3387 O 335.691 -5.40258 1.8297 0
M  V30 3388 O 334.625 -4.77502 3.66437 0
M  V30 3389 H 338.451 -1.66498 2.53992 0
M  V30 3390 H 336.036 -0.763308 1.28429 0
M  V30 3391 H 337.918 -3.9141 1.56129 0
M  V30 3392 H 336.593 -3.17718 0.619431 0
M  V30 3393 H 335.5 -2.45619 2.82174 0
M  V30 3394 H 336.833 -3.24641 3.69958 0
M  V30 3395 N 338.485 -1.33259 -0.841409 0
M  V30 3396 C 339.733 -1.24326 -1.59334 0
M  V30 3397 C 340.054 0.191564 -1.94057 0
M  V30 3398 O 339.324 1.11967 -1.60749 0
M  V30 3399 H 337.904 -0.457174 -0.590763 0
M  V30 3400 H 340.566 -1.66947 -1.00571 0
M  V30 3401 H 339.662 -1.8352 -2.52442 0
M  V30 3402 N 339.963 1.05934 -1.16686 0
M  V30 3403 C 340.893 2.1546 -0.899949 0
M  V30 3404 C 341.874 1.69391 0.155154 0
M  V30 3405 O 343.059 1.94199 0.00648693 0
M  V30 3406 C 340.189 3.44939 -0.404241 0
M  V30 3407 C 339.143 4.04536 -1.39767 0
M  V30 3408 C 338.469 5.29268 -0.760216 0
M  V30 3409 C 339.769 4.42893 -2.76845 0
M  V30 3410 H 341.463 2.38046 -1.81588 0
M  V30 3411 H 339.009 1.14404 -0.874514 0
M  V30 3412 H 340.962 4.20901 -0.204971 0
M  V30 3413 H 339.686 3.21983 0.547206 0
M  V30 3414 H 338.345 3.30635 -1.58355 0
M  V30 3415 H 337.993 5.02611 0.197831 0
M  V30 3416 H 337.693 5.70101 -1.42332 0
M  V30 3417 H 339.217 6.07924 -0.57105 0
M  V30 3418 H 340.631 5.09921 -2.62019 0
M  V30 3419 H 339.028 4.94721 -3.39663 0
M  V30 3420 H 340.098 3.53584 -3.31823 0
M  V30 3421 N 341.441 0.965919 1.2453 0
M  V30 3422 C 342.671 0.643451 1.96324 0
M  V30 3423 C 343.079 -0.790927 1.71875 0
M  V30 3424 O 342.422 -1.54208 0.998273 0
M  V30 3425 C 342.484 0.836078 3.49643 0
M  V30 3426 C 342.148 2.24975 3.97788 0
M  V30 3427 C 343.145 3.22735 4.07601 0
M  V30 3428 C 340.83 2.57697 4.31158 0
M  V30 3429 C 342.824 4.51303 4.50116 0
M  V30 3430 C 340.511 3.86492 4.73357 0
M  V30 3431 C 341.509 4.83107 4.828 0
M  V30 3432 O 341.197 6.09605 5.24058 0
M  V30 3433 H 340.929 0.239223 0.632257 0
M  V30 3434 H 343.483 1.29587 1.59362 0
M  V30 3435 H 341.713 0.12649 3.86493 0
M  V30 3436 H 343.402 0.512965 4.02646 0
M  V30 3437 H 344.168 2.98783 3.82039 0
M  V30 3438 H 340.047 1.83216 4.23028 0
M  V30 3439 H 343.591 5.26716 4.57401 0
M  V30 3440 H 339.488 4.10245 4.98366 0
M  V30 3441 H 340.256 6.13146 5.42213 0
M  V30 3442 N 342.919 -1.39368 0.735821 0
M  V30 3443 C 344.166 -2.00497 0.284123 0
M  V30 3444 C 344.494 -1.58387 -1.12889 0
M  V30 3445 O 343.749 -0.804359 -1.78406 0
M  V30 3446 C 344.048 -3.5583 0.334651 0
M  V30 3447 C 343.714 -4.17593 1.7008 0
M  V30 3448 C 342.376 -4.34176 2.07472 0
M  V30 3449 C 344.728 -4.51848 2.59775 0
M  V30 3450 C 342.056 -4.82304 3.34065 0
M  V30 3451 C 344.408 -5.01384 3.85741 0
M  V30 3452 C 343.072 -5.16175 4.23225 0
M  V30 3453 H 342.342 -0.73367 0.103968 0
M  V30 3454 H 344.989 -1.66683 0.942825 0
M  V30 3455 H 343.294 -3.89674 -0.407625 0
M  V30 3456 H 344.991 -4.00986 -0.0329927 0
M  V30 3457 H 341.581 -4.05087 1.40008 0
M  V30 3458 H 345.765 -4.38653 2.32157 0
M  V30 3459 H 341.021 -4.91941 3.63049 0
M  V30 3460 H 345.195 -5.26863 4.55399 0
M  V30 3461 H 342.822 -5.5323 5.21384 0
M  V30 3462 N 344.397 -0.483516 -1.5 0
M  V30 3463 C 345.345 0.318061 -2.30415 0
M  V30 3464 C 346.339 0.978988 -1.38247 0
M  V30 3465 O 347.545 0.908673 -1.55381 0
M  V30 3466 H 343.92 0.121419 -0.742133 0
M  V30 3467 H 345.891 -0.380403 -2.95965 0
M  V30 3468 C 344.64 1.38013 -3.19136 0
M  V30 3469 H 343.963 0.880952 -3.89973 0
M  V30 3470 H 345.403 1.91332 -3.78375 0
M  V30 3471 C 343.862 2.38884 -2.37563 0
M  V30 3472 O 344.392 3.44412 -2.06744 0
M  V30 3473 N 342.598 2.10912 -1.99911 0
M  V30 3474 H 342.145 1.25118 -2.25174 0
M  V30 3475 H 342.103 2.78635 -1.45636 0
M  V30 3476 N 345.875 1.56104 -0.216619 0
M  V30 3477 C 347.286 1.844 0.292128 0
M  V30 3478 C 347.637 1.13788 1.59833 0
M  V30 3479 O 346.762 0.405888 2.12559 0
M  V30 3480 C 347.357 3.3452 0.53681 0
M  V30 3481 C 345.916 3.63151 0.989876 0
M  V30 3482 C 345.063 2.77255 0.0502302 0
M  V30 3483 H 348.014 1.52481 -0.439926 0
M  V30 3484 H 348.035 3.54459 1.38345 0
M  V30 3485 H 347.547 3.85885 -0.414031 0
M  V30 3486 H 345.648 3.17238 1.95425 0
M  V30 3487 H 345.761 4.71177 0.867698 0
M  V30 3488 H 344.125 2.48555 0.556117 0
M  V30 3489 H 344.908 3.31416 -0.89544 0
M  V30 3490 N 347.353 -0.0568162 1.57498 0
M  V30 3491 C 348.583 -0.764515 1.91934 0
M  V30 3492 C 348.991 -1.70877 0.81227 0
M  V30 3493 O 348.334 -1.82351 -0.222213 0
M  V30 3494 C 348.396 -1.5994 3.21962 0
M  V30 3495 C 348.06 -0.822925 4.4953 0
M  V30 3496 C 349.057 -0.135464 5.19723 0
M  V30 3497 C 346.742 -0.785666 4.96117 0
M  V30 3498 C 348.736 0.578861 6.34766 0
M  V30 3499 C 346.423 -0.0675784 6.11063 0
M  V30 3500 C 347.421 0.613471 6.80239 0
M  V30 3501 O 347.109 1.31996 7.92989 0
M  V30 3502 H 346.841 -0.221647 0.63863 0
M  V30 3503 H 349.395 -0.0268218 2.05382 0
M  V30 3504 H 347.625 -2.38026 3.04763 0
M  V30 3505 H 349.314 -2.18715 3.41934 0
M  V30 3506 H 350.08 -0.155458 4.84751 0
M  V30 3507 H 345.959 -1.30524 4.42136 0
M  V30 3508 H 349.503 1.111 6.88696 0
M  V30 3509 H 345.4 -0.0455636 6.45484 0
M  V30 3510 H 346.168 1.23077 8.09194 0
M  V30 3511 N 348.832 -1.54138 -0.328536 0
M  V30 3512 C 350.079 -1.72105 -1.06706 0
M  V30 3513 C 350.407 -0.492111 -1.88171 0
M  V30 3514 O 349.662 0.526153 -1.88494 0
M  V30 3515 C 349.961 -2.9457 -2.02393 0
M  V30 3516 C 349.627 -4.29544 -1.37122 0
M  V30 3517 C 348.289 -4.6624 -1.19052 0
M  V30 3518 C 350.641 -5.1333 -0.902331 0
M  V30 3519 C 347.969 -5.84325 -0.527331 0
M  V30 3520 C 350.321 -6.32094 -0.252988 0
M  V30 3521 C 348.985 -6.67473 -0.0600901 0
M  V30 3522 H 348.255 -0.629775 -0.390466 0
M  V30 3523 H 350.902 -1.88372 -0.34473 0
M  V30 3524 H 349.207 -2.72969 -2.81061 0
M  V30 3525 H 350.904 -3.05665 -2.59557 0
M  V30 3526 H 347.494 -4.0067 -1.52188 0
M  V30 3527 H 351.678 -4.855 -1.02974 0
M  V30 3528 H 346.934 -6.103 -0.366634 0
M  V30 3529 H 351.108 -6.96299 0.118366 0
M  V30 3530 H 348.735 -7.58832 0.455828 0
M  V30 3531 N 350.31 0.590341 -1.46126 0
M  V30 3532 C 351.721 1.17243 -1.45296 0
M  V30 3533 C 352.072 1.95281 -0.189723 0
M  V30 3534 O 351.197 2.04502 0.707674 0
M  V30 3535 C 351.792 2.13284 -2.6324 0
M  V30 3536 C 350.351 2.66832 -2.65476 0
M  V30 3537 C 349.498 1.42557 -2.3785 0
M  V30 3538 H 352.449 0.378692 -1.54116 0
M  V30 3539 H 352.47 2.96619 -2.38323 0
M  V30 3540 H 351.982 1.56459 -3.55165 0
M  V30 3541 H 350.083 3.27548 -1.77603 0
M  V30 3542 H 350.196 3.10088 -3.65215 0
M  V30 3543 H 348.56 1.72107 -1.87753 0
M  V30 3544 H 349.343 0.875741 -3.31942 0
M  V30 3545 N 351.788 1.33704 0.83433 0
M  V30 3546 C 353.036 1.25169 1.58673 0
M  V30 3547 C 353.357 -0.18127 1.94156 0
M  V30 3548 O 352.627 -1.11113 1.6134 0
M  V30 3549 H 351.207 0.4603 0.58833 0
M  V30 3550 H 353.869 1.67478 0.996847 0
M  V30 3551 H 352.965 1.84856 2.51465 0
M  V30 3552 N 353.266 -1.05314 1.17247 0
M  V30 3553 C 354.198 -2.13023 0.845812 0
M  V30 3554 C 355.211 -1.62096 -0.151246 0
M  V30 3555 O 356.4 -1.78343 0.0748818 0
M  V30 3556 C 353.5 -3.38047 0.240292 0
M  V30 3557 C 352.673 -4.18255 1.27991 0
M  V30 3558 C 351.732 -5.21625 0.692375 0
M  V30 3559 O 350.758 -5.52619 1.36385 0
M  V30 3560 N 351.96 -5.78201 -0.516178 0
M  V30 3561 H 354.725 -2.41642 1.77283 0
M  V30 3562 H 352.286 -1.21401 1.07115 0
M  V30 3563 H 354.278 -4.04359 -0.16603 0
M  V30 3564 H 352.848 -3.06972 -0.590487 0
M  V30 3565 H 352.068 -3.47451 1.86203 0
M  V30 3566 H 353.356 -4.68643 1.98119 0
M  V30 3567 H 352.754 -5.55301 -1.07969 0
M  V30 3568 H 351.311 -6.4604 -0.86458 0
M  V30 3569 N 354.744 -0.972509 -1.24016 0
M  V30 3570 C 355.707 -0.511403 -2.23422 0
M  V30 3571 C 356.707 0.394679 -1.55881 0
M  V30 3572 O 357.897 0.189469 -1.73167 0
M  V30 3573 C 355.029 0.258769 -3.39916 0
M  V30 3574 H 356.222 -1.39024 -2.6573 0
M  V30 3575 H 353.775 -0.757585 -1.36713 0
M  V30 3576 H 354.51 1.1545 -3.03054 0
M  V30 3577 H 354.295 -0.391522 -3.9014 0
M  V30 3578 H 355.785 0.570244 -4.13688 0
M  V30 3579 N 356.222 1.38976 -0.743202 0
M  V30 3580 C 357.471 1.99581 -0.291592 0
M  V30 3581 C 357.784 1.59656 1.13001 0
M  V30 3582 O 358.99 2.13157 1.68156 0
M  V30 3583 C 357.446 3.56813 -0.470391 0
M  V30 3584 C 357.054 4.05695 -1.90041 0
M  V30 3585 C 358.798 4.24423 -0.0809709 0
M  V30 3586 C 356.705 5.5553 -2.02832 0
M  V30 3587 H 355.635 0.746615 -0.105272 0
M  V30 3588 H 358.286 1.58872 -0.918258 0
M  V30 3589 H 356.668 3.95359 0.225299 0
M  V30 3590 H 357.842 3.78464 -2.62872 0
M  V30 3591 H 356.157 3.50775 -2.24379 0
M  V30 3592 H 358.754 5.34474 -0.155445 0
M  V30 3593 H 359.097 4.04962 0.96497 0
M  V30 3594 H 359.63 3.9108 -0.728124 0
M  V30 3595 H 356.369 5.79881 -3.05643 0
M  V30 3596 H 355.889 5.84537 -1.34448 0
M  V30 3597 H 357.568 6.21069 -1.81335 0
M  V30 3598 N 357.7 0.491464 1.49741 0
M  V30 3599 C 358.663 -0.280906 2.27472 0
M  V30 3600 C 359.663 -0.902454 1.33088 0
M  V30 3601 O 360.853 -0.768465 1.56334 0
M  V30 3602 C 357.985 -1.40209 3.10732 0
M  V30 3603 H 359.178 0.401056 2.97206 0
M  V30 3604 H 356.731 0.246131 1.5435 0
M  V30 3605 H 357.466 -2.11849 2.45541 0
M  V30 3606 H 357.251 -0.961969 3.80117 0
M  V30 3607 H 358.741 -1.9464 3.69466 0
M  V30 3608 N 359.178 -1.55987 0.224894 0
M  V30 3609 C 360.111 -2.16413 -0.723929 0
M  V30 3610 C 361.089 -1.10952 -1.18863 0
M  V30 3611 O 362.273 -1.39225 -1.27077 0
M  V30 3612 C 359.4 -2.74711 -1.98121 0
M  V30 3613 C 358.446 -3.9303 -1.6562 0
M  V30 3614 S 359.279 -5.29817 -0.778058 0
M  V30 3615 C 360.435 -5.91555 -2.04483 0
M  V30 3616 H 360.668 -2.96555 -0.210347 0
M  V30 3617 H 358.201 -1.54397 0.00955457 0
M  V30 3618 H 360.159 -3.08938 -2.70311 0
M  V30 3619 H 358.82 -1.94555 -2.46591 0
M  V30 3620 H 358.013 -4.32334 -2.59043 0
M  V30 3621 H 357.615 -3.59966 -1.01491 0
M  V30 3622 H 359.907 -6.07732 -2.99446 0
M  V30 3623 H 360.85 -6.87498 -1.69563 0
M  V30 3624 H 361.258 -5.20419 -2.18688 0
M  V30 3625 N 360.656 0.0484629 -1.57525 0
M  V30 3626 C 361.619 1.03956 -2.04269 0
M  V30 3627 C 362.619 1.30211 -0.943496 0
M  V30 3628 O 363.809 1.25539 -1.20771 0
M  V30 3629 C 360.941 2.37742 -2.44319 0
M  V30 3630 H 362.134 0.636182 -2.93075 0
M  V30 3631 H 359.687 0.294811 -1.53494 0
M  V30 3632 H 360.422 2.82866 -1.5861 0
M  V30 3633 H 360.207 2.20021 -3.24551 0
M  V30 3634 H 361.697 3.08936 -2.80978 0
M  V30 3635 N 362.134 1.5431 0.320358 0
M  V30 3636 C 363.545 1.63872 0.894594 0
M  V30 3637 C 363.896 0.534847 1.88769 0
M  V30 3638 O 363.021 -0.331732 2.13842 0
M  V30 3639 C 363.616 2.97049 1.62934 0
M  V30 3640 C 362.175 3.08796 2.15226 0
M  V30 3641 C 361.322 2.59456 0.978671 0
M  V30 3642 H 364.273 1.58398 0.0978544 0
M  V30 3643 H 364.294 2.87388 2.49376 0
M  V30 3644 H 363.806 3.7737 0.906302 0
M  V30 3645 H 361.907 2.33156 2.90636 0
M  V30 3646 H 362.02 4.14649 2.40006 0
M  V30 3647 H 360.384 2.1543 1.35875 0
M  V30 3648 H 361.167 3.42237 0.269895 0
M  V30 3649 N 363.613 -0.582584 1.46437 0
M  V30 3650 C 365.024 -1.1647 1.45916 0
M  V30 3651 C 365.375 -1.95177 0.200077 0
M  V30 3652 O 364.5 -2.04874 -0.696819 0
M  V30 3653 C 365.095 -2.11885 2.64367 0
M  V30 3654 C 363.654 -2.65421 2.66887 0
M  V30 3655 C 362.801 -1.41294 2.38603 0
M  V30 3656 H 365.752 -0.370514 1.54314 0
M  V30 3657 H 365.773 -2.9535 2.39892 0
M  V30 3658 H 365.285 -1.54573 3.5599 0
M  V30 3659 H 363.386 -3.26602 1.79338 0
M  V30 3660 H 363.499 -3.08147 3.66854 0
M  V30 3661 H 361.863 -1.71109 1.88663 0
M  V30 3662 H 362.646 -0.858125 3.32402 0
M  V30 3663 N 365.091 -1.34144 -0.827227 0
M  V30 3664 C 366.34 -1.25602 -1.5782 0
M  V30 3665 C 366.653 0.173445 -1.94829 0
M  V30 3666 O 367.859 0.380984 -2.68814 0
M  V30 3667 C 366.315 -2.20151 -2.84713 0
M  V30 3668 C 365.923 -3.68331 -2.55021 0
M  V30 3669 C 367.667 -2.20508 -3.62735 0
M  V30 3670 C 365.574 -4.54762 -3.78082 0
M  V30 3671 H 364.504 -0.466573 -0.592306 0
M  V30 3672 H 367.155 -1.59283 -0.911116 0
M  V30 3673 H 365.537 -1.79417 -3.53023 0
M  V30 3674 H 366.711 -4.17577 -1.94849 0
M  V30 3675 H 365.026 -3.7038 -1.90283 0
M  V30 3676 H 367.623 -2.82306 -4.54101 0
M  V30 3677 H 367.966 -1.20322 -3.98533 0
M  V30 3678 H 368.499 -2.59664 -3.01362 0
M  V30 3679 H 365.238 -5.55867 -3.47407 0
M  V30 3680 H 364.758 -4.10254 -4.37552 0
M  V30 3681 H 366.437 -4.69153 -4.45538 0
M  V30 3682 N 366.569 1.04691 -1.17803 0
M  V30 3683 C 367.799 1.81183 -0.992788 0
M  V30 3684 C 368.207 1.8347 0.462098 0
M  V30 3685 O 367.55 1.2643 1.33271 0
M  V30 3686 C 367.612 3.28363 -1.46349 0
M  V30 3687 C 367.276 3.49749 -2.94151 0
M  V30 3688 C 368.273 3.41456 -3.92051 0
M  V30 3689 C 365.958 3.76548 -3.32441 0
M  V30 3690 C 367.952 3.59656 -5.26238 0
M  V30 3691 C 365.639 3.94396 -4.66792 0
M  V30 3692 C 366.637 3.8595 -5.635 0
M  V30 3693 O 366.325 4.03294 -6.9542 0
M  V30 3694 H 366.057 0.577622 -0.351182 0
M  V30 3695 H 368.611 1.32876 -1.5663 0
M  V30 3696 H 366.841 3.77609 -0.833574 0
M  V30 3697 H 368.53 3.86395 -1.24313 0
M  V30 3698 H 369.296 3.20723 -3.63815 0
M  V30 3699 H 365.175 3.82224 -2.57732 0
M  V30 3700 H 368.719 3.52979 -6.01707 0
M  V30 3701 H 364.616 4.14622 -4.94731 0
M  V30 3702 H 365.384 4.2049 -7.02232 0
M  V30 3703 N 368.047 0.979072 1.23499 0
M  V30 3704 C 369.275 0.665202 1.95915 0
M  V30 3705 C 369.69 -0.767571 1.72493 0
M  V30 3706 O 369.047 -1.51635 1.01554 0
M  V30 3707 C 369.098 0.944438 3.48945 0
M  V30 3708 O 368.819 2.3209 3.71572 0
M  V30 3709 C 370.32 0.646336 4.38563 0
M  V30 3710 H 367.54 0.247218 0.623798 0
M  V30 3711 H 370.084 1.31009 1.57025 0
M  V30 3712 H 368.239 0.345575 3.85856 0
M  V30 3713 H 368.653 2.40957 4.65876 0
M  V30 3714 H 370.127 0.892091 5.44744 0
M  V30 3715 H 370.604 -0.419575 4.37191 0
M  V30 3716 H 371.21 1.22562 4.07258 0
M  V30 3717 N 369.525 -1.3858 0.750561 0
M  V30 3718 C 370.802 -1.94231 0.231009 0
M  V30 3719 C 371.182 -1.68611 -1.27018 0
M  V30 3720 O 370.53 -1.02296 -2.04323 0
M  V30 3721 C 370.74 -3.44123 0.581428 0
M  V30 3722 C 372.088 -4.2116 0.539389 0
M  V30 3723 O 373.112 -3.52391 0.519541 0
M  V30 3724 O 371.971 -5.43749 0.54765 0
M  V30 3725 H 369.065 -0.825639 0.0474263 0
M  V30 3726 H 371.611 -1.4799 0.830478 0
M  V30 3727 H 370.383 -3.56267 1.61833 0
M  V30 3728 H 370.006 -3.97573 -0.0462047 0
M  V30 3729 N 371.003 -0.499398 -1.49478 0
M  V30 3730 C 372.249 0.0457576 -2.02748 0
M  V30 3731 C 372.582 1.36793 -1.37846 0
M  V30 3732 O 371.857 1.87596 -0.513601 0
M  V30 3733 C 372.14 0.199986 -3.59544 0
M  V30 3734 C 371.993 -1.1452 -4.34977 0
M  V30 3735 C 373.312 0.94137 -4.29914 0
M  V30 3736 H 370.431 0.0151552 -0.736844 0
M  V30 3737 H 373.073 -0.650498 -1.78518 0
M  V30 3738 H 371.223 0.793007 -3.8032 0
M  V30 3739 H 372.895 -1.77697 -4.25701 0
M  V30 3740 H 371.138 -1.73488 -3.97598 0
M  V30 3741 H 371.809 -0.990607 -5.43039 0
M  V30 3742 H 374.285 0.43844 -4.13784 0
M  V30 3743 H 373.161 1.01812 -5.39375 0
M  V30 3744 H 373.422 1.98471 -3.95046 0
M  V30 3745 N 372.481 1.55866 -0.233164 0
M  V30 3746 C 373.411 2.23783 0.666599 0
M  V30 3747 C 374.392 1.21343 1.19205 0
M  V30 3748 O 375.577 1.4996 1.23392 0
M  V30 3749 C 372.707 2.92671 1.86978 0
M  V30 3750 C 371.661 4.01682 1.47768 0
M  V30 3751 C 370.987 4.57926 2.76058 0
M  V30 3752 C 372.287 5.18126 0.658993 0
M  V30 3753 H 373.981 2.99232 0.100306 0
M  V30 3754 H 371.527 1.43924 0.046804 0
M  V30 3755 H 373.48 3.3888 2.50476 0
M  V30 3756 H 372.204 2.14688 2.46123 0
M  V30 3757 H 370.863 3.56222 0.866106 0
M  V30 3758 H 370.511 3.76659 3.33372 0
M  V30 3759 H 370.211 5.31505 2.50552 0
M  V30 3760 H 371.735 5.06859 3.40479 0
M  V30 3761 H 373.149 5.60644 1.19795 0
M  V30 3762 H 371.546 5.98009 0.500552 0
M  V30 3763 H 372.616 4.83763 -0.331856 0
M  V30 3764 N 373.959 -0.0401083 1.57549 0
M  V30 3765 C 374.869 -1.06133 2.0922 0
M  V30 3766 C 375.885 -1.40356 1.0284 0
M  V30 3767 O 377.061 -1.49897 1.34509 0
M  V30 3768 C 374.126 -2.34658 2.55218 0
M  V30 3769 C 373.187 -2.07117 3.76033 0
M  V30 3770 C 372.42 -3.29514 4.19829 0
M  V30 3771 O 372.643 -4.39794 3.63232 0
M  V30 3772 O 371.577 -3.15863 5.12362 0
M  V30 3773 H 375.403 -0.652244 2.96613 0
M  V30 3774 H 372.988 -0.256368 1.47184 0
M  V30 3775 H 374.87 -3.10239 2.85184 0
M  V30 3776 H 373.545 -2.74883 1.70941 0
M  V30 3777 H 372.452 -1.29139 3.51104 0
M  V30 3778 H 373.785 -1.71754 4.61261 0
M  V30 3779 N 375.437 -1.54477 -0.31217 0
M  V30 3780 C 376.684 -1.73227 -1.04875 0
M  V30 3781 C 377.012 -0.512042 -1.87639 0
M  V30 3782 O 376.267 0.506131 -1.89042 0
M  V30 3783 C 376.566 -2.967 -1.99258 0
M  V30 3784 C 376.232 -4.30974 -1.32559 0
M  V30 3785 C 374.894 -4.67477 -1.141 0
M  V30 3786 C 377.246 -5.14258 -0.847835 0
M  V30 3787 C 374.574 -5.84852 -0.465326 0
M  V30 3788 C 376.926 -6.32327 -0.185931 0
M  V30 3789 C 375.59 -6.67499 0.0107077 0
M  V30 3790 H 374.86 -0.633881 -0.383765 0
M  V30 3791 H 377.507 -1.88727 -0.324731 0
M  V30 3792 H 375.812 -2.75935 -2.7815 0
M  V30 3793 H 377.509 -3.08401 -2.563 0
M  V30 3794 H 374.099 -4.02262 -1.4793 0
M  V30 3795 H 378.283 -4.86565 -0.978192 0
M  V30 3796 H 373.539 -6.10654 -0.301883 0
M  V30 3797 H 377.713 -6.96135 0.192211 0
M  V30 3798 H 375.34 -7.58306 0.536287 0
M  V30 3799 N 376.915 0.57481 -1.46744 0
M  V30 3800 C 378.192 1.3352 -1.4294 0
M  V30 3801 C 378.572 2.10775 -0.117009 0
M  V30 3802 O 377.92 2.09966 0.901474 0
M  V30 3803 C 378.13 2.25456 -2.66403 0
M  V30 3804 C 379.478 2.87035 -3.12883 0
M  V30 3805 O 380.502 2.35766 -2.67007 0
M  V30 3806 O 379.361 3.80179 -3.92589 0
M  V30 3807 H 376.455 0.600318 -0.568812 0
M  V30 3808 H 379.001 0.595171 -1.58921 0
M  V30 3809 H 377.773 1.67851 -3.53471 0
M  V30 3810 H 377.396 3.06785 -2.52921 0
M  V30 3811 N 378.394 1.34581 0.820102 0
M  V30 3812 C 379.671 1.17675 1.56244 0
M  V30 3813 C 380.051 -0.249541 2.0962 0
M  V30 3814 O 379.399 -1.25125 1.91196 0
M  V30 3815 C 379.609 2.23364 2.6816 0
M  V30 3816 C 380.957 2.58485 3.36854 0
M  V30 3817 O 381.981 2.22175 2.78418 0
M  V30 3818 O 380.84 3.20868 4.42386 0
M  V30 3819 H 377.934 0.456333 0.689702 0
M  V30 3820 H 380.48 1.46222 0.861231 0
M  V30 3821 H 379.252 3.19087 2.26493 0
M  V30 3822 H 378.875 1.96009 3.45928 0
M  V30 3823 N 379.872 -1.04064 1.18357 0
M  V30 3824 C 381.12 -1.76915 0.977013 0
M  V30 3825 C 381.441 -1.88624 -0.494577 0
M  V30 3826 O 380.711 -1.41125 -1.3587 0
M  V30 3827 H 379.291 -0.65535 0.358504 0
M  V30 3828 H 381.953 -1.25592 1.49039 0
M  V30 3829 H 381.049 -2.78178 1.41504 0
M  V30 3830 N 381.35 -0.985608 -1.22978 0
M  V30 3831 C 382.578 -0.675582 -1.95559 0
M  V30 3832 C 382.993 0.758413 -1.72897 0
M  V30 3833 O 382.35 1.51094 -1.02357 0
M  V30 3834 C 382.401 -0.96293 -3.48439 0
M  V30 3835 O 382.122 -2.34057 -3.70336 0
M  V30 3836 C 383.623 -0.669585 -4.38214 0
M  V30 3837 H 380.843 -0.250523 -0.622478 0
M  V30 3838 H 383.387 -1.3184 -1.56328 0
M  V30 3839 H 381.542 -0.366033 -3.85667 0
M  V30 3840 H 381.956 -2.43424 -4.64591 0
M  V30 3841 H 383.43 -0.920967 -5.44263 0
M  V30 3842 H 383.907 0.396383 -4.37408 0
M  V30 3843 H 384.513 -1.2472 -4.06602 0
M  V30 3844 N 382.828 1.3818 -0.7579 0
M  V30 3845 C 384.239 1.82726 -0.383134 0
M  V30 3846 C 384.59 1.63214 1.08884 0
M  V30 3847 O 383.715 1.13566 1.84205 0
M  V30 3848 C 384.31 3.31728 -0.688631 0
M  V30 3849 C 382.869 3.74606 -0.367091 0
M  V30 3850 C 382.016 2.60896 -0.939599 0
M  V30 3851 H 384.967 1.26847 -0.953699 0
M  V30 3852 H 384.988 3.80487 0.0316492 0
M  V30 3853 H 384.5 3.45898 -1.76001 0
M  V30 3854 H 382.601 3.66013 0.697532 0
M  V30 3855 H 382.714 4.71215 -0.865658 0
M  V30 3856 H 381.078 2.52075 -0.3647 0
M  V30 3857 H 381.861 2.77864 -2.0161 0
M  V30 3858 N 384.306 0.507319 1.49211 0
M  V30 3859 C 385.269 -0.256763 2.27757 0
M  V30 3860 C 386.269 -0.888287 1.34038 0
M  V30 3861 O 387.459 -0.751841 1.5714 0
M  V30 3862 C 384.591 -1.36905 3.12202 0
M  V30 3863 H 385.784 0.432557 2.96764 0
M  V30 3864 H 383.337 0.262488 1.5408 0
M  V30 3865 H 384.072 -2.09233 2.47775 0
M  V30 3866 H 383.857 -0.921599 3.81115 0
M  V30 3867 H 385.347 -1.9071 3.7151 0
M  V30 3868 N 385.784 -1.5574 0.241426 0
M  V30 3869 C 387.012 -2.03208 -0.389134 0
M  V30 3870 C 387.427 -1.12082 -1.51931 0
M  V30 3871 O 386.784 -0.134183 -1.82006 0
M  V30 3872 C 386.835 -3.50064 -0.902087 0
M  V30 3873 O 386.556 -4.37717 0.18305 0
M  V30 3874 C 388.057 -4.13268 -1.60389 0
M  V30 3875 H 385.277 -0.664509 -0.0931053 0
M  V30 3876 H 387.821 -2.0124 0.36369 0
M  V30 3877 H 385.976 -3.52583 -1.60511 0
M  V30 3878 H 386.39 -5.24097 -0.205579 0
M  V30 3879 H 387.864 -5.17733 -1.91458 0
M  V30 3880 H 388.341 -3.59434 -2.52397 0
M  V30 3881 H 388.947 -4.14655 -0.945576 0
M  V30 3882 N 387.262 0.0317525 -1.57568 0
M  V30 3883 C 388.195 1.06621 -2.0176 0
M  V30 3884 C 389.173 1.35323 -0.901462 0
M  V30 3885 O 390.357 1.48025 -1.16708 0
M  V30 3886 C 387.484 2.40155 -2.38837 0
M  V30 3887 C 386.53 2.27327 -3.60867 0
M  V30 3888 S 387.363 1.62925 -5.10113 0
M  V30 3889 C 388.519 2.97955 -5.5043 0
M  V30 3890 H 388.752 0.689781 -2.89187 0
M  V30 3891 H 386.285 0.24164 -1.52497 0
M  V30 3892 H 388.243 3.1695 -2.6087 0
M  V30 3893 H 386.904 2.74946 -1.51867 0
M  V30 3894 H 386.097 3.25898 -3.84456 0
M  V30 3895 H 385.699 1.58675 -3.38671 0
M  V30 3896 H 387.991 3.94285 -5.5095 0
M  V30 3897 H 388.934 2.79102 -6.50775 0
M  V30 3898 H 389.342 3.00404 -4.77931 0
M  V30 3899 N 388.74 1.54641 0.303973 0
M  V30 3900 C 389.965 1.78092 1.06292 0
M  V30 3901 C 390.39 0.537342 1.80262 0
M  V30 3902 O 389.748 -0.511993 1.7392 0
M  V30 3903 C 389.796 2.98612 2.02147 0
M  V30 3904 O 388.9 2.71528 3.10397 0
M  V30 3905 H 388.241 0.589548 0.305497 0
M  V30 3906 H 390.771 2.01716 0.3423 0
M  V30 3907 H 390.781 3.265 2.44667 0
M  V30 3908 H 389.456 3.88785 1.47714 0
M  V30 3909 H 388.033 2.54648 2.72413 0
M  V30 3910 N 390.218 -0.567019 1.47046 0
M  V30 3911 C 391.15 -1.68985 1.54844 0
M  V30 3912 C 392.163 -1.56869 0.435431 0
M  V30 3913 O 393.352 -1.64006 0.70457 0
M  V30 3914 C 390.452 -3.07373 1.42742 0
M  V30 3915 C 389.625 -3.45339 2.6844 0
M  V30 3916 C 388.684 -4.62849 2.50314 0
M  V30 3917 O 387.71 -4.67922 3.24095 0
M  V30 3918 N 388.912 -5.58726 1.57499 0
M  V30 3919 H 391.677 -1.62745 2.51663 0
M  V30 3920 H 389.238 -0.753411 1.43302 0
M  V30 3921 H 391.23 -3.83803 1.28365 0
M  V30 3922 H 389.8 -3.07893 0.540445 0
M  V30 3923 H 389.02 -2.58455 2.97648 0
M  V30 3924 H 390.308 -3.67476 3.51907 0
M  V30 3925 H 389.706 -5.57376 0.966876 0
M  V30 3926 H 388.263 -6.34523 1.49078 0
M  V30 3927 N 391.696 -1.35014 -0.812953 0
M  V30 3928 C 392.945 -1.27269 -1.56479 0
M  V30 3929 C 393.258 0.152771 -1.95002 0
M  V30 3930 O 394.464 0.352451 -2.69203 0
M  V30 3931 C 392.92 -2.23159 -2.82362 0
M  V30 3932 C 392.528 -3.71016 -2.511 0
M  V30 3933 C 394.272 -2.24342 -3.60376 0
M  V30 3934 C 392.179 -4.58746 -3.73237 0
M  V30 3935 H 391.109 -0.472829 -0.587324 0
M  V30 3936 H 393.76 -1.6024 -0.894171 0
M  V30 3937 H 392.142 -1.83151 -3.51101 0
M  V30 3938 H 393.316 -4.1962 -1.90409 0
M  V30 3939 H 391.631 -3.72378 -1.86343 0
M  V30 3940 H 394.228 -2.87107 -4.51081 0
M  V30 3941 H 394.571 -1.24542 -3.97234 0
M  V30 3942 H 395.104 -2.62846 -2.98591 0
M  V30 3943 H 391.843 -5.59521 -3.41492 0
M  V30 3944 H 391.363 -4.14871 -4.33176 0
M  V30 3945 H 393.042 -4.73852 -4.40537 0
M  V30 3946 N 393.175 1.03435 -1.18907 0
M  V30 3947 C 394.138 2.09756 -0.923844 0
M  V30 3948 C 395.138 1.60528 0.093416 0
M  V30 3949 O 396.328 1.73631 -0.140727 0
M  V30 3950 C 393.46 3.38692 -0.387354 0
M  V30 3951 H 394.653 2.34719 -1.86674 0
M  V30 3952 H 392.206 1.19959 -1.00197 0
M  V30 3953 H 392.941 3.19396 0.561845 0
M  V30 3954 H 392.726 3.75742 -1.12074 0
M  V30 3955 H 394.216 4.17016 -0.220694 0
M  V30 3956 N 394.653 0.992116 1.22453 0
M  V30 3957 C 395.6 0.541731 2.24352 0
M  V30 3958 C 396.57 -0.425519 1.60557 0
M  V30 3959 O 397.755 -0.330453 1.87917 0
M  V30 3960 C 394.895 -0.138248 3.44823 0
M  V30 3961 C 394.008 0.870649 4.23136 0
M  V30 3962 C 393.143 0.164269 5.30946 0
M  V30 3963 C 392.182 1.16159 6.00977 0
M  V30 3964 N 391.319 0.483568 7.00433 0
M  V30 3965 H 396.159 1.41541 2.62241 0
M  V30 3966 H 393.696 0.709013 1.28885 0
M  V30 3967 H 395.654 -0.5494 4.13567 0
M  V30 3968 H 394.284 -0.975721 3.077 0
M  V30 3969 H 393.336 1.40013 3.53696 0
M  V30 3970 H 394.648 1.63014 4.7141 0
M  V30 3971 H 393.802 -0.303653 6.0594 0
M  V30 3972 H 392.541 -0.627733 4.83643 0
M  V30 3973 H 391.546 1.64015 5.24766 0
M  V30 3974 H 392.771 1.95445 6.50368 0
M  V30 3975 H 390.717 -0.289012 6.55363 0
M  V30 3976 H 390.634 1.18152 7.4671 0
M  V30 3977 H 391.902 0.0384219 7.79491 0
M  V30 3978 N 396.131 -1.37776 0.765217 0
M  V30 3979 C 397.408 -1.93975 0.251596 0
M  V30 3980 C 397.788 -1.69949 -1.25222 0
M  V30 3981 O 397.136 -1.04457 -2.03226 0
M  V30 3982 C 397.346 -3.43487 0.617895 0
M  V30 3983 C 398.694 -4.20564 0.584029 0
M  V30 3984 O 399.718 -3.5182 0.556888 0
M  V30 3985 O 398.577 -5.43138 0.605291 0
M  V30 3986 H 395.671 -0.82509 0.0561806 0
M  V30 3987 H 398.217 -1.47101 0.846128 0
M  V30 3988 H 396.989 -3.5453 1.65602 0
M  V30 3989 H 396.612 -3.976 -0.00403411 0
M  V30 3990 N 397.609 -0.515225 -1.4894 0
M  V30 3991 C 398.855 0.0242508 -2.02785 0
M  V30 3992 C 399.188 1.35323 -1.39289 0
M  V30 3993 O 398.463 1.87041 -0.533469 0
M  V30 3994 C 398.746 0.16184 -3.59736 0
M  V30 3995 C 398.599 -1.19127 -4.33738 0
M  V30 3996 C 399.918 0.895719 -4.30888 0
M  V30 3997 H 397.037 0.00733914 -0.736963 0
M  V30 3998 H 399.679 -0.669395 -1.77818 0
M  V30 3999 H 397.829 0.752624 -3.8114 0
M  V30 4000 H 399.501 -1.82202 -4.23792 0
M  V30 4001 H 397.744 -1.77695 -3.95736 0
M  V30 4002 H 398.415 -1.04815 -5.41957 0
M  V30 4003 H 400.891 0.394528 -4.14225 0
M  V30 4004 H 399.767 0.960859 -5.40425 0
M  V30 4005 H 400.028 1.9427 -3.97129 0
M  V30 4006 N 399.087 1.5561 -0.249682 0
M  V30 4007 C 400.327 2.00916 0.37579 0
M  V30 4008 C 400.691 1.13409 1.54927 0
M  V30 4009 O 401.892 1.48183 2.24266 0
M  V30 4010 C 400.163 3.48949 0.772633 0
M  V30 4011 S 401.722 4.16261 1.38824 0
M  V30 4012 H 398.54 0.70112 0.118117 0
M  V30 4013 H 401.142 1.92052 -0.365567 0
M  V30 4014 H 399.846 4.103 -0.090683 0
M  V30 4015 H 399.377 3.61745 1.5461 0
M  V30 4016 H 401.392 4.17778 2.67724 0
M  V30 4017 N 400.565 -0.0233959 1.57583 0
M  V30 4018 C 401.793 -0.724682 1.93794 0
M  V30 4019 C 402.208 -1.68588 0.849912 0
M  V30 4020 O 401.565 -1.81676 -0.173204 0
M  V30 4021 C 401.616 -1.47684 3.29957 0
M  V30 4022 O 401.337 -0.554222 4.3458 0
M  V30 4023 C 402.838 -2.27477 3.80485 0
M  V30 4024 H 400.058 -0.203317 0.639455 0
M  V30 4025 H 402.602 0.0207653 2.04489 0
M  V30 4026 H 400.757 -2.17412 3.20641 0
M  V30 4027 H 401.171 -1.08232 5.13212 0
M  V30 4028 H 402.645 -2.7564 4.78254 0
M  V30 4029 H 403.122 -3.09144 3.11972 0
M  V30 4030 H 403.728 -1.62813 3.92902 0
M  V30 4031 N 402.043 -1.548 -0.295768 0
M  V30 4032 C 403.29 -1.74329 -1.03032 0
M  V30 4033 C 403.618 -0.531915 -1.87085 0
M  V30 4034 O 402.873 0.486052 -1.89568 0
M  V30 4035 C 403.172 -2.98797 -1.961 0
M  V30 4036 C 402.838 -4.32356 -1.2798 0
M  V30 4037 C 401.5 -4.68661 -1.09135 0
M  V30 4038 C 403.852 -5.15128 -0.793243 0
M  V30 4039 C 401.18 -5.85312 -0.403269 0
M  V30 4040 C 403.532 -6.32488 -0.118854 0
M  V30 4041 C 402.196 -6.6745 0.0815043 0
M  V30 4042 H 401.466 -0.637916 -0.37702 0
M  V30 4043 H 404.113 -1.8906 -0.304696 0
M  V30 4044 H 402.418 -2.78869 -2.75207 0
M  V30 4045 H 404.115 -3.11102 -2.53015 0
M  V30 4046 H 400.705 -4.03808 -1.43655 0
M  V30 4047 H 404.889 -4.87575 -0.92653 0
M  V30 4048 H 400.145 -6.1094 -0.237098 0
M  V30 4049 H 404.319 -6.95892 0.266035 0
M  V30 4050 H 401.946 -7.57695 0.616685 0
M  V30 4051 N 403.521 0.559213 -1.47345 0
M  V30 4052 C 404.451 1.67622 -1.62558 0
M  V30 4053 C 405.432 1.63331 -0.475087 0
M  V30 4054 O 406.617 1.80983 -0.704182 0
M  V30 4055 C 403.747 3.0626 -1.63774 0
M  V30 4056 C 402.701 3.25397 -2.7803 0
M  V30 4057 C 402.027 4.64801 -2.64318 0
M  V30 4058 C 403.327 3.10965 -4.19641 0
M  V30 4059 H 405.021 1.55146 -2.56067 0
M  V30 4060 H 402.567 0.744961 -1.23233 0
M  V30 4061 H 404.52 3.84247 -1.73008 0
M  V30 4062 H 403.244 3.1969 -0.66825 0
M  V30 4063 H 401.903 2.49817 -2.68304 0
M  V30 4064 H 401.551 4.75028 -1.65401 0
M  V30 4065 H 401.251 4.78555 -3.40968 0
M  V30 4066 H 402.775 5.44926 -2.75478 0
M  V30 4067 H 404.189 3.78772 -4.30354 0
M  V30 4068 H 402.586 3.36229 -4.97062 0
M  V30 4069 H 403.656 2.07736 -4.38148 0
M  V30 4070 N 404.999 1.35443 0.805782 0
M  V30 4071 C 406.415 1.15499 1.10146 0
M  V30 4072 C 406.615 -0.0319975 2.01475 0
M  V30 4073 O 405.671 -0.70236 2.42535 0
M  V30 4074 C 406.984 2.45833 1.73166 0
M  V30 4075 C 408.532 2.52047 1.85583 0
M  V30 4076 C 409.007 3.82427 2.52019 0
M  V30 4077 N 410.498 3.83682 2.59504 0
M  V30 4078 C 411.233 4.81294 3.11679 0
M  V30 4079 N 410.729 5.89294 3.64287 0
M  V30 4080 N 412.522 4.6873 3.1024 0
M  V30 4081 H 404.673 2.11469 0.198678 0
M  V30 4082 H 406.936 0.93594 0.150731 0
M  V30 4083 H 406.642 3.32874 1.13526 0
M  V30 4084 H 406.516 2.6044 2.72857 0
M  V30 4085 H 408.903 1.65435 2.44367 0
M  V30 4086 H 408.984 2.41354 0.847455 0
M  V30 4087 H 408.628 4.69437 1.93885 0
M  V30 4088 H 408.558 3.90409 3.53395 0
M  V30 4089 H 411.049 3.05648 2.22234 0
M  V30 4090 H 411.362 6.59768 4.02401 0
M  V30 4091 H 409.707 5.92985 3.62483 0
M  V30 4092 H 412.898 3.83496 2.68419 0
M  V30 4093 H 413.071 5.44965 3.50596 0
M  V30 4094 N 406.477 -1.02803 1.19454 0
M  V30 4095 C 407.723 -1.76598 1.0092 0
M  V30 4096 C 408.078 -1.86939 -0.455142 0
M  V30 4097 O 407.371 -1.37575 -1.33355 0
M  V30 4098 C 407.565 -3.18941 1.6128 0
M  V30 4099 C 407.394 -3.22476 3.13431 0
M  V30 4100 C 406.164 -3.30375 3.82336 0
M  V30 4101 C 408.362 -3.09451 4.10785 0
M  V30 4102 N 406.344 -3.23292 5.21877 0
M  V30 4103 C 407.715 -3.10012 5.36929 0
M  V30 4104 C 409.77 -2.93585 4.02135 0
M  V30 4105 C 408.473 -2.96334 6.55423 0
M  V30 4106 C 410.499 -2.81256 5.20239 0
M  V30 4107 C 409.861 -2.82472 6.45282 0
M  V30 4108 H 405.96 -0.657447 0.423424 0
M  V30 4109 H 408.544 -1.22369 1.5144 0
M  V30 4110 H 406.715 -3.71489 1.1336 0
M  V30 4111 H 408.447 -3.81102 1.36173 0
M  V30 4112 H 405.202 -3.3663 3.33132 0
M  V30 4113 H 405.626 -3.23156 5.94894 0
M  V30 4114 H 410.268 -2.91466 3.0628 0
M  V30 4115 H 407.986 -2.97203 7.51463 0
M  V30 4116 H 411.572 -2.70014 5.15348 0
M  V30 4117 H 410.452 -2.73036 7.35133 0
M  V30 4118 N 407.956 -0.998596 -1.21925 0
M  V30 4119 C 408.919 -0.558679 -2.22287 0
M  V30 4120 C 409.919 0.361525 -1.56683 0
M  V30 4121 O 411.109 0.152695 -1.73529 0
M  V30 4122 C 408.241 0.18661 -3.40389 0
M  V30 4123 H 409.434 -1.4463 -2.62721 0
M  V30 4124 H 406.987 -0.786413 -1.35075 0
M  V30 4125 H 407.722 1.08996 -3.05435 0
M  V30 4126 H 407.507 -0.474188 -3.89222 0
M  V30 4127 H 408.997 0.482367 -4.14805 0
M  V30 4128 N 409.434 1.37368 -0.772513 0
M  V30 4129 C 410.659 2.0447 -0.347386 0
M  V30 4130 C 411.084 1.57882 1.0225 0
M  V30 4131 O 410.442 0.73941 1.65537 0
M  V30 4132 C 410.49 3.58369 -0.400479 0
M  V30 4133 O 409.594 4.0803 0.598789 0
M  V30 4134 H 408.935 0.646773 -0.15027 0
M  V30 4135 H 411.465 1.75667 -1.04892 0
M  V30 4136 H 411.475 4.07183 -0.258045 0
M  V30 4137 H 410.15 3.91633 -1.39986 0
M  V30 4138 H 408.727 3.70534 0.419411 0
M  V30 4139 N 410.912 0.523116 1.48665 0
M  V30 4140 C 411.822 -0.247406 2.33292 0
M  V30 4141 C 412.838 -0.945769 1.46052 0
M  V30 4142 O 414.014 -0.922253 1.79043 0
M  V30 4143 C 411.079 -1.28487 3.22012 0
M  V30 4144 C 410.14 -0.597592 4.2512 0
M  V30 4145 C 409.373 -1.58563 5.09601 0
M  V30 4146 O 409.596 -2.81763 4.95949 0
M  V30 4147 O 408.53 -1.12879 5.91221 0
M  V30 4148 H 412.356 0.445869 3.00409 0
M  V30 4149 H 409.941 0.284128 1.46673 0
M  V30 4150 H 411.823 -1.88459 3.7691 0
M  V30 4151 H 410.498 -1.96068 2.57564 0
M  V30 4152 H 409.405 0.0424407 3.74076 0
M  V30 4153 H 410.738 0.0361517 4.92187 0
M  V30 4154 N 412.39 -1.55475 0.257931 0
M  V30 4155 C 413.801 -1.8511 -0.243135 0
M  V30 4156 C 414.152 -1.17986 -1.5676 0
M  V30 4157 O 413.277 -0.462102 -2.11409 0
M  V30 4158 C 413.872 -3.35826 -0.447929 0
M  V30 4159 C 412.431 -3.65647 -0.893245 0
M  V30 4160 C 411.578 -2.7729 0.0232965 0
M  V30 4161 H 414.529 -1.51261 0.480199 0
M  V30 4162 H 414.55 -3.58002 -1.28898 0
M  V30 4163 H 414.062 -3.84652 0.516196 0
M  V30 4164 H 412.163 -3.22308 -1.86945 0
M  V30 4165 H 412.276 -4.73312 -0.742469 0
M  V30 4166 H 410.64 -2.49942 -0.490021 0
M  V30 4167 H 411.423 -3.28926 0.982994 0
M  V30 4168 N 413.868 0.0150385 -1.57593 0
M  V30 4169 C 414.778 1.02791 -2.10882 0
M  V30 4170 C 415.794 1.38702 -1.0506 0
M  V30 4171 O 416.97 1.47739 -1.36877 0
M  V30 4172 C 414.035 2.30568 -2.58919 0
M  V30 4173 C 413.096 2.01108 -3.79281 0
M  V30 4174 C 412.329 3.22794 -4.25018 0
M  V30 4175 O 412.552 4.33959 -3.70183 0
M  V30 4176 O 411.486 3.07672 -5.17322 0
M  V30 4177 H 415.312 0.604973 -2.97613 0
M  V30 4178 H 412.897 0.23292 -1.47573 0
M  V30 4179 H 414.779 3.05662 -2.90084 0
M  V30 4180 H 413.454 2.72129 -1.75293 0
M  V30 4181 H 412.361 1.23537 -3.53114 0
M  V30 4182 H 413.694 1.64394 -4.63935 0
M  V30 4183 N 415.346 1.54954 0.287554 0
M  V30 4184 C 416.296 1.8322 1.357 0
M  V30 4185 C 417.28 0.690152 1.45347 0
M  V30 4186 O 418.472 0.951137 1.49273 0
M  V30 4187 C 415.601 2.09481 2.71979 0
M  V30 4188 C 414.687 3.29906 2.66502 0
M  V30 4189 N 415.078 4.50154 2.30641 0
M  V30 4190 C 413.376 3.32203 2.97585 0
M  V30 4191 C 414.077 5.32209 2.34794 0
M  V30 4192 N 413.053 4.70258 2.72688 0
M  V30 4193 H 416.855 2.73746 1.0696 0
M  V30 4194 H 414.369 1.54635 0.496167 0
M  V30 4195 H 416.366 2.27882 3.49107 0
M  V30 4196 H 415.026 1.2023 3.0162 0
M  V30 4197 H 416.037 4.76515 2.02865 0
M  V30 4198 H 412.714 2.53101 3.32034 0
M  V30 4199 H 414.104 6.38321 2.09753 0
M  V30 4200 N 416.824 -0.551391 1.4764 0
M  V30 4201 C 418.101 -1.31229 1.45046 0
M  V30 4202 C 418.481 -2.10563 0.150527 0
M  V30 4203 O 417.829 -2.11374 -0.867956 0
M  V30 4204 C 418.039 -2.21189 2.69956 0
M  V30 4205 C 419.387 -2.82021 3.1741 0
M  V30 4206 O 420.411 -2.31488 2.70724 0
M  V30 4207 O 419.27 -3.73885 3.98588 0
M  V30 4208 H 416.364 -0.591193 0.578291 0
M  V30 4209 H 418.91 -0.569813 1.59847 0
M  V30 4210 H 417.682 -1.62207 3.56096 0
M  V30 4211 H 417.305 -3.02722 2.57769 0
M  V30 4212 N 418.302 -1.35869 -0.798587 0
M  V30 4213 C 419.252 -1.25982 -1.90033 0
M  V30 4214 C 420.236 -0.153303 -1.60168 0
M  V30 4215 O 421.428 -0.38527 -1.72756 0
M  V30 4216 C 418.557 -1.04211 -3.27101 0
M  V30 4217 C 417.643 -2.19289 -3.63006 0
M  V30 4218 N 418.034 -3.44559 -3.70287 0
M  V30 4219 C 416.332 -2.10852 -3.93011 0
M  V30 4220 C 417.033 -4.20283 -4.02166 0
M  V30 4221 N 416.009 -3.49124 -4.16669 0
M  V30 4222 H 419.811 -2.20883 -1.93876 0
M  V30 4223 H 417.325 -1.28457 -0.993614 0
M  V30 4224 H 419.322 -0.952155 -4.05881 0
M  V30 4225 H 417.982 -0.102013 -3.2454 0
M  V30 4226 H 418.993 -3.7881 -3.53162 0
M  V30 4227 H 415.67 -1.24744 -3.98428 0
M  V30 4228 H 417.06 -5.28575 -4.14799 0
M  V30 4229 N 419.78 1.02168 -1.19998 0
M  V30 4230 C 421.196 1.27969 -0.953737 0
M  V30 4231 C 421.396 1.98079 0.369703 0
M  V30 4232 O 420.452 2.27306 1.09947 0
M  V30 4233 C 421.765 2.11971 -2.13281 0
M  V30 4234 C 423.313 2.25255 -2.17323 0
M  V30 4235 C 423.788 3.12632 -3.34702 0
M  V30 4236 N 425.279 3.2022 -3.34684 0
M  V30 4237 C 426.014 3.88039 -4.22153 0
M  V30 4238 N 425.51 4.58027 -5.19791 0
M  V30 4239 N 427.303 3.84511 -4.10009 0
M  V30 4240 H 419.454 0.550794 -2.05134 0
M  V30 4241 H 421.717 0.305683 -0.897364 0
M  V30 4242 H 421.423 1.67785 -3.09097 0
M  V30 4243 H 421.297 3.12699 -2.10949 0
M  V30 4244 H 423.684 2.68667 -1.22073 0
M  V30 4245 H 423.765 1.24053 -2.23706 0
M  V30 4246 H 423.409 2.69926 -4.30235 0
M  V30 4247 H 423.339 4.13909 -3.25556 0
M  V30 4248 H 425.83 2.70382 -2.64012 0
M  V30 4249 H 426.143 5.07429 -5.82868 0
M  V30 4250 H 424.488 4.56869 -5.23733 0
M  V30 4251 H 427.679 3.28978 -3.33003 0
M  V30 4252 H 427.852 4.3709 -4.78389 0
M  V30 4253 N 421.258 1.00505 1.21394 0
M  V30 4254 C 422.205 0.565496 2.23765 0
M  V30 4255 C 423.175 -0.408466 1.60999 0
M  V30 4256 O 424.36 -0.310503 1.88257 0
M  V30 4257 C 421.5 -0.101667 3.4495 0
M  V30 4258 C 420.613 0.915479 4.22188 0
M  V30 4259 C 419.748 0.220574 5.30742 0
M  V30 4260 C 418.787 1.22527 5.99711 0
M  V30 4261 N 417.924 0.557831 6.9988 0
M  V30 4262 H 422.764 1.44314 2.60725 0
M  V30 4263 H 420.301 0.722643 1.28126 0
M  V30 4264 H 422.259 -0.505504 4.14126 0
M  V30 4265 H 420.889 -0.94303 3.08718 0
M  V30 4266 H 419.941 1.43756 3.52191 0
M  V30 4267 H 421.253 1.68005 4.69655 0
M  V30 4268 H 420.407 -0.239368 6.06228 0
M  V30 4269 H 419.146 -0.576401 4.84282 0
M  V30 4270 H 418.151 1.69571 5.22997 0
M  V30 4271 H 419.376 2.02332 6.48258 0
M  V30 4272 H 417.322 -0.219486 6.55633 0
M  V30 4273 H 417.239 1.26065 7.45415 0
M  V30 4274 H 418.507 0.121095 7.79406 0
M  V30 4275 N 422.737 -1.36956 0.779787 0
M  V30 4276 C 424.153 -1.52817 0.460342 0
M  V30 4277 C 424.353 -1.7361 -1.02283 0
M  V30 4278 O 423.409 -1.76207 -1.80852 0
M  V30 4279 C 424.722 -2.71983 1.28241 0
M  V30 4280 C 426.27 -2.85849 1.27512 0
M  V30 4281 C 426.745 -4.08008 2.08072 0
M  V30 4282 N 428.236 -4.15135 2.05467 0
M  V30 4283 C 428.971 -5.08711 2.64577 0
M  V30 4284 N 428.467 -6.07792 3.32506 0
M  V30 4285 N 430.26 -5.01254 2.54363 0
M  V30 4286 H 422.411 -1.21713 1.74068 0
M  V30 4287 H 424.674 -0.593294 0.739396 0
M  V30 4288 H 424.38 -2.63109 2.33381 0
M  V30 4289 H 424.254 -3.65882 0.917088 0
M  V30 4290 H 426.641 -2.94189 0.231686 0
M  V30 4291 H 426.722 -1.92886 1.68014 0
M  V30 4292 H 426.366 -4.00429 3.12441 0
M  V30 4293 H 426.296 -5.001 1.64947 0
M  V30 4294 H 428.787 -3.44189 1.5602 0
M  V30 4295 H 429.1 -6.75739 3.74963 0
M  V30 4296 H 427.445 -6.08047 3.36606 0
M  V30 4297 H 430.636 -4.22795 2.00902 0
M  V30 4298 H 430.809 -5.73995 3.00722 0
M  V30 4299 N 424.215 -0.530993 -1.48385 0
M  V30 4300 C 425.148 0.278511 -2.26494 0
M  V30 4301 C 426.126 0.943905 -1.32398 0
M  V30 4302 O 427.31 0.968098 -1.61741 0
M  V30 4303 C 424.437 1.39453 -3.08659 0
M  V30 4304 C 423.483 0.840434 -4.18137 0
M  V30 4305 S 424.316 -0.292496 -5.34701 0
M  V30 4306 C 425.472 0.825973 -6.20426 0
M  V30 4307 H 425.705 -0.384365 -2.94805 0
M  V30 4308 H 423.238 -0.316799 -1.51115 0
M  V30 4309 H 425.196 2.03382 -3.56575 0
M  V30 4310 H 423.857 2.02913 -2.3976 0
M  V30 4311 H 423.05 1.67769 -4.75257 0
M  V30 4312 H 422.652 0.277819 -3.72967 0
M  V30 4313 H 424.944 1.72438 -6.55188 0
M  V30 4314 H 425.887 0.292728 -7.07495 0
M  V30 4315 H 426.295 1.10683 -5.53543 0
M  V30 4316 N 425.693 1.55336 -0.266172 0
M  V30 4317 C 426.941 1.99003 0.35246 0
M  V30 4318 C 427.262 1.15591 1.57047 0
M  V30 4319 O 426.532 0.243268 1.94384 0
M  V30 4320 H 425.112 0.735025 0.133217 0
M  V30 4321 H 427.774 1.91367 -0.369434 0
M  V30 4322 H 426.87 3.05289 0.648453 0
M  V30 4323 N 427.171 -0.0066808 1.57599 0
M  V30 4324 C 428.101 -0.999296 2.11036 0
M  V30 4325 C 429.082 -1.36278 1.01795 0
M  V30 4326 O 430.267 -1.4477 1.29442 0
M  V30 4327 C 427.397 -2.29328 2.60818 0
M  V30 4328 C 426.351 -2.07159 3.74525 0
M  V30 4329 C 425.677 -3.42512 4.10596 0
M  V30 4330 C 426.977 -1.43959 5.02069 0
M  V30 4331 H 428.671 -0.554382 2.94223 0
M  V30 4332 H 426.217 -0.265221 1.41536 0
M  V30 4333 H 428.17 -2.99117 2.96828 0
M  V30 4334 H 426.894 -2.7592 1.74745 0
M  V30 4335 H 425.553 -1.39797 3.38899 0
M  V30 4336 H 425.201 -3.86795 3.21556 0
M  V30 4337 H 424.901 -3.28498 4.87199 0
M  V30 4338 H 426.425 -4.13628 4.4916 0
M  V30 4339 H 427.839 -2.03696 5.35893 0
M  V30 4340 H 426.236 -1.40452 5.83432 0
M  V30 4341 H 427.306 -0.407992 4.83181 0
M  V30 4342 N 428.649 -1.55105 -0.279332 0
M  V30 4343 C 429.596 -1.8755 -1.34513 0
M  V30 4344 C 430.566 -0.726384 -1.49375 0
M  V30 4345 O 431.751 -0.977063 -1.63884 0
M  V30 4346 C 428.891 -2.14738 -2.70151 0
M  V30 4347 C 428.004 -3.42285 -2.63562 0
M  V30 4348 C 427.139 -3.59206 -3.91337 0
M  V30 4349 C 426.178 -4.80467 -3.79233 0
M  V30 4350 N 425.315 -4.94079 -4.98829 0
M  V30 4351 H 430.155 -2.78456 -1.06143 0
M  V30 4352 H 427.692 -1.37867 -0.512936 0
M  V30 4353 H 429.65 -2.28501 -3.49061 0
M  V30 4354 H 428.28 -1.27075 -2.96735 0
M  V30 4355 H 427.332 -3.37029 -1.76397 0
M  V30 4356 H 428.644 -4.31328 -2.50515 0
M  V30 4357 H 427.798 -3.72751 -4.78687 0
M  V30 4358 H 426.537 -2.68337 -4.07243 0
M  V30 4359 H 425.542 -4.66932 -2.90266 0
M  V30 4360 H 426.767 -5.72765 -3.64852 0
M  V30 4361 H 424.713 -4.06139 -5.15158 0
M  V30 4362 H 424.63 -5.77156 -4.8829 0
M  V30 4363 H 425.898 -5.12003 -5.8777 0
M  V30 4364 N 430.127 0.543554 -1.4793 0
M  V30 4365 C 431.06 1.66556 -1.55995 0
M  V30 4366 C 432.038 1.57315 -0.411205 0
M  V30 4367 O 433.222 1.7798 -0.620922 0
M  V30 4368 C 430.349 3.04883 -1.47527 0
M  V30 4369 C 429.395 3.32526 -2.67074 0
M  V30 4370 S 430.228 3.20282 -4.29162 0
M  V30 4371 C 431.384 4.61079 -4.23269 0
M  V30 4372 H 431.617 1.59462 -2.50917 0
M  V30 4373 H 429.15 0.725456 -1.36296 0
M  V30 4374 H 431.108 3.84665 -1.43328 0
M  V30 4375 H 429.769 3.09429 -0.539665 0
M  V30 4376 H 428.962 4.33403 -2.5725 0
M  V30 4377 H 428.564 2.60389 -2.68466 0
M  V30 4378 H 430.856 5.52318 -3.92365 0
M  V30 4379 H 431.799 4.75959 -5.24279 0
M  V30 4380 H 432.207 4.39766 -3.5393 0
M  V30 4381 N 431.605 1.3629 0.791371 0
M  V30 4382 C 432.535 1.33137 1.91825 0
M  V30 4383 C 433.516 0.203168 1.68882 0
M  V30 4384 O 434.701 0.400509 1.90025 0
M  V30 4385 C 431.831 1.11793 3.28816 0
M  V30 4386 C 430.785 2.21417 3.66277 0
M  V30 4387 C 430.111 1.85218 5.01596 0
M  V30 4388 C 431.411 3.63489 3.75064 0
M  V30 4389 H 433.105 2.2743 1.9472 0
M  V30 4390 H 430.651 1.09479 0.935437 0
M  V30 4391 H 432.604 1.08222 4.07266 0
M  V30 4392 H 431.328 0.139501 3.26302 0
M  V30 4393 H 429.987 2.2411 2.90121 0
M  V30 4394 H 429.635 0.859544 4.95602 0
M  V30 4395 H 429.335 2.58611 5.27631 0
M  V30 4396 H 430.859 1.832 5.82469 0
M  V30 4397 H 432.273 3.63034 4.43711 0
M  V30 4398 H 430.67 4.35771 4.12582 0
M  V30 4399 H 431.74 3.98536 2.76219 0
M  V30 4400 N 433.083 -1.0153 1.20538 0
M  V30 4401 C 434.016 -2.09759 0.898695 0
M  V30 4402 C 434.994 -1.61909 -0.149733 0
M  V30 4403 O 436.178 -1.88486 -0.0230293 0
M  V30 4404 C 433.305 -3.36913 0.347512 0
M  V30 4405 C 432.351 -4.03655 1.37713 0
M  V30 4406 S 433.184 -4.47402 2.94265 0
M  V30 4407 C 434.34 -5.77756 2.40726 0
M  V30 4408 H 434.573 -2.3545 1.81523 0
M  V30 4409 H 432.106 -1.14665 1.03399 0
M  V30 4410 H 434.064 -4.10484 0.0360518 0
M  V30 4411 H 432.725 -3.09291 -0.547546 0
M  V30 4412 H 431.918 -4.9514 0.940872 0
M  V30 4413 H 431.52 -3.36313 1.63614 0
M  V30 4414 H 433.812 -6.52994 1.80569 0
M  V30 4415 H 434.755 -6.2618 3.30612 0
M  V30 4416 H 435.163 -5.34081 1.82806 0
M  V30 4417 N 434.561 -1.01147 -1.20859 0
M  V30 4418 C 435.494 -0.522108 -2.22147 0
M  V30 4419 C 436.472 0.427686 -1.56874 0
M  V30 4420 O 437.656 0.34889 -1.85243 0
M  V30 4421 C 434.783 0.240819 -3.37843 0
M  V30 4422 C 433.829 -0.657752 -4.21398 0
M  V30 4423 S 434.662 -2.12393 -4.91578 0
M  V30 4424 C 435.818 -1.37102 -6.10699 0
M  V30 4425 H 436.051 -1.38035 -2.63313 0
M  V30 4426 H 433.584 -0.819941 -1.30829 0
M  V30 4427 H 435.542 0.674908 -4.04914 0
M  V30 4428 H 434.203 1.07457 -2.95147 0
M  V30 4429 H 433.396 -0.0697456 -5.03952 0
M  V30 4430 H 432.998 -1.0294 -3.59555 0
M  V30 4431 H 435.29 -0.648315 -6.74391 0
M  V30 4432 H 436.233 -2.17252 -6.73949 0
M  V30 4433 H 436.641 -0.876154 -5.57659 0
M  V30 4434 N 436.039 1.36541 -0.78704 0
M  V30 4435 C 436.972 2.27831 -0.129765 0
M  V30 4436 C 437.95 1.47105 0.692732 0
M  V30 4437 O 439.134 1.7641 0.664222 0
M  V30 4438 C 436.261 3.28577 0.821883 0
M  V30 4439 C 435.307 4.26422 0.0814771 0
M  V30 4440 S 436.14 5.20919 -1.24112 0
M  V30 4441 C 437.296 6.25212 -0.293409 0
M  V30 4442 H 437.529 2.83229 -0.903811 0
M  V30 4443 H 435.062 1.43046 -0.581144 0
M  V30 4444 H 437.02 3.87123 1.3655 0
M  V30 4445 H 435.681 2.72096 1.56916 0
M  V30 4446 H 434.874 4.97554 0.803485 0
M  V30 4447 H 434.476 3.71944 -0.391589 0
M  V30 4448 H 436.768 6.75435 0.528622 0
M  V30 4449 H 437.711 7.01378 -0.973344 0
M  V30 4450 H 438.119 5.64407 0.102196 0
M  V30 4451 N 437.518 0.538854 1.48102 0
M  V30 4452 C 438.481 -0.208395 2.28251 0
M  V30 4453 C 439.481 -0.859656 1.35892 0
M  V30 4454 O 440.671 -0.71834 1.58699 0
M  V30 4455 C 437.803 -1.30252 3.15035 0
M  V30 4456 H 438.996 0.495407 2.9578 0
M  V30 4457 H 436.549 0.295112 1.53489 0
M  V30 4458 H 437.284 -2.0393 2.52157 0
M  V30 4459 H 437.069 -0.840551 3.82985 0
M  V30 4460 H 438.559 -1.82787 3.75471 0
M  V30 4461 N 438.996 -1.55193 0.274407 0
M  V30 4462 C 439.926 -2.25471 -0.607032 0
M  V30 4463 C 440.907 -1.24461 -1.15946 0
M  V30 4464 O 442.092 -1.53179 -1.19373 0
M  V30 4465 C 439.222 -2.97526 -1.79153 0
M  V30 4466 C 438.176 -4.05459 -1.37067 0
M  V30 4467 C 437.502 -4.65084 -2.6382 0
M  V30 4468 C 438.802 -5.19691 -0.521389 0
M  V30 4469 H 440.496 -2.99393 -0.0209343 0
M  V30 4470 H 438.042 -1.43997 -0.00862866 0
M  V30 4471 H 439.995 -3.45402 -2.41404 0
M  V30 4472 H 438.719 -2.21138 -2.40344 0
M  V30 4473 H 437.378 -3.58393 -0.771355 0
M  V30 4474 H 437.026 -3.85365 -3.23268 0
M  V30 4475 H 436.726 -5.37961 -2.36372 0
M  V30 4476 H 438.25 -5.15708 -3.26921 0
M  V30 4477 H 439.664 -5.63623 -1.04889 0
M  V30 4478 H 438.061 -5.99126 -0.341825 0
M  V30 4479 H 439.131 -4.82713 0.46 0
M  V30 4480 N 440.474 -0.00167713 -1.576 0
M  V30 4481 C 441.404 0.988091 -2.11563 0
M  V30 4482 C 442.385 1.35736 -1.02517 0
M  V30 4483 O 443.57 1.44082 -1.30208 0
M  V30 4484 C 440.7 2.27941 -2.62031 0
M  V30 4485 C 439.654 2.0517 -3.75619 0
M  V30 4486 C 438.98 3.4033 -4.12407 0
M  V30 4487 C 440.28 1.41294 -5.02825 0
M  V30 4488 H 441.974 0.538771 -2.94513 0
M  V30 4489 H 439.52 0.257712 -1.41675 0
M  V30 4490 H 441.473 2.97539 -2.9841 0
M  V30 4491 H 440.197 2.74989 -1.76205 0
M  V30 4492 H 438.856 1.37998 -3.39635 0
M  V30 4493 H 438.504 3.85085 -3.23603 0
M  V30 4494 H 438.204 3.25909 -4.88935 0
M  V30 4495 H 439.728 4.1124 -4.51347 0
M  V30 4496 H 441.142 2.00851 -5.36965 0
M  V30 4497 H 439.539 1.37356 -5.84169 0
M  V30 4498 H 440.609 0.382362 -4.8339 0
M  V30 4499 N 441.952 1.55251 0.271103 0
M  V30 4500 C 443.198 1.76207 1.00394 0
M  V30 4501 C 443.531 0.562604 1.85872 0
M  V30 4502 O 442.806 -0.439785 1.89463 0
M  V30 4503 C 443.089 3.06828 1.8849 0
M  V30 4504 C 442.942 4.37134 1.05992 0
M  V30 4505 C 444.261 3.33503 2.87165 0
M  V30 4506 H 441.38 0.641086 0.363562 0
M  V30 4507 H 444.022 1.87982 0.276189 0
M  V30 4508 H 442.172 2.96921 2.5054 0
M  V30 4509 H 443.844 4.59001 0.459978 0
M  V30 4510 H 442.087 4.32275 0.363443 0
M  V30 4511 H 442.758 5.2486 1.70955 0
M  V30 4512 H 445.234 3.43215 2.3525 0
M  V30 4513 H 444.11 4.2616 3.45946 0
M  V30 4514 H 444.371 2.53235 3.62387 0
M  V30 4515 N 443.43 -0.535701 1.48216 0
M  V30 4516 C 444.841 -1.11769 1.49548 0
M  V30 4517 C 445.192 -1.94442 0.26207 0
M  V30 4518 O 444.317 -2.06987 -0.631287 0
M  V30 4519 C 444.912 -2.03367 2.70975 0
M  V30 4520 C 443.471 -2.56795 2.75196 0
M  V30 4521 C 442.618 -1.33631 2.42977 0
M  V30 4522 H 445.569 -0.321232 1.55415 0
M  V30 4523 H 445.59 -2.87569 2.49167 0
M  V30 4524 H 445.102 -1.43169 3.60727 0
M  V30 4525 H 443.203 -3.20731 1.89638 0
M  V30 4526 H 443.316 -2.9632 3.76472 0
M  V30 4527 H 441.68 -1.6502 1.94012 0
M  V30 4528 H 442.463 -0.75194 3.34964 0
M  V30 4529 N 444.908 -1.36708 -0.784132 0
M  V30 4530 C 445.838 -1.34153 -1.91116 0
M  V30 4531 C 446.819 -0.212121 -1.68772 0
M  V30 4532 O 448.004 -0.410581 -1.8981 0
M  V30 4533 C 445.134 -1.13535 -3.28218 0
M  V30 4534 C 444.088 -2.23356 -3.65097 0
M  V30 4535 C 443.414 -1.87875 -5.00607 0
M  V30 4536 C 444.714 -3.65473 -3.73131 0
M  V30 4537 H 446.408 -2.28459 -1.93512 0
M  V30 4538 H 443.954 -1.09973 -0.929618 0
M  V30 4539 H 445.907 -1.10381 -4.06687 0
M  V30 4540 H 444.631 -0.156804 -3.26223 0
M  V30 4541 H 443.29 -2.25645 -2.88929 0
M  V30 4542 H 442.938 -0.885814 -4.95139 0
M  V30 4543 H 442.638 -2.61406 -5.26252 0
M  V30 4544 H 444.162 -1.86286 -5.81489 0
M  V30 4545 H 445.576 -3.65382 -4.41779 0
M  V30 4546 H 443.973 -4.37953 -4.10265 0
M  V30 4547 H 445.043 -3.99995 -2.74102 0
M  V30 4548 N 446.386 1.0089 -1.21074 0
M  V30 4549 C 447.632 1.74866 -1.02712 0
M  V30 4550 C 447.965 1.89178 0.438787 0
M  V30 4551 O 447.24 1.42325 1.32567 0
M  V30 4552 C 447.523 3.16347 -1.72036 0
M  V30 4553 C 447.376 3.09782 -3.26121 0
M  V30 4554 C 448.695 4.15187 -1.45973 0
M  V30 4555 H 445.814 0.634736 -0.374539 0
M  V30 4556 H 448.456 1.17646 -1.49196 0
M  V30 4557 H 446.606 3.65201 -1.32517 0
M  V30 4558 H 448.278 2.68673 -3.74983 0
M  V30 4559 H 446.521 2.46982 -3.56626 0
M  V30 4560 H 447.192 4.09829 -3.6979 0
M  V30 4561 H 449.668 3.75022 -1.80272 0
M  V30 4562 H 448.544 5.12331 -1.96999 0
M  V30 4563 H 448.805 4.40386 -0.388924 0
M  V30 4564 N 447.864 1.01787 1.20321 0
M  V30 4565 C 449.094 0.72614 1.93419 0
M  V30 4566 C 449.502 -0.717317 1.75075 0
M  V30 4567 O 448.845 -1.49836 1.06278 0
M  V30 4568 C 448.907 0.983621 3.45782 0
M  V30 4569 C 448.571 2.41645 3.87888 0
M  V30 4570 C 449.568 3.39732 3.93545 0
M  V30 4571 C 447.253 2.75752 4.19841 0
M  V30 4572 C 449.247 4.69988 4.30569 0
M  V30 4573 C 446.934 4.06221 4.56539 0
M  V30 4574 C 447.932 5.0315 4.61876 0
M  V30 4575 O 447.62 6.31284 4.97731 0
M  V30 4576 H 447.352 0.265824 0.621541 0
M  V30 4577 H 449.906 1.3623 1.53722 0
M  V30 4578 H 448.136 0.290301 3.85609 0
M  V30 4579 H 449.825 0.683279 4.00108 0
M  V30 4580 H 450.591 3.14718 3.69022 0
M  V30 4581 H 446.47 2.00993 4.14877 0
M  V30 4582 H 450.014 5.45642 4.3465 0
M  V30 4583 H 445.911 4.31013 4.80518 0
M  V30 4584 H 446.679 6.35591 5.15719 0
M  V30 4585 N 449.342 -1.36122 0.79427 0
M  V30 4586 C 450.57 -2.03362 0.380989 0
M  V30 4587 C 450.985 -1.59881 -1.00416 0
M  V30 4588 O 450.342 -0.790515 -1.6449 0
M  V30 4589 C 450.393 -3.58804 0.440649 0
M  V30 4590 O 450.114 -4.007 1.77118 0
M  V30 4591 C 451.615 -4.43296 0.0186117 0
M  V30 4592 H 448.835 -0.652526 0.156367 0
M  V30 4593 H 451.379 -1.73998 1.07447 0
M  V30 4594 H 449.534 -3.8686 -0.204458 0
M  V30 4595 H 449.948 -4.95309 1.72538 0
M  V30 4596 H 451.422 -5.51887 0.111488 0
M  V30 4597 H 451.899 -4.2684 -1.03461 0
M  V30 4598 H 452.505 -4.20512 0.636395 0
M  V30 4599 N 450.82 -0.546701 -1.47814 0
M  V30 4600 C 452.069 -0.0166497 -2.01693 0
M  V30 4601 C 452.382 1.33721 -1.42752 0
M  V30 4602 O 453.588 1.95658 -1.8823 0
M  V30 4603 C 452.044 0.0206769 -3.59894 0
M  V30 4604 C 451.652 -1.3293 -4.27824 0
M  V30 4605 C 453.396 0.498674 -4.21561 0
M  V30 4606 C 451.303 -1.25165 -5.78003 0
M  V30 4607 H 450.233 -0.0024541 -0.753996 0
M  V30 4608 H 452.884 -0.692984 -1.69912 0
M  V30 4609 H 451.266 0.76244 -3.88591 0
M  V30 4610 H 452.44 -2.08795 -4.10781 0
M  V30 4611 H 450.755 -1.74438 -3.78101 0
M  V30 4612 H 453.352 0.575 -5.31599 0
M  V30 4613 H 453.695 1.5083 -3.88016 0
M  V30 4614 H 454.228 -0.18791 -3.97356 0
M  V30 4615 H 450.967 -2.23695 -6.1615 0
M  V30 4616 H 450.487 -0.53464 -5.97412 0
M  V30 4617 H 452.166 -0.949299 -6.39998 0
M  V30 4618 N 452.299 1.55045 -0.282633 0
M  V30 4619 C 453.246 2.22822 0.601566 0
M  V30 4620 C 454.216 1.20431 1.14392 0
M  V30 4621 O 455.401 1.48996 1.19184 0
M  V30 4622 C 452.541 2.95873 1.77632 0
M  V30 4623 C 451.654 4.12999 1.26711 0
M  V30 4624 C 450.789 4.73676 2.40426 0
M  V30 4625 C 449.828 5.82981 1.86545 0
M  V30 4626 N 448.965 6.3769 2.93762 0
M  V30 4627 H 453.805 2.97995 0.0169528 0
M  V30 4628 H 451.342 1.471 -0.00339964 0
M  V30 4629 H 453.3 3.36447 2.46697 0
M  V30 4630 H 451.93 2.2311 2.33285 0
M  V30 4631 H 450.982 3.77494 0.469314 0
M  V30 4632 H 452.294 4.91803 0.832518 0
M  V30 4633 H 451.448 5.17008 3.17471 0
M  V30 4634 H 450.187 3.94164 2.87203 0
M  V30 4635 H 449.192 5.39092 1.07983 0
M  V30 4636 H 450.417 6.64366 1.40694 0
M  V30 4637 H 448.363 5.61069 3.39908 0
M  V30 4638 H 448.28 7.11788 2.54744 0
M  V30 4639 H 449.548 6.8568 3.7076 0
M  V30 4640 N 453.777 0.010035 1.57597 0
M  V30 4641 C 455.193 -0.346164 1.55801 0
M  V30 4642 C 455.393 -1.74144 1.01371 0
M  V30 4643 O 454.449 -2.43938 0.651968 0
M  V30 4644 C 455.762 -0.212216 2.9995 0
M  V30 4645 C 457.31 -0.286409 3.11687 0
M  V30 4646 C 457.785 -0.18147 4.5764 0
M  V30 4647 N 459.276 -0.239056 4.62583 0
M  V30 4648 C 460.011 -0.181351 5.73113 0
M  V30 4649 N 459.507 -0.073661 6.92761 0
M  V30 4650 N 461.3 -0.233949 5.61613 0
M  V30 4651 H 453.451 0.922657 1.91313 0
M  V30 4652 H 455.714 0.354595 0.879185 0
M  V30 4653 H 455.42 0.748169 3.4365 0
M  V30 4654 H 455.294 -0.990224 3.6397 0
M  V30 4655 H 457.681 -1.23724 2.67911 0
M  V30 4656 H 457.762 0.521645 2.50425 0
M  V30 4657 H 457.406 0.765863 5.02093 0
M  V30 4658 H 457.336 -1.00814 5.1686 0
M  V30 4659 H 459.827 -0.32321 3.76515 0
M  V30 4660 H 460.14 -0.0358003 7.72792 0
M  V30 4661 H 458.485 -0.0391461 6.94989 0
M  V30 4662 H 461.676 -0.316347 4.6703 0
M  V30 4663 H 461.849 -0.185514 6.47734 0
M  V30 4664 N 455.255 -1.55392 -0.262866 0
M  V30 4665 C 456.205 -1.85355 -1.32768 0
M  V30 4666 C 457.189 -0.713188 -1.44231 0
M  V30 4667 O 458.381 -0.974765 -1.47741 0
M  V30 4668 C 455.51 -2.13781 -2.68612 0
M  V30 4669 C 454.596 -3.34104 -2.61219 0
M  V30 4670 N 454.987 -4.53766 -2.2345 0
M  V30 4671 C 453.285 -3.36895 -2.92263 0
M  V30 4672 C 453.986 -5.35877 -2.26298 0
M  V30 4673 N 452.962 -4.74536 -2.65172 0
M  V30 4674 H 456.764 -2.75413 -1.02591 0
M  V30 4675 H 454.278 -1.55405 -0.471503 0
M  V30 4676 H 456.275 -2.33407 -3.45437 0
M  V30 4677 H 454.935 -1.25013 -2.99669 0
M  V30 4678 H 455.946 -4.79682 -1.95258 0
M  V30 4679 H 452.623 -2.58351 -3.27965 0
M  V30 4680 H 454.013 -6.41577 -1.99572 0
M  V30 4681 N 456.733 0.527833 -1.48498 0
M  V30 4682 C 457.68 1.6322 -1.6318 0
M  V30 4683 C 458.65 1.59199 -0.473815 0
M  V30 4684 O 459.835 1.77591 -0.697563 0
M  V30 4685 C 456.975 3.01474 -1.67951 0
M  V30 4686 C 456.088 3.15713 -2.94871 0
M  V30 4687 C 455.223 4.44539 -2.90789 0
M  V30 4688 C 454.262 4.52315 -4.12404 0
M  V30 4689 N 453.399 5.72533 -4.06387 0
M  V30 4690 H 458.239 1.50011 -2.57489 0
M  V30 4691 H 455.776 0.730298 -1.27691 0
M  V30 4692 H 457.734 3.81572 -1.68698 0
M  V30 4693 H 456.364 3.1345 -0.771306 0
M  V30 4694 H 455.416 2.28854 -3.03859 0
M  V30 4695 H 456.728 3.1732 -3.8485 0
M  V30 4696 H 455.882 5.3293 -2.89949 0
M  V30 4697 H 454.621 4.45457 -1.98542 0
M  V30 4698 H 453.626 3.62331 -4.13517 0
M  V30 4699 H 454.851 4.53134 -5.05812 0
M  V30 4700 H 452.797 5.74344 -3.16962 0
M  V30 4701 H 452.714 5.75643 -4.90073 0
M  V30 4702 H 453.982 6.63204 -4.0961 0
M  V30 4703 N 458.211 1.37122 0.776871 0
M  V30 4704 C 459.457 1.3325 1.53675 0
M  V30 4705 C 459.812 -0.0839891 1.92217 0
M  V30 4706 O 459.105 -1.04145 1.60824 0
M  V30 4707 C 459.299 2.20068 2.81611 0
M  V30 4708 C 459.128 3.70016 2.55574 0
M  V30 4709 C 457.898 4.39144 2.4996 0
M  V30 4710 C 460.096 4.62996 2.23917 0
M  V30 4711 N 458.078 5.74663 2.15953 0
M  V30 4712 C 459.449 5.86854 2.00005 0
M  V30 4713 C 461.504 4.51433 2.1003 0
M  V30 4714 C 460.207 7.00446 1.63609 0
M  V30 4715 C 462.233 5.64905 1.75033 0
M  V30 4716 C 461.595 6.8781 1.51977 0
M  V30 4717 H 457.694 0.542878 0.562856 0
M  V30 4718 H 460.278 1.72295 0.906784 0
M  V30 4719 H 458.449 1.83248 3.42454 0
M  V30 4720 H 460.181 2.07492 3.47461 0
M  V30 4721 H 456.936 3.92088 2.65639 0
M  V30 4722 H 457.36 6.46268 2.0166 0
M  V30 4723 H 462.002 3.56987 2.26539 0
M  V30 4724 H 459.72 7.94831 1.45837 0
M  V30 4725 H 463.306 5.57926 1.64952 0
M  V30 4726 H 462.186 7.74126 1.25296 0
M  V30 4727 N 459.689 -1.00246 1.21608 0
M  V30 4728 C 460.914 -1.78167 1.06167 0
M  V30 4729 C 461.339 -1.84138 -0.384035 0
M  V30 4730 O 460.697 -1.28683 -1.27712 0
M  V30 4731 C 460.745 -3.19786 1.66642 0
M  V30 4732 O 459.849 -4.02153 0.913613 0
M  V30 4733 H 459.19 -0.549 0.37349 0
M  V30 4734 H 461.72 -1.25994 1.61204 0
M  V30 4735 H 461.73 -3.70451 1.70969 0
M  V30 4736 H 460.405 -3.14754 2.7185 0
M  V30 4737 H 458.982 -3.60711 0.945635 0
M  V30 4738 N 461.167 -1.02423 -1.1978 0
M  V30 4739 C 462.413 -0.719051 -1.89625 0
M  V30 4740 C 462.746 0.750083 -1.7913 0
M  V30 4741 O 462.021 1.54574 -1.18056 0
M  V30 4742 C 462.304 -1.16499 -3.40735 0
M  V30 4743 C 462.157 -2.695 -3.60125 0
M  V30 4744 C 463.476 -0.742166 -4.33797 0
M  V30 4745 H 460.595 -0.26269 -0.688595 0
M  V30 4746 H 463.237 -1.27333 -1.41018 0
M  V30 4747 H 461.387 -0.69341 -3.82262 0
M  V30 4748 H 463.059 -3.24569 -3.278 0
M  V30 4749 H 461.302 -3.10113 -3.03336 0
M  V30 4750 H 461.973 -2.95757 -4.66081 0
M  V30 4751 H 464.449 -1.1477 -3.99959 0
M  V30 4752 H 463.325 -1.08213 -5.38127 0
M  V30 4753 H 463.586 0.355747 -4.40666 0
M  V30 4754 N 462.645 1.35699 -0.801477 0
M  V30 4755 C 463.575 2.32436 -0.222658 0
M  V30 4756 C 464.556 1.5723 0.649057 0
M  V30 4757 O 465.741 1.85324 0.580387 0
M  V30 4758 C 462.871 3.41469 0.633719 0
M  V30 4759 C 461.825 4.27774 -0.139083 0
M  V30 4760 C 461.151 5.28082 0.838666 0
M  V30 4761 C 462.451 5.04946 -1.33517 0
M  V30 4762 H 464.145 2.81094 -1.03086 0
M  V30 4763 H 461.691 1.35146 -0.497155 0
M  V30 4764 H 463.644 4.08143 1.04868 0
M  V30 4765 H 462.368 2.91408 1.47475 0
M  V30 4766 H 461.027 3.62673 -0.535156 0
M  V30 4767 H 460.675 4.7429 1.67506 0
M  V30 4768 H 460.375 5.86695 0.32594 0
M  V30 4769 H 461.899 5.97628 1.25194 0
M  V30 4770 H 463.313 5.64593 -0.995349 0
M  V30 4771 H 461.71 5.7303 -1.78202 0
M  V30 4772 H 462.78 4.35886 -2.12442 0
M  V30 4773 N 464.123 0.554532 1.47522 0
M  V30 4774 C 465.07 -0.19466 2.29978 0
M  V30 4775 C 466.04 -0.910882 1.38896 0
M  V30 4776 O 467.225 -0.907102 1.67858 0
M  V30 4777 C 464.365 -1.22035 3.22802 0
M  V30 4778 C 463.478 -0.510474 4.28973 0
M  V30 4779 C 462.613 -1.52123 5.08952 0
M  V30 4780 C 461.652 -0.796173 6.069 0
M  V30 4781 N 460.789 -1.75363 6.79847 0
M  V30 4782 H 465.629 0.51461 2.93523 0
M  V30 4783 H 463.166 0.265607 1.44682 0
M  V30 4784 H 465.124 -1.8276 3.7504 0
M  V30 4785 H 463.754 -1.89769 2.61127 0
M  V30 4786 H 462.806 0.211234 3.79813 0
M  V30 4787 H 464.118 0.0576503 4.98767 0
M  V30 4788 H 463.272 -2.20207 5.65326 0
M  V30 4789 H 462.011 -2.12327 4.39054 0
M  V30 4790 H 461.016 -0.101388 5.49707 0
M  V30 4791 H 462.241 -0.199911 6.78806 0
M  V30 4792 H 460.187 -2.3443 6.12682 0
M  V30 4793 H 460.104 -1.23759 7.45801 0
M  V30 4794 H 461.372 -2.4257 7.40797 0
M  V30 4795 N 465.601 -1.54893 0.290851 0
M  V30 4796 C 466.826 -2.04804 -0.32712 0
M  V30 4797 C 467.251 -1.16721 -1.47506 0
M  V30 4798 O 466.609 -0.169107 -1.8051 0
M  V30 4799 C 466.657 -3.52268 -0.770689 0
M  V30 4800 O 465.761 -3.67236 -1.87647 0
M  V30 4801 H 465.102 -0.660789 -0.0652227 0
M  V30 4802 H 467.632 -2.00036 0.429739 0
M  V30 4803 H 467.642 -3.9393 -1.06223 0
M  V30 4804 H 466.317 -4.15843 0.069096 0
M  V30 4805 H 464.894 -3.37479 -1.58626 0
M  V30 4806 N 467.08 -0.0183926 -1.57589 0
M  V30 4807 C 468.496 0.337897 -1.55982 0
M  V30 4808 C 468.696 1.73604 -1.02294 0
M  V30 4809 O 467.752 2.43589 -0.664895 0
M  V30 4810 C 469.065 0.196305 -3.00059 0
M  V30 4811 C 470.613 0.269875 -3.11834 0
M  V30 4812 C 471.088 0.157197 -4.5773 0
M  V30 4813 N 472.579 0.214521 -4.62703 0
M  V30 4814 C 473.314 0.150955 -5.73201 0
M  V30 4815 N 472.81 0.0369212 -6.9279 0
M  V30 4816 N 474.603 0.204162 -5.61729 0
M  V30 4817 H 466.754 -0.93279 -1.90821 0
M  V30 4818 H 469.017 -0.359253 -0.877292 0
M  V30 4819 H 468.723 -0.766383 -3.43248 0
M  V30 4820 H 468.597 0.970908 -3.6449 0
M  V30 4821 H 470.984 1.22302 -2.68563 0
M  V30 4822 H 471.065 -0.534918 -2.50144 0
M  V30 4823 H 470.709 -0.792479 -5.01679 0
M  V30 4824 H 470.639 0.980717 -5.17387 0
M  V30 4825 H 473.13 0.303238 -3.76681 0
M  V30 4826 H 473.443 -0.00518321 -7.728 0
M  V30 4827 H 471.788 0.0022886 -6.95 0
M  V30 4828 H 474.979 0.291575 -4.67191 0
M  V30 4829 H 475.152 0.15116 -6.47824 0
M  V30 4830 N 468.558 1.5553 0.254621 0
M  V30 4831 C 469.505 1.89666 1.31512 0
M  V30 4832 C 470.475 0.750057 1.482 0
M  V30 4833 O 471.66 1.00301 1.62309 0
M  V30 4834 C 468.8 2.19009 2.667 0
M  V30 4835 C 467.913 3.46435 2.58083 0
M  V30 4836 C 467.048 3.65386 3.85573 0
M  V30 4837 C 466.087 4.8644 3.71541 0
M  V30 4838 N 465.224 5.01952 4.90906 0
M  V30 4839 H 470.064 2.80109 1.017 0
M  V30 4840 H 467.601 1.38666 0.490938 0
M  V30 4841 H 469.559 2.34025 3.45381 0
M  V30 4842 H 468.189 1.31779 2.94676 0
M  V30 4843 H 467.241 3.39792 1.71013 0
M  V30 4844 H 468.553 4.35258 2.43622 0
M  V30 4845 H 467.707 3.80319 4.72697 0
M  V30 4846 H 466.446 2.74781 4.02922 0
M  V30 4847 H 465.451 4.71491 2.82801 0
M  V30 4848 H 466.676 5.78497 3.55694 0
M  V30 4849 H 464.622 4.14283 5.08631 0
M  V30 4850 H 464.539 5.84851 4.79046 0
M  V30 4851 H 465.807 5.21289 5.7955 0
M  V30 4852 N 470.036 -0.519951 1.48776 0
M  V30 4853 C 470.966 -1.63253 1.66945 0
M  V30 4854 C 471.947 -1.62014 0.518224 0
M  V30 4855 O 473.132 -1.79053 0.751919 0
M  V30 4856 C 470.262 -3.0181 1.71836 0
M  V30 4857 C 469.216 -3.17911 2.8656 0
M  V30 4858 C 468.542 -4.5763 2.76548 0
M  V30 4859 C 469.842 -2.99729 4.27738 0
M  V30 4860 H 471.536 -1.48302 2.6009 0
M  V30 4861 H 469.082 -0.712026 1.25165 0
M  V30 4862 H 471.035 -3.79525 1.83135 0
M  V30 4863 H 469.759 -3.17806 0.752775 0
M  V30 4864 H 468.418 -2.42616 2.74833 0
M  V30 4865 H 468.066 -4.70476 1.77937 0
M  V30 4866 H 467.766 -4.69346 3.53536 0
M  V30 4867 H 469.29 -5.37431 2.89828 0
M  V30 4868 H 470.704 -3.67228 4.40246 0
M  V30 4869 H 469.101 -3.22932 5.05801 0
M  V30 4870 H 470.171 -1.96047 4.43502 0
M  V30 4871 N 471.514 -1.37532 -0.769588 0
M  V30 4872 C 472.477 -1.33292 -1.86456 0
M  V30 4873 C 473.477 -0.236537 -1.59051 0
M  V30 4874 O 474.667 -0.492511 -1.67093 0
M  V30 4875 C 471.799 -1.07118 -3.23633 0
M  V30 4876 H 472.992 -2.30692 -1.91628 0
M  V30 4877 H 470.545 -1.22593 -0.969572 0
M  V30 4878 H 471.28 -0.102578 -3.24138 0
M  V30 4879 H 471.065 -1.86479 -3.44917 0
M  V30 4880 H 472.555 -1.06806 -4.03711 0
M  V30 4881 N 472.992 0.995999 -1.22138 0
M  V30 4882 C 474.222 1.76809 -1.06874 0
M  V30 4883 C 474.63 1.85265 0.383866 0
M  V30 4884 O 473.973 1.31969 1.27789 0
M  V30 4885 C 474.035 3.2186 -1.60144 0
M  V30 4886 C 473.699 3.36958 -3.0872 0
M  V30 4887 C 474.696 3.2452 -4.0618 0
M  V30 4888 C 472.381 3.62109 -3.48112 0
M  V30 4889 C 474.375 3.37013 -5.41019 0
M  V30 4890 C 472.062 3.74243 -4.831 0
M  V30 4891 C 473.06 3.61702 -5.79362 0
M  V30 4892 O 472.748 3.73436 -7.119 0
M  V30 4893 H 472.48 0.562207 -0.375365 0
M  V30 4894 H 475.034 1.26113 -1.62125 0
M  V30 4895 H 473.264 3.73734 -0.992981 0
M  V30 4896 H 474.953 3.80775 -1.40589 0
M  V30 4897 H 475.719 3.05004 -3.77091 0
M  V30 4898 H 471.598 3.70949 -2.73712 0
M  V30 4899 H 475.142 3.27141 -6.16137 0
M  V30 4900 H 471.039 3.93266 -5.11872 0
M  V30 4901 H 471.807 3.90328 -7.19435 0
M  V30 4902 N 474.47 1.03057 1.19235 0
M  V30 4903 C 475.886 0.747947 1.40989 0
M  V30 4904 C 476.086 -0.666752 1.90149 0
M  V30 4905 O 475.142 -1.43249 2.07933 0
M  V30 4906 C 476.455 1.7855 2.41951 0
M  V30 4907 C 478.003 1.80524 2.55695 0
M  V30 4908 C 478.478 2.83243 3.59913 0
M  V30 4909 N 479.969 2.8207 3.67411 0
M  V30 4910 C 480.704 3.58204 4.47747 0
M  V30 4911 N 480.2 4.44057 5.31775 0
M  V30 4912 N 481.993 3.46738 4.42413 0
M  V30 4913 H 474.144 1.94367 0.856468 0
M  V30 4914 H 476.407 0.840412 0.438647 0
M  V30 4915 H 476.113 2.79973 2.12857 0
M  V30 4916 H 475.987 1.6092 3.41152 0
M  V30 4917 H 478.374 0.79778 2.84112 0
M  V30 4918 H 478.455 2.02229 1.56643 0
M  V30 4919 H 478.099 3.84161 3.32239 0
M  V30 4920 H 478.029 2.58795 4.5862 0
M  V30 4921 H 480.52 2.19803 3.074 0
M  V30 4922 H 480.833 4.98884 5.90199 0
M  V30 4923 H 479.178 4.48129 5.3123 0
M  V30 4924 H 482.369 2.79077 3.75811 0
M  V30 4925 H 482.542 4.06322 5.04783 0
M  V30 4926 N 475.948 -1.35272 0.808662 0
M  V30 4927 C 477.359 -1.81179 0.450688 0
M  V30 4928 C 477.71 -1.67143 -1.02751 0
M  V30 4929 O 476.835 -1.20325 -1.79864 0
M  V30 4930 C 477.43 -3.28943 0.811275 0
M  V30 4931 C 475.989 -3.72985 0.505871 0
M  V30 4932 C 475.136 -2.57229 1.03578 0
M  V30 4933 H 478.087 -1.2322 1.00012 0
M  V30 4934 H 478.108 -3.80342 0.109588 0
M  V30 4935 H 477.62 -3.39127 1.88718 0
M  V30 4936 H 475.721 -3.68349 -0.561209 0
M  V30 4937 H 475.834 -4.67677 1.03995 0
M  V30 4938 H 474.198 -2.50548 0.458005 0
M  V30 4939 H 474.981 -2.7019 2.11784 0
M  V30 4940 N 477.426 -0.562348 -1.47226 0
M  V30 4941 C 478.837 -0.130325 -1.86245 0
M  V30 4942 C 479.188 1.30128 -1.46838 0
M  V30 4943 O 478.313 1.97974 -0.873805 0
M  V30 4944 C 478.908 -0.229738 -3.3802 0
M  V30 4945 C 477.467 0.14728 -3.76112 0
M  V30 4946 C 476.614 -0.574971 -2.71274 0
M  V30 4947 H 479.565 -0.771773 -1.3867 0
M  V30 4948 H 479.586 0.550316 -3.76499 0
M  V30 4949 H 479.098 -1.27178 -3.66671 0
M  V30 4950 H 477.199 1.19023 -3.53078 0
M  V30 4951 H 477.312 -0.214858 -4.78618 0
M  V30 4952 H 475.676 -0.0174756 -2.54694 0
M  V30 4953 H 476.459 -1.61827 -3.02766 0
M  V30 4954 N 478.904 1.54736 -0.299062 0
M  V30 4955 C 479.851 2.23448 0.577899 0
M  V30 4956 C 480.821 1.21637 1.13109 0
M  V30 4957 O 482.006 1.50252 1.17597 0
M  V30 4958 C 479.146 2.9774 1.74484 0
M  V30 4959 C 478.259 4.1432 1.22323 0
M  V30 4960 C 477.394 4.76199 2.35388 0
M  V30 4961 C 476.433 5.84927 1.80351 0
M  V30 4962 N 475.57 6.4077 2.86982 0
M  V30 4963 H 480.41 2.97996 -0.0146545 0
M  V30 4964 H 477.947 1.47088 -0.0190013 0
M  V30 4965 H 479.905 3.39045 2.43114 0
M  V30 4966 H 478.535 2.25572 2.30905 0
M  V30 4967 H 477.587 3.7797 0.429249 0
M  V30 4968 H 478.899 4.92659 0.780309 0
M  V30 4969 H 478.053 5.20346 3.11969 0
M  V30 4970 H 476.792 3.97188 2.83006 0
M  V30 4971 H 475.797 5.40207 1.02259 0
M  V30 4972 H 477.022 6.65821 1.3364 0
M  V30 4973 H 474.968 5.64643 3.33938 0
M  V30 4974 H 474.885 7.1445 2.4718 0
M  V30 4975 H 476.153 6.89574 3.63466 0
M  V30 4976 O 480.421 0.165592 1.60649 0
M  V30 4977 H 481.112 -0.425141 1.88977 0
M  V30 END ATOM
M  V30 BEGIN BOND
M  V30 END BOND
M  V30 END CTAB
M  END
$$$$
