drugbank_target|Q9X6R4 Prolyl endopeptidase (DB03535)
 OpenBabel12092120533D

  0  0  0     0  0            999 V3000
M  V30 BEGIN CTAB
M  V30 COUNTS 10633 10779 0 0 0
M  V30 BEGIN ATOM
M  V30 1 H -0.908 1.98254 -0.117106 0
M  V30 2 N 0 1.576 0 0
M  V30 3 C 0.933 2.03868 1.02534 0
M  V30 4 C 1.911 0.928543 1.3348 0
M  V30 5 O 3.095 1.19667 1.45644 0
M  V30 6 C 0.222 2.43627 2.35294 0
M  V30 7 C -0.732 3.65373 2.2001 0
M  V30 8 S 0.101 5.13292 1.52614 0
M  V30 9 C 1.257 5.56322 2.86805 0
M  V30 10 H 1.49 2.90518 0.631377 0
M  V30 11 H -0.977 1.52953 0.210867 0
M  V30 12 H 0.981 2.67203 3.11629 0
M  V30 13 H -0.358 1.57376 2.7183 0
M  V30 14 H -1.165 3.90944 3.18086 0
M  V30 15 H -1.563 3.418 1.51819 0
M  V30 16 H 0.729 5.58782 3.83104 0
M  V30 17 H 1.672 6.56266 2.65933 0
M  V30 18 H 2.08 4.83886 2.90714 0
M  V30 19 N 1.4781 -0.272755 1.55222 0
M  V30 20 C 2.7031 -1.02683 1.80197 0
M  V30 21 C 3.1281 -1.79142 0.573551 0
M  V30 22 O 2.4861 -1.74917 -0.476849 0
M  V30 23 C 2.5341 -1.9609 3.02624 0
M  V30 24 O 1.6381 -3.04863 2.77727 0
M  V30 25 H 0.9791 -0.293557 0.595584 0
M  V30 26 H 3.5091 -0.30159 2.02365 0
M  V30 27 H 3.5191 -2.38039 3.31363 0
M  V30 28 H 2.1941 -1.39851 3.91682 0
M  V30 29 H 0.7711 -2.67228 2.60084 0
M  V30 30 N 2.9562 -1.48159 -0.537278 0
M  V30 31 C 4.2042 -1.55497 -1.29094 0
M  V30 32 C 4.5252 -0.227454 -1.93669 0
M  V30 33 O 3.7952 0.750386 -1.80959 0
M  V30 34 H 2.3752 -0.572832 -0.47945 0
M  V30 35 H 5.0372 -1.84579 -0.625818 0
M  V30 36 H 4.1332 -2.33216 -2.07405 0
M  V30 37 N 4.4343 0.785586 -1.36625 0
M  V30 38 C 5.3813 1.89838 -1.31264 0
M  V30 39 C 6.3513 1.65115 -0.180633 0
M  V30 40 O 7.5363 1.87222 -0.36777 0
M  V30 41 C 4.6763 3.26706 -1.11163 0
M  V30 42 C 3.7893 3.63476 -2.33472 0
M  V30 43 C 2.9243 4.89481 -2.06353 0
M  V30 44 C 1.9633 5.18941 -3.24602 0
M  V30 45 N 1.1003 6.36131 -2.97123 0
M  V30 46 H 5.9403 1.93756 -2.26413 0
M  V30 47 H 3.4773 0.947454 -1.12524 0
M  V30 48 H 5.4353 4.05639 -0.975337 0
M  V30 49 H 4.0653 3.222 -0.196674 0
M  V30 50 H 3.1173 2.79636 -2.57891 0
M  V30 51 H 4.4293 3.81193 -3.21704 0
M  V30 52 H 3.5833 5.76288 -1.89675 0
M  V30 53 H 2.3223 4.73841 -1.15437 0
M  V30 54 H 1.3273 4.30615 -3.41834 0
M  V30 55 H 2.5523 5.36498 -4.16349 0
M  V30 56 H 0.4983 6.21875 -2.08823 0
M  V30 57 H 0.4153 6.54198 -3.78894 0
M  V30 58 H 1.6833 7.2591 -2.84033 0
M  V30 59 N 5.9124 1.20967 1.01018 0
M  V30 60 C 6.8754 0.965918 2.07853 0
M  V30 61 C 7.8754 -0.0610545 1.60684 0
M  V30 62 O 9.0654 0.175681 1.73312 0
M  V30 63 C 6.1974 0.455513 3.37843 0
M  V30 64 H 7.3904 1.91365 2.3091 0
M  V30 65 H 4.9434 1.02594 1.17916 0
M  V30 66 H 5.6784 -0.497381 3.20463 0
M  V30 67 H 5.4634 1.19622 3.73407 0
M  V30 68 H 6.9534 0.304667 4.16487 0
M  V30 69 N 7.3905 -1.2043 1.01659 0
M  V30 70 C 8.8065 -1.41852 0.731442 0
M  V30 71 C 9.0065 -1.89358 -0.688898 0
M  V30 72 O 8.0625 -2.06247 -1.45666 0
M  V30 73 C 9.3755 -2.44019 1.75714 0
M  V30 74 C 10.9235 -2.57785 1.77527 0
M  V30 75 C 11.3985 -3.63194 2.79023 0
M  V30 76 N 12.8895 -3.70678 2.77763 0
M  V30 77 C 13.6245 -4.51897 3.52954 0
M  V30 78 N 13.1205 -5.36921 4.37821 0
M  V30 79 N 14.9135 -4.4643 3.41551 0
M  V30 80 H 7.0645 -0.879093 1.93354 0
M  V30 81 H 9.3275 -0.448425 0.835236 0
M  V30 82 H 9.0335 -2.1611 2.77469 0
M  V30 83 H 8.9075 -3.43007 1.56927 0
M  V30 84 H 11.2945 -2.85023 0.764569 0
M  V30 85 H 11.3755 -1.58992 2.00387 0
M  V30 86 H 11.0195 -3.36699 3.80258 0
M  V30 87 H 10.9495 -4.61609 2.53425 0
M  V30 88 H 13.4405 -3.09944 2.16201 0
M  V30 89 H 13.7535 -5.95981 4.91962 0
M  V30 90 H 12.0985 -5.36424 4.41899 0
M  V30 91 H 15.2895 -3.79042 2.74672 0
M  V30 92 H 15.4625 -5.09491 4.00404 0
M  V30 93 N 8.8686 -0.792821 -1.36206 0
M  V30 94 C 9.7986 -0.207853 -2.32573 0
M  V30 95 C 10.7796 0.659055 -1.56813 0
M  V30 96 O 11.9646 0.592176 -1.84951 0
M  V30 97 C 9.0946 0.655449 -3.41059 0
M  V30 98 C 8.0486 -0.111842 -4.27854 0
M  V30 99 C 7.3746 0.872274 -5.27537 0
M  V30 100 C 8.6746 -1.30299 -5.05786 0
M  V30 101 H 10.3686 -1.01294 -2.81744 0
M  V30 102 H 7.9146 -0.48854 -1.3546 0
M  V30 103 H 9.8676 1.07464 -4.07467 0
M  V30 104 H 8.5916 1.49328 -2.90463 0
M  V30 105 H 7.2506 -0.512053 -3.63006 0
M  V30 106 H 6.8986 1.70523 -4.73214 0
M  V30 107 H 6.5986 0.363291 -5.86476 0
M  V30 108 H 8.1226 1.28996 -5.96818 0
M  V30 109 H 9.5366 -0.959379 -5.65216 0
M  V30 110 H 7.9336 -1.7455 -5.74154 0
M  V30 111 H 9.0036 -2.09663 -4.37229 0
M  V30 112 N 10.3467 1.47872 -0.545128 0
M  V30 113 C 11.2967 2.26842 0.229456 0
M  V30 114 C 12.2807 1.33626 0.896267 0
M  V30 115 O 13.4727 1.58063 0.79657 0
M  V30 116 C 10.6017 3.19089 1.26638 0
M  V30 117 C 9.6877 4.19783 0.603598 0
M  V30 118 N 10.0787 5.0479 -0.319405 0
M  V30 119 C 8.3767 4.3765 0.858989 0
M  V30 120 C 9.0777 5.77433 -0.703241 0
M  V30 121 N 8.0537 5.43566 -0.0608309 0
M  V30 122 H 11.8557 2.89947 -0.480391 0
M  V30 123 H 9.3697 1.58263 -0.364209 0
M  V30 124 H 11.3667 3.74337 1.83515 0
M  V30 125 H 10.0267 2.5754 1.97745 0
M  V30 126 H 11.0377 5.13244 -0.692889 0
M  V30 127 H 7.7147 3.87281 1.55948 0
M  V30 128 H 9.1047 6.55824 -1.46098 0
M  V30 129 N 11.8248 0.280983 1.55075 0
M  V30 130 C 13.0548 -0.336804 2.03836 0
M  V30 131 C 13.4628 -1.49577 1.15859 0
M  V30 132 O 12.8058 -1.82888 0.172503 0
M  V30 133 C 12.8678 -0.874616 3.48699 0
M  V30 134 C 12.5318 0.156478 4.56732 0
M  V30 135 C 13.5288 0.978032 5.10618 0
M  V30 136 C 11.2138 0.292409 5.01448 0
M  V30 137 C 13.2078 1.92165 6.07743 0
M  V30 138 C 10.8948 1.23949 5.98398 0
M  V30 139 C 11.8928 2.05261 6.51427 0
M  V30 140 O 11.5808 2.98367 7.4648 0
M  V30 141 H 11.3128 -0.0800885 0.671239 0
M  V30 142 H 13.8668 0.412589 2.01213 0
M  V30 143 H 12.0968 -1.67418 3.4858 0
M  V30 144 H 13.7858 -1.40612 3.80766 0
M  V30 145 H 14.5518 0.883782 4.7688 0
M  V30 146 H 10.4308 -0.330498 4.59814 0
M  V30 147 H 13.9748 2.55672 6.49059 0
M  V30 148 H 9.8718 1.33454 6.31554 0
M  V30 149 H 10.6398 2.93116 7.64215 0
M  V30 150 N 13.3029 -1.57598 0.00835791 0
M  V30 151 C 14.7139 -1.7892 -0.53333 0
M  V30 152 C 15.0649 -0.916609 -1.73473 0
M  V30 153 O 14.1899 -0.121336 -2.1606 0
M  V30 154 C 14.7849 -3.24488 -0.974313 0
M  V30 155 C 13.3439 -3.46878 -1.46125 0
M  V30 156 C 12.4909 -2.74157 -0.416302 0
M  V30 157 H 15.4419 -1.56958 0.234495 0
M  V30 158 H 15.4629 -3.3306 -1.83988 0
M  V30 159 H 14.9749 -3.87972 -0.099718 0
M  V30 160 H 13.0759 -2.8862 -2.35646 0
M  V30 161 H 13.1889 -4.55572 -1.48295 0
M  V30 162 H 11.5529 -2.39022 -0.87981 0
M  V30 163 H 12.3359 -3.40345 0.44947 0
M  V30 164 N 14.781 0.264519 -1.55364 0
M  V30 165 C 16.027 0.99646 -1.76631 0
M  V30 166 C 16.36 1.85632 -0.570478 0
M  V30 167 O 15.635 1.89647 0.43175 0
M  V30 168 C 15.918 1.87187 -3.07625 0
M  V30 169 C 15.771 1.04138 -4.37579 0
M  V30 170 C 17.09 2.85749 -3.34717 0
M  V30 171 H 14.209 0.360841 -0.642622 0
M  V30 172 H 16.851 0.268218 -1.88097 0
M  V30 173 H 15.001 2.49279 -2.9798 0
M  V30 174 H 16.673 0.440517 -4.59192 0
M  V30 175 H 14.916 0.345115 -4.32425 0
M  V30 176 H 15.587 1.68729 -5.2558 0
M  V30 177 H 18.063 2.33793 -3.4421 0
M  V30 178 H 16.939 3.44136 -4.27623 0
M  V30 179 H 17.2 3.61311 -2.54768 0
M  V30 180 N 16.2591 1.48442 0.529413 0
M  V30 181 C 17.4871 1.60151 1.30994 0
M  V30 182 C 17.9021 0.261985 1.86973 0
M  V30 183 O 17.2591 -0.748805 1.66431 0
M  V30 184 C 17.3101 2.64854 2.46038 0
M  V30 185 O 17.0311 3.93608 1.92365 0
M  V30 186 C 18.5321 2.87007 3.37849 0
M  V30 187 H 15.7521 0.539971 0.398338 0
M  V30 188 H 18.2961 1.94273 0.638597 0
M  V30 189 H 16.4511 2.33589 3.09055 0
M  V30 190 H 16.8651 4.51055 2.67675 0
M  V30 191 H 18.3391 3.64068 4.14919 0
M  V30 192 H 18.8161 1.95852 3.93114 0
M  V30 193 H 19.4221 3.19579 2.80623 0
M  V30 194 N 17.7372 -0.778329 1.37039 0
M  V30 195 C 19.1532 -1.07796 1.17695 0
M  V30 196 C 19.3532 -2.01498 0.00860115 0
M  V30 197 O 18.4092 -2.43901 -0.653352 0
M  V30 198 C 19.7222 -1.68178 2.49272 0
M  V30 199 C 21.2702 -1.80467 2.55735 0
M  V30 200 C 21.7452 -2.44263 3.87427 0
M  V30 201 N 23.2362 -2.51721 3.88833 0
M  V30 202 C 23.9712 -3.01919 4.87476 0
M  V30 203 N 23.4672 -3.5234 5.96513 0
M  V30 204 N 25.2602 -3.00733 4.74885 0
M  V30 205 H 17.4112 -0.156032 2.11826 0
M  V30 206 H 19.6742 -0.131844 0.938787 0
M  V30 207 H 19.3802 -1.06796 3.35093 0
M  V30 208 H 19.2542 -2.67554 2.65885 0
M  V30 209 H 21.6412 -2.40984 1.70325 0
M  V30 210 H 21.7222 -0.798656 2.43013 0
M  V30 211 H 21.3662 -1.84388 4.73248 0
M  V30 212 H 21.2962 -3.45458 3.9745 0
M  V30 213 H 23.7872 -2.1603 3.10063 0
M  V30 214 H 24.1002 -3.89027 6.67741 0
M  V30 215 H 22.4452 -3.50462 6.00168 0
M  V30 216 H 25.6362 -2.60638 3.88826 0
M  V30 217 H 25.8092 -3.39545 5.51918 0
M  V30 218 N 19.2153 -1.21501 -1.00376 0
M  V30 219 C 20.1473 -0.933174 -2.09343 0
M  V30 220 C 21.1603 0.0840896 -1.62583 0
M  V30 221 O 22.3493 -0.148563 -1.77881 0
M  V30 222 C 19.4493 -0.379869 -3.36764 0
M  V30 223 C 18.6223 -1.45176 -4.12605 0
M  V30 224 C 17.6813 -0.907476 -5.18316 0
M  V30 225 O 16.7073 -1.5912 -5.46507 0
M  V30 226 N 17.9093 0.276649 -5.7984 0
M  V30 227 H 20.6743 -1.87124 -2.34104 0
M  V30 228 H 18.2353 -1.12043 -1.16867 0
M  V30 229 H 20.2273 -0.00131488 -4.047 0
M  V30 230 H 18.7973 0.463048 -3.09151 0
M  V30 231 H 18.0173 -2.00411 -3.39454 0
M  V30 232 H 19.3053 -2.17328 -4.6005 0
M  V30 233 H 18.7033 0.849147 -5.59291 0
M  V30 234 H 17.2603 0.596702 -6.49063 0
M  V30 235 N 20.6934 1.19889 -1.02296 0
M  V30 236 C 21.9414 1.89046 -0.714558 0
M  V30 237 C 22.2624 1.79636 0.758681 0
M  V30 238 O 21.5324 1.20292 1.54618 0
M  V30 239 H 20.1124 0.699802 -0.261317 0
M  V30 240 H 22.7744 1.45574 -1.29592 0
M  V30 241 H 21.8704 2.95524 -1.0036 0
M  V30 242 N 22.1715 0.800033 1.35784 0
M  V30 243 C 23.0815 0.207204 2.33683 0
M  V30 244 C 24.0975 -0.64631 1.61551 0
M  V30 245 O 25.2735 -0.559604 1.93469 0
M  V30 246 C 22.3385 -0.639659 3.40748 0
M  V30 247 C 21.3995 0.233585 4.28664 0
M  V30 248 C 20.6325 -0.572954 5.30616 0
M  V30 249 O 20.8555 -1.80816 5.40982 0
M  V30 250 O 19.7895 0.0327285 6.01891 0
M  V30 251 H 23.6155 1.01692 2.86169 0
M  V30 252 H 21.2005 0.561691 1.38439 0
M  V30 253 H 23.0825 -1.12223 4.06182 0
M  V30 254 H 21.7575 -1.42708 2.90544 0
M  V30 255 H 20.6645 0.763147 3.66233 0
M  V30 256 H 21.9975 0.984784 4.82248 0
M  V30 257 N 23.6496 -1.47581 0.552962 0
M  V30 258 C 24.5816 -2.27997 -0.234533 0
M  V30 259 C 25.5946 -1.36753 -0.883321 0
M  V30 260 O 26.7836 -1.61612 -0.757889 0
M  V30 261 C 23.8836 -3.10879 -1.34935 0
M  V30 262 C 23.0566 -4.30056 -0.798158 0
M  V30 263 C 22.1156 -4.94567 -1.79694 0
M  V30 264 O 21.1416 -5.53087 -1.34474 0
M  V30 265 N 22.3436 -4.88878 -3.13015 0
M  V30 266 H 25.1086 -2.96222 0.455255 0
M  V30 267 H 22.6696 -1.57163 0.388761 0
M  V30 268 H 24.6616 -3.50903 -2.01616 0
M  V30 269 H 23.2316 -2.44924 -1.94244 0
M  V30 270 H 22.4516 -3.94174 0.0453079 0
M  V30 271 H 23.7396 -5.07152 -0.409173 0
M  V30 272 H 23.1376 -4.42526 -3.52402 0
M  V30 273 H 21.6946 -5.32934 -3.75266 0
M  V30 274 N 25.1277 -0.289203 -1.54924 0
M  V30 275 C 26.3737 0.323998 -2.00195 0
M  V30 276 C 26.7067 1.54441 -1.17735 0
M  V30 277 O 25.9817 1.92875 -0.250878 0
M  V30 278 C 26.2647 0.692276 -3.53383 0
M  V30 279 C 26.1177 -0.536457 -4.46589 0
M  V30 280 C 27.4367 1.52335 -4.12895 0
M  V30 281 H 24.5557 0.116289 -0.727768 0
M  V30 282 H 27.1977 -0.398954 -1.85764 0
M  V30 283 H 25.3477 1.30822 -3.65811 0
M  V30 284 H 27.0197 -1.17499 -4.46085 0
M  V30 285 H 25.2627 -1.17192 -4.1767 0
M  V30 286 H 25.9337 -0.234806 -5.515 0
M  V30 287 H 28.4097 1.00302 -4.0383 0
M  V30 288 H 27.2857 1.74982 -5.20262 0
M  V30 289 H 27.5467 2.50886 -3.64018 0
M  V30 290 N 26.6058 1.57591 -0.0167156 0
M  V30 291 C 27.8828 1.82547 0.702564 0
M  V30 292 C 28.2628 0.898018 1.91047 0
M  V30 293 O 27.6108 -0.0493456 2.28447 0
M  V30 294 C 27.8208 3.31459 1.09251 0
M  V30 295 C 29.1688 3.97622 1.48937 0
M  V30 296 O 30.1928 3.35881 1.18584 0
M  V30 297 O 29.0518 5.06415 2.05442 0
M  V30 298 H 26.1458 0.752268 0.343544 0
M  V30 299 H 28.6918 1.69644 -0.0434495 0
M  V30 300 H 27.4638 3.9061 0.23227 0
M  V30 301 H 27.0868 3.49422 1.89709 0
M  V30 302 N 28.0839 -0.256276 1.55502 0
M  V30 303 C 29.0339 -1.31981 1.85916 0
M  V30 304 C 30.0179 -1.43927 0.719296 0
M  V30 305 O 31.2099 -1.47326 0.981019 0
M  V30 306 C 28.3389 -2.67703 2.14918 0
M  V30 307 C 27.4249 -2.59801 3.35208 0
M  V30 308 N 27.8159 -2.21524 4.54709 0
M  V30 309 C 26.1139 -2.90832 3.38131 0
M  V30 310 C 26.8149 -2.24024 5.36832 0
M  V30 311 N 25.7909 -2.63158 4.75656 0
M  V30 312 H 29.5929 -1.01423 2.75845 0
M  V30 313 H 27.1069 -0.464911 1.55603 0
M  V30 314 H 29.1039 -3.44445 2.34869 0
M  V30 315 H 27.7639 -2.99137 1.26282 0
M  V30 316 H 28.7749 -1.93223 4.80505 0
M  V30 317 H 25.4519 -3.26867 2.59739 0
M  V30 318 H 26.8419 -1.9685 6.42417 0
M  V30 319 N 29.562 -1.4872 -0.521534 0
M  V30 320 C 30.792 -1.6061 -1.29954 0
M  V30 321 C 31.2 -0.268728 -1.87282 0
M  V30 322 O 30.543 0.753221 -1.67548 0
M  V30 323 C 30.605 -2.60013 -2.48261 0
M  V30 324 C 30.269 -4.04874 -2.11957 0
M  V30 325 C 31.266 -4.92304 -1.67132 0
M  V30 326 C 28.951 -4.5047 -2.22221 0
M  V30 327 C 30.945 -6.2336 -1.33047 0
M  V30 328 C 28.632 -5.81544 -1.87748 0
M  V30 329 C 29.63 -6.67812 -1.43234 0
M  V30 330 O 29.318 -7.96446 -1.09217 0
M  V30 331 H 29.05 -0.544116 -0.401141 0
M  V30 332 H 31.604 -1.95339 -0.634958 0
M  V30 333 H 29.834 -2.20422 -3.17728 0
M  V30 334 H 31.523 -2.61648 -3.10315 0
M  V30 335 H 32.289 -4.58312 -1.58665 0
M  V30 336 H 28.168 -3.83504 -2.55823 0
M  V30 337 H 31.712 -6.90649 -0.982299 0
M  V30 338 H 27.609 -6.15069 -1.95858 0
M  V30 339 H 28.377 -8.09275 -1.22542 0
M  V30 340 N 31.0401 0.771051 -1.3745 0
M  V30 341 C 32.2871 1.52963 -1.32697 0
M  V30 342 C 32.6151 1.94299 0.0883274 0
M  V30 343 O 31.8701 1.64397 1.0617 0
M  V30 344 C 32.1691 2.80676 -2.2126 0
M  V30 345 C 31.8351 2.58389 -3.69521 0
M  V30 346 C 30.4971 2.52019 -4.09927 0
M  V30 347 C 32.8491 2.38469 -4.63446 0
M  V30 348 C 30.1771 2.23721 -5.42371 0
M  V30 349 C 32.5291 2.11694 -5.96128 0
M  V30 350 C 31.1931 2.03769 -6.35637 0
M  V30 351 H 30.4631 0.559732 -0.485573 0
M  V30 352 H 33.1101 0.888083 -1.69662 0
M  V30 353 H 31.4151 3.49392 -1.77291 0
M  V30 354 H 33.1121 3.38557 -2.14895 0
M  V30 355 H 29.7021 2.6421 -3.37478 0
M  V30 356 H 33.8861 2.4238 -4.33089 0
M  V30 357 H 29.1421 2.16081 -5.71943 0
M  V30 358 H 33.3161 1.9528 -6.6846 0
M  V30 359 H 30.9431 1.81606 -7.38189 0
M  V30 360 N 32.5182 1.22032 0.997298 0
M  V30 361 C 33.7662 1.04016 1.73278 0
M  V30 362 C 34.0872 -0.426255 1.90284 0
M  V30 363 O 33.3572 -1.30694 1.45931 0
M  V30 364 H 31.9372 0.381897 0.642 0
M  V30 365 H 34.5992 1.5347 1.20137 0
M  V30 366 H 33.6952 1.51441 2.72896 0
M  V30 367 N 33.9963 -1.19345 1.0293 0
M  V30 368 C 34.9283 -2.22036 0.56857 0
M  V30 369 C 35.9413 -1.58865 -0.355779 0
M  V30 370 O 37.1303 -1.77851 -0.152103 0
M  V30 371 C 34.2303 -3.38363 -0.190752 0
M  V30 372 C 33.4033 -4.31118 0.738643 0
M  V30 373 C 32.4623 -5.26194 0.0246497 0
M  V30 374 O 31.4883 -5.65461 0.651354 0
M  V30 375 N 32.6903 -5.66971 -1.24594 0
M  V30 376 H 35.4553 -2.6219 1.45177 0
M  V30 377 H 33.0163 -1.34015 0.908381 0
M  V30 378 H 35.0083 -3.98981 -0.677961 0
M  V30 379 H 33.5783 -2.96994 -0.975366 0
M  V30 380 H 32.7983 -3.68276 1.40593 0
M  V30 381 H 34.0863 -4.90001 1.37029 0
M  V30 382 H 33.4843 -5.37104 -1.77583 0
M  V30 383 H 32.0413 -6.2984 -1.67764 0
M  V30 384 N 35.4744 -0.807222 -1.35358 0
M  V30 385 C 36.4374 -0.223665 -2.28106 0
M  V30 386 C 37.4374 0.589354 -1.4961 0
M  V30 387 O 38.6274 0.407745 -1.69361 0
M  V30 388 C 35.7594 0.688149 -3.33882 0
M  V30 389 H 36.9524 -1.04169 -2.81227 0
M  V30 390 H 34.5054 -0.577921 -1.45223 0
M  V30 391 H 35.2404 1.52984 -2.85948 0
M  V30 392 H 35.0254 0.10687 -3.91954 0
M  V30 393 H 36.5154 1.09075 -4.03104 0
M  V30 394 N 36.9525 1.47285 -0.560781 0
M  V30 395 C 38.1985 2.02764 -0.0381184 0
M  V30 396 C 38.5315 1.43384 1.30976 0
M  V30 397 O 37.8065 0.590733 1.85312 0
M  V30 398 C 38.0895 3.60064 0.0511427 0
M  V30 399 C 37.9425 4.2987 -1.32408 0
M  V30 400 C 39.2615 4.33439 0.762795 0
M  V30 401 H 36.3805 0.736841 -0.0153264 0
M  V30 402 H 39.0225 1.75675 -0.723759 0
M  V30 403 H 37.1725 3.83274 0.635065 0
M  V30 404 H 38.8445 4.17989 -1.95148 0
M  V30 405 H 37.0875 3.90085 -1.8978 0
M  V30 406 H 37.7585 5.38478 -1.21431 0
M  V30 407 H 40.2345 4.15243 0.266965 0
M  V30 408 H 39.1105 5.43124 0.794221 0
M  V30 409 H 39.3715 4.02915 1.81966 0
M  V30 410 N 38.4306 0.297415 1.54768 0
M  V30 411 C 39.3936 -0.567375 2.22066 0
M  V30 412 C 40.3936 -1.06409 1.20556 0
M  V30 413 O 41.5836 -0.960691 1.45315 0
M  V30 414 C 38.7156 -1.78517 2.90421 0
M  V30 415 H 39.9086 0.0205534 2.99893 0
M  V30 416 H 37.4616 0.0482163 1.56226 0
M  V30 417 H 38.1966 -2.41303 2.16664 0
M  V30 418 H 37.9816 -1.43669 3.64831 0
M  V30 419 H 39.4716 -2.39964 3.41771 0
M  V30 420 N 39.9087 -1.5758 0.0250728 0
M  V30 421 C 41.1857 -1.82917 -0.692873 0
M  V30 422 C 41.5657 -0.908137 -1.90568 0
M  V30 423 O 40.9137 0.0372298 -2.2847 0
M  V30 424 C 41.1237 -3.32034 -1.07492 0
M  V30 425 C 42.4717 -3.98406 -1.46826 0
M  V30 426 O 43.4957 -3.36505 -1.16801 0
M  V30 427 O 42.3547 -5.07497 -2.02754 0
M  V30 428 H 39.4487 -0.754079 -0.33955 0
M  V30 429 H 41.9947 -1.69619 0.0524456 0
M  V30 430 H 40.7667 -3.90728 -0.211552 0
M  V30 431 H 40.3897 -3.50424 -1.87854 0
M  V30 432 N 41.3868 0.248026 -1.55636 0
M  V30 433 C 42.7978 0.817177 -1.67866 0
M  V30 434 C 43.1488 1.86069 -0.622322 0
M  V30 435 O 42.2738 2.15157 0.231618 0
M  V30 436 C 42.8688 1.489 -3.04326 0
M  V30 437 C 41.4278 2.00587 -3.185 0
M  V30 438 C 40.5748 0.856573 -2.63739 0
M  V30 439 H 43.5258 0.0238579 -1.58682 0
M  V30 440 H 43.5468 2.35698 -2.98708 0
M  V30 441 H 43.0588 0.729279 -3.81186 0
M  V30 442 H 41.1598 2.79443 -2.4646 0
M  V30 443 H 41.2728 2.20402 -4.25393 0
M  V30 444 H 39.6368 1.25678 -2.21534 0
M  V30 445 H 40.4198 0.109953 -3.43124 0
M  V30 446 N 42.8649 1.48995 0.513639 0
M  V30 447 C 44.0949 1.61297 1.291 0
M  V30 448 C 44.5029 0.278656 1.87137 0
M  V30 449 O 43.8459 -0.744325 1.67945 0
M  V30 450 C 43.9079 2.61326 2.46879 0
M  V30 451 C 43.5719 4.05993 2.09807 0
M  V30 452 C 44.5689 4.93183 1.64519 0
M  V30 453 C 42.2539 4.51642 2.19829 0
M  V30 454 C 44.2479 6.24056 1.2974 0
M  V30 455 C 41.9349 5.82532 1.84662 0
M  V30 456 C 42.9329 6.68562 1.3969 0
M  V30 457 O 42.6209 7.97014 1.04992 0
M  V30 458 H 42.3529 0.546236 0.39825 0
M  V30 459 H 44.9069 1.95673 0.62459 0
M  V30 460 H 43.1369 2.22104 3.16554 0
M  V30 461 H 44.8259 2.6329 3.08923 0
M  V30 462 H 45.5919 4.59147 1.56233 0
M  V30 463 H 41.4709 3.84855 2.53786 0
M  V30 464 H 45.0149 6.91161 0.945659 0
M  V30 465 H 40.9119 6.16099 1.92594 0
M  V30 466 H 41.6799 8.09913 1.18249 0
M  V30 467 N 44.343 -0.763751 1.37857 0
M  V30 468 C 45.759 -1.06542 1.18832 0
M  V30 469 C 45.959 -2.01478 0.0299722 0
M  V30 470 O 45.015 -2.4458 -0.627447 0
M  V30 471 C 46.328 -1.65525 2.51042 0
M  V30 472 C 47.876 -1.77745 2.57635 0
M  V30 473 C 48.351 -2.4014 3.89996 0
M  V30 474 N 49.842 -2.47582 3.91481 0
M  V30 475 C 50.577 -2.96732 4.9065 0
M  V30 476 N 50.073 -3.45993 6.00217 0
M  V30 477 N 51.866 -2.95679 4.78048 0
M  V30 478 H 44.017 -0.133556 2.1198 0
M  V30 479 H 46.28 -0.121879 0.940133 0
M  V30 480 H 45.986 -1.03236 3.36207 0
M  V30 481 H 45.86 -2.64719 2.68707 0
M  V30 482 H 48.247 -2.39164 1.72872 0
M  V30 483 H 48.328 -0.772836 2.43846 0
M  V30 484 H 47.972 -1.79358 4.75177 0
M  V30 485 H 47.902 -3.41223 4.01092 0
M  V30 486 H 50.393 -2.1273 3.12337 0
M  V30 487 H 50.706 -3.81922 6.7183 0
M  V30 488 H 49.051 -3.44077 6.03851 0
M  V30 489 H 52.242 -2.56499 3.91568 0
M  V30 490 H 52.415 -3.33672 5.55488 0
M  V30 491 N 45.8211 -1.22559 -0.990812 0
M  V30 492 C 47.0671 -1.06303 -1.73411 0
M  V30 493 C 47.4221 0.397442 -1.8825 0
M  V30 494 O 46.7151 1.29062 -1.41611 0
M  V30 495 C 46.9091 -1.71011 -3.13831 0
M  V30 496 C 46.7381 -3.232 -3.12685 0
M  V30 497 C 45.5081 -3.92314 -3.18461 0
M  V30 498 C 47.7061 -4.20107 -2.96673 0
M  V30 499 N 45.6881 -5.31571 -3.07091 0
M  V30 500 C 47.0591 -5.46208 -2.93354 0
M  V30 501 C 49.1141 -4.10973 -2.8108 0
M  V30 502 C 47.8171 -6.64225 -2.76039 0
M  V30 503 C 49.8431 -5.28642 -2.65126 0
M  V30 504 C 49.2051 -6.53663 -2.62496 0
M  V30 505 H 45.3041 -0.443441 -0.644115 0
M  V30 506 H 47.8881 -1.55131 -1.17654 0
M  V30 507 H 46.0591 -1.2473 -3.67827 0
M  V30 508 H 47.7911 -1.47828 -3.76735 0
M  V30 509 H 44.5461 -3.43326 -3.26227 0
M  V30 510 H 44.9701 -6.0455 -3.0471 0
M  V30 511 H 49.6121 -3.15098 -2.8191 0
M  V30 512 H 47.3301 -7.60246 -2.73954 0
M  V30 513 H 50.9161 -5.23407 -2.54039 0
M  V30 514 H 49.7961 -7.43182 -2.50302 0
M  V30 515 N 47.2992 1.18797 -1.03562 0
M  V30 516 C 48.2292 2.24472 -0.643019 0
M  V30 517 C 49.2102 1.66433 0.351283 0
M  V30 518 O 50.3952 1.92803 0.232505 0
M  V30 519 C 47.5252 3.473 4.24935e-05 0
M  V30 520 C 46.4792 4.18055 -0.917257 0
M  V30 521 C 45.8052 5.34519 -0.138941 0
M  V30 522 C 47.1052 4.72109 -2.23407 0
M  V30 523 H 48.7992 2.57566 -1.52643 0
M  V30 524 H 46.3452 1.23806 -0.735394 0
M  V30 525 H 48.2982 4.20426 0.286383 0
M  V30 526 H 47.0222 3.13424 0.918299 0
M  V30 527 H 45.6812 3.46821 -1.1879 0
M  V30 528 H 45.3292 4.96891 0.781562 0
M  V30 529 H 45.0292 5.82794 -0.750005 0
M  V30 530 H 46.5532 6.10438 0.1405 0
M  V30 531 H 47.9672 5.36955 -2.00879 0
M  V30 532 H 46.3642 5.30897 -2.79765 0
M  V30 533 H 47.4342 3.89807 -2.88407 0
M  V30 534 N 48.7773 0.814389 1.34928 0
M  V30 535 C 49.6873 0.231978 2.3345 0
M  V30 536 C 50.7033 -0.629139 1.62228 0
M  V30 537 O 51.8793 -0.539052 1.94052 0
M  V30 538 C 48.9443 -0.603482 3.41407 0
M  V30 539 C 48.0053 0.279037 4.28392 0
M  V30 540 C 47.2383 -0.516643 5.31193 0
M  V30 541 O 47.4613 -1.75068 5.4287 0
M  V30 542 O 46.3953 0.0965652 6.01823 0
M  V30 543 H 50.2213 1.04721 2.85074 0
M  V30 544 H 47.8063 0.576343 1.37836 0
M  V30 545 H 49.6883 -1.07908 4.0735 0
M  V30 546 H 48.3633 -1.39618 2.92042 0
M  V30 547 H 47.2703 0.801948 3.65403 0
M  V30 548 H 48.6033 1.03588 4.81176 0
M  V30 549 N 50.2554 -1.46986 0.568584 0
M  V30 550 C 51.5324 -1.95592 -0.0174074 0
M  V30 551 C 51.9124 -1.51124 -1.47393 0
M  V30 552 O 51.2604 -0.755329 -2.15655 0
M  V30 553 C 51.4704 -3.48719 0.139913 0
M  V30 554 C 52.8184 -4.246 0.000426376 0
M  V30 555 O 53.8424 -3.56135 0.0680316 0
M  V30 556 O 52.7014 -5.46302 -0.146988 0
M  V30 557 H 49.7954 -0.82498 -0.0577599 0
M  V30 558 H 52.3414 -1.57335 0.635909 0
M  V30 559 H 51.1134 -3.73927 1.15301 0
M  V30 560 H 50.7364 -3.93771 -0.550491 0
M  V30 561 N 51.7335 -0.305618 -1.54608 0
M  V30 562 C 53.0105 0.355652 -1.92339 0
M  V30 563 C 53.3905 1.71324 -1.23335 0
M  V30 564 O 52.7385 2.25473 -0.370702 0
M  V30 565 C 52.9485 0.46572 -3.45879 0
M  V30 566 C 54.2965 0.734426 -4.182 0
M  V30 567 O 55.3205 0.54935 -3.51938 0
M  V30 568 O 54.1795 1.09024 -5.35515 0
M  V30 569 H 51.2735 0.199666 -0.802535 0
M  V30 570 H 53.8195 -0.354017 -1.65966 0
M  V30 571 H 52.5915 -0.488461 -3.88239 0
M  V30 572 H 52.2145 1.22367 -3.78301 0
M  V30 573 N 53.2116 1.57565 -0.0334293 0
M  V30 574 C 54.6276 1.56297 0.322997 0
M  V30 575 C 54.8276 1.03945 1.7262 0
M  V30 576 O 53.8836 0.688109 2.42943 0
M  V30 577 C 55.1966 3.00232 0.167664 0
M  V30 578 C 56.7446 3.12078 0.240107 0
M  V30 579 C 57.2196 4.57859 0.113513 0
M  V30 580 N 58.7106 4.62887 0.170359 0
M  V30 581 C 59.4456 5.73319 0.0962517 0
M  V30 582 N 58.9416 6.92794 -0.0291881 0
M  V30 583 N 60.7346 5.61898 0.150551 0
M  V30 584 H 52.8856 1.89923 -0.950956 0
M  V30 585 H 55.1486 0.873824 -0.367608 0
M  V30 586 H 54.8546 3.42501 -0.799102 0
M  V30 587 H 54.7286 3.654 0.936083 0
M  V30 588 H 57.1156 2.69718 1.19733 0
M  V30 589 H 57.1966 2.49623 -0.558763 0
M  V30 590 H 56.8406 5.009 -0.840314 0
M  V30 591 H 56.7706 5.18299 0.931302 0
M  V30 592 H 59.2616 3.76954 0.26728 0
M  V30 593 H 59.5746 7.7276 -0.0789252 0
M  V30 594 H 57.9196 6.94971 -0.0640299 0
M  V30 595 H 61.1106 4.67448 0.246981 0
M  V30 596 H 61.2836 6.47938 0.0893365 0
M  V30 597 N 54.6897 -0.239769 1.55765 0
M  V30 598 C 55.9147 -0.988373 1.82335 0
M  V30 599 C 56.3397 -1.77886 0.611421 0
M  V30 600 O 55.6977 -1.75889 -0.439639 0
M  V30 601 C 55.7457 -1.89627 3.06715 0
M  V30 602 O 54.8497 -2.98904 2.84131 0
M  V30 603 H 54.1907 -0.280858 0.601677 0
M  V30 604 H 56.7207 -0.258597 2.02959 0
M  V30 605 H 56.7307 -2.30957 3.36338 0
M  V30 606 H 55.4057 -1.31511 3.9456 0
M  V30 607 H 53.9827 -2.61651 2.65694 0
M  V30 608 N 56.1678 -1.49265 -0.50573 0
M  V30 609 C 57.5788 -1.51769 -1.08734 0
M  V30 610 C 57.9298 -0.301192 -1.93874 0
M  V30 611 O 57.0548 0.589456 -2.08217 0
M  V30 612 C 57.6498 -2.75017 -1.97867 0
M  V30 613 C 56.2088 -2.80314 -2.51199 0
M  V30 614 C 55.3558 -2.4562 -1.28709 0
M  V30 615 H 58.3068 -1.56031 -0.289855 0
M  V30 616 H 58.3278 -2.5491 -2.82491 0
M  V30 617 H 57.8398 -3.63539 -1.35873 0
M  V30 618 H 55.9408 -1.96061 -3.16845 0
M  V30 619 H 56.0538 -3.82366 -2.88675 0
M  V30 620 H 54.4178 -1.97297 -1.61078 0
M  V30 621 H 55.2008 -3.36411 -0.6843 0
M  V30 622 N 57.6459 0.756429 -1.3826 0
M  V30 623 C 58.5559 1.9009 -1.37488 0
M  V30 624 C 59.5719 1.71855 -0.272366 0
M  V30 625 O 60.7479 1.94827 -0.510318 0
M  V30 626 C 57.8129 3.25421 -1.19592 0
M  V30 627 C 56.8739 3.56202 -2.39622 0
M  V30 628 C 56.1069 4.85075 -2.2257 0
M  V30 629 O 56.3299 5.57246 -1.21793 0
M  V30 630 O 55.2639 5.15269 -3.11098 0
M  V30 631 H 59.0899 1.93695 -2.33914 0
M  V30 632 H 56.6749 0.901313 -1.1915 0
M  V30 633 H 58.5569 4.06337 -1.11661 0
M  V30 634 H 57.2319 3.22634 -0.262486 0
M  V30 635 H 56.1389 2.75458 -2.53128 0
M  V30 636 H 57.4719 3.63747 -3.31586 0
M  V30 637 N 59.124 1.23083 0.984299 0
M  V30 638 C 60.352 1.08714 1.76037 0
M  V30 639 C 60.767 -0.361691 1.85303 0
M  V30 640 O 60.124 -1.25034 1.32939 0
M  V30 641 C 60.175 1.70206 3.18923 0
M  V30 642 O 59.896 3.09423 3.10144 0
M  V30 643 C 61.397 1.61227 4.12941 0
M  V30 644 H 58.617 0.380664 0.552572 0
M  V30 645 H 61.161 1.62853 1.23689 0
M  V30 646 H 59.316 1.20109 3.6831 0
M  V30 647 H 59.73 3.39188 4.00065 0
M  V30 648 H 61.204 2.08962 5.10919 0
M  V30 649 H 61.681 0.570375 4.35481 0
M  V30 650 H 62.287 2.10671 3.69456 0
M  V30 651 N 60.6021 -1.18246 1.0419 0
M  V30 652 C 61.5121 -2.25574 0.644476 0
M  V30 653 C 62.5281 -1.70845 -0.329826 0
M  V30 654 O 63.7041 -2.00554 -0.184443 0
M  V30 655 C 60.7691 -3.46697 0.014877 0
M  V30 656 C 59.8301 -4.16554 1.03834 0
M  V30 657 C 59.0631 -5.31894 0.438692 0
M  V30 658 O 59.2861 -5.65385 -0.754752 0
M  V30 659 O 58.2201 -5.90459 1.168 0
M  V30 660 H 62.0461 -2.61836 1.53869 0
M  V30 661 H 59.6311 -1.25352 0.812854 0
M  V30 662 H 61.5131 -4.20062 -0.335538 0
M  V30 663 H 60.1881 -3.12255 -0.853138 0
M  V30 664 H 59.0951 -3.45251 1.44057 0
M  V30 665 H 60.4281 -4.54998 1.87716 0
M  V30 666 N 62.0802 -0.821533 -1.34494 0
M  V30 667 C 63.0432 -0.247847 -2.27856 0
M  V30 668 C 64.0432 0.573453 -1.50227 0
M  V30 669 O 65.2332 0.389759 -1.69784 0
M  V30 670 C 62.3652 0.652698 -3.34593 0
M  V30 671 H 63.5582 -1.07146 -2.80107 0
M  V30 672 H 61.1112 -0.593291 -1.44602 0
M  V30 673 H 61.8462 1.49943 -2.87555 0
M  V30 674 H 61.6312 0.065292 -3.92046 0
M  V30 675 H 63.1212 1.04793 -4.04238 0
M  V30 676 N 63.5583 1.46682 -0.576371 0
M  V30 677 C 64.8043 2.03287 -0.0679305 0
M  V30 678 C 65.1593 1.44063 1.27529 0
M  V30 679 O 64.4523 0.593973 1.82161 0
M  V30 680 C 64.6463 3.57345 0.062886 0
M  V30 681 C 64.4753 4.31509 -1.26611 0
M  V30 682 C 63.2453 4.70664 -1.83856 0
M  V30 683 C 65.4433 4.65444 -2.18783 0
M  V30 684 N 63.4253 5.29552 -3.10561 0
M  V30 685 C 64.7963 5.24835 -3.30072 0
M  V30 686 C 66.8513 4.47375 -2.18542 0
M  V30 687 C 65.5543 5.68063 -4.41244 0
M  V30 688 C 67.5803 4.91614 -3.28739 0
M  V30 689 C 66.9423 5.51071 -4.38748 0
M  V30 690 H 63.0413 0.779083 -0.0674836 0
M  V30 691 H 65.6253 1.78918 -0.767877 0
M  V30 692 H 63.7963 3.8144 0.731988 0
M  V30 693 H 65.5283 4.00592 0.575134 0
M  V30 694 H 62.2833 4.53224 -1.37424 0
M  V30 695 H 62.7073 5.63523 -3.75195 0
M  V30 696 H 67.3493 4.00747 -1.34765 0
M  V30 697 H 65.0673 6.13672 -5.25768 0
M  V30 698 H 68.6533 4.79389 -3.29662 0
M  V30 699 H 67.5333 5.84678 -5.22611 0
M  V30 700 N 65.0364 0.313813 1.54444 0
M  V30 701 C 66.2824 -0.292108 2.00685 0
M  V30 702 C 66.6154 -1.52548 1.20177 0
M  V30 703 O 65.8904 -1.92452 0.281531 0
M  V30 704 C 66.1734 -0.635968 3.5444 0
M  V30 705 C 66.0264 0.607437 4.4568 0
M  V30 706 C 67.3454 -1.45747 4.15266 0
M  V30 707 H 64.4644 -0.104697 0.729526 0
M  V30 708 H 67.1064 0.428457 1.85106 0
M  V30 709 H 65.2564 -1.24986 3.67846 0
M  V30 710 H 66.9284 1.24581 4.44159 0
M  V30 711 H 65.1714 1.23822 4.15753 0
M  V30 712 H 65.8424 0.322515 5.51057 0
M  V30 713 H 68.3184 -0.938645 4.05375 0
M  V30 714 H 67.1944 -1.66683 5.2298 0
M  V30 715 H 67.4554 -2.45063 3.67963 0
M  V30 716 N 66.5145 -1.57545 0.0417849 0
M  V30 717 C 67.4615 -2.10977 -0.935805 0
M  V30 718 C 68.4315 -1.01486 -1.31491 0
M  V30 719 O 69.6165 -1.2898 -1.40602 0
M  V30 720 C 66.7565 -2.65169 -2.2086 0
M  V30 721 C 65.8695 -3.88714 -1.88482 0
M  V30 722 C 65.0045 -4.31254 -3.1015 0
M  V30 723 C 64.0435 -5.47524 -2.7365 0
M  V30 724 N 63.1805 -5.85162 -3.87982 0
M  V30 725 H 68.0205 -2.94218 -0.473249 0
M  V30 726 H 65.5575 -1.45415 -0.221981 0
M  V30 727 H 67.5155 -2.94685 -2.95325 0
M  V30 728 H 66.1455 -1.8474 -2.64709 0
M  V30 729 H 65.1975 -3.65849 -1.04205 0
M  V30 730 H 66.5095 -4.73245 -1.57608 0
M  V30 731 H 65.6635 -4.62273 -3.92923 0
M  V30 732 H 64.4025 -3.45516 -3.44195 0
M  V30 733 H 63.4075 -5.16187 -1.89291 0
M  V30 734 H 64.6325 -6.34971 -2.40807 0
M  V30 735 H 62.5785 -5.02377 -4.21846 0
M  V30 736 H 62.4955 -6.64362 -3.60775 0
M  V30 737 H 63.7635 -6.20791 -4.71422 0
M  V30 738 N 67.9926 0.231505 -1.5589 0
M  V30 739 C 68.9556 1.27028 -1.90779 0
M  V30 740 C 69.9556 1.40308 -0.785507 0
M  V30 741 O 71.1456 1.38744 -1.05336 0
M  V30 742 C 68.2776 2.64566 -2.14983 0
M  V30 743 H 69.4706 0.973017 -2.83677 0
M  V30 744 H 67.0236 0.471486 -1.49019 0
M  V30 745 H 67.7586 2.99406 -1.24604 0
M  V30 746 H 67.5436 2.56305 -2.96732 0
M  V30 747 H 69.0336 3.39543 -2.43105 0
M  V30 748 N 69.4707 1.49531 0.497807 0
M  V30 749 C 70.4027 1.62559 1.61578 0
M  V30 750 C 71.4157 0.508134 1.54667 0
M  V30 751 O 72.6047 0.780309 1.60541 0
M  V30 752 C 69.7047 1.56925 3.00379 0
M  V30 753 C 68.8777 2.84257 3.3244 0
M  V30 754 C 67.9367 2.71632 4.50669 0
M  V30 755 O 66.9627 3.4557 4.52294 0
M  V30 756 N 68.1647 1.83391 5.5077 0
M  V30 757 H 70.9297 2.58981 1.50828 0
M  V30 758 H 68.4907 1.4666 0.685743 0
M  V30 759 H 70.4827 1.46129 3.77397 0
M  V30 760 H 69.0527 0.683483 3.05037 0
M  V30 761 H 68.2727 3.09381 2.44289 0
M  V30 762 H 69.5607 3.68666 3.5066 0
M  V30 763 H 68.9587 1.22583 5.52259 0
M  V30 764 H 67.5157 1.78515 6.26878 0
M  V30 765 N 70.9488 -0.749086 1.3866 0
M  V30 766 C 71.8968 -1.88428 1.36373 0
M  V30 767 C 72.8908 -1.67561 0.248929 0
M  V30 768 O 74.0968 -1.75074 0.41821 0
M  V30 769 H 70.4718 -0.620023 0.42553 0
M  V30 770 H 72.4428 -1.87473 2.32156 0
M  V30 771 C 71.1918 -3.25961 1.21014 0
M  V30 772 H 70.5148 -3.42607 2.06059 0
M  V30 773 H 71.9548 -4.05625 1.23469 0
M  V30 774 C 70.4138 -3.36799 -0.0825941 0
M  V30 775 O 70.9438 -3.87517 -1.05797 0
M  V30 776 N 69.1498 -2.90258 -0.140939 0
M  V30 777 H 68.6968 -2.49174 0.653477 0
M  V30 778 H 68.6548 -2.97889 -1.00545 0
M  V30 779 N 72.4269 -1.23603 -0.977757 0
M  V30 780 C 73.3899 -1.02069 -2.05218 0
M  V30 781 C 74.3899 0.0184305 -1.60789 0
M  V30 782 O 75.5799 -0.221569 -1.72785 0
M  V30 783 C 72.7119 -0.544926 -3.36517 0
M  V30 784 H 73.9049 -1.9742 -2.25755 0
M  V30 785 H 71.4579 -1.05684 -1.15155 0
M  V30 786 H 72.1929 0.412241 -3.21669 0
M  V30 787 H 71.9779 -1.2948 -3.70105 0
M  V30 788 H 73.4679 -0.414985 -4.15533 0
M  V30 789 N 73.905 1.17692 -1.04816 0
M  V30 790 C 75.151 1.88137 -0.75711 0
M  V30 791 C 75.484 1.80604 0.713841 0
M  V30 792 O 74.759 1.21146 1.52164 0
M  V30 793 C 75.042 3.38318 -1.2334 0
M  V30 794 C 74.895 3.54622 -2.76701 0
M  V30 795 C 76.214 4.32214 -0.829415 0
M  V30 796 H 73.333 0.683163 -0.27651 0
M  V30 797 H 75.975 1.38424 -1.30149 0
M  V30 798 H 74.125 3.80787 -0.770286 0
M  V30 799 H 75.797 3.21194 -3.31107 0
M  V30 800 H 74.04 2.97026 -3.16161 0
M  V30 801 H 74.711 4.60028 -3.05088 0
M  V30 802 H 77.187 3.97565 -1.22805 0
M  V30 803 H 76.063 5.35838 -1.19033 0
M  V30 804 H 76.324 4.41294 0.266891 0
M  V30 805 N 75.3831 0.828654 1.34056 0
M  V30 806 C 76.6111 0.43262 2.02326 0
M  V30 807 C 77.0261 -0.963147 1.62385 0
M  V30 808 O 76.3831 -1.62425 0.832121 0
M  V30 809 C 76.4341 0.53182 3.57567 0
M  V30 810 O 76.1551 1.87258 3.96063 0
M  V30 811 C 77.6561 0.131422 4.43105 0
M  V30 812 H 74.8761 0.172923 0.648335 0
M  V30 813 H 77.4201 1.1184 1.71208 0
M  V30 814 H 75.5751 -0.105938 3.87255 0
M  V30 815 H 75.9891 1.85087 4.90758 0
M  V30 816 H 77.4631 0.251904 5.51425 0
M  V30 817 H 77.9401 -0.925645 4.29335 0
M  V30 818 H 78.5461 0.743207 4.18756 0
M  V30 819 N 76.8612 -1.46375 0.584142 0
M  V30 820 C 77.7932 -2.28443 -0.186119 0
M  V30 821 C 78.8062 -1.38596 -0.854115 0
M  V30 822 O 79.9952 -1.63183 -0.723438 0
M  V30 823 C 77.0952 -3.13671 -1.28311 0
M  V30 824 C 76.2682 -4.31652 -0.706758 0
M  V30 825 C 75.3272 -4.98267 -1.69163 0
M  V30 826 O 74.3532 -5.55815 -1.22712 0
M  V30 827 N 75.5552 -4.95408 -3.02575 0
M  V30 828 H 78.3202 -2.9519 0.517986 0
M  V30 829 H 75.8812 -1.56303 0.42201 0
M  V30 830 H 77.8732 -3.55101 -1.94128 0
M  V30 831 H 76.4432 -2.48989 -1.89005 0
M  V30 832 H 75.6632 -3.93989 0.128908 0
M  V30 833 H 76.9512 -5.07906 -0.301506 0
M  V30 834 H 76.3492 -4.49902 -3.42936 0
M  V30 835 H 74.9062 -5.40774 -3.63877 0
M  V30 836 N 78.3393 -0.321999 -1.54275 0
M  V30 837 C 79.6163 0.335232 -1.92706 0
M  V30 838 C 79.9963 1.70006 -1.25145 0
M  V30 839 O 79.3443 2.25067 -0.394596 0
M  V30 840 C 79.5543 0.429008 -3.46353 0
M  V30 841 C 80.9023 0.690029 -4.18956 0
M  V30 842 O 81.9263 0.511992 -3.52501 0
M  V30 843 O 80.7853 1.03338 -5.36641 0
M  V30 844 H 77.8793 0.191143 -0.804608 0
M  V30 845 H 80.4253 -0.3716 -1.65581 0
M  V30 846 H 79.1973 -0.529611 -3.87699 0
M  V30 847 H 78.8203 1.18348 -3.79578 0
M  V30 848 N 79.8174 1.5752 -0.0501392 0
M  V30 849 C 81.0474 1.96678 0.632573 0
M  V30 850 C 81.4554 0.926298 1.64974 0
M  V30 851 O 80.7984 -0.09802 1.83438 0
M  V30 852 C 80.8604 3.32068 1.37735 0
M  V30 853 C 80.5244 4.54076 0.516131 0
M  V30 854 C 81.5214 5.19445 -0.217357 0
M  V30 855 C 79.2064 5.00304 0.44736 0
M  V30 856 C 81.2004 6.29378 -1.00807 0
M  V30 857 C 78.8874 6.10114 -0.347038 0
M  V30 858 C 79.8854 6.74512 -1.07344 0
M  V30 859 O 79.5734 7.82211 -1.85477 0
M  V30 860 H 79.3054 0.652193 0.177821 0
M  V30 861 H 81.8594 2.05091 -0.112543 0
M  V30 862 H 80.0894 3.20206 2.16807 0
M  V30 863 H 81.7784 3.55981 1.95019 0
M  V30 864 H 82.5444 4.84689 -0.173688 0
M  V30 865 H 78.4234 4.49971 1.00235 0
M  V30 866 H 81.9674 6.79575 -1.57556 0
M  V30 867 H 77.8644 6.44307 -0.392349 0
M  V30 868 H 78.6324 7.98982 -1.77678 0
M  V30 869 N 81.2955 -0.223234 1.56011 0
M  V30 870 C 82.2255 -1.27988 1.95298 0
M  V30 871 C 83.2065 -1.48976 0.820979 0
M  V30 872 O 84.3915 -1.61188 1.08315 0
M  V30 873 C 81.5215 -2.63 2.26822 0
M  V30 874 C 80.4755 -2.56671 3.42497 0
M  V30 875 C 79.8015 -3.95697 3.59622 0
M  V30 876 C 81.1015 -2.11601 4.77517 0
M  V30 877 H 82.7955 -0.953525 2.8381 0
M  V30 878 H 80.3415 -0.457244 1.36548 0
M  V30 879 H 82.2945 -3.37077 2.52898 0
M  V30 880 H 81.0185 -2.9732 1.35161 0
M  V30 881 H 79.6775 -1.85051 3.16467 0
M  V30 882 H 79.3255 -4.27322 2.6534 0
M  V30 883 H 79.0255 -3.92345 4.37424 0
M  V30 884 H 80.5495 -4.71438 3.88044 0
M  V30 885 H 81.9635 -2.7542 5.02809 0
M  V30 886 H 80.3605 -2.19311 5.5859 0
M  V30 887 H 81.4305 -1.06824 4.72987 0
M  V30 888 N 82.7736 -1.49793 -0.48987 0
M  V30 889 C 83.7366 -1.66752 -1.57246 0
M  V30 890 C 84.7366 -0.538867 -1.51502 0
M  V30 891 O 85.9266 -0.805545 -1.54456 0
M  V30 892 C 83.0586 -1.67528 -2.96896 0
M  V30 893 H 84.2516 -2.63321 -1.43534 0
M  V30 894 H 81.8046 -1.38992 -0.714914 0
M  V30 895 H 82.5396 -0.725837 -3.16073 0
M  V30 896 H 82.3246 -2.49504 -3.02473 0
M  V30 897 H 83.8146 -1.82667 -3.7553 0
M  V30 898 N 84.2517 0.741722 -1.39055 0
M  V30 899 C 85.1837 1.8657 -1.33133 0
M  V30 900 C 86.1967 1.61001 -0.241329 0
M  V30 901 O 87.3857 1.7136 -0.499784 0
M  V30 902 C 84.4857 3.22457 -1.04283 0
M  V30 903 C 83.6587 3.75435 -2.24427 0
M  V30 904 C 82.7177 4.89867 -1.92138 0
M  V30 905 O 81.7437 5.03879 -2.64754 0
M  V30 906 N 82.9457 5.73738 -0.88347 0
M  V30 907 H 85.7107 1.92156 -2.29991 0
M  V30 908 H 83.2717 0.922172 -1.3307 0
M  V30 909 H 85.2637 3.9657 -0.807128 0
M  V30 910 H 83.8337 3.12181 -0.161807 0
M  V30 911 H 83.0537 2.92751 -2.6399 0
M  V30 912 H 84.3417 4.07563 -3.04581 0
M  V30 913 H 83.7397 5.64999 -0.281517 0
M  V30 914 H 82.2967 6.47947 -0.707662 0
M  V30 915 N 85.7298 1.2412 0.971189 0
M  V30 916 C 86.9788 1.07284 1.70801 0
M  V30 917 C 87.2918 -0.388902 1.91695 0
M  V30 918 O 88.4978 -0.677379 2.62914 0
M  V30 919 C 86.9538 1.87145 3.07416 0
M  V30 920 C 86.5618 3.37707 2.94377 0
M  V30 921 C 88.3058 1.78828 3.84995 0
M  V30 922 C 86.2128 4.09925 4.26281 0
M  V30 923 H 85.1428 0.397854 0.64049 0
M  V30 924 H 87.7938 1.4817 1.0825 0
M  V30 925 H 86.1758 1.39071 3.70777 0
M  V30 926 H 87.3498 3.93335 2.4005 0
M  V30 927 H 85.6648 3.46938 2.30267 0
M  V30 928 H 88.2618 2.30089 4.82662 0
M  V30 929 H 88.6048 0.75284 4.09436 0
M  V30 930 H 89.1378 2.24563 3.28354 0
M  V30 931 H 85.8768 5.13813 4.07033 0
M  V30 932 H 85.3968 3.59083 4.80437 0
M  V30 933 H 87.0758 4.1673 4.94919 0
M  V30 934 N 87.2079 -1.17134 1.05439 0
M  V30 935 C 88.6189 -1.69084 0.791676 0
M  V30 936 C 88.9699 -1.83822 -0.685839 0
M  V30 937 O 88.0949 -1.52757 -1.53278 0
M  V30 938 C 88.6899 -3.07119 1.4305 0
M  V30 939 C 87.2489 -3.56225 1.21577 0
M  V30 940 C 86.3959 -2.32421 1.51247 0
M  V30 941 H 89.3469 -1.01617 1.219 0
M  V30 942 H 89.3679 -3.71087 0.84112 0
M  V30 943 H 88.8799 -2.9636 2.50584 0
M  V30 944 H 86.9809 -3.72257 0.159787 0
M  V30 945 H 87.0939 -4.38837 1.92246 0
M  V30 946 H 85.4579 -2.3701 0.932653 0
M  V30 947 H 86.2409 -2.24268 2.5992 0
M  V30 948 N 88.686 -0.835752 -1.33615 0
M  V30 949 C 89.916 -0.442701 -2.01801 0
M  V30 950 C 90.324 0.959807 -1.63047 0
M  V30 951 O 89.667 1.63468 -0.838088 0
M  V30 952 C 89.729 -0.480125 -3.56279 0
M  V30 953 C 89.393 -1.8382 -4.18401 0
M  V30 954 C 90.39 -2.80097 -4.37998 0
M  V30 955 C 88.075 -2.13019 -4.54894 0
M  V30 956 C 90.069 -4.03736 -4.9323 0
M  V30 957 C 87.756 -3.36916 -5.09834 0
M  V30 958 C 88.754 -4.32091 -5.28948 0
M  V30 959 O 88.442 -5.53797 -5.82721 0
M  V30 960 H 88.174 -0.17441 -0.653114 0
M  V30 961 H 90.728 -1.129 -1.71589 0
M  V30 962 H 88.958 0.262931 -3.85805 0
M  V30 963 H 90.647 -0.105335 -4.05763 0
M  V30 964 H 91.413 -2.58838 -4.10156 0
M  V30 965 H 87.292 -1.39733 -4.39313 0
M  V30 966 H 90.836 -4.78034 -5.08064 0
M  V30 967 H 86.733 -3.58033 -5.37106 0
M  V30 968 H 87.501 -5.55494 -6.0114 0
M  V30 969 N 90.1641 1.46063 -0.591896 0
M  V30 970 C 91.5801 1.57561 -0.254288 0
M  V30 971 C 91.7801 1.58565 1.24336 0
M  V30 972 O 90.8361 1.50753 2.02558 0
M  V30 973 C 92.1491 2.86549 -0.911611 0
M  V30 974 C 93.6971 3.00197 -0.886059 0
M  V30 975 C 94.1721 4.31933 -1.5231 0
M  V30 976 N 95.6631 4.38654 -1.48786 0
M  V30 977 C 96.3981 5.39222 -1.95006 0
M  V30 978 N 95.8941 6.46414 -2.49241 0
M  V30 979 N 97.6871 5.3048 -1.85868 0
M  V30 980 H 89.8381 1.43655 -1.56451 0
M  V30 981 H 92.1011 0.68583 -0.654478 0
M  V30 982 H 91.8071 2.91651 -1.96551 0
M  V30 983 H 91.6811 3.74794 -0.425368 0
M  V30 984 H 94.0681 2.9467 0.159246 0
M  V30 985 H 94.1491 2.13403 -1.41041 0
M  V30 986 H 93.7931 4.38217 -2.56765 0
M  V30 987 H 93.7231 5.17516 -0.973891 0
M  V30 988 H 96.2141 3.61793 -1.09151 0
M  V30 989 H 96.5271 7.19376 -2.82344 0
M  V30 990 H 94.8721 6.47208 -2.53272 0
M  V30 991 H 98.0631 4.45643 -1.43248 0
M  V30 992 H 98.2361 6.08711 -2.22204 0
M  V30 993 N 91.6422 0.330177 1.54103 0
M  V30 994 C 92.6052 -0.520144 2.2322 0
M  V30 995 C 93.6052 -1.03828 1.22786 0
M  V30 996 O 94.7952 -0.929652 1.4732 0
M  V30 997 C 91.9272 -1.72317 2.94142 0
M  V30 998 H 93.1202 0.0841605 2.99782 0
M  V30 999 H 90.6732 0.0813433 1.56088 0
M  V30 1000 H 91.4082 -2.36653 2.21734 0
M  V30 1001 H 91.1932 -1.35898 3.67796 0
M  V30 1002 H 92.6832 -2.3266 3.46784 0
M  V30 1003 N 93.1203 -1.57491 0.0584922 0
M  V30 1004 C 94.0833 -2.1085 -0.898617 0
M  V30 1005 C 95.0833 -1.02964 -1.23511 0
M  V30 1006 O 96.2733 -1.29007 -1.17059 0
M  V30 1007 C 93.4053 -2.59881 -2.20623 0
M  V30 1008 H 94.5983 -2.96715 -0.435936 0
M  V30 1009 H 92.1513 -1.55141 -0.190023 0
M  V30 1010 H 92.8863 -1.77431 -2.71457 0
M  V30 1011 H 92.6713 -3.38727 -1.97501 0
M  V30 1012 H 94.1613 -3.01285 -2.89166 0
M  V30 1013 N 94.5984 0.214957 -1.56127 0
M  V30 1014 C 95.8474 0.936451 -1.78643 0
M  V30 1015 C 96.1604 1.85237 -0.628229 0
M  V30 1016 O 97.3664 2.613 -0.737186 0
M  V30 1017 C 95.8224 1.7154 -3.16389 0
M  V30 1018 C 95.4304 0.845299 -4.39953 0
M  V30 1019 C 97.1744 2.42772 -3.48227 0
M  V30 1020 C 95.0814 1.62198 -5.68723 0
M  V30 1021 H 94.0114 0.353401 -0.666051 0
M  V30 1022 H 96.6624 0.190169 -1.82512 0
M  V30 1023 H 95.0444 2.50484 -3.06715 0
M  V30 1024 H 96.2184 0.0959353 -4.607 0
M  V30 1025 H 94.5334 0.244789 -4.1568 0
M  V30 1026 H 97.1304 3.01394 -4.41663 0
M  V30 1027 H 97.4734 3.15984 -2.71035 0
M  V30 1028 H 98.0064 1.70813 -3.5926 0
M  V30 1029 H 94.7454 0.933011 -6.48826 0
M  V30 1030 H 94.2654 2.34579 -5.52026 0
M  V30 1031 H 95.9444 2.18095 -6.09133 0
M  V30 1032 N 96.0765 1.50051 0.48192 0
M  V30 1033 C 97.0235 1.68122 1.58125 0
M  V30 1034 C 97.9935 0.522545 1.57666 0
M  V30 1035 O 99.1785 0.751844 1.75362 0
M  V30 1036 C 96.3185 1.77142 2.96167 0
M  V30 1037 C 95.4315 3.0444 3.06497 0
M  V30 1038 C 94.5665 3.04321 4.35387 0
M  V30 1039 C 93.6055 4.26118 4.3942 0
M  V30 1040 N 92.7425 4.238 5.59766 0
M  V30 1041 H 97.5825 2.6198 1.42022 0
M  V30 1042 H 95.1195 1.29877 0.690687 0
M  V30 1043 H 97.0775 1.80352 3.76203 0
M  V30 1044 H 95.7075 0.867329 3.1093 0
M  V30 1045 H 94.7595 3.10752 2.19402 0
M  V30 1046 H 96.0715 3.94426 3.05336 0
M  V30 1047 H 95.2255 3.062 5.23762 0
M  V30 1048 H 93.9645 2.12147 4.39141 0
M  V30 1049 H 92.9695 4.24463 3.49444 0
M  V30 1050 H 94.1945 5.19507 4.37366 0
M  V30 1051 H 92.1405 3.34474 5.64326 0
M  V30 1052 H 92.0575 5.07542 5.60301 0
M  V30 1053 H 93.3255 4.2981 6.50295 0
M  V30 1054 N 97.5546 -0.734337 1.39446 0
M  V30 1055 C 98.4646 -1.87879 1.40495 0
M  V30 1056 C 99.4806 -1.714 0.299672 0
M  V30 1057 O 100.657 -1.93991 0.541249 0
M  V30 1058 C 97.7216 -3.23477 1.24754 0
M  V30 1059 C 96.7826 -3.52344 2.45259 0
M  V30 1060 C 96.0156 -4.81473 2.30259 0
M  V30 1061 O 96.2386 -5.55237 1.30643 0
M  V30 1062 O 95.1726 -5.10254 3.19256 0
M  V30 1063 H 98.9986 -1.89949 2.36966 0
M  V30 1064 H 96.5836 -0.882243 1.20569 0
M  V30 1065 H 98.4656 -4.04509 1.18111 0
M  V30 1066 H 97.1406 -3.22176 0.313781 0
M  V30 1067 H 96.0476 -2.71396 2.57478 0
M  V30 1068 H 97.3806 -3.58426 3.37331 0
M  V30 1069 N 99.0327 -1.24633 -0.964593 0
M  V30 1070 C 99.9797 -1.04144 -2.05968 0
M  V30 1071 C 100.95 0.046262 -1.66036 0
M  V30 1072 O 102.135 -0.108972 -1.90489 0
M  V30 1073 C 99.2747 -0.65563 -3.38815 0
M  V30 1074 C 98.3877 -1.81714 -3.91923 0
M  V30 1075 C 97.5227 -1.37662 -5.13052 0
M  V30 1076 C 96.5617 -2.50788 -5.58365 0
M  V30 1077 N 95.6987 -2.07582 -6.70712 0
M  V30 1078 H 100.539 -1.9787 -2.22827 0
M  V30 1079 H 98.0757 -0.9855 -1.09208 0
M  V30 1080 H 100.034 -0.412954 -4.15151 0
M  V30 1081 H 98.6637 0.244627 -3.21872 0
M  V30 1082 H 97.7157 -2.1734 -3.12198 0
M  V30 1083 H 99.0277 -2.66705 -4.21509 0
M  V30 1084 H 98.1817 -1.093 -5.96773 0
M  V30 1085 H 96.9207 -0.497293 -4.85158 0
M  V30 1086 H 95.9257 -2.79906 -4.73215 0
M  V30 1087 H 97.1507 -3.39283 -5.88272 0
M  V30 1088 H 95.0967 -1.22051 -6.44546 0
M  V30 1089 H 95.0137 -2.86125 -6.99763 0
M  V30 1090 H 96.2817 -1.82369 -7.57867 0
M  V30 1091 N 100.511 1.16574 -1.06058 0
M  V30 1092 C 101.441 2.23057 -0.690488 0
M  V30 1093 C 102.422 1.67141 0.315901 0
M  V30 1094 O 103.607 1.93253 0.191556 0
M  V30 1095 C 100.737 3.47222 -0.073625 0
M  V30 1096 C 99.6908 4.16016 -1.00573 0
M  V30 1097 C 99.0168 5.34104 -0.252289 0
M  V30 1098 C 100.317 4.67264 -2.33371 0
M  V30 1099 H 102.011 2.54271 -1.58072 0
M  V30 1100 H 99.5568 1.22218 -0.76149 0
M  V30 1101 H 101.51 4.20939 0.19714 0
M  V30 1102 H 100.234 3.15302 0.85161 0
M  V30 1103 H 98.8928 3.44223 -1.2612 0
M  V30 1104 H 98.5408 4.98437 0.675988 0
M  V30 1105 H 98.2408 5.81072 -0.873455 0
M  V30 1106 H 99.7648 6.10599 0.0109857 0
M  V30 1107 H 101.179 5.32573 -2.12223 0
M  V30 1108 H 99.5758 5.24843 -2.90963 0
M  V30 1109 H 100.646 3.83602 -2.96611 0
M  V30 1110 N 101.989 0.842826 1.3317 0
M  V30 1111 C 102.952 0.284065 2.27433 0
M  V30 1112 C 103.952 -0.54948 1.5112 0
M  V30 1113 O 105.142 -0.362699 1.70382 0
M  V30 1114 C 102.274 -0.599384 3.35589 0
M  V30 1115 H 103.467 1.11589 2.78366 0
M  V30 1116 H 101.02 0.616221 1.4364 0
M  V30 1117 H 101.755 -1.45349 2.89904 0
M  V30 1118 H 101.54 -0.00291266 3.921 0
M  V30 1119 H 103.03 -0.983488 4.05854 0
M  V30 1120 N 103.467 -1.45747 0.599634 0
M  V30 1121 C 104.43 -2.28917 -0.113835 0
M  V30 1122 C 105.43 -1.3933 -0.802729 0
M  V30 1123 O 106.62 -1.61534 -0.652103 0
M  V30 1124 C 103.752 -3.20152 -1.17114 0
M  V30 1125 H 104.945 -2.93478 0.617289 0
M  V30 1126 H 102.498 -1.52137 0.358327 0
M  V30 1127 H 103.233 -2.60374 -1.93329 0
M  V30 1128 H 103.018 -3.86133 -0.681468 0
M  V30 1129 H 104.508 -3.82708 -1.67105 0
M  V30 1130 N 104.945 -0.338344 -1.53925 0
M  V30 1131 C 106.17 0.263987 -2.05713 0
M  V30 1132 C 106.595 1.43847 -1.21201 0
M  V30 1133 O 105.953 1.79904 -0.224535 0
M  V30 1134 C 106.001 0.662 -3.54471 0
M  V30 1135 O 105.105 1.76265 -3.72833 0
M  V30 1136 H 104.446 0.0448722 -0.662482 0
M  V30 1137 H 106.976 -0.491048 -1.9862 0
M  V30 1138 H 106.986 0.940594 -3.9701 0
M  V30 1139 H 105.661 -0.196937 -4.15433 0
M  V30 1140 H 104.238 1.48173 -3.42198 0
M  V30 1141 N 106.423 1.57458 -0.0668435 0
M  V30 1142 C 107.669 1.94401 0.598316 0
M  V30 1143 C 108.024 0.946335 1.67518 0
M  V30 1144 O 107.317 -0.0321442 1.91573 0
M  V30 1145 C 107.511 3.35784 1.22409 0
M  V30 1146 C 107.34 4.49212 0.209367 0
M  V30 1147 C 106.11 5.04887 -0.204218 0
M  V30 1148 C 108.308 5.11335 -0.551431 0
M  V30 1149 N 106.29 6.01854 -1.21016 0
M  V30 1150 C 107.661 6.03754 -1.41 0
M  V30 1151 C 109.716 4.94173 -0.608038 0
M  V30 1152 C 108.419 6.80854 -2.32013 0
M  V30 1153 C 110.445 5.71912 -1.50566 0
M  V30 1154 C 109.807 6.63976 -2.35191 0
M  V30 1155 H 105.906 0.758538 0.190114 0
M  V30 1156 H 108.49 1.94175 -0.142832 0
M  V30 1157 H 106.661 3.36757 1.93518 0
M  V30 1158 H 108.393 3.59976 1.84931 0
M  V30 1159 H 105.148 4.73266 0.177908 0
M  V30 1160 H 105.572 6.55035 -1.71049 0
M  V30 1161 H 110.214 4.22788 0.032022 0
M  V30 1162 H 107.932 7.5152 -2.97057 0
M  V30 1163 H 111.518 5.60656 -1.55423 0
M  V30 1164 H 110.398 7.2308 -3.03522 0
M  V30 1165 N 107.901 -0.206675 1.56239 0
M  V30 1166 C 108.849 -1.27571 1.94495 0
M  V30 1167 C 109.843 -1.47737 0.828862 0
M  V30 1168 O 111.049 -1.48735 1.0138 0
M  V30 1169 H 107.424 -0.428029 0.6183 0
M  V30 1170 H 109.395 -0.925961 2.8367 0
M  V30 1171 C 108.144 -2.61568 2.29079 0
M  V30 1172 H 107.467 -2.46863 3.14482 0
M  V30 1173 H 108.907 -3.35144 2.5972 0
M  V30 1174 C 107.366 -3.17695 1.12123 0
M  V30 1175 O 107.896 -3.99801 0.390153 0
M  V30 1176 N 106.102 -2.76276 0.901097 0
M  V30 1177 H 105.649 -2.09613 1.49733 0
M  V30 1178 H 105.607 -3.1417 0.120319 0
M  V30 1179 N 109.379 -1.50304 -0.473955 0
M  V30 1180 C 110.609 -1.64663 -1.24778 0
M  V30 1181 C 111.017 -0.328174 -1.86332 0
M  V30 1182 O 110.36 0.699536 -1.69859 0
M  V30 1183 C 110.422 -2.6778 -2.39863 0
M  V30 1184 C 110.086 -4.11413 -1.98969 0
M  V30 1185 C 111.083 -4.97372 -1.51385 0
M  V30 1186 C 108.768 -4.57312 -2.07777 0
M  V30 1187 C 110.762 -6.27277 -1.13148 0
M  V30 1188 C 108.449 -5.87223 -1.69152 0
M  V30 1189 C 109.447 -6.72031 -1.21915 0
M  V30 1190 O 109.135 -7.99518 -0.838237 0
M  V30 1191 H 108.867 -0.556602 -0.383627 0
M  V30 1192 H 111.421 -1.9726 -0.572491 0
M  V30 1193 H 109.651 -2.30419 -3.10554 0
M  V30 1194 H 111.34 -2.71388 -3.01833 0
M  V30 1195 H 112.106 -4.63128 -1.44004 0
M  V30 1196 H 107.985 -3.91449 -2.43493 0
M  V30 1197 H 111.529 -6.93425 -0.762077 0
M  V30 1198 H 107.426 -6.20989 -1.76191 0
M  V30 1199 H 108.194 -8.12764 -0.967339 0
M  V30 1200 N 110.857 0.726932 -1.39834 0
M  V30 1201 C 111.82 1.82269 -1.38962 0
M  V30 1202 C 112.82 1.58248 -0.285334 0
M  V30 1203 O 114.01 1.65499 -0.54366 0
M  V30 1204 C 111.142 3.20186 -1.17019 0
M  V30 1205 H 112.335 1.84443 -2.36476 0
M  V30 1206 H 109.888 0.931416 -1.25516 0
M  V30 1207 H 110.623 3.23669 -0.202204 0
M  V30 1208 H 110.408 3.3902 -1.96998 0
M  V30 1209 H 111.898 4.00235 -1.1917 0
M  V30 1210 N 112.336 1.25143 0.95797 0
M  V30 1211 C 113.283 1.05235 2.05412 0
M  V30 1212 C 114.253 -0.0374561 1.66058 0
M  V30 1213 O 115.438 0.119073 1.90428 0
M  V30 1214 C 112.578 0.673589 3.38462 0
M  V30 1215 C 111.691 1.8379 3.90954 0
M  V30 1216 C 110.826 1.40381 5.12315 0
M  V30 1217 C 109.865 2.53746 5.57027 0
M  V30 1218 N 109.002 2.11136 6.69601 0
M  V30 1219 H 113.842 1.99048 2.21774 0
M  V30 1220 H 111.379 0.991277 1.08683 0
M  V30 1221 H 113.337 0.434964 4.14926 0
M  V30 1222 H 111.967 -0.227554 3.21997 0
M  V30 1223 H 111.019 2.18992 3.11041 0
M  V30 1224 H 112.331 2.68937 4.20089 0
M  V30 1225 H 111.485 1.12464 5.96185 0
M  V30 1226 H 110.224 0.523015 4.84887 0
M  V30 1227 H 109.229 2.82412 4.71724 0
M  V30 1228 H 110.454 3.42398 5.86464 0
M  V30 1229 H 108.4 1.25468 6.4389 0
M  V30 1230 H 108.317 2.89832 6.98236 0
M  V30 1231 H 109.585 1.86385 7.56889 0
M  V30 1232 N 113.814 -1.1601 1.06675 0
M  V30 1233 C 114.724 -2.24156 0.692179 0
M  V30 1234 C 115.74 -1.71507 -0.293513 0
M  V30 1235 O 116.916 -2.009 -0.141861 0
M  V30 1236 C 113.981 -3.46587 0.0884131 0
M  V30 1237 C 113.042 -4.14257 1.12646 0
M  V30 1238 C 112.275 -5.30844 0.551416 0
M  V30 1239 O 112.498 -5.66858 -0.634656 0
M  V30 1240 O 111.432 -5.87848 1.29298 0
M  V30 1241 H 115.258 -2.58513 1.59388 0
M  V30 1242 H 112.843 -1.23599 0.83926 0
M  V30 1243 H 114.725 -4.20679 -0.246361 0
M  V30 1244 H 113.4 -3.13994 -0.786712 0
M  V30 1245 H 112.307 -3.42118 1.51348 0
M  V30 1246 H 113.64 -4.50914 1.97325 0
M  V30 1247 N 115.292 -0.849877 -1.32721 0
M  V30 1248 C 116.54 -0.450032 -1.97026 0
M  V30 1249 C 116.861 0.996604 -1.67609 0
M  V30 1250 O 116.131 1.6958 -0.980786 0
M  V30 1251 H 114.711 -0.163426 -0.728904 0
M  V30 1252 H 117.373 -1.08526 -1.6189 0
M  V30 1253 H 116.469 -0.591146 -3.0645 0
M  V30 1254 N 116.77 1.45427 -0.607355 0
M  V30 1255 C 117.733 2.28974 0.101693 0
M  V30 1256 C 118.733 1.39754 0.795329 0
M  V30 1257 O 119.923 1.61878 0.643527 0
M  V30 1258 C 117.055 3.20768 1.15414 0
M  V30 1259 H 118.248 2.93147 -0.632844 0
M  V30 1260 H 115.801 1.51945 -0.366391 0
M  V30 1261 H 116.536 2.61395 1.91945 0
M  V30 1262 H 116.321 3.86489 0.66098 0
M  V30 1263 H 117.811 3.83589 1.65073 0
M  V30 1264 N 118.248 0.346503 1.53744 0
M  V30 1265 C 119.659 -0.136779 1.86198 0
M  V30 1266 C 120.01 -1.49749 1.26766 0
M  V30 1267 O 119.135 -2.08417 0.582355 0
M  V30 1268 C 119.73 -0.254966 3.37839 0
M  V30 1269 C 118.289 -0.682482 3.70161 0
M  V30 1270 C 117.436 0.181981 2.76702 0
M  V30 1271 H 120.387 0.565994 1.48264 0
M  V30 1272 H 120.408 -1.08195 3.64793 0
M  V30 1273 H 119.92 0.735526 3.81066 0
M  V30 1274 H 118.021 -1.68189 3.3248 0
M  V30 1275 H 118.134 -0.470326 4.76786 0
M  V30 1276 H 116.498 -0.34615 2.52337 0
M  V30 1277 H 117.281 1.16966 3.2276 0
M  V30 1278 N 119.726 -1.57421 0.075193 0
M  V30 1279 C 120.973 -1.93618 -0.593146 0
M  V30 1280 C 121.301 -0.955484 -1.69413 0
M  V30 1281 O 120.556 0.0283251 -1.9568 0
M  V30 1282 C 120.855 -3.36428 -1.20626 0
M  V30 1283 C 120.521 -4.50307 -0.231078 0
M  V30 1284 C 119.183 -4.81186 0.0371936 0
M  V30 1285 C 121.535 -5.19374 0.435888 0
M  V30 1286 C 118.863 -5.78466 0.979461 0
M  V30 1287 C 121.215 -6.17665 1.3665 0
M  V30 1288 C 119.879 -6.46958 1.6432 0
M  V30 1289 H 119.149 -0.708499 -0.217047 0
M  V30 1290 H 121.796 -1.90937 0.146793 0
M  V30 1291 H 120.101 -3.35592 -2.02201 0
M  V30 1292 H 121.798 -3.61727 -1.73073 0
M  V30 1293 H 118.388 -4.26227 -0.450357 0
M  V30 1294 H 122.572 -4.95711 0.241748 0
M  V30 1295 H 117.828 -5.99487 1.20106 0
M  V30 1296 H 122.002 -6.70284 1.88924 0
M  V30 1297 H 119.629 -7.2215 2.37494 0
M  V30 1298 N 121.204 0.198386 -1.56346 0
M  V30 1299 C 122.62 0.549085 -1.49857 0
M  V30 1300 C 122.82 1.86016 -0.774611 0
M  V30 1301 O 121.876 2.50416 -0.323776 0
M  V30 1302 C 123.189 0.606868 -2.94512 0
M  V30 1303 C 124.737 0.695925 -3.05165 0
M  V30 1304 C 125.212 0.784848 -4.51225 0
M  V30 1305 N 126.703 0.848463 -4.55363 0
M  V30 1306 C 127.438 0.937378 -5.65686 0
M  V30 1307 N 126.934 0.9888 -6.85707 0
M  V30 1308 N 128.727 0.974312 -5.53592 0
M  V30 1309 H 120.878 -0.661655 -2.01831 0
M  V30 1310 H 123.141 -0.235261 -0.918344 0
M  V30 1311 H 122.847 -0.28732 -3.50524 0
M  V30 1312 H 122.721 1.46268 -3.47686 0
M  V30 1313 H 125.108 1.58055 -2.49204 0
M  V30 1314 H 125.189 -0.186022 -2.55123 0
M  V30 1315 H 124.833 -0.0954072 -5.0781 0
M  V30 1316 H 124.763 1.68255 -4.98997 0
M  V30 1317 H 127.254 0.818103 -3.68938 0
M  V30 1318 H 127.567 1.05707 -7.65536 0
M  V30 1319 H 125.912 0.957534 -6.88372 0
M  V30 1320 H 129.103 0.930954 -4.58749 0
M  V30 1321 H 129.276 1.04015 -6.39597 0
M  V30 1322 N 122.682 1.50554 0.465978 0
M  V30 1323 C 123.592 1.72585 1.58907 0
M  V30 1324 C 124.608 0.60911 1.6299 0
M  V30 1325 O 125.784 0.88804 1.80765 0
M  V30 1326 C 122.849 1.81995 2.95091 0
M  V30 1327 C 121.91 3.05751 3.01355 0
M  V30 1328 C 121.143 3.14702 4.31043 0
M  V30 1329 O 121.366 2.30313 5.21835 0
M  V30 1330 O 120.3 4.07468 4.43005 0
M  V30 1331 H 124.126 2.67799 1.43239 0
M  V30 1332 H 121.711 1.34711 0.646013 0
M  V30 1333 H 123.593 1.90335 3.75966 0
M  V30 1334 H 122.268 0.899659 3.10947 0
M  V30 1335 H 121.175 3.02908 2.19539 0
M  V30 1336 H 122.508 3.97375 2.90437 0
M  V30 1337 N 124.16 -0.719506 1.40217 0
M  V30 1338 C 125.408 -1.47641 1.3801 0
M  V30 1339 C 125.729 -1.94992 -0.018145 0
M  V30 1340 O 124.999 -1.70073 -0.972207 0
M  V30 1341 H 123.579 -0.547744 0.507923 0
M  V30 1342 H 126.241 -0.853187 1.75233 0
M  V30 1343 H 125.337 -2.35112 2.05253 0
M  V30 1344 N 125.638 -1.25649 -0.95132 0
M  V30 1345 C 127.054 -1.02542 -1.223 0
M  V30 1346 C 127.254 0.255715 -1.99871 0
M  V30 1347 O 126.31 0.967558 -2.33226 0
M  V30 1348 C 127.623 -2.25065 -1.99415 0
M  V30 1349 C 129.171 -2.29861 -2.12446 0
M  V30 1350 C 129.646 -3.52048 -2.92961 0
M  V30 1351 N 131.137 -3.52465 -3.00538 0
M  V30 1352 C 131.872 -4.43672 -3.63239 0
M  V30 1353 N 131.368 -5.45157 -4.27523 0
M  V30 1354 N 133.161 -4.31346 -3.60412 0
M  V30 1355 H 125.312 -2.07951 -0.432471 0
M  V30 1356 H 127.575 -0.91339 -0.253816 0
M  V30 1357 H 127.281 -3.18194 -1.49817 0
M  V30 1358 H 127.155 -2.28502 -3.00111 0
M  V30 1359 H 129.542 -1.37252 -2.61239 0
M  V30 1360 H 129.623 -2.3044 -1.11044 0
M  V30 1361 H 129.267 -4.44981 -2.44856 0
M  V30 1362 H 129.197 -3.48715 -3.94596 0
M  V30 1363 H 131.688 -2.79056 -2.54826 0
M  V30 1364 H 132.001 -6.10958 -4.73234 0
M  V30 1365 H 130.346 -5.49025 -4.26141 0
M  V30 1366 H 133.537 -3.51288 -3.09377 0
M  V30 1367 H 133.71 -5.02624 -4.0899 0
M  V30 1368 N 127.117 1.15442 -1.07289 0
M  V30 1369 C 128.347 1.89821 -0.815576 0
M  V30 1370 C 128.755 1.7823 0.634867 0
M  V30 1371 O 128.098 1.13152 1.44715 0
M  V30 1372 C 128.16 3.40817 -1.14385 0
M  V30 1373 C 127.824 3.76193 -2.59476 0
M  V30 1374 C 128.821 3.77269 -3.57721 0
M  V30 1375 C 126.506 4.0652 -2.95037 0
M  V30 1376 C 128.5 4.08176 -4.89562 0
M  V30 1377 C 126.187 4.37092 -4.27076 0
M  V30 1378 C 127.185 4.37902 -5.24148 0
M  V30 1379 O 126.873 4.67741 -6.53815 0
M  V30 1380 H 126.605 0.608465 -0.294528 0
M  V30 1381 H 129.159 1.472 -1.43252 0
M  V30 1382 H 127.389 3.83835 -0.469865 0
M  V30 1383 H 129.078 3.96485 -0.869179 0
M  V30 1384 H 129.844 3.5394 -3.3159 0
M  V30 1385 H 125.723 4.05049 -2.20128 0
M  V30 1386 H 129.267 4.08723 -5.65324 0
M  V30 1387 H 125.164 4.59889 -4.5296 0
M  V30 1388 H 125.932 4.85509 -6.58957 0
M  V30 1389 N 128.595 0.856903 1.32268 0
M  V30 1390 C 129.545 0.274899 2.26337 0
M  V30 1391 C 130.529 -0.580543 1.50062 0
M  V30 1392 O 131.721 -0.429559 1.71708 0
M  V30 1393 C 128.85 -0.533841 3.39124 0
M  V30 1394 C 127.936 0.334114 4.22782 0
M  V30 1395 N 128.327 1.42143 4.85416 0
M  V30 1396 C 126.625 0.124256 4.45827 0
M  V30 1397 C 127.326 1.95559 5.47843 0
M  V30 1398 N 126.302 1.25444 5.28928 0
M  V30 1399 H 130.104 1.10612 2.72291 0
M  V30 1400 H 127.618 0.703258 1.46383 0
M  V30 1401 H 129.615 -0.96722 4.05525 0
M  V30 1402 H 128.275 -1.36283 2.94715 0
M  V30 1403 H 129.286 1.80436 4.85451 0
M  V30 1404 H 125.963 -0.669837 4.12092 0
M  V30 1405 H 127.353 2.86714 6.07655 0
M  V30 1406 N 130.073 -1.45103 0.615059 0
M  V30 1407 C 131.303 -2.06254 0.119596 0
M  V30 1408 C 131.711 -1.4591 -1.20445 0
M  V30 1409 O 131.054 -0.570384 -1.7462 0
M  V30 1410 C 131.116 -3.59396 -0.0865591 0
M  V30 1411 C 130.78 -4.42116 1.15683 0
M  V30 1412 C 131.777 -4.7662 2.07676 0
M  V30 1413 C 129.462 -4.82749 1.38775 0
M  V30 1414 C 131.456 -5.50622 3.21082 0
M  V30 1415 C 129.143 -5.56504 2.52481 0
M  V30 1416 C 130.141 -5.90358 3.43463 0
M  V30 1417 O 129.829 -6.62615 4.55189 0
M  V30 1418 H 129.561 -0.672423 0.0694512 0
M  V30 1419 H 132.115 -1.87219 0.844885 0
M  V30 1420 H 130.345 -3.76859 -0.866823 0
M  V30 1421 H 132.034 -4.02365 -0.534555 0
M  V30 1422 H 132.8 -4.4578 1.91063 0
M  V30 1423 H 128.679 -4.55829 0.688545 0
M  V30 1424 H 132.223 -5.76965 3.92119 0
M  V30 1425 H 128.12 -5.86759 2.69043 0
M  V30 1426 H 128.888 -6.81071 4.53966 0
M  V30 1427 N 131.551 -0.354651 -1.53558 0
M  V30 1428 C 132.798 0.238443 -2.01091 0
M  V30 1429 C 133.126 1.49663 -1.24222 0
M  V30 1430 O 132.381 1.93049 -0.321003 0
M  V30 1431 C 132.68 0.587121 -3.52545 0
M  V30 1432 C 132.346 -0.575472 -4.47213 0
M  V30 1433 C 131.008 -0.894497 -4.72813 0
M  V30 1434 C 133.36 -1.35489 -5.03281 0
M  V30 1435 C 130.688 -1.99511 -5.51736 0
M  V30 1436 C 133.04 -2.44583 -5.83405 0
M  V30 1437 C 131.704 -2.77033 -6.07296 0
M  V30 1438 H 130.974 0.0872526 -0.735845 0
M  V30 1439 H 133.621 -0.484859 -1.8526 0
M  V30 1440 H 131.926 1.39129 -3.66265 0
M  V30 1441 H 133.623 1.05809 -3.86789 0
M  V30 1442 H 130.213 -0.316774 -4.27428 0
M  V30 1443 H 134.397 -1.12167 -4.83459 0
M  V30 1444 H 129.653 -2.25063 -5.68469 0
M  V30 1445 H 133.827 -3.05401 -6.25862 0
M  V30 1446 H 131.454 -3.6244 -6.68237 0
M  V30 1447 N 133.029 1.57378 -0.0835403 0
M  V30 1448 C 134.276 1.9393 0.58287 0
M  V30 1449 C 134.604 0.964455 1.68904 0
M  V30 1450 O 133.859 -0.0179474 1.95692 0
M  V30 1451 C 134.158 3.37063 1.1884 0
M  V30 1452 C 133.824 4.50424 0.207194 0
M  V30 1453 C 132.486 4.81159 -0.0627115 0
M  V30 1454 C 134.838 5.19136 -0.463426 0
M  V30 1455 C 132.166 5.77939 -1.01012 0
M  V30 1456 C 134.518 6.16931 -1.39924 0
M  V30 1457 C 133.182 6.46078 -1.67749 0
M  V30 1458 H 132.452 0.70964 0.213287 0
M  V30 1459 H 135.099 1.90856 -0.156916 0
M  V30 1460 H 133.404 3.3666 2.00418 0
M  V30 1461 H 135.101 3.6264 1.71153 0
M  V30 1462 H 131.691 4.2646 0.427747 0
M  V30 1463 H 135.875 4.95576 -0.268034 0
M  V30 1464 H 131.131 5.98842 -1.23283 0
M  V30 1465 H 135.305 6.69273 -1.92476 0
M  V30 1466 H 132.932 7.2088 -2.41321 0
M  V30 1467 N 134.507 -0.190092 1.56449 0
M  V30 1468 C 135.454 -1.23557 1.94942 0
M  V30 1469 C 136.424 -1.44972 0.810696 0
M  V30 1470 O 137.609 -1.58023 1.06927 0
M  V30 1471 C 134.749 -2.57416 2.2985 0
M  V30 1472 C 133.862 -2.43537 3.5681 0
M  V30 1473 C 132.997 -3.70134 3.81017 0
M  V30 1474 C 132.036 -3.51109 5.01387 0
M  V30 1475 N 131.173 -4.6973 5.21822 0
M  V30 1476 H 136.013 -0.900304 2.84075 0
M  V30 1477 H 133.55 -0.43318 1.40577 0
M  V30 1478 H 135.508 -3.35409 2.48106 0
M  V30 1479 H 134.138 -2.88975 1.43852 0
M  V30 1480 H 133.19 -1.56816 3.46573 0
M  V30 1481 H 134.502 -2.25415 4.4496 0
M  V30 1482 H 133.656 -4.56566 3.9954 0
M  V30 1483 H 132.395 -3.91215 2.91207 0
M  V30 1484 H 131.4 -2.63063 4.82782 0
M  V30 1485 H 132.625 -3.31468 5.9271 0
M  V30 1486 H 130.571 -4.91065 4.34961 0
M  V30 1487 H 130.488 -4.54452 6.0416 0
M  V30 1488 H 131.756 -5.57499 5.44808 0
M  V30 1489 N 135.985 -1.50799 -0.457987 0
M  V30 1490 C 136.933 -1.71162 -1.575 0
M  V30 1491 C 137.927 -0.577592 -1.59249 0
M  V30 1492 O 139.133 -0.758443 -1.63241 0
M  V30 1493 H 135.508 -0.540468 -0.522875 0
M  V30 1494 H 137.479 -2.64837 -1.37492 0
M  V30 1495 C 136.228 -1.83496 -2.95338 0
M  V30 1496 H 135.551 -2.70153 -2.94716 0
M  V30 1497 H 136.991 -2.01765 -3.72917 0
M  V30 1498 C 135.45 -0.589694 -3.31699 0
M  V30 1499 O 135.98 0.265163 -4.00824 0
M  V30 1500 N 134.186 -0.439845 -2.87252 0
M  V30 1501 H 133.733 -1.13655 -2.31172 0
M  V30 1502 H 133.691 0.392159 -3.11945 0
M  V30 1503 N 137.463 0.71206 -1.40597 0
M  V30 1504 C 138.74 1.46536 -1.29563 0
M  V30 1505 C 139.12 2.10931 0.0844217 0
M  V30 1506 O 138.468 2.00418 1.0975 0
M  V30 1507 C 138.678 2.49821 -2.43701 0
M  V30 1508 C 140.026 3.15551 -2.841 0
M  V30 1509 O 141.05 2.60142 -2.4332 0
M  V30 1510 O 139.909 4.15867 -3.54566 0
M  V30 1511 H 137.003 0.651801 -0.509004 0
M  V30 1512 H 139.549 0.743935 -1.52524 0
M  V30 1513 H 138.321 2.00778 -3.35863 0
M  V30 1514 H 137.944 3.29495 -2.22528 0
M  V30 1515 N 138.941 1.26152 0.944643 0
M  V30 1516 C 140.189 1.11271 1.6871 0
M  V30 1517 C 140.51 -0.345166 1.91921 0
M  V30 1518 O 139.78 -1.24387 1.51343 0
M  V30 1519 H 138.36 0.408783 0.625224 0
M  V30 1520 H 141.022 1.58427 1.1352 0
M  V30 1521 H 140.118 1.62879 2.66227 0
M  V30 1522 N 140.419 -1.14872 1.07899 0
M  V30 1523 C 141.349 -2.2193 0.725887 0
M  V30 1524 C 142.33 -1.67622 -0.28927 0
M  V30 1525 O 143.515 -1.93533 -0.160787 0
M  V30 1526 C 140.645 -3.47061 0.128856 0
M  V30 1527 C 139.599 -4.14363 1.07178 0
M  V30 1528 C 138.925 -5.33636 0.337229 0
M  V30 1529 C 140.225 -4.63492 2.40775 0
M  V30 1530 H 141.919 -2.51724 1.62097 0
M  V30 1531 H 139.465 -1.20991 0.780838 0
M  V30 1532 H 141.418 -4.21199 -0.130147 0
M  V30 1533 H 140.142 -3.16617 -0.80134 0
M  V30 1534 H 138.801 -3.42173 1.3158 0
M  V30 1535 H 138.449 -4.99449 -0.596606 0
M  V30 1536 H 138.149 -5.79609 0.965788 0
M  V30 1537 H 139.673 -6.10539 0.0861567 0
M  V30 1538 H 141.087 -5.2913 2.20669 0
M  V30 1539 H 139.484 -5.20148 2.99276 0
M  V30 1540 H 140.554 -3.78834 3.02676 0
M  V30 1541 N 141.898 -0.863906 -1.31812 0
M  V30 1542 C 142.83 -0.272485 -2.27575 0
M  V30 1543 C 143.843 0.56104 -1.52827 0
M  V30 1544 O 145.032 0.384021 -1.7432 0
M  V30 1545 C 142.132 0.63283 -3.32939 0
M  V30 1546 C 141.305 -0.166902 -4.37081 0
M  V30 1547 C 140.364 0.665608 -5.21973 0
M  V30 1548 O 139.39 0.0958091 -5.69119 0
M  V30 1549 N 140.592 1.9787 -5.45736 0
M  V30 1550 H 143.357 -1.0954 -2.78964 0
M  V30 1551 H 140.918 -0.724791 -1.4477 0
M  V30 1552 H 142.91 1.19532 -3.86645 0
M  V30 1553 H 141.48 1.35642 -2.81638 0
M  V30 1554 H 140.7 -0.910838 -3.83533 0
M  V30 1555 H 141.988 -0.715874 -5.03739 0
M  V30 1556 H 141.386 2.46484 -5.09178 0
M  V30 1557 H 139.943 2.48911 -6.024 0
M  V30 1558 N 143.376 1.44774 -0.622745 0
M  V30 1559 C 144.324 2.32387 0.0994683 0
M  V30 1560 C 145.318 1.46859 0.844326 0
M  V30 1561 O 146.524 1.63254 0.758174 0
M  V30 1562 H 142.899 0.750273 0.0509291 0
M  V30 1563 H 144.87 2.91062 -0.65767 0
M  V30 1564 C 143.619 3.30723 1.07319 0
M  V30 1565 H 142.942 3.96541 0.509462 0
M  V30 1566 H 144.382 3.94725 1.54817 0
M  V30 1567 C 142.841 2.59021 2.15429 0
M  V30 1568 O 143.371 2.38286 3.23393 0
M  V30 1569 N 141.577 2.189 1.91131 0
M  V30 1570 H 141.124 2.35964 1.03337 0
M  V30 1571 H 141.082 1.71251 2.63668 0
M  V30 1572 N 144.854 0.36279 1.53368 0
M  V30 1573 C 145.786 -0.519668 2.23231 0
M  V30 1574 C 146.799 -1.04844 1.24546 0
M  V30 1575 O 147.988 -0.955296 1.50786 0
M  V30 1576 C 145.088 -1.72995 2.9142 0
M  V30 1577 C 144.261 -1.33316 4.16588 0
M  V30 1578 C 143.32 -2.40521 4.68013 0
M  V30 1579 O 142.346 -2.03027 5.3176 0
M  V30 1580 N 143.548 -3.72065 4.45587 0
M  V30 1581 H 146.313 0.078751 2.99597 0
M  V30 1582 H 143.874 0.187833 1.60807 0
M  V30 1583 H 145.866 -2.44184 3.22733 0
M  V30 1584 H 144.436 -2.2353 2.18525 0
M  V30 1585 H 143.656 -0.451236 3.91609 0
M  V30 1586 H 144.944 -1.04432 4.97967 0
M  V30 1587 H 144.342 -4.05304 3.94646 0
M  V30 1588 H 142.899 -4.39366 4.81457 0
M  V30 1589 N 146.332 -1.57332 0.0918853 0
M  V30 1590 C 147.28 -2.15075 -0.885747 0
M  V30 1591 C 148.274 -1.09277 -1.29441 0
M  V30 1592 O 149.48 -1.27627 -1.26931 0
M  V30 1593 H 145.855 -0.687966 -0.303656 0
M  V30 1594 H 147.826 -2.96047 -0.373995 0
M  V30 1595 C 146.575 -2.74325 -2.13638 0
M  V30 1596 H 145.898 -3.55418 -1.8308 0
M  V30 1597 H 147.338 -3.183 -2.80109 0
M  V30 1598 C 145.797 -1.70062 -2.90827 0
M  V30 1599 O 146.327 -1.13763 -3.85254 0
M  V30 1600 N 144.533 -1.40628 -2.54307 0
M  V30 1601 H 144.08 -1.866 -1.7759 0
M  V30 1602 H 144.038 -0.711043 -3.06254 0
M  V30 1603 N 147.81 0.181792 -1.56548 0
M  V30 1604 C 149.056 0.901431 -1.81665 0
M  V30 1605 C 149.389 1.82347 -0.668075 0
M  V30 1606 O 148.664 1.91669 0.330615 0
M  V30 1607 C 148.947 1.70618 -3.17115 0
M  V30 1608 C 148.8 0.807964 -4.42484 0
M  V30 1609 C 150.119 2.67605 -3.49393 0
M  V30 1610 H 147.238 0.32627 -0.660846 0
M  V30 1611 H 149.88 0.168134 -1.89255 0
M  V30 1612 H 148.03 2.33133 -3.10775 0
M  V30 1613 H 149.702 0.19649 -4.60881 0
M  V30 1614 H 147.945 0.115411 -4.33646 0
M  V30 1615 H 148.616 1.40632 -5.33785 0
M  V30 1616 H 151.092 2.15218 -3.56118 0
M  V30 1617 H 149.968 3.20985 -4.45264 0
M  V30 1618 H 150.229 3.47298 -2.73563 0
M  V30 1619 N 149.288 1.51039 0.449983 0
M  V30 1620 C 150.218 1.74379 1.55288 0
M  V30 1621 C 151.199 0.593236 1.5942 0
M  V30 1622 O 152.384 0.834625 1.7535 0
M  V30 1623 C 149.514 1.85728 2.93466 0
M  V30 1624 C 148.468 3.01078 3.04197 0
M  V30 1625 C 147.794 2.97595 4.44231 0
M  V30 1626 C 149.094 4.41254 2.7945 0
M  V30 1627 H 150.788 2.66725 1.36008 0
M  V30 1628 H 148.334 1.2835 0.652864 0
M  V30 1629 H 150.287 2.0064 3.70569 0
M  V30 1630 H 149.011 0.900207 3.13949 0
M  V30 1631 H 147.67 2.85851 2.29531 0
M  V30 1632 H 147.318 1.99691 4.61663 0
M  V30 1633 H 147.018 3.75046 4.52343 0
M  V30 1634 H 148.542 3.14583 5.23326 0
M  V30 1635 H 149.956 4.56897 3.46292 0
M  V30 1636 H 148.353 5.20315 2.98985 0
M  V30 1637 H 149.423 4.52164 1.75144 0
M  V30 1638 N 150.766 -0.704594 1.40972 0
M  V30 1639 C 152.012 -1.46546 1.41053 0
M  V30 1640 C 152.367 -1.92393 0.0159714 0
M  V30 1641 O 151.66 -1.66017 -0.956506 0
M  V30 1642 C 151.854 -2.698 2.34399 0
M  V30 1643 C 151.683 -2.36008 3.82793 0
M  V30 1644 C 150.453 -2.26812 4.51536 0
M  V30 1645 C 152.651 -1.99565 4.74003 0
M  V30 1646 N 150.633 -1.8581 5.85105 0
M  V30 1647 C 152.004 -1.69251 5.96451 0
M  V30 1648 C 154.059 -1.86296 4.61734 0
M  V30 1649 C 152.762 -1.27003 7.07999 0
M  V30 1650 C 154.788 -1.45452 5.73234 0
M  V30 1651 C 154.15 -1.16043 6.94776 0
M  V30 1652 H 150.249 -0.533896 0.571383 0
M  V30 1653 H 152.833 -0.816061 1.76773 0
M  V30 1654 H 151.004 -3.32473 2.00789 0
M  V30 1655 H 152.736 -3.36214 2.25261 0
M  V30 1656 H 149.491 -2.44913 4.05357 0
M  V30 1657 H 149.915 -1.67817 6.55871 0
M  V30 1658 H 154.557 -2.0769 3.68273 0
M  V30 1659 H 152.275 -1.04353 8.01334 0
M  V30 1660 H 155.861 -1.35748 5.65742 0
M  V30 1661 H 154.741 -0.84915 7.79589 0
M  V30 1662 N 152.244 -1.26651 -0.937939 0
M  V30 1663 C 153.66 -1.03834 -1.21205 0
M  V30 1664 C 153.86 0.234502 -2.00131 0
M  V30 1665 O 152.916 0.942767 -2.3424 0
M  V30 1666 C 154.229 -2.27167 -1.97017 0
M  V30 1667 C 155.777 -2.32101 -2.09996 0
M  V30 1668 C 156.252 -3.55136 -2.8921 0
M  V30 1669 N 157.743 -3.55632 -2.96783 0
M  V30 1670 C 158.478 -4.475 -3.58512 0
M  V30 1671 N 157.974 -5.4966 -4.21717 0
M  V30 1672 N 159.767 -4.35145 -3.55816 0
M  V30 1673 H 151.918 -2.08398 -0.410391 0
M  V30 1674 H 154.181 -0.916031 -0.244114 0
M  V30 1675 H 153.887 -3.19765 -1.46434 0
M  V30 1676 H 153.761 -2.31672 -2.97671 0
M  V30 1677 H 156.148 -1.40015 -2.59769 0
M  V30 1678 H 156.229 -2.31605 -1.08594 0
M  V30 1679 H 155.873 -4.47553 -2.40123 0
M  V30 1680 H 155.803 -3.5288 -3.90875 0
M  V30 1681 H 158.294 -2.81743 -2.51852 0
M  V30 1682 H 158.607 -6.15943 -4.66727 0
M  V30 1683 H 156.952 -5.53514 -4.20294 0
M  V30 1684 H 160.143 -3.5455 -3.05634 0
M  V30 1685 H 160.316 -5.06934 -4.03636 0
M  V30 1686 N 153.722 1.14298 -1.08507 0
M  V30 1687 C 154.654 2.1907 -0.673859 0
M  V30 1688 C 155.667 1.60381 0.279577 0
M  V30 1689 O 156.856 1.78374 0.0670754 0
M  V30 1690 C 153.956 3.38888 0.0290979 0
M  V30 1691 C 153.129 4.27103 -0.943494 0
M  V30 1692 C 152.188 5.25477 -0.275676 0
M  V30 1693 O 151.214 5.61709 -0.920401 0
M  V30 1694 N 152.416 5.7227 0.974013 0
M  V30 1695 H 155.181 2.54965 -1.57521 0
M  V30 1696 H 152.742 1.29528 -0.971287 0
M  V30 1697 H 154.734 4.01761 0.48683 0
M  V30 1698 H 153.304 3.01309 0.832555 0
M  V30 1699 H 152.524 3.61149 -1.58004 0
M  V30 1700 H 153.812 4.82905 -1.60251 0
M  V30 1701 H 153.21 5.44965 1.51755 0
M  V30 1702 H 151.767 6.37127 1.37522 0
M  V30 1703 N 155.201 0.870884 1.31352 0
M  V30 1704 C 156.148 0.325425 2.28494 0
M  V30 1705 C 157.118 -0.576615 1.5577 0
M  V30 1706 O 158.303 -0.508059 1.83911 0
M  V30 1707 C 155.443 -0.466283 3.41935 0
M  V30 1708 C 154.556 0.463378 4.29508 0
M  V30 1709 C 153.691 -0.342544 5.30094 0
M  V30 1710 C 152.73 0.583486 6.09313 0
M  V30 1711 N 151.867 -0.186244 7.01853 0
M  V30 1712 H 156.707 1.15901 2.74538 0
M  V30 1713 H 154.244 0.58294 1.35056 0
M  V30 1714 H 156.202 -0.941085 4.06447 0
M  V30 1715 H 154.832 -1.26456 2.97 0
M  V30 1716 H 153.884 1.05663 3.65431 0
M  V30 1717 H 155.196 1.1734 4.84802 0
M  V30 1718 H 154.35 -0.879816 6.00287 0
M  V30 1719 H 153.089 -1.08585 4.75458 0
M  V30 1720 H 152.094 1.13251 5.3801 0
M  V30 1721 H 153.319 1.32566 6.66035 0
M  V30 1722 H 151.265 -0.912348 6.49625 0
M  V30 1723 H 151.182 0.464422 7.54572 0
M  V30 1724 H 152.45 -0.704716 7.76308 0
M  V30 1725 N 156.679 -1.44442 0.630414 0
M  V30 1726 C 157.589 -2.34476 -0.0761693 0
M  V30 1727 C 158.605 -1.52576 -0.836449 0
M  V30 1728 O 159.781 -1.85307 -0.788874 0
M  V30 1729 C 156.846 -3.30545 -1.04599 0
M  V30 1730 C 155.907 -4.28352 -0.28516 0
M  V30 1731 C 155.14 -5.19831 -1.20878 0
M  V30 1732 O 155.363 -5.15223 -2.44747 0
M  V30 1733 O 154.297 -5.97892 -0.693491 0
M  V30 1734 H 158.123 -2.96345 0.664324 0
M  V30 1735 H 155.708 -1.44203 0.39061 0
M  V30 1736 H 157.59 -3.89681 -1.60396 0
M  V30 1737 H 156.265 -2.7121 -1.76711 0
M  V30 1738 H 155.172 -3.72764 0.315837 0
M  V30 1739 H 156.505 -4.90605 0.395924 0
M  V30 1740 N 158.157 -0.370918 -1.53173 0
M  V30 1741 C 159.405 0.216673 -2.00935 0
M  V30 1742 C 159.726 1.48845 -1.25977 0
M  V30 1743 O 158.996 1.92286 -0.374551 0
M  V30 1744 H 157.576 0.0830565 -0.742368 0
M  V30 1745 H 160.238 -0.49838 -1.8842 0
M  V30 1746 H 159.334 0.439893 -3.08984 0
M  V30 1747 N 159.635 1.57281 -0.100228 0
M  V30 1748 C 160.582 2.14305 0.856858 0
M  V30 1749 C 161.552 1.06296 1.27634 0
M  V30 1750 O 162.737 1.34109 1.35718 0
M  V30 1751 C 159.877 2.73184 2.10866 0
M  V30 1752 C 158.99 3.95442 1.73925 0
M  V30 1753 C 158.125 4.42468 2.93931 0
M  V30 1754 C 157.164 5.57303 2.5314 0
M  V30 1755 N 156.301 5.99158 3.65997 0
M  V30 1756 H 161.141 2.95772 0.363726 0
M  V30 1757 H 158.678 1.46139 0.167858 0
M  V30 1758 H 160.636 3.05442 2.84185 0
M  V30 1759 H 159.266 1.94437 2.57671 0
M  V30 1760 H 158.318 3.69464 0.905554 0
M  V30 1761 H 159.63 4.78769 1.39935 0
M  V30 1762 H 158.784 4.76537 3.75496 0
M  V30 1763 H 157.523 3.58052 3.31134 0
M  V30 1764 H 156.528 5.22857 1.70003 0
M  V30 1765 H 157.753 6.43471 2.17075 0
M  V30 1766 H 155.699 5.17687 4.02909 0
M  V30 1767 H 155.616 6.77295 3.35869 0
M  V30 1768 H 156.884 6.3786 4.48057 0
M  V30 1769 N 161.113 -0.173488 1.56642 0
M  V30 1770 C 162.524 -0.736155 1.71574 0
M  V30 1771 C 162.875 -1.82888 0.710389 0
M  V30 1772 O 162 -2.16017 -0.1287 0
M  V30 1773 C 162.595 -1.34211 3.11083 0
M  V30 1774 C 161.154 -1.85162 3.27707 0
M  V30 1775 C 160.301 -0.729765 2.67525 0
M  V30 1776 H 163.252 0.0518786 1.58615 0
M  V30 1777 H 163.273 -2.21178 3.09613 0
M  V30 1778 H 162.785 -0.546579 3.84232 0
M  V30 1779 H 160.886 -2.67366 2.59512 0
M  V30 1780 H 160.999 -1.99855 4.35425 0
M  V30 1781 H 159.363 -1.14965 2.27278 0
M  V30 1782 H 160.146 0.0538806 3.43258 0
M  V30 1783 N 162.591 -1.51276 -0.441967 0
M  V30 1784 C 163.554 -1.7167 -1.51862 0
M  V30 1785 C 164.554 -0.586793 -1.49711 0
M  V30 1786 O 165.744 -0.854276 -1.51815 0
M  V30 1787 C 162.876 -1.76889 -2.91416 0
M  V30 1788 H 164.069 -2.67754 -1.35084 0
M  V30 1789 H 161.622 -1.41196 -0.670333 0
M  V30 1790 H 162.357 -0.826026 -3.13604 0
M  V30 1791 H 162.142 -2.59001 -2.94382 0
M  V30 1792 H 163.632 -1.94522 -3.69528 0
M  V30 1793 N 164.069 0.697108 -1.41344 0
M  V30 1794 C 164.979 1.84088 -1.45427 0
M  V30 1795 C 165.995 1.70545 -0.34501 0
M  V30 1796 O 167.171 1.92488 -0.592492 0
M  V30 1797 C 164.236 3.20056 -1.33286 0
M  V30 1798 C 163.297 3.45718 -2.54514 0
M  V30 1799 C 162.53 4.75199 -2.42944 0
M  V30 1800 O 162.753 5.51579 -1.45318 0
M  V30 1801 O 161.687 5.0161 -3.32672 0
M  V30 1802 H 165.513 1.836 -2.41919 0
M  V30 1803 H 163.098 0.849966 -1.22866 0
M  V30 1804 H 164.98 4.01236 -1.28794 0
M  V30 1805 H 163.655 3.2123 -0.39909 0
M  V30 1806 H 162.562 2.64474 -2.64583 0
M  V30 1807 H 163.895 3.49356 -3.46715 0
M  V30 1808 N 165.547 1.27147 0.931209 0
M  V30 1809 C 166.793 1.13446 1.68101 0
M  V30 1810 C 167.126 -0.319628 1.91552 0
M  V30 1811 O 166.401 -1.23407 1.50336 0
M  V30 1812 C 166.684 1.91482 3.0497 0
M  V30 1813 C 166.537 3.44855 2.88782 0
M  V30 1814 C 167.856 1.71651 4.05246 0
M  V30 1815 H 164.975 0.413498 0.610072 0
M  V30 1816 H 167.617 1.56261 1.08086 0
M  V30 1817 H 165.767 1.55095 3.56199 0
M  V30 1818 H 167.439 3.9105 2.44698 0
M  V30 1819 H 165.682 3.71373 2.24198 0
M  V30 1820 H 166.353 3.94694 3.85902 0
M  V30 1821 H 168.829 2.0337 3.63015 0
M  V30 1822 H 167.705 2.28651 4.99009 0
M  V30 1823 H 167.966 0.663555 4.37092 0
M  V30 1824 N 167.025 -1.13721 1.09112 0
M  V30 1825 C 168.272 -1.84924 0.825192 0
M  V30 1826 C 168.6 -1.83347 -0.649151 0
M  V30 1827 O 167.855 -1.26449 -1.49362 0
M  V30 1828 C 168.154 -3.32861 1.30146 0
M  V30 1829 C 167.82 -3.54621 2.78486 0
M  V30 1830 C 166.482 -3.60268 3.18999 0
M  V30 1831 C 168.834 -3.62855 3.74146 0
M  V30 1832 C 166.162 -3.71679 4.53951 0
M  V30 1833 C 168.514 -3.75793 5.08883 0
M  V30 1834 C 167.178 -3.79692 5.4899 0
M  V30 1835 H 166.448 -0.676684 0.301959 0
M  V30 1836 H 169.095 -1.3428 1.36533 0
M  V30 1837 H 167.4 -3.85835 0.681064 0
M  V30 1838 H 169.097 -3.86395 1.07236 0
M  V30 1839 H 165.687 -3.50879 2.46134 0
M  V30 1840 H 169.871 -3.57775 3.43963 0
M  V30 1841 H 165.127 -3.72963 4.84467 0
M  V30 1842 H 169.301 -3.81107 5.82864 0
M  V30 1843 H 166.928 -3.88287 6.53558 0
M  V30 1844 N 168.503 -0.877838 -1.30888 0
M  V30 1845 C 169.433 -0.35534 -2.3078 0
M  V30 1846 C 170.414 0.557994 -1.60687 0
M  V30 1847 O 171.599 0.473355 -1.88343 0
M  V30 1848 C 168.729 0.437221 -3.44537 0
M  V30 1849 C 167.683 -0.383715 -4.26276 0
M  V30 1850 C 167.009 0.535014 -5.32017 0
M  V30 1851 C 168.309 -1.62201 -4.96476 0
M  V30 1852 H 170.003 -1.19007 -2.74732 0
M  V30 1853 H 167.549 -0.573698 -1.32078 0
M  V30 1854 H 169.502 0.813334 -4.13477 0
M  V30 1855 H 168.226 1.30553 -2.99372 0
M  V30 1856 H 166.885 -0.741874 -3.59015 0
M  V30 1857 H 166.533 1.40083 -4.831 0
M  V30 1858 H 166.233 -0.0104211 -5.87599 0
M  V30 1859 H 167.757 0.907799 -6.03814 0
M  V30 1860 H 169.171 -1.31689 -5.5797 0
M  V30 1861 H 167.568 -2.10711 -5.61891 0
M  V30 1862 H 168.638 -2.37044 -4.23011 0
M  V30 1863 N 169.982 1.44106 -0.638065 0
M  V30 1864 C 171.259 1.95453 -0.0759321 0
M  V30 1865 C 171.639 1.57984 1.40015 0
M  V30 1866 O 170.987 0.857361 2.11806 0
M  V30 1867 C 171.197 3.47655 -0.306132 0
M  V30 1868 C 172.545 4.24114 -0.203008 0
M  V30 1869 O 173.569 3.55405 -0.237871 0
M  V30 1870 O 172.428 5.46381 -0.113827 0
M  V30 1871 H 169.522 0.826797 0.0183332 0
M  V30 1872 H 172.068 1.54122 -0.710251 0
M  V30 1873 H 170.84 3.68 -1.3301 0
M  V30 1874 H 170.463 3.95949 0.361991 0
M  V30 1875 N 171.46 0.379036 1.52974 0
M  V30 1876 C 172.871 -0.0972525 1.86447 0
M  V30 1877 C 173.222 -1.47027 1.29914 0
M  V30 1878 O 172.347 -2.07135 0.626433 0
M  V30 1879 C 172.942 -0.183248 3.38304 0
M  V30 1880 C 171.501 -0.603812 3.71525 0
M  V30 1881 C 170.648 0.240632 2.76254 0
M  V30 1882 H 173.599 0.597316 1.4703 0
M  V30 1883 H 173.62 -1.00432 3.67006 0
M  V30 1884 H 173.132 0.816191 3.79421 0
M  V30 1885 H 171.233 -1.61099 3.35973 0
M  V30 1886 H 171.346 -0.369086 4.77676 0
M  V30 1887 H 169.71 -0.292548 2.53014 0
M  V30 1888 H 170.493 1.23786 3.20206 0
M  V30 1889 N 172.938 -1.57226 0.108567 0
M  V30 1890 C 173.886 -2.16002 -0.862885 0
M  V30 1891 C 174.88 -1.10644 -1.28274 0
M  V30 1892 O 176.086 -1.28966 -1.2557 0
M  V30 1893 H 172.461 -0.691148 -0.296342 0
M  V30 1894 H 174.432 -2.96427 -0.342575 0
M  V30 1895 C 173.181 -2.76576 -2.10716 0
M  V30 1896 H 172.504 -3.5734 -1.793 0
M  V30 1897 H 173.944 -3.21253 -2.76717 0
M  V30 1898 C 172.403 -1.73137 -2.89007 0
M  V30 1899 O 172.933 -1.17842 -3.84026 0
M  V30 1900 N 171.139 -1.43317 -2.52801 0
M  V30 1901 H 170.686 -1.88473 -1.75601 0
M  V30 1902 H 170.644 -0.743485 -3.05483 0
M  V30 1903 N 174.416 0.165178 -1.56732 0
M  V30 1904 C 175.644 0.896218 -1.86482 0
M  V30 1905 C 176.059 1.75555 -0.694675 0
M  V30 1906 O 175.416 1.79379 0.33607 0
M  V30 1907 C 175.467 1.76792 -3.1532 0
M  V30 1908 O 175.188 0.943239 -4.27825 0
M  V30 1909 C 176.689 2.6081 -3.58459 0
M  V30 1910 H 173.909 0.260064 -0.618553 0
M  V30 1911 H 176.453 0.163428 -2.03846 0
M  V30 1912 H 174.608 2.45398 -2.99764 0
M  V30 1913 H 175.022 1.53998 -5.01383 0
M  V30 1914 H 176.496 3.17579 -4.51495 0
M  V30 1915 H 176.973 3.35977 -2.82872 0
M  V30 1916 H 177.579 1.97526 -3.76648 0
M  V30 1917 N 175.894 1.51508 0.433938 0
M  V30 1918 C 176.824 1.76016 1.53429 0
M  V30 1919 C 177.805 0.610112 1.58782 0
M  V30 1920 O 178.99 0.853177 1.74455 0
M  V30 1921 C 176.12 1.88831 2.9148 0
M  V30 1922 C 175.074 3.04288 3.00987 0
M  V30 1923 C 174.4 3.0229 4.4105 0
M  V30 1924 C 175.7 4.44193 2.74754 0
M  V30 1925 H 177.394 2.68152 1.33171 0
M  V30 1926 H 174.94 1.29035 0.639214 0
M  V30 1927 H 176.893 2.04559 3.6842 0
M  V30 1928 H 175.617 0.933455 3.12976 0
M  V30 1929 H 174.276 2.8827 2.26486 0
M  V30 1930 H 173.924 2.04576 4.59519 0
M  V30 1931 H 173.624 3.79822 4.4834 0
M  V30 1932 H 175.148 3.20116 5.1996 0
M  V30 1933 H 176.562 4.60544 3.41426 0
M  V30 1934 H 174.959 5.23457 2.9345 0
M  V30 1935 H 176.029 4.53996 1.70339 0
M  V30 1936 N 177.372 -0.689602 1.41712 0
M  V30 1937 C 178.597 -1.48329 1.44959 0
M  V30 1938 C 179.022 -1.8801 0.0581283 0
M  V30 1939 O 178.38 -1.55026 -0.940035 0
M  V30 1940 C 178.428 -2.71835 2.36935 0
M  V30 1941 O 177.532 -3.69549 1.8305 0
M  V30 1942 H 176.873 -0.446199 0.491734 0
M  V30 1943 H 179.403 -0.847127 1.86239 0
M  V30 1944 H 179.413 -3.20076 2.53013 0
M  V30 1945 H 178.088 -2.42291 3.38035 0
M  V30 1946 H 176.665 -3.2851 1.76452 0
M  V30 1947 N 178.85 -1.27639 -0.924453 0
M  V30 1948 C 180.261 -1.12834 -1.48746 0
M  V30 1949 C 180.612 0.285505 -1.94112 0
M  V30 1950 O 179.737 1.17874 -1.81479 0
M  V30 1951 C 180.332 -2.04217 -2.70334 0
M  V30 1952 C 178.891 -1.93509 -3.22848 0
M  V30 1953 C 178.038 -1.96583 -1.95577 0
M  V30 1954 H 180.989 -1.40484 -0.738233 0
M  V30 1955 H 181.01 -1.59989 -3.4523 0
M  V30 1956 H 180.522 -3.07111 -2.37285 0
M  V30 1957 H 178.623 -0.936131 -3.60649 0
M  V30 1958 H 178.736 -2.79917 -3.88823 0
M  V30 1959 H 177.1 -1.4085 -2.12211 0
M  V30 1960 H 177.883 -3.01137 -1.64837 0
M  V30 1961 N 180.328 1.1314 -1.09713 0
M  V30 1962 C 181.605 1.80762 -0.747302 0
M  V30 1963 C 181.985 1.96663 0.767265 0
M  V30 1964 O 181.333 1.53706 1.69076 0
M  V30 1965 C 181.543 3.15606 -1.48975 0
M  V30 1966 C 182.891 3.90914 -1.65746 0
M  V30 1967 O 183.915 3.25239 -1.45251 0
M  V30 1968 O 182.774 5.08718 -1.9967 0
M  V30 1969 H 179.868 0.782103 -0.268782 0
M  V30 1970 H 182.414 1.20041 -1.19951 0
M  V30 1971 H 181.186 2.99278 -2.52088 0
M  V30 1972 H 180.809 3.84029 -1.02991 0
M  V30 1973 N 181.806 0.884767 1.30421 0
M  V30 1974 C 183.054 0.502112 1.95763 0
M  V30 1975 C 183.375 -0.951815 1.70192 0
M  V30 1976 O 182.645 -1.6692 1.0254 0
M  V30 1977 H 181.225 0.182694 0.724315 0
M  V30 1978 H 183.887 1.1278 1.58955 0
M  V30 1979 H 182.983 0.672188 3.04775 0
M  V30 1980 N 183.284 -1.43765 0.645699 0
M  V30 1981 C 184.512 -2.06253 0.163556 0
M  V30 1982 C 184.927 -1.48352 -1.16778 0
M  V30 1983 O 184.284 -0.611932 -1.71935 0
M  V30 1984 C 184.335 -3.61453 0.0583186 0
M  V30 1985 O 184.056 -4.172 1.33702 0
M  V30 1986 C 185.557 -4.41002 -0.450795 0
M  V30 1987 H 182.777 -0.665413 0.0864077 0
M  V30 1988 H 185.321 -1.84396 0.884222 0
M  V30 1989 H 183.476 -3.82522 -0.612865 0
M  V30 1990 H 183.89 -5.10791 1.19131 0
M  V30 1991 H 185.364 -5.49966 -0.473403 0
M  V30 1992 H 185.841 -4.13488 -1.48068 0
M  V30 1993 H 186.447 -4.24886 0.187637 0
M  V30 1994 N 184.763 -0.387143 -1.52771 0
M  V30 1995 C 185.991 0.195869 -2.05971 0
M  V30 1996 C 186.406 1.40691 -1.25903 0
M  V30 1997 O 185.763 1.79931 -0.305134 0
M  V30 1998 C 185.814 0.56812 -3.57008 0
M  V30 1999 O 185.535 -0.594803 -4.34043 0
M  V30 2000 C 187.036 1.20723 -4.26545 0
M  V30 2001 H 184.256 0.0300578 -0.670326 0
M  V30 2002 H 186.8 -0.551749 -1.96916 0
M  V30 2003 H 184.955 1.26564 -3.66143 0
M  V30 2004 H 185.369 -0.289322 -5.23701 0
M  V30 2005 H 186.843 1.41807 -5.33474 0
M  V30 2006 H 187.32 2.17395 -3.81623 0
M  V30 2007 H 187.926 0.550535 -4.21722 0
M  V30 2008 N 186.241 1.57166 -0.116904 0
M  V30 2009 C 187.204 2.14039 0.819742 0
M  V30 2010 C 188.204 1.07477 1.19605 0
M  V30 2011 O 189.394 1.33263 1.1219 0
M  V30 2012 C 186.526 2.67891 2.10826 0
M  V30 2013 H 187.719 2.98128 0.325511 0
M  V30 2014 H 185.272 1.55739 0.132312 0
M  V30 2015 H 186.007 1.87384 2.64685 0
M  V30 2016 H 185.792 3.45823 1.84793 0
M  V30 2017 H 187.282 3.11809 2.77785 0
M  V30 2018 N 187.719 -0.156864 1.56817 0
M  V30 2019 C 188.649 -1.19589 2.00551 0
M  V30 2020 C 189.63 -1.4536 0.883426 0
M  V30 2021 O 190.815 -1.56449 1.15054 0
M  V30 2022 C 187.945 -2.53143 2.37773 0
M  V30 2023 C 186.899 -2.41913 3.53075 0
M  V30 2024 C 186.225 -3.80088 3.76081 0
M  V30 2025 C 187.525 -1.91157 4.86062 0
M  V30 2026 H 189.219 -0.832293 2.87599 0
M  V30 2027 H 186.765 -0.398918 1.38364 0
M  V30 2028 H 188.718 -3.26047 2.66967 0
M  V30 2029 H 187.442 -2.91319 1.4765 0
M  V30 2030 H 186.101 -1.71462 3.24031 0
M  V30 2031 H 185.749 -4.15683 2.83225 0
M  V30 2032 H 185.449 -3.73439 4.53671 0
M  V30 2033 H 186.973 -4.54556 4.0769 0
M  V30 2034 H 188.387 -2.53846 5.14038 0
M  V30 2035 H 186.784 -1.95422 5.67389 0
M  V30 2036 H 187.854 -0.866673 4.77092 0
M  V30 2037 N 189.197 -1.51736 -0.425897 0
M  V30 2038 C 190.474 -1.55519 -1.1863 0
M  V30 2039 C 190.854 -0.326219 -2.08564 0
M  V30 2040 O 190.202 0.688012 -2.17896 0
M  V30 2041 C 190.412 -2.87521 -1.9782 0
M  V30 2042 C 191.76 -3.39899 -2.54468 0
M  V30 2043 O 192.784 -2.89148 -2.08019 0
M  V30 2044 O 191.643 -4.2848 -3.39215 0
M  V30 2045 H 188.737 -0.625739 -0.540721 0
M  V30 2046 H 191.283 -1.64055 -0.434038 0
M  V30 2047 H 190.055 -3.68422 -1.31836 0
M  V30 2048 H 189.678 -2.822 -2.80088 0
M  V30 2049 N 190.675 0.682077 -1.42076 0
M  V30 2050 C 191.607 1.80755 -1.40926 0
M  V30 2051 C 192.62 1.59833 -0.309398 0
M  V30 2052 O 193.809 1.69087 -0.572014 0
M  V30 2053 C 190.909 3.17744 -1.17865 0
M  V30 2054 C 190.082 3.65578 -2.40149 0
M  V30 2055 C 189.141 4.81277 -2.12742 0
M  V30 2056 O 188.167 4.92197 -2.85887 0
M  V30 2057 N 189.369 5.69474 -1.12602 0
M  V30 2058 H 192.134 1.82229 -2.37935 0
M  V30 2059 H 189.695 0.864903 -1.36861 0
M  V30 2060 H 191.687 3.9279 -0.9746 0
M  V30 2061 H 190.257 3.11214 -0.294068 0
M  V30 2062 H 189.477 2.81291 -2.76169 0
M  V30 2063 H 190.765 3.94278 -3.21593 0
M  V30 2064 H 190.163 5.63297 -0.520899 0
M  V30 2065 H 188.72 6.44363 -0.981842 0
M  V30 2066 N 192.153 1.28127 0.917671 0
M  V30 2067 C 193.083 1.14248 2.03641 0
M  V30 2068 C 194.064 0.0412748 1.7005 0
M  V30 2069 O 195.249 0.217566 1.92977 0
M  V30 2070 C 192.379 0.799431 3.37974 0
M  V30 2071 C 191.333 1.85497 3.85713 0
M  V30 2072 C 190.659 1.36565 5.16966 0
M  V30 2073 C 191.959 3.26085 4.08002 0
M  V30 2074 H 193.653 2.07835 2.15511 0
M  V30 2075 H 191.199 1.00064 1.03553 0
M  V30 2076 H 193.152 0.689114 4.15727 0
M  V30 2077 H 191.876 -0.172145 3.26146 0
M  V30 2078 H 190.535 1.95437 3.10161 0
M  V30 2079 H 190.183 0.383253 5.01538 0
M  V30 2080 H 189.883 2.07143 5.49878 0
M  V30 2081 H 191.407 1.26848 5.97279 0
M  V30 2082 H 192.821 3.19089 4.76293 0
M  V30 2083 H 191.218 3.94462 4.52238 0
M  V30 2084 H 192.288 3.70394 3.12948 0
M  V30 2085 N 193.631 -1.12557 1.10312 0
M  V30 2086 C 194.856 -1.88405 0.867085 0
M  V30 2087 C 195.281 -1.79038 -0.576817 0
M  V30 2088 O 194.639 -1.14439 -1.40618 0
M  V30 2089 C 194.687 -3.3563 1.31851 0
M  V30 2090 O 193.791 -4.09565 0.482734 0
M  V30 2091 H 193.132 -0.585455 0.313271 0
M  V30 2092 H 195.662 -1.42352 1.4696 0
M  V30 2093 H 195.672 -3.86469 1.3079 0
M  V30 2094 H 194.347 -3.41765 2.37001 0
M  V30 2095 H 192.924 -3.68695 0.558448 0
M  V30 2096 N 195.109 -0.891671 -1.2995 0
M  V30 2097 C 196.356 -0.513501 -1.95881 0
M  V30 2098 C 196.684 0.938655 -1.70351 0
M  V30 2099 O 195.939 1.67936 -1.00478 0
M  V30 2100 C 196.238 -0.742868 -3.49594 0
M  V30 2101 C 195.904 -2.17114 -3.95186 0
M  V30 2102 C 194.566 -2.56169 -4.07346 0
M  V30 2103 C 196.918 -3.10162 -4.18866 0
M  V30 2104 C 194.246 -3.87469 -4.4055 0
M  V30 2105 C 196.598 -4.41001 -4.53542 0
M  V30 2106 C 195.262 -4.79941 -4.63911 0
M  V30 2107 H 194.532 -0.187903 -0.71678 0
M  V30 2108 H 197.179 -1.1288 -1.54694 0
M  V30 2109 H 195.484 -0.044586 -3.91775 0
M  V30 2110 H 197.181 -0.429767 -3.9869 0
M  V30 2111 H 193.771 -1.85801 -3.86233 0
M  V30 2112 H 197.955 -2.81206 -4.08946 0
M  V30 2113 H 193.211 -4.17371 -4.46779 0
M  V30 2114 H 197.385 -5.13133 -4.70815 0
M  V30 2115 H 195.012 -5.81719 -4.89395 0
M  V30 2116 N 196.587 1.43421 -0.653314 0
M  V30 2117 C 197.812 2.06678 -0.172846 0
M  V30 2118 C 198.237 1.48648 1.15262 0
M  V30 2119 O 197.595 0.596457 1.71208 0
M  V30 2120 C 197.643 3.60474 -0.0953184 0
M  V30 2121 O 196.747 4.01487 0.942442 0
M  V30 2122 H 196.088 0.657181 -0.0949155 0
M  V30 2123 H 198.618 1.83925 -0.896265 0
M  V30 2124 H 198.628 4.07905 0.0879728 0
M  V30 2125 H 197.303 4.02088 -1.06291 0
M  V30 2126 H 195.88 3.65646 0.731932 0
M  V30 2127 N 198.065 0.39524 1.52563 0
M  V30 2128 C 199.481 0.0454682 1.59535 0
M  V30 2129 C 199.681 -1.44056 1.4089 0
M  V30 2130 O 198.737 -2.20579 1.22888 0
M  V30 2131 C 200.05 0.527963 2.96029 0
M  V30 2132 C 201.598 0.484733 3.09224 0
M  V30 2133 C 202.073 0.943512 4.48176 0
M  V30 2134 N 203.564 0.899765 4.54377 0
M  V30 2135 C 204.299 1.22609 5.60138 0
M  V30 2136 N 203.795 1.62319 6.73516 0
M  V30 2137 N 205.588 1.14696 5.50274 0
M  V30 2138 H 197.739 1.36261 1.62931 0
M  V30 2139 H 200.002 0.558887 0.765735 0
M  V30 2140 H 199.708 1.56607 3.14908 0
M  V30 2141 H 199.582 -0.0698056 3.77135 0
M  V30 2142 H 201.969 -0.544298 2.90037 0
M  V30 2143 H 202.05 1.11838 2.30056 0
M  V30 2144 H 201.694 1.9708 4.68104 0
M  V30 2145 H 201.624 0.286817 5.25818 0
M  V30 2146 H 204.115 0.607632 3.72983 0
M  V30 2147 H 204.428 1.85567 7.5019 0
M  V30 2148 H 202.773 1.66211 6.74833 0
M  V30 2149 H 205.964 0.835701 4.6058 0
M  V30 2150 H 206.137 1.40459 6.32594 0
M  V30 2151 N 199.544 -1.57102 0.125237 0
M  V30 2152 C 200.821 -1.86953 -0.575142 0
M  V30 2153 C 201.201 -1.02749 -1.84407 0
M  V30 2154 O 200.549 -0.108144 -2.28244 0
M  V30 2155 C 200.759 -3.38198 -0.861583 0
M  V30 2156 C 202.107 -4.06937 -1.21192 0
M  V30 2157 O 203.131 -3.43252 -0.951645 0
M  V30 2158 O 201.99 -5.19364 -1.70068 0
M  V30 2159 H 199.084 -0.774147 -0.290906 0
M  V30 2160 H 201.63 -1.68942 0.160211 0
M  V30 2161 H 200.402 -3.91282 0.0373647 0
M  V30 2162 H 200.025 -3.61661 -1.65188 0
M  V30 2163 N 201.022 0.148545 -1.56898 0
M  V30 2164 C 202.27 0.859717 -1.82902 0
M  V30 2165 C 202.591 1.81775 -0.70588 0
M  V30 2166 O 201.861 1.93994 0.272586 0
M  V30 2167 H 200.441 0.320469 -0.674766 0
M  V30 2168 H 203.103 0.142918 -1.94375 0
M  V30 2169 H 202.199 1.4229 -2.77777 0
M  V30 2170 N 202.5 1.5196 0.417844 0
M  V30 2171 C 203.916 1.40569 0.755816 0
M  V30 2172 C 204.116 0.503316 1.95113 0
M  V30 2173 O 203.172 -0.0341925 2.52477 0
M  V30 2174 C 204.485 2.82947 1.01791 0
M  V30 2175 C 206.033 2.92231 1.12116 0
M  V30 2176 C 206.508 4.35559 1.41608 0
M  V30 2177 N 207.999 4.38753 1.48491 0
M  V30 2178 C 208.734 5.46705 1.7292 0
M  V30 2179 N 208.23 6.64788 1.95011 0
M  V30 2180 N 210.023 5.34209 1.74863 0
M  V30 2181 H 202.174 2.09168 -0.369098 0
M  V30 2182 H 204.437 0.942409 -0.102809 0
M  V30 2183 H 204.143 3.5106 0.212081 0
M  V30 2184 H 204.017 3.23462 1.94042 0
M  V30 2185 H 206.404 2.24304 1.9176 0
M  V30 2186 H 206.485 2.55185 0.177225 0
M  V30 2187 H 206.129 5.04042 0.624848 0
M  V30 2188 H 206.059 4.70133 2.37239 0
M  V30 2189 H 208.55 3.5363 1.33244 0
M  V30 2190 H 208.863 7.42845 2.13076 0
M  V30 2191 H 207.208 6.67869 1.92293 0
M  V30 2192 H 210.399 4.40937 1.57137 0
M  V30 2193 H 210.572 6.18415 1.93563 0
M  V30 2194 N 203.978 -0.674533 1.42435 0
M  V30 2195 C 205.227 -1.43034 1.42212 0
M  V30 2196 C 205.54 -1.95555 0.0420788 0
M  V30 2197 O 206.746 -2.71374 -0.0827558 0
M  V30 2198 C 205.202 -2.58748 2.50155 0
M  V30 2199 C 204.81 -2.12925 3.94166 0
M  V30 2200 C 206.554 -3.36257 2.59098 0
M  V30 2201 C 204.461 -3.25723 4.93618 0
M  V30 2202 H 203.391 -0.537345 0.528939 0
M  V30 2203 H 206.042 -0.73024 1.68344 0
M  V30 2204 H 204.424 -3.31128 2.17188 0
M  V30 2205 H 205.598 -1.47697 4.36488 0
M  V30 2206 H 203.913 -1.48354 3.89076 0
M  V30 2207 H 206.51 -4.20264 3.30578 0
M  V30 2208 H 206.853 -3.82866 1.63461 0
M  V30 2209 H 207.386 -2.70947 2.9126 0
M  V30 2210 H 204.125 -2.84105 5.90732 0
M  V30 2211 H 203.645 -3.89732 4.55926 0
M  V30 2212 H 205.324 -3.91186 5.15347 0
M  V30 2213 N 205.456 -1.28612 -0.910864 0
M  V30 2214 C 206.386 -1.15326 -2.03032 0
M  V30 2215 C 207.367 -0.0502924 -1.70026 0
M  V30 2216 O 208.552 -0.227797 -1.92859 0
M  V30 2217 C 205.682 -0.817343 -3.37545 0
M  V30 2218 C 204.636 -1.8754 -3.84724 0
M  V30 2219 C 203.962 -1.39305 -5.16235 0
M  V30 2220 C 205.262 -3.28244 -4.06267 0
M  V30 2221 H 206.956 -2.08975 -2.14406 0
M  V30 2222 H 204.502 -1.00612 -1.03021 0
M  V30 2223 H 206.455 -0.711151 -4.15356 0
M  V30 2224 H 205.179 0.154846 -3.26233 0
M  V30 2225 H 203.838 -1.97079 -3.09121 0
M  V30 2226 H 203.486 -0.409846 -5.01328 0
M  V30 2227 H 203.186 -2.10057 -5.48771 0
M  V30 2228 H 204.71 -1.30014 -5.96598 0
M  V30 2229 H 206.124 -3.21611 -4.74594 0
M  V30 2230 H 204.521 -3.96855 -4.5014 0
M  V30 2231 H 205.591 -3.72048 -3.10979 0
M  V30 2232 N 206.934 1.1197 -1.10907 0
M  V30 2233 C 207.897 2.16031 -0.765707 0
M  V30 2234 C 208.897 1.59393 0.212235 0
M  V30 2235 O 210.087 1.74196 -0.0115441 0
M  V30 2236 C 207.219 3.40632 -0.135053 0
M  V30 2237 H 208.412 2.47919 -1.68748 0
M  V30 2238 H 205.965 1.27061 -0.910226 0
M  V30 2239 H 206.7 3.14348 0.797218 0
M  V30 2240 H 206.485 3.8302 -0.838937 0
M  V30 2241 H 207.975 4.17505 0.0892469 0
M  V30 2242 N 208.412 0.89855 1.29475 0
M  V30 2243 C 209.642 0.538479 1.99459 0
M  V30 2244 C 210.05 -0.880922 1.67441 0
M  V30 2245 O 209.393 -1.59283 0.915127 0
M  V30 2246 C 209.455 0.649564 3.53583 0
M  V30 2247 C 209.119 2.03573 4.09154 0
M  V30 2248 C 210.116 3.00675 4.24135 0
M  V30 2249 C 207.801 2.3448 4.44212 0
M  V30 2250 C 209.795 4.26809 4.73405 0
M  V30 2251 C 207.482 3.60857 4.93179 0
M  V30 2252 C 208.48 4.56836 5.0773 0
M  V30 2253 O 208.168 5.80969 5.55635 0
M  V30 2254 H 207.9 0.205372 0.644048 0
M  V30 2255 H 210.454 1.20958 1.66007 0
M  V30 2256 H 208.684 -0.0785592 3.8662 0
M  V30 2257 H 210.373 0.29881 4.04799 0
M  V30 2258 H 211.139 2.78112 3.97339 0
M  V30 2259 H 207.018 1.60534 4.32145 0
M  V30 2260 H 210.562 5.0173 4.84678 0
M  V30 2261 H 206.459 3.83251 5.19412 0
M  V30 2262 H 207.227 5.83542 5.73952 0
M  V30 2263 N 209.89 -1.43072 0.660911 0
M  V30 2264 C 211.115 -2.06584 0.183805 0
M  V30 2265 C 211.54 -1.49257 -1.14472 0
M  V30 2266 O 210.898 -0.605528 -1.70889 0
M  V30 2267 C 210.946 -3.60418 0.114434 0
M  V30 2268 O 210.05 -4.01981 -0.921137 0
M  V30 2269 H 209.391 -0.656669 0.0983994 0
M  V30 2270 H 211.921 -1.83447 0.906006 0
M  V30 2271 H 211.931 -4.07946 -0.0663394 0
M  V30 2272 H 210.606 -4.01519 1.08422 0
M  V30 2273 H 209.183 -3.66029 -0.71253 0
M  V30 2274 N 211.368 -0.403325 -1.52352 0
M  V30 2275 C 212.298 0.416205 -2.29761 0
M  V30 2276 C 213.279 1.05123 -1.33728 0
M  V30 2277 O 214.464 1.06134 -1.62632 0
M  V30 2278 C 211.594 1.53624 -3.11475 0
M  V30 2279 C 210.548 1.02653 -4.15507 0
M  V30 2280 C 209.874 2.23971 -4.85532 0
M  V30 2281 C 211.174 0.08463 -5.22231 0
M  V30 2282 H 212.868 -0.229701 -2.98518 0
M  V30 2283 H 210.414 -0.111913 -1.43564 0
M  V30 2284 H 212.367 2.1165 -3.64393 0
M  V30 2285 H 211.091 2.20994 -2.40477 0
M  V30 2286 H 209.75 0.46871 -3.63591 0
M  V30 2287 H 209.398 2.89883 -4.11068 0
M  V30 2288 H 209.098 1.90521 -5.55856 0
M  V30 2289 H 210.622 2.82614 -5.41259 0
M  V30 2290 H 212.036 0.573509 -5.70424 0
M  V30 2291 H 210.433 -0.160783 -5.99885 0
M  V30 2292 H 211.503 -0.86237 -4.7717 0
M  V30 2293 N 212.846 1.57033 -0.133567 0
M  V30 2294 C 214.071 2.00475 0.531477 0
M  V30 2295 C 214.496 1.01291 1.58499 0
M  V30 2296 O 213.854 -0.0133279 1.81295 0
M  V30 2297 C 213.902 3.42729 1.12113 0
M  V30 2298 O 213.006 3.46498 2.23636 0
M  V30 2299 H 212.347 0.650876 0.131362 0
M  V30 2300 H 214.877 2.03344 -0.22634 0
M  V30 2301 H 214.887 3.81246 1.4531 0
M  V30 2302 H 213.562 4.14428 0.349557 0
M  V30 2303 H 212.139 3.19811 1.91769 0
M  V30 2304 N 214.325 -0.140222 1.56975 0
M  V30 2305 C 215.255 -1.17456 2.01808 0
M  V30 2306 C 216.236 -1.44415 0.898794 0
M  V30 2307 O 217.421 -1.5522 1.16707 0
M  V30 2308 C 214.551 -2.50607 2.40444 0
M  V30 2309 C 213.505 -2.38155 3.55621 0
M  V30 2310 C 212.831 -3.76078 3.80091 0
M  V30 2311 C 214.131 -1.85991 4.88062 0
M  V30 2312 H 215.825 -0.801743 2.88466 0
M  V30 2313 H 213.371 -0.38422 1.38779 0
M  V30 2314 H 215.324 -3.23197 2.7041 0
M  V30 2315 H 214.048 -2.89737 1.50732 0
M  V30 2316 H 212.707 -1.68016 3.25832 0
M  V30 2317 H 212.355 -4.12656 2.87618 0
M  V30 2318 H 212.055 -3.68606 4.57606 0
M  V30 2319 H 213.579 -4.50206 4.12488 0
M  V30 2320 H 214.993 -2.4838 5.16701 0
M  V30 2321 H 213.39 -1.89393 5.6943 0
M  V30 2322 H 214.46 -0.816023 4.77984 0
M  V30 2323 N 215.803 -1.52179 -0.40978 0
M  V30 2324 C 216.766 -1.74853 -1.48186 0
M  V30 2325 C 217.766 -0.618417 -1.48433 0
M  V30 2326 O 218.956 -0.886286 -1.49969 0
M  V30 2327 C 216.088 -1.8303 -2.87598 0
M  V30 2328 H 217.281 -2.70559 -1.29374 0
M  V30 2329 H 214.834 -1.42586 -0.640233 0
M  V30 2330 H 215.569 -0.89236 -3.11781 0
M  V30 2331 H 215.354 -2.65187 -2.88822 0
M  V30 2332 H 216.844 -2.02316 -3.65319 0
M  V30 2333 N 217.281 0.66697 -1.42791 0
M  V30 2334 C 218.529 1.42417 -1.43394 0
M  V30 2335 C 218.85 1.94925 -0.0542373 0
M  V30 2336 O 218.12 1.73564 0.908415 0
M  V30 2337 H 216.7 0.528515 -0.527902 0
M  V30 2338 H 219.362 0.787562 -1.78279 0
M  V30 2339 H 218.458 2.27333 -2.13837 0
M  V30 2340 N 218.759 1.29093 0.90403 0
M  V30 2341 C 219.984 1.19809 1.69294 0
M  V30 2342 C 220.409 -0.238481 1.86582 0
M  V30 2343 O 219.767 -1.1723 1.383 0
M  V30 2344 C 219.815 1.91202 3.05736 0
M  V30 2345 O 218.919 1.22611 3.93752 0
M  V30 2346 H 218.26 0.415385 0.518027 0
M  V30 2347 H 220.79 1.70586 1.12967 0
M  V30 2348 H 220.8 1.99487 3.55906 0
M  V30 2349 H 219.475 2.95692 2.92471 0
M  V30 2350 H 218.052 1.22554 3.52186 0
M  V30 2351 N 220.237 -1.11381 1.11499 0
M  V30 2352 C 221.514 -1.7955 0.775965 0
M  V30 2353 C 221.894 -1.97859 -0.73588 0
M  V30 2354 O 221.242 -1.56376 -1.66609 0
M  V30 2355 C 221.452 -3.13196 1.53977 0
M  V30 2356 C 222.8 -3.88227 1.71944 0
M  V30 2357 O 223.824 -3.22887 1.50407 0
M  V30 2358 O 222.683 -5.05477 2.07738 0
M  V30 2359 H 219.777 -0.777728 0.28119 0
M  V30 2360 H 222.323 -1.18118 1.21845 0
M  V30 2361 H 221.095 -2.95229 2.56818 0
M  V30 2362 H 220.718 -3.82342 1.09088 0
M  V30 2363 N 221.715 -0.905404 -1.28997 0
M  V30 2364 C 222.961 -0.544465 -1.95977 0
M  V30 2365 C 223.316 0.90041 -1.70031 0
M  V30 2366 O 222.609 1.63064 -1.00601 0
M  V30 2367 C 222.803 -0.779906 -3.48787 0
M  V30 2368 C 222.632 -2.24612 -3.89589 0
M  V30 2369 C 221.402 -2.89464 -4.14172 0
M  V30 2370 C 223.6 -3.22182 -4.00878 0
M  V30 2371 N 221.582 -4.26469 -4.41585 0
M  V30 2372 C 222.953 -4.44323 -4.32409 0
M  V30 2373 C 225.008 -3.17694 -3.83373 0
M  V30 2374 C 223.711 -5.62546 -4.48258 0
M  V30 2375 C 225.737 -4.35208 -4.00435 0
M  V30 2376 C 225.099 -5.56121 -4.3233 0
M  V30 2377 H 221.198 -0.248948 -0.741316 0
M  V30 2378 H 223.782 -1.1674 -1.5582 0
M  V30 2379 H 221.953 -0.186308 -3.87953 0
M  V30 2380 H 223.685 -0.383833 -4.02876 0
M  V30 2381 H 220.44 -2.40232 -4.08149 0
M  V30 2382 H 220.864 -4.97283 -4.5939 0
M  V30 2383 H 225.506 -2.25297 -3.57773 0
M  V30 2384 H 223.224 -6.55429 -4.72692 0
M  V30 2385 H 226.81 -4.33228 -3.88336 0
M  V30 2386 H 225.69 -6.45537 -4.45255 0
M  V30 2387 N 223.193 1.4272 -0.668489 0
M  V30 2388 C 224.609 1.55992 -0.33745 0
M  V30 2389 C 224.809 1.64933 1.15756 0
M  V30 2390 O 223.865 1.61278 1.94282 0
M  V30 2391 C 225.178 2.81314 -1.06222 0
M  V30 2392 C 226.726 2.95078 -1.04394 0
M  V30 2393 C 227.201 4.23252 -1.74991 0
M  V30 2394 N 228.692 4.3015 -1.71829 0
M  V30 2395 C 229.427 5.28127 -2.23315 0
M  V30 2396 N 228.923 6.32293 -2.83156 0
M  V30 2397 N 230.716 5.19882 -2.13726 0
M  V30 2398 H 222.867 1.3516 -1.63846 0
M  V30 2399 H 225.13 0.650174 -0.689912 0
M  V30 2400 H 224.836 2.80823 -2.11734 0
M  V30 2401 H 224.71 3.72012 -0.62344 0
M  V30 2402 H 227.097 2.951 0.0028244 0
M  V30 2403 H 227.178 2.05627 -1.52155 0
M  V30 2404 H 226.822 4.2399 -2.79633 0
M  V30 2405 H 226.752 5.11626 -1.24685 0
M  V30 2406 H 229.243 3.55499 -1.28175 0
M  V30 2407 H 229.556 7.03398 -3.20079 0
M  V30 2408 H 227.901 6.32873 -2.87223 0
M  V30 2409 H 231.092 4.37423 -1.66669 0
M  V30 2410 H 231.265 5.96077 -2.54158 0
M  V30 2411 N 224.671 0.411399 1.52136 0
M  V30 2412 C 225.581 -0.419774 2.30814 0
M  V30 2413 C 226.597 -1.0515 1.38634 0
M  V30 2414 O 227.773 -1.05252 1.71709 0
M  V30 2415 C 224.838 -1.52019 3.11594 0
M  V30 2416 C 223.899 -0.91129 4.19516 0
M  V30 2417 C 223.132 -1.95927 4.96436 0
M  V30 2418 O 223.355 -3.17775 4.73683 0
M  V30 2419 O 222.289 -1.56423 5.81219 0
M  V30 2420 H 226.115 0.221805 3.02889 0
M  V30 2421 H 223.7 0.174547 1.48377 0
M  V30 2422 H 225.582 -2.15898 3.61892 0
M  V30 2423 H 224.257 -2.14633 2.42311 0
M  V30 2424 H 223.164 -0.235157 3.7336 0
M  V30 2425 H 224.497 -0.32904 4.91099 0
M  V30 2426 N 226.149 -1.5696 0.141893 0
M  V30 2427 C 227.398 -1.95135 -0.510427 0
M  V30 2428 C 227.711 -1.02896 -1.66348 0
M  V30 2429 O 228.917 -1.30629 -2.38009 0
M  V30 2430 C 227.373 -3.46876 -0.959427 0
M  V30 2431 C 226.981 -4.47691 0.166419 0
M  V30 2432 C 228.725 -3.93927 -1.58183 0
M  V30 2433 C 226.632 -5.90636 -0.300565 0
M  V30 2434 H 225.562 -0.728494 -0.194454 0
M  V30 2435 H 228.213 -1.8211 0.22542 0
M  V30 2436 H 226.595 -3.55215 -1.75038 0
M  V30 2437 H 227.769 -4.51043 0.94325 0
M  V30 2438 H 226.084 -4.10527 0.696905 0
M  V30 2439 H 228.681 -4.98158 -1.94275 0
M  V30 2440 H 229.024 -3.3519 -2.46888 0
M  V30 2441 H 229.557 -3.88484 -0.855863 0
M  V30 2442 H 226.296 -6.5318 0.550989 0
M  V30 2443 H 225.816 -5.90655 -1.04338 0
M  V30 2444 H 227.495 -6.42588 -0.754265 0
M  V30 2445 N 227.627 0.131896 -1.57047 0
M  V30 2446 C 228.577 1.1679 -1.95816 0
M  V30 2447 C 229.561 1.37756 -0.831393 0
M  V30 2448 O 230.753 1.39065 -1.09499 0
M  V30 2449 C 227.882 2.49778 -2.35512 0
M  V30 2450 C 226.968 2.32342 -3.54793 0
M  V30 2451 N 227.359 1.8469 -4.70875 0
M  V30 2452 C 225.657 2.63043 -3.60173 0
M  V30 2453 C 226.358 1.80656 -5.52936 0
M  V30 2454 N 225.334 2.24528 -4.95064 0
M  V30 2455 H 229.136 0.791818 -2.83033 0
M  V30 2456 H 226.65 0.339791 -1.58805 0
M  V30 2457 H 228.647 3.24692 -2.61498 0
M  V30 2458 H 227.307 2.88156 -1.49654 0
M  V30 2459 H 228.318 1.54429 -4.9434 0
M  V30 2460 H 224.995 3.05193 -2.84892 0
M  V30 2461 H 226.385 1.45178 -6.56028 0
M  V30 2462 N 229.106 1.52395 0.401703 0
M  V30 2463 C 230.036 1.79231 1.49661 0
M  V30 2464 C 231.017 0.643654 1.57452 0
M  V30 2465 O 232.202 0.889989 1.72606 0
M  V30 2466 C 229.332 1.94971 2.87409 0
M  V30 2467 C 228.286 3.10604 2.94465 0
M  V30 2468 C 227.612 3.11577 4.34538 0
M  V30 2469 C 228.912 4.49921 2.6527 0
M  V30 2470 H 230.606 2.70917 1.27454 0
M  V30 2471 H 228.152 1.30362 0.6117 0
M  V30 2472 H 230.105 2.12328 3.63999 0
M  V30 2473 H 228.829 0.999632 3.10926 0
M  V30 2474 H 227.488 2.93009 2.20321 0
M  V30 2475 H 227.136 2.14277 4.55076 0
M  V30 2476 H 226.836 3.89247 4.40183 0
M  V30 2477 H 228.36 3.31073 5.13053 0
M  V30 2478 H 229.774 4.67683 3.31581 0
M  V30 2479 H 228.171 5.29564 2.82281 0
M  V30 2480 H 229.241 4.57507 1.60671 0
M  V30 2481 N 230.584 -0.659388 1.43143 0
M  V30 2482 C 231.517 -1.78425 1.42267 0
M  V30 2483 C 232.495 -1.60085 0.284894 0
M  V30 2484 O 233.679 -1.82351 0.477527 0
M  V30 2485 C 230.806 -3.15642 1.22833 0
M  V30 2486 C 229.852 -3.52698 2.39806 0
M  V30 2487 S 230.685 -3.53372 4.02353 0
M  V30 2488 C 231.841 -4.93256 3.85291 0
M  V30 2489 H 232.074 -1.78897 2.37452 0
M  V30 2490 H 229.607 -0.831469 1.301 0
M  V30 2491 H 231.565 -3.94838 1.12308 0
M  V30 2492 H 230.226 -3.12739 0.29207 0
M  V30 2493 H 229.419 -4.52475 2.21996 0
M  V30 2494 H 229.021 -2.80899 2.46925 0
M  V30 2495 H 231.313 -5.81751 3.47235 0
M  V30 2496 H 232.256 -5.16115 4.84799 0
M  V30 2497 H 232.664 -4.665 3.17865 0
M  V30 2498 N 232.062 -1.29571 -0.897171 0
M  V30 2499 C 233.339 -1.08365 -1.62839 0
M  V30 2500 C 233.719 0.371331 -2.07808 0
M  V30 2501 O 233.067 1.3606 -1.83576 0
M  V30 2502 C 233.277 -2.0735 -2.80726 0
M  V30 2503 C 234.625 -2.38406 -3.51351 0
M  V30 2504 O 235.649 -2.05564 -2.90898 0
M  V30 2505 O 234.508 -2.9453 -4.60341 0
M  V30 2506 H 231.602 -0.415345 -0.715134 0
M  V30 2507 H 234.148 -1.40952 -0.945018 0
M  V30 2508 H 232.92 -3.05339 -2.44711 0
M  V30 2509 H 232.543 -1.75507 -3.56767 0
M  V30 2510 N 233.54 1.10788 -1.12088 0
M  V30 2511 C 234.786 1.82942 -0.875226 0
M  V30 2512 C 235.119 1.84779 0.597538 0
M  V30 2513 O 234.394 1.30578 1.44152 0
M  V30 2514 C 234.677 3.29789 -1.44606 0
M  V30 2515 C 234.53 3.36307 -2.98693 0
M  V30 2516 C 235.849 4.26064 -1.10261 0
M  V30 2517 H 232.968 0.664195 -0.319397 0
M  V30 2518 H 235.61 1.29867 -1.38689 0
M  V30 2519 H 233.76 3.75118 -1.01089 0
M  V30 2520 H 235.432 2.99487 -3.50864 0
M  V30 2521 H 233.675 2.76318 -3.34411 0
M  V30 2522 H 234.346 4.39694 -3.33726 0
M  V30 2523 H 236.822 3.88951 -1.4784 0
M  V30 2524 H 235.698 5.27183 -1.52869 0
M  V30 2525 H 235.959 4.42098 -0.0142953 0
M  V30 2526 N 235.018 0.912232 1.28515 0
M  V30 2527 C 235.928 0.404506 2.31086 0
M  V30 2528 C 236.944 -0.50707 1.66448 0
M  V30 2529 O 238.12 -0.393624 1.97516 0
M  V30 2530 C 235.185 -0.348572 3.44943 0
M  V30 2531 C 234.246 0.59604 4.25142 0
M  V30 2532 C 233.479 -0.121194 5.33562 0
M  V30 2533 O 233.702 -1.34317 5.5436 0
M  V30 2534 O 232.636 0.542716 5.99448 0
M  V30 2535 H 236.462 1.25579 2.76521 0
M  V30 2536 H 234.047 0.676998 1.33181 0
M  V30 2537 H 235.929 -0.77395 4.14232 0
M  V30 2538 H 234.604 -1.17571 3.01594 0
M  V30 2539 H 233.511 1.07079 3.58448 0
M  V30 2540 H 234.844 1.38995 4.72167 0
M  V30 2541 N 236.496 -1.42363 0.676048 0
M  V30 2542 C 237.721 -2.06377 0.205705 0
M  V30 2543 C 238.146 -1.50463 -1.12883 0
M  V30 2544 O 237.504 -0.623619 -1.70237 0
M  V30 2545 C 237.552 -3.60277 0.152655 0
M  V30 2546 O 236.656 -4.02935 -0.87845 0
M  V30 2547 H 235.997 -0.655588 0.105359 0
M  V30 2548 H 238.527 -1.82475 0.925412 0
M  V30 2549 H 238.537 -4.07993 -0.0230675 0
M  V30 2550 H 237.212 -4.00346 1.12675 0
M  V30 2551 H 235.789 -3.66764 -0.673668 0
M  V30 2552 N 237.974 -0.419461 -1.51915 0
M  V30 2553 C 238.921 0.400927 -2.27291 0
M  V30 2554 C 239.891 1.03224 -1.30131 0
M  V30 2555 O 241.076 1.05455 -1.59009 0
M  V30 2556 C 238.216 1.50603 -3.10504 0
M  V30 2557 C 237.329 0.89462 -4.22635 0
M  V30 2558 C 236.464 1.97328 -4.93189 0
M  V30 2559 C 235.503 1.33935 -5.97267 0
M  V30 2560 N 234.64 2.3586 -6.61298 0
M  V30 2561 H 239.48 -0.248251 -2.96964 0
M  V30 2562 H 237.017 -0.134266 -1.46486 0
M  V30 2563 H 238.975 2.15783 -3.57062 0
M  V30 2564 H 237.605 2.12509 -2.42981 0
M  V30 2565 H 236.657 0.131583 -3.80172 0
M  V30 2566 H 237.969 0.391641 -4.9726 0
M  V30 2567 H 237.123 2.70211 -5.43204 0
M  V30 2568 H 235.862 2.50994 -4.18155 0
M  V30 2569 H 234.867 0.595896 -5.46561 0
M  V30 2570 H 236.092 0.810252 -6.74249 0
M  V30 2571 H 234.038 2.88639 -5.89087 0
M  V30 2572 H 233.955 1.90403 -7.3163 0
M  V30 2573 H 235.223 3.08282 -7.15949 0
M  V30 2574 N 239.452 1.56882 -0.150215 0
M  V30 2575 C 240.384 2.14057 0.819286 0
M  V30 2576 C 241.397 1.09082 1.20851 0
M  V30 2577 O 242.586 1.36347 1.15203 0
M  V30 2578 C 239.686 2.65102 2.11127 0
M  V30 2579 C 238.859 3.94511 1.88891 0
M  V30 2580 C 237.918 4.30834 3.02107 0
M  V30 2581 O 236.944 4.99099 2.73659 0
M  V30 2582 N 238.146 3.90676 4.29363 0
M  V30 2583 H 240.911 2.97871 0.330618 0
M  V30 2584 H 238.472 1.61866 0.0332538 0
M  V30 2585 H 240.464 2.86411 2.85921 0
M  V30 2586 H 239.034 1.85994 2.51247 0
M  V30 2587 H 238.254 3.81795 0.981152 0
M  V30 2588 H 239.542 4.7907 1.71376 0
M  V30 2589 H 238.94 3.35677 4.55343 0
M  V30 2590 H 237.497 4.1703 5.00928 0
M  V30 2591 N 240.93 -0.123565 1.57115 0
M  V30 2592 C 242.341 -0.681198 1.73829 0
M  V30 2593 C 242.692 -1.80535 0.768214 0
M  V30 2594 O 241.817 -2.16317 -0.0599103 0
M  V30 2595 C 242.412 -1.24246 3.15196 0
M  V30 2596 C 240.971 -1.74643 3.33432 0
M  V30 2597 C 240.118 -0.644284 2.69711 0
M  V30 2598 H 243.069 0.102315 1.5837 0
M  V30 2599 H 243.09 -2.11216 3.16493 0
M  V30 2600 H 242.602 -0.424062 3.85776 0
M  V30 2601 H 240.703 -2.58974 2.67886 0
M  V30 2602 H 240.816 -1.85902 4.41562 0
M  V30 2603 H 239.18 -1.07676 2.3082 0
M  V30 2604 H 239.963 0.163058 3.42913 0
M  V30 2605 N 242.408 -1.52605 -0.393616 0
M  V30 2606 C 243.338 -1.80022 -1.48709 0
M  V30 2607 C 244.319 -0.651995 -1.57108 0
M  V30 2608 O 245.504 -0.89913 -1.72132 0
M  V30 2609 C 242.634 -1.96492 -2.86371 0
M  V30 2610 C 241.588 -3.12161 -2.92813 0
M  V30 2611 C 240.914 -3.13877 -4.3288 0
M  V30 2612 C 242.214 -4.51322 -2.6288 0
M  V30 2613 H 243.908 -2.71589 -1.26015 0
M  V30 2614 H 241.454 -1.30684 -0.604778 0
M  V30 2615 H 243.407 -2.14255 -3.62867 0
M  V30 2616 H 242.131 -1.01611 -3.10391 0
M  V30 2617 H 240.79 -2.94173 -2.18764 0
M  V30 2618 H 240.438 -2.16687 -4.53933 0
M  V30 2619 H 240.138 -3.91576 -4.38112 0
M  V30 2620 H 241.662 -3.33789 -5.1129 0
M  V30 2621 H 243.076 -4.69435 -3.29096 0
M  V30 2622 H 241.473 -5.31053 -2.79468 0
M  V30 2623 H 242.543 -4.58353 -1.58242 0
M  V30 2624 N 243.887 0.651787 -1.4349 0
M  V30 2625 C 244.797 1.79368 -1.5121 0
M  V30 2626 C 245.813 1.69361 -0.399093 0
M  V30 2627 O 246.989 1.90505 -0.653431 0
M  V30 2628 C 244.054 3.15653 -1.43401 0
M  V30 2629 C 243.115 3.37446 -2.65384 0
M  V30 2630 C 242.348 4.67229 -2.57939 0
M  V30 2631 O 242.571 5.46676 -1.62792 0
M  V30 2632 O 241.505 4.90773 -3.48462 0
M  V30 2633 H 245.331 1.7581 -2.47638 0
M  V30 2634 H 242.916 0.810447 -1.25507 0
M  V30 2635 H 244.798 3.96935 -1.41494 0
M  V30 2636 H 243.473 3.19798 -0.501085 0
M  V30 2637 H 242.38 2.55923 -2.72863 0
M  V30 2638 H 243.713 3.38148 -3.57654 0
M  V30 2639 N 245.365 1.30045 0.890287 0
M  V30 2640 C 246.593 1.21472 1.67487 0
M  V30 2641 C 247.008 -0.223241 1.87476 0
M  V30 2642 O 246.365 -1.14828 1.41847 0
M  V30 2643 C 246.416 1.93394 3.05419 0
M  V30 2644 O 246.137 3.31576 2.86337 0
M  V30 2645 C 247.638 1.91414 3.99844 0
M  V30 2646 H 244.858 0.420604 0.522813 0
M  V30 2647 H 247.402 1.7158 1.11268 0
M  V30 2648 H 245.557 1.47099 3.58386 0
M  V30 2649 H 245.971 3.67929 3.73802 0
M  V30 2650 H 247.445 2.46285 4.94012 0
M  V30 2651 H 247.922 0.891833 4.3005 0
M  V30 2652 H 248.528 2.37496 3.52811 0
M  V30 2653 N 246.843 -1.10192 1.12674 0
M  V30 2654 C 248.254 -1.63707 0.897604 0
M  V30 2655 C 248.605 -1.87812 -0.567546 0
M  V30 2656 O 247.73 -1.62196 -1.43253 0
M  V30 2657 C 248.325 -2.974 1.62292 0
M  V30 2658 C 246.884 -3.47772 1.43986 0
M  V30 2659 C 246.031 -2.22332 1.65722 0
M  V30 2660 H 248.982 -0.936587 1.28116 0
M  V30 2661 H 249.003 -3.64986 1.07541 0
M  V30 2662 H 248.515 -2.79824 2.68924 0
M  V30 2663 H 246.616 -3.70487 0.396206 0
M  V30 2664 H 246.729 -4.25723 2.19765 0
M  V30 2665 H 245.093 -2.30599 1.08149 0
M  V30 2666 H 245.876 -2.07285 2.73657 0
M  V30 2667 N 248.321 -0.919034 -1.28029 0
M  V30 2668 C 249.251 -0.428581 -2.29533 0
M  V30 2669 C 250.232 0.50659 -1.62381 0
M  V30 2670 O 251.417 0.413195 -1.89753 0
M  V30 2671 C 248.547 0.327388 -3.45753 0
M  V30 2672 C 247.501 -0.519137 -4.2484 0
M  V30 2673 C 246.827 0.365486 -5.33449 0
M  V30 2674 C 248.127 -1.77914 -4.91064 0
M  V30 2675 H 249.821 -1.27687 -2.70807 0
M  V30 2676 H 247.367 -0.615428 -1.30186 0
M  V30 2677 H 249.32 0.681378 -4.15855 0
M  V30 2678 H 248.044 1.20963 -3.03374 0
M  V30 2679 H 246.703 -0.855717 -3.56473 0
M  V30 2680 H 246.351 1.24642 -4.87312 0
M  V30 2681 H 246.051 -0.197356 -5.87268 0
M  V30 2682 H 247.575 0.715241 -6.06396 0
M  V30 2683 H 248.989 -1.49374 -5.53498 0
M  V30 2684 H 247.386 -2.2848 -5.54903 0
M  V30 2685 H 248.456 -2.50382 -4.15255 0
M  V30 2686 N 249.799 1.42003 -0.683588 0
M  V30 2687 C 250.746 2.30798 -0.0107309 0
M  V30 2688 C 251.716 1.4645 0.783688 0
M  V30 2689 O 252.901 1.75263 0.754156 0
M  V30 2690 C 250.041 3.3238 0.928306 0
M  V30 2691 C 249.154 4.31814 0.126776 0
M  V30 2692 C 248.289 5.20468 1.06236 0
M  V30 2693 C 247.328 6.11577 0.253035 0
M  V30 2694 N 246.465 6.92754 1.14179 0
M  V30 2695 H 251.305 2.8778 -0.773727 0
M  V30 2696 H 248.842 1.41745 -0.393283 0
M  V30 2697 H 250.8 3.89813 1.48666 0
M  V30 2698 H 249.43 2.76976 1.65783 0
M  V30 2699 H 248.482 3.76427 -0.54833 0
M  V30 2700 H 249.794 4.96276 -0.501192 0
M  V30 2701 H 248.948 5.82677 1.69035 0
M  V30 2702 H 247.687 4.56204 1.7242 0
M  V30 2703 H 246.692 5.48428 -0.388108 0
M  V30 2704 H 247.917 6.77892 -0.404839 0
M  V30 2705 H 245.863 6.3111 1.78987 0
M  V30 2706 H 245.78 7.53855 0.569111 0
M  V30 2707 H 247.048 7.59441 1.75697 0
M  V30 2708 N 251.277 0.427512 1.51691 0
M  V30 2709 C 252.554 -0.201684 1.94557 0
M  V30 2710 C 252.934 -1.60981 1.36559 0
M  V30 2711 O 252.282 -2.21814 0.548702 0
M  V30 2712 C 252.492 -0.189394 3.48486 0
M  V30 2713 C 253.84 -0.39978 4.22714 0
M  V30 2714 O 254.864 -0.267945 3.55191 0
M  V30 2715 O 253.723 -0.661249 5.42485 0
M  V30 2716 H 250.817 -0.135261 0.815864 0
M  V30 2717 H 253.363 0.484782 1.62628 0
M  V30 2718 H 252.135 0.795431 3.8313 0
M  V30 2719 H 251.758 -0.919187 3.86829 0
M  V30 2720 N 252.755 -1.56801 0.158532 0
M  V30 2721 C 254.001 -1.96781 -0.490405 0
M  V30 2722 C 254.334 -1.04397 -1.63753 0
M  V30 2723 O 253.609 -0.0885805 -1.94298 0
M  V30 2724 C 253.892 -3.4635 -0.985594 0
M  V30 2725 C 253.745 -4.49512 0.160824 0
M  V30 2726 C 255.064 -3.98697 -1.86355 0
M  V30 2727 H 252.183 -0.715482 -0.176788 0
M  V30 2728 H 254.825 -1.88451 0.242088 0
M  V30 2729 H 252.975 -3.53579 -1.60978 0
M  V30 2730 H 254.647 -4.54353 0.797537 0
M  V30 2731 H 252.89 -4.26013 0.818256 0
M  V30 2732 H 253.561 -5.51531 -0.227569 0
M  V30 2733 H 256.037 -3.94019 -1.33746 0
M  V30 2734 H 254.913 -5.03792 -2.17909 0
M  V30 2735 H 255.174 -3.41744 -2.8047 0
M  V30 2736 N 254.233 0.115231 -1.57178 0
M  V30 2737 C 255.18 1.14115 -2.00615 0
M  V30 2738 C 256.15 1.40939 -0.878941 0
M  V30 2739 O 257.335 1.52741 -1.14345 0
M  V30 2740 C 254.475 2.46156 -2.4187 0
M  V30 2741 C 253.588 2.26236 -3.68024 0
M  V30 2742 C 252.723 3.51534 -3.98243 0
M  V30 2743 C 251.762 3.26787 -5.17568 0
M  V30 2744 N 250.899 4.44298 -5.43639 0
M  V30 2745 H 255.739 0.763743 -2.88047 0
M  V30 2746 H 253.276 0.365615 -1.42484 0
M  V30 2747 H 255.234 3.23189 -2.63827 0
M  V30 2748 H 253.864 2.81783 -1.57475 0
M  V30 2749 H 252.916 1.40102 -3.5366 0
M  V30 2750 H 254.228 2.03929 -4.55208 0
M  V30 2751 H 253.382 4.36984 -4.20868 0
M  V30 2752 H 252.121 3.76876 -3.09541 0
M  V30 2753 H 251.126 2.39729 -4.94783 0
M  V30 2754 H 252.351 3.02812 -6.0785 0
M  V30 2755 H 250.297 4.69754 -4.57895 0
M  V30 2756 H 250.214 4.25109 -6.25154 0
M  V30 2757 H 251.482 5.3087 -5.70786 0
M  V30 2758 N 255.711 1.52812 0.385517 0
M  V30 2759 C 256.958 1.68026 1.1302 0
M  V30 2760 C 257.286 0.421934 1.89868 0
M  V30 2761 O 256.541 -0.595749 1.86412 0
M  V30 2762 C 256.84 2.86856 2.13187 0
M  V30 2763 C 256.506 4.24159 1.5297 0
M  V30 2764 C 255.168 4.61501 1.36274 0
M  V30 2765 C 257.52 5.09627 1.09223 0
M  V30 2766 C 254.848 5.81966 0.743837 0
M  V30 2767 C 257.2 6.30719 0.487411 0
M  V30 2768 C 255.864 6.6679 0.307777 0
M  V30 2769 H 255.134 0.614849 0.413571 0
M  V30 2770 H 257.781 1.86962 0.414405 0
M  V30 2771 H 256.086 2.6235 2.90998 0
M  V30 2772 H 257.783 2.95821 2.70722 0
M  V30 2773 H 254.373 3.94746 1.66954 0
M  V30 2774 H 258.557 4.81343 1.20922 0
M  V30 2775 H 253.813 6.08519 0.592891 0
M  V30 2776 H 257.987 6.96259 0.140143 0
M  V30 2777 H 255.614 7.60001 -0.173879 0
M  V30 2778 N 257.189 -0.644168 1.43834 0
M  V30 2779 C 258.414 -1.43642 1.49605 0
M  V30 2780 C 258.839 -1.8773 0.117913 0
M  V30 2781 O 258.197 -1.57938 -0.890239 0
M  V30 2782 C 258.245 -2.6416 2.45463 0
M  V30 2783 O 257.349 -3.63538 1.94714 0
M  V30 2784 H 256.69 -0.430329 0.50568 0
M  V30 2785 H 259.22 -0.787448 1.8884 0
M  V30 2786 H 259.23 -3.11864 2.63068 0
M  V30 2787 H 257.905 -2.31414 3.45572 0
M  V30 2788 H 256.482 -3.2273 1.86814 0
M  V30 2789 N 258.668 -1.30515 -0.883378 0
M  V30 2790 C 259.916 -1.19194 -1.63209 0
M  V30 2791 C 260.237 0.253205 -1.93349 0
M  V30 2792 O 259.507 1.17025 -1.57105 0
M  V30 2793 H 258.087 -0.438148 -0.605009 0
M  V30 2794 H 260.749 -1.63663 -1.05832 0
M  V30 2795 H 259.845 -1.75396 -2.58153 0
M  V30 2796 N 260.146 1.09593 -1.13257 0
M  V30 2797 C 261.395 1.81105 -0.887917 0
M  V30 2798 C 261.708 1.86563 0.587672 0
M  V30 2799 O 262.914 2.54367 0.949204 0
M  V30 2800 C 261.37 3.25338 -1.53895 0
M  V30 2801 C 260.978 3.28151 -3.04994 0
M  V30 2802 C 262.722 4.01617 -1.37492 0
M  V30 2803 C 260.629 4.66897 -3.6299 0
M  V30 2804 H 259.559 0.678661 -0.328534 0
M  V30 2805 H 262.21 1.23183 -1.36008 0
M  V30 2806 H 260.592 3.8331 -0.994446 0
M  V30 2807 H 261.766 2.79953 -3.66009 0
M  V30 2808 H 260.081 2.65361 -3.20893 0
M  V30 2809 H 262.678 5.04119 -1.78235 0
M  V30 2810 H 263.021 4.15072 -0.31957 0
M  V30 2811 H 263.554 3.50082 -1.88912 0
M  V30 2812 H 260.293 4.58643 -4.68323 0
M  V30 2813 H 259.813 5.15426 -3.06752 0
M  V30 2814 H 261.492 5.3587 -3.62563 0
M  V30 2815 N 261.624 0.925811 1.2754 0
M  V30 2816 C 262.849 0.580924 1.99098 0
M  V30 2817 C 263.274 -0.833555 1.68622 0
M  V30 2818 O 262.632 -1.55903 0.925422 0
M  V30 2819 C 262.68 0.811186 3.51358 0
M  V30 2820 O 261.784 -0.124129 4.12213 0
M  V30 2821 H 261.125 0.223873 0.625122 0
M  V30 2822 H 263.655 1.24455 1.62395 0
M  V30 2823 H 263.665 0.72601 4.01489 0
M  V30 2824 H 262.34 1.84227 3.72872 0
M  V30 2825 H 260.917 0.0108006 3.72898 0
M  V30 2826 N 263.102 -1.41638 0.69111 0
M  V30 2827 C 264.348 -2.02104 0.229258 0
M  V30 2828 C 264.703 -1.53741 -1.15678 0
M  V30 2829 O 263.996 -0.736849 -1.76865 0
M  V30 2830 C 264.19 -3.56714 0.221277 0
M  V30 2831 C 264.019 -4.20083 1.605 0
M  V30 2832 C 262.789 -4.54566 2.20676 0
M  V30 2833 C 264.987 -4.46587 2.55078 0
M  V30 2834 N 262.969 -5.03199 3.5166 0
M  V30 2835 C 264.34 -4.96946 3.70735 0
M  V30 2836 C 266.395 -4.28593 2.53401 0
M  V30 2837 C 265.098 -5.31203 4.8499 0
M  V30 2838 C 267.124 -4.63936 3.66765 0
M  V30 2839 C 266.486 -5.14463 4.81152 0
M  V30 2840 H 262.585 -0.771256 0.12918 0
M  V30 2841 H 265.169 -1.72251 0.907626 0
M  V30 2842 H 263.34 -3.86051 -0.426562 0
M  V30 2843 H 265.072 -4.03896 -0.254983 0
M  V30 2844 H 261.827 -4.4087 1.73005 0
M  V30 2845 H 262.251 -5.31926 4.18789 0
M  V30 2846 H 266.893 -3.88771 1.66184 0
M  V30 2847 H 264.611 -5.69951 5.72871 0
M  V30 2848 H 268.197 -4.51677 3.66714 0
M  V30 2849 H 267.077 -5.41299 5.67419 0
M  V30 2850 N 264.58 -0.43555 -1.51462 0
M  V30 2851 C 265.51 0.367376 -2.30592 0
M  V30 2852 C 266.491 1.02263 -1.35928 0
M  V30 2853 O 267.676 1.02661 -1.64847 0
M  V30 2854 C 264.806 1.46983 -3.14664 0
M  V30 2855 C 263.76 0.938161 -4.17591 0
M  V30 2856 C 263.086 2.13622 -4.90173 0
M  V30 2857 C 264.386 -0.0261621 -5.22293 0
M  V30 2858 H 266.08 -0.292969 -2.97963 0
M  V30 2859 H 263.626 -0.14234 -1.43295 0
M  V30 2860 H 265.579 2.03873 -3.688 0
M  V30 2861 H 264.303 2.15843 -2.4511 0
M  V30 2862 H 262.962 0.391481 -3.64504 0
M  V30 2863 H 262.61 2.81098 -4.17124 0
M  V30 2864 H 262.31 1.78688 -5.59772 0
M  V30 2865 H 263.834 2.7107 -5.47132 0
M  V30 2866 H 265.248 0.452384 -5.71512 0
M  V30 2867 H 263.645 -0.287992 -5.99409 0
M  V30 2868 H 264.715 -0.963391 -4.75233 0
M  V30 2869 N 266.058 1.56714 -0.166846 0
M  V30 2870 C 267.306 1.96358 0.478305 0
M  V30 2871 C 267.627 1.0537 1.6408 0
M  V30 2872 O 266.897 0.119154 1.95537 0
M  V30 2873 H 265.477 0.725065 0.179692 0
M  V30 2874 H 268.139 1.93329 -0.246985 0
M  V30 2875 H 267.235 3.00547 0.841292 0
M  V30 2876 N 267.536 -0.106894 1.57237 0
M  V30 2877 C 268.484 -1.14944 2.02215 0
M  V30 2878 C 269.478 -1.42167 0.92114 0
M  V30 2879 O 270.684 -1.41987 1.10634 0
M  V30 2880 H 267.059 -0.387841 0.64427 0
M  V30 2881 H 269.03 -0.743683 2.88984 0
M  V30 2882 C 267.779 -2.4647 2.4525 0
M  V30 2883 H 267.102 -2.26363 3.29545 0
M  V30 2884 H 268.542 -3.17948 2.80508 0
M  V30 2885 C 267.001 -3.09921 1.321 0
M  V30 2886 O 267.531 -3.9651 0.643622 0
M  V30 2887 N 265.737 -2.69986 1.07497 0
M  V30 2888 H 265.284 -1.99667 1.62761 0
M  V30 2889 H 265.242 -3.12769 0.319876 0
M  V30 2890 N 269.014 -1.53014 -0.377408 0
M  V30 2891 C 269.924 -1.81557 -1.48574 0
M  V30 2892 C 270.94 -0.703102 -1.59162 0
M  V30 2893 O 272.116 -0.99192 -1.75279 0
M  V30 2894 C 269.181 -1.9889 -2.83978 0
M  V30 2895 C 268.242 -3.22801 -2.83016 0
M  V30 2896 C 267.475 -3.39298 -4.11962 0
M  V30 2897 O 267.698 -2.60345 -5.0752 0
M  V30 2898 O 266.632 -4.32604 -4.18494 0
M  V30 2899 H 270.458 -2.75695 -1.27382 0
M  V30 2900 H 268.043 -1.38248 -0.566373 0
M  V30 2901 H 269.925 -2.11931 -3.6423 0
M  V30 2902 H 268.6 -1.07942 -3.05172 0
M  V30 2903 H 267.507 -3.15193 -2.01505 0
M  V30 2904 H 268.84 -4.13632 -2.66775 0
M  V30 2905 N 270.492 0.636531 -1.44174 0
M  V30 2906 C 271.74 1.39343 -1.46383 0
M  V30 2907 C 272.061 1.94766 -0.0955715 0
M  V30 2908 O 271.331 1.75452 0.871395 0
M  V30 2909 H 269.911 0.517199 -0.538994 0
M  V30 2910 H 272.573 0.74957 -1.7991 0
M  V30 2911 H 271.669 2.22746 -2.18611 0
M  V30 2912 N 271.97 1.30982 0.876444 0
M  V30 2913 C 273.217 1.20296 1.62896 0
M  V30 2914 C 273.545 -0.240395 1.93009 0
M  V30 2915 O 272.8 -1.18733 1.55567 0
M  V30 2916 C 273.099 1.98572 2.9716 0
M  V30 2917 C 272.765 3.48125 2.86566 0
M  V30 2918 C 271.427 3.88905 2.83383 0
M  V30 2919 C 273.779 4.43322 2.74071 0
M  V30 2920 C 271.107 5.2316 2.65556 0
M  V30 2921 C 273.459 5.77695 2.57781 0
M  V30 2922 C 272.123 6.17704 2.52979 0
M  V30 2923 H 271.393 0.440193 0.59608 0
M  V30 2924 H 274.04 1.62177 1.01837 0
M  V30 2925 H 272.345 1.49352 3.62217 0
M  V30 2926 H 274.042 1.8769 3.54364 0
M  V30 2927 H 270.632 3.15723 2.89856 0
M  V30 2928 H 274.816 4.12752 2.75589 0
M  V30 2929 H 270.072 5.53241 2.60259 0
M  V30 2930 H 274.246 6.51091 2.47089 0
M  V30 2931 H 271.873 7.21678 2.38924 0
M  V30 2932 N 273.449 -1.08991 1.13837 0
M  V30 2933 C 274.696 -1.81258 0.902882 0
M  V30 2934 C 275.024 -1.85936 -0.570803 0
M  V30 2935 O 274.279 -1.3267 -1.43865 0
M  V30 2936 C 274.578 -3.27042 1.44147 0
M  V30 2937 C 274.244 -3.4249 2.93276 0
M  V30 2938 C 272.906 -3.46414 3.33992 0
M  V30 2939 C 275.258 -3.4666 3.892 0
M  V30 2940 C 272.586 -3.52091 4.69307 0
M  V30 2941 C 274.938 -3.53872 5.24364 0
M  V30 2942 C 273.602 -3.56066 5.646 0
M  V30 2943 H 272.872 -0.663268 0.330388 0
M  V30 2944 H 275.519 -1.28368 1.42105 0
M  V30 2945 H 273.824 -3.82599 0.844097 0
M  V30 2946 H 275.521 -3.81499 1.23528 0
M  V30 2947 H 272.111 -3.40124 2.60794 0
M  V30 2948 H 276.295 -3.42865 3.58828 0
M  V30 2949 H 271.551 -3.52079 4.9985 0
M  V30 2950 H 275.725 -3.56043 5.98503 0
M  V30 2951 H 273.352 -3.60218 6.69438 0
M  V30 2952 N 274.927 -0.932562 -1.27047 0
M  V30 2953 C 276.157 -0.591173 -1.97961 0
M  V30 2954 C 276.565 0.836219 -1.69717 0
M  V30 2955 O 275.908 1.56801 -0.957036 0
M  V30 2956 C 275.97 -0.743082 -3.51736 0
M  V30 2957 C 275.634 -2.1435 -4.03613 0
M  V30 2958 C 276.631 -3.11815 -4.16014 0
M  V30 2959 C 274.316 -2.46175 -4.37839 0
M  V30 2960 C 276.31 -4.39211 -4.61923 0
M  V30 2961 C 273.997 -3.73806 -4.83438 0
M  V30 2962 C 274.995 -4.70137 -4.95439 0
M  V30 2963 O 274.683 -5.95496 -5.40037 0
M  V30 2964 H 274.415 -0.222375 -0.638377 0
M  V30 2965 H 276.969 -1.25317 -1.62742 0
M  V30 2966 H 275.199 -0.0239739 -3.86693 0
M  V30 2967 H 276.888 -0.40603 -4.03864 0
M  V30 2968 H 277.654 -2.88549 -3.89826 0
M  V30 2969 H 273.533 -1.71936 -4.27737 0
M  V30 2970 H 277.077 -5.14404 -4.71205 0
M  V30 2971 H 272.974 -3.96888 -5.09068 0
M  V30 2972 H 273.742 -5.98554 -5.58279 0
M  V30 2973 N 276.405 1.4127 -0.698611 0
M  V30 2974 C 277.63 2.06024 -0.238512 0
M  V30 2975 C 278.055 1.5224 1.10475 0
M  V30 2976 O 277.413 0.650623 1.69223 0
M  V30 2977 C 277.461 3.59988 -0.209952 0
M  V30 2978 O 276.565 4.04282 0.814235 0
M  V30 2979 H 275.906 0.653829 -0.115775 0
M  V30 2980 H 278.436 1.8098 -0.954326 0
M  V30 2981 H 278.446 4.07979 -0.0418436 0
M  V30 2982 H 277.121 3.98503 -1.1903 0
M  V30 2983 H 275.698 3.6779 0.615234 0
M  V30 2984 N 277.883 0.443576 1.51229 0
M  V30 2985 C 279.108 -0.121648 2.07043 0
M  V30 2986 C 279.533 -1.35156 1.30823 0
M  V30 2987 O 278.891 -1.7793 0.347934 0
M  V30 2988 C 278.939 -0.41624 3.5819 0
M  V30 2989 O 278.043 -1.50163 3.8409 0
M  V30 2990 H 277.384 0.000871367 0.663999 0
M  V30 2991 H 279.914 0.626706 1.94765 0
M  V30 2992 H 279.924 -0.664867 4.02546 0
M  V30 2993 H 278.599 0.482653 4.1309 0
M  V30 2994 H 277.176 -1.24248 3.51592 0
M  V30 2995 N 279.361 -1.56624 0.175154 0
M  V30 2996 C 280.591 -2.01082 -0.474283 0
M  V30 2997 C 280.999 -1.05447 -1.57091 0
M  V30 2998 O 280.342 -0.0480595 -1.83637 0
M  V30 2999 C 280.404 -3.41963 -1.10911 0
M  V30 3000 C 280.068 -4.56742 -0.153666 0
M  V30 3001 C 281.065 -5.16076 0.629448 0
M  V30 3002 C 278.75 -5.02277 -0.0483776 0
M  V30 3003 C 280.744 -6.19377 1.50501 0
M  V30 3004 C 278.431 -6.05427 0.830768 0
M  V30 3005 C 279.429 -6.63849 1.60605 0
M  V30 3006 O 279.117 -7.64998 2.47049 0
M  V30 3007 H 278.849 -0.664261 -0.125432 0
M  V30 3008 H 281.403 -2.03549 0.275163 0
M  V30 3009 H 279.633 -3.36422 -1.90676 0
M  V30 3010 H 281.322 -3.70352 -1.66114 0
M  V30 3011 H 282.088 -4.81776 0.558297 0
M  V30 3012 H 277.967 -4.56513 -0.641611 0
M  V30 3013 H 281.511 -6.64906 2.1106 0
M  V30 3014 H 277.408 -6.39151 0.903107 0
M  V30 3015 H 278.176 -7.82336 2.40607 0
M  V30 3016 N 280.839 0.0985539 -1.57292 0
M  V30 3017 C 282.116 0.834155 -1.76921 0
M  V30 3018 C 282.496 1.97101 -0.755928 0
M  V30 3019 O 281.844 2.27474 0.216245 0
M  V30 3020 C 282.054 1.33194 -3.22584 0
M  V30 3021 C 283.402 1.77611 -3.85668 0
M  V30 3022 O 284.426 1.42825 -3.26312 0
M  V30 3023 O 283.285 2.4192 -4.90038 0
M  V30 3024 H 280.379 0.397628 -0.725135 0
M  V30 3025 H 282.925 0.0807044 -1.69508 0
M  V30 3026 H 281.697 0.517248 -3.87866 0
M  V30 3027 H 281.32 2.1475 -3.34616 0
M  V30 3028 N 282.317 1.53212 0.369288 0
M  V30 3029 C 283.264 1.79388 1.45219 0
M  V30 3030 C 284.234 0.638059 1.53356 0
M  V30 3031 O 285.419 0.879852 1.69302 0
M  V30 3032 C 282.559 1.98623 2.82211 0
M  V30 3033 C 281.672 3.26337 2.8307 0
M  V30 3034 C 280.807 3.35779 4.11614 0
M  V30 3035 C 279.846 4.5754 4.06601 0
M  V30 3036 N 278.983 4.64155 5.26787 0
M  V30 3037 H 283.823 2.71794 1.22198 0
M  V30 3038 H 281.36 1.34642 0.592444 0
M  V30 3039 H 283.318 2.07761 3.61789 0
M  V30 3040 H 281.948 1.09558 3.03639 0
M  V30 3041 H 281 3.26171 1.95747 0
M  V30 3042 H 282.312 4.15988 2.75237 0
M  V30 3043 H 281.466 3.44208 4.99606 0
M  V30 3044 H 280.205 2.44137 4.22195 0
M  V30 3045 H 279.21 4.49215 3.16996 0
M  V30 3046 H 280.435 5.50519 3.97625 0
M  V30 3047 H 278.381 3.75413 5.3796 0
M  V30 3048 H 278.298 5.47706 5.21109 0
M  V30 3049 H 279.566 4.76863 6.16621 0
M  V30 3050 N 283.795 -0.628877 1.44509 0
M  V30 3051 C 285.206 -1.21054 1.42137 0
M  V30 3052 C 285.557 -1.95715 0.137881 0
M  V30 3053 O 284.682 -2.02554 -0.761645 0
M  V30 3054 C 285.277 -2.20189 2.57493 0
M  V30 3055 C 283.836 -2.73777 2.58308 0
M  V30 3056 C 282.983 -1.48813 2.33987 0
M  V30 3057 H 285.934 -0.41942 1.53057 0
M  V30 3058 H 285.955 -3.02833 2.30375 0
M  V30 3059 H 285.467 -1.6582 3.50892 0
M  V30 3060 H 283.568 -3.32142 1.68856 0
M  V30 3061 H 283.681 -3.19662 3.56865 0
M  V30 3062 H 282.045 -1.77024 1.83124 0
M  V30 3063 H 282.828 -0.963442 3.29504 0
M  V30 3064 N 285.273 -1.31445 -0.869486 0
M  V30 3065 C 286.55 -1.11795 -1.60503 0
M  V30 3066 C 286.93 0.327168 -2.08549 0
M  V30 3067 O 286.278 1.32135 -1.8642 0
M  V30 3068 C 286.488 -2.13258 -2.76265 0
M  V30 3069 C 287.836 -2.45805 -3.46215 0
M  V30 3070 O 288.86 -2.11688 -2.86473 0
M  V30 3071 O 287.719 -3.04228 -4.5399 0
M  V30 3072 H 284.813 -0.430421 -0.706163 0
M  V30 3073 H 287.359 -1.42925 -0.914907 0
M  V30 3074 H 286.131 -3.10461 -2.3818 0
M  V30 3075 H 285.754 -1.83035 -3.52964 0
M  V30 3076 N 286.751 1.08385 -1.14413 0
M  V30 3077 C 287.999 1.80419 -0.910679 0
M  V30 3078 C 288.32 1.86658 0.564243 0
M  V30 3079 O 287.59 1.35985 1.41014 0
M  V30 3080 H 286.17 0.668204 -0.333934 0
M  V30 3081 H 288.832 1.31037 -1.44275 0
M  V30 3082 H 287.928 2.83238 -1.31082 0
M  V30 3083 N 288.23 0.939286 1.26551 0
M  V30 3084 C 289.455 0.602008 1.98471 0
M  V30 3085 C 289.88 -0.815624 1.69497 0
M  V30 3086 O 289.238 -1.54912 0.941905 0
M  V30 3087 C 289.286 0.848407 3.50477 0
M  V30 3088 O 288.39 -0.0804009 4.12322 0
M  V30 3089 H 287.731 0.23049 0.622712 0
M  V30 3090 H 290.261 1.2617 1.61066 0
M  V30 3091 H 290.271 0.768553 4.00696 0
M  V30 3092 H 288.946 1.88171 3.70897 0
M  V30 3093 H 287.523 0.0503508 3.72866 0
M  V30 3094 N 289.708 -1.40897 0.706093 0
M  V30 3095 C 290.618 -2.3455 0.0482286 0
M  V30 3096 C 291.634 -1.56796 -0.754396 0
M  V30 3097 O 292.81 -1.89228 -0.689538 0
M  V30 3098 C 289.875 -3.35625 -0.869303 0
M  V30 3099 C 288.936 -4.29261 -0.0576994 0
M  V30 3100 C 288.169 -5.25508 -0.931531 0
M  V30 3101 O 288.392 -5.27472 -2.17092 0
M  V30 3102 O 287.326 -6.00727 -0.375587 0
M  V30 3103 H 291.152 -2.92407 0.820476 0
M  V30 3104 H 288.737 -1.4193 0.4665 0
M  V30 3105 H 290.619 -3.97635 -1.39514 0
M  V30 3106 H 289.294 -2.80196 -1.62086 0
M  V30 3107 H 288.201 -3.70566 0.512988 0
M  V30 3108 H 289.534 -4.87817 0.655426 0
M  V30 3109 N 291.186 -0.45159 -1.50991 0
M  V30 3110 C 292.116 0.342898 -2.30969 0
M  V30 3111 C 293.097 1.00815 -1.37005 0
M  V30 3112 O 294.282 1.00907 -1.65926 0
M  V30 3113 C 291.412 1.43637 -3.16205 0
M  V30 3114 C 290.366 0.893818 -4.18563 0
M  V30 3115 C 289.692 2.08411 -4.92411 0
M  V30 3116 C 290.992 -0.0815568 -5.22236 0
M  V30 3117 H 292.686 -0.324556 -2.97636 0
M  V30 3118 H 290.232 -0.157531 -1.43136 0
M  V30 3119 H 292.185 1.9995 -3.70942 0
M  V30 3120 H 290.909 2.13232 -2.47386 0
M  V30 3121 H 289.568 0.352798 -3.64898 0
M  V30 3122 H 289.216 2.76658 -4.20082 0
M  V30 3123 H 288.916 1.72741 -5.61636 0
M  V30 3124 H 290.44 2.65251 -5.49976 0
M  V30 3125 H 291.854 0.391742 -5.7196 0
M  V30 3126 H 290.251 -0.351551 -5.99069 0
M  V30 3127 H 291.321 -1.01374 -4.74185 0
M  V30 3128 N 292.664 1.56529 -0.183458 0
M  V30 3129 C 293.889 2.02064 0.467428 0
M  V30 3130 C 294.314 1.06282 1.55196 0
M  V30 3131 O 293.672 0.0443565 1.81246 0
M  V30 3132 C 293.72 3.46122 1.01153 0
M  V30 3133 O 292.824 3.53437 2.12499 0
M  V30 3134 H 292.165 0.654726 0.110588 0
M  V30 3135 H 294.695 2.02521 -0.290917 0
M  V30 3136 H 294.705 3.85676 1.33108 0
M  V30 3137 H 293.38 4.15331 0.217533 0
M  V30 3138 H 291.957 3.2575 1.81497 0
M  V30 3139 N 294.142 -0.090211 1.57342 0
M  V30 3140 C 295.105 -1.09335 2.01441 0
M  V30 3141 C 296.105 -1.32666 0.908641 0
M  V30 3142 O 297.295 -1.28697 1.174 0
M  V30 3143 C 294.427 -2.44136 2.3793 0
M  V30 3144 H 295.62 -0.713662 2.91285 0
M  V30 3145 H 293.173 -0.335404 1.52659 0
M  V30 3146 H 293.908 -2.86972 1.51055 0
M  V30 3147 H 293.693 -2.28548 3.18603 0
M  V30 3148 H 295.183 -3.16277 2.72688 0
M  V30 3149 N 295.62 -1.53406 -0.361157 0
M  V30 3150 C 297.036 -1.43277 -0.703124 0
M  V30 3151 C 297.236 -0.575384 -1.9311 0
M  V30 3152 O 296.292 -0.0595362 -2.5243 0
M  V30 3153 C 297.605 -2.8653 -0.9122 0
M  V30 3154 C 299.153 -2.96191 -1.01193 0
M  V30 3155 C 299.628 -4.40514 -1.25345 0
M  V30 3156 N 301.119 -4.43962 -1.32105 0
M  V30 3157 C 301.854 -5.52746 -1.5251 0
M  V30 3158 N 301.35 -6.71567 -1.70203 0
M  V30 3159 N 303.143 -5.40331 -1.54916 0
M  V30 3160 H 295.294 -2.07654 0.446475 0
M  V30 3161 H 297.557 -0.937944 0.137715 0
M  V30 3162 H 297.263 -3.51605 -0.0816414 0
M  V30 3163 H 297.137 -3.30441 -1.81903 0
M  V30 3164 H 299.524 -2.31266 -1.83303 0
M  V30 3165 H 299.605 -2.55667 -0.0823929 0
M  V30 3166 H 299.249 -5.06014 -0.437346 0
M  V30 3167 H 299.179 -4.78614 -2.19627 0
M  V30 3168 H 301.67 -3.58332 -1.20028 0
M  V30 3169 H 301.983 -7.50241 -1.85359 0
M  V30 3170 H 300.328 -6.74545 -1.67373 0
M  V30 3171 H 303.519 -4.46465 -1.40663 0
M  V30 3172 H 303.692 -6.25173 -1.70477 0
M  V30 3173 N 297.098 0.621204 -1.44841 0
M  V30 3174 C 298.326 1.40752 -1.51646 0
M  V30 3175 C 298.741 1.88246 -0.144549 0
M  V30 3176 O 298.098 1.61422 0.851416 0
M  V30 3177 C 298.149 2.62119 -2.4895 0
M  V30 3178 O 297.87 2.16602 -3.80808 0
M  V30 3179 C 299.371 3.55135 -2.65319 0
M  V30 3180 H 296.591 0.431325 -0.514004 0
M  V30 3181 H 299.135 0.758835 -1.899 0
M  V30 3182 H 297.29 3.23058 -2.13805 0
M  V30 3183 H 297.704 2.95358 -4.33433 0
M  V30 3184 H 299.178 4.36874 -3.37409 0
M  V30 3185 H 299.655 4.04592 -1.70886 0
M  V30 3186 H 300.261 3.00058 -3.01405 0
M  V30 3187 N 298.576 1.31904 0.862503 0
M  V30 3188 C 299.853 1.12644 1.59908 0
M  V30 3189 C 300.233 -0.316104 2.0872 0
M  V30 3190 O 299.581 -1.31145 1.87118 0
M  V30 3191 C 299.791 2.1472 2.7513 0
M  V30 3192 C 301.139 2.47637 3.44907 0
M  V30 3193 O 302.163 2.13205 2.85346 0
M  V30 3194 O 301.022 3.06632 4.52371 0
M  V30 3195 H 298.116 0.43416 0.703871 0
M  V30 3196 H 300.662 1.43408 0.907314 0
M  V30 3197 H 299.434 3.1172 2.3653 0
M  V30 3198 H 299.057 1.84905 3.51989 0
M  V30 3199 N 300.054 -1.07777 1.14986 0
M  V30 3200 C 300.986 -2.14769 0.800436 0
M  V30 3201 C 301.999 -1.61739 -0.185595 0
M  V30 3202 O 303.188 -1.78462 0.0370358 0
M  V30 3203 C 300.288 -3.38481 0.168533 0
M  V30 3204 C 299.461 -4.20876 1.1909 0
M  V30 3205 C 298.52 -5.22976 0.581575 0
M  V30 3206 O 297.546 -5.55388 1.24633 0
M  V30 3207 N 298.748 -5.76976 -0.638706 0
M  V30 3208 H 301.513 -2.45348 1.72118 0
M  V30 3209 H 299.074 -1.23645 1.04515 0
M  V30 3210 H 301.066 -4.03916 -0.251764 0
M  V30 3211 H 299.636 -3.05651 -0.655467 0
M  V30 3212 H 298.856 -3.51322 1.78791 0
M  V30 3213 H 300.144 -4.7274 1.88133 0
M  V30 3214 H 299.542 -5.52886 -1.19723 0
M  V30 3215 H 298.099 -6.44061 -1.00142 0
M  V30 3216 N 301.532 -0.945985 -1.26051 0
M  V30 3217 C 302.482 -0.430164 -2.23905 0
M  V30 3218 C 303.466 0.47579 -1.53704 0
M  V30 3219 O 304.658 0.310252 -1.7426 0
M  V30 3220 C 301.787 0.298957 -3.41996 0
M  V30 3221 C 300.873 -0.624566 -4.19476 0
M  V30 3222 N 301.264 -1.75245 -4.74471 0
M  V30 3223 C 299.562 -0.431082 -4.43912 0
M  V30 3224 C 300.263 -2.32834 -5.3307 0
M  V30 3225 N 299.239 -1.61583 -5.1903 0
M  V30 3226 H 303.041 -1.29107 -2.64024 0
M  V30 3227 H 300.555 -0.802428 -1.41191 0
M  V30 3228 H 302.552 0.685565 -4.11225 0
M  V30 3229 H 301.212 1.15657 -3.03403 0
M  V30 3230 H 302.223 -2.13449 -4.71868 0
M  V30 3231 H 298.9 0.384364 -4.15727 0
M  V30 3232 H 300.29 -3.27893 -5.86461 0
M  V30 3233 N 303.011 1.40521 -0.713556 0
M  V30 3234 C 303.958 2.30723 -0.059684 0
M  V30 3235 C 304.928 1.48079 0.752448 0
M  V30 3236 O 306.113 1.76823 0.71681 0
M  V30 3237 C 303.253 3.34274 0.857594 0
M  V30 3238 C 302.366 4.31986 0.0351536 0
M  V30 3239 C 301.501 5.22605 0.951724 0
M  V30 3240 C 300.54 6.11976 0.123253 0
M  V30 3241 N 299.677 6.9502 0.99459 0
M  V30 3242 H 304.517 2.86074 -0.834596 0
M  V30 3243 H 302.054 1.40879 -0.42326 0
M  V30 3244 H 304.012 3.92879 1.40364 0
M  V30 3245 H 302.642 2.8043 1.59871 0
M  V30 3246 H 301.694 3.7518 -0.628052 0
M  V30 3247 H 303.006 4.95101 -0.606347 0
M  V30 3248 H 302.16 5.86131 1.56638 0
M  V30 3249 H 300.899 4.59759 1.62705 0
M  V30 3250 H 299.904 5.47482 -0.50435 0
M  V30 3251 H 301.129 6.76881 -0.548539 0
M  V30 3252 H 299.075 6.34764 1.6556 0
M  V30 3253 H 298.992 7.54892 0.40908 0
M  V30 3254 H 300.26 7.62997 1.59549 0
M  V30 3255 N 304.489 0.459591 1.5075 0
M  V30 3256 C 305.735 -0.0994966 2.02556 0
M  V30 3257 C 306.068 -1.40399 1.3417 0
M  V30 3258 O 305.343 -1.88892 0.463683 0
M  V30 3259 C 305.626 -0.295242 3.58888 0
M  V30 3260 C 305.479 1.02947 4.37861 0
M  V30 3261 C 306.798 -1.05502 4.27267 0
M  V30 3262 H 303.917 -0.034686 0.736183 0
M  V30 3263 H 306.559 0.602938 1.8018 0
M  V30 3264 H 304.709 -0.893563 3.78084 0
M  V30 3265 H 306.381 1.66348 4.30263 0
M  V30 3266 H 304.624 1.62885 4.02058 0
M  V30 3267 H 305.295 0.846281 5.45474 0
M  V30 3268 H 307.771 -0.547993 4.12476 0
M  V30 3269 H 306.647 -1.16077 5.36486 0
M  V30 3270 H 306.908 -2.08875 3.89645 0
M  V30 3271 N 305.967 -1.56429 0.191757 0
M  V30 3272 C 307.197 -2.01574 -0.452928 0
M  V30 3273 C 307.605 -1.07107 -1.55964 0
M  V30 3274 O 306.948 -0.067534 -1.83576 0
M  V30 3275 C 307.01 -3.43121 -1.07278 0
M  V30 3276 C 306.674 -4.56879 -0.105214 0
M  V30 3277 C 307.671 -5.15379 0.684149 0
M  V30 3278 C 305.356 -5.023 0.00489824 0
M  V30 3279 C 307.35 -6.17746 1.57062 0
M  V30 3280 C 305.037 -6.04511 0.894935 0
M  V30 3281 C 306.035 -6.62108 1.67637 0
M  V30 3282 O 305.723 -7.62335 2.55149 0
M  V30 3283 H 305.455 -0.665554 -0.118379 0
M  V30 3284 H 308.009 -2.03245 0.296737 0
M  V30 3285 H 306.239 -3.38425 -1.87097 0
M  V30 3286 H 307.928 -3.72093 -1.62177 0
M  V30 3287 H 308.694 -4.81157 0.609365 0
M  V30 3288 H 304.573 -4.57168 -0.593156 0
M  V30 3289 H 308.117 -6.6263 2.181 0
M  V30 3290 H 304.014 -6.38157 0.970847 0
M  V30 3291 H 304.782 -7.79741 2.48892 0
M  V30 3292 N 307.445 0.0818655 -1.57387 0
M  V30 3293 C 308.692 0.782914 -1.86753 0
M  V30 3294 C 309.02 1.78082 -0.782118 0
M  V30 3295 O 308.275 1.94426 0.22295 0
M  V30 3296 C 308.574 1.53513 -3.22752 0
M  V30 3297 C 308.24 0.678134 -4.45771 0
M  V30 3298 C 306.902 0.441929 -4.79166 0
M  V30 3299 C 309.254 0.0832243 -5.21134 0
M  V30 3300 C 306.582 -0.398833 -5.85343 0
M  V30 3301 C 308.934 -0.744935 -6.28199 0
M  V30 3302 C 307.598 -0.991107 -6.60101 0
M  V30 3303 H 306.868 0.286489 -0.683378 0
M  V30 3304 H 309.515 0.0439808 -1.91449 0
M  V30 3305 H 307.82 2.34599 -3.138 0
M  V30 3306 H 309.517 2.08218 -3.42705 0
M  V30 3307 H 306.107 0.872357 -4.19628 0
M  V30 3308 H 310.291 0.252847 -4.95655 0
M  V30 3309 H 305.547 -0.598405 -6.08465 0
M  V30 3310 H 309.721 -1.21271 -6.8576 0
M  V30 3311 H 307.348 -1.64437 -7.42202 0
M  V30 3312 N 308.923 1.53595 0.353017 0
M  V30 3313 C 309.873 1.77299 1.43349 0
M  V30 3314 C 310.857 0.627884 1.48143 0
M  V30 3315 O 312.049 0.88697 1.53173 0
M  V30 3316 C 309.178 1.97757 2.80619 0
M  V30 3317 C 308.264 3.18305 2.80254 0
M  V30 3318 N 308.655 4.39967 2.49526 0
M  V30 3319 C 306.953 3.19283 3.11407 0
M  V30 3320 C 307.654 5.21772 2.57156 0
M  V30 3321 N 306.63 4.58269 2.92388 0
M  V30 3322 H 310.432 2.68963 1.18474 0
M  V30 3323 H 307.946 1.52391 0.561306 0
M  V30 3324 H 309.943 2.1287 3.58458 0
M  V30 3325 H 308.603 1.07329 3.06448 0
M  V30 3326 H 309.614 4.67482 2.22893 0
M  V30 3327 H 306.291 2.3879 3.4247 0
M  V30 3328 H 307.681 6.2885 2.36638 0
M  V30 3329 N 310.401 -0.613514 1.45168 0
M  V30 3330 C 311.817 -0.933629 1.29443 0
M  V30 3331 C 312.017 -2.00028 0.243101 0
M  V30 3332 O 311.073 -2.49848 -0.364992 0
M  V30 3333 C 312.386 -1.38018 2.67155 0
M  V30 3334 C 313.934 -1.49471 2.75004 0
M  V30 3335 C 314.409 -1.97503 4.13227 0
M  V30 3336 N 315.9 -2.04746 4.15491 0
M  V30 3337 C 316.635 -2.43121 5.19307 0
M  V30 3338 N 316.131 -2.80506 6.33473 0
M  V30 3339 N 317.924 -2.43408 5.06664 0
M  V30 3340 H 310.075 0.0916097 2.12202 0
M  V30 3341 H 312.338 -0.0216655 0.947752 0
M  V30 3342 H 312.044 -0.670625 3.45247 0
M  V30 3343 H 311.918 -2.34784 2.95222 0
M  V30 3344 H 314.305 -2.19519 1.9722 0
M  V30 3345 H 314.386 -0.510342 2.50657 0
M  V30 3346 H 314.03 -1.28045 4.91495 0
M  V30 3347 H 313.96 -2.96843 4.34962 0
M  V30 3348 H 316.451 -1.78468 3.33103 0
M  V30 3349 H 316.764 -3.08652 7.08487 0
M  V30 3350 H 315.109 -2.78216 6.36884 0
M  V30 3351 H 318.3 -2.13604 4.16523 0
M  V30 3352 H 318.473 -2.72989 5.87691 0
M  V30 3353 N 311.879 -1.3236 -0.855495 0
M  V30 3354 C 312.809 -1.23833 -1.97958 0
M  V30 3355 C 313.79 -0.122361 -1.69659 0
M  V30 3356 O 314.975 -0.30939 -1.9172 0
M  V30 3357 C 312.105 -0.959772 -3.33775 0
M  V30 3358 C 311.059 -2.03689 -3.76424 0
M  V30 3359 C 310.385 -1.61075 -5.09862 0
M  V30 3360 C 311.685 -3.4518 -3.9198 0
M  V30 3361 H 313.379 -2.1788 -2.0535 0
M  V30 3362 H 310.925 -1.04891 -0.986605 0
M  V30 3363 H 312.878 -0.886678 -4.11966 0
M  V30 3364 H 311.602 0.0163404 -3.26596 0
M  V30 3365 H 310.261 -2.10012 -3.00484 0
M  V30 3366 H 309.909 -0.622107 -4.99138 0
M  V30 3367 H 309.609 -2.33143 -5.39368 0
M  V30 3368 H 311.133 -1.55201 -5.90546 0
M  V30 3369 H 312.547 -3.4145 -4.60526 0
M  V30 3370 H 310.944 -4.1559 -4.32903 0
M  V30 3371 H 312.014 -3.84903 -2.94919 0
M  V30 3372 N 313.357 1.07166 -1.15556 0
M  V30 3373 C 314.605 1.79443 -0.929764 0
M  V30 3374 C 314.926 1.87246 0.544414 0
M  V30 3375 O 314.196 1.37473 1.39564 0
M  V30 3376 H 312.776 0.664625 -0.341003 0
M  V30 3377 H 315.438 1.29499 -1.45657 0
M  V30 3378 H 314.534 2.81832 -1.34079 0
M  V30 3379 N 314.835 0.952656 1.25548 0
M  V30 3380 C 316.063 0.623496 1.97282 0
M  V30 3381 C 316.478 -0.803987 1.70826 0
M  V30 3382 O 315.835 -1.53755 0.983147 0
M  V30 3383 C 315.886 0.870209 3.5087 0
M  V30 3384 O 315.607 2.24156 3.76412 0
M  V30 3385 C 317.108 0.553164 4.39835 0
M  V30 3386 H 314.328 0.233931 0.628902 0
M  V30 3387 H 316.872 1.27649 1.59768 0
M  V30 3388 H 315.027 0.263652 3.86502 0
M  V30 3389 H 315.441 2.31021 4.70882 0
M  V30 3390 H 316.915 0.776342 5.46513 0
M  V30 3391 H 317.392 -0.512215 4.36203 0
M  V30 3392 H 317.998 1.13896 4.09766 0
M  V30 3393 N 316.313 -1.40141 0.720998 0
M  V30 3394 C 317.276 -2.29058 0.0805834 0
M  V30 3395 C 318.276 -1.45632 -0.681758 0
M  V30 3396 O 319.466 -1.6648 -0.512856 0
M  V30 3397 C 316.598 -3.28925 -0.895593 0
M  V30 3398 H 317.791 -2.87191 0.863793 0
M  V30 3399 H 315.344 -1.48553 0.485975 0
M  V30 3400 H 316.079 -2.75822 -1.70566 0
M  V30 3401 H 315.864 -3.90519 -0.351766 0
M  V30 3402 H 317.354 -3.95494 -1.34069 0
M  V30 3403 N 317.792 -0.46758 -1.50504 0
M  V30 3404 C 318.724 0.364655 -2.26281 0
M  V30 3405 C 319.737 0.960151 -1.31472 0
M  V30 3406 O 320.926 0.849153 -1.57008 0
M  V30 3407 C 318.026 1.52509 -3.02645 0
M  V30 3408 C 317.199 1.04302 -4.24782 0
M  V30 3409 C 316.258 2.07709 -4.8347 0
M  V30 3410 O 315.284 1.65913 -5.44483 0
M  V30 3411 N 316.486 3.40485 -4.70159 0
M  V30 3412 H 319.251 -0.28495 -2.98342 0
M  V30 3413 H 316.812 -0.298163 -1.59131 0
M  V30 3414 H 318.804 2.21371 -3.38787 0
M  V30 3415 H 317.374 2.07945 -2.33404 0
M  V30 3416 H 316.594 0.180393 -3.93787 0
M  V30 3417 H 317.882 0.698798 -5.03978 0
M  V30 3418 H 317.28 3.77155 -4.21629 0
M  V30 3419 H 315.837 4.05156 -5.1058 0
M  V30 3420 N 319.27 1.56325 -0.20005 0
M  V30 3421 C 320.18 2.22931 0.730668 0
M  V30 3422 C 321.196 1.22997 1.23076 0
M  V30 3423 O 322.372 1.55748 1.27689 0
M  V30 3424 C 319.437 2.87948 1.93098 0
M  V30 3425 C 318.498 4.03166 1.47497 0
M  V30 3426 C 317.731 4.65073 2.61807 0
M  V30 3427 O 317.954 4.25913 3.79413 0
M  V30 3428 O 316.888 5.54452 2.34237 0
M  V30 3429 H 320.714 3.03084 0.193391 0
M  V30 3430 H 318.299 1.49371 0.0294621 0
M  V30 3431 H 320.181 3.29063 2.6324 0
M  V30 3432 H 318.856 2.10771 2.45677 0
M  V30 3433 H 317.763 3.66664 0.742201 0
M  V30 3434 H 319.096 4.82022 0.995796 0
M  V30 3435 N 320.748 -0.0735177 1.57428 0
M  V30 3436 C 322.025 -0.805903 1.78226 0
M  V30 3437 C 322.405 -1.95874 0.787189 0
M  V30 3438 O 321.753 -2.2779 -0.180029 0
M  V30 3439 C 321.963 -1.28045 3.24662 0
M  V30 3440 C 323.311 -1.71453 3.88444 0
M  V30 3441 O 324.335 -1.37616 3.28543 0
M  V30 3442 O 323.194 -2.34093 4.93825 0
M  V30 3443 H 320.288 -0.386041 0.73137 0
M  V30 3444 H 322.834 -0.0537269 1.69615 0
M  V30 3445 H 321.606 -0.455476 3.8864 0
M  V30 3446 H 321.229 -2.094 3.37991 0
M  V30 3447 N 322.226 -1.5378 -0.344866 0
M  V30 3448 C 323.503 -1.61589 -1.10219 0
M  V30 3449 C 323.883 -0.436316 -2.06542 0
M  V30 3450 O 323.231 0.571543 -2.21237 0
M  V30 3451 C 323.441 -2.97602 -1.82301 0
M  V30 3452 C 324.789 -3.5291 -2.36093 0
M  V30 3453 O 325.813 -2.99768 -1.924 0
M  V30 3454 O 324.672 -4.45859 -3.16026 0
M  V30 3455 H 321.766 -0.653522 -0.506792 0
M  V30 3456 H 324.312 -1.66126 -0.346465 0
M  V30 3457 H 323.084 -3.74893 -1.12121 0
M  V30 3458 H 322.707 -2.9665 -2.64735 0
M  V30 3459 N 323.704 0.605807 -1.45491 0
M  V30 3460 C 325.12 0.926751 -1.29936 0
M  V30 3461 C 325.32 1.99896 -0.253706 0
M  V30 3462 O 324.376 2.50038 0.351737 0
M  V30 3463 C 325.689 1.36599 -2.67883 0
M  V30 3464 C 327.237 1.4801 -2.75793 0
M  V30 3465 C 327.712 1.95309 -4.14268 0
M  V30 3466 N 329.203 2.0254 -4.16571 0
M  V30 3467 C 329.938 2.40363 -5.20589 0
M  V30 3468 N 329.434 2.77143 -6.34952 0
M  V30 3469 N 331.227 2.40718 -5.07948 0
M  V30 3470 H 323.378 -0.102862 -2.12151 0
M  V30 3471 H 325.641 0.016639 -0.947854 0
M  V30 3472 H 325.347 0.652306 -3.45598 0
M  V30 3473 H 325.221 2.33215 -2.96463 0
M  V30 3474 H 327.608 2.1847 -1.98381 0
M  V30 3475 H 327.689 0.497041 -2.50925 0
M  V30 3476 H 327.333 1.25436 -4.92167 0
M  V30 3477 H 327.263 2.94532 -4.3653 0
M  V30 3478 H 329.754 1.76699 -3.34045 0
M  V30 3479 H 330.067 3.0489 -7.10114 0
M  V30 3480 H 328.412 2.74834 -6.3835 0
M  V30 3481 H 331.603 2.11392 -4.1765 0
M  V30 3482 H 331.776 2.69869 -5.89131 0
M  V30 3483 N 325.182 1.32811 0.848464 0
M  V30 3484 C 326.112 1.24882 1.97299 0
M  V30 3485 C 327.093 0.131357 1.69592 0
M  V30 3486 O 328.278 0.319553 1.91553 0
M  V30 3487 C 325.408 0.97746 3.33261 0
M  V30 3488 C 324.362 2.05682 3.75338 0
M  V30 3489 C 323.688 1.63777 5.09 0
M  V30 3490 C 324.988 3.47254 3.90144 0
M  V30 3491 H 326.682 2.18966 2.04191 0
M  V30 3492 H 324.228 1.05413 0.981029 0
M  V30 3493 H 326.181 0.908513 4.1149 0
M  V30 3494 H 324.905 0.000980011 3.266 0
M  V30 3495 H 323.564 2.11603 2.99366 0
M  V30 3496 H 323.212 0.648569 4.98801 0
M  V30 3497 H 322.912 2.36 5.38124 0
M  V30 3498 H 324.436 1.5833 5.89715 0
M  V30 3499 H 325.85 3.43888 4.58709 0
M  V30 3500 H 324.247 4.1788 4.30693 0
M  V30 3501 H 325.317 3.86462 2.92874 0
M  V30 3502 N 326.66 -1.06551 1.16123 0
M  V30 3503 C 327.906 -1.79567 0.94252 0
M  V30 3504 C 328.239 -1.86869 -0.528547 0
M  V30 3505 O 327.514 -1.35838 -1.39206 0
M  V30 3506 C 327.797 -3.24195 1.56747 0
M  V30 3507 C 327.65 -3.24989 3.10969 0
M  V30 3508 C 328.969 -4.21678 1.25998 0
M  V30 3509 H 326.088 -0.651883 0.343828 0
M  V30 3510 H 328.73 -1.2463 1.43413 0
M  V30 3511 H 326.88 -3.71107 1.14942 0
M  V30 3512 H 328.552 -2.86258 3.61737 0
M  V30 3513 H 326.795 -2.63716 3.44436 0
M  V30 3514 H 327.466 -4.27005 3.49815 0
M  V30 3515 H 329.942 -3.83196 1.62174 0
M  V30 3516 H 328.818 -5.21146 1.7233 0
M  V30 3517 H 329.079 -4.4174 0.178367 0
M  V30 3518 N 328.138 -0.959301 -1.25041 0
M  V30 3519 C 329.385 -0.616611 -1.92884 0
M  V30 3520 C 329.713 0.847036 -1.75087 0
M  V30 3521 O 328.968 1.62374 -1.09239 0
M  V30 3522 C 329.267 -0.927136 -3.45165 0
M  V30 3523 C 328.933 -2.37757 -3.83122 0
M  V30 3524 C 327.595 -2.77402 -3.93194 0
M  V30 3525 C 329.947 -3.31929 -4.01836 0
M  V30 3526 C 327.275 -4.10277 -4.19392 0
M  V30 3527 C 329.627 -4.64423 -4.29528 0
M  V30 3528 C 328.291 -5.03857 -4.37818 0
M  V30 3529 H 327.561 -0.225634 -0.705812 0
M  V30 3530 H 330.208 -1.20921 -1.48493 0
M  V30 3531 H 328.513 -0.252195 -3.90987 0
M  V30 3532 H 330.21 -0.6405 -3.95852 0
M  V30 3533 H 326.8 -2.06013 -3.75841 0
M  V30 3534 H 330.984 -3.02488 -3.93465 0
M  V30 3535 H 326.24 -4.40467 -4.24027 0
M  V30 3536 H 330.414 -5.37369 -4.42953 0
M  V30 3537 H 328.041 -6.06843 -4.57871 0
M  V30 3538 N 329.616 1.39756 -0.72842 0
M  V30 3539 C 330.864 2.00248 -0.272946 0
M  V30 3540 C 331.185 1.58077 1.14178 0
M  V30 3541 O 330.455 0.826014 1.77634 0
M  V30 3542 H 329.035 0.740554 -0.0979247 0
M  V30 3543 H 331.697 1.70903 -0.936912 0
M  V30 3544 H 330.793 3.10495 -0.316142 0
M  V30 3545 N 331.094 0.475555 1.50254 0
M  V30 3546 C 332.057 -0.305016 2.27161 0
M  V30 3547 C 333.057 -0.916519 1.32123 0
M  V30 3548 O 334.247 -0.785003 1.5551 0
M  V30 3549 C 331.379 -1.43496 3.09227 0
M  V30 3550 H 332.572 0.369511 2.97615 0
M  V30 3551 H 330.125 0.229747 1.54602 0
M  V30 3552 H 330.86 -2.14441 2.43281 0
M  V30 3553 H 330.645 -1.00223 3.79075 0
M  V30 3554 H 332.135 -1.98548 3.67381 0
M  V30 3555 N 332.573 -1.56217 0.208337 0
M  V30 3556 C 333.822 -1.97124 -0.427204 0
M  V30 3557 C 334.135 -1.09859 -1.61835 0
M  V30 3558 O 335.341 -1.40606 -2.32255 0
M  V30 3559 C 333.797 -3.50633 -0.811442 0
M  V30 3560 C 333.405 -4.46582 0.35615 0
M  V30 3561 C 335.149 -4.00282 -1.41332 0
M  V30 3562 C 333.056 -5.91379 -0.0497852 0
M  V30 3563 H 331.986 -0.736086 -0.163381 0
M  V30 3564 H 334.637 -1.8099 0.302456 0
M  V30 3565 H 333.019 -3.62319 -1.59815 0
M  V30 3566 H 334.193 -4.46636 1.1337 0
M  V30 3567 H 332.508 -4.07202 0.870396 0
M  V30 3568 H 335.105 -5.0595 -1.72972 0
M  V30 3569 H 335.448 -3.45359 -2.32449 0
M  V30 3570 H 335.981 -3.91764 -0.690323 0
M  V30 3571 H 332.72 -6.50255 0.827529 0
M  V30 3572 H 332.24 -5.94549 -0.791926 0
M  V30 3573 H 333.919 -6.45209 -0.481042 0
M  V30 3574 N 334.051 0.0651679 -1.57465 0
M  V30 3575 C 335.462 0.616213 -1.76238 0
M  V30 3576 C 335.813 1.7756 -0.834689 0
M  V30 3577 O 334.938 2.1639 -0.0204156 0
M  V30 3578 C 335.533 1.12462 -3.1959 0
M  V30 3579 C 334.092 1.62147 -3.39684 0
M  V30 3580 C 333.239 0.543739 -2.71917 0
M  V30 3581 H 336.19 -0.161022 -1.57881 0
M  V30 3582 H 336.211 1.99324 -3.24114 0
M  V30 3583 H 335.723 0.280592 -3.87084 0
M  V30 3584 H 333.824 2.48854 -2.77313 0
M  V30 3585 H 333.937 1.69385 -4.48158 0
M  V30 3586 H 332.301 0.990352 -2.34657 0
M  V30 3587 H 333.084 -0.290216 -3.42071 0
M  V30 3588 N 335.529 1.53961 0.336706 0
M  V30 3589 C 336.492 1.81724 1.39675 0
M  V30 3590 C 337.492 0.688532 1.45313 0
M  V30 3591 O 338.682 0.956829 1.45569 0
M  V30 3592 C 335.814 1.96543 2.78538 0
M  V30 3593 H 337.007 2.76424 1.16318 0
M  V30 3594 H 334.56 1.45478 0.571474 0
M  V30 3595 H 335.295 1.0401 3.07168 0
M  V30 3596 H 335.08 2.78665 2.75841 0
M  V30 3597 H 336.57 2.19516 3.5525 0
M  V30 3598 N 337.007 -0.598083 1.45811 0
M  V30 3599 C 337.939 -1.72231 1.51225 0
M  V30 3600 C 338.952 -1.57757 0.402059 0
M  V30 3601 O 340.141 -1.65464 0.669624 0
M  V30 3602 C 337.241 -3.10331 1.3619 0
M  V30 3603 C 336.414 -3.50955 2.61054 0
M  V30 3604 C 335.473 -4.68055 2.40439 0
M  V30 3605 O 334.499 -4.74691 3.14097 0
M  V30 3606 N 335.701 -5.61941 1.45612 0
M  V30 3607 H 338.466 -1.68046 2.48154 0
M  V30 3608 H 336.027 -0.783637 1.41671 0
M  V30 3609 H 338.019 -3.86439 1.20195 0
M  V30 3610 H 336.589 -3.0897 0.475015 0
M  V30 3611 H 335.809 -2.64711 2.92099 0
M  V30 3612 H 337.097 -3.74858 3.44034 0
M  V30 3613 H 336.495 -5.59301 0.848431 0
M  V30 3614 H 335.052 -6.37542 1.35585 0
M  V30 3615 N 338.485 -1.33259 -0.841409 0
M  V30 3616 C 339.435 -1.19872 -1.93945 0
M  V30 3617 C 340.419 -0.102269 -1.60575 0
M  V30 3618 O 341.611 -0.330114 -1.73894 0
M  V30 3619 C 338.74 -0.937517 -3.30251 0
M  V30 3620 C 337.826 -2.07629 -3.69799 0
M  V30 3621 N 338.217 -3.32604 -3.81062 0
M  V30 3622 C 336.515 -1.98242 -3.9952 0
M  V30 3623 C 337.216 -4.07275 -4.15333 0
M  V30 3624 N 336.192 -3.35691 -4.27566 0
M  V30 3625 H 339.994 -2.14604 -2.00805 0
M  V30 3626 H 337.508 -1.2523 -1.03398 0
M  V30 3627 H 339.505 -0.822545 -4.08705 0
M  V30 3628 H 338.165 0.00128798 -3.247 0
M  V30 3629 H 339.176 -3.67382 -3.65035 0
M  V30 3630 H 335.853 -1.12005 -4.02195 0
M  V30 3631 H 337.243 -5.1511 -4.31406 0
M  V30 3632 N 339.963 1.05934 -1.16686 0
M  V30 3633 C 340.913 2.11764 -0.844978 0
M  V30 3634 C 341.897 1.59922 0.177178 0
M  V30 3635 O 343.089 1.76983 -0.0241768 0
M  V30 3636 C 340.218 3.41493 -0.351812 0
M  V30 3637 C 339.304 4.00152 -1.40496 0
M  V30 3638 N 339.695 4.32874 -2.61636 0
M  V30 3639 C 337.993 4.278 -1.26106 0
M  V30 3640 C 338.694 4.79552 -3.29249 0
M  V30 3641 N 337.67 4.79211 -2.56628 0
M  V30 3642 H 341.472 2.34916 -1.76612 0
M  V30 3643 H 338.986 1.23511 -1.05446 0
M  V30 3644 H 340.983 4.16773 -0.102796 0
M  V30 3645 H 339.643 3.19778 0.56322 0
M  V30 3646 H 340.654 4.23109 -2.98663 0
M  V30 3647 H 337.331 4.15511 -0.407081 0
M  V30 3648 H 338.721 5.14045 -4.32675 0
M  V30 3649 N 341.441 0.965919 1.2453 0
M  V30 3650 C 342.857 0.67216 1.44756 0
M  V30 3651 C 343.057 -0.766609 1.86347 0
M  V30 3652 O 342.113 -1.5407 2.00047 0
M  V30 3653 C 343.426 1.65473 2.51076 0
M  V30 3654 C 344.974 1.66716 2.64905 0
M  V30 3655 C 345.449 2.63766 3.74421 0
M  V30 3656 N 346.94 2.62198 3.81846 0
M  V30 3657 C 347.675 3.33966 4.66106 0
M  V30 3658 N 347.171 4.15245 5.54566 0
M  V30 3659 N 348.964 3.22799 4.60171 0
M  V30 3660 H 341.115 1.89553 0.958293 0
M  V30 3661 H 343.378 0.815979 0.482579 0
M  V30 3662 H 343.084 2.68296 2.27399 0
M  V30 3663 H 342.958 1.4261 3.49202 0
M  V30 3664 H 345.345 0.646057 2.87941 0
M  V30 3665 H 345.426 1.93642 1.67142 0
M  V30 3666 H 345.07 3.6601 3.52135 0
M  V30 3667 H 345 2.34121 4.71694 0
M  V30 3668 H 347.491 2.032 3.18619 0
M  V30 3669 H 347.804 4.66898 6.15814 0
M  V30 3670 H 346.149 4.1934 5.54237 0
M  V30 3671 H 349.34 2.58764 3.90075 0
M  V30 3672 H 349.513 3.78994 5.25612 0
M  V30 3673 N 342.919 -1.39368 0.735821 0
M  V30 3674 C 344.149 -2.04498 0.293967 0
M  V30 3675 C 344.557 -1.55593 -1.07645 0
M  V30 3676 O 343.9 -0.716324 -1.69158 0
M  V30 3677 C 343.962 -3.58836 0.218342 0
M  V30 3678 C 343.626 -4.30721 1.52736 0
M  V30 3679 C 344.623 -4.57305 2.47322 0
M  V30 3680 C 342.308 -4.69251 1.79189 0
M  V30 3681 C 344.302 -5.21429 3.66593 0
M  V30 3682 C 341.989 -5.33104 2.98737 0
M  V30 3683 C 342.987 -5.59125 3.9226 0
M  V30 3684 O 342.675 -6.21653 5.09708 0
M  V30 3685 H 342.407 -0.664118 0.126189 0
M  V30 3686 H 344.961 -1.79385 1.00051 0
M  V30 3687 H 343.191 -3.8285 -0.544314 0
M  V30 3688 H 344.88 -4.05447 -0.191626 0
M  V30 3689 H 345.646 -4.27983 2.28156 0
M  V30 3690 H 341.525 -4.48354 1.07239 0
M  V30 3691 H 345.069 -5.41656 4.39607 0
M  V30 3692 H 340.966 -5.61846 3.17803 0
M  V30 3693 H 341.734 -6.40146 5.10054 0
M  V30 3694 N 344.397 -0.483516 -1.5 0
M  V30 3695 C 345.643 0.0672592 -2.02688 0
M  V30 3696 C 345.976 1.38247 -1.36387 0
M  V30 3697 O 345.251 1.88131 -0.493675 0
M  V30 3698 C 345.534 0.238109 -3.59312 0
M  V30 3699 C 345.387 -1.099 -4.36168 0
M  V30 3700 C 346.706 0.986916 -4.28892 0
M  V30 3701 H 343.825 0.0229696 -0.736642 0
M  V30 3702 H 346.467 -0.631527 -1.79197 0
M  V30 3703 H 344.617 0.8333 -3.79458 0
M  V30 3704 H 346.289 -1.73172 -4.27562 0
M  V30 3705 H 344.532 -1.69261 -3.99416 0
M  V30 3706 H 345.203 -0.932954 -5.44059 0
M  V30 3707 H 347.679 0.482302 -4.13295 0
M  V30 3708 H 346.555 1.07527 -5.38265 0
M  V30 3709 H 346.816 2.0265 -3.92919 0
M  V30 3710 N 345.875 1.56104 -0.216619 0
M  V30 3711 C 347.123 1.97781 0.415593 0
M  V30 3712 C 347.444 1.10536 1.60645 0
M  V30 3713 O 346.714 0.181303 1.95059 0
M  V30 3714 H 345.294 0.730415 0.156534 0
M  V30 3715 H 347.956 1.92445 -0.308366 0
M  V30 3716 H 347.052 3.03072 0.74525 0
M  V30 3717 N 347.353 -0.0568162 1.57498 0
M  V30 3718 C 348.316 -1.05038 2.03715 0
M  V30 3719 C 349.316 -1.30709 0.936577 0
M  V30 3720 O 350.506 -1.26178 1.20103 0
M  V30 3721 C 347.638 -2.39034 2.43055 0
M  V30 3722 H 348.831 -0.651715 2.92733 0
M  V30 3723 H 346.384 -0.302947 1.53336 0
M  V30 3724 H 347.119 -2.83703 1.57108 0
M  V30 3725 H 346.904 -2.21739 3.2338 0
M  V30 3726 H 348.394 -3.10421 2.79336 0
M  V30 3727 N 348.832 -1.54138 -0.328536 0
M  V30 3728 C 350.06 -1.76062 -1.08673 0
M  V30 3729 C 350.475 -0.506852 -1.81869 0
M  V30 3730 O 349.832 0.522223 -1.74869 0
M  V30 3731 C 349.883 -2.95054 -2.08866 0
M  V30 3732 O 349.604 -4.15583 -1.38644 0
M  V30 3733 C 351.105 -3.2915 -2.96943 0
M  V30 3734 H 348.325 -0.587889 -0.323461 0
M  V30 3735 H 350.869 -2.0101 -0.376175 0
M  V30 3736 H 349.024 -2.72394 -2.75464 0
M  V30 3737 H 349.438 -4.82481 -2.05699 0
M  V30 3738 H 350.912 -4.15723 -3.63151 0
M  V30 3739 H 351.389 -2.461 -3.63774 0
M  V30 3740 H 351.995 -3.53871 -2.35914 0
M  V30 3741 N 350.31 0.590341 -1.46126 0
M  V30 3742 C 351.556 1.35082 -1.51264 0
M  V30 3743 C 351.889 1.93534 -0.160711 0
M  V30 3744 O 351.164 1.76045 0.826956 0
M  V30 3745 C 351.447 2.48588 -2.6053 0
M  V30 3746 C 351.3 1.95221 -4.05227 0
M  V30 3747 C 352.619 3.50662 -2.6594 0
M  V30 3748 H 349.738 0.489803 -0.550692 0
M  V30 3749 H 352.38 0.663887 -1.78024 0
M  V30 3750 H 350.53 3.07186 -2.37843 0
M  V30 3751 H 352.202 1.41139 -4.39178 0
M  V30 3752 H 350.445 1.26101 -4.15068 0
M  V30 3753 H 351.116 2.77121 -4.77397 0
M  V30 3754 H 353.592 3.01934 -2.86313 0
M  V30 3755 H 352.468 4.27551 -3.44226 0
M  V30 3756 H 352.729 4.07399 -1.71694 0
M  V30 3757 N 351.788 1.33704 0.83433 0
M  V30 3758 C 353.016 1.28467 1.62185 0
M  V30 3759 C 353.431 -0.143526 1.88254 0
M  V30 3760 O 352.788 -1.08709 1.4659 0
M  V30 3761 C 352.839 2.06174 2.96942 0
M  V30 3762 O 352.56 3.43422 2.72016 0
M  V30 3763 C 354.061 2.08201 3.91366 0
M  V30 3764 H 351.281 0.4424 0.504503 0
M  V30 3765 H 353.825 1.76145 1.03891 0
M  V30 3766 H 351.98 1.62167 3.51825 0
M  V30 3767 H 352.394 3.83453 3.57861 0
M  V30 3768 H 353.868 2.67017 4.83121 0
M  V30 3769 H 354.345 1.07343 4.2588 0
M  V30 3770 H 354.951 2.52246 3.42421 0
M  V30 3771 N 353.266 -1.05314 1.17247 0
M  V30 3772 C 354.176 -2.16538 0.90268 0
M  V30 3773 C 355.192 -1.73523 -0.128707 0
M  V30 3774 O 356.368 -2.01337 0.0502701 0
M  V30 3775 C 353.433 -3.44167 0.418356 0
M  V30 3776 C 352.494 -4.01635 1.51618 0
M  V30 3777 C 351.727 -5.23171 1.05487 0
M  V30 3778 O 351.95 -5.70327 -0.0914715 0
M  V30 3779 O 350.884 -5.72848 1.8474 0
M  V30 3780 H 354.71 -2.42145 1.83302 0
M  V30 3781 H 352.295 -1.15037 0.953246 0
M  V30 3782 H 354.177 -4.21112 0.155726 0
M  V30 3783 H 352.852 -3.20063 -0.48385 0
M  V30 3784 H 351.759 -3.26135 1.83268 0
M  V30 3785 H 353.092 -4.30053 2.39405 0
M  V30 3786 N 354.744 -0.972509 -1.24016 0
M  V30 3787 C 356.021 -0.553733 -1.87598 0
M  V30 3788 C 356.401 0.969158 -1.87538 0
M  V30 3789 O 355.749 1.84255 -1.35139 0
M  V30 3790 C 355.959 -1.15076 -3.29482 0
M  V30 3791 C 357.307 -1.23862 -4.06132 0
M  V30 3792 O 358.331 -1.10363 -3.38672 0
M  V30 3793 O 357.19 -1.45252 -5.26844 0
M  V30 3794 H 354.284 -0.185331 -0.805966 0
M  V30 3795 H 356.83 -1.06709 -1.31952 0
M  V30 3796 H 355.602 -2.19333 -3.2405 0
M  V30 3797 H 355.225 -0.621746 -3.92709 0
M  V30 3798 N 356.222 1.38976 -0.743202 0
M  V30 3799 C 357.499 1.94351 -0.220705 0
M  V30 3800 C 357.879 1.67935 1.2791 0
M  V30 3801 O 357.227 1.01211 2.04862 0
M  V30 3802 C 357.437 3.44426 -0.563171 0
M  V30 3803 C 358.785 4.2144 -0.517046 0
M  V30 3804 O 359.809 3.52661 -0.500846 0
M  V30 3805 O 358.668 5.44032 -0.518806 0
M  V30 3806 H 355.762 0.825879 -0.043047 0
M  V30 3807 H 358.308 1.48429 -0.822618 0
M  V30 3808 H 357.08 3.5712 -1.59941 0
M  V30 3809 H 356.703 3.97543 0.0672883 0
M  V30 3810 N 357.7 0.491464 1.49741 0
M  V30 3811 C 359.116 0.146835 1.58923 0
M  V30 3812 C 359.316 -1.34804 1.49767 0
M  V30 3813 O 358.372 -2.12317 1.36667 0
M  V30 3814 C 359.685 0.715157 2.92072 0
M  V30 3815 C 361.233 0.680407 3.05515 0
M  V30 3816 C 361.708 1.22663 4.41269 0
M  V30 3817 N 363.199 1.18691 4.47735 0
M  V30 3818 C 363.934 1.57984 5.51207 0
M  V30 3819 N 363.43 2.04824 6.6183 0
M  V30 3820 N 365.223 1.49459 5.41866 0
M  V30 3821 H 357.374 1.46347 1.53936 0
M  V30 3822 H 359.637 0.606453 0.728642 0
M  V30 3823 H 359.343 1.76317 3.04311 0
M  V30 3824 H 359.217 0.17018 3.76816 0
M  V30 3825 H 361.604 -0.358743 2.92911 0
M  V30 3826 H 361.685 1.26242 2.22478 0
M  V30 3827 H 361.329 2.26451 4.54623 0
M  V30 3828 H 361.259 0.620637 5.2293 0
M  V30 3829 H 363.75 0.843605 3.68364 0
M  V30 3830 H 364.063 2.32901 7.3687 0
M  V30 3831 H 362.408 2.08791 6.62896 0
M  V30 3832 H 365.599 1.12692 4.54333 0
M  V30 3833 H 365.772 1.80406 6.22381 0
M  V30 3834 N 359.178 -1.55987 0.224894 0
M  V30 3835 C 360.425 -1.9839 -0.4059 0
M  V30 3836 C 360.753 -1.11261 -1.59535 0
M  V30 3837 O 360.008 -0.158314 -1.95059 0
M  V30 3838 C 360.307 -3.46394 -0.880106 0
M  V30 3839 C 359.973 -4.5046 0.19918 0
M  V30 3840 C 358.635 -4.7864 0.495661 0
M  V30 3841 C 360.987 -5.12855 0.928939 0
M  V30 3842 C 358.315 -5.66497 1.52636 0
M  V30 3843 C 360.667 -6.01828 1.949 0
M  V30 3844 C 359.331 -6.28351 2.25236 0
M  V30 3845 H 358.601 -0.725961 -0.148529 0
M  V30 3846 H 361.248 -1.88668 0.328113 0
M  V30 3847 H 359.553 -3.53337 -1.69294 0
M  V30 3848 H 361.25 -3.76577 -1.37808 0
M  V30 3849 H 357.84 -4.28579 -0.0420526 0
M  V30 3850 H 362.024 -4.9115 0.713129 0
M  V30 3851 H 357.28 -5.8531 1.76698 0
M  V30 3852 H 361.454 -6.49225 2.51951 0
M  V30 3853 H 359.081 -6.96226 3.05244 0
M  V30 3854 N 360.656 0.0484629 -1.57525 0
M  V30 3855 C 361.586 1.0549 -2.08313 0
M  V30 3856 C 362.567 1.38929 -0.981463 0
M  V30 3857 O 363.752 1.48151 -1.25558 0
M  V30 3858 C 360.882 2.36162 -2.54646 0
M  V30 3859 C 359.836 2.17016 -3.68901 0
M  V30 3860 C 359.162 3.53278 -4.01371 0
M  V30 3861 C 360.462 1.57219 -4.98076 0
M  V30 3862 H 362.156 0.632195 -2.92649 0
M  V30 3863 H 359.702 0.302654 -1.40784 0
M  V30 3864 H 361.655 3.06882 -2.88793 0
M  V30 3865 H 360.379 2.80456 -1.67368 0
M  V30 3866 H 359.038 1.48733 -3.35073 0
M  V30 3867 H 358.686 3.95185 -3.11188 0
M  V30 3868 H 358.386 3.41299 -4.78318 0
M  V30 3869 H 359.91 4.25391 -4.38035 0
M  V30 3870 H 361.324 2.17832 -5.30304 0
M  V30 3871 H 359.721 1.55871 -5.79503 0
M  V30 3872 H 360.791 0.535956 -4.81929 0
M  V30 3873 N 362.134 1.5431 0.320358 0
M  V30 3874 C 363.064 1.86912 1.3995 0
M  V30 3875 C 364.045 0.726211 1.53819 0
M  V30 3876 O 365.23 0.980233 1.67646 0
M  V30 3877 C 362.36 2.09932 2.7667 0
M  V30 3878 C 361.314 3.25776 2.77586 0
M  V30 3879 C 360.64 3.34173 4.17412 0
M  V30 3880 C 361.94 4.6335 2.41048 0
M  V30 3881 H 363.634 2.77292 1.12914 0
M  V30 3882 H 361.18 1.33421 0.541738 0
M  V30 3883 H 363.133 2.31324 3.52232 0
M  V30 3884 H 361.857 1.16304 3.0519 0
M  V30 3885 H 360.516 3.04276 2.04479 0
M  V30 3886 H 360.164 2.38098 4.43078 0
M  V30 3887 H 359.864 4.12033 4.18931 0
M  V30 3888 H 361.388 3.57803 4.94782 0
M  V30 3889 H 362.802 4.84602 3.06324 0
M  V30 3890 H 361.199 5.43782 2.53813 0
M  V30 3891 H 362.269 4.65381 1.36193 0
M  V30 3892 N 363.613 -0.582584 1.46437 0
M  V30 3893 C 364.862 -1.337 1.5102 0
M  V30 3894 C 365.175 -1.94891 0.166359 0
M  V30 3895 O 366.381 -2.71351 0.0899954 0
M  V30 3896 C 364.837 -2.42315 2.66104 0
M  V30 3897 C 364.445 -1.87427 4.06909 0
M  V30 3898 C 366.189 -3.19099 2.79958 0
M  V30 3899 C 364.096 -2.93672 5.13333 0
M  V30 3900 H 363.026 -0.502619 0.562041 0
M  V30 3901 H 365.677 -0.621701 1.72647 0
M  V30 3902 H 364.059 -3.16645 2.37807 0
M  V30 3903 H 365.233 -1.19639 4.44998 0
M  V30 3904 H 363.548 -1.2331 3.97723 0
M  V30 3905 H 366.145 -3.9839 3.56636 0
M  V30 3906 H 366.488 -3.71695 1.87479 0
M  V30 3907 H 367.021 -2.51875 3.07902 0
M  V30 3908 H 363.76 -2.45962 6.07604 0
M  V30 3909 H 363.28 -3.59948 4.79789 0
M  V30 3910 H 364.959 -3.5762 5.39182 0
M  V30 3911 N 365.091 -1.34144 -0.827227 0
M  V30 3912 C 366.316 -1.29476 -1.62021 0
M  V30 3913 C 366.741 0.129292 -1.87655 0
M  V30 3914 O 366.099 1.08967 -1.449 0
M  V30 3915 C 366.147 -2.08702 -2.94068 0
M  V30 3916 O 365.251 -1.45359 -3.85933 0
M  V30 3917 H 364.592 -0.444881 -0.492927 0
M  V30 3918 H 367.122 -1.76882 -1.02829 0
M  V30 3919 H 367.132 -2.19898 -3.43669 0
M  V30 3920 H 365.807 -3.12241 -2.74734 0
M  V30 3921 H 364.384 -1.42879 -3.44442 0
M  V30 3922 N 366.569 1.04691 -1.17803 0
M  V30 3923 C 367.532 2.10724 -0.901545 0
M  V30 3924 C 368.532 1.6042 0.110437 0
M  V30 3925 O 369.722 1.7377 -0.122303 0
M  V30 3926 C 366.854 3.39084 -0.351409 0
M  V30 3927 H 368.047 2.36686 -1.84174 0
M  V30 3928 H 365.6 1.21015 -0.98919 0
M  V30 3929 H 366.335 3.18782 0.59569 0
M  V30 3930 H 366.12 3.76909 -1.08083 0
M  V30 3931 H 367.61 4.17227 -0.176451 0
M  V30 3932 N 368.047 0.979072 1.23499 0
M  V30 3933 C 369.01 0.523244 2.23147 0
M  V30 3934 C 370.01 -0.386406 1.56088 0
M  V30 3935 O 371.2 -0.180283 1.73265 0
M  V30 3936 C 368.332 -0.240739 3.40049 0
M  V30 3937 H 369.525 1.40432 2.64989 0
M  V30 3938 H 367.078 0.764824 1.36309 0
M  V30 3939 H 367.813 -1.13841 3.03662 0
M  V30 3940 H 367.598 0.412207 3.89927 0
M  V30 3941 H 369.088 -0.548297 4.13985 0
M  V30 3942 N 369.525 -1.3858 0.750561 0
M  V30 3943 C 370.473 -2.32339 0.110162 0
M  V30 3944 C 371.467 -1.53864 -0.708674 0
M  V30 3945 O 372.673 -1.69417 -0.608112 0
M  V30 3946 H 369.048 -0.751812 0.0168275 0
M  V30 3947 H 371.019 -2.83959 0.917053 0
M  V30 3948 C 369.768 -3.39043 -0.771067 0
M  V30 3949 H 369.091 -3.99517 -0.150374 0
M  V30 3950 H 370.531 -4.07061 -1.1865 0
M  V30 3951 C 368.99 -2.77365 -1.91234 0
M  V30 3952 O 369.52 -2.66434 -3.00626 0
M  V30 3953 N 367.726 -2.35219 -1.70646 0
M  V30 3954 H 367.273 -2.4431 -0.81673 0
M  V30 3955 H 367.231 -1.94294 -2.47178 0
M  V30 3956 N 371.003 -0.499398 -1.49478 0
M  V30 3957 C 372.228 0.044722 -2.07352 0
M  V30 3958 C 372.653 1.30207 -1.35749 0
M  V30 3959 O 372.011 1.76516 -0.413732 0
M  V30 3960 C 372.059 0.283013 -3.59488 0
M  V30 3961 O 371.163 1.35804 -3.89398 0
M  V30 3962 H 370.504 -0.0255147 -0.66351 0
M  V30 3963 H 373.034 -0.698561 -1.92305 0
M  V30 3964 H 373.044 0.515007 -4.04737 0
M  V30 3965 H 371.719 -0.635636 -4.11014 0
M  V30 3966 H 370.296 1.11113 -3.55961 0
M  V30 3967 N 372.481 1.55866 -0.233164 0
M  V30 3968 C 373.709 2.02998 0.399905 0
M  V30 3969 C 374.124 1.11274 1.52524 0
M  V30 3970 O 373.481 0.124528 1.82075 0
M  V30 3971 C 373.532 3.4958 0.920639 0
M  V30 3972 O 373.253 4.37808 -0.159834 0
M  V30 3973 C 374.754 4.12411 1.62578 0
M  V30 3974 H 371.974 0.664006 0.0966281 0
M  V30 3975 H 374.518 2.0143 -0.353013 0
M  V30 3976 H 372.673 3.51727 1.62379 0
M  V30 3977 H 373.087 5.23981 0.23337 0
M  V30 3978 H 374.561 5.16711 1.94201 0
M  V30 3979 H 375.038 3.5809 2.54299 0
M  V30 3980 H 375.644 4.14148 0.967553 0
M  V30 3981 N 373.959 -0.0401083 1.57549 0
M  V30 3982 C 375.184 -0.748931 1.93406 0
M  V30 3983 C 375.609 -1.68686 0.832274 0
M  V30 3984 O 374.967 -1.80047 -0.212818 0
M  V30 3985 C 375.015 -1.4916 3.28304 0
M  V30 3986 O 374.119 -2.6042 3.19774 0
M  V30 3987 H 373.46 -0.202212 0.63246 0
M  V30 3988 H 375.99 0.00112086 2.046 0
M  V30 3989 H 376 -1.86395 3.62934 0
M  V30 3990 H 374.675 -0.80364 4.08062 0
M  V30 3991 H 373.252 -2.25808 2.96758 0
M  V30 3992 N 375.437 -1.54477 -0.31217 0
M  V30 3993 C 376.685 -1.72884 -1.04668 0
M  V30 3994 C 377.006 -0.511477 -1.88173 0
M  V30 3995 O 376.276 0.474407 -1.90069 0
M  V30 3996 H 374.856 -0.637461 -0.389425 0
M  V30 3997 H 377.518 -1.91807 -0.345852 0
M  V30 3998 H 376.614 -2.61334 -1.70619 0
M  V30 3999 N 376.915 0.57481 -1.46744 0
M  V30 4000 C 377.863 1.70435 -1.58286 0
M  V30 4001 C 378.857 1.63287 -0.450956 0
M  V30 4002 O 380.063 1.68685 -0.628121 0
M  V30 4003 H 376.438 0.56364 -0.497809 0
M  V30 4004 H 378.409 1.57833 -2.53242 0
M  V30 4005 C 377.158 3.08815 -1.59776 0
M  V30 4006 H 376.481 3.1499 -2.46214 0
M  V30 4007 H 377.921 3.87588 -1.71905 0
M  V30 4008 C 376.38 3.35301 -0.327812 0
M  V30 4009 O 376.91 3.97511 0.57861 0
M  V30 4010 N 375.116 2.89816 -0.213274 0
M  V30 4011 H 374.663 2.39371 -0.951798 0
M  V30 4012 H 374.621 3.0791 0.63553 0
M  V30 4013 N 378.394 1.34581 0.820102 0
M  V30 4014 C 379.81 1.14325 1.11364 0
M  V30 4015 C 380.01 -0.0533648 2.01429 0
M  V30 4016 O 379.066 -0.728044 2.41776 0
M  V30 4017 C 380.379 2.43983 1.75764 0
M  V30 4018 C 381.927 2.50065 1.88246 0
M  V30 4019 C 382.402 3.79732 2.56061 0
M  V30 4020 N 383.893 3.80908 2.63558 0
M  V30 4021 C 384.628 4.77961 3.16766 0
M  V30 4022 N 384.124 5.85397 3.70517 0
M  V30 4023 N 385.917 4.65413 3.15194 0
M  V30 4024 H 378.068 2.11246 0.221096 0
M  V30 4025 H 380.331 0.934289 0.160649 0
M  V30 4026 H 380.037 3.31651 1.1705 0
M  V30 4027 H 379.911 2.57531 2.75604 0
M  V30 4028 H 382.298 1.62834 2.46108 0
M  V30 4029 H 382.379 2.40442 0.873006 0
M  V30 4030 H 382.023 4.67354 1.98853 0
M  V30 4031 H 381.953 3.86639 3.57516 0
M  V30 4032 H 384.444 3.03274 2.25463 0
M  V30 4033 H 384.757 6.55463 4.09376 0
M  V30 4034 H 383.102 5.89107 3.68752 0
M  V30 4035 H 386.293 3.80627 2.72471 0
M  V30 4036 H 386.466 5.41216 3.56356 0
M  V30 4037 N 379.872 -1.04064 1.18357 0
M  V30 4038 C 380.802 -2.14001 0.934113 0
M  V30 4039 C 381.783 -1.69616 -0.128186 0
M  V30 4040 O 382.968 -1.94185 0.0244093 0
M  V30 4041 C 380.098 -3.44253 0.459066 0
M  V30 4042 C 379.052 -4.02261 1.46185 0
M  V30 4043 C 378.378 -5.27992 0.844322 0
M  V30 4044 C 379.678 -4.38432 2.83856 0
M  V30 4045 H 381.372 -2.35127 1.85352 0
M  V30 4046 H 378.918 -1.12998 0.892604 0
M  V30 4047 H 380.871 -4.20522 0.271907 0
M  V30 4048 H 379.595 -3.22813 -0.495912 0
M  V30 4049 H 378.254 -3.28074 1.63595 0
M  V30 4050 H 377.902 -5.02862 -0.117845 0
M  V30 4051 H 377.602 -5.67765 1.51384 0
M  V30 4052 H 379.126 -6.06938 0.667693 0
M  V30 4053 H 380.54 -5.05688 2.70098 0
M  V30 4054 H 378.937 -4.89254 3.47491 0
M  V30 4055 H 380.007 -3.4826 3.37406 0
M  V30 4056 N 381.35 -0.985608 -1.22978 0
M  V30 4057 C 382.58 -0.674603 -1.95276 0
M  V30 4058 C 382.988 0.763483 -1.73111 0
M  V30 4059 O 382.331 1.52601 -1.02268 0
M  V30 4060 C 382.393 -0.891597 -3.48268 0
M  V30 4061 C 382.057 -2.31275 -3.94158 0
M  V30 4062 C 383.054 -3.29179 -4.02415 0
M  V30 4063 C 380.739 -2.64524 -4.27004 0
M  V30 4064 C 382.733 -4.58407 -4.42879 0
M  V30 4065 C 380.42 -3.93974 -4.67149 0
M  V30 4066 C 381.418 -4.90727 -4.75053 0
M  V30 4067 O 381.106 -6.17865 -5.14294 0
M  V30 4068 H 380.838 -0.249251 -0.628371 0
M  V30 4069 H 383.392 -1.32106 -1.5728 0
M  V30 4070 H 381.622 -0.187962 -3.86243 0
M  V30 4071 H 383.311 -0.576957 -4.01779 0
M  V30 4072 H 384.077 -3.04823 -3.77237 0
M  V30 4073 H 379.956 -1.89923 -4.2006 0
M  V30 4074 H 383.5 -5.33926 -4.48964 0
M  V30 4075 H 379.397 -4.18122 -4.91777 0
M  V30 4076 H 380.165 -6.21694 -5.32389 0
M  V30 4077 N 382.828 1.3818 -0.7579 0
M  V30 4078 C 384.074 2.00316 -0.316453 0
M  V30 4079 C 384.407 1.60026 1.10025 0
M  V30 4080 O 383.682 0.839835 1.75434 0
M  V30 4081 C 383.965 3.57349 -0.444245 0
M  V30 4082 C 383.818 4.07591 -1.90236 0
M  V30 4083 C 385.137 4.3981 0.1598 0
M  V30 4084 H 382.256 0.727741 -0.116459 0
M  V30 4085 H 384.898 1.6406 -0.958352 0
M  V30 4086 H 383.048 3.88365 0.102233 0
M  V30 4087 H 384.72 3.87199 -2.50748 0
M  V30 4088 H 382.963 3.60297 -2.41595 0
M  V30 4089 H 383.634 5.16677 -1.94291 0
M  V30 4090 H 386.11 4.14971 -0.306314 0
M  V30 4091 H 384.986 5.48885 0.0401675 0
M  V30 4092 H 385.247 4.24102 1.24859 0
M  V30 4093 N 384.306 0.507319 1.49211 0
M  V30 4094 C 385.253 -0.267728 2.29242 0
M  V30 4095 C 386.223 -0.954609 1.35928 0
M  V30 4096 O 387.408 -0.960046 1.64887 0
M  V30 4097 C 384.548 -1.32243 3.18756 0
M  V30 4098 C 383.661 -0.64669 4.27132 0
M  V30 4099 C 382.796 -1.68238 5.03855 0
M  V30 4100 C 381.835 -0.98885 6.0406 0
M  V30 4101 N 380.972 -1.96903 6.73924 0
M  V30 4102 H 385.812 0.420968 2.95012 0
M  V30 4103 H 383.349 0.219443 1.45454 0
M  V30 4104 H 385.307 -1.94599 3.69036 0
M  V30 4105 H 383.937 -1.97981 2.54958 0
M  V30 4106 H 382.989 0.0902926 3.80293 0
M  V30 4107 H 384.301 -0.101058 4.98698 0
M  V30 4108 H 383.455 -2.38081 5.58034 0
M  V30 4109 H 382.194 -2.26187 4.32077 0
M  V30 4110 H 381.199 -0.276222 5.49106 0
M  V30 4111 H 382.424 -0.415767 6.77826 0
M  V30 4112 H 380.37 -2.53803 6.04913 0
M  V30 4113 H 380.287 -1.47423 7.41487 0
M  V30 4114 H 381.555 -2.66015 7.32705 0
M  V30 4115 N 385.784 -1.5574 0.241426 0
M  V30 4116 C 387.061 -1.90704 -0.434881 0
M  V30 4117 C 387.441 -1.16145 -1.76277 0
M  V30 4118 O 386.789 -0.277152 -2.26813 0
M  V30 4119 C 386.999 -3.43657 -0.608343 0
M  V30 4120 C 388.347 -4.14806 -0.906725 0
M  V30 4121 O 389.371 -3.49366 -0.694408 0
M  V30 4122 O 388.23 -5.30548 -1.31075 0
M  V30 4123 H 385.324 -0.793592 -0.23268 0
M  V30 4124 H 387.87 -1.67288 0.285086 0
M  V30 4125 H 386.642 -3.89927 0.327505 0
M  V30 4126 H 386.265 -3.72918 -1.37906 0
M  V30 4127 N 387.262 0.0317525 -1.57568 0
M  V30 4128 C 388.192 1.03274 -2.0942 0
M  V30 4129 C 389.173 1.3788 -0.996143 0
M  V30 4130 O 390.358 1.46811 -1.27122 0
M  V30 4131 C 387.488 2.33448 -2.57137 0
M  V30 4132 C 386.442 2.13091 -3.71182 0
M  V30 4133 C 385.768 3.49001 -4.05095 0
M  V30 4134 C 387.068 1.51928 -4.99715 0
M  V30 4135 H 388.762 0.60112 -2.93303 0
M  V30 4136 H 386.308 0.287705 -1.41097 0
M  V30 4137 H 388.261 3.03802 -2.92032 0
M  V30 4138 H 386.985 2.78665 -1.70333 0
M  V30 4139 H 385.644 1.45171 -3.36632 0
M  V30 4140 H 385.292 3.91862 -3.15362 0
M  V30 4141 H 384.992 3.36207 -4.81911 0
M  V30 4142 H 386.516 4.20721 -4.42522 0
M  V30 4143 H 387.93 2.12196 -5.32584 0
M  V30 4144 H 386.327 1.49716 -5.81124 0
M  V30 4145 H 387.397 0.484811 -4.8247 0
M  V30 4146 N 388.74 1.54641 0.303973 0
M  V30 4147 C 389.965 1.78092 1.06292 0
M  V30 4148 C 390.39 0.537342 1.80262 0
M  V30 4149 O 389.748 -0.511993 1.7392 0
M  V30 4150 C 389.796 2.98612 2.02147 0
M  V30 4151 O 388.9 2.71528 3.10397 0
M  V30 4152 H 388.241 0.589548 0.305497 0
M  V30 4153 H 390.771 2.01716 0.3423 0
M  V30 4154 H 390.781 3.265 2.44667 0
M  V30 4155 H 389.456 3.88785 1.47714 0
M  V30 4156 H 388.033 2.54648 2.72413 0
M  V30 4157 N 390.218 -0.567019 1.47046 0
M  V30 4158 C 391.15 -1.68985 1.54844 0
M  V30 4159 C 392.163 -1.56869 0.435431 0
M  V30 4160 O 393.352 -1.64006 0.70457 0
M  V30 4161 C 390.452 -3.07373 1.42742 0
M  V30 4162 C 389.625 -3.45339 2.6844 0
M  V30 4163 C 388.684 -4.62849 2.50314 0
M  V30 4164 O 387.71 -4.67922 3.24095 0
M  V30 4165 N 388.912 -5.58726 1.57499 0
M  V30 4166 H 391.677 -1.62745 2.51663 0
M  V30 4167 H 389.238 -0.753411 1.43302 0
M  V30 4168 H 391.23 -3.83803 1.28365 0
M  V30 4169 H 389.8 -3.07893 0.540445 0
M  V30 4170 H 389.02 -2.58455 2.97648 0
M  V30 4171 H 390.308 -3.67476 3.51907 0
M  V30 4172 H 389.706 -5.57376 0.966876 0
M  V30 4173 H 388.263 -6.34523 1.49078 0
M  V30 4174 N 391.696 -1.35014 -0.812953 0
M  V30 4175 C 392.606 -1.2951 -1.95613 0
M  V30 4176 C 393.622 -0.20107 -1.72834 0
M  V30 4177 O 394.798 -0.42932 -1.96771 0
M  V30 4178 C 391.863 -1.06033 -3.30088 0
M  V30 4179 C 390.924 -2.24688 -3.65805 0
M  V30 4180 C 390.157 -2.02322 -4.93864 0
M  V30 4181 O 390.38 -0.986464 -5.61805 0
M  V30 4182 O 389.314 -2.89525 -5.27692 0
M  V30 4183 H 393.14 -2.25705 -2.03202 0
M  V30 4184 H 390.725 -1.15321 -0.949811 0
M  V30 4185 H 392.607 -0.94763 -4.10607 0
M  V30 4186 H 391.282 -0.128852 -3.23443 0
M  V30 4187 H 390.189 -2.41521 -2.85689 0
M  V30 4188 H 391.522 -3.16261 -3.77147 0
M  V30 4189 N 393.175 1.03435 -1.18907 0
M  V30 4190 C 394.123 2.13703 -0.918353 0
M  V30 4191 C 395.117 1.68947 0.123767 0
M  V30 4192 O 396.323 1.79983 -0.0249701 0
M  V30 4193 H 392.698 0.698112 -0.279542 0
M  V30 4194 H 394.669 2.33731 -1.85506 0
M  V30 4195 C 393.418 3.44542 -0.467532 0
M  V30 4196 H 392.741 3.79394 -1.26095 0
M  V30 4197 H 394.181 4.22812 -0.317164 0
M  V30 4198 C 392.64 3.26829 0.817588 0
M  V30 4199 O 393.17 3.54975 1.88031 0
M  V30 4200 N 391.376 2.80139 0.772677 0
M  V30 4201 H 390.923 2.57434 -0.0923883 0
M  V30 4202 H 390.881 2.68668 1.63294 0
M  V30 4203 N 394.653 0.992116 1.22453 0
M  V30 4204 C 395.616 0.546883 2.2258 0
M  V30 4205 C 396.616 -0.369829 1.56489 0
M  V30 4206 O 397.806 -0.161896 1.73446 0
M  V30 4207 C 394.938 -0.204659 3.40285 0
M  V30 4208 H 396.131 1.43234 2.63484 0
M  V30 4209 H 393.684 0.779239 1.3549 0
M  V30 4210 H 394.419 -1.10614 3.04853 0
M  V30 4211 H 394.204 0.45354 3.89468 0
M  V30 4212 H 395.694 -0.504358 4.14543 0
M  V30 4213 N 396.131 -1.37776 0.765217 0
M  V30 4214 C 397.542 -1.82521 0.392819 0
M  V30 4215 C 397.893 -1.63789 -1.08017 0
M  V30 4216 O 397.018 -1.14542 -1.83601 0
M  V30 4217 C 397.613 -3.31358 0.706214 0
M  V30 4218 C 396.172 -3.74406 0.386952 0
M  V30 4219 C 395.319 -2.60394 0.953422 0
M  V30 4220 H 398.27 -1.2634 0.960412 0
M  V30 4221 H 398.291 -3.80498 -0.0114706 0
M  V30 4222 H 397.803 -3.44959 1.77833 0
M  V30 4223 H 395.904 -3.66377 -0.678112 0
M  V30 4224 H 396.017 -4.70749 0.890636 0
M  V30 4225 H 394.381 -2.51878 0.378064 0
M  V30 4226 H 395.164 -2.76791 2.03081 0
M  V30 4227 N 397.609 -0.515225 -1.4894 0
M  V30 4228 C 398.539 0.244628 -2.32215 0
M  V30 4229 C 399.52 0.949136 -1.41157 0
M  V30 4230 O 400.705 0.937783 -1.70057 0
M  V30 4231 C 397.835 1.30096 -3.22013 0
M  V30 4232 C 396.789 0.715486 -4.21977 0
M  V30 4233 C 396.115 1.87339 -5.00808 0
M  V30 4234 C 397.415 -0.302982 -5.2142 0
M  V30 4235 H 399.109 -0.450501 -2.95991 0
M  V30 4236 H 396.655 -0.218098 -1.42339 0
M  V30 4237 H 398.608 1.84037 -3.79089 0
M  V30 4238 H 397.332 2.02547 -2.56207 0
M  V30 4239 H 395.991 0.197715 -3.66066 0
M  V30 4240 H 395.639 2.58592 -4.31438 0
M  V30 4241 H 395.339 1.48764 -5.68457 0
M  V30 4242 H 396.863 2.41686 -5.60732 0
M  V30 4243 H 398.277 0.148802 -5.73107 0
M  V30 4244 H 396.674 -0.60532 -5.97039 0
M  V30 4245 H 397.744 -1.21395 -4.69459 0
M  V30 4246 N 399.087 1.5561 -0.249682 0
M  V30 4247 C 400.017 2.24477 0.642826 0
M  V30 4248 C 400.998 1.22601 1.17911 0
M  V30 4249 O 402.183 1.5126 1.21795 0
M  V30 4250 C 399.313 2.94638 1.83863 0
M  V30 4251 C 398.267 4.03227 1.435 0
M  V30 4252 C 397.593 4.60828 2.71186 0
M  V30 4253 C 398.893 5.18796 0.604002 0
M  V30 4254 H 400.587 2.99321 0.0685625 0
M  V30 4255 H 398.133 1.43965 0.0315363 0
M  V30 4256 H 400.086 3.41517 2.46868 0
M  V30 4257 H 398.81 2.17287 2.43832 0
M  V30 4258 H 397.469 3.57121 0.828275 0
M  V30 4259 H 397.117 3.80174 3.29358 0
M  V30 4260 H 396.817 5.34132 2.44901 0
M  V30 4261 H 398.341 5.10442 3.35084 0
M  V30 4262 H 399.755 5.61883 1.13842 0
M  V30 4263 H 398.152 5.98506 0.437097 0
M  V30 4264 H 399.222 4.83384 -0.383147 0
M  V30 4265 N 400.565 -0.0233959 1.57583 0
M  V30 4266 C 401.793 -0.724682 1.93794 0
M  V30 4267 C 402.208 -1.68588 0.849912 0
M  V30 4268 O 401.565 -1.81676 -0.173204 0
M  V30 4269 C 401.616 -1.47684 3.29957 0
M  V30 4270 O 401.337 -0.554222 4.3458 0
M  V30 4271 C 402.838 -2.27477 3.80485 0
M  V30 4272 H 400.058 -0.203317 0.639455 0
M  V30 4273 H 402.602 0.0207653 2.04489 0
M  V30 4274 H 400.757 -2.17412 3.20641 0
M  V30 4275 H 401.171 -1.08232 5.13212 0
M  V30 4276 H 402.645 -2.7564 4.78254 0
M  V30 4277 H 403.122 -3.09144 3.11972 0
M  V30 4278 H 403.728 -1.62813 3.92902 0
M  V30 4279 N 402.043 -1.548 -0.295768 0
M  V30 4280 C 403.289 -1.74588 -1.03184 0
M  V30 4281 C 403.622 -0.532962 -1.86744 0
M  V30 4282 O 402.897 0.469872 -1.88739 0
M  V30 4283 C 403.18 -3.03791 -1.93347 0
M  V30 4284 C 403.033 -4.35392 -1.12933 0
M  V30 4285 C 404.352 -3.28892 -2.92435 0
M  V30 4286 H 401.471 -0.635221 -0.373715 0
M  V30 4287 H 404.113 -1.87519 -0.30606 0
M  V30 4288 H 402.263 -2.92898 -2.55232 0
M  V30 4289 H 403.935 -4.58211 -0.532943 0
M  V30 4290 H 402.178 -4.31642 -0.432168 0
M  V30 4291 H 402.849 -5.22074 -1.79284 0
M  V30 4292 H 405.325 -3.39429 -2.4068 0
M  V30 4293 H 404.201 -4.20603 -3.52682 0
M  V30 4294 H 404.462 -2.47437 -3.6637 0
M  V30 4295 N 403.521 0.559213 -1.47345 0
M  V30 4296 C 404.453 1.68161 -1.55738 0
M  V30 4297 C 405.466 1.56636 -0.443744 0
M  V30 4298 O 406.655 1.6363 -0.713258 0
M  V30 4299 C 403.755 3.06611 -1.4437 0
M  V30 4300 C 402.928 3.4391 -2.70268 0
M  V30 4301 C 401.987 4.61515 -2.52765 0
M  V30 4302 O 401.013 4.66197 -3.26572 0
M  V30 4303 N 402.215 5.57883 -1.6046 0
M  V30 4304 H 404.98 1.61408 -2.52522 0
M  V30 4305 H 402.541 0.7458 -1.43699 0
M  V30 4306 H 404.533 3.83117 -1.30398 0
M  V30 4307 H 403.103 3.07602 -0.556766 0
M  V30 4308 H 402.323 2.56873 -2.99015 0
M  V30 4309 H 403.611 3.65605 -3.53851 0
M  V30 4310 H 403.009 5.56855 -0.996422 0
M  V30 4311 H 401.566 6.33723 -1.52441 0
M  V30 4312 N 404.999 1.35443 0.805782 0
M  V30 4313 C 406.247 1.28507 1.55982 0
M  V30 4314 C 406.568 -0.140046 1.94496 0
M  V30 4315 O 405.838 -1.07666 1.63661 0
M  V30 4316 H 404.418 0.472676 0.578434 0
M  V30 4317 H 407.08 1.69555 0.961098 0
M  V30 4318 H 406.176 1.90148 2.47488 0
M  V30 4319 N 406.477 -1.02803 1.19454 0
M  V30 4320 C 407.754 -1.73299 0.907013 0
M  V30 4321 C 408.134 -2.02772 -0.587086 0
M  V30 4322 O 407.482 -1.68304 -1.54551 0
M  V30 4323 C 407.692 -3.00912 1.76785 0
M  V30 4324 C 409.04 -3.74403 2.00268 0
M  V30 4325 O 410.064 -3.10841 1.73943 0
M  V30 4326 O 408.923 -4.88675 2.4466 0
M  V30 4327 H 406.017 -0.754727 0.338106 0
M  V30 4328 H 408.563 -1.08754 1.30271 0
M  V30 4329 H 407.335 -2.75366 2.7801 0
M  V30 4330 H 406.958 -3.73197 1.37149 0
M  V30 4331 N 407.956 -0.998596 -1.21925 0
M  V30 4332 C 408.886 -0.573688 -2.26343 0
M  V30 4333 C 409.867 0.402296 -1.65274 0
M  V30 4334 O 411.052 0.291683 -1.91997 0
M  V30 4335 C 408.182 0.106839 -3.47136 0
M  V30 4336 C 407.136 -0.788269 -4.20678 0
M  V30 4337 C 406.462 0.0254927 -5.34694 0
M  V30 4338 C 407.762 -2.08784 -4.78755 0
M  V30 4339 H 409.456 -1.44651 -2.62138 0
M  V30 4340 H 407.002 -0.696975 -1.26009 0
M  V30 4341 H 408.955 0.415531 -4.19346 0
M  V30 4342 H 407.679 1.01424 -3.10452 0
M  V30 4343 H 406.338 -1.08069 -3.50309 0
M  V30 4344 H 405.986 0.933989 -4.94253 0
M  V30 4345 H 405.686 -0.570437 -5.84825 0
M  V30 4346 H 407.21 0.328147 -6.09718 0
M  V30 4347 H 408.624 -1.84272 -5.42878 0
M  V30 4348 H 407.021 -2.63307 -5.39249 0
M  V30 4349 H 408.091 -2.76284 -3.98491 0
M  V30 4350 N 409.434 1.37368 -0.772513 0
M  V30 4351 C 410.711 1.93839 -0.26188 0
M  V30 4352 C 411.091 1.7061 1.24319 0
M  V30 4353 O 410.439 1.05534 2.02669 0
M  V30 4354 C 410.649 3.43154 -0.636102 0
M  V30 4355 C 411.997 4.20249 -0.606324 0
M  V30 4356 O 413.021 3.5152 -0.575538 0
M  V30 4357 O 411.88 5.42809 -0.634086 0
M  V30 4358 H 408.974 0.82478 -0.0605555 0
M  V30 4359 H 411.52 1.4665 -0.853917 0
M  V30 4360 H 410.292 3.53647 -1.6748 0
M  V30 4361 H 409.915 3.97596 -0.0170516 0
M  V30 4362 N 410.912 0.523116 1.48665 0
M  V30 4363 C 411.875 -0.232592 2.28017 0
M  V30 4364 C 412.875 -0.874021 1.34972 0
M  V30 4365 O 414.065 -0.735132 1.57929 0
M  V30 4366 C 411.197 -1.33586 3.13636 0
M  V30 4367 H 412.39 0.464008 2.96289 0
M  V30 4368 H 409.943 0.278816 1.53793 0
M  V30 4369 H 410.678 -2.06593 2.4998 0
M  V30 4370 H 410.463 -0.881125 3.82071 0
M  V30 4371 H 411.953 -1.86759 3.73511 0
M  V30 4372 N 412.39 -1.55475 0.257931 0
M  V30 4373 C 413.667 -1.91155 -0.414629 0
M  V30 4374 C 414.047 -1.18008 -1.75035 0
M  V30 4375 O 413.395 -0.301193 -2.26506 0
M  V30 4376 C 413.605 -3.44283 -0.571859 0
M  V30 4377 C 414.953 -4.15744 -0.862678 0
M  V30 4378 O 415.977 -3.50083 -0.657314 0
M  V30 4379 O 414.836 -5.31909 -1.2544 0
M  V30 4380 H 411.93 -0.796016 -0.22425 0
M  V30 4381 H 414.476 -1.66976 0.302814 0
M  V30 4382 H 413.248 -3.89558 0.368844 0
M  V30 4383 H 412.871 -3.7436 -1.33943 0
M  V30 4384 N 413.868 0.0150385 -1.57593 0
M  V30 4385 C 415.114 0.704043 -1.90187 0
M  V30 4386 C 415.447 1.74249 -0.857366 0
M  V30 4387 O 414.722 1.94092 0.125843 0
M  V30 4388 C 415.005 1.36087 -3.33395 0
M  V30 4389 C 414.858 0.334981 -4.48551 0
M  V30 4390 C 416.177 2.29112 -3.7576 0
M  V30 4391 H 413.296 0.254475 -0.691673 0
M  V30 4392 H 415.938 -0.0331678 -1.89971 0
M  V30 4393 H 414.088 1.98922 -3.3371 0
M  V30 4394 H 415.76 -0.292534 -4.60372 0
M  V30 4395 H 414.003 -0.344325 -4.32431 0
M  V30 4396 H 414.674 0.833316 -5.45674 0
M  V30 4397 H 417.15 1.76308 -3.76902 0
M  V30 4398 H 416.026 2.72043 -4.76743 0
M  V30 4399 H 416.287 3.16385 -3.08793 0
M  V30 4400 N 415.346 1.54954 0.287554 0
M  V30 4401 C 416.571 1.79209 1.04397 0
M  V30 4402 C 416.996 0.556431 1.79682 0
M  V30 4403 O 416.354 -0.493518 1.74454 0
M  V30 4404 C 416.402 3.00739 1.98969 0
M  V30 4405 O 415.506 2.74805 3.075 0
M  V30 4406 H 414.847 0.592755 0.299227 0
M  V30 4407 H 417.377 2.02068 0.320886 0
M  V30 4408 H 417.387 3.29077 2.4119 0
M  V30 4409 H 416.062 3.90329 1.43582 0
M  V30 4410 H 414.639 2.57523 2.69697 0
M  V30 4411 N 416.824 -0.551391 1.4764 0
M  V30 4412 C 417.754 -1.66757 1.63445 0
M  V30 4413 C 418.735 -1.63077 0.483742 0
M  V30 4414 O 419.92 -1.80607 0.71377 0
M  V30 4415 C 417.05 -3.05387 1.65396 0
M  V30 4416 C 416.004 -3.23918 2.79752 0
M  V30 4417 C 415.33 -4.63393 2.66779 0
M  V30 4418 C 416.63 -3.08735 4.21284 0
M  V30 4419 H 418.324 -1.53786 2.56886 0
M  V30 4420 H 415.87 -0.738415 1.23626 0
M  V30 4421 H 417.823 -3.83325 1.75043 0
M  V30 4422 H 416.547 -3.19332 0.685195 0
M  V30 4423 H 415.206 -2.48391 2.69625 0
M  V30 4424 H 414.854 -4.74144 1.67918 0
M  V30 4425 H 414.554 -4.7674 3.43501 0
M  V30 4426 H 416.078 -5.43458 2.78364 0
M  V30 4427 H 417.492 -3.76484 4.32357 0
M  V30 4428 H 415.889 -3.33588 4.98838 0
M  V30 4429 H 416.959 -2.0541 4.39243 0
M  V30 4430 N 418.302 -1.35869 -0.798587 0
M  V30 4431 C 419.548 -1.2978 -1.55836 0
M  V30 4432 C 419.881 0.125322 -1.93795 0
M  V30 4433 O 419.156 1.07658 -1.61987 0
M  V30 4434 C 419.439 -2.21188 -2.84162 0
M  V30 4435 C 419.292 -3.72155 -2.52628 0
M  V30 4436 C 420.611 -2.11545 -3.85923 0
M  V30 4437 H 417.73 -0.472769 -0.565383 0
M  V30 4438 H 420.372 -1.66341 -0.918192 0
M  V30 4439 H 418.522 -1.90139 -3.38791 0
M  V30 4440 H 420.194 -4.13682 -2.04121 0
M  V30 4441 H 418.437 -3.92042 -1.85704 0
M  V30 4442 H 419.108 -4.31511 -3.44242 0
M  V30 4443 H 421.584 -2.38855 -3.40716 0
M  V30 4444 H 420.46 -2.77688 -4.73477 0
M  V30 4445 H 420.721 -1.09987 -4.282 0
M  V30 4446 N 419.78 1.02168 -1.19998 0
M  V30 4447 C 421.057 1.72816 -0.916191 0
M  V30 4448 C 421.437 2.03081 0.576325 0
M  V30 4449 O 420.785 1.69122 1.53656 0
M  V30 4450 C 420.995 2.9997 -1.78378 0
M  V30 4451 C 422.343 3.73336 -2.02251 0
M  V30 4452 O 423.367 3.09914 -1.75589 0
M  V30 4453 O 422.226 4.87371 -2.47249 0
M  V30 4454 H 419.32 0.752924 -0.342103 0
M  V30 4455 H 421.866 1.08062 -1.30846 0
M  V30 4456 H 420.638 2.73888 -2.79466 0
M  V30 4457 H 420.261 3.72464 -1.39126 0
M  V30 4458 N 421.258 1.00505 1.21394 0
M  V30 4459 C 422.206 0.558623 2.25792 0
M  V30 4460 C 423.2 -0.396848 1.64686 0
M  V30 4461 O 424.406 -0.268035 1.77993 0
M  V30 4462 H 420.781 0.1623 0.734277 0
M  V30 4463 H 422.752 1.4503 2.60785 0
M  V30 4464 C 421.501 -0.0989574 3.47559 0
M  V30 4465 H 420.824 0.627225 3.94849 0
M  V30 4466 H 422.264 -0.3746 4.22342 0
M  V30 4467 C 420.723 -1.33817 3.09184 0
M  V30 4468 O 421.253 -2.43252 3.19674 0
M  V30 4469 N 419.459 -1.21793 2.63846 0
M  V30 4470 H 419.006 -0.32746 2.5551 0
M  V30 4471 H 418.964 -2.04809 2.38539 0
M  V30 4472 N 422.737 -1.36956 0.779787 0
M  V30 4473 C 423.684 -2.30175 0.169697 0
M  V30 4474 C 424.654 -1.51501 -0.68094 0
M  V30 4475 O 425.839 -1.80042 -0.631629 0
M  V30 4476 C 422.979 -3.37985 -0.697131 0
M  V30 4477 C 422.092 -4.31661 0.170992 0
M  V30 4478 C 421.227 -5.2655 -0.701298 0
M  V30 4479 C 420.266 -6.11867 0.168869 0
M  V30 4480 N 419.403 -6.98973 -0.661855 0
M  V30 4481 H 424.243 -2.81767 0.970135 0
M  V30 4482 H 421.78 -1.38699 0.489994 0
M  V30 4483 H 423.738 -3.99128 -1.2146 0
M  V30 4484 H 422.368 -2.87739 -1.46309 0
M  V30 4485 H 421.42 -3.71756 0.80634 0
M  V30 4486 H 422.732 -4.91644 0.841875 0
M  V30 4487 H 421.886 -5.92937 -1.28494 0
M  V30 4488 H 420.625 -4.66998 -1.40584 0
M  V30 4489 H 419.63 -5.44452 0.764986 0
M  V30 4490 H 420.855 -6.73493 0.870863 0
M  V30 4491 H 418.801 -6.41941 -1.35086 0
M  V30 4492 H 418.718 -7.55984 -0.0484447 0
M  V30 4493 H 419.986 -7.6974 -1.22963 0
M  V30 4494 N 424.215 -0.530993 -1.48385 0
M  V30 4495 C 425.463 0.00273189 -2.021 0
M  V30 4496 C 425.784 1.34672 -1.41027 0
M  V30 4497 O 425.054 1.8724 -0.576012 0
M  V30 4498 H 423.634 0.00399774 -0.746989 0
M  V30 4499 H 426.296 -0.695054 -1.82085 0
M  V30 4500 H 425.392 0.11031 -3.11905 0
M  V30 4501 N 425.693 1.55336 -0.266172 0
M  V30 4502 C 426.918 2.04258 0.359661 0
M  V30 4503 C 427.343 1.14359 1.49344 0
M  V30 4504 O 426.701 0.140369 1.80756 0
M  V30 4505 C 426.749 3.50997 0.826635 0
M  V30 4506 O 425.853 3.64204 1.93466 0
M  V30 4507 H 425.194 0.659668 0.075727 0
M  V30 4508 H 427.724 2.00694 -0.39786 0
M  V30 4509 H 427.734 3.9219 1.12477 0
M  V30 4510 H 426.409 4.159 -0.00293032 0
M  V30 4511 H 424.986 3.34913 1.63974 0
M  V30 4512 N 427.171 -0.0066808 1.57599 0
M  V30 4513 C 428.399 -0.704087 1.94551 0
M  V30 4514 C 428.814 -1.67677 0.867746 0
M  V30 4515 O 428.171 -1.8185 -0.153925 0
M  V30 4516 C 428.222 -1.44177 3.31505 0
M  V30 4517 O 427.943 -0.508097 4.35144 0
M  V30 4518 C 429.444 -2.23429 3.82876 0
M  V30 4519 H 426.664 -0.196523 0.641576 0
M  V30 4520 H 429.208 0.042453 2.04456 0
M  V30 4521 H 427.363 -2.13999 3.22929 0
M  V30 4522 H 427.777 -1.02782 5.14331 0
M  V30 4523 H 429.251 -2.70552 4.8115 0
M  V30 4524 H 429.728 -3.05818 3.15233 0
M  V30 4525 H 430.334 -1.58636 3.94607 0
M  V30 4526 N 428.649 -1.55105 -0.279332 0
M  V30 4527 C 429.579 -1.90557 -1.34945 0
M  V30 4528 C 430.56 -0.766738 -1.51839 0
M  V30 4529 O 431.745 -1.02434 -1.64988 0
M  V30 4530 C 428.875 -2.17193 -2.71006 0
M  V30 4531 C 427.829 -3.33021 -2.68851 0
M  V30 4532 C 427.155 -3.45123 -4.08405 0
M  V30 4533 C 428.455 -4.69578 -2.28678 0
M  V30 4534 H 430.149 -2.80188 -1.05522 0
M  V30 4535 H 427.695 -1.34811 -0.506173 0
M  V30 4536 H 429.648 -2.40581 -3.45975 0
M  V30 4537 H 428.372 -1.24355 -3.01999 0
M  V30 4538 H 427.031 -3.0959 -1.9634 0
M  V30 4539 H 426.679 -2.49762 -4.3661 0
M  V30 4540 H 426.379 -4.22995 -4.07859 0
M  V30 4541 H 427.903 -3.70796 -4.85121 0
M  V30 4542 H 429.317 -4.92553 -2.93368 0
M  V30 4543 H 427.714 -5.5032 -2.39306 0
M  V30 4544 H 428.784 -4.68828 -1.23807 0
M  V30 4545 N 430.127 0.543554 -1.4793 0
M  V30 4546 C 431.357 1.32324 -1.58663 0
M  V30 4547 C 431.765 1.8766 -0.240896 0
M  V30 4548 O 431.108 1.66411 0.778011 0
M  V30 4549 C 431.17 2.52094 -2.56299 0
M  V30 4550 C 430.834 2.17944 -4.01683 0
M  V30 4551 C 431.831 1.74422 -4.89768 0
M  V30 4552 C 429.516 2.28884 -4.47121 0
M  V30 4553 C 431.51 1.42287 -6.21316 0
M  V30 4554 C 429.197 1.96361 -5.78693 0
M  V30 4555 C 430.195 1.53132 -6.65612 0
M  V30 4556 O 429.883 1.21029 -7.94737 0
M  V30 4557 H 429.615 0.409174 -0.538101 0
M  V30 4558 H 432.169 0.663887 -1.94375 0
M  V30 4559 H 430.399 3.20965 -2.15681 0
M  V30 4560 H 432.088 3.14165 -2.57012 0
M  V30 4561 H 432.854 1.65452 -4.55907 0
M  V30 4562 H 428.733 2.61488 -3.79664 0
M  V30 4563 H 432.277 1.08472 -6.89115 0
M  V30 4564 H 428.174 2.04967 -6.12094 0
M  V30 4565 H 428.942 1.34543 -8.07366 0
M  V30 4566 N 431.605 1.3629 0.791371 0
M  V30 4567 C 432.535 1.33137 1.91825 0
M  V30 4568 C 433.516 0.203168 1.68882 0
M  V30 4569 O 434.701 0.400509 1.90025 0
M  V30 4570 C 431.831 1.11793 3.28816 0
M  V30 4571 C 430.785 2.21417 3.66277 0
M  V30 4572 C 430.111 1.85218 5.01596 0
M  V30 4573 C 431.411 3.63489 3.75064 0
M  V30 4574 H 433.105 2.2743 1.9472 0
M  V30 4575 H 430.651 1.09479 0.935437 0
M  V30 4576 H 432.604 1.08222 4.07266 0
M  V30 4577 H 431.328 0.139501 3.26302 0
M  V30 4578 H 429.987 2.2411 2.90121 0
M  V30 4579 H 429.635 0.859544 4.95602 0
M  V30 4580 H 429.335 2.58611 5.27631 0
M  V30 4581 H 430.859 1.832 5.82469 0
M  V30 4582 H 432.273 3.63034 4.43711 0
M  V30 4583 H 430.67 4.35771 4.12582 0
M  V30 4584 H 431.74 3.98536 2.76219 0
M  V30 4585 N 433.083 -1.0153 1.20538 0
M  V30 4586 C 434.013 -2.11972 0.979295 0
M  V30 4587 C 434.994 -1.6985 -0.0921787 0
M  V30 4588 O 436.179 -1.94089 0.0655932 0
M  V30 4589 C 433.309 -3.43201 0.531984 0
M  V30 4590 C 432.263 -3.9907 1.54685 0
M  V30 4591 C 431.589 -5.26082 0.956127 0
M  V30 4592 C 432.889 -4.32313 2.93092 0
M  V30 4593 H 434.583 -2.31143 1.90298 0
M  V30 4594 H 432.129 -1.11079 0.916372 0
M  V30 4595 H 434.082 -4.1985 0.361044 0
M  V30 4596 H 432.806 -3.23792 -0.427327 0
M  V30 4597 H 431.465 -3.2453 1.70517 0
M  V30 4598 H 431.113 -5.02999 -0.0111538 0
M  V30 4599 H 430.813 -5.64426 1.63393 0
M  V30 4600 H 432.337 -6.05386 0.796284 0
M  V30 4601 H 433.751 -4.99845 2.80763 0
M  V30 4602 H 432.148 -4.81774 3.57791 0
M  V30 4603 H 433.218 -3.41025 3.44717 0
M  V30 4604 N 434.561 -1.01147 -1.20859 0
M  V30 4605 C 435.789 -0.716911 -1.94082 0
M  V30 4606 C 436.204 0.721568 -1.74467 0
M  V30 4607 O 435.561 1.48889 -1.05539 0
M  V30 4608 C 435.612 -1.03662 -3.46318 0
M  V30 4609 O 435.333 -2.4186 -3.65288 0
M  V30 4610 C 436.834 -0.762386 -4.36695 0
M  V30 4611 H 434.054 -0.26367 -0.617024 0
M  V30 4612 H 436.598 -1.35127 -1.53496 0
M  V30 4613 H 434.753 -0.447757 -3.84804 0
M  V30 4614 H 435.167 -2.53224 -4.59323 0
M  V30 4615 H 436.641 -1.03621 -5.42187 0
M  V30 4616 H 437.118 0.303514 -4.3815 0
M  V30 4617 H 437.724 -1.33316 -4.03865 0
M  V30 4618 N 436.039 1.36541 -0.78704 0
M  V30 4619 C 436.987 2.31965 -0.171724 0
M  V30 4620 C 437.981 1.55689 0.667631 0
M  V30 4621 O 439.187 1.70969 0.562981 0
M  V30 4622 H 435.562 0.751101 -0.0367545 0
M  V30 4623 H 437.533 2.81428 -0.992017 0
M  V30 4624 C 436.282 3.40968 0.680904 0
M  V30 4625 H 435.605 3.99775 0.0443961 0
M  V30 4626 H 437.045 4.10063 1.07815 0
M  V30 4627 C 435.504 2.82338 1.83813 0
M  V30 4628 O 436.034 2.74311 2.93456 0
M  V30 4629 N 434.24 2.39661 1.6435 0
M  V30 4630 H 433.787 2.46389 0.751668 0
M  V30 4631 H 433.745 2.00779 2.4194 0
M  V30 4632 N 437.518 0.538854 1.48102 0
M  V30 4633 C 438.934 0.19732 1.58376 0
M  V30 4634 C 439.134 -1.29971 1.5398 0
M  V30 4635 O 438.19 -2.07861 1.43352 0
M  V30 4636 C 439.503 0.807716 2.89649 0
M  V30 4637 C 441.051 0.77726 3.03196 0
M  V30 4638 C 441.526 1.36639 4.37143 0
M  V30 4639 N 443.017 1.32875 4.43732 0
M  V30 4640 C 443.752 1.7544 5.45901 0
M  V30 4641 N 443.248 2.25776 6.54979 0
M  V30 4642 N 445.041 1.66623 5.36836 0
M  V30 4643 H 437.192 1.5117 1.49202 0
M  V30 4644 H 439.455 0.629327 0.708979 0
M  V30 4645 H 439.161 1.85909 2.98548 0
M  V30 4646 H 439.035 0.289975 3.76084 0
M  V30 4647 H 441.422 -0.265374 2.93904 0
M  V30 4648 H 441.503 1.33256 2.18349 0
M  V30 4649 H 441.147 2.408 4.47189 0
M  V30 4650 H 441.077 0.786689 5.20691 0
M  V30 4651 H 443.568 0.96037 3.65493 0
M  V30 4652 H 443.881 2.56226 7.29087 0
M  V30 4653 H 442.226 2.29775 6.55918 0
M  V30 4654 H 445.417 1.27089 4.50517 0
M  V30 4655 H 445.59 2.00115 6.16326 0
M  V30 4656 N 438.996 -1.55193 0.274407 0
M  V30 4657 C 440.273 -1.91584 -0.394331 0
M  V30 4658 C 440.653 -1.19858 -1.73774 0
M  V30 4659 O 440.001 -0.3252 -2.26174 0
M  V30 4660 C 440.211 -3.4487 -0.535311 0
M  V30 4661 C 441.559 -4.16636 -0.818534 0
M  V30 4662 O 442.583 -3.5076 -0.620146 0
M  V30 4663 O 441.442 -5.33209 -1.19792 0
M  V30 4664 H 438.536 -0.798349 -0.215794 0
M  V30 4665 H 441.082 -1.66646 0.320507 0
M  V30 4666 H 439.854 -3.89145 0.410141 0
M  V30 4667 H 439.477 -3.75759 -1.29964 0
M  V30 4668 N 440.474 -0.00167713 -1.576 0
M  V30 4669 C 441.437 0.974046 -2.07473 0
M  V30 4670 C 442.437 1.27143 -0.984444 0
M  V30 4671 O 443.627 1.21633 -1.24703 0
M  V30 4672 C 440.759 2.29849 -2.51759 0
M  V30 4673 H 441.952 0.54262 -2.9495 0
M  V30 4674 H 439.505 0.245829 -1.54355 0
M  V30 4675 H 440.24 2.77677 -1.67529 0
M  V30 4676 H 440.025 2.09584 -3.31386 0
M  V30 4677 H 441.515 2.9984 -2.90664 0
M  V30 4678 N 441.952 1.55251 0.271103 0
M  V30 4679 C 443.363 1.66635 0.842007 0
M  V30 4680 C 443.714 0.594631 1.86972 0
M  V30 4681 O 442.839 -0.263532 2.14789 0
M  V30 4682 C 443.434 3.02082 1.53401 0
M  V30 4683 C 441.993 3.15487 2.05293 0
M  V30 4684 C 441.14 2.62438 0.895631 0
M  V30 4685 H 444.091 1.58629 0.0474117 0
M  V30 4686 H 444.112 2.95176 2.40107 0
M  V30 4687 H 443.624 3.80062 0.785786 0
M  V30 4688 H 441.725 2.42284 2.83071 0
M  V30 4689 H 441.838 4.22075 2.26693 0
M  V30 4690 H 440.202 2.19644 1.28953 0
M  V30 4691 H 440.985 3.42923 0.160878 0
M  V30 4692 N 443.43 -0.535701 1.48216 0
M  V30 4693 C 444.378 -1.66179 1.62749 0
M  V30 4694 C 445.372 -1.62034 0.49409 0
M  V30 4695 O 446.578 -1.6696 0.672624 0
M  V30 4696 H 442.953 -0.550244 0.512578 0
M  V30 4697 H 444.924 -1.51063 2.57337 0
M  V30 4698 C 443.673 -3.04471 1.67907 0
M  V30 4699 H 442.996 -3.08351 2.54479 0
M  V30 4700 H 444.436 -3.82894 1.82121 0
M  V30 4701 C 442.895 -3.34314 0.416596 0
M  V30 4702 O 443.425 -3.98905 -0.473014 0
M  V30 4703 N 441.631 -2.89149 0.290038 0
M  V30 4704 H 441.178 -2.36764 1.01493 0
M  V30 4705 H 441.136 -3.09486 -0.55367 0
M  V30 4706 N 444.908 -1.36708 -0.784132 0
M  V30 4707 C 446.324 -1.17237 -1.08294 0
M  V30 4708 C 446.524 -5.93947e-05 -2.015 0
M  V30 4709 O 445.58 0.663686 -2.43622 0
M  V30 4710 C 446.893 -2.48557 -1.69233 0
M  V30 4711 C 448.441 -2.54968 -1.8155 0
M  V30 4712 C 448.916 -3.86388 -2.45904 0
M  V30 4713 N 450.407 -3.87762 -2.53367 0
M  V30 4714 C 451.142 -4.86191 -3.03983 0
M  V30 4715 N 450.638 -5.95015 -3.54866 0
M  V30 4716 N 452.431 -4.73606 -3.02743 0
M  V30 4717 H 444.582 -2.11758 -0.16501 0
M  V30 4718 H 446.845 -0.93822 -0.135822 0
M  V30 4719 H 446.551 -3.34638 -1.08215 0
M  V30 4720 H 446.425 -2.64748 -2.68679 0
M  V30 4721 H 448.812 -1.69302 -2.41704 0
M  V30 4722 H 448.893 -2.42672 -0.80895 0
M  V30 4723 H 448.537 -4.72462 -1.86392 0
M  V30 4724 H 448.467 -3.95982 -3.4714 0
M  V30 4725 H 450.958 -3.09145 -2.17343 0
M  V30 4726 H 451.271 -6.66086 -3.91854 0
M  V30 4727 H 449.616 -5.98676 -3.53003 0
M  V30 4728 H 452.807 -3.87717 -2.62284 0
M  V30 4729 H 452.98 -5.50473 -3.41881 0
M  V30 4730 N 446.386 1.0089 -1.21074 0
M  V30 4731 C 447.802 1.2695 -0.967257 0
M  V30 4732 C 448.002 1.9846 0.348673 0
M  V30 4733 O 447.058 2.28459 1.0753 0
M  V30 4734 C 448.371 2.09697 -2.15517 0
M  V30 4735 C 449.919 2.22937 -2.197 0
M  V30 4736 C 450.394 3.09064 -3.37999 0
M  V30 4737 N 451.885 3.16653 -3.38061 0
M  V30 4738 C 452.62 3.8354 -4.26245 0
M  V30 4739 N 452.116 4.52488 -5.2462 0
M  V30 4740 N 453.909 3.80141 -4.14064 0
M  V30 4741 H 446.06 0.529005 -2.05707 0
M  V30 4742 H 448.323 0.296148 -0.900556 0
M  V30 4743 H 448.029 1.64497 -3.10859 0
M  V30 4744 H 447.903 3.10444 -2.14253 0
M  V30 4745 H 450.29 2.67357 -1.24916 0
M  V30 4746 H 450.371 1.21673 -2.2501 0
M  V30 4747 H 450.015 2.65347 -4.33074 0
M  V30 4748 H 449.945 4.10433 -3.29928 0
M  V30 4749 H 452.436 2.67566 -2.66865 0
M  V30 4750 H 452.749 5.01219 -5.88217 0
M  V30 4751 H 451.094 4.51288 -5.28549 0
M  V30 4752 H 454.285 3.25427 -3.36474 0
M  V30 4753 H 454.458 4.31992 -4.82998 0
M  V30 4754 N 447.864 1.01787 1.20321 0
M  V30 4755 C 448.794 0.609625 2.25401 0
M  V30 4756 C 449.775 -0.375951 1.65893 0
M  V30 4757 O 450.96 -0.261101 1.92437 0
M  V30 4758 C 448.09 -0.0515995 3.47262 0
M  V30 4759 C 447.044 0.855095 4.19371 0
M  V30 4760 C 446.37 0.0595757 5.34667 0
M  V30 4761 C 447.67 2.16374 4.75373 0
M  V30 4762 H 449.364 1.48803 2.59804 0
M  V30 4763 H 446.91 0.716934 1.24884 0
M  V30 4764 H 448.863 -0.348764 4.19954 0
M  V30 4765 H 447.587 -0.964726 3.12027 0
M  V30 4766 H 446.246 1.13628 3.48546 0
M  V30 4767 H 445.894 -0.85524 4.95676 0
M  V30 4768 H 445.594 0.663406 5.83843 0
M  V30 4769 H 447.118 -0.231105 6.10162 0
M  V30 4770 H 448.532 1.92885 5.39878 0
M  V30 4771 H 446.929 2.71853 5.34991 0
M  V30 4772 H 447.999 2.82589 3.94045 0
M  V30 4773 N 449.342 -1.36122 0.79427 0
M  V30 4774 C 450.588 -1.99406 0.369452 0
M  V30 4775 C 450.921 -1.62886 -1.05743 0
M  V30 4776 O 450.196 -0.886053 -1.73145 0
M  V30 4777 C 450.479 -3.56046 0.538833 0
M  V30 4778 C 450.332 -4.02404 2.00976 0
M  V30 4779 C 451.651 -4.40079 -0.0431359 0
M  V30 4780 H 448.77 -0.724397 0.135712 0
M  V30 4781 H 451.412 -1.61461 1.00151 0
M  V30 4782 H 449.562 -3.885 0.000771004 0
M  V30 4783 H 451.234 -3.80415 2.60926 0
M  V30 4784 H 449.477 -3.53765 2.51063 0
M  V30 4785 H 450.148 -5.11344 2.07922 0
M  V30 4786 H 452.624 -4.14013 0.416228 0
M  V30 4787 H 451.5 -5.48799 0.105374 0
M  V30 4788 H 451.761 -4.27264 -1.13571 0
M  V30 4789 N 450.82 -0.546701 -1.47814 0
M  V30 4790 C 452.048 -0.0232857 -2.06887 0
M  V30 4791 C 452.463 1.26571 -1.4009 0
M  V30 4792 O 451.82 1.7569 -0.493906 0
M  V30 4793 C 451.871 0.186975 -3.61016 0
M  V30 4794 O 451.592 -1.05097 -4.25307 0
M  V30 4795 C 453.093 0.748872 -4.36929 0
M  V30 4796 H 450.313 -0.0410763 -0.669742 0
M  V30 4797 H 452.857 -0.757117 -1.89968 0
M  V30 4798 H 451.012 0.870903 -3.77484 0
M  V30 4799 H 451.426 -0.842121 -5.17695 0
M  V30 4800 H 452.9 0.845334 -5.45489 0
M  V30 4801 H 453.377 1.75772 -4.02493 0
M  V30 4802 H 453.983 0.100979 -4.2518 0
M  V30 4803 N 452.299 1.55045 -0.282633 0
M  V30 4804 C 453.545 2.00056 0.332481 0
M  V30 4805 C 453.878 1.1708 1.54939 0
M  V30 4806 O 453.153 0.2427 1.9298 0
M  V30 4807 C 453.436 3.53086 0.70725 0
M  V30 4808 C 453.289 4.46813 -0.517521 0
M  V30 4809 C 454.608 4.12245 1.54084 0
M  V30 4810 H 451.727 0.727268 0.119373 0
M  V30 4811 H 454.369 1.85932 -0.391076 0
M  V30 4812 H 452.519 3.65253 1.32372 0
M  V30 4813 H 454.191 4.46579 -1.15607 0
M  V30 4814 H 452.434 4.18163 -1.1542 0
M  V30 4815 H 453.105 5.51595 -0.211426 0
M  V30 4816 H 455.581 4.03401 1.02013 0
M  V30 4817 H 454.457 5.19515 1.77186 0
M  V30 4818 H 454.718 3.62951 2.52427 0
M  V30 4819 N 453.777 0.010035 1.57597 0
M  V30 4820 C 455.054 -0.710296 1.82248 0
M  V30 4821 C 455.434 -1.91426 0.889911 0
M  V30 4822 O 454.782 -2.28424 -0.0590292 0
M  V30 4823 C 454.992 -1.10655 3.30993 0
M  V30 4824 C 456.34 -1.50621 3.96987 0
M  V30 4825 O 457.364 -1.20007 3.35375 0
M  V30 4826 O 456.223 -2.07587 5.05539 0
M  V30 4827 H 453.317 -0.34673 0.750804 0
M  V30 4828 H 455.863 0.0362578 1.69661 0
M  V30 4829 H 454.635 -0.248826 3.90508 0
M  V30 4830 H 454.258 -1.91189 3.48615 0
M  V30 4831 N 455.255 -1.55392 -0.262866 0
M  V30 4832 C 456.218 -1.88181 -1.30846 0
M  V30 4833 C 457.218 -0.757079 -1.41862 0
M  V30 4834 O 458.408 -1.02519 -1.40838 0
M  V30 4835 C 455.54 -2.09609 -2.68844 0
M  V30 4836 H 456.733 -2.81659 -1.02997 0
M  V30 4837 H 454.286 -1.48039 -0.501414 0
M  V30 4838 H 455.021 -1.18547 -3.01856 0
M  V30 4839 H 454.806 -2.91508 -2.62231 0
M  V30 4840 H 456.296 -2.36215 -3.44372 0
M  V30 4841 N 456.733 0.527833 -1.48498 0
M  V30 4842 C 457.696 1.61439 -1.62696 0
M  V30 4843 C 458.696 1.52824 -0.500136 0
M  V30 4844 O 459.886 1.56456 -0.765976 0
M  V30 4845 C 457.018 3.01063 -1.59918 0
M  V30 4846 H 458.211 1.50189 -2.59583 0
M  V30 4847 H 455.764 0.750055 -1.37127 0
M  V30 4848 H 456.499 3.17818 -0.645163 0
M  V30 4849 H 456.284 3.08725 -2.41726 0
M  V30 4850 H 457.774 3.80057 -1.73051 0
M  V30 4851 N 458.211 1.37122 0.776871 0
M  V30 4852 C 459.159 1.32549 1.91138 0
M  V30 4853 C 460.153 0.215119 1.68029 0
M  V30 4854 O 461.359 0.382852 1.75881 0
M  V30 4855 H 457.734 0.412952 0.62847 0
M  V30 4856 H 459.705 2.28332 1.92112 0
M  V30 4857 C 458.454 1.14422 3.28333 0
M  V30 4858 H 457.777 1.99115 3.46689 0
M  V30 4859 H 459.217 1.15272 4.0803 0
M  V30 4860 C 457.676 -0.150434 3.36564 0
M  V30 4861 O 458.206 -1.13584 3.85307 0
M  V30 4862 N 456.412 -0.19939 2.89915 0
M  V30 4863 H 455.959 0.603142 2.5044 0
M  V30 4864 H 455.917 -1.06526 2.95803 0
M  V30 4865 N 459.689 -1.00246 1.21608 0
M  V30 4866 C 461.1 -1.55511 1.03312 0
M  V30 4867 C 461.451 -1.91946 -0.406332 0
M  V30 4868 O 460.576 -1.73753 -1.28992 0
M  V30 4869 C 461.171 -2.82576 1.86913 0
M  V30 4870 C 459.73 -3.34318 1.72941 0
M  V30 4871 C 458.877 -2.07487 1.83968 0
M  V30 4872 H 461.828 -0.824638 1.35593 0
M  V30 4873 H 461.849 -3.54559 1.38087 0
M  V30 4874 H 461.361 -2.56026 2.91672 0
M  V30 4875 H 459.462 -3.65797 0.70877 0
M  V30 4876 H 459.575 -4.05566 2.55055 0
M  V30 4877 H 457.939 -2.20603 1.27304 0
M  V30 4878 H 458.722 -1.83346 2.9024 0
M  V30 4879 N 461.167 -1.02423 -1.1978 0
M  V30 4880 C 462.415 -0.716569 -1.8897 0
M  V30 4881 C 462.736 0.756769 -1.79716 0
M  V30 4882 O 462.006 1.5449 -1.20456 0
M  V30 4883 H 460.586 -0.262062 -0.699523 0
M  V30 4884 H 463.248 -1.29747 -1.45436 0
M  V30 4885 H 462.344 -1.00675 -2.95417 0
M  V30 4886 N 462.645 1.35699 -0.801477 0
M  V30 4887 C 464.056 1.81415 -0.441073 0
M  V30 4888 C 464.407 1.66595 1.03636 0
M  V30 4889 O 463.532 1.19369 1.80499 0
M  V30 4890 C 464.127 3.29369 -0.793819 0
M  V30 4891 C 462.686 3.73248 -0.486083 0
M  V30 4892 C 461.833 2.57775 -1.02213 0
M  V30 4893 H 464.784 1.23749 -0.993572 0
M  V30 4894 H 464.805 3.80395 -0.0894158 0
M  V30 4895 H 464.317 3.40123 -1.86917 0
M  V30 4896 H 462.418 3.68046 0.580735 0
M  V30 4897 H 462.531 4.68222 -1.01513 0
M  V30 4898 H 460.895 2.50788 -0.444712 0
M  V30 4899 H 461.678 2.71309 -2.10348 0
M  V30 4900 N 464.123 0.554532 1.47522 0
M  V30 4901 C 465.086 -0.184174 2.28459 0
M  V30 4902 C 466.086 -0.845195 1.36796 0
M  V30 4903 O 467.276 -0.701467 1.59452 0
M  V30 4904 C 464.408 -1.26903 3.16399 0
M  V30 4905 H 465.601 0.526751 2.95238 0
M  V30 4906 H 463.154 0.311375 1.53167 0
M  V30 4907 H 463.889 -2.01244 2.54306 0
M  V30 4908 H 463.674 -0.799883 3.83854 0
M  V30 4909 H 465.164 -1.78794 3.77389 0
M  V30 4910 N 465.601 -1.54893 0.290851 0
M  V30 4911 C 466.551 -2.19838 -0.604599 0
M  V30 4912 C 467.535 -1.16805 -1.10659 0
M  V30 4913 O 468.727 -1.42562 -1.04905 0
M  V30 4914 C 465.856 -2.93497 -1.78086 0
M  V30 4915 C 464.942 -4.03835 -1.29531 0
M  V30 4916 N 465.333 -5.03047 -0.527024 0
M  V30 4917 C 463.631 -4.17192 -1.57693 0
M  V30 4918 C 464.332 -5.81074 -0.269728 0
M  V30 4919 N 463.308 -5.36966 -0.846651 0
M  V30 4920 H 467.11 -2.93898 -0.00995032 0
M  V30 4921 H 464.624 -1.62121 0.0951353 0
M  V30 4922 H 466.621 -3.38484 -2.43381 0
M  V30 4923 H 465.281 -2.2095 -2.37931 0
M  V30 4924 H 466.292 -5.17611 -0.172872 0
M  V30 4925 H 462.969 -3.55845 -2.18359 0
M  V30 4926 H 464.359 -6.71005 0.346643 0
M  V30 4927 N 467.08 -0.0183926 -1.57589 0
M  V30 4928 C 468.326 0.657813 -1.92469 0
M  V30 4929 C 468.681 1.70349 -0.894375 0
M  V30 4930 O 467.974 1.91384 0.0910389 0
M  V30 4931 C 468.168 1.32676 -3.31861 0
M  V30 4932 C 467.997 0.347403 -4.48356 0
M  V30 4933 C 466.767 -0.0488653 -5.05276 0
M  V30 4934 C 468.965 -0.393931 -5.12789 0
M  V30 4935 N 466.947 -1.02451 -6.05291 0
M  V30 4936 C 468.318 -1.22367 -6.07804 0
M  V30 4937 C 470.373 -0.455789 -4.95809 0
M  V30 4938 C 469.076 -2.10966 -6.87667 0
M  V30 4939 C 471.102 -1.32908 -5.76272 0
M  V30 4940 C 470.464 -2.14662 -6.70894 0
M  V30 4941 H 466.563 0.21335 -0.752334 0
M  V30 4942 H 469.147 -0.0830547 -1.94523 0
M  V30 4943 H 467.318 2.03782 -3.30647 0
M  V30 4944 H 469.05 1.95913 -3.54119 0
M  V30 4945 H 465.805 0.323356 -4.72495 0
M  V30 4946 H 466.229 -1.50826 -6.59985 0
M  V30 4947 H 470.871 0.162017 -4.22489 0
M  V30 4948 H 468.589 -2.73807 -7.603 0
M  V30 4949 H 472.175 -1.38109 -5.6517 0
M  V30 4950 H 471.055 -2.81143 -7.32071 0
M  V30 4951 N 468.558 1.5553 0.254621 0
M  V30 4952 C 469.974 1.4778 0.602753 0
M  V30 4953 C 470.174 0.707047 1.88688 0
M  V30 4954 O 469.23 0.233288 2.5142 0
M  V30 4955 C 470.543 2.92133 0.712648 0
M  V30 4956 C 472.091 3.02458 0.805488 0
M  V30 4957 C 472.566 4.48102 0.947009 0
M  V30 4958 N 474.057 4.52008 1.01207 0
M  V30 4959 C 474.792 5.61939 1.1407 0
M  V30 4960 N 474.288 6.81697 1.23536 0
M  V30 4961 N 476.081 5.49719 1.17325 0
M  V30 4962 H 468.232 2.04085 -0.588463 0
M  V30 4963 H 470.495 0.926229 -0.202001 0
M  V30 4964 H 470.201 3.51332 -0.160766 0
M  V30 4965 H 470.075 3.42187 1.58707 0
M  V30 4966 H 472.462 2.43344 1.66936 0
M  V30 4967 H 472.543 2.55627 -0.0939266 0
M  V30 4968 H 472.187 5.07824 0.087725 0
M  V30 4969 H 472.117 4.92607 1.86135 0
M  V30 4970 H 474.608 3.65749 0.950577 0
M  V30 4971 H 474.921 7.61228 1.33236 0
M  V30 4972 H 473.266 6.84473 1.20508 0
M  V30 4973 H 476.457 4.55095 1.09573 0
M  V30 4974 H 476.63 6.35432 1.27005 0
M  V30 4975 N 470.036 -0.519951 1.48776 0
M  V30 4976 C 471.313 -1.28123 1.47797 0
M  V30 4977 C 471.693 -2.10196 0.195157 0
M  V30 4978 O 471.041 -2.13167 -0.822925 0
M  V30 4979 C 471.251 -2.15413 2.74587 0
M  V30 4980 C 472.599 -2.75225 3.23321 0
M  V30 4981 O 473.623 -2.25694 2.75574 0
M  V30 4982 O 472.482 -3.65346 4.06429 0
M  V30 4983 H 469.576 -0.578793 0.590701 0
M  V30 4984 H 472.122 -0.535779 1.6102 0
M  V30 4985 H 470.894 -1.54617 3.59457 0
M  V30 4986 H 470.517 -2.97186 2.64132 0
M  V30 4987 N 471.514 -1.37532 -0.769588 0
M  V30 4988 C 472.444 -1.36172 -1.89682 0
M  V30 4989 C 473.425 -0.23001 -1.68538 0
M  V30 4990 O 474.61 -0.43069 -1.89364 0
M  V30 4991 C 471.74 -1.1701 -3.26995 0
M  V30 4992 C 470.694 -2.27216 -3.62708 0
M  V30 4993 C 470.02 -1.93174 -4.98586 0
M  V30 4994 C 471.32 -3.6941 -3.69234 0
M  V30 4995 H 473.014 -2.30499 -1.91078 0
M  V30 4996 H 470.56 -1.10953 -0.917902 0
M  V30 4997 H 472.513 -1.14688 -4.05493 0
M  V30 4998 H 471.237 -0.191395 -3.26039 0
M  V30 4999 H 469.896 -2.28697 -2.86519 0
M  V30 5000 H 469.544 -0.938281 -4.94171 0
M  V30 5001 H 469.244 -2.66973 -5.23449 0
M  V30 5002 H 470.768 -1.92443 -5.79481 0
M  V30 5003 H 472.182 -3.70047 -4.37879 0
M  V30 5004 H 470.579 -4.4228 -4.05597 0
M  V30 5005 H 471.649 -4.0288 -2.69844 0
M  V30 5006 N 472.992 0.995999 -1.22138 0
M  V30 5007 C 474.241 1.72928 -1.03821 0
M  V30 5008 C 474.554 1.90872 0.427444 0
M  V30 5009 O 475.76 2.61496 0.730212 0
M  V30 5010 C 474.216 3.11124 -1.80913 0
M  V30 5011 C 473.824 3.01122 -3.31707 0
M  V30 5012 C 475.568 3.8852 -1.71035 0
M  V30 5013 C 473.475 4.34453 -4.01253 0
M  V30 5014 H 472.405 0.648376 -0.384869 0
M  V30 5015 H 475.056 1.11213 -1.45959 0
M  V30 5016 H 473.438 3.73503 -1.31573 0
M  V30 5017 H 474.612 2.47926 -3.88419 0
M  V30 5018 H 472.927 2.3721 -3.42228 0
M  V30 5019 H 475.524 4.872 -2.20318 0
M  V30 5020 H 475.867 4.1087 -0.670196 0
M  V30 5021 H 476.4 3.32812 -2.17902 0
M  V30 5022 H 473.139 4.17303 -5.05508 0
M  V30 5023 H 472.659 4.87574 -3.49331 0
M  V30 5024 H 474.338 5.03215 -4.06674 0
M  V30 5025 N 474.47 1.03057 1.19235 0
M  V30 5026 C 475.881 0.757449 1.70645 0
M  V30 5027 C 476.232 -0.722735 1.82403 0
M  V30 5028 O 475.357 -1.56325 1.49638 0
M  V30 5029 C 475.952 1.36833 3.09939 0
M  V30 5030 C 474.511 1.14375 3.58602 0
M  V30 5031 C 473.658 1.46533 2.35422 0
M  V30 5032 H 476.609 1.19828 1.04052 0
M  V30 5033 H 476.63 0.766184 3.72706 0
M  V30 5034 H 476.142 2.44562 3.01349 0
M  V30 5035 H 474.243 0.0847542 3.72504 0
M  V30 5036 H 474.356 1.83366 4.42622 0
M  V30 5037 H 472.72 0.884712 2.38841 0
M  V30 5038 H 473.503 2.55349 2.2946 0
M  V30 5039 N 475.948 -1.35272 0.808662 0
M  V30 5040 C 476.858 -2.33546 0.222079 0
M  V30 5041 C 477.874 -1.6196 -0.636011 0
M  V30 5042 O 479.05 -1.93822 -0.547274 0
M  V30 5043 C 476.115 -3.41148 -0.61795 0
M  V30 5044 C 475.176 -4.28507 0.260875 0
M  V30 5045 C 474.409 -5.3097 -0.539156 0
M  V30 5046 O 474.632 -5.42123 -1.77367 0
M  V30 5047 O 473.566 -6.01858 0.0710526 0
M  V30 5048 H 477.392 -2.85515 1.03512 0
M  V30 5049 H 474.977 -1.38079 0.570495 0
M  V30 5050 H 476.859 -4.06889 -1.09634 0
M  V30 5051 H 475.534 -2.91447 -1.40855 0
M  V30 5052 H 474.441 -3.6574 0.786451 0
M  V30 5053 H 475.774 -4.81611 1.01547 0
M  V30 5054 N 477.426 -0.562348 -1.47226 0
M  V30 5055 C 478.842 -0.222492 -1.58042 0
M  V30 5056 C 479.042 1.27505 -1.56028 0
M  V30 5057 O 478.098 2.05555 -1.46641 0
M  V30 5058 C 479.411 -0.853694 -2.88327 0
M  V30 5059 C 480.959 -0.825397 -3.01921 0
M  V30 5060 C 481.434 -1.43576 -4.34914 0
M  V30 5061 N 482.925 -1.39918 -4.41562 0
M  V30 5062 C 483.66 -1.84103 -5.43041 0
M  V30 5063 N 483.156 -2.36167 -6.51304 0
M  V30 5064 N 484.949 -1.75142 -5.34118 0
M  V30 5065 H 477.1 -1.53525 -1.46778 0
M  V30 5066 H 479.363 -0.640527 -0.698877 0
M  V30 5067 H 479.069 -1.90635 -2.95552 0
M  V30 5068 H 478.943 -0.34977 -3.75575 0
M  V30 5069 H 481.33 0.218583 -2.94289 0
M  V30 5070 H 481.411 -1.36713 -2.16202 0
M  V30 5071 H 481.055 -2.47884 -4.43301 0
M  V30 5072 H 480.985 -0.869427 -5.19373 0
M  V30 5073 H 483.476 -1.0184 -3.63919 0
M  V30 5074 H 483.789 -2.67793 -7.24919 0
M  V30 5075 H 482.134 -2.40181 -6.52179 0
M  V30 5076 H 485.325 -1.34241 -4.48439 0
M  V30 5077 H 485.498 -2.09895 -6.13065 0
M  V30 5078 N 478.904 1.54736 -0.299062 0
M  V30 5079 C 479.854 2.20155 0.592932 0
M  V30 5080 C 480.838 1.1739 1.10038 0
M  V30 5081 O 482.03 1.43116 1.04147 0
M  V30 5082 C 479.159 2.94437 1.76527 0
M  V30 5083 C 478.245 4.04516 1.27388 0
M  V30 5084 N 478.636 5.03319 0.500339 0
M  V30 5085 C 476.934 4.18022 1.55478 0
M  V30 5086 C 477.635 5.81209 0.238909 0
M  V30 5087 N 476.611 5.37408 0.818163 0
M  V30 5088 H 480.413 2.93899 -0.00563596 0
M  V30 5089 H 477.927 1.62068 -0.103732 0
M  V30 5090 H 479.924 3.3977 2.41582 0
M  V30 5091 H 478.584 2.22209 2.36756 0
M  V30 5092 H 479.595 5.17696 0.145419 0
M  V30 5093 H 476.272 3.56998 2.16469 0
M  V30 5094 H 477.662 6.70812 -0.382223 0
M  V30 5095 N 480.382 0.0267497 1.57577 0
M  V30 5096 C 481.798 -0.32962 1.56159 0
M  V30 5097 C 481.998 -1.73059 1.03213 0
M  V30 5098 O 481.054 -2.43233 0.677804 0
M  V30 5099 C 482.367 -0.18039 3.00158 0
M  V30 5100 C 483.915 -0.253334 3.11973 0
M  V30 5101 C 484.39 -0.132921 4.57807 0
M  V30 5102 N 485.881 -0.189979 4.6281 0
M  V30 5103 C 486.616 -0.120554 5.73273 0
M  V30 5104 N 486.112 -0.000180315 6.928 0
M  V30 5105 N 487.905 -0.174369 5.61829 0
M  V30 5106 H 480.056 0.942896 1.90324 0
M  V30 5107 H 482.319 0.3639 0.875375 0
M  V30 5108 H 482.025 0.784576 3.42837 0
M  V30 5109 H 481.899 -0.951565 3.65 0
M  V30 5110 H 484.286 -1.20876 2.69208 0
M  V30 5111 H 484.367 0.548177 2.49857 0
M  V30 5112 H 484.011 0.819073 5.01252 0
M  V30 5113 H 483.941 -0.953264 5.179 0
M  V30 5114 H 486.432 -0.283257 3.76837 0
M  V30 5115 H 486.745 0.0461666 7.72786 0
M  V30 5116 H 485.09 0.034569 6.94991 0
M  V30 5117 H 488.281 -0.266794 4.67339 0
M  V30 5118 H 488.454 -0.116802 6.47895 0
M  V30 5119 N 481.861 -1.55662 -0.24637 0
M  V30 5120 C 483.107 -1.77782 -0.975779 0
M  V30 5121 C 483.44 -0.592103 -1.84953 0
M  V30 5122 O 482.715 0.409588 -1.90138 0
M  V30 5123 C 482.998 -3.09788 -1.83584 0
M  V30 5124 C 482.851 -4.38764 -0.990241 0
M  V30 5125 C 484.17 -3.38029 -2.81823 0
M  V30 5126 H 481.289 -0.646789 -0.353317 0
M  V30 5127 H 483.931 -1.88398 -0.246248 0
M  V30 5128 H 482.081 -3.00869 -2.45784 0
M  V30 5129 H 483.753 -4.59675 -0.386897 0
M  V30 5130 H 481.996 -4.32798 -0.294626 0
M  V30 5131 H 482.667 -5.27514 -1.62584 0
M  V30 5132 H 485.143 -3.46915 -2.2976 0
M  V30 5133 H 484.019 -4.3161 -3.39122 0
M  V30 5134 H 484.28 -2.58968 -3.58313 0
M  V30 5135 N 483.339 0.512053 -1.4905 0
M  V30 5136 C 484.269 1.62365 -1.67809 0
M  V30 5137 C 485.25 1.61737 -0.526809 0
M  V30 5138 O 486.435 1.78651 -0.761404 0
M  V30 5139 C 483.565 3.00895 -1.73435 0
M  V30 5140 C 482.519 3.16387 -2.88242 0
M  V30 5141 C 481.845 4.56157 -2.78971 0
M  V30 5142 C 483.145 2.97457 -4.29321 0
M  V30 5143 H 484.839 1.46921 -2.60873 0
M  V30 5144 H 482.385 0.705379 -1.2554 0
M  V30 5145 H 484.338 3.78549 -1.85145 0
M  V30 5146 H 483.062 3.17403 -0.769619 0
M  V30 5147 H 481.721 2.41155 -2.76116 0
M  V30 5148 H 481.369 4.69525 -1.8043 0
M  V30 5149 H 481.069 4.67465 -3.5602 0
M  V30 5150 H 482.593 5.35886 -2.92675 0
M  V30 5151 H 484.007 3.64888 -4.42187 0
M  V30 5152 H 482.404 3.20245 -5.07507 0
M  V30 5153 H 483.474 1.93692 -4.44535 0
M  V30 5154 N 484.817 1.37938 0.762283 0
M  V30 5155 C 486.045 1.36883 1.55147 0
M  V30 5156 C 486.46 -0.0435348 1.8875 0
M  V30 5157 O 485.817 -1.00786 1.52146 0
M  V30 5158 C 485.868 2.21624 2.85596 0
M  V30 5159 O 485.589 3.57358 2.5343 0
M  V30 5160 C 487.09 2.28653 3.7978 0
M  V30 5161 H 484.31 0.468521 0.480343 0
M  V30 5162 H 486.854 1.81404 0.944079 0
M  V30 5163 H 485.009 1.80588 3.42734 0
M  V30 5164 H 485.423 4.01883 3.37032 0
M  V30 5165 H 486.897 2.9225 4.68288 0
M  V30 5166 H 487.374 1.29767 4.19592 0
M  V30 5167 H 487.98 2.70043 3.28568 0
M  V30 5168 N 486.295 -0.989507 1.22664 0
M  V30 5169 C 487.541 -1.7321 1.05481 0
M  V30 5170 C 487.874 -1.89852 -0.408635 0
M  V30 5171 O 487.149 -1.44416 -1.30285 0
M  V30 5172 C 487.432 -3.1357 1.77047 0
M  V30 5173 C 487.285 -3.04555 3.31008 0
M  V30 5174 C 488.604 -4.12812 1.5256 0
M  V30 5175 H 485.723 -0.628697 0.384589 0
M  V30 5176 H 488.365 -1.15258 1.51049 0
M  V30 5177 H 486.515 -3.63046 1.3831 0
M  V30 5178 H 488.187 -2.62674 3.7921 0
M  V30 5179 H 486.43 -2.41278 3.6051 0
M  V30 5180 H 487.101 -4.03894 3.76263 0
M  V30 5181 H 489.577 -3.72106 1.86215 0
M  V30 5182 H 488.453 -5.09132 2.05124 0
M  V30 5183 H 488.714 -4.39711 0.458936 0
M  V30 5184 N 487.773 -1.03688 -1.18687 0
M  V30 5185 C 488.723 -0.595067 -2.20098 0
M  V30 5186 C 489.707 0.360465 -1.5681 0
M  V30 5187 O 490.899 0.180136 -1.76081 0
M  V30 5188 C 488.028 0.0444495 -3.43271 0
M  V30 5189 C 487.114 -0.934002 -4.13687 0
M  V30 5190 N 487.505 -2.09957 -4.60165 0
M  V30 5191 C 485.803 -0.759177 -4.39491 0
M  V30 5192 C 486.504 -2.71735 -5.1433 0
M  V30 5193 N 485.48 -1.99638 -5.05614 0
M  V30 5194 H 489.282 -1.48336 -2.5372 0
M  V30 5195 H 486.796 -0.904949 -1.3485 0
M  V30 5196 H 488.793 0.37864 -4.15177 0
M  V30 5197 H 487.453 0.928325 -3.11147 0
M  V30 5198 H 488.464 -2.47863 -4.54735 0
M  V30 5199 H 485.141 0.0749292 -4.17433 0
M  V30 5200 H 486.531 -3.70492 -5.60523 0
M  V30 5201 N 489.251 1.34841 -0.815825 0
M  V30 5202 C 490.476 2.03261 -0.41226 0
M  V30 5203 C 490.901 1.61055 0.971751 0
M  V30 5204 O 490.259 0.7917 1.63101 0
M  V30 5205 C 490.307 3.56914 -0.514289 0
M  V30 5206 O 489.411 4.09728 0.468675 0
M  V30 5207 H 488.752 0.641664 -0.170771 0
M  V30 5208 H 491.282 1.72241 -1.10427 0
M  V30 5209 H 491.292 4.06156 -0.387457 0
M  V30 5210 H 489.967 3.86982 -1.52375 0
M  V30 5211 H 488.544 3.71681 0.301316 0
M  V30 5212 N 490.729 0.570148 1.46925 0
M  V30 5213 C 491.977 0.0508523 2.02036 0
M  V30 5214 C 492.298 -1.30885 1.44548 0
M  V30 5215 O 491.568 -1.85647 0.625453 0
M  V30 5216 H 490.148 0.0158088 0.746833 0
M  V30 5217 H 492.81 0.743086 1.80178 0
M  V30 5218 H 491.906 -0.027575 3.12088 0
M  V30 5219 N 492.207 -1.54576 0.307264 0
M  V30 5220 C 493.435 -2.04675 -0.302597 0
M  V30 5221 C 493.85 -1.18425 -1.47041 0
M  V30 5222 O 493.207 -0.211257 -1.81273 0
M  V30 5223 C 493.258 -3.53575 -0.752801 0
M  V30 5224 O 492.979 -4.36547 0.368536 0
M  V30 5225 C 494.48 -4.19699 -1.42717 0
M  V30 5226 H 491.7 -0.66786 -0.0648374 0
M  V30 5227 H 494.244 -1.99516 0.448716 0
M  V30 5228 H 492.399 -3.59074 -1.45412 0
M  V30 5229 H 492.813 -5.24497 0.0168937 0
M  V30 5230 H 494.287 -5.25388 -1.69327 0
M  V30 5231 H 494.764 -3.69815 -2.36925 0
M  V30 5232 H 495.37 -4.18293 -0.768856 0
M  V30 5233 N 493.685 -0.035106 -1.57561 0
M  V30 5234 C 494.648 0.929819 -2.09492 0
M  V30 5235 C 495.648 1.25026 -1.01119 0
M  V30 5236 O 496.838 1.18961 -1.27255 0
M  V30 5237 C 493.97 2.24457 -2.56577 0
M  V30 5238 H 495.163 0.479935 -2.96035 0
M  V30 5239 H 492.716 0.213033 -1.54841 0
M  V30 5240 H 493.451 2.74061 -1.73382 0
M  V30 5241 H 493.236 2.02508 -3.35757 0
M  V30 5242 H 494.726 2.93607 -2.96959 0
M  V30 5243 N 495.163 1.55791 0.238111 0
M  V30 5244 C 496.393 1.81834 0.980809 0
M  V30 5245 C 496.801 0.609741 1.79106 0
M  V30 5246 O 496.144 -0.431073 1.78571 0
M  V30 5247 C 496.206 3.01363 1.96011 0
M  V30 5248 C 495.87 4.37037 1.33597 0
M  V30 5249 C 496.867 5.14692 0.734063 0
M  V30 5250 C 494.552 4.83743 1.3527 0
M  V30 5251 C 496.546 6.37206 0.157208 0
M  V30 5252 C 494.233 6.06204 0.77199 0
M  V30 5253 C 495.231 6.82775 0.175282 0
M  V30 5254 O 494.919 8.02922 -0.396432 0
M  V30 5255 H 494.651 0.6088 0.293834 0
M  V30 5256 H 497.205 2.03702 0.263552 0
M  V30 5257 H 495.435 2.75273 2.71591 0
M  V30 5258 H 497.124 3.14422 2.56697 0
M  V30 5259 H 497.89 4.79722 0.713582 0
M  V30 5260 H 493.769 4.24129 1.80653 0
M  V30 5261 H 497.313 6.96915 -0.30917 0
M  V30 5262 H 493.21 6.4065 0.789828 0
M  V30 5263 H 493.978 8.17989 -0.289145 0
M  V30 5264 N 496.642 -0.504142 1.49319 0
M  V30 5265 C 497.572 -1.61473 1.68667 0
M  V30 5266 C 498.553 -1.61455 0.535378 0
M  V30 5267 O 499.738 -1.78245 0.770868 0
M  V30 5268 C 496.868 -2.99971 1.75028 0
M  V30 5269 C 495.822 -3.14854 2.89916 0
M  V30 5270 C 495.148 -4.54671 2.81387 0
M  V30 5271 C 496.448 -2.95176 4.30893 0
M  V30 5272 H 498.142 -1.45535 2.61648 0
M  V30 5273 H 495.688 -0.698711 1.25913 0
M  V30 5274 H 497.641 -3.77562 1.8715 0
M  V30 5275 H 496.365 -3.1699 0.786441 0
M  V30 5276 H 495.024 -2.39687 2.77391 0
M  V30 5277 H 494.672 -4.68562 1.82917 0
M  V30 5278 H 494.372 -4.6557 3.58494 0
M  V30 5279 H 495.896 -5.34327 2.95512 0
M  V30 5280 H 497.31 -3.62538 4.44116 0
M  V30 5281 H 495.707 -3.17549 5.09198 0
M  V30 5282 H 496.777 -1.91332 4.45556 0
M  V30 5283 N 498.12 -1.38341 -0.754957 0
M  V30 5284 C 499.367 -1.34473 -1.51404 0
M  V30 5285 C 499.695 0.0656458 -1.94389 0
M  V30 5286 O 498.95 1.04244 -1.65625 0
M  V30 5287 C 499.249 -2.2452 -2.78075 0
M  V30 5288 C 498.915 -3.72512 -2.54059 0
M  V30 5289 C 497.577 -4.1284 -2.47218 0
M  V30 5290 C 499.929 -4.66197 -2.33044 0
M  V30 5291 C 497.257 -5.44945 -2.17376 0
M  V30 5292 C 499.609 -5.98558 -2.04723 0
M  V30 5293 C 498.273 -6.37972 -1.96337 0
M  V30 5294 H 497.543 -0.492072 -0.554027 0
M  V30 5295 H 500.19 -1.70687 -0.868223 0
M  V30 5296 H 498.495 -1.81357 -3.473 0
M  V30 5297 H 500.192 -2.18832 -3.36026 0
M  V30 5298 H 496.782 -3.40538 -2.60253 0
M  V30 5299 H 500.966 -4.35888 -2.37309 0
M  V30 5300 H 496.222 -5.74426 -2.09391 0
M  V30 5301 H 500.396 -6.70693 -1.87465 0
M  V30 5302 H 498.023 -7.40258 -1.72978 0
M  V30 5303 N 499.598 0.982988 -1.23187 0
M  V30 5304 C 500.561 2.05649 -1.01198 0
M  V30 5305 C 501.561 1.6078 0.0252464 0
M  V30 5306 O 502.751 1.72878 -0.214243 0
M  V30 5307 C 499.883 3.36744 -0.530656 0
M  V30 5308 H 501.076 2.2659 -1.96461 0
M  V30 5309 H 498.629 1.15602 -1.05195 0
M  V30 5310 H 499.364 3.21492 0.425873 0
M  V30 5311 H 499.149 3.7065 -1.2791 0
M  V30 5312 H 500.639 4.15705 -0.397366 0
M  V30 5313 N 501.076 1.04316 1.18135 0
M  V30 5314 C 501.986 0.646876 2.25505 0
M  V30 5315 C 503.002 -0.328008 1.7088 0
M  V30 5316 O 504.178 -0.182309 2.00573 0
M  V30 5317 C 501.243 0.0185664 3.46695 0
M  V30 5318 C 500.304 1.04277 4.16443 0
M  V30 5319 C 499.537 0.444352 5.31847 0
M  V30 5320 O 499.76 -0.748735 5.65465 0
M  V30 5321 O 498.694 1.17428 5.90334 0
M  V30 5322 H 502.52 1.54147 2.61672 0
M  V30 5323 H 500.105 0.814188 1.25265 0
M  V30 5324 H 501.987 -0.331068 4.20097 0
M  V30 5325 H 500.662 -0.849814 3.12346 0
M  V30 5326 H 499.569 1.44425 3.45098 0
M  V30 5327 H 500.902 1.882 4.54798 0
M  V30 5328 N 502.554 -1.34406 0.822964 0
M  V30 5329 C 503.784 -2.02214 0.423424 0
M  V30 5330 C 504.192 -1.62124 -0.975322 0
M  V30 5331 O 503.535 -0.822452 -1.6426 0
M  V30 5332 C 503.597 -3.56721 0.446107 0
M  V30 5333 C 503.261 -4.20136 1.79819 0
M  V30 5334 C 504.258 -4.4065 2.75904 0
M  V30 5335 C 501.943 -4.56906 2.08669 0
M  V30 5336 C 503.937 -4.9706 3.99012 0
M  V30 5337 C 501.624 -5.13026 3.32036 0
M  V30 5338 C 502.622 -5.33047 4.27024 0
M  V30 5339 O 502.31 -5.87979 5.48211 0
M  V30 5340 H 502.042 -0.654748 0.168169 0
M  V30 5341 H 504.596 -1.72659 1.11257 0
M  V30 5342 H 502.826 -3.85537 -0.299734 0
M  V30 5343 H 504.515 -4.05845 0.0666114 0
M  V30 5344 H 505.281 -4.12607 2.54912 0
M  V30 5345 H 501.16 -4.40626 1.35535 0
M  V30 5346 H 504.704 -5.12603 4.73164 0
M  V30 5347 H 500.601 -5.40498 3.52891 0
M  V30 5348 H 501.369 -6.06413 5.49732 0
M  V30 5349 N 504.032 -0.577932 -1.46621 0
M  V30 5350 C 504.965 0.206312 -2.27265 0
M  V30 5351 C 505.943 0.901306 -1.35334 0
M  V30 5352 O 507.127 0.916151 -1.64739 0
M  V30 5353 C 504.254 1.29563 -3.1294 0
M  V30 5354 C 503.3 0.706981 -4.206 0
M  V30 5355 S 504.133 -0.462459 -5.33499 0
M  V30 5356 C 505.289 0.628171 -6.2274 0
M  V30 5357 H 505.522 -0.477961 -2.93433 0
M  V30 5358 H 503.055 -0.364715 -1.50031 0
M  V30 5359 H 505.013 1.91935 -3.62865 0
M  V30 5360 H 503.674 1.95183 -2.46095 0
M  V30 5361 H 502.867 1.52565 -4.80354 0
M  V30 5362 H 502.469 0.159022 -3.73662 0
M  V30 5363 H 504.761 1.51506 -6.60342 0
M  V30 5364 H 505.704 0.0674961 -7.08068 0
M  V30 5365 H 506.112 0.930167 -5.56784 0
M  V30 5366 N 505.51 1.54411 -0.315457 0
M  V30 5367 C 506.756 2.00716 0.289972 0
M  V30 5368 C 507.089 1.2034 1.5242 0
M  V30 5369 O 506.364 0.283579 1.92422 0
M  V30 5370 C 506.647 3.54507 0.632196 0
M  V30 5371 C 506.5 4.45615 -0.61218 0
M  V30 5372 C 507.819 4.15421 1.45305 0
M  V30 5373 H 504.938 0.729637 0.10392 0
M  V30 5374 H 507.58 1.8506 -0.430427 0
M  V30 5375 H 505.73 3.67979 1.24595 0
M  V30 5376 H 507.402 4.44026 -1.25053 0
M  V30 5377 H 505.645 4.15621 -1.24264 0
M  V30 5378 H 506.316 5.51022 -0.328379 0
M  V30 5379 H 508.792 4.05474 0.934331 0
M  V30 5380 H 507.668 5.23157 1.66127 0
M  V30 5381 H 507.929 3.68223 2.44671 0
M  V30 5382 N 506.988 0.0434614 1.5754 0
M  V30 5383 C 508.265 -0.671479 1.83713 0
M  V30 5384 C 508.645 -1.89495 0.930315 0
M  V30 5385 O 507.993 -2.28498 -0.0105639 0
M  V30 5386 C 508.203 -1.0361 3.33266 0
M  V30 5387 C 509.551 -1.42167 4.00092 0
M  V30 5388 O 510.575 -1.12866 3.37846 0
M  V30 5389 O 509.434 -1.96817 5.09829 0
M  V30 5390 H 506.528 -0.330726 0.75799 0
M  V30 5391 H 509.074 0.0722373 1.69546 0
M  V30 5392 H 507.846 -0.165938 3.90948 0
M  V30 5393 H 507.469 -1.83751 3.52592 0
M  V30 5394 N 508.466 -1.55915 -0.229846 0
M  V30 5395 C 509.429 -1.90914 -1.26824 0
M  V30 5396 C 510.429 -0.786999 -1.40225 0
M  V30 5397 O 511.619 -1.05484 -1.38632 0
M  V30 5398 C 508.751 -2.15264 -2.64337 0
M  V30 5399 H 509.944 -2.8378 -0.969998 0
M  V30 5400 H 507.497 -1.49069 -0.4699 0
M  V30 5401 H 508.232 -1.24923 -2.99274 0
M  V30 5402 H 508.017 -2.97005 -2.55989 0
M  V30 5403 H 509.507 -2.43467 -3.39284 0
M  V30 5404 N 509.944 0.496216 -1.49584 0
M  V30 5405 C 511.172 1.27394 -1.63029 0
M  V30 5406 C 511.587 1.86344 -0.303569 0
M  V30 5407 O 510.944 1.68057 0.711547 0
M  V30 5408 C 510.995 2.40077 -2.70269 0
M  V30 5409 O 510.716 1.83549 -3.97796 0
M  V30 5410 C 512.217 3.31372 -2.94462 0
M  V30 5411 H 509.437 0.386211 -0.54871 0
M  V30 5412 H 511.981 0.595163 -1.95648 0
M  V30 5413 H 510.136 3.03775 -2.40415 0
M  V30 5414 H 510.55 2.57561 -4.56905 0
M  V30 5415 H 512.024 4.06707 -3.73221 0
M  V30 5416 H 512.501 3.88654 -2.0456 0
M  V30 5417 H 513.107 2.73435 -3.25751 0
M  V30 5418 N 511.423 1.38739 0.74761 0
M  V30 5419 C 512.386 1.36241 1.84312 0
M  V30 5420 C 513.386 0.261811 1.58654 0
M  V30 5421 O 514.576 0.519031 1.66288 0
M  V30 5422 C 511.708 1.12253 3.21888 0
M  V30 5423 H 512.901 2.33712 1.87933 0
M  V30 5424 H 510.454 1.2412 0.949946 0
M  V30 5425 H 511.189 0.154133 3.23934 0
M  V30 5426 H 510.974 1.91943 3.41907 0
M  V30 5427 H 512.464 1.13215 4.0196 0
M  V30 5428 N 512.901 -0.976442 1.23707 0
M  V30 5429 C 514.312 -1.53284 1.06587 0
M  V30 5430 C 514.663 -1.92765 -0.365526 0
M  V30 5431 O 513.788 -1.7645 -1.25277 0
M  V30 5432 C 514.383 -2.78548 1.92864 0
M  V30 5433 C 512.942 -3.30574 1.79994 0
M  V30 5434 C 512.089 -2.03538 1.88328 0
M  V30 5435 H 515.04 -0.795692 1.37311 0
M  V30 5436 H 515.061 -3.5155 1.45577 0
M  V30 5437 H 514.573 -2.49782 2.97037 0
M  V30 5438 H 512.674 -3.64211 0.786202 0
M  V30 5439 H 512.787 -4.00065 2.636 0
M  V30 5440 H 511.151 -2.17853 1.31954 0
M  V30 5441 H 511.934 -1.77149 2.94063 0
M  V30 5442 N 514.379 -1.04941 -1.1758 0
M  V30 5443 C 515.625 -0.759112 -1.88057 0
M  V30 5444 C 515.958 0.711918 -1.8068 0
M  V30 5445 O 515.233 1.52035 -1.21308 0
M  V30 5446 C 515.516 -1.237 -3.38187 0
M  V30 5447 C 515.369 -2.77078 -3.54327 0
M  V30 5448 C 516.688 -0.834014 -4.32125 0
M  V30 5449 H 513.807 -0.277237 -0.682868 0
M  V30 5450 H 516.449 -1.30296 -1.38286 0
M  V30 5451 H 514.599 -0.774337 -3.80705 0
M  V30 5452 H 516.271 -3.31449 -3.20842 0
M  V30 5453 H 514.514 -3.16477 -2.96689 0
M  V30 5454 H 515.185 -3.05577 -4.59703 0
M  V30 5455 H 517.661 -1.23228 -3.97434 0
M  V30 5456 H 516.537 -1.19603 -5.35711 0
M  V30 5457 H 516.798 0.262195 -4.41322 0
M  V30 5458 N 515.857 1.33968 -0.830081 0
M  V30 5459 C 516.767 2.33164 -0.259207 0
M  V30 5460 C 517.783 1.62951 0.610164 0
M  V30 5461 O 518.959 1.94668 0.516369 0
M  V30 5462 C 516.024 3.42088 0.563598 0
M  V30 5463 C 515.085 4.28037 -0.329014 0
M  V30 5464 C 514.318 5.3176 0.454616 0
M  V30 5465 O 514.541 5.44876 1.6872 0
M  V30 5466 O 513.475 6.01669 -0.166794 0
M  V30 5467 H 517.301 2.83832 -1.08041 0
M  V30 5468 H 514.886 1.37154 -0.59239 0
M  V30 5469 H 516.768 4.08581 1.03147 0
M  V30 5470 H 515.443 2.93651 1.36201 0
M  V30 5471 H 514.35 3.64443 -0.844538 0
M  V30 5472 H 515.683 4.79934 -1.09196 0
M  V30 5473 N 517.335 0.585699 1.46312 0
M  V30 5474 C 518.267 -0.183687 2.28463 0
M  V30 5475 C 519.28 -0.85264 1.38686 0
M  V30 5476 O 520.469 -0.721701 1.6326 0
M  V30 5477 C 517.569 -1.27977 3.13808 0
M  V30 5478 C 516.742 -0.702164 4.31727 0
M  V30 5479 C 515.801 -1.68633 4.98447 0
M  V30 5480 O 514.827 -1.22121 5.55945 0
M  V30 5481 N 516.029 -3.02047 4.95729 0
M  V30 5482 H 518.794 0.521127 2.95134 0
M  V30 5483 H 516.355 0.423673 1.56258 0
M  V30 5484 H 518.347 -1.9375 3.55307 0
M  V30 5485 H 516.917 -1.8874 2.4919 0
M  V30 5486 H 516.137 0.1331 3.93975 0
M  V30 5487 H 517.425 -0.296101 5.07938 0
M  V30 5488 H 516.823 -3.42457 4.50266 0
M  V30 5489 H 515.38 -3.63301 5.41161 0
M  V30 5490 N 518.813 -1.54241 0.323641 0
M  V30 5491 C 520.06 -2.0057 -0.27891 0
M  V30 5492 C 520.388 -1.21181 -1.52136 0
M  V30 5493 O 519.643 -0.282043 -1.93657 0
M  V30 5494 C 519.942 -3.5129 -0.658031 0
M  V30 5495 C 519.608 -4.48281 0.485252 0
M  V30 5496 C 518.27 -4.74519 0.799055 0
M  V30 5497 C 520.622 -5.05909 1.25322 0
M  V30 5498 C 517.95 -5.55643 1.88354 0
M  V30 5499 C 520.302 -5.88215 2.32779 0
M  V30 5500 C 518.966 -6.12755 2.64741 0
M  V30 5501 H 518.236 -0.733938 -0.10206 0
M  V30 5502 H 520.883 -1.862 0.447435 0
M  V30 5503 H 519.188 -3.63388 -1.4648 0
M  V30 5504 H 520.885 -3.84578 -1.1358 0
M  V30 5505 H 517.475 -4.27979 0.230593 0
M  V30 5506 H 521.659 -4.8562 1.02404 0
M  V30 5507 H 516.915 -5.72888 2.13564 0
M  V30 5508 H 521.089 -6.31888 2.92729 0
M  V30 5509 H 518.716 -6.75404 3.48904 0
M  V30 5510 N 520.291 -0.0518155 -1.57515 0
M  V30 5511 C 521.568 0.661727 -1.84067 0
M  V30 5512 C 521.948 1.88999 -0.940351 0
M  V30 5513 O 521.296 2.285 -0.00155404 0
M  V30 5514 C 521.506 1.01841 -3.3381 0
M  V30 5515 C 522.854 1.40043 -4.00841 0
M  V30 5516 O 523.878 1.11073 -3.38439 0
M  V30 5517 O 522.737 1.94111 -5.10865 0
M  V30 5518 H 519.831 0.326702 -0.759733 0
M  V30 5519 H 522.377 -0.0812277 -1.69505 0
M  V30 5520 H 521.149 0.145202 -3.91031 0
M  V30 5521 H 520.772 1.81879 -3.53562 0
M  V30 5522 N 521.769 1.56035 0.221574 0
M  V30 5523 C 522.999 1.82864 0.961468 0
M  V30 5524 C 523.407 0.628703 1.78449 0
M  V30 5525 O 522.75 -0.412109 1.79018 0
M  V30 5526 C 522.812 3.03425 1.92804 0
M  V30 5527 C 522.476 4.38429 1.28954 0
M  V30 5528 C 523.473 5.15441 0.679431 0
M  V30 5529 C 521.158 4.85151 1.30131 0
M  V30 5530 C 523.152 6.37337 0.0896148 0
M  V30 5531 C 520.839 6.06989 0.707651 0
M  V30 5532 C 521.837 6.82923 0.102855 0
M  V30 5533 O 521.525 8.02456 -0.48157 0
M  V30 5534 H 521.257 0.611883 0.28736 0
M  V30 5535 H 523.811 2.0397 0.241932 0
M  V30 5536 H 522.041 2.78138 2.68656 0
M  V30 5537 H 523.73 3.17127 2.53348 0
M  V30 5538 H 524.496 4.80452 0.662661 0
M  V30 5539 H 520.375 4.26021 1.76145 0
M  V30 5540 H 523.919 6.96547 -0.383069 0
M  V30 5541 H 519.816 6.41451 0.721834 0
M  V30 5542 H 520.584 8.17636 -0.375887 0
M  V30 5543 N 523.247 -0.488276 1.49845 0
M  V30 5544 C 524.157 -1.61451 1.70207 0
M  V30 5545 C 525.173 -1.63877 0.584846 0
M  V30 5546 O 526.349 -1.82063 0.861107 0
M  V30 5547 C 523.414 -2.9776 1.77594 0
M  V30 5548 C 522.475 -3.05861 3.01243 0
M  V30 5549 C 521.708 -4.35668 3.08268 0
M  V30 5550 O 521.931 -5.25197 2.22541 0
M  V30 5551 O 520.865 -4.49005 4.00847 0
M  V30 5552 H 524.691 -1.47199 2.65643 0
M  V30 5553 H 522.276 -0.665939 1.33737 0
M  V30 5554 H 524.158 -3.7875 1.84732 0
M  V30 5555 H 522.833 -3.12248 0.8534 0
M  V30 5556 H 521.74 -2.24012 2.99616 0
M  V30 5557 H 523.073 -2.96304 3.9302 0
M  V30 5558 N 524.725 -1.39134 -0.740242 0
M  V30 5559 C 525.973 -1.35803 -1.49673 0
M  V30 5560 C 526.294 0.0470897 -1.94943 0
M  V30 5561 O 525.564 0.997347 -1.68611 0
M  V30 5562 H 524.144 -0.499736 -0.555224 0
M  V30 5563 H 526.806 -1.73947 -0.879107 0
M  V30 5564 H 525.902 -2.0174 -2.38133 0
M  V30 5565 N 526.204 0.969867 -1.24223 0
M  V30 5566 C 527.151 2.06407 -1.0327 0
M  V30 5567 C 528.121 1.66014 0.0533 0
M  V30 5568 O 529.306 1.90533 -0.100896 0
M  V30 5569 C 526.446 3.3909 -0.641262 0
M  V30 5570 C 525.559 3.9269 -1.80051 0
M  V30 5571 C 524.694 5.13631 -1.35486 0
M  V30 5572 C 523.733 5.59423 -2.48419 0
M  V30 5573 N 522.87 6.71586 -2.04737 0
M  V30 5574 H 527.71 2.23663 -1.96923 0
M  V30 5575 H 525.247 1.09624 -0.980862 0
M  V30 5576 H 527.205 4.15323 -0.395351 0
M  V30 5577 H 525.835 3.21765 0.258269 0
M  V30 5578 H 524.887 3.13116 -2.16014 0
M  V30 5579 H 526.199 4.22636 -2.64916 0
M  V30 5580 H 525.353 5.97231 -1.0677 0
M  V30 5581 H 524.092 4.85364 -0.476722 0
M  V30 5582 H 523.097 4.74398 -2.77897 0
M  V30 5583 H 524.322 5.89705 -3.36786 0
M  V30 5584 H 522.268 6.45058 -1.19318 0
M  V30 5585 H 522.185 7.0097 -2.83156 0
M  V30 5586 H 523.453 7.58633 -1.79154 0
M  V30 5587 N 527.682 1.05563 1.17022 0
M  V30 5588 C 529.098 0.777684 1.39371 0
M  V30 5589 C 529.298 -0.626269 1.91521 0
M  V30 5590 O 528.354 -1.38806 2.10924 0
M  V30 5591 C 529.667 1.83642 2.3811 0
M  V30 5592 C 531.215 1.85907 2.51809 0
M  V30 5593 C 531.69 2.90813 3.53824 0
M  V30 5594 N 533.181 2.898 3.61345 0
M  V30 5595 C 533.916 3.6762 4.40049 0
M  V30 5596 N 533.412 4.55237 5.22237 0
M  V30 5597 N 535.205 3.56044 4.34959 0
M  V30 5598 H 527.356 1.9614 0.815047 0
M  V30 5599 H 529.619 0.849527 0.420722 0
M  V30 5600 H 529.325 2.84425 2.06871 0
M  V30 5601 H 529.199 1.6812 3.37662 0
M  V30 5602 H 531.586 0.857865 2.82356 0
M  V30 5603 H 531.667 2.05506 1.52318 0
M  V30 5604 H 531.311 3.91122 3.24015 0
M  V30 5605 H 531.241 2.68465 4.53028 0
M  V30 5606 H 533.732 2.26274 3.02669 0
M  V30 5607 H 534.045 5.11291 5.79484 0
M  V30 5608 H 532.39 4.59296 5.21605 0
M  V30 5609 H 535.581 2.86986 3.69806 0
M  V30 5610 H 535.754 4.16938 4.96051 0
M  V30 5611 N 529.16 -1.33526 0.837174 0
M  V30 5612 C 530.406 -1.9813 0.432704 0
M  V30 5613 C 530.739 -1.66168 -1.00508 0
M  V30 5614 O 530.014 -0.94069 -1.70239 0
M  V30 5615 C 530.297 -3.54151 0.651834 0
M  V30 5616 C 530.15 -3.95806 2.13676 0
M  V30 5617 C 531.469 -4.39993 0.0968937 0
M  V30 5618 H 528.588 -0.719713 0.15869 0
M  V30 5619 H 531.23 -1.58193 1.05237 0
M  V30 5620 H 529.38 -3.88301 0.124369 0
M  V30 5621 H 531.052 -3.71921 2.72896 0
M  V30 5622 H 529.295 -3.45599 2.62191 0
M  V30 5623 H 529.966 -5.0447 2.24084 0
M  V30 5624 H 532.442 -4.12479 0.547733 0
M  V30 5625 H 531.318 -5.48186 0.279917 0
M  V30 5626 H 531.579 -4.3066 -0.9992 0
M  V30 5627 N 530.638 -0.59345 -1.46 0
M  V30 5628 C 532.054 -0.255965 -1.57534 0
M  V30 5629 C 532.254 1.24167 -1.58697 0
M  V30 5630 O 531.31 2.02398 -1.50968 0
M  V30 5631 C 532.623 -0.91466 -2.86451 0
M  V30 5632 C 534.171 -0.889253 -3.00102 0
M  V30 5633 C 534.646 -1.52769 -4.3177 0
M  V30 5634 N 536.137 -1.49253 -4.38495 0
M  V30 5635 C 536.872 -1.9558 -5.39014 0
M  V30 5636 N 536.368 -2.49929 -6.46148 0
M  V30 5637 N 538.161 -1.86432 -5.30282 0
M  V30 5638 H 530.312 -1.56604 -1.43489 0
M  V30 5639 H 532.575 -0.655207 -0.685133 0
M  V30 5640 H 532.281 -1.96861 -2.91442 0
M  V30 5641 H 532.155 -0.429356 -3.74748 0
M  V30 5642 H 534.542 0.156111 -2.94687 0
M  V30 5643 H 534.623 -1.41268 -2.13253 0
M  V30 5644 H 534.267 -2.57231 -4.37944 0
M  V30 5645 H 534.197 -0.979398 -5.17412 0
M  V30 5646 H 536.688 -1.09536 -3.61677 0
M  V30 5647 H 537.001 -2.83109 -7.19075 0
M  V30 5648 H 535.346 -2.53961 -6.46938 0
M  V30 5649 H 538.537 -1.43722 -4.4549 0
M  V30 5650 H 538.71 -2.22852 -6.08474 0
M  V30 5651 N 532.116 1.54067 -0.331816 0
M  V30 5652 C 533.026 2.28322 0.539104 0
M  V30 5653 C 534.042 1.32985 1.1221 0
M  V30 5654 O 535.218 1.6601 1.1403 0
M  V30 5655 C 532.283 3.03277 1.68 0
M  V30 5656 C 531.344 4.14216 1.12798 0
M  V30 5657 C 530.577 4.85588 2.2145 0
M  V30 5658 O 530.8 4.56536 3.41952 0
M  V30 5659 O 529.734 5.72309 1.86404 0
M  V30 5660 H 533.56 3.03632 -0.0641692 0
M  V30 5661 H 531.145 1.49083 -0.0972365 0
M  V30 5662 H 533.027 3.50189 2.34405 0
M  V30 5663 H 531.702 2.30834 2.2693 0
M  V30 5664 H 530.609 3.71635 0.428782 0
M  V30 5665 H 531.942 4.88727 0.583698 0
M  V30 5666 N 533.594 0.0601682 1.57485 0
M  V30 5667 C 534.84 -0.612501 1.93329 0
M  V30 5668 C 535.173 -1.6996 0.939526 0
M  V30 5669 O 534.448 -1.94472 -0.0330957 0
M  V30 5670 C 534.731 -1.20025 3.39508 0
M  V30 5671 C 534.584 -0.12059 4.49638 0
M  V30 5672 C 535.903 -2.10923 3.86264 0
M  V30 5673 H 533.022 -0.221185 0.703027 0
M  V30 5674 H 535.664 0.123768 1.89596 0
M  V30 5675 H 533.814 -1.82774 3.42821 0
M  V30 5676 H 535.486 0.51185 4.58452 0
M  V30 5677 H 533.729 0.550251 4.30296 0
M  V30 5678 H 534.4 -0.572019 5.49028 0
M  V30 5679 H 536.876 -1.58124 3.84884 0
M  V30 5680 H 535.752 -2.48987 4.8918 0
M  V30 5681 H 536.013 -3.01292 3.23536 0
M  V30 5682 N 535.072 -1.5615 -0.213296 0
M  V30 5683 C 536.035 -1.92249 -1.24792 0
M  V30 5684 C 537.035 -0.801828 -1.39382 0
M  V30 5685 O 538.225 -1.06948 -1.37506 0
M  V30 5686 C 535.357 -2.18056 -2.62039 0
M  V30 5687 H 536.55 -2.84793 -0.939845 0
M  V30 5688 H 534.103 -1.49559 -0.454062 0
M  V30 5689 H 534.838 -1.2809 -2.97932 0
M  V30 5690 H 534.623 -2.99703 -2.52825 0
M  V30 5691 H 536.113 -2.47051 -3.36683 0
M  V30 5692 N 536.55 0.480323 -1.50102 0
M  V30 5693 C 537.48 1.58769 -1.71215 0
M  V30 5694 C 538.461 1.60583 -0.560997 0
M  V30 5695 O 539.646 1.76996 -0.799127 0
M  V30 5696 C 536.776 2.97148 -1.79778 0
M  V30 5697 C 535.73 3.10201 -2.94888 0
M  V30 5698 C 535.056 4.50137 -2.88584 0
M  V30 5699 C 536.356 2.88283 -4.35534 0
M  V30 5700 H 538.05 1.41354 -2.6393 0
M  V30 5701 H 535.596 0.678591 -1.27008 0
M  V30 5702 H 537.549 3.74536 -1.93133 0
M  V30 5703 H 536.273 3.15699 -0.836772 0
M  V30 5704 H 534.932 2.35244 -2.81169 0
M  V30 5705 H 534.58 4.65593 -1.90349 0
M  V30 5706 H 534.28 4.59808 -3.65856 0
M  V30 5707 H 535.804 5.29558 -3.03976 0
M  V30 5708 H 537.218 3.55427 -4.49827 0
M  V30 5709 H 535.615 3.09408 -5.14186 0
M  V30 5710 H 536.685 1.84219 -4.48544 0
M  V30 5711 N 538.028 1.39524 0.732853 0
M  V30 5712 C 539.439 1.32905 1.31122 0
M  V30 5713 C 539.79 -0.00558708 1.96199 0
M  V30 5714 O 538.915 -0.907706 1.96443 0
M  V30 5715 C 539.51 2.40704 2.38426 0
M  V30 5716 C 538.069 2.37599 2.91931 0
M  V30 5717 C 537.216 2.2248 1.65523 0
M  V30 5718 H 540.167 1.49581 0.530207 0
M  V30 5719 H 540.188 2.07616 3.18867 0
M  V30 5720 H 539.7 3.37829 1.91033 0
M  V30 5721 H 537.801 1.44119 3.43599 0
M  V30 5722 H 537.914 3.32538 3.44899 0
M  V30 5723 H 536.278 1.69691 1.8994 0
M  V30 5724 H 537.061 3.21577 1.20178 0
M  V30 5725 N 539.506 -0.963266 1.24736 0
M  V30 5726 C 540.754 -1.70343 1.08755 0
M  V30 5727 C 541.075 -1.91387 -0.373619 0
M  V30 5728 O 540.345 -1.4948 -1.2662 0
M  V30 5729 H 538.925 -0.631224 0.399456 0
M  V30 5730 H 541.587 -1.15859 1.56725 0
M  V30 5731 H 540.683 -2.68616 1.58909 0
M  V30 5732 N 540.985 -1.06182 -1.16461 0
M  V30 5733 C 541.915 -0.692861 -2.22984 0
M  V30 5734 C 542.896 0.314122 -1.67174 0
M  V30 5735 O 544.081 0.189499 -1.93273 0
M  V30 5736 C 541.211 -0.07732 -3.47214 0
M  V30 5737 C 540.165 -1.01015 -4.15909 0
M  V30 5738 C 539.491 -0.257973 -5.34077 0
M  V30 5739 C 540.791 -2.33868 -4.67015 0
M  V30 5740 H 542.485 -1.58343 -2.54102 0
M  V30 5741 H 540.031 -0.76279 -1.22137 0
M  V30 5742 H 541.984 0.19266 -4.20959 0
M  V30 5743 H 540.708 0.848254 -3.15392 0
M  V30 5744 H 539.367 -1.26486 -3.44088 0
M  V30 5745 H 539.015 0.670684 -4.98509 0
M  V30 5746 H 538.715 -0.879638 -5.80979 0
M  V30 5747 H 540.239 0.00448788 -6.106 0
M  V30 5748 H 541.653 -2.1279 -5.32347 0
M  V30 5749 H 540.05 -2.91522 -5.24533 0
M  V30 5750 H 541.12 -2.97019 -3.83286 0
M  V30 5751 N 542.463 1.3308 -0.844243 0
M  V30 5752 C 543.711 1.97215 -0.441676 0
M  V30 5753 C 544.032 1.67185 1.0037 0
M  V30 5754 O 543.302 0.973588 1.69994 0
M  V30 5755 H 541.882 0.72959 -0.160335 0
M  V30 5756 H 544.544 1.62348 -1.07838 0
M  V30 5757 H 543.64 3.06698 -0.57815 0
M  V30 5758 N 543.941 0.601185 1.45683 0
M  V30 5759 C 545.166 0.0982245 2.07167 0
M  V30 5760 C 545.591 -1.20546 1.44396 0
M  V30 5761 O 544.949 -1.73247 0.534347 0
M  V30 5762 C 544.997 -0.0346976 3.60583 0
M  V30 5763 O 544.101 -1.08657 3.97828 0
M  V30 5764 H 543.442 0.0711618 0.660176 0
M  V30 5765 H 545.972 0.829376 1.87036 0
M  V30 5766 H 545.982 -0.234969 4.07323 0
M  V30 5767 H 544.657 0.917265 4.05659 0
M  V30 5768 H 543.234 -0.863275 3.6277 0
M  V30 5769 N 545.419 -1.53889 0.339982 0
M  V30 5770 C 546.665 -2.01152 -0.258003 0
M  V30 5771 C 546.998 -1.22749 -1.50487 0
M  V30 5772 O 546.273 -0.314156 -1.91946 0
M  V30 5773 C 546.556 -3.55468 -0.575717 0
M  V30 5774 C 546.409 -4.44584 0.682996 0
M  V30 5775 C 547.728 -4.1768 -1.38677 0
M  V30 5776 H 544.847 -0.731198 -0.0922992 0
M  V30 5777 H 547.489 -1.84352 0.459814 0
M  V30 5778 H 545.639 -3.69914 -1.18725 0
M  V30 5779 H 547.311 -4.41981 1.32102 0
M  V30 5780 H 545.554 -4.13592 1.3086 0
M  V30 5781 H 546.225 -5.5043 0.416001 0
M  V30 5782 H 548.701 -4.0691 -0.869705 0
M  V30 5783 H 547.577 -5.25734 -1.57783 0
M  V30 5784 H 547.838 -3.72069 -2.38782 0
M  V30 5785 N 546.897 -0.0685191 -1.57451 0
M  V30 5786 C 548.122 0.613919 -1.98106 0
M  V30 5787 C 548.547 1.62551 -0.946501 0
M  V30 5788 O 547.905 1.81085 0.0882824 0
M  V30 5789 C 547.953 1.26189 -3.378 0
M  V30 5790 O 547.057 2.37773 -3.36954 0
M  V30 5791 H 546.398 0.158163 -0.644888 0
M  V30 5792 H 548.928 -0.142063 -2.04106 0
M  V30 5793 H 548.938 1.60951 -3.74912 0
M  V30 5794 H 547.613 0.520625 -4.12629 0
M  V30 5795 H 546.19 2.04829 -3.11608 0
M  V30 5796 N 548.375 1.56261 0.205012 0
M  V30 5797 C 549.623 1.79684 0.925096 0
M  V30 5798 C 549.944 0.63989 1.84202 0
M  V30 5799 O 549.214 -0.342345 1.92885 0
M  V30 5800 H 547.794 0.662774 0.344587 0
M  V30 5801 H 550.456 1.93734 0.212899 0
M  V30 5802 H 549.552 2.72467 1.52211 0
M  V30 5803 N 549.853 -0.472356 1.50355 0
M  V30 5804 C 551.1 -1.22453 1.61281 0
M  V30 5805 C 551.428 -1.91972 0.31256 0
M  V30 5806 O 550.683 -1.82696 -0.701475 0
M  V30 5807 C 550.982 -2.29257 2.74182 0
M  V30 5808 C 550.648 -1.76999 4.14708 0
M  V30 5809 C 549.31 -1.62467 4.52944 0
M  V30 5810 C 551.662 -1.38215 5.0254 0
M  V30 5811 C 548.99 -1.07574 5.76754 0
M  V30 5812 C 551.342 -0.847638 6.26895 0
M  V30 5813 C 550.006 -0.688946 6.63935 0
M  V30 5814 H 549.276 -0.448087 0.590168 0
M  V30 5815 H 551.923 -0.520744 1.84284 0
M  V30 5816 H 550.228 -3.05538 2.45263 0
M  V30 5817 H 551.925 -2.87212 2.7984 0
M  V30 5818 H 548.515 -1.89276 3.84542 0
M  V30 5819 H 552.699 -1.48276 4.73633 0
M  V30 5820 H 547.955 -0.940237 6.04127 0
M  V30 5821 H 552.129 -0.538455 6.94315 0
M  V30 5822 H 549.756 -0.261435 7.5975 0
M  V30 5823 N 551.331 -1.39911 -0.725443 0
M  V30 5824 C 552.279 -1.39552 -1.86086 0
M  V30 5825 C 553.273 -0.277334 -1.67114 0
M  V30 5826 O 554.479 -0.447865 -1.74339 0
M  V30 5827 H 550.854 -0.435993 -0.612711 0
M  V30 5828 H 552.825 -2.35305 -1.83505 0
M  V30 5829 C 551.574 -1.26529 -3.2386 0
M  V30 5830 H 550.897 -2.11845 -3.3906 0
M  V30 5831 H 552.337 -1.30336 -4.03471 0
M  V30 5832 C 550.796 0.0254168 -3.3689 0
M  V30 5833 O 551.326 0.992048 -3.89257 0
M  V30 5834 N 549.532 0.0916528 -2.90455 0
M  V30 5835 H 549.079 -0.695675 -2.48028 0
M  V30 5836 H 549.037 0.954745 -2.99553 0
M  V30 5837 N 552.809 0.956637 -1.25245 0
M  V30 5838 C 554.057 1.69764 -1.09657 0
M  V30 5839 C 554.378 1.91583 0.363464 0
M  V30 5840 O 553.648 1.50149 1.25825 0
M  V30 5841 H 552.228 0.629097 -0.402798 0
M  V30 5842 H 554.89 1.15026 -1.57337 0
M  V30 5843 H 553.986 2.67769 -1.60331 0
M  V30 5844 N 554.287 1.06798 1.15896 0
M  V30 5845 C 555.234 0.683314 2.20453 0
M  V30 5846 C 556.204 -0.32255 1.62938 0
M  V30 5847 O 557.389 -0.210276 1.89638 0
M  V30 5848 C 554.529 0.0813266 3.45004 0
M  V30 5849 C 553.642 1.13799 4.16742 0
M  V30 5850 C 552.777 0.501598 5.28826 0
M  V30 5851 C 551.816 1.54144 5.92373 0
M  V30 5852 N 550.953 0.928038 6.9594 0
M  V30 5853 H 555.793 1.57932 2.52708 0
M  V30 5854 H 553.33 0.789544 1.24115 0
M  V30 5855 H 555.288 -0.285274 4.16224 0
M  V30 5856 H 553.918 -0.77806 3.13283 0
M  V30 5857 H 552.97 1.62223 3.44075 0
M  V30 5858 H 554.282 1.92664 4.60089 0
M  V30 5859 H 553.436 0.0823162 6.06644 0
M  V30 5860 H 552.175 -0.318883 4.86656 0
M  V30 5861 H 551.18 1.97056 5.13273 0
M  V30 5862 H 552.405 2.3641 6.36621 0
M  V30 5863 H 550.351 0.12836 6.55874 0
M  V30 5864 H 550.268 1.65401 7.37685 0
M  V30 5865 H 551.536 0.534071 7.77668 0
M  V30 5866 N 555.766 -1.3263 0.851289 0
M  V30 5867 C 556.716 -2.26451 0.265302 0
M  V30 5868 C 557.7 -1.49814 -0.586899 0
M  V30 5869 O 558.892 -1.71525 -0.436834 0
M  V30 5870 C 556.021 -3.38895 -0.548212 0
M  V30 5871 C 555.107 -4.2292 0.316189 0
M  V30 5872 N 555.498 -4.86014 1.40084 0
M  V30 5873 C 553.796 -4.45876 0.105356 0
M  V30 5874 C 554.497 -5.48667 1.93235 0
M  V30 5875 N 553.473 -5.29455 1.232 0
M  V30 5876 H 557.275 -2.72757 1.09457 0
M  V30 5877 H 554.789 -1.4668 0.697047 0
M  V30 5878 H 556.786 -4.05111 -0.984402 0
M  V30 5879 H 555.446 -2.94135 -1.37531 0
M  V30 5880 H 556.457 -4.86212 1.78377 0
M  V30 5881 H 553.134 -4.11804 -0.687299 0
M  V30 5882 H 554.524 -6.08865 2.84135 0
M  V30 5883 N 557.244 -0.608902 -1.45362 0
M  V30 5884 C 558.521 -0.0365378 -1.95566 0
M  V30 5885 C 558.901 1.43169 -1.55131 0
M  V30 5886 O 558.249 2.1349 -0.814513 0
M  V30 5887 C 558.459 -0.236026 -3.48201 0
M  V30 5888 C 559.807 -0.117518 -4.24437 0
M  V30 5889 O 560.831 -0.166217 -3.55812 0
M  V30 5890 O 559.69 -0.00372127 -5.465 0
M  V30 5891 H 556.784 0.0349874 -0.82626 0
M  V30 5892 H 559.33 -0.679055 -1.55521 0
M  V30 5893 H 558.102 -1.25569 -3.70605 0
M  V30 5894 H 557.725 0.441691 -3.95139 0
M  V30 5895 N 558.722 1.53707 -0.348139 0
M  V30 5896 C 559.999 1.93247 0.302475 0
M  V30 5897 C 560.379 1.28012 1.67857 0
M  V30 5898 O 559.727 0.43274 2.24365 0
M  V30 5899 C 559.937 3.47031 0.370159 0
M  V30 5900 C 561.285 4.20066 0.61882 0
M  V30 5901 O 562.309 3.53319 0.452087 0
M  V30 5902 O 561.168 5.38318 0.94215 0
M  V30 5903 H 558.262 0.807736 0.177458 0
M  V30 5904 H 560.808 1.64927 -0.399651 0
M  V30 5905 H 559.58 3.86745 -0.59534 0
M  V30 5906 H 559.203 3.81532 1.11888 0
M  V30 5907 N 560.2 0.0768682 1.57412 0
M  V30 5908 C 561.611 -0.455037 1.8107 0
M  V30 5909 C 561.962 -1.69323 0.991162 0
M  V30 5910 O 561.087 -2.15328 0.215156 0
M  V30 5911 C 561.682 -0.832316 3.28417 0
M  V30 5912 C 560.241 -1.30906 3.52903 0
M  V30 5913 C 559.388 -0.296714 2.75708 0
M  V30 5914 H 562.339 0.302514 1.5579 0
M  V30 5915 H 562.36 -1.69333 3.40744 0
M  V30 5916 H 561.872 0.0690532 3.88039 0
M  V30 5917 H 559.973 -2.22875 2.98592 0
M  V30 5918 H 560.086 -1.28348 4.61588 0
M  V30 5919 H 558.45 -0.775059 2.42621 0
M  V30 5920 H 559.233 0.597015 3.38069 0
M  V30 5921 N 561.678 -1.56367 -0.196722 0
M  V30 5922 C 562.641 -1.93561 -1.22746 0
M  V30 5923 C 563.641 -0.816566 -1.38524 0
M  V30 5924 O 564.831 -1.084 -1.36363 0
M  V30 5925 C 561.963 -2.20823 -2.59712 0
M  V30 5926 H 563.156 -2.85774 -0.909586 0
M  V30 5927 H 560.709 -1.50032 -0.438174 0
M  V30 5928 H 561.444 -1.31243 -2.96557 0
M  V30 5929 H 561.229 -3.02368 -2.49632 0
M  V30 5930 H 562.719 -2.50608 -3.34044 0
M  V30 5931 N 563.156 0.464375 -1.50603 0
M  V30 5932 C 564.086 1.56944 -1.72889 0
M  V30 5933 C 565.067 1.59979 -0.577997 0
M  V30 5934 O 566.252 1.76138 -0.817855 0
M  V30 5935 C 563.382 2.95225 -1.8292 0
M  V30 5936 C 562.336 3.07056 -2.98162 0
M  V30 5937 C 561.662 4.47051 -2.93343 0
M  V30 5938 C 562.962 2.83648 -4.38567 0
M  V30 5939 H 564.656 1.38547 -2.65415 0
M  V30 5940 H 562.202 0.665082 -1.27721 0
M  V30 5941 H 564.155 3.72467 -1.97095 0
M  V30 5942 H 562.879 3.14793 -0.870209 0
M  V30 5943 H 561.538 2.32248 -2.83648 0
M  V30 5944 H 561.186 4.63547 -1.95276 0
M  V30 5945 H 560.886 4.55902 -3.70712 0
M  V30 5946 H 562.41 5.26304 -3.09575 0
M  V30 5947 H 563.824 3.50636 -4.53572 0
M  V30 5948 H 562.221 3.03937 -5.17438 0
M  V30 5949 H 563.291 1.79451 -4.50472 0
M  V30 5950 N 564.634 1.40294 0.718013 0
M  V30 5951 C 565.864 1.41544 1.50495 0
M  V30 5952 C 566.272 0.0127877 1.89196 0
M  V30 5953 O 565.615 -0.97305 1.55812 0
M  V30 5954 C 565.677 2.24021 2.81167 0
M  V30 5955 C 565.341 3.72463 2.64803 0
M  V30 5956 C 566.338 4.65154 2.32223 0
M  V30 5957 C 564.023 4.1625 2.81143 0
M  V30 5958 C 566.017 5.99618 2.16189 0
M  V30 5959 C 563.704 5.50784 2.64727 0
M  V30 5960 C 564.702 6.42283 2.32297 0
M  V30 5961 O 564.39 7.74337 2.16004 0
M  V30 5962 H 564.122 0.484819 0.471091 0
M  V30 5963 H 566.676 1.84948 0.893488 0
M  V30 5964 H 564.906 1.75393 3.44636 0
M  V30 5965 H 566.595 2.17243 3.42871 0
M  V30 5966 H 567.361 4.32622 2.19234 0
M  V30 5967 H 563.24 3.45352 3.05373 0
M  V30 5968 H 566.784 6.71 1.90799 0
M  V30 5969 H 562.681 5.82902 2.773 0
M  V30 5970 H 563.449 7.85244 2.30942 0
M  V30 5971 N 566.112 -0.949982 1.2575 0
M  V30 5972 C 567.359 -1.69515 1.10774 0
M  V30 5973 C 567.687 -1.91316 -0.350479 0
M  V30 5974 O 566.942 -1.48515 -1.27443 0
M  V30 5975 C 567.241 -3.08039 1.81237 0
M  V30 5976 C 566.907 -3.06023 3.31151 0
M  V30 5977 C 565.569 -3.0518 3.72047 0
M  V30 5978 C 567.921 -2.98998 4.26907 0
M  V30 5979 C 565.249 -2.95067 5.07102 0
M  V30 5980 C 567.601 -2.90426 5.61992 0
M  V30 5981 C 566.265 -2.87922 6.0221 0
M  V30 5982 H 565.535 -0.6203 0.405351 0
M  V30 5983 H 568.182 -1.10953 1.56082 0
M  V30 5984 H 566.487 -3.70172 1.28373 0
M  V30 5985 H 568.184 -3.64526 1.67098 0
M  V30 5986 H 564.774 -3.07453 2.98614 0
M  V30 5987 H 568.958 -2.98764 3.963 0
M  V30 5988 H 564.214 -2.915 5.37436 0
M  V30 5989 H 568.388 -2.83952 6.35881 0
M  V30 5990 H 566.015 -2.79841 7.06819 0
M  V30 5991 N 567.59 -1.07411 -1.15328 0
M  V30 5992 C 568.838 -0.796073 -1.85761 0
M  V30 5993 C 569.159 0.679864 -1.82764 0
M  V30 5994 O 568.429 1.49242 -1.269 0
M  V30 5995 H 567.009 -0.291495 -0.687779 0
M  V30 5996 H 569.671 -1.35799 -1.39802 0
M  V30 5997 H 568.767 -1.13114 -2.90881 0
M  V30 5998 N 569.068 1.32177 -0.85831 0
M  V30 5999 C 570.315 1.97125 -0.463484 0
M  V30 6000 C 570.643 1.67907 0.981705 0
M  V30 6001 O 569.898 0.961717 1.70439 0
M  V30 6002 C 570.197 3.51372 -0.653658 0
M  V30 6003 C 569.863 4.00584 -2.06987 0
M  V30 6004 C 568.525 4.13733 -2.4572 0
M  V30 6005 C 570.877 4.26624 -2.99402 0
M  V30 6006 C 568.205 4.50268 -3.76132 0
M  V30 6007 C 570.557 4.64618 -4.29316 0
M  V30 6008 C 569.221 4.75975 -4.67979 0
M  V30 6009 H 568.491 0.72133 -0.169601 0
M  V30 6010 H 571.138 1.57517 -1.08907 0
M  V30 6011 H 569.443 3.91761 0.0551328 0
M  V30 6012 H 571.14 3.99655 -0.328163 0
M  V30 6013 H 567.73 3.90837 -1.75911 0
M  V30 6014 H 571.914 4.1597 -2.70708 0
M  V30 6015 H 567.17 4.57256 -4.05865 0
M  V30 6016 H 571.344 4.83722 -5.00985 0
M  V30 6017 H 568.971 5.04041 -5.69076 0
M  V30 6018 N 570.547 0.616602 1.45037 0
M  V30 6019 C 571.457 -0.0985401 2.34393 0
M  V30 6020 C 572.473 -0.850971 1.51771 0
M  V30 6021 O 573.649 -0.806521 1.84546 0
M  V30 6022 C 570.714 -1.07748 3.29532 0
M  V30 6023 C 569.775 -0.326022 4.2806 0
M  V30 6024 C 569.008 -1.25833 5.18654 0
M  V30 6025 O 569.231 -2.49652 5.12864 0
M  V30 6026 O 568.165 -0.750512 5.97203 0
M  V30 6027 H 571.991 0.636016 2.96966 0
M  V30 6028 H 569.576 0.376832 1.44569 0
M  V30 6029 H 571.458 -1.64107 3.88133 0
M  V30 6030 H 570.133 -1.79291 2.69512 0
M  V30 6031 H 569.04 0.280253 3.73049 0
M  V30 6032 H 570.373 0.349091 4.9096 0
M  V30 6033 N 572.025 -1.5352 0.356285 0
M  V30 6034 C 572.973 -2.26945 -0.50978 0
M  V30 6035 C 573.967 -1.29569 -1.09125 0
M  V30 6036 O 575.173 -1.47231 -1.03552 0
M  V30 6037 H 571.548 -0.729368 -0.183102 0
M  V30 6038 H 573.519 -2.98111 0.131374 0
M  V30 6039 C 572.268 -3.06466 -1.64237 0
M  V30 6040 H 571.591 -3.81233 -1.20423 0
M  V30 6041 H 573.031 -3.61035 -2.22327 0
M  V30 6042 C 571.49 -2.16737 -2.57928 0
M  V30 6043 O 572.02 -1.77195 -3.60507 0
M  V30 6044 N 570.226 -1.81558 -2.26903 0
M  V30 6045 H 569.773 -2.13913 -1.43524 0
M  V30 6046 H 569.731 -1.21806 -2.89846 0
M  V30 6047 N 573.503 -0.0852151 -1.57369 0
M  V30 6048 C 574.733 0.588605 -1.98038 0
M  V30 6049 C 575.141 1.62869 -0.962817 0
M  V30 6050 O 574.484 1.83611 0.057134 0
M  V30 6051 C 574.546 1.30303 -3.35054 0
M  V30 6052 C 574.21 0.414855 -4.55113 0
M  V30 6053 C 575.207 -0.333011 -5.18832 0
M  V30 6054 C 572.892 0.335804 -5.01176 0
M  V30 6055 C 574.886 -1.14801 -6.26976 0
M  V30 6056 C 572.573 -0.482857 -6.09189 0
M  V30 6057 C 573.571 -1.22342 -6.71953 0
M  V30 6058 O 573.259 -2.02855 -7.77885 0
M  V30 6059 H 572.991 0.163249 -0.655992 0
M  V30 6060 H 575.545 -0.1582 -2.0479 0
M  V30 6061 H 573.775 2.0962 -3.24956 0
M  V30 6062 H 575.464 1.87041 -3.60237 0
M  V30 6063 H 576.23 -0.281611 -4.84182 0
M  V30 6064 H 572.109 0.901869 -4.52092 0
M  V30 6065 H 575.653 -1.72654 -6.75897 0
M  V30 6066 H 571.55 -0.535773 -6.43273 0
M  V30 6067 H 572.318 -1.95432 -7.94826 0
M  V30 6068 N 574.981 1.5647 0.188427 0
M  V30 6069 C 575.944 1.9421 1.21718 0
M  V30 6070 C 576.944 0.823901 1.38089 0
M  V30 6071 O 578.134 1.09122 1.35787 0
M  V30 6072 C 575.266 2.22197 2.58537 0
M  V30 6073 H 576.459 2.86252 0.894418 0
M  V30 6074 H 574.012 1.50263 0.430211 0
M  V30 6075 H 574.747 1.32814 2.95856 0
M  V30 6076 H 574.532 3.03688 2.48025 0
M  V30 6077 H 576.022 2.52376 3.3271 0
M  V30 6078 N 576.459 -0.456382 1.50847 0
M  V30 6079 C 577.391 -1.57033 1.66953 0
M  V30 6080 C 578.404 -1.53207 0.550593 0
M  V30 6081 O 579.593 -1.58328 0.824285 0
M  V30 6082 C 576.693 -2.95937 1.65149 0
M  V30 6083 C 575.866 -3.24475 2.93317 0
M  V30 6084 C 574.925 -4.43007 2.83957 0
M  V30 6085 O 573.951 -4.42592 3.57912 0
M  V30 6086 N 575.153 -5.45503 1.9851 0
M  V30 6087 H 577.918 -1.43629 2.63042 0
M  V30 6088 H 575.479 -0.645037 1.48495 0
M  V30 6089 H 577.471 -3.73224 1.56481 0
M  V30 6090 H 576.041 -3.03036 0.767343 0
M  V30 6091 H 575.261 -2.35664 3.16 0
M  V30 6092 H 576.549 -3.4036 3.78196 0
M  V30 6093 H 575.947 -5.48668 1.37766 0
M  V30 6094 H 574.504 -6.21716 1.95735 0
M  V30 6095 N 577.937 -1.40673 -0.710563 0
M  V30 6096 C 579.348 -1.34975 -1.28991 0
M  V30 6097 C 579.699 -0.0256272 -1.96183 0
M  V30 6098 O 578.824 0.876339 -1.97862 0
M  V30 6099 C 579.419 -2.44467 -2.34567 0
M  V30 6100 C 577.978 -2.42213 -2.88114 0
M  V30 6101 C 577.125 -2.25085 -1.61963 0
M  V30 6102 H 580.076 -1.50406 -0.506343 0
M  V30 6103 H 580.097 -2.12663 -3.15523 0
M  V30 6104 H 579.609 -3.40825 -1.85634 0
M  V30 6105 H 577.71 -1.49568 -3.41263 0
M  V30 6106 H 577.823 -3.37983 -3.39565 0
M  V30 6107 H 576.187 -1.72691 -1.87216 0
M  V30 6108 H 576.97 -3.23449 -1.15047 0
M  V30 6109 N 579.415 0.9433 -1.26252 0
M  V30 6110 C 580.826 1.50404 -1.10614 0
M  V30 6111 C 581.177 1.93666 0.31429 0
M  V30 6112 O 580.302 1.79709 1.20555 0
M  V30 6113 C 580.897 2.73336 -2.00182 0
M  V30 6114 C 579.456 3.25686 -1.88695 0
M  V30 6115 C 578.603 1.98474 -1.93658 0
M  V30 6116 H 581.554 0.759006 -1.39373 0
M  V30 6117 H 581.575 3.47567 -1.54847 0
M  V30 6118 H 581.087 2.41818 -3.03555 0
M  V30 6119 H 579.188 3.61998 -0.882489 0
M  V30 6120 H 579.301 3.92935 -2.74115 0
M  V30 6121 H 577.665 2.14278 -1.37684 0
M  V30 6122 H 578.448 1.6929 -2.98657 0
M  V30 6123 N 580.893 1.08022 1.14757 0
M  V30 6124 C 582.121 0.828847 1.89572 0
M  V30 6125 C 582.536 -0.618621 1.78377 0
M  V30 6126 O 581.893 -1.42482 1.1404 0
M  V30 6127 C 581.944 1.23677 3.39685 0
M  V30 6128 O 581.665 2.62746 3.50566 0
M  V30 6129 C 583.166 1.01569 4.31507 0
M  V30 6130 H 580.386 0.299196 0.600602 0
M  V30 6131 H 582.93 1.43846 1.45357 0
M  V30 6132 H 581.085 0.671347 3.81539 0
M  V30 6133 H 581.499 2.79573 4.43778 0
M  V30 6134 H 582.973 1.35055 5.35223 0
M  V30 6135 H 583.45 -0.0475433 4.39174 0
M  V30 6136 H 584.056 1.56636 3.95405 0
M  V30 6137 N 582.371 -1.3172 0.865308 0
M  V30 6138 C 583.301 -2.31109 0.333302 0
M  V30 6139 C 584.282 -1.60148 -0.573301 0
M  V30 6140 O 585.467 -1.87882 -0.491305 0
M  V30 6141 C 582.597 -3.44104 -0.470078 0
M  V30 6142 C 581.551 -4.26623 0.343021 0
M  V30 6143 C 580.877 -5.31482 -0.585756 0
M  V30 6144 C 582.177 -4.98001 1.57456 0
M  V30 6145 H 583.871 -2.75855 1.1638 0
M  V30 6146 H 581.417 -1.3262 0.561069 0
M  V30 6147 H 583.37 -4.12682 -0.852752 0
M  V30 6148 H 582.094 -2.98112 -1.33404 0
M  V30 6149 H 580.753 -3.59707 0.707583 0
M  V30 6150 H 580.401 -4.81741 -1.44686 0
M  V30 6151 H 580.101 -5.87582 -0.0456494 0
M  V30 6152 H 581.625 -6.0292 -0.965375 0
M  V30 6153 H 583.039 -5.59201 1.26359 0
M  V30 6154 H 581.436 -5.63876 2.05339 0
M  V30 6155 H 582.506 -4.25253 2.32997 0
M  V30 6156 N 583.85 -0.624285 -1.44708 0
M  V30 6157 C 585.08 -0.132726 -2.06173 0
M  V30 6158 C 585.488 1.19513 -1.46674 0
M  V30 6159 O 584.831 1.74254 -0.581491 0
M  V30 6160 C 584.893 0.0636732 -3.59444 0
M  V30 6161 C 584.557 -1.18496 -4.4137 0
M  V30 6162 C 585.553 -2.10706 -4.75288 0
M  V30 6163 C 583.239 -1.41846 -4.81856 0
M  V30 6164 C 585.233 -3.24582 -5.48567 0
M  V30 6165 C 582.92 -2.5602 -5.54885 0
M  V30 6166 C 583.918 -3.47215 -5.88159 0
M  V30 6167 O 583.606 -4.59399 -6.59703 0
M  V30 6168 H 583.338 -0.0737313 -0.671967 0
M  V30 6169 H 585.892 -0.856789 -1.86677 0
M  V30 6170 H 584.122 0.842809 -3.77404 0
M  V30 6171 H 585.811 0.508924 -4.02697 0
M  V30 6172 H 586.577 -1.93898 -4.44554 0
M  V30 6173 H 582.456 -0.717556 -4.55381 0
M  V30 6174 H 586 -3.95785 -5.74456 0
M  V30 6175 H 581.897 -2.72774 -5.85034 0
M  V30 6176 H 582.665 -4.58293 -6.78166 0
M  V30 6177 N 585.328 1.53329 -0.364422 0
M  V30 6178 C 586.744 1.59594 -0.0133165 0
M  V30 6179 C 586.944 1.37959 1.46865 0
M  V30 6180 O 586 1.18418 2.2301 0
M  V30 6181 C 587.313 2.97032 -0.468213 0
M  V30 6182 C 588.861 3.10138 -0.422334 0
M  V30 6183 C 589.336 4.49986 -0.853024 0
M  V30 6184 N 590.827 4.56098 -0.808037 0
M  V30 6185 C 591.562 5.62495 -1.11299 0
M  V30 6186 N 591.058 6.7665 -1.48717 0
M  V30 6187 N 592.851 5.52473 -1.03586 0
M  V30 6188 H 585.002 1.65644 -1.32951 0
M  V30 6189 H 587.265 0.77684 -0.543345 0
M  V30 6190 H 586.971 3.18 -1.5023 0
M  V30 6191 H 586.845 3.76918 0.145775 0
M  V30 6192 H 589.232 2.88881 0.602622 0
M  V30 6193 H 589.313 2.32263 -1.0718 0
M  V30 6194 H 588.957 4.7198 -1.87609 0
M  V30 6195 H 588.887 5.26289 -0.180819 0
M  V30 6196 H 591.378 3.74131 -0.532361 0
M  V30 6197 H 591.691 7.53776 -1.70415 0
M  V30 6198 H 590.036 6.78044 -1.52581 0
M  V30 6199 H 593.227 4.6217 -0.742736 0
M  V30 6200 H 593.4 6.35295 -1.27686 0
M  V30 6201 N 586.806 0.0935595 1.57322 0
M  V30 6202 C 588.053 -0.570509 1.94297 0
M  V30 6203 C 588.381 -1.68286 0.97519 0
M  V30 6204 O 587.636 -1.95699 -0.00548655 0
M  V30 6205 C 587.935 -1.16692 3.37813 0
M  V30 6206 C 587.601 -0.178509 4.50547 0
M  V30 6207 C 586.263 0.0933475 4.81109 0
M  V30 6208 C 588.615 0.496472 5.1883 0
M  V30 6209 C 585.943 1.0469 5.77284 0
M  V30 6210 C 588.295 1.43849 6.16028 0
M  V30 6211 C 586.959 1.71859 6.44997 0
M  V30 6212 H 586.229 -0.208764 0.710984 0
M  V30 6213 H 588.876 0.169066 1.90752 0
M  V30 6214 H 587.181 -1.98271 3.37929 0
M  V30 6215 H 588.878 -1.6884 3.63722 0
M  V30 6216 H 585.468 -0.400584 4.26724 0
M  V30 6217 H 589.652 0.299584 4.95395 0
M  V30 6218 H 584.908 1.27094 5.98044 0
M  V30 6219 H 589.082 1.96734 6.68034 0
M  V30 6220 H 586.709 2.45906 7.19329 0
M  V30 6221 N 588.284 -1.56567 -0.180126 0
M  V30 6222 C 589.194 -1.98947 -1.24327 0
M  V30 6223 C 590.21 -0.899446 -1.4895 0
M  V30 6224 O 591.386 -1.20639 -1.61271 0
M  V30 6225 C 588.451 -2.33328 -2.56435 0
M  V30 6226 C 587.512 -3.56114 -2.39752 0
M  V30 6227 C 586.745 -3.88845 -3.65561 0
M  V30 6228 O 586.968 -3.22662 -4.70368 0
M  V30 6229 O 585.902 -4.82226 -3.60197 0
M  V30 6230 H 589.728 -2.89634 -0.913565 0
M  V30 6231 H 587.313 -1.44319 -0.386306 0
M  V30 6232 H 589.195 -2.5645 -3.34382 0
M  V30 6233 H 587.87 -1.45806 -2.89002 0
M  V30 6234 H 586.777 -3.38221 -1.59866 0
M  V30 6235 H 588.11 -4.4415 -2.12113 0
M  V30 6236 N 589.762 0.448376 -1.51087 0
M  V30 6237 C 591.173 1.0286 -1.5581 0
M  V30 6238 C 591.524 1.92583 -0.374989 0
M  V30 6239 O 590.649 2.10316 0.509533 0
M  V30 6240 C 591.244 1.87223 -2.8237 0
M  V30 6241 C 589.803 2.40314 -2.897 0
M  V30 6242 C 588.95 1.19238 -2.50355 0
M  V30 6243 H 591.901 0.230075 -1.57023 0
M  V30 6244 H 591.922 2.72553 -2.6551 0
M  V30 6245 H 591.434 1.21894 -3.68461 0
M  V30 6246 H 589.535 3.09129 -2.08014 0
M  V30 6247 H 589.648 2.73866 -3.93108 0
M  V30 6248 H 588.012 1.53428 -2.03303 0
M  V30 6249 H 588.795 0.555367 -3.38778 0
M  V30 6250 N 591.24 1.41047 0.703093 0
M  V30 6251 C 592.187 1.42302 1.81711 0
M  V30 6252 C 593.157 0.278336 1.63751 0
M  V30 6253 O 594.342 0.478266 1.84709 0
M  V30 6254 C 591.482 1.30362 3.19531 0
M  V30 6255 C 590.595 2.54638 3.48975 0
M  V30 6256 C 589.73 2.35047 4.76368 0
M  V30 6257 C 588.769 3.54837 4.98756 0
M  V30 6258 N 587.906 3.34363 6.1737 0
M  V30 6259 H 592.746 2.37516 1.79973 0
M  V30 6260 H 590.283 1.1795 0.878983 0
M  V30 6261 H 592.241 1.21443 3.99134 0
M  V30 6262 H 590.871 0.387602 3.20464 0
M  V30 6263 H 589.923 2.74037 2.63833 0
M  V30 6264 H 591.235 3.43766 3.61423 0
M  V30 6265 H 590.389 2.23552 5.64012 0
M  V30 6266 H 589.128 1.43363 4.66153 0
M  V30 6267 H 588.133 3.66795 4.09563 0
M  V30 6268 H 589.358 4.47464 5.10835 0
M  V30 6269 H 587.304 2.45373 6.08382 0
M  V30 6270 H 587.221 4.17063 6.30551 0
M  V30 6271 H 588.489 3.26626 7.07768 0
M  V30 6272 N 592.718 -0.936591 1.26751 0
M  V30 6273 C 593.943 -1.72288 1.15462 0
M  V30 6274 C 594.368 -1.85915 -0.285887 0
M  V30 6275 O 593.726 -1.35272 -1.20711 0
M  V30 6276 C 593.774 -3.10503 1.83359 0
M  V30 6277 O 592.878 -3.96745 1.1255 0
M  V30 6278 H 592.219 -0.52843 0.402067 0
M  V30 6279 H 594.749 -1.17271 1.67656 0
M  V30 6280 H 594.759 -3.60867 1.90365 0
M  V30 6281 H 593.434 -2.99901 2.88153 0
M  V30 6282 H 592.011 -3.55191 1.13551 0
M  V30 6283 N 594.196 -1.08629 -1.14182 0
M  V30 6284 C 595.444 -0.815731 -1.84906 0
M  V30 6285 C 595.765 0.660441 -1.83475 0
M  V30 6286 O 595.035 1.47888 -1.28476 0
M  V30 6287 H 593.615 -0.298773 -0.684648 0
M  V30 6288 H 596.277 -1.37274 -1.38354 0
M  V30 6289 H 595.373 -1.16193 -2.89665 0
M  V30 6290 N 595.674 1.31259 -0.872281 0
M  V30 6291 C 596.637 2.26744 -0.334656 0
M  V30 6292 C 597.637 1.52307 0.515681 0
M  V30 6293 O 598.827 1.71148 0.324656 0
M  V30 6294 C 595.959 3.36841 0.524482 0
M  V30 6295 H 597.152 2.75812 -1.17762 0
M  V30 6296 H 594.705 1.42232 -0.648064 0
M  V30 6297 H 595.44 2.93069 1.38855 0
M  V30 6298 H 595.225 3.92009 -0.0844299 0
M  V30 6299 H 596.715 4.07944 0.892838 0
M  V30 6300 N 597.152 0.631951 1.44375 0
M  V30 6301 C 598.401 0.134214 2.01253 0
M  V30 6302 C 598.714 -1.25171 1.50305 0
M  V30 6303 O 599.92 -1.8435 1.99317 0
M  V30 6304 C 598.376 0.189187 3.59402 0
M  V30 6305 C 597.984 1.57647 4.19346 0
M  V30 6306 C 599.728 -0.252044 4.23751 0
M  V30 6307 C 597.635 1.58651 5.69722 0
M  V30 6308 H 596.565 0.0464101 0.75257 0
M  V30 6309 H 599.216 0.790868 1.65582 0
M  V30 6310 H 597.598 -0.534584 3.92375 0
M  V30 6311 H 598.772 2.32389 3.97909 0
M  V30 6312 H 597.087 1.96186 3.67288 0
M  V30 6313 H 599.684 -0.264084 5.34047 0
M  V30 6314 H 600.027 -1.27951 3.96149 0
M  V30 6315 H 600.56 0.41926 3.95584 0
M  V30 6316 H 597.299 2.59237 6.0206 0
M  V30 6317 H 596.819 0.882039 5.93279 0
M  V30 6318 H 598.498 1.32082 6.33375 0
M  V30 6319 N 598.631 -1.53133 0.372548 0
M  V30 6320 C 599.856 -2.0625 -0.218098 0
M  V30 6321 C 600.281 -1.24375 -1.41111 0
M  V30 6322 O 599.639 -0.264554 -1.79359 0
M  V30 6323 C 599.687 -3.55858 -0.582876 0
M  V30 6324 O 598.791 -3.76667 -1.67917 0
M  V30 6325 H 598.132 -0.663317 -0.030104 0
M  V30 6326 H 600.662 -1.97477 0.535169 0
M  V30 6327 H 600.672 -3.99007 -0.851925 0
M  V30 6328 H 599.347 -4.14892 0.289428 0
M  V30 6329 H 597.924 -3.45413 -1.40513 0
M  V30 6330 N 600.109 -0.101901 -1.5727 0
M  V30 6331 C 601.039 0.851544 -2.17419 0
M  V30 6332 C 602.02 1.28942 -1.10941 0
M  V30 6333 O 603.205 1.35509 -1.39107 0
M  V30 6334 C 600.335 2.10816 -2.75996 0
M  V30 6335 C 599.289 1.80867 -3.87906 0
M  V30 6336 C 598.615 3.13413 -4.33216 0
M  V30 6337 C 599.915 1.0903 -5.10793 0
M  V30 6338 H 601.609 0.350381 -2.97343 0
M  V30 6339 H 599.155 0.16709 -1.43027 0
M  V30 6340 H 601.108 2.77959 -3.16729 0
M  V30 6341 H 599.832 2.63227 -1.93337 0
M  V30 6342 H 598.491 1.16119 -3.47724 0
M  V30 6343 H 598.139 3.63725 -3.47438 0
M  V30 6344 H 597.839 2.94155 -5.08671 0
M  V30 6345 H 599.363 3.81704 -4.76586 0
M  V30 6346 H 600.777 1.66295 -5.48652 0
M  V30 6347 H 599.174 0.99927 -5.91722 0
M  V30 6348 H 600.244 0.0741704 -4.84843 0
M  V30 6349 N 601.587 1.56661 0.17182 0
M  V30 6350 C 602.817 1.85831 0.902804 0
M  V30 6351 C 603.225 0.685157 1.76358 0
M  V30 6352 O 602.568 -0.354947 1.80238 0
M  V30 6353 C 602.63 3.09406 1.83053 0
M  V30 6354 C 602.294 4.4231 1.1494 0
M  V30 6355 C 603.291 5.17342 0.515104 0
M  V30 6356 C 600.976 4.89045 1.14631 0
M  V30 6357 C 602.97 6.37299 -0.113194 0
M  V30 6358 C 600.657 6.08933 0.514184 0
M  V30 6359 C 601.655 6.82904 -0.114463 0
M  V30 6360 O 601.343 8.00518 -0.736622 0
M  V30 6361 H 601.075 0.620715 0.267748 0
M  V30 6362 H 603.629 2.04637 0.176918 0
M  V30 6363 H 601.859 2.86544 2.59672 0
M  V30 6364 H 603.548 3.25027 2.4313 0
M  V30 6365 H 604.314 4.82317 0.509474 0
M  V30 6366 H 600.193 4.31409 1.62502 0
M  V30 6367 H 603.737 6.94976 -0.604477 0
M  V30 6368 H 599.634 6.43423 0.517395 0
M  V30 6369 H 600.402 8.16027 -0.635822 0
M  V30 6370 N 603.065 -0.440357 1.51323 0
M  V30 6371 C 604.481 -0.7766 1.39431 0
M  V30 6372 C 604.681 -1.95838 0.474296 0
M  V30 6373 O 603.737 -2.52398 -0.0716692 0
M  V30 6374 C 605.05 -1.05981 2.81405 0
M  V30 6375 C 606.598 -1.16442 2.90534 0
M  V30 6376 C 607.073 -1.48058 4.33408 0
M  V30 6377 N 608.564 -1.54988 4.36501 0
M  V30 6378 C 609.299 -1.81017 5.44078 0
M  V30 6379 N 608.795 -2.04858 6.61819 0
M  V30 6380 N 610.588 -1.82774 5.31554 0
M  V30 6381 H 602.739 0.338006 2.09693 0
M  V30 6382 H 605.002 0.0888072 0.943831 0
M  V30 6383 H 604.708 -0.264173 3.50706 0
M  V30 6384 H 604.582 -1.98822 3.20546 0
M  V30 6385 H 606.969 -1.95068 2.21432 0
M  V30 6386 H 607.05 -0.215088 2.54894 0
M  V30 6387 H 606.694 -0.699605 5.03059 0
M  V30 6388 H 606.624 -2.44192 4.66559 0
M  V30 6389 H 609.115 -1.38479 3.51613 0
M  V30 6390 H 609.428 -2.2408 7.396 0
M  V30 6391 H 607.773 -2.02187 6.6494 0
M  V30 6392 H 610.964 -1.63665 4.38556 0
M  V30 6393 H 611.137 -2.02722 6.15474 0
M  V30 6394 N 604.543 -1.41418 -0.695603 0
M  V30 6395 C 605.506 -1.42988 -1.79129 0
M  V30 6396 C 606.506 -0.320514 -1.57573 0
M  V30 6397 O 607.696 -0.58039 -1.64247 0
M  V30 6398 C 604.828 -1.24122 -3.175 0
M  V30 6399 H 606.021 -2.40526 -1.7913 0
M  V30 6400 H 603.574 -1.2756 -0.903225 0
M  V30 6401 H 604.309 -0.274253 -3.23138 0
M  V30 6402 H 604.094 -2.045 -3.34547 0
M  V30 6403 H 605.584 -1.28056 -3.97481 0
M  V30 6404 N 606.021 0.929856 -1.27246 0
M  V30 6405 C 607.246 1.71674 -1.16374 0
M  V30 6406 C 607.671 1.86064 0.276024 0
M  V30 6407 O 607.029 1.3591 1.19992 0
M  V30 6408 C 607.077 3.09526 -1.85003 0
M  V30 6409 O 606.181 3.96142 -1.14653 0
M  V30 6410 H 605.522 0.52629 -0.404863 0
M  V30 6411 H 608.052 1.16381 -1.68276 0
M  V30 6412 H 608.062 3.59852 -1.92276 0
M  V30 6413 H 606.737 2.98369 -2.89739 0
M  V30 6414 H 605.314 3.54584 -1.15433 0
M  V30 6415 N 607.499 1.09233 1.13605 0
M  V30 6416 C 608.462 0.733553 2.17144 0
M  V30 6417 C 609.462 -0.235873 1.59061 0
M  V30 6418 O 610.652 -0.0143167 1.74194 0
M  V30 6419 C 607.784 0.084471 3.40795 0
M  V30 6420 H 608.977 1.65049 2.50397 0
M  V30 6421 H 606.53 0.891264 1.28399 0
M  V30 6422 H 607.265 -0.843795 3.1313 0
M  V30 6423 H 607.05 0.781985 3.84223 0
M  V30 6424 H 608.54 -0.151216 4.17326 0
M  V30 6425 N 608.977 -1.30795 0.87923 0
M  V30 6426 C 609.94 -2.26563 0.346676 0
M  V30 6427 C 610.94 -1.52578 -0.507597 0
M  V30 6428 O 612.13 -1.71318 -0.315575 0
M  V30 6429 C 609.262 -3.37115 -0.506611 0
M  V30 6430 H 610.455 -2.75183 1.19223 0
M  V30 6431 H 608.008 -1.41886 0.655598 0
M  V30 6432 H 608.743 -2.93802 -1.37299 0
M  V30 6433 H 608.528 -3.91959 0.105218 0
M  V30 6434 H 610.018 -4.08412 -0.871192 0
M  V30 6435 N 610.455 -0.639598 -1.44038 0
M  V30 6436 C 611.866 -0.228866 -1.85292 0
M  V30 6437 C 612.217 1.22161 -1.53529 0
M  V30 6438 O 611.342 1.93064 -0.977518 0
M  V30 6439 C 611.937 -0.408592 -3.36327 0
M  V30 6440 C 610.496 -0.0522953 -3.76364 0
M  V30 6441 C 609.643 -0.717959 -2.67844 0
M  V30 6442 H 612.594 -0.844194 -1.34384 0
M  V30 6443 H 612.615 0.349968 -3.78887 0
M  V30 6444 H 612.127 -1.46435 -3.59414 0
M  V30 6445 H 610.228 1.0014 -3.58891 0
M  V30 6446 H 610.341 -0.468261 -4.76806 0
M  V30 6447 H 608.705 -0.152459 -2.54243 0
M  V30 6448 H 609.488 -1.77648 -2.93762 0
M  V30 6449 N 611.933 1.52934 -0.380664 0
M  V30 6450 C 613.18 2.01467 0.204278 0
M  V30 6451 C 613.508 1.26744 1.47533 0
M  V30 6452 O 612.763 0.353723 1.92477 0
M  V30 6453 C 613.062 3.5349 0.527199 0
M  V30 6454 C 612.728 4.46171 -0.651295 0
M  V30 6455 C 611.39 4.71227 -0.974619 0
M  V30 6456 C 613.742 5.00909 -1.44012 0
M  V30 6457 C 611.07 5.4827 -2.08847 0
M  V30 6458 C 613.422 5.7917 -2.5445 0
M  V30 6459 C 612.086 6.02507 -2.87301 0
M  V30 6460 H 611.356 0.73722 0.0747504 0
M  V30 6461 H 614.003 1.84411 -0.516234 0
M  V30 6462 H 612.308 3.68574 1.32892 0
M  V30 6463 H 614.005 3.88529 0.992283 0
M  V30 6464 H 610.595 4.26829 -0.389276 0
M  V30 6465 H 614.779 4.81485 -1.20357 0
M  V30 6466 H 610.035 5.64567 -2.34679 0
M  V30 6467 H 614.209 6.20588 -3.1598 0
M  V30 6468 H 611.836 6.61989 -3.7373 0
M  V30 6469 N 613.412 0.11024 1.57214 0
M  V30 6470 C 614.359 -0.843195 2.14846 0
M  V30 6471 C 615.329 -1.26954 1.07107 0
M  V30 6472 O 616.514 -1.34861 1.34971 0
M  V30 6473 C 613.654 -2.09123 2.74521 0
M  V30 6474 C 612.767 -1.71404 3.96541 0
M  V30 6475 C 611.902 -2.91107 4.44331 0
M  V30 6476 C 610.941 -2.49586 5.58903 0
M  V30 6477 N 610.078 -3.62175 6.01477 0
M  V30 6478 H 614.918 -0.344886 2.95998 0
M  V30 6479 H 612.455 -0.15855 1.46243 0
M  V30 6480 H 614.413 -2.82234 3.07246 0
M  V30 6481 H 613.043 -2.56427 1.96074 0
M  V30 6482 H 612.095 -0.88201 3.70033 0
M  V30 6483 H 613.407 -1.36884 4.7965 0
M  V30 6484 H 612.561 -3.72454 4.78919 0
M  V30 6485 H 611.3 -3.28848 3.60153 0
M  V30 6486 H 610.305 -1.6667 5.23929 0
M  V30 6487 H 611.53 -2.12973 6.4484 0
M  V30 6488 H 609.476 -3.99605 5.20242 0
M  V30 6489 H 609.393 -3.3155 6.79419 0
M  V30 6490 H 610.661 -4.43987 6.407 0
M  V30 6491 N 614.89 -1.56749 -0.16351 0
M  V30 6492 C 616.301 -1.72039 -0.725216 0
M  V30 6493 C 616.652 -0.72202 -1.82432 0
M  V30 6494 O 615.777 0.114942 -2.16095 0
M  V30 6495 C 616.372 -3.11932 -1.32227 0
M  V30 6496 C 614.931 -3.28879 -1.83072 0
M  V30 6497 C 614.078 -2.67984 -0.712716 0
M  V30 6498 H 617.029 -1.58579 0.0619772 0
M  V30 6499 H 617.05 -3.11015 -2.19202 0
M  V30 6500 H 616.562 -3.84572 -0.522103 0
M  V30 6501 H 614.663 -2.61209 -2.65708 0
M  V30 6502 H 614.776 -4.36688 -1.97079 0
M  V30 6503 H 613.14 -2.28005 -1.13515 0
M  V30 6504 H 613.923 -3.43216 0.0757361 0
M  V30 6505 N 616.368 0.432326 -1.51554 0
M  V30 6506 C 617.278 1.55023 -1.76082 0
M  V30 6507 C 618.294 1.61593 -0.645265 0
M  V30 6508 O 619.47 1.78742 -0.928086 0
M  V30 6509 C 616.535 2.90964 -1.88523 0
M  V30 6510 C 615.596 2.9447 -3.12388 0
M  V30 6511 C 614.829 4.23926 -3.24225 0
M  V30 6512 O 615.052 5.16576 -2.4188 0
M  V30 6513 O 613.986 4.33818 -4.17235 0
M  V30 6514 H 617.812 1.37238 -2.70923 0
M  V30 6515 H 615.397 0.615845 -1.36117 0
M  V30 6516 H 617.279 3.71633 -1.98662 0
M  V30 6517 H 615.954 3.08865 -0.9687 0
M  V30 6518 H 614.861 2.12737 -3.07723 0
M  V30 6519 H 616.194 2.81514 -4.03746 0
M  V30 6520 N 617.846 1.41785 0.688094 0
M  V30 6521 C 619.123 1.32031 1.44316 0
M  V30 6522 C 619.503 -0.0486079 2.11044 0
M  V30 6523 O 618.851 -1.06332 2.02252 0
M  V30 6524 C 619.061 2.47906 2.45649 0
M  V30 6525 C 620.409 2.89415 3.10683 0
M  V30 6526 O 621.433 2.477 2.55975 0
M  V30 6527 O 620.292 3.61573 4.09789 0
M  V30 6528 H 617.386 0.519994 0.643067 0
M  V30 6529 H 619.932 1.53765 0.71794 0
M  V30 6530 H 618.704 3.39222 1.95048 0
M  V30 6531 H 618.327 2.28089 3.25671 0
M  V30 6532 N 619.324 -0.923095 1.27737 0
M  V30 6533 C 620.554 -1.70277 1.17001 0
M  V30 6534 C 620.962 -1.87188 -0.275199 0
M  V30 6535 O 620.305 -1.39195 -1.19877 0
M  V30 6536 C 620.367 -3.11976 1.78637 0
M  V30 6537 C 620.031 -3.18386 3.27841 0
M  V30 6538 C 621.028 -3.00287 4.2441 0
M  V30 6539 C 618.713 -3.41198 3.68632 0
M  V30 6540 C 620.707 -3.04896 5.59747 0
M  V30 6541 C 618.394 -3.4544 5.04097 0
M  V30 6542 C 619.392 -3.27309 5.99465 0
M  V30 6543 O 619.08 -3.31295 7.32461 0
M  V30 6544 H 618.812 -0.539366 0.407505 0
M  V30 6545 H 621.366 -1.16446 1.69202 0
M  V30 6546 H 619.596 -3.67308 1.20919 0
M  V30 6547 H 621.285 -3.7193 1.6255 0
M  V30 6548 H 622.051 -2.825 3.94232 0
M  V30 6549 H 617.93 -3.54359 2.94873 0
M  V30 6550 H 621.474 -2.90662 6.34162 0
M  V30 6551 H 617.371 -3.62753 5.33929 0
M  V30 6552 H 618.139 -3.47719 7.40968 0
M  V30 6553 N 620.802 -1.09834 -1.13024 0
M  V30 6554 C 622.048 -0.83819 -1.84668 0
M  V30 6555 C 622.381 0.634645 -1.83537 0
M  V30 6556 O 621.656 1.46753 -1.27647 0
M  V30 6557 C 621.939 -1.37933 -3.32636 0
M  V30 6558 C 621.792 -2.91857 -3.42257 0
M  V30 6559 C 623.111 -1.01654 -4.28199 0
M  V30 6560 H 620.23 -0.30595 -0.670495 0
M  V30 6561 H 622.872 -1.36044 -1.32635 0
M  V30 6562 H 621.022 -0.935111 -3.77078 0
M  V30 6563 H 622.694 -3.44759 -3.06495 0
M  V30 6564 H 620.937 -3.28776 -2.83 0
M  V30 6565 H 621.608 -3.24799 -4.46329 0
M  V30 6566 H 624.084 -1.39973 -3.9185 0
M  V30 6567 H 622.96 -1.42217 -5.30156 0
M  V30 6568 H 623.221 0.0747794 -4.42037 0
M  V30 6569 N 622.28 1.30327 -0.886154 0
M  V30 6570 C 623.505 2.0079 -0.519425 0
M  V30 6571 C 623.93 1.65979 0.885013 0
M  V30 6572 O 623.288 0.877043 1.58675 0
M  V30 6573 C 623.336 3.53686 -0.702758 0
M  V30 6574 O 622.44 4.11637 0.250828 0
M  V30 6575 H 621.781 0.63171 -0.204544 0
M  V30 6576 H 624.311 1.66145 -1.19402 0
M  V30 6577 H 624.321 4.03531 -0.602207 0
M  V30 6578 H 622.996 3.78361 -1.72673 0
M  V30 6579 H 621.573 3.72755 0.103873 0
M  V30 6580 N 623.758 0.647228 1.43697 0
M  V30 6581 C 624.668 -0.0487997 2.34549 0
M  V30 6582 C 625.684 -0.818586 1.53542 0
M  V30 6583 O 626.86 -0.767195 1.86215 0
M  V30 6584 C 623.925 -1.00734 3.31743 0
M  V30 6585 C 622.986 -0.23515 4.28655 0
M  V30 6586 C 622.219 -1.14803 5.21206 0
M  V30 6587 O 622.442 -2.38717 5.18045 0
M  V30 6588 O 621.376 -0.623667 5.9866 0
M  V30 6589 H 625.202 0.698863 2.9555 0
M  V30 6590 H 622.787 0.407412 1.43738 0
M  V30 6591 H 624.669 -1.55837 3.91526 0
M  V30 6592 H 623.344 -1.73534 2.73254 0
M  V30 6593 H 622.251 0.359319 3.7237 0
M  V30 6594 H 623.584 0.453152 4.9011 0
M  V30 6595 N 625.236 -1.5273 0.388769 0
M  V30 6596 C 626.168 -2.24081 -0.481704 0
M  V30 6597 C 627.181 -1.26307 -1.02715 0
M  V30 6598 O 628.37 -1.52386 -0.929565 0
M  V30 6599 C 625.47 -2.94315 -1.68024 0
M  V30 6600 C 624.643 -4.18791 -1.26226 0
M  V30 6601 C 623.702 -4.72028 -2.32542 0
M  V30 6602 O 622.728 -5.35129 -1.93972 0
M  V30 6603 N 623.93 -4.51838 -3.64448 0
M  V30 6604 H 626.695 -2.9942 0.129591 0
M  V30 6605 H 624.256 -1.60465 0.2151 0
M  V30 6606 H 626.248 -3.26831 -2.38671 0
M  V30 6607 H 624.818 -2.22287 -2.19789 0
M  V30 6608 H 624.038 -3.92318 -0.384703 0
M  V30 6609 H 625.326 -4.99668 -0.959647 0
M  V30 6610 H 624.724 -4.01468 -3.98547 0
M  V30 6611 H 623.281 -4.88845 -4.31131 0
M  V30 6612 N 626.714 -0.118576 -1.57153 0
M  V30 6613 C 628.13 0.238014 -1.57815 0
M  V30 6614 C 628.33 1.66747 -1.13127 0
M  V30 6615 O 627.386 2.38867 -0.818462 0
M  V30 6616 C 628.699 0.00508207 -3.007 0
M  V30 6617 C 630.247 0.0710139 -3.12919 0
M  V30 6618 C 630.722 -0.13422 -4.57803 0
M  V30 6619 N 632.213 -0.0801755 -4.63131 0
M  V30 6620 C 632.948 -0.213885 -5.73001 0
M  V30 6621 N 632.444 -0.403742 -6.91623 0
M  V30 6622 N 634.237 -0.15349 -5.6189 0
M  V30 6623 H 626.388 -1.05226 -1.84503 0
M  V30 6624 H 628.651 -0.414318 -0.852669 0
M  V30 6625 H 628.357 -0.983125 -3.3768 0
M  V30 6626 H 628.231 0.73714 -3.69927 0
M  V30 6627 H 630.618 1.04975 -2.75798 0
M  V30 6628 H 630.699 -0.692918 -2.46236 0
M  V30 6629 H 630.343 -1.10992 -4.95624 0
M  V30 6630 H 630.273 0.649692 -5.22577 0
M  V30 6631 H 632.764 0.0630689 -3.77847 0
M  V30 6632 H 633.077 -0.496645 -7.71202 0
M  V30 6633 H 631.422 -0.43971 -6.93608 0
M  V30 6634 H 634.613 -0.00613174 -4.681 0
M  V30 6635 H 634.786 -0.261138 -6.47474 0
M  V30 6636 N 628.193 1.56834 0.155195 0
M  V30 6637 C 629.44 1.82898 0.869179 0
M  V30 6638 C 629.768 0.698194 1.81537 0
M  V30 6639 O 629.023 -0.313404 1.93174 0
M  V30 6640 C 629.322 3.15239 1.68402 0
M  V30 6641 C 628.988 4.42123 0.885341 0
M  V30 6642 C 627.65 4.76583 0.664971 0
M  V30 6643 C 630.002 5.20178 0.326234 0
M  V30 6644 C 627.33 5.86566 -0.125346 0
M  V30 6645 C 629.682 6.3099 -0.45108 0
M  V30 6646 C 628.346 6.64006 -0.682102 0
M  V30 6647 H 627.616 0.66927 0.318055 0
M  V30 6648 H 630.263 1.91036 0.133241 0
M  V30 6649 H 628.568 3.02515 2.48982 0
M  V30 6650 H 630.265 3.32618 2.23978 0
M  V30 6651 H 626.855 4.15102 1.06716 0
M  V30 6652 H 631.039 4.93936 0.483787 0
M  V30 6653 H 626.295 6.10594 -0.313915 0
M  V30 6654 H 630.469 6.9067 -0.89149 0
M  V30 6655 H 628.096 7.49065 -1.29636 0
M  V30 6656 N 629.671 -0.424282 1.51781 0
M  V30 6657 C 630.901 -1.19297 1.68677 0
M  V30 6658 C 631.309 -1.85152 0.389258 0
M  V30 6659 O 630.652 -1.72067 -0.643311 0
M  V30 6660 C 630.714 -2.30929 2.75521 0
M  V30 6661 C 630.378 -1.85335 4.17732 0
M  V30 6662 C 631.375 -1.34951 5.0208 0
M  V30 6663 C 629.06 -1.92629 4.63896 0
M  V30 6664 C 631.054 -0.924636 6.30658 0
M  V30 6665 C 628.741 -1.49754 5.92467 0
M  V30 6666 C 629.739 -0.997543 6.75676 0
M  V30 6667 O 629.427 -0.57492 8.01842 0
M  V30 6668 H 629.159 -0.36512 0.568914 0
M  V30 6669 H 631.713 -0.507327 1.99036 0
M  V30 6670 H 629.943 -3.02811 2.40505 0
M  V30 6671 H 631.632 -2.92748 2.81165 0
M  V30 6672 H 632.398 -1.287 4.67612 0
M  V30 6673 H 628.277 -2.30491 3.99243 0
M  V30 6674 H 631.821 -0.533682 6.95556 0
M  V30 6675 H 627.718 -1.55679 6.26446 0
M  V30 6676 H 628.486 -0.699597 8.15505 0
M  V30 6677 N 631.149 -1.42148 -0.680565 0
M  V30 6678 C 632.081 -1.41119 -1.80605 0
M  V30 6679 C 633.094 -0.311099 -1.598 0
M  V30 6680 O 634.283 -0.573813 -1.69026 0
M  V30 6681 C 631.383 -1.18204 -3.17618 0
M  V30 6682 C 630.556 -2.40537 -3.65322 0
M  V30 6683 C 629.615 -2.13254 -4.8105 0
M  V30 6684 O 628.641 -2.8641 -4.91892 0
M  V30 6685 N 629.843 -1.13208 -5.69354 0
M  V30 6686 H 632.608 -2.38128 -1.81975 0
M  V30 6687 H 630.169 -1.36953 -0.863446 0
M  V30 6688 H 632.161 -0.97878 -3.92686 0
M  V30 6689 H 630.731 -0.29738 -3.11182 0
M  V30 6690 H 629.951 -2.76468 -2.80996 0
M  V30 6691 H 631.239 -3.22012 -3.93936 0
M  V30 6692 H 630.637 -0.526893 -5.63241 0
M  V30 6693 H 629.194 -0.988699 -6.44258 0
M  V30 6694 N 632.627 0.916307 -1.28225 0
M  V30 6695 C 633.852 1.7043 -1.18188 0
M  V30 6696 C 634.277 1.86346 0.256274 0
M  V30 6697 O 633.635 1.37175 1.18544 0
M  V30 6698 C 633.683 3.07546 -1.88275 0
M  V30 6699 O 632.787 3.94904 -1.18848 0
M  V30 6700 H 632.128 0.521967 -0.410423 0
M  V30 6701 H 634.658 1.14589 -1.69501 0
M  V30 6702 H 634.668 3.57793 -1.96082 0
M  V30 6703 H 633.343 2.95279 -2.92887 0
M  V30 6704 H 631.92 3.53339 -1.19187 0
M  V30 6705 N 634.105 1.10431 1.1244 0
M  V30 6706 C 635.052 0.753103 2.18167 0
M  V30 6707 C 636.022 -0.270549 1.63882 0
M  V30 6708 O 637.207 -0.149837 1.90211 0
M  V30 6709 C 634.347 0.191046 3.44571 0
M  V30 6710 C 633.46 1.26999 4.12911 0
M  V30 6711 C 632.595 0.669586 5.26963 0
M  V30 6712 C 631.634 1.72912 5.87169 0
M  V30 6713 N 630.771 1.14898 6.92635 0
M  V30 6714 H 635.611 1.65892 2.47556 0
M  V30 6715 H 633.148 0.828631 1.21541 0
M  V30 6716 H 635.106 -0.152712 4.1692 0
M  V30 6717 H 633.736 -0.677997 3.15599 0
M  V30 6718 H 632.788 1.73087 3.3874 0
M  V30 6719 H 634.1 2.07204 4.53727 0
M  V30 6720 H 633.254 0.275274 6.06075 0
M  V30 6721 H 631.993 -0.163895 4.87425 0
M  V30 6722 H 630.998 2.13286 5.06744 0
M  V30 6723 H 632.223 2.56544 6.28778 0
M  V30 6724 H 630.169 0.336956 6.55134 0
M  V30 6725 H 630.086 1.88786 7.32049 0
M  V30 6726 H 631.354 0.78121 7.75576 0
M  V30 6727 N 635.583 -1.29855 0.893053 0
M  V30 6728 C 636.86 -1.90694 0.435336 0
M  V30 6729 C 637.24 -1.8111 -1.08454 0
M  V30 6730 O 636.588 -1.23352 -1.92345 0
M  V30 6731 C 636.798 -3.36033 0.942472 0
M  V30 6732 C 638.146 -4.13083 0.982226 0
M  V30 6733 O 639.17 -3.4491 0.889686 0
M  V30 6734 O 638.029 -5.34896 1.12022 0
M  V30 6735 H 635.123 -0.815978 0.134567 0
M  V30 6736 H 637.669 -1.38367 0.982484 0
M  V30 6737 H 636.441 -3.37132 1.9864 0
M  V30 6738 H 636.064 -3.95828 0.374952 0
M  V30 6739 N 637.061 -0.65484 -1.43351 0
M  V30 6740 C 638.309 -0.168559 -2.01396 0
M  V30 6741 C 638.63 1.22235 -1.51933 0
M  V30 6742 O 637.9 1.81685 -0.732627 0
M  V30 6743 H 636.48 -0.0593244 -0.744641 0
M  V30 6744 H 639.142 -0.846871 -1.75539 0
M  V30 6745 H 638.238 -0.154428 -3.11718 0
M  V30 6746 N 638.539 1.52521 -0.396863 0
M  V30 6747 C 639.767 2.06091 0.18275 0
M  V30 6748 C 640.182 1.26796 1.39886 0
M  V30 6749 O 639.539 0.316585 1.79733 0
M  V30 6750 C 639.59 3.57362 0.545377 0
M  V30 6751 O 639.311 4.33656 -0.622428 0
M  V30 6752 C 640.812 4.27305 1.18004 0
M  V30 6753 H 638.032 0.670504 0.025789 0
M  V30 6754 H 640.576 1.96561 -0.564276 0
M  V30 6755 H 638.731 3.66941 1.2423 0
M  V30 6756 H 639.145 5.23507 -0.322662 0
M  V30 6757 H 640.619 5.34366 1.38408 0
M  V30 6758 H 641.096 3.83 2.1496 0
M  V30 6759 H 641.702 4.22064 0.523671 0
M  V30 6760 N 640.017 0.126909 1.57088 0
M  V30 6761 C 641.433 -0.229641 1.57939 0
M  V30 6762 C 641.633 -1.66145 1.1401 0
M  V30 6763 O 640.689 -2.3843 0.831119 0
M  V30 6764 C 642.002 0.0108648 3.00698 0
M  V30 6765 C 643.55 -0.054418 3.12953 0
M  V30 6766 C 644.025 0.158497 4.57726 0
M  V30 6767 N 645.516 0.104735 4.63082 0
M  V30 6768 C 646.251 0.24427 5.72879 0
M  V30 6769 N 645.747 0.440415 6.91399 0
M  V30 6770 N 647.54 0.183286 5.61801 0
M  V30 6771 H 639.691 1.06203 1.83942 0
M  V30 6772 H 641.954 0.418834 0.85046 0
M  V30 6773 H 641.66 1.00102 3.37154 0
M  V30 6774 H 641.534 -0.717512 3.70313 0
M  V30 6775 H 643.921 -1.0351 2.7635 0
M  V30 6776 H 644.002 0.705967 2.45865 0
M  V30 6777 H 643.646 1.13619 4.95028 0
M  V30 6778 H 643.576 -0.62197 5.22914 0
M  V30 6779 H 646.067 -0.0430298 3.77876 0
M  V30 6780 H 646.38 0.537536 7.70928 0
M  V30 6781 H 644.725 0.476488 6.93365 0
M  V30 6782 H 647.916 0.0309561 4.6809 0
M  V30 6783 H 648.089 0.295471 6.47326 0
M  V30 6784 N 641.495 -1.56914 -0.146875 0
M  V30 6785 C 642.741 -1.83628 -0.860741 0
M  V30 6786 C 643.074 -0.708528 -1.80813 0
M  V30 6787 O 642.349 0.287838 -1.92358 0
M  V30 6788 C 642.632 -3.20836 -1.63511 0
M  V30 6789 C 642.485 -4.44174 -0.709199 0
M  V30 6790 C 643.804 -3.55268 -2.59756 0
M  V30 6791 H 640.923 -0.667949 -0.311468 0
M  V30 6792 H 643.565 -1.89582 -0.125936 0
M  V30 6793 H 641.715 -3.15891 -2.26153 0
M  V30 6794 H 643.387 -4.61205 -0.0937781 0
M  V30 6795 H 641.63 -4.33796 -0.0187856 0
M  V30 6796 H 642.301 -5.36785 -1.28707 0
M  V30 6797 H 644.777 -3.60824 -2.07232 0
M  V30 6798 H 643.653 -4.52303 -3.10987 0
M  V30 6799 H 643.914 -2.81231 -3.41118 0
M  V30 6800 N 642.974 0.416227 -1.52004 0
M  V30 6801 C 644.385 0.995319 -1.57957 0
M  V30 6802 C 644.736 1.91744 -0.415754 0
M  V30 6803 O 643.861 2.11349 0.464808 0
M  V30 6804 C 644.456 1.81191 -2.86278 0
M  V30 6805 C 643.015 2.34115 -2.94732 0
M  V30 6806 C 642.162 1.139 -2.52828 0
M  V30 6807 H 645.113 0.196716 -1.57476 0
M  V30 6808 H 645.134 2.66859 -2.71231 0
M  V30 6809 H 644.646 1.14051 -3.70963 0
M  V30 6810 H 642.747 3.04647 -2.14525 0
M  V30 6811 H 642.86 2.65466 -3.98829 0
M  V30 6812 H 641.224 1.49081 -2.06511 0
M  V30 6813 H 642.007 0.483383 -3.3988 0
M  V30 6814 N 644.452 1.42507 0.673017 0
M  V30 6815 C 645.382 1.48916 1.79851 0
M  V30 6816 C 646.363 0.345566 1.66553 0
M  V30 6817 O 647.548 0.560116 1.85947 0
M  V30 6818 C 644.678 1.39258 3.18158 0
M  V30 6819 C 643.632 2.51662 3.46194 0
M  V30 6820 C 642.958 2.27062 4.84094 0
M  V30 6821 C 644.258 3.93968 3.42909 0
M  V30 6822 H 645.952 2.43114 1.74745 0
M  V30 6823 H 643.498 1.17013 0.839288 0
M  V30 6824 H 645.451 1.42349 3.96629 0
M  V30 6825 H 644.175 0.415542 3.23946 0
M  V30 6826 H 642.834 2.47891 2.70084 0
M  V30 6827 H 642.482 1.27648 4.86534 0
M  V30 6828 H 642.182 3.02398 5.03815 0
M  V30 6829 H 643.706 2.31905 5.64847 0
M  V30 6830 H 645.12 3.99332 4.11347 0
M  V30 6831 H 643.517 4.6917 3.74165 0
M  V30 6832 H 644.587 4.20512 2.41449 0
M  V30 6833 N 645.93 -0.909495 1.28709 0
M  V30 6834 C 647.179 -1.65365 1.15487 0
M  V30 6835 C 647.492 -1.93364 -0.294941 0
M  V30 6836 O 648.698 -2.65905 -0.548338 0
M  V30 6837 C 647.154 -2.97923 2.01916 0
M  V30 6838 C 646.762 -2.77556 3.51663 0
M  V30 6839 C 648.506 -3.75814 1.97393 0
M  V30 6840 C 646.413 -4.0578 4.30229 0
M  V30 6841 H 645.343 -0.620323 0.42862 0
M  V30 6842 H 647.994 -1.00894 1.53273 0
M  V30 6843 H 646.376 -3.63552 1.5699 0
M  V30 6844 H 647.55 -2.2058 4.04575 0
M  V30 6845 H 645.865 -2.13072 3.57756 0
M  V30 6846 H 648.462 -4.70866 2.53357 0
M  V30 6847 H 648.805 -4.05277 0.951643 0
M  V30 6848 H 649.338 -3.1701 2.40311 0
M  V30 6849 H 646.077 -3.81488 5.33055 0
M  V30 6850 H 645.597 -4.62351 3.82089 0
M  V30 6851 H 647.276 -4.74004 4.40374 0
M  V30 6852 N 647.408 -1.11026 -1.11852 0
M  V30 6853 C 648.657 -0.851249 -1.82857 0
M  V30 6854 C 648.97 0.62514 -1.85341 0
M  V30 6855 O 650.176 1.00026 -2.52403 0
M  V30 6856 C 648.632 -1.47309 -3.28372 0
M  V30 6857 C 648.24 -2.9832 -3.34229 0
M  V30 6858 C 649.984 -1.29373 -4.04306 0
M  V30 6859 C 647.891 -3.53509 -4.74115 0
M  V30 6860 H 646.821 -0.314794 -0.685143 0
M  V30 6861 H 649.472 -1.33499 -1.25898 0
M  V30 6862 H 647.854 -0.917017 -3.85236 0
M  V30 6863 H 649.028 -3.60295 -2.87271 0
M  V30 6864 H 647.343 -3.15482 -2.71772 0
M  V30 6865 H 649.94 -1.68042 -5.07608 0
M  V30 6866 H 650.283 -0.235879 -4.15631 0
M  V30 6867 H 650.816 -1.8182 -3.53817 0
M  V30 6868 H 647.555 -4.58987 -4.67986 0
M  V30 6869 H 647.075 -2.96305 -5.21501 0
M  V30 6870 H 648.754 -3.51693 -5.43066 0
M  V30 6871 N 648.886 1.2938 -0.899927 0
M  V30 6872 C 650.111 2.00228 -0.540692 0
M  V30 6873 C 650.536 1.66909 0.867359 0
M  V30 6874 O 649.894 0.893824 1.57735 0
M  V30 6875 C 649.942 3.52921 -0.740232 0
M  V30 6876 O 649.046 4.11879 0.207154 0
M  V30 6877 H 648.387 0.629505 -0.211233 0
M  V30 6878 H 650.917 1.6487 -1.21158 0
M  V30 6879 H 650.927 4.0287 -0.644973 0
M  V30 6880 H 649.602 3.76508 -1.76677 0
M  V30 6881 H 648.179 3.72845 0.0643315 0
M  V30 6882 N 650.364 0.662433 1.43002 0
M  V30 6883 C 651.594 0.187343 2.05749 0
M  V30 6884 C 652.002 -1.15582 1.49791 0
M  V30 6885 O 651.345 -1.72651 0.627487 0
M  V30 6886 C 651.407 0.0316493 3.59486 0
M  V30 6887 C 651.071 1.30156 4.38073 0
M  V30 6888 C 652.068 2.23234 4.69535 0
M  V30 6889 C 649.753 1.54572 4.77926 0
M  V30 6890 C 651.747 3.39012 5.39768 0
M  V30 6891 C 649.434 2.70641 5.47902 0
M  V30 6892 C 650.432 3.62687 5.78746 0
M  V30 6893 O 650.12 4.76728 6.47291 0
M  V30 6894 H 649.852 0.0915214 0.669776 0
M  V30 6895 H 652.406 0.905982 1.8434 0
M  V30 6896 H 650.636 -0.742451 3.79506 0
M  V30 6897 H 652.325 -0.401977 4.03905 0
M  V30 6898 H 653.091 2.05616 4.39257 0
M  V30 6899 H 648.97 0.83804 4.53319 0
M  V30 6900 H 652.514 4.10877 5.63761 0
M  V30 6901 H 648.411 2.88189 5.77596 0
M  V30 6902 H 649.179 4.76113 6.65777 0
M  V30 6903 N 651.842 -1.52309 0.404946 0
M  V30 6904 C 653.258 -1.59503 0.0556255 0
M  V30 6905 C 653.458 -1.41805 -1.43156 0
M  V30 6906 O 652.514 -1.2429 -2.19792 0
M  V30 6907 C 653.827 -2.95687 0.546801 0
M  V30 6908 C 655.375 -3.08909 0.504413 0
M  V30 6909 C 655.85 -4.47566 0.97203 0
M  V30 6910 N 657.341 -4.53795 0.928679 0
M  V30 6911 C 658.076 -5.59346 1.26174 0
M  V30 6912 N 657.572 -6.72469 1.66604 0
M  V30 6913 N 659.365 -5.49532 1.18198 0
M  V30 6914 H 651.516 -1.6206 1.37296 0
M  V30 6915 H 653.779 -0.762161 0.563751 0
M  V30 6916 H 653.485 -3.13905 1.58609 0
M  V30 6917 H 653.359 -3.77172 -0.0457905 0
M  V30 6918 H 655.746 -2.90378 -0.525819 0
M  V30 6919 H 655.827 -2.2934 1.13301 0
M  V30 6920 H 655.471 -4.6684 2.00057 0
M  V30 6921 H 655.401 -5.25625 0.320292 0
M  V30 6922 H 657.892 -3.72588 0.631369 0
M  V30 6923 H 658.205 -7.48993 1.9034 0
M  V30 6924 H 656.55 -6.73761 1.70504 0
M  V30 6925 H 659.741 -4.60038 0.865011 0
M  V30 6926 H 659.914 -6.31687 1.44485 0
M  V30 6927 N 653.32 -0.135238 -1.57019 0
M  V30 6928 C 654.267 0.808908 -2.1616 0
M  V30 6929 C 655.237 1.25234 -1.09113 0
M  V30 6930 O 656.422 1.32697 -1.37099 0
M  V30 6931 C 653.562 2.04729 -2.77813 0
M  V30 6932 C 652.675 1.65074 -3.99218 0
M  V30 6933 C 651.81 2.84002 -4.48906 0
M  V30 6934 C 650.849 2.40663 -5.62803 0
M  V30 6935 N 649.986 3.5256 -6.07162 0
M  V30 6936 H 654.826 0.297751 -2.96509 0
M  V30 6937 H 652.363 0.135264 -1.46477 0
M  V30 6938 H 654.321 2.7731 -3.11697 0
M  V30 6939 H 652.951 2.53275 -2.00128 0
M  V30 6940 H 652.003 0.823029 -3.7139 0
M  V30 6941 H 653.315 1.29236 -4.81767 0
M  V30 6942 H 652.469 3.64788 -4.84783 0
M  V30 6943 H 651.208 3.23076 -3.65339 0
M  V30 6944 H 650.213 1.58314 -5.26514 0
M  V30 6945 H 651.438 2.02687 -6.48147 0
M  V30 6946 H 649.384 3.91278 -5.26534 0
M  V30 6947 H 649.301 3.20699 -6.84608 0
M  V30 6948 H 650.569 4.33738 -6.47682 0
M  V30 6949 N 654.798 1.5699 0.138552 0
M  V30 6950 C 656.046 1.83446 0.848053 0
M  V30 6951 C 656.367 0.71744 1.81322 0
M  V30 6952 O 655.637 -0.260228 1.94164 0
M  V30 6953 H 654.217 0.676792 0.316166 0
M  V30 6954 H 656.879 1.94462 0.130538 0
M  V30 6955 H 655.975 2.78677 1.40518 0
M  V30 6956 N 656.276 -0.40816 1.52223 0
M  V30 6957 C 657.206 -1.5042 1.78595 0
M  V30 6958 C 658.187 -1.57723 0.636974 0
M  V30 6959 O 659.372 -1.72982 0.882664 0
M  V30 6960 C 656.502 -2.88232 1.93751 0
M  V30 6961 C 655.456 -2.95779 3.09352 0
M  V30 6962 C 654.782 -4.35855 3.09732 0
M  V30 6963 C 656.082 -2.67175 4.48793 0
M  V30 6964 H 657.776 -1.28601 2.70374 0
M  V30 6965 H 655.322 -0.617221 1.30101 0
M  V30 6966 H 657.275 -3.64895 2.10783 0
M  V30 6967 H 655.999 -3.11347 0.986443 0
M  V30 6968 H 654.658 -2.21561 2.92072 0
M  V30 6969 H 654.306 -4.55981 2.12346 0
M  V30 6970 H 654.006 -4.41829 3.87377 0
M  V30 6971 H 655.53 -5.14451 3.28895 0
M  V30 6972 H 656.944 -3.3356 4.66273 0
M  V30 6973 H 655.341 -2.84523 5.28362 0
M  V30 6974 H 656.411 -1.62609 4.56822 0
M  V30 6975 N 657.755 -1.42862 -0.66545 0
M  V30 6976 C 658.702 -1.4707 -1.77874 0
M  V30 6977 C 659.672 -0.321654 -1.62956 0
M  V30 6978 O 660.857 -0.52707 -1.83376 0
M  V30 6979 C 657.997 -1.38788 -3.15962 0
M  V30 6980 C 657.11 -2.63801 -3.42101 0
M  V30 6981 C 656.245 -2.47594 -4.69969 0
M  V30 6982 C 655.284 -3.67936 -4.89172 0
M  V30 6983 N 654.421 -3.50614 -6.08288 0
M  V30 6984 H 659.261 -2.42204 -1.73613 0
M  V30 6985 H 656.798 -1.20239 -0.847401 0
M  V30 6986 H 658.756 -1.31982 -3.95773 0
M  V30 6987 H 657.386 -0.472431 -3.19324 0
M  V30 6988 H 656.438 -2.80935 -2.56475 0
M  V30 6989 H 657.75 -3.53228 -3.52181 0
M  V30 6990 H 656.904 -2.38427 -5.57886 0
M  V30 6991 H 655.643 -1.55672 -4.62188 0
M  V30 6992 H 654.648 -3.77525 -3.99694 0
M  V30 6993 H 655.873 -4.60851 -4.98792 0
M  V30 6994 H 653.819 -2.61417 -6.01662 0
M  V30 6995 H 653.736 -4.33634 -6.19272 0
M  V30 6996 H 655.004 -3.45276 -6.98859 0
M  V30 6997 N 659.233 0.902656 -1.29189 0
M  V30 6998 C 660.163 2.02294 -1.16616 0
M  V30 6999 C 661.144 1.6999 -0.0611175 0
M  V30 7000 O 662.329 1.9271 -0.240072 0
M  V30 7001 C 659.459 3.37018 -0.83882 0
M  V30 7002 C 658.413 3.83522 -1.89986 0
M  V30 7003 C 657.739 5.15337 -1.42589 0
M  V30 7004 C 659.039 4.04169 -3.30824 0
M  V30 7005 H 660.733 2.13071 -2.10336 0
M  V30 7006 H 658.279 1.02378 -1.01266 0
M  V30 7007 H 660.232 4.14895 -0.737584 0
M  V30 7008 H 658.956 3.26325 0.134071 0
M  V30 7009 H 657.615 3.07859 -1.99043 0
M  V30 7010 H 657.263 5.01056 -0.441759 0
M  V30 7011 H 656.963 5.47423 -2.13547 0
M  V30 7012 H 658.487 5.95758 -1.3381 0
M  V30 7013 H 659.901 4.72537 -3.24626 0
M  V30 7014 H 658.298 4.47604 -3.99713 0
M  V30 7015 H 659.368 3.08604 -3.74021 0
M  V30 7016 N 660.711 1.11618 1.11262 0
M  V30 7017 C 661.988 0.777876 1.79467 0
M  V30 7018 C 662.368 -0.733774 1.97937 0
M  V30 7019 O 661.716 -1.66443 1.56554 0
M  V30 7020 C 661.926 1.5431 3.13032 0
M  V30 7021 C 663.274 1.72357 3.88044 0
M  V30 7022 O 664.298 1.5075 3.22727 0
M  V30 7023 O 663.157 2.08276 5.05256 0
M  V30 7024 H 660.251 0.282018 0.777428 0
M  V30 7025 H 662.797 1.21971 1.17988 0
M  V30 7026 H 661.569 2.57132 2.94956 0
M  V30 7027 H 661.192 1.09495 3.82226 0
M  V30 7028 N 662.189 -1.289 0.906776 0
M  V30 7029 C 663.437 -1.94883 0.535266 0
M  V30 7030 C 663.758 -1.71784 -0.922791 0
M  V30 7031 O 663.028 -1.05359 -1.65156 0
M  V30 7032 H 661.608 -0.721109 0.194962 0
M  V30 7033 H 664.27 -1.57018 1.15461 0
M  V30 7034 H 663.366 -3.03591 0.723821 0
M  V30 7035 N 663.667 -0.670007 -1.42649 0
M  V30 7036 C 664.892 -0.196955 -2.06463 0
M  V30 7037 C 665.317 1.1352 -1.49983 0
M  V30 7038 O 664.675 1.705 -0.616397 0
M  V30 7039 C 664.723 -0.137381 -3.60338 0
M  V30 7040 O 663.827 0.895523 -4.02559 0
M  V30 7041 H 663.168 -0.102579 -0.656029 0
M  V30 7042 H 665.698 -0.917669 -1.82866 0
M  V30 7043 H 665.708 0.0403625 -4.0798 0
M  V30 7044 H 664.383 -1.10977 -4.0082 0
M  V30 7045 H 662.96 0.689209 -3.66476 0
M  V30 7046 N 665.145 1.52092 -0.413018 0
M  V30 7047 C 666.093 2.28681 0.425199 0
M  V30 7048 C 667.087 1.3353 1.04241 0
M  V30 7049 O 668.293 1.50973 0.980166 0
M  V30 7050 H 664.668 0.735661 0.155906 0
M  V30 7051 H 666.639 2.97418 -0.241926 0
M  V30 7052 C 665.388 3.1235 1.5275 0
M  V30 7053 H 664.711 3.85439 1.06191 0
M  V30 7054 H 666.151 3.69038 2.08774 0
M  V30 7055 C 664.61 2.26161 2.49706 0
M  V30 7056 O 665.14 1.90452 3.53682 0
M  V30 7057 N 663.346 1.89854 2.20008 0
M  V30 7058 H 662.893 2.19092 1.35486 0
M  V30 7059 H 662.851 1.3248 2.85125 0
M  V30 7060 N 666.623 0.143563 1.56945 0
M  V30 7061 C 668.034 -0.37783 1.82837 0
M  V30 7062 C 668.385 -1.64967 1.06209 0
M  V30 7063 O 667.51 -2.14221 0.306291 0
M  V30 7064 C 668.105 -0.692274 3.31652 0
M  V30 7065 C 666.664 -1.1582 3.58138 0
M  V30 7066 C 665.811 -0.17951 2.76718 0
M  V30 7067 H 668.762 0.368317 1.54367 0
M  V30 7068 H 668.783 -1.54729 3.47619 0
M  V30 7069 H 668.295 0.233572 3.87397 0
M  V30 7070 H 666.396 -2.10011 3.07776 0
M  V30 7071 H 666.509 -1.08655 4.66616 0
M  V30 7072 H 664.873 -0.671458 2.4569 0
M  V30 7073 H 665.656 0.739865 3.35233 0
M  V30 7074 N 668.101 -1.57061 -0.130224 0
M  V30 7075 C 669.329 -1.88432 -0.854456 0
M  V30 7076 C 669.744 -0.733608 -1.73964 0
M  V30 7077 O 669.101 0.296029 -1.80083 0
M  V30 7078 C 669.152 -3.1918 -1.69724 0
M  V30 7079 O 668.873 -4.2982 -0.847705 0
M  V30 7080 C 670.374 -3.6418 -2.5276 0
M  V30 7081 H 667.594 -0.624193 -0.246221 0
M  V30 7082 H 670.138 -2.04159 -0.11798 0
M  V30 7083 H 668.293 -3.05156 -2.3866 0
M  V30 7084 H 668.707 -5.04689 -1.42792 0
M  V30 7085 H 670.181 -4.58457 -3.07443 0
M  V30 7086 H 670.658 -2.90285 -3.29592 0
M  V30 7087 H 671.264 -3.80954 -1.89087 0
M  V30 7088 N 669.579 0.400081 -1.52437 0
M  V30 7089 C 670.828 1.14332 -1.66166 0
M  V30 7090 C 671.141 1.91419 -0.402253 0
M  V30 7091 O 672.347 2.6824 -0.419487 0
M  V30 7092 C 670.803 2.08137 -2.9361 0
M  V30 7093 C 670.411 1.36524 -4.26691 0
M  V30 7094 C 672.155 2.82664 -3.16703 0
M  V30 7095 C 670.062 2.29031 -5.45251 0
M  V30 7096 H 668.992 0.430499 -0.61902 0
M  V30 7097 H 671.643 0.407017 -1.78929 0
M  V30 7098 H 670.025 2.85358 -2.74567 0
M  V30 7099 H 671.199 0.646061 -4.56249 0
M  V30 7100 H 669.514 0.74002 -4.09771 0
M  V30 7101 H 672.111 3.52037 -4.0246 0
M  V30 7102 H 672.454 3.46122 -2.31312 0
M  V30 7103 H 672.987 2.12541 -3.36261 0
M  V30 7104 H 669.726 1.70206 -6.33017 0
M  V30 7105 H 669.246 2.98896 -5.2002 0
M  V30 7106 H 670.925 2.89359 -5.78689 0
M  V30 7107 N 671.057 1.43213 0.657864 0
M  V30 7108 C 671.987 1.50815 1.78262 0
M  V30 7109 C 672.968 0.363211 1.66177 0
M  V30 7110 O 674.153 0.579806 1.85343 0
M  V30 7111 C 671.283 1.42625 3.16663 0
M  V30 7112 C 670.237 2.5532 3.43505 0
M  V30 7113 C 669.563 2.32184 4.81658 0
M  V30 7114 C 670.863 3.97583 3.38711 0
M  V30 7115 H 672.557 2.44954 1.72157 0
M  V30 7116 H 670.103 1.17896 0.82683 0
M  V30 7117 H 672.056 1.46548 3.95097 0
M  V30 7118 H 670.78 0.449877 3.23487 0
M  V30 7119 H 669.439 2.50742 2.6744 0
M  V30 7120 H 669.087 1.32801 4.85153 0
M  V30 7121 H 668.787 3.07724 5.00579 0
M  V30 7122 H 670.311 2.37883 5.62356 0
M  V30 7123 H 671.725 4.03673 4.07089 0
M  V30 7124 H 670.122 4.73112 3.69168 0
M  V30 7125 H 671.192 4.23049 2.36976 0
M  V30 7126 N 672.536 -0.895792 1.29666 0
M  V30 7127 C 673.766 -1.67757 1.20586 0
M  V30 7128 C 674.174 -1.87729 -0.235432 0
M  V30 7129 O 673.517 -1.41706 -1.16898 0
M  V30 7130 C 673.579 -3.08117 1.85215 0
M  V30 7131 C 673.243 -3.1136 3.3452 0
M  V30 7132 C 674.24 -2.91217 4.30684 0
M  V30 7133 C 671.925 -3.33302 3.75786 0
M  V30 7134 C 673.919 -2.92955 5.66089 0
M  V30 7135 C 671.606 -3.3467 5.11311 0
M  V30 7136 C 672.604 -3.14519 6.06273 0
M  V30 7137 O 672.292 -3.15684 7.39323 0
M  V30 7138 H 672.024 -0.530601 0.418854 0
M  V30 7139 H 674.578 -1.12831 1.71634 0
M  V30 7140 H 672.808 -3.64661 1.28683 0
M  V30 7141 H 674.497 -3.68399 1.70403 0
M  V30 7142 H 675.263 -2.74074 4.00136 0
M  V30 7143 H 671.142 -3.48025 3.02324 0
M  V30 7144 H 674.686 -2.77145 6.40185 0
M  V30 7145 H 670.583 -3.51346 5.41504 0
M  V30 7146 H 671.351 -3.31924 7.48177 0
M  V30 7147 N 674.014 -1.12206 -1.10668 0
M  V30 7148 C 675.262 -0.874144 -1.82217 0
M  V30 7149 C 675.583 0.601736 -1.85484 0
M  V30 7150 O 674.853 1.43725 -1.33116 0
M  V30 7151 H 673.433 -0.320404 -0.674797 0
M  V30 7152 H 676.095 -1.41606 -1.33917 0
M  V30 7153 H 675.191 -1.25349 -2.85822 0
M  V30 7154 N 675.492 1.28418 -0.913599 0
M  V30 7155 C 676.722 1.98817 -0.56172 0
M  V30 7156 C 677.13 1.68457 0.861321 0
M  V30 7157 O 676.473 0.933653 1.58204 0
M  V30 7158 C 676.535 3.52801 -0.690785 0
M  V30 7159 C 676.199 4.0675 -2.08334 0
M  V30 7160 C 677.196 4.20597 -3.05604 0
M  V30 7161 C 674.881 4.41445 -2.39648 0
M  V30 7162 C 676.875 4.68392 -4.32305 0
M  V30 7163 C 674.562 4.88934 -3.66588 0
M  V30 7164 C 675.56 5.02364 -4.6273 0
M  V30 7165 O 675.248 5.48817 -5.87414 0
M  V30 7166 H 674.98 0.641608 -0.212874 0
M  V30 7167 H 677.534 1.64584 -1.22887 0
M  V30 7168 H 675.764 3.86686 0.0334336 0
M  V30 7169 H 677.453 4.04422 -0.346031 0
M  V30 7170 H 678.219 3.94067 -2.8273 0
M  V30 7171 H 674.098 4.30242 -1.65567 0
M  V30 7172 H 677.642 4.7879 -5.07352 0
M  V30 7173 H 673.539 5.14904 -3.89287 0
M  V30 7174 H 674.307 5.67103 -5.90201 0
M  V30 7175 N 676.97 0.677563 1.42291 0
M  V30 7176 C 678.218 0.200578 2.01102 0
M  V30 7177 C 678.539 -1.19803 1.53858 0
M  V30 7178 O 677.809 -1.80496 0.761439 0
M  V30 7179 H 676.389 0.0711634 0.743603 0
M  V30 7180 H 679.051 0.874691 1.7417 0
M  V30 7181 H 678.147 0.204 3.11433 0
M  V30 7182 N 678.448 -1.51871 0.421078 0
M  V30 7183 C 679.696 -2.01539 -0.150492 0
M  V30 7184 C 680.017 -1.30803 -1.44623 0
M  V30 7185 O 679.287 -0.437568 -1.90951 0
M  V30 7186 H 677.867 -0.744698 -0.0586041 0
M  V30 7187 H 680.529 -1.8668 0.560059 0
M  V30 7188 H 679.625 -3.10264 -0.338068 0
M  V30 7189 N 679.926 -0.151884 -1.56866 0
M  V30 7190 C 681.173 0.498004 -1.96281 0
M  V30 7191 C 681.501 1.64551 -1.03698 0
M  V30 7192 O 680.756 1.95585 -0.0671497 0
M  V30 7193 C 681.055 1.04074 -3.41911 0
M  V30 7194 C 680.721 0.0111688 -4.50899 0
M  V30 7195 C 679.383 -0.271844 -4.80432 0
M  V30 7196 C 681.735 -0.68869 -5.1663 0
M  V30 7197 C 679.063 -1.26044 -5.73001 0
M  V30 7198 C 681.415 -1.66613 -6.10264 0
M  V30 7199 C 680.079 -1.9568 -6.38174 0
M  V30 7200 H 679.349 0.182233 -0.718242 0
M  V30 7201 H 681.996 -0.239746 -1.89993 0
M  V30 7202 H 680.301 1.85592 -3.45055 0
M  V30 7203 H 681.998 1.55224 -3.69738 0
M  V30 7204 H 678.588 0.241932 -4.27917 0
M  V30 7205 H 682.772 -0.48324 -4.93942 0
M  V30 7206 H 678.028 -1.49202 -5.92915 0
M  V30 7207 H 682.202 -2.21392 -6.60272 0
M  V30 7208 H 679.829 -2.72434 -7.09707 0
M  V30 7209 N 681.404 1.57128 0.121893 0
M  V30 7210 C 682.681 1.75664 0.860327 0
M  V30 7211 C 683.061 0.726585 1.98202 0
M  V30 7212 O 682.409 -0.24999 2.27128 0
M  V30 7213 C 682.619 3.20571 1.37968 0
M  V30 7214 C 683.967 3.82988 1.83317 0
M  V30 7215 O 684.991 3.24156 1.47654 0
M  V30 7216 O 683.85 4.86393 2.49168 0
M  V30 7217 H 680.944 0.719153 0.408348 0
M  V30 7218 H 683.49 1.6937 0.105859 0
M  V30 7219 H 682.262 3.87056 0.57477 0
M  V30 7220 H 681.885 3.31392 2.19694 0
M  V30 7221 N 682.882 -0.391992 1.52647 0
M  V30 7222 C 684.128 -1.139 1.67793 0
M  V30 7223 C 684.461 -1.89711 0.41514 0
M  V30 7224 O 683.736 -1.85431 -0.586979 0
M  V30 7225 C 684.019 -2.11966 2.91105 0
M  V30 7226 C 683.872 -1.39939 4.27478 0
M  V30 7227 C 685.191 -3.1243 3.09961 0
M  V30 7228 H 682.31 -0.412707 0.610608 0
M  V30 7229 H 684.952 -0.422725 1.85238 0
M  V30 7230 H 683.102 -2.73048 2.76364 0
M  V30 7231 H 684.774 -0.818439 4.53982 0
M  V30 7232 H 683.017 -0.701246 4.28095 0
M  V30 7233 H 683.688 -2.1158 5.09841 0
M  V30 7234 H 686.164 -2.61435 3.23714 0
M  V30 7235 H 685.04 -3.78294 3.97725 0
M  V30 7236 H 685.301 -3.81127 2.24042 0
M  V30 7237 N 684.36 -1.4356 -0.65026 0
M  V30 7238 C 685.585 -1.48995 -1.44275 0
M  V30 7239 C 686.01 -0.109954 -1.87778 0
M  V30 7240 O 685.368 0.896926 -1.57559 0
M  V30 7241 C 685.416 -2.44341 -2.65198 0
M  V30 7242 O 684.52 -1.93172 -3.6436 0
M  V30 7243 H 683.861 -0.503852 -0.432469 0
M  V30 7244 H 686.391 -1.88504 -0.795446 0
M  V30 7245 H 686.401 -2.61743 -3.12977 0
M  V30 7246 H 685.076 -3.44588 -2.32877 0
M  V30 7247 H 683.653 -1.85445 -3.23519 0
M  V30 7248 N 685.838 0.888903 -1.30139 0
M  V30 7249 C 686.768 2.01046 -1.18755 0
M  V30 7250 C 687.749 1.69916 -0.0791438 0
M  V30 7251 O 688.934 1.92445 -0.260498 0
M  V30 7252 C 686.064 3.36109 -0.874518 0
M  V30 7253 C 685.018 3.81486 -1.94043 0
M  V30 7254 C 684.344 5.13796 -1.48047 0
M  V30 7255 C 685.644 4.00637 -3.35093 0
M  V30 7256 H 687.338 2.10828 -2.12584 0
M  V30 7257 H 684.884 1.01298 -1.02346 0
M  V30 7258 H 686.837 4.14089 -0.781548 0
M  V30 7259 H 685.561 3.26449 0.0994519 0
M  V30 7260 H 684.22 3.05731 -2.02297 0
M  V30 7261 H 683.868 5.0056 -0.494878 0
M  V30 7262 H 683.568 5.45127 -2.19341 0
M  V30 7263 H 685.092 5.94305 -1.40121 0
M  V30 7264 H 686.506 4.69067 -3.2962 0
M  V30 7265 H 684.903 4.43339 -4.04438 0
M  V30 7266 H 685.973 3.0462 -3.77273 0
M  V30 7267 N 687.317 1.12792 1.10072 0
M  V30 7268 C 688.545 0.908506 1.85886 0
M  V30 7269 C 688.96 -0.542408 1.80841 0
M  V30 7270 O 688.317 -1.37517 1.1998 0
M  V30 7271 C 688.368 1.37973 3.34134 0
M  V30 7272 O 688.089 2.77378 3.39106 0
M  V30 7273 C 689.59 1.1978 4.26811 0
M  V30 7274 H 686.81 0.3244 0.587372 0
M  V30 7275 H 689.354 1.49882 1.39125 0
M  V30 7276 H 687.509 0.832566 3.78348 0
M  V30 7277 H 687.923 2.98144 4.31521 0
M  V30 7278 H 689.397 1.57635 5.29014 0
M  V30 7279 H 689.874 0.138768 4.38981 0
M  V30 7280 H 690.48 1.73266 3.88406 0
M  V30 7281 N 688.795 -1.27931 0.920396 0
M  V30 7282 C 690.206 -1.76707 0.602616 0
M  V30 7283 C 690.557 -1.75249 -0.882159 0
M  V30 7284 O 689.682 -1.35135 -1.69019 0
M  V30 7285 C 690.277 -3.20884 1.08714 0
M  V30 7286 C 688.836 -3.67356 0.820157 0
M  V30 7287 C 687.983 -2.47525 1.25006 0
M  V30 7288 H 690.934 -1.14301 1.10095 0
M  V30 7289 H 690.955 -3.78045 0.431535 0
M  V30 7290 H 690.467 -3.21913 2.1678 0
M  V30 7291 H 688.568 -3.7178 -0.247012 0
M  V30 7292 H 688.681 -4.57181 1.43257 0
M  V30 7293 H 687.045 -2.45765 0.668698 0
M  V30 7294 H 687.828 -2.51269 2.3392 0
M  V30 7295 N 690.273 -0.685099 -1.4193 0
M  V30 7296 C 691.498 -0.218842 -2.06242 0
M  V30 7297 C 691.923 1.11923 -1.51178 0
M  V30 7298 O 691.281 1.69837 -0.634446 0
M  V30 7299 C 691.329 -0.175592 -3.60172 0
M  V30 7300 O 690.433 0.852776 -4.03487 0
M  V30 7301 H 689.774 -0.109531 -0.654904 0
M  V30 7302 H 692.304 -0.937013 -1.81882 0
M  V30 7303 H 692.314 -0.00291151 -4.08 0
M  V30 7304 H 690.989 -1.15222 -3.99621 0
M  V30 7305 H 689.566 0.650301 -3.67186 0
M  V30 7306 N 691.751 1.51645 -0.429126 0
M  V30 7307 C 692.998 2.02015 0.140079 0
M  V30 7308 C 693.326 1.31374 1.43427 0
M  V30 7309 O 692.581 0.414779 1.91254 0
M  V30 7310 C 692.88 3.54989 0.414472 0
M  V30 7311 C 692.546 4.43874 -0.792911 0
M  V30 7312 C 691.208 4.67887 -1.12404 0
M  V30 7313 C 693.56 4.96074 -1.59875 0
M  V30 7314 C 690.888 5.41348 -2.26184 0
M  V30 7315 C 693.24 5.70782 -2.72747 0
M  V30 7316 C 691.904 5.93062 -3.06324 0
M  V30 7317 H 691.174 0.739225 0.0512585 0
M  V30 7318 H 693.821 1.82675 -0.574641 0
M  V30 7319 H 692.126 3.72615 1.21099 0
M  V30 7320 H 693.823 3.91489 0.868173 0
M  V30 7321 H 690.413 4.25374 -0.524871 0
M  V30 7322 H 694.597 4.77412 -1.35614 0
M  V30 7323 H 689.853 5.56815 -2.52522 0
M  V30 7324 H 694.027 6.10221 -3.35564 0
M  V30 7325 H 691.654 6.49764 -3.94602 0
M  V30 7326 N 693.229 0.160201 1.56784 0
M  V30 7327 C 694.454 -0.497373 2.01348 0
M  V30 7328 C 694.879 -1.56757 1.03966 0
M  V30 7329 O 694.237 -1.81292 0.0174455 0
M  V30 7330 C 694.285 -1.0628 3.44582 0
M  V30 7331 O 693.389 -2.17723 3.50244 0
M  V30 7332 H 692.73 -0.120295 0.653012 0
M  V30 7333 H 695.26 0.260821 2.02931 0
M  V30 7334 H 695.27 -1.38819 3.83658 0
M  V30 7335 H 693.945 -0.279166 4.14962 0
M  V30 7336 H 692.522 -1.86313 3.2302 0
M  V30 7337 N 694.707 -1.5719 -0.113559 0
M  V30 7338 C 695.953 -1.85412 -0.821597 0
M  V30 7339 C 696.286 -0.746722 -1.7927 0
M  V30 7340 O 695.561 0.246971 -1.92926 0
M  V30 7341 C 695.844 -3.24233 -1.56669 0
M  V30 7342 C 695.697 -4.45578 -0.614823 0
M  V30 7343 C 697.016 -3.60697 -2.52161 0
M  V30 7344 H 694.135 -0.674406 -0.29723 0
M  V30 7345 H 696.777 -1.89807 -0.085694 0
M  V30 7346 H 694.927 -3.20617 -2.19401 0
M  V30 7347 H 696.599 -4.613 0.00407137 0
M  V30 7348 H 694.842 -4.33738 0.0732332 0
M  V30 7349 H 695.513 -5.39395 -1.17292 0
M  V30 7350 H 697.989 -3.65139 -1.99532 0
M  V30 7351 H 696.865 -4.58798 -3.01323 0
M  V30 7352 H 697.126 -2.88403 -3.35076 0
M  V30 7353 N 696.185 0.383891 -1.52853 0
M  V30 7354 C 697.41 1.154 -1.7233 0
M  V30 7355 C 697.835 1.82809 -0.44298 0
M  V30 7356 O 697.193 1.71026 0.601645 0
M  V30 7357 C 697.241 2.17386 -2.87708 0
M  V30 7358 O 696.345 3.24082 -2.55038 0
M  V30 7359 H 695.686 0.335709 -0.572883 0
M  V30 7360 H 698.216 0.44662 -1.99666 0
M  V30 7361 H 698.226 2.61296 -3.1335 0
M  V30 7362 H 696.901 1.6771 -3.80587 0
M  V30 7363 H 695.478 2.85273 -2.40153 0
M  V30 7364 N 697.663 1.43903 0.642637 0
M  V30 7365 C 698.909 1.46296 1.40447 0
M  V30 7366 C 699.242 0.0908361 1.93987 0
M  V30 7367 O 698.517 -0.889884 1.72949 0
M  V30 7368 C 698.8 2.51399 2.57819 0
M  V30 7369 C 698.653 3.97926 2.09702 0
M  V30 7370 C 699.972 2.53125 3.60022 0
M  V30 7371 H 697.091 0.532676 0.509338 0
M  V30 7372 H 699.733 1.75515 0.727635 0
M  V30 7373 H 697.883 2.26614 3.1556 0
M  V30 7374 H 699.555 4.33804 1.5688 0
M  V30 7375 H 697.798 4.10252 1.40982 0
M  V30 7376 H 698.469 4.67096 2.94152 0
M  V30 7377 H 700.945 2.75242 3.12059 0
M  V30 7378 H 699.821 3.28589 4.39682 0
M  V30 7379 H 700.082 1.56895 4.13324 0
M  V30 7380 N 699.141 -0.881989 1.30609 0
M  V30 7381 C 700.104 -1.96957 1.1722 0
M  V30 7382 C 701.104 -1.60472 0.102598 0
M  V30 7383 O 702.294 -1.70628 0.350943 0
M  V30 7384 C 699.426 -3.31463 0.796572 0
M  V30 7385 H 700.619 -2.10262 2.13846 0
M  V30 7386 H 698.172 -1.06877 1.14048 0
M  V30 7387 H 698.907 -3.23859 -0.169053 0
M  V30 7388 H 698.692 -3.59314 1.56959 0
M  V30 7389 H 700.182 -4.11233 0.72645 0
M  V30 7390 N 700.619 -1.13374 -1.09472 0
M  V30 7391 C 701.567 -0.806105 -2.18185 0
M  V30 7392 C 702.561 0.21136 -1.68076 0
M  V30 7393 O 703.767 0.0685558 -1.79869 0
M  V30 7394 H 700.142 -0.242901 -0.71169 0
M  V30 7395 H 702.113 -1.73115 -2.43051 0
M  V30 7396 C 700.862 -0.287928 -3.46506 0
M  V30 7397 H 700.185 -1.06217 -3.85432 0
M  V30 7398 H 701.625 -0.0971054 -4.23889 0
M  V30 7399 C 700.084 0.986256 -3.22141 0
M  V30 7400 O 700.614 2.06217 -3.44728 0
M  V30 7401 N 698.82 0.917153 -2.75747 0
M  V30 7402 H 698.367 0.0414609 -2.57567 0
M  V30 7403 H 698.325 1.77029 -2.59823 0
M  V30 7404 N 702.098 1.27442 -0.927168 0
M  V30 7405 C 703.344 1.95025 -0.577651 0
M  V30 7406 C 703.699 1.71534 0.871421 0
M  V30 7407 O 702.992 1.03354 1.61333 0
M  V30 7408 C 703.186 3.47413 -0.838994 0
M  V30 7409 C 703.015 3.85721 -2.31192 0
M  V30 7410 C 701.785 4.09199 -2.96452 0
M  V30 7411 C 703.983 3.95352 -3.28939 0
M  V30 7412 N 701.965 4.34283 -4.33903 0
M  V30 7413 C 703.336 4.24805 -4.51598 0
M  V30 7414 C 705.391 3.77926 -3.24155 0
M  V30 7415 C 704.094 4.38645 -5.70073 0
M  V30 7416 C 706.12 3.9299 -4.41942 0
M  V30 7417 C 705.482 4.22829 -5.63379 0
M  V30 7418 H 701.581 0.736983 -0.261495 0
M  V30 7419 H 704.165 1.53816 -1.19368 0
M  V30 7420 H 702.336 3.87581 -0.252129 0
M  V30 7421 H 704.068 4.02166 -0.452158 0
M  V30 7422 H 700.823 4.04013 -2.47125 0
M  V30 7423 H 701.247 4.50883 -5.05008 0
M  V30 7424 H 705.889 3.53897 -2.31337 0
M  V30 7425 H 703.607 4.615 -6.63358 0
M  V30 7426 H 707.193 3.80926 -4.39757 0
M  V30 7427 H 706.073 4.34234 -6.53001 0
M  V30 7428 N 703.576 0.692616 1.41565 0
M  V30 7429 C 704.506 0.0397325 2.33466 0
M  V30 7430 C 705.487 -0.770334 1.51657 0
M  V30 7431 O 706.672 -0.723903 1.80203 0
M  V30 7432 C 703.802 -0.899495 3.3545 0
M  V30 7433 C 702.756 -0.196738 4.27548 0
M  V30 7434 C 702.082 -1.25012 5.19881 0
M  V30 7435 C 703.382 0.935158 5.1386 0
M  V30 7436 H 705.076 0.807296 2.88311 0
M  V30 7437 H 702.622 0.389665 1.38628 0
M  V30 7438 H 704.575 -1.36545 3.98665 0
M  V30 7439 H 703.299 -1.69869 2.78948 0
M  V30 7440 H 701.958 0.249158 3.65752 0
M  V30 7441 H 701.606 -2.04177 4.59696 0
M  V30 7442 H 701.306 -0.784931 5.82334 0
M  V30 7443 H 702.83 -1.71665 5.85972 0
M  V30 7444 H 704.244 0.549619 5.70659 0
M  V30 7445 H 702.641 1.32726 5.85238 0
M  V30 7446 H 703.711 1.77613 4.512 0
M  V30 7447 N 705.054 -1.51416 0.437162 0
M  V30 7448 C 706.331 -1.94682 -0.189292 0
M  V30 7449 C 706.711 -1.37581 -1.60108 0
M  V30 7450 O 706.059 -0.562815 -2.2146 0
M  V30 7451 C 706.269 -3.48599 -0.167201 0
M  V30 7452 C 707.617 -4.2296 -0.372856 0
M  V30 7453 O 708.641 -3.55354 -0.245323 0
M  V30 7454 O 707.5 -5.42895 -0.626693 0
M  V30 7455 H 704.594 -0.816708 -0.130063 0
M  V30 7456 H 707.14 -1.62316 0.495128 0
M  V30 7457 H 705.912 -3.82616 0.81981 0
M  V30 7458 H 705.535 -3.87406 -0.894537 0
M  V30 7459 N 706.532 -0.168513 -1.56696 0
M  V30 7460 C 707.462 0.758563 -2.20835 0
M  V30 7461 C 708.443 1.24121 -1.1631 0
M  V30 7462 O 709.628 1.29487 -1.4473 0
M  V30 7463 C 706.758 1.9892 -2.8469 0
M  V30 7464 C 705.712 1.64252 -3.95228 0
M  V30 7465 C 705.038 2.94757 -4.46119 0
M  V30 7466 C 706.338 0.872675 -5.14958 0
M  V30 7467 H 708.032 0.223953 -2.98561 0
M  V30 7468 H 705.578 0.106277 -1.43607 0
M  V30 7469 H 707.531 2.64275 -3.28233 0
M  V30 7470 H 706.255 2.5479 -2.04327 0
M  V30 7471 H 704.914 1.01266 -3.52336 0
M  V30 7472 H 704.562 3.48662 -3.62552 0
M  V30 7473 H 704.262 2.72316 -5.2069 0
M  V30 7474 H 705.786 3.61147 -4.92347 0
M  V30 7475 H 707.2 1.42875 -5.55211 0
M  V30 7476 H 705.597 0.747402 -5.95428 0
M  V30 7477 H 706.667 -0.131535 -4.84722 0
M  V30 7478 N 708.01 1.57248 0.105221 0
M  V30 7479 C 709.258 1.85204 0.808951 0
M  V30 7480 C 709.579 0.75574 1.7976 0
M  V30 7481 O 708.849 -0.218984 1.94672 0
M  V30 7482 H 707.429 0.683346 0.301739 0
M  V30 7483 H 710.091 1.94695 0.0892605 0
M  V30 7484 H 709.187 2.81595 1.34575 0
M  V30 7485 N 709.488 -0.375779 1.53054 0
M  V30 7486 C 710.736 -1.11727 1.68409 0
M  V30 7487 C 711.057 -1.90127 0.43323 0
M  V30 7488 O 710.327 -1.87945 -0.552595 0
M  V30 7489 H 708.907 -0.415451 0.620813 0
M  V30 7490 H 711.569 -0.424869 1.90213 0
M  V30 7491 H 710.665 -1.8128 2.54055 0
M  V30 7492 N 710.966 -1.44241 -0.634997 0
M  V30 7493 C 712.212 -1.47038 -1.39669 0
M  V30 7494 C 712.545 -0.101122 -1.93937 0
M  V30 7495 O 711.82 0.880699 -1.73418 0
M  V30 7496 C 712.103 -2.52763 -2.56482 0
M  V30 7497 C 711.956 -3.99032 -2.07589 0
M  V30 7498 C 713.275 -2.55031 -3.58674 0
M  V30 7499 H 710.394 -0.53537 -0.506506 0
M  V30 7500 H 713.036 -1.75898 -0.718317 0
M  V30 7501 H 711.186 -2.28284 -3.14354 0
M  V30 7502 H 712.858 -4.3463 -1.54577 0
M  V30 7503 H 711.101 -4.10994 -1.38804 0
M  V30 7504 H 711.772 -4.68649 -2.91671 0
M  V30 7505 H 714.248 -2.76893 -3.10595 0
M  V30 7506 H 713.124 -3.30916 -4.37934 0
M  V30 7507 H 713.385 -1.59085 -4.12486 0
M  V30 7508 N 712.444 0.87505 -1.31075 0
M  V30 7509 C 713.674 1.65818 -1.2324 0
M  V30 7510 C 714.082 1.8808 0.205536 0
M  V30 7511 O 713.425 1.43548 1.14628 0
M  V30 7512 C 713.487 3.05131 -1.90093 0
M  V30 7513 C 713.151 3.05999 -3.39432 0
M  V30 7514 C 714.148 2.84328 -4.35263 0
M  V30 7515 C 711.833 3.27281 -3.81041 0
M  V30 7516 C 713.827 2.83912 -5.70678 0
M  V30 7517 C 711.514 3.26493 -5.16571 0
M  V30 7518 C 712.512 3.04834 -6.112 0
M  V30 7519 O 712.2 3.03882 -7.44252 0
M  V30 7520 H 711.932 0.52387 -0.427242 0
M  V30 7521 H 714.486 1.10086 -1.73408 0
M  V30 7522 H 712.716 3.62568 -1.34468 0
M  V30 7523 H 714.405 3.65641 -1.76242 0
M  V30 7524 H 715.171 2.67673 -4.04445 0
M  V30 7525 H 711.05 3.43171 -3.07822 0
M  V30 7526 H 714.594 2.66925 -6.44513 0
M  V30 7527 H 710.491 3.42687 -5.47025 0
M  V30 7528 H 711.259 3.19979 -7.53363 0
M  V30 7529 N 713.922 1.13953 1.08869 0
M  V30 7530 C 714.885 0.824991 2.13838 0
M  V30 7531 C 715.885 -0.168198 1.59918 0
M  V30 7532 O 717.075 0.0595778 1.74098 0
M  V30 7533 C 714.207 0.228938 3.4013 0
M  V30 7534 H 715.4 1.75521 2.43171 0
M  V30 7535 H 712.953 0.94492 1.24503 0
M  V30 7536 H 713.688 -0.710227 3.16427 0
M  V30 7537 H 713.473 0.944243 3.80561 0
M  V30 7538 H 714.963 0.0259223 4.17592 0
M  V30 7539 N 715.4 -1.26948 0.933913 0
M  V30 7540 C 716.646 -1.94374 0.57848 0
M  V30 7541 C 716.979 -1.73166 -0.879048 0
M  V30 7542 O 716.254 -1.06438 -1.62792 0
M  V30 7543 C 716.537 -3.4834 0.912739 0
M  V30 7544 C 716.39 -3.78866 2.42448 0
M  V30 7545 C 717.709 -4.38062 0.423003 0
M  V30 7546 H 714.828 -0.705959 0.211639 0
M  V30 7547 H 717.47 -1.49951 1.16682 0
M  V30 7548 H 715.62 -3.86309 0.412058 0
M  V30 7549 H 717.292 -3.50654 2.99733 0
M  V30 7550 H 715.535 -3.25198 2.87104 0
M  V30 7551 H 716.206 -4.86458 2.60887 0
M  V30 7552 H 718.682 -4.0728 0.852191 0
M  V30 7553 H 717.558 -5.44599 0.685776 0
M  V30 7554 H 717.819 -4.36886 -0.676994 0
M  V30 7555 N 716.879 -0.700114 -1.41195 0
M  V30 7556 C 717.842 -0.0465706 -2.29153 0
M  V30 7557 C 718.842 0.703302 -1.44604 0
M  V30 7558 O 720.032 0.537513 -1.657 0
M  V30 7559 C 717.164 0.944324 -3.2756 0
M  V30 7560 H 718.357 -0.821064 -2.88442 0
M  V30 7561 H 715.91 -0.463869 -1.49258 0
M  V30 7562 H 716.645 1.74642 -2.73259 0
M  V30 7563 H 716.43 0.409701 -3.89954 0
M  V30 7564 H 717.92 1.39925 -3.9346 0
M  V30 7565 N 718.357 1.51182 -0.445186 0
M  V30 7566 C 719.305 2.29531 0.376597 0
M  V30 7567 C 720.299 1.35711 1.01385 0
M  V30 7568 O 721.505 1.53018 0.947922 0
M  V30 7569 H 717.88 0.738803 0.140267 0
M  V30 7570 H 719.851 2.96838 -0.304958 0
M  V30 7571 C 718.6 3.1552 1.4609 0
M  V30 7572 H 717.923 3.87605 0.979912 0
M  V30 7573 H 719.363 3.73384 2.009 0
M  V30 7574 C 717.822 2.31406 2.44852 0
M  V30 7575 O 718.352 1.97912 3.49562 0
M  V30 7576 N 716.558 1.94478 2.15932 0
M  V30 7577 H 716.105 2.21917 1.30808 0
M  V30 7578 H 716.063 1.38498 2.82251 0
M  V30 7579 N 719.835 0.176821 1.56605 0
M  V30 7580 C 720.765 -0.746841 2.21234 0
M  V30 7581 C 721.746 -1.23502 1.16967 0
M  V30 7582 O 722.931 -1.28718 1.45414 0
M  V30 7583 C 720.061 -1.97407 2.8574 0
M  V30 7584 C 719.015 -1.62153 3.96094 0
M  V30 7585 C 718.341 -2.92387 4.47676 0
M  V30 7586 C 719.641 -0.845353 5.15413 0
M  V30 7587 H 721.335 -0.208116 2.98676 0
M  V30 7588 H 718.881 -0.0986594 1.43662 0
M  V30 7589 H 720.834 -2.62531 3.2963 0
M  V30 7590 H 719.558 -2.53703 2.05676 0
M  V30 7591 H 718.217 -0.993964 3.52868 0
M  V30 7592 H 717.865 -3.46734 3.64396 0
M  V30 7593 H 717.565 -2.69551 5.22127 0
M  V30 7594 H 719.089 -3.5853 4.94255 0
M  V30 7595 H 720.503 -1.39929 5.55961 0
M  V30 7596 H 718.9 -0.715814 5.95815 0
M  V30 7597 H 719.97 0.157239 4.84645 0
M  V30 7598 N 721.313 -1.57302 -0.09688 0
M  V30 7599 C 722.729 -1.53094 -0.451041 0
M  V30 7600 C 722.929 -0.893265 -1.80618 0
M  V30 7601 O 721.985 -0.485013 -2.47798 0
M  V30 7602 C 723.298 -2.9782 -0.415172 0
M  V30 7603 C 724.846 -3.09026 -0.497155 0
M  V30 7604 C 725.321 -4.55356 -0.491452 0
M  V30 7605 N 726.812 -4.59896 -0.552258 0
M  V30 7606 C 727.547 -5.70563 -0.569654 0
M  V30 7607 N 727.043 -6.90666 -0.543365 0
M  V30 7608 N 728.836 -5.58733 -0.614331 0
M  V30 7609 H 720.987 -1.97131 0.790771 0
M  V30 7610 H 723.25 -0.901211 0.294147 0
M  V30 7611 H 722.956 -3.47933 0.513362 0
M  V30 7612 H 722.83 -3.56416 -1.23481 0
M  V30 7613 H 725.217 -2.58902 -1.41611 0
M  V30 7614 H 725.298 -2.53386 0.35059 0
M  V30 7615 H 724.942 -5.06131 0.423549 0
M  V30 7616 H 724.872 -5.08832 -1.35639 0
M  V30 7617 H 727.363 -3.73456 -0.577842 0
M  V30 7618 H 727.676 -7.70769 -0.559873 0
M  V30 7619 H 726.021 -6.93123 -0.510441 0
M  V30 7620 H 729.212 -4.63809 -0.632387 0
M  V30 7621 H 729.385 -6.44984 -0.62442 0
M  V30 7622 N 722.791 0.367657 -1.53252 0
M  V30 7623 C 724.039 1.10832 -1.68999 0
M  V30 7624 C 724.36 1.89894 -0.443306 0
M  V30 7625 O 723.63 1.88235 0.54262 0
M  V30 7626 H 722.21 0.412153 -0.623008 0
M  V30 7627 H 724.872 0.414775 -1.90435 0
M  V30 7628 H 723.968 1.7993 -2.55013 0
M  V30 7629 N 724.269 1.44576 0.627338 0
M  V30 7630 C 725.517 1.47267 1.38408 0
M  V30 7631 C 725.838 0.107971 1.94701 0
M  V30 7632 O 725.108 -0.860206 1.76004 0
M  V30 7633 H 723.688 0.542276 0.513756 0
M  V30 7634 H 726.35 1.80383 0.738099 0
M  V30 7635 H 725.446 2.20025 2.21349 0
M  V30 7636 N 725.747 -0.868086 1.31537 0
M  V30 7637 C 726.995 -1.61807 1.21091 0
M  V30 7638 C 727.316 -1.93631 -0.230623 0
M  V30 7639 O 726.586 -1.5846 -1.15183 0
M  V30 7640 H 725.166 -0.599854 0.445178 0
M  V30 7641 H 727.828 -1.03915 1.64887 0
M  V30 7642 H 726.924 -2.56088 1.78396 0
M  V30 7643 N 727.225 -1.14528 -1.08264 0
M  V30 7644 C 728.135 -0.84728 -2.18765 0
M  V30 7645 C 729.151 0.172826 -1.7314 0
M  V30 7646 O 730.327 0.000985336 -2.014 0
M  V30 7647 C 727.392 -0.330633 -3.4512 0
M  V30 7648 C 726.453 -1.41348 -4.05363 0
M  V30 7649 C 725.686 -0.921387 -5.25686 0
M  V30 7650 O 725.909 0.236587 -5.69909 0
M  V30 7651 O 724.843 -1.70101 -5.77364 0
M  V30 7652 H 728.669 -1.7708 -2.46731 0
M  V30 7653 H 726.254 -0.923661 -1.17426 0
M  V30 7654 H 728.136 -0.0485053 -4.21372 0
M  V30 7655 H 726.811 0.565147 -3.18728 0
M  V30 7656 H 725.718 -1.74908 -3.30693 0
M  V30 7657 H 727.051 -2.28383 -4.36007 0
M  V30 7658 N 728.703 1.26451 -0.940633 0
M  V30 7659 C 729.933 1.97581 -0.603766 0
M  V30 7660 C 730.341 1.70246 0.825395 0
M  V30 7661 O 729.684 0.967001 1.56188 0
M  V30 7662 C 729.746 3.51256 -0.765463 0
M  V30 7663 C 729.41 4.0224 -2.16915 0
M  V30 7664 C 730.407 4.1402 -3.14457 0
M  V30 7665 C 728.092 4.36263 -2.48958 0
M  V30 7666 C 730.086 4.59117 -4.42143 0
M  V30 7667 C 727.773 4.81048 -3.76877 0
M  V30 7668 C 728.771 4.92436 -4.73282 0
M  V30 7669 O 728.459 5.36234 -5.98923 0
M  V30 7670 H 728.191 0.636948 -0.226436 0
M  V30 7671 H 730.745 1.61941 -1.2635 0
M  V30 7672 H 728.975 3.86669 -0.0485956 0
M  V30 7673 H 730.664 4.03597 -0.431738 0
M  V30 7674 H 731.43 3.87981 -2.91026 0
M  V30 7675 H 727.309 4.26634 -1.74656 0
M  V30 7676 H 730.853 4.6792 -5.17394 0
M  V30 7677 H 726.75 5.06531 -4.00121 0
M  V30 7678 H 727.518 5.54456 -6.02097 0
M  V30 7679 N 730.181 0.707592 1.40822 0
M  V30 7680 C 731.429 0.243189 2.00632 0
M  V30 7681 C 731.75 -1.16512 1.56365 0
M  V30 7682 O 731.02 -1.78841 0.799553 0
M  V30 7683 H 729.6 0.0869203 0.741926 0
M  V30 7684 H 732.262 0.911438 1.72275 0
M  V30 7685 H 731.358 0.270014 3.1093 0
M  V30 7686 N 731.66 -1.50943 0.453197 0
M  V30 7687 C 732.592 -2.25922 -0.38623 0
M  V30 7688 C 733.605 -1.3055 -0.972652 0
M  V30 7689 O 734.794 -1.56191 -0.864097 0
M  V30 7690 C 731.894 -3.01176 -1.5539 0
M  V30 7691 C 731.067 -4.23768 -1.0835 0
M  V30 7692 C 730.126 -4.81466 -2.12313 0
M  V30 7693 O 729.152 -5.42875 -1.71101 0
M  V30 7694 N 730.354 -4.66889 -3.44956 0
M  V30 7695 H 733.119 -2.98601 0.256468 0
M  V30 7696 H 730.68 -1.59408 0.282965 0
M  V30 7697 H 732.672 -3.36659 -2.24594 0
M  V30 7698 H 731.242 -2.31409 -2.10163 0
M  V30 7699 H 730.462 -3.93597 -0.217961 0
M  V30 7700 H 731.75 -5.03289 -0.746857 0
M  V30 7701 H 731.148 -4.18011 -3.81161 0
M  V30 7702 H 729.705 -5.06691 -4.1001 0
M  V30 7703 N 733.138 -0.185124 -1.56509 0
M  V30 7704 C 734.101 0.72591 -2.17401 0
M  V30 7705 C 735.101 1.14819 -1.12575 0
M  V30 7706 O 736.291 1.0629 -1.38015 0
M  V30 7707 C 733.423 1.98979 -2.76803 0
M  V30 7708 H 734.616 0.195588 -2.99262 0
M  V30 7709 H 732.169 0.0644772 -1.56167 0
M  V30 7710 H 732.904 2.56287 -1.98714 0
M  V30 7711 H 732.689 1.69583 -3.53531 0
M  V30 7712 H 734.179 2.63966 -3.23592 0
M  V30 7713 N 734.616 1.57351 0.0885366 0
M  V30 7714 C 735.862 1.87564 0.786842 0
M  V30 7715 C 736.217 0.776774 1.76023 0
M  V30 7716 O 735.51 -0.220637 1.90325 0
M  V30 7717 C 735.704 3.22098 1.5488 0
M  V30 7718 C 735.533 4.44967 0.650706 0
M  V30 7719 C 734.303 5.04444 0.293957 0
M  V30 7720 C 736.501 5.1428 -0.0452187 0
M  V30 7721 N 734.483 6.10846 -0.611609 0
M  V30 7722 C 735.854 6.14704 -0.808603 0
M  V30 7723 C 737.909 4.97759 -0.118451 0
M  V30 7724 C 736.612 7.00392 -1.63839 0
M  V30 7725 C 738.638 5.8396 -0.935157 0
M  V30 7726 C 738 6.83909 -1.68664 0
M  V30 7727 H 734.099 0.73613 0.263887 0
M  V30 7728 H 736.683 1.94638 0.049074 0
M  V30 7729 H 734.854 3.16064 2.2574 0
M  V30 7730 H 736.586 3.40015 2.19481 0
M  V30 7731 H 733.341 4.69214 0.643086 0
M  V30 7732 H 733.765 6.68695 -1.05714 0
M  V30 7733 H 738.407 4.20418 0.448202 0
M  V30 7734 H 736.125 7.7712 -2.21608 0
M  V30 7735 H 739.711 5.73236 -0.994579 0
M  V30 7736 H 738.591 7.49454 -2.30842 0
M  V30 7737 N 736.094 -0.359525 1.53444 0
M  V30 7738 C 737.044 -1.441 1.7669 0
M  V30 7739 C 738.028 -1.48408 0.621599 0
M  V30 7740 O 739.22 -1.53547 0.880468 0
M  V30 7741 C 736.349 -2.81455 1.96566 0
M  V30 7742 C 735.435 -2.81601 3.17115 0
M  V30 7743 N 735.826 -2.51388 4.38905 0
M  V30 7744 C 734.124 -3.12758 3.1796 0
M  V30 7745 C 734.825 -2.59365 5.20677 0
M  V30 7746 N 733.801 -2.94328 4.57025 0
M  V30 7747 H 737.603 -1.19613 2.68458 0
M  V30 7748 H 735.117 -0.567761 1.52152 0
M  V30 7749 H 737.114 -3.59357 2.11348 0
M  V30 7750 H 735.774 -3.06901 1.06029 0
M  V30 7751 H 736.785 -2.24873 4.66533 0
M  V30 7752 H 733.462 -3.43479 2.37336 0
M  V30 7753 H 734.852 -2.39301 6.27841 0
M  V30 7754 N 737.572 -1.44907 -0.619662 0
M  V30 7755 C 738.502 -1.55488 -1.742 0
M  V30 7756 C 739.483 -0.407143 -1.65156 0
M  V30 7757 O 740.668 -0.628743 -1.8374 0
M  V30 7758 C 737.798 -1.5097 -3.1277 0
M  V30 7759 C 736.752 -2.64337 -3.36615 0
M  V30 7760 C 736.078 -2.44872 -4.75333 0
M  V30 7761 C 737.378 -4.06423 -3.28051 0
M  V30 7762 H 739.072 -2.49432 -1.65602 0
M  V30 7763 H 736.618 -1.20047 -0.795281 0
M  V30 7764 H 738.571 -1.56971 -3.91073 0
M  V30 7765 H 737.295 -0.535486 -3.2218 0
M  V30 7766 H 735.954 -2.57744 -2.60698 0
M  V30 7767 H 735.602 -1.45617 -4.81461 0
M  V30 7768 H 735.302 -3.20888 -4.92244 0
M  V30 7769 H 736.826 -2.52709 -5.55851 0
M  V30 7770 H 738.24 -4.14324 -3.96243 0
M  V30 7771 H 736.637 -4.82733 -3.56495 0
M  V30 7772 H 737.707 -4.29183 -2.25676 0
M  V30 7773 N 739.05 0.861098 -1.31996 0
M  V30 7774 C 740.013 1.95068 -1.20338 0
M  V30 7775 C 741.013 1.60289 -0.128114 0
M  V30 7776 O 742.203 1.70048 -0.378044 0
M  V30 7777 C 739.335 3.30153 -0.849205 0
M  V30 7778 H 740.528 2.06833 -2.17164 0
M  V30 7779 H 738.081 1.05049 -1.15734 0
M  V30 7780 H 738.816 3.24087 0.117508 0
M  V30 7781 H 738.601 3.56771 -1.62655 0
M  V30 7782 H 740.091 4.10025 -0.791782 0
M  V30 7783 N 740.528 1.15101 1.07655 0
M  V30 7784 C 741.776 0.922149 1.79836 0
M  V30 7785 C 742.097 -0.552346 1.87014 0
M  V30 7786 O 741.367 -1.40145 1.3688 0
M  V30 7787 H 739.947 0.338182 0.666064 0
M  V30 7788 H 742.609 1.45107 1.30115 0
M  V30 7789 H 741.705 1.32883 2.82398 0
M  V30 7790 N 742.006 -1.2595 0.947325 0
M  V30 7791 C 743.234 -1.97544 0.615127 0
M  V30 7792 C 743.649 -1.70484 -0.811221 0
M  V30 7793 O 743.006 -0.97662 -1.5417 0
M  V30 7794 C 743.057 -3.51236 0.855328 0
M  V30 7795 O 742.778 -3.77359 2.22558 0
M  V30 7796 C 744.279 -4.40066 0.534515 0
M  V30 7797 H 741.499 -0.629888 0.231263 0
M  V30 7798 H 744.043 -1.60308 1.26971 0
M  V30 7799 H 742.198 -3.8661 0.247266 0
M  V30 7800 H 742.612 -4.71857 2.29022 0
M  V30 7801 H 744.086 -5.46838 0.753168 0
M  V30 7802 H 744.563 -4.35982 -0.530701 0
M  V30 7803 H 745.169 -4.10245 1.12158 0
M  V30 7804 N 743.484 -0.715051 -1.40445 0
M  V30 7805 C 744.416 -0.0227516 -2.29189 0
M  V30 7806 C 745.429 0.724313 -1.458 0
M  V30 7807 O 746.618 0.571781 -1.69094 0
M  V30 7808 C 743.718 0.992038 -3.24055 0
M  V30 7809 C 742.891 0.310613 -4.36296 0
M  V30 7810 C 741.95 1.23071 -5.11605 0
M  V30 7811 O 740.976 0.71571 -5.64682 0
M  V30 7812 N 742.178 2.56188 -5.2091 0
M  V30 7813 H 744.943 -0.78473 -2.89244 0
M  V30 7814 H 742.504 -0.562637 -1.51809 0
M  V30 7815 H 744.496 1.60973 -3.71308 0
M  V30 7816 H 743.066 1.65538 -2.65171 0
M  V30 7817 H 742.286 -0.487269 -3.91177 0
M  V30 7818 H 743.574 -0.162415 -5.08541 0
M  V30 7819 H 742.972 3.00527 -4.7927 0
M  V30 7820 H 741.529 3.13103 -5.71673 0
M  V30 7821 N 744.962 1.50701 -0.461195 0
M  V30 7822 C 745.894 2.26124 0.374244 0
M  V30 7823 C 746.907 1.31064 0.965715 0
M  V30 7824 O 748.096 1.56647 0.855801 0
M  V30 7825 C 745.196 3.01996 1.5379 0
M  V30 7826 C 744.369 4.24336 1.06101 0
M  V30 7827 C 743.428 4.82585 2.09756 0
M  V30 7828 O 742.454 5.43775 1.68219 0
M  V30 7829 N 743.656 4.68712 3.42475 0
M  V30 7830 H 746.421 2.9846 -0.2723 0
M  V30 7831 H 743.982 1.59256 -0.291415 0
M  V30 7832 H 745.974 3.37846 2.22806 0
M  V30 7833 H 744.544 2.32521 2.08933 0
M  V30 7834 H 743.764 3.93707 0.197085 0
M  V30 7835 H 745.052 5.03678 0.720156 0
M  V30 7836 H 744.45 4.20026 3.78938 0
M  V30 7837 H 743.007 5.08858 4.07317 0
M  V30 7838 N 746.441 0.193421 1.56409 0
M  V30 7839 C 747.389 -0.744829 2.20352 0
M  V30 7840 C 748.383 -1.22104 1.17418 0
M  V30 7841 O 749.589 -1.18413 1.35567 0
M  V30 7842 H 745.964 -0.258538 0.70616 0
M  V30 7843 H 747.935 -0.181794 2.97846 0
M  V30 7844 C 746.684 -1.95453 2.87565 0
M  V30 7845 H 746.007 -1.59716 3.66512 0
M  V30 7846 H 747.447 -2.58942 3.35745 0
M  V30 7847 C 745.906 -2.79223 1.8851 0
M  V30 7848 O 746.436 -3.77093 1.38434 0
M  V30 7849 N 744.642 -2.44682 1.56777 0
M  V30 7850 H 744.189 -1.65153 1.97692 0
M  V30 7851 H 744.147 -3.01016 0.907573 0
M  V30 7852 N 747.919 -1.57396 -0.0801906 0
M  V30 7853 C 748.866 -2.03107 -1.09618 0
M  V30 7854 C 749.836 -0.910118 -1.38946 0
M  V30 7855 O 751.021 -1.17719 -1.50156 0
M  V30 7856 C 748.161 -2.47293 -2.40708 0
M  V30 7857 C 747.274 -3.72972 -2.17982 0
M  V30 7858 C 746.409 -4.05975 -3.42576 0
M  V30 7859 C 745.448 -5.24719 -3.15177 0
M  V30 7860 N 744.585 -5.53401 -4.32078 0
M  V30 7861 H 749.425 -2.89677 -0.69939 0
M  V30 7862 H 746.962 -1.43263 -0.333785 0
M  V30 7863 H 748.92 -2.7096 -3.17232 0
M  V30 7864 H 747.55 -1.63713 -2.78205 0
M  V30 7865 H 746.602 -3.56693 -1.32189 0
M  V30 7866 H 747.914 -4.59638 -1.93738 0
M  V30 7867 H 747.068 -4.30498 -4.275 0
M  V30 7868 H 745.807 -3.17859 -3.69887 0
M  V30 7869 H 744.812 -5 -2.28648 0
M  V30 7870 H 746.037 -6.14445 -2.89197 0
M  V30 7871 H 743.983 -4.68245 -4.59437 0
M  V30 7872 H 743.9 -6.34469 -4.11078 0
M  V30 7873 H 745.168 -5.8247 -5.18024 0
M  V30 7874 N 749.397 0.351382 -1.53633 0
M  V30 7875 C 750.329 1.45159 -1.77374 0
M  V30 7876 C 751.342 1.4905 -0.654826 0
M  V30 7877 O 752.531 1.52274 -0.931396 0
M  V30 7878 C 749.631 2.83858 -1.85143 0
M  V30 7879 C 748.804 3.03498 -3.14972 0
M  V30 7880 C 747.863 4.22393 -3.138 0
M  V30 7881 O 746.889 4.16885 -3.87551 0
M  V30 7882 N 748.091 5.30533 -2.35617 0
M  V30 7883 H 750.856 1.25167 -2.72311 0
M  V30 7884 H 748.417 0.54121 -1.52586 0
M  V30 7885 H 750.409 3.61557 -1.8182 0
M  V30 7886 H 748.979 2.9703 -0.974275 0
M  V30 7887 H 748.199 2.13336 -3.31484 0
M  V30 7888 H 749.487 3.13498 -4.00745 0
M  V30 7889 H 748.885 5.37875 -1.75235 0
M  V30 7890 H 747.442 6.06756 -2.38098 0
M  V30 7891 N 750.875 1.45233 0.611969 0
M  V30 7892 C 751.823 1.53898 1.74408 0
M  V30 7893 C 752.817 0.409254 1.64382 0
M  V30 7894 O 754.023 0.584988 1.70229 0
M  V30 7895 H 750.398 0.483303 0.576127 0
M  V30 7896 H 752.369 2.49143 1.64227 0
M  V30 7897 C 751.118 1.51865 3.12782 0
M  V30 7898 H 750.441 2.38118 3.21154 0
M  V30 7899 H 751.881 1.61986 3.91838 0
M  V30 7900 C 750.34 0.242374 3.36027 0
M  V30 7901 O 750.87 -0.679587 3.9591 0
M  V30 7902 N 749.076 0.139448 2.90265 0
M  V30 7903 H 748.623 0.890571 2.41716 0
M  V30 7904 H 748.581 -0.713686 3.06193 0
M  V30 7905 N 752.353 -0.854086 1.3245 0
M  V30 7906 C 753.599 -1.61069 1.23225 0
M  V30 7907 C 753.932 -1.93111 -0.205349 0
M  V30 7908 O 753.207 -1.57397 -1.14265 0
M  V30 7909 C 753.49 -2.93065 2.09249 0
M  V30 7910 C 753.343 -2.67801 3.6139 0
M  V30 7911 C 754.662 -3.94341 1.95406 0
M  V30 7912 H 751.781 -0.584449 0.448986 0
M  V30 7913 H 754.423 -0.986189 1.62402 0
M  V30 7914 H 752.573 -3.46364 1.75967 0
M  V30 7915 H 754.245 -2.21052 4.04887 0
M  V30 7916 H 752.488 -2.01756 3.84027 0
M  V30 7917 H 753.159 -3.6179 4.16907 0
M  V30 7918 H 755.635 -3.50301 2.24562 0
M  V30 7919 H 754.511 -4.84555 2.57872 0
M  V30 7920 H 754.772 -4.32382 0.921865 0
M  V30 7921 N 753.831 -1.1567 -1.07043 0
M  V30 7922 C 755.078 -0.933517 -1.79699 0
M  V30 7923 C 755.406 0.539162 -1.86878 0
M  V30 7924 O 754.661 1.41592 -1.35093 0
M  V30 7925 C 754.96 -1.49677 -3.24548 0
M  V30 7926 C 754.626 -2.99047 -3.37463 0
M  V30 7927 C 753.288 -3.39824 -3.40695 0
M  V30 7928 C 755.64 -3.95027 -3.40004 0
M  V30 7929 C 752.968 -4.75215 -3.44075 0
M  V30 7930 C 755.32 -5.30295 -3.44921 0
M  V30 7931 C 753.984 -5.70562 -3.46432 0
M  V30 7932 H 753.254 -0.341598 -0.657565 0
M  V30 7933 H 755.901 -1.44263 -1.25938 0
M  V30 7934 H 754.206 -0.908915 -3.81111 0
M  V30 7935 H 755.903 -1.29986 -3.79348 0
M  V30 7936 H 752.493 -2.6653 -3.35648 0
M  V30 7937 H 756.677 -3.64596 -3.36725 0
M  V30 7938 H 751.933 -5.05754 -3.43545 0
M  V30 7939 H 756.107 -6.0446 -3.45833 0
M  V30 7940 H 753.734 -6.75456 -3.48803 0
M  V30 7941 N 755.309 1.25446 -0.953992 0
M  V30 7942 C 756.586 1.884 -0.525823 0
M  V30 7943 C 756.966 1.86079 0.996891 0
M  V30 7944 O 756.314 1.32389 1.8624 0
M  V30 7945 C 756.524 3.31154 -1.10172 0
M  V30 7946 C 757.872 4.07926 -1.17819 0
M  V30 7947 O 758.896 3.40273 -1.05323 0
M  V30 7948 O 757.755 5.28942 -1.37415 0
M  V30 7949 H 754.849 0.808629 -0.173345 0
M  V30 7950 H 757.395 1.33522 -1.04738 0
M  V30 7951 H 756.167 3.27271 -2.14499 0
M  V30 7952 H 755.79 3.93588 -0.56338 0
M  V30 7953 N 756.787 0.722489 1.40064 0
M  V30 7954 C 758.064 0.191829 1.94657 0
M  V30 7955 C 758.444 -1.30389 1.66018 0
M  V30 7956 O 757.792 -2.06342 0.981588 0
M  V30 7957 C 758.002 0.511978 3.45224 0
M  V30 7958 C 759.35 0.454426 4.22161 0
M  V30 7959 O 760.374 0.448438 3.53366 0
M  V30 7960 O 759.233 0.437986 5.44742 0
M  V30 7961 H 756.327 0.0307821 0.826427 0
M  V30 7962 H 758.873 0.800493 1.49634 0
M  V30 7963 H 757.645 1.54622 3.59455 0
M  V30 7964 H 757.268 -0.126296 3.97399 0
M  V30 7965 N 758.265 -1.50454 0.469181 0
M  V30 7966 C 759.512 -2.02315 -0.086469 0
M  V30 7967 C 759.84 -1.3513 -1.39893 0
M  V30 7968 O 759.095 -0.465341 -1.90087 0
M  V30 7969 C 759.394 -3.55963 -0.320207 0
M  V30 7970 C 759.06 -4.41615 0.910318 0
M  V30 7971 C 757.722 -4.64743 1.2477 0
M  V30 7972 C 760.074 -4.91661 1.72971 0
M  V30 7973 C 757.402 -5.35161 2.40457 0
M  V30 7974 C 759.754 -5.6335 2.87785 0
M  V30 7975 C 758.418 -5.84732 3.2194 0
M  V30 7976 H 757.688 -0.740324 -0.0316412 0
M  V30 7977 H 760.335 -1.81087 0.622872 0
M  V30 7978 H 758.64 -3.75695 -1.11177 0
M  V30 7979 H 760.337 -3.93653 -0.764071 0
M  V30 7980 H 756.927 -4.23833 0.637467 0
M  V30 7981 H 761.111 -4.73649 1.48224 0
M  V30 7982 H 756.367 -5.49924 2.67196 0
M  V30 7983 H 760.541 -6.0111 3.51624 0
M  V30 7984 H 758.168 -6.39074 4.1169 0
M  V30 7985 N 759.743 -0.201713 -1.56304 0
M  V30 7986 C 760.992 0.435557 -1.96941 0
M  V30 7987 C 761.305 1.62299 -1.09172 0
M  V30 7988 O 762.511 2.32849 -1.3962 0
M  V30 7989 C 760.967 0.826298 -3.50286 0
M  V30 7990 C 760.575 -0.337216 -4.46729 0
M  V30 7991 C 762.319 1.43028 -3.99679 0
M  V30 7992 C 760.226 0.0748539 -5.91353 0
M  V30 7993 H 759.156 0.1665 -0.735387 0
M  V30 7994 H 761.807 -0.294781 -1.81117 0
M  V30 7995 H 760.189 1.61349 -3.61639 0
M  V30 7996 H 761.363 -1.11476 -4.47113 0
M  V30 7997 H 759.678 -0.853126 -4.07567 0
M  V30 7998 H 762.275 1.75115 -5.05212 0
M  V30 7999 H 762.618 2.33911 -3.44371 0
M  V30 8000 H 763.151 0.706924 -3.91468 0
M  V30 8001 H 759.89 -0.799957 -6.506 0
M  V30 8002 H 759.41 0.817122 -5.94208 0
M  V30 8003 H 761.089 0.508389 -6.45 0
M  V30 8004 N 761.222 1.57436 0.0718424 0
M  V30 8005 C 762.185 2.02703 1.06977 0
M  V30 8006 C 763.185 0.924062 1.31597 0
M  V30 8007 O 764.375 1.18894 1.27318 0
M  V30 8008 C 761.507 2.40763 2.41342 0
M  V30 8009 H 762.7 2.92098 0.679619 0
M  V30 8010 H 760.253 1.5304 0.317565 0
M  V30 8011 H 760.988 1.54394 2.8519 0
M  V30 8012 H 760.773 3.21249 2.24814 0
M  V30 8013 H 762.263 2.76361 3.13073 0
M  V30 8014 N 762.7 -0.34323 1.53817 0
M  V30 8015 C 763.663 -1.40444 1.8113 0
M  V30 8016 C 764.663 -1.45604 0.682366 0
M  V30 8017 O 765.853 -1.45974 0.950649 0
M  V30 8018 C 762.985 -2.79369 1.95361 0
M  V30 8019 H 764.178 -1.17489 2.75928 0
M  V30 8020 H 761.731 -0.577636 1.45234 0
M  V30 8021 H 762.466 -3.07607 1.02707 0
M  V30 8022 H 762.251 -2.7702 2.77493 0
M  V30 8023 H 763.741 -3.56178 2.18008 0
M  V30 8024 N 764.178 -1.45556 -0.604258 0
M  V30 8025 C 765.141 -1.54091 -1.69672 0
M  V30 8026 C 766.141 -0.420076 -1.55216 0
M  V30 8027 O 767.331 -0.683671 -1.60224 0
M  V30 8028 C 764.463 -1.44063 -3.08964 0
M  V30 8029 H 765.656 -2.51431 -1.6347 0
M  V30 8030 H 763.209 -1.33046 -0.820273 0
M  V30 8031 H 763.944 -0.479201 -3.2074 0
M  V30 8032 H 763.729 -2.25362 -3.20865 0
M  V30 8033 H 765.219 -1.53075 -3.88533 0
M  V30 8034 N 765.656 0.84705 -1.32902 0
M  V30 8035 C 766.566 1.98845 -1.2449 0
M  V30 8036 C 767.582 1.7329 -0.15702 0
M  V30 8037 O 768.758 1.978 -0.379104 0
M  V30 8038 C 765.823 3.32679 -0.975985 0
M  V30 8039 C 764.884 3.71405 -2.15306 0
M  V30 8040 C 764.117 4.98853 -1.89688 0
M  V30 8041 O 764.34 5.64134 -0.843168 0
M  V30 8042 O 763.274 5.34889 -2.76002 0
M  V30 8043 H 767.1 2.0888 -2.2046 0
M  V30 8044 H 764.685 0.978852 -1.12867 0
M  V30 8045 H 766.567 4.12885 -0.842826 0
M  V30 8046 H 765.242 3.23667 -0.0464954 0
M  V30 8047 H 764.149 2.91743 -2.34172 0
M  V30 8048 H 765.482 3.85073 -3.06561 0
M  V30 8049 N 767.134 1.16236 1.06428 0
M  V30 8050 C 768.364 0.965782 1.82637 0
M  V30 8051 C 768.772 -0.489284 1.82764 0
M  V30 8052 O 768.115 -1.35133 1.24438 0
M  V30 8053 C 768.177 1.41458 3.30499 0
M  V30 8054 C 767.841 2.88926 3.54077 0
M  V30 8055 C 768.838 3.86939 3.47238 0
M  V30 8056 C 766.523 3.26814 3.81442 0
M  V30 8057 C 768.517 5.20841 3.67428 0
M  V30 8058 C 766.204 4.60886 4.01282 0
M  V30 8059 C 767.202 5.57708 3.94272 0
M  V30 8060 O 766.89 6.89357 4.13573 0
M  V30 8061 H 766.622 0.342569 0.582772 0
M  V30 8062 H 769.176 1.54641 1.35187 0
M  V30 8063 H 767.406 0.777426 3.78805 0
M  V30 8064 H 769.095 1.18563 3.88198 0
M  V30 8065 H 769.861 3.59014 3.26089 0
M  V30 8066 H 765.74 2.5203 3.86008 0
M  V30 8067 H 769.284 5.96401 3.61873 0
M  V30 8068 H 765.181 4.88522 4.21921 0
M  V30 8069 H 765.949 6.95913 4.30869 0
M  V30 8070 N 768.612 -1.24939 0.960631 0
M  V30 8071 C 769.542 -2.28 0.503815 0
M  V30 8072 C 770.523 -1.63959 -0.452928 0
M  V30 8073 O 771.708 -1.91009 -0.350585 0
M  V30 8074 C 768.838 -3.46643 -0.213535 0
M  V30 8075 C 767.792 -4.22903 0.658535 0
M  V30 8076 C 767.118 -5.34363 -0.189902 0
M  V30 8077 C 768.418 -4.84949 1.93963 0
M  V30 8078 H 770.112 -2.66462 1.36521 0
M  V30 8079 H 767.658 -1.28093 0.657897 0
M  V30 8080 H 769.611 -4.1787 -0.544286 0
M  V30 8081 H 768.335 -3.07187 -1.10923 0
M  V30 8082 H 766.994 -3.53467 0.972455 0
M  V30 8083 H 766.642 -4.91147 -1.08553 0
M  V30 8084 H 766.342 -5.86302 0.390331 0
M  V30 8085 H 767.866 -6.0842 -0.515484 0
M  V30 8086 H 769.28 -5.48288 1.67491 0
M  V30 8087 H 767.677 -5.47091 2.46601 0
M  V30 8088 H 768.747 -4.06799 2.639 0
M  V30 8089 N 770.09 -0.729906 -1.39679 0
M  V30 8090 C 771.037 -0.0866063 -2.30637 0
M  V30 8091 C 772.007 0.735115 -1.48947 0
M  V30 8092 O 773.192 0.696125 -1.77648 0
M  V30 8093 C 770.332 0.818524 -3.35252 0
M  V30 8094 C 769.445 -0.0152635 -4.31997 0
M  V30 8095 C 768.58 0.890669 -5.2368 0
M  V30 8096 C 767.619 0.0518246 -6.12078 0
M  V30 8097 N 766.756 0.913411 -6.96133 0
M  V30 8098 H 771.596 -0.867925 -2.85081 0
M  V30 8099 H 769.133 -0.439673 -1.40376 0
M  V30 8100 H 771.091 1.3577 -3.9449 0
M  V30 8101 H 769.721 1.56587 -2.82277 0
M  V30 8102 H 768.773 -0.671794 -3.74421 0
M  V30 8103 H 770.085 -0.664086 -4.9436 0
M  V30 8104 H 769.239 1.49787 -5.87919 0
M  V30 8105 H 767.978 1.57328 -4.61627 0
M  V30 8106 H 766.983 -0.568209 -5.46856 0
M  V30 8107 H 768.208 -0.627497 -6.76195 0
M  V30 8108 H 766.154 1.58141 -6.36653 0
M  V30 8109 H 766.071 0.320952 -7.55318 0
M  V30 8110 H 767.339 1.50633 -7.64807 0
M  V30 8111 N 771.568 1.50203 -0.477153 0
M  V30 8112 C 772.531 2.27194 0.302599 0
M  V30 8113 C 773.531 1.32221 0.915112 0
M  V30 8114 O 774.721 1.55593 0.783348 0
M  V30 8115 C 771.853 3.0938 1.43167 0
M  V30 8116 H 773.046 2.97575 -0.372678 0
M  V30 8117 H 770.599 1.54578 -0.231392 0
M  V30 8118 H 771.334 2.43509 2.14182 0
M  V30 8119 H 771.119 3.79181 0.998197 0
M  V30 8120 H 772.609 3.67592 1.98157 0
M  V30 8121 N 773.046 0.209999 1.56195 0
M  V30 8122 C 773.956 -0.716459 2.23392 0
M  V30 8123 C 774.972 -1.22291 1.23778 0
M  V30 8124 O 776.148 -1.26694 1.56558 0
M  V30 8125 C 773.213 -1.91261 2.89172 0
M  V30 8126 C 772.274 -1.44927 4.04097 0
M  V30 8127 C 771.507 -2.5884 4.66731 0
M  V30 8128 O 771.73 -3.76693 4.2832 0
M  V30 8129 O 770.664 -2.30701 5.55932 0
M  V30 8130 H 774.49 -0.174089 3.03201 0
M  V30 8131 H 772.075 -0.0199505 1.49387 0
M  V30 8132 H 773.957 -2.6114 3.30733 0
M  V30 8133 H 772.632 -2.4433 2.12331 0
M  V30 8134 H 771.539 -0.718839 3.67129 0
M  V30 8135 H 772.872 -0.965084 4.82646 0
M  V30 8136 N 774.524 -1.57472 -0.0634922 0
M  V30 8137 C 775.772 -1.87283 -0.759563 0
M  V30 8138 C 776.093 -0.803135 -1.77693 0
M  V30 8139 O 775.363 0.167293 -1.95184 0
M  V30 8140 H 773.943 -0.691106 -0.283516 0
M  V30 8141 H 776.605 -1.94864 -0.0376091 0
M  V30 8142 H 775.701 -2.85064 -1.27062 0
M  V30 8143 N 776.003 0.335068 -1.53997 0
M  V30 8144 C 777.233 1.0926 -1.75345 0
M  V30 8145 C 777.641 1.82568 -0.496545 0
M  V30 8146 O 776.984 1.75525 0.541897 0
M  V30 8147 C 777.046 2.14473 -2.88516 0
M  V30 8148 C 776.71 1.60665 -4.27827 0
M  V30 8149 C 777.707 1.05448 -5.09094 0
M  V30 8150 C 775.392 1.65255 -4.74337 0
M  V30 8151 C 777.386 0.555372 -6.34976 0
M  V30 8152 C 775.073 1.14956 -6.0019 0
M  V30 8153 C 776.071 0.601907 -6.80343 0
M  V30 8154 O 775.759 0.106445 -8.0383 0
M  V30 8155 H 775.491 0.331329 -0.589234 0
M  V30 8156 H 778.045 0.39042 -2.01655 0
M  V30 8157 H 776.275 2.88274 -2.5775 0
M  V30 8158 H 777.964 2.75857 -2.97755 0
M  V30 8159 H 778.73 1.01218 -4.74321 0
M  V30 8160 H 774.609 2.06822 -4.12002 0
M  V30 8161 H 778.153 0.127245 -6.97484 0
M  V30 8162 H 774.05 1.18891 -6.34457 0
M  V30 8163 H 774.818 0.222944 -8.18196 0
M  V30 8164 N 777.481 1.45874 0.596531 0
M  V30 8165 C 778.709 1.54013 1.38158 0
M  V30 8166 C 779.124 0.17648 1.87973 0
M  V30 8167 O 778.481 -0.823895 1.62844 0
M  V30 8168 C 778.532 2.53363 2.57855 0
M  V30 8169 O 778.253 3.8443 2.10108 0
M  V30 8170 C 779.754 2.71308 3.50581 0
M  V30 8171 H 776.974 0.521251 0.422538 0
M  V30 8172 H 779.518 1.9116 0.726493 0
M  V30 8173 H 777.673 2.19257 3.19382 0
M  V30 8174 H 778.087 4.38384 2.87958 0
M  V30 8175 H 779.561 3.44776 4.31084 0
M  V30 8176 H 780.038 1.77728 4.01633 0
M  V30 8177 H 780.644 3.06455 2.94899 0
M  V30 8178 N 778.959 -0.83999 1.33349 0
M  V30 8179 C 780.375 -1.13049 1.12659 0
M  V30 8180 C 780.575 -2.01328 -0.0832613 0
M  V30 8181 O 779.631 -2.40669 -0.763856 0
M  V30 8182 C 780.944 -1.79366 2.41347 0
M  V30 8183 C 782.492 -1.91937 2.47243 0
M  V30 8184 C 782.967 -2.6167 3.75889 0
M  V30 8185 N 784.458 -2.69184 3.76954 0
M  V30 8186 C 785.193 -3.23827 4.73206 0
M  V30 8187 N 784.689 -3.79166 5.79832 0
M  V30 8188 N 786.482 -3.22068 4.60683 0
M  V30 8189 H 778.633 -0.252432 2.10895 0
M  V30 8190 H 780.896 -0.174501 0.931801 0
M  V30 8191 H 780.602 -1.2196 3.29877 0
M  V30 8192 H 780.476 -2.79396 2.53412 0
M  V30 8193 H 782.863 -2.48498 1.59163 0
M  V30 8194 H 782.944 -0.908604 2.39119 0
M  V30 8195 H 782.588 -2.05769 4.64351 0
M  V30 8196 H 782.518 -3.63217 3.81289 0
M  V30 8197 H 785.009 -2.2994 2.99893 0
M  V30 8198 H 785.322 -4.19061 6.49313 0
M  V30 8199 H 783.667 -3.77457 5.83568 0
M  V30 8200 H 786.858 -2.78092 3.7654 0
M  V30 8201 H 787.031 -3.64351 5.35866 0
M  V30 8202 N 780.437 -1.16799 -1.0581 0
M  V30 8203 C 781.665 -0.97687 -1.82387 0
M  V30 8204 C 782.08 0.474917 -1.82729 0
M  V30 8205 O 781.437 1.3297 -1.25001 0
M  V30 8206 C 781.488 -1.50279 -3.28783 0
M  V30 8207 O 781.209 -2.89772 -3.28578 0
M  V30 8208 C 782.71 -1.35538 -4.22071 0
M  V30 8209 H 779.93 -0.345977 -0.574927 0
M  V30 8210 H 782.474 -1.54942 -1.33466 0
M  V30 8211 H 780.629 -0.972414 -3.74997 0
M  V30 8212 H 781.043 -3.13954 -4.20159 0
M  V30 8213 H 782.517 -1.7716 -5.22799 0
M  V30 8214 H 782.994 -0.301598 -4.38163 0
M  V30 8215 H 783.6 -1.87562 -3.81708 0
M  V30 8216 N 781.915 1.24427 -0.967243 0
M  V30 8217 C 783.192 1.87831 -0.545776 0
M  V30 8218 C 783.572 1.87126 0.977099 0
M  V30 8219 O 782.92 1.34357 1.84826 0
M  V30 8220 C 783.13 3.29967 -1.13679 0
M  V30 8221 C 784.478 4.06654 -1.22139 0
M  V30 8222 O 785.502 3.39136 -1.08926 0
M  V30 8223 O 784.361 5.27455 -1.43017 0
M  V30 8224 H 781.455 0.806745 -0.181912 0
M  V30 8225 H 784.001 1.32403 -1.06148 0
M  V30 8226 H 782.773 3.24977 -2.17958 0
M  V30 8227 H 782.396 3.92969 -0.605093 0
M  V30 8228 N 783.393 0.737304 1.3929 0
M  V30 8229 C 784.809 0.413132 1.5416 0
M  V30 8230 C 785.009 -1.07574 1.70382 0
M  V30 8231 O 784.065 -1.86185 1.70562 0
M  V30 8232 C 785.378 1.19817 2.75798 0
M  V30 8233 C 786.926 1.18662 2.89635 0
M  V30 8234 C 787.401 1.95427 4.14213 0
M  V30 8235 N 788.892 1.92605 4.21257 0
M  V30 8236 C 789.627 2.48808 5.16606 0
M  V30 8237 N 789.123 3.13659 6.1773 0
M  V30 8238 N 790.916 2.38829 5.08839 0
M  V30 8239 H 783.067 1.70243 1.27008 0
M  V30 8240 H 785.33 0.720802 0.61575 0
M  V30 8241 H 785.036 2.25179 2.70161 0
M  V30 8242 H 784.91 0.804144 3.68529 0
M  V30 8243 H 787.297 0.141112 2.94762 0
M  V30 8244 H 787.378 1.62003 1.97961 0
M  V30 8245 H 787.022 2.9998 4.09847 0
M  V30 8246 H 786.952 1.4949 5.04936 0
M  V30 8247 H 789.443 1.45362 3.48824 0
M  V30 8248 H 789.756 3.54006 6.8695 0
M  V30 8249 H 788.101 3.17749 6.1811 0
M  V30 8250 H 791.292 1.87806 4.28773 0
M  V30 8251 H 791.465 2.82929 5.82971 0
M  V30 8252 N 784.871 -1.49948 0.485112 0
M  V30 8253 C 785.801 -2.31675 -0.291364 0
M  V30 8254 C 786.782 -1.39216 -0.977383 0
M  V30 8255 O 787.967 -1.68133 -0.971855 0
M  V30 8256 C 785.097 -3.19326 -1.36558 0
M  V30 8257 C 784.051 -4.2045 -0.800359 0
M  V30 8258 C 783.377 -4.96931 -1.97391 0
M  V30 8259 C 784.677 -5.21925 0.197867 0
M  V30 8260 H 786.371 -2.96839 0.390775 0
M  V30 8261 H 783.917 -1.42749 0.189375 0
M  V30 8262 H 785.87 -3.75304 -1.91638 0
M  V30 8263 H 784.594 -2.52074 -2.07668 0
M  V30 8264 H 783.253 -3.65594 -0.271428 0
M  V30 8265 H 782.901 -4.26141 -2.67232 0
M  V30 8266 H 782.601 -5.65344 -1.60187 0
M  V30 8267 H 784.125 -5.55749 -2.52935 0
M  V30 8268 H 785.539 -5.72691 -0.264239 0
M  V30 8269 H 783.936 -5.98138 0.484908 0
M  V30 8270 H 785.006 -4.71809 1.11912 0
M  V30 8271 N 786.349 -0.21828 -1.56081 0
M  V30 8272 C 787.312 0.679633 -2.18892 0
M  V30 8273 C 788.312 1.12405 -1.14986 0
M  V30 8274 O 789.502 1.03339 -1.40238 0
M  V30 8275 C 786.634 1.93063 -2.80962 0
M  V30 8276 H 787.827 0.132066 -2.99609 0
M  V30 8277 H 785.38 0.0313374 -1.56269 0
M  V30 8278 H 786.115 2.52015 -2.04106 0
M  V30 8279 H 785.9 1.62046 -3.57048 0
M  V30 8280 H 787.39 2.57043 -3.29118 0
M  V30 8281 N 787.827 1.57504 0.0551401 0
M  V30 8282 C 789.076 1.87237 0.750009 0
M  V30 8283 C 789.389 0.813268 1.77891 0
M  V30 8284 O 790.595 0.99898 2.52453 0
M  V30 8285 C 789.051 3.32187 1.38491 0
M  V30 8286 C 788.659 4.46267 0.393707 0
M  V30 8287 C 790.403 3.71101 2.06117 0
M  V30 8288 C 788.31 5.82265 1.03547 0
M  V30 8289 H 787.24 0.698524 0.283866 0
M  V30 8290 H 789.891 1.835 0.00365997 0
M  V30 8291 H 788.273 3.30588 2.18008 0
M  V30 8292 H 789.447 4.59289 -0.372865 0
M  V30 8293 H 787.762 4.16015 -0.17902 0
M  V30 8294 H 790.359 4.70012 2.54937 0
M  V30 8295 H 790.702 3.01751 2.86796 0
M  V30 8296 H 791.235 3.74762 1.33409 0
M  V30 8297 H 787.974 6.54949 0.268644 0
M  V30 8298 H 787.494 5.73012 1.7725 0
M  V30 8299 H 789.173 6.28148 1.55047 0
M  V30 8300 N 789.305 -0.326896 1.54172 0
M  V30 8301 C 790.721 -0.671034 1.44808 0
M  V30 8302 C 790.921 -1.91781 0.618258 0
M  V30 8303 O 789.977 -2.52235 0.115751 0
M  V30 8304 C 791.29 -0.848147 2.88491 0
M  V30 8305 C 792.838 -0.945702 2.98371 0
M  V30 8306 C 793.313 -1.15501 4.43197 0
M  V30 8307 N 794.804 -1.22183 4.46795 0
M  V30 8308 C 795.539 -1.4016 5.56006 0
M  V30 8309 N 795.035 -1.55202 6.75192 0
M  V30 8310 N 796.828 -1.42841 5.43648 0
M  V30 8311 H 788.979 0.49262 2.06608 0
M  V30 8312 H 791.242 0.158574 0.934643 0
M  V30 8313 H 790.948 -0.00329969 3.517 0
M  V30 8314 H 790.822 -1.74497 3.34411 0
M  V30 8315 H 793.209 -1.78106 2.35292 0
M  V30 8316 H 793.29 -0.0254215 2.55787 0
M  V30 8317 H 792.934 -0.324521 5.06862 0
M  V30 8318 H 792.864 -2.08911 4.83388 0
M  V30 8319 H 795.355 -1.12016 3.60917 0
M  V30 8320 H 795.668 -1.68601 7.54184 0
M  V30 8321 H 794.013 -1.52306 6.78106 0
M  V30 8322 H 797.204 -1.30683 4.49488 0
M  V30 8323 H 797.377 -1.56509 6.28816 0
M  V30 8324 N 790.784 -1.46188 -0.588786 0
M  V30 8325 C 792.032 -1.50885 -1.34455 0
M  V30 8326 C 792.353 -0.159555 -1.94346 0
M  V30 8327 O 791.623 0.813239 -1.78222 0
M  V30 8328 H 790.203 -0.555707 -0.499198 0
M  V30 8329 H 792.865 -1.82277 -0.690014 0
M  V30 8330 H 791.961 -2.25816 -2.15438 0
M  V30 8331 N 792.262 0.832906 -1.33792 0
M  V30 8332 C 793.51 1.58539 -1.25338 0
M  V30 8333 C 793.831 1.94175 0.179204 0
M  V30 8334 O 793.101 1.61458 1.10941 0
M  V30 8335 H 791.681 0.58784 -0.460926 0
M  V30 8336 H 794.343 0.995064 -1.67584 0
M  V30 8337 H 793.439 2.51268 -1.85123 0
M  V30 8338 N 793.74 1.17359 1.05189 0
M  V30 8339 C 794.965 0.98709 1.82404 0
M  V30 8340 C 795.39 -0.459848 1.82392 0
M  V30 8341 O 794.748 -1.32924 1.23292 0
M  V30 8342 C 794.796 1.53276 3.26403 0
M  V30 8343 O 793.9 0.746541 4.05587 0
M  V30 8344 H 793.241 0.35047 0.563974 0
M  V30 8345 H 795.771 1.55856 1.32552 0
M  V30 8346 H 795.781 1.55504 3.77203 0
M  V30 8347 H 794.456 2.58603 3.25726 0
M  V30 8348 H 793.033 0.795671 3.64312 0
M  V30 8349 N 795.218 -1.23913 0.973828 0
M  V30 8350 C 796.166 -2.27141 0.50098 0
M  V30 8351 C 797.16 -1.63623 -0.438631 0
M  V30 8352 O 798.366 -1.77253 -0.313247 0
M  V30 8353 H 794.741 -0.73817 0.14356 0
M  V30 8354 H 796.712 -2.64392 1.38346 0
M  V30 8355 C 795.461 -3.47195 -0.187377 0
M  V30 8356 H 794.784 -3.96318 0.526535 0
M  V30 8357 H 796.224 -4.21252 -0.481962 0
M  V30 8358 C 794.683 -3.05678 -1.41642 0
M  V30 8359 O 795.213 -3.1338 -2.51309 0
M  V30 8360 N 793.419 -2.60661 -1.28469 0
M  V30 8361 H 792.966 -2.54594 -0.39238 0
M  V30 8362 H 792.924 -2.33249 -2.10813 0
M  V30 8363 N 796.696 -0.74468 -1.38897 0
M  V30 8364 C 797.944 -0.296298 -1.99916 0
M  V30 8365 C 798.265 1.12325 -1.59399 0
M  V30 8366 O 797.535 1.76658 -0.846689 0
M  V30 8367 H 796.115 -0.106561 -0.73936 0
M  V30 8368 H 798.777 -0.956793 -1.69798 0
M  V30 8369 H 797.873 -0.352356 -3.10105 0
M  V30 8370 N 798.174 1.49689 -0.493057 0
M  V30 8371 C 799.422 2.02027 0.0541642 0
M  V30 8372 C 799.743 1.37554 1.38217 0
M  V30 8373 O 799.013 0.528174 1.88646 0
M  V30 8374 H 797.593 0.746646 0.0230069 0
M  V30 8375 H 800.255 1.83795 -0.648489 0
M  V30 8376 H 799.351 3.11523 0.189652 0
M  V30 8377 N 799.652 0.226554 1.55963 0
M  V30 8378 C 800.582 -0.676079 2.23498 0
M  V30 8379 C 801.563 -1.19718 1.20837 0
M  V30 8380 O 802.748 -1.24027 1.49436 0
M  V30 8381 C 799.878 -1.88217 2.91876 0
M  V30 8382 C 798.832 -1.4947 4.01052 0
M  V30 8383 C 798.158 -2.77997 4.56751 0
M  V30 8384 C 799.458 -0.680951 5.17842 0
M  V30 8385 H 801.152 -0.112989 2.99187 0
M  V30 8386 H 798.698 -0.0529046 1.43903 0
M  V30 8387 H 800.651 -2.51911 3.37815 0
M  V30 8388 H 799.375 -2.47031 2.13643 0
M  V30 8389 H 798.034 -0.881199 3.55852 0
M  V30 8390 H 797.682 -3.34966 3.75243 0
M  V30 8391 H 797.382 -2.52803 5.30438 0
M  V30 8392 H 798.906 -3.42625 5.05411 0
M  V30 8393 H 800.32 -1.22171 5.60131 0
M  V30 8394 H 798.717 -0.525898 5.97791 0
M  V30 8395 H 799.787 0.311346 4.83899 0
M  V30 8396 N 801.13 -1.57531 -0.0467866 0
M  V30 8397 C 802.06 -2.08425 -1.05268 0
M  V30 8398 C 803.041 -0.982941 -1.38825 0
M  V30 8399 O 804.226 -1.25716 -1.48018 0
M  V30 8400 C 801.356 -2.54897 -2.35891 0
M  V30 8401 C 800.31 -3.69132 -2.16623 0
M  V30 8402 C 799.636 -4.01747 -3.52851 0
M  V30 8403 C 800.936 -4.98243 -1.56689 0
M  V30 8404 H 802.63 -2.92716 -0.62908 0
M  V30 8405 H 800.176 -1.40816 -0.301156 0
M  V30 8406 H 802.129 -2.8912 -3.06574 0
M  V30 8407 H 800.853 -1.67666 -2.80278 0
M  V30 8408 H 799.512 -3.35231 -1.48377 0
M  V30 8409 H 799.16 -3.11608 -3.94853 0
M  V30 8410 H 798.86 -4.78681 -3.4079 0
M  V30 8411 H 800.384 -4.38487 -4.24925 0
M  V30 8412 H 801.798 -5.30535 -2.17268 0
M  V30 8413 H 800.195 -5.79669 -1.55255 0
M  V30 8414 H 801.265 -4.81986 -0.530827 0
M  V30 8415 N 802.608 0.318715 -1.54344 0
M  V30 8416 C 803.854 1.05765 -1.73037 0
M  V30 8417 C 804.187 1.87514 -0.505181 0
M  V30 8418 O 803.462 1.88021 0.497838 0
M  V30 8419 C 803.745 1.97836 -3.00887 0
M  V30 8420 C 803.598 1.19384 -4.33668 0
M  V30 8421 C 804.917 2.97285 -3.24514 0
M  V30 8422 H 802.036 0.383104 -0.629603 0
M  V30 8423 H 804.678 0.333864 -1.87044 0
M  V30 8424 H 802.828 2.59552 -2.89076 0
M  V30 8425 H 804.5 0.600906 -4.57369 0
M  V30 8426 H 802.743 0.496198 -4.30953 0
M  V30 8427 H 803.414 1.87014 -5.19355 0
M  V30 8428 H 805.89 2.45693 -3.35819 0
M  V30 8429 H 804.766 3.58887 -4.15321 0
M  V30 8430 H 805.027 3.70003 -2.41971 0
M  V30 8431 N 804.086 1.46499 0.581025 0
M  V30 8432 C 805.334 1.51596 1.33653 0
M  V30 8433 C 805.655 0.169859 1.94259 0
M  V30 8434 O 804.925 -0.803776 1.78651 0
M  V30 8435 H 803.505 0.558346 0.496244 0
M  V30 8436 H 806.167 1.8264 0.680338 0
M  V30 8437 H 805.263 2.26956 2.14237 0
M  V30 8438 N 805.565 -0.825799 1.34232 0
M  V30 8439 C 806.528 -1.91808 1.25468 0
M  V30 8440 C 807.528 -1.59893 0.170567 0
M  V30 8441 O 808.718 -1.68986 0.422996 0
M  V30 8442 C 805.85 -3.27786 0.93644 0
M  V30 8443 H 807.043 -2.01003 2.22571 0
M  V30 8444 H 804.596 -1.01944 1.18479 0
M  V30 8445 H 805.331 -3.24285 -0.0315408 0
M  V30 8446 H 805.116 -3.52333 1.72057 0
M  V30 8447 H 806.606 -4.07782 0.900214 0
M  V30 8448 N 807.043 -1.17915 -1.04565 0
M  V30 8449 C 808.289 -0.972863 -1.77942 0
M  V30 8450 C 808.622 0.496753 -1.87739 0
M  V30 8451 O 807.897 1.3688 -1.38181 0
M  V30 8452 C 808.18 -1.62227 -3.21488 0
M  V30 8453 C 808.033 -3.16441 -3.19664 0
M  V30 8454 C 809.352 -1.33137 -4.19479 0
M  V30 8455 H 806.471 -0.354843 -0.645953 0
M  V30 8456 H 809.113 -1.45508 -1.22178 0
M  V30 8457 H 807.263 -1.21224 -3.69103 0
M  V30 8458 H 808.935 -3.66544 -2.80077 0
M  V30 8459 H 807.178 -3.48863 -2.57832 0
M  V30 8460 H 807.849 -3.57012 -4.21006 0
M  V30 8461 H 810.325 -1.68654 -3.80388 0
M  V30 8462 H 809.201 -1.81151 -5.18146 0
M  V30 8463 H 809.462 -0.253319 -4.41374 0
M  V30 8464 N 808.521 1.23394 -0.980386 0
M  V30 8465 C 809.454 2.23404 -0.465404 0
M  V30 8466 C 810.432 1.55735 0.467471 0
M  V30 8467 O 811.616 1.84295 0.395921 0
M  V30 8468 C 808.743 3.3712 0.32672 0
M  V30 8469 C 807.789 4.22935 -0.550296 0
M  V30 8470 S 808.622 4.96824 -1.99814 0
M  V30 8471 C 809.778 6.13991 -1.21516 0
M  V30 8472 H 810.011 2.6674 -1.31289 0
M  V30 8473 H 807.544 1.32874 -0.78638 0
M  V30 8474 H 809.502 4.03065 0.777738 0
M  V30 8475 H 808.163 2.92317 1.14933 0
M  V30 8476 H 807.356 5.03966 0.0585298 0
M  V30 8477 H 806.958 3.62058 -0.937558 0
M  V30 8478 H 809.25 6.75822 -0.476476 0
M  V30 8479 H 810.193 6.7926 -2.0003 0
M  V30 8480 H 810.601 5.59708 -0.733949 0
M  V30 8481 N 809.999 0.752036 1.385 0
M  V30 8482 C 811.227 0.318274 2.04437 0
M  V30 8483 C 811.642 -1.05285 1.56718 0
M  V30 8484 O 810.999 -1.66844 0.73956 0
M  V30 8485 C 811.05 0.330106 3.5999 0
M  V30 8486 O 810.771 1.64712 4.05957 0
M  V30 8487 C 812.272 -0.117713 4.43144 0
M  V30 8488 H 809.492 0.136228 0.657026 0
M  V30 8489 H 812.036 1.02045 1.7722 0
M  V30 8490 H 810.191 -0.323323 3.86048 0
M  V30 8491 H 810.605 1.57225 5.0038 0
M  V30 8492 H 812.079 -0.0582735 5.51969 0
M  V30 8493 H 812.556 -1.16538 4.23457 0
M  V30 8494 H 813.162 0.506784 4.2227 0
M  V30 8495 N 811.477 -1.49425 0.500989 0
M  V30 8496 C 812.409 -2.27037 -0.314159 0
M  V30 8497 C 813.422 -1.33578 -0.930626 0
M  V30 8498 O 814.611 -1.58861 -0.813968 0
M  V30 8499 C 811.711 -3.05968 -1.45729 0
M  V30 8500 C 810.884 -4.27 -0.948135 0
M  V30 8501 C 809.943 -4.87977 -1.96888 0
M  V30 8502 O 808.969 -5.48044 -1.53743 0
M  V30 8503 N 810.171 -4.77627 -3.29928 0
M  V30 8504 H 812.936 -2.97634 0.351336 0
M  V30 8505 H 810.497 -1.58427 0.333536 0
M  V30 8506 H 812.489 -3.43634 -2.1377 0
M  V30 8507 H 811.059 -2.37978 -2.02695 0
M  V30 8508 H 810.279 -3.94091 -0.0926311 0
M  V30 8509 H 811.567 -5.0541 -0.586362 0
M  V30 8510 H 810.965 -4.29926 -3.67669 0
M  V30 8511 H 809.522 -5.19478 -3.93682 0
M  V30 8512 N 812.955 -0.234822 -1.55841 0
M  V30 8513 C 814.371 0.120295 -1.59146 0
M  V30 8514 C 814.571 1.57896 -1.25184 0
M  V30 8515 O 813.627 2.32138 -0.993393 0
M  V30 8516 C 814.94 -0.217984 -2.99909 0
M  V30 8517 C 816.488 -0.161298 -3.12584 0
M  V30 8518 C 816.963 -0.473438 -4.55546 0
M  V30 8519 N 818.454 -0.423494 -4.6126 0
M  V30 8520 C 819.189 -0.638334 -5.69836 0
M  V30 8521 N 818.685 -0.915659 -6.86722 0
M  V30 8522 N 820.478 -0.569864 -5.59204 0
M  V30 8523 H 812.629 -1.18622 -1.76189 0
M  V30 8524 H 814.892 -0.476426 -0.819587 0
M  V30 8525 H 814.598 -1.2309 -3.29457 0
M  V30 8526 H 814.472 0.460707 -3.74376 0
M  V30 8527 H 816.859 0.842274 -2.82825 0
M  V30 8528 H 816.94 -0.873661 -2.40418 0
M  V30 8529 H 816.584 -1.47451 -4.86025 0
M  V30 8530 H 816.514 0.260268 -5.25956 0
M  V30 8531 H 819.005 -0.217383 -3.77274 0
M  V30 8532 H 819.318 -1.06734 -7.65394 0
M  V30 8533 H 817.663 -0.953 -6.88435 0
M  V30 8534 H 820.854 -0.35334 -4.66765 0
M  V30 8535 H 821.027 -0.740698 -6.43753 0
M  V30 8536 N 814.433 1.57553 0.0384317 0
M  V30 8537 C 815.844 1.77258 0.586211 0
M  V30 8538 C 816.195 0.864706 1.76117 0
M  V30 8539 O 815.32 0.057141 2.16325 0
M  V30 8540 C 815.915 3.21453 1.07021 0
M  V30 8541 C 814.474 3.42387 1.56358 0
M  V30 8542 C 813.621 2.72801 0.497508 0
M  V30 8543 H 816.572 1.57585 -0.187796 0
M  V30 8544 H 816.593 3.27451 1.93794 0
M  V30 8545 H 816.105 3.87505 0.214851 0
M  V30 8546 H 814.206 2.81497 2.44111 0
M  V30 8547 H 814.319 4.50968 1.61754 0
M  V30 8548 H 812.683 2.36305 0.95038 0
M  V30 8549 H 813.466 3.41529 -0.348234 0
M  V30 8550 N 815.911 -0.310526 1.54511 0
M  V30 8551 C 817.188 -1.06593 1.64004 0
M  V30 8552 C 817.568 -2.05519 0.482216 0
M  V30 8553 O 816.916 -2.22455 -0.52212 0
M  V30 8554 C 817.126 -1.75627 3.01589 0
M  V30 8555 C 818.474 -2.28173 3.58081 0
M  V30 8556 O 819.498 -1.85674 3.03979 0
M  V30 8557 O 818.357 -3.06015 4.52788 0
M  V30 8558 H 815.451 -0.492109 0.664649 0
M  V30 8559 H 817.997 -0.309374 1.66856 0
M  V30 8560 H 816.769 -1.03743 3.77297 0
M  V30 8561 H 816.392 -2.58061 3.02473 0
M  V30 8562 N 817.389 -1.46805 -0.573248 0
M  V30 8563 C 818.319 -1.60951 -1.69165 0
M  V30 8564 C 819.3 -0.45948 -1.63777 0
M  V30 8565 O 820.485 -0.68688 -1.81647 0
M  V30 8566 C 817.615 -1.60844 -3.07809 0
M  V30 8567 C 816.569 -2.74913 -3.28035 0
M  V30 8568 C 815.895 -2.59871 -4.67302 0
M  V30 8569 C 817.195 -4.16654 -3.14955 0
M  V30 8570 H 818.889 -2.54574 -1.57582 0
M  V30 8571 H 816.435 -1.22516 -0.756686 0
M  V30 8572 H 818.388 -1.69334 -3.85881 0
M  V30 8573 H 817.112 -0.637714 -3.20314 0
M  V30 8574 H 815.771 -2.65908 -2.52366 0
M  V30 8575 H 815.419 -1.60861 -4.76585 0
M  V30 8576 H 815.119 -3.36386 -4.81786 0
M  V30 8577 H 816.643 -2.70265 -5.4753 0
M  V30 8578 H 818.057 -4.26721 -3.82861 0
M  V30 8579 H 816.454 -4.93831 -3.40956 0
M  V30 8580 H 817.524 -4.36146 -2.11908 0
M  V30 8581 N 818.867 0.818669 -1.34668 0
M  V30 8582 C 819.8 1.93516 -1.20941 0
M  V30 8583 C 820.778 1.62292 -0.100061 0
M  V30 8584 O 821.962 1.86614 -0.265983 0
M  V30 8585 C 819.089 3.27612 -0.859524 0
M  V30 8586 C 818.135 3.77794 -1.97923 0
M  V30 8587 S 818.968 3.97043 -3.59329 0
M  V30 8588 C 820.124 5.3406 -3.2639 0
M  V30 8589 H 820.357 2.04864 -2.15449 0
M  V30 8590 H 817.89 0.974716 -1.19744 0
M  V30 8591 H 819.848 4.05087 -0.664444 0
M  V30 8592 H 818.509 3.14028 0.0672835 0
M  V30 8593 H 817.702 4.74883 -1.68827 0
M  V30 8594 H 817.304 3.0728 -2.13202 0
M  V30 8595 H 819.596 6.17626 -2.78469 0
M  V30 8596 H 820.539 5.68143 -4.22634 0
M  V30 8597 H 820.947 4.99773 -2.62464 0
M  V30 8598 N 820.346 1.18468 1.03938 0
M  V30 8599 C 821.762 0.934635 1.29371 0
M  V30 8600 C 821.962 -0.399067 1.97509 0
M  V30 8601 O 821.018 -1.13309 2.25648 0
M  V30 8602 C 822.331 2.10111 2.15114 0
M  V30 8603 C 823.879 2.13955 2.28456 0
M  V30 8604 C 824.354 3.30024 3.17566 0
M  V30 8605 N 825.845 3.29893 3.25153 0
M  V30 8606 C 826.58 4.16346 3.94263 0
M  V30 8607 N 826.076 5.12934 4.65693 0
M  V30 8608 N 827.869 4.04256 3.90556 0
M  V30 8609 H 820.02 2.04294 0.581185 0
M  V30 8610 H 822.283 0.892727 0.318971 0
M  V30 8611 H 821.989 3.06572 1.72355 0
M  V30 8612 H 821.863 2.06283 3.15796 0
M  V30 8613 H 824.25 1.18072 2.7045 0
M  V30 8614 H 824.331 2.2184 1.2736 0
M  V30 8615 H 823.975 4.26181 2.76283 0
M  V30 8616 H 823.905 3.19376 4.18697 0
M  V30 8617 H 826.396 2.59969 2.74271 0
M  V30 8618 H 826.709 5.75271 5.16026 0
M  V30 8619 H 825.054 5.16893 4.64593 0
M  V30 8620 H 828.245 3.28083 3.33885 0
M  V30 8621 H 828.418 4.71848 4.44144 0
M  V30 8622 N 821.824 -1.22873 0.986916 0
M  V30 8623 C 823.07 -1.91746 0.660401 0
M  V30 8624 C 823.403 -1.76738 -0.804812 0
M  V30 8625 O 822.678 -1.13246 -1.58131 0
M  V30 8626 C 822.961 -3.44156 1.05966 0
M  V30 8627 C 822.814 -3.68242 2.58298 0
M  V30 8628 C 824.133 -4.35874 0.60842 0
M  V30 8629 H 821.252 -0.696347 0.241391 0
M  V30 8630 H 823.894 -1.44867 1.22937 0
M  V30 8631 H 822.044 -3.84213 0.575534 0
M  V30 8632 H 823.716 -3.37626 3.14335 0
M  V30 8633 H 821.959 -3.12728 3.00638 0
M  V30 8634 H 822.63 -4.74956 2.81285 0
M  V30 8635 H 825.106 -4.03299 1.02417 0
M  V30 8636 H 823.982 -5.41201 0.916142 0
M  V30 8637 H 824.243 -4.39364 -0.491086 0
M  V30 8638 N 823.302 -0.75937 -1.38099 0
M  V30 8639 C 824.265 -0.14372 -2.28749 0
M  V30 8640 C 825.265 0.641338 -1.47457 0
M  V30 8641 O 826.455 0.466751 -1.67831 0
M  V30 8642 C 823.587 0.804545 -3.3127 0
M  V30 8643 H 824.78 -0.942663 -2.847 0
M  V30 8644 H 822.333 -0.526757 -1.47156 0
M  V30 8645 H 823.068 1.62895 -2.80421 0
M  V30 8646 H 822.853 0.243939 -3.9134 0
M  V30 8647 H 824.343 1.23111 -3.99041 0
M  V30 8648 N 824.78 1.49157 -0.508906 0
M  V30 8649 C 825.71 2.32109 0.254469 0
M  V30 8650 C 826.691 1.40754 0.955111 0
M  V30 8651 O 827.876 1.69658 0.944983 0
M  V30 8652 C 825.006 3.21458 1.3146 0
M  V30 8653 C 823.96 4.2167 0.733368 0
M  V30 8654 C 823.286 5.00009 1.8946 0
M  V30 8655 C 824.586 5.21544 -0.280875 0
M  V30 8656 H 826.28 2.9618 -0.43795 0
M  V30 8657 H 823.826 1.4243 -0.212062 0
M  V30 8658 H 825.779 3.78305 1.85643 0
M  V30 8659 H 824.503 2.55346 2.03632 0
M  V30 8660 H 823.162 3.65979 0.213231 0
M  V30 8661 H 822.81 4.30338 2.60419 0
M  V30 8662 H 822.51 5.67821 1.51173 0
M  V30 8663 H 824.034 5.59702 2.44061 0
M  V30 8664 H 825.448 5.73039 0.173095 0
M  V30 8665 H 823.845 5.97291 -0.580006 0
M  V30 8666 H 824.915 4.69969 -1.19404 0
M  V30 8667 N 826.258 0.243083 1.55714 0
M  V30 8668 C 827.669 -0.260788 1.8487 0
M  V30 8669 C 828.02 -1.57879 1.16485 0
M  V30 8670 O 827.145 -2.1184 0.441908 0
M  V30 8671 C 827.74 -0.479954 3.35383 0
M  V30 8672 C 826.299 -0.928096 3.64778 0
M  V30 8673 C 825.446 -0.00316416 2.773 0
M  V30 8674 H 828.397 0.465743 1.51712 0
M  V30 8675 H 828.418 -1.32308 3.56756 0
M  V30 8676 H 827.93 0.479468 3.85127 0
M  V30 8677 H 826.031 -1.90012 3.20509 0
M  V30 8678 H 826.144 -0.7876 4.72582 0
M  V30 8679 H 824.508 -0.513849 2.49463 0
M  V30 8680 H 825.291 0.951562 3.29849 0
M  V30 8681 N 827.736 -1.57571 -0.0300757 0
M  V30 8682 C 828.699 -2.05468 -1.01565 0
M  V30 8683 C 829.699 -0.958628 -1.29101 0
M  V30 8684 O 830.889 -1.22228 -1.24121 0
M  V30 8685 C 828.021 -2.47077 -2.34874 0
M  V30 8686 H 829.214 -2.93797 -0.601936 0
M  V30 8687 H 826.767 -1.53828 -0.276878 0
M  V30 8688 H 827.502 -1.61901 -2.80996 0
M  V30 8689 H 827.287 -3.27097 -2.16218 0
M  V30 8690 H 828.777 -2.84564 -3.05635 0
M  V30 8691 N 829.214 0.302327 -1.54673 0
M  V30 8692 C 830.46 1.03924 -1.74149 0
M  V30 8693 C 830.793 1.86968 -0.525041 0
M  V30 8694 O 830.068 1.88538 0.477868 0
M  V30 8695 C 830.351 1.94633 -3.02969 0
M  V30 8696 C 830.204 1.14778 -4.34909 0
M  V30 8697 C 831.523 2.93826 -3.27649 0
M  V30 8698 H 828.642 0.376405 -0.633631 0
M  V30 8699 H 831.284 0.314007 -1.87387 0
M  V30 8700 H 829.434 2.56471 -2.91813 0
M  V30 8701 H 831.106 0.552363 -4.57981 0
M  V30 8702 H 829.349 0.450462 -4.31455 0
M  V30 8703 H 830.02 1.81495 -5.21309 0
M  V30 8704 H 832.496 2.42117 -3.38406 0
M  V30 8705 H 831.372 3.54462 -4.19104 0
M  V30 8706 H 831.633 3.67416 -2.45882 0
M  V30 8707 N 830.692 1.47107 0.565454 0
M  V30 8708 C 831.94 1.53005 1.32038 0
M  V30 8709 C 832.261 0.190453 1.94068 0
M  V30 8710 O 831.531 -0.784783 1.79494 0
M  V30 8711 H 830.111 0.563578 0.490294 0
M  V30 8712 H 832.773 1.83351 0.660928 0
M  V30 8713 H 831.869 2.29215 2.11818 0
M  V30 8714 N 832.17 -0.811516 1.35101 0
M  V30 8715 C 833.416 -1.57068 1.28287 0
M  V30 8716 C 833.749 -1.93667 -0.143808 0
M  V30 8717 O 833.024 -1.60953 -1.09199 0
M  V30 8718 C 833.307 -2.86259 2.18466 0
M  V30 8719 C 833.16 -2.56168 3.69727 0
M  V30 8720 C 834.479 -3.87924 2.07852 0
M  V30 8721 H 831.598 -0.569869 0.467353 0
M  V30 8722 H 834.24 -0.934023 1.65457 0
M  V30 8723 H 832.39 -3.4059 1.86898 0
M  V30 8724 H 834.062 -2.08059 4.11715 0
M  V30 8725 H 832.305 -1.89436 3.90252 0
M  V30 8726 H 832.976 -3.48344 4.28206 0
M  V30 8727 H 835.452 -3.4298 2.35593 0
M  V30 8728 H 834.328 -4.76106 2.73157 0
M  V30 8729 H 834.589 -4.2923 1.05896 0
M  V30 8730 N 833.648 -1.19017 -1.03309 0
M  V30 8731 C 834.578 -0.94772 -2.13402 0
M  V30 8732 C 835.559 0.117383 -1.69694 0
M  V30 8733 O 836.744 -0.0367733 -1.94165 0
M  V30 8734 C 833.874 -0.480977 -3.43953 0
M  V30 8735 C 832.828 -1.48743 -4.01322 0
M  V30 8736 C 832.154 -0.877924 -5.27443 0
M  V30 8737 C 833.454 -2.86642 -4.36616 0
M  V30 8738 H 835.148 -1.86846 -2.33942 0
M  V30 8739 H 832.694 -0.899781 -1.12427 0
M  V30 8740 H 834.647 -0.298677 -4.2034 0
M  V30 8741 H 833.371 0.475348 -3.23122 0
M  V30 8742 H 832.03 -1.65681 -3.27025 0
M  V30 8743 H 831.678 0.0858232 -5.02927 0
M  V30 8744 H 831.378 -1.54996 -5.66789 0
M  V30 8745 H 832.902 -0.706326 -6.06501 0
M  V30 8746 H 834.316 -2.73312 -5.03958 0
M  V30 8747 H 832.713 -3.50599 -4.87032 0
M  V30 8748 H 833.783 -3.39617 -3.46105 0
M  V30 8749 N 835.127 1.22348 -0.993418 0
M  V30 8750 C 836.404 1.86632 -0.585495 0
M  V30 8751 C 836.784 1.89156 0.937187 0
M  V30 8752 O 836.132 1.38247 1.81934 0
M  V30 8753 C 836.342 3.27481 -1.20652 0
M  V30 8754 C 837.69 4.03971 -1.30738 0
M  V30 8755 O 838.714 3.3675 -1.16096 0
M  V30 8756 O 837.573 5.24302 -1.54173 0
M  V30 8757 H 834.667 0.802704 -0.198984 0
M  V30 8758 H 837.213 1.30122 -1.08933 0
M  V30 8759 H 835.985 3.20281 -2.24802 0
M  V30 8760 H 835.608 3.91597 -0.688312 0
M  V30 8761 N 836.605 0.766683 1.37694 0
M  V30 8762 C 837.538 0.0959288 2.27998 0
M  V30 8763 C 838.516 -0.714493 1.46061 0
M  V30 8764 O 839.7 -0.690337 1.75404 0
M  V30 8765 C 836.827 -0.87057 3.27321 0
M  V30 8766 C 835.873 -0.144771 4.26254 0
M  V30 8767 S 836.706 1.16365 5.22704 0
M  V30 8768 C 837.862 0.200564 6.25579 0
M  V30 8769 H 838.095 0.861666 2.84539 0
M  V30 8770 H 835.628 0.559845 1.43893 0
M  V30 8771 H 837.586 -1.42282 3.85053 0
M  V30 8772 H 836.247 -1.60938 2.69737 0
M  V30 8773 H 835.44 -0.877259 4.96307 0
M  V30 8774 H 835.042 0.33633 3.72485 0
M  V30 8775 H 837.334 -0.628833 6.74575 0
M  V30 8776 H 838.277 0.869117 7.02746 0
M  V30 8777 H 838.685 -0.185972 5.64194 0
M  V30 8778 N 838.083 -1.48885 0.516809 0
M  V30 8779 C 839.013 -2.32241 -0.242157 0
M  V30 8780 C 839.994 -1.41258 -0.947633 0
M  V30 8781 O 841.179 -1.70156 -0.935973 0
M  V30 8782 C 838.309 -3.22151 -1.29754 0
M  V30 8783 C 837.263 -4.22053 -0.710995 0
M  V30 8784 C 836.589 -5.01007 -1.86806 0
M  V30 8785 C 837.889 -5.21388 0.30853 0
M  V30 8786 H 839.583 -2.95943 0.453651 0
M  V30 8787 H 837.129 -1.42316 0.219612 0
M  V30 8788 H 839.082 -3.79284 -1.83634 0
M  V30 8789 H 837.806 -2.56423 -2.02274 0
M  V30 8790 H 836.465 -3.66087 -0.193819 0
M  V30 8791 H 836.113 -4.31713 -2.58133 0
M  V30 8792 H 835.813 -5.68615 -1.48159 0
M  V30 8793 H 837.337 -5.60989 -2.4109 0
M  V30 8794 H 838.751 -5.73122 -0.142703 0
M  V30 8795 H 837.148 -5.96975 0.611673 0
M  V30 8796 H 838.218 -4.69329 1.21894 0
M  V30 8797 N 839.561 -0.251338 -1.55583 0
M  V30 8798 C 840.977 0.103409 -1.59265 0
M  V30 8799 C 841.177 1.56559 -1.26852 0
M  V30 8800 O 840.233 2.31071 -1.01796 0
M  V30 8801 C 841.546 -0.249781 -2.99661 0
M  V30 8802 C 843.094 -0.194442 -3.12395 0
M  V30 8803 C 843.569 -0.521728 -4.55019 0
M  V30 8804 N 845.06 -0.472393 -4.60785 0
M  V30 8805 C 845.795 -0.698737 -5.69127 0
M  V30 8806 N 845.291 -0.988443 -6.85713 0
M  V30 8807 N 847.084 -0.629143 -5.58568 0
M  V30 8808 H 839.235 -1.20484 -1.74921 0
M  V30 8809 H 841.498 -0.485092 -0.814488 0
M  V30 8810 H 841.204 -1.26577 -3.28133 0
M  V30 8811 H 841.078 0.420973 -3.74844 0
M  V30 8812 H 843.465 0.812229 -2.83702 0
M  V30 8813 H 843.546 -0.899111 -2.39478 0
M  V30 8814 H 843.19 -1.52597 -4.84434 0
M  V30 8815 H 843.12 0.204468 -5.26203 0
M  V30 8816 H 845.611 -0.257386 -3.77022 0
M  V30 8817 H 845.924 -1.14846 -7.64219 0
M  V30 8818 H 844.269 -1.02596 -6.87386 0
M  V30 8819 H 847.46 -0.402826 -4.66364 0
M  V30 8820 H 847.633 -0.808935 -6.42931 0
M  V30 8821 N 841.039 1.57585 0.0217189 0
M  V30 8822 C 842.269 1.9359 0.721572 0
M  V30 8823 C 842.677 0.850132 1.69025 0
M  V30 8824 O 842.02 -0.181539 1.82801 0
M  V30 8825 C 842.082 3.25445 1.52729 0
M  V30 8826 C 841.746 4.51251 0.722586 0
M  V30 8827 C 842.743 5.19896 0.0196598 0
M  V30 8828 C 840.428 4.97745 0.674959 0
M  V30 8829 C 842.422 6.33319 -0.720114 0
M  V30 8830 C 840.109 6.11062 -0.068555 0
M  V30 8831 C 841.107 6.78704 -0.764845 0
M  V30 8832 O 840.795 7.89852 -1.49627 0
M  V30 8833 H 840.527 0.643409 0.207366 0
M  V30 8834 H 843.081 2.05391 -0.0189346 0
M  V30 8835 H 841.311 3.0999 2.31178 0
M  V30 8836 H 843 3.46721 2.11044 0
M  V30 8837 H 843.766 4.84977 0.0474394 0
M  V30 8838 H 839.645 4.44934 1.20643 0
M  V30 8839 H 843.189 6.86051 -1.26413 0
M  V30 8840 H 839.086 6.45425 -0.0982318 0
M  V30 8841 H 839.854 8.06251 -1.41071 0
M  V30 8842 N 842.517 -0.29412 1.54831 0
M  V30 8843 C 843.467 -1.36476 1.82643 0
M  V30 8844 C 844.451 -1.45638 0.683984 0
M  V30 8845 O 845.643 -1.49675 0.944801 0
M  V30 8846 C 842.772 -2.72865 2.08326 0
M  V30 8847 C 841.858 -2.67898 3.28773 0
M  V30 8848 N 842.249 -2.32547 4.49172 0
M  V30 8849 C 840.547 -2.98991 3.30939 0
M  V30 8850 C 841.248 -2.37048 5.31209 0
M  V30 8851 N 840.224 -2.74679 4.69097 0
M  V30 8852 H 844.026 -1.08119 2.7329 0
M  V30 8853 H 841.54 -0.502718 1.54423 0
M  V30 8854 H 843.537 -3.5007 2.264 0
M  V30 8855 H 842.197 -3.02127 1.1895 0
M  V30 8856 H 843.208 -2.04883 4.7565 0
M  V30 8857 H 839.885 -3.33104 2.51691 0
M  V30 8858 H 841.275 -2.12457 6.37426 0
M  V30 8859 N 843.995 -1.47404 -0.557645 0
M  V30 8860 C 845.223 -1.57622 -1.34026 0
M  V30 8861 C 845.638 -0.226256 -1.87439 0
M  V30 8862 O 844.995 0.78043 -1.64971 0
M  V30 8863 C 845.046 -2.60111 -2.51047 0
M  V30 8864 O 844.767 -3.89866 -1.99841 0
M  V30 8865 C 846.268 -2.80508 -3.43264 0
M  V30 8866 H 843.488 -0.532271 -0.40857 0
M  V30 8867 H 846.032 -1.93019 -0.675555 0
M  V30 8868 H 844.187 -2.27648 -3.13457 0
M  V30 8869 H 844.601 -4.45864 -2.76234 0
M  V30 8870 H 846.075 -3.56084 -4.21792 0
M  V30 8871 H 846.552 -1.88314 -3.9678 0
M  V30 8872 H 847.158 -3.14166 -2.86671 0
M  V30 8873 N 845.473 0.80434 -1.35529 0
M  V30 8874 C 846.72 1.56154 -1.28927 0
M  V30 8875 C 847.048 1.94026 0.135682 0
M  V30 8876 O 846.303 1.61759 1.10148 0
M  V30 8877 C 846.602 2.85988 -2.14349 0
M  V30 8878 C 846.268 2.67323 -3.6311 0
M  V30 8879 C 844.93 2.61941 -4.03659 0
M  V30 8880 C 847.282 2.49699 -4.57493 0
M  V30 8881 C 844.61 2.3688 -5.36754 0
M  V30 8882 C 846.962 2.26168 -5.90788 0
M  V30 8883 C 845.626 2.19209 -6.30479 0
M  V30 8884 H 844.896 0.571407 -0.471779 0
M  V30 8885 H 847.543 0.929193 -1.67446 0
M  V30 8886 H 845.848 3.53612 -1.68718 0
M  V30 8887 H 847.545 3.43697 -2.06576 0
M  V30 8888 H 844.135 2.72361 -3.30934 0
M  V30 8889 H 848.319 2.52869 -4.27049 0
M  V30 8890 H 843.575 2.29964 -5.66504 0
M  V30 8891 H 847.749 2.11522 -6.63499 0
M  V30 8892 H 845.376 1.99553 -7.33541 0
M  V30 8893 N 846.951 1.19563 1.02676 0
M  V30 8894 C 848.179 1.02488 1.79732 0
M  V30 8895 C 848.594 -0.426302 1.83924 0
M  V30 8896 O 847.951 -1.29609 1.28483 0
M  V30 8897 C 848.002 1.58944 3.24683 0
M  V30 8898 O 847.723 2.98382 3.2078 0
M  V30 8899 C 849.224 1.46681 4.1833 0
M  V30 8900 H 846.444 0.361098 0.565552 0
M  V30 8901 H 848.988 1.58426 1.29311 0
M  V30 8902 H 847.143 1.0715 3.72287 0
M  V30 8903 H 847.557 3.24983 4.11687 0
M  V30 8904 H 849.031 1.90959 5.17918 0
M  V30 8905 H 849.508 0.417663 4.3721 0
M  V30 8906 H 850.114 1.97616 3.76601 0
M  V30 8907 N 848.429 -1.21819 0.999893 0
M  V30 8908 C 849.392 -2.22227 0.561044 0
M  V30 8909 C 850.392 -1.56722 -0.359858 0
M  V30 8910 O 851.582 -1.73546 -0.150848 0
M  V30 8911 C 848.714 -3.40409 -0.182987 0
M  V30 8912 H 849.907 -2.62567 1.44909 0
M  V30 8913 H 847.46 -1.34991 0.78785 0
M  V30 8914 H 848.195 -3.05551 -1.08671 0
M  V30 8915 H 847.98 -3.89171 0.47833 0
M  V30 8916 H 849.47 -4.14856 -0.477952 0
M  V30 8917 N 849.908 -0.773975 -1.37286 0
M  V30 8918 C 851.156 -0.338636 -1.99243 0
M  V30 8919 C 851.477 1.08919 -1.61746 0
M  V30 8920 O 850.747 1.74822 -0.88397 0
M  V30 8921 H 849.327 -0.12222 -0.736934 0
M  V30 8922 H 851.989 -0.992595 -1.67731 0
M  V30 8923 H 851.085 -0.418055 -3.09287 0
M  V30 8924 N 851.386 1.48609 -0.524698 0
M  V30 8925 C 852.349 2.28041 0.230166 0
M  V30 8926 C 853.349 1.35065 0.872584 0
M  V30 8927 O 854.539 1.58007 0.73345 0
M  V30 8928 C 851.671 3.13778 1.33252 0
M  V30 8929 H 852.864 2.96239 -0.467161 0
M  V30 8930 H 850.417 1.53763 -0.280452 0
M  V30 8931 H 851.152 2.502 2.06327 0
M  V30 8932 H 850.937 3.82165 0.877058 0
M  V30 8933 H 852.427 3.7371 1.86362 0
M  V30 8934 N 852.864 0.259585 1.55447 0
M  V30 8935 C 854.112 -0.360893 1.98852 0
M  V30 8936 C 854.433 -1.57535 1.14924 0
M  V30 8937 O 853.703 -1.94485 0.235025 0
M  V30 8938 H 852.283 -0.136332 0.734454 0
M  V30 8939 H 854.945 0.361319 1.91522 0
M  V30 8940 H 854.041 -0.661388 3.05012 0
M  V30 8941 N 854.342 -1.57594 -0.0133615 0
M  V30 8942 C 855.588 -1.91105 -0.696457 0
M  V30 8943 C 855.943 -0.859872 -1.72116 0
M  V30 8944 O 855.236 0.129579 -1.91161 0
M  V30 8945 C 855.43 -3.29121 -1.39336 0
M  V30 8946 C 855.259 -4.47565 -0.437666 0
M  V30 8947 C 854.029 -5.05272 -0.0529454 0
M  V30 8948 C 856.227 -5.13479 0.290537 0
M  V30 8949 N 854.209 -6.07232 0.902355 0
M  V30 8950 C 855.58 -6.10147 1.10097 0
M  V30 8951 C 857.635 -4.96627 0.355804 0
M  V30 8952 C 856.338 -6.91778 1.97069 0
M  V30 8953 C 858.364 -5.78833 1.21271 0
M  V30 8954 C 857.726 -6.75083 2.01102 0
M  V30 8955 H 853.825 -0.747882 -0.228464 0
M  V30 8956 H 856.409 -1.94651 0.0438462 0
M  V30 8957 H 854.58 -3.26474 -2.10403 0
M  V30 8958 H 856.312 -3.501 -2.03008 0
M  V30 8959 H 853.067 -4.71747 -0.418486 0
M  V30 8960 H 853.491 -6.6289 1.37498 0
M  V30 8961 H 858.133 -4.22077 -0.247105 0
M  V30 8962 H 855.851 -7.65662 2.58433 0
M  V30 8963 H 859.437 -5.67838 1.26694 0
M  V30 8964 H 858.317 -7.37587 2.66337 0
M  V30 8965 N 855.82 0.285905 -1.54985 0
M  V30 8966 C 856.783 1.33625 -1.86218 0
M  V30 8967 C 857.783 1.42971 -0.735936 0
M  V30 8968 O 858.973 1.42345 -1.00417 0
M  V30 8969 C 856.105 2.71926 -2.05595 0
M  V30 8970 H 857.298 1.07167 -2.80099 0
M  V30 8971 H 854.851 0.523335 -1.47278 0
M  V30 8972 H 855.586 3.03583 -1.14053 0
M  V30 8973 H 855.371 2.6653 -2.87583 0
M  V30 8974 H 856.861 3.47841 -2.31077 0
M  V30 8975 N 857.298 1.47698 0.54982 0
M  V30 8976 C 858.528 1.58101 1.32995 0
M  V30 8977 C 858.936 0.232939 1.87761 0
M  V30 8978 O 858.279 -0.785058 1.6608 0
M  V30 8979 C 858.341 2.55228 2.53178 0
M  V30 8980 C 858.005 4.00756 2.19645 0
M  V30 8981 C 859.002 4.89025 1.76496 0
M  V30 8982 C 856.687 4.46147 2.30777 0
M  V30 8983 C 858.681 6.20707 1.44919 0
M  V30 8984 C 856.368 5.77856 1.98812 0
M  V30 8985 C 857.366 6.64957 1.55952 0
M  V30 8986 O 857.054 7.94217 1.24396 0
M  V30 8987 H 856.786 0.536362 0.411451 0
M  V30 8988 H 859.34 1.94092 0.67212 0
M  V30 8989 H 857.57 2.14319 3.21876 0
M  V30 8990 H 859.259 2.55678 3.15251 0
M  V30 8991 H 860.025 4.55201 1.67383 0
M  V30 8992 H 855.904 3.78552 2.63096 0
M  V30 8993 H 859.448 6.88649 1.11392 0
M  V30 8994 H 855.345 6.11219 2.0756 0
M  V30 8995 H 856.113 8.06789 1.37964 0
M  V30 8996 N 858.776 -0.797141 1.35954 0
M  V30 8997 C 860.053 -1.54224 1.2031 0
M  V30 8998 C 860.433 -2.10013 -0.213926 0
M  V30 8999 O 859.781 -1.93292 -1.21862 0
M  V30 9000 C 859.991 -2.6433 2.27883 0
M  V30 9001 C 861.339 -3.32418 2.64165 0
M  V30 9002 O 862.363 -2.74607 2.26868 0
M  V30 9003 O 861.222 -4.36876 3.28331 0
M  V30 9004 H 858.316 -0.681857 0.467974 0
M  V30 9005 H 860.862 -0.836288 1.47663 0
M  V30 9006 H 859.634 -2.21044 3.22885 0
M  V30 9007 H 859.257 -3.42551 2.01853 0
M  V30 9008 N 860.254 -1.20106 -1.0204 0
M  V30 9009 C 861.484 -1.0329 -1.78927 0
M  V30 9010 C 861.892 0.421115 -1.84454 0
M  V30 9011 O 861.235 1.30422 -1.29367 0
M  V30 9012 C 861.297 -1.53627 -3.25021 0
M  V30 9013 C 860.961 -3.01869 -3.4311 0
M  V30 9014 C 861.958 -3.9956 -3.32638 0
M  V30 9015 C 859.643 -3.40746 -3.6905 0
M  V30 9016 C 861.637 -5.34119 -3.47844 0
M  V30 9017 C 859.324 -4.75462 -3.839 0
M  V30 9018 C 860.322 -5.71957 -3.73302 0
M  V30 9019 O 860.01 -7.04231 -3.87703 0
M  V30 9020 H 859.742 -0.363962 -0.569656 0
M  V30 9021 H 862.296 -1.59551 -1.29354 0
M  V30 9022 H 860.526 -0.917481 -3.75658 0
M  V30 9023 H 862.215 -1.32889 -3.8353 0
M  V30 9024 H 862.981 -3.70869 -3.12539 0
M  V30 9025 H 858.86 -2.66182 -3.76388 0
M  V30 9026 H 862.404 -6.09421 -3.39488 0
M  V30 9027 H 858.301 -5.03844 -4.03499 0
M  V30 9028 H 859.069 -7.11425 -4.04744 0
M  V30 9029 N 861.732 1.21287 -1.00634 0
M  V30 9030 C 862.98 1.90013 -0.688438 0
M  V30 9031 C 863.301 1.78573 0.783365 0
M  V30 9032 O 862.571 1.1815 1.56261 0
M  V30 9033 H 861.151 0.703336 -0.251648 0
M  V30 9034 H 863.813 1.47346 -1.27574 0
M  V30 9035 H 862.909 2.96879 -0.962781 0
M  V30 9036 N 863.21 0.781244 1.36873 0
M  V30 9037 C 864.438 0.361566 2.03716 0
M  V30 9038 C 864.853 -1.01937 1.58916 0
M  V30 9039 O 864.21 -1.65237 0.774783 0
M  V30 9040 C 864.261 0.406391 3.59208 0
M  V30 9041 O 863.982 1.73286 4.02372 0
M  V30 9042 C 865.483 -0.0236894 4.43294 0
M  V30 9043 H 862.703 0.150133 0.653988 0
M  V30 9044 H 865.247 1.05781 1.75016 0
M  V30 9045 H 863.402 -0.241364 3.86647 0
M  V30 9046 H 863.816 1.67804 4.96933 0
M  V30 9047 H 865.29 0.0588205 5.51969 0
M  V30 9048 H 865.767 -1.07529 4.25833 0
M  V30 9049 H 866.373 0.59624 4.211 0
M  V30 9050 N 864.689 -1.48329 0.532571 0
M  V30 9051 C 865.914 -2.074 0.00147755 0
M  V30 9052 C 866.339 -1.38615 -1.27151 0
M  V30 9053 O 865.697 -0.452949 -1.75551 0
M  V30 9054 C 865.745 -3.60029 -0.202866 0
M  V30 9055 O 864.849 -3.92327 -1.27097 0
M  V30 9056 H 864.19 -0.662777 0.0402883 0
M  V30 9057 H 866.72 -1.90701 0.741224 0
M  V30 9058 H 866.73 -4.05783 -0.424722 0
M  V30 9059 H 865.405 -4.09496 0.727033 0
M  V30 9060 H 863.982 -3.58348 -1.03156 0
M  V30 9061 N 866.167 -0.267825 -1.55308 0
M  V30 9062 C 867.13 0.60965 -2.20943 0
M  V30 9063 C 868.13 1.0869 -1.18504 0
M  V30 9064 O 869.32 0.988248 -1.43455 0
M  V30 9065 C 866.452 1.84027 -2.86961 0
M  V30 9066 H 867.645 0.0366806 -2.99878 0
M  V30 9067 H 865.198 -0.0183941 -1.56289 0
M  V30 9068 H 865.933 2.45394 -2.1202 0
M  V30 9069 H 865.718 1.50605 -3.62023 0
M  V30 9070 H 867.208 2.46442 -3.37129 0
M  V30 9071 N 867.645 1.57599 0.00500368 0
M  V30 9072 C 868.922 1.81561 0.727654 0
M  V30 9073 C 869.302 0.871604 1.92266 0
M  V30 9074 O 868.65 -0.0808232 2.28357 0
M  V30 9075 C 868.86 3.29922 1.13809 0
M  V30 9076 C 870.208 3.95531 1.54403 0
M  V30 9077 O 871.232 3.34215 1.23202 0
M  V30 9078 O 870.091 5.03535 2.12402 0
M  V30 9079 H 867.185 0.747462 0.353878 0
M  V30 9080 H 869.731 1.69688 -0.0200667 0
M  V30 9081 H 868.503 3.90253 0.286078 0
M  V30 9082 H 868.126 3.46775 1.94507 0
M  V30 9083 N 869.123 -0.277682 1.55134 0
M  V30 9084 C 870.348 -1.03254 1.7987 0
M  V30 9085 C 870.773 -1.79324 0.567861 0
M  V30 9086 O 870.131 -1.74764 -0.4824 0
M  V30 9087 C 870.179 -1.9705 3.02 0
M  V30 9088 O 869.283 -3.05744 2.76757 0
M  V30 9089 H 868.624 -0.295447 0.594649 0
M  V30 9090 H 871.154 -0.308013 2.02268 0
M  V30 9091 H 871.164 -2.3909 3.30606 0
M  V30 9092 H 869.839 -1.41094 3.91236 0
M  V30 9093 H 868.416 -2.68052 2.59235 0
M  V30 9094 N 870.601 -1.47988 -0.541979 0
M  V30 9095 C 871.511 -1.64276 -1.67483 0
M  V30 9096 C 872.527 -0.525387 -1.65879 0
M  V30 9097 O 873.703 -0.794912 -1.85049 0
M  V30 9098 C 870.768 -1.66744 -3.03969 0
M  V30 9099 C 869.829 -2.90021 -3.16522 0
M  V30 9100 C 869.062 -2.92362 -4.46498 0
M  V30 9101 O 869.285 -2.03462 -5.32878 0
M  V30 9102 O 868.219 -3.84399 -4.63164 0
M  V30 9103 H 872.045 -2.60164 -1.5668 0
M  V30 9104 H 869.63 -1.31249 -0.71372 0
M  V30 9105 H 871.512 -1.70958 -3.85164 0
M  V30 9106 H 870.187 -0.740277 -3.15122 0
M  V30 9107 H 869.094 -2.91345 -2.34667 0
M  V30 9108 H 870.427 -3.82082 -3.10281 0
M  V30 9109 N 872.079 0.78992 -1.36375 0
M  V30 9110 C 873.042 1.88414 -1.30509 0
M  V30 9111 C 874.042 1.59384 -0.2129 0
M  V30 9112 O 875.232 1.67805 -0.467651 0
M  V30 9113 C 872.364 3.25188 -1.02302 0
M  V30 9114 H 873.557 1.95031 -2.27822 0
M  V30 9115 H 871.11 0.987664 -1.2114 0
M  V30 9116 H 871.845 3.24254 -0.0544486 0
M  V30 9117 H 871.63 3.47647 -1.81338 0
M  V30 9118 H 873.12 4.05252 -1.00801 0
M  V30 9119 N 873.557 1.20646 1.01402 0
M  V30 9120 C 874.49 0.900926 2.09663 0
M  V30 9121 C 875.468 -0.14801 1.61925 0
M  V30 9122 O 876.652 -0.0210235 1.88488 0
M  V30 9123 C 873.779 0.351097 3.36875 0
M  V30 9124 C 872.825 1.38142 4.03508 0
M  V30 9125 S 873.658 2.94741 4.47089 0
M  V30 9126 C 874.814 2.41341 5.77499 0
M  V30 9127 H 875.047 1.81773 2.35257 0
M  V30 9128 H 872.58 1.03521 1.14555 0
M  V30 9129 H 874.538 0.0404201 4.1048 0
M  V30 9130 H 873.199 -0.544255 3.09349 0
M  V30 9131 H 872.392 0.94614 4.9504 0
M  V30 9132 H 871.994 1.63971 3.36139 0
M  V30 9133 H 874.286 1.81263 6.52802 0
M  V30 9134 H 875.229 3.31278 6.25828 0
M  V30 9135 H 875.637 1.83374 5.33886 0
M  V30 9136 N 875.035 -1.20752 1.01276 0
M  V30 9137 C 876.282 -1.90021 0.699887 0
M  V30 9138 C 876.61 -1.78604 -0.770113 0
M  V30 9139 O 875.865 -1.16195 -1.57471 0
M  V30 9140 C 876.164 -3.40808 1.07633 0
M  V30 9141 C 875.83 -3.72423 2.54189 0
M  V30 9142 C 874.492 -3.80762 2.94234 0
M  V30 9143 C 876.844 -3.87025 3.49086 0
M  V30 9144 C 874.172 -4.01158 4.28123 0
M  V30 9145 C 876.524 -4.0893 4.82658 0
M  V30 9146 C 875.188 -4.15498 5.22415 0
M  V30 9147 H 874.458 -0.695335 0.256107 0
M  V30 9148 H 877.105 -1.43096 1.27263 0
M  V30 9149 H 875.41 -3.89521 0.421944 0
M  V30 9150 H 877.107 -3.92693 0.811997 0
M  V30 9151 H 873.697 -3.66529 2.22158 0
M  V30 9152 H 877.881 -3.79942 3.19309 0
M  V30 9153 H 873.137 -4.04476 4.58486 0
M  V30 9154 H 877.311 -4.19172 5.56119 0
M  V30 9155 H 874.938 -4.31055 6.26176 0
M  V30 9156 N 876.513 -0.788492 -1.36457 0
M  V30 9157 C 877.79 -0.284484 -1.9352 0
M  V30 9158 C 878.17 1.2232 -1.7205 0
M  V30 9159 O 877.518 2.01424 -1.07892 0
M  V30 9160 C 877.728 -0.676106 -3.42388 0
M  V30 9161 C 879.076 -0.655327 -4.19512 0
M  V30 9162 O 880.1 -0.616523 -3.50824 0
M  V30 9163 O 878.959 -0.697391 -5.42032 0
M  V30 9164 H 876.053 -0.0701769 -0.824017 0
M  V30 9165 H 878.599 -0.870974 -1.45644 0
M  V30 9166 H 877.371 -1.71596 -3.51668 0
M  V30 9167 H 876.994 -0.0634517 -3.97549 0
M  V30 9168 N 877.991 1.48044 -0.54043 0
M  V30 9169 C 879.221 2.06595 -0.0144943 0
M  V30 9170 C 879.629 1.39593 1.27713 0
M  V30 9171 O 878.972 0.480794 1.77297 0
M  V30 9172 C 879.034 3.5849 0.269316 0
M  V30 9173 C 878.698 4.47429 -0.930372 0
M  V30 9174 C 879.695 4.8657 -1.83155 0
M  V30 9175 C 877.38 4.89185 -1.14032 0
M  V30 9176 C 879.374 5.66246 -2.92649 0
M  V30 9177 C 877.061 5.6863 -2.23838 0
M  V30 9178 C 878.059 6.07069 -3.12979 0
M  V30 9179 O 877.747 6.84917 -4.20884 0
M  V30 9180 H 877.479 0.675086 -0.0351467 0
M  V30 9181 H 880.033 1.91275 -0.74853 0
M  V30 9182 H 878.263 3.71961 1.05745 0
M  V30 9183 H 879.952 3.99124 0.738595 0
M  V30 9184 H 880.718 4.54924 -1.68134 0
M  V30 9185 H 876.597 4.58742 -0.455717 0
M  V30 9186 H 880.141 5.96169 -3.62254 0
M  V30 9187 H 876.038 5.99688 -2.38839 0
M  V30 9188 H 876.806 7.03287 -4.18723 0
M  V30 9189 N 879.47 0.276058 1.55163 0
M  V30 9190 C 880.4 -0.604633 2.25536 0
M  V30 9191 C 881.381 -1.15813 1.24585 0
M  V30 9192 O 882.566 -1.1921 1.53306 0
M  V30 9193 C 879.696 -1.78836 2.97716 0
M  V30 9194 C 878.65 -1.36635 4.05604 0
M  V30 9195 C 877.976 -2.63325 4.65364 0
M  V30 9196 C 879.276 -0.515858 5.19746 0
M  V30 9197 H 880.97 -0.0177483 2.99395 0
M  V30 9198 H 878.516 -0.00709627 1.43998 0
M  V30 9199 H 880.469 -2.41036 3.45658 0
M  V30 9200 H 879.193 -2.40109 2.21394 0
M  V30 9201 H 877.852 -0.767541 3.58475 0
M  V30 9202 H 877.5 -3.22858 3.85709 0
M  V30 9203 H 877.2 -2.358 5.38212 0
M  V30 9204 H 878.724 -3.26372 5.16056 0
M  V30 9205 H 880.138 -1.04289 5.63735 0
M  V30 9206 H 878.535 -0.335449 5.99162 0
M  V30 9207 H 879.605 0.465137 4.82664 0
M  V30 9208 N 880.948 -1.576 0.00335426 0
M  V30 9209 C 881.895 -2.08632 -0.986975 0
M  V30 9210 C 882.865 -0.982491 -1.33927 0
M  V30 9211 O 884.05 -1.25513 -1.43705 0
M  V30 9212 C 881.19 -2.59705 -2.27261 0
M  V30 9213 C 880.303 -3.84002 -1.97905 0
M  V30 9214 C 879.438 -4.23563 -3.20574 0
M  V30 9215 C 878.477 -5.40688 -2.8692 0
M  V30 9216 N 877.614 -5.75526 -4.02136 0
M  V30 9217 H 882.454 -2.92977 -0.544855 0
M  V30 9218 H 879.991 -1.44831 -0.257376 0
M  V30 9219 H 881.949 -2.87395 -3.02423 0
M  V30 9220 H 880.579 -1.7823 -2.69136 0
M  V30 9221 H 879.631 -3.63199 -1.13096 0
M  V30 9222 H 880.943 -4.69261 -1.69102 0
M  V30 9223 H 880.097 -4.52554 -4.04079 0
M  V30 9224 H 878.836 -3.37019 -3.52518 0
M  V30 9225 H 877.841 -5.11417 -2.01822 0
M  V30 9226 H 879.066 -6.2891 -2.5622 0
M  V30 9227 H 877.012 -4.9194 -4.33971 0
M  V30 9228 H 876.929 -6.55367 -3.76869 0
M  V30 9229 H 878.197 -6.0911 -4.8642 0
M  V30 9230 N 882.426 0.269451 -1.5528 0
M  V30 9231 C 883.674 0.998604 -1.75705 0
M  V30 9232 C 883.995 1.86691 -0.563175 0
M  V30 9233 O 883.265 1.91305 0.421811 0
M  V30 9234 H 881.845 0.371698 -0.647958 0
M  V30 9235 H 884.507 0.292826 -1.92688 0
M  V30 9236 H 883.603 1.63348 -2.6594 0
M  V30 9237 N 883.904 1.48273 0.534124 0
M  V30 9238 C 885.134 1.59503 1.31311 0
M  V30 9239 C 885.542 0.25284 1.87503 0
M  V30 9240 O 884.885 -0.767399 1.66903 0
M  V30 9241 C 884.947 2.57899 2.50456 0
M  V30 9242 C 884.611 4.03063 2.15382 0
M  V30 9243 C 885.608 4.90869 1.713 0
M  V30 9244 C 883.293 4.4857 2.26032 0
M  V30 9245 C 885.287 6.22209 1.38328 0
M  V30 9246 C 882.974 5.79932 1.92672 0
M  V30 9247 C 883.972 6.66574 1.4889 0
M  V30 9248 O 883.66 7.95492 1.15966 0
M  V30 9249 H 883.392 0.540695 0.405739 0
M  V30 9250 H 885.946 1.94794 0.651497 0
M  V30 9251 H 884.176 2.1772 3.19585 0
M  V30 9252 H 885.865 2.59008 3.12522 0
M  V30 9253 H 886.631 4.56951 1.62545 0
M  V30 9254 H 882.51 3.81321 2.59066 0
M  V30 9255 H 886.054 6.89792 1.04082 0
M  V30 9256 H 881.951 6.13386 2.01066 0
M  V30 9257 H 882.719 8.08207 1.29399 0
M  V30 9258 N 885.382 -0.782676 1.36792 0
M  V30 9259 C 886.607 -1.57676 1.34733 0
M  V30 9260 C 887.032 -1.87979 -0.0675253 0
M  V30 9261 O 886.39 -1.48404 -1.04144 0
M  V30 9262 C 886.438 -2.87047 2.18257 0
M  V30 9263 O 885.542 -3.80946 1.57969 0
M  V30 9264 H 884.883 -0.478034 0.460846 0
M  V30 9265 H 887.413 -0.969578 1.80168 0
M  V30 9266 H 887.423 -3.36254 2.31079 0
M  V30 9267 H 886.098 -2.64319 3.21104 0
M  V30 9268 H 884.675 -3.39558 1.54126 0
M  V30 9269 N 886.86 -1.21182 -1.00761 0
M  V30 9270 C 888.271 -1.02652 -1.55947 0
M  V30 9271 C 888.622 0.414466 -1.91772 0
M  V30 9272 O 887.747 1.29727 -1.73204 0
M  V30 9273 C 888.342 -1.85713 -2.83366 0
M  V30 9274 C 886.901 -1.71523 -3.35048 0
M  V30 9275 C 886.048 -1.83087 -2.08265 0
M  V30 9276 H 888.999 -1.35242 -0.830379 0
M  V30 9277 H 889.02 -1.36583 -3.55141 0
M  V30 9278 H 888.532 -2.90584 -2.5726 0
M  V30 9279 H 886.633 -0.693257 -3.66094 0
M  V30 9280 H 886.746 -2.53333 -4.06644 0
M  V30 9281 H 885.11 -1.26367 -2.21141 0
M  V30 9282 H 885.893 -2.8946 -1.84575 0
M  V30 9283 N 888.338 1.20213 -1.01915 0
M  V30 9284 C 889.268 2.25336 -0.612023 0
M  V30 9285 C 890.249 1.65933 0.374186 0
M  V30 9286 O 891.434 1.92464 0.259053 0
M  V30 9287 C 888.564 3.47267 0.047904 0
M  V30 9288 C 887.518 4.1928 -0.859557 0
M  V30 9289 C 886.844 5.3466 -0.0652655 0
M  V30 9290 C 888.144 4.75143 -2.1688 0
M  V30 9291 H 889.838 2.59645 -1.49079 0
M  V30 9292 H 887.384 1.24808 -0.718263 0
M  V30 9293 H 889.337 4.19991 0.344294 0
M  V30 9294 H 888.061 3.12129 0.961404 0
M  V30 9295 H 886.72 3.48425 -1.13999 0
M  V30 9296 H 886.368 4.95767 0.849964 0
M  V30 9297 H 886.068 5.83772 -0.669618 0
M  V30 9298 H 887.592 6.10187 0.224612 0
M  V30 9299 H 889.006 5.39672 -1.9346 0
M  V30 9300 H 887.403 5.34702 -2.72422 0
M  V30 9301 H 888.473 3.93744 -2.83008 0
M  V30 9302 N 889.816 0.795718 1.36037 0
M  V30 9303 C 890.766 0.171437 2.27355 0
M  V30 9304 C 891.75 -0.648346 1.47259 0
M  V30 9305 O 892.942 -0.507386 1.69572 0
M  V30 9306 C 890.071 -0.687876 3.36338 0
M  V30 9307 C 889.157 0.141041 4.23865 0
M  V30 9308 N 889.548 1.19868 4.91391 0
M  V30 9309 C 887.846 -0.0791045 4.4593 0
M  V30 9310 C 888.547 1.70382 5.56188 0
M  V30 9311 N 887.523 1.01202 5.34097 0
M  V30 9312 H 891.325 0.980846 2.7705 0
M  V30 9313 H 888.839 0.635798 1.49437 0
M  V30 9314 H 890.836 -1.15107 4.00694 0
M  V30 9315 H 889.496 -1.49576 2.88196 0
M  V30 9316 H 890.507 1.58119 4.93172 0
M  V30 9317 H 887.184 -0.856993 4.0861 0
M  V30 9318 H 888.574 2.58715 6.20093 0
M  V30 9319 N 891.294 -1.47756 0.548274 0
M  V30 9320 C 892.242 -2.3158 -0.217584 0
M  V30 9321 C 893.236 -1.42372 -0.917957 0
M  V30 9322 O 894.442 -1.59184 -0.840259 0
M  V30 9323 H 890.817 -0.74671 -0.0890388 0
M  V30 9324 H 892.788 -2.94032 0.508719 0
M  V30 9325 C 891.537 -3.24834 -1.24008 0
M  V30 9326 H 890.86 -3.93435 -0.710572 0
M  V30 9327 H 892.3 -3.86336 -1.74701 0
M  V30 9328 C 890.759 -2.47724 -2.2833 0
M  V30 9329 O 891.289 -2.21522 -3.35098 0
M  V30 9330 N 889.495 -2.08891 -2.02022 0
M  V30 9331 H 889.042 -2.30401 -1.1521 0
M  V30 9332 H 889 -1.57613 -2.7204 0
M  V30 9333 N 892.772 -0.284283 -1.55015 0
M  V30 9334 C 894.018 0.330352 -2.00091 0
M  V30 9335 C 894.351 1.54814 -1.17244 0
M  V30 9336 O 893.626 1.92954 -0.244753 0
M  V30 9337 C 893.909 0.703492 -3.53161 0
M  V30 9338 C 893.762 -0.522275 -4.46758 0
M  V30 9339 C 895.081 1.53645 -4.12409 0
M  V30 9340 H 892.2 0.118599 -0.727395 0
M  V30 9341 H 894.842 -0.393054 -1.8589 0
M  V30 9342 H 892.992 1.31983 -3.65394 0
M  V30 9343 H 894.664 -1.16082 -4.46456 0
M  V30 9344 H 892.907 -1.15865 -4.1804 0
M  V30 9345 H 893.578 -0.217295 -5.51572 0
M  V30 9346 H 896.054 1.01583 -4.0351 0
M  V30 9347 H 894.93 1.76633 -5.19704 0
M  V30 9348 H 895.191 2.5204 -3.63219 0
M  V30 9349 N 894.251 1.57596 -0.0117121 0
M  V30 9350 C 895.667 1.55837 0.344506 0
M  V30 9351 C 895.867 1.01557 1.74036 0
M  V30 9352 O 894.923 0.654563 2.43868 0
M  V30 9353 C 896.236 2.99973 0.209023 0
M  V30 9354 C 897.784 3.11717 0.283092 0
M  V30 9355 C 898.259 4.57659 0.176599 0
M  V30 9356 N 899.75 4.62608 0.234133 0
M  V30 9357 C 900.485 5.73132 0.175252 0
M  V30 9358 N 899.981 6.92768 0.0662888 0
M  V30 9359 N 901.774 5.61638 0.227972 0
M  V30 9360 H 893.925 1.91215 -0.924692 0
M  V30 9361 H 896.188 0.878807 -0.355531 0
M  V30 9362 H 895.894 3.4357 -0.751826 0
M  V30 9363 H 895.768 3.64075 0.98635 0
M  V30 9364 H 898.155 2.68043 1.23439 0
M  V30 9365 H 898.236 2.50369 -0.52431 0
M  V30 9366 H 897.88 5.02011 -0.771205 0
M  V30 9367 H 897.81 5.16967 1.00264 0
M  V30 9368 H 900.301 3.76549 0.319203 0
M  V30 9369 H 900.614 7.72795 0.0275765 0
M  V30 9370 H 898.959 6.94993 0.0317502 0
M  V30 9371 H 902.15 4.67063 0.311377 0
M  V30 9372 H 902.323 6.47754 0.178621 0
M  V30 9373 N 895.729 -0.261212 1.5542 0
M  V30 9374 C 897.14 -0.83138 1.67167 0
M  V30 9375 C 897.491 -1.8659 0.606525 0
M  V30 9376 O 896.616 -2.14953 -0.24985 0
M  V30 9377 C 897.211 -1.51475 3.03052 0
M  V30 9378 C 895.77 -2.0328 3.16787 0
M  V30 9379 C 894.917 -0.878903 2.63003 0
M  V30 9380 H 897.868 -0.0373102 1.58656 0
M  V30 9381 H 897.889 -2.38222 2.96699 0
M  V30 9382 H 897.401 -0.76157 3.80554 0
M  V30 9383 H 895.502 -2.81523 2.44082 0
M  V30 9384 H 895.615 -2.24001 4.2351 0
M  V30 9385 H 893.979 -1.27551 2.2046 0
M  V30 9386 H 894.762 -0.13904 3.43018 0
M  V30 9387 N 897.207 -1.48554 -0.526253 0
M  V30 9388 C 898.455 -1.56452 -1.27935 0
M  V30 9389 C 898.776 -0.24184 -1.93495 0
M  V30 9390 O 898.046 0.736917 -1.81511 0
M  V30 9391 H 896.626 -0.576379 -0.47518 0
M  V30 9392 H 899.288 -1.85039 -0.612083 0
M  V30 9393 H 898.384 -2.34751 -2.05666 0
M  V30 9394 N 898.685 0.775411 -1.37205 0
M  V30 9395 C 899.931 1.53611 -1.32407 0
M  V30 9396 C 900.264 1.9398 0.0924103 0
M  V30 9397 O 899.539 1.63791 1.04893 0
M  V30 9398 C 899.822 2.80367 -2.25979 0
M  V30 9399 C 899.675 2.46275 -3.76389 0
M  V30 9400 C 900.994 3.82277 -2.18064 0
M  V30 9401 H 898.113 0.557278 -0.482297 0
M  V30 9402 H 900.755 0.889826 -1.67875 0
M  V30 9403 H 898.905 3.35515 -1.95862 0
M  V30 9404 H 900.577 1.9707 -4.17087 0
M  V30 9405 H 898.82 1.79023 -3.95137 0
M  V30 9406 H 899.491 3.36868 -4.37291 0
M  V30 9407 H 901.967 3.36613 -2.44604 0
M  V30 9408 H 900.843 4.68696 -2.85684 0
M  V30 9409 H 901.104 4.26272 -1.17239 0
M  V30 9410 N 900.163 1.21714 1.00117 0
M  V30 9411 C 901.388 1.06357 1.78054 0
M  V30 9412 C 901.813 -0.382075 1.84179 0
M  V30 9413 O 901.171 -1.27575 1.28819 0
M  V30 9414 C 901.219 1.66982 3.19608 0
M  V30 9415 O 900.323 0.917892 4.02055 0
M  V30 9416 H 899.664 0.374074 0.548602 0
M  V30 9417 H 902.194 1.61338 1.25822 0
M  V30 9418 H 902.204 1.71363 3.70268 0
M  V30 9419 H 900.879 2.72185 3.14465 0
M  V30 9420 H 899.456 0.949473 3.6061 0
M  V30 9421 N 901.641 -1.19671 1.02551 0
M  V30 9422 C 902.871 -1.92952 0.738441 0
M  V30 9423 C 903.279 -1.75528 -0.706155 0
M  V30 9424 O 902.622 -1.0723 -1.49156 0
M  V30 9425 C 902.684 -3.45149 1.00562 0
M  V30 9426 C 902.348 -3.86341 2.44109 0
M  V30 9427 C 903.345 -3.91374 3.42231 0
M  V30 9428 C 901.03 -4.18076 2.7842 0
M  V30 9429 C 903.024 -4.27568 4.7272 0
M  V30 9430 C 900.711 -4.53943 4.0912 0
M  V30 9431 C 901.709 -4.58663 5.06081 0
M  V30 9432 O 901.397 -4.93701 6.3444 0
M  V30 9433 H 901.129 -0.619836 0.269776 0
M  V30 9434 H 903.683 -1.52852 1.37206 0
M  V30 9435 H 901.913 -3.85416 0.314849 0
M  V30 9436 H 903.602 -3.99664 0.708742 0
M  V30 9437 H 904.368 -3.67011 3.17061 0
M  V30 9438 H 900.247 -4.13589 2.03631 0
M  V30 9439 H 903.791 -4.31166 5.48399 0
M  V30 9440 H 899.688 -4.77764 4.34064 0
M  V30 9441 H 900.456 -5.11662 6.38862 0
M  V30 9442 N 903.119 -0.802921 -1.35613 0
M  V30 9443 C 904.53 -0.443004 -1.81368 0
M  V30 9444 C 904.881 1.03459 -1.66706 0
M  V30 9445 O 904.006 1.80372 -1.19561 0
M  V30 9446 C 904.601 -0.797324 -3.29284 0
M  V30 9447 C 903.16 -0.490055 -3.73196 0
M  V30 9448 C 902.307 -1.02487 -2.57666 0
M  V30 9449 H 905.258 -0.994888 -1.23643 0
M  V30 9450 H 905.279 -0.0934638 -3.80385 0
M  V30 9451 H 904.791 -1.87278 -3.39924 0
M  V30 9452 H 902.892 0.576818 -3.68108 0
M  V30 9453 H 903.005 -1.02012 -4.68114 0
M  V30 9454 H 901.369 -0.44738 -2.5074 0
M  V30 9455 H 902.152 -2.10636 -2.71085 0
M  V30 9456 N 904.597 1.47463 -0.556102 0
M  V30 9457 C 905.822 2.07371 -0.0344729 0
M  V30 9458 C 906.247 1.40621 1.2493 0
M  V30 9459 O 905.605 0.48082 1.74808 0
M  V30 9460 C 905.653 3.60306 0.145563 0
M  V30 9461 O 904.757 3.94299 1.20839 0
M  V30 9462 H 904.098 0.662052 -0.0508274 0
M  V30 9463 H 906.628 1.89498 -0.771469 0
M  V30 9464 H 906.638 4.06408 0.360112 0
M  V30 9465 H 905.313 4.08288 -0.792089 0
M  V30 9466 H 903.89 3.59944 0.97442 0
M  V30 9467 N 906.075 0.2925 1.54862 0
M  V30 9468 C 907.303 -0.322113 2.04377 0
M  V30 9469 C 907.718 -1.48164 1.17016 0
M  V30 9470 O 907.075 -1.81466 0.19395 0
M  V30 9471 C 907.126 -0.786506 3.5284 0
M  V30 9472 O 906.847 0.326863 4.36879 0
M  V30 9473 C 908.348 -1.46715 4.18318 0
M  V30 9474 H 905.568 -0.0712074 0.667211 0
M  V30 9475 H 908.112 0.429657 1.99935 0
M  V30 9476 H 906.267 -1.48832 3.5767 0
M  V30 9477 H 906.681 -0.0331558 5.2449 0
M  V30 9478 H 908.155 -1.74333 5.23748 0
M  V30 9479 H 908.632 -2.40443 3.67538 0
M  V30 9480 H 909.238 -0.808735 4.1754 0
M  V30 9481 N 907.553 -1.57587 0.0200696 0
M  V30 9482 C 908.486 -2.05157 -0.999295 0
M  V30 9483 C 909.464 -0.945466 -1.32286 0
M  V30 9484 O 910.648 -1.21512 -1.44108 0
M  V30 9485 C 907.775 -2.46604 -2.32173 0
M  V30 9486 C 906.821 -3.68146 -2.15339 0
M  V30 9487 S 907.654 -5.15194 -1.46065 0
M  V30 9488 C 908.81 -5.59929 -2.79697 0
M  V30 9489 H 909.043 -2.91299 -0.59433 0
M  V30 9490 H 906.576 -1.53209 -0.191372 0
M  V30 9491 H 908.534 -2.7115 -3.08201 0
M  V30 9492 H 907.195 -1.60825 -2.69804 0
M  V30 9493 H 906.388 -3.94963 -3.13082 0
M  V30 9494 H 905.99 -3.43705 -1.47454 0
M  V30 9495 H 908.282 -5.63615 -3.75957 0
M  V30 9496 H 909.225 -6.59599 -2.57555 0
M  V30 9497 H 909.633 -4.87549 -2.84528 0
M  V30 9498 N 909.032 0.252966 -1.55557 0
M  V30 9499 C 910.278 0.983306 -1.77367 0
M  V30 9500 C 910.611 1.85203 -0.584258 0
M  V30 9501 O 909.886 1.89963 0.417644 0
M  V30 9502 C 910.169 1.84896 -3.09007 0
M  V30 9503 C 910.022 1.00883 -4.38341 0
M  V30 9504 C 911.341 2.83254 -3.36831 0
M  V30 9505 H 908.46 0.356056 -0.645286 0
M  V30 9506 H 911.102 0.254232 -1.88291 0
M  V30 9507 H 909.252 2.47058 -2.99825 0
M  V30 9508 H 910.924 0.40638 -4.59507 0
M  V30 9509 H 909.167 0.31297 -4.3267 0
M  V30 9510 H 909.838 1.64818 -5.2682 0
M  V30 9511 H 912.314 2.31228 -3.45937 0
M  V30 9512 H 911.19 3.40949 -4.30169 0
M  V30 9513 H 911.451 3.59407 -2.57447 0
M  V30 9514 N 910.51 1.48831 0.518367 0
M  V30 9515 C 911.738 1.6112 1.298 0
M  V30 9516 C 912.153 0.275872 1.86774 0
M  V30 9517 O 911.51 -0.736416 1.66983 0
M  V30 9518 C 911.561 2.66675 2.44063 0
M  V30 9519 O 911.282 3.95027 1.89434 0
M  V30 9520 C 912.783 2.8951 3.35706 0
M  V30 9521 H 910.003 0.542916 0.394314 0
M  V30 9522 H 912.547 1.94743 0.624142 0
M  V30 9523 H 910.702 2.35879 3.07311 0
M  V30 9524 H 911.116 4.53031 2.64316 0
M  V30 9525 H 912.59 3.67142 4.12202 0
M  V30 9526 H 913.067 1.98768 3.91648 0
M  V30 9527 H 913.673 3.21656 2.7824 0
M  V30 9528 N 911.988 -0.768124 1.37614 0
M  V30 9529 C 913.216 -1.55726 1.36224 0
M  V30 9530 C 913.631 -1.8873 -0.0515357 0
M  V30 9531 O 912.988 -1.51718 -1.0143 0
M  V30 9532 C 913.039 -2.86533 2.20412 0
M  V30 9533 O 912.76 -2.54942 3.56281 0
M  V30 9534 C 914.261 -3.80745 2.27041 0
M  V30 9535 H 911.481 -0.482325 0.46648 0
M  V30 9536 H 914.025 -0.95176 1.81002 0
M  V30 9537 H 912.18 -3.43496 1.79134 0
M  V30 9538 H 912.594 -3.38732 4.00451 0
M  V30 9539 H 914.068 -4.69523 2.90263 0
M  V30 9540 H 914.545 -4.20138 1.27987 0
M  V30 9541 H 915.151 -3.2971 2.68647 0
M  V30 9542 N 913.466 -1.22244 -0.994698 0
M  V30 9543 C 914.429 -0.992308 -2.06606 0
M  V30 9544 C 915.429 0.0405872 -1.60749 0
M  V30 9545 O 916.619 -0.197737 -1.73074 0
M  V30 9546 C 913.751 -0.498499 -3.37236 0
M  V30 9547 H 914.944 -1.9429 -2.28455 0
M  V30 9548 H 912.497 -1.04087 -1.166 0
M  V30 9549 H 913.232 0.456531 -3.21071 0
M  V30 9550 H 913.017 -1.24367 -3.71854 0
M  V30 9551 H 914.507 -0.35768 -4.16065 0
M  V30 9552 N 914.944 1.19125 -1.03184 0
M  V30 9553 C 916.221 1.84674 -0.644574 0
M  V30 9554 C 916.601 1.92042 0.876534 0
M  V30 9555 O 915.949 1.43965 1.77444 0
M  V30 9556 C 916.159 3.23477 -1.3101 0
M  V30 9557 C 917.507 3.99608 -1.43524 0
M  V30 9558 O 918.531 3.32886 -1.2675 0
M  V30 9559 O 917.39 5.19132 -1.70776 0
M  V30 9560 H 914.484 0.795968 -0.22442 0
M  V30 9561 H 917.03 1.2659 -1.13018 0
M  V30 9562 H 915.802 3.12967 -2.34878 0
M  V30 9563 H 915.425 3.89209 -0.812547 0
M  V30 9564 N 916.422 0.810101 1.35185 0
M  V30 9565 C 917.372 0.195541 2.2716 0
M  V30 9566 C 918.356 -0.632691 1.47939 0
M  V30 9567 O 919.548 -0.489372 1.701 0
M  V30 9568 C 916.677 -0.652164 3.37049 0
M  V30 9569 C 915.763 0.185989 4.23692 0
M  V30 9570 N 916.154 1.25073 4.90092 0
M  V30 9571 C 914.452 -0.0318033 4.45989 0
M  V30 9572 C 915.153 1.76272 5.54349 0
M  V30 9573 N 914.129 1.06861 5.32993 0
M  V30 9574 H 917.931 1.01018 2.75994 0
M  V30 9575 H 915.445 0.651612 1.48754 0
M  V30 9576 H 917.442 -1.10851 4.01893 0
M  V30 9577 H 916.102 -1.46511 2.89767 0
M  V30 9578 H 917.113 1.63341 4.91467 0
M  V30 9579 H 913.79 -0.813607 4.09496 0
M  V30 9580 H 915.18 2.65278 6.17315 0
M  V30 9581 N 917.9 -1.47166 0.563914 0
M  V30 9582 C 919.177 -1.95586 -0.0236172 0
M  V30 9583 C 919.557 -1.50655 -1.47872 0
M  V30 9584 O 918.905 -0.748479 -2.15894 0
M  V30 9585 C 919.115 -3.48762 0.128841 0
M  V30 9586 C 920.463 -4.24598 -0.0130544 0
M  V30 9587 O 921.487 -3.56155 0.0567242 0
M  V30 9588 O 920.346 -5.46253 -0.164332 0
M  V30 9589 H 917.44 -0.824793 -0.0603789 0
M  V30 9590 H 919.986 -1.57536 0.63091 0
M  V30 9591 H 918.758 -3.74291 1.14113 0
M  V30 9592 H 918.381 -3.93594 -0.56299 0
M  V30 9593 N 919.378 -0.300708 -1.54705 0
M  V30 9594 C 920.655 0.361757 -1.92226 0
M  V30 9595 C 921.035 1.71714 -1.2279 0
M  V30 9596 O 920.383 2.2559 -0.363542 0
M  V30 9597 C 920.593 0.476699 -3.45729 0
M  V30 9598 C 921.941 0.7477 -4.17965 0
M  V30 9599 O 922.965 0.560521 -3.51762 0
M  V30 9600 O 921.824 1.10724 -5.35166 0
M  V30 9601 H 918.918 0.202213 -0.801897 0
M  V30 9602 H 921.464 -0.348746 -1.66078 0
M  V30 9603 H 920.236 -0.476132 -3.88392 0
M  V30 9604 H 919.859 1.23568 -3.77911 0
M  V30 9605 N 920.856 1.57574 -0.0284266 0
M  V30 9606 C 922.272 1.56194 0.327958 0
M  V30 9607 C 922.472 1.03397 1.72949 0
M  V30 9608 O 921.528 0.680392 2.4316 0
M  V30 9609 C 922.841 3.00177 0.177196 0
M  V30 9610 C 924.389 3.12 0.250014 0
M  V30 9611 C 924.864 4.57821 0.128049 0
M  V30 9612 N 926.355 4.6283 0.185054 0
M  V30 9613 C 927.09 5.73286 0.114454 0
M  V30 9614 N 926.586 6.928 -0.00719225 0
M  V30 9615 N 928.379 5.61848 0.16839 0
M  V30 9616 H 920.53 1.90224 -0.944921 0
M  V30 9617 H 922.793 0.874987 -0.364832 0
M  V30 9618 H 922.499 3.42753 -0.788224 0
M  V30 9619 H 922.373 3.65101 0.94768 0
M  V30 9620 H 924.76 2.69337 1.20589 0
M  V30 9621 H 924.841 2.49799 -0.550835 0
M  V30 9622 H 924.485 5.01165 -0.824407 0
M  V30 9623 H 924.415 5.18001 0.947753 0
M  V30 9624 H 926.906 3.76867 0.279247 0
M  V30 9625 H 927.219 7.72781 -0.0543903 0
M  V30 9626 H 925.564 6.94987 -0.0419648 0
M  V30 9627 H 928.755 4.67367 0.261821 0
M  V30 9628 H 928.928 6.47907 0.109908 0
M  V30 9629 N 922.334 -0.244713 1.55689 0
M  V30 9630 C 923.58 -0.973886 1.77886 0
M  V30 9631 C 923.913 -1.8489 0.594071 0
M  V30 9632 O 923.188 -1.90182 -0.407564 0
M  V30 9633 C 923.471 -1.83255 3.09983 0
M  V30 9634 C 923.324 -0.985571 4.3887 0
M  V30 9635 C 924.643 -2.81464 3.38329 0
M  V30 9636 H 921.762 -0.352629 0.647165 0
M  V30 9637 H 924.404 -0.244243 1.88424 0
M  V30 9638 H 922.554 -2.45464 3.01131 0
M  V30 9639 H 924.226 -0.382005 4.59716 0
M  V30 9640 H 922.469 -0.29002 4.32829 0
M  V30 9641 H 923.14 -1.62022 5.27686 0
M  V30 9642 H 925.616 -2.2939 3.47159 0
M  V30 9643 H 924.492 -3.38663 4.31971 0
M  V30 9644 H 924.753 -3.58037 2.59349 0
M  V30 9645 N 923.813 -1.49104 -0.510467 0
M  V30 9646 C 925.059 -1.58346 -1.26705 0
M  V30 9647 C 925.392 -0.265121 -1.92382 0
M  V30 9648 O 924.667 0.730558 -1.80258 0
M  V30 9649 C 924.95 -2.7359 -2.34137 0
M  V30 9650 C 924.803 -4.1519 -1.73024 0
M  V30 9651 C 926.122 -2.84511 -3.3577 0
M  V30 9652 H 923.241 -0.57637 -0.459311 0
M  V30 9653 H 925.883 -1.81353 -0.566658 0
M  V30 9654 H 924.033 -2.54105 -2.93876 0
M  V30 9655 H 925.705 -4.46167 -1.17186 0
M  V30 9656 H 923.948 -4.21279 -1.03473 0
M  V30 9657 H 924.619 -4.91683 -2.50903 0
M  V30 9658 H 927.095 -3.0222 -2.86011 0
M  V30 9659 H 925.971 -3.6684 -4.08313 0
M  V30 9660 H 926.232 -1.93471 -3.97519 0
M  V30 9661 N 925.291 0.760815 -1.38019 0
M  V30 9662 C 926.702 1.33773 -1.30237 0
M  V30 9663 C 927.053 1.96148 0.0451153 0
M  V30 9664 O 926.178 1.94574 0.9471 0
M  V30 9665 C 926.773 2.43227 -2.35851 0
M  V30 9666 C 925.332 2.96659 -2.31669 0
M  V30 9667 C 924.479 1.69972 -2.191 0
M  V30 9668 H 927.43 0.560237 -1.48482 0
M  V30 9669 H 927.451 3.22985 -2.01149 0
M  V30 9670 H 926.963 1.978 -3.33911 0
M  V30 9671 H 925.064 3.46433 -1.37167 0
M  V30 9672 H 925.177 3.51529 -3.25521 0
M  V30 9673 H 923.541 1.9332 -1.65829 0
M  V30 9674 H 924.324 1.26633 -3.19091 0
M  V30 9675 N 926.769 1.22769 0.988202 0
M  V30 9676 C 927.732 1.00325 2.06076 0
M  V30 9677 C 928.732 -0.0320618 1.60768 0
M  V30 9678 O 929.922 0.206912 1.72967 0
M  V30 9679 C 927.054 0.516376 3.36966 0
M  V30 9680 H 928.247 1.95499 2.27421 0
M  V30 9681 H 925.8 1.04704 1.16047 0
M  V30 9682 H 926.535 -0.439498 3.21308 0
M  V30 9683 H 926.32 1.26337 3.71189 0
M  V30 9684 H 927.81 0.37974 4.1587 0
M  V30 9685 N 928.247 -1.18576 1.03814 0
M  V30 9686 C 929.197 -2.20034 0.597409 0
M  V30 9687 C 930.181 -1.56849 -0.358796 0
M  V30 9688 O 931.373 -1.761 -0.178262 0
M  V30 9689 C 928.502 -3.43276 -0.0407965 0
M  V30 9690 C 927.588 -4.13588 0.938404 0
M  V30 9691 N 927.979 -4.59941 2.10447 0
M  V30 9692 C 926.277 -4.3941 0.763853 0
M  V30 9693 C 926.978 -5.1404 2.72282 0
M  V30 9694 N 925.954 -5.05401 2.00176 0
M  V30 9695 H 929.756 -2.53562 1.48606 0
M  V30 9696 H 927.27 -1.34753 0.906384 0
M  V30 9697 H 929.267 -4.15217 -0.374222 0
M  V30 9698 H 927.927 -3.11245 -0.925014 0
M  V30 9699 H 928.938 -4.54471 2.48347 0
M  V30 9700 H 925.615 -4.1744 -0.0704869 0
M  V30 9701 H 927.005 -5.60128 3.71088 0
M  V30 9702 N 929.725 -0.817259 -1.34754 0
M  V30 9703 C 930.95 -0.414423 -2.03217 0
M  V30 9704 C 931.375 0.970037 -1.61158 0
M  V30 9705 O 930.733 1.63016 -0.793436 0
M  V30 9706 C 930.781 -0.518087 -3.56859 0
M  V30 9707 O 929.885 0.464314 -4.09778 0
M  V30 9708 H 929.226 -0.171454 -0.641482 0
M  V30 9709 H 931.756 -1.10611 -1.72123 0
M  V30 9710 H 931.766 -0.391779 -4.06115 0
M  V30 9711 H 930.441 -1.52786 -3.86819 0
M  V30 9712 H 929.018 0.297361 -3.71712 0
M  V30 9713 N 931.203 1.46865 -0.571711 0
M  V30 9714 C 932.45 2.0243 -0.0531071 0
M  V30 9715 C 932.778 1.44446 1.30252 0
M  V30 9716 O 932.033 0.595182 1.8643 0
M  V30 9717 C 932.332 3.57323 0.0742311 0
M  V30 9718 C 931.998 4.34295 -1.21237 0
M  V30 9719 C 930.66 4.55044 -1.56489 0
M  V30 9720 C 933.012 4.78577 -2.0643 0
M  V30 9721 C 930.34 5.17325 -2.76752 0
M  V30 9722 C 932.692 5.42186 -3.25909 0
M  V30 9723 C 931.356 5.61165 -3.61456 0
M  V30 9724 H 930.626 0.740745 -0.0194333 0
M  V30 9725 H 933.273 1.76366 -0.74614 0
M  V30 9726 H 931.578 3.82461 0.850325 0
M  V30 9727 H 933.275 3.97982 0.491077 0
M  V30 9728 H 929.865 4.18435 -0.927922 0
M  V30 9729 H 934.049 4.62313 -1.80501 0
M  V30 9730 H 929.305 5.30211 -3.04444 0
M  V30 9731 H 933.479 5.75459 -3.92198 0
M  V30 9732 H 931.106 6.09195 -4.54737 0
M  V30 9733 N 932.681 0.308908 1.54543 0
M  V30 9734 C 933.628 -0.563659 2.23811 0
M  V30 9735 C 934.598 -1.12332 1.22355 0
M  V30 9736 O 935.783 -1.16638 1.50997 0
M  V30 9737 C 932.923 -1.72585 2.98845 0
M  V30 9738 C 932.036 -1.19682 4.1509 0
M  V30 9739 C 931.171 -2.32351 4.77688 0
M  V30 9740 C 930.21 -1.76623 5.86064 0
M  V30 9741 N 929.347 -2.82896 6.42584 0
M  V30 9742 H 934.187 0.0336288 2.97981 0
M  V30 9743 H 931.724 0.0283666 1.47073 0
M  V30 9744 H 933.682 -2.40951 3.40586 0
M  V30 9745 H 932.312 -2.29464 2.27037 0
M  V30 9746 H 931.364 -0.405173 3.78236 0
M  V30 9747 H 932.676 -0.748923 4.93146 0
M  V30 9748 H 931.83 -3.0865 5.22322 0
M  V30 9749 H 930.569 -2.80472 3.98982 0
M  V30 9750 H 929.574 -0.988171 5.40847 0
M  V30 9751 H 930.799 -1.29398 6.66658 0
M  V30 9752 H 928.745 -3.30336 5.66758 0
M  V30 9753 H 928.662 -2.42626 7.16009 0
M  V30 9754 H 929.93 -3.59068 6.91875 0
M  V30 9755 N 934.159 -1.57557 0.0367827 0
M  V30 9756 C 935.406 -1.92114 -0.640185 0
M  V30 9757 C 935.734 -0.913887 -1.71693 0
M  V30 9758 O 934.989 0.0760343 -1.95552 0
M  V30 9759 C 935.288 -3.33387 -1.28794 0
M  V30 9760 C 934.954 -4.4961 -0.340819 0
M  V30 9761 C 933.616 -4.81133 -0.0801574 0
M  V30 9762 C 935.968 -5.20283 0.309106 0
M  V30 9763 C 933.296 -5.80683 0.838107 0
M  V30 9764 C 935.648 -6.20813 1.21547 0
M  V30 9765 C 934.312 -6.50773 1.48495 0
M  V30 9766 H 933.582 -0.702996 -0.23426 0
M  V30 9767 H 936.229 -1.91238 0.100188 0
M  V30 9768 H 934.534 -3.30561 -2.10324 0
M  V30 9769 H 936.231 -3.57399 -1.81843 0
M  V30 9770 H 932.821 -4.25002 -0.554161 0
M  V30 9771 H 937.005 -4.96153 0.120794 0
M  V30 9772 H 932.261 -6.02238 1.05451 0
M  V30 9773 H 936.435 -6.74692 1.72522 0
M  V30 9774 H 934.062 -7.27727 2.19814 0
M  V30 9775 N 935.637 0.236453 -1.55816 0
M  V30 9776 C 936.6 1.27633 -1.90375 0
M  V30 9777 C 937.6 1.40557 -0.781048 0
M  V30 9778 O 938.79 1.39078 -1.04895 0
M  V30 9779 C 935.922 2.65247 -2.14142 0
M  V30 9780 H 937.115 0.982019 -2.83366 0
M  V30 9781 H 934.668 0.476215 -1.48869 0
M  V30 9782 H 935.403 2.99801 -1.23653 0
M  V30 9783 H 935.188 2.57246 -2.95917 0
M  V30 9784 H 936.678 3.40313 -2.42026 0
M  V30 9785 N 937.115 1.49373 0.502552 0
M  V30 9786 C 938.078 1.65413 1.58654 0
M  V30 9787 C 939.078 0.526003 1.51953 0
M  V30 9788 O 940.268 0.792421 1.55133 0
M  V30 9789 C 937.4 1.65005 2.98306 0
M  V30 9790 H 938.593 2.62095 1.45762 0
M  V30 9791 H 936.146 1.38381 0.726672 0
M  V30 9792 H 936.881 0.699014 3.16677 0
M  V30 9793 H 936.666 2.46931 3.04578 0
M  V30 9794 H 938.156 1.79477 3.77065 0
M  V30 9795 N 938.594 -0.753485 1.38421 0
M  V30 9796 C 939.822 -1.54272 1.37868 0
M  V30 9797 C 940.237 -1.88774 -0.0315155 0
M  V30 9798 O 939.594 -1.52785 -0.998148 0
M  V30 9799 C 939.645 -2.84179 2.23438 0
M  V30 9800 O 939.366 -2.51149 3.58965 0
M  V30 9801 C 940.867 -3.78316 2.31067 0
M  V30 9802 H 938.087 -0.47735 0.47157 0
M  V30 9803 H 940.631 -0.932509 1.82001 0
M  V30 9804 H 938.786 -3.41577 1.82767 0
M  V30 9805 H 939.2 -3.34466 4.04021 0
M  V30 9806 H 940.674 -4.66418 2.95226 0
M  V30 9807 H 941.151 -4.18757 1.32436 0
M  V30 9808 H 941.757 -3.26842 2.72129 0
M  V30 9809 N 940.072 -1.23292 -0.981677 0
M  V30 9810 C 941.002 -1.03738 -2.09191 0
M  V30 9811 C 941.983 0.0453041 -1.7004 0
M  V30 9812 O 943.168 -0.119092 -1.93834 0
M  V30 9813 C 940.298 -0.626426 -3.41604 0
M  V30 9814 C 939.252 -1.65631 -3.94652 0
M  V30 9815 C 938.578 -1.10084 -5.23245 0
M  V30 9816 C 939.878 -3.04903 -4.24066 0
M  V30 9817 H 941.572 -1.966 -2.25807 0
M  V30 9818 H 939.118 -0.946656 -1.0851 0
M  V30 9819 H 941.071 -0.476689 -4.18695 0
M  V30 9820 H 939.795 0.337873 -3.24848 0
M  V30 9821 H 938.454 -1.79402 -3.19704 0
M  V30 9822 H 938.102 -0.127562 -5.02838 0
M  V30 9823 H 937.802 -1.78896 -5.59705 0
M  V30 9824 H 939.326 -0.962928 -6.02959 0
M  V30 9825 H 940.74 -2.94441 -4.91912 0
M  V30 9826 H 939.137 -3.70941 -4.71724 0
M  V30 9827 H 940.207 -3.53991 -3.31389 0
M  V30 9828 N 941.55 1.18024 -1.04442 0
M  V30 9829 C 942.482 2.21294 -0.596799 0
M  V30 9830 C 943.495 1.59305 0.33552 0
M  V30 9831 O 944.684 1.7803 0.129443 0
M  V30 9832 C 941.784 3.38578 0.147648 0
M  V30 9833 C 940.957 4.30143 -0.793484 0
M  V30 9834 C 940.016 5.2612 -0.0916561 0
M  V30 9835 O 939.042 5.64586 -0.72331 0
M  V30 9836 N 940.244 5.68512 1.17364 0
M  V30 9837 H 943.009 2.6032 -1.48504 0
M  V30 9838 H 940.57 1.32847 -0.925374 0
M  V30 9839 H 942.562 3.99812 0.627098 0
M  V30 9840 H 941.132 2.98212 0.937466 0
M  V30 9841 H 940.352 3.66456 -1.45272 0
M  V30 9842 H 941.64 4.88216 -1.43258 0
M  V30 9843 H 941.038 5.39322 1.70729 0
M  V30 9844 H 939.595 6.31925 1.5973 0
M  V30 9845 N 943.028 0.824394 1.34319 0
M  V30 9846 C 943.991 0.252696 2.27803 0
M  V30 9847 C 944.991 -0.570254 1.50349 0
M  V30 9848 O 946.181 -0.386145 1.69866 0
M  V30 9849 C 943.313 -0.645575 3.34731 0
M  V30 9850 H 944.506 1.07742 2.79878 0
M  V30 9851 H 942.059 0.596367 1.44475 0
M  V30 9852 H 942.794 -1.4933 2.87873 0
M  V30 9853 H 942.579 -0.0569478 3.92059 0
M  V30 9854 H 944.069 -1.03933 4.0446 0
M  V30 9855 N 944.506 -1.46559 0.579492 0
M  V30 9856 C 945.783 -1.956 -0.00287136 0
M  V30 9857 C 946.163 -1.52215 -1.46266 0
M  V30 9858 O 945.511 -0.771335 -2.15088 0
M  V30 9859 C 945.721 -3.48606 0.165824 0
M  V30 9860 C 947.069 -4.24588 0.0319807 0
M  V30 9861 O 948.093 -3.56075 0.094496 0
M  V30 9862 O 946.952 -5.46396 -0.106386 0
M  V30 9863 H 944.046 -0.825387 -0.0516274 0
M  V30 9864 H 946.592 -1.56858 0.647584 0
M  V30 9865 H 945.364 -3.7306 1.18076 0
M  V30 9866 H 944.987 -3.94169 -0.521212 0
M  V30 9867 N 945.984 -0.3171 -1.54377 0
M  V30 9868 C 946.932 0.567371 -2.25574 0
M  V30 9869 C 947.926 1.12387 -1.2675 0
M  V30 9870 O 949.132 1.07266 -1.44548 0
M  V30 9871 H 945.507 0.201605 -0.724472 0
M  V30 9872 H 947.478 -0.0554644 -2.98348 0
M  V30 9873 C 946.227 1.71984 -3.02187 0
M  V30 9874 H 945.55 1.30086 -3.78044 0
M  V30 9875 H 946.99 2.31443 -3.5526 0
M  V30 9876 C 945.449 2.6336 -2.10103 0
M  V30 9877 O 945.979 3.64899 -1.67962 0
M  V30 9878 N 944.185 2.3145 -1.75725 0
M  V30 9879 H 943.732 1.48921 -2.10191 0
M  V30 9880 H 943.69 2.92852 -1.14391 0
M  V30 9881 N 947.462 1.57535 -0.0451378 0
M  V30 9882 C 948.425 2.1008 0.916461 0
M  V30 9883 C 949.425 1.01913 1.2438 0
M  V30 9884 O 950.615 1.2801 1.18148 0
M  V30 9885 C 947.747 2.58001 2.22818 0
M  V30 9886 H 948.94 2.96334 0.461076 0
M  V30 9887 H 946.493 1.54974 0.203169 0
M  V30 9888 H 947.228 1.75123 2.72951 0
M  V30 9889 H 947.013 3.3704 2.00366 0
M  V30 9890 H 948.503 2.98822 2.9171 0
M  V30 9891 N 948.94 -0.228186 1.55939 0
M  V30 9892 C 950.188 -0.951668 1.78291 0
M  V30 9893 C 950.509 -1.85132 0.612474 0
M  V30 9894 O 949.779 -1.92356 -0.370942 0
M  V30 9895 H 948.359 -0.354388 0.657585 0
M  V30 9896 H 951.021 -0.241635 1.93396 0
M  V30 9897 H 950.117 -1.56239 2.70177 0
M  V30 9898 N 950.418 -1.49637 -0.494624 0
M  V30 9899 C 951.829 -1.52573 -1.07603 0
M  V30 9900 C 952.18 -0.315591 -1.93645 0
M  V30 9901 O 951.305 0.573966 -2.08649 0
M  V30 9902 C 951.9 -2.7648 -1.95817 0
M  V30 9903 C 950.459 -2.82173 -2.49109 0
M  V30 9904 C 949.606 -2.4657 -1.2688 0
M  V30 9905 H 952.557 -1.56242 -0.278251 0
M  V30 9906 H 952.578 -2.57003 -2.80588 0
M  V30 9907 H 952.09 -3.64538 -1.33167 0
M  V30 9908 H 950.191 -1.9841 -3.15379 0
M  V30 9909 H 950.304 -3.84501 -2.85825 0
M  V30 9910 H 948.668 -1.98489 -1.59607 0
M  V30 9911 H 949.451 -3.3691 -0.659281 0
M  V30 9912 N 951.896 0.746133 -1.38819 0
M  V30 9913 C 952.846 1.85085 -1.33145 0
M  V30 9914 C 953.83 1.59466 -0.214339 0
M  V30 9915 O 955.022 1.71159 -0.450943 0
M  V30 9916 C 952.151 3.22884 -1.16623 0
M  V30 9917 C 951.237 3.54369 -2.32988 0
M  V30 9918 N 951.628 3.56863 -3.58445 0
M  V30 9919 C 949.926 3.84674 -2.25703 0
M  V30 9920 C 950.627 3.85827 -4.3533 0
M  V30 9921 N 949.603 4.03037 -3.64777 0
M  V30 9922 H 953.405 1.85301 -2.28124 0
M  V30 9923 H 950.919 0.943847 -1.32156 0
M  V30 9924 H 952.916 4.0195 -1.10642 0
M  V30 9925 H 951.576 3.23914 -0.225841 0
M  V30 9926 H 952.587 3.38443 -3.92017 0
M  V30 9927 H 949.264 3.93375 -1.39864 0
M  V30 9928 H 950.654 3.94317 -5.44025 0
M  V30 9929 N 953.375 1.23811 0.975125 0
M  V30 9930 C 954.786 1.0675 1.53171 0
M  V30 9931 C 955.137 -0.363475 1.92804 0
M  V30 9932 O 954.262 -1.25089 1.76583 0
M  V30 9933 C 954.857 1.93161 2.78342 0
M  V30 9934 C 953.416 1.80346 3.30382 0
M  V30 9935 C 952.563 1.88544 2.03338 0
M  V30 9936 H 955.514 1.37396 0.79423 0
M  V30 9937 H 955.535 1.45951 3.51395 0
M  V30 9938 H 955.047 2.97302 2.49465 0
M  V30 9939 H 953.148 0.790077 3.64127 0
M  V30 9940 H 953.261 2.64026 3.99784 0
M  V30 9941 H 951.625 1.32186 2.17713 0
M  V30 9942 H 952.408 2.94252 1.76836 0
M  V30 9943 N 954.853 -1.17469 1.05066 0
M  V30 9944 C 955.785 -2.20974 0.608526 0
M  V30 9945 C 956.798 -1.59481 -0.327066 0
M  V30 9946 O 957.987 -1.78096 -0.12 0
M  V30 9947 C 955.087 -3.38652 -0.12969 0
M  V30 9948 C 954.26 -4.29716 0.816285 0
M  V30 9949 C 953.319 -5.26064 0.119556 0
M  V30 9950 O 952.345 -5.64194 0.753241 0
M  V30 9951 N 953.547 -5.69126 -1.14347 0
M  V30 9952 H 956.312 -2.59529 1.49882 0
M  V30 9953 H 953.873 -1.32355 0.932406 0
M  V30 9954 H 955.865 -4.00139 -0.605886 0
M  V30 9955 H 954.435 -2.98705 -0.921638 0
M  V30 9956 H 953.655 -3.6568 1.47213 0
M  V30 9957 H 954.943 -4.87449 1.45845 0
M  V30 9958 H 954.341 -5.4022 -1.67866 0
M  V30 9959 H 952.898 -6.32764 -1.56376 0
M  V30 9960 N 956.331 -0.831506 -1.3388 0
M  V30 9961 C 957.261 -0.274378 -2.31882 0
M  V30 9962 C 958.242 0.613872 -1.58637 0
M  V30 9963 O 959.427 0.538961 -1.86571 0
M  V30 9964 C 956.557 0.557498 -3.42796 0
M  V30 9965 C 955.511 -0.234337 -4.27358 0
M  V30 9966 C 954.837 0.720825 -5.29819 0
M  V30 9967 C 956.137 -1.44732 -5.01847 0
M  V30 9968 H 957.831 -1.09322 -2.78728 0
M  V30 9969 H 955.377 -0.527136 -1.34005 0
M  V30 9970 H 957.33 0.957501 -4.10378 0
M  V30 9971 H 956.054 1.40947 -2.94621 0
M  V30 9972 H 954.713 -0.61581 -3.61391 0
M  V30 9973 H 954.361 1.569 -4.77903 0
M  V30 9974 H 954.061 0.195171 -5.87276 0
M  V30 9975 H 955.585 1.1185 -6.00268 0
M  V30 9976 H 956.999 -1.12087 -5.62236 0
M  V30 9977 H 955.396 -1.90923 -5.68919 0
M  V30 9978 H 956.466 -2.22099 -4.31045 0
M  V30 9979 N 957.809 1.4625 -0.587256 0
M  V30 9980 C 959.058 2.01571 -0.0722643 0
M  V30 9981 C 959.371 1.46385 1.29733 0
M  V30 9982 O 960.577 1.93554 1.90392 0
M  V30 9983 C 959.033 3.59814 -0.078579 0
M  V30 9984 C 958.641 4.23996 -1.44678 0
M  V30 9985 C 960.385 4.22776 0.382231 0
M  V30 9986 C 958.292 5.74332 -1.41057 0
M  V30 9987 H 957.222 0.753642 -0.0232461 0
M  V30 9988 H 959.873 1.67936 -0.739577 0
M  V30 9989 H 958.255 3.90546 0.654988 0
M  V30 9990 H 959.429 4.04867 -2.20043 0
M  V30 9991 H 957.744 3.73147 -1.84799 0
M  V30 9992 H 960.341 5.32983 0.428182 0
M  V30 9993 H 960.684 3.92027 1.40072 0
M  V30 9994 H 961.217 3.96687 -0.297417 0
M  V30 9995 H 957.956 6.09747 -2.40601 0
M  V30 9996 H 957.476 5.95711 -0.699185 0
M  V30 9997 H 959.155 6.37137 -1.12543 0
M  V30 9998 N 959.287 0.325282 1.54207 0
M  V30 9999 C 960.703 -0.0273036 1.59577 0
M  V30 10000 C 960.903 -1.50329 1.34177 0
M  V30 10001 O 959.959 -2.25951 1.12705 0
M  V30 10002 C 961.272 0.392468 2.98128 0
M  V30 10003 C 962.82 0.343269 3.11112 0
M  V30 10004 C 963.295 0.738229 4.52011 0
M  V30 10005 N 964.786 0.691701 4.58006 0
M  V30 10006 C 965.521 0.969479 5.65145 0
M  V30 10007 N 965.017 1.31448 6.80216 0
M  V30 10008 N 966.81 0.894926 5.5493 0
M  V30 10009 H 958.961 1.28692 1.68974 0
M  V30 10010 H 961.224 0.523399 0.790416 0
M  V30 10011 H 960.93 1.42089 3.2172 0
M  V30 10012 H 960.804 -0.241651 3.76425 0
M  V30 10013 H 963.191 -0.675946 2.87254 0
M  V30 10014 H 963.272 1.01235 2.34915 0
M  V30 10015 H 962.916 1.75537 4.76602 0
M  V30 10016 H 962.846 0.0468226 5.26579 0
M  V30 10017 H 965.337 0.436975 3.75365 0
M  V30 10018 H 965.65 1.51177 7.57869 0
M  V30 10019 H 963.995 1.35276 6.81708 0
M  V30 10020 H 967.186 0.624876 4.6391 0
M  V30 10021 H 967.359 1.11476 6.38339 0
M  V30 10022 N 960.765 -1.57509 0.0534917 0
M  V30 10023 C 962.014 -1.91959 -0.619244 0
M  V30 10024 C 962.327 -0.933882 -1.71866 0
M  V30 10025 O 963.533 -1.17052 -2.44972 0
M  V30 10026 C 961.989 -3.40938 -1.15278 0
M  V30 10027 C 961.597 -4.47919 -0.085348 0
M  V30 10028 C 963.341 -3.84419 -1.80063 0
M  V30 10029 C 961.248 -5.88014 -0.631897 0
M  V30 10030 H 960.178 -0.71642 -0.235072 0
M  V30 10031 H 962.829 -1.83089 0.122758 0
M  V30 10032 H 961.211 -3.44821 -1.94717 0
M  V30 10033 H 962.385 -4.55629 0.688374 0
M  V30 10034 H 960.7 -4.13793 0.465178 0
M  V30 10035 H 963.297 -4.86457 -2.21954 0
M  V30 10036 H 963.64 -3.20791 -2.65328 0
M  V30 10037 H 964.173 -3.83062 -1.07275 0
M  V30 10038 H 960.912 -6.55244 0.183175 0
M  V30 10039 H 960.432 -5.83861 -1.37355 0
M  V30 10040 H 962.111 -6.37336 -1.11407 0
M  V30 10041 N 962.243 0.219913 -1.56058 0
M  V30 10042 C 963.153 1.29349 -1.95719 0
M  V30 10043 C 964.169 1.5119 -0.861248 0
M  V30 10044 O 965.345 1.64289 -1.16495 0
M  V30 10045 C 962.41 2.6229 -2.26726 0
M  V30 10046 C 961.471 2.48738 -3.49897 0
M  V30 10047 C 960.704 3.75339 -3.79416 0
M  V30 10048 O 960.927 4.78427 -3.10586 0
M  V30 10049 O 959.861 3.72352 -4.72903 0
M  V30 10050 H 963.687 0.986979 -2.87215 0
M  V30 10051 H 961.272 0.42291 -1.43289 0
M  V30 10052 H 963.154 3.408 -2.47857 0
M  V30 10053 H 961.829 2.92619 -1.38404 0
M  V30 10054 H 960.736 1.68422 -3.34043 0
M  V30 10055 H 962.069 2.23347 -4.38608 0
M  V30 10056 N 963.721 1.49897 0.486681 0
M  V30 10057 C 964.949 1.63837 1.26353 0
M  V30 10058 C 965.364 0.315428 1.86146 0
M  V30 10059 O 964.721 -0.700831 1.68507 0
M  V30 10060 C 964.772 2.71792 2.38351 0
M  V30 10061 O 964.493 3.98956 1.81013 0
M  V30 10062 C 965.994 2.96566 3.2949 0
M  V30 10063 H 963.214 0.551158 0.382709 0
M  V30 10064 H 965.758 1.96023 0.582694 0
M  V30 10065 H 963.913 2.42344 3.02238 0
M  V30 10066 H 964.327 4.58536 2.54647 0
M  V30 10067 H 965.801 3.75803 4.04322 0
M  V30 10068 H 966.278 2.07031 3.87343 0
M  V30 10069 H 966.884 3.27485 2.71355 0
M  V30 10070 N 965.199 -0.738761 1.39212 0
M  V30 10071 C 966.147 -1.8741 1.3777 0
M  V30 10072 C 967.141 -1.67371 0.261375 0
M  V30 10073 O 968.347 -1.74759 0.431209 0
M  V30 10074 H 964.722 -0.616843 0.430126 0
M  V30 10075 H 966.693 -1.85742 2.33543 0
M  V30 10076 C 965.442 -3.25053 1.23433 0
M  V30 10077 H 964.765 -3.41066 2.086 0
M  V30 10078 H 966.205 -4.04696 1.2648 0
M  V30 10079 C 964.664 -3.36851 -0.0575624 0
M  V30 10080 O 965.194 -3.88293 -1.02915 0
M  V30 10081 N 963.4 -2.90355 -0.119364 0
M  V30 10082 H 962.947 -2.48681 0.671976 0
M  V30 10083 H 962.905 -2.98628 -0.983286 0
M  V30 10084 N 966.677 -1.24326 -0.968545 0
M  V30 10085 C 967.64 -1.03591 -2.04454 0
M  V30 10086 C 968.64 0.0064809 -1.60799 0
M  V30 10087 O 969.83 -0.234404 -1.72616 0
M  V30 10088 C 966.962 -0.56992 -3.36102 0
M  V30 10089 H 968.155 -1.99092 -2.24282 0
M  V30 10090 H 965.708 -1.06537 -1.14366 0
M  V30 10091 H 966.443 0.388325 -3.21967 0
M  V30 10092 H 966.228 -1.32227 -3.69132 0
M  V30 10093 H 967.718 -0.445854 -4.15213 0
M  V30 10094 N 968.156 1.1691 -1.05688 0
M  V30 10095 C 969.404 1.86922 -0.768409 0
M  V30 10096 C 969.725 1.81735 0.706921 0
M  V30 10097 O 968.995 1.24671 1.51109 0
M  V30 10098 H 967.575 0.69203 -0.281253 0
M  V30 10099 H 970.237 1.41803 -1.33708 0
M  V30 10100 H 969.333 2.92528 -1.08783 0
M  V30 10101 N 969.634 0.838594 1.33437 0
M  V30 10102 C 970.584 0.243681 2.26694 0
M  V30 10103 C 971.568 -0.601168 1.49247 0
M  V30 10104 O 972.76 -0.453181 1.711 0
M  V30 10105 C 969.889 -0.580525 3.38356 0
M  V30 10106 C 968.975 0.275819 4.23202 0
M  V30 10107 N 969.366 1.3544 4.87329 0
M  V30 10108 C 967.664 0.0628047 4.45956 0
M  V30 10109 C 968.365 1.87991 5.50486 0
M  V30 10110 N 967.341 1.18143 5.30607 0
M  V30 10111 H 971.143 1.06849 2.73789 0
M  V30 10112 H 968.657 0.683019 1.47338 0
M  V30 10113 H 970.654 -1.02301 4.04153 0
M  V30 10114 H 969.314 -1.40331 2.92809 0
M  V30 10115 H 970.325 1.73729 4.87892 0
M  V30 10116 H 967.002 -0.726563 4.11129 0
M  V30 10117 H 968.392 2.78312 6.11549 0
M  V30 10118 N 971.112 -1.45937 0.595003 0
M  V30 10119 C 972.36 -2.01921 0.0851368 0
M  V30 10120 C 972.681 -1.46748 -1.28413 0
M  V30 10121 O 971.951 -0.656873 -1.84559 0
M  V30 10122 H 970.531 -0.746457 0.0284826 0
M  V30 10123 H 973.193 -1.78891 0.773561 0
M  V30 10124 H 972.289 -3.1209 0.0254002 0
M  V30 10125 N 972.59 -0.333456 -1.54032 0
M  V30 10126 C 973.553 0.515392 -2.2333 0
M  V30 10127 C 974.553 1.03566 -1.23007 0
M  V30 10128 O 975.743 0.926514 -1.47517 0
M  V30 10129 C 972.875 1.7169 -2.94508 0
M  V30 10130 H 974.068 -0.0905407 -2.99763 0
M  V30 10131 H 971.621 -0.0846651 -1.56071 0
M  V30 10132 H 972.356 2.3618 -2.22237 0
M  V30 10133 H 972.141 1.35115 -3.68085 0
M  V30 10134 H 973.631 2.31922 -3.47278 0
M  V30 10135 N 974.068 1.57479 -0.061844 0
M  V30 10136 C 975.316 1.92727 0.608336 0
M  V30 10137 C 975.637 0.941799 1.70749 0
M  V30 10138 O 974.907 -0.0116608 1.95897 0
M  V30 10139 H 973.487 0.71145 0.2277 0
M  V30 10140 H 976.149 1.94546 -0.117359 0
M  V30 10141 H 975.245 2.9426 1.04007 0
M  V30 10142 N 975.546 -0.211634 1.56173 0
M  V30 10143 C 976.774 -0.951184 1.83739 0
M  V30 10144 C 977.189 -1.7754 0.642252 0
M  V30 10145 O 976.546 -1.78302 -0.389174 0
M  V30 10146 C 976.597 -1.86075 3.09933 0
M  V30 10147 O 976.318 -1.06983 4.24837 0
M  V30 10148 C 977.819 -2.71337 3.50559 0
M  V30 10149 H 975.039 -0.278312 0.61056 0
M  V30 10150 H 977.583 -0.223871 2.03271 0
M  V30 10151 H 975.738 -2.54189 2.92347 0
M  V30 10152 H 976.152 -1.68815 4.9659 0
M  V30 10153 H 977.626 -3.30843 4.41868 0
M  V30 10154 H 978.103 -3.44226 2.72773 0
M  V30 10155 H 978.709 -2.0862 3.70618 0
M  V30 10156 N 977.024 -1.50153 -0.478725 0
M  V30 10157 C 978.435 -1.53706 -1.05978 0
M  V30 10158 C 978.786 -0.336112 -1.933 0
M  V30 10159 O 977.911 0.551803 -2.09246 0
M  V30 10160 C 978.506 -2.78541 -1.92874 0
M  V30 10161 C 977.065 -2.848 -2.46102 0
M  V30 10162 C 976.212 -2.47902 -1.24257 0
M  V30 10163 H 979.163 -1.56528 -0.261664 0
M  V30 10164 H 979.184 -2.59964 -2.77847 0
M  V30 10165 H 978.696 -3.6593 -1.29293 0
M  V30 10166 H 976.797 -2.01744 -3.13257 0
M  V30 10167 H 976.91 -3.87511 -2.81731 0
M  V30 10168 H 975.274 -2.0017 -1.57493 0
M  V30 10169 H 976.057 -3.3759 -0.62351 0
M  V30 10170 N 978.502 0.731368 -1.39602 0
M  V30 10171 C 979.748 1.49321 -1.37227 0
M  V30 10172 C 980.081 1.94176 0.0306502 0
M  V30 10173 O 979.356 1.67046 0.996294 0
M  V30 10174 C 979.639 2.73035 -2.34784 0
M  V30 10175 C 979.492 2.34176 -3.84033 0
M  V30 10176 C 980.811 3.75146 -2.30116 0
M  V30 10177 H 977.93 0.541652 -0.499783 0
M  V30 10178 H 980.572 0.835968 -1.70621 0
M  V30 10179 H 978.722 3.29114 -2.06437 0
M  V30 10180 H 980.394 1.83701 -4.23145 0
M  V30 10181 H 978.637 1.66361 -4.00633 0
M  V30 10182 H 979.308 3.22786 -4.47787 0
M  V30 10183 H 981.784 3.28661 -2.55189 0
M  V30 10184 H 980.66 4.5937 -3.00451 0
M  V30 10185 H 980.921 4.22326 -1.30741 0
M  V30 10186 N 979.98 1.24838 0.961938 0
M  V30 10187 C 980.943 1.04674 2.03902 0
M  V30 10188 C 981.943 0.00204674 1.608 0
M  V30 10189 O 983.133 0.243555 1.72489 0
M  V30 10190 C 980.265 0.587736 3.35795 0
M  V30 10191 H 981.458 2.00278 2.23223 0
M  V30 10192 H 979.011 1.07142 1.138 0
M  V30 10193 H 979.746 -0.371244 3.22168 0
M  V30 10194 H 979.531 1.34182 3.68426 0
M  V30 10195 H 981.021 0.467867 4.14971 0
M  V30 10196 N 981.458 -1.16348 1.06306 0
M  V30 10197 C 982.405 -2.20741 0.673962 0
M  V30 10198 C 983.375 -1.628 -0.329454 0
M  V30 10199 O 984.56 -1.89547 -0.218313 0
M  V30 10200 C 981.7 -3.45036 0.0667008 0
M  V30 10201 C 980.813 -4.17221 1.12031 0
M  V30 10202 C 979.948 -5.29034 0.479176 0
M  V30 10203 C 978.987 -5.93021 1.51631 0
M  V30 10204 N 978.124 -6.96327 0.898528 0
M  V30 10205 H 982.964 -2.53376 1.56859 0
M  V30 10206 H 980.501 -1.24449 0.784276 0
M  V30 10207 H 982.459 -4.16099 -0.302916 0
M  V30 10208 H 981.089 -3.1295 -0.791333 0
M  V30 10209 H 980.141 -3.4476 1.60763 0
M  V30 10210 H 981.453 -4.60902 1.90712 0
M  V30 10211 H 980.607 -6.06674 0.0565993 0
M  V30 10212 H 979.346 -4.86517 -0.33951 0
M  V30 10213 H 978.351 -5.14104 1.94878 0
M  V30 10214 H 979.576 -6.37618 2.3371 0
M  V30 10215 H 977.522 -6.55923 0.100555 0
M  V30 10216 H 977.439 -7.38379 1.62272 0
M  V30 10217 H 978.707 -7.77888 0.5011 0
M  V30 10218 N 982.937 -0.845659 -1.3299 0
M  V30 10219 C 983.867 -0.298957 -2.31578 0
M  V30 10220 C 984.848 0.597012 -1.59279 0
M  V30 10221 O 986.033 0.519142 -1.87132 0
M  V30 10222 C 983.163 0.521109 -3.43368 0
M  V30 10223 C 982.117 -0.279651 -4.27085 0
M  V30 10224 C 981.443 0.664591 -5.30554 0
M  V30 10225 C 982.743 -1.50046 -5.00283 0
M  V30 10226 H 984.437 -1.12272 -2.77552 0
M  V30 10227 H 981.983 -0.54132 -1.33438 0
M  V30 10228 H 983.936 0.913921 -4.1137 0
M  V30 10229 H 982.66 1.37815 -2.96099 0
M  V30 10230 H 981.319 -0.654106 -3.60717 0
M  V30 10231 H 980.967 1.51822 -4.79541 0
M  V30 10232 H 980.667 0.132871 -5.8745 0
M  V30 10233 H 982.191 1.05477 -6.01421 0
M  V30 10234 H 983.605 -1.18044 -5.61016 0
M  V30 10235 H 982.002 -1.96946 -5.66862 0
M  V30 10236 H 983.072 -2.26659 -4.28665 0
M  V30 10237 N 984.415 1.45619 -0.602734 0
M  V30 10238 C 985.664 2.01483 -0.0936395 0
M  V30 10239 C 985.977 1.47753 1.28173 0
M  V30 10240 O 987.183 1.95562 1.88329 0
M  V30 10241 C 985.639 3.59711 -0.116738 0
M  V30 10242 C 985.247 4.22437 -1.49166 0
M  V30 10243 C 986.991 4.23157 0.337368 0
M  V30 10244 C 984.898 5.72803 -1.47141 0
M  V30 10245 H 983.828 0.753353 -0.0312382 0
M  V30 10246 H 986.479 1.67142 -0.757347 0
M  V30 10247 H 984.861 3.91218 0.613529 0
M  V30 10248 H 986.035 4.02511 -2.24325 0
M  V30 10249 H 984.35 3.71166 -1.88746 0
M  V30 10250 H 986.947 5.33407 0.371628 0
M  V30 10251 H 987.29 3.93491 1.35906 0
M  V30 10252 H 987.823 3.96349 -0.339474 0
M  V30 10253 H 984.562 6.07161 -2.47055 0
M  V30 10254 H 984.082 5.94936 -0.762329 0
M  V30 10255 H 985.761 6.35907 -1.19294 0
M  V30 10256 N 985.893 0.34162 1.53853 0
M  V30 10257 C 986.803 -0.524555 2.2866 0
M  V30 10258 C 987.819 -1.1136 1.33697 0
M  V30 10259 O 988.995 -1.1297 1.66732 0
M  V30 10260 C 986.06 -1.66065 3.04341 0
M  V30 10261 C 985.121 -1.10158 4.14926 0
M  V30 10262 C 984.354 -2.18353 4.86988 0
M  V30 10263 O 984.577 -3.39038 4.58704 0
M  V30 10264 O 983.511 -1.82756 5.73484 0
M  V30 10265 H 987.337 0.0835014 3.03585 0
M  V30 10266 H 984.922 0.106727 1.49018 0
M  V30 10267 H 986.804 -2.3217 3.51674 0
M  V30 10268 H 985.479 -2.25456 2.32275 0
M  V30 10269 H 984.386 -0.405109 3.719 0
M  V30 10270 H 985.719 -0.552567 4.89088 0
M  V30 10271 N 987.371 -1.57444 0.0701946 0
M  V30 10272 C 988.303 -2.09611 -0.927142 0
M  V30 10273 C 989.316 -1.02791 -1.26245 0
M  V30 10274 O 990.505 -1.30309 -1.21992 0
M  V30 10275 C 987.605 -2.54015 -2.24342 0
M  V30 10276 C 986.778 -3.84389 -2.08719 0
M  V30 10277 C 985.837 -4.14904 -3.23638 0
M  V30 10278 O 984.863 -4.84528 -2.98699 0
M  V30 10279 N 986.065 -3.68322 -4.48686 0
M  V30 10280 H 988.83 -2.95803 -0.481753 0
M  V30 10281 H 986.391 -1.61487 -0.115572 0
M  V30 10282 H 988.383 -2.71492 -3.00124 0
M  V30 10283 H 986.953 -1.72969 -2.60385 0
M  V30 10284 H 986.173 -3.76308 -1.17415 0
M  V30 10285 H 987.461 -4.69729 -1.9553 0
M  V30 10286 H 986.859 -3.12073 -4.71834 0
M  V30 10287 H 985.416 -3.91002 -5.21499 0
M  V30 10288 N 988.849 0.203349 -1.56283 0
M  V30 10289 C 990.074 0.945548 -1.84592 0
M  V30 10290 C 990.499 1.7641 -0.652772 0
M  V30 10291 O 989.857 1.76867 0.398468 0
M  V30 10292 C 989.905 1.82416 -3.11057 0
M  V30 10293 O 989.009 2.92191 -2.9103 0
M  V30 10294 H 988.35 0.266739 -0.608068 0
M  V30 10295 H 990.88 0.211158 -2.03507 0
M  V30 10296 H 990.89 2.23044 -3.41636 0
M  V30 10297 H 989.565 1.22267 -3.97522 0
M  V30 10298 H 988.142 2.55378 -2.71728 0
M  V30 10299 N 990.327 1.50405 0.470755 0
M  V30 10300 C 991.29 1.68741 1.5511 0
M  V30 10301 C 992.29 0.558116 1.50804 0
M  V30 10302 O 993.48 0.825149 1.53418 0
M  V30 10303 C 990.612 1.71295 2.94739 0
M  V30 10304 H 991.805 2.65127 1.40169 0
M  V30 10305 H 989.358 1.39891 0.697156 0
M  V30 10306 H 990.093 0.766029 3.15123 0
M  V30 10307 H 989.878 2.53336 2.99271 0
M  V30 10308 H 991.368 1.87434 3.73173 0
M  V30 10309 N 991.805 -0.723954 1.39988 0
M  V30 10310 C 993.082 -1.4763 1.28316 0
M  V30 10311 C 993.462 -2.10852 -0.102302 0
M  V30 10312 O 992.81 -1.9948 -1.11445 0
M  V30 10313 C 993.02 -2.51878 2.41574 0
M  V30 10314 C 994.368 -3.17948 2.81415 0
M  V30 10315 O 995.392 -2.62195 2.41106 0
M  V30 10316 O 994.251 -4.18858 3.51027 0
M  V30 10317 H 991.345 -0.656092 0.50346 0
M  V30 10318 H 993.891 -0.75684 1.51888 0
M  V30 10319 H 992.663 -2.03618 3.34149 0
M  V30 10320 H 992.286 -3.3137 2.19727 0
M  V30 10321 N 993.283 -1.25346 -0.955304 0
M  V30 10322 C 994.532 -1.0945 -1.69421 0
M  V30 10323 C 994.845 0.364459 -1.92175 0
M  V30 10324 O 996.051 0.643843 -2.63755 0
M  V30 10325 C 994.507 -1.91045 -3.05008 0
M  V30 10326 C 994.115 -3.41428 -2.90053 0
M  V30 10327 C 995.859 -1.83716 -3.82686 0
M  V30 10328 C 993.766 -4.1532 -4.21026 0
M  V30 10329 H 992.696 -0.405978 -0.635372 0
M  V30 10330 H 995.347 -1.49536 -1.06354 0
M  V30 10331 H 993.729 -1.43781 -3.68975 0
M  V30 10332 H 994.903 -3.9636 -2.35022 0
M  V30 10333 H 993.218 -3.49842 -2.25831 0
M  V30 10334 H 995.815 -2.36217 -4.79693 0
M  V30 10335 H 996.158 -0.804919 -4.08444 0
M  V30 10336 H 996.691 -2.28726 -3.25468 0
M  V30 10337 H 993.43 -5.18955 -4.00457 0
M  V30 10338 H 992.95 -3.65172 -4.75825 0
M  V30 10339 H 994.629 -4.22999 -4.89572 0
M  V30 10340 N 994.761 1.15782 -1.06922 0
M  V30 10341 C 995.991 1.90079 -0.809545 0
M  V30 10342 C 996.399 1.78028 0.640523 0
M  V30 10343 O 995.742 1.12692 1.45073 0
M  V30 10344 C 995.804 3.41179 -1.13302 0
M  V30 10345 C 995.468 3.77015 -2.5828 0
M  V30 10346 C 996.465 3.78403 -3.56521 0
M  V30 10347 C 994.15 4.07455 -2.93745 0
M  V30 10348 C 996.144 4.09729 -4.88264 0
M  V30 10349 C 993.831 4.38446 -4.25686 0
M  V30 10350 C 994.829 4.39564 -5.22755 0
M  V30 10351 O 994.517 4.69814 -6.52326 0
M  V30 10352 H 994.249 0.609397 -0.292595 0
M  V30 10353 H 996.803 1.47654 -1.42784 0
M  V30 10354 H 995.033 3.83982 -0.457676 0
M  V30 10355 H 996.722 3.96759 -0.856586 0
M  V30 10356 H 997.488 3.54991 -3.30464 0
M  V30 10357 H 993.367 4.05746 -2.1884 0
M  V30 10358 H 996.911 4.10516 -5.64023 0
M  V30 10359 H 992.808 4.61325 -4.51497 0
M  V30 10360 H 993.576 4.87598 -6.57412 0
M  V30 10361 N 996.239 0.8527 1.3254 0
M  V30 10362 C 997.202 0.300959 2.27215 0
M  V30 10363 C 998.202 -0.538235 1.51525 0
M  V30 10364 O 999.392 -0.350027 1.70647 0
M  V30 10365 C 996.524 -0.574428 3.36025 0
M  V30 10366 H 997.717 1.13655 2.77529 0
M  V30 10367 H 995.27 0.626878 1.43178 0
M  V30 10368 H 996.005 -1.43191 2.90976 0
M  V30 10369 H 995.79 0.0262265 3.92091 0
M  V30 10370 H 997.28 -0.9533 4.06573 0
M  V30 10371 N 997.718 -1.45297 0.610449 0
M  V30 10372 C 998.965 -2.02218 0.106759 0
M  V30 10373 C 999.293 -1.47849 -1.26376 0
M  V30 10374 O 998.548 -0.644402 -1.84786 0
M  V30 10375 C 998.847 -3.57394 0.0205329 0
M  V30 10376 C 998.513 -4.30928 1.32709 0
M  V30 10377 C 997.175 -4.50735 1.68498 0
M  V30 10378 C 999.527 -4.72936 2.19046 0
M  V30 10379 C 996.855 -5.09806 2.90371 0
M  V30 10380 C 999.207 -5.33355 3.40169 0
M  V30 10381 C 997.871 -5.51384 3.76207 0
M  V30 10382 H 997.141 -0.739969 0.039066 0
M  V30 10383 H 999.788 -1.74326 0.792638 0
M  V30 10384 H 998.093 -3.84581 -0.748623 0
M  V30 10385 H 999.79 -3.99144 -0.385386 0
M  V30 10386 H 996.38 -4.15827 1.03854 0
M  V30 10387 H 1000.56 -4.57365 1.92695 0
M  V30 10388 H 995.82 -5.21953 3.18395 0
M  V30 10389 H 999.994 -5.64859 4.07318 0
M  V30 10390 H 997.621 -5.96924 4.70729 0
M  V30 10391 N 999.196 -0.349774 -1.5367 0
M  V30 10392 C 1000.42 0.246038 -2.05432 0
M  V30 10393 C 1000.84 1.43719 -1.22435 0
M  V30 10394 O 1000.2 1.80622 -0.261166 0
M  V30 10395 C 1000.25 0.65501 -3.55516 0
M  V30 10396 O 999.968 -0.488782 -4.35365 0
M  V30 10397 C 1001.47 1.31088 -4.23475 0
M  V30 10398 H 998.689 0.0463952 -0.669394 0
M  V30 10399 H 1001.23 -0.503566 -1.98203 0
M  V30 10400 H 999.388 1.35455 -3.62947 0
M  V30 10401 H 999.802 -0.161528 -5.24251 0
M  V30 10402 H 1001.28 1.54774 -5.29857 0
M  V30 10403 H 1001.75 2.26636 -3.76208 0
M  V30 10404 H 1002.36 0.653211 -4.20254 0
M  V30 10405 N 1000.67 1.57404 -0.0785433 0
M  V30 10406 C 1001.6 2.16131 0.883726 0
M  V30 10407 C 1002.58 1.09015 1.30575 0
M  V30 10408 O 1003.77 1.3708 1.37559 0
M  V30 10409 C 1000.9 2.72836 2.1489 0
M  V30 10410 C 999.854 3.85178 1.86605 0
M  V30 10411 C 999.18 4.28516 3.1981 0
M  V30 10412 C 1000.48 5.09118 1.16601 0
M  V30 10413 H 1002.17 2.9679 0.394484 0
M  V30 10414 H 999.72 1.42763 0.188304 0
M  V30 10415 H 1001.67 3.12567 2.8263 0
M  V30 10416 H 1000.4 1.89408 2.66068 0
M  V30 10417 H 999.056 3.45962 1.21268 0
M  V30 10418 H 998.704 3.42 3.68843 0
M  V30 10419 H 998.404 5.04249 3.01674 0
M  V30 10420 H 999.928 4.70868 3.88737 0
M  V30 10421 H 1001.34 5.46123 1.74422 0
M  V30 10422 H 999.739 5.90173 1.087 0
M  V30 10423 H 1000.81 4.8468 0.146138 0
M  V30 10424 N 1002.15 -0.195058 1.56388 0
M  V30 10425 C 1003.38 -0.930291 1.8447 0
M  V30 10426 C 1003.79 -1.77356 0.658901 0
M  V30 10427 O 1003.13 -1.79691 -0.381664 0
M  V30 10428 C 1003.19 -1.87626 3.06654 0
M  V30 10429 C 1002.86 -1.21494 4.40555 0
M  V30 10430 C 1003.86 -0.591847 5.1652 0
M  V30 10431 C 1001.54 -1.21878 4.8729 0
M  V30 10432 C 1003.53 0.0185743 6.37397 0
M  V30 10433 C 1001.22 -0.604524 6.08103 0
M  V30 10434 C 1002.22 0.0130731 6.82999 0
M  V30 10435 O 1001.91 0.617703 8.01523 0
M  V30 10436 H 1001.64 -0.276933 0.616672 0
M  V30 10437 H 1004.19 -0.207277 2.04351 0
M  V30 10438 H 1002.42 -2.63897 2.82658 0
M  V30 10439 H 1004.11 -2.47929 3.21382 0
M  V30 10440 H 1004.88 -0.581018 4.81507 0
M  V30 10441 H 1000.76 -1.68888 4.2895 0
M  V30 10442 H 1004.3 0.50124 6.95797 0
M  V30 10443 H 1000.2 -0.612855 6.42584 0
M  V30 10444 H 1000.97 0.514612 8.16881 0
M  V30 10445 N 1003.63 -1.50653 -0.462772 0
M  V30 10446 C 1004.54 -1.72923 -1.58539 0
M  V30 10447 C 1005.56 -0.612577 -1.6286 0
M  V30 10448 O 1006.73 -0.891885 -1.80575 0
M  V30 10449 C 1003.8 -1.82623 -2.94703 0
M  V30 10450 C 1002.86 -3.06392 -3.00704 0
M  V30 10451 C 1002.09 -3.15618 -4.30373 0
M  V30 10452 O 1002.31 -2.31423 -5.21344 0
M  V30 10453 O 1001.25 -4.0841 -4.42136 0
M  V30 10454 H 1005.07 -2.68103 -1.42669 0
M  V30 10455 H 1002.66 -1.34848 -0.643144 0
M  V30 10456 H 1004.54 -1.91134 -3.7556 0
M  V30 10457 H 1003.22 -0.906275 -3.10754 0
M  V30 10458 H 1002.12 -3.03375 -2.18894 0
M  V30 10459 H 1003.46 -3.97992 -2.89591 0
M  V30 10460 N 1005.11 0.71652 -1.4037 0
M  V30 10461 C 1006.04 1.84012 -1.34963 0
M  V30 10462 C 1007.02 1.61102 -0.22017 0
M  V30 10463 O 1008.2 1.84127 -0.403676 0
M  V30 10464 C 1005.33 3.20334 -1.10017 0
M  V30 10465 C 1004.38 3.62072 -2.25402 0
M  V30 10466 S 1005.21 3.69295 -3.8779 0
M  V30 10467 C 1006.37 5.08378 -3.65107 0
M  V30 10468 H 1006.6 1.88318 -2.30052 0
M  V30 10469 H 1004.13 0.883208 -1.26644 0
M  V30 10470 H 1006.09 3.99042 -0.963097 0
M  V30 10471 H 1004.75 3.13662 -0.16584 0
M  V30 10472 H 1003.94 4.61051 -2.03587 0
M  V30 10473 H 1003.55 2.90619 -2.35408 0
M  V30 10474 H 1005.84 5.95268 -3.23516 0
M  V30 10475 H 1006.78 5.35228 -4.63613 0
M  V30 10476 H 1007.19 4.78927 -2.98813 0
M  V30 10477 N 1006.59 1.25851 0.948643 0
M  V30 10478 C 1007.83 1.10735 1.69062 0
M  V30 10479 C 1008.16 -0.351257 1.9181 0
M  V30 10480 O 1007.43 -1.24867 1.50947 0
M  V30 10481 H 1006.01 0.406796 0.626519 0
M  V30 10482 H 1008.67 1.58066 1.14022 0
M  V30 10483 H 1007.76 1.62033 2.66743 0
M  V30 10484 N 1008.06 -1.15214 1.07534 0
M  V30 10485 C 1009.29 -1.89647 0.819614 0
M  V30 10486 C 1009.7 -1.78365 -0.631072 0
M  V30 10487 O 1009.05 -1.1346 -1.44474 0
M  V30 10488 C 1009.11 -3.40573 1.1511 0
M  V30 10489 C 1008.77 -3.7564 2.60276 0
M  V30 10490 C 1009.77 -3.76507 3.58523 0
M  V30 10491 C 1007.45 -4.05891 2.95901 0
M  V30 10492 C 1009.45 -4.07133 4.9043 0
M  V30 10493 C 1007.13 -4.36182 4.28005 0
M  V30 10494 C 1008.13 -4.36785 5.25079 0
M  V30 10495 O 1007.82 -4.66348 6.54809 0
M  V30 10496 H 1007.55 -0.607836 0.295822 0
M  V30 10497 H 1010.11 -1.46895 1.43565 0
M  V30 10498 H 1008.34 -3.83734 0.478033 0
M  V30 10499 H 1010.03 -3.96299 0.877615 0
M  V30 10500 H 1010.79 -3.53233 3.32342 0
M  V30 10501 H 1006.67 -4.0458 2.20989 0
M  V30 10502 H 1010.21 -4.07519 5.66193 0
M  V30 10503 H 1006.11 -4.58924 4.53937 0
M  V30 10504 H 1006.88 -4.84105 6.59988 0
M  V30 10505 N 1009.54 -0.859717 -1.32086 0
M  V30 10506 C 1010.96 -0.55025 -1.49815 0
M  V30 10507 C 1011.16 0.917966 -1.79376 0
M  V30 10508 O 1010.21 1.70073 -1.86632 0
M  V30 10509 C 1011.53 -1.44161 -2.6389 0
M  V30 10510 C 1013.08 -1.44257 -2.77775 0
M  V30 10511 C 1013.55 -2.31926 -3.94936 0
M  V30 10512 N 1015.04 -2.2975 -4.02206 0
M  V30 10513 C 1015.78 -2.9431 -4.92107 0
M  V30 10514 N 1015.27 -3.68001 -5.86981 0
M  V30 10515 N 1017.07 -2.83671 -4.8527 0
M  V30 10516 H 1009.22 -1.80987 -1.11164 0
M  V30 10517 H 1011.48 -0.773313 -0.548353 0
M  V30 10518 H 1011.19 -2.48588 -2.4879 0
M  V30 10519 H 1011.06 -1.13268 -3.59792 0
M  V30 10520 H 1013.45 -0.405923 -2.92295 0
M  V30 10521 H 1013.53 -1.79169 -1.82571 0
M  V30 10522 H 1013.17 -3.35661 -3.81174 0
M  V30 10523 H 1013.1 -1.94344 -4.89426 0
M  V30 10524 H 1015.59 -1.76177 -3.3432 0
M  V30 10525 H 1015.91 -4.14417 -6.52287 0
M  V30 10526 H 1014.25 -3.72109 -5.86992 0
M  V30 10527 H 1017.44 -2.25647 -4.10123 0
M  V30 10528 H 1017.61 -3.34267 -5.5513 0
M  V30 10529 N 1011.02 1.44971 -0.618145 0
M  V30 10530 C 1011.93 2.34403 0.0960457 0
M  V30 10531 C 1012.95 1.51862 0.849355 0
M  V30 10532 O 1014.12 1.84632 0.804557 0
M  V30 10533 C 1011.19 3.29646 1.07397 0
M  V30 10534 C 1010.25 4.28095 0.321466 0
M  V30 10535 C 1009.48 5.18787 1.25281 0
M  V30 10536 O 1009.7 5.1313 2.49106 0
M  V30 10537 O 1008.64 5.97282 0.744156 0
M  V30 10538 H 1012.46 2.96898 -0.639176 0
M  V30 10539 H 1010.05 1.44529 -0.37837 0
M  V30 10540 H 1011.93 3.88307 1.63694 0
M  V30 10541 H 1010.61 2.69702 1.79004 0
M  V30 10542 H 1009.51 3.73019 -0.284223 0
M  V30 10543 H 1010.85 4.90923 -0.354315 0
M  V30 10544 N 1012.5 0.357919 1.53482 0
M  V30 10545 C 1013.43 -0.484231 2.28424 0
M  V30 10546 C 1014.41 -1.09046 1.30548 0
M  V30 10547 O 1015.59 -1.10916 1.59409 0
M  V30 10548 C 1012.72 -1.62803 3.06778 0
M  V30 10549 C 1011.68 -1.14943 4.12277 0
M  V30 10550 C 1011 -2.38287 4.78669 0
M  V30 10551 C 1012.3 -0.239627 5.2175 0
M  V30 10552 H 1014 0.140979 2.99068 0
M  V30 10553 H 1011.54 0.069244 1.43833 0
M  V30 10554 H 1013.5 -2.22374 3.57949 0
M  V30 10555 H 1012.22 -2.28036 2.3381 0
M  V30 10556 H 1010.88 -0.576442 3.6204 0
M  V30 10557 H 1010.53 -3.01959 4.02281 0
M  V30 10558 H 1010.23 -2.06939 5.49955 0
M  V30 10559 H 1011.75 -2.98558 5.32631 0
M  V30 10560 H 1013.17 -0.742597 5.6847 0
M  V30 10561 H 1011.56 -0.0173747 6.00097 0
M  V30 10562 H 1012.63 0.720333 4.7952 0
M  V30 10563 N 1013.98 -1.5736 0.0868897 0
M  V30 10564 C 1015.39 -1.81356 -0.443499 0
M  V30 10565 C 1015.74 -1.00192 -1.68689 0
M  V30 10566 O 1014.86 -0.228863 -2.15186 0
M  V30 10567 C 1015.46 -3.28941 -0.811387 0
M  V30 10568 C 1014.02 -3.53729 -1.28656 0
M  V30 10569 C 1013.16 -2.75891 -0.279153 0
M  V30 10570 H 1016.12 -1.55594 0.312427 0
M  V30 10571 H 1016.14 -3.41815 -1.6716 0
M  V30 10572 H 1015.65 -3.87987 0.0937598 0
M  V30 10573 H 1013.75 -3.00005 -2.2097 0
M  V30 10574 H 1013.86 -4.62396 -1.25406 0
M  V30 10575 H 1012.23 -2.4311 -0.759595 0
M  V30 10576 H 1013.01 -3.37682 0.618529 0
M  V30 10577 N 1015.45 0.186762 -1.56489 0
M  V30 10578 C 1016.87 0.537933 -1.50261 0
M  V30 10579 C 1017.07 1.85435 -0.788414 0
M  V30 10580 O 1016.13 2.50168 -0.342377 0
M  V30 10581 C 1017.44 0.584965 -2.94955 0
M  V30 10582 C 1018.99 0.673228 -3.05674 0
M  V30 10583 C 1019.46 0.751294 -4.51796 0
M  V30 10584 N 1020.95 0.814599 -4.55981 0
M  V30 10585 C 1021.69 0.895313 -5.66367 0
M  V30 10586 N 1021.18 0.937814 -6.86423 0
M  V30 10587 N 1022.98 0.933145 -5.543 0
M  V30 10588 H 1015.13 -0.676636 -2.01334 0
M  V30 10589 H 1017.39 -0.242079 -0.916571 0
M  V30 10590 H 1017.1 -0.313361 -3.50301 0
M  V30 10591 H 1016.97 1.4368 -3.48763 0
M  V30 10592 H 1019.36 1.56198 -2.50372 0
M  V30 10593 H 1019.44 -0.204976 -2.54977 0
M  V30 10594 H 1019.08 -0.133143 -5.07725 0
M  V30 10595 H 1019.01 1.64542 -5.00233 0
M  V30 10596 H 1021.5 0.790662 -3.69536 0
M  V30 10597 H 1021.82 1.00015 -7.66301 0
M  V30 10598 H 1020.16 0.906351 -6.89065 0
M  V30 10599 H 1023.35 0.896836 -4.59428 0
M  V30 10600 H 1023.53 0.992588 -6.40353 0
M  V30 10601 N 1016.93 1.50896 0.454776 0
M  V30 10602 C 1017.86 1.6712 1.56855 0
M  V30 10603 C 1018.88 0.552223 1.53148 0
M  V30 10604 O 1020.07 0.825969 1.5824 0
M  V30 10605 C 1017.17 1.65464 2.95762 0
M  V30 10606 C 1016.34 2.93662 3.24163 0
M  V30 10607 C 1015.4 2.84428 4.42704 0
M  V30 10608 O 1014.42 3.58382 4.42211 0
M  V30 10609 N 1015.63 1.9909 5.45292 0
M  V30 10610 H 1018.39 2.63194 1.43349 0
M  V30 10611 H 1015.95 1.48564 0.643457 0
M  V30 10612 H 1017.94 1.56878 3.73057 0
M  V30 10613 H 1016.51 0.770568 3.02954 0
M  V30 10614 H 1015.73 3.16251 2.35328 0
M  V30 10615 H 1017.02 3.78558 3.39957 0
M  V30 10616 H 1016.42 1.3835 5.48521 0
M  V30 10617 H 1014.98 1.96396 6.21508 0
M  V30 10618 N 1018.41 -0.709066 1.40748 0
M  V30 10619 C 1019.82 -1.28847 1.35112 0
M  V30 10620 C 1020.17 -1.9618 0.0277149 0
M  V30 10621 O 1019.3 -1.97955 -0.874233 0
M  V30 10622 C 1019.89 -2.34306 2.44716 0
M  V30 10623 C 1018.45 -2.87856 2.4252 0
M  V30 10624 C 1017.6 -1.61723 2.25257 0
M  V30 10625 H 1020.55 -0.504742 1.50459 0
M  V30 10626 H 1020.57 -3.15297 2.12998 0
M  V30 10627 H 1020.08 -1.85271 3.41022 0
M  V30 10628 H 1018.18 -3.41103 1.49931 0
M  V30 10629 H 1018.3 -3.39205 3.38344 0
M  V30 10630 H 1016.66 -1.87032 1.7289 0
M  V30 10631 H 1017.44 -1.14703 3.23571 0
M  V30 10632 O 1019.93 -1.3727 -0.85084 0
M  V30 10633 H 1020.62 -1.23584 -1.49153 0
M  V30 END ATOM
M  V30 BEGIN BOND
M  V30 END BOND
M  V30 END CTAB
M  END
$$$$
