drugbank_target|P00742 Coagulation factor X (DB00025; DB00036; DB00100; DB00569; DB01109; DB01225; DB03847; DB04673; DB05362; DB05713; DB06228; DB06245; DB06406; DB06552; DB06605; DB06635; DB06920; DB07211; DB07261; DB07277; DB07278; DB07605; DB07629; DB07630; DB07800; DB07804; DB07843; DB07844; DB07847; DB07848; DB07872; DB07875; DB07973; DB07974; DB08143; DB08173; DB08174; DB08426; DB08487; DB08488; DB08495; DB08745; DB08746; DB09075; DB09109; DB09141; DB09258; DB09332; DB11166; DB12364; DB12598; DB13149; DB13150; DB13151; DB13152; DB13192; DB13884; DB13923; DB13933; DB13998; DB13999; DB14738)
 OpenBabel12092119273D

  0  0  0     0  0            999 V3000
M  V30 BEGIN CTAB
M  V30 COUNTS 7547 7621 0 0 0
M  V30 BEGIN ATOM
M  V30 1 H -0.908 1.98254 -0.117106 0
M  V30 2 N 0 1.576 0 0
M  V30 3 C 0.933 2.03868 1.02534 0
M  V30 4 C 1.911 0.928543 1.3348 0
M  V30 5 O 3.095 1.19667 1.45644 0
M  V30 6 C 0.222 2.43627 2.35294 0
M  V30 7 C -0.732 3.65373 2.2001 0
M  V30 8 S 0.101 5.13292 1.52614 0
M  V30 9 C 1.257 5.56322 2.86805 0
M  V30 10 H 1.49 2.90518 0.631377 0
M  V30 11 H -0.977 1.52953 0.210867 0
M  V30 12 H 0.981 2.67203 3.11629 0
M  V30 13 H -0.358 1.57376 2.7183 0
M  V30 14 H -1.165 3.90944 3.18086 0
M  V30 15 H -1.563 3.418 1.51819 0
M  V30 16 H 0.729 5.58782 3.83104 0
M  V30 17 H 1.672 6.56266 2.65933 0
M  V30 18 H 2.08 4.83886 2.90714 0
M  V30 19 N 1.4781 -0.272755 1.55222 0
M  V30 20 C 2.7261 -1.00234 1.75492 0
M  V30 21 C 3.0471 -1.8681 0.5592 0
M  V30 22 O 2.3171 -1.91215 -0.425882 0
M  V30 23 H 0.8971 -0.373076 0.647166 0
M  V30 24 H 3.5591 -0.296926 1.92625 0
M  V30 25 H 2.6551 -1.63913 2.65592 0
M  V30 26 N 2.9562 -1.48159 -0.537278 0
M  V30 27 C 4.3722 -1.34118 -0.865129 0
M  V30 28 C 4.5722 -0.346678 -1.98495 0
M  V30 29 O 3.6282 0.234715 -2.51407 0
M  V30 30 C 4.9412 -2.73963 -1.23954 0
M  V30 31 C 6.4892 -2.82397 -1.34984 0
M  V30 32 C 6.9642 -4.22928 -1.75772 0
M  V30 33 N 8.4552 -4.25566 -1.82887 0
M  V30 34 C 9.1902 -5.31235 -2.15817 0
M  V30 35 N 8.6862 -6.47189 -2.47222 0
M  V30 36 N 10.4792 -5.18624 -2.16761 0
M  V30 37 H 2.6302 -2.1144 0.201715 0
M  V30 38 H 4.8932 -0.947598 0.0275949 0
M  V30 39 H 4.5992 -3.48264 -0.490381 0
M  V30 40 H 4.4732 -3.0702 -2.19132 0
M  V30 41 H 6.8602 -2.08356 -2.08978 0
M  V30 42 H 6.9412 -2.5297 -0.379448 0
M  V30 43 H 6.5852 -4.97482 -1.02341 0
M  V30 44 H 6.5152 -4.49794 -2.73848 0
M  V30 45 H 9.0062 -3.41924 -1.60924 0
M  V30 46 H 9.3192 -7.23564 -2.71433 0
M  V30 47 H 7.6642 -6.50476 -2.44757 0
M  V30 48 H 10.8552 -4.27056 -1.91679 0
M  V30 49 H 11.0282 -6.01078 -2.42093 0
M  V30 50 N 4.4343 0.785586 -1.36625 0
M  V30 51 C 5.8453 1.36101 -1.27803 0
M  V30 52 C 6.1963 1.96035 0.0804875 0
M  V30 53 O 5.3213 1.92834 0.982042 0
M  V30 54 C 5.9163 2.47442 -2.31426 0
M  V30 55 C 4.4753 3.00789 -2.26281 0
M  V30 56 C 3.6223 1.73896 -2.15999 0
M  V30 57 H 6.5733 0.586928 -1.47448 0
M  V30 58 H 6.5943 3.2656 -1.95291 0
M  V30 59 H 6.1063 2.03791 -3.30289 0
M  V30 60 H 4.2073 3.48851 -1.30896 0
M  V30 61 H 4.3203 3.57343 -3.19128 0
M  V30 62 H 2.6843 1.9628 -1.62316 0
M  V30 63 H 3.4673 1.32368 -3.16755 0
M  V30 64 N 5.9124 1.20967 1.01018 0
M  V30 65 C 6.8424 0.988272 2.11555 0
M  V30 66 C 7.8234 -0.0849778 1.69888 0
M  V30 67 O 9.0084 0.0738202 1.9406 0
M  V30 68 C 6.1384 0.546528 3.42973 0
M  V30 69 C 5.0924 1.56375 3.9841 0
M  V30 70 C 4.4184 0.97842 5.25672 0
M  V30 71 C 5.7184 2.94922 4.31066 0
M  V30 72 H 7.4124 1.91276 2.30334 0
M  V30 73 H 4.9584 0.921073 1.1069 0
M  V30 74 H 6.9114 0.378839 4.19694 0
M  V30 75 H 5.6354 -0.413598 3.23971 0
M  V30 76 H 4.2944 1.71891 3.23804 0
M  V30 77 H 3.9424 0.0101688 5.02999 0
M  V30 78 H 3.6424 1.65784 5.63728 0
M  V30 79 H 5.1664 0.821939 6.05043 0
M  V30 80 H 6.5804 2.8288 4.9865 0
M  V30 81 H 4.9774 3.5983 4.80253 0
M  V30 82 H 6.0474 3.4616 3.39561 0
M  V30 83 N 7.3905 -1.2043 1.01659 0
M  V30 84 C 8.3405 -2.21076 0.557623 0
M  V30 85 C 9.3245 -1.56176 -0.387029 0
M  V30 86 O 10.5165 -1.7575 -0.209996 0
M  V30 87 C 7.6455 -3.43146 -0.102707 0
M  V30 88 C 6.7315 -4.15213 0.863652 0
M  V30 89 N 7.1225 -4.63662 2.02117 0
M  V30 90 C 5.4205 -4.40716 0.684472 0
M  V30 91 C 6.1215 -5.18868 2.62966 0
M  V30 92 N 5.0975 -5.0893 1.91027 0
M  V30 93 H 8.8995 -2.56201 1.44008 0
M  V30 94 H 6.4135 -1.36366 0.881931 0
M  V30 95 H 8.4105 -4.14475 -0.449054 0
M  V30 96 H 7.0705 -3.09526 -0.981003 0
M  V30 97 H 8.0815 -4.58877 2.40109 0
M  V30 98 H 4.7585 -4.17245 -0.14577 0
M  V30 99 H 6.1485 -5.6673 3.60924 0
M  V30 100 N 8.8686 -0.792821 -1.36206 0
M  V30 101 C 9.7986 -0.207853 -2.32573 0
M  V30 102 C 10.7796 0.659055 -1.56813 0
M  V30 103 O 11.9646 0.592176 -1.84951 0
M  V30 104 C 9.0946 0.655449 -3.41059 0
M  V30 105 C 8.0486 -0.111842 -4.27854 0
M  V30 106 C 7.3746 0.872274 -5.27537 0
M  V30 107 C 8.6746 -1.30299 -5.05786 0
M  V30 108 H 10.3686 -1.01294 -2.81744 0
M  V30 109 H 7.9146 -0.48854 -1.3546 0
M  V30 110 H 9.8676 1.07464 -4.07467 0
M  V30 111 H 8.5916 1.49328 -2.90463 0
M  V30 112 H 7.2506 -0.512053 -3.63006 0
M  V30 113 H 6.8986 1.70523 -4.73214 0
M  V30 114 H 6.5986 0.363291 -5.86476 0
M  V30 115 H 8.1226 1.28996 -5.96818 0
M  V30 116 H 9.5366 -0.959379 -5.65216 0
M  V30 117 H 7.9336 -1.7455 -5.74154 0
M  V30 118 H 9.0036 -2.09663 -4.37229 0
M  V30 119 N 10.3467 1.47872 -0.545128 0
M  V30 120 C 11.5927 2.02793 -0.0166104 0
M  V30 121 C 11.9257 1.41987 1.32489 0
M  V30 122 O 11.2007 0.571045 1.85928 0
M  V30 123 C 11.4837 3.59989 0.0893294 0
M  V30 124 C 11.3367 4.3125 -1.27841 0
M  V30 125 C 12.6557 4.32606 0.808724 0
M  V30 126 H 9.7747 0.736962 -0.00751035 0
M  V30 127 H 12.4167 1.76433 -0.705085 0
M  V30 128 H 10.5667 3.82579 0.675681 0
M  V30 129 H 12.2387 4.20035 -1.90704 0
M  V30 130 H 10.4817 3.92076 -1.85632 0
M  V30 131 H 11.1527 5.39736 -1.15713 0
M  V30 132 H 13.6287 4.14936 0.310992 0
M  V30 133 H 12.5047 5.42251 0.851782 0
M  V30 134 H 12.7657 4.00963 1.86229 0
M  V30 135 N 11.8248 0.280983 1.55075 0
M  V30 136 C 12.7548 -0.597469 2.25727 0
M  V30 137 C 13.7358 -1.15417 1.24952 0
M  V30 138 O 14.9208 -1.18722 1.53684 0
M  V30 139 C 12.0508 -1.7789 2.98283 0
M  V30 140 C 11.0048 -1.35347 4.06036 0
M  V30 141 C 10.3308 -2.61846 4.66198 0
M  V30 142 C 11.6308 -0.499354 5.19907 0
M  V30 143 H 13.3248 -0.00824265 2.99399 0
M  V30 144 H 10.8708 -0.0025244 1.44 0
M  V30 145 H 12.8238 -2.39937 3.46422 0
M  V30 146 H 11.5478 -2.39405 2.22155 0
M  V30 147 H 10.2068 -0.756156 3.58717 0
M  V30 148 H 9.8548 -3.21632 3.86732 0
M  V30 149 H 9.5548 -2.3409 5.38958 0
M  V30 150 H 11.0788 -3.24732 5.1709 0
M  V30 151 H 12.4928 -1.02498 5.64063 0
M  V30 152 H 10.8898 -0.316424 5.99265 0
M  V30 153 H 11.9598 0.480459 4.82514 0
M  V30 154 N 13.3029 -1.57598 0.00835791 0
M  V30 155 C 14.2329 -2.1198 -0.979113 0
M  V30 156 C 15.2139 -1.03091 -1.35301 0
M  V30 157 O 16.3989 -1.30818 -1.43528 0
M  V30 158 C 13.5289 -2.62995 -2.26828 0
M  V30 159 C 12.4829 -3.76485 -2.03576 0
M  V30 160 C 11.8089 -4.13846 -3.38579 0
M  V30 161 C 13.1089 -5.0342 -1.39161 0
M  V30 162 H 14.8029 -2.94738 -0.526281 0
M  V30 163 H 12.3489 -1.41783 -0.251704 0
M  V30 164 H 14.3019 -2.99669 -2.96271 0
M  V30 165 H 13.0259 -1.7737 -2.7424 0
M  V30 166 H 11.6849 -3.40217 -1.36557 0
M  V30 167 H 11.3329 -3.25232 -3.83709 0
M  V30 168 H 11.0329 -4.90312 -3.23834 0
M  V30 169 H 12.5569 -4.53086 -4.09323 0
M  V30 170 H 13.9709 -5.37812 -1.98573 0
M  V30 171 H 12.3679 -5.84746 -1.34878 0
M  V30 172 H 13.4379 -4.83548 -0.361868 0
M  V30 173 N 14.781 0.264519 -1.55364 0
M  V30 174 C 16.006 1.01726 -1.80739 0
M  V30 175 C 16.431 1.78836 -0.583044 0
M  V30 176 O 15.789 1.75167 0.467566 0
M  V30 177 C 15.837 1.94482 -3.03659 0
M  V30 178 O 14.941 3.03386 -2.7934 0
M  V30 179 H 14.282 0.290395 -0.597132 0
M  V30 180 H 16.812 0.290854 -2.02522 0
M  V30 181 H 16.822 2.36278 -3.32621 0
M  V30 182 H 15.497 1.37772 -3.92418 0
M  V30 183 H 14.074 2.65844 -2.61498 0
M  V30 184 N 16.2591 1.48442 0.529413 0
M  V30 185 C 17.2221 1.62524 1.61612 0
M  V30 186 C 18.2221 0.498509 1.52877 0
M  V30 187 O 19.4121 0.76431 1.56537 0
M  V30 188 C 16.5441 1.59597 3.01233 0
M  V30 189 H 17.7371 2.59423 1.50465 0
M  V30 190 H 15.2901 1.37047 0.751514 0
M  V30 191 H 16.0251 0.641781 3.17886 0
M  V30 192 H 15.8101 2.41397 3.08982 0
M  V30 193 H 17.3001 1.72646 3.80241 0
M  V30 194 N 17.7372 -0.778329 1.37039 0
M  V30 195 C 18.9622 -1.57248 1.35233 0
M  V30 196 C 19.3872 -1.87999 -0.0615568 0
M  V30 197 O 18.7452 -1.48734 -1.03672 0
M  V30 198 C 18.7932 -2.86353 2.19167 0
M  V30 199 O 17.8972 -3.80442 1.59178 0
M  V30 200 H 17.2382 -0.476569 0.462362 0
M  V30 201 H 19.7682 -0.963853 1.80474 0
M  V30 202 H 19.7782 -3.35519 2.32145 0
M  V30 203 H 18.4532 -2.63299 3.21942 0
M  V30 204 H 17.0302 -3.39067 1.55203 0
M  V30 205 N 19.2153 -1.21501 -1.00376 0
M  V30 206 C 20.1453 -0.999478 -2.11028 0
M  V30 207 C 21.1263 0.0759671 -1.6993 0
M  V30 208 O 22.3113 -0.0841106 -1.94018 0
M  V30 209 C 19.4413 -0.564709 -3.42678 0
M  V30 210 C 18.3953 -1.58486 -3.97576 0
M  V30 211 C 17.7213 -1.00628 -5.25146 0
M  V30 212 C 19.0213 -2.97204 -4.29496 0
M  V30 213 H 20.7153 -1.92495 -2.29317 0
M  V30 214 H 18.2613 -0.92693 -1.102 0
M  V30 215 H 20.2143 -0.401091 -4.19487 0
M  V30 216 H 18.9383 0.396411 -3.24185 0
M  V30 217 H 17.5973 -1.73606 -3.22888 0
M  V30 218 H 17.2453 -0.0368439 -5.02987 0
M  V30 219 H 16.9453 -1.68771 -5.62841 0
M  V30 220 H 18.4693 -0.854015 -6.04598 0
M  V30 221 H 19.8833 -2.8552 -4.97143 0
M  V30 222 H 18.2803 -3.62372 -4.78338 0
M  V30 223 H 19.3503 -3.47956 -3.3772 0
M  V30 224 N 20.6934 1.19889 -1.02296 0
M  V30 225 C 21.6564 2.21116 -0.603351 0
M  V30 226 C 22.6564 1.5738 0.329884 0
M  V30 227 O 23.8464 1.73802 0.117702 0
M  V30 228 C 20.9784 3.40696 0.117992 0
M  V30 229 H 22.1714 2.59754 -1.49893 0
M  V30 230 H 19.7244 1.33463 -0.813468 0
M  V30 231 H 20.4594 3.07569 1.0282 0
M  V30 232 H 20.2444 3.88188 -0.552511 0
M  V30 233 H 21.7344 4.15692 0.398696 0
M  V30 234 N 22.1715 0.800033 1.35784 0
M  V30 235 C 23.4195 0.376597 1.9856 0
M  V30 236 C 23.7405 -1.05812 1.63795 0
M  V30 237 O 23.0105 -1.73103 0.917171 0
M  V30 238 H 21.5905 0.136261 0.734467 0
M  V30 239 H 24.2525 1.02442 1.65806 0
M  V30 240 H 23.3485 0.477002 3.08433 0
M  V30 241 N 23.6496 -1.47581 0.552962 0
M  V30 242 C 24.5796 -2.32762 -0.185451 0
M  V30 243 C 25.5606 -1.43527 -0.912905 0
M  V30 244 O 26.7456 -1.72388 -0.894201 0
M  V30 245 C 23.8756 -3.25219 -1.21859 0
M  V30 246 C 22.8296 -4.23661 -0.607864 0
M  V30 247 C 22.1556 -5.05413 -1.74533 0
M  V30 248 C 23.4556 -5.20481 0.435582 0
M  V30 249 H 25.1496 -2.94749 0.525684 0
M  V30 250 H 22.6956 -1.41738 0.254251 0
M  V30 251 H 24.6486 -3.8365 -1.7433 0
M  V30 252 H 23.3726 -2.61279 -1.95961 0
M  V30 253 H 22.0316 -3.66451 -0.104489 0
M  V30 254 H 21.6796 -4.3788 -2.47529 0
M  V30 255 H 21.3796 -5.72059 -1.34249 0
M  V30 256 H 22.9036 -5.66701 -2.27338 0
M  V30 257 H 24.3176 -5.733 -0.00290157 0
M  V30 258 H 22.7146 -5.95305 0.757067 0
M  V30 259 H 23.7846 -4.66217 1.33303 0
M  V30 260 N 25.1277 -0.289203 -1.54924 0
M  V30 261 C 26.0577 0.58549 -2.2604 0
M  V30 262 C 27.0387 1.14753 -1.25562 0
M  V30 263 O 28.2237 1.17906 -1.54311 0
M  V30 264 C 25.3537 1.76305 -2.99222 0
M  V30 265 C 24.3077 1.33191 -4.06748 0
M  V30 266 C 23.6337 2.5937 -4.6758 0
M  V30 267 C 24.9337 0.471775 -5.20165 0
M  V30 268 H 26.6277 -0.00763532 -2.99399 0
M  V30 269 H 24.1737 -0.00511229 -1.43999 0
M  V30 270 H 26.1267 2.38097 -3.47689 0
M  V30 271 H 24.8507 2.38223 -2.23422 0
M  V30 272 H 23.5097 0.737121 -3.59113 0
M  V30 273 H 23.1577 3.19576 -3.88433 0
M  V30 274 H 22.8577 2.31228 -5.40192 0
M  V30 275 H 24.3817 3.21985 -5.18804 0
M  V30 276 H 25.7957 0.995056 -5.64599 0
M  V30 277 H 24.1927 0.284639 -5.99425 0
M  V30 278 H 25.2627 -0.506041 -4.82252 0
M  V30 279 N 26.6058 1.57591 -0.0167156 0
M  V30 280 C 27.5358 2.12496 0.967858 0
M  V30 281 C 28.5168 1.03807 1.34752 0
M  V30 282 O 29.7018 1.31577 1.42833 0
M  V30 283 C 26.8318 2.64194 2.25431 0
M  V30 284 C 25.7858 3.77559 2.01576 0
M  V30 285 C 25.1118 4.15636 3.36379 0
M  V30 286 C 26.4118 5.04151 1.36489 0
M  V30 287 H 28.1058 2.95013 0.510643 0
M  V30 288 H 25.6518 1.41915 0.244181 0
M  V30 289 H 27.6048 3.01236 2.94678 0
M  V30 290 H 26.3288 1.78821 2.73296 0
M  V30 291 H 24.9878 3.40937 1.34751 0
M  V30 292 H 24.6358 3.27263 3.81979 0
M  V30 293 H 24.3358 4.92022 3.21229 0
M  V30 294 H 25.8598 4.5525 4.06915 0
M  V30 295 H 27.2738 5.38857 1.95718 0
M  V30 296 H 25.6708 5.85453 1.31776 0
M  V30 297 H 26.7408 4.83733 0.336219 0
M  V30 298 N 28.0839 -0.256276 1.55502 0
M  V30 299 C 29.0139 -1.32102 1.92539 0
M  V30 300 C 29.9949 -1.50684 0.789194 0
M  V30 301 O 31.1799 -1.63449 1.04872 0
M  V30 302 C 28.3099 -2.67752 2.21192 0
M  V30 303 C 27.2639 -2.63878 3.36975 0
M  V30 304 C 26.5899 -4.03236 3.51147 0
M  V30 305 C 27.8899 -2.21682 4.72921 0
M  V30 306 H 29.5839 -1.01351 2.81724 0
M  V30 307 H 27.1299 -0.486105 1.35547 0
M  V30 308 H 29.0829 -3.42365 2.45691 0
M  V30 309 H 27.8069 -3.0012 1.28824 0
M  V30 310 H 26.4659 -1.91722 3.12471 0
M  V30 311 H 26.1139 -4.32854 2.56216 0
M  V30 312 H 25.8139 -4.01535 4.29003 0
M  V30 313 H 27.3379 -4.79563 3.77957 0
M  V30 314 H 28.7519 -2.86023 4.96854 0
M  V30 315 H 27.1489 -2.3111 5.53812 0
M  V30 316 H 28.2189 -1.16833 4.70615 0
M  V30 317 N 29.562 -1.4872 -0.521534 0
M  V30 318 C 30.81 -1.56857 -1.27437 0
M  V30 319 C 31.131 -0.247982 -1.93417 0
M  V30 320 O 30.401 0.731151 -1.81744 0
M  V30 321 H 28.981 -0.577885 -0.473347 0
M  V30 322 H 31.643 -1.85233 -0.606205 0
M  V30 323 H 30.739 -2.35402 -2.0492 0
M  V30 324 N 31.0401 0.771051 -1.3745 0
M  V30 325 C 31.9501 1.91538 -1.35464 0
M  V30 326 C 32.9661 1.72134 -0.254123 0
M  V30 327 O 34.1421 1.95358 -0.489626 0
M  V30 328 C 31.2071 3.26671 -1.16134 0
M  V30 329 C 30.2681 3.58723 -2.35831 0
M  V30 330 C 29.5011 4.87409 -2.17413 0
M  V30 331 O 29.7241 5.58506 -1.15876 0
M  V30 332 O 28.6581 5.18539 -3.05615 0
M  V30 333 H 32.4841 1.96165 -2.31847 0
M  V30 334 H 30.0691 0.9139 -1.18187 0
M  V30 335 H 31.9511 4.07499 -1.07345 0
M  V30 336 H 30.6261 3.22894 -0.228251 0
M  V30 337 H 29.5331 2.78127 -2.50192 0
M  V30 338 H 30.8661 3.67243 -3.27709 0
M  V30 339 N 32.5182 1.22032 0.997298 0
M  V30 340 C 33.7432 1.06921 1.77715 0
M  V30 341 C 34.1682 -0.376226 1.84299 0
M  V30 342 O 33.5262 -1.27165 1.29223 0
M  V30 343 C 33.5742 1.67996 3.19076 0
M  V30 344 O 32.6782 0.930653 4.01762 0
M  V30 345 H 32.0192 0.375814 0.547412 0
M  V30 346 H 34.5492 1.61737 1.25309 0
M  V30 347 H 34.5592 1.72538 3.69723 0
M  V30 348 H 33.2342 2.73182 3.13599 0
M  V30 349 H 31.8112 0.960917 3.60307 0
M  V30 350 N 33.9963 -1.19345 1.0293 0
M  V30 351 C 34.9263 -2.2481 0.631105 0
M  V30 352 C 35.9073 -1.66245 -0.360104 0
M  V30 353 O 37.0923 -1.92677 -0.242726 0
M  V30 354 C 34.2223 -3.47295 -0.0184607 0
M  V30 355 C 33.1763 -4.18536 0.895073 0
M  V30 356 C 32.5023 -5.34586 0.110592 0
M  V30 357 C 33.8023 -4.73287 2.209 0
M  V30 358 H 35.4963 -2.58372 1.51275 0
M  V30 359 H 33.0423 -1.24194 0.728818 0
M  V30 360 H 34.9953 -4.20268 -0.308675 0
M  V30 361 H 33.7193 -3.12933 -0.934907 0
M  V30 362 H 32.3783 -3.47446 1.16949 0
M  V30 363 H 32.0263 -4.96469 -0.807902 0
M  V30 364 H 31.7263 -5.83183 0.719087 0
M  V30 365 H 33.2503 -6.10355 -0.172871 0
M  V30 366 H 34.6643 -5.38013 1.98028 0
M  V30 367 H 33.0613 -5.32373 2.76946 0
M  V30 368 H 34.1313 -3.91331 2.86336 0
M  V30 369 N 35.4744 -0.807222 -1.35358 0
M  V30 370 C 36.7214 -0.387888 -1.9875 0
M  V30 371 C 37.0494 1.04509 -1.64037 0
M  V30 372 O 36.3044 1.73986 -0.895946 0
M  V30 373 C 36.6034 -0.519036 -3.53611 0
M  V30 374 C 36.2694 -1.91542 -4.08194 0
M  V30 375 C 34.9314 -2.29745 -4.22813 0
M  V30 376 C 37.2834 -2.82896 -4.37744 0
M  V30 377 C 34.6114 -3.58668 -4.643 0
M  V30 378 C 36.9634 -4.11265 -4.8067 0
M  V30 379 C 35.6274 -4.49466 -4.93494 0
M  V30 380 H 34.8974 -0.141938 -0.727279 0
M  V30 381 H 37.5444 -1.02814 -1.6156 0
M  V30 382 H 35.8494 0.204658 -3.91265 0
M  V30 383 H 37.5464 -0.175345 -4.00616 0
M  V30 384 H 34.1364 -1.60862 -3.97268 0
M  V30 385 H 38.3204 -2.54629 -4.26002 0
M  V30 386 H 33.5764 -3.88113 -4.72418 0
M  V30 387 H 37.7504 -4.82153 -5.02496 0
M  V30 388 H 35.3774 -5.49418 -5.25399 0
M  V30 389 N 36.9525 1.47285 -0.560781 0
M  V30 390 C 38.2015 2.01668 -0.035895 0
M  V30 391 C 38.5145 1.44021 1.32353 0
M  V30 392 O 39.7205 1.90088 1.93853 0
M  V30 393 C 38.1765 3.59897 -0.0136659 0
M  V30 394 C 37.7845 4.26536 -1.37006 0
M  V30 395 C 39.5285 4.22017 0.458425 0
M  V30 396 C 37.4355 5.76782 -1.30675 0
M  V30 397 H 36.3655 0.753938 -0.00964879 0
M  V30 398 H 39.0165 1.69243 -0.709166 0
M  V30 399 H 37.3985 3.89301 0.725325 0
M  V30 400 H 38.5725 4.0877 -2.12705 0
M  V30 401 H 36.8875 3.76419 -1.78038 0
M  V30 402 H 39.4845 5.32124 0.524247 0
M  V30 403 H 39.8275 3.89437 1.4712 0
M  V30 404 H 40.3605 3.97159 -0.225818 0
M  V30 405 H 37.0995 6.13988 -2.29564 0
M  V30 406 H 36.6195 5.96875 -0.591622 0
M  V30 407 H 38.2985 6.39063 -1.01033 0
M  V30 408 N 38.4306 0.297415 1.54768 0
M  V30 409 C 39.8466 -0.0560823 1.59501 0
M  V30 410 C 40.0466 -1.52725 1.31444 0
M  V30 411 O 39.1026 -2.27947 1.08611 0
M  V30 412 C 40.4156 0.338631 2.98787 0
M  V30 413 C 41.9636 0.287097 3.11681 0
M  V30 414 C 42.4386 0.656579 4.53269 0
M  V30 415 N 43.9296 0.608977 4.59179 0
M  V30 416 C 44.6646 0.867385 5.66802 0
M  V30 417 N 44.1606 1.19157 6.82476 0
M  V30 418 N 45.9536 0.794687 5.56454 0
M  V30 419 H 38.1046 1.25624 1.71267 0
M  V30 420 H 40.3676 0.509057 0.799728 0
M  V30 421 H 40.0736 1.36263 3.2423 0
M  V30 422 H 39.9476 -0.309508 3.75928 0
M  V30 423 H 42.3346 -0.727649 2.85988 0
M  V30 424 H 42.4156 0.969809 2.36703 0
M  V30 425 H 42.0596 1.66912 4.7969 0
M  V30 426 H 41.9896 -0.0481649 5.26578 0
M  V30 427 H 44.4806 0.369198 3.76092 0
M  V30 428 H 44.7936 1.37482 7.60473 0
M  V30 429 H 43.1386 1.22958 6.84037 0
M  V30 430 H 46.3296 0.541098 4.64962 0
M  V30 431 H 46.5026 0.999445 6.40246 0
M  V30 432 N 39.9087 -1.5758 0.0250728 0
M  V30 433 C 41.3247 -1.56124 -0.331282 0
M  V30 434 C 41.5247 -1.03029 -1.73169 0
M  V30 435 O 40.5807 -0.675215 -2.43305 0
M  V30 436 C 41.8937 -3.00139 -0.183584 0
M  V30 437 C 43.4417 -3.11946 -0.256654 0
M  V30 438 C 43.9167 -4.57793 -0.137792 0
M  V30 439 N 45.4077 -4.6279 -0.194904 0
M  V30 440 C 46.1427 -5.7326 -0.126655 0
M  V30 441 N 45.6387 -6.928 -0.00755288 0
M  V30 442 N 47.4317 -5.61811 -0.180348 0
M  V30 443 H 39.5827 -1.90424 0.94087 0
M  V30 444 H 41.8457 -0.875761 0.362968 0
M  V30 445 H 41.5517 -3.4292 0.780927 0
M  V30 446 H 41.4257 -3.64899 -0.955448 0
M  V30 447 H 43.8127 -2.69079 -1.21162 0
M  V30 448 H 43.8937 -2.49915 0.545517 0
M  V30 449 H 43.5377 -5.01339 0.813739 0
M  V30 450 H 43.4677 -5.17798 -0.958775 0
M  V30 451 H 45.9587 -3.76807 -0.287267 0
M  V30 452 H 46.2717 -7.72791 0.0379428 0
M  V30 453 H 44.6167 -6.94995 0.0271731 0
M  V30 454 H 47.8077 -4.6731 -0.271767 0
M  V30 455 H 47.9807 -6.47882 -0.123697 0
M  V30 456 N 41.3868 0.248026 -1.55636 0
M  V30 457 C 42.2968 1.32859 -1.93354 0
M  V30 458 C 43.3128 1.52719 -0.833838 0
M  V30 459 O 44.4888 1.66363 -1.13513 0
M  V30 460 C 41.5538 2.66337 -2.21958 0
M  V30 461 C 40.6148 2.55008 -3.45354 0
M  V30 462 C 39.8478 3.82121 -3.72584 0
M  V30 463 O 40.0708 4.83951 -3.01907 0
M  V30 464 O 39.0048 3.80822 -4.6611 0
M  V30 465 H 42.8308 1.03862 -2.85388 0
M  V30 466 H 40.4158 0.448686 -1.42503 0
M  V30 467 H 42.2978 3.45216 -2.4167 0
M  V30 468 H 40.9728 2.95068 -1.33103 0
M  V30 469 H 39.8798 1.7442 -3.30951 0
M  V30 470 H 41.2128 2.31222 -4.34508 0
M  V30 471 N 42.8649 1.48995 0.513639 0
M  V30 472 C 43.7969 1.60836 1.63293 0
M  V30 473 C 44.8099 0.491701 1.55197 0
M  V30 474 O 45.9989 0.763238 1.6136 0
M  V30 475 C 43.0989 1.53731 3.02027 0
M  V30 476 C 42.2719 2.80715 3.35437 0
M  V30 477 C 41.3309 2.66837 4.53525 0
M  V30 478 O 40.3569 3.40753 4.55934 0
M  V30 479 N 41.5589 1.77539 5.52684 0
M  V30 480 H 44.3239 2.57366 1.53566 0
M  V30 481 H 41.8849 1.45925 0.701259 0
M  V30 482 H 43.8769 1.42118 3.78926 0
M  V30 483 H 42.4469 0.651092 3.05744 0
M  V30 484 H 41.6669 3.06772 2.47557 0
M  V30 485 H 42.9549 3.64927 3.54551 0
M  V30 486 H 42.3529 1.16719 5.53528 0
M  V30 487 H 40.9099 1.71856 6.28736 0
M  V30 488 N 44.343 -0.763751 1.37857 0
M  V30 489 C 45.306 -1.85889 1.34081 0
M  V30 490 C 46.306 -1.58949 0.243277 0
M  V30 491 O 47.496 -1.66882 0.499589 0
M  V30 492 C 44.628 -3.23176 1.08489 0
M  V30 493 H 45.821 -1.90648 2.31502 0
M  V30 494 H 43.374 -0.964367 1.23003 0
M  V30 495 H 44.109 -3.24091 0.116318 0
M  V30 496 H 43.894 -3.44124 1.8794 0
M  V30 497 H 45.384 -4.03254 1.08517 0
M  V30 498 N 45.8211 -1.22559 -0.990812 0
M  V30 499 C 46.7691 -0.994798 -2.10253 0
M  V30 500 C 47.7631 0.0627798 -1.69284 0
M  V30 501 O 48.9691 -0.0898392 -1.79776 0
M  V30 502 H 45.3441 -0.304527 -0.687581 0
M  V30 503 H 47.3151 -1.93812 -2.26891 0
M  V30 504 C 46.0641 -0.591439 -3.42633 0
M  V30 505 H 45.3871 -1.3969 -3.74602 0
M  V30 506 H 46.8271 -0.469385 -4.21394 0
M  V30 507 C 45.2861 0.699232 -3.29564 0
M  V30 508 O 45.8161 1.75112 -3.61523 0
M  V30 509 N 44.0221 0.671182 -2.82743 0
M  V30 510 H 43.5691 -0.185136 -2.56934 0
M  V30 511 H 43.5271 1.53502 -2.7438 0
M  V30 512 N 47.2992 1.18797 -1.03562 0
M  V30 513 C 48.2472 2.24297 -0.615905 0
M  V30 514 C 49.2412 1.65643 0.354808 0
M  V30 515 O 50.4472 1.78618 0.22265 0
M  V30 516 H 46.8222 0.729909 -0.180934 0
M  V30 517 H 48.7932 2.5701 -1.5162 0
M  V30 518 C 47.5422 3.47698 0.0104735 0
M  V30 519 H 46.8652 3.93125 -0.727509 0
M  V30 520 H 48.3052 4.23159 0.266995 0
M  V30 521 C 46.7642 3.12489 1.25905 0
M  V30 522 O 47.2942 3.25761 2.35038 0
M  V30 523 N 45.5002 2.6686 1.15039 0
M  V30 524 H 45.0472 2.56261 0.262328 0
M  V30 525 H 45.0052 2.43674 1.98672 0
M  V30 526 N 48.7773 0.814389 1.34928 0
M  V30 527 C 50.0263 0.394871 1.97797 0
M  V30 528 C 50.3393 -1.04555 1.65311 0
M  V30 529 O 51.5453 -1.56856 2.21604 0
M  V30 530 C 50.0013 0.655103 3.53888 0
M  V30 531 C 49.6093 2.10858 3.95276 0
M  V30 532 C 51.3533 0.301329 4.23429 0
M  V30 533 C 49.2603 2.31415 5.44244 0
M  V30 534 H 48.1903 0.143913 0.740139 0
M  V30 535 H 50.8413 0.999544 1.53888 0
M  V30 536 H 49.2233 -0.0196253 3.95995 0
M  V30 537 H 50.3973 2.82176 3.64298 0
M  V30 538 H 48.7123 2.42297 3.38646 0
M  V30 539 H 51.3093 0.432869 5.32945 0
M  V30 540 H 51.6523 -0.75331 4.09428 0
M  V30 541 H 52.1853 0.930288 3.86769 0
M  V30 542 H 48.9243 3.35353 5.63222 0
M  V30 543 H 48.4443 1.6463 5.76764 0
M  V30 544 H 50.1233 2.13352 6.10811 0
M  V30 545 N 50.2554 -1.46986 0.568584 0
M  V30 546 C 51.1854 -2.32946 -0.160753 0
M  V30 547 C 52.1664 -1.44487 -0.897631 0
M  V30 548 O 53.3514 -1.73327 -0.875867 0
M  V30 549 C 50.4814 -3.26494 -1.18403 0
M  V30 550 C 49.4354 -4.24282 -0.562895 0
M  V30 551 C 48.7614 -5.07236 -1.69163 0
M  V30 552 C 50.0614 -5.19989 0.490761 0
M  V30 553 H 51.7554 -2.94175 0.556916 0
M  V30 554 H 49.3014 -1.4146 0.26927 0
M  V30 555 H 51.2544 -3.85477 -1.70251 0
M  V30 556 H 49.9784 -2.63343 -1.93179 0
M  V30 557 H 48.6374 -3.66541 -0.0656164 0
M  V30 558 H 48.2854 -4.4048 -2.42871 0
M  V30 559 H 47.9854 -5.7345 -1.28174 0
M  V30 560 H 49.5094 -5.6908 -2.21314 0
M  V30 561 H 50.9234 -5.73271 0.0579047 0
M  V30 562 H 49.3204 -5.94469 0.820165 0
M  V30 563 H 50.3904 -4.64777 1.3824 0
M  V30 564 N 51.7335 -0.305618 -1.54608 0
M  V30 565 C 52.6965 0.555591 -2.22364 0
M  V30 566 C 53.6965 1.05768 -1.21119 0
M  V30 567 O 54.8865 0.952972 -1.45822 0
M  V30 568 C 52.0185 1.76974 -2.91364 0
M  V30 569 H 53.2115 -0.0364572 -2.99878 0
M  V30 570 H 50.7645 -0.0565007 -1.56198 0
M  V30 571 H 51.4995 2.40151 -2.17941 0
M  V30 572 H 51.2845 1.41732 -3.65588 0
M  V30 573 H 52.7745 2.38148 -3.43038 0
M  V30 574 N 53.2116 1.57565 -0.0334293 0
M  V30 575 C 54.6276 1.56297 0.322997 0
M  V30 576 C 54.8276 1.03945 1.7262 0
M  V30 577 O 53.8836 0.688109 2.42943 0
M  V30 578 C 55.1966 3.00232 0.167664 0
M  V30 579 C 56.7446 3.12078 0.240107 0
M  V30 580 C 57.2196 4.57859 0.113513 0
M  V30 581 N 58.7106 4.62887 0.170359 0
M  V30 582 C 59.4456 5.73319 0.0962517 0
M  V30 583 N 58.9416 6.92794 -0.0291881 0
M  V30 584 N 60.7346 5.61898 0.150551 0
M  V30 585 H 52.8856 1.89923 -0.950956 0
M  V30 586 H 55.1486 0.873824 -0.367608 0
M  V30 587 H 54.8546 3.42501 -0.799102 0
M  V30 588 H 54.7286 3.654 0.936083 0
M  V30 589 H 57.1156 2.69718 1.19733 0
M  V30 590 H 57.1966 2.49623 -0.558763 0
M  V30 591 H 56.8406 5.009 -0.840314 0
M  V30 592 H 56.7706 5.18299 0.931302 0
M  V30 593 H 59.2616 3.76954 0.26728 0
M  V30 594 H 59.5746 7.7276 -0.0789252 0
M  V30 595 H 57.9196 6.94971 -0.0640299 0
M  V30 596 H 61.1106 4.67448 0.246981 0
M  V30 597 H 61.2836 6.47938 0.0893365 0
M  V30 598 N 54.6897 -0.239769 1.55765 0
M  V30 599 C 55.9357 -0.968234 1.78194 0
M  V30 600 C 56.2687 -1.84701 0.599938 0
M  V30 601 O 55.5437 -1.9031 -0.401524 0
M  V30 602 C 55.8267 -1.8227 3.10564 0
M  V30 603 C 55.6797 -0.971633 4.3918 0
M  V30 604 C 56.9987 -2.80388 3.39221 0
M  V30 605 H 54.1177 -0.350572 0.648281 0
M  V30 606 H 56.7597 -0.238259 1.885 0
M  V30 607 H 54.9097 -2.44507 3.01908 0
M  V30 608 H 56.5817 -0.367408 4.59835 0
M  V30 609 H 54.8247 -0.276276 4.32919 0
M  V30 610 H 55.4957 -1.60346 5.28198 0
M  V30 611 H 57.9717 -2.28287 3.47885 0
M  V30 612 H 56.8477 -3.3729 4.33044 0
M  V30 613 H 57.1087 -3.57212 2.60484 0
M  V30 614 N 56.1678 -1.49265 -0.50573 0
M  V30 615 C 57.3958 -1.62215 -1.28429 0
M  V30 616 C 57.8108 -0.291697 -1.86533 0
M  V30 617 O 57.1678 0.722233 -1.67601 0
M  V30 618 C 57.2188 -2.68735 -2.41793 0
M  V30 619 O 56.9398 -3.96619 -1.86078 0
M  V30 620 C 58.4408 -2.92346 -3.3324 0
M  V30 621 H 55.6608 -0.546239 -0.389697 0
M  V30 622 H 58.2048 -1.95265 -0.607609 0
M  V30 623 H 56.3598 -2.38476 -3.053 0
M  V30 624 H 56.7738 -4.55256 -2.60465 0
M  V30 625 H 58.2478 -3.70623 -4.09075 0
M  V30 626 H 58.7248 -2.02081 -3.89948 0
M  V30 627 H 59.3308 -3.24003 -2.75503 0
M  V30 628 N 57.6459 0.756429 -1.3826 0
M  V30 629 C 59.0619 1.0591 -1.19395 0
M  V30 630 C 59.2619 2.01459 -0.0406567 0
M  V30 631 O 58.3179 2.44909 0.614467 0
M  V30 632 C 59.6309 1.64191 -2.51916 0
M  V30 633 C 61.1789 1.76376 -2.58574 0
M  V30 634 C 61.6539 2.38069 -3.91264 0
M  V30 635 N 63.1449 2.45503 -3.92788 0
M  V30 636 C 63.8799 2.94126 -4.92217 0
M  V30 637 N 63.3759 3.42805 -6.02043 0
M  V30 638 N 65.1689 2.9314 -4.7961 0
M  V30 639 H 57.3199 0.122313 -2.12048 0
M  V30 640 H 59.5829 0.116892 -0.940766 0
M  V30 641 H 59.2889 1.01451 -3.3675 0
M  V30 642 H 59.1629 2.6329 -2.70108 0
M  V30 643 H 61.5499 2.38244 -1.74137 0
M  V30 644 H 61.6309 0.759894 -2.44252 0
M  V30 645 H 61.2749 1.76835 -4.76121 0
M  V30 646 H 61.2049 3.39091 -4.02895 0
M  V30 647 H 63.6959 2.1107 -3.13461 0
M  V30 648 H 64.0089 3.78354 -6.73846 0
M  V30 649 H 62.3539 3.4087 -6.05667 0
M  V30 650 H 65.5449 2.54419 -3.92923 0
M  V30 651 H 65.7179 3.30721 -5.5725 0
M  V30 652 N 59.124 1.23083 0.984299 0
M  V30 653 C 60.087 1.00979 2.05757 0
M  V30 654 C 61.087 -0.0269573 1.60777 0
M  V30 655 O 62.277 0.212403 1.729 0
M  V30 656 C 59.409 0.527072 3.36801 0
M  V30 657 H 60.602 1.9622 2.26799 0
M  V30 658 H 58.155 1.05072 1.15714 0
M  V30 659 H 58.89 -0.429294 3.21446 0
M  V30 660 H 58.675 1.27515 3.70786 0
M  V30 661 H 60.165 0.392942 4.15747 0
M  V30 662 N 60.6021 -1.18246 1.0419 0
M  V30 663 C 61.5501 -2.23968 0.627792 0
M  V30 664 C 62.5441 -1.65828 -0.346019 0
M  V30 665 O 63.7501 -1.78733 -0.213175 0
M  V30 666 H 60.1251 -0.728939 0.184802 0
M  V30 667 H 62.0961 -2.56202 1.52981 0
M  V30 668 C 60.8451 -3.47699 0.00796591 0
M  V30 669 H 60.1681 -3.92734 0.748347 0
M  V30 670 H 61.6081 -4.23294 -0.24455 0
M  V30 671 C 60.0671 -3.13153 -1.24246 0
M  V30 672 O 60.5971 -3.27003 -2.33307 0
M  V30 673 N 58.8031 -2.67467 -1.13622 0
M  V30 674 H 58.3501 -2.56396 -0.248734 0
M  V30 675 H 58.3081 -2.44724 -1.97377 0
M  V30 676 N 62.0802 -0.821533 -1.34494 0
M  V30 677 C 63.3052 -0.420873 -2.03085 0
M  V30 678 C 63.7302 0.964915 -1.61465 0
M  V30 679 O 63.0882 1.62763 -0.798607 0
M  V30 680 C 63.1362 -0.529414 -3.56693 0
M  V30 681 O 62.2402 0.451302 -4.09923 0
M  V30 682 H 61.5812 -0.173489 -0.640935 0
M  V30 683 H 64.1112 -1.11157 -1.71771 0
M  V30 684 H 64.1212 -0.404671 -4.05988 0
M  V30 685 H 62.7962 -1.54014 -3.86332 0
M  V30 686 H 61.3732 0.285558 -3.71805 0
M  V30 687 N 63.5583 1.46682 -0.576371 0
M  V30 688 C 64.8053 2.02412 -0.0595339 0
M  V30 689 C 65.1333 1.44859 1.29793 0
M  V30 690 O 64.3883 0.601099 1.8624 0
M  V30 691 C 64.6873 3.57345 0.062886 0
M  V30 692 C 64.3533 4.33908 -1.22616 0
M  V30 693 C 63.0153 4.54544 -1.57933 0
M  V30 694 C 65.3673 4.77919 -2.07948 0
M  V30 695 C 62.6953 5.16444 -2.78393 0
M  V30 696 C 65.0473 5.41149 -3.27629 0
M  V30 697 C 63.7113 5.60014 -3.63236 0
M  V30 698 H 62.9813 0.74068 -0.021785 0
M  V30 699 H 65.6283 1.76128 -0.751735 0
M  V30 700 H 63.9333 3.82729 0.838178 0
M  V30 701 H 65.6303 3.98136 0.478439 0
M  V30 702 H 62.2203 4.18138 -0.941202 0
M  V30 703 H 66.4043 4.61738 -1.81967 0
M  V30 704 H 61.6603 5.29242 -3.06126 0
M  V30 705 H 65.8343 5.74211 -3.94023 0
M  V30 706 H 63.4613 6.07748 -4.56669 0
M  V30 707 N 65.0364 0.313813 1.54444 0
M  V30 708 C 65.9664 -0.549454 2.26943 0
M  V30 709 C 66.9474 -1.12741 1.27372 0
M  V30 710 O 68.1324 -1.15436 1.56167 0
M  V30 711 C 65.2624 -1.71523 3.01989 0
M  V30 712 C 64.2164 -1.26703 4.08816 0
M  V30 713 C 63.5424 -2.51898 4.71647 0
M  V30 714 C 64.8424 -0.388962 5.2085 0
M  V30 715 H 66.5364 0.0552661 2.99349 0
M  V30 716 H 64.0824 0.0280207 1.43973 0
M  V30 717 H 66.0354 -2.32535 3.51433 0
M  V30 718 H 64.7594 -2.34639 2.27183 0
M  V30 719 H 63.4184 -0.679896 3.6024 0
M  V30 720 H 63.0664 -3.13356 3.93468 0
M  V30 721 H 62.7664 -2.22605 5.43802 0
M  V30 722 H 64.2904 -3.1369 5.23861 0
M  V30 723 H 65.7044 -0.905107 5.6611 0
M  V30 724 H 64.1014 -0.18924 5.99802 0
M  V30 725 H 65.1714 0.582699 4.81386 0
M  V30 726 N 66.5145 -1.57545 0.0417849 0
M  V30 727 C 67.4245 -2.14451 -0.951213 0
M  V30 728 C 68.4405 -1.09992 -1.34825 0
M  V30 729 O 69.6165 -1.42114 -1.42708 0
M  V30 730 C 66.6815 -2.67063 -2.21084 0
M  V30 731 C 65.7425 -3.86284 -1.87304 0
M  V30 732 C 64.9755 -4.36378 -3.07261 0
M  V30 733 O 65.1985 -3.85587 -4.20332 0
M  V30 734 O 64.1325 -5.28077 -2.88822 0
M  V30 735 H 67.9585 -2.99601 -0.497287 0
M  V30 736 H 65.5435 -1.48317 -0.179567 0
M  V30 737 H 67.4255 -3.00914 -2.95006 0
M  V30 738 H 66.1005 -1.84989 -2.65633 0
M  V30 739 H 65.0075 -3.57338 -1.10727 0
M  V30 740 H 66.3405 -4.6956 -1.47562 0
M  V30 741 N 67.9926 0.231505 -1.5589 0
M  V30 742 C 68.9026 1.308 -1.94752 0
M  V30 743 C 69.9186 1.51826 -0.849989 0
M  V30 744 O 71.0946 1.6515 -1.15271 0
M  V30 745 C 68.1596 2.63968 -2.24771 0
M  V30 746 C 67.2206 2.51331 -3.48039 0
M  V30 747 C 66.4536 3.78148 -3.76616 0
M  V30 748 O 66.6766 4.80722 -3.07022 0
M  V30 749 O 65.6106 3.75857 -4.70123 0
M  V30 750 H 69.4366 1.0083 -2.86474 0
M  V30 751 H 67.0216 0.433547 -1.42971 0
M  V30 752 H 68.9036 3.42633 -2.45318 0
M  V30 753 H 67.5786 2.9364 -1.36225 0
M  V30 754 H 66.4856 1.709 -3.32782 0
M  V30 755 H 67.8186 2.26601 -4.36936 0
M  V30 756 N 69.4707 1.49531 0.497807 0
M  V30 757 C 70.4037 1.61043 1.6168 0
M  V30 758 C 71.3817 0.459386 1.55976 0
M  V30 759 O 72.5657 0.675358 1.75986 0
M  V30 760 C 69.6927 1.56833 3.00202 0
M  V30 761 C 68.7387 2.77173 3.24156 0
M  V30 762 S 69.5717 4.38808 3.06933 0
M  V30 763 C 70.7277 4.37248 4.47845 0
M  V30 764 H 70.9607 2.55702 1.51671 0
M  V30 765 H 68.4937 1.38462 0.683201 0
M  V30 766 H 70.4517 1.55089 3.80076 0
M  V30 767 H 69.1127 0.634561 3.07623 0
M  V30 768 H 68.3057 2.70456 4.25288 0
M  V30 769 H 67.9077 2.76346 2.5201 0
M  V30 770 H 70.1997 4.09164 5.39992 0
M  V30 771 H 71.1427 5.38668 4.59612 0
M  V30 772 H 71.5507 3.67286 4.28674 0
M  V30 773 N 70.9488 -0.749086 1.3866 0
M  V30 774 C 71.8958 -1.86291 1.36251 0
M  V30 775 C 72.8658 -1.64578 0.224347 0
M  V30 776 O 74.0508 -1.86181 0.417279 0
M  V30 777 C 71.1908 -3.23644 1.19786 0
M  V30 778 C 70.3038 -3.57158 2.43027 0
M  V30 779 C 69.4388 -4.83838 2.19258 0
M  V30 780 C 68.4778 -5.10152 3.38247 0
M  V30 781 N 67.6148 -6.28029 3.13884 0
M  V30 782 H 72.4548 -1.87685 2.3147 0
M  V30 783 H 69.9918 -0.917287 1.14997 0
M  V30 784 H 71.9498 -4.0291 1.08254 0
M  V30 785 H 70.5798 -3.21566 0.282031 0
M  V30 786 H 69.6318 -2.72701 2.65214 0
M  V30 787 H 70.9438 -3.7253 3.31697 0
M  V30 788 H 70.0978 -5.71057 2.04888 0
M  V30 789 H 68.8368 -4.70614 1.2796 0
M  V30 790 H 67.8418 -4.21401 3.53131 0
M  V30 791 H 69.0668 -5.25271 4.30427 0
M  V30 792 H 67.0128 -6.1612 2.25238 0
M  V30 793 H 66.9298 -6.43922 3.96106 0
M  V30 794 H 68.1978 -7.18124 3.03179 0
M  V30 795 N 72.4269 -1.23603 -0.977757 0
M  V30 796 C 73.3739 -1.01954 -2.07061 0
M  V30 797 C 74.3439 0.0638697 -1.65977 0
M  V30 798 O 75.5289 -0.0887624 -1.90593 0
M  V30 799 C 72.6689 -0.619658 -3.39491 0
M  V30 800 C 71.7819 -1.77547 -3.93829 0
M  V30 801 C 70.9169 -1.32212 -5.14484 0
M  V30 802 C 69.9559 -2.44852 -5.60994 0
M  V30 803 N 69.0929 -2.00456 -6.72876 0
M  V30 804 H 73.9329 -1.95495 -2.24913 0
M  V30 805 H 71.4699 -0.973861 -1.10247 0
M  V30 806 H 73.4279 -0.368898 -4.15566 0
M  V30 807 H 72.0579 0.278752 -3.21594 0
M  V30 808 H 71.1099 -2.14016 -3.14486 0
M  V30 809 H 72.4219 -2.62219 -4.24314 0
M  V30 810 H 71.5759 -1.02965 -5.97899 0
M  V30 811 H 70.3149 -0.445808 -4.85658 0
M  V30 812 H 69.3199 -2.74871 -4.76157 0
M  V30 813 H 70.5449 -3.33024 -5.91837 0
M  V30 814 H 68.4909 -1.15208 -6.45804 0
M  V30 815 H 68.4079 -2.78687 -7.02759 0
M  V30 816 H 69.6759 -1.7432 -7.59758 0
M  V30 817 N 73.905 1.17692 -1.04816 0
M  V30 818 C 75.153 1.87488 -0.754497 0
M  V30 819 C 75.474 1.81205 0.720407 0
M  V30 820 O 74.744 1.23544 1.52032 0
M  V30 821 H 73.324 0.694101 -0.276102 0
M  V30 822 H 75.986 1.42793 -1.32651 0
M  V30 823 H 75.082 2.93328 -1.06606 0
M  V30 824 N 75.3831 0.828654 1.34056 0
M  V30 825 C 76.3331 0.226828 2.26869 0
M  V30 826 C 77.3171 -0.612243 1.48796 0
M  V30 827 O 78.5091 -0.465884 1.70759 0
M  V30 828 C 75.6381 -0.605654 3.37915 0
M  V30 829 C 74.7241 0.244361 4.23395 0
M  V30 830 N 75.1151 1.31815 4.88322 0
M  V30 831 C 73.4131 0.0296616 4.4599 0
M  V30 832 C 74.1141 1.83895 5.51867 0
M  V30 833 N 73.0901 1.14196 5.3147 0
M  V30 834 H 76.8921 1.04811 2.74576 0
M  V30 835 H 74.4061 0.67205 1.47842 0
M  V30 836 H 76.4031 -1.05302 4.03382 0
M  V30 837 H 75.0631 -1.42504 2.91758 0
M  V30 838 H 76.0741 1.70099 4.8917 0
M  V30 839 H 72.7511 -0.757097 4.10578 0
M  V30 840 H 74.1411 2.7376 6.136 0
M  V30 841 N 76.8612 -1.46375 0.584142 0
M  V30 842 C 77.7912 -2.33103 -0.136037 0
M  V30 843 C 78.7722 -1.45431 -0.882255 0
M  V30 844 O 79.9572 -1.74246 -0.857434 0
M  V30 845 C 77.0872 -3.27731 -1.14933 0
M  V30 846 C 76.0412 -4.24855 -0.517862 0
M  V30 847 C 75.3672 -5.09001 -1.63773 0
M  V30 848 C 76.6672 -5.19439 0.545886 0
M  V30 849 H 78.3612 -2.93568 0.588086 0
M  V30 850 H 75.9072 -1.41166 0.284259 0
M  V30 851 H 77.8602 -3.87261 -1.66153 0
M  V30 852 H 76.5842 -2.65377 -1.90375 0
M  V30 853 H 75.2432 -3.6659 -0.0267361 0
M  V30 854 H 74.8912 -4.43031 -2.38185 0
M  V30 855 H 74.5912 -5.74777 -1.22085 0
M  V30 856 H 76.1152 -5.71396 -2.15266 0
M  V30 857 H 77.5292 -5.73177 0.118704 0
M  V30 858 H 75.9262 -5.93566 0.88317 0
M  V30 859 H 76.9962 -4.63285 1.43162 0
M  V30 860 N 78.3393 -0.321999 -1.54275 0
M  V30 861 C 79.2493 0.553631 -2.27974 0
M  V30 862 C 80.2653 1.13054 -1.32268 0
M  V30 863 O 81.4413 1.15084 -1.6528 0
M  V30 864 C 78.5063 1.69927 -3.02201 0
M  V30 865 C 77.5673 1.15433 -4.1349 0
M  V30 866 C 76.8003 2.24537 -4.84168 0
M  V30 867 O 77.0233 3.44852 -4.5435 0
M  V30 868 O 75.9573 1.90044 -5.7111 0
M  V30 869 H 79.7833 -0.0448345 -3.03667 0
M  V30 870 H 77.3683 -0.0877418 -1.49142 0
M  V30 871 H 79.2503 2.3663 -3.48689 0
M  V30 872 H 77.9253 2.28395 -2.29385 0
M  V30 873 H 76.8323 0.452436 -3.71354 0
M  V30 874 H 78.1653 0.614805 -4.88345 0
M  V30 875 N 79.8174 1.5752 -0.0501392 0
M  V30 876 C 81.2334 1.56631 0.306402 0
M  V30 877 C 81.4334 1.0577 1.71508 0
M  V30 878 O 80.4894 0.713837 2.422 0
M  V30 879 C 81.8024 3.00393 0.135811 0
M  V30 880 C 83.3504 3.12315 0.206993 0
M  V30 881 C 83.8254 4.57954 0.064944 0
M  V30 882 N 85.3164 4.63041 0.121254 0
M  V30 883 C 86.0514 5.73389 0.0354381 0
M  V30 884 N 85.5474 6.92724 -0.102666 0
M  V30 885 N 87.3404 5.62026 0.090946 0
M  V30 886 H 79.4914 1.88903 -0.971046 0
M  V30 887 H 81.7544 0.869876 -0.376855 0
M  V30 888 H 81.4604 3.41635 -0.835384 0
M  V30 889 H 81.3344 3.66373 0.897275 0
M  V30 890 H 83.7214 2.70973 1.16866 0
M  V30 891 H 83.8024 2.49016 -0.585208 0
M  V30 892 H 83.4464 4.99981 -0.893394 0
M  V30 893 H 83.3764 5.19258 0.876277 0
M  V30 894 H 85.8674 3.77216 0.227284 0
M  V30 895 H 86.1804 7.72633 -0.160882 0
M  V30 896 H 84.5254 6.94864 -0.137737 0
M  V30 897 H 87.7164 4.67684 0.197388 0
M  V30 898 H 87.8894 6.47997 0.0206089 0
M  V30 899 N 81.2955 -0.223234 1.56011 0
M  V30 900 C 82.2055 -1.29766 1.95443 0
M  V30 901 C 83.2215 -1.51373 0.858028 0
M  V30 902 O 84.3975 -1.64536 1.16146 0
M  V30 903 C 81.4625 -2.62772 2.26167 0
M  V30 904 C 80.5235 -2.49482 3.49367 0
M  V30 905 C 79.7565 -3.76145 3.78616 0
M  V30 906 O 79.9795 -4.79087 3.09568 0
M  V30 907 O 78.9135 -3.73358 4.72109 0
M  V30 908 H 82.7395 -0.99309 2.87004 0
M  V30 909 H 80.3245 -0.425958 1.43199 0
M  V30 910 H 82.2065 -3.41327 2.47131 0
M  V30 911 H 80.8815 -2.92913 1.37781 0
M  V30 912 H 79.7885 -1.69133 3.33684 0
M  V30 913 H 81.1215 -2.2428 4.38131 0
M  V30 914 N 82.7736 -1.49793 -0.48987 0
M  V30 915 C 84.0136 -1.61466 -1.25332 0
M  V30 916 C 84.3776 -0.299688 -1.89647 0
M  V30 917 O 85.5786 -0.291687 -2.67213 0
M  V30 918 C 83.8496 -2.74944 -2.28343 0
M  V30 919 S 85.4086 -3.06637 -3.13878 0
M  V30 920 H 82.2266 -0.569411 -0.425784 0
M  V30 921 H 84.8286 -1.875 -0.553541 0
M  V30 922 H 83.5326 -3.68994 -1.79643 0
M  V30 923 H 83.0636 -2.50938 -3.02975 0
M  V30 924 H 85.0786 -2.49015 -4.29192 0
M  V30 925 N 84.2517 0.741722 -1.39055 0
M  V30 926 C 85.1847 1.86416 -1.31622 0
M  V30 927 C 86.1627 1.61473 -0.191076 0
M  V30 928 O 87.3467 1.84825 -0.370399 0
M  V30 929 C 84.4737 3.22266 -1.04221 0
M  V30 930 C 83.5197 3.66079 -2.18834 0
M  V30 931 S 84.3527 3.7623 -3.81066 0
M  V30 932 C 85.5087 5.14881 -3.55877 0
M  V30 933 H 85.7417 1.92437 -2.26617 0
M  V30 934 H 83.2747 0.905907 -1.25031 0
M  V30 935 H 85.2327 4.00714 -0.890964 0
M  V30 936 H 83.8937 3.1391 -0.109237 0
M  V30 937 H 83.0867 4.64648 -1.95238 0
M  V30 938 H 82.6887 2.94817 -2.30128 0
M  V30 939 H 84.9807 6.01006 -3.12726 0
M  V30 940 H 85.9237 5.43503 -4.53884 0
M  V30 941 H 86.3317 4.84239 -2.90126 0
M  V30 942 N 85.7298 1.2412 0.971189 0
M  V30 943 C 86.6398 1.04747 2.09917 0
M  V30 944 C 87.6558 -0.0107162 1.73997 0
M  V30 945 O 88.8318 0.186714 2.00533 0
M  V30 946 C 85.8968 0.650828 3.40537 0
M  V30 947 C 84.9578 1.7851 3.90426 0
M  V30 948 C 84.1908 1.40729 5.14812 0
M  V30 949 O 84.4138 0.29557 5.69634 0
M  V30 950 O 83.3478 2.23168 5.58999 0
M  V30 951 H 87.1738 1.99304 2.29154 0
M  V30 952 H 84.7588 1.02908 1.08307 0
M  V30 953 H 86.6408 0.440992 4.19086 0
M  V30 954 H 85.3158 -0.265649 3.22608 0
M  V30 955 H 84.2228 2.04966 3.12953 0
M  V30 956 H 85.5558 2.68023 4.12825 0
M  V30 957 N 87.2079 -1.17134 1.05439 0
M  V30 958 C 88.1179 -2.24878 0.668365 0
M  V30 959 C 89.1339 -1.71186 -0.311687 0
M  V30 960 O 90.3099 -2.00738 -0.163161 0
M  V30 961 C 87.3749 -3.46662 0.051648 0
M  V30 962 C 86.4359 -4.15429 1.08246 0
M  V30 963 C 85.6689 -5.31399 0.495082 0
M  V30 964 O 85.8919 -5.66153 -0.694743 0
M  V30 965 O 84.8259 -5.89187 1.23056 0
M  V30 966 H 88.6519 -2.60189 1.56637 0
M  V30 967 H 86.2369 -1.24482 0.826104 0
M  V30 968 H 88.1189 -4.20394 -0.290966 0
M  V30 969 H 86.7939 -3.13142 -0.819971 0
M  V30 970 H 85.7009 -3.43704 1.47711 0
M  V30 971 H 87.0339 -4.52982 1.92532 0
M  V30 972 N 88.686 -0.835752 -1.33615 0
M  V30 973 C 89.914 -0.443344 -2.02094 0
M  V30 974 C 90.329 0.954522 -1.62894 0
M  V30 975 O 89.686 1.61982 -0.840723 0
M  V30 976 C 89.737 -0.550775 -3.5728 0
M  V30 977 O 89.458 -1.89356 -3.95065 0
M  V30 978 C 90.959 -0.154919 -4.43029 0
M  V30 979 H 88.179 -0.176359 -0.647409 0
M  V30 980 H 90.723 -1.12746 -1.70612 0
M  V30 981 H 88.878 0.0853997 -3.87306 0
M  V30 982 H 89.292 -1.87687 -4.89769 0
M  V30 983 H 90.766 -0.281144 -5.51284 0
M  V30 984 H 91.243 0.902863 -4.2982 0
M  V30 985 H 91.849 -0.765404 -4.18356 0
M  V30 986 N 90.1641 1.46063 -0.591896 0
M  V30 987 C 91.4041 2.04228 -0.0838014 0
M  V30 988 C 91.7681 1.45231 1.25587 0
M  V30 989 O 92.9691 1.94653 1.85375 0
M  V30 990 C 91.2401 3.57389 -0.0286282 0
M  V30 991 S 92.7991 4.3678 0.420557 0
M  V30 992 H 89.6171 0.709762 -0.0419319 0
M  V30 993 H 92.2191 1.78983 -0.786465 0
M  V30 994 H 90.9231 3.97843 -1.00743 0
M  V30 995 H 90.4541 3.87185 0.69652 0
M  V30 996 H 92.4691 4.67131 1.67341 0
M  V30 997 N 91.6422 0.330177 1.54103 0
M  V30 998 C 92.8672 -0.274893 2.0557 0
M  V30 999 C 93.2922 -1.44487 1.20437 0
M  V30 1000 O 92.6502 -1.80021 0.214991 0
M  V30 1001 C 92.6982 -0.68079 3.54115 0
M  V30 1002 O 91.8022 -1.7824 3.71893 0
M  V30 1003 H 91.1432 -0.0483849 0.662235 0
M  V30 1004 H 93.6732 0.480508 1.98878 0
M  V30 1005 H 93.6832 -0.961635 3.96505 0
M  V30 1006 H 92.3582 0.174903 4.15532 0
M  V30 1007 H 90.9352 -1.49985 3.41407 0
M  V30 1008 N 93.1203 -1.57491 0.0584922 0
M  V30 1009 C 94.3503 -1.9701 -0.622134 0
M  V30 1010 C 94.7583 -0.935034 -1.6448 0
M  V30 1011 O 94.1013 0.0882904 -1.83488 0
M  V30 1012 C 94.1633 -3.32794 -1.35972 0
M  V30 1013 C 93.8273 -4.54343 -0.492043 0
M  V30 1014 C 94.8243 -5.19323 0.244901 0
M  V30 1015 C 92.5093 -5.00534 -0.420821 0
M  V30 1016 C 94.5033 -6.28835 1.04143 0
M  V30 1017 C 92.1903 -6.09921 0.379389 0
M  V30 1018 C 93.1883 -6.73933 1.10919 0
M  V30 1019 O 92.8763 -7.81216 1.89623 0
M  V30 1020 H 92.6083 -0.653127 -0.174359 0
M  V30 1021 H 95.1623 -2.05029 0.123418 0
M  V30 1022 H 93.3923 -3.21351 -2.15105 0
M  V30 1023 H 95.0813 -3.5701 -1.93129 0
M  V30 1024 H 95.8473 -4.8459 0.19939 0
M  V30 1025 H 91.7263 -4.50496 -0.978474 0
M  V30 1026 H 95.2703 -6.7873 1.61157 0
M  V30 1027 H 91.1673 -6.44089 0.426512 0
M  V30 1028 H 91.9353 -7.98029 1.81913 0
M  V30 1029 N 94.5984 0.214957 -1.56127 0
M  V30 1030 C 95.5084 1.28727 -1.96129 0
M  V30 1031 C 96.5244 1.50916 -0.866044 0
M  V30 1032 O 97.7004 1.63918 -1.17016 0
M  V30 1033 C 94.7654 2.61569 -2.27558 0
M  V30 1034 C 93.8264 2.47625 -3.50685 0
M  V30 1035 C 93.0594 3.74132 -3.80606 0
M  V30 1036 O 93.2824 4.77438 -3.12104 0
M  V30 1037 O 92.2164 3.70849 -4.74083 0
M  V30 1038 H 96.0424 0.977855 -2.87527 0
M  V30 1039 H 93.6274 0.418358 -1.43423 0
M  V30 1040 H 95.5094 3.40012 -2.48938 0
M  V30 1041 H 94.1844 2.92178 -1.39332 0
M  V30 1042 H 93.0914 1.67361 -3.34576 0
M  V30 1043 H 94.4244 2.21954 -4.39315 0
M  V30 1044 N 96.0765 1.50051 0.48192 0
M  V30 1045 C 96.9865 1.7089 1.60728 0
M  V30 1046 C 98.0025 0.591788 1.63627 0
M  V30 1047 O 99.1785 0.868817 1.81696 0
M  V30 1048 C 96.2435 1.78855 2.97005 0
M  V30 1049 C 95.3045 3.02537 3.04581 0
M  V30 1050 C 94.5375 3.10112 4.34357 0
M  V30 1051 O 94.7605 2.24765 5.24249 0
M  V30 1052 O 93.6945 4.02747 4.47301 0
M  V30 1053 H 97.5205 2.66264 1.46072 0
M  V30 1054 H 95.1055 1.34018 0.660264 0
M  V30 1055 H 96.9875 1.86336 3.77964 0
M  V30 1056 H 95.6625 0.866628 3.11883 0
M  V30 1057 H 94.5695 3.00563 2.22739 0
M  V30 1058 H 95.9025 3.94272 2.94636 0
M  V30 1059 N 97.5546 -0.734337 1.39446 0
M  V30 1060 C 98.5176 -1.83004 1.37994 0
M  V30 1061 C 99.5176 -1.58397 0.276938 0
M  V30 1062 O 100.708 -1.65785 0.534875 0
M  V30 1063 C 97.8396 -3.20802 1.1532 0
M  V30 1064 H 99.0326 -1.85694 2.35494 0
M  V30 1065 H 96.5856 -0.938059 1.25021 0
M  V30 1066 H 97.3206 -3.23772 0.185036 0
M  V30 1067 H 97.1056 -3.4006 1.95197 0
M  V30 1068 H 98.5956 -4.00862 1.17046 0
M  V30 1069 N 99.0327 -1.24633 -0.964593 0
M  V30 1070 C 100.449 -1.01239 -1.2338 0
M  V30 1071 C 100.649 0.2769 -1.99588 0
M  V30 1072 O 99.7047 0.992241 -2.32187 0
M  V30 1073 C 101.018 -2.22937 -2.01791 0
M  V30 1074 C 102.566 -2.27594 -2.14872 0
M  V30 1075 C 103.041 -3.48921 -2.96678 0
M  V30 1076 N 104.532 -3.49257 -3.04259 0
M  V30 1077 C 105.267 -4.39795 -3.67924 0
M  V30 1078 N 104.763 -5.40591 -4.33281 0
M  V30 1079 N 106.556 -4.275 -3.64966 0
M  V30 1080 H 98.7067 -2.0748 -0.454502 0
M  V30 1081 H 100.97 -0.910647 -0.26349 0
M  V30 1082 H 100.676 -3.16587 -1.53184 0
M  V30 1083 H 100.55 -2.25306 -3.02518 0
M  V30 1084 H 102.937 -1.34473 -2.6268 0
M  V30 1085 H 103.018 -2.2925 -1.13482 0
M  V30 1086 H 102.662 -4.42359 -2.49562 0
M  V30 1087 H 102.592 -3.4451 -3.98272 0
M  V30 1088 H 105.083 -2.76337 -2.57771 0
M  V30 1089 H 105.396 -6.05904 -4.79687 0
M  V30 1090 H 103.741 -5.44475 -4.3194 0
M  V30 1091 H 106.932 -3.47987 -3.13086 0
M  V30 1092 H 107.105 -4.98258 -4.14298 0
M  V30 1093 N 100.511 1.16574 -1.06058 0
M  V30 1094 C 101.421 2.2452 -0.680282 0
M  V30 1095 C 102.437 1.71348 0.302604 0
M  V30 1096 O 103.613 2.00822 0.152513 0
M  V30 1097 C 100.678 3.46629 -0.0700315 0
M  V30 1098 C 99.7388 4.14849 -1.10448 0
M  V30 1099 C 98.9718 5.31129 -0.523256 0
M  V30 1100 O 99.1948 5.66514 0.664709 0
M  V30 1101 O 98.1288 5.88526 -1.26179 0
M  V30 1102 H 101.955 2.59355 -1.58015 0
M  V30 1103 H 99.5398 1.24043 -0.832694 0
M  V30 1104 H 101.422 4.20543 0.268667 0
M  V30 1105 H 100.097 3.13573 0.803353 0
M  V30 1106 H 99.0038 3.42916 -1.49532 0
M  V30 1107 H 100.337 4.51954 -1.94931 0
M  V30 1108 N 101.989 0.842826 1.3317 0
M  V30 1109 C 103.235 0.441099 1.97945 0
M  V30 1110 C 103.568 -0.998024 1.66593 0
M  V30 1111 O 102.843 -1.69839 0.947898 0
M  V30 1112 C 103.126 0.666841 3.53872 0
M  V30 1113 C 102.979 2.15352 3.94897 0
M  V30 1114 C 104.298 0.115544 4.39948 0
M  V30 1115 H 101.417 0.161739 0.719034 0
M  V30 1116 H 104.059 1.05907 1.57746 0
M  V30 1117 H 102.209 0.140828 3.88245 0
M  V30 1118 H 103.881 2.7447 3.70761 0
M  V30 1119 H 102.124 2.63653 3.44484 0
M  V30 1120 H 102.795 2.26221 5.03516 0
M  V30 1121 H 105.271 0.565213 4.12243 0
M  V30 1122 H 104.147 0.303152 5.48062 0
M  V30 1123 H 104.408 -0.980935 4.3108 0
M  V30 1124 N 103.467 -1.45747 0.599634 0
M  V30 1125 C 104.714 -2.02292 0.0917284 0
M  V30 1126 C 105.042 -1.46906 -1.27472 0
M  V30 1127 O 104.297 -0.630652 -1.8526 0
M  V30 1128 C 104.596 -3.57399 -0.00602758 0
M  V30 1129 C 104.262 -4.31902 1.29503 0
M  V30 1130 C 102.924 -4.51974 1.65144 0
M  V30 1131 C 105.276 -4.74551 2.15525 0
M  V30 1132 C 102.604 -5.11949 2.86574 0
M  V30 1133 C 104.956 -5.35868 3.36196 0
M  V30 1134 C 103.62 -5.54165 3.72099 0
M  V30 1135 H 102.89 -0.740239 0.0335658 0
M  V30 1136 H 105.537 -1.7491 0.779661 0
M  V30 1137 H 103.842 -3.84014 -0.777183 0
M  V30 1138 H 105.539 -3.98846 -0.415038 0
M  V30 1139 H 102.129 -4.16588 1.00761 0
M  V30 1140 H 106.313 -4.58784 1.8929 0
M  V30 1141 H 101.569 -5.24305 3.14507 0
M  V30 1142 H 105.743 -5.6787 4.03109 0
M  V30 1143 H 103.37 -6.00406 4.6628 0
M  V30 1144 N 104.945 -0.338344 -1.53925 0
M  V30 1145 C 105.855 0.529421 -2.28548 0
M  V30 1146 C 106.871 1.11645 -1.3346 0
M  V30 1147 O 108.047 1.13325 -1.66492 0
M  V30 1148 C 105.112 1.66713 -3.03987 0
M  V30 1149 C 104.173 1.11041 -4.14691 0
M  V30 1150 C 103.406 2.19389 -4.86522 0
M  V30 1151 O 103.629 3.40013 -4.57982 0
M  V30 1152 O 102.563 1.83976 -5.73094 0
M  V30 1153 H 106.389 -0.0770399 -3.03602 0
M  V30 1154 H 103.974 -0.103555 -1.49041 0
M  V30 1155 H 105.856 2.32918 -3.5118 0
M  V30 1156 H 104.531 2.25949 -2.31794 0
M  V30 1157 H 103.438 0.413024 -3.71813 0
M  V30 1158 H 104.771 0.562975 -4.8897 0
M  V30 1159 N 106.423 1.57458 -0.0668435 0
M  V30 1160 C 107.7 1.8469 0.644132 0
M  V30 1161 C 108.08 0.958343 1.88093 0
M  V30 1162 O 107.428 0.0233579 2.28488 0
M  V30 1163 C 107.638 3.34767 0.986509 0
M  V30 1164 C 108.986 4.02159 1.36212 0
M  V30 1165 O 110.01 3.39484 1.07839 0
M  V30 1166 O 108.869 5.12694 1.89227 0
M  V30 1167 H 105.963 0.762816 0.319437 0
M  V30 1168 H 108.509 1.6942 -0.0973986 0
M  V30 1169 H 107.281 3.91151 0.107883 0
M  V30 1170 H 106.904 3.55281 1.78497 0
M  V30 1171 N 107.901 -0.206675 1.56239 0
M  V30 1172 C 109.126 -0.949474 1.8439 0
M  V30 1173 C 109.551 -1.76549 0.649016 0
M  V30 1174 O 108.909 -1.76782 -0.402231 0
M  V30 1175 C 108.957 -1.83078 3.10668 0
M  V30 1176 O 108.061 -2.9281 2.90407 0
M  V30 1177 H 107.402 -0.268033 0.607499 0
M  V30 1178 H 109.932 -0.215488 2.03462 0
M  V30 1179 H 109.942 -2.2377 3.41161 0
M  V30 1180 H 108.617 -1.23112 3.97261 0
M  V30 1181 H 107.194 -2.55956 2.71184 0
M  V30 1182 N 109.379 -1.50304 -0.473955 0
M  V30 1183 C 110.656 -1.51667 -1.23518 0
M  V30 1184 C 111.036 -0.259701 -2.09496 0
M  V30 1185 O 110.384 0.756986 -2.15597 0
M  V30 1186 C 110.594 -2.81082 -2.06868 0
M  V30 1187 C 111.942 -3.31631 -2.65153 0
M  V30 1188 O 112.966 -2.82384 -2.17113 0
M  V30 1189 O 111.825 -4.17471 -3.52675 0
M  V30 1190 H 108.919 -0.60822 -0.560355 0
M  V30 1191 H 111.465 -1.62592 -0.486011 0
M  V30 1192 H 110.237 -3.64041 -1.4349 0
M  V30 1193 H 109.86 -2.73146 -2.88924 0
M  V30 1194 N 110.857 0.726932 -1.39834 0
M  V30 1195 C 111.804 1.841 -1.39197 0
M  V30 1196 C 112.774 1.642 -0.250502 0
M  V30 1197 O 113.959 1.85494 -0.446846 0
M  V30 1198 C 111.099 3.21697 -1.24919 0
M  V30 1199 C 110.212 3.53247 -2.48678 0
M  V30 1200 C 109.347 4.80289 -2.26928 0
M  V30 1201 C 108.386 5.04707 -3.4632 0
M  V30 1202 N 107.523 6.22956 -3.23836 0
M  V30 1203 H 112.363 1.83979 -2.34427 0
M  V30 1204 H 109.9 0.898876 -1.16442 0
M  V30 1205 H 111.858 4.01137 -1.1465 0
M  V30 1206 H 110.488 3.21076 -0.333153 0
M  V30 1207 H 109.54 2.68447 -2.69519 0
M  V30 1208 H 110.852 3.67205 -3.37582 0
M  V30 1209 H 110.006 5.67725 -2.13947 0
M  V30 1210 H 108.745 4.68519 -1.35431 0
M  V30 1211 H 107.75 4.1573 -3.5979 0
M  V30 1212 H 108.975 5.18357 -4.38729 0
M  V30 1213 H 106.921 6.12459 -2.35011 0
M  V30 1214 H 106.838 6.37539 -4.063 0
M  V30 1215 H 108.106 7.1321 -3.14566 0
M  V30 1216 N 112.336 1.25143 0.95797 0
M  V30 1217 C 113.564 1.12424 1.73691 0
M  V30 1218 C 113.979 -0.322304 1.86029 0
M  V30 1219 O 113.336 -1.22186 1.35561 0
M  V30 1220 C 113.387 1.76933 3.15241 0
M  V30 1221 O 113.108 3.15932 3.03511 0
M  V30 1222 C 114.609 1.6995 4.09429 0
M  V30 1223 H 111.829 0.3923 0.544373 0
M  V30 1224 H 114.373 1.6544 1.20207 0
M  V30 1225 H 112.528 1.27895 3.6568 0
M  V30 1226 H 112.942 3.47598 3.9278 0
M  V30 1227 H 114.416 2.19753 5.06372 0
M  V30 1228 H 114.893 0.662619 4.34173 0
M  V30 1229 H 115.499 2.18461 3.64904 0
M  V30 1230 N 113.814 -1.1601 1.06675 0
M  V30 1231 C 114.762 -2.22586 0.675157 0
M  V30 1232 C 115.756 -1.66525 -0.310766 0
M  V30 1233 O 116.962 -1.79145 -0.175215 0
M  V30 1234 H 113.337 -0.724855 0.200223 0
M  V30 1235 H 115.308 -2.52899 1.58381 0
M  V30 1236 C 114.057 -3.47604 0.0817162 0
M  V30 1237 H 113.38 -3.91058 0.831484 0
M  V30 1238 H 114.82 -4.23718 -0.154708 0
M  V30 1239 C 113.279 -3.15718 -1.17576 0
M  V30 1240 O 113.809 -3.31878 -2.26318 0
M  V30 1241 N 112.015 -2.69816 -1.07923 0
M  V30 1242 H 111.562 -2.56866 -0.194293 0
M  V30 1243 H 111.52 -2.48855 -1.92141 0
M  V30 1244 N 115.292 -0.849877 -1.32721 0
M  V30 1245 C 116.202 -0.293791 -2.32753 0
M  V30 1246 C 117.218 0.585906 -1.63839 0
M  V30 1247 O 118.394 0.487413 -1.95413 0
M  V30 1248 C 115.459 0.512752 -3.42887 0
M  V30 1249 C 114.52 -0.39252 -4.27502 0
M  V30 1250 C 113.753 0.375625 -5.32377 0
M  V30 1251 O 113.976 1.60613 -5.4732 0
M  V30 1252 O 112.91 -0.256094 -6.01355 0
M  V30 1253 H 116.736 -1.12242 -2.82197 0
M  V30 1254 H 114.321 -0.612685 -1.36259 0
M  V30 1255 H 116.203 0.970704 -4.10067 0
M  V30 1256 H 114.878 1.31826 -2.95641 0
M  V30 1257 H 113.785 -0.898547 -3.63149 0
M  V30 1258 H 115.118 -1.16309 -4.7826 0
M  V30 1259 N 116.77 1.45427 -0.607355 0
M  V30 1260 C 118.017 2.02241 -0.102455 0
M  V30 1261 C 118.345 1.4758 1.26691 0
M  V30 1262 O 117.6 0.640468 1.84923 0
M  V30 1263 C 117.899 3.57398 -0.0129263 0
M  V30 1264 C 117.565 4.3121 -1.31792 0
M  V30 1265 C 116.227 4.51092 -1.67539 0
M  V30 1266 C 118.579 4.73401 -2.18039 0
M  V30 1267 C 115.907 5.10422 -2.89285 0
M  V30 1268 C 118.259 5.34078 -3.39034 0
M  V30 1269 C 116.923 5.52184 -3.75033 0
M  V30 1270 H 116.193 0.740051 -0.037491 0
M  V30 1271 H 118.84 1.74494 -0.788926 0
M  V30 1272 H 117.145 3.84421 0.756806 0
M  V30 1273 H 118.842 3.99061 0.393881 0
M  V30 1274 H 115.432 4.16047 -1.02968 0
M  V30 1275 H 119.616 4.57774 -1.91721 0
M  V30 1276 H 114.872 5.22629 -3.17283 0
M  V30 1277 H 119.046 5.65724 -4.06115 0
M  V30 1278 H 116.673 5.97925 -4.69457 0
M  V30 1279 N 118.248 0.346503 1.53744 0
M  V30 1280 C 119.494 -0.242135 2.01954 0
M  V30 1281 C 119.849 -1.47962 1.22984 0
M  V30 1282 O 119.142 -1.89077 0.309924 0
M  V30 1283 C 119.336 -0.605809 3.52228 0
M  V30 1284 C 119.165 0.594882 4.45748 0
M  V30 1285 C 117.935 1.1011 4.93157 0
M  V30 1286 C 120.133 1.45425 4.93311 0
M  V30 1287 N 118.115 2.26381 5.70636 0
M  V30 1288 C 119.486 2.46383 5.68942 0
M  V30 1289 C 121.541 1.47935 4.75415 0
M  V30 1290 C 120.244 3.49684 6.28581 0
M  V30 1291 C 122.27 2.50119 5.35905 0
M  V30 1292 C 121.632 3.49803 6.11406 0
M  V30 1293 H 117.731 -0.0518296 0.780281 0
M  V30 1294 H 120.315 0.486736 1.88518 0
M  V30 1295 H 118.486 -1.30378 3.65864 0
M  V30 1296 H 120.218 -1.17789 3.87179 0
M  V30 1297 H 116.973 0.668721 4.68855 0
M  V30 1298 H 117.397 2.85094 6.14044 0
M  V30 1299 H 122.039 0.722274 4.16585 0
M  V30 1300 H 119.757 4.26285 6.86518 0
M  V30 1301 H 123.343 2.52892 5.23963 0
M  V30 1302 H 122.223 4.27576 6.5738 0
M  V30 1303 N 119.726 -1.57421 0.075193 0
M  V30 1304 C 120.674 -2.14124 -0.908508 0
M  V30 1305 C 121.668 -1.07898 -1.30592 0
M  V30 1306 O 122.874 -1.26273 -1.28277 0
M  V30 1307 H 119.249 -0.684707 -0.310935 0
M  V30 1308 H 121.22 -2.95634 -0.405374 0
M  V30 1309 C 119.969 -2.72044 -2.16535 0
M  V30 1310 H 119.292 -3.53456 -1.86839 0
M  V30 1311 H 120.732 -3.15311 -2.83469 0
M  V30 1312 C 119.191 -1.66968 -2.92615 0
M  V30 1313 O 119.721 -1.0967 -3.86439 0
M  V30 1314 N 117.927 -1.37923 -2.55784 0
M  V30 1315 H 117.474 -1.84706 -1.79559 0
M  V30 1316 H 117.432 -0.67852 -3.06991 0
M  V30 1317 N 121.204 0.198386 -1.56346 0
M  V30 1318 C 122.151 1.24589 -1.94284 0
M  V30 1319 C 123.121 1.454 -0.802997 0
M  V30 1320 O 124.306 1.58588 -1.06087 0
M  V30 1321 C 121.446 2.58631 -2.28482 0
M  V30 1322 C 120.559 2.45426 -3.55514 0
M  V30 1323 C 119.694 3.7215 -3.79049 0
M  V30 1324 C 118.733 3.53763 -4.99518 0
M  V30 1325 N 117.87 4.72491 -5.19323 0
M  V30 1326 H 122.71 0.915356 -2.83593 0
M  V30 1327 H 120.247 0.440629 -1.40346 0
M  V30 1328 H 122.205 3.3672 -2.46324 0
M  V30 1329 H 120.835 2.89734 -1.42317 0
M  V30 1330 H 119.887 1.58652 -3.45737 0
M  V30 1331 H 121.199 2.27772 -4.43758 0
M  V30 1332 H 120.353 4.58679 -3.97113 0
M  V30 1333 H 119.092 3.92754 -2.89129 0
M  V30 1334 H 118.097 2.65619 -4.8138 0
M  V30 1335 H 119.322 3.34607 -5.90944 0
M  V30 1336 H 117.268 4.93365 -4.3235 0
M  V30 1337 H 117.185 4.5765 -6.01741 0
M  V30 1338 H 118.453 5.6038 -5.41843 0
M  V30 1339 N 122.682 1.50554 0.465978 0
M  V30 1340 C 123.912 1.65323 1.23903 0
M  V30 1341 C 124.32 0.338051 1.86155 0
M  V30 1342 O 123.663 -0.690518 1.70228 0
M  V30 1343 C 123.725 2.69048 2.3844 0
M  V30 1344 C 123.389 4.12462 1.96784 0
M  V30 1345 C 124.386 4.98168 1.48745 0
M  V30 1346 C 122.071 4.58407 2.05349 0
M  V30 1347 C 124.065 6.27868 1.0982 0
M  V30 1348 C 121.752 5.88112 1.66035 0
M  V30 1349 C 122.75 6.72668 1.18349 0
M  V30 1350 O 122.438 7.99951 0.795825 0
M  V30 1351 H 122.17 0.558629 0.38067 0
M  V30 1352 H 124.724 1.97561 0.562022 0
M  V30 1353 H 122.954 2.32062 3.09328 0
M  V30 1354 H 124.643 2.72985 3.0039 0
M  V30 1355 H 125.409 4.63885 1.41546 0
M  V30 1356 H 121.288 3.92735 2.41414 0
M  V30 1357 H 124.832 6.93819 0.725293 0
M  V30 1358 H 120.729 6.21914 1.72895 0
M  V30 1359 H 121.497 8.13265 0.924222 0
M  V30 1360 N 124.16 -0.719506 1.40217 0
M  V30 1361 C 125.107 -1.83359 1.40172 0
M  V30 1362 C 126.077 -1.64065 0.259206 0
M  V30 1363 O 127.262 -1.85254 0.456677 0
M  V30 1364 C 124.402 -3.2103 1.26624 0
M  V30 1365 C 123.515 -3.51923 2.50548 0
M  V30 1366 C 122.65 -4.79079 2.29471 0
M  V30 1367 C 121.689 -5.02863 3.48992 0
M  V30 1368 N 120.826 -6.2123 3.27135 0
M  V30 1369 H 125.666 -1.82733 2.35399 0
M  V30 1370 H 123.203 -0.892688 1.16917 0
M  V30 1371 H 125.161 -4.00524 1.16776 0
M  V30 1372 H 123.791 -3.20895 0.350176 0
M  V30 1373 H 122.843 -2.67014 2.70939 0
M  V30 1374 H 124.155 -3.6541 3.39525 0
M  V30 1375 H 123.309 -5.66582 2.16955 0
M  V30 1376 H 122.048 -4.67794 1.37913 0
M  V30 1377 H 121.053 -4.13816 3.6199 0
M  V30 1378 H 122.278 -5.16023 4.41472 0
M  V30 1379 H 120.224 -6.11204 2.38256 0
M  V30 1380 H 120.141 -6.35375 4.09675 0
M  V30 1381 H 121.409 -7.11532 3.18344 0
M  V30 1382 N 125.638 -1.25649 -0.95132 0
M  V30 1383 C 126.915 -1.01361 -1.67288 0
M  V30 1384 C 127.295 0.459135 -2.06046 0
M  V30 1385 O 126.643 1.43723 -1.7764 0
M  V30 1386 C 126.853 -1.95256 -2.89268 0
M  V30 1387 C 128.201 -2.23289 -3.61147 0
M  V30 1388 O 129.225 -1.93041 -2.99355 0
M  V30 1389 O 128.084 -2.74741 -4.72419 0
M  V30 1390 H 125.178 -0.38464 -0.732107 0
M  V30 1391 H 127.724 -1.36817 -1.00395 0
M  V30 1392 H 126.496 -2.94685 -2.57442 0
M  V30 1393 H 126.119 -1.60218 -3.6389 0
M  V30 1394 N 127.117 1.15442 -1.07289 0
M  V30 1395 C 128.365 1.85845 -0.794096 0
M  V30 1396 C 128.686 1.82692 0.681809 0
M  V30 1397 O 127.956 1.26741 1.49377 0
M  V30 1398 H 126.536 0.688089 -0.290763 0
M  V30 1399 H 129.198 1.39947 -1.3565 0
M  V30 1400 H 128.294 2.91001 -1.12804 0
M  V30 1401 N 128.595 0.856903 1.32268 0
M  V30 1402 C 129.872 0.382583 1.91822 0
M  V30 1403 C 130.252 -1.13407 1.78051 0
M  V30 1404 O 129.6 -1.95673 1.18001 0
M  V30 1405 C 129.81 0.849446 3.38505 0
M  V30 1406 C 131.158 0.867936 4.15634 0
M  V30 1407 O 132.182 0.794232 3.47232 0
M  V30 1408 O 131.041 0.972286 5.37781 0
M  V30 1409 H 128.135 0.112014 0.819379 0
M  V30 1410 H 130.681 0.943952 1.41024 0
M  V30 1411 H 129.453 1.89267 3.42482 0
M  V30 1412 H 129.076 0.265652 3.96712 0
M  V30 1413 N 130.073 -1.45103 0.615059 0
M  V30 1414 C 131.005 -2.28786 -0.13762 0
M  V30 1415 C 132.018 -1.40376 -0.824525 0
M  V30 1416 O 133.207 -1.64681 -0.688662 0
M  V30 1417 C 130.307 -3.16322 -1.21628 0
M  V30 1418 C 129.48 -4.33054 -0.615039 0
M  V30 1419 C 128.539 -5.01743 -1.58556 0
M  V30 1420 O 127.565 -5.58293 -1.10895 0
M  V30 1421 N 128.767 -5.01714 -2.91998 0
M  V30 1422 H 131.532 -2.94025 0.580483 0
M  V30 1423 H 129.093 -1.55373 0.45507 0
M  V30 1424 H 131.085 -3.59139 -1.86552 0
M  V30 1425 H 129.655 -2.52943 -1.83681 0
M  V30 1426 H 128.875 -3.93627 0.21245 0
M  V30 1427 H 130.163 -5.08431 -0.193704 0
M  V30 1428 H 129.561 -4.57075 -3.33316 0
M  V30 1429 H 128.118 -5.48371 -3.52325 0
M  V30 1430 N 131.551 -0.354651 -1.53558 0
M  V30 1431 C 132.791 0.238651 -2.03002 0
M  V30 1432 C 133.155 1.46878 -1.23656 0
M  V30 1433 O 134.356 2.13699 -1.63053 0
M  V30 1434 C 132.627 0.534175 -3.53386 0
M  V30 1435 S 134.186 1.10271 -4.24719 0
M  V30 1436 H 131.004 0.0702908 -0.707517 0
M  V30 1437 H 133.606 -0.494987 -1.8913 0
M  V30 1438 H 132.31 -0.368765 -4.0874 0
M  V30 1439 H 131.841 1.29718 -3.71398 0
M  V30 1440 H 133.856 2.38772 -4.34974 0
M  V30 1441 N 133.029 1.57378 -0.0835403 0
M  V30 1442 C 133.939 2.16897 0.894021 0
M  V30 1443 C 134.955 1.13528 1.31861 0
M  V30 1444 O 136.131 1.45848 1.3889 0
M  V30 1445 C 133.196 2.72831 2.13925 0
M  V30 1446 C 132.257 3.91115 1.76997 0
M  V30 1447 C 131.49 4.44371 2.95584 0
M  V30 1448 O 131.713 3.96596 4.09961 0
M  V30 1449 O 130.647 5.35549 2.74719 0
M  V30 1450 H 134.473 3.00814 0.417679 0
M  V30 1451 H 132.058 1.48741 0.140181 0
M  V30 1452 H 133.94 3.0863 2.86924 0
M  V30 1453 H 132.615 1.91967 2.60635 0
M  V30 1454 H 131.522 3.60148 1.01214 0
M  V30 1455 H 132.855 4.73307 1.3506 0
M  V30 1456 N 134.507 -0.190092 1.56449 0
M  V30 1457 C 135.735 -0.925772 1.85033 0
M  V30 1458 C 136.15 -1.76638 0.666658 0
M  V30 1459 O 135.507 -1.78822 -0.364565 0
M  V30 1460 C 135.558 -1.81786 3.12468 0
M  V30 1461 O 135.279 -1.01118 4.26271 0
M  V30 1462 C 136.78 -2.6648 3.54265 0
M  V30 1463 H 134 -0.269872 0.614337 0
M  V30 1464 H 136.544 -0.195837 2.0356 0
M  V30 1465 H 134.699 -2.50136 2.95822 0
M  V30 1466 H 135.113 -1.61956 4.98869 0
M  V30 1467 H 136.587 -3.24722 4.46385 0
M  V30 1468 H 137.064 -3.40434 2.77491 0
M  V30 1469 H 137.67 -2.03493 3.73458 0
M  V30 1470 N 135.985 -1.50799 -0.457987 0
M  V30 1471 C 137.21 -1.66496 -1.23668 0
M  V30 1472 C 137.635 -0.353288 -1.84752 0
M  V30 1473 O 136.993 0.684346 -1.67888 0
M  V30 1474 C 137.041 -2.76763 -2.3116 0
M  V30 1475 O 136.145 -2.38928 -3.36136 0
M  V30 1476 H 135.486 -0.555828 -0.363252 0
M  V30 1477 H 138.016 -1.9725 -0.543474 0
M  V30 1478 H 138.026 -3.00232 -2.76269 0
M  V30 1479 H 136.701 -3.71954 -1.86073 0
M  V30 1480 H 135.278 -2.25953 -2.96647 0
M  V30 1481 N 137.463 0.71206 -1.40597 0
M  V30 1482 C 138.874 1.29135 -1.34837 0
M  V30 1483 C 139.225 1.96186 -0.0235395 0
M  V30 1484 O 138.35 1.97768 0.878444 0
M  V30 1485 C 138.945 2.34827 -2.44217 0
M  V30 1486 C 137.504 2.88371 -2.41907 0
M  V30 1487 C 136.651 1.62202 -2.24913 0
M  V30 1488 H 139.602 0.507944 -1.50352 0
M  V30 1489 H 139.623 3.15749 -2.12327 0
M  V30 1490 H 139.135 1.85996 -3.40627 0
M  V30 1491 H 137.236 3.41422 -1.49204 0
M  V30 1492 H 137.349 3.39925 -3.37621 0
M  V30 1493 H 135.713 1.874 -1.72492 0
M  V30 1494 H 136.496 1.15391 -3.23326 0
M  V30 1495 N 138.941 1.26152 0.944643 0
M  V30 1496 C 140.181 1.12708 1.70517 0
M  V30 1497 C 140.545 -0.324727 1.89234 0
M  V30 1498 O 141.746 -0.581211 2.62441 0
M  V30 1499 C 140.017 1.8713 3.04495 0
M  V30 1500 S 141.576 1.89698 3.95677 0
M  V30 1501 H 138.394 0.402665 0.585988 0
M  V30 1502 H 140.996 1.59821 1.12594 0
M  V30 1503 H 139.7 2.91833 2.88551 0
M  V30 1504 H 139.231 1.40444 3.67477 0
M  V30 1505 H 141.246 0.981198 4.86402 0
M  V30 1506 N 140.419 -1.14872 1.07899 0
M  V30 1507 C 141.351 -2.19425 0.662231 0
M  V30 1508 C 142.364 -1.60231 -0.288079 0
M  V30 1509 O 143.553 -1.78336 -0.076534 0
M  V30 1510 C 140.653 -3.38867 -0.0470695 0
M  V30 1511 C 139.826 -4.27597 0.920831 0
M  V30 1512 C 138.885 -5.25616 0.247805 0
M  V30 1513 O 137.911 -5.62189 0.890599 0
M  V30 1514 N 139.113 -5.71746 -1.00435 0
M  V30 1515 H 141.878 -2.55797 1.56166 0
M  V30 1516 H 139.439 -1.30042 0.964404 0
M  V30 1517 H 141.431 -4.01497 -0.50813 0
M  V30 1518 H 140.001 -3.00864 -0.848523 0
M  V30 1519 H 139.221 -3.61982 1.56087 0
M  V30 1520 H 140.509 -4.83748 1.57688 0
M  V30 1521 H 139.907 -5.44153 -1.54642 0
M  V30 1522 H 138.464 -6.36389 -1.40899 0
M  V30 1523 N 141.898 -0.863906 -1.31812 0
M  V30 1524 C 142.846 -0.30422 -2.30602 0
M  V30 1525 C 143.84 0.577419 -1.59255 0
M  V30 1526 O 145.046 0.464194 -1.73912 0
M  V30 1527 H 141.421 -0.0796877 -0.747766 0
M  V30 1528 H 143.392 -1.15148 -2.75288 0
M  V30 1529 C 142.141 0.484617 -3.44306 0
M  V30 1530 H 141.464 -0.18451 -3.99374 0
M  V30 1531 H 142.904 0.841664 -4.15562 0
M  V30 1532 C 141.363 1.6735 -2.92396 0
M  V30 1533 O 141.893 2.77273 -2.90659 0
M  V30 1534 N 140.099 1.50362 -2.48676 0
M  V30 1535 H 139.646 0.609402 -2.50288 0
M  V30 1536 H 139.604 2.30051 -2.14299 0
M  V30 1537 N 143.376 1.44774 -0.622745 0
M  V30 1538 C 144.308 2.28856 0.125485 0
M  V30 1539 C 145.321 1.40811 0.817069 0
M  V30 1540 O 146.51 1.65044 0.679918 0
M  V30 1541 C 143.61 3.16963 1.19949 0
M  V30 1542 C 142.783 4.33374 0.592064 0
M  V30 1543 C 141.842 5.02577 1.55893 0
M  V30 1544 O 140.868 5.58873 1.07933 0
M  V30 1545 N 142.07 5.03256 2.89334 0
M  V30 1546 H 144.835 2.93713 -0.596068 0
M  V30 1547 H 142.396 1.55129 -0.463303 0
M  V30 1548 H 144.388 3.60123 1.84644 0
M  V30 1549 H 142.958 2.53913 1.82337 0
M  V30 1550 H 142.178 3.93509 -0.233322 0
M  V30 1551 H 143.466 5.08527 0.166738 0
M  V30 1552 H 142.864 4.58836 3.30887 0
M  V30 1553 H 141.421 5.50232 3.49412 0
M  V30 1554 N 144.854 0.36279 1.53368 0
M  V30 1555 C 146.102 -0.227326 2.00817 0
M  V30 1556 C 146.423 -1.49511 1.25186 0
M  V30 1557 O 145.693 -1.92482 0.364348 0
M  V30 1558 H 144.273 -0.0869923 0.741917 0
M  V30 1559 H 146.935 0.488381 1.88682 0
M  V30 1560 H 146.031 -0.456273 3.08747 0
M  V30 1561 N 146.332 -1.57332 0.0918853 0
M  V30 1562 C 147.279 -2.13847 -0.868211 0
M  V30 1563 C 148.249 -1.05618 -1.28196 0
M  V30 1564 O 149.434 -1.33387 -1.36427 0
M  V30 1565 C 146.574 -2.72062 -2.12312 0
M  V30 1566 C 145.687 -3.94514 -1.7602 0
M  V30 1567 C 144.822 -4.40903 -2.96273 0
M  V30 1568 C 143.861 -5.55953 -2.56092 0
M  V30 1569 N 142.998 -5.97209 -3.69169 0
M  V30 1570 H 147.838 -2.95575 -0.379406 0
M  V30 1571 H 145.375 -1.46048 -0.175606 0
M  V30 1572 H 147.333 -3.03931 -2.858 0
M  V30 1573 H 145.963 -1.93068 -2.58698 0
M  V30 1574 H 145.015 -3.68979 -0.925135 0
M  V30 1575 H 146.327 -4.7802 -1.42472 0
M  V30 1576 H 145.481 -4.74539 -3.78018 0
M  V30 1577 H 144.22 -3.56291 -3.33029 0
M  V30 1578 H 143.225 -5.21948 -1.72773 0
M  V30 1579 H 144.45 -6.42311 -2.20484 0
M  V30 1580 H 142.396 -5.15543 -4.05649 0
M  V30 1581 H 142.313 -6.75504 -3.39456 0
M  V30 1582 H 143.581 -6.35475 -4.51434 0
M  V30 1583 N 147.81 0.181792 -1.56548 0
M  V30 1584 C 149.05 0.906711 -1.83189 0
M  V30 1585 C 149.414 1.79882 -0.671312 0
M  V30 1586 O 150.615 2.56054 -0.81792 0
M  V30 1587 C 148.886 1.69023 -3.14906 0
M  V30 1588 S 150.445 2.46535 -3.62996 0
M  V30 1589 H 147.263 0.303877 -0.642791 0
M  V30 1590 H 149.865 0.169107 -1.94767 0
M  V30 1591 H 148.569 1.02571 -3.97376 0
M  V30 1592 H 148.1 2.46941 -3.06241 0
M  V30 1593 H 150.115 3.71014 -3.29489 0
M  V30 1594 N 149.288 1.51039 0.449983 0
M  V30 1595 C 150.235 1.71439 1.54523 0
M  V30 1596 C 151.205 0.555871 1.56522 0
M  V30 1597 O 152.39 0.788871 1.73728 0
M  V30 1598 C 149.53 1.83384 2.92343 0
M  V30 1599 C 148.643 3.10873 2.9997 0
M  V30 1600 C 147.778 3.13488 4.28834 0
M  V30 1601 C 146.817 4.35343 4.30282 0
M  V30 1602 N 145.954 4.35579 5.5065 0
M  V30 1603 H 150.794 2.64934 1.36433 0
M  V30 1604 H 148.331 1.31312 0.662982 0
M  V30 1605 H 150.289 1.88291 3.72293 0
M  V30 1606 H 148.919 0.933086 3.0902 0
M  V30 1607 H 147.971 3.15336 2.12761 0
M  V30 1608 H 149.283 4.00814 2.96901 0
M  V30 1609 H 148.437 3.17241 5.17149 0
M  V30 1610 H 147.176 2.21414 4.34543 0
M  V30 1611 H 146.181 4.3178 3.40362 0
M  V30 1612 H 147.406 5.28668 4.26248 0
M  V30 1613 H 145.352 3.46369 5.57104 0
M  V30 1614 H 145.269 5.19313 5.49409 0
M  V30 1615 H 146.537 4.43507 6.41032 0
M  V30 1616 N 150.766 -0.704594 1.40972 0
M  V30 1617 C 152.043 -1.45847 1.30338 0
M  V30 1618 C 152.423 -2.10973 -0.0732344 0
M  V30 1619 O 151.771 -2.00997 -1.08685 0
M  V30 1620 C 151.981 -2.48525 2.45023 0
M  V30 1621 C 153.329 -3.1404 2.8577 0
M  V30 1622 O 154.353 -2.58848 2.44696 0
M  V30 1623 O 153.212 -4.13981 3.56766 0
M  V30 1624 H 150.306 -0.649092 0.512454 0
M  V30 1625 H 152.852 -0.735836 1.52917 0
M  V30 1626 H 151.624 -1.98994 3.36923 0
M  V30 1627 H 151.247 -3.2831 2.24272 0
M  V30 1628 N 152.244 -1.26651 -0.937939 0
M  V30 1629 C 153.492 -1.12165 -1.68118 0
M  V30 1630 C 153.813 0.334983 -1.92101 0
M  V30 1631 O 153.083 1.23583 -1.52 0
M  V30 1632 H 151.663 -0.412093 -0.623048 0
M  V30 1633 H 154.325 -1.59027 -1.12678 0
M  V30 1634 H 153.421 -1.64289 -2.6536 0
M  V30 1635 N 153.722 1.14298 -1.08507 0
M  V30 1636 C 154.652 2.21542 -0.737646 0
M  V30 1637 C 155.633 1.67773 0.280377 0
M  V30 1638 O 156.818 1.93616 0.150521 0
M  V30 1639 C 153.948 3.46988 -0.147259 0
M  V30 1640 C 152.902 4.13789 -1.09374 0
M  V30 1641 C 152.228 5.33449 -0.365524 0
M  V30 1642 C 153.528 4.62208 -2.4323 0
M  V30 1643 H 155.222 2.5086 -1.6343 0
M  V30 1644 H 152.768 1.20576 -0.787243 0
M  V30 1645 H 154.721 4.21262 0.107808 0
M  V30 1646 H 153.445 3.17037 0.784538 0
M  V30 1647 H 152.104 3.4147 -1.33393 0
M  V30 1648 H 151.752 4.99759 0.57011 0
M  V30 1649 H 151.452 5.79088 -0.996512 0
M  V30 1650 H 152.976 6.10485 -0.118534 0
M  V30 1651 H 154.39 5.27952 -2.23472 0
M  V30 1652 H 152.787 5.18553 -3.02031 0
M  V30 1653 H 153.857 3.77224 -3.04681 0
M  V30 1654 N 155.201 0.870884 1.31352 0
M  V30 1655 C 156.449 0.48132 1.96285 0
M  V30 1656 C 156.77 -0.969813 1.69173 0
M  V30 1657 O 156.04 -1.67998 1.00764 0
M  V30 1658 H 154.62 0.175002 0.726212 0
M  V30 1659 H 157.282 1.11087 1.60143 0
M  V30 1660 H 156.378 0.639825 3.05471 0
M  V30 1661 N 156.679 -1.44442 0.630414 0
M  V30 1662 C 157.589 -2.34476 -0.0761693 0
M  V30 1663 C 158.605 -1.52576 -0.836449 0
M  V30 1664 O 159.781 -1.85307 -0.788874 0
M  V30 1665 C 156.846 -3.30545 -1.04599 0
M  V30 1666 C 155.907 -4.28352 -0.28516 0
M  V30 1667 C 155.14 -5.19831 -1.20878 0
M  V30 1668 O 155.363 -5.15223 -2.44747 0
M  V30 1669 O 154.297 -5.97892 -0.693491 0
M  V30 1670 H 158.123 -2.96345 0.664324 0
M  V30 1671 H 155.708 -1.44203 0.39061 0
M  V30 1672 H 157.59 -3.89681 -1.60396 0
M  V30 1673 H 156.265 -2.7121 -1.76711 0
M  V30 1674 H 155.172 -3.72764 0.315837 0
M  V30 1675 H 156.505 -4.90605 0.395924 0
M  V30 1676 N 158.157 -0.370918 -1.53173 0
M  V30 1677 C 159.387 0.217389 -2.05453 0
M  V30 1678 C 159.795 1.42568 -1.24382 0
M  V30 1679 O 159.138 1.81571 -0.278839 0
M  V30 1680 C 159.2 0.669827 -3.53205 0
M  V30 1681 C 158.864 -0.4225 -4.55043 0
M  V30 1682 C 159.861 -1.27407 -5.04047 0
M  V30 1683 C 157.546 -0.58427 -4.9889 0
M  V30 1684 C 159.54 -2.27271 -5.95505 0
M  V30 1685 C 157.227 -1.58627 -5.90153 0
M  V30 1686 C 158.225 -2.42892 -6.38351 0
M  V30 1687 O 157.913 -3.41382 -7.27814 0
M  V30 1688 H 157.645 0.0408171 -0.674767 0
M  V30 1689 H 160.199 -0.5292 -1.98466 0
M  V30 1690 H 158.429 1.4681 -3.57748 0
M  V30 1691 H 160.118 1.18173 -3.88317 0
M  V30 1692 H 160.884 -1.16031 -4.70916 0
M  V30 1693 H 156.763 0.061851 -4.60959 0
M  V30 1694 H 160.307 -2.93079 -6.33049 0
M  V30 1695 H 156.204 -1.70048 -6.22699 0
M  V30 1696 H 156.972 -3.37173 -7.45826 0
M  V30 1697 N 159.635 1.57281 -0.100228 0
M  V30 1698 C 160.863 1.98879 0.570509 0
M  V30 1699 C 161.278 0.979476 1.61405 0
M  V30 1700 O 160.635 -0.0302288 1.82475 0
M  V30 1701 C 160.686 3.4052 1.2136 0
M  V30 1702 O 160.407 4.37588 0.211786 0
M  V30 1703 C 161.908 3.97149 1.96945 0
M  V30 1704 H 159.128 0.653428 0.152555 0
M  V30 1705 H 161.672 2.03697 -0.18103 0
M  V30 1706 H 159.827 3.367 1.91603 0
M  V30 1707 H 160.241 5.20118 0.676607 0
M  V30 1708 H 161.715 4.98393 2.37294 0
M  V30 1709 H 162.192 3.3525 2.83733 0
M  V30 1710 H 162.798 4.04458 1.31506 0
M  V30 1711 N 161.113 -0.173488 1.56642 0
M  V30 1712 C 162.353 -0.896984 1.83667 0
M  V30 1713 C 162.717 -1.79523 0.680842 0
M  V30 1714 O 163.918 -2.55616 0.831488 0
M  V30 1715 C 162.189 -1.67351 3.15798 0
M  V30 1716 S 163.748 -2.44607 3.64298 0
M  V30 1717 H 160.566 -0.300464 0.644393 0
M  V30 1718 H 163.168 -0.158775 1.94854 0
M  V30 1719 H 161.872 -1.00462 3.97914 0
M  V30 1720 H 161.403 -2.45313 3.07546 0
M  V30 1721 H 163.418 -3.69261 3.31452 0
M  V30 1722 N 162.591 -1.51276 -0.441967 0
M  V30 1723 C 163.819 -1.67516 -1.21434 0
M  V30 1724 C 164.234 -0.37055 -1.85128 0
M  V30 1725 O 163.591 0.650498 -1.70513 0
M  V30 1726 C 163.642 -2.78748 -2.30177 0
M  V30 1727 O 163.363 -4.04154 -1.69089 0
M  V30 1728 C 164.864 -3.06217 -3.20541 0
M  V30 1729 H 162.084 -0.562276 -0.366178 0
M  V30 1730 H 164.628 -1.97666 -0.524244 0
M  V30 1731 H 162.783 -2.5121 -2.94911 0
M  V30 1732 H 163.197 -4.65894 -2.40922 0
M  V30 1733 H 164.671 -3.8764 -3.92987 0
M  V30 1734 H 165.148 -2.18439 -3.81026 0
M  V30 1735 H 165.754 -3.35397 -2.61513 0
M  V30 1736 N 164.069 0.697108 -1.41344 0
M  V30 1737 C 165.309 1.46939 -1.42085 0
M  V30 1738 C 165.673 1.9198 -0.0280397 0
M  V30 1739 O 166.874 2.6865 0.0897504 0
M  V30 1740 C 165.145 2.64985 -2.39828 0
M  V30 1741 S 166.704 3.54147 -2.59085 0
M  V30 1742 H 163.522 0.502146 -0.503359 0
M  V30 1743 H 166.124 0.813546 -1.77769 0
M  V30 1744 H 164.828 2.30098 -3.39828 0
M  V30 1745 H 164.359 3.35464 -2.05493 0
M  V30 1746 H 166.374 4.60137 -1.85711 0
M  V30 1747 N 165.547 1.27147 0.931209 0
M  V30 1748 C 166.477 1.12081 2.04842 0
M  V30 1749 C 167.458 0.0232364 1.70084 0
M  V30 1750 O 168.643 0.197085 1.93197 0
M  V30 1751 C 165.773 0.76354 3.38803 0
M  V30 1752 C 164.727 1.81396 3.87659 0
M  V30 1753 C 164.053 1.31075 5.18385 0
M  V30 1754 C 165.353 3.21739 4.11438 0
M  V30 1755 H 167.047 2.05537 2.17703 0
M  V30 1756 H 164.593 0.989603 1.04608 0
M  V30 1757 H 166.546 0.644982 4.16435 0
M  V30 1758 H 165.27 -0.206727 3.25945 0
M  V30 1759 H 163.929 1.92136 3.12217 0
M  V30 1760 H 163.577 0.330037 5.01916 0
M  V30 1761 H 163.277 2.013 5.52044 0
M  V30 1762 H 164.801 1.20506 5.98591 0
M  V30 1763 H 166.215 3.14019 4.79651 0
M  V30 1764 H 164.612 3.89644 4.56397 0
M  V30 1765 H 165.682 3.67054 3.16859 0
M  V30 1766 N 167.025 -1.13721 1.09112 0
M  V30 1767 C 167.935 -2.22638 0.73957 0
M  V30 1768 C 168.951 -1.72091 -0.257068 0
M  V30 1769 O 170.127 -2.01155 -0.0992154 0
M  V30 1770 C 167.192 -3.46322 0.16191 0
M  V30 1771 C 166.253 -4.11775 1.21408 0
M  V30 1772 C 165.486 -5.29555 0.663891 0
M  V30 1773 O 165.709 -5.68077 -0.514274 0
M  V30 1774 O 164.643 -5.84973 1.41738 0
M  V30 1775 H 168.469 -2.55074 1.64836 0
M  V30 1776 H 166.054 -1.21791 0.865289 0
M  V30 1777 H 167.936 -4.21107 -0.157073 0
M  V30 1778 H 166.611 -3.15593 -0.719932 0
M  V30 1779 H 165.518 -3.3883 1.58571 0
M  V30 1780 H 166.851 -4.46627 2.06845 0
M  V30 1781 N 168.503 -0.877838 -1.30888 0
M  V30 1782 C 169.751 -0.491723 -1.96027 0
M  V30 1783 C 170.072 0.960827 -1.69685 0
M  V30 1784 O 169.342 1.67462 -1.01654 0
M  V30 1785 H 167.922 -0.17885 -0.725273 0
M  V30 1786 H 170.584 -1.11935 -1.59551 0
M  V30 1787 H 169.68 -0.656016 -3.05128 0
M  V30 1788 N 169.982 1.44106 -0.638065 0
M  V30 1789 C 171.229 2.01978 -0.14533 0
M  V30 1790 C 171.557 1.50234 1.23532 0
M  V30 1791 O 170.812 0.679548 1.83523 0
M  V30 1792 C 171.111 3.5729 -0.0887327 0
M  V30 1793 C 170.777 4.28317 -1.40909 0
M  V30 1794 C 169.439 4.47437 -1.77069 0
M  V30 1795 C 171.791 4.6867 -2.28031 0
M  V30 1796 C 169.119 5.04171 -3.00047 0
M  V30 1797 C 171.471 5.26766 -3.50286 0
M  V30 1798 C 170.135 5.44104 -3.86661 0
M  V30 1799 H 169.405 0.739089 -0.0531801 0
M  V30 1800 H 172.052 1.72781 -0.825761 0
M  V30 1801 H 170.357 3.8594 0.675095 0
M  V30 1802 H 172.054 3.99807 0.309145 0
M  V30 1803 H 168.644 4.1377 -1.1177 0
M  V30 1804 H 172.828 4.53604 -2.01388 0
M  V30 1805 H 168.084 5.15782 -3.28298 0
M  V30 1806 H 172.258 5.56983 -4.18023 0
M  V30 1807 H 169.885 5.87832 -4.82034 0
M  V30 1808 N 171.46 0.379036 1.52974 0
M  V30 1809 C 172.37 -0.468639 2.29872 0
M  V30 1810 C 173.386 -1.08067 1.36373 0
M  V30 1811 O 174.562 -1.08871 1.69438 0
M  V30 1812 C 171.627 -1.58594 3.083 0
M  V30 1813 C 170.688 -1.00007 4.17489 0
M  V30 1814 C 169.921 -2.06413 4.92168 0
M  V30 1815 O 170.144 -3.27751 4.66835 0
M  V30 1816 O 169.078 -1.68717 5.7777 0
M  V30 1817 H 172.904 0.157508 3.03291 0
M  V30 1818 H 170.489 0.143035 1.48714 0
M  V30 1819 H 172.371 -2.23525 3.57232 0
M  V30 1820 H 171.046 -2.19724 2.37703 0
M  V30 1821 H 169.953 -0.314299 3.72777 0
M  V30 1822 H 171.286 -0.433135 4.90291 0
M  V30 1823 N 172.938 -1.57226 0.108567 0
M  V30 1824 C 174.186 -1.94448 -0.550853 0
M  V30 1825 C 174.507 -0.992074 -1.67878 0
M  V30 1826 O 173.777 -0.0465 -1.95845 0
M  V30 1827 H 172.357 -0.717897 -0.206479 0
M  V30 1828 H 175.019 -1.94112 0.175062 0
M  V30 1829 H 174.115 -2.97218 -0.952259 0
M  V30 1830 N 174.416 0.165178 -1.56732 0
M  V30 1831 C 175.363 1.2044 -1.96883 0
M  V30 1832 C 176.333 1.43664 -0.833657 0
M  V30 1833 O 177.518 1.56302 -1.09427 0
M  V30 1834 C 174.658 2.53727 -2.33916 0
M  V30 1835 C 173.771 2.3783 -3.6064 0
M  V30 1836 C 172.906 3.64026 -3.86857 0
M  V30 1837 C 171.945 3.43088 -5.06909 0
M  V30 1838 N 171.082 4.61369 -5.29229 0
M  V30 1839 H 175.922 0.854996 -2.85471 0
M  V30 1840 H 173.459 0.41076 -1.41249 0
M  V30 1841 H 175.417 3.31419 -2.53411 0
M  V30 1842 H 174.047 2.8665 -1.48431 0
M  V30 1843 H 173.099 1.51282 -3.49024 0
M  V30 1844 H 174.411 2.18308 -4.4849 0
M  V30 1845 H 173.565 4.50152 -4.06753 0
M  V30 1846 H 172.304 3.86533 -2.97394 0
M  V30 1847 H 171.309 2.55349 -4.86906 0
M  V30 1848 H 172.534 3.21997 -5.97909 0
M  V30 1849 H 170.48 4.84084 -4.42718 0
M  V30 1850 H 170.397 4.44783 -6.11313 0
M  V30 1851 H 171.665 5.48761 -5.53608 0
M  V30 1852 N 175.894 1.51508 0.433938 0
M  V30 1853 C 176.842 1.73646 1.54757 0
M  V30 1854 C 177.836 0.602854 1.5831 0
M  V30 1855 O 179.042 0.784318 1.62014 0
M  V30 1856 H 175.417 0.548718 0.51421 0
M  V30 1857 H 177.388 2.66991 1.33261 0
M  V30 1858 C 176.137 1.88172 2.92381 0
M  V30 1859 H 175.46 2.74808 2.90381 0
M  V30 1860 H 176.9 2.07672 3.6966 0
M  V30 1861 C 175.359 0.64239 3.30719 0
M  V30 1862 O 175.889 -0.201362 4.01195 0
M  V30 1863 N 174.095 0.485489 2.86516 0
M  V30 1864 H 173.642 1.17318 2.29334 0
M  V30 1865 H 173.6 -0.342482 3.12529 0
M  V30 1866 N 177.372 -0.689602 1.41712 0
M  V30 1867 C 178.612 -1.46184 1.42862 0
M  V30 1868 C 178.976 -1.91962 0.0382204 0
M  V30 1869 O 180.177 -2.68694 -0.0755019 0
M  V30 1870 C 178.448 -2.6371 2.4123 0
M  V30 1871 S 180.007 -3.52768 2.6096 0
M  V30 1872 H 176.825 -0.49947 0.506015 0
M  V30 1873 H 179.427 -0.804107 1.78198 0
M  V30 1874 H 178.131 -2.28293 3.41044 0
M  V30 1875 H 177.662 -3.3437 2.07269 0
M  V30 1876 H 179.677 -4.59146 1.88148 0
M  V30 1877 N 178.85 -1.27639 -0.924453 0
M  V30 1878 C 179.76 -1.12466 -2.05885 0
M  V30 1879 C 180.776 -0.053869 -1.73917 0
M  V30 1880 O 181.952 -0.261012 -1.99702 0
M  V30 1881 C 179.017 -0.776768 -3.37886 0
M  V30 1882 C 178.078 -1.92878 -3.83532 0
M  V30 1883 C 177.311 -1.59739 -5.09234 0
M  V30 1884 O 177.534 -0.506782 -5.68144 0
M  V30 1885 O 176.468 -2.43761 -5.50331 0
M  V30 1886 H 180.294 -2.07671 -2.21599 0
M  V30 1887 H 177.879 -1.06857 -1.04413 0
M  V30 1888 H 179.761 -0.596229 -4.17161 0
M  V30 1889 H 178.436 0.145732 -3.23372 0
M  V30 1890 H 177.343 -2.1644 -3.0513 0
M  V30 1891 H 178.676 -2.8316 -4.02593 0
M  V30 1892 N 180.328 1.1314 -1.09713 0
M  V30 1893 C 181.258 2.20748 -0.761102 0
M  V30 1894 C 182.239 1.68061 0.262566 0
M  V30 1895 O 183.424 1.93765 0.129977 0
M  V30 1896 C 180.554 3.46812 -0.184054 0
M  V30 1897 C 179.508 4.12606 -1.13757 0
M  V30 1898 C 178.834 5.33031 -0.422083 0
M  V30 1899 C 180.134 4.59603 -2.48118 0
M  V30 1900 H 181.828 2.49113 -1.66082 0
M  V30 1901 H 179.374 1.19734 -0.799987 0
M  V30 1902 H 181.327 4.21353 0.0631215 0
M  V30 1903 H 180.051 3.17851 0.750868 0
M  V30 1904 H 178.71 3.40036 -1.37007 0
M  V30 1905 H 178.358 5.00335 0.517072 0
M  V30 1906 H 178.058 5.77999 -1.05788 0
M  V30 1907 H 179.582 6.10325 -0.183277 0
M  V30 1908 H 180.996 5.25552 -2.29059 0
M  V30 1909 H 179.393 5.15321 -3.07514 0
M  V30 1910 H 180.463 3.73971 -3.08665 0
M  V30 1911 N 181.806 0.884767 1.30421 0
M  V30 1912 C 183.053 0.503105 1.96151 0
M  V30 1913 C 183.381 -0.947676 1.69851 0
M  V30 1914 O 182.636 -1.68467 0.995861 0
M  V30 1915 C 182.935 0.724318 3.49983 0
M  V30 1916 C 182.601 2.15015 3.96332 0
M  V30 1917 C 181.263 2.54005 4.08699 0
M  V30 1918 C 183.615 3.07936 4.20505 0
M  V30 1919 C 180.943 3.85128 4.42599 0
M  V30 1920 C 183.295 4.3859 4.55874 0
M  V30 1921 C 181.959 4.77474 4.66449 0
M  V30 1922 H 181.229 0.184099 0.717766 0
M  V30 1923 H 183.876 1.12058 1.55291 0
M  V30 1924 H 182.181 0.0238086 3.91793 0
M  V30 1925 H 183.878 0.408617 3.98913 0
M  V30 1926 H 180.468 1.8375 3.87213 0
M  V30 1927 H 184.652 2.79033 4.10431 0
M  V30 1928 H 179.908 4.14996 4.48986 0
M  V30 1929 H 184.082 5.10629 4.7353 0
M  V30 1930 H 181.709 5.79115 4.92473 0
M  V30 1931 N 183.284 -1.43765 0.645699 0
M  V30 1932 C 184.512 -2.06253 0.163556 0
M  V30 1933 C 184.927 -1.48352 -1.16778 0
M  V30 1934 O 184.284 -0.611932 -1.71935 0
M  V30 1935 C 184.335 -3.61453 0.0583186 0
M  V30 1936 O 184.056 -4.172 1.33702 0
M  V30 1937 C 185.557 -4.41002 -0.450795 0
M  V30 1938 H 182.777 -0.665413 0.0864077 0
M  V30 1939 H 185.321 -1.84396 0.884222 0
M  V30 1940 H 183.476 -3.82522 -0.612865 0
M  V30 1941 H 183.89 -5.10791 1.19131 0
M  V30 1942 H 185.364 -5.49966 -0.473403 0
M  V30 1943 H 185.841 -4.13488 -1.48068 0
M  V30 1944 H 186.447 -4.24886 0.187637 0
M  V30 1945 N 184.763 -0.387143 -1.52771 0
M  V30 1946 C 186.179 -0.037007 -1.59557 0
M  V30 1947 C 186.379 1.44801 -1.40124 0
M  V30 1948 O 185.435 2.21227 -1.21716 0
M  V30 1949 C 186.748 -0.512256 -2.96305 0
M  V30 1950 C 188.296 -0.468328 -3.09476 0
M  V30 1951 C 188.771 -0.919731 -4.4867 0
M  V30 1952 N 190.262 -0.875656 -4.54848 0
M  V30 1953 C 190.997 -1.19637 -5.6078 0
M  V30 1954 N 190.493 -1.58745 -6.74368 0
M  V30 1955 N 192.286 -1.11776 -5.50874 0
M  V30 1956 H 184.437 -1.35395 -1.63652 0
M  V30 1957 H 186.7 -0.554818 -0.768688 0
M  V30 1958 H 186.406 -1.54935 -3.15734 0
M  V30 1959 H 186.28 0.089805 -3.77093 0
M  V30 1960 H 188.667 0.559671 -2.89744 0
M  V30 1961 H 188.748 -1.10616 -2.30646 0
M  V30 1962 H 188.392 -1.94595 -4.69143 0
M  V30 1963 H 188.322 -0.258927 -5.25963 0
M  V30 1964 H 190.813 -0.587843 -3.733 0
M  V30 1965 H 191.126 -1.81586 -7.51163 0
M  V30 1966 H 189.471 -1.6263 -6.75705 0
M  V30 1967 H 192.662 -0.811264 -4.61016 0
M  V30 1968 H 192.835 -1.37103 -6.3333 0
M  V30 1969 N 186.241 1.57166 -0.116904 0
M  V30 1970 C 187.188 2.15202 0.83408 0
M  V30 1971 C 188.158 1.07644 1.26499 0
M  V30 1972 O 189.343 1.35541 1.34288 0
M  V30 1973 C 186.483 2.75405 2.07957 0
M  V30 1974 C 185.596 3.97264 1.69721 0
M  V30 1975 C 184.731 4.45561 2.89221 0
M  V30 1976 C 183.77 5.59956 2.47215 0
M  V30 1977 N 182.907 6.03006 3.59622 0
M  V30 1978 H 187.747 2.96141 0.332335 0
M  V30 1979 H 185.284 1.46309 0.152349 0
M  V30 1980 H 187.242 3.08439 2.80929 0
M  V30 1981 H 185.872 1.97159 2.55594 0
M  V30 1982 H 184.924 3.70404 0.866316 0
M  V30 1983 H 186.236 4.80226 1.34849 0
M  V30 1984 H 185.39 4.80493 3.7042 0
M  V30 1985 H 184.129 3.61544 3.27318 0
M  V30 1986 H 183.134 5.2463 1.64448 0
M  V30 1987 H 184.359 6.45738 2.10238 0
M  V30 1988 H 182.305 5.21931 3.97396 0
M  V30 1989 H 182.222 6.80819 3.28667 0
M  V30 1990 H 183.49 6.42576 4.41267 0
M  V30 1991 N 187.719 -0.156864 1.56817 0
M  V30 1992 C 188.649 -1.19589 2.00551 0
M  V30 1993 C 189.63 -1.4536 0.883426 0
M  V30 1994 O 190.815 -1.56449 1.15054 0
M  V30 1995 C 187.945 -2.53143 2.37773 0
M  V30 1996 C 186.899 -2.41913 3.53075 0
M  V30 1997 C 186.225 -3.80088 3.76081 0
M  V30 1998 C 187.525 -1.91157 4.86062 0
M  V30 1999 H 189.219 -0.832293 2.87599 0
M  V30 2000 H 186.765 -0.398918 1.38364 0
M  V30 2001 H 188.718 -3.26047 2.66967 0
M  V30 2002 H 187.442 -2.91319 1.4765 0
M  V30 2003 H 186.101 -1.71462 3.24031 0
M  V30 2004 H 185.749 -4.15683 2.83225 0
M  V30 2005 H 185.449 -3.73439 4.53671 0
M  V30 2006 H 186.973 -4.54556 4.0769 0
M  V30 2007 H 188.387 -2.53846 5.14038 0
M  V30 2008 H 186.784 -1.95422 5.67389 0
M  V30 2009 H 187.854 -0.866673 4.77092 0
M  V30 2010 N 189.197 -1.51736 -0.425897 0
M  V30 2011 C 190.437 -1.66636 -1.18371 0
M  V30 2012 C 190.801 -0.379854 -1.88205 0
M  V30 2013 O 192.002 -0.404758 -2.65735 0
M  V30 2014 C 190.273 -2.84382 -2.16476 0
M  V30 2015 S 191.832 -3.19673 -3.0059 0
M  V30 2016 H 188.65 -0.586957 -0.40125 0
M  V30 2017 H 191.252 -1.89679 -0.473518 0
M  V30 2018 H 189.956 -3.76281 -1.63831 0
M  V30 2019 H 189.487 -2.63562 -2.92059 0
M  V30 2020 H 191.502 -2.66994 -4.18245 0
M  V30 2021 N 190.675 0.682077 -1.42076 0
M  V30 2022 C 191.9 1.47558 -1.45744 0
M  V30 2023 C 192.325 1.87977 -0.0680981 0
M  V30 2024 O 191.683 1.55522 0.9318 0
M  V30 2025 C 191.731 2.70575 -2.38373 0
M  V30 2026 O 190.835 3.68573 -1.85007 0
M  V30 2027 H 190.176 0.443585 -0.494093 0
M  V30 2028 H 192.706 0.837238 -1.86686 0
M  V30 2029 H 192.716 3.18729 -2.54707 0
M  V30 2030 H 191.391 2.40495 -3.39315 0
M  V30 2031 H 189.968 3.2757 -1.78192 0
M  V30 2032 N 192.153 1.28127 0.917671 0
M  V30 2033 C 193.083 1.14248 2.03641 0
M  V30 2034 C 194.064 0.0412748 1.7005 0
M  V30 2035 O 195.249 0.217566 1.92977 0
M  V30 2036 C 192.379 0.799431 3.37974 0
M  V30 2037 C 191.333 1.85497 3.85713 0
M  V30 2038 C 190.659 1.36565 5.16966 0
M  V30 2039 C 191.959 3.26085 4.08002 0
M  V30 2040 H 193.653 2.07835 2.15511 0
M  V30 2041 H 191.199 1.00064 1.03553 0
M  V30 2042 H 193.152 0.689114 4.15727 0
M  V30 2043 H 191.876 -0.172145 3.26146 0
M  V30 2044 H 190.535 1.95437 3.10161 0
M  V30 2045 H 190.183 0.383253 5.01538 0
M  V30 2046 H 189.883 2.07143 5.49878 0
M  V30 2047 H 191.407 1.26848 5.97279 0
M  V30 2048 H 192.821 3.19089 4.76293 0
M  V30 2049 H 191.218 3.94462 4.52238 0
M  V30 2050 H 192.288 3.70394 3.12948 0
M  V30 2051 N 193.631 -1.12557 1.10312 0
M  V30 2052 C 194.908 -1.80363 0.756878 0
M  V30 2053 C 195.288 -1.97067 -0.756824 0
M  V30 2054 O 194.636 -1.54601 -1.68259 0
M  V30 2055 C 194.846 -3.14812 1.50647 0
M  V30 2056 C 196.194 -3.90029 1.67817 0
M  V30 2057 O 197.218 -3.24464 1.46974 0
M  V30 2058 O 196.077 -5.07652 2.02365 0
M  V30 2059 H 193.171 -0.780667 0.272926 0
M  V30 2060 H 195.717 -1.19404 1.20586 0
M  V30 2061 H 194.489 -2.97936 2.53672 0
M  V30 2062 H 194.112 -3.83478 1.05026 0
M  V30 2063 N 195.109 -0.891671 -1.2995 0
M  V30 2064 C 196.057 -0.353066 -2.29905 0
M  V30 2065 C 197.051 0.543509 -1.60444 0
M  V30 2066 O 198.257 0.4272 -1.74857 0
M  V30 2067 H 194.632 -0.095531 -0.745907 0
M  V30 2068 H 196.603 -1.20961 -2.72784 0
M  V30 2069 C 195.352 0.411475 -3.45257 0
M  V30 2070 H 194.675 -0.269182 -3.98893 0
M  V30 2071 H 196.115 0.753328 -4.17254 0
M  V30 2072 C 194.574 1.6111 -2.9588 0
M  V30 2073 O 195.104 2.71045 -2.96475 0
M  V30 2074 N 193.31 1.45054 -2.51809 0
M  V30 2075 H 192.857 0.556175 -2.51524 0
M  V30 2076 H 192.815 2.25453 -2.1913 0
M  V30 2077 N 196.587 1.43421 -0.653314 0
M  V30 2078 C 197.835 2.01414 -0.166415 0
M  V30 2079 C 198.156 1.51803 1.22397 0
M  V30 2080 O 197.426 0.730693 1.81763 0
M  V30 2081 H 196.006 0.744703 -0.0585319 0
M  V30 2082 H 198.668 1.75629 -0.845003 0
M  V30 2083 H 197.764 3.11734 -0.151111 0
M  V30 2084 N 198.065 0.39524 1.52563 0
M  V30 2085 C 199.342 -0.242908 1.94086 0
M  V30 2086 C 199.722 -1.63841 1.33114 0
M  V30 2087 O 199.07 -2.22928 0.501529 0
M  V30 2088 C 199.28 -0.26327 3.48006 0
M  V30 2089 C 200.628 -0.489354 4.21771 0
M  V30 2090 O 201.652 -0.343226 3.54543 0
M  V30 2091 O 200.511 -0.776169 5.4096 0
M  V30 2092 H 197.605 -0.152536 0.812811 0
M  V30 2093 H 200.151 0.450178 1.6362 0
M  V30 2094 H 198.923 0.713985 3.84731 0
M  V30 2095 H 198.546 -1.00103 3.84792 0
M  V30 2096 N 199.544 -1.57102 0.125237 0
M  V30 2097 C 200.784 -1.97294 -0.534259 0
M  V30 2098 C 201.148 -1.0074 -1.63449 0
M  V30 2099 O 202.349 -1.29893 -2.35332 0
M  V30 2100 C 200.62 -3.41705 -1.04748 0
M  V30 2101 S 202.179 -4.03913 -1.71463 0
M  V30 2102 H 198.997 -0.689517 -0.173458 0
M  V30 2103 H 201.599 -1.94349 0.211797 0
M  V30 2104 H 200.303 -4.09723 -0.235649 0
M  V30 2105 H 199.834 -3.48315 -1.82867 0
M  V30 2106 H 201.849 -3.95182 -3.00077 0
M  V30 2107 N 201.022 0.148545 -1.56898 0
M  V30 2108 C 202.299 0.890019 -1.74178 0
M  V30 2109 C 202.679 1.99407 -0.692839 0
M  V30 2110 O 202.027 2.26671 0.288505 0
M  V30 2111 C 202.237 1.43389 -3.18183 0
M  V30 2112 C 203.585 1.89791 -3.79822 0
M  V30 2113 O 204.609 1.53134 -3.21603 0
M  V30 2114 O 203.468 2.57387 -4.82093 0
M  V30 2115 H 200.562 0.420496 -0.712118 0
M  V30 2116 H 203.108 0.134591 -1.69165 0
M  V30 2117 H 201.88 0.640383 -3.86024 0
M  V30 2118 H 201.503 2.25287 -3.27615 0
M  V30 2119 N 202.5 1.5196 0.417844 0
M  V30 2120 C 203.432 1.70895 1.52733 0
M  V30 2121 C 204.445 0.589405 1.51756 0
M  V30 2122 O 205.634 0.864312 1.56179 0
M  V30 2123 C 202.734 1.72627 2.91639 0
M  V30 2124 C 201.907 3.01479 3.16905 0
M  V30 2125 C 200.966 2.95139 4.35637 0
M  V30 2126 O 199.992 3.69059 4.3334 0
M  V30 2127 N 201.194 2.12328 5.40275 0
M  V30 2128 H 203.959 2.66612 1.36888 0
M  V30 2129 H 201.52 1.50089 0.607037 0
M  V30 2130 H 203.512 1.65928 3.6912 0
M  V30 2131 H 202.082 0.844216 3.00985 0
M  V30 2132 H 201.302 3.21895 2.27546 0
M  V30 2133 H 202.59 3.86736 3.30625 0
M  V30 2134 H 201.988 1.51685 5.44985 0
M  V30 2135 H 200.545 2.11494 6.16534 0
M  V30 2136 N 203.978 -0.674533 1.42435 0
M  V30 2137 C 205.225 -1.43459 1.42919 0
M  V30 2138 C 205.553 -1.94446 0.0457312 0
M  V30 2139 O 204.808 -1.7132 -0.94593 0
M  V30 2140 C 205.107 -2.64767 2.40069 0
M  V30 2141 C 204.773 -2.3232 3.86443 0
M  V30 2142 C 203.435 -2.23182 4.26314 0
M  V30 2143 C 205.787 -2.05977 4.78773 0
M  V30 2144 C 203.115 -1.85827 5.56494 0
M  V30 2145 C 205.467 -1.70125 6.09295 0
M  V30 2146 C 204.131 -1.59498 6.48164 0
M  V30 2147 H 203.401 -0.524952 0.522978 0
M  V30 2148 H 206.048 -0.769097 1.75377 0
M  V30 2149 H 204.353 -3.36349 2.00939 0
M  V30 2150 H 206.05 -3.22949 2.37707 0
M  V30 2151 H 202.64 -2.40334 3.54877 0
M  V30 2152 H 206.824 -2.11969 4.48757 0
M  V30 2153 H 202.08 -1.76168 5.8547 0
M  V30 2154 H 206.254 -1.48767 6.80324 0
M  V30 2155 H 203.881 -1.30322 7.48946 0
M  V30 2156 N 205.456 -1.28612 -0.910864 0
M  V30 2157 C 206.696 -1.1719 -1.67469 0
M  V30 2158 C 207.06 0.274441 -1.90028 0
M  V30 2159 O 208.261 0.511425 -2.6389 0
M  V30 2160 C 206.532 -1.95137 -2.99427 0
M  V30 2161 S 208.091 -2.00122 -3.90508 0
M  V30 2162 H 204.909 -0.41806 -0.575106 0
M  V30 2163 H 207.511 -1.6275 -1.08317 0
M  V30 2164 H 206.215 -2.99381 -2.80712 0
M  V30 2165 H 205.746 -1.50137 -3.63624 0
M  V30 2166 H 207.761 -1.10981 -4.8363 0
M  V30 2167 N 206.934 1.1197 -1.10907 0
M  V30 2168 C 207.884 2.15946 -0.731538 0
M  V30 2169 C 208.868 1.58758 0.261699 0
M  V30 2170 O 210.06 1.76863 0.0696722 0
M  V30 2171 C 207.189 3.42877 -0.170299 0
M  V30 2172 C 206.275 4.07037 -1.19087 0
M  V30 2173 N 206.666 4.46135 -2.38322 0
M  V30 2174 C 204.964 4.33884 -1.03252 0
M  V30 2175 C 205.665 4.96331 -3.03366 0
M  V30 2176 N 204.641 4.9214 -2.30865 0
M  V30 2177 H 208.443 2.43947 -1.63912 0
M  V30 2178 H 205.957 1.28927 -0.987505 0
M  V30 2179 H 207.954 4.16732 0.118271 0
M  V30 2180 H 206.614 3.16343 0.731935 0
M  V30 2181 H 207.625 4.38345 -2.75815 0
M  V30 2182 H 204.302 4.17084 -0.186256 0
M  V30 2183 H 205.692 5.36257 -4.04818 0
M  V30 2184 N 208.412 0.89855 1.29475 0
M  V30 2185 C 209.322 0.379974 2.31502 0
M  V30 2186 C 210.338 -0.524695 1.659 0
M  V30 2187 O 211.514 -0.414551 1.97087 0
M  V30 2188 C 208.579 -0.385138 3.44554 0
M  V30 2189 C 207.64 0.550914 4.2575 0
M  V30 2190 C 206.873 -0.177778 5.33404 0
M  V30 2191 O 207.096 -1.40189 5.52904 0
M  V30 2192 O 206.03 0.479106 5.9999 0
M  V30 2193 H 209.856 1.22639 2.77837 0
M  V30 2194 H 207.441 0.662834 1.33891 0
M  V30 2195 H 209.323 -0.817841 4.13388 0
M  V30 2196 H 207.998 -1.20763 3.0033 0
M  V30 2197 H 206.905 1.03271 3.59564 0
M  V30 2198 H 208.238 1.33979 4.73614 0
M  V30 2199 N 209.89 -1.43072 0.660911 0
M  V30 2200 C 210.8 -2.34585 -0.0264163 0
M  V30 2201 C 211.816 -1.54316 -0.803898 0
M  V30 2202 O 212.992 -1.86939 -0.749391 0
M  V30 2203 C 210.057 -3.32689 -0.975639 0
M  V30 2204 C 209.118 -4.2886 -0.194236 0
M  V30 2205 C 208.351 -5.22278 -1.09825 0
M  V30 2206 O 208.574 -5.20299 -2.33763 0
M  V30 2207 O 207.508 -5.99228 -0.566513 0
M  V30 2208 H 211.334 -2.94869 0.727034 0
M  V30 2209 H 208.919 -1.43342 0.42111 0
M  V30 2210 H 210.801 -3.92995 -1.52094 0
M  V30 2211 H 209.476 -2.74898 -1.70918 0
M  V30 2212 H 208.383 -3.72011 0.394835 0
M  V30 2213 H 209.716 -4.89655 0.499899 0
M  V30 2214 N 211.368 -0.403325 -1.52352 0
M  V30 2215 C 212.3 0.4603 -2.2453 0
M  V30 2216 C 213.313 1.01505 -1.27282 0
M  V30 2217 O 214.502 0.914982 -1.53266 0
M  V30 2218 C 211.602 1.65208 -2.95905 0
M  V30 2219 C 210.775 1.22224 -4.19976 0
M  V30 2220 C 209.834 2.28028 -4.74226 0
M  V30 2221 O 208.86 1.88857 -5.36956 0
M  V30 2222 N 210.062 3.6012 -4.55295 0
M  V30 2223 H 212.827 -0.158156 -2.99282 0
M  V30 2224 H 210.388 -0.230402 -1.60252 0
M  V30 2225 H 212.38 2.35541 -3.29093 0
M  V30 2226 H 210.95 2.17658 -2.24374 0
M  V30 2227 H 210.17 0.34725 -3.92668 0
M  V30 2228 H 211.458 0.911924 -5.00561 0
M  V30 2229 H 210.856 3.94698 -4.05253 0
M  V30 2230 H 209.413 4.26447 -4.92936 0
M  V30 2231 N 212.846 1.57033 -0.133567 0
M  V30 2232 C 213.794 2.17348 0.828412 0
M  V30 2233 C 214.788 1.12671 1.26498 0
M  V30 2234 O 215.994 1.30947 1.23502 0
M  V30 2235 H 212.369 0.695775 0.285309 0
M  V30 2236 H 214.34 2.96935 0.295372 0
M  V30 2237 C 213.089 2.79893 2.06289 0
M  V30 2238 H 212.412 3.60147 1.73592 0
M  V30 2239 H 213.852 3.25615 2.71572 0
M  V30 2240 C 212.311 1.77713 2.86216 0
M  V30 2241 O 212.841 1.23937 3.82103 0
M  V30 2242 N 211.047 1.47321 2.50489 0
M  V30 2243 H 210.594 1.91243 1.7258 0
M  V30 2244 H 210.552 0.79199 3.04261 0
M  V30 2245 N 214.325 -0.140222 1.56975 0
M  V30 2246 C 215.55 -0.870414 1.88251 0
M  V30 2247 C 215.975 -1.73637 0.723312 0
M  V30 2248 O 215.333 -1.78329 -0.32689 0
M  V30 2249 C 215.381 -1.69737 3.18154 0
M  V30 2250 O 214.485 -2.80229 3.02565 0
M  V30 2251 H 213.826 -0.242025 0.61832 0
M  V30 2252 H 216.356 -0.128999 2.04193 0
M  V30 2253 H 216.366 -2.09099 3.50345 0
M  V30 2254 H 215.041 -1.06152 4.02125 0
M  V30 2255 H 213.618 -2.44224 2.81796 0
M  V30 2256 N 215.803 -1.52179 -0.40978 0
M  V30 2257 C 217.049 -1.66453 -1.15851 0
M  V30 2258 C 217.382 -0.392972 -1.90182 0
M  V30 2259 O 216.657 0.608579 -1.84734 0
M  V30 2260 C 216.94 -2.88612 -2.15349 0
M  V30 2261 C 216.793 -4.25815 -1.44918 0
M  V30 2262 C 218.112 -3.06294 -3.16026 0
M  V30 2263 H 215.231 -0.60575 -0.419805 0
M  V30 2264 H 217.873 -1.84732 -0.444314 0
M  V30 2265 H 216.023 -2.73158 -2.76255 0
M  V30 2266 H 217.695 -4.52995 -0.871365 0
M  V30 2267 H 215.938 -4.27247 -0.751159 0
M  V30 2268 H 216.609 -5.07337 -2.17516 0
M  V30 2269 H 219.085 -3.20641 -2.65195 0
M  V30 2270 H 217.961 -3.93283 -3.8291 0
M  V30 2271 H 218.222 -2.19579 -3.83715 0
M  V30 2272 N 217.281 0.66697 -1.42791 0
M  V30 2273 C 218.527 1.4291 -1.43891 0
M  V30 2274 C 218.86 1.94114 -0.0578972 0
M  V30 2275 O 218.135 1.71414 0.91911 0
M  V30 2276 C 218.418 2.62049 -2.46987 0
M  V30 2277 C 218.271 2.16426 -3.94309 0
M  V30 2278 C 219.59 3.64266 -2.46978 0
M  V30 2279 H 216.709 0.518306 -0.523954 0
M  V30 2280 H 219.351 0.757321 -1.74255 0
M  V30 2281 H 217.501 3.19361 -2.21225 0
M  V30 2282 H 219.173 1.64221 -4.31079 0
M  V30 2283 H 217.416 1.47925 -4.078 0
M  V30 2284 H 218.087 3.02038 -4.62036 0
M  V30 2285 H 220.563 3.16686 -2.69906 0
M  V30 2286 H 219.439 4.45196 -3.21079 0
M  V30 2287 H 219.7 4.15927 -1.49857 0
M  V30 2288 N 218.759 1.29093 0.90403 0
M  V30 2289 C 219.999 1.18076 1.66845 0
M  V30 2290 C 220.363 -0.26436 1.90171 0
M  V30 2291 O 221.564 -0.497423 2.64157 0
M  V30 2292 C 219.835 1.96722 2.98388 0
M  V30 2293 S 221.394 2.0219 3.89441 0
M  V30 2294 H 218.212 0.421104 0.572881 0
M  V30 2295 H 220.814 1.63322 1.07453 0
M  V30 2296 H 219.518 3.00866 2.7912 0
M  V30 2297 H 219.049 1.52064 3.62823 0
M  V30 2298 H 221.064 1.13545 4.83034 0
M  V30 2299 N 220.237 -1.11381 1.11499 0
M  V30 2300 C 221.462 -1.87475 0.887019 0
M  V30 2301 C 221.887 -1.79639 -0.557796 0
M  V30 2302 O 221.245 -1.15924 -1.39396 0
M  V30 2303 C 221.293 -3.34213 1.35403 0
M  V30 2304 O 220.397 -4.0903 0.526146 0
M  V30 2305 H 219.738 -0.582099 0.319463 0
M  V30 2306 H 222.268 -1.40785 1.48461 0
M  V30 2307 H 222.278 -3.8506 1.34881 0
M  V30 2308 H 220.953 -3.39232 2.40612 0
M  V30 2309 H 219.53 -3.68082 0.597522 0
M  V30 2310 N 221.715 -0.905404 -1.28997 0
M  V30 2311 C 222.955 -0.541232 -1.97104 0
M  V30 2312 C 223.319 0.896841 -1.69767 0
M  V30 2313 O 224.52 1.36817 -2.31375 0
M  V30 2314 C 222.791 -0.832134 -3.47578 0
M  V30 2315 S 224.35 -0.573127 -4.35041 0
M  V30 2316 H 221.168 -0.200576 -0.682122 0
M  V30 2317 H 223.77 -1.16906 -1.56694 0
M  V30 2318 H 222.474 -1.87687 -3.64968 0
M  V30 2319 H 222.005 -0.192636 -3.92928 0
M  V30 2320 H 224.02 0.579297 -4.92807 0
M  V30 2321 N 223.193 1.4272 -0.668489 0
M  V30 2322 C 224.156 2.292 0.00448567 0
M  V30 2323 C 225.156 1.43001 0.735339 0
M  V30 2324 O 226.346 1.64461 0.57429 0
M  V30 2325 C 223.478 3.25375 1.01705 0
M  V30 2326 H 224.671 2.90199 -0.756608 0
M  V30 2327 H 222.224 1.50254 -0.430506 0
M  V30 2328 H 222.959 2.69301 1.80686 0
M  V30 2329 H 222.744 3.88944 0.496463 0
M  V30 2330 H 224.234 3.90245 1.48655 0
M  V30 2331 N 224.671 0.411399 1.52136 0
M  V30 2332 C 226.087 0.0623865 1.59478 0
M  V30 2333 C 226.287 -1.42554 1.4241 0
M  V30 2334 O 225.343 -2.19263 1.2522 0
M  V30 2335 C 226.656 0.559331 2.95452 0
M  V30 2336 C 228.204 0.517503 3.08692 0
M  V30 2337 C 228.679 0.990994 4.4715 0
M  V30 2338 N 230.17 0.947908 4.53397 0
M  V30 2339 C 230.905 1.28544 5.58806 0
M  V30 2340 N 230.401 1.69454 6.71757 0
M  V30 2341 N 232.194 1.20526 5.49026 0
M  V30 2342 H 224.345 1.37982 1.61477 0
M  V30 2343 H 226.608 0.566977 0.759764 0
M  V30 2344 H 226.314 1.59938 3.1323 0
M  V30 2345 H 226.188 -0.0298014 3.77188 0
M  V30 2346 H 228.575 -0.513505 2.90598 0
M  V30 2347 H 228.656 1.14272 2.28857 0
M  V30 2348 H 228.3 2.02034 4.65988 0
M  V30 2349 H 228.23 0.34257 5.25485 0
M  V30 2350 H 230.721 0.647157 3.72317 0
M  V30 2351 H 231.034 1.93513 7.48179 0
M  V30 2352 H 229.379 1.73359 6.73032 0
M  V30 2353 H 232.57 0.884505 4.59667 0
M  V30 2354 H 232.743 1.47161 6.31069 0
M  V30 2355 N 226.149 -1.5696 0.141893 0
M  V30 2356 C 227.397 -1.95573 -0.509484 0
M  V30 2357 C 227.718 -1.02746 -1.65736 0
M  V30 2358 O 226.988 -0.0880311 -1.95702 0
M  V30 2359 H 225.568 -0.722115 -0.191205 0
M  V30 2360 H 228.23 -1.93697 0.216196 0
M  V30 2361 H 227.326 -2.99171 -0.889 0
M  V30 2362 N 227.627 0.131896 -1.57047 0
M  V30 2363 C 228.857 0.855219 -1.88068 0
M  V30 2364 C 229.265 1.74557 -0.729817 0
M  V30 2365 O 228.608 1.81083 0.308962 0
M  V30 2366 C 228.67 1.75119 -3.13964 0
M  V30 2367 C 228.334 1.03646 -4.45091 0
M  V30 2368 C 229.331 0.383276 -5.18485 0
M  V30 2369 C 227.016 1.02148 -4.91804 0
M  V30 2370 C 229.01 -0.275347 -6.36805 0
M  V30 2371 C 226.697 0.359047 -6.10044 0
M  V30 2372 C 227.695 -0.288222 -6.82392 0
M  V30 2373 O 227.383 -0.94011 -7.98384 0
M  V30 2374 H 227.115 0.251864 -0.627328 0
M  V30 2375 H 229.669 0.124782 -2.05021 0
M  V30 2376 H 227.899 2.52295 -2.9306 0
M  V30 2377 H 229.588 2.3478 -3.31109 0
M  V30 2378 H 230.354 0.386562 -4.83457 0
M  V30 2379 H 226.233 1.5147 -4.35405 0
M  V30 2380 H 229.777 -0.781148 -6.93213 0
M  V30 2381 H 225.674 0.35348 -6.44531 0
M  V30 2382 H 226.442 -0.84329 -8.14144 0
M  V30 2383 N 229.106 1.52395 0.401703 0
M  V30 2384 C 230.334 1.70676 1.16949 0
M  V30 2385 C 230.749 0.419503 1.8408 0
M  V30 2386 O 230.106 -0.605061 1.72178 0
M  V30 2387 C 230.157 2.84753 2.22706 0
M  V30 2388 O 229.878 4.08495 1.58314 0
M  V30 2389 C 231.379 3.14608 3.12309 0
M  V30 2390 H 228.599 0.571787 0.351142 0
M  V30 2391 H 231.143 1.98987 0.471652 0
M  V30 2392 H 229.298 2.58941 2.88147 0
M  V30 2393 H 229.712 4.72117 2.28485 0
M  V30 2394 H 231.186 3.97923 3.82572 0
M  V30 2395 H 231.663 2.28464 3.75101 0
M  V30 2396 H 232.269 3.42212 2.52529 0
M  V30 2397 N 230.584 -0.659388 1.43143 0
M  V30 2398 C 231.514 -1.78422 1.50625 0
M  V30 2399 C 232.495 -1.66216 0.361443 0
M  V30 2400 O 233.68 -1.85404 0.577834 0
M  V30 2401 C 230.81 -3.16815 1.42287 0
M  V30 2402 C 229.764 -3.43777 2.54954 0
M  V30 2403 C 229.09 -4.81905 2.31671 0
M  V30 2404 C 230.39 -3.39134 3.97222 0
M  V30 2405 H 232.084 -1.72417 2.44771 0
M  V30 2406 H 229.63 -0.828084 1.17808 0
M  V30 2407 H 231.583 -3.95253 1.46127 0
M  V30 2408 H 230.307 -3.23534 0.446435 0
M  V30 2409 H 228.966 -2.67707 2.50457 0
M  V30 2410 H 228.614 -4.85294 1.32284 0
M  V30 2411 H 228.314 -5.00906 3.07192 0
M  V30 2412 H 229.838 -5.62609 2.37284 0
M  V30 2413 H 231.252 -4.07518 4.03239 0
M  V30 2414 H 229.649 -3.69671 4.72719 0
M  V30 2415 H 230.719 -2.37426 4.22797 0
M  V30 2416 N 232.062 -1.29571 -0.897171 0
M  V30 2417 C 233.025 -1.14913 -1.98312 0
M  V30 2418 C 234.025 -0.0838629 -1.60581 0
M  V30 2419 O 235.215 -0.331006 -1.71026 0
M  V30 2420 C 232.347 -0.757835 -3.3237 0
M  V30 2421 H 233.54 -2.11377 -2.12743 0
M  V30 2422 H 231.093 -1.12793 -1.08201 0
M  V30 2423 H 231.828 0.206837 -3.2364 0
M  V30 2424 H 231.613 -1.52755 -3.61121 0
M  V30 2425 H 233.103 -0.678408 -4.12053 0
M  V30 2426 N 233.54 1.10788 -1.12088 0
M  V30 2427 C 234.817 1.79136 -0.785476 0
M  V30 2428 C 235.197 1.98246 0.725377 0
M  V30 2429 O 234.545 1.57258 1.65778 0
M  V30 2430 C 234.755 3.12375 -1.55636 0
M  V30 2431 C 236.103 3.8731 -1.74001 0
M  V30 2432 O 237.127 3.22085 -1.52117 0
M  V30 2433 O 235.986 5.04369 -2.10415 0
M  V30 2434 H 233.08 0.776226 -0.285311 0
M  V30 2435 H 235.626 1.1747 -1.2247 0
M  V30 2436 H 234.398 2.93863 -2.5838 0
M  V30 2437 H 234.021 3.81758 -1.11114 0
M  V30 2438 N 235.018 0.912232 1.28515 0
M  V30 2439 C 235.966 0.389597 2.29314 0
M  V30 2440 C 236.96 -0.517915 1.61289 0
M  V30 2441 O 238.166 -0.399328 1.75515 0
M  V30 2442 H 234.541 0.107386 0.744293 0
M  V30 2443 H 236.512 1.25286 2.70825 0
M  V30 2444 C 235.261 -0.356496 3.45868 0
M  V30 2445 H 234.584 0.332608 3.98414 0
M  V30 2446 H 236.024 -0.686851 4.184 0
M  V30 2447 C 234.483 -1.56383 2.98406 0
M  V30 2448 O 235.013 -2.66294 3.00749 0
M  V30 2449 N 233.219 -1.41029 2.54085 0
M  V30 2450 H 232.766 -0.516089 2.52377 0
M  V30 2451 H 232.724 -2.21939 2.22689 0
M  V30 2452 N 236.496 -1.42363 0.676048 0
M  V30 2453 C 237.744 -2.01123 0.198437 0
M  V30 2454 C 238.065 -1.53731 -1.19966 0
M  V30 2455 O 237.335 -0.759518 -1.80577 0
M  V30 2456 H 235.915 -0.743678 0.0703721 0
M  V30 2457 H 238.577 -1.74263 0.872837 0
M  V30 2458 H 237.673 -3.11454 0.200686 0
M  V30 2459 N 237.974 -0.419461 -1.51915 0
M  V30 2460 C 238.921 0.400927 -2.27291 0
M  V30 2461 C 239.891 1.03224 -1.30131 0
M  V30 2462 O 241.076 1.05455 -1.59009 0
M  V30 2463 C 238.216 1.50603 -3.10504 0
M  V30 2464 C 237.329 0.89462 -4.22635 0
M  V30 2465 C 236.464 1.97328 -4.93189 0
M  V30 2466 C 235.503 1.33935 -5.97267 0
M  V30 2467 N 234.64 2.3586 -6.61298 0
M  V30 2468 H 239.48 -0.248251 -2.96964 0
M  V30 2469 H 237.017 -0.134266 -1.46486 0
M  V30 2470 H 238.975 2.15783 -3.57062 0
M  V30 2471 H 237.605 2.12509 -2.42981 0
M  V30 2472 H 236.657 0.131583 -3.80172 0
M  V30 2473 H 237.969 0.391641 -4.9726 0
M  V30 2474 H 237.123 2.70211 -5.43204 0
M  V30 2475 H 235.862 2.50994 -4.18155 0
M  V30 2476 H 234.867 0.595896 -5.46561 0
M  V30 2477 H 236.092 0.810252 -6.74249 0
M  V30 2478 H 234.038 2.88639 -5.89087 0
M  V30 2479 H 233.955 1.90403 -7.3163 0
M  V30 2480 H 235.223 3.08282 -7.15949 0
M  V30 2481 N 239.452 1.56882 -0.150215 0
M  V30 2482 C 240.415 2.1573 0.774157 0
M  V30 2483 C 241.415 1.0999 1.17298 0
M  V30 2484 O 242.605 1.35613 1.09338 0
M  V30 2485 C 239.737 2.72302 2.05096 0
M  V30 2486 H 240.93 2.98752 0.262201 0
M  V30 2487 H 238.483 1.55985 0.099248 0
M  V30 2488 H 239.218 1.92956 2.6065 0
M  V30 2489 H 239.003 3.49665 1.77416 0
M  V30 2490 H 240.493 3.17632 2.71109 0
M  V30 2491 N 240.93 -0.123565 1.57115 0
M  V30 2492 C 242.17 -0.838097 1.86428 0
M  V30 2493 C 242.534 -1.77266 0.737611 0
M  V30 2494 O 243.735 -2.52842 0.912389 0
M  V30 2495 C 242.006 -1.57219 3.20962 0
M  V30 2496 S 243.565 -2.32893 3.71896 0
M  V30 2497 H 240.383 -0.279811 0.653626 0
M  V30 2498 H 242.985 -0.0967034 1.95261 0
M  V30 2499 H 241.689 -0.877522 4.00909 0
M  V30 2500 H 241.22 -2.35405 3.15195 0
M  V30 2501 H 243.235 -3.5853 3.43032 0
M  V30 2502 N 242.408 -1.52605 -0.393616 0
M  V30 2503 C 243.657 -1.66649 -1.13627 0
M  V30 2504 C 243.97 -0.410364 -1.91247 0
M  V30 2505 O 245.176 -0.430854 -2.68059 0
M  V30 2506 C 243.632 -2.9449 -2.06891 0
M  V30 2507 C 243.24 -4.27266 -1.34714 0
M  V30 2508 C 244.984 -3.17899 -2.81319 0
M  V30 2509 C 242.891 -5.46217 -2.26717 0
M  V30 2510 H 241.821 -0.62084 -0.427871 0
M  V30 2511 H 244.472 -1.791 -0.399428 0
M  V30 2512 H 242.854 -2.75774 -2.84191 0
M  V30 2513 H 244.028 -4.56518 -0.626714 0
M  V30 2514 H 242.343 -4.10081 -0.722643 0
M  V30 2515 H 244.94 -4.03949 -3.50328 0
M  V30 2516 H 245.283 -2.32777 -3.45139 0
M  V30 2517 H 245.816 -3.37159 -2.11113 0
M  V30 2518 H 242.555 -6.33733 -1.67521 0
M  V30 2519 H 242.075 -5.21283 -2.96689 0
M  V30 2520 H 243.754 -5.7991 -2.86903 0
M  V30 2521 N 243.887 0.651787 -1.4349 0
M  V30 2522 C 245.298 1.233 -1.40193 0
M  V30 2523 C 245.649 1.9591 -0.106727 0
M  V30 2524 O 244.774 2.01316 0.793773 0
M  V30 2525 C 245.369 2.24257 -2.53957 0
M  V30 2526 C 243.928 2.77852 -2.5392 0
M  V30 2527 C 243.075 1.52517 -2.3159 0
M  V30 2528 H 246.026 0.443717 -1.52371 0
M  V30 2529 H 246.047 3.0646 -2.25528 0
M  V30 2530 H 245.559 1.71382 -3.4821 0
M  V30 2531 H 243.66 3.34786 -1.63551 0
M  V30 2532 H 243.773 3.25299 -3.51735 0
M  V30 2533 H 242.137 1.79915 -1.80285 0
M  V30 2534 H 242.92 1.01574 -3.27929 0
M  V30 2535 N 245.365 1.30045 0.890287 0
M  V30 2536 C 246.593 1.21472 1.67487 0
M  V30 2537 C 247.008 -0.223241 1.87476 0
M  V30 2538 O 246.365 -1.14828 1.41847 0
M  V30 2539 C 246.416 1.93394 3.05419 0
M  V30 2540 O 246.137 3.31576 2.86337 0
M  V30 2541 C 247.638 1.91414 3.99844 0
M  V30 2542 H 244.858 0.420604 0.522813 0
M  V30 2543 H 247.402 1.7158 1.11268 0
M  V30 2544 H 245.557 1.47099 3.58386 0
M  V30 2545 H 245.971 3.67929 3.73802 0
M  V30 2546 H 247.445 2.46285 4.94012 0
M  V30 2547 H 247.922 0.891833 4.3005 0
M  V30 2548 H 248.528 2.37496 3.52811 0
M  V30 2549 N 246.843 -1.10192 1.12674 0
M  V30 2550 C 248.091 -1.81845 0.881861 0
M  V30 2551 C 248.412 -1.85737 -0.593867 0
M  V30 2552 O 247.682 -1.33724 -1.4316 0
M  V30 2553 H 246.262 -0.673432 0.323261 0
M  V30 2554 H 248.924 -1.33316 1.42172 0
M  V30 2555 H 248.02 -2.85288 1.2656 0
M  V30 2556 N 248.321 -0.919034 -1.28029 0
M  V30 2557 C 249.732 -0.600735 -1.76771 0
M  V30 2558 C 250.083 0.884024 -1.75156 0
M  V30 2559 O 249.208 1.69163 -1.34956 0
M  V30 2560 C 249.803 -1.08372 -3.21 0
M  V30 2561 C 248.362 -0.816248 -3.67443 0
M  V30 2562 C 247.509 -1.24742 -2.47658 0
M  V30 2563 H 250.46 -1.09974 -1.14418 0
M  V30 2564 H 250.481 -0.427512 -3.78091 0
M  V30 2565 H 249.993 -2.16437 -3.22144 0
M  V30 2566 H 248.094 0.250968 -3.71754 0
M  V30 2567 H 248.207 -1.4277 -4.57333 0
M  V30 2568 H 246.571 -0.666083 -2.45836 0
M  V30 2569 H 247.354 -2.33653 -2.51518 0
M  V30 2570 N 249.799 1.42003 -0.683588 0
M  V30 2571 C 251.029 2.05448 -0.217866 0
M  V30 2572 C 251.437 1.51491 1.13346 0
M  V30 2573 O 250.78 0.653048 1.717 0
M  V30 2574 C 250.842 3.59399 -0.0850118 0
M  V30 2575 C 250.506 4.36093 -1.36645 0
M  V30 2576 C 251.503 4.66169 -2.30179 0
M  V30 2577 C 249.188 4.75578 -1.61649 0
M  V30 2578 C 251.182 5.34676 -3.46988 0
M  V30 2579 C 248.869 5.43824 -2.78745 0
M  V30 2580 C 249.867 5.73299 -3.71238 0
M  V30 2581 O 249.555 6.40142 -4.86285 0
M  V30 2582 H 249.287 0.668344 -0.101454 0
M  V30 2583 H 251.841 1.82974 -0.933248 0
M  V30 2584 H 250.071 3.80566 0.686031 0
M  V30 2585 H 251.76 4.04457 0.341973 0
M  V30 2586 H 252.526 4.36156 -2.12115 0
M  V30 2587 H 248.405 4.52025 -0.905243 0
M  V30 2588 H 251.949 5.57599 -4.19201 0
M  V30 2589 H 247.846 5.73254 -2.96732 0
M  V30 2590 H 248.614 6.58636 -4.85944 0
M  V30 2591 N 251.277 0.427512 1.51691 0
M  V30 2592 C 252.688 -0.0378867 1.86662 0
M  V30 2593 C 253.039 -1.42819 1.34525 0
M  V30 2594 O 252.164 -2.05037 0.692014 0
M  V30 2595 C 252.759 -0.0755266 3.38716 0
M  V30 2596 C 251.318 -0.485309 3.73258 0
M  V30 2597 C 250.465 0.328399 2.75349 0
M  V30 2598 H 253.416 0.64379 1.45055 0
M  V30 2599 H 253.437 -0.887056 3.70016 0
M  V30 2600 H 252.949 0.936487 3.76632 0
M  V30 2601 H 251.05 -1.50329 3.40928 0
M  V30 2602 H 251.163 -0.21693 4.78609 0
M  V30 2603 H 249.527 -0.211905 2.53817 0
M  V30 2604 H 250.31 1.3391 3.16106 0
M  V30 2605 N 252.755 -1.56801 0.158532 0
M  V30 2606 C 253.995 -1.98383 -0.49229 0
M  V30 2607 C 254.359 -1.04184 -1.61275 0
M  V30 2608 O 255.56 -1.34856 -2.32524 0
M  V30 2609 C 253.831 -3.4385 -0.974766 0
M  V30 2610 S 255.39 -4.07459 -1.62857 0
M  V30 2611 H 252.208 -0.693041 -0.158794 0
M  V30 2612 H 254.81 -1.93856 0.252974 0
M  V30 2613 H 253.514 -4.10131 -0.148688 0
M  V30 2614 H 253.045 -3.52115 -1.75438 0
M  V30 2615 H 255.06 -4.01458 -2.91627 0
M  V30 2616 N 254.233 0.115231 -1.57178 0
M  V30 2617 C 255.481 0.820727 -1.84685 0
M  V30 2618 C 255.802 1.80237 -0.744279 0
M  V30 2619 O 255.072 1.94529 0.231375 0
M  V30 2620 H 253.652 0.306084 -0.681411 0
M  V30 2621 H 256.314 0.101656 -1.94635 0
M  V30 2622 H 255.41 1.36366 -2.80733 0
M  V30 2623 N 255.711 1.52812 0.385517 0
M  V30 2624 C 256.658 1.77838 1.47113 0
M  V30 2625 C 257.628 0.621757 1.54024 0
M  V30 2626 O 258.813 0.861846 1.70226 0
M  V30 2627 C 255.953 1.95618 2.84302 0
M  V30 2628 C 255.066 3.23316 2.86515 0
M  V30 2629 C 254.201 3.31394 4.15152 0
M  V30 2630 C 253.24 4.53201 4.1143 0
M  V30 2631 N 252.377 4.58542 5.3168 0
M  V30 2632 H 257.217 2.70482 1.25073 0
M  V30 2633 H 254.754 1.34006 0.606692 0
M  V30 2634 H 256.712 2.03912 3.63972 0
M  V30 2635 H 255.342 1.06331 3.04784 0
M  V30 2636 H 254.394 3.24076 1.99195 0
M  V30 2637 H 255.706 4.13045 2.79634 0
M  V30 2638 H 254.86 3.3889 5.03228 0
M  V30 2639 H 253.599 2.39645 4.24761 0
M  V30 2640 H 252.604 4.45827 3.21742 0
M  V30 2641 H 253.829 5.46271 4.03442 0
M  V30 2642 H 251.775 3.69686 5.41912 0
M  V30 2643 H 251.692 5.42148 5.26889 0
M  V30 2644 H 252.96 4.70296 6.21644 0
M  V30 2645 N 257.189 -0.644168 1.43834 0
M  V30 2646 C 258.121 -1.76955 1.45669 0
M  V30 2647 C 259.134 -1.58956 0.351666 0
M  V30 2648 O 260.323 -1.6751 0.616644 0
M  V30 2649 C 257.423 -3.14507 1.26248 0
M  V30 2650 C 256.596 -3.59083 2.49757 0
M  V30 2651 C 255.655 -4.75467 2.25427 0
M  V30 2652 O 254.681 -4.84444 2.98836 0
M  V30 2653 N 255.883 -5.66289 1.27661 0
M  V30 2654 H 258.648 -1.75856 2.42682 0
M  V30 2655 H 256.209 -0.828312 1.39106 0
M  V30 2656 H 258.201 -3.90067 1.0784 0
M  V30 2657 H 256.771 -3.10325 0.376478 0
M  V30 2658 H 255.991 -2.7387 2.8353 0
M  V30 2659 H 257.279 -3.85613 3.31934 0
M  V30 2660 H 256.677 -5.61718 0.670064 0
M  V30 2661 H 255.234 -6.41533 1.15234 0
M  V30 2662 N 258.668 -1.30515 -0.883378 0
M  V30 2663 C 259.896 -1.22359 -1.66841 0
M  V30 2664 C 260.311 0.213296 -1.87591 0
M  V30 2665 O 259.668 1.14075 -1.42454 0
M  V30 2666 C 259.719 -1.95011 -3.04389 0
M  V30 2667 O 259.44 -3.3309 -2.84575 0
M  V30 2668 C 260.941 -1.93532 -3.98824 0
M  V30 2669 H 258.161 -0.423371 -0.520575 0
M  V30 2670 H 260.705 -1.72167 -1.10357 0
M  V30 2671 H 258.86 -1.48997 -3.57601 0
M  V30 2672 H 259.274 -3.69907 -3.71846 0
M  V30 2673 H 260.748 -2.48902 -4.92699 0
M  V30 2674 H 261.225 -0.914627 -4.29571 0
M  V30 2675 H 261.831 -2.39364 -3.51547 0
M  V30 2676 N 260.146 1.09593 -1.13257 0
M  V30 2677 C 261.076 2.18214 -0.830946 0
M  V30 2678 C 262.057 1.68812 0.208966 0
M  V30 2679 O 263.242 1.9408 0.0682666 0
M  V30 2680 C 260.372 3.46051 -0.294296 0
M  V30 2681 C 259.326 4.08778 -1.26826 0
M  V30 2682 C 258.652 5.31419 -0.591449 0
M  V30 2683 C 259.952 4.51476 -2.62615 0
M  V30 2684 H 261.646 2.43703 -1.73923 0
M  V30 2685 H 259.192 1.17128 -0.837675 0
M  V30 2686 H 261.145 4.2134 -0.0709606 0
M  V30 2687 H 259.869 3.20079 0.649366 0
M  V30 2688 H 258.528 3.35505 -1.47756 0
M  V30 2689 H 258.176 5.01727 0.357633 0
M  V30 2690 H 257.876 5.74341 -1.24123 0
M  V30 2691 H 259.4 6.09433 -0.377355 0
M  V30 2692 H 260.814 5.17999 -2.45663 0
M  V30 2693 H 259.211 5.05277 -3.23752 0
M  V30 2694 H 260.281 3.63962 -3.20406 0
M  V30 2695 N 261.624 0.925811 1.2754 0
M  V30 2696 C 262.534 0.428993 2.30644 0
M  V30 2697 C 263.55 -0.489387 1.66976 0
M  V30 2698 O 264.726 -0.372653 1.97922 0
M  V30 2699 C 261.791 -0.311967 3.45294 0
M  V30 2700 C 260.852 0.641098 4.24486 0
M  V30 2701 C 260.085 -0.0645955 5.33661 0
M  V30 2702 O 260.308 -1.28429 5.55754 0
M  V30 2703 O 259.242 0.606265 5.98839 0
M  V30 2704 H 263.068 1.28504 2.75173 0
M  V30 2705 H 260.653 0.691086 1.32455 0
M  V30 2706 H 262.535 -0.729972 4.15029 0
M  V30 2707 H 261.21 -1.14365 3.02824 0
M  V30 2708 H 260.117 1.10874 3.57292 0
M  V30 2709 H 261.45 1.43995 4.70666 0
M  V30 2710 N 263.102 -1.41638 0.69111 0
M  V30 2711 C 264.518 -1.55435 0.362224 0
M  V30 2712 C 264.718 -1.66754 -1.13117 0
M  V30 2713 O 263.774 -1.64348 -1.91692 0
M  V30 2714 C 265.087 -2.79588 1.10684 0
M  V30 2715 C 266.635 -2.9338 1.09075 0
M  V30 2716 C 267.11 -4.20414 1.81703 0
M  V30 2717 N 268.601 -4.27362 1.7865 0
M  V30 2718 C 269.336 -5.24507 2.31689 0
M  V30 2719 N 268.832 -6.27708 2.93179 0
M  V30 2720 N 270.625 -5.16416 2.2197 0
M  V30 2721 H 262.776 -1.32536 1.65976 0
M  V30 2722 H 265.039 -0.639115 0.700168 0
M  V30 2723 H 264.745 -2.77419 2.16175 0
M  V30 2724 H 264.619 -3.70973 0.682545 0
M  V30 2725 H 267.006 -2.95067 0.0441238 0
M  V30 2726 H 267.087 -2.0318 1.55407 0
M  V30 2727 H 266.731 -4.19488 2.86343 0
M  V30 2728 H 266.661 -5.09578 1.32808 0
M  V30 2729 H 269.152 -3.53415 1.33815 0
M  V30 2730 H 269.465 -6.98217 3.31229 0
M  V30 2731 H 267.81 -6.28223 2.97255 0
M  V30 2732 H 271.001 -4.34716 1.73607 0
M  V30 2733 H 271.174 -5.91958 2.63609 0
M  V30 2734 N 264.58 -0.43555 -1.51462 0
M  V30 2735 C 265.996 -0.0877501 -1.59359 0
M  V30 2736 C 266.196 1.4027 -1.4466 0
M  V30 2737 O 265.252 2.17243 -1.28693 0
M  V30 2738 C 266.565 -0.606264 -2.94525 0
M  V30 2739 C 268.113 -0.566548 -3.0783 0
M  V30 2740 C 268.588 -1.06201 -4.45517 0
M  V30 2741 N 270.079 -1.01992 -4.51832 0
M  V30 2742 C 270.814 -1.37417 -5.5669 0
M  V30 2743 N 270.31 -1.80119 -6.68976 0
M  V30 2744 N 272.103 -1.29245 -5.47039 0
M  V30 2745 H 264.254 -1.40533 -1.59261 0
M  V30 2746 H 266.517 -0.578992 -0.750648 0
M  V30 2747 H 266.223 -1.64901 -3.10645 0
M  V30 2748 H 266.097 -0.0302097 -3.77188 0
M  V30 2749 H 268.484 0.467208 -2.91378 0
M  V30 2750 H 268.565 -1.17898 -2.2701 0
M  V30 2751 H 268.209 -2.09422 -4.62715 0
M  V30 2752 H 268.139 -0.426127 -5.24873 0
M  V30 2753 H 270.63 -0.706308 -3.71241 0
M  V30 2754 H 270.943 -2.05392 -7.45006 0
M  V30 2755 H 269.288 -1.84044 -6.70189 0
M  V30 2756 H 272.479 -0.957522 -4.58202 0
M  V30 2757 H 272.652 -1.57182 -6.28648 0
M  V30 2758 N 266.058 1.56714 -0.166846 0
M  V30 2759 C 267.005 2.17746 0.765193 0
M  V30 2760 C 267.975 1.11614 1.23011 0
M  V30 2761 O 269.16 1.39745 1.29908 0
M  V30 2762 C 266.3 2.81882 1.9909 0
M  V30 2763 C 265.413 4.02462 1.56997 0
M  V30 2764 C 264.548 4.54537 2.749 0
M  V30 2765 C 263.587 5.67538 2.29275 0
M  V30 2766 N 262.724 6.14142 3.40255 0
M  V30 2767 H 267.564 2.97048 0.237952 0
M  V30 2768 H 265.101 1.4672 0.105725 0
M  V30 2769 H 267.059 3.17221 2.70974 0
M  V30 2770 H 265.689 2.05191 2.49192 0
M  V30 2771 H 264.741 3.72973 0.748037 0
M  V30 2772 H 266.053 4.84273 1.19503 0
M  V30 2773 H 265.207 4.92035 3.54946 0
M  V30 2774 H 263.946 3.71774 3.1565 0
M  V30 2775 H 262.951 5.29597 1.47674 0
M  V30 2776 H 264.176 6.52099 1.89588 0
M  V30 2777 H 262.122 5.3431 3.8059 0
M  V30 2778 H 262.039 6.9093 3.06841 0
M  V30 2779 H 263.307 6.56289 4.206 0
M  V30 2780 N 267.536 -0.106894 1.57237 0
M  V30 2781 C 268.952 -0.46078 1.52804 0
M  V30 2782 C 269.152 -1.81184 0.881746 0
M  V30 2783 O 268.208 -2.48102 0.469224 0
M  V30 2784 C 269.521 -0.434127 2.9755 0
M  V30 2785 C 271.069 -0.516821 3.08704 0
M  V30 2786 C 271.544 -0.520436 4.55033 0
M  V30 2787 N 273.035 -0.58153 4.59535 0
M  V30 2788 C 273.77 -0.605973 5.70189 0
M  V30 2789 N 273.266 -0.587331 6.90306 0
M  V30 2790 N 275.059 -0.649895 5.5833 0
M  V30 2791 H 267.21 0.778203 1.9763 0
M  V30 2792 H 269.473 0.288403 0.903066 0
M  V30 2793 H 269.179 0.491197 3.48253 0
M  V30 2794 H 269.053 -1.25748 3.55622 0
M  V30 2795 H 271.44 -1.43256 2.57995 0
M  V30 2796 H 271.521 0.334449 2.53604 0
M  V30 2797 H 271.165 0.391313 5.0639 0
M  V30 2798 H 271.095 -1.38876 5.07958 0
M  V30 2799 H 273.586 -0.60161 3.73081 0
M  V30 2800 H 273.899 -0.60894 7.70397 0
M  V30 2801 H 272.244 -0.554564 6.92784 0
M  V30 2802 H 275.435 -0.661907 4.63397 0
M  V30 2803 H 275.608 -0.665476 6.44574 0
M  V30 2804 N 269.014 -1.53014 -0.377408 0
M  V30 2805 C 270.239 -1.72818 -1.14668 0
M  V30 2806 C 270.664 -0.450725 -1.8262 0
M  V30 2807 O 270.022 0.59439 -1.7128 0
M  V30 2808 C 270.07 -2.88627 -2.16164 0
M  V30 2809 O 269.174 -2.56409 -3.22998 0
M  V30 2810 H 268.515 -0.574301 -0.333278 0
M  V30 2811 H 271.045 -1.99853 -0.438152 0
M  V30 2812 H 271.055 -3.14455 -2.59966 0
M  V30 2813 H 269.73 -3.81294 -1.66095 0
M  V30 2814 H 268.307 -2.4136 -2.84253 0
M  V30 2815 N 270.492 0.636531 -1.44174 0
M  V30 2816 C 271.738 1.39826 -1.4689 0
M  V30 2817 C 272.071 1.93947 -0.0990585 0
M  V30 2818 O 271.346 1.73325 0.882544 0
M  V30 2819 C 271.629 2.56751 -2.5249 0
M  V30 2820 C 271.482 2.08014 -3.98811 0
M  V30 2821 C 272.801 3.58946 -2.54649 0
M  V30 2822 H 269.92 0.507075 -0.53483 0
M  V30 2823 H 272.562 0.720188 -1.75822 0
M  V30 2824 H 270.712 3.14597 -2.2795 0
M  V30 2825 H 272.384 1.5504 -4.34466 0
M  V30 2826 H 270.627 1.39242 -4.10846 0
M  V30 2827 H 271.298 2.92169 -4.68339 0
M  V30 2828 H 273.774 3.1089 -2.76563 0
M  V30 2829 H 272.65 4.38286 -3.3045 0
M  V30 2830 H 272.911 4.12655 -1.58646 0
M  V30 2831 N 271.97 1.30982 0.876444 0
M  V30 2832 C 272.933 1.18054 1.96459 0
M  V30 2833 C 273.933 0.109399 1.60427 0
M  V30 2834 O 275.123 0.358173 1.70478 0
M  V30 2835 C 272.255 0.810616 3.31122 0
M  V30 2836 H 273.448 2.14735 2.09354 0
M  V30 2837 H 271.001 1.145 1.06392 0
M  V30 2838 H 271.736 -0.155322 3.23928 0
M  V30 2839 H 271.521 1.58481 3.58645 0
M  V30 2840 H 273.011 0.743876 4.10921 0
M  V30 2841 N 273.449 -1.08991 1.13837 0
M  V30 2842 C 274.381 -2.15606 0.777612 0
M  V30 2843 C 275.394 -1.61533 -0.202739 0
M  V30 2844 O 276.583 -1.78491 0.0181055 0
M  V30 2845 C 273.683 -3.3864 0.132623 0
M  V30 2846 C 272.856 -4.22115 1.1462 0
M  V30 2847 C 271.915 -5.23564 0.526074 0
M  V30 2848 O 270.941 -5.56678 1.18735 0
M  V30 2849 N 272.143 -5.76266 -0.699866 0
M  V30 2850 H 274.908 -2.47159 1.69506 0
M  V30 2851 H 272.469 -1.24747 1.03198 0
M  V30 2852 H 274.461 -4.03626 -0.29459 0
M  V30 2853 H 273.031 -3.04938 -0.687849 0
M  V30 2854 H 272.251 -3.53199 1.75055 0
M  V30 2855 H 273.539 -4.74709 1.83109 0
M  V30 2856 H 272.937 -5.51585 -1.25581 0
M  V30 2857 H 271.494 -6.42963 -1.06968 0
M  V30 2858 N 274.927 -0.932562 -1.27047 0
M  V30 2859 C 275.89 -0.440064 -2.24936 0
M  V30 2860 C 276.89 0.444071 -1.54547 0
M  V30 2861 O 278.08 0.244465 -1.72476 0
M  V30 2862 C 275.212 0.36678 -3.38921 0
M  V30 2863 H 276.405 -1.305 -2.70018 0
M  V30 2864 H 273.958 -0.713707 -1.39054 0
M  V30 2865 H 274.693 1.25033 -2.99228 0
M  V30 2866 H 274.478 -0.267204 -3.91188 0
M  V30 2867 H 275.968 0.701567 -4.11665 0
M  V30 2868 N 276.405 1.4127 -0.698611 0
M  V30 2869 C 277.633 2.05503 -0.239992 0
M  V30 2870 C 278.048 1.52584 1.11191 0
M  V30 2871 O 277.405 0.675323 1.69545 0
M  V30 2872 C 277.456 3.60987 -0.192429 0
M  V30 2873 O 277.177 4.1195 -1.49094 0
M  V30 2874 C 278.678 4.42371 0.28681 0
M  V30 2875 H 275.898 0.661748 -0.111045 0
M  V30 2876 H 278.442 1.80987 -0.95205 0
M  V30 2877 H 276.597 3.84533 0.470472 0
M  V30 2878 H 277.011 5.06018 -1.38007 0
M  V30 2879 H 278.485 5.51344 0.26896 0
M  V30 2880 H 278.962 4.18699 1.32619 0
M  V30 2881 H 279.568 4.23897 -0.345201 0
M  V30 2882 N 277.883 0.443576 1.51229 0
M  V30 2883 C 279.108 -0.121648 2.07043 0
M  V30 2884 C 279.533 -1.35156 1.30823 0
M  V30 2885 O 278.891 -1.7793 0.347934 0
M  V30 2886 C 278.939 -0.41624 3.5819 0
M  V30 2887 O 278.043 -1.50163 3.8409 0
M  V30 2888 H 277.384 0.000871367 0.663999 0
M  V30 2889 H 279.914 0.626706 1.94765 0
M  V30 2890 H 279.924 -0.664867 4.02546 0
M  V30 2891 H 278.599 0.482653 4.1309 0
M  V30 2892 H 277.176 -1.24248 3.51592 0
M  V30 2893 N 279.361 -1.56624 0.175154 0
M  V30 2894 C 280.586 -2.01813 -0.478137 0
M  V30 2895 C 281.011 -1.05457 -1.55757 0
M  V30 2896 O 280.369 -0.0347439 -1.81267 0
M  V30 2897 C 280.417 -3.45581 -1.02987 0
M  V30 2898 O 279.521 -3.52305 -2.14371 0
M  V30 2899 H 278.862 -0.65413 -0.114059 0
M  V30 2900 H 281.392 -2.02673 0.280173 0
M  V30 2901 H 281.402 -3.84965 -1.35151 0
M  V30 2902 H 280.077 -4.1521 -0.239556 0
M  V30 2903 H 278.654 -3.24783 -1.83222 0
M  V30 2904 N 280.839 0.0985539 -1.57292 0
M  V30 2905 C 282.064 0.820196 -1.90493 0
M  V30 2906 C 282.489 1.71658 -0.769094 0
M  V30 2907 O 281.847 1.79133 0.279495 0
M  V30 2908 C 281.895 1.61242 -3.22542 0
M  V30 2909 O 280.999 2.72108 -3.09888 0
M  V30 2910 H 280.34 0.225547 -0.62452 0
M  V30 2911 H 282.87 0.0748159 -2.04463 0
M  V30 2912 H 282.88 1.99737 -3.55766 0
M  V30 2913 H 281.555 0.954535 -4.04798 0
M  V30 2914 H 280.132 2.36667 -2.88172 0
M  V30 2915 N 282.317 1.53212 0.369288 0
M  V30 2916 C 283.565 1.68881 1.11012 0
M  V30 2917 C 283.886 0.441285 1.89941 0
M  V30 2918 O 283.156 -0.544623 1.88177 0
M  V30 2919 H 281.736 0.622569 0.412816 0
M  V30 2920 H 284.398 1.90391 0.416802 0
M  V30 2921 H 283.494 2.54822 1.80201 0
M  V30 2922 N 283.795 -0.628877 1.44509 0
M  V30 2923 C 284.705 -1.7694 1.54044 0
M  V30 2924 C 285.721 -1.68705 0.425987 0
M  V30 2925 O 286.897 -1.89442 0.683656 0
M  V30 2926 C 283.962 -3.13332 1.48405 0
M  V30 2927 C 283.023 -3.33181 2.70719 0
M  V30 2928 C 282.256 -4.63067 2.6534 0
M  V30 2929 O 282.479 -5.44017 1.71469 0
M  V30 2930 O 281.413 -4.85167 3.56226 0
M  V30 2931 H 285.239 -1.71848 2.50403 0
M  V30 2932 H 282.824 -0.790378 1.26781 0
M  V30 2933 H 284.706 -3.94634 1.47791 0
M  V30 2934 H 283.381 -3.1896 0.551898 0
M  V30 2935 H 282.288 -2.51549 2.769 0
M  V30 2936 H 283.621 -3.32416 3.62988 0
M  V30 2937 N 285.273 -1.31445 -0.869486 0
M  V30 2938 C 286.236 -1.19094 -1.9583 0
M  V30 2939 C 287.236 -0.117906 -1.60367 0
M  V30 2940 O 288.426 -0.367208 -1.70286 0
M  V30 2941 C 285.558 -0.828165 -3.30688 0
M  V30 2942 H 286.751 -2.15842 -2.08212 0
M  V30 2943 H 284.304 -1.15063 -1.05784 0
M  V30 2944 H 285.039 0.138142 -3.24006 0
M  V30 2945 H 284.824 -1.6038 -3.578 0
M  V30 2946 H 286.314 -0.765658 -4.10521 0
M  V30 2947 N 286.751 1.08385 -1.14413 0
M  V30 2948 C 288.162 1.62258 -0.923535 0
M  V30 2949 C 288.513 1.88691 0.537595 0
M  V30 2950 O 287.638 1.64454 1.40655 0
M  V30 2951 C 288.233 2.94781 -1.67002 0
M  V30 2952 C 286.792 3.45437 -1.495 0
M  V30 2953 C 285.939 2.19668 -1.69238 0
M  V30 2954 H 288.89 0.916086 -1.2959 0
M  V30 2955 H 288.911 3.63229 -1.13334 0
M  V30 2956 H 288.423 2.7551 -2.73342 0
M  V30 2957 H 286.524 3.6981 -0.455097 0
M  V30 2958 H 286.637 4.22173 -2.2651 0
M  V30 2959 H 285.001 2.28849 -1.11804 0
M  V30 2960 H 285.784 2.02905 -2.7692 0
M  V30 2961 N 288.23 0.939286 1.26551 0
M  V30 2962 C 289.507 0.5038 1.89001 0
M  V30 2963 C 289.887 -1.01854 1.84903 0
M  V30 2964 O 289.235 -1.87773 1.30206 0
M  V30 2965 C 289.445 1.063 3.32417 0
M  V30 2966 C 290.793 1.13051 4.09273 0
M  V30 2967 O 291.817 1.01345 3.41479 0
M  V30 2968 O 290.676 1.31233 5.30509 0
M  V30 2969 H 287.77 0.163897 0.810597 0
M  V30 2970 H 290.316 1.03173 1.34735 0
M  V30 2971 H 289.088 2.10665 3.29752 0
M  V30 2972 H 288.711 0.517408 3.94219 0
M  V30 2973 N 289.708 -1.40897 0.706093 0
M  V30 2974 C 290.933 -2.05895 0.249435 0
M  V30 2975 C 291.358 -1.52823 -1.09666 0
M  V30 2976 O 290.716 -0.659589 -1.68876 0
M  V30 2977 C 290.764 -3.59872 0.22904 0
M  V30 2978 O 289.868 -4.04708 -0.792784 0
M  V30 2979 H 289.209 -0.653206 0.119241 0
M  V30 2980 H 291.739 -1.80471 0.96391 0
M  V30 2981 H 291.749 -4.07951 0.0634791 0
M  V30 2982 H 290.424 -3.97866 1.21141 0
M  V30 2983 H 289.001 -3.68111 -0.59572 0
M  V30 2984 N 291.186 -0.45159 -1.50991 0
M  V30 2985 C 292.435 0.111653 -2.01391 0
M  V30 2986 C 292.748 1.42529 -1.33959 0
M  V30 2987 O 293.954 2.07232 -1.75405 0
M  V30 2988 C 292.41 0.249514 -3.59034 0
M  V30 2989 C 292.018 -1.05453 -4.35412 0
M  V30 2990 C 293.762 0.765762 -4.17536 0
M  V30 2991 C 291.669 -0.881529 -5.84793 0
M  V30 2992 H 290.599 0.0455022 -0.752626 0
M  V30 2993 H 293.25 -0.583524 -1.73975 0
M  V30 2994 H 291.632 1.00803 -3.82955 0
M  V30 2995 H 292.806 -1.82248 -4.23229 0
M  V30 2996 H 291.121 -1.50039 -3.88429 0
M  V30 2997 H 293.718 0.911913 -5.26866 0
M  V30 2998 H 294.061 1.75201 -3.77638 0
M  V30 2999 H 294.594 0.0651744 -3.97747 0
M  V30 3000 H 291.333 -1.84057 -6.29129 0
M  V30 3001 H 290.853 -0.153625 -5.99603 0
M  V30 3002 H 292.532 -0.540363 -6.4474 0
M  V30 3003 N 292.664 1.56529 -0.183458 0
M  V30 3004 C 293.892 2.01623 0.464285 0
M  V30 3005 C 294.307 1.06366 1.55986 0
M  V30 3006 O 293.664 0.0665398 1.82379 0
M  V30 3007 C 293.715 3.46475 1.03139 0
M  V30 3008 O 293.436 4.38095 -0.0204675 0
M  V30 3009 C 294.937 4.0703 1.75617 0
M  V30 3010 H 292.157 0.660596 0.117704 0
M  V30 3011 H 294.701 2.02451 -0.288751 0
M  V30 3012 H 292.856 3.46383 1.73486 0
M  V30 3013 H 293.27 5.22973 0.399952 0
M  V30 3014 H 294.744 5.10271 2.10542 0
M  V30 3015 H 295.221 3.49819 2.65563 0
M  V30 3016 H 295.827 4.1086 1.09882 0
M  V30 3017 N 294.142 -0.090211 1.57342 0
M  V30 3018 C 295.388 -0.788838 1.8748 0
M  V30 3019 C 295.743 -1.76105 0.7749 0
M  V30 3020 O 295.036 -1.90302 -0.222663 0
M  V30 3021 C 295.23 -1.55222 3.21933 0
M  V30 3022 C 295.059 -0.655441 4.44898 0
M  V30 3023 C 293.829 -0.299325 5.04413 0
M  V30 3024 C 296.027 0.0397458 5.14285 0
M  V30 3025 N 294.009 0.605108 6.10911 0
M  V30 3026 C 295.38 0.802061 6.1479 0
M  V30 3027 C 297.435 0.113154 4.97771 0
M  V30 3028 C 296.138 1.63093 7.00566 0
M  V30 3029 C 298.164 0.928942 5.84059 0
M  V30 3030 C 297.526 1.67936 6.84088 0
M  V30 3031 H 293.625 -0.26467 0.735849 0
M  V30 3032 H 296.209 -0.0511453 1.94633 0
M  V30 3033 H 294.38 -2.26076 3.15823 0
M  V30 3034 H 296.112 -2.19843 3.39781 0
M  V30 3035 H 292.867 -0.648079 4.69145 0
M  V30 3036 H 293.291 1.05002 6.68808 0
M  V30 3037 H 297.933 -0.452676 4.2037 0
M  V30 3038 H 295.651 2.20781 7.77355 0
M  V30 3039 H 299.237 0.988478 5.73341 0
M  V30 3040 H 298.117 2.30044 7.49699 0
M  V30 3041 N 295.62 -1.53406 -0.361157 0
M  V30 3042 C 296.567 -1.80156 -1.44265 0
M  V30 3043 C 297.537 -0.646183 -1.53015 0
M  V30 3044 O 298.722 -0.888818 -1.68833 0
M  V30 3045 C 295.862 -2.00116 -2.81154 0
M  V30 3046 C 294.975 -3.27833 -2.81335 0
M  V30 3047 C 294.11 -3.37957 -4.09828 0
M  V30 3048 C 293.149 -4.59689 -4.04168 0
M  V30 3049 N 292.286 -4.66942 -5.24318 0
M  V30 3050 H 297.126 -2.72438 -1.20754 0
M  V30 3051 H 294.663 -1.34954 -0.585296 0
M  V30 3052 H 296.621 -2.09677 -3.60682 0
M  V30 3053 H 295.251 -1.11167 -3.03054 0
M  V30 3054 H 294.303 -3.27204 -1.94014 0
M  V30 3055 H 295.615 -4.17442 -2.73027 0
M  V30 3056 H 294.769 -3.46853 -4.97773 0
M  V30 3057 H 293.508 -2.46372 -4.20894 0
M  V30 3058 H 292.513 -4.50889 -3.14609 0
M  V30 3059 H 293.738 -5.5262 -3.947 0
M  V30 3060 H 291.684 -3.7826 -5.35962 0
M  V30 3061 H 291.601 -5.50462 -5.18197 0
M  V30 3062 H 292.869 -4.80127 -6.14084 0
M  V30 3063 N 297.098 0.621204 -1.44841 0
M  V30 3064 C 298.509 1.20298 -1.42777 0
M  V30 3065 C 298.86 1.95639 -0.148259 0
M  V30 3066 O 297.985 2.02955 0.750892 0
M  V30 3067 C 298.58 2.1882 -2.58657 0
M  V30 3068 C 297.139 2.72403 -2.59756 0
M  V30 3069 C 296.286 1.4757 -2.34773 0
M  V30 3070 H 299.237 0.411297 -1.53278 0
M  V30 3071 H 299.258 3.01607 -2.31977 0
M  V30 3072 H 298.77 1.63957 -3.51766 0
M  V30 3073 H 296.871 3.31242 -1.70615 0
M  V30 3074 H 296.984 3.17765 -3.58556 0
M  V30 3075 H 295.348 1.76051 -1.8406 0
M  V30 3076 H 296.131 0.945954 -3.3001 0
M  V30 3077 N 298.576 1.31904 0.862503 0
M  V30 3078 C 299.806 1.24817 1.64634 0
M  V30 3079 C 300.214 -0.187579 1.88268 0
M  V30 3080 O 299.557 -1.13253 1.44635 0
M  V30 3081 C 299.619 1.92996 3.03303 0
M  V30 3082 C 299.283 3.42336 3.02746 0
M  V30 3083 C 300.28 4.37956 2.80162 0
M  V30 3084 C 297.965 3.84147 3.2363 0
M  V30 3085 C 299.959 5.73361 2.78453 0
M  V30 3086 C 297.646 5.19663 3.21549 0
M  V30 3087 C 298.644 6.14081 2.98988 0
M  V30 3088 O 298.332 7.47118 2.96766 0
M  V30 3089 H 298.064 0.432222 0.519769 0
M  V30 3090 H 300.618 1.7445 1.08427 0
M  V30 3091 H 298.848 1.37922 3.61268 0
M  V30 3092 H 300.537 1.79723 3.63943 0
M  V30 3093 H 301.303 4.06981 2.63802 0
M  V30 3094 H 297.182 3.11083 3.40218 0
M  V30 3095 H 300.726 6.4703 2.60763 0
M  V30 3096 H 296.623 5.5027 3.37451 0
M  V30 3097 H 297.391 7.56382 3.12775 0
M  V30 3098 N 300.054 -1.07777 1.14986 0
M  V30 3099 C 301.331 -1.7699 0.832695 0
M  V30 3100 C 301.711 -2.001 -0.672561 0
M  V30 3101 O 301.059 -1.61598 -1.6155 0
M  V30 3102 C 301.269 -3.08139 1.63863 0
M  V30 3103 C 302.617 -3.8256 1.84208 0
M  V30 3104 O 303.641 -3.17939 1.60603 0
M  V30 3105 O 302.5 -4.98612 2.23714 0
M  V30 3106 H 299.594 -0.768389 0.305791 0
M  V30 3107 H 302.14 -1.14182 1.25541 0
M  V30 3108 H 300.912 -2.86909 2.6608 0
M  V30 3109 H 300.535 -3.78678 1.21197 0
M  V30 3110 N 301.532 -0.945985 -1.26051 0
M  V30 3111 C 302.495 -0.463897 -2.24456 0
M  V30 3112 C 303.495 0.427655 -1.55009 0
M  V30 3113 O 304.685 0.226157 -1.72726 0
M  V30 3114 C 301.817 0.330812 -3.39291 0
M  V30 3115 H 303.01 -1.33357 -2.68619 0
M  V30 3116 H 300.563 -0.728416 -1.38289 0
M  V30 3117 H 301.298 1.21852 -3.00537 0
M  V30 3118 H 301.083 -0.308679 -3.90883 0
M  V30 3119 H 302.573 0.657865 -4.12386 0
M  V30 3120 N 303.011 1.40521 -0.713556 0
M  V30 3121 C 303.974 2.29098 -0.0684347 0
M  V30 3122 C 304.974 1.45268 0.689472 0
M  V30 3123 O 306.164 1.66205 0.521677 0
M  V30 3124 C 303.296 3.28446 0.913024 0
M  V30 3125 H 304.489 2.87645 -0.84855 0
M  V30 3126 H 302.042 1.48809 -0.47809 0
M  V30 3127 H 302.777 2.74913 1.72027 0
M  V30 3128 H 302.562 3.90327 0.372472 0
M  V30 3129 H 304.052 3.94777 1.36165 0
M  V30 3130 N 304.489 0.459591 1.5075 0
M  V30 3131 C 305.766 -0.160371 1.94941 0
M  V30 3132 C 306.146 -1.58048 1.39943 0
M  V30 3133 O 305.494 -2.206 0.595629 0
M  V30 3134 C 305.704 -0.115432 3.48809 0
M  V30 3135 C 307.052 -0.310026 4.23467 0
M  V30 3136 O 308.076 -0.192543 3.55679 0
M  V30 3137 O 306.935 -0.546031 5.43765 0
M  V30 3138 H 304.029 -0.117925 0.818549 0
M  V30 3139 H 306.575 0.519169 1.61563 0
M  V30 3140 H 305.347 0.87652 3.81357 0
M  V30 3141 H 304.97 -0.836928 3.88692 0
M  V30 3142 N 305.967 -1.56429 0.191757 0
M  V30 3143 C 306.897 -2.21937 -0.725696 0
M  V30 3144 C 307.878 -1.1814 -1.2238 0
M  V30 3145 O 309.063 -1.46636 -1.27325 0
M  V30 3146 C 306.193 -2.87611 -1.94672 0
M  V30 3147 C 305.147 -3.97623 -1.58366 0
M  V30 3148 C 304.473 -4.50446 -2.88102 0
M  V30 3149 C 305.773 -5.16197 -0.796133 0
M  V30 3150 H 307.467 -2.98861 -0.179606 0
M  V30 3151 H 305.013 -1.43749 -0.0849464 0
M  V30 3152 H 306.966 -3.3212 -2.59373 0
M  V30 3153 H 305.69 -2.08087 -2.51728 0
M  V30 3154 H 304.349 -3.53801 -0.960247 0
M  V30 3155 H 303.997 -3.67688 -3.43241 0
M  V30 3156 H 303.697 -5.24675 -2.64556 0
M  V30 3157 H 305.221 -4.97654 -3.53798 0
M  V30 3158 H 306.635 -5.57271 -1.34618 0
M  V30 3159 H 305.032 -5.96471 -0.658928 0
M  V30 3160 H 306.102 -4.84473 0.203478 0
M  V30 3161 N 307.445 0.0818655 -1.57387 0
M  V30 3162 C 308.722 0.815343 -1.77796 0
M  V30 3163 C 309.102 1.96289 -0.77679 0
M  V30 3164 O 308.45 2.27691 0.192106 0
M  V30 3165 C 308.66 1.29765 -3.23978 0
M  V30 3166 C 310.008 1.7351 -3.8753 0
M  V30 3167 O 311.032 1.39356 -3.27808 0
M  V30 3168 O 309.891 2.36708 -4.92576 0
M  V30 3169 H 306.985 0.389914 -0.729312 0
M  V30 3170 H 309.531 0.0627213 -1.69584 0
M  V30 3171 H 308.303 0.47608 -3.88393 0
M  V30 3172 H 307.926 2.11189 -3.36875 0
M  V30 3173 N 308.923 1.53595 0.353017 0
M  V30 3174 C 310.334 1.61937 0.929153 0
M  V30 3175 C 310.685 0.494686 1.89861 0
M  V30 3176 O 309.81 -0.377017 2.1309 0
M  V30 3177 C 310.405 2.93526 1.69199 0
M  V30 3178 C 308.964 3.04161 2.21727 0
M  V30 3179 C 308.111 2.57322 1.03348 0
M  V30 3180 H 311.062 1.58155 0.131431 0
M  V30 3181 H 311.083 2.82034 2.55416 0
M  V30 3182 H 310.595 3.75362 0.986144 0
M  V30 3183 H 308.696 2.26938 2.95516 0
M  V30 3184 H 308.809 4.09465 2.48748 0
M  V30 3185 H 307.173 2.12499 1.40414 0
M  V30 3186 H 307.956 3.41588 0.342428 0
M  V30 3187 N 310.401 -0.613514 1.45168 0
M  V30 3188 C 311.629 -1.39946 1.5239 0
M  V30 3189 C 312.044 -1.88167 0.154531 0
M  V30 3190 O 311.401 -1.61872 -0.842843 0
M  V30 3191 C 311.452 -2.60795 2.50337 0
M  V30 3192 O 311.173 -2.1458 3.81952 0
M  V30 3193 C 312.674 -3.53723 2.67198 0
M  V30 3194 H 309.894 -0.428593 0.516284 0
M  V30 3195 H 312.438 -0.748753 1.903 0
M  V30 3196 H 310.593 -3.21919 2.15515 0
M  V30 3197 H 311.007 -2.93055 4.34993 0
M  V30 3198 H 312.481 -4.35079 3.39721 0
M  V30 3199 H 312.958 -4.0368 1.73029 0
M  V30 3200 H 313.564 -2.98456 3.02992 0
M  V30 3201 N 311.879 -1.3236 -0.855495 0
M  V30 3202 C 312.789 -1.23221 -1.99634 0
M  V30 3203 C 313.805 -0.145983 -1.73387 0
M  V30 3204 O 314.981 -0.366502 -1.98037 0
M  V30 3205 C 312.046 -0.954782 -3.33294 0
M  V30 3206 C 311.107 -2.12937 -3.72769 0
M  V30 3207 C 310.34 -1.86508 -5.00051 0
M  V30 3208 O 310.563 -0.807231 -5.64659 0
M  V30 3209 O 309.497 -2.72591 -5.36636 0
M  V30 3210 H 313.323 -2.19126 -2.1028 0
M  V30 3211 H 310.908 -1.12241 -0.986018 0
M  V30 3212 H 312.79 -0.816519 -4.13414 0
M  V30 3213 H 311.465 -0.0258854 -3.2369 0
M  V30 3214 H 310.372 -2.3231 -2.93228 0
M  V30 3215 H 311.705 -3.04102 -3.87018 0
M  V30 3216 N 313.357 1.07166 -1.15556 0
M  V30 3217 C 314.305 2.16517 -0.8499 0
M  V30 3218 C 315.299 1.68468 0.177454 0
M  V30 3219 O 316.505 1.79971 0.0323026 0
M  V30 3220 H 312.88 0.706652 -0.25719 0
M  V30 3221 H 314.851 2.39514 -1.77976 0
M  V30 3222 C 313.6 3.45855 -0.357682 0
M  V30 3223 H 312.923 3.83214 -1.13961 0
M  V30 3224 H 314.363 4.23607 -0.182489 0
M  V30 3225 C 312.822 3.24062 0.921152 0
M  V30 3226 O 313.352 3.48813 1.9923 0
M  V30 3227 N 311.558 2.77539 0.86141 0
M  V30 3228 H 311.105 2.57598 -0.0104408 0
M  V30 3229 H 311.063 2.63337 1.71758 0
M  V30 3230 N 314.835 0.952656 1.25548 0
M  V30 3231 C 316.246 0.647392 1.75116 0
M  V30 3232 C 316.597 -0.837274 1.77438 0
M  V30 3233 O 315.722 -1.65525 1.39393 0
M  V30 3234 C 316.317 1.16845 3.18014 0
M  V30 3235 C 314.876 0.913382 3.6515 0
M  V30 3236 C 314.023 1.31265 2.44264 0
M  V30 3237 H 316.974 1.12968 1.11462 0
M  V30 3238 H 316.995 0.527606 3.76824 0
M  V30 3239 H 316.507 2.24902 3.16292 0
M  V30 3240 H 314.608 -0.152316 3.72289 0
M  V30 3241 H 314.721 1.54845 4.53387 0
M  V30 3242 H 313.085 0.731028 2.43984 0
M  V30 3243 H 313.868 2.40239 2.45234 0
M  V30 3244 N 316.313 -1.40141 0.720998 0
M  V30 3245 C 317.56 -2.00787 0.262842 0
M  V30 3246 C 317.888 -1.5718 -1.14563 0
M  V30 3247 O 317.143 -0.785391 -1.79249 0
M  V30 3248 C 317.442 -3.56165 0.296892 0
M  V30 3249 C 317.108 -4.19373 1.65641 0
M  V30 3250 C 315.77 -4.36352 2.02855 0
M  V30 3251 C 318.122 -4.54578 2.54968 0
M  V30 3252 C 315.45 -4.8582 3.28931 0
M  V30 3253 C 317.802 -5.05447 3.80402 0
M  V30 3254 C 316.466 -5.20635 4.17726 0
M  V30 3255 H 315.736 -0.734731 0.0961807 0
M  V30 3256 H 318.383 -1.67673 0.925093 0
M  V30 3257 H 316.688 -3.8922 -0.448932 0
M  V30 3258 H 318.385 -4.00929 -0.0755208 0
M  V30 3259 H 314.975 -4.06549 1.35704 0
M  V30 3260 H 319.159 -4.41091 2.27491 0
M  V30 3261 H 314.415 -4.95764 3.57811 0
M  V30 3262 H 318.589 -5.31663 4.49786 0
M  V30 3263 H 316.216 -5.58728 5.15487 0
M  V30 3264 N 317.792 -0.46758 -1.50504 0
M  V30 3265 C 319.069 0.15003 -1.95024 0
M  V30 3266 C 319.449 1.57304 -1.40779 0
M  V30 3267 O 318.797 2.20281 -0.607319 0
M  V30 3268 C 319.007 0.0969324 -3.48865 0
M  V30 3269 C 320.355 0.287565 -4.23625 0
M  V30 3270 O 321.379 0.173678 -3.55776 0
M  V30 3271 O 320.238 0.517186 -5.44047 0
M  V30 3272 H 317.332 0.113582 -0.819163 0
M  V30 3273 H 319.878 -0.52773 -1.61286 0
M  V30 3274 H 318.65 -0.896732 -3.80886 0
M  V30 3275 H 318.273 0.816303 -3.8913 0
M  V30 3276 N 319.27 1.56325 -0.20005 0
M  V30 3277 C 320.2 2.22318 0.713916 0
M  V30 3278 C 321.181 1.18788 1.21752 0
M  V30 3279 O 322.366 1.47309 1.26545 0
M  V30 3280 C 319.496 2.88639 1.93144 0
M  V30 3281 C 318.45 3.98457 1.56255 0
M  V30 3282 C 317.776 4.51967 2.85709 0
M  V30 3283 C 319.076 5.16612 0.768747 0
M  V30 3284 H 320.77 2.98952 0.163755 0
M  V30 3285 H 318.316 1.43792 0.0773219 0
M  V30 3286 H 320.269 3.33491 2.57608 0
M  V30 3287 H 318.993 2.09419 2.50621 0
M  V30 3288 H 317.652 3.54305 0.941471 0
M  V30 3289 H 317.3 3.69503 3.41287 0
M  V30 3290 H 317 5.26071 2.6177 0
M  V30 3291 H 318.524 4.99523 3.51154 0
M  V30 3292 H 319.938 5.57977 1.3166 0
M  V30 3293 H 318.335 5.96812 0.627286 0
M  V30 3294 H 319.405 4.84358 -0.229168 0
M  V30 3295 N 320.748 -0.0735177 1.57428 0
M  V30 3296 C 321.678 -1.0879 2.06608 0
M  V30 3297 C 322.659 -1.40473 0.959237 0
M  V30 3298 O 323.844 -1.5013 1.23185 0
M  V30 3299 C 320.974 -2.40183 2.50857 0
M  V30 3300 C 319.928 -2.22858 3.65402 0
M  V30 3301 C 319.254 -3.59619 3.957 0
M  V30 3302 C 320.554 -1.65123 4.95511 0
M  V30 3303 H 322.248 -0.678673 2.91607 0
M  V30 3304 H 319.794 -0.325013 1.40284 0
M  V30 3305 H 321.747 -3.11437 2.83874 0
M  V30 3306 H 320.471 -2.83083 1.62885 0
M  V30 3307 H 319.13 -1.54045 3.32664 0
M  V30 3308 H 318.778 -4.00086 3.04861 0
M  V30 3309 H 318.478 -3.48866 4.72828 0
M  V30 3310 H 320.002 -4.32306 4.31212 0
M  V30 3311 H 321.416 -2.26241 5.26771 0
M  V30 3312 H 319.813 -1.65071 5.7695 0
M  V30 3313 H 320.883 -0.612559 4.81015 0
M  V30 3314 N 322.226 -1.5378 -0.344866 0
M  V30 3315 C 323.503 -1.61589 -1.10219 0
M  V30 3316 C 323.883 -0.436316 -2.06542 0
M  V30 3317 O 323.231 0.571543 -2.21237 0
M  V30 3318 C 323.441 -2.97602 -1.82301 0
M  V30 3319 C 324.789 -3.5291 -2.36093 0
M  V30 3320 O 325.813 -2.99768 -1.924 0
M  V30 3321 O 324.672 -4.45859 -3.16026 0
M  V30 3322 H 321.766 -0.653522 -0.506792 0
M  V30 3323 H 324.312 -1.66126 -0.346465 0
M  V30 3324 H 323.084 -3.74893 -1.12121 0
M  V30 3325 H 322.707 -2.9665 -2.64735 0
M  V30 3326 N 323.704 0.605807 -1.45491 0
M  V30 3327 C 324.951 1.36476 -1.49601 0
M  V30 3328 C 325.279 1.94007 -0.138452 0
M  V30 3329 O 324.534 1.75638 0.863114 0
M  V30 3330 C 324.833 2.53012 -2.52428 0
M  V30 3331 C 324.499 2.13617 -3.97087 0
M  V30 3332 C 323.161 2.02587 -4.36477 0
M  V30 3333 C 325.513 1.82899 -4.88055 0
M  V30 3334 C 322.841 1.59064 -5.64726 0
M  V30 3335 C 325.193 1.40861 -6.16718 0
M  V30 3336 C 323.857 1.28391 -6.55036 0
M  V30 3337 H 323.127 0.499402 -0.547429 0
M  V30 3338 H 325.774 0.684546 -1.78847 0
M  V30 3339 H 324.079 3.26379 -2.16758 0
M  V30 3340 H 325.776 3.1124 -2.52845 0
M  V30 3341 H 322.366 2.23129 -3.65939 0
M  V30 3342 H 326.55 1.90317 -4.58359 0
M  V30 3343 H 321.806 1.48034 -5.93208 0
M  V30 3344 H 325.98 1.16138 -6.86648 0
M  V30 3345 H 323.607 0.944403 -7.54311 0
M  V30 3346 N 325.182 1.32811 0.848464 0
M  V30 3347 C 326.13 1.22231 1.97895 0
M  V30 3348 C 327.124 0.125749 1.68933 0
M  V30 3349 O 328.33 0.289083 1.77663 0
M  V30 3350 H 324.705 0.379058 0.649476 0
M  V30 3351 H 326.676 2.17828 2.03945 0
M  V30 3352 C 325.425 0.968572 3.33937 0
M  V30 3353 H 324.748 1.80458 3.56756 0
M  V30 3354 H 326.188 0.934808 4.13567 0
M  V30 3355 C 324.647 -0.328628 3.35293 0
M  V30 3356 O 325.177 -1.33848 3.78745 0
M  V30 3357 N 323.383 -0.352788 2.88451 0
M  V30 3358 H 322.93 0.469541 2.53285 0
M  V30 3359 H 322.888 -1.22057 2.89741 0
M  V30 3360 N 326.66 -1.06551 1.16123 0
M  V30 3361 C 327.592 -2.13908 0.823171 0
M  V30 3362 C 328.605 -1.61926 -0.16843 0
M  V30 3363 O 329.794 -1.78412 0.055962 0
M  V30 3364 C 326.894 -3.38283 0.204424 0
M  V30 3365 C 326.067 -4.19589 1.23548 0
M  V30 3366 C 325.126 -5.2233 0.637011 0
M  V30 3367 O 324.152 -5.54034 1.30516 0
M  V30 3368 N 325.354 -5.77621 -0.577474 0
M  V30 3369 H 328.119 -2.43508 1.74711 0
M  V30 3370 H 325.68 -1.2253 1.05821 0
M  V30 3371 H 327.672 -4.0416 -0.208909 0
M  V30 3372 H 326.242 -3.06329 -0.623012 0
M  V30 3373 H 325.462 -3.49406 1.82507 0
M  V30 3374 H 326.75 -4.70718 1.93137 0
M  V30 3375 H 326.148 -5.54125 -1.13853 0
M  V30 3376 H 324.705 -6.45087 -0.933053 0
M  V30 3377 N 328.138 -0.959301 -1.25041 0
M  V30 3378 C 329.366 -0.633949 -1.96948 0
M  V30 3379 C 329.781 0.794916 -1.7125 0
M  V30 3380 O 329.138 1.53231 -0.991287 0
M  V30 3381 C 329.189 -0.888805 -3.50403 0
M  V30 3382 O 328.91 -2.26149 -3.75218 0
M  V30 3383 C 330.411 -0.576482 -4.39536 0
M  V30 3384 H 327.631 -0.237263 -0.627652 0
M  V30 3385 H 330.175 -1.28495 -1.59089 0
M  V30 3386 H 328.33 -0.284145 -3.86357 0
M  V30 3387 H 328.744 -2.33514 -4.6965 0
M  V30 3388 H 330.218 -0.805314 -5.46094 0
M  V30 3389 H 330.695 0.489075 -4.36468 0
M  V30 3390 H 331.301 -1.16067 -4.09156 0
M  V30 3391 N 329.616 1.39756 -0.72842 0
M  V30 3392 C 330.548 2.29157 -0.0446202 0
M  V30 3393 C 331.561 1.46484 0.710367 0
M  V30 3394 O 332.75 1.69632 0.55562 0
M  V30 3395 C 329.85 3.24987 0.961071 0
M  V30 3396 C 329.023 4.36572 0.268967 0
M  V30 3397 C 328.082 5.12756 1.18184 0
M  V30 3398 O 327.108 5.6534 0.661794 0
M  V30 3399 N 328.31 5.23331 2.51206 0
M  V30 3400 H 331.075 2.88482 -0.812295 0
M  V30 3401 H 328.636 1.51265 -0.577098 0
M  V30 3402 H 330.628 3.72827 1.57423 0
M  V30 3403 H 329.198 2.66739 1.63 0
M  V30 3404 H 328.418 3.90694 -0.524574 0
M  V30 3405 H 329.706 5.08363 -0.210934 0
M  V30 3406 H 329.104 4.82116 2.9594 0
M  V30 3407 H 327.661 5.74634 3.07634 0
M  V30 3408 N 331.094 0.475555 1.50254 0
M  V30 3409 C 332.505 0.0215174 1.86688 0
M  V30 3410 C 332.856 -1.38467 1.39001 0
M  V30 3411 O 331.981 -2.02732 0.756894 0
M  V30 3412 C 332.576 0.0322715 3.38785 0
M  V30 3413 C 331.135 -0.366314 3.74613 0
M  V30 3414 C 330.282 0.415832 2.74164 0
M  V30 3415 H 333.233 0.689612 1.42934 0
M  V30 3416 H 333.254 -0.76889 3.7265 0
M  V30 3417 H 332.766 1.05584 3.73462 0
M  V30 3418 H 330.867 -1.39406 3.45538 0
M  V30 3419 H 330.98 -0.064555 4.79057 0
M  V30 3420 H 329.344 -0.131048 2.54363 0
M  V30 3421 H 330.127 1.43899 3.11686 0
M  V30 3422 N 332.573 -1.56217 0.208337 0
M  V30 3423 C 333.483 -2.23316 -0.718836 0
M  V30 3424 C 334.499 -1.23648 -1.22422 0
M  V30 3425 O 335.675 -1.56423 -1.26861 0
M  V30 3426 C 332.74 -2.88968 -1.91568 0
M  V30 3427 C 331.801 -4.03943 -1.45357 0
M  V30 3428 C 331.034 -4.66455 -2.59337 0
M  V30 3429 O 331.257 -4.27919 -3.77149 0
M  V30 3430 O 330.191 -5.55686 -2.31293 0
M  V30 3431 H 334.017 -3.03182 -0.177315 0
M  V30 3432 H 331.602 -1.49384 -0.0215402 0
M  V30 3433 H 333.484 -3.30455 -2.61491 0
M  V30 3434 H 332.159 -2.12071 -2.44556 0
M  V30 3435 H 331.066 -3.67052 -0.722746 0
M  V30 3436 H 332.399 -4.82543 -0.970219 0
M  V30 3437 N 334.051 0.0651679 -1.57465 0
M  V30 3438 C 335.467 0.420105 -1.53972 0
M  V30 3439 C 335.667 1.78782 -0.929474 0
M  V30 3440 O 334.723 2.46771 -0.534839 0
M  V30 3441 C 336.036 0.355084 -2.98596 0
M  V30 3442 C 337.584 0.434792 -3.09965 0
M  V30 3443 C 338.059 0.399609 -4.56253 0
M  V30 3444 N 339.55 0.459488 -4.60915 0
M  V30 3445 C 340.285 0.454584 -5.71595 0
M  V30 3446 N 339.781 0.404102 -6.9162 0
M  V30 3447 N 341.574 0.501635 -5.59857 0
M  V30 3448 H 333.725 -0.830328 -1.95498 0
M  V30 3449 H 335.988 -0.312244 -0.895102 0
M  V30 3450 H 335.694 -0.583357 -3.46828 0
M  V30 3451 H 335.568 1.16275 -3.58831 0
M  V30 3452 H 337.955 1.36366 -2.61703 0
M  V30 3453 H 338.036 -0.40157 -2.52628 0
M  V30 3454 H 337.68 -0.525436 -5.05175 0
M  V30 3455 H 337.61 1.25359 -5.11461 0
M  V30 3456 H 340.101 0.502482 -3.74544 0
M  V30 3457 H 340.414 0.404468 -7.71741 0
M  V30 3458 H 338.759 0.37069 -6.94011 0
M  V30 3459 H 341.95 0.538812 -4.64989 0
M  V30 3460 H 342.123 0.494345 -6.46112 0
M  V30 3461 N 335.529 1.53961 0.336706 0
M  V30 3462 C 336.777 1.71197 1.07405 0
M  V30 3463 C 337.098 0.481475 1.88962 0
M  V30 3464 O 336.368 -0.504585 1.8929 0
M  V30 3465 H 334.948 0.631185 0.399517 0
M  V30 3466 H 337.61 1.91232 0.376323 0
M  V30 3467 H 336.706 2.58587 1.74755 0
M  V30 3468 N 337.007 -0.598083 1.45811 0
M  V30 3469 C 338.284 -1.35777 1.40797 0
M  V30 3470 C 338.664 -2.10935 0.083462 0
M  V30 3471 O 338.012 -2.08505 -0.934763 0
M  V30 3472 C 338.222 -2.29666 2.62783 0
M  V30 3473 C 339.57 -2.91977 3.08277 0
M  V30 3474 O 340.594 -2.39984 2.63223 0
M  V30 3475 O 339.453 -3.86376 3.86491 0
M  V30 3476 H 336.547 -0.609291 0.55919 0
M  V30 3477 H 339.093 -0.620379 1.57954 0
M  V30 3478 H 337.865 -1.73454 3.50756 0
M  V30 3479 H 337.488 -3.1077 2.48008 0
M  V30 3480 N 338.485 -1.33259 -0.841409 0
M  V30 3481 C 339.433 -1.23279 -1.97244 0
M  V30 3482 C 340.427 -0.134706 -1.68864 0
M  V30 3483 O 341.633 -0.298501 -1.77508 0
M  V30 3484 H 338.008 -0.382497 -0.647457 0
M  V30 3485 H 339.979 -2.18906 -2.02787 0
M  V30 3486 C 338.728 -0.986268 -3.33419 0
M  V30 3487 H 338.051 -1.82347 -3.55794 0
M  V30 3488 H 339.491 -0.956728 -4.13065 0
M  V30 3489 C 337.95 0.310842 -3.35463 0
M  V30 3490 O 338.48 1.31838 -3.79449 0
M  V30 3491 N 336.686 0.337485 -2.88634 0
M  V30 3492 H 336.233 -0.482967 -2.53032 0
M  V30 3493 H 336.191 1.20518 -2.90384 0
M  V30 3494 N 339.963 1.05934 -1.16686 0
M  V30 3495 C 340.911 2.15603 -0.872817 0
M  V30 3496 C 341.905 1.68647 0.159576 0
M  V30 3497 O 343.111 1.79995 0.0132125 0
M  V30 3498 H 339.486 0.703885 -0.264671 0
M  V30 3499 H 341.457 2.37613 -1.80507 0
M  V30 3500 C 340.206 3.45457 -0.394344 0
M  V30 3501 H 339.529 3.81984 -1.18019 0
M  V30 3502 H 340.969 4.2339 -0.227408 0
M  V30 3503 C 339.428 3.25021 0.88673 0
M  V30 3504 O 339.958 3.50906 1.95519 0
M  V30 3505 N 338.164 2.78437 0.831925 0
M  V30 3506 H 337.711 2.57572 -0.0377619 0
M  V30 3507 H 337.669 2.65144 1.68956 0
M  V30 3508 N 341.441 0.965919 1.2453 0
M  V30 3509 C 342.371 0.513476 2.27784 0
M  V30 3510 C 343.352 -0.445974 1.6415 0
M  V30 3511 O 344.537 -0.342485 1.91156 0
M  V30 3512 C 341.667 -0.198839 3.4673 0
M  V30 3513 C 340.621 0.676456 4.2262 0
M  V30 3514 C 339.947 -0.167248 5.34438 0
M  V30 3515 C 341.247 1.96017 4.84123 0
M  V30 3516 H 342.941 1.3765 2.65881 0
M  V30 3517 H 340.487 0.663321 1.27813 0
M  V30 3518 H 342.44 -0.526567 4.18097 0
M  V30 3519 H 341.164 -1.0962 3.07654 0
M  V30 3520 H 339.823 0.98743 3.53052 0
M  V30 3521 H 339.471 -1.0647 4.91603 0
M  V30 3522 H 339.171 0.415181 5.86131 0
M  V30 3523 H 340.695 -0.489688 6.08633 0
M  V30 3524 H 342.109 1.69814 5.47573 0
M  V30 3525 H 340.506 2.48918 5.4604 0
M  V30 3526 H 341.576 2.65622 4.05676 0
M  V30 3527 N 342.919 -1.39368 0.735821 0
M  V30 3528 C 344.147 -2.04795 0.294393 0
M  V30 3529 C 344.562 -1.55478 -1.07107 0
M  V30 3530 O 343.919 -0.720038 -1.67695 0
M  V30 3531 C 343.97 -3.6035 0.288071 0
M  V30 3532 O 343.691 -4.07852 1.59963 0
M  V30 3533 C 345.192 -4.42976 -0.169422 0
M  V30 3534 H 342.412 -0.658571 0.128551 0
M  V30 3535 H 344.956 -1.78399 0.999701 0
M  V30 3536 H 343.111 -3.85645 -0.368355 0
M  V30 3537 H 343.525 -5.02181 1.51375 0
M  V30 3538 H 344.999 -5.51864 -0.122687 0
M  V30 3539 H 345.476 -4.22068 -1.21472 0
M  V30 3540 H 346.082 -4.22832 0.457469 0
M  V30 3541 N 344.397 -0.483516 -1.5 0
M  V30 3542 C 345.813 -0.138404 -1.58999 0
M  V30 3543 C 346.013 1.35597 -1.4905 0
M  V30 3544 O 345.069 2.13039 -1.35539 0
M  V30 3545 C 346.382 -0.699658 -2.92447 0
M  V30 3546 C 347.93 -0.664195 -3.05872 0
M  V30 3547 C 348.405 -1.20321 -4.41913 0
M  V30 3548 N 349.896 -1.16315 -4.48358 0
M  V30 3549 C 350.631 -1.55058 -5.52037 0
M  V30 3550 N 350.127 -2.01311 -6.62907 0
M  V30 3551 N 351.92 -1.46584 -5.42651 0
M  V30 3552 H 344.071 -1.45529 -1.5471 0
M  V30 3553 H 346.334 -0.60258 -0.731848 0
M  V30 3554 H 346.04 -1.747 -3.05242 0
M  V30 3555 H 345.914 -0.150194 -3.76901 0
M  V30 3556 H 348.301 0.374272 -2.92717 0
M  V30 3557 H 348.382 -1.25061 -2.23144 0
M  V30 3558 H 348.026 -2.24037 -4.55818 0
M  V30 3559 H 347.956 -0.592896 -5.23252 0
M  V30 3560 H 350.447 -0.824058 -3.68806 0
M  V30 3561 H 350.76 -2.2899 -7.38095 0
M  V30 3562 H 349.105 -2.05273 -6.63994 0
M  V30 3563 H 352.296 -1.10281 -4.54924 0
M  V30 3564 H 352.469 -1.77103 -6.23329 0
M  V30 3565 N 345.875 1.56104 -0.216619 0
M  V30 3566 C 347.124 1.97348 0.416744 0
M  V30 3567 C 347.437 1.10715 1.6125 0
M  V30 3568 O 348.643 1.41836 2.31506 0
M  V30 3569 C 347.099 3.51059 0.792835 0
M  V30 3570 C 346.707 4.46387 -0.379828 0
M  V30 3571 C 348.451 4.01026 1.39208 0
M  V30 3572 C 346.358 5.91397 0.0184223 0
M  V30 3573 H 345.288 0.736942 0.159475 0
M  V30 3574 H 347.939 1.80827 -0.31205 0
M  V30 3575 H 346.321 3.63162 1.57891 0
M  V30 3576 H 347.495 4.46029 -1.15737 0
M  V30 3577 H 345.81 4.06734 -0.891979 0
M  V30 3578 H 348.407 5.0686 1.70286 0
M  V30 3579 H 348.75 3.46587 2.30614 0
M  V30 3580 H 349.283 3.92125 0.669537 0
M  V30 3581 H 346.022 6.49807 -0.862002 0
M  V30 3582 H 345.542 5.94961 0.760384 0
M  V30 3583 H 347.221 6.45455 0.446818 0
M  V30 3584 N 347.353 -0.0568162 1.57498 0
M  V30 3585 C 348.599 -0.75422 1.88253 0
M  V30 3586 C 348.932 -1.76461 0.810865 0
M  V30 3587 O 348.207 -1.93691 -0.177259 0
M  V30 3588 C 348.49 -1.44878 3.2967 0
M  V30 3589 C 348.343 -0.453789 4.47505 0
M  V30 3590 C 349.662 -2.38994 3.69554 0
M  V30 3591 H 346.781 -0.272724 0.684683 0
M  V30 3592 H 349.423 -0.0172113 1.89992 0
M  V30 3593 H 347.573 -2.077 3.28318 0
M  V30 3594 H 349.245 0.170371 4.60985 0
M  V30 3595 H 347.488 0.229552 4.33192 0
M  V30 3596 H 348.159 -0.977699 5.43273 0
M  V30 3597 H 350.635 -1.86239 3.72095 0
M  V30 3598 H 349.511 -2.84587 4.69363 0
M  V30 3599 H 349.772 -3.24461 3.00296 0
M  V30 3600 N 348.832 -1.54138 -0.328536 0
M  V30 3601 C 350.08 -1.71765 -1.06496 0
M  V30 3602 C 350.401 -0.49149 -1.88704 0
M  V30 3603 O 349.671 0.494539 -1.89555 0
M  V30 3604 H 348.251 -0.633295 -0.396164 0
M  V30 3605 H 350.913 -1.91429 -0.366176 0
M  V30 3606 H 350.009 -2.5951 -1.73381 0
M  V30 3607 N 350.31 0.590341 -1.46126 0
M  V30 3608 C 351.558 1.34616 -1.50742 0
M  V30 3609 C 351.879 1.94363 -0.157486 0
M  V30 3610 O 351.149 1.78136 0.815136 0
M  V30 3611 H 349.729 0.499789 -0.555175 0
M  V30 3612 H 352.391 0.691953 -1.82203 0
M  V30 3613 H 351.487 2.15678 -2.25587 0
M  V30 3614 N 351.788 1.33704 0.83433 0
M  V30 3615 C 352.72 1.20172 1.9517 0
M  V30 3616 C 353.733 0.131572 1.62267 0
M  V30 3617 O 354.922 0.382406 1.74356 0
M  V30 3618 C 352.022 0.821716 3.28787 0
M  V30 3619 C 351.195 1.98446 3.89792 0
M  V30 3620 C 350.254 1.58469 5.01771 0
M  V30 3621 O 349.28 2.29968 5.20676 0
M  V30 3622 N 350.482 0.492291 5.78409 0
M  V30 3623 H 353.247 2.16429 2.07313 0
M  V30 3624 H 350.808 1.26509 1.0103 0
M  V30 3625 H 352.8 0.536291 4.01131 0
M  V30 3626 H 351.37 -0.0503058 3.1256 0
M  V30 3627 H 350.59 2.43526 3.09982 0
M  V30 3628 H 351.878 2.76236 4.27283 0
M  V30 3629 H 351.276 -0.102349 5.65607 0
M  V30 3630 H 349.833 0.266555 6.51255 0
M  V30 3631 N 353.266 -1.05314 1.17247 0
M  V30 3632 C 354.176 -2.16538 0.90268 0
M  V30 3633 C 355.192 -1.73523 -0.128707 0
M  V30 3634 O 356.368 -2.01337 0.0502701 0
M  V30 3635 C 353.433 -3.44167 0.418356 0
M  V30 3636 C 352.494 -4.01635 1.51618 0
M  V30 3637 C 351.727 -5.23171 1.05487 0
M  V30 3638 O 351.95 -5.70327 -0.0914715 0
M  V30 3639 O 350.884 -5.72848 1.8474 0
M  V30 3640 H 354.71 -2.42145 1.83302 0
M  V30 3641 H 352.295 -1.15037 0.953246 0
M  V30 3642 H 354.177 -4.21112 0.155726 0
M  V30 3643 H 352.852 -3.20063 -0.48385 0
M  V30 3644 H 351.759 -3.26135 1.83268 0
M  V30 3645 H 353.092 -4.30053 2.39405 0
M  V30 3646 N 354.744 -0.972509 -1.24016 0
M  V30 3647 C 355.984 -0.644951 -1.93958 0
M  V30 3648 C 356.348 0.80559 -1.74282 0
M  V30 3649 O 357.549 1.2436 -2.38302 0
M  V30 3650 C 355.82 -1.01521 -3.42678 0
M  V30 3651 S 357.379 -0.802927 -4.31391 0
M  V30 3652 H 354.197 -0.236452 -0.670531 0
M  V30 3653 H 356.799 -1.25048 -1.50277 0
M  V30 3654 H 355.503 -2.06769 -3.54506 0
M  V30 3655 H 355.034 -0.400648 -3.91355 0
M  V30 3656 H 357.049 0.317256 -4.95185 0
M  V30 3657 N 356.222 1.38976 -0.743202 0
M  V30 3658 C 357.169 2.30544 -0.10861 0
M  V30 3659 C 358.139 1.49642 0.720869 0
M  V30 3660 O 359.324 1.78304 0.679142 0
M  V30 3661 C 356.464 3.36018 0.786496 0
M  V30 3662 C 355.577 4.31963 -0.0564849 0
M  V30 3663 C 354.712 5.24506 0.840657 0
M  V30 3664 C 353.751 6.121 -0.00658363 0
M  V30 3665 N 352.888 6.96973 0.846943 0
M  V30 3666 H 357.728 2.8424 -0.895088 0
M  V30 3667 H 355.265 1.3995 -0.453048 0
M  V30 3668 H 357.223 3.95768 1.31999 0
M  V30 3669 H 355.853 2.83758 1.53887 0
M  V30 3670 H 354.905 3.73763 -0.707492 0
M  V30 3671 H 356.217 4.93703 -0.711229 0
M  V30 3672 H 355.371 5.89322 1.4417 0
M  V30 3673 H 354.11 4.63107 1.52916 0
M  V30 3674 H 353.115 5.46289 -0.620366 0
M  V30 3675 H 354.34 6.75565 -0.691992 0
M  V30 3676 H 352.286 6.38133 1.52059 0
M  V30 3677 H 352.203 7.5559 0.248864 0
M  V30 3678 H 353.471 7.6621 1.43328 0
M  V30 3679 N 357.7 0.491464 1.49741 0
M  V30 3680 C 358.977 -0.118984 1.95238 0
M  V30 3681 C 359.357 -1.55044 1.43264 0
M  V30 3682 O 358.705 -2.19287 0.642287 0
M  V30 3683 C 358.915 -0.0414187 3.48975 0
M  V30 3684 C 360.263 -0.220133 4.24029 0
M  V30 3685 O 361.287 -0.117055 3.56008 0
M  V30 3686 O 360.146 -0.430567 5.44801 0
M  V30 3687 H 357.24 -0.100536 0.820866 0
M  V30 3688 H 359.786 0.553322 1.60426 0
M  V30 3689 H 358.558 0.957214 3.79412 0
M  V30 3690 H 358.181 -0.754292 3.9038 0
M  V30 3691 N 359.178 -1.55987 0.224894 0
M  V30 3692 C 360.426 -1.97998 -0.405099 0
M  V30 3693 C 360.747 -1.11387 -1.60056 0
M  V30 3694 O 360.017 -0.191645 -1.9496 0
M  V30 3695 H 358.597 -0.731235 -0.152658 0
M  V30 3696 H 361.259 -1.92279 0.318567 0
M  V30 3697 H 360.355 -3.03463 -0.729167 0
M  V30 3698 N 360.656 0.0484629 -1.57525 0
M  V30 3699 C 361.566 1.07241 -2.08654 0
M  V30 3700 C 362.582 1.409 -1.02095 0
M  V30 3701 O 363.758 1.50609 -1.33712 0
M  V30 3702 C 360.823 2.36008 -2.5397 0
M  V30 3703 C 359.884 2.09108 -3.7493 0
M  V30 3704 C 359.117 3.31736 -4.18075 0
M  V30 3705 O 359.34 4.41714 -3.60895 0
M  V30 3706 O 358.274 3.18576 -5.10679 0
M  V30 3707 H 362.1 0.667965 -2.96263 0
M  V30 3708 H 359.685 0.26417 -1.47046 0
M  V30 3709 H 361.567 3.11747 -2.83535 0
M  V30 3710 H 360.242 2.75786 -1.69481 0
M  V30 3711 H 359.149 1.31 -3.50414 0
M  V30 3712 H 360.482 1.74198 -4.60343 0
M  V30 3713 N 362.134 1.5431 0.320358 0
M  V30 3714 C 363.374 1.74395 1.0661 0
M  V30 3715 C 363.738 0.508602 1.85141 0
M  V30 3716 O 364.939 0.586856 2.62316 0
M  V30 3717 C 363.21 2.98619 1.96371 0
M  V30 3718 S 364.769 3.39621 2.77854 0
M  V30 3719 H 361.587 0.613204 0.359863 0
M  V30 3720 H 364.189 1.9249 0.341727 0
M  V30 3721 H 362.893 3.86673 1.3752 0
M  V30 3722 H 362.424 2.83055 2.73209 0
M  V30 3723 H 364.439 2.95172 3.98858 0
M  V30 3724 N 363.613 -0.582584 1.46437 0
M  V30 3725 C 365.024 -1.1647 1.45916 0
M  V30 3726 C 365.375 -1.95177 0.200077 0
M  V30 3727 O 364.5 -2.04874 -0.696819 0
M  V30 3728 C 365.095 -2.11885 2.64367 0
M  V30 3729 C 363.654 -2.65421 2.66887 0
M  V30 3730 C 362.801 -1.41294 2.38603 0
M  V30 3731 H 365.752 -0.370514 1.54314 0
M  V30 3732 H 365.773 -2.9535 2.39892 0
M  V30 3733 H 365.285 -1.54573 3.5599 0
M  V30 3734 H 363.386 -3.26602 1.79338 0
M  V30 3735 H 363.499 -3.08147 3.66854 0
M  V30 3736 H 361.863 -1.71109 1.88663 0
M  V30 3737 H 362.646 -0.858125 3.32402 0
M  V30 3738 N 365.091 -1.34144 -0.827227 0
M  V30 3739 C 366.337 -1.27455 -1.58515 0
M  V30 3740 C 366.692 0.155271 -1.91772 0
M  V30 3741 O 365.985 1.10042 -1.56848 0
M  V30 3742 C 366.179 -2.09464 -2.89585 0
M  V30 3743 C 366.008 -3.60276 -2.69131 0
M  V30 3744 C 364.778 -4.29565 -2.66087 0
M  V30 3745 C 366.976 -4.54367 -2.40947 0
M  V30 3746 N 364.958 -5.66252 -2.37132 0
M  V30 3747 C 366.329 -5.79027 -2.21648 0
M  V30 3748 C 368.384 -4.43327 -2.26639 0
M  V30 3749 C 367.087 -6.93891 -1.89492 0
M  V30 3750 C 369.113 -5.58019 -1.95878 0
M  V30 3751 C 368.475 -6.81695 -1.774 0
M  V30 3752 H 364.574 -0.521614 -0.582617 0
M  V30 3753 H 367.158 -1.68811 -0.970105 0
M  V30 3754 H 365.329 -1.70411 -3.49019 0
M  V30 3755 H 367.061 -1.94453 -3.54923 0
M  V30 3756 H 363.816 -3.81959 -2.80008 0
M  V30 3757 H 364.24 -6.38338 -2.25507 0
M  V30 3758 H 368.882 -3.48333 -2.39633 0
M  V30 3759 H 366.6 -7.88871 -1.75236 0
M  V30 3760 H 370.186 -5.5142 -1.85546 0
M  V30 3761 H 369.066 -7.68942 -1.53941 0
M  V30 3762 N 366.569 1.04691 -1.17803 0
M  V30 3763 C 367.501 2.12571 -0.857097 0
M  V30 3764 C 368.514 1.62174 0.142647 0
M  V30 3765 O 369.703 1.78301 -0.0843387 0
M  V30 3766 C 366.803 3.37915 -0.258216 0
M  V30 3767 C 365.976 4.1757 -1.30207 0
M  V30 3768 C 365.035 5.2125 -0.720029 0
M  V30 3769 O 364.061 5.51888 -1.39314 0
M  V30 3770 N 365.263 5.78466 0.485507 0
M  V30 3771 H 368.028 2.40698 -1.78562 0
M  V30 3772 H 365.589 1.20831 -1.07757 0
M  V30 3773 H 367.581 4.04442 0.144584 0
M  V30 3774 H 366.151 3.07281 0.574199 0
M  V30 3775 H 365.371 3.46458 -1.88043 0
M  V30 3776 H 366.659 4.67586 -2.00601 0
M  V30 3777 H 366.057 5.55866 1.05022 0
M  V30 3778 H 364.614 6.4649 0.830307 0
M  V30 3779 N 368.047 0.979072 1.23499 0
M  V30 3780 C 369.01 0.523244 2.23147 0
M  V30 3781 C 370.01 -0.386406 1.56088 0
M  V30 3782 O 371.2 -0.180283 1.73265 0
M  V30 3783 C 368.332 -0.240739 3.40049 0
M  V30 3784 H 369.525 1.40432 2.64989 0
M  V30 3785 H 367.078 0.764824 1.36309 0
M  V30 3786 H 367.813 -1.13841 3.03662 0
M  V30 3787 H 367.598 0.412207 3.89927 0
M  V30 3788 H 369.088 -0.548297 4.13985 0
M  V30 3789 N 369.525 -1.3858 0.750561 0
M  V30 3790 C 370.455 -2.33102 0.136237 0
M  V30 3791 C 371.436 -1.54713 -0.706965 0
M  V30 3792 O 372.621 -1.83043 -0.648769 0
M  V30 3793 C 369.751 -3.38882 -0.760017 0
M  V30 3794 C 368.705 -4.27995 -0.0197785 0
M  V30 3795 C 368.031 -5.24605 -1.03408 0
M  V30 3796 C 369.331 -5.09554 1.14684 0
M  V30 3797 H 371.025 -2.84726 0.925822 0
M  V30 3798 H 368.571 -1.36898 0.446654 0
M  V30 3799 H 370.524 -4.0397 -1.19943 0
M  V30 3800 H 369.248 -2.85734 -1.58189 0
M  V30 3801 H 367.907 -3.64409 0.400184 0
M  V30 3802 H 367.555 -4.67746 -1.84994 0
M  V30 3803 H 367.255 -5.85081 -0.543464 0
M  V30 3804 H 368.779 -5.9257 -1.47288 0
M  V30 3805 H 370.193 -5.67899 0.785118 0
M  V30 3806 H 368.59 -5.7925 1.56812 0
M  V30 3807 H 369.66 -4.4347 1.96118 0
M  V30 3808 N 371.003 -0.499398 -1.49478 0
M  V30 3809 C 371.933 0.269244 -2.31943 0
M  V30 3810 C 372.914 0.964054 -1.40143 0
M  V30 3811 O 374.099 0.955767 -1.69052 0
M  V30 3812 C 371.229 1.33504 -3.20615 0
M  V30 3813 C 370.183 0.760202 -4.21195 0
M  V30 3814 C 369.509 1.9264 -4.98792 0
M  V30 3815 C 370.809 -0.247661 -5.21712 0
M  V30 3816 H 372.503 -0.419082 -2.96452 0
M  V30 3817 H 370.049 -0.202988 -1.42562 0
M  V30 3818 H 372.002 1.88048 -3.77115 0
M  V30 3819 H 370.726 2.05253 -2.54045 0
M  V30 3820 H 369.385 0.23653 -3.65836 0
M  V30 3821 H 369.033 2.63154 -4.28671 0
M  V30 3822 H 368.733 1.54785 -5.66847 0
M  V30 3823 H 370.257 2.4762 -5.58137 0
M  V30 3824 H 371.671 0.209579 -5.72917 0
M  V30 3825 H 370.068 -0.541962 -5.97648 0
M  V30 3826 H 371.138 -1.16409 -4.7072 0
M  V30 3827 N 372.481 1.55866 -0.233164 0
M  V30 3828 C 373.73 1.97779 0.39579 0
M  V30 3829 C 374.043 1.12419 1.60066 0
M  V30 3830 O 375.249 1.44283 2.29988 0
M  V30 3831 C 373.705 3.5188 0.755556 0
M  V30 3832 C 373.313 4.45959 -0.427152 0
M  V30 3833 C 375.057 4.02479 1.34946 0
M  V30 3834 C 372.964 5.91383 -0.0443043 0
M  V30 3835 H 371.894 0.738592 0.15165 0
M  V30 3836 H 374.545 1.80486 -0.331212 0
M  V30 3837 H 372.927 3.64816 1.5403 0
M  V30 3838 H 374.101 4.44776 -1.20462 0
M  V30 3839 H 372.416 4.05765 -0.935068 0
M  V30 3840 H 375.013 5.08637 1.649 0
M  V30 3841 H 375.356 3.49014 2.26925 0
M  V30 3842 H 375.889 3.92813 0.62791 0
M  V30 3843 H 372.628 6.48857 -0.930874 0
M  V30 3844 H 372.148 5.95734 0.697238 0
M  V30 3845 H 373.827 6.45893 0.378334 0
M  V30 3846 N 373.959 -0.0401083 1.57549 0
M  V30 3847 C 374.907 -1.06264 2.06908 0
M  V30 3848 C 375.901 -1.38132 0.980608 0
M  V30 3849 O 377.107 -1.37167 1.16556 0
M  V30 3850 H 373.482 -0.360166 0.660139 0
M  V30 3851 H 375.453 -0.620445 2.91878 0
M  V30 3852 C 374.202 -2.35846 2.55483 0
M  V30 3853 H 373.525 -2.12183 3.38849 0
M  V30 3854 H 374.965 -3.05765 2.93741 0
M  V30 3855 C 373.424 -3.0404 1.45126 0
M  V30 3856 O 373.954 -3.93424 0.811216 0
M  V30 3857 N 372.16 -2.65184 1.18852 0
M  V30 3858 H 371.707 -1.92584 1.71083 0
M  V30 3859 H 371.665 -3.1113 0.452244 0
M  V30 3860 N 375.437 -1.54477 -0.31217 0
M  V30 3861 C 376.347 -1.87695 -1.4074 0
M  V30 3862 C 377.363 -0.769975 -1.56036 0
M  V30 3863 O 378.539 -1.06537 -1.70915 0
M  V30 3864 C 375.604 -2.10755 -2.75287 0
M  V30 3865 C 374.665 -3.34514 -2.69071 0
M  V30 3866 C 373.898 -3.56465 -3.97201 0
M  V30 3867 O 374.121 -2.81637 -4.96021 0
M  V30 3868 O 373.055 -4.49964 -3.9977 0
M  V30 3869 H 376.881 -2.80849 -1.15574 0
M  V30 3870 H 374.466 -1.40526 -0.507228 0
M  V30 3871 H 376.348 -2.27188 -3.54913 0
M  V30 3872 H 375.023 -1.20788 -3.0032 0
M  V30 3873 H 373.93 -3.23456 -1.87955 0
M  V30 3874 H 375.263 -4.24575 -2.48992 0
M  V30 3875 N 376.915 0.57481 -1.46744 0
M  V30 3876 C 377.825 1.711 -1.60505 0
M  V30 3877 C 378.841 1.67008 -0.488307 0
M  V30 3878 O 380.017 1.86774 -0.753495 0
M  V30 3879 C 377.082 3.07608 -1.59932 0
M  V30 3880 C 376.143 3.22904 -2.82898 0
M  V30 3881 C 375.376 4.529 -2.82343 0
M  V30 3882 O 375.599 5.37278 -1.91542 0
M  V30 3883 O 374.533 4.71611 -3.73987 0
M  V30 3884 H 378.359 1.62436 -2.56609 0
M  V30 3885 H 375.944 0.742779 -1.29627 0
M  V30 3886 H 377.826 3.88877 -1.62336 0
M  V30 3887 H 376.501 3.16692 -0.669898 0
M  V30 3888 H 375.408 2.41099 -2.86046 0
M  V30 3889 H 376.741 3.18715 -3.75076 0
M  V30 3890 N 378.394 1.34581 0.820102 0
M  V30 3891 C 379.342 1.26401 1.95258 0
M  V30 3892 C 380.336 0.161553 1.68628 0
M  V30 3893 O 381.542 0.326703 1.7701 0
M  V30 3894 H 377.917 0.392749 0.64129 0
M  V30 3895 H 379.888 2.22105 1.99279 0
M  V30 3896 C 378.637 1.03919 3.31807 0
M  V30 3897 H 377.96 1.87984 3.52848 0
M  V30 3898 H 379.4 1.02232 4.11491 0
M  V30 3899 C 377.859 -0.257433 3.35915 0
M  V30 3900 O 378.389 -1.25784 3.81499 0
M  V30 3901 N 376.595 -0.291524 2.89134 0
M  V30 3902 H 376.142 0.523161 2.52232 0
M  V30 3903 H 376.1 -1.15883 2.92264 0
M  V30 3904 N 379.872 -1.04064 1.18357 0
M  V30 3905 C 380.782 -2.15569 0.925596 0
M  V30 3906 C 381.798 -1.7365 -0.110295 0
M  V30 3907 O 382.974 -2.01273 0.0716218 0
M  V30 3908 C 380.039 -3.43704 0.454836 0
M  V30 3909 C 379.1 -4.00004 1.55869 0
M  V30 3910 C 378.333 -5.22023 1.1103 0
M  V30 3911 O 378.556 -5.70392 -0.0309756 0
M  V30 3912 O 377.49 -5.70856 1.90805 0
M  V30 3913 H 381.316 -2.40187 1.8586 0
M  V30 3914 H 378.901 -1.1402 0.965394 0
M  V30 3915 H 380.783 -4.20923 0.200382 0
M  V30 3916 H 379.458 -3.20559 -0.449876 0
M  V30 3917 H 378.365 -3.24172 1.86716 0
M  V30 3918 H 379.698 -4.2749 2.43953 0
M  V30 3919 N 381.35 -0.985608 -1.22978 0
M  V30 3920 C 382.598 -0.656087 -1.91154 0
M  V30 3921 C 382.919 0.813561 -1.77218 0
M  V30 3922 O 382.189 1.58244 -1.1548 0
M  V30 3923 H 380.769 -0.239674 -0.707506 0
M  V30 3924 H 383.431 -1.25054 -1.49491 0
M  V30 3925 H 382.527 -0.912253 -2.9847 0
M  V30 3926 N 382.828 1.3818 -0.7579 0
M  V30 3927 C 384.075 2.00019 -0.315985 0
M  V30 3928 C 384.403 1.60163 1.10355 0
M  V30 3929 O 383.658 0.83264 1.77103 0
M  V30 3930 C 383.957 3.55252 -0.391218 0
M  V30 3931 C 383.623 4.14834 -1.76702 0
M  V30 3932 C 382.285 4.30821 -2.14353 0
M  V30 3933 C 384.637 4.47658 -2.66931 0
M  V30 3934 C 381.965 4.76928 -3.41696 0
M  V30 3935 C 384.317 4.95184 -3.93669 0
M  V30 3936 C 382.981 5.09377 -4.31383 0
M  V30 3937 H 382.251 0.731923 -0.115627 0
M  V30 3938 H 384.898 1.65161 -0.969223 0
M  V30 3939 H 383.203 3.90273 0.34558 0
M  V30 3940 H 384.9 4.00988 -0.030805 0
M  V30 3941 H 381.49 4.02808 -1.46435 0
M  V30 3942 H 385.674 4.34904 -2.39106 0
M  V30 3943 H 380.93 4.86103 -3.70829 0
M  V30 3944 H 385.104 5.19551 -4.63724 0
M  V30 3945 H 382.731 5.44865 -5.30119 0
M  V30 3946 N 384.306 0.507319 1.49211 0
M  V30 3947 C 385.546 -0.0332372 2.04373 0
M  V30 3948 C 385.91 -1.33694 1.37804 0
M  V30 3949 O 387.111 -1.96213 1.83722 0
M  V30 3950 C 385.382 -0.17599 3.56966 0
M  V30 3951 S 386.941 -0.669882 4.33657 0
M  V30 3952 H 383.759 0.00123603 0.710999 0
M  V30 3953 H 386.361 0.682725 1.83191 0
M  V30 3954 H 385.065 0.778053 4.02957 0
M  V30 3955 H 384.596 -0.917005 3.82563 0
M  V30 3956 H 386.611 -1.93806 4.56786 0
M  V30 3957 N 385.784 -1.5574 0.241426 0
M  V30 3958 C 387.032 -1.98417 -0.384075 0
M  V30 3959 C 387.353 -1.13078 -1.58866 0
M  V30 3960 O 386.623 -0.212312 -1.94746 0
M  V30 3961 H 385.203 -0.732813 -0.144894 0
M  V30 3962 H 387.865 -1.9193 0.338943 0
M  V30 3963 H 386.961 -3.04219 -0.696939 0
M  V30 3964 N 387.262 0.0317525 -1.57568 0
M  V30 3965 C 388.51 0.721676 -1.88776 0
M  V30 3966 C 388.831 1.76039 -0.838772 0
M  V30 3967 O 388.101 1.95482 0.127935 0
M  V30 3968 H 386.681 0.269534 -0.696678 0
M  V30 3969 H 389.343 -0.00165879 -1.949 0
M  V30 3970 H 388.439 1.21293 -2.87566 0
M  V30 3971 N 388.74 1.54641 0.303973 0
M  V30 3972 C 389.968 1.77768 1.05858 0
M  V30 3973 C 390.383 0.535722 1.8104 0
M  V30 3974 O 389.74 -0.494337 1.75677 0
M  V30 3975 C 389.791 2.9834 2.04146 0
M  V30 3976 O 389.512 4.17736 1.32015 0
M  V30 3977 C 391.013 3.33832 2.91669 0
M  V30 3978 H 388.233 0.592961 0.314067 0
M  V30 3979 H 390.777 2.01583 0.344149 0
M  V30 3980 H 388.932 2.76742 2.71096 0
M  V30 3981 H 389.346 4.85693 1.97998 0
M  V30 3982 H 390.82 4.21448 3.56491 0
M  V30 3983 H 391.297 2.51857 3.59812 0
M  V30 3984 H 391.903 3.57579 2.30254 0
M  V30 3985 N 390.218 -0.567019 1.47046 0
M  V30 3986 C 391.467 -1.32091 1.5243 0
M  V30 3987 C 391.78 -1.94704 0.187021 0
M  V30 3988 O 392.986 -2.7124 0.118771 0
M  V30 3989 C 391.442 -2.39479 2.68659 0
M  V30 3990 C 391.05 -1.831 4.08874 0
M  V30 3991 C 392.794 -3.16111 2.83327 0
M  V30 3992 C 390.701 -2.8821 5.16419 0
M  V30 3993 H 389.631 -0.496629 0.56734 0
M  V30 3994 H 392.282 -0.603354 1.73297 0
M  V30 3995 H 390.664 -3.14105 2.41152 0
M  V30 3996 H 391.838 -1.14913 4.46242 0
M  V30 3997 H 390.153 -1.19085 3.99008 0
M  V30 3998 H 392.75 -3.94585 3.60842 0
M  V30 3999 H 393.093 -3.69686 1.91411 0
M  V30 4000 H 393.626 -2.48595 3.10556 0
M  V30 4001 H 390.365 -2.39504 6.10179 0
M  V30 4002 H 389.885 -3.54839 4.8358 0
M  V30 4003 H 391.564 -3.51881 5.42945 0
M  V30 4004 N 391.696 -1.35014 -0.812953 0
M  V30 4005 C 392.626 -1.30069 -1.93919 0
M  V30 4006 C 393.607 -0.176275 -1.69184 0
M  V30 4007 O 394.792 -0.370227 -1.90638 0
M  V30 4008 C 391.922 -1.06547 -3.30552 0
M  V30 4009 C 390.876 -2.15561 -3.69753 0
M  V30 4010 C 390.202 -1.77214 -5.04479 0
M  V30 4011 C 391.502 -3.57476 -3.808 0
M  V30 4012 H 393.196 -2.24303 -1.98314 0
M  V30 4013 H 390.742 -1.07977 -0.952736 0
M  V30 4014 H 392.695 -1.01729 -4.08937 0
M  V30 4015 H 391.419 -0.0875719 -3.26483 0
M  V30 4016 H 390.078 -2.19466 -2.9365 0
M  V30 4017 H 389.726 -0.780589 -4.96906 0
M  V30 4018 H 389.426 -2.50184 -5.31678 0
M  V30 4019 H 390.95 -1.7391 -5.8531 0
M  V30 4020 H 392.364 -3.55929 -4.4943 0
M  V30 4021 H 390.761 -4.29152 -4.19462 0
M  V30 4022 H 391.831 -3.94091 -2.82525 0
M  V30 4023 N 393.175 1.03435 -1.18907 0
M  V30 4024 C 394.4 1.80919 -1.01406 0
M  V30 4025 C 394.825 1.83055 0.432721 0
M  V30 4026 O 394.183 1.25252 1.31079 0
M  V30 4027 C 394.231 3.24091 -1.58105 0
M  V30 4028 O 393.335 4.04434 -0.806669 0
M  V30 4029 H 392.676 0.558709 -0.358803 0
M  V30 4030 H 395.206 1.30223 -1.57807 0
M  V30 4031 H 395.216 3.74853 -1.61087 0
M  V30 4032 H 393.891 3.21851 -2.6341 0
M  V30 4033 H 392.468 3.63091 -0.849666 0
M  V30 4034 N 394.653 0.992116 1.22453 0
M  V30 4035 C 395.563 0.55065 2.28046 0
M  V30 4036 C 396.579 -0.400189 1.69335 0
M  V30 4037 O 397.755 -0.267215 1.99619 0
M  V30 4038 C 394.82 -0.128496 3.46462 0
M  V30 4039 C 393.881 0.865208 4.20491 0
M  V30 4040 C 393.114 0.218377 5.33253 0
M  V30 4041 O 393.337 -0.987894 5.6178 0
M  V30 4042 O 392.271 0.922845 5.94783 0
M  V30 4043 H 396.097 1.4291 2.67975 0
M  V30 4044 H 393.682 0.760326 1.28606 0
M  V30 4045 H 395.564 -0.508947 4.18315 0
M  V30 4046 H 394.239 -0.981526 3.0846 0
M  V30 4047 H 393.146 1.29658 3.50913 0
M  V30 4048 H 394.479 1.68741 4.62371 0
M  V30 4049 N 396.131 -1.37776 0.765217 0
M  V30 4050 C 397.378 -1.99849 0.326588 0
M  V30 4051 C 397.706 -1.60746 -1.09504 0
M  V30 4052 O 396.961 -0.84202 -1.76659 0
M  V30 4053 C 397.26 -3.5504 0.410053 0
M  V30 4054 C 396.926 -4.13891 1.78899 0
M  V30 4055 C 395.588 -4.29678 2.16635 0
M  V30 4056 C 397.94 -4.46236 2.69301 0
M  V30 4057 C 395.268 -4.7511 3.44221 0
M  V30 4058 C 397.62 -4.93089 3.9629 0
M  V30 4059 C 396.284 -5.07082 4.34078 0
M  V30 4060 H 395.554 -0.7313 0.119507 0
M  V30 4061 H 398.201 -1.64645 0.977968 0
M  V30 4062 H 396.506 -3.90451 -0.324878 0
M  V30 4063 H 398.203 -4.00966 0.0520699 0
M  V30 4064 H 394.793 -4.02026 1.48569 0
M  V30 4065 H 398.977 -4.3363 2.41409 0
M  V30 4066 H 394.233 -4.84129 3.73402 0
M  V30 4067 H 398.407 -5.17084 4.66472 0
M  V30 4068 H 396.034 -5.42046 5.33001 0
M  V30 4069 N 397.609 -0.515225 -1.4894 0
M  V30 4070 C 398.839 0.0205735 -2.0659 0
M  V30 4071 C 399.247 1.30064 -1.37405 0
M  V30 4072 O 398.59 1.78087 -0.450632 0
M  V30 4073 C 398.652 0.330124 -3.57981 0
M  V30 4074 C 398.316 -0.854295 -4.48944 0
M  V30 4075 C 399.313 -1.7487 -4.89609 0
M  V30 4076 C 396.998 -1.05712 -4.9105 0
M  V30 4077 C 398.992 -2.82996 -5.71132 0
M  V30 4078 C 396.679 -2.14154 -5.72347 0
M  V30 4079 C 397.677 -3.0263 -6.12294 0
M  V30 4080 O 397.365 -4.09198 -6.91962 0
M  V30 4081 H 397.097 -0.0236833 -0.675585 0
M  V30 4082 H 399.651 -0.715956 -1.92518 0
M  V30 4083 H 397.881 1.12044 -3.70112 0
M  V30 4084 H 399.57 0.806233 -3.97812 0
M  V30 4085 H 400.336 -1.60388 -4.57712 0
M  V30 4086 H 396.215 -0.377788 -4.59449 0
M  V30 4087 H 399.759 -3.52083 -6.02232 0
M  V30 4088 H 395.656 -2.28626 -6.03656 0
M  V30 4089 H 396.424 -4.06726 -7.10293 0
M  V30 4090 N 399.087 1.5561 -0.249682 0
M  V30 4091 C 400.336 1.98187 0.37479 0
M  V30 4092 C 400.649 1.14111 1.58865 0
M  V30 4093 O 401.855 1.46714 2.28445 0
M  V30 4094 C 400.311 3.52661 0.718192 0
M  V30 4095 C 399.919 4.45481 -0.474428 0
M  V30 4096 C 401.663 4.03888 1.3067 0
M  V30 4097 C 399.57 5.91303 -0.107026 0
M  V30 4098 H 398.5 0.740159 0.143808 0
M  V30 4099 H 401.151 1.80125 -0.350336 0
M  V30 4100 H 399.533 3.66429 1.50152 0
M  V30 4101 H 400.707 4.43473 -1.25172 0
M  V30 4102 H 399.022 4.04751 -0.978052 0
M  V30 4103 H 401.619 5.10358 1.59496 0
M  V30 4104 H 401.962 3.51401 2.23211 0
M  V30 4105 H 402.495 3.93457 0.586211 0
M  V30 4106 H 399.234 6.47833 -0.999642 0
M  V30 4107 H 398.754 5.9644 0.634013 0
M  V30 4108 H 400.433 6.46258 0.309807 0
M  V30 4109 N 400.565 -0.0233959 1.57583 0
M  V30 4110 C 401.495 -1.02162 2.09965 0
M  V30 4111 C 402.476 -1.3735 1.00344 0
M  V30 4112 O 403.661 -1.46135 1.27899 0
M  V30 4113 C 400.791 -2.32081 2.58371 0
M  V30 4114 C 399.745 -2.1112 3.72307 0
M  V30 4115 C 399.071 -3.46848 4.06941 0
M  V30 4116 C 400.371 -1.49276 5.00514 0
M  V30 4117 H 402.065 -0.585557 2.93618 0
M  V30 4118 H 399.611 -0.280218 1.41247 0
M  V30 4119 H 401.564 -3.02249 2.93639 0
M  V30 4120 H 400.288 -2.77758 1.71808 0
M  V30 4121 H 398.947 -1.43384 3.37397 0
M  V30 4122 H 398.595 -3.90184 3.17436 0
M  V30 4123 H 398.295 -3.33646 4.83688 0
M  V30 4124 H 399.819 -4.18369 4.44747 0
M  V30 4125 H 401.233 -2.09368 5.33702 0
M  V30 4126 H 399.63 -1.46632 5.8191 0
M  V30 4127 H 400.7 -0.459217 4.82721 0
M  V30 4128 N 402.043 -1.548 -0.295768 0
M  V30 4129 C 403.271 -1.78327 -1.04914 0
M  V30 4130 C 403.686 -0.545316 -1.80753 0
M  V30 4131 O 403.043 0.485013 -1.75937 0
M  V30 4132 C 403.094 -2.99418 -2.02561 0
M  V30 4133 O 402.815 -4.18431 -1.29798 0
M  V30 4134 C 404.316 -3.35375 -2.89895 0
M  V30 4135 H 401.536 -0.594618 -0.310918 0
M  V30 4136 H 404.08 -2.01763 -0.333454 0
M  V30 4137 H 402.235 -2.78175 -2.69624 0
M  V30 4138 H 402.649 -4.86736 -1.95419 0
M  V30 4139 H 404.123 -4.23332 -3.54251 0
M  V30 4140 H 404.6 -2.53761 -3.58472 0
M  V30 4141 H 405.206 -3.58796 -2.28355 0
M  V30 4142 N 403.521 0.559213 -1.47345 0
M  V30 4143 C 404.484 1.64854 -1.59235 0
M  V30 4144 C 405.484 1.53851 -0.467607 0
M  V30 4145 O 406.674 1.58045 -0.732617 0
M  V30 4146 C 403.806 3.04388 -1.53496 0
M  V30 4147 H 404.999 1.55662 -2.56339 0
M  V30 4148 H 402.552 0.778973 -1.35505 0
M  V30 4149 H 403.287 3.19115 -0.577604 0
M  V30 4150 H 403.072 3.13783 -2.35123 0
M  V30 4151 H 404.562 3.83642 -1.6495 0
M  V30 4152 N 404.999 1.35443 0.805782 0
M  V30 4153 C 405.962 1.28301 1.89925 0
M  V30 4154 C 406.962 0.194285 1.59622 0
M  V30 4155 O 408.152 0.448036 1.6834 0
M  V30 4156 C 405.284 0.984997 3.2636 0
M  V30 4157 H 406.477 2.2553 1.97677 0
M  V30 4158 H 404.03 1.19979 1.00173 0
M  V30 4159 H 404.765 0.016603 3.24296 0
M  V30 4160 H 404.55 1.77269 3.4974 0
M  V30 4161 H 406.04 0.960651 4.064 0
M  V30 4162 N 406.477 -1.02803 1.19454 0
M  V30 4163 C 407.427 -2.0945 0.900827 0
M  V30 4164 C 408.411 -1.60335 -0.134715 0
M  V30 4165 O 409.603 -1.76857 0.0710924 0
M  V30 4166 C 406.732 -3.4044 0.442229 0
M  V30 4167 C 405.818 -3.96286 1.51056 0
M  V30 4168 N 406.209 -4.25785 2.73021 0
M  V30 4169 C 404.507 -4.24307 1.37404 0
M  V30 4170 C 405.208 -4.70654 3.41848 0
M  V30 4171 N 404.184 -4.72238 2.69243 0
M  V30 4172 H 407.986 -2.3015 1.82779 0
M  V30 4173 H 405.5 -1.20672 1.08683 0
M  V30 4174 H 407.497 -4.16354 0.21326 0
M  V30 4175 H 406.157 -3.21159 -0.478238 0
M  V30 4176 H 407.168 -4.15041 3.09776 0
M  V30 4177 H 403.845 -4.14285 0.517103 0
M  V30 4178 H 405.235 -5.02392 4.46152 0
M  V30 4179 N 407.956 -0.998596 -1.21925 0
M  V30 4180 C 409.196 -0.685948 -1.92546 0
M  V30 4181 C 409.56 0.768441 -1.75952 0
M  V30 4182 O 410.761 1.19277 -2.40887 0
M  V30 4183 C 409.032 -1.08767 -3.40448 0
M  V30 4184 S 410.591 -0.894251 -4.29591 0
M  V30 4185 H 407.409 -0.250622 -0.665364 0
M  V30 4186 H 410.011 -1.28207 -1.47591 0
M  V30 4187 H 408.715 -2.14242 -3.50041 0
M  V30 4188 H 408.246 -0.48357 -3.90417 0
M  V30 4189 H 410.261 0.212149 -4.95746 0
M  V30 4190 N 409.434 1.37368 -0.772513 0
M  V30 4191 C 410.364 2.32856 -0.173304 0
M  V30 4192 C 411.345 1.55818 0.682262 0
M  V30 4193 O 412.53 1.84052 0.619566 0
M  V30 4194 C 409.66 3.40048 0.706007 0
M  V30 4195 C 408.614 4.27973 -0.0483144 0
M  V30 4196 C 407.94 5.26184 0.950491 0
M  V30 4197 C 409.24 5.07665 -1.22776 0
M  V30 4198 H 410.934 2.83217 -0.971002 0
M  V30 4199 H 408.48 1.3617 -0.468377 0
M  V30 4200 H 410.433 4.05827 1.13501 0
M  V30 4201 H 409.157 2.88214 1.53623 0
M  V30 4202 H 407.816 3.63726 -0.458107 0
M  V30 4203 H 407.464 4.7063 1.77529 0
M  V30 4204 H 407.164 5.85872 0.450314 0
M  V30 4205 H 408.688 5.94838 1.37842 0
M  V30 4206 H 410.102 5.66578 -0.875366 0
M  V30 4207 H 408.499 5.76681 -1.66007 0
M  V30 4208 H 409.569 4.40294 -2.03149 0
M  V30 4209 N 410.912 0.523116 1.48665 0
M  V30 4210 C 412.142 -0.00961724 2.06598 0
M  V30 4211 C 412.55 -1.29333 1.38093 0
M  V30 4212 O 411.893 -1.77846 0.46007 0
M  V30 4213 C 411.955 -0.311135 3.58151 0
M  V30 4214 C 411.619 0.878092 4.48485 0
M  V30 4215 C 412.616 1.77464 4.88674 0
M  V30 4216 C 410.301 1.08315 4.90483 0
M  V30 4217 C 412.295 2.86021 5.69623 0
M  V30 4218 C 409.982 2.17187 5.71203 0
M  V30 4219 C 410.98 3.05873 6.10681 0
M  V30 4220 O 410.668 4.12862 6.89783 0
M  V30 4221 H 410.4 0.0272658 0.67545 0
M  V30 4222 H 412.954 0.726156 1.92136 0
M  V30 4223 H 411.184 -1.10079 3.70701 0
M  V30 4224 H 412.873 -0.785125 3.98234 0
M  V30 4225 H 413.639 1.62813 4.56855 0
M  V30 4226 H 409.518 0.402149 4.59243 0
M  V30 4227 H 413.062 3.55272 6.00356 0
M  V30 4228 H 408.959 2.31824 6.02435 0
M  V30 4229 H 409.727 4.10487 7.08126 0
M  V30 4230 N 412.39 -1.55475 0.257931 0
M  V30 4231 C 413.322 -2.19192 -0.669881 0
M  V30 4232 C 414.335 -1.17148 -1.1305 0
M  V30 4233 O 415.524 -1.43959 -1.05537 0
M  V30 4234 C 412.624 -2.79016 -1.92363 0
M  V30 4235 C 411.797 -4.06586 -1.61265 0
M  V30 4236 C 410.856 -4.50622 -2.7171 0
M  V30 4237 O 409.882 -5.16765 -2.38627 0
M  V30 4238 N 411.084 -4.19325 -4.01431 0
M  V30 4239 H 413.849 -2.99441 -0.124635 0
M  V30 4240 H 411.41 -1.6171 0.0783311 0
M  V30 4241 H 413.402 -3.05427 -2.65511 0
M  V30 4242 H 411.972 -2.0286 -2.37837 0
M  V30 4243 H 411.192 -3.87646 -0.715811 0
M  V30 4244 H 412.48 -4.89737 -1.37967 0
M  V30 4245 H 411.878 -3.66247 -4.31138 0
M  V30 4246 H 410.435 -4.50547 -4.7101 0
M  V30 4247 N 413.868 0.0150385 -1.57593 0
M  V30 4248 C 414.831 0.995996 -2.06428 0
M  V30 4249 C 415.831 1.2818 -0.970903 0
M  V30 4250 O 417.021 1.22949 -1.23406 0
M  V30 4251 C 414.153 2.32506 -2.49307 0
M  V30 4252 H 415.346 0.573873 -2.94358 0
M  V30 4253 H 412.899 0.262186 -1.54085 0
M  V30 4254 H 413.634 2.79438 -1.64575 0
M  V30 4255 H 413.419 2.13087 -3.29145 0
M  V30 4256 H 414.909 3.02906 -2.87468 0
M  V30 4257 N 415.346 1.54954 0.287554 0
M  V30 4258 C 416.293 1.86834 1.35505 0
M  V30 4259 C 417.263 0.718452 1.49758 0
M  V30 4260 O 418.448 0.968358 1.644 0
M  V30 4261 C 415.588 2.13303 2.71286 0
M  V30 4262 C 414.701 3.40883 2.65373 0
M  V30 4263 C 413.836 3.57125 3.93236 0
M  V30 4264 C 412.875 4.78449 3.81776 0
M  V30 4265 N 412.012 4.91426 5.01443 0
M  V30 4266 H 416.852 2.77889 1.07619 0
M  V30 4267 H 414.389 1.37593 0.520241 0
M  V30 4268 H 416.347 2.26646 3.50267 0
M  V30 4269 H 414.977 1.25499 2.97405 0
M  V30 4270 H 414.029 3.36088 1.78182 0
M  V30 4271 H 415.341 4.29993 2.52799 0
M  V30 4272 H 414.495 3.70207 4.80658 0
M  V30 4273 H 413.234 2.66173 4.0866 0
M  V30 4274 H 412.239 4.65386 2.92738 0
M  V30 4275 H 413.464 5.70822 3.67884 0
M  V30 4276 H 411.41 4.03401 5.17304 0
M  V30 4277 H 411.327 5.74559 4.91343 0
M  V30 4278 H 412.595 5.08879 5.90477 0
M  V30 4279 N 416.824 -0.551391 1.4764 0
M  V30 4280 C 418.24 -0.877887 1.33287 0
M  V30 4281 C 418.44 -1.98817 0.327721 0
M  V30 4282 O 417.496 -2.51171 -0.258695 0
M  V30 4283 C 418.809 -1.26563 2.72768 0
M  V30 4284 C 420.357 -1.37673 2.81097 0
M  V30 4285 C 420.832 -1.79799 4.21232 0
M  V30 4286 N 422.323 -1.8694 4.23802 0
M  V30 4287 C 423.058 -2.20876 5.29151 0
M  V30 4288 N 422.554 -2.53386 6.448 0
M  V30 4289 N 424.347 -2.217 5.16532 0
M  V30 4290 H 416.498 0.18153 2.11623 0
M  V30 4291 H 418.761 0.0185514 0.947818 0
M  V30 4292 H 418.467 -0.523591 3.47781 0
M  V30 4293 H 418.341 -2.22052 3.04915 0
M  V30 4294 H 420.728 -2.10956 2.06353 0
M  V30 4295 H 420.809 -0.40357 2.52596 0
M  V30 4296 H 420.453 -1.07083 4.96483 0
M  V30 4297 H 420.383 -2.78128 4.4716 0
M  V30 4298 H 422.874 -1.64179 3.40373 0
M  V30 4299 H 423.187 -2.78325 7.20941 0
M  V30 4300 H 421.532 -2.50953 6.48111 0
M  V30 4301 H 424.723 -1.95745 4.25207 0
M  V30 4302 H 424.896 -2.47818 5.98741 0
M  V30 4303 N 418.302 -1.35869 -0.798587 0
M  V30 4304 C 419.549 -1.29588 -1.55606 0
M  V30 4305 C 419.877 0.127456 -1.94082 0
M  V30 4306 O 419.132 1.09461 -1.62225 0
M  V30 4307 C 419.431 -2.1556 -2.85077 0
M  V30 4308 C 419.097 -3.6424 -2.65781 0
M  V30 4309 C 417.759 -4.04766 -2.60227 0
M  V30 4310 C 420.111 -4.58547 -2.47758 0
M  V30 4311 C 417.439 -5.37753 -2.34603 0
M  V30 4312 C 419.791 -5.91742 -2.23662 0
M  V30 4313 C 418.455 -6.31402 -2.16534 0
M  V30 4314 H 417.725 -0.474197 -0.569402 0
M  V30 4315 H 420.372 -1.67839 -0.922086 0
M  V30 4316 H 418.677 -1.70216 -3.52893 0
M  V30 4317 H 420.374 -2.08031 -3.42818 0
M  V30 4318 H 416.964 -3.32086 -2.70956 0
M  V30 4319 H 421.148 -4.28117 -2.51056 0
M  V30 4320 H 416.404 -5.67474 -2.2756 0
M  V30 4321 H 420.578 -6.6439 -2.08708 0
M  V30 4322 H 418.205 -7.34381 -1.96441 0
M  V30 4323 N 419.78 1.02168 -1.19998 0
M  V30 4324 C 420.727 2.10601 -0.944228 0
M  V30 4325 C 421.697 1.65639 0.123664 0
M  V30 4326 O 422.882 1.9079 -0.0199941 0
M  V30 4327 C 420.022 3.41504 -0.496865 0
M  V30 4328 C 419.135 3.99973 -1.63234 0
M  V30 4329 C 418.27 5.18915 -1.13579 0
M  V30 4330 C 417.309 5.69456 -2.24468 0
M  V30 4331 N 416.446 6.79665 -1.76068 0
M  V30 4332 H 421.286 2.31814 -1.8726 0
M  V30 4333 H 418.823 1.13686 -0.933483 0
M  V30 4334 H 420.781 4.16626 -0.218843 0
M  V30 4335 H 419.411 3.2038 0.394508 0
M  V30 4336 H 418.463 3.21997 -2.0254 0
M  V30 4337 H 419.775 4.33492 -2.46752 0
M  V30 4338 H 418.929 6.01222 -0.813429 0
M  V30 4339 H 417.668 4.8695 -0.270434 0
M  V30 4340 H 416.673 4.85757 -2.57526 0
M  V30 4341 H 417.898 6.03459 -3.11472 0
M  V30 4342 H 415.844 6.49538 -0.918516 0
M  V30 4343 H 415.761 7.12349 -2.5317 0
M  V30 4344 H 417.029 7.65549 -1.46817 0
M  V30 4345 N 421.258 1.00505 1.21394 0
M  V30 4346 C 422.504 0.688793 1.90745 0
M  V30 4347 C 422.837 -0.778486 1.77914 0
M  V30 4348 O 422.112 -1.56433 1.15581 0
M  V30 4349 C 422.395 1.11063 3.42545 0
M  V30 4350 C 422.248 2.63737 3.64367 0
M  V30 4351 C 423.567 0.673059 4.34923 0
M  V30 4352 H 420.686 0.251702 0.692687 0
M  V30 4353 H 423.328 1.25074 1.43026 0
M  V30 4354 H 421.478 0.632508 3.83317 0
M  V30 4355 H 423.15 3.19313 3.32922 0
M  V30 4356 H 421.393 3.05248 3.08231 0
M  V30 4357 H 422.064 2.88305 4.70727 0
M  V30 4358 H 424.54 1.08392 4.01734 0
M  V30 4359 H 423.416 0.996383 5.39781 0
M  V30 4360 H 423.677 -0.425808 4.40045 0
M  V30 4361 N 422.737 -1.36956 0.779787 0
M  V30 4362 C 424.153 -1.52817 0.460342 0
M  V30 4363 C 424.353 -1.7361 -1.02283 0
M  V30 4364 O 423.409 -1.76207 -1.80852 0
M  V30 4365 C 424.722 -2.71983 1.28241 0
M  V30 4366 C 426.27 -2.85849 1.27512 0
M  V30 4367 C 426.745 -4.08008 2.08072 0
M  V30 4368 N 428.236 -4.15135 2.05467 0
M  V30 4369 C 428.971 -5.08711 2.64577 0
M  V30 4370 N 428.467 -6.07792 3.32506 0
M  V30 4371 N 430.26 -5.01254 2.54363 0
M  V30 4372 H 422.411 -1.21713 1.74068 0
M  V30 4373 H 424.674 -0.593294 0.739396 0
M  V30 4374 H 424.38 -2.63109 2.33381 0
M  V30 4375 H 424.254 -3.65882 0.917088 0
M  V30 4376 H 426.641 -2.94189 0.231686 0
M  V30 4377 H 426.722 -1.92886 1.68014 0
M  V30 4378 H 426.366 -4.00429 3.12441 0
M  V30 4379 H 426.296 -5.001 1.64947 0
M  V30 4380 H 428.787 -3.44189 1.5602 0
M  V30 4381 H 429.1 -6.75739 3.74963 0
M  V30 4382 H 427.445 -6.08047 3.36606 0
M  V30 4383 H 430.636 -4.22795 2.00902 0
M  V30 4384 H 430.809 -5.73995 3.00722 0
M  V30 4385 N 424.215 -0.530993 -1.48385 0
M  V30 4386 C 425.461 0.00274135 -2.028 0
M  V30 4387 C 425.794 1.33838 -1.40716 0
M  V30 4388 O 425.069 1.86465 -0.553277 0
M  V30 4389 C 425.352 0.123676 -3.59888 0
M  V30 4390 C 425.205 -1.2372 -4.3245 0
M  V30 4391 C 426.524 0.849967 -4.31814 0
M  V30 4392 H 423.643 -0.000477758 -0.737 0
M  V30 4393 H 426.285 -0.688217 -1.77098 0
M  V30 4394 H 424.435 0.712157 -3.81917 0
M  V30 4395 H 426.107 -1.86687 -4.21836 0
M  V30 4396 H 424.35 -1.81882 -3.93829 0
M  V30 4397 H 425.021 -1.10557 -5.40815 0
M  V30 4398 H 427.497 0.350572 -4.14621 0
M  V30 4399 H 426.373 0.903486 -5.41413 0
M  V30 4400 H 426.634 1.90047 -3.99167 0
M  V30 4401 N 425.693 1.55336 -0.266172 0
M  V30 4402 C 426.941 1.99003 0.35246 0
M  V30 4403 C 427.262 1.15591 1.57047 0
M  V30 4404 O 426.532 0.243268 1.94384 0
M  V30 4405 H 425.112 0.735025 0.133217 0
M  V30 4406 H 427.774 1.91367 -0.369434 0
M  V30 4407 H 426.87 3.05289 0.648453 0
M  V30 4408 N 427.171 -0.0066808 1.57599 0
M  V30 4409 C 428.448 -0.729586 1.81484 0
M  V30 4410 C 428.828 -1.92359 0.869558 0
M  V30 4411 O 428.176 -2.28348 -0.0832533 0
M  V30 4412 C 428.386 -1.1416 3.29801 0
M  V30 4413 C 429.734 -1.54823 3.95367 0
M  V30 4414 O 430.758 -1.23558 3.34084 0
M  V30 4415 O 429.617 -2.12937 5.03309 0
M  V30 4416 H 426.711 -0.354674 0.747085 0
M  V30 4417 H 429.257 0.0182609 1.6969 0
M  V30 4418 H 428.029 -0.290231 3.90222 0
M  V30 4419 H 427.652 -1.94876 3.46568 0
M  V30 4420 N 428.649 -1.55105 -0.279332 0
M  V30 4421 C 430.065 -1.46803 -0.626187 0
M  V30 4422 C 430.265 -0.676939 -1.89789 0
M  V30 4423 O 429.321 -0.19326 -2.51759 0
M  V30 4424 C 430.634 -2.90962 -0.759034 0
M  V30 4425 C 432.182 -3.01138 -0.853504 0
M  V30 4426 C 432.657 -4.46539 -1.01818 0
M  V30 4427 N 434.148 -4.50341 -1.08386 0
M  V30 4428 C 434.883 -5.60053 -1.22996 0
M  V30 4429 N 434.379 -6.79645 -1.34366 0
M  V30 4430 N 436.172 -5.47783 -1.26056 0
M  V30 4431 H 428.323 -2.04996 0.555921 0
M  V30 4432 H 430.586 -0.929325 0.187239 0
M  V30 4433 H 430.292 -3.51544 0.104852 0
M  V30 4434 H 430.166 -3.39619 -1.64131 0
M  V30 4435 H 432.553 -2.40658 -1.70786 0
M  V30 4436 H 432.634 -2.55745 0.0532466 0
M  V30 4437 H 432.278 -5.0762 -0.168504 0
M  V30 4438 H 432.208 -4.89583 -1.93948 0
M  V30 4439 H 434.699 -3.64191 -1.00864 0
M  V30 4440 H 435.012 -7.59012 -1.4533 0
M  V30 4441 H 433.357 -6.82469 -1.31382 0
M  V30 4442 H 436.548 -4.53294 -1.168 0
M  V30 4443 H 436.721 -6.33331 -1.37098 0
M  V30 4444 N 430.127 0.543554 -1.4793 0
M  V30 4445 C 431.075 1.67039 -1.61866 0
M  V30 4446 C 432.069 1.62294 -0.48549 0
M  V30 4447 O 433.275 1.67315 -0.66376 0
M  V30 4448 H 429.65 0.552954 -0.509652 0
M  V30 4449 H 431.621 1.52426 -2.56533 0
M  V30 4450 C 430.37 3.05357 -1.6629 0
M  V30 4451 H 429.693 3.09696 -2.5284 0
M  V30 4452 H 431.133 3.83855 -1.80088 0
M  V30 4453 C 429.592 3.34531 -0.398861 0
M  V30 4454 O 430.122 3.98649 0.494162 0
M  V30 4455 N 428.328 2.89299 -0.2747 0
M  V30 4456 H 427.875 2.37298 -1.00236 0
M  V30 4457 H 427.833 3.09188 0.570075 0
M  V30 4458 N 431.605 1.3629 0.791371 0
M  V30 4459 C 432.833 1.33562 1.58016 0
M  V30 4460 C 433.248 -0.0835616 1.88615 0
M  V30 4461 O 432.605 -1.0399 1.49974 0
M  V30 4462 C 432.656 2.15517 2.90232 0
M  V30 4463 O 432.377 3.51902 2.60953 0
M  V30 4464 C 433.878 2.20546 3.84544 0
M  V30 4465 H 431.098 0.458226 0.490173 0
M  V30 4466 H 433.642 1.79361 0.982345 0
M  V30 4467 H 431.797 1.73278 3.46487 0
M  V30 4468 H 432.211 3.94644 3.4548 0
M  V30 4469 H 433.685 2.82252 4.74382 0
M  V30 4470 H 434.162 1.20838 4.2225 0
M  V30 4471 H 434.768 2.63013 3.34222 0
M  V30 4472 N 433.083 -1.0153 1.20538 0
M  V30 4473 C 433.993 -2.13557 0.971113 0
M  V30 4474 C 435.009 -1.73845 -0.0734366 0
M  V30 4475 O 436.185 -2.01075 0.114299 0
M  V30 4476 C 433.25 -3.42661 0.527639 0
M  V30 4477 C 432.311 -3.96608 1.64319 0
M  V30 4478 C 431.544 -5.1955 1.22078 0
M  V30 4479 O 431.767 -5.70329 0.0900198 0
M  V30 4480 O 430.701 -5.66681 2.02871 0
M  V30 4481 H 434.527 -2.3619 1.90913 0
M  V30 4482 H 432.112 -1.11946 0.989362 0
M  V30 4483 H 433.994 -4.20404 0.289621 0
M  V30 4484 H 432.669 -3.21441 -0.381779 0
M  V30 4485 H 431.576 -3.20139 1.93551 0
M  V30 4486 H 432.909 -4.22219 2.52966 0
M  V30 4487 N 434.561 -1.01147 -1.20859 0
M  V30 4488 C 435.493 -0.535546 -2.22855 0
M  V30 4489 C 436.506 0.379323 -1.58319 0
M  V30 4490 O 437.695 0.178489 -1.77605 0
M  V30 4491 C 434.795 0.240962 -3.38042 0
M  V30 4492 C 433.968 -0.674562 -4.32167 0
M  V30 4493 C 433.027 0.053467 -5.26173 0
M  V30 4494 O 432.053 -0.567339 -5.66366 0
M  V30 4495 N 433.255 1.32997 -5.65059 0
M  V30 4496 H 436.02 -1.41268 -2.64317 0
M  V30 4497 H 433.581 -0.888386 -1.35349 0
M  V30 4498 H 435.573 0.737115 -3.97931 0
M  V30 4499 H 434.143 1.01935 -2.95513 0
M  V30 4500 H 433.363 -1.35111 -3.70322 0
M  V30 4501 H 434.651 -1.2974 -4.91981 0
M  V30 4502 H 434.049 1.85536 -5.34409 0
M  V30 4503 H 432.606 1.77095 -6.2728 0
M  V30 4504 N 436.039 1.36541 -0.78704 0
M  V30 4505 C 436.949 2.3387 -0.184896 0
M  V30 4506 C 437.965 1.60927 0.661697 0
M  V30 4507 O 439.141 1.92927 0.57804 0
M  V30 4508 C 436.206 3.40122 0.672145 0
M  V30 4509 C 435.267 4.28867 -0.19267 0
M  V30 4510 C 434.5 5.30045 0.623561 0
M  V30 4511 O 434.723 5.39232 1.8597 0
M  V30 4512 O 433.657 6.01895 0.0247068 0
M  V30 4513 H 437.483 2.87126 -0.989562 0
M  V30 4514 H 435.068 1.38969 -0.548455 0
M  V30 4515 H 436.95 4.05093 1.16094 0
M  V30 4516 H 435.625 2.89169 1.45474 0
M  V30 4517 H 434.532 3.66945 -0.728166 0
M  V30 4518 H 435.865 4.83165 -0.938722 0
M  V30 4519 N 437.518 0.538854 1.48102 0
M  V30 4520 C 438.428 -0.222648 2.33541 0
M  V30 4521 C 439.444 -0.930225 1.47047 0
M  V30 4522 O 440.62 -0.903211 1.80011 0
M  V30 4523 C 437.685 -1.25064 3.23357 0
M  V30 4524 C 436.746 -0.552469 4.2573 0
M  V30 4525 C 435.979 -1.53149 5.11254 0
M  V30 4526 O 436.202 -2.76487 4.9891 0
M  V30 4527 O 435.136 -1.06602 5.92385 0
M  V30 4528 H 438.962 0.477707 2.99919 0
M  V30 4529 H 436.547 0.299669 1.46364 0
M  V30 4530 H 438.429 -1.8445 3.78888 0
M  V30 4531 H 437.104 -1.93325 2.59629 0
M  V30 4532 H 436.011 0.082114 3.7401 0
M  V30 4533 H 437.344 0.0883526 4.92121 0
M  V30 4534 N 438.996 -1.55193 0.274407 0
M  V30 4535 C 440.244 -1.99187 -0.341902 0
M  V30 4536 C 440.565 -1.16422 -1.56431 0
M  V30 4537 O 439.835 -0.253573 -1.94252 0
M  V30 4538 H 438.415 -0.735721 -0.129317 0
M  V30 4539 H 441.077 -1.91168 0.379578 0
M  V30 4540 H 440.173 -3.05629 -0.632253 0
M  V30 4541 N 440.474 -0.00167713 -1.576 0
M  V30 4542 C 441.722 0.681471 -1.90264 0
M  V30 4543 C 442.043 1.7422 -0.875924 0
M  V30 4544 O 441.313 1.95709 0.0864412 0
M  V30 4545 H 439.893 0.254696 -0.702239 0
M  V30 4546 H 442.555 -0.0429996 -1.94853 0
M  V30 4547 H 441.651 1.15166 -2.90075 0
M  V30 4548 N 441.952 1.55251 0.271103 0
M  V30 4549 C 442.862 1.9136 1.35714 0
M  V30 4550 C 443.878 0.811075 1.5394 0
M  V30 4551 O 445.054 1.11031 1.6803 0
M  V30 4552 C 442.119 2.1798 2.69603 0
M  V30 4553 C 441.18 3.4153 2.60107 0
M  V30 4554 C 440.413 3.66871 3.8761 0
M  V30 4555 O 440.636 2.94689 4.8838 0
M  V30 4556 O 439.57 4.60405 3.87699 0
M  V30 4557 H 443.396 2.83815 1.08088 0
M  V30 4558 H 440.981 1.41821 0.469792 0
M  V30 4559 H 442.863 2.36518 3.48765 0
M  V30 4560 H 441.538 1.28708 2.97012 0
M  V30 4561 H 440.445 3.28325 1.79314 0
M  V30 4562 H 441.778 4.31027 2.37647 0
M  V30 4563 N 443.43 -0.535701 1.48216 0
M  V30 4564 C 444.393 -1.623 1.61838 0
M  V30 4565 C 445.393 -1.53087 0.492024 0
M  V30 4566 O 446.583 -1.5686 0.757668 0
M  V30 4567 C 443.715 -3.01907 1.58319 0
M  V30 4568 H 444.908 -1.51564 2.58783 0
M  V30 4569 H 442.461 -0.757317 1.36727 0
M  V30 4570 H 443.196 -3.18155 0.628299 0
M  V30 4571 H 442.981 -3.10003 2.40085 0
M  V30 4572 H 444.471 -3.80969 1.71033 0
M  V30 4573 N 444.908 -1.36708 -0.784132 0
M  V30 4574 C 446.154 -1.31426 -1.54451 0
M  V30 4575 C 446.487 0.10476 -1.93917 0
M  V30 4576 O 445.762 1.05934 -1.6312 0
M  V30 4577 C 446.045 -2.24189 -2.818 0
M  V30 4578 C 445.898 -3.74813 -2.48667 0
M  V30 4579 C 447.217 -2.15626 -3.83658 0
M  V30 4580 H 444.336 -0.478739 -0.560337 0
M  V30 4581 H 446.978 -1.67305 -0.900498 0
M  V30 4582 H 445.128 -1.93722 -3.36755 0
M  V30 4583 H 446.8 -4.15823 -1.99722 0
M  V30 4584 H 445.043 -3.93989 -1.81535 0
M  V30 4585 H 445.714 -4.35138 -3.39646 0
M  V30 4586 H 448.19 -2.42456 -3.38163 0
M  V30 4587 H 447.066 -2.82694 -4.70506 0
M  V30 4588 H 447.327 -1.14522 -4.27009 0
M  V30 4589 N 446.386 1.0089 -1.21074 0
M  V30 4590 C 447.336 2.0799 -0.934034 0
M  V30 4591 C 448.32 1.60529 0.10919 0
M  V30 4592 O 449.512 1.76722 -0.0992198 0
M  V30 4593 C 446.641 3.39693 -0.496334 0
M  V30 4594 C 445.727 3.93833 -1.57341 0
M  V30 4595 N 446.118 4.21388 -2.7976 0
M  V30 4596 C 444.416 4.22067 -1.44137 0
M  V30 4597 C 445.117 4.65156 -3.49292 0
M  V30 4598 N 444.093 4.67895 -2.76722 0
M  V30 4599 H 447.895 2.27213 -1.86417 0
M  V30 4600 H 445.409 1.18927 -1.10589 0
M  V30 4601 H 447.406 4.15962 -0.279471 0
M  V30 4602 H 446.066 3.21879 0.427084 0
M  V30 4603 H 447.077 4.10061 -3.1634 0
M  V30 4604 H 443.754 4.1341 -0.582947 0
M  V30 4605 H 445.144 4.95231 -4.54088 0
M  V30 4606 N 447.864 1.01787 1.20321 0
M  V30 4607 C 448.774 0.598898 2.26827 0
M  V30 4608 C 449.79 -0.36418 1.70146 0
M  V30 4609 O 450.966 -0.224812 2.00141 0
M  V30 4610 C 448.031 -0.0549769 3.46656 0
M  V30 4611 C 447.092 0.954205 4.18561 0
M  V30 4612 C 446.325 0.331439 5.3267 0
M  V30 4613 O 446.548 -0.86851 5.63749 0
M  V30 4614 O 445.482 1.0488 5.92692 0
M  V30 4615 H 449.308 1.48562 2.64883 0
M  V30 4616 H 446.893 0.787434 1.26964 0
M  V30 4617 H 448.775 -0.420102 4.19301 0
M  V30 4618 H 447.45 -0.915876 3.10473 0
M  V30 4619 H 446.357 1.37072 3.48083 0
M  V30 4620 H 447.69 1.78511 4.58688 0
M  V30 4621 N 449.342 -1.36122 0.79427 0
M  V30 4622 C 450.588 -1.99406 0.369452 0
M  V30 4623 C 450.921 -1.62886 -1.05743 0
M  V30 4624 O 450.196 -0.886053 -1.73145 0
M  V30 4625 C 450.479 -3.56046 0.538833 0
M  V30 4626 C 450.332 -4.02404 2.00976 0
M  V30 4627 C 451.651 -4.40079 -0.0431359 0
M  V30 4628 H 448.77 -0.724397 0.135712 0
M  V30 4629 H 451.412 -1.61461 1.00151 0
M  V30 4630 H 449.562 -3.885 0.000771004 0
M  V30 4631 H 451.234 -3.80415 2.60926 0
M  V30 4632 H 449.477 -3.53765 2.51063 0
M  V30 4633 H 450.148 -5.11344 2.07922 0
M  V30 4634 H 452.624 -4.14013 0.416228 0
M  V30 4635 H 451.5 -5.48799 0.105374 0
M  V30 4636 H 451.761 -4.27264 -1.13571 0
M  V30 4637 N 450.82 -0.546701 -1.47814 0
M  V30 4638 C 451.73 0.21026 -2.33656 0
M  V30 4639 C 452.746 0.922413 -1.47538 0
M  V30 4640 O 453.922 0.893652 -1.80488 0
M  V30 4641 C 450.987 1.23348 -3.24016 0
M  V30 4642 C 450.048 0.529883 -4.26017 0
M  V30 4643 C 449.281 1.50435 -5.12059 0
M  V30 4644 O 449.504 2.73837 -5.00369 0
M  V30 4645 O 448.438 1.03459 -5.92942 0
M  V30 4646 H 452.264 -0.493605 -2.99662 0
M  V30 4647 H 449.849 -0.307427 -1.46203 0
M  V30 4648 H 451.731 1.82438 -3.79861 0
M  V30 4649 H 450.406 1.91945 -2.60651 0
M  V30 4650 H 449.313 -0.101948 -3.73961 0
M  V30 4651 H 450.646 -0.11445 -4.92067 0
M  V30 4652 N 452.299 1.55045 -0.282633 0
M  V30 4653 C 453.545 2.00056 0.332481 0
M  V30 4654 C 453.878 1.1708 1.54939 0
M  V30 4655 O 453.153 0.2427 1.9298 0
M  V30 4656 C 453.436 3.53086 0.70725 0
M  V30 4657 C 453.289 4.46813 -0.517521 0
M  V30 4658 C 454.608 4.12245 1.54084 0
M  V30 4659 H 451.727 0.727268 0.119373 0
M  V30 4660 H 454.369 1.85932 -0.391076 0
M  V30 4661 H 452.519 3.65253 1.32372 0
M  V30 4662 H 454.191 4.46579 -1.15607 0
M  V30 4663 H 452.434 4.18163 -1.1542 0
M  V30 4664 H 453.105 5.51595 -0.211426 0
M  V30 4665 H 455.581 4.03401 1.02013 0
M  V30 4666 H 454.457 5.19515 1.77186 0
M  V30 4667 H 454.718 3.62951 2.52427 0
M  V30 4668 N 453.777 0.010035 1.57597 0
M  V30 4669 C 455.023 -0.673697 1.91283 0
M  V30 4670 C 455.356 -1.72863 0.884979 0
M  V30 4671 O 454.631 -1.94268 -0.0949487 0
M  V30 4672 C 454.914 -1.30766 3.35518 0
M  V30 4673 C 454.767 -0.263578 4.49027 0
M  V30 4674 C 456.086 -2.23105 3.79358 0
M  V30 4675 H 453.205 -0.243439 0.695634 0
M  V30 4676 H 455.847 0.0633864 1.89894 0
M  V30 4677 H 453.997 -1.93588 3.36832 0
M  V30 4678 H 455.669 0.365738 4.59848 0
M  V30 4679 H 453.912 0.413077 4.31829 0
M  V30 4680 H 454.583 -0.746398 5.4693 0
M  V30 4681 H 457.059 -1.70289 3.79659 0
M  V30 4682 H 455.935 -2.64424 4.81011 0
M  V30 4683 H 456.196 -3.11433 3.13787 0
M  V30 4684 N 455.255 -1.55392 -0.262866 0
M  V30 4685 C 456.504 -1.75679 -0.990943 0
M  V30 4686 C 456.817 -0.57097 -1.87081 0
M  V30 4687 O 458.023 -0.656486 -2.63444 0
M  V30 4688 C 456.479 -3.10964 -1.81188 0
M  V30 4689 C 456.087 -4.37146 -0.980188 0
M  V30 4690 C 457.831 -3.40597 -2.53365 0
M  V30 4691 C 455.738 -5.63466 -1.7961 0
M  V30 4692 H 454.668 -0.654868 -0.373716 0
M  V30 4693 H 457.319 -1.81841 -0.246203 0
M  V30 4694 H 455.701 -2.98867 -2.59797 0
M  V30 4695 H 456.875 -4.60187 -0.237558 0
M  V30 4696 H 455.19 -4.14731 -0.372497 0
M  V30 4697 H 457.787 -4.32186 -3.14833 0
M  V30 4698 H 458.13 -2.6119 -3.24169 0
M  V30 4699 H 458.663 -3.53838 -1.81779 0
M  V30 4700 H 455.402 -6.4565 -1.13209 0
M  V30 4701 H 454.922 -5.44552 -2.51443 0
M  V30 4702 H 456.601 -6.02139 -2.36723 0
M  V30 4703 N 456.733 0.527833 -1.48498 0
M  V30 4704 C 457.68 1.6322 -1.6318 0
M  V30 4705 C 458.65 1.59199 -0.473815 0
M  V30 4706 O 459.835 1.77591 -0.697563 0
M  V30 4707 C 456.975 3.01474 -1.67951 0
M  V30 4708 C 456.088 3.15713 -2.94871 0
M  V30 4709 C 455.223 4.44539 -2.90789 0
M  V30 4710 C 454.262 4.52315 -4.12404 0
M  V30 4711 N 453.399 5.72533 -4.06387 0
M  V30 4712 H 458.239 1.50011 -2.57489 0
M  V30 4713 H 455.776 0.730298 -1.27691 0
M  V30 4714 H 457.734 3.81572 -1.68698 0
M  V30 4715 H 456.364 3.1345 -0.771306 0
M  V30 4716 H 455.416 2.28854 -3.03859 0
M  V30 4717 H 456.728 3.1732 -3.8485 0
M  V30 4718 H 455.882 5.3293 -2.89949 0
M  V30 4719 H 454.621 4.45457 -1.98542 0
M  V30 4720 H 453.626 3.62331 -4.13517 0
M  V30 4721 H 454.851 4.53134 -5.05812 0
M  V30 4722 H 452.797 5.74344 -3.16962 0
M  V30 4723 H 452.714 5.75643 -4.90073 0
M  V30 4724 H 453.982 6.63204 -4.0961 0
M  V30 4725 N 458.211 1.37122 0.776871 0
M  V30 4726 C 459.161 1.28989 1.88005 0
M  V30 4727 C 460.145 0.178765 1.59904 0
M  V30 4728 O 461.337 0.412705 1.72121 0
M  V30 4729 C 458.466 1.09402 3.25402 0
M  V30 4730 C 457.552 2.25036 3.59471 0
M  V30 4731 N 457.943 3.50407 3.64759 0
M  V30 4732 C 456.241 2.17078 3.89607 0
M  V30 4733 C 456.942 4.26628 3.95428 0
M  V30 4734 N 455.918 3.55709 4.11062 0
M  V30 4735 H 459.72 2.2394 1.90337 0
M  V30 4736 H 457.234 1.30021 0.973052 0
M  V30 4737 H 459.231 1.01661 4.04315 0
M  V30 4738 H 457.891 0.153632 3.24336 0
M  V30 4739 H 458.902 3.8438 3.47091 0
M  V30 4740 H 455.579 1.31067 3.96393 0
M  V30 4741 H 456.969 5.35107 4.06338 0
M  V30 4742 N 459.689 -1.00246 1.21608 0
M  V30 4743 C 460.637 -2.11193 0.97469 0
M  V30 4744 C 461.631 -1.69216 -0.0789303 0
M  V30 4745 O 462.837 -1.79853 0.0726806 0
M  V30 4746 H 459.212 -0.690455 0.297953 0
M  V30 4747 H 461.183 -2.2873 1.91638 0
M  V30 4748 C 459.932 -3.43182 0.558717 0
M  V30 4749 H 459.255 -3.75918 1.3611 0
M  V30 4750 H 460.695 -4.21823 0.429154 0
M  V30 4751 C 459.154 -3.28882 -0.730648 0
M  V30 4752 O 459.684 -3.59835 -1.78554 0
M  V30 4753 N 457.89 -2.8209 -0.698131 0
M  V30 4754 H 457.437 -2.57099 0.16061 0
M  V30 4755 H 457.395 -2.72903 -1.56113 0
M  V30 4756 N 461.167 -1.02423 -1.1978 0
M  V30 4757 C 462.583 -0.740459 -1.41384 0
M  V30 4758 C 462.783 0.676827 -1.89793 0
M  V30 4759 O 461.839 1.4435 -2.0717 0
M  V30 4760 C 463.152 -1.77264 -2.42895 0
M  V30 4761 C 464.7 -1.79165 -2.56649 0
M  V30 4762 C 465.175 -2.8133 -3.6141 0
M  V30 4763 N 466.666 -2.80118 -3.68901 0
M  V30 4764 C 467.401 -3.55824 -4.49641 0
M  V30 4765 N 466.897 -4.41231 -5.34123 0
M  V30 4766 N 468.69 -3.44387 -4.44246 0
M  V30 4767 H 460.841 -1.9391 -0.866764 0
M  V30 4768 H 463.104 -0.838074 -0.443098 0
M  V30 4769 H 462.81 -2.7884 -2.14339 0
M  V30 4770 H 462.684 -1.59108 -3.42001 0
M  V30 4771 H 465.071 -0.782702 -2.84531 0
M  V30 4772 H 465.152 -2.01396 -1.57713 0
M  V30 4773 H 464.796 -3.82394 -3.34271 0
M  V30 4774 H 464.726 -2.56359 -4.59986 0
M  V30 4775 H 467.217 -2.1817 -3.08562 0
M  V30 4776 H 467.53 -4.95747 -5.92836 0
M  V30 4777 H 465.875 -4.45306 -5.33599 0
M  V30 4778 H 469.066 -2.7708 -3.77285 0
M  V30 4779 H 469.239 -4.0364 -5.06931 0
M  V30 4780 N 462.645 1.35699 -0.801477 0
M  V30 4781 C 463.892 1.98913 -0.379459 0
M  V30 4782 C 464.22 1.63592 1.05204 0
M  V30 4783 O 463.475 0.888563 1.74365 0
M  V30 4784 C 463.774 3.53828 -0.504041 0
M  V30 4785 C 463.44 4.09002 -1.8981 0
M  V30 4786 C 462.102 4.23783 -2.27951 0
M  V30 4787 C 464.454 4.38939 -2.81038 0
M  V30 4788 C 461.782 4.65816 -3.56696 0
M  V30 4789 C 464.134 4.82409 -4.09224 0
M  V30 4790 C 462.798 4.95395 -4.4737 0
M  V30 4791 H 462.068 0.727874 -0.138854 0
M  V30 4792 H 464.715 1.61994 -1.02128 0
M  V30 4793 H 463.02 3.91175 0.221242 0
M  V30 4794 H 464.717 4.00687 -0.158361 0
M  V30 4795 H 461.307 3.97946 -1.59176 0
M  V30 4796 H 465.491 4.27077 -2.52821 0
M  V30 4797 H 460.747 4.74059 -3.86106 0
M  V30 4798 H 464.921 5.04535 -4.80018 0
M  V30 4799 H 462.548 5.27724 -5.47185 0
M  V30 4800 N 464.123 0.554532 1.47522 0
M  V30 4801 C 465.351 0.034257 2.06872 0
M  V30 4802 C 465.766 -1.25826 1.40759 0
M  V30 4803 O 465.123 -1.75425 0.503217 0
M  V30 4804 C 465.174 -0.167827 3.6111 0
M  V30 4805 O 464.895 1.07351 4.24744 0
M  V30 4806 C 466.396 -0.72569 4.3732 0
M  V30 4807 H 463.616 0.0446275 0.669514 0
M  V30 4808 H 466.16 0.767181 1.89564 0
M  V30 4809 H 464.315 -0.850872 3.7794 0
M  V30 4810 H 464.729 0.869563 5.17242 0
M  V30 4811 H 466.203 -0.816394 5.45929 0
M  V30 4812 H 466.68 -1.73635 4.0342 0
M  V30 4813 H 467.286 -0.0784292 4.25228 0
M  V30 4814 N 465.601 -1.54893 0.290851 0
M  V30 4815 C 466.548 -2.23138 -0.58974 0
M  V30 4816 C 467.518 -1.21036 -1.13752 0
M  V30 4817 O 468.703 -1.49626 -1.18392 0
M  V30 4818 C 465.843 -2.96811 -1.76061 0
M  V30 4819 C 464.956 -4.13665 -1.24519 0
M  V30 4820 C 464.091 -4.74944 -2.3791 0
M  V30 4821 C 463.13 -5.83963 -1.83451 0
M  V30 4822 N 462.267 -6.39239 -2.90376 0
M  V30 4823 H 467.107 -2.98 -0.00114915 0
M  V30 4824 H 464.644 -1.47096 0.0112006 0
M  V30 4825 H 466.602 -3.37751 -2.44909 0
M  V30 4826 H 465.232 -2.24344 -2.32098 0
M  V30 4827 H 464.284 -3.77737 -0.449288 0
M  V30 4828 H 465.596 -4.92238 -0.806424 0
M  V30 4829 H 464.75 -5.18684 -3.14724 0
M  V30 4830 H 463.489 -3.95682 -2.85109 0
M  V30 4831 H 462.494 -5.39657 -1.05122 0
M  V30 4832 H 463.719 -6.65103 -1.37169 0
M  V30 4833 H 461.665 -5.62864 -3.36927 0
M  V30 4834 H 461.582 -7.13129 -2.50965 0
M  V30 4835 H 462.85 -6.87637 -3.67118 0
M  V30 4836 N 467.08 -0.0183926 -1.57589 0
M  V30 4837 C 467.99 0.982943 -2.13015 0
M  V30 4838 C 469.006 1.36443 -1.07979 0
M  V30 4839 O 470.182 1.44802 -1.3998 0
M  V30 4840 C 467.247 2.25024 -2.63752 0
M  V30 4841 C 466.308 1.93018 -3.83461 0
M  V30 4842 C 465.541 3.13706 -4.31769 0
M  V30 4843 O 465.764 4.2601 -3.79305 0
M  V30 4844 O 464.698 2.96629 -5.23732 0
M  V30 4845 H 468.524 0.541709 -2.9883 0
M  V30 4846 H 466.109 0.201565 -1.48034 0
M  V30 4847 H 467.991 2.99441 -2.96502 0
M  V30 4848 H 466.666 2.68349 -1.81026 0
M  V30 4849 H 465.573 1.16019 -3.55655 0
M  V30 4850 H 466.906 1.54516 -4.67317 0
M  V30 4851 N 468.558 1.5553 0.254621 0
M  V30 4852 C 469.786 1.81046 1.00149 0
M  V30 4853 C 470.201 0.593047 1.79244 0
M  V30 4854 O 469.558 -0.438196 1.77161 0
M  V30 4855 C 469.609 3.04684 1.94551 0
M  V30 4856 O 469.33 4.21725 1.18658 0
M  V30 4857 C 470.831 3.42943 2.80901 0
M  V30 4858 H 468.051 0.602653 0.295044 0
M  V30 4859 H 470.595 2.02576 0.279842 0
M  V30 4860 H 468.75 2.85226 2.62154 0
M  V30 4861 H 469.164 4.91746 1.82445 0
M  V30 4862 H 470.638 4.32576 3.42902 0
M  V30 4863 H 471.115 2.63176 3.51617 0
M  V30 4864 H 471.721 3.64724 2.18762 0
M  V30 4865 N 470.036 -0.519951 1.48776 0
M  V30 4866 C 471.266 -1.29783 1.60748 0
M  V30 4867 C 471.674 -1.87253 0.27072 0
M  V30 4868 O 471.017 -1.67628 -0.751438 0
M  V30 4869 C 471.079 -2.47984 2.60277 0
M  V30 4870 C 470.743 -2.11526 4.051 0
M  V30 4871 C 471.74 -1.66608 4.92481 0
M  V30 4872 C 469.425 -2.21742 4.50706 0
M  V30 4873 C 471.419 -1.32384 6.23501 0
M  V30 4874 C 469.106 -1.87129 5.81744 0
M  V30 4875 C 470.104 -1.42523 6.67964 0
M  V30 4876 O 469.792 -1.0837 7.96562 0
M  V30 4877 H 469.524 -0.400562 0.544542 0
M  V30 4878 H 472.078 -0.632879 1.95407 0
M  V30 4879 H 470.308 -3.17493 2.2076 0
M  V30 4880 H 471.997 -3.10036 2.61978 0
M  V30 4881 H 472.763 -1.58178 4.58481 0
M  V30 4882 H 468.642 -2.55415 3.83776 0
M  V30 4883 H 472.186 -0.974949 6.90754 0
M  V30 4884 H 468.083 -1.95204 6.15277 0
M  V30 4885 H 468.851 -1.21681 8.09405 0
M  V30 4886 N 471.514 -1.37532 -0.769588 0
M  V30 4887 C 472.791 -1.23392 -1.51768 0
M  V30 4888 C 473.171 0.17157 -2.10402 0
M  V30 4889 O 472.519 1.17943 -1.95708 0
M  V30 4890 C 472.729 -2.33163 -2.59685 0
M  V30 4891 C 474.077 -2.70809 -3.27028 0
M  V30 4892 O 475.101 -2.32355 -2.69981 0
M  V30 4893 O 473.96 -3.37066 -4.30173 0
M  V30 4894 H 471.054 -0.481617 -0.67229 0
M  V30 4895 H 473.6 -1.49318 -0.806368 0
M  V30 4896 H 472.372 -3.27273 -2.14494 0
M  V30 4897 H 471.995 -2.08713 -3.38415 0
M  V30 4898 N 472.992 0.995999 -1.22138 0
M  V30 4899 C 474.239 1.7351 -1.04406 0
M  V30 4900 C 474.567 1.89884 0.421244 0
M  V30 4901 O 473.822 1.43683 1.32867 0
M  V30 4902 C 474.121 3.14553 -1.6968 0
M  V30 4903 C 473.787 3.18102 -3.19565 0
M  V30 4904 C 472.449 3.18778 -3.60464 0
M  V30 4905 C 474.801 3.14636 -4.15516 0
M  V30 4906 C 472.129 3.13684 -4.95801 0
M  V30 4907 C 474.481 3.11084 -5.50826 0
M  V30 4908 C 473.145 3.10074 -5.91109 0
M  V30 4909 H 472.415 0.634916 -0.38205 0
M  V30 4910 H 475.062 1.1667 -1.51857 0
M  V30 4911 H 473.367 3.74682 -1.14546 0
M  V30 4912 H 475.064 3.70477 -1.53454 0
M  V30 4913 H 471.654 3.18324 -2.86998 0
M  V30 4914 H 475.838 3.13266 -3.84939 0
M  V30 4915 H 471.094 3.11245 -5.26247 0
M  V30 4916 H 475.268 3.07357 -6.24904 0
M  V30 4917 H 472.895 3.05882 -6.95946 0
M  V30 4918 N 474.47 1.03057 1.19235 0
M  V30 4919 C 475.747 0.642608 1.84743 0
M  V30 4920 C 476.127 -0.878577 1.91948 0
M  V30 4921 O 475.475 -1.77597 1.43776 0
M  V30 4922 C 475.685 1.30665 3.23616 0
M  V30 4923 C 477.033 1.43098 3.9976 0
M  V30 4924 O 478.057 1.26396 3.3302 0
M  V30 4925 O 476.916 1.70223 5.19313 0
M  V30 4926 H 474.01 0.223573 0.796206 0
M  V30 4927 H 476.556 1.12883 1.26711 0
M  V30 4928 H 475.328 2.34544 3.13217 0
M  V30 4929 H 474.951 0.808405 3.89295 0
M  V30 4930 N 475.948 -1.35272 0.808662 0
M  V30 4931 C 477.197 -1.97963 0.386483 0
M  V30 4932 C 477.51 -1.64866 -1.05255 0
M  V30 4933 O 478.716 -2.20937 -1.57794 0
M  V30 4934 C 477.172 -3.54162 0.640096 0
M  V30 4935 C 476.78 -3.96166 2.0918 0
M  V30 4936 C 478.524 -4.23553 0.283376 0
M  V30 4937 C 476.431 -5.4522 2.29106 0
M  V30 4938 H 475.361 -0.740742 0.140774 0
M  V30 4939 H 478.012 -1.5431 0.993012 0
M  V30 4940 H 476.394 -3.95983 -0.0364117 0
M  V30 4941 H 477.568 -3.65491 2.80629 0
M  V30 4942 H 475.883 -3.3967 2.40859 0
M  V30 4943 H 478.48 -5.33124 0.410273 0
M  V30 4944 H 478.823 -4.09105 -0.770659 0
M  V30 4945 H 479.356 -3.8716 0.913884 0
M  V30 4946 H 476.095 -5.64638 3.32962 0
M  V30 4947 H 475.615 -5.77457 1.62184 0
M  V30 4948 H 477.294 -6.1171 2.1076 0
M  V30 4949 N 477.426 -0.562348 -1.47226 0
M  V30 4950 C 478.389 0.172056 -2.28553 0
M  V30 4951 C 479.389 0.837928 -1.37242 0
M  V30 4952 O 480.579 0.693001 -1.59822 0
M  V30 4953 C 477.711 1.25223 -3.17068 0
M  V30 4954 H 478.904 -0.542401 -2.94954 0
M  V30 4955 H 476.457 -0.319493 -1.53 0
M  V30 4956 H 477.192 1.99892 -2.55369 0
M  V30 4957 H 476.977 0.779515 -3.84273 0
M  V30 4958 H 478.467 1.76791 -3.78332 0
M  V30 4959 N 478.904 1.54736 -0.299062 0
M  V30 4960 C 480.15 2.00397 0.311244 0
M  V30 4961 C 480.483 1.18716 1.53688 0
M  V30 4962 O 479.758 0.263154 1.92712 0
M  V30 4963 C 480.041 3.53817 0.669761 0
M  V30 4964 C 479.894 4.46239 -0.564882 0
M  V30 4965 C 481.213 4.13856 1.49702 0
M  V30 4966 H 478.332 0.728493 0.111653 0
M  V30 4967 H 480.974 1.85506 -0.410774 0
M  V30 4968 H 479.124 3.66637 1.28491 0
M  V30 4969 H 480.796 4.45328 -1.20337 0
M  V30 4970 H 479.039 4.16916 -1.19849 0
M  V30 4971 H 479.71 5.5134 -0.269918 0
M  V30 4972 H 482.186 4.04461 0.977284 0
M  V30 4973 H 481.062 5.21365 1.71666 0
M  V30 4974 H 481.323 3.65608 2.48563 0
M  V30 4975 N 480.382 0.0267497 1.57577 0
M  V30 4976 C 481.312 -0.954308 2.13108 0
M  V30 4977 C 482.293 -1.34088 1.04663 0
M  V30 4978 O 483.478 -1.41992 1.32484 0
M  V30 4979 C 480.608 -2.23744 2.65624 0
M  V30 4980 C 479.562 -1.99168 3.78835 0
M  V30 4981 C 478.888 -3.33726 4.17769 0
M  V30 4982 C 480.188 -1.33277 5.0501 0
M  V30 4983 H 481.882 -0.491848 2.95332 0
M  V30 4984 H 479.428 -0.23514 1.42067 0
M  V30 4985 H 481.381 -2.92754 3.03106 0
M  V30 4986 H 480.105 -2.72151 1.80558 0
M  V30 4987 H 478.764 -1.32577 3.41788 0
M  V30 4988 H 478.412 -3.79888 3.29688 0
M  V30 4989 H 478.112 -3.18089 4.94058 0
M  V30 4990 H 479.636 -4.04008 4.57832 0
M  V30 4991 H 481.05 -1.92283 5.40093 0
M  V30 4992 H 479.447 -1.28045 5.8628 0
M  V30 4993 H 480.517 -0.305411 4.83937 0
M  V30 4994 N 481.861 -1.55662 -0.24637 0
M  V30 4995 C 483.277 -1.48098 -0.594907 0
M  V30 4996 C 483.477 -0.717044 -1.8831 0
M  V30 4997 O 482.533 -0.246618 -2.51293 0
M  V30 4998 C 483.846 -2.92507 -0.697146 0
M  V30 4999 C 485.394 -3.02881 -0.789436 0
M  V30 5000 C 485.869 -4.48598 -0.923232 0
M  V30 5001 N 487.36 -4.52538 -0.988088 0
M  V30 5002 C 488.095 -5.62536 -1.11089 0
M  V30 5003 N 487.591 -6.82342 -1.19919 0
M  V30 5004 N 489.384 -5.50334 -1.14408 0
M  V30 5005 H 481.535 -2.0377 0.599278 0
M  V30 5006 H 483.798 -0.925145 0.20691 0
M  V30 5007 H 483.504 -3.51242 0.179396 0
M  V30 5008 H 483.378 -3.43024 -1.5689 0
M  V30 5009 H 485.765 -2.44226 -1.65643 0
M  V30 5010 H 485.846 -2.55574 0.107482 0
M  V30 5011 H 485.49 -5.07864 -0.0607927 0
M  V30 5012 H 485.42 -4.93587 -1.8352 0
M  V30 5013 H 487.911 -3.66248 -0.931167 0
M  V30 5014 H 488.224 -7.61924 -1.29197 0
M  V30 5015 H 486.569 -6.85102 -1.16876 0
M  V30 5016 H 489.76 -4.5567 -1.07158 0
M  V30 5017 H 489.933 -6.36096 -1.23634 0
M  V30 5018 N 483.339 0.512053 -1.4905 0
M  V30 5019 C 484.269 1.62365 -1.67809 0
M  V30 5020 C 485.25 1.61737 -0.526809 0
M  V30 5021 O 486.435 1.78651 -0.761404 0
M  V30 5022 C 483.565 3.00895 -1.73435 0
M  V30 5023 C 482.519 3.16387 -2.88242 0
M  V30 5024 C 481.845 4.56157 -2.78971 0
M  V30 5025 C 483.145 2.97457 -4.29321 0
M  V30 5026 H 484.839 1.46921 -2.60873 0
M  V30 5027 H 482.385 0.705379 -1.2554 0
M  V30 5028 H 484.338 3.78549 -1.85145 0
M  V30 5029 H 483.062 3.17403 -0.769619 0
M  V30 5030 H 481.721 2.41155 -2.76116 0
M  V30 5031 H 481.369 4.69525 -1.8043 0
M  V30 5032 H 481.069 4.67465 -3.5602 0
M  V30 5033 H 482.593 5.35886 -2.92675 0
M  V30 5034 H 484.007 3.64888 -4.42187 0
M  V30 5035 H 482.404 3.20245 -5.07507 0
M  V30 5036 H 483.474 1.93692 -4.44535 0
M  V30 5037 N 484.817 1.37938 0.762283 0
M  V30 5038 C 485.764 1.34467 1.87583 0
M  V30 5039 C 486.734 0.208633 1.64785 0
M  V30 5040 O 487.919 0.399494 1.86571 0
M  V30 5041 C 485.059 1.16692 3.24772 0
M  V30 5042 C 484.172 2.39608 3.59461 0
M  V30 5043 C 483.307 2.14631 4.85908 0
M  V30 5044 C 482.346 3.33364 5.13357 0
M  V30 5045 N 481.483 3.07877 6.30996 0
M  V30 5046 H 486.323 2.29669 1.89885 0
M  V30 5047 H 483.86 1.14116 0.928219 0
M  V30 5048 H 485.818 1.04405 4.03925 0
M  V30 5049 H 484.448 0.251333 3.2182 0
M  V30 5050 H 483.5 2.626 2.75219 0
M  V30 5051 H 484.812 3.28128 3.75678 0
M  V30 5052 H 483.966 1.99429 5.72986 0
M  V30 5053 H 482.705 1.23463 4.71814 0
M  V30 5054 H 481.71 3.49094 4.24751 0
M  V30 5055 H 482.935 4.25395 5.29354 0
M  V30 5056 H 480.881 2.19348 6.18241 0
M  V30 5057 H 480.798 3.89944 6.47673 0
M  V30 5058 H 482.066 2.96313 7.20985 0
M  V30 5059 N 486.295 -0.989507 1.22664 0
M  V30 5060 C 487.523 -1.76496 1.07967 0
M  V30 5061 C 487.938 -1.85148 -0.369543 0
M  V30 5062 O 487.295 -1.32408 -1.25596 0
M  V30 5063 C 487.346 -3.19642 1.68853 0
M  V30 5064 O 487.067 -3.11453 3.08105 0
M  V30 5065 C 488.568 -4.13621 1.59475 0
M  V30 5066 H 485.788 -0.55418 0.378319 0
M  V30 5067 H 488.332 -1.24378 1.62328 0
M  V30 5068 H 486.487 -3.68816 1.18547 0
M  V30 5069 H 486.901 -4.01499 3.37489 0
M  V30 5070 H 488.375 -5.11801 2.06795 0
M  V30 5071 H 488.852 -4.35718 0.55191 0
M  V30 5072 H 489.458 -3.70346 2.09103 0
M  V30 5073 N 487.773 -1.03688 -1.18687 0
M  V30 5074 C 489.184 -0.766488 -1.70241 0
M  V30 5075 C 489.535 0.713052 -1.82784 0
M  V30 5076 O 488.66 1.55529 -1.50465 0
M  V30 5077 C 489.255 -1.38475 -3.09209 0
M  V30 5078 C 487.814 -1.16276 -3.5799 0
M  V30 5079 C 486.961 -1.4778 -2.34641 0
M  V30 5080 H 489.912 -1.20378 -1.03415 0
M  V30 5081 H 489.933 -0.785939 -3.72295 0
M  V30 5082 H 489.445 -2.46157 -3.00048 0
M  V30 5083 H 487.546 -0.104508 -3.72453 0
M  V30 5084 H 487.659 -1.8571 -4.41643 0
M  V30 5085 H 486.023 -0.897366 -2.38368 0
M  V30 5086 H 486.806 -2.56562 -2.28102 0
M  V30 5087 N 489.251 1.34841 -0.815825 0
M  V30 5088 C 490.5 1.97755 -0.396976 0
M  V30 5089 C 490.813 1.65422 1.04379 0
M  V30 5090 O 492.019 2.21771 1.5662 0
M  V30 5091 C 490.475 3.53818 -0.658869 0
M  V30 5092 C 490.083 3.95051 -2.11278 0
M  V30 5093 C 491.827 4.23397 -0.305834 0
M  V30 5094 C 489.734 5.43997 -2.31994 0
M  V30 5095 H 488.664 0.739985 -0.1447 0
M  V30 5096 H 491.315 1.53781 -1.00118 0
M  V30 5097 H 489.697 3.95997 0.0154112 0
M  V30 5098 H 490.871 3.63998 -2.82564 0
M  V30 5099 H 489.186 3.38388 -2.42657 0
M  V30 5100 H 491.783 5.32899 -0.43854 0
M  V30 5101 H 492.126 4.09508 0.748952 0
M  V30 5102 H 492.659 3.8667 -0.934403 0
M  V30 5103 H 489.398 5.62865 -3.35952 0
M  V30 5104 H 488.918 5.76589 -1.65244 0
M  V30 5105 H 490.597 6.10584 -2.14001 0
M  V30 5106 N 490.729 0.570148 1.46925 0
M  V30 5107 C 491.957 0.0561966 2.06824 0
M  V30 5108 C 492.372 -1.24326 1.42086 0
M  V30 5109 O 491.729 -1.74882 0.521794 0
M  V30 5110 C 491.78 -0.129517 3.61268 0
M  V30 5111 O 491.501 1.1185 4.23581 0
M  V30 5112 C 493.002 -0.679266 4.38065 0
M  V30 5113 H 490.222 0.0517261 0.669003 0
M  V30 5114 H 492.766 0.787243 1.8874 0
M  V30 5115 H 490.921 -0.810739 3.78822 0
M  V30 5116 H 491.335 0.924375 5.1629 0
M  V30 5117 H 492.809 -0.758445 5.46765 0
M  V30 5118 H 493.286 -1.69346 4.05239 0
M  V30 5119 H 493.892 -0.0333237 4.25287 0
M  V30 5120 N 492.207 -1.54576 0.307264 0
M  V30 5121 C 493.454 -2.00263 -0.300167 0
M  V30 5122 C 493.782 -1.19561 -1.53413 0
M  V30 5123 O 493.037 -0.261487 -1.93945 0
M  V30 5124 C 493.336 -3.50572 -0.695253 0
M  V30 5125 C 493.002 -4.48771 0.437679 0
M  V30 5126 C 491.664 -4.7534 0.748681 0
M  V30 5127 C 494.016 -5.0721 1.19949 0
M  V30 5128 C 491.344 -5.5761 1.8245 0
M  V30 5129 C 493.696 -5.90651 2.26527 0
M  V30 5130 C 492.36 -6.15528 2.58227 0
M  V30 5131 H 491.63 -0.732814 -0.109839 0
M  V30 5132 H 494.277 -1.86664 0.427661 0
M  V30 5133 H 492.582 -3.61814 -1.50326 0
M  V30 5134 H 494.279 -3.83352 -1.17653 0
M  V30 5135 H 490.869 -4.282 0.185187 0
M  V30 5136 H 495.053 -4.86679 0.972474 0
M  V30 5137 H 490.309 -5.75121 2.07476 0
M  V30 5138 H 494.483 -6.34957 2.86011 0
M  V30 5139 H 492.11 -6.79066 3.4172 0
M  V30 5140 N 493.685 -0.035106 -1.57561 0
M  V30 5141 C 495.101 0.321334 -1.56332 0
M  V30 5142 C 495.301 1.72509 -1.04129 0
M  V30 5143 O 494.357 2.4287 -0.690694 0
M  V30 5144 C 495.67 0.164469 -3.0025 0
M  V30 5145 C 497.218 0.236786 -3.12103 0
M  V30 5146 C 497.693 0.10864 -4.57871 0
M  V30 5147 N 499.184 0.165433 -4.62904 0
M  V30 5148 C 499.919 0.0901506 -5.73329 0
M  V30 5149 N 499.415 -0.0365606 -6.9279 0
M  V30 5150 N 501.208 0.144572 -5.61914 0
M  V30 5151 H 493.359 -0.952976 -1.89821 0
M  V30 5152 H 495.622 -0.368537 -0.873432 0
M  V30 5153 H 495.328 -0.802746 -3.42416 0
M  V30 5154 H 495.202 0.932194 -3.655 0
M  V30 5155 H 497.589 1.19446 -2.69845 0
M  V30 5156 H 497.67 -0.561419 -2.49563 0
M  V30 5157 H 497.314 -0.845644 -5.00811 0
M  V30 5158 H 497.244 0.925786 -5.18398 0
M  V30 5159 H 499.735 0.263269 -3.76982 0
M  V30 5160 H 500.048 -0.0871487 -7.72751 0
M  V30 5161 H 498.393 -0.0714256 -6.94963 0
M  V30 5162 H 501.584 0.242006 -4.67474 0
M  V30 5163 H 501.757 0.0824413 -6.47948 0
M  V30 5164 N 495.163 1.55791 0.238111 0
M  V30 5165 C 496.096 1.86036 1.32158 0
M  V30 5166 C 497.074 0.716216 1.45976 0
M  V30 5167 O 498.258 0.962882 1.62052 0
M  V30 5168 C 495.385 2.05281 2.69402 0
M  V30 5169 C 494.431 3.27939 2.72687 0
M  V30 5170 S 495.264 4.84342 2.28413 0
M  V30 5171 C 496.42 5.06604 3.67565 0
M  V30 5172 H 496.653 2.77644 1.06306 0
M  V30 5173 H 494.186 1.48012 0.439537 0
M  V30 5174 H 496.144 2.17053 3.48423 0
M  V30 5175 H 494.805 1.14499 2.92487 0
M  V30 5176 H 493.998 3.38398 3.73501 0
M  V30 5177 H 493.6 3.14938 2.01717 0
M  V30 5178 H 495.892 4.94486 4.6313 0
M  V30 5179 H 496.835 6.08554 3.62033 0
M  V30 5180 H 497.243 4.34409 3.60485 0
M  V30 5181 N 496.642 -0.504142 1.49319 0
M  V30 5182 C 497.59 -1.62689 1.66238 0
M  V30 5183 C 498.584 -1.6095 0.528349 0
M  V30 5184 O 499.79 -1.65496 0.707887 0
M  V30 5185 H 496.165 -0.539247 0.524134 0
M  V30 5186 H 498.136 -1.45571 2.60484 0
M  V30 5187 C 496.885 -3.00841 1.74328 0
M  V30 5188 H 496.208 -3.02884 2.60963 0
M  V30 5189 H 497.648 -3.78945 1.90202 0
M  V30 5190 C 496.107 -3.33355 0.487416 0
M  V30 5191 O 496.637 -3.99819 -0.388294 0
M  V30 5192 N 494.843 -2.88469 0.351306 0
M  V30 5193 H 494.39 -2.34557 1.06492 0
M  V30 5194 H 494.348 -3.10591 -0.487899 0
M  V30 5195 N 498.12 -1.38341 -0.754957 0
M  V30 5196 C 499.366 -1.34672 -1.51628 0
M  V30 5197 C 499.699 0.0636036 -1.94096 0
M  V30 5198 O 498.974 1.0245 -1.6533 0
M  V30 5199 C 499.257 -2.30116 -2.76981 0
M  V30 5200 C 499.11 -3.80003 -2.4066 0
M  V30 5201 C 500.429 -2.23715 -3.78998 0
M  V30 5202 H 497.548 -0.490517 -0.550056 0
M  V30 5203 H 500.19 -1.69178 -0.864807 0
M  V30 5204 H 498.34 -2.00821 -3.3257 0
M  V30 5205 H 500.012 -4.19966 -1.90856 0
M  V30 5206 H 498.255 -3.97751 -1.73137 0
M  V30 5207 H 498.926 -4.42244 -3.30339 0
M  V30 5208 H 501.402 -2.49574 -3.32945 0
M  V30 5209 H 500.278 -2.9261 -4.64403 0
M  V30 5210 H 500.539 -1.23554 -4.24484 0
M  V30 5211 N 499.598 0.982988 -1.23187 0
M  V30 5212 C 500.561 2.05649 -1.01198 0
M  V30 5213 C 501.561 1.6078 0.0252464 0
M  V30 5214 O 502.751 1.72878 -0.214243 0
M  V30 5215 C 499.883 3.36744 -0.530656 0
M  V30 5216 H 501.076 2.2659 -1.96461 0
M  V30 5217 H 498.629 1.15602 -1.05195 0
M  V30 5218 H 499.364 3.21492 0.425873 0
M  V30 5219 H 499.149 3.7065 -1.2791 0
M  V30 5220 H 500.639 4.15705 -0.397366 0
M  V30 5221 N 501.076 1.04316 1.18135 0
M  V30 5222 C 502.487 0.775505 1.69832 0
M  V30 5223 C 502.838 -0.703348 1.8316 0
M  V30 5224 O 501.963 -1.54729 1.51287 0
M  V30 5225 C 502.558 1.40112 3.0847 0
M  V30 5226 C 501.117 1.18172 3.57368 0
M  V30 5227 C 500.264 1.49022 2.33854 0
M  V30 5228 H 503.215 1.20925 1.02775 0
M  V30 5229 H 503.236 0.805672 3.71873 0
M  V30 5230 H 502.748 2.47744 2.98738 0
M  V30 5231 H 500.849 0.124258 3.72393 0
M  V30 5232 H 500.962 1.8805 4.40652 0
M  V30 5233 H 499.326 0.909995 2.37889 0
M  V30 5234 H 500.109 2.57768 2.26738 0
M  V30 5235 N 502.554 -1.34406 0.822964 0
M  V30 5236 C 503.517 -2.2783 0.250271 0
M  V30 5237 C 504.517 -1.50288 -0.571854 0
M  V30 5238 O 505.707 -1.69825 -0.387952 0
M  V30 5239 C 502.839 -3.34663 -0.649137 0
M  V30 5240 H 504.032 -2.79992 1.07444 0
M  V30 5241 H 501.585 -1.44539 0.594829 0
M  V30 5242 H 502.32 -2.87714 -1.49637 0
M  V30 5243 H 502.105 -3.92052 -0.0611199 0
M  V30 5244 H 503.595 -4.04349 -1.04363 0
M  V30 5245 N 504.032 -0.577932 -1.46621 0
M  V30 5246 C 505.272 -0.0643097 -2.04299 0
M  V30 5247 C 505.636 1.26967 -1.44026 0
M  V30 5248 O 506.837 1.87224 -1.92875 0
M  V30 5249 C 505.108 0.00547588 -3.574 0
M  V30 5250 S 506.667 0.462216 -4.36359 0
M  V30 5251 H 503.485 -0.0351573 -0.71013 0
M  V30 5252 H 506.087 -0.76935 -1.79725 0
M  V30 5253 H 504.791 -0.969423 -3.98786 0
M  V30 5254 H 504.322 0.733435 -3.86503 0
M  V30 5255 H 506.337 1.71791 -4.65513 0
M  V30 5256 N 505.51 1.54411 -0.315457 0
M  V30 5257 C 506.44 2.27002 0.547039 0
M  V30 5258 C 507.421 1.27492 1.12605 0
M  V30 5259 O 508.606 1.5629 1.15269 0
M  V30 5260 C 505.736 3.02171 1.71201 0
M  V30 5261 C 504.69 4.0895 1.26268 0
M  V30 5262 C 504.016 4.71915 2.51396 0
M  V30 5263 C 505.316 5.20891 0.383419 0
M  V30 5264 H 507.01 2.99343 -0.0584517 0
M  V30 5265 H 504.556 1.4397 -0.0295527 0
M  V30 5266 H 506.509 3.51681 2.32161 0
M  V30 5267 H 505.233 2.27433 2.34397 0
M  V30 5268 H 503.892 3.60312 0.676062 0
M  V30 5269 H 503.54 3.93801 3.12937 0
M  V30 5270 H 503.24 5.44039 2.22026 0
M  V30 5271 H 504.764 5.24195 3.13133 0
M  V30 5272 H 506.178 5.66206 0.899082 0
M  V30 5273 H 504.575 5.99821 0.182857 0
M  V30 5274 H 505.645 4.81324 -0.587821 0
M  V30 5275 N 506.988 0.0434614 1.5754 0
M  V30 5276 C 508.399 -0.493343 1.80064 0
M  V30 5277 C 508.75 -1.71388 0.955023 0
M  V30 5278 O 507.875 -2.15736 0.169434 0
M  V30 5279 C 508.47 -0.90179 3.26578 0
M  V30 5280 C 507.029 -1.38362 3.50047 0
M  V30 5281 C 506.176 -0.355129 2.75017 0
M  V30 5282 H 509.127 0.2694 1.56397 0
M  V30 5283 H 509.148 -1.76523 3.37075 0
M  V30 5284 H 508.66 -0.013271 3.88098 0
M  V30 5285 H 506.761 -2.29159 2.93798 0
M  V30 5286 H 506.874 -1.3811 4.58762 0
M  V30 5287 H 505.238 -0.826348 2.40922 0
M  V30 5288 H 506.021 0.525172 3.39259 0
M  V30 5289 N 508.466 -1.55915 -0.229846 0
M  V30 5290 C 509.376 -1.94891 -1.30593 0
M  V30 5291 C 510.392 -0.851604 -1.51736 0
M  V30 5292 O 511.568 -1.15447 -1.65027 0
M  V30 5293 C 508.633 -2.25052 -2.63728 0
M  V30 5294 C 507.694 -3.48306 -2.5096 0
M  V30 5295 C 506.927 -3.77019 -3.77747 0
M  V30 5296 O 507.15 -3.07534 -4.80395 0
M  V30 5297 O 506.084 -4.70523 -3.75356 0
M  V30 5298 H 509.91 -2.86581 -1.00525 0
M  V30 5299 H 507.495 -1.43017 -0.432025 0
M  V30 5300 H 509.377 -2.45682 -3.42372 0
M  V30 5301 H 508.052 -1.36538 -2.93495 0
M  V30 5302 H 506.959 -3.32964 -1.70546 0
M  V30 5303 H 508.292 -4.37177 -2.26136 0
M  V30 5304 N 509.944 0.496216 -1.49584 0
M  V30 5305 C 511.36 0.827814 -1.36453 0
M  V30 5306 C 511.56 1.97464 -0.401285 0
M  V30 5307 O 510.616 2.51958 0.165296 0
M  V30 5308 C 511.929 1.16352 -2.77277 0
M  V30 5309 C 513.477 1.27145 -2.86013 0
M  V30 5310 C 513.952 1.64042 -4.27615 0
M  V30 5311 N 515.443 1.71082 -4.30448 0
M  V30 5312 C 516.178 2.01085 -5.36984 0
M  V30 5313 N 515.674 2.2928 -6.5376 0
M  V30 5314 N 517.467 2.02376 -5.24405 0
M  V30 5315 H 509.618 -0.259947 -2.10803 0
M  V30 5316 H 511.881 -0.0537163 -0.946477 0
M  V30 5317 H 511.587 0.394153 -3.49484 0
M  V30 5318 H 511.461 2.10582 -3.12946 0
M  V30 5319 H 513.848 2.03152 -2.1404 0
M  V30 5320 H 513.929 0.309542 -2.5392 0
M  V30 5321 H 513.573 0.88583 -5.00115 0
M  V30 5322 H 513.503 2.6134 -4.57175 0
M  V30 5323 H 515.994 1.51434 -3.46232 0
M  V30 5324 H 516.307 2.51376 -7.30774 0
M  V30 5325 H 514.652 2.26726 -6.56978 0
M  V30 5326 H 517.843 1.79829 -4.32179 0
M  V30 5327 H 518.016 2.25425 -6.07526 0
M  V30 5328 N 511.423 1.38739 0.74761 0
M  V30 5329 C 512.7 1.25791 1.49786 0
M  V30 5330 C 513.08 -0.138075 2.10648 0
M  V30 5331 O 512.428 -1.14815 1.9756 0
M  V30 5332 C 512.638 2.37265 2.55942 0
M  V30 5333 C 513.986 2.75978 3.22679 0
M  V30 5334 O 515.01 2.36621 2.6625 0
M  V30 5335 O 513.869 3.43867 4.24756 0
M  V30 5336 H 510.963 0.492251 0.664543 0
M  V30 5337 H 513.509 1.50582 0.782511 0
M  V30 5338 H 512.281 3.30644 2.0926 0
M  V30 5339 H 511.904 2.14071 3.35051 0
M  V30 5340 N 512.901 -0.976442 1.23707 0
M  V30 5341 C 514.147 -1.72158 1.08319 0
M  V30 5342 C 514.502 -1.88701 -0.375445 0
M  V30 5343 O 513.795 -1.43107 -1.274 0
M  V30 5344 C 513.989 -3.11814 1.74662 0
M  V30 5345 C 513.818 -3.08892 3.26827 0
M  V30 5346 C 512.588 -3.13861 3.96004 0
M  V30 5347 C 514.786 -2.9175 4.2354 0
M  V30 5348 N 512.768 -3.00867 5.35119 0
M  V30 5349 C 514.139 -2.8696 5.49595 0
M  V30 5350 C 516.194 -2.76265 4.14225 0
M  V30 5351 C 514.897 -2.68268 6.67401 0
M  V30 5352 C 516.923 -2.58938 5.317 0
M  V30 5353 C 516.285 -2.54849 6.56682 0
M  V30 5354 H 512.384 -0.638896 0.450927 0
M  V30 5355 H 514.968 -1.15835 1.56494 0
M  V30 5356 H 513.139 -3.66347 1.29014 0
M  V30 5357 H 514.871 -3.74984 1.52215 0
M  V30 5358 H 511.626 -3.22198 3.4711 0
M  V30 5359 H 512.05 -2.97634 6.08065 0
M  V30 5360 H 516.692 -2.78213 3.18366 0
M  V30 5361 H 514.41 -2.65063 7.63392 0
M  V30 5362 H 517.996 -2.47914 5.26336 0
M  V30 5363 H 516.876 -2.41611 7.46052 0
M  V30 5364 N 514.379 -1.04941 -1.1758 0
M  V30 5365 C 515.342 -0.652456 -2.19717 0
M  V30 5366 C 516.342 0.294745 -1.58076 0
M  V30 5367 O 517.532 0.0789579 -1.74021 0
M  V30 5368 C 514.664 0.0420712 -3.40874 0
M  V30 5369 H 515.857 -1.55642 -2.5635 0
M  V30 5370 H 513.41 -0.842995 -1.31618 0
M  V30 5371 H 514.145 0.95943 -3.09783 0
M  V30 5372 H 513.93 -0.638844 -3.86861 0
M  V30 5373 H 515.42 0.306 -4.16477 0
M  V30 5374 N 515.857 1.33968 -0.830081 0
M  V30 5375 C 516.767 2.33164 -0.259207 0
M  V30 5376 C 517.783 1.62951 0.610164 0
M  V30 5377 O 518.959 1.94668 0.516369 0
M  V30 5378 C 516.024 3.42088 0.563598 0
M  V30 5379 C 515.085 4.28037 -0.329014 0
M  V30 5380 C 514.318 5.3176 0.454616 0
M  V30 5381 O 514.541 5.44876 1.6872 0
M  V30 5382 O 513.475 6.01669 -0.166794 0
M  V30 5383 H 517.301 2.83832 -1.08041 0
M  V30 5384 H 514.886 1.37154 -0.59239 0
M  V30 5385 H 516.768 4.08581 1.03147 0
M  V30 5386 H 515.443 2.93651 1.36201 0
M  V30 5387 H 514.35 3.64443 -0.844538 0
M  V30 5388 H 515.683 4.79934 -1.09196 0
M  V30 5389 N 517.335 0.585699 1.46312 0
M  V30 5390 C 518.56 0.0762461 2.0726 0
M  V30 5391 C 518.985 -1.22071 1.43109 0
M  V30 5392 O 518.343 -1.73804 0.515942 0
M  V30 5393 C 518.391 -0.0729404 3.60526 0
M  V30 5394 O 517.495 -1.1287 3.96654 0
M  V30 5395 H 516.836 0.0641558 0.660893 0
M  V30 5396 H 519.366 0.809492 1.87905 0
M  V30 5397 H 519.376 -0.278158 4.07051 0
M  V30 5398 H 518.051 0.874188 4.06609 0
M  V30 5399 H 516.628 -0.901703 3.61834 0
M  V30 5400 N 518.813 -1.54241 0.323641 0
M  V30 5401 C 520.041 -2.04985 -0.280871 0
M  V30 5402 C 520.456 -1.19978 -1.45777 0
M  V30 5403 O 519.813 -0.230471 -1.81039 0
M  V30 5404 C 519.864 -3.54353 -0.715258 0
M  V30 5405 O 519.585 -4.36132 0.414817 0
M  V30 5406 C 521.086 -4.21189 -1.38257 0
M  V30 5407 H 518.306 -0.66851 -0.0577502 0
M  V30 5408 H 520.85 -1.99029 0.469852 0
M  V30 5409 H 519.005 -3.60596 -1.41596 0
M  V30 5410 H 519.419 -5.2445 0.0725227 0
M  V30 5411 H 520.893 -5.27154 -1.63745 0
M  V30 5412 H 521.37 -3.72307 -2.32989 0
M  V30 5413 H 521.976 -4.19085 -0.724447 0
M  V30 5414 N 520.291 -0.0518155 -1.57515 0
M  V30 5415 C 521.221 0.920283 -2.146 0
M  V30 5416 C 522.202 1.32406 -1.06783 0
M  V30 5417 O 523.387 1.39866 -1.34726 0
M  V30 5418 C 520.517 2.1949 -2.6915 0
M  V30 5419 C 519.471 1.93116 -3.81956 0
M  V30 5420 C 518.797 3.27037 -4.23026 0
M  V30 5421 C 520.097 1.25225 -5.07066 0
M  V30 5422 H 521.791 0.444801 -2.96077 0
M  V30 5423 H 519.337 0.212508 -1.42423 0
M  V30 5424 H 521.29 2.87894 -3.07725 0
M  V30 5425 H 520.014 2.69244 -1.84865 0
M  V30 5426 H 518.673 1.27123 -3.43854 0
M  V30 5427 H 518.321 3.74595 -3.3569 0
M  V30 5428 H 518.021 3.10189 -4.99056 0
M  V30 5429 H 519.545 3.96673 -4.64202 0
M  V30 5430 H 520.959 1.83666 -5.43083 0
M  V30 5431 H 519.356 1.18702 -5.88243 0
M  V30 5432 H 520.426 0.228382 -4.84362 0
M  V30 5433 N 521.769 1.56035 0.221574 0
M  V30 5434 C 522.702 1.87427 1.30178 0
M  V30 5435 C 523.68 0.731658 1.45209 0
M  V30 5436 O 524.864 0.980016 1.61022 0
M  V30 5437 C 521.991 2.08127 2.67209 0
M  V30 5438 C 521.037 3.30813 2.69194 0
M  V30 5439 S 521.87 4.86738 2.23263 0
M  V30 5440 C 523.026 5.10474 3.62171 0
M  V30 5441 H 523.259 2.78756 1.03355 0
M  V30 5442 H 520.792 1.48469 0.423813 0
M  V30 5443 H 522.75 2.20736 3.46101 0
M  V30 5444 H 521.411 1.17595 2.91256 0
M  V30 5445 H 520.604 3.42341 3.6989 0
M  V30 5446 H 520.206 3.1706 1.98366 0
M  V30 5447 H 522.498 4.9937 4.5786 0
M  V30 5448 H 523.441 6.12359 3.55558 0
M  V30 5449 H 523.849 4.38208 3.55857 0
M  V30 5450 N 523.247 -0.488276 1.49845 0
M  V30 5451 C 524.475 -1.26527 1.63702 0
M  V30 5452 C 524.89 -1.8618 0.313447 0
M  V30 5453 O 524.247 -1.68432 -0.702624 0
M  V30 5454 C 524.298 -2.3864 2.71538 0
M  V30 5455 O 524.019 -1.81437 3.98763 0
M  V30 5456 C 525.52 -3.29805 2.96215 0
M  V30 5457 H 522.74 -0.383295 0.55075 0
M  V30 5458 H 525.284 -0.584779 1.95961 0
M  V30 5459 H 523.439 -3.02496 2.42023 0
M  V30 5460 H 523.853 -2.55135 4.58265 0
M  V30 5461 H 525.327 -4.04722 3.75372 0
M  V30 5462 H 525.804 -3.87563 2.06619 0
M  V30 5463 H 526.41 -2.71703 3.27196 0
M  V30 5464 N 524.725 -1.39134 -0.740242 0
M  V30 5465 C 525.657 -1.33332 -1.86428 0
M  V30 5466 C 526.67 -0.243042 -1.60976 0
M  V30 5467 O 527.859 -0.501608 -1.71307 0
M  V30 5468 C 524.959 -1.04626 -3.22346 0
M  V30 5469 C 524.132 -2.24826 -3.75196 0
M  V30 5470 C 523.191 -1.92659 -4.89662 0
M  V30 5471 O 522.217 -2.6529 -5.03597 0
M  V30 5472 N 523.419 -0.889575 -5.73643 0
M  V30 5473 H 526.184 -2.30196 -1.91911 0
M  V30 5474 H 523.745 -1.33168 -0.920756 0
M  V30 5475 H 525.737 -0.811347 -3.96484 0
M  V30 5476 H 524.307 -0.165129 -3.12164 0
M  V30 5477 H 523.527 -2.64301 -2.9247 0
M  V30 5478 H 524.815 -3.05015 -4.07239 0
M  V30 5479 H 524.213 -0.287529 -5.64969 0
M  V30 5480 H 522.77 -0.714557 -6.47871 0
M  V30 5481 N 526.204 0.969867 -1.24223 0
M  V30 5482 C 527.151 2.06407 -1.0327 0
M  V30 5483 C 528.121 1.66014 0.0533 0
M  V30 5484 O 529.306 1.90533 -0.100896 0
M  V30 5485 C 526.446 3.3909 -0.641262 0
M  V30 5486 C 525.559 3.9269 -1.80051 0
M  V30 5487 C 524.694 5.13631 -1.35486 0
M  V30 5488 C 523.733 5.59423 -2.48419 0
M  V30 5489 N 522.87 6.71586 -2.04737 0
M  V30 5490 H 527.71 2.23663 -1.96923 0
M  V30 5491 H 525.247 1.09624 -0.980862 0
M  V30 5492 H 527.205 4.15323 -0.395351 0
M  V30 5493 H 525.835 3.21765 0.258269 0
M  V30 5494 H 524.887 3.13116 -2.16014 0
M  V30 5495 H 526.199 4.22636 -2.64916 0
M  V30 5496 H 525.353 5.97231 -1.0677 0
M  V30 5497 H 524.092 4.85364 -0.476722 0
M  V30 5498 H 523.097 4.74398 -2.77897 0
M  V30 5499 H 524.322 5.89705 -3.36786 0
M  V30 5500 H 522.268 6.45058 -1.19318 0
M  V30 5501 H 522.185 7.0097 -2.83156 0
M  V30 5502 H 523.453 7.58633 -1.79154 0
M  V30 5503 N 527.682 1.05563 1.17022 0
M  V30 5504 C 528.91 0.78845 1.91288 0
M  V30 5505 C 529.325 -0.656318 1.77025 0
M  V30 5506 O 528.682 -1.44869 1.10992 0
M  V30 5507 C 528.733 1.16444 3.42232 0
M  V30 5508 O 528.454 2.5525 3.5606 0
M  V30 5509 C 529.955 0.923937 4.33565 0
M  V30 5510 H 527.175 0.286389 0.606813 0
M  V30 5511 H 529.719 1.4073 1.48375 0
M  V30 5512 H 527.874 0.590266 3.82877 0
M  V30 5513 H 528.288 2.70097 4.49609 0
M  V30 5514 H 529.762 1.23672 5.37968 0
M  V30 5515 H 530.239 -0.140688 4.38975 0
M  V30 5516 H 530.845 1.48214 3.98639 0
M  V30 5517 N 529.16 -1.33526 0.837174 0
M  V30 5518 C 530.408 -1.97446 0.431211 0
M  V30 5519 C 530.729 -1.6665 -1.01255 0
M  V30 5520 O 529.999 -0.964559 -1.70508 0
M  V30 5521 H 528.579 -0.73043 0.156463 0
M  V30 5522 H 531.241 -1.62918 1.06976 0
M  V30 5523 H 530.337 -3.07001 0.561877 0
M  V30 5524 N 530.638 -0.59345 -1.46 0
M  V30 5525 C 531.887 -0.0808084 -2.01538 0
M  V30 5526 C 532.2 1.29112 -1.46934 0
M  V30 5527 O 533.406 1.8957 -1.94359 0
M  V30 5528 C 531.862 -0.0938311 -3.59778 0
M  V30 5529 C 531.47 -1.46474 -4.23379 0
M  V30 5530 C 533.214 0.364306 -4.22934 0
M  V30 5531 C 531.121 -1.4349 -5.73729 0
M  V30 5532 H 530.051 -0.0264407 -0.753536 0
M  V30 5533 H 532.702 -0.746689 -1.67621 0
M  V30 5534 H 531.084 0.638427 -3.9082 0
M  V30 5535 H 532.258 -2.21758 -4.03931 0
M  V30 5536 H 530.573 -1.86379 -3.7236 0
M  V30 5537 H 533.17 0.405584 -5.3316 0
M  V30 5538 H 533.513 1.38409 -3.92618 0
M  V30 5539 H 534.046 -0.31423 -3.96557 0
M  V30 5540 H 530.785 -2.43184 -6.08722 0
M  V30 5541 H 530.305 -0.724431 -5.95409 0
M  V30 5542 H 531.984 -1.15243 -6.36654 0
M  V30 5543 N 532.116 1.54067 -0.331816 0
M  V30 5544 C 533.362 2.01012 0.268667 0
M  V30 5545 C 533.695 1.2195 1.51136 0
M  V30 5546 O 532.97 0.303972 1.9211 0
M  V30 5547 C 533.253 3.55158 0.59456 0
M  V30 5548 C 533.106 4.4494 -0.659409 0
M  V30 5549 C 534.425 4.16939 1.4089 0
M  V30 5550 H 531.544 0.730698 0.0961756 0
M  V30 5551 H 534.186 1.84593 -0.450031 0
M  V30 5552 H 532.336 3.6928 1.20685 0
M  V30 5553 H 534.008 4.42675 -1.29756 0
M  V30 5554 H 532.251 4.1428 -1.28665 0
M  V30 5555 H 532.922 5.50643 -0.386804 0
M  V30 5556 H 535.398 4.06443 0.891272 0
M  V30 5557 H 534.274 5.24889 1.60569 0
M  V30 5558 H 534.535 3.70798 2.40752 0
M  V30 5559 N 533.594 0.0601682 1.57485 0
M  V30 5560 C 534.819 -0.624416 1.97777 0
M  V30 5561 C 535.244 -1.63051 0.937867 0
M  V30 5562 O 534.602 -1.81036 -0.0978845 0
M  V30 5563 C 534.65 -1.27979 3.37126 0
M  V30 5564 O 533.754 -2.39556 3.35688 0
M  V30 5565 H 533.095 -0.161581 0.64404 0
M  V30 5566 H 535.625 0.131237 2.04179 0
M  V30 5567 H 535.635 -1.62937 3.74053 0
M  V30 5568 H 534.31 -0.542501 4.12347 0
M  V30 5569 H 532.887 -2.06478 3.10517 0
M  V30 5570 N 535.072 -1.5615 -0.213296 0
M  V30 5571 C 536.32 -1.79191 -0.934612 0
M  V30 5572 C 536.641 -0.630112 -1.84539 0
M  V30 5573 O 535.911 0.35257 -1.92701 0
M  V30 5574 H 534.491 -0.660937 -0.348097 0
M  V30 5575 H 537.153 -1.93618 -0.22317 0
M  V30 5576 H 536.249 -2.71656 -1.53654 0
M  V30 5577 N 536.55 0.480323 -1.50102 0
M  V30 5578 C 537.797 1.23307 -1.60629 0
M  V30 5579 C 538.125 1.92135 -0.302375 0
M  V30 5580 O 537.38 1.82321 0.711154 0
M  V30 5581 C 537.679 2.30708 -2.72963 0
M  V30 5582 C 537.345 1.79195 -4.13763 0
M  V30 5583 C 536.007 1.64867 -4.52076 0
M  V30 5584 C 538.359 1.40878 -5.018 0
M  V30 5585 C 535.687 1.10631 -5.76175 0
M  V30 5586 C 538.039 0.880872 -6.26437 0
M  V30 5587 C 536.703 0.724146 -6.6356 0
M  V30 5588 H 535.973 0.451211 -0.587784 0
M  V30 5589 H 538.62 0.53051 -1.84005 0
M  V30 5590 H 536.925 3.06834 -2.43639 0
M  V30 5591 H 538.622 2.88692 -2.78313 0
M  V30 5592 H 535.212 1.91313 -3.83533 0
M  V30 5593 H 539.396 1.50786 -4.7284 0
M  V30 5594 H 534.652 0.972263 -6.0362 0
M  V30 5595 H 538.826 0.575269 -6.9402 0
M  V30 5596 H 536.453 0.301722 -7.59601 0
M  V30 5597 N 538.028 1.39524 0.732853 0
M  V30 5598 C 539.276 1.36594 1.48951 0
M  V30 5599 C 539.597 -0.0367507 1.94965 0
M  V30 5600 O 538.867 -0.988391 1.69138 0
M  V30 5601 H 537.447 0.502673 0.552566 0
M  V30 5602 H 540.109 1.74411 0.869869 0
M  V30 5603 H 539.205 2.03 2.3706 0
M  V30 5604 N 539.506 -0.963266 1.24736 0
M  V30 5605 C 540.922 -1.23273 1.01371 0
M  V30 5606 C 541.122 -1.99618 -0.274776 0
M  V30 5607 O 540.178 -2.32293 -0.989769 0
M  V30 5608 C 541.491 -2.01554 2.23152 0
M  V30 5609 C 543.039 -2.14629 2.27823 0
M  V30 5610 C 543.514 -2.96307 3.49237 0
M  V30 5611 N 545.005 -3.03887 3.49581 0
M  V30 5612 C 545.74 -3.67456 4.40186 0
M  V30 5613 N 545.236 -4.32706 5.41052 0
M  V30 5614 N 547.029 -3.64511 4.27888 0
M  V30 5615 H 539.18 -0.452294 2.07528 0
M  V30 5616 H 541.443 -0.262521 0.910926 0
M  V30 5617 H 541.149 -1.52847 3.1675 0
M  V30 5618 H 541.023 -3.02278 2.25628 0
M  V30 5619 H 543.41 -2.62537 1.34753 0
M  V30 5620 H 543.491 -1.13238 2.2937 0
M  V30 5621 H 543.135 -2.49091 4.42624 0
M  V30 5622 H 543.065 -3.97905 3.44933 0
M  V30 5623 H 545.556 -2.57477 2.76611 0
M  V30 5624 H 545.869 -4.79042 6.06415 0
M  V30 5625 H 544.214 -4.31361 5.44934 0
M  V30 5626 H 547.405 -3.12715 3.4832 0
M  V30 5627 H 547.578 -4.13768 4.98698 0
M  V30 5628 N 540.985 -1.06182 -1.16461 0
M  V30 5629 C 542.213 -0.798583 -1.90867 0
M  V30 5630 C 542.628 0.646921 -1.77371 0
M  V30 5631 O 541.985 1.44279 -1.11758 0
M  V30 5632 C 542.036 -1.18258 -3.4161 0
M  V30 5633 O 541.757 -2.57135 -3.54701 0
M  V30 5634 C 543.258 -0.946917 -4.33069 0
M  V30 5635 H 540.478 -0.289603 -0.605286 0
M  V30 5636 H 543.022 -1.41515 -1.47627 0
M  V30 5637 H 541.177 -0.610562 -3.82558 0
M  V30 5638 H 541.591 -2.72477 -4.4817 0
M  V30 5639 H 543.065 -1.26523 -5.37304 0
M  V30 5640 H 543.542 0.117406 -4.39043 0
M  V30 5641 H 544.148 -1.50326 -3.97847 0
M  V30 5642 N 542.463 1.3308 -0.844243 0
M  V30 5643 C 543.413 2.26589 -0.253289 0
M  V30 5644 C 544.397 1.49501 0.594836 0
M  V30 5645 O 545.589 1.71291 0.445924 0
M  V30 5646 C 542.718 3.38599 0.566176 0
M  V30 5647 C 541.804 4.23081 -0.293756 0
M  V30 5648 N 542.195 4.86751 -1.37505 0
M  V30 5649 C 540.493 4.45925 -0.0817086 0
M  V30 5650 C 541.194 5.49684 -1.90323 0
M  V30 5651 N 540.17 5.30101 -1.20391 0
M  V30 5652 H 543.972 2.73334 -1.08009 0
M  V30 5653 H 541.486 1.47048 -0.689258 0
M  V30 5654 H 543.483 4.04584 1.00587 0
M  V30 5655 H 542.143 2.93401 1.39089 0
M  V30 5656 H 543.154 4.87151 -1.75796 0
M  V30 5657 H 539.831 4.11434 0.709129 0
M  V30 5658 H 541.221 6.10363 -2.80902 0
M  V30 5659 N 543.941 0.601185 1.45683 0
M  V30 5660 C 544.851 -0.123395 2.34275 0
M  V30 5661 C 545.867 -0.86702 1.5086 0
M  V30 5662 O 547.043 -0.826049 1.8368 0
M  V30 5663 C 544.108 -1.11237 3.2837 0
M  V30 5664 C 543.169 -0.371405 4.2769 0
M  V30 5665 C 542.402 -1.31327 5.1729 0
M  V30 5666 O 542.625 -2.55078 5.10188 0
M  V30 5667 O 541.559 -0.813811 5.96373 0
M  V30 5668 H 545.385 0.604483 2.97623 0
M  V30 5669 H 542.97 0.361477 1.44961 0
M  V30 5670 H 544.852 -1.68214 3.8637 0
M  V30 5671 H 543.527 -1.82139 2.67595 0
M  V30 5672 H 542.434 0.24067 3.73325 0
M  V30 5673 H 543.767 0.296998 4.91303 0
M  V30 5674 N 545.419 -1.53889 0.339982 0
M  V30 5675 C 546.366 -2.24902 -0.518452 0
M  V30 5676 C 547.336 -1.24593 -1.09844 0
M  V30 5677 O 548.521 -1.53317 -1.13572 0
M  V30 5678 C 545.661 -3.02262 -1.66529 0
M  V30 5679 C 544.774 -4.17418 -1.11295 0
M  V30 5680 C 543.909 -4.82273 -2.2268 0
M  V30 5681 C 542.948 -5.89503 -1.6478 0
M  V30 5682 N 542.085 -6.48153 -2.69893 0
M  V30 5683 H 546.925 -2.97853 0.0936579 0
M  V30 5684 H 544.462 -1.46986 0.0579924 0
M  V30 5685 H 546.42 -3.45371 -2.3404 0
M  V30 5686 H 545.05 -2.31614 -2.24844 0
M  V30 5687 H 544.102 -3.78976 -0.328886 0
M  V30 5688 H 545.414 -4.94554 -0.649414 0
M  V30 5689 H 544.568 -5.28435 -2.98063 0
M  V30 5690 H 543.307 -4.04552 -2.72376 0
M  V30 5691 H 542.312 -5.42728 -0.879004 0
M  V30 5692 H 543.537 -6.6913 -1.1594 0
M  V30 5693 H 541.483 -5.73298 -3.1885 0
M  V30 5694 H 541.4 -7.20752 -2.28151 0
M  V30 5695 H 542.668 -6.98968 -3.45056 0
M  V30 5696 N 546.897 -0.0685191 -1.57451 0
M  V30 5697 C 548.145 0.60016 -1.92983 0
M  V30 5698 C 548.466 1.70348 -0.949028 0
M  V30 5699 O 547.736 1.959 0.00335647 0
M  V30 5700 H 546.316 0.224682 -0.712409 0
M  V30 5701 H 548.978 -0.125605 -1.94495 0
M  V30 5702 H 548.074 1.02759 -2.94698 0
M  V30 5703 N 548.375 1.56261 0.205012 0
M  V30 5704 C 549.791 1.49623 0.555433 0
M  V30 5705 C 549.991 0.766719 1.86343 0
M  V30 5706 O 549.047 0.313158 2.50551 0
M  V30 5707 C 550.36 2.94253 0.619347 0
M  V30 5708 C 551.908 3.04868 0.708855 0
M  V30 5709 C 552.383 4.50888 0.803969 0
M  V30 5710 N 553.874 4.54999 0.867758 0
M  V30 5711 C 554.609 5.65284 0.96135 0
M  V30 5712 N 554.105 6.85282 1.01786 0
M  V30 5713 N 555.898 5.53174 0.997771 0
M  V30 5714 H 548.049 2.0211 -0.653094 0
M  V30 5715 H 550.312 0.919333 -0.231366 0
M  V30 5716 H 550.018 3.50643 -0.272458 0
M  V30 5717 H 549.892 3.47063 1.47741 0
M  V30 5718 H 552.279 2.48532 1.5911 0
M  V30 5719 H 552.36 2.55199 -0.175205 0
M  V30 5720 H 552.004 5.07846 -0.0738798 0
M  V30 5721 H 551.934 4.98279 1.70369 0
M  V30 5722 H 554.425 3.68588 0.833735 0
M  V30 5723 H 554.738 7.65081 1.08951 0
M  V30 5724 H 553.083 6.8796 0.986706 0
M  V30 5725 H 556.274 4.5835 0.950392 0
M  V30 5726 H 556.447 6.39151 1.06725 0
M  V30 5727 N 549.853 -0.472356 1.50355 0
M  V30 5728 C 550.785 -1.58795 1.65278 0
M  V30 5729 C 551.798 -1.53782 0.534313 0
M  V30 5730 O 552.987 -1.59193 0.807446 0
M  V30 5731 C 550.087 -2.97672 1.62001 0
M  V30 5732 C 549.26 -3.27568 2.89859 0
M  V30 5733 C 548.319 -4.45993 2.79242 0
M  V30 5734 O 547.345 -4.46364 3.53197 0
M  V30 5735 N 548.547 -5.47578 1.92713 0
M  V30 5736 H 551.312 -1.46411 2.61503 0
M  V30 5737 H 548.873 -0.660751 1.47803 0
M  V30 5738 H 550.865 -3.74862 1.52513 0
M  V30 5739 H 549.435 -3.03832 0.735159 0
M  V30 5740 H 548.655 -2.39003 3.13483 0
M  V30 5741 H 549.943 -3.44352 3.74565 0
M  V30 5742 H 549.341 -5.50099 1.31939 0
M  V30 5743 H 547.898 -6.23757 1.8913 0
M  V30 5744 N 551.331 -1.39911 -0.725443 0
M  V30 5745 C 552.556 -1.41137 -1.5197 0
M  V30 5746 C 552.981 -0.010262 -1.88097 0
M  V30 5747 O 552.339 0.979184 -1.52583 0
M  V30 5748 C 552.387 -2.2994 -2.77777 0
M  V30 5749 O 551.491 -1.73586 -3.74088 0
M  V30 5750 H 550.832 -0.480219 -0.458569 0
M  V30 5751 H 553.362 -1.84023 -0.894249 0
M  V30 5752 H 553.372 -2.44785 -3.26411 0
M  V30 5753 H 552.047 -3.31759 -2.50816 0
M  V30 5754 H 550.624 -1.68035 -3.32894 0
M  V30 5755 N 552.809 0.956637 -1.25245 0
M  V30 5756 C 554.037 1.73571 -1.12608 0
M  V30 5757 C 554.452 1.86063 0.320324 0
M  V30 5758 O 553.809 1.35691 1.22042 0
M  V30 5759 C 553.86 3.15053 -1.77268 0
M  V30 5760 O 553.581 3.03174 -3.16255 0
M  V30 5761 C 555.082 4.09248 -1.70386 0
M  V30 5762 H 552.302 0.543955 -0.392879 0
M  V30 5763 H 554.846 1.20031 -1.65568 0
M  V30 5764 H 553.001 3.65543 -1.28284 0
M  V30 5765 H 553.415 3.9241 -3.48015 0
M  V30 5766 H 554.889 5.06138 -2.20291 0
M  V30 5767 H 555.366 4.34102 -0.667239 0
M  V30 5768 H 555.972 3.64672 -2.18849 0
M  V30 5769 N 554.287 1.06798 1.15896 0
M  V30 5770 C 555.703 0.792423 1.38538 0
M  V30 5771 C 555.903 -0.60592 1.92174 0
M  V30 5772 O 554.959 -1.36561 2.12385 0
M  V30 5773 C 556.272 1.86157 2.36149 0
M  V30 5774 C 557.82 1.88567 2.49823 0
M  V30 5775 C 558.295 2.9455 3.5072 0
M  V30 5776 N 559.786 2.93616 3.58251 0
M  V30 5777 C 560.521 3.72267 4.36125 0
M  V30 5778 N 560.017 4.60751 5.17379 0
M  V30 5779 N 561.81 3.60637 4.31158 0
M  V30 5780 H 553.961 1.96993 0.794198 0
M  V30 5781 H 556.224 0.853942 0.411688 0
M  V30 5782 H 555.93 2.86603 2.03843 0
M  V30 5783 H 555.804 1.71692 3.3586 0
M  V30 5784 H 558.191 0.887765 2.8143 0
M  V30 5785 H 558.272 2.0711 1.5013 0
M  V30 5786 H 557.916 3.94537 3.19849 0
M  V30 5787 H 557.846 2.73255 4.50155 0
M  V30 5788 H 560.337 2.29472 3.00252 0
M  V30 5789 H 560.65 5.17408 5.74028 0
M  V30 5790 H 558.995 4.64803 5.16704 0
M  V30 5791 H 562.186 2.90892 3.66742 0
M  V30 5792 H 562.359 4.22176 4.91601 0
M  V30 5793 N 555.766 -1.3263 0.851289 0
M  V30 5794 C 556.696 -2.31449 0.308771 0
M  V30 5795 C 557.677 -1.59531 -0.590255 0
M  V30 5796 O 558.862 -1.87351 -0.511205 0
M  V30 5797 C 555.992 -3.43586 -0.506548 0
M  V30 5798 C 554.946 -4.26963 0.297753 0
M  V30 5799 C 554.272 -5.30831 -0.642094 0
M  V30 5800 C 555.572 -4.99643 1.52166 0
M  V30 5801 H 557.266 -2.77074 1.13447 0
M  V30 5802 H 554.812 -1.33207 0.546971 0
M  V30 5803 H 556.765 -4.11754 -0.896474 0
M  V30 5804 H 555.489 -2.96681 -1.36558 0
M  V30 5805 H 554.148 -3.60437 0.669391 0
M  V30 5806 H 553.796 -4.8018 -1.49788 0
M  V30 5807 H 553.496 -5.87501 -0.107968 0
M  V30 5808 H 555.02 -6.01862 -1.02927 0
M  V30 5809 H 556.434 -5.6051 1.20421 0
M  V30 5810 H 554.831 -5.66022 1.99347 0
M  V30 5811 H 555.901 -4.27701 2.28474 0
M  V30 5812 N 557.244 -0.608902 -1.45362 0
M  V30 5813 C 558.191 0.109172 -2.30542 0
M  V30 5814 C 559.161 0.858704 -1.42181 0
M  V30 5815 O 560.346 0.844178 -1.71109 0
M  V30 5816 C 557.486 1.09971 -3.27109 0
M  V30 5817 C 556.599 0.350911 -4.30572 0
M  V30 5818 C 555.734 1.33129 -5.14247 0
M  V30 5819 C 554.773 0.570377 -6.09437 0
M  V30 5820 N 553.91 1.5001 -6.85887 0
M  V30 5821 H 558.75 -0.623195 -2.91411 0
M  V30 5822 H 556.287 -0.319122 -1.43597 0
M  V30 5823 H 558.245 1.68714 -3.81564 0
M  V30 5824 H 556.875 1.79947 -2.67991 0
M  V30 5825 H 555.927 -0.352054 -3.78767 0
M  V30 5826 H 557.239 -0.242725 -4.98209 0
M  V30 5827 H 556.393 1.99074 -5.73109 0
M  V30 5828 H 555.132 1.95885 -4.46632 0
M  V30 5829 H 554.137 -0.102702 -5.49704 0
M  V30 5830 H 555.362 -0.0521607 -6.7908 0
M  V30 5831 H 553.308 2.11529 -6.2096 0
M  V30 5832 H 553.225 0.959934 -7.49881 0
M  V30 5833 H 554.493 2.14909 -7.49289 0
M  V30 5834 N 558.722 1.53707 -0.348139 0
M  V30 5835 C 559.655 2.21481 0.549667 0
M  V30 5836 C 560.633 1.20046 1.09671 0
M  V30 5837 O 561.817 1.48883 1.15612 0
M  V30 5838 C 558.944 2.89585 1.75664 0
M  V30 5839 C 557.99 4.04948 1.33864 0
M  V30 5840 S 558.823 5.34325 0.354577 0
M  V30 5841 C 559.979 6.05934 1.56828 0
M  V30 5842 H 560.212 2.97289 -0.0259755 0
M  V30 5843 H 557.745 1.53833 -0.132216 0
M  V30 5844 H 559.703 3.29441 2.44906 0
M  V30 5845 H 558.364 2.13535 2.30351 0
M  V30 5846 H 557.557 4.51552 2.23868 0
M  V30 5847 H 557.159 3.66893 0.725651 0
M  V30 5848 H 559.451 6.29606 2.50205 0
M  V30 5849 H 560.394 6.98799 1.14395 0
M  V30 5850 H 560.802 5.36151 1.76642 0
M  V30 5851 N 560.2 0.0768682 1.57412 0
M  V30 5852 C 561.13 -0.886026 2.16037 0
M  V30 5853 C 562.111 -1.30691 1.08876 0
M  V30 5854 O 563.296 -1.37705 1.36934 0
M  V30 5855 C 560.426 -2.1518 2.72608 0
M  V30 5856 C 559.38 -1.87015 3.8498 0
M  V30 5857 C 558.706 -3.20266 4.28175 0
M  V30 5858 C 560.006 -1.17143 5.08994 0
M  V30 5859 H 561.7 -0.397642 2.96748 0
M  V30 5860 H 559.246 -0.189823 1.42743 0
M  V30 5861 H 561.199 -2.82962 3.12266 0
M  V30 5862 H 559.923 -2.66269 1.89125 0
M  V30 5863 H 558.582 -1.21636 3.45833 0
M  V30 5864 H 558.23 -3.69207 3.41607 0
M  V30 5865 H 557.93 -3.0221 5.03927 0
M  V30 5866 H 559.454 -3.89237 4.70454 0
M  V30 5867 H 560.868 -1.75003 5.45937 0
M  V30 5868 H 559.265 -1.09328 5.90057 0
M  V30 5869 H 560.335 -0.151295 4.84664 0
M  V30 5870 N 561.678 -1.56367 -0.196722 0
M  V30 5871 C 562.588 -1.97617 -1.2643 0
M  V30 5872 C 563.604 -0.883598 -1.49895 0
M  V30 5873 O 564.78 -1.18921 -1.62541 0
M  V30 5874 C 561.845 -2.30595 -2.58895 0
M  V30 5875 C 560.906 -3.53551 -2.43516 0
M  V30 5876 C 560.139 -3.84946 -3.69665 0
M  V30 5877 O 560.362 -3.17655 -4.73763 0
M  V30 5878 O 559.296 -4.78379 -3.65291 0
M  V30 5879 H 563.122 -2.88648 -0.944233 0
M  V30 5880 H 560.707 -1.43901 -0.401592 0
M  V30 5881 H 562.589 -2.52889 -3.37083 0
M  V30 5882 H 561.264 -1.42732 -2.90533 0
M  V30 5883 H 560.171 -3.36507 -1.63445 0
M  V30 5884 H 561.504 -4.41875 -2.16812 0
M  V30 5885 N 563.156 0.464375 -1.50603 0
M  V30 5886 C 564.402 1.21776 -1.62168 0
M  V30 5887 C 564.735 1.91476 -0.324154 0
M  V30 5888 O 564.01 1.8242 0.674782 0
M  V30 5889 C 564.293 2.25614 -2.80661 0
M  V30 5890 C 564.146 1.60175 -4.20314 0
M  V30 5891 C 565.465 3.26862 -2.94702 0
M  V30 5892 H 562.584 0.44137 -0.590222 0
M  V30 5893 H 565.226 0.510623 -1.8301 0
M  V30 5894 H 563.376 2.85923 -2.63021 0
M  V30 5895 H 565.048 1.03411 -4.4956 0
M  V30 5896 H 563.291 0.904697 -4.24261 0
M  V30 5897 H 563.962 2.35665 -4.99165 0
M  V30 5898 H 566.438 2.76582 -3.10872 0
M  V30 5899 H 565.314 3.96839 -3.79223 0
M  V30 5900 H 565.575 3.91382 -2.05603 0
M  V30 5901 N 564.634 1.40294 0.718013 0
M  V30 5902 C 566.045 1.34289 1.29705 0
M  V30 5903 C 566.396 0.0152228 1.96194 0
M  V30 5904 O 565.521 -0.88682 1.97394 0
M  V30 5905 C 566.116 2.43219 2.3586 0
M  V30 5906 C 564.675 2.40682 2.89394 0
M  V30 5907 C 563.822 2.24223 1.63154 0
M  V30 5908 H 566.773 1.50135 0.514312 0
M  V30 5909 H 566.794 2.10986 3.16647 0
M  V30 5910 H 566.306 3.39836 1.87439 0
M  V30 5911 H 564.407 1.47756 3.42051 0
M  V30 5912 H 564.52 3.36177 3.41353 0
M  V30 5913 H 562.884 1.71696 1.88129 0
M  V30 5914 H 563.667 3.22834 1.16761 0
M  V30 5915 N 566.112 -0.949982 1.2575 0
M  V30 5916 C 567.342 -1.72721 1.13363 0
M  V30 5917 C 567.75 -1.86562 -0.314842 0
M  V30 5918 O 567.093 -1.36621 -1.22803 0
M  V30 5919 C 567.155 -3.15695 1.7198 0
M  V30 5920 C 566.819 -3.25268 3.21014 0
M  V30 5921 C 567.816 -3.09222 4.17945 0
M  V30 5922 C 565.501 -3.4894 3.61312 0
M  V30 5923 C 567.495 -3.16701 5.53154 0
M  V30 5924 C 565.182 -3.56055 4.96657 0
M  V30 5925 C 566.18 -3.3995 5.92387 0
M  V30 5926 O 565.868 -3.46757 7.25269 0
M  V30 5927 H 565.6 -0.547888 0.395973 0
M  V30 5928 H 568.154 -1.20009 1.66694 0
M  V30 5929 H 566.384 -3.69791 1.13101 0
M  V30 5930 H 568.073 -3.75295 1.54624 0
M  V30 5931 H 568.839 -2.90798 3.88151 0
M  V30 5932 H 564.718 -3.60534 2.87291 0
M  V30 5933 H 568.262 -3.04048 6.27854 0
M  V30 5934 H 564.159 -3.73997 5.26115 0
M  V30 5935 H 564.927 -3.63358 7.33426 0
M  V30 5936 N 567.59 -1.07411 -1.15328 0
M  V30 5937 C 568.836 -0.798831 -1.86404 0
M  V30 5938 C 569.169 0.673433 -1.8215 0
M  V30 5939 O 568.444 1.49428 -1.24505 0
M  V30 5940 C 568.727 -1.30846 -3.35487 0
M  V30 5941 C 568.58 -2.84532 -3.4837 0
M  V30 5942 C 569.899 -0.925486 -4.30259 0
M  V30 5943 H 567.018 -0.291659 -0.676834 0
M  V30 5944 H 569.66 -1.332 -1.35491 0
M  V30 5945 H 567.81 -0.854916 -3.78977 0
M  V30 5946 H 569.482 -3.3818 -3.13739 0
M  V30 5947 H 567.725 -3.22699 -2.8991 0
M  V30 5948 H 568.396 -3.15259 -4.53118 0
M  V30 5949 H 570.872 -1.3163 -3.94731 0
M  V30 5950 H 569.748 -1.3094 -5.33053 0
M  V30 5951 H 570.009 0.168525 -4.41779 0
M  V30 5952 N 569.068 1.32177 -0.85831 0
M  V30 5953 C 570.345 1.91781 -0.384624 0
M  V30 5954 C 570.725 1.78171 1.13217 0
M  V30 5955 O 570.073 1.18209 1.95548 0
M  V30 5956 C 570.283 3.38414 -0.853047 0
M  V30 5957 C 571.631 4.15542 -0.872359 0
M  V30 5958 O 572.655 3.47148 -0.797926 0
M  V30 5959 O 571.514 5.37678 -0.978009 0
M  V30 5960 H 568.608 0.819259 -0.112886 0
M  V30 5961 H 571.154 1.40923 -0.945453 0
M  V30 5962 H 569.926 3.4228 -1.89632 0
M  V30 5963 H 569.549 3.96683 -0.269874 0
M  V30 5964 N 570.547 0.616602 1.45037 0
M  V30 5965 C 571.963 0.280994 1.57107 0
M  V30 5966 C 572.163 -1.21627 1.60653 0
M  V30 5967 O 571.219 -1.9997 1.54169 0
M  V30 5968 C 572.532 0.960116 2.8496 0
M  V30 5969 C 574.08 0.936884 2.98649 0
M  V30 5970 C 574.555 1.59619 4.29285 0
M  V30 5971 N 576.046 1.5621 4.36065 0
M  V30 5972 C 576.781 2.04131 5.35834 0
M  V30 5973 N 576.277 2.60177 6.4209 0
M  V30 5974 N 578.07 1.94845 5.27249 0
M  V30 5975 H 570.221 1.58867 1.40979 0
M  V30 5976 H 572.484 0.666024 0.674623 0
M  V30 5977 H 572.19 2.01473 2.88273 0
M  V30 5978 H 572.064 0.488921 3.74018 0
M  V30 5979 H 574.451 -0.109209 2.94898 0
M  V30 5980 H 574.532 1.44643 2.10979 0
M  V30 5981 H 574.176 2.64166 4.33796 0
M  V30 5982 H 574.106 1.06159 5.15789 0
M  V30 5983 H 576.597 1.15276 3.59889 0
M  V30 5984 H 576.91 2.94513 7.1448 0
M  V30 5985 H 575.255 2.64221 6.42816 0
M  V30 5986 H 578.446 1.50792 4.43147 0
M  V30 5987 H 578.619 2.32504 6.04852 0
M  V30 5988 N 572.025 -1.5352 0.356285 0
M  V30 5989 C 572.973 -2.26945 -0.50978 0
M  V30 5990 C 573.967 -1.29569 -1.09125 0
M  V30 5991 O 575.173 -1.47231 -1.03552 0
M  V30 5992 H 571.548 -0.729368 -0.183102 0
M  V30 5993 H 573.519 -2.98111 0.131374 0
M  V30 5994 C 572.268 -3.06466 -1.64237 0
M  V30 5995 H 571.591 -3.81233 -1.20423 0
M  V30 5996 H 573.031 -3.61035 -2.22327 0
M  V30 5997 C 571.49 -2.16737 -2.57928 0
M  V30 5998 O 572.02 -1.77195 -3.60507 0
M  V30 5999 N 570.226 -1.81558 -2.26903 0
M  V30 6000 H 569.773 -2.13913 -1.43524 0
M  V30 6001 H 569.731 -1.21806 -2.89846 0
M  V30 6002 N 573.503 -0.0852151 -1.57369 0
M  V30 6003 C 574.728 0.592872 -1.98746 0
M  V30 6004 C 575.153 1.61538 -0.963689 0
M  V30 6005 O 574.511 1.81168 0.069071 0
M  V30 6006 C 574.559 1.22599 -3.39119 0
M  V30 6007 O 573.663 2.34185 -3.39457 0
M  V30 6008 H 573.004 0.151314 -0.646529 0
M  V30 6009 H 575.534 -0.163703 -2.03944 0
M  V30 6010 H 575.544 1.56965 -3.76598 0
M  V30 6011 H 574.219 0.476831 -4.13158 0
M  V30 6012 H 572.796 2.01512 -3.13763 0
M  V30 6013 N 574.981 1.5647 0.188427 0
M  V30 6014 C 576.221 1.82803 0.914469 0
M  V30 6015 C 576.585 0.663681 1.80165 0
M  V30 6016 O 577.786 0.807059 2.56398 0
M  V30 6017 C 576.057 3.14187 1.70357 0
M  V30 6018 S 577.616 3.61947 2.48072 0
M  V30 6019 H 574.434 0.641497 0.306599 0
M  V30 6020 H 577.036 1.94694 0.177361 0
M  V30 6021 H 575.74 3.96937 1.04255 0
M  V30 6022 H 575.271 3.05192 2.48237 0
M  V30 6023 H 577.286 3.27913 3.72407 0
M  V30 6024 N 576.459 -0.456382 1.50847 0
M  V30 6025 C 577.406 -1.55249 1.70782 0
M  V30 6026 C 578.376 -1.56757 0.549231 0
M  V30 6027 O 579.561 -1.74061 0.7815 0
M  V30 6028 C 576.701 -2.93118 1.82143 0
M  V30 6029 C 575.814 -3.01285 3.09598 0
M  V30 6030 C 574.949 -4.30159 3.11667 0
M  V30 6031 C 573.988 -4.32124 4.33515 0
M  V30 6032 N 573.125 -5.52492 4.3324 0
M  V30 6033 H 577.965 -1.37555 2.64353 0
M  V30 6034 H 575.502 -0.668543 1.3103 0
M  V30 6035 H 577.46 -3.73088 1.86711 0
M  V30 6036 H 576.09 -3.09413 0.919978 0
M  V30 6037 H 575.142 -2.14096 3.14431 0
M  V30 6038 H 576.454 -2.98597 3.99551 0
M  V30 6039 H 575.608 -5.18489 3.15046 0
M  V30 6040 H 574.347 -4.35477 2.1957 0
M  V30 6041 H 573.352 -3.42189 4.30333 0
M  V30 6042 H 574.577 -4.28485 5.26856 0
M  V30 6043 H 572.523 -5.58567 3.44004 0
M  V30 6044 H 572.44 -5.51605 5.16979 0
M  V30 6045 H 573.708 -6.42906 4.40786 0
M  V30 6046 N 577.937 -1.40673 -0.710563 0
M  V30 6047 C 578.867 -1.44095 -1.83736 0
M  V30 6048 C 579.848 -0.301286 -1.67411 0
M  V30 6049 O 581.033 -0.510618 -1.87367 0
M  V30 6050 C 578.163 -1.30773 -3.21738 0
M  V30 6051 C 577.117 -2.42395 -3.52745 0
M  V30 6052 C 576.443 -2.14147 -4.89944 0
M  V30 6053 C 577.743 -3.84738 -3.53234 0
M  V30 6054 H 579.437 -2.38396 -1.81129 0
M  V30 6055 H 576.983 -1.14746 -0.870017 0
M  V30 6056 H 578.936 -1.31783 -4.00264 0
M  V30 6057 H 577.66 -0.329507 -3.24934 0
M  V30 6058 H 576.319 -2.40643 -2.76562 0
M  V30 6059 H 575.967 -1.14703 -4.89747 0
M  V30 6060 H 575.667 -2.88934 -5.11655 0
M  V30 6061 H 577.191 -2.16848 -5.70797 0
M  V30 6062 H 578.605 -3.88286 -4.2179 0
M  V30 6063 H 577.002 -4.59085 -3.86473 0
M  V30 6064 H 578.072 -4.13962 -2.52514 0
M  V30 6065 N 579.415 0.9433 -1.26252 0
M  V30 6066 C 580.64 1.72898 -1.14547 0
M  V30 6067 C 581.065 1.85761 0.295743 0
M  V30 6068 O 580.423 1.3463 1.21427 0
M  V30 6069 C 580.471 3.11471 -1.8171 0
M  V30 6070 O 579.575 3.97336 -1.10445 0
M  V30 6071 H 578.916 0.530555 -0.399259 0
M  V30 6072 H 581.446 1.18159 -1.67032 0
M  V30 6073 H 581.456 3.61872 -1.88449 0
M  V30 6074 H 580.131 3.01425 -2.86558 0
M  V30 6075 H 578.708 3.55788 -1.11666 0
M  V30 6076 N 580.893 1.08022 1.14757 0
M  V30 6077 C 582.118 0.82895 1.90114 0
M  V30 6078 C 582.543 -0.612772 1.77839 0
M  V30 6079 O 581.901 -1.42895 1.11583 0
M  V30 6080 C 581.949 1.25062 3.38219 0
M  V30 6081 O 581.053 0.400119 4.10454 0
M  V30 6082 H 580.394 0.301412 0.591648 0
M  V30 6083 H 582.924 1.44062 1.45284 0
M  V30 6084 H 582.934 1.22977 3.89025 0
M  V30 6085 H 581.609 2.30067 3.46471 0
M  V30 6086 H 580.186 0.484052 3.69745 0
M  V30 6087 N 582.371 -1.3172 0.865308 0
M  V30 6088 C 583.596 -2.01591 0.487415 0
M  V30 6089 C 584.021 -1.6455 -0.911307 0
M  V30 6090 O 583.379 -0.851689 -1.6005 0
M  V30 6091 C 583.427 -3.54759 0.646401 0
M  V30 6092 O 582.531 -4.11185 -0.316284 0
M  V30 6093 H 581.872 -0.634884 0.194468 0
M  V30 6094 H 584.402 -1.68024 1.16744 0
M  V30 6095 H 584.412 -4.04438 0.537932 0
M  V30 6096 H 583.087 -3.8106 1.66632 0
M  V30 6097 H 581.664 -3.72543 -0.163162 0
M  V30 6098 N 583.85 -0.624285 -1.44708 0
M  V30 6099 C 585.096 -0.126051 -2.02107 0
M  V30 6100 C 585.425 1.2496 -1.49048 0
M  V30 6101 O 584.68 1.84163 -0.662005 0
M  V30 6102 C 584.979 -0.0546353 -3.57358 0
M  V30 6103 C 584.644 -1.36815 -4.29642 0
M  V30 6104 C 583.307 -1.72792 -4.49106 0
M  V30 6105 C 585.659 -2.23549 -4.70824 0
M  V30 6106 C 582.986 -2.95222 -5.07012 0
M  V30 6107 C 585.339 -3.45243 -5.30085 0
M  V30 6108 C 584.003 -3.81452 -5.47769 0
M  V30 6109 H 583.273 -0.0461252 -0.739563 0
M  V30 6110 H 585.92 -0.809236 -1.73562 0
M  V30 6111 H 584.225 0.711891 -3.85278 0
M  V30 6112 H 585.922 0.347282 -3.99493 0
M  V30 6113 H 582.512 -1.07817 -4.14817 0
M  V30 6114 H 586.696 -1.9705 -4.55505 0
M  V30 6115 H 581.952 -3.23361 -5.18891 0
M  V30 6116 H 586.125 -4.12689 -5.60946 0
M  V30 6117 H 583.753 -4.76403 -5.92405 0
M  V30 6118 N 585.328 1.53329 -0.364422 0
M  V30 6119 C 586.577 2.00421 0.226747 0
M  V30 6120 C 586.89 1.25581 1.49963 0
M  V30 6121 O 588.096 1.63256 2.16933 0
M  V30 6122 C 586.552 3.57017 0.454618 0
M  V30 6123 C 586.16 4.40734 -0.803568 0
M  V30 6124 C 587.904 4.12468 1.00351 0
M  V30 6125 C 585.811 5.8888 -0.545345 0
M  V30 6126 H 584.741 0.748787 0.0885082 0
M  V30 6127 H 587.392 1.7703 -0.482983 0
M  V30 6128 H 585.774 3.76558 1.22558 0
M  V30 6129 H 586.948 4.32967 -1.57723 0
M  V30 6130 H 585.263 3.96381 -1.27559 0
M  V30 6131 H 587.86 5.20783 1.212 0
M  V30 6132 H 588.203 3.6699 1.9653 0
M  V30 6133 H 588.736 3.96721 0.29274 0
M  V30 6134 H 585.475 6.38633 -1.47743 0
M  V30 6135 H 584.995 5.99499 0.189842 0
M  V30 6136 H 586.674 6.46776 -0.170425 0
M  V30 6137 N 586.806 0.0935595 1.57322 0
M  V30 6138 C 588.055 -0.570191 1.93473 0
M  V30 6139 C 588.368 -1.69434 0.977318 0
M  V30 6140 O 589.574 -2.41914 1.23248 0
M  V30 6141 C 588.03 -1.06564 3.43762 0
M  V30 6142 C 587.638 0.0286723 4.47991 0
M  V30 6143 C 589.382 -1.70221 3.88877 0
M  V30 6144 C 587.289 -0.482046 5.89432 0
M  V30 6145 H 586.219 -0.216764 0.72217 0
M  V30 6146 H 588.87 0.169313 1.82717 0
M  V30 6147 H 587.252 -1.85878 3.49664 0
M  V30 6148 H 588.426 0.804106 4.5373 0
M  V30 6149 H 586.741 0.570336 4.12476 0
M  V30 6150 H 589.338 -2.09502 4.91948 0
M  V30 6151 H 589.681 -2.57078 3.27439 0
M  V30 6152 H 590.214 -0.974919 3.85668 0
M  V30 6153 H 586.953 0.349871 6.54566 0
M  V30 6154 H 586.473 -1.22452 5.87167 0
M  V30 6155 H 588.152 -0.951508 6.39965 0
M  V30 6156 N 588.284 -1.56567 -0.180126 0
M  V30 6157 C 589.512 -1.85618 -0.913972 0
M  V30 6158 C 589.927 -0.677892 -1.7621 0
M  V30 6159 O 589.284 0.353171 -1.7905 0
M  V30 6160 C 589.335 -3.13619 -1.79793 0
M  V30 6161 O 589.056 -4.26906 -0.98402 0
M  V30 6162 C 590.557 -3.55954 -2.64219 0
M  V30 6163 H 587.777 -0.616043 -0.265954 0
M  V30 6164 H 590.321 -2.03681 -0.182872 0
M  V30 6165 H 588.476 -2.97409 -2.48247 0
M  V30 6166 H 588.89 -4.9989 -1.58776 0
M  V30 6167 H 590.364 -4.48444 -3.21873 0
M  V30 6168 H 590.841 -2.79653 -3.38661 0
M  V30 6169 H 591.447 -3.74746 -2.01111 0
M  V30 6170 N 589.762 0.448376 -1.51087 0
M  V30 6171 C 590.694 1.56146 -1.67783 0
M  V30 6172 C 591.707 1.52913 -0.55871 0
M  V30 6173 O 592.896 1.57889 -0.83267 0
M  V30 6174 C 589.996 2.95057 -1.66716 0
M  V30 6175 C 589.169 3.22915 -2.95033 0
M  V30 6176 C 588.228 4.41495 -2.86302 0
M  V30 6177 O 587.254 4.40688 -3.60254 0
M  V30 6178 N 588.456 5.44443 -2.014 0
M  V30 6179 H 591.221 1.42232 -2.638 0
M  V30 6180 H 588.782 0.637153 -1.48835 0
M  V30 6181 H 590.774 3.72388 -1.58458 0
M  V30 6182 H 589.344 3.02624 -0.783403 0
M  V30 6183 H 588.564 2.33985 -3.17245 0
M  V30 6184 H 589.852 3.38349 -3.79996 0
M  V30 6185 H 589.25 5.4793 -1.40674 0
M  V30 6186 H 587.807 6.2067 -1.99029 0
M  V30 6187 N 591.24 1.41047 0.703093 0
M  V30 6188 C 592.188 1.42494 1.83843 0
M  V30 6189 C 593.182 0.303885 1.66652 0
M  V30 6190 O 594.388 0.475544 1.73605 0
M  V30 6191 H 590.763 0.445685 0.605697 0
M  V30 6192 H 592.734 2.38194 1.79739 0
M  V30 6193 C 591.483 1.31666 3.21807 0
M  V30 6194 H 590.806 2.17212 3.35647 0
M  V30 6195 H 592.246 1.36738 4.01346 0
M  V30 6196 C 590.705 0.0281828 3.36888 0
M  V30 6197 O 591.235 -0.929995 3.90786 0
M  V30 6198 N 589.441 -0.0454322 2.90564 0
M  V30 6199 H 588.988 0.735046 2.4689 0
M  V30 6200 H 588.946 -0.906968 3.01034 0
M  V30 6201 N 592.718 -0.936591 1.26751 0
M  V30 6202 C 593.651 -2.03619 1.03027 0
M  V30 6203 C 594.629 -1.62534 -0.0464619 0
M  V30 6204 O 595.813 -1.88251 0.0968873 0
M  V30 6205 C 592.94 -3.3402 0.561072 0
M  V30 6206 C 591.986 -3.9408 1.63105 0
M  V30 6207 S 592.819 -4.27782 3.22122 0
M  V30 6208 C 593.975 -5.61277 2.76982 0
M  V30 6209 H 594.208 -2.23429 1.96129 0
M  V30 6210 H 591.741 -1.07857 1.10482 0
M  V30 6211 H 593.699 -4.09424 0.297031 0
M  V30 6212 H 592.36 -3.12147 -0.349741 0
M  V30 6213 H 591.553 -4.88154 1.25386 0
M  V30 6214 H 591.155 -3.25227 1.84671 0
M  V30 6215 H 593.447 -6.40189 2.21731 0
M  V30 6216 H 594.39 -6.03887 3.69766 0
M  V30 6217 H 594.798 -5.21374 2.16402 0
M  V30 6218 N 594.196 -1.08629 -1.14182 0
M  V30 6219 C 595.443 -0.817345 -1.85272 0
M  V30 6220 C 595.771 0.656917 -1.83071 0
M  V30 6221 O 595.026 1.49897 -1.25815 0
M  V30 6222 C 595.325 -1.28734 -3.3341 0
M  V30 6223 C 594.991 -2.76981 -3.55798 0
M  V30 6224 C 593.653 -3.17469 -3.61617 0
M  V30 6225 C 596.005 -3.72605 -3.64438 0
M  V30 6226 C 593.333 -4.52371 -3.736 0
M  V30 6227 C 595.685 -5.07286 -3.77947 0
M  V30 6228 C 594.349 -5.47376 -3.82016 0
M  V30 6229 H 593.619 -0.299088 -0.677958 0
M  V30 6230 H 596.266 -1.35962 -1.34857 0
M  V30 6231 H 594.571 -0.664702 -3.8612 0
M  V30 6232 H 596.268 -1.05598 -3.86846 0
M  V30 6233 H 592.858 -2.44644 -3.51919 0
M  V30 6234 H 597.042 -3.42443 -3.5923 0
M  V30 6235 H 592.298 -4.82882 -3.75013 0
M  V30 6236 H 596.472 -5.81243 -3.83575 0
M  V30 6237 H 594.099 -6.51906 -3.91054 0
M  V30 6238 N 595.674 1.31259 -0.872281 0
M  V30 6239 C 596.914 1.98418 -0.490894 0
M  V30 6240 C 597.278 1.67429 0.939755 0
M  V30 6241 O 598.479 2.27818 1.42661 0
M  V30 6242 C 596.75 3.49583 -0.743408 0
M  V30 6243 S 598.309 4.36359 -0.462226 0
M  V30 6244 H 595.127 0.687005 -0.183151 0
M  V30 6245 H 597.729 1.59619 -1.12881 0
M  V30 6246 H 596.433 3.69627 -1.78338 0
M  V30 6247 H 595.964 3.93291 -0.0925758 0
M  V30 6248 H 597.979 4.91173 0.704525 0
M  V30 6249 N 597.152 0.631951 1.44375 0
M  V30 6250 C 598.115 -0.0628142 2.29114 0
M  V30 6251 C 599.115 -0.771494 1.41084 0
M  V30 6252 O 600.305 -0.615959 1.62947 0
M  V30 6253 C 597.437 -1.09953 3.22681 0
M  V30 6254 H 598.63 0.682509 2.92031 0
M  V30 6255 H 596.183 0.392128 1.51301 0
M  V30 6256 H 596.918 -1.87481 2.64616 0
M  V30 6257 H 596.703 -0.595286 3.87555 0
M  V30 6258 H 598.193 -1.58538 3.86336 0
M  V30 6259 N 598.631 -1.53133 0.372548 0
M  V30 6260 C 599.879 -2.00958 -0.214534 0
M  V30 6261 C 600.2 -1.26135 -1.48711 0
M  V30 6262 O 599.47 -0.376597 -1.92246 0
M  V30 6263 H 598.05 -0.742456 -0.0822664 0
M  V30 6264 H 600.712 -1.88367 0.500385 0
M  V30 6265 H 599.808 -3.09031 -0.436605 0
M  V30 6266 N 600.109 -0.101901 -1.5727 0
M  V30 6267 C 601.339 0.567568 -1.98651 0
M  V30 6268 C 601.747 1.61839 -0.980037 0
M  V30 6269 O 601.09 1.83661 0.0376564 0
M  V30 6270 C 601.152 1.26742 -3.36417 0
M  V30 6271 C 600.816 0.366561 -4.55528 0
M  V30 6272 C 601.813 -0.388022 -5.1845 0
M  V30 6273 C 599.498 0.282629 -5.01504 0
M  V30 6274 C 601.492 -1.21445 -6.25724 0
M  V30 6275 C 599.179 -0.547443 -6.08643 0
M  V30 6276 C 600.177 -1.29462 -6.70618 0
M  V30 6277 O 599.865 -2.11095 -7.7569 0
M  V30 6278 H 599.597 0.156282 -0.657687 0
M  V30 6279 H 602.151 -0.179912 -2.04611 0
M  V30 6280 H 600.381 2.06162 -3.27161 0
M  V30 6281 H 602.07 1.8321 -3.622 0
M  V30 6282 H 602.836 -0.332949 -4.83856 0
M  V30 6283 H 598.715 0.853868 -4.53023 0
M  V30 6284 H 602.259 -1.79814 -6.74027 0
M  V30 6285 H 598.156 -0.603971 -6.42668 0
M  V30 6286 H 598.924 -2.03851 -7.92709 0
M  V30 6287 N 601.587 1.56661 0.17182 0
M  V30 6288 C 602.864 1.72838 0.915778 0
M  V30 6289 C 603.244 0.66316 2.00413 0
M  V30 6290 O 602.592 -0.322123 2.26218 0
M  V30 6291 C 602.802 3.16019 1.48097 0
M  V30 6292 C 604.15 3.76962 1.95408 0
M  V30 6293 O 605.174 3.19294 1.57892 0
M  V30 6294 O 604.033 4.78219 2.64516 0
M  V30 6295 H 601.127 0.705797 0.431021 0
M  V30 6296 H 603.673 1.68947 0.159689 0
M  V30 6297 H 602.445 3.85031 0.697618 0
M  V30 6298 H 602.068 3.24234 2.30126 0
M  V30 6299 N 603.065 -0.440357 1.51323 0
M  V30 6300 C 604.293 -1.21255 1.67645 0
M  V30 6301 C 604.708 -1.85088 0.37252 0
M  V30 6302 O 604.065 -1.70582 -0.648683 0
M  V30 6303 C 604.116 -2.29881 2.78993 0
M  V30 6304 O 603.837 -1.68659 4.04334 0
M  V30 6305 C 605.338 -3.20214 3.06558 0
M  V30 6306 H 602.558 -0.36558 0.562666 0
M  V30 6307 H 605.102 -0.52214 1.97722 0
M  V30 6308 H 603.257 -2.94643 2.51524 0
M  V30 6309 H 603.671 -2.40426 4.6615 0
M  V30 6310 H 605.145 -3.92575 3.88058 0
M  V30 6311 H 605.622 -3.80794 2.18844 0
M  V30 6312 H 606.228 -2.61156 3.35675 0
M  V30 6313 N 604.543 -1.41418 -0.695603 0
M  V30 6314 C 605.49 -1.43264 -1.80954 0
M  V30 6315 C 606.46 -0.287016 -1.63601 0
M  V30 6316 O 607.645 -0.488054 -1.84452 0
M  V30 6317 C 604.785 -1.32054 -3.18835 0
M  V30 6318 C 603.898 -2.56485 -3.4762 0
M  V30 6319 C 603.033 -2.3757 -4.75115 0
M  V30 6320 C 602.072 -3.57477 -4.96867 0
M  V30 6321 N 601.209 -3.37632 -6.15588 0
M  V30 6322 H 606.049 -2.38467 -1.78711 0
M  V30 6323 H 603.586 -1.18415 -0.872715 0
M  V30 6324 H 605.544 -1.23558 -3.98484 0
M  V30 6325 H 604.174 -0.404592 -3.20254 0
M  V30 6326 H 603.226 -2.75432 -2.62376 0
M  V30 6327 H 604.538 -3.45678 -3.59594 0
M  V30 6328 H 603.692 -2.2654 -5.62818 0
M  V30 6329 H 602.431 -1.45834 -4.65386 0
M  V30 6330 H 601.436 -3.68961 -4.07612 0
M  V30 6331 H 602.661 -4.50167 -5.08455 0
M  V30 6332 H 600.607 -2.48596 -6.07072 0
M  V30 6333 H 600.524 -4.20401 -6.2833 0
M  V30 6334 H 601.792 -3.30375 -7.06026 0
M  V30 6335 N 606.021 0.929856 -1.27246 0
M  V30 6336 C 606.953 2.03434 -1.0558 0
M  V30 6337 C 607.966 1.62795 -0.0125762 0
M  V30 6338 O 609.155 1.76685 -0.2539 0
M  V30 6339 C 606.255 3.33915 -0.57912 0
M  V30 6340 C 605.428 4.03259 -1.69415 0
M  V30 6341 C 604.487 5.12014 -1.21357 0
M  V30 6342 O 603.513 5.36097 -1.91282 0
M  V30 6343 N 604.715 5.8046 -0.0680622 0
M  V30 6344 H 607.48 2.22583 -2.00691 0
M  V30 6345 H 605.041 1.1001 -1.18783 0
M  V30 6346 H 607.033 4.03978 -0.241563 0
M  V30 6347 H 605.603 3.11355 0.278703 0
M  V30 6348 H 604.823 3.26958 -2.20209 0
M  V30 6349 H 606.111 4.46337 -2.44255 0
M  V30 6350 H 605.509 5.63345 0.515626 0
M  V30 6351 H 604.066 6.51461 0.210332 0
M  V30 6352 N 607.499 1.09233 1.13605 0
M  V30 6353 C 608.409 0.741939 2.22559 0
M  V30 6354 C 609.425 -0.255236 1.72118 0
M  V30 6355 O 610.601 -0.0970747 2.01166 0
M  V30 6356 C 607.666 0.165595 3.46304 0
M  V30 6357 C 606.727 1.21846 4.11645 0
M  V30 6358 C 605.96 0.669526 5.29484 0
M  V30 6359 O 606.183 -0.508228 5.68131 0
M  V30 6360 O 605.117 1.42361 5.84822 0
M  V30 6361 H 608.943 1.65107 2.54899 0
M  V30 6362 H 606.528 0.866584 1.21699 0
M  V30 6363 H 608.41 -0.152592 4.21124 0
M  V30 6364 H 607.085 -0.716573 3.15669 0
M  V30 6365 H 605.992 1.58931 3.38662 0
M  V30 6366 H 607.325 2.07321 4.46407 0
M  V30 6367 N 608.977 -1.30795 0.87923 0
M  V30 6368 C 610.254 -1.91145 0.415086 0
M  V30 6369 C 610.634 -1.7995 -1.10368 0
M  V30 6370 O 609.982 -1.21305 -1.93642 0
M  V30 6371 C 610.192 -3.37014 0.906778 0
M  V30 6372 C 611.54 -4.14101 0.938358 0
M  V30 6373 O 612.564 -3.45834 0.853053 0
M  V30 6374 O 611.423 -5.36054 1.06342 0
M  V30 6375 H 608.517 -0.81736 0.125905 0
M  V30 6376 H 611.063 -1.39401 0.967753 0
M  V30 6377 H 609.835 -3.3922 1.95053 0
M  V30 6378 H 609.458 -3.96204 0.332948 0
M  V30 6379 N 610.455 -0.639598 -1.44038 0
M  V30 6380 C 611.418 0.0506628 -2.29144 0
M  V30 6381 C 612.418 0.764001 -1.41491 0
M  V30 6382 O 613.608 0.607309 -1.63271 0
M  V30 6383 C 610.74 1.0824 -3.2326 0
M  V30 6384 H 611.933 -0.697987 -2.91664 0
M  V30 6385 H 609.486 -0.400146 -1.51091 0
M  V30 6386 H 610.221 1.86075 -2.65606 0
M  V30 6387 H 610.006 0.574725 -3.87865 0
M  V30 6388 H 611.496 1.56487 -3.87171 0
M  V30 6389 N 611.933 1.52934 -0.380664 0
M  V30 6390 C 613.173 2.03378 0.204161 0
M  V30 6391 C 613.537 1.26132 1.44758 0
M  V30 6392 O 614.738 1.66657 2.109 0
M  V30 6393 C 613.009 3.54241 0.474118 0
M  V30 6394 S 614.568 4.26529 1.03046 0
M  V30 6395 H 611.386 0.708608 0.0582719 0
M  V30 6396 H 613.988 1.88263 -0.527017 0
M  V30 6397 H 612.692 4.08055 -0.438088 0
M  V30 6398 H 612.223 3.73547 1.23396 0
M  V30 6399 H 614.238 4.38964 2.31354 0
M  V30 6400 N 613.412 0.11024 1.57214 0
M  V30 6401 C 614.344 -0.873497 2.11902 0
M  V30 6402 C 615.357 -1.23588 1.05971 0
M  V30 6403 O 616.546 -1.18636 1.33371 0
M  V30 6404 C 613.646 -2.17805 2.59643 0
M  V30 6405 C 612.819 -1.98869 3.89576 0
M  V30 6406 C 611.878 -3.12974 4.23006 0
M  V30 6407 O 610.904 -2.86272 4.91973 0
M  V30 6408 N 612.106 -4.39167 3.79622 0
M  V30 6409 H 614.871 -0.406317 2.96933 0
M  V30 6410 H 612.432 -0.074437 1.61729 0
M  V30 6411 H 614.424 -2.93117 2.79042 0
M  V30 6412 H 612.994 -2.55899 1.7954 0
M  V30 6413 H 612.214 -1.078 3.79174 0
M  V30 6414 H 613.502 -1.83512 4.74553 0
M  V30 6415 H 612.9 -4.63739 3.2398 0
M  V30 6416 H 611.457 -5.11379 4.04147 0
M  V30 6417 N 614.89 -1.56749 -0.16351 0
M  V30 6418 C 616.138 -1.82074 -0.87713 0
M  V30 6419 C 616.459 -0.688503 -1.82441 0
M  V30 6420 O 615.729 0.291085 -1.93725 0
M  V30 6421 H 614.309 -0.671677 -0.326893 0
M  V30 6422 H 616.971 -1.9423 -0.161459 0
M  V30 6423 H 616.067 -2.76407 -1.44934 0
M  V30 6424 N 616.368 0.432326 -1.51554 0
M  V30 6425 C 617.645 1.19288 -1.55015 0
M  V30 6426 C 618.025 2.08701 -0.317375 0
M  V30 6427 O 617.373 2.17602 0.697243 0
M  V30 6428 C 617.583 1.99037 -2.86679 0
M  V30 6429 C 618.931 2.55907 -3.38817 0
M  V30 6430 O 619.955 2.09243 -2.88263 0
M  V30 6431 O 618.814 3.41029 -4.27038 0
M  V30 6432 H 615.908 0.543369 -0.623441 0
M  V30 6433 H 618.454 0.440988 -1.6387 0
M  V30 6434 H 617.226 1.33397 -3.6786 0
M  V30 6435 H 616.849 2.81281 -2.8101 0
M  V30 6436 N 617.846 1.41785 0.688094 0
M  V30 6437 C 619.071 1.45117 1.48175 0
M  V30 6438 C 619.496 0.060129 1.88004 0
M  V30 6439 O 618.854 -0.938385 1.55126 0
M  V30 6440 C 618.902 2.37224 2.71583 0
M  V30 6441 O 618.006 1.83443 3.69354 0
M  V30 6442 H 617.347 0.492208 0.445676 0
M  V30 6443 H 619.877 1.86329 0.845145 0
M  V30 6444 H 619.887 2.53353 3.19806 0
M  V30 6445 H 618.562 3.38293 2.41931 0
M  V30 6446 H 617.139 1.76802 3.28322 0
M  V30 6447 N 619.324 -0.923095 1.27737 0
M  V30 6448 C 620.572 -1.66797 1.14119 0
M  V30 6449 C 620.893 -1.92479 -0.312541 0
M  V30 6450 O 620.163 -1.53432 -1.218 0
M  V30 6451 H 618.743 -0.618196 0.419336 0
M  V30 6452 H 621.405 -1.10815 1.60331 0
M  V30 6453 H 620.501 -2.63424 1.67374 0
M  V30 6454 N 620.802 -1.09834 -1.13024 0
M  V30 6455 C 622.05 -0.835297 -1.8403 0
M  V30 6456 C 622.371 0.640944 -1.84165 0
M  V30 6457 O 621.641 1.46517 -1.30037 0
M  V30 6458 H 620.221 -0.306018 -0.681441 0
M  V30 6459 H 622.883 -1.38734 -1.36891 0
M  V30 6460 H 621.979 -1.19258 -2.88416 0
M  V30 6461 N 622.28 1.30327 -0.886154 0
M  V30 6462 C 623.691 1.78243 -0.555554 0
M  V30 6463 C 624.042 1.72849 0.928314 0
M  V30 6464 O 623.167 1.30607 1.72542 0
M  V30 6465 C 623.762 3.23654 -1.00168 0
M  V30 6466 C 622.321 3.69401 -0.722471 0
M  V30 6467 C 621.468 2.50753 -1.18399 0
M  V30 6468 H 624.419 1.1718 -1.07026 0
M  V30 6469 H 624.44 3.79056 -0.331152 0
M  V30 6470 H 623.952 3.27548 -2.08169 0
M  V30 6471 H 622.053 3.70995 0.345496 0
M  V30 6472 H 622.166 4.60818 -1.31085 0
M  V30 6473 H 620.53 2.47452 -0.603303 0
M  V30 6474 H 621.313 2.57383 -2.27176 0
M  V30 6475 N 623.758 0.647228 1.43697 0
M  V30 6476 C 624.708 -0.0702191 2.27892 0
M  V30 6477 C 625.692 -0.800601 1.39568 0
M  V30 6478 O 626.884 -0.684055 1.63247 0
M  V30 6479 C 624.013 -1.04008 3.27165 0
M  V30 6480 C 623.099 -0.308484 4.22977 0
M  V30 6481 N 623.49 0.671721 5.0132 0
M  V30 6482 C 621.788 -0.550751 4.42586 0
M  V30 6483 C 622.489 1.10543 5.711 0
M  V30 6484 N 621.465 0.440903 5.41809 0
M  V30 6485 H 625.267 0.682031 2.85877 0
M  V30 6486 H 622.781 0.474022 1.55328 0
M  V30 6487 H 624.778 -1.56881 3.86256 0
M  V30 6488 H 623.438 -1.79246 2.70742 0
M  V30 6489 H 624.449 1.0502 5.0714 0
M  V30 6490 H 621.126 -1.28476 3.97241 0
M  V30 6491 H 622.516 1.91614 6.43998 0
M  V30 6492 N 625.236 -1.5273 0.388769 0
M  V30 6493 C 626.482 -2.01871 -0.193877 0
M  V30 6494 C 626.815 -1.27475 -1.46505 0
M  V30 6495 O 626.09 -0.375063 -1.90849 0
M  V30 6496 C 626.373 -3.5712 -0.462336 0
M  V30 6497 C 626.226 -4.42186 0.824091 0
M  V30 6498 C 627.545 -4.21881 -1.25319 0
M  V30 6499 H 624.664 -0.733764 -0.0689899 0
M  V30 6500 H 627.306 -1.82796 0.518231 0
M  V30 6501 H 625.456 -3.73504 -1.06896 0
M  V30 6502 H 627.128 -4.37554 1.46096 0
M  V30 6503 H 625.371 -4.09219 1.43952 0
M  V30 6504 H 626.042 -5.48828 0.590905 0
M  V30 6505 H 628.518 -4.0947 -0.73981 0
M  V30 6506 H 627.394 -5.30487 -1.40977 0
M  V30 6507 H 627.655 -3.79478 -2.26824 0
M  V30 6508 N 626.714 -0.118576 -1.57153 0
M  V30 6509 C 627.942 0.54726 -1.99531 0
M  V30 6510 C 628.357 1.60251 -0.998246 0
M  V30 6511 O 627.714 1.82498 0.00893106 0
M  V30 6512 C 627.765 1.17378 -3.41913 0
M  V30 6513 O 627.486 0.160703 -4.37805 0
M  V30 6514 C 628.987 1.92297 -3.9942 0
M  V30 6515 H 626.207 0.144919 -0.655164 0
M  V30 6516 H 628.751 -0.20479 -2.03472 0
M  V30 6517 H 626.906 1.87661 -3.38913 0
M  V30 6518 H 627.32 0.61586 -5.20872 0
M  V30 6519 H 628.794 2.31462 -5.01128 0
M  V30 6520 H 629.271 2.79801 -3.38538 0
M  V30 6521 H 629.877 1.26777 -4.05965 0
M  V30 6522 N 628.193 1.56834 0.155195 0
M  V30 6523 C 629.609 1.51315 0.50755 0
M  V30 6524 C 629.809 0.825614 1.83809 0
M  V30 6525 O 628.865 0.39271 2.49427 0
M  V30 6526 C 630.178 2.96074 0.52542 0
M  V30 6527 C 631.726 3.06968 0.611505 0
M  V30 6528 C 632.201 4.53218 0.660115 0
M  V30 6529 N 633.692 4.5753 0.722564 0
M  V30 6530 C 634.427 5.68056 0.781023 0
M  V30 6531 N 633.923 6.88173 0.799327 0
M  V30 6532 N 635.716 5.56068 0.821278 0
M  V30 6533 H 627.867 1.9993 -0.717063 0
M  V30 6534 H 630.13 0.911507 -0.260496 0
M  V30 6535 H 629.836 3.49599 -0.383875 0
M  V30 6536 H 629.71 3.51587 1.36624 0
M  V30 6537 H 632.097 2.53468 1.51122 0
M  V30 6538 H 632.178 2.54513 -0.256306 0
M  V30 6539 H 631.822 5.07354 -0.23541 0
M  V30 6540 H 631.752 5.03447 1.5443 0
M  V30 6541 H 634.243 3.71054 0.716049 0
M  V30 6542 H 634.556 7.6816 0.845553 0
M  V30 6543 H 632.901 6.90751 0.767337 0
M  V30 6544 H 636.092 4.61142 0.804091 0
M  V30 6545 H 636.265 6.42223 0.863372 0
M  V30 6546 N 629.671 -0.424282 1.51781 0
M  V30 6547 C 630.918 -1.1726 1.65095 0
M  V30 6548 C 631.246 -1.90881 0.373477 0
M  V30 6549 O 630.501 -1.84835 -0.642997 0
M  V30 6550 C 630.8 -2.20418 2.81337 0
M  V30 6551 C 630.466 -1.63715 4.20129 0
M  V30 6552 C 629.128 -1.47975 4.57883 0
M  V30 6553 C 631.48 -1.22157 5.06682 0
M  V30 6554 C 628.808 -0.891703 5.79884 0
M  V30 6555 C 631.16 -0.647767 6.29275 0
M  V30 6556 C 629.824 -0.477371 6.65791 0
M  V30 6557 H 629.094 -0.429085 0.604125 0
M  V30 6558 H 631.741 -0.461852 1.85847 0
M  V30 6559 H 630.046 -2.97581 2.54859 0
M  V30 6560 H 631.743 -2.78163 2.88836 0
M  V30 6561 H 628.333 -1.76946 3.90369 0
M  V30 6562 H 632.517 -1.33133 4.7811 0
M  V30 6563 H 627.773 -0.747563 6.06813 0
M  V30 6564 H 631.947 -0.317291 6.95677 0
M  V30 6565 H 629.574 -0.0195936 7.60197 0
M  V30 6566 N 631.149 -1.42148 -0.680565 0
M  V30 6567 C 632.096 -1.45175 -1.79424 0
M  V30 6568 C 633.066 -0.304352 -1.63288 0
M  V30 6569 O 634.251 -0.507591 -1.83924 0
M  V30 6570 C 631.391 -1.35429 -3.17416 0
M  V30 6571 C 630.504 -2.60158 -3.4488 0
M  V30 6572 C 629.639 -2.42596 -4.72568 0
M  V30 6573 C 628.678 -3.62727 -4.93047 0
M  V30 6574 N 627.815 -3.44143 -6.11973 0
M  V30 6575 H 632.655 -2.40349 -1.76172 0
M  V30 6576 H 630.192 -1.19334 -0.860107 0
M  V30 6577 H 632.15 -1.27777 -3.97151 0
M  V30 6578 H 630.78 -0.438536 -3.19807 0
M  V30 6579 H 629.832 -2.78199 -2.5944 0
M  V30 6580 H 631.144 -3.49473 -3.55908 0
M  V30 6581 H 630.298 -2.32497 -5.60384 0
M  V30 6582 H 629.037 -1.50761 -4.63813 0
M  V30 6583 H 628.042 -3.73264 -4.03676 0
M  V30 6584 H 629.267 -4.55534 -5.03652 0
M  V30 6585 H 627.213 -2.5502 -6.04401 0
M  V30 6586 H 627.13 -4.27041 -6.23836 0
M  V30 6587 H 628.398 -3.37845 -7.02482 0
M  V30 6588 N 632.627 0.916307 -1.28225 0
M  V30 6589 C 633.904 1.64429 -1.05936 0
M  V30 6590 C 634.284 2.07234 0.402139 0
M  V30 6591 O 633.632 1.81535 1.3877 0
M  V30 6592 C 633.842 2.83773 -2.03159 0
M  V30 6593 C 635.19 3.54852 -2.33164 0
M  V30 6594 O 636.214 2.93918 -2.01223 0
M  V30 6595 O 635.073 4.64663 -2.87664 0
M  V30 6596 H 632.167 0.721221 -0.404683 0
M  V30 6597 H 634.713 0.965838 -1.39534 0
M  V30 6598 H 633.485 2.49217 -3.01673 0
M  V30 6599 H 633.108 3.59333 -1.70192 0
M  V30 6600 N 634.105 1.10431 1.1244 0
M  V30 6601 C 635.333 0.868872 1.87772 0
M  V30 6602 C 635.748 -0.580645 1.7965 0
M  V30 6603 O 635.105 -1.40031 1.17036 0
M  V30 6604 C 635.156 1.30855 3.36986 0
M  V30 6605 O 634.877 2.70123 3.44914 0
M  V30 6606 C 636.378 1.107 4.29256 0
M  V30 6607 H 633.598 0.311868 0.59412 0
M  V30 6608 H 636.142 1.46897 1.42273 0
M  V30 6609 H 634.297 0.752126 3.80029 0
M  V30 6610 H 634.711 2.88923 4.37748 0
M  V30 6611 H 636.185 1.46378 5.32238 0
M  V30 6612 H 636.662 0.0456228 4.39176 0
M  V30 6613 H 637.268 1.64988 3.91994 0
M  V30 6614 N 635.583 -1.29855 0.893053 0
M  V30 6615 C 636.813 -1.99686 0.530019 0
M  V30 6616 C 637.221 -1.67066 -0.888012 0
M  V30 6617 O 636.564 -0.908366 -1.5967 0
M  V30 6618 C 636.626 -3.53855 0.63457 0
M  V30 6619 C 636.29 -4.10013 2.01837 0
M  V30 6620 C 637.287 -4.25406 2.98874 0
M  V30 6621 C 634.972 -4.45202 2.32595 0
M  V30 6622 C 636.966 -4.7521 4.24799 0
M  V30 6623 C 634.653 -4.94704 3.58763 0
M  V30 6624 C 635.651 -5.09662 4.5468 0
M  V30 6625 O 635.339 -5.58093 5.78608 0
M  V30 6626 H 635.071 -0.644913 0.20264 0
M  V30 6627 H 637.625 -1.66518 1.20253 0
M  V30 6628 H 635.855 -3.86583 -0.0949477 0
M  V30 6629 H 637.544 -4.04922 0.281648 0
M  V30 6630 H 638.31 -3.98515 2.76425 0
M  V30 6631 H 634.189 -4.32822 1.58701 0
M  V30 6632 H 637.733 -4.86801 4.99671 0
M  V30 6633 H 633.63 -5.21032 3.81046 0
M  V30 6634 H 634.398 -5.7642 5.81104 0
M  V30 6635 N 637.061 -0.65484 -1.43351 0
M  V30 6636 C 638.308 -0.168892 -2.01794 0
M  V30 6637 C 638.636 1.2177 -1.51665 0
M  V30 6638 O 637.891 1.82717 -0.70092 0
M  V30 6639 C 638.19 -0.130424 -3.57162 0
M  V30 6640 C 637.856 -1.45898 -4.26643 0
M  V30 6641 C 636.518 -1.82279 -4.4534 0
M  V30 6642 C 638.87 -2.33485 -4.65976 0
M  V30 6643 C 636.198 -3.0591 -5.00635 0
M  V30 6644 C 638.55 -3.5641 -5.22642 0
M  V30 6645 C 637.214 -3.92985 -5.39555 0
M  V30 6646 H 636.484 -0.061802 -0.738418 0
M  V30 6647 H 639.131 -0.845869 -1.71806 0
M  V30 6648 H 637.436 0.630008 -3.86702 0
M  V30 6649 H 639.133 0.262465 -4.0014 0
M  V30 6650 H 635.723 -1.16591 -4.12437 0
M  V30 6651 H 639.907 -2.06668 -4.51223 0
M  V30 6652 H 635.163 -3.34295 -5.11915 0
M  V30 6653 H 639.337 -4.24495 -5.52066 0
M  V30 6654 H 636.964 -4.88862 -5.82167 0
M  V30 6655 N 638.539 1.52521 -0.396863 0
M  V30 6656 C 639.785 2.01971 0.183169 0
M  V30 6657 C 640.118 1.2825 1.45827 0
M  V30 6658 O 639.393 0.385179 1.90648 0
M  V30 6659 C 639.676 3.5736 0.443391 0
M  V30 6660 C 639.529 4.41743 -0.84753 0
M  V30 6661 C 640.848 4.22539 1.2308 0
M  V30 6662 H 637.967 0.734119 0.0650976 0
M  V30 6663 H 640.609 1.82519 -0.527918 0
M  V30 6664 H 638.759 3.74066 1.04914 0
M  V30 6665 H 640.431 4.36773 -1.48414 0
M  V30 6666 H 638.674 4.0845 -1.4612 0
M  V30 6667 H 639.345 5.48507 -0.620003 0
M  V30 6668 H 641.821 4.09857 0.718084 0
M  V30 6669 H 640.697 5.31227 1.38162 0
M  V30 6670 H 640.958 3.80675 2.24808 0
M  V30 6671 N 640.017 0.126909 1.57088 0
M  V30 6672 C 641.245 -0.53667 1.99819 0
M  V30 6673 C 641.66 -1.5972 1.00673 0
M  V30 6674 O 641.017 -1.825 0.000747365 0
M  V30 6675 C 641.068 -1.15563 3.42531 0
M  V30 6676 O 640.789 -0.137483 4.37884 0
M  V30 6677 C 642.29 -1.90176 4.00435 0
M  V30 6678 H 639.51 -0.141443 0.655923 0
M  V30 6679 H 642.054 0.215578 2.03361 0
M  V30 6680 H 640.209 -1.85861 3.39904 0
M  V30 6681 H 640.623 -0.588229 5.21191 0
M  V30 6682 H 642.097 -2.28801 5.02349 0
M  V30 6683 H 642.574 -2.78002 3.40017 0
M  V30 6684 H 643.18 -1.24623 4.06632 0
M  V30 6685 N 641.495 -1.56914 -0.146875 0
M  V30 6686 C 642.743 -1.82994 -0.85777 0
M  V30 6687 C 643.064 -0.707814 -1.817 0
M  V30 6688 O 642.334 0.270521 -1.94023 0
M  V30 6689 H 640.914 -0.675106 -0.319751 0
M  V30 6690 H 643.576 -1.9439 -0.140849 0
M  V30 6691 H 642.672 -2.77928 -1.41994 0
M  V30 6692 N 642.974 0.416227 -1.52004 0
M  V30 6693 C 644.223 1.16088 -1.64944 0
M  V30 6694 C 644.536 1.91835 -0.381928 0
M  V30 6695 O 645.742 2.6867 -0.391013 0
M  V30 6696 C 644.198 2.1124 -2.91386 0
M  V30 6697 C 643.806 1.41042 -4.25219 0
M  V30 6698 C 645.55 2.86008 -3.13688 0
M  V30 6699 C 643.457 2.34801 -5.42791 0
M  V30 6700 H 642.387 0.437041 -0.61442 0
M  V30 6701 H 645.038 0.425971 -1.78487 0
M  V30 6702 H 643.42 2.88254 -2.71525 0
M  V30 6703 H 644.594 0.694416 -4.55538 0
M  V30 6704 H 642.909 0.78344 -4.08964 0
M  V30 6705 H 645.506 3.56286 -3.98703 0
M  V30 6706 H 645.849 3.48556 -2.27628 0
M  V30 6707 H 646.382 2.16095 -3.33988 0
M  V30 6708 H 643.121 1.7691 -6.31176 0
M  V30 6709 H 642.641 3.04395 -5.16821 0
M  V30 6710 H 644.32 2.9548 -5.75587 0
M  V30 6711 N 644.452 1.42507 0.673017 0
M  V30 6712 C 645.698 1.43284 1.43519 0
M  V30 6713 C 646.031 0.049668 1.94136 0
M  V30 6714 O 645.306 -0.926369 1.71022 0
M  V30 6715 C 645.589 2.45874 2.63093 0
M  V30 6716 C 645.442 3.93388 2.18096 0
M  V30 6717 C 646.761 2.45431 3.6531 0
M  V30 6718 H 643.88 0.521752 0.520522 0
M  V30 6719 H 646.522 1.73932 0.764701 0
M  V30 6720 H 644.672 2.19869 3.20296 0
M  V30 6721 H 646.344 4.30379 1.66046 0
M  V30 6722 H 644.587 4.07169 1.49652 0
M  V30 6723 H 645.258 4.60752 3.03993 0
M  V30 6724 H 647.734 2.68561 3.17827 0
M  V30 6725 H 646.61 3.19189 4.46553 0
M  V30 6726 H 646.871 1.48092 4.16559 0
M  V30 6727 N 645.93 -0.909495 1.28709 0
M  V30 6728 C 647.155 -1.69801 1.1909 0
M  V30 6729 C 647.58 -1.86479 -0.246388 0
M  V30 6730 O 646.938 -1.37802 -1.17815 0
M  V30 6731 C 646.986 -3.06543 1.89904 0
M  V30 6732 O 646.09 -3.94268 1.2094 0
M  V30 6733 H 645.431 -0.519783 0.413185 0
M  V30 6734 H 647.961 -1.13689 1.70106 0
M  V30 6735 H 647.971 -3.56748 1.97977 0
M  V30 6736 H 646.646 -2.93722 2.94449 0
M  V30 6737 H 645.223 -3.52702 1.2106 0
M  V30 6738 N 647.408 -1.11026 -1.11852 0
M  V30 6739 C 648.654 -0.867633 -1.83967 0
M  V30 6740 C 649.009 0.600309 -1.82795 0
M  V30 6741 O 648.302 1.43731 -1.26696 0
M  V30 6742 C 648.496 -1.35777 -3.30604 0
M  V30 6743 C 648.325 -2.87183 -3.46058 0
M  V30 6744 C 647.095 -3.55256 -3.59334 0
M  V30 6745 C 649.293 -3.85258 -3.40706 0
M  V30 6746 N 647.275 -4.94923 -3.63215 0
M  V30 6747 C 648.646 -5.1097 -3.51155 0
M  V30 6748 C 650.701 -3.77879 -3.2421 0
M  V30 6749 C 649.404 -6.30171 -3.46809 0
M  V30 6750 C 651.43 -4.96586 -3.2118 0
M  V30 6751 C 650.792 -6.21149 -3.32196 0
M  V30 6752 H 646.891 -0.370574 -0.688621 0
M  V30 6753 H 649.475 -1.41379 -1.33865 0
M  V30 6754 H 647.646 -0.83885 -3.79233 0
M  V30 6755 H 649.378 -1.05874 -3.90606 0
M  V30 6756 H 646.133 -3.05714 -3.61713 0
M  V30 6757 H 646.557 -5.67726 -3.68804 0
M  V30 6758 H 651.199 -2.82485 -3.14582 0
M  V30 6759 H 648.917 -7.25847 -3.55206 0
M  V30 6760 H 652.503 -4.92591 -3.09589 0
M  V30 6761 H 651.383 -7.11463 -3.29834 0
M  V30 6762 N 648.886 1.2938 -0.899927 0
M  V30 6763 C 650.134 1.95164 -0.524924 0
M  V30 6764 C 650.455 1.71292 0.931888 0
M  V30 6765 O 649.725 1.04481 1.65712 0
M  V30 6766 H 648.305 0.722133 -0.191135 0
M  V30 6767 H 650.967 1.57628 -1.14627 0
M  V30 6768 H 650.063 3.0397 -0.707711 0
M  V30 6769 N 650.364 0.662433 1.43002 0
M  V30 6770 C 651.274 -0.0239199 2.34588 0
M  V30 6771 C 652.29 -0.802255 1.54402 0
M  V30 6772 O 653.466 -0.747401 1.87018 0
M  V30 6773 C 650.531 -0.972098 3.32793 0
M  V30 6774 C 649.592 -0.189673 4.28881 0
M  V30 6775 C 648.825 -1.09269 5.22395 0
M  V30 6776 O 649.048 -2.33209 5.20547 0
M  V30 6777 O 647.982 -0.560136 5.99288 0
M  V30 6778 H 651.808 0.730171 2.94792 0
M  V30 6779 H 649.393 0.422635 1.43297 0
M  V30 6780 H 651.275 -1.51676 3.93157 0
M  V30 6781 H 649.95 -1.70626 2.75079 0
M  V30 6782 H 648.857 0.398794 3.71968 0
M  V30 6783 H 650.19 0.50511 4.89601 0
M  V30 6784 N 651.842 -1.52309 0.404946 0
M  V30 6785 C 653.09 -2.01368 -0.17186 0
M  V30 6786 C 653.411 -1.29261 -1.46002 0
M  V30 6787 O 652.681 -0.41729 -1.91404 0
M  V30 6788 H 651.261 -0.744034 -0.0664993 0
M  V30 6789 H 653.923 -1.87263 0.540228 0
M  V30 6790 H 653.019 -3.09888 -0.370957 0
M  V30 6791 N 653.32 -0.135238 -1.57019 0
M  V30 6792 C 654.56 0.521686 -1.9763 0
M  V30 6793 C 654.924 1.62804 -1.01778 0
M  V30 6794 O 656.125 2.345 -1.31389 0
M  V30 6795 C 654.396 1.0257 -3.42365 0
M  V30 6796 S 655.955 1.68888 -4.04997 0
M  V30 6797 H 652.773 0.169064 -0.690607 0
M  V30 6798 H 655.375 -0.224168 -1.94211 0
M  V30 6799 H 654.079 0.209556 -4.09865 0
M  V30 6800 H 653.61 1.80645 -3.49472 0
M  V30 6801 H 655.625 2.97554 -3.97084 0
M  V30 6802 N 654.798 1.5699 0.138552 0
M  V30 6803 C 655.761 1.97984 1.15478 0
M  V30 6804 C 656.761 0.867416 1.35398 0
M  V30 6805 O 657.951 1.13387 1.32246 0
M  V30 6806 C 655.083 2.3031 2.51337 0
M  V30 6807 H 656.276 2.88953 0.802896 0
M  V30 6808 H 653.829 1.51555 0.382189 0
M  V30 6809 H 654.564 1.42159 2.91481 0
M  V30 6810 H 654.349 3.11425 2.38237 0
M  V30 6811 H 655.839 2.62834 3.24512 0
M  V30 6812 N 656.276 -0.40816 1.52223 0
M  V30 6813 C 657.692 -0.74685 1.41047 0
M  V30 6814 C 657.892 -1.94788 0.51573 0
M  V30 6815 O 656.948 -2.52494 -0.0181156 0
M  V30 6816 C 658.261 -0.999878 2.83589 0
M  V30 6817 C 659.809 -1.10253 2.92939 0
M  V30 6818 C 660.284 -1.38832 4.36451 0
M  V30 6819 N 661.775 -1.45694 4.3969 0
M  V30 6820 C 662.51 -1.69435 5.47795 0
M  V30 6821 N 662.006 -1.90774 6.66016 0
M  V30 6822 N 663.799 -1.71458 5.35312 0
M  V30 6823 H 655.95 0.382409 2.08929 0
M  V30 6824 H 658.213 0.108807 0.941735 0
M  V30 6825 H 657.919 -0.189723 3.51188 0
M  V30 6826 H 657.793 -1.91978 3.24691 0
M  V30 6827 H 660.18 -1.90328 2.2552 0
M  V30 6828 H 660.261 -0.160973 2.55293 0
M  V30 6829 H 659.905 -0.592741 5.04429 0
M  V30 6830 H 659.835 -2.34241 4.71634 0
M  V30 6831 H 662.326 -1.3099 3.54472 0
M  V30 6832 H 662.639 -2.08342 7.44186 0
M  V30 6833 H 660.984 -1.88037 6.69079 0
M  V30 6834 H 664.175 -1.54326 4.41929 0
M  V30 6835 H 664.348 -1.89621 6.19635 0
M  V30 6836 N 657.755 -1.42862 -0.66545 0
M  V30 6837 C 658.702 -1.4707 -1.77874 0
M  V30 6838 C 659.672 -0.321654 -1.62956 0
M  V30 6839 O 660.857 -0.52707 -1.83376 0
M  V30 6840 C 657.997 -1.38788 -3.15962 0
M  V30 6841 C 657.11 -2.63801 -3.42101 0
M  V30 6842 C 656.245 -2.47594 -4.69969 0
M  V30 6843 C 655.284 -3.67936 -4.89172 0
M  V30 6844 N 654.421 -3.50614 -6.08288 0
M  V30 6845 H 659.261 -2.42204 -1.73613 0
M  V30 6846 H 656.798 -1.20239 -0.847401 0
M  V30 6847 H 658.756 -1.31982 -3.95773 0
M  V30 6848 H 657.386 -0.472431 -3.19324 0
M  V30 6849 H 656.438 -2.80935 -2.56475 0
M  V30 6850 H 657.75 -3.53228 -3.52181 0
M  V30 6851 H 656.904 -2.38427 -5.57886 0
M  V30 6852 H 655.643 -1.55672 -4.62188 0
M  V30 6853 H 654.648 -3.77525 -3.99694 0
M  V30 6854 H 655.873 -4.60851 -4.98792 0
M  V30 6855 H 653.819 -2.61417 -6.01662 0
M  V30 6856 H 653.736 -4.33634 -6.19272 0
M  V30 6857 H 655.004 -3.45276 -6.98859 0
M  V30 6858 N 659.233 0.902656 -1.29189 0
M  V30 6859 C 660.481 1.6496 -1.16758 0
M  V30 6860 C 660.802 1.92952 0.28188 0
M  V30 6861 O 660.072 1.55351 1.19344 0
M  V30 6862 H 658.652 0.611447 -0.429118 0
M  V30 6863 H 661.314 1.0825 -1.62074 0
M  V30 6864 H 660.41 2.60728 -1.71544 0
M  V30 6865 N 660.711 1.11618 1.11262 0
M  V30 6866 C 661.658 0.7762 2.17356 0
M  V30 6867 C 662.628 -0.253152 1.6416 0
M  V30 6868 O 663.813 -0.129655 1.90359 0
M  V30 6869 C 660.953 0.227581 3.44349 0
M  V30 6870 C 660.066 1.31372 4.1154 0
M  V30 6871 C 659.201 0.72544 5.26223 0
M  V30 6872 C 658.24 1.7913 5.85302 0
M  V30 6873 N 657.377 1.22237 6.91377 0
M  V30 6874 H 662.217 1.68508 2.45783 0
M  V30 6875 H 659.754 0.841475 1.20655 0
M  V30 6876 H 661.712 -0.108483 4.17059 0
M  V30 6877 H 660.342 -0.644486 3.16301 0
M  V30 6878 H 659.394 1.7667 3.36885 0
M  V30 6879 H 660.706 2.12005 4.51504 0
M  V30 6880 H 659.86 0.339541 6.05749 0
M  V30 6881 H 658.599 -0.112188 4.87571 0
M  V30 6882 H 657.604 2.18648 5.04453 0
M  V30 6883 H 658.829 2.63199 6.26022 0
M  V30 6884 H 656.775 0.406423 6.5474 0
M  V30 6885 H 656.692 1.9654 7.30006 0
M  V30 6886 H 657.96 0.863426 7.74703 0
M  V30 6887 N 662.189 -1.289 0.906776 0
M  V30 6888 C 663.419 -1.99112 0.551168 0
M  V30 6889 C 663.827 -1.67998 -0.870243 0
M  V30 6890 O 663.17 -0.92525 -1.58697 0
M  V30 6891 C 663.232 -3.53162 0.672065 0
M  V30 6892 C 662.896 -4.07849 2.06174 0
M  V30 6893 C 663.893 -4.22212 3.0337 0
M  V30 6894 C 661.578 -4.4271 2.37304 0
M  V30 6895 C 663.572 -4.70678 4.29815 0
M  V30 6896 C 661.259 -4.90871 3.6399 0
M  V30 6897 C 662.257 -5.04811 4.6006 0
M  V30 6898 O 661.945 -5.51925 5.84495 0
M  V30 6899 H 661.677 -0.642728 0.209469 0
M  V30 6900 H 664.231 -1.65234 1.22012 0
M  V30 6901 H 662.461 -3.86662 -0.05394 0
M  V30 6902 H 664.15 -4.046 0.324579 0
M  V30 6903 H 664.916 -3.9556 2.80637 0
M  V30 6904 H 660.795 -4.31114 1.63283 0
M  V30 6905 H 664.339 -4.81474 5.04806 0
M  V30 6906 H 660.236 -5.16961 3.86551 0
M  V30 6907 H 661.004 -5.70225 5.87185 0
M  V30 6908 N 663.667 -0.670007 -1.42649 0
M  V30 6909 C 664.915 -0.18991 -2.01206 0
M  V30 6910 C 665.236 1.20617 -1.53221 0
M  V30 6911 O 664.506 1.80898 -0.751856 0
M  V30 6912 H 663.086 -0.0672189 -0.743969 0
M  V30 6913 H 665.748 -0.865442 -1.74631 0
M  V30 6914 H 664.844 -0.187481 -3.11536 0
M  V30 6915 N 665.145 1.52092 -0.413018 0
M  V30 6916 C 666.394 2.01041 0.16287 0
M  V30 6917 C 666.707 1.30288 1.45892 0
M  V30 6918 O 667.913 1.70075 2.11629 0
M  V30 6919 C 666.369 3.58283 0.340806 0
M  V30 6920 C 665.977 4.37955 -0.943377 0
M  V30 6921 C 667.721 4.15452 0.871774 0
M  V30 6922 C 665.628 5.86847 -0.732417 0
M  V30 6923 H 664.558 0.751224 0.0646414 0
M  V30 6924 H 667.209 1.75404 -0.539059 0
M  V30 6925 H 665.591 3.80266 1.10516 0
M  V30 6926 H 666.765 4.2773 -1.71418 0
M  V30 6927 H 665.08 3.92122 -1.40105 0
M  V30 6928 H 667.677 5.24375 1.0457 0
M  V30 6929 H 668.02 3.73057 1.84755 0
M  V30 6930 H 668.553 3.97452 0.166377 0
M  V30 6931 H 665.292 6.33609 -1.67986 0
M  V30 6932 H 664.812 5.998 -0.000980058 0
M  V30 6933 H 666.491 6.45906 -0.376105 0
M  V30 6934 N 666.623 0.143563 1.56945 0
M  V30 6935 C 667.853 -0.514699 2.00086 0
M  V30 6936 C 668.261 -1.59184 1.0226 0
M  V30 6937 O 667.604 -1.83697 0.0110514 0
M  V30 6938 C 667.666 -1.17778 3.39659 0
M  V30 6939 C 667.33 -0.245657 4.56339 0
M  V30 6940 C 668.327 0.525343 5.17239 0
M  V30 6941 C 666.012 -0.149564 5.02077 0
M  V30 6942 C 668.006 1.37992 6.22284 0
M  V30 6943 C 665.693 0.708621 6.06978 0
M  V30 6944 C 666.691 1.47197 6.6695 0
M  V30 6945 O 666.379 2.31586 7.6982 0
M  V30 6946 H 666.111 -0.138789 0.661599 0
M  V30 6947 H 668.665 0.234098 2.04062 0
M  V30 6948 H 666.895 -1.97415 3.32512 0
M  V30 6949 H 668.584 -1.73542 3.6693 0
M  V30 6950 H 669.35 0.461118 4.82803 0
M  V30 6951 H 665.229 -0.733457 4.55128 0
M  V30 6952 H 668.773 1.97621 6.69023 0
M  V30 6953 H 664.67 0.77415 6.40841 0
M  V30 6954 H 665.438 2.24796 7.87025 0
M  V30 6955 N 668.101 -1.57061 -0.130224 0
M  V30 6956 C 669.329 -1.88432 -0.854456 0
M  V30 6957 C 669.744 -0.733608 -1.73964 0
M  V30 6958 O 669.101 0.296029 -1.80083 0
M  V30 6959 C 669.152 -3.1918 -1.69724 0
M  V30 6960 O 668.873 -4.2982 -0.847705 0
M  V30 6961 C 670.374 -3.6418 -2.5276 0
M  V30 6962 H 667.594 -0.624193 -0.246221 0
M  V30 6963 H 670.138 -2.04159 -0.11798 0
M  V30 6964 H 668.293 -3.05156 -2.3866 0
M  V30 6965 H 668.707 -5.04689 -1.42792 0
M  V30 6966 H 670.181 -4.58457 -3.07443 0
M  V30 6967 H 670.658 -2.90285 -3.29592 0
M  V30 6968 H 671.264 -3.80954 -1.89087 0
M  V30 6969 N 669.579 0.400081 -1.52437 0
M  V30 6970 C 670.526 1.48803 -1.76426 0
M  V30 6971 C 671.496 1.5461 -0.607032 0
M  V30 6972 O 672.681 1.71041 -0.845563 0
M  V30 6973 C 669.821 2.86156 -1.92896 0
M  V30 6974 C 668.934 2.89587 -3.20567 0
M  V30 6975 C 668.069 4.18296 -3.27417 0
M  V30 6976 C 667.108 4.15736 -4.49255 0
M  V30 6977 N 666.245 5.36032 -4.53447 0
M  V30 6978 H 671.085 1.27649 -2.69276 0
M  V30 6979 H 668.622 0.619451 -1.33421 0
M  V30 6980 H 670.58 3.65901 -2.00429 0
M  V30 6981 H 669.21 3.05785 -1.03418 0
M  V30 6982 H 668.262 2.02278 -3.22161 0
M  V30 6983 H 669.574 2.83562 -4.10358 0
M  V30 6984 H 668.728 5.06439 -3.34072 0
M  V30 6985 H 667.467 4.27028 -2.35581 0
M  V30 6986 H 666.472 3.25982 -4.42737 0
M  V30 6987 H 667.697 4.08636 -5.42396 0
M  V30 6988 H 665.643 5.45415 -3.64498 0
M  V30 6989 H 665.56 5.32038 -5.37096 0
M  V30 6990 H 666.828 6.26104 -4.64343 0
M  V30 6991 N 671.057 1.43213 0.657864 0
M  V30 6992 C 672.303 1.44798 1.41991 0
M  V30 6993 C 672.636 0.070256 1.94073 0
M  V30 6994 O 671.911 -0.908177 1.71995 0
M  V30 6995 C 672.194 2.4865 2.60471 0
M  V30 6996 C 672.047 3.95679 2.13911 0
M  V30 6997 C 673.366 2.49292 3.62686 0
M  V30 6998 H 670.485 0.527244 0.514959 0
M  V30 6999 H 673.127 1.74733 0.74621 0
M  V30 7000 H 671.277 2.23254 3.17946 0
M  V30 7001 H 672.949 4.32116 1.61472 0
M  V30 7002 H 671.192 4.08733 1.45325 0
M  V30 7003 H 671.863 4.6395 2.99089 0
M  V30 7004 H 674.339 2.71917 3.14961 0
M  V30 7005 H 673.215 3.23907 4.43143 0
M  V30 7006 H 673.476 1.52502 4.14964 0
M  V30 7007 N 672.536 -0.895792 1.29666 0
M  V30 7008 C 673.764 -1.68001 1.20761 0
M  V30 7009 C 674.179 -1.87379 -0.231187 0
M  V30 7010 O 673.536 -1.41359 -1.15429 0
M  V30 7011 C 673.587 -3.06236 1.92098 0
M  V30 7012 O 673.308 -2.8774 3.30359 0
M  V30 7013 C 674.809 -4.00652 1.89717 0
M  V30 7014 H 672.029 -0.524591 0.418384 0
M  V30 7015 H 674.573 -1.11995 1.71106 0
M  V30 7016 H 672.728 -3.59007 1.45578 0
M  V30 7017 H 673.142 -3.75359 3.66342 0
M  V30 7018 H 674.616 -4.95051 2.44189 0
M  V30 7019 H 675.093 -4.30424 0.873595 0
M  V30 7020 H 675.699 -3.53815 2.35998 0
M  V30 7021 N 674.014 -1.12206 -1.10668 0
M  V30 7022 C 674.977 -0.790867 -2.15123 0
M  V30 7023 C 675.977 0.193618 -1.5963 0
M  V30 7024 O 677.167 -0.0318728 -1.74171 0
M  V30 7025 C 674.299 -0.174797 -3.40452 0
M  V30 7026 H 675.492 -1.7163 -2.45933 0
M  V30 7027 H 673.045 -0.924993 -1.2599 0
M  V30 7028 H 673.78 0.760478 -3.15257 0
M  V30 7029 H 673.565 -0.88358 -3.82015 0
M  V30 7030 H 675.055 0.0405162 -4.1758 0
M  V30 7031 N 675.492 1.28418 -0.913599 0
M  V30 7032 C 676.739 1.94981 -0.546674 0
M  V30 7033 C 677.067 1.7192 0.909606 0
M  V30 7034 O 676.322 1.03314 1.66207 0
M  V30 7035 C 676.621 3.48283 -0.802099 0
M  V30 7036 C 676.287 3.91444 -2.2379 0
M  V30 7037 C 674.949 4.02939 -2.63046 0
M  V30 7038 C 677.301 4.13542 -3.17227 0
M  V30 7039 C 674.629 4.3391 -3.94891 0
M  V30 7040 C 676.981 4.45992 -4.48636 0
M  V30 7041 C 675.645 4.55698 -4.87746 0
M  V30 7042 H 674.915 0.713487 -0.200042 0
M  V30 7043 H 677.562 1.52756 -1.15489 0
M  V30 7044 H 675.867 3.91643 -0.111076 0
M  V30 7045 H 677.564 3.97903 -0.497375 0
M  V30 7046 H 674.154 3.83024 -1.9233 0
M  V30 7047 H 678.338 4.04114 -2.88107 0
M  V30 7048 H 673.594 4.39631 -4.24894 0
M  V30 7049 H 677.768 4.62038 -5.21051 0
M  V30 7050 H 675.395 4.79451 -5.89942 0
M  V30 7051 N 676.97 0.677563 1.42291 0
M  V30 7052 C 677.9 0.014968 2.33495 0
M  V30 7053 C 678.881 -0.786376 1.50831 0
M  V30 7054 O 680.066 -0.742975 1.79426 0
M  V30 7055 C 677.196 -0.935023 3.34477 0
M  V30 7056 C 676.15 -0.242074 4.27315 0
M  V30 7057 C 675.476 -1.30519 5.18526 0
M  V30 7058 C 676.776 0.880604 5.14823 0
M  V30 7059 H 678.47 0.776671 2.89151 0
M  V30 7060 H 676.016 0.37494 1.39033 0
M  V30 7061 H 677.969 -1.40766 3.97194 0
M  V30 7062 H 676.693 -1.72818 2.77131 0
M  V30 7063 H 675.352 0.210351 3.65996 0
M  V30 7064 H 675 -2.09041 4.57505 0
M  V30 7065 H 674.7 -0.846652 5.81468 0
M  V30 7066 H 676.224 -1.7787 5.84119 0
M  V30 7067 H 677.638 0.489062 5.7121 0
M  V30 7068 H 676.035 1.26511 5.86613 0
M  V30 7069 H 677.105 1.72818 4.53059 0
M  V30 7070 N 678.448 -1.51871 0.421078 0
M  V30 7071 C 679.395 -2.27334 -0.398508 0
M  V30 7072 C 680.365 -1.30241 -1.03085 0
M  V30 7073 O 681.55 -1.59121 -1.05285 0
M  V30 7074 C 678.69 -3.10664 -1.50272 0
M  V30 7075 C 677.803 -4.2273 -0.890122 0
M  V30 7076 C 676.938 -4.93399 -1.96803 0
M  V30 7077 C 675.977 -5.97409 -1.333 0
M  V30 7078 N 675.114 -6.61548 -2.35156 0
M  V30 7079 H 679.954 -2.96938 0.251411 0
M  V30 7080 H 677.491 -1.46472 0.135825 0
M  V30 7081 H 679.449 -3.57292 -2.15403 0
M  V30 7082 H 678.079 -2.43207 -2.1225 0
M  V30 7083 H 677.131 -3.80186 -0.127537 0
M  V30 7084 H 678.443 -4.97302 -0.386349 0
M  V30 7085 H 677.597 -5.43491 -2.69633 0
M  V30 7086 H 676.336 -4.18421 -2.50549 0
M  V30 7087 H 675.341 -5.46624 -0.59008 0
M  V30 7088 H 676.566 -6.74335 -0.803076 0
M  V30 7089 H 674.512 -5.89394 -2.88012 0
M  V30 7090 H 674.429 -7.31832 -1.89624 0
M  V30 7091 H 675.697 -7.16276 -3.0752 0
M  V30 7092 N 679.926 -0.151884 -1.56866 0
M  V30 7093 C 681.172 0.492327 -1.97352 0
M  V30 7094 C 681.527 1.62156 -1.03553 0
M  V30 7095 O 680.82 1.91467 -0.0714872 0
M  V30 7096 C 681.014 1.04074 -3.41911 0
M  V30 7097 C 680.843 -0.0338306 -4.49687 0
M  V30 7098 C 679.613 -0.476914 -5.03044 0
M  V30 7099 C 681.811 -0.827105 -5.07606 0
M  V30 7100 N 679.793 -1.53382 -5.9443 0
M  V30 7101 C 681.164 -1.73439 -5.95247 0
M  V30 7102 C 683.219 -0.874351 -4.90163 0
M  V30 7103 C 681.922 -2.68488 -6.67313 0
M  V30 7104 C 683.948 -1.81269 -5.62935 0
M  V30 7105 C 683.31 -2.70749 -6.50288 0
M  V30 7106 H 679.409 0.148822 -0.767708 0
M  V30 7107 H 681.993 -0.247615 -1.93119 0
M  V30 7108 H 680.164 1.75027 -3.46728 0
M  V30 7109 H 681.896 1.65197 -3.69448 0
M  V30 7110 H 678.651 -0.0782493 -4.73535 0
M  V30 7111 H 679.075 -2.06217 -6.44828 0
M  V30 7112 H 683.717 -0.196628 -4.22343 0
M  V30 7113 H 681.435 -3.37257 -7.34359 0
M  V30 7114 H 685.021 -1.85511 -5.51432 0
M  V30 7115 H 683.901 -3.42175 -7.0561 0
M  V30 7116 N 681.404 1.57128 0.121893 0
M  V30 7117 C 682.653 1.83888 0.828748 0
M  V30 7118 C 682.966 0.737087 1.81181 0
M  V30 7119 O 684.172 0.891007 2.56463 0
M  V30 7120 C 682.628 3.26014 1.52455 0
M  V30 7121 C 682.236 4.44195 0.58263 0
M  V30 7122 C 683.98 3.62025 2.21671 0
M  V30 7123 C 681.887 5.77349 1.28149 0
M  V30 7124 H 680.817 0.685856 0.313238 0
M  V30 7125 H 683.468 1.83319 0.0814851 0
M  V30 7126 H 681.85 3.21044 2.31834 0
M  V30 7127 H 683.024 4.60457 -0.177729 0
M  V30 7128 H 681.339 4.164 -0.00241228 0
M  V30 7129 H 683.936 4.58776 2.74643 0
M  V30 7130 H 684.279 2.89315 2.99337 0
M  V30 7131 H 684.812 3.68767 1.49184 0
M  V30 7132 H 681.551 6.53221 0.546189 0
M  V30 7133 H 681.071 5.64978 2.01394 0
M  V30 7134 H 682.75 6.21006 1.81549 0
M  V30 7135 N 682.882 -0.391992 1.52647 0
M  V30 7136 C 684.159 -1.15136 1.58123 0
M  V30 7137 C 684.539 -2.07786 0.372597 0
M  V30 7138 O 683.887 -2.19374 -0.639304 0
M  V30 7139 C 684.097 -1.91367 2.91856 0
M  V30 7140 C 685.445 -2.46833 3.45483 0
M  V30 7141 O 686.469 -2.01527 2.9371 0
M  V30 7142 O 685.328 -3.29587 4.3593 0
M  V30 7143 H 682.422 -0.526649 0.637629 0
M  V30 7144 H 684.968 -0.397386 1.64982 0
M  V30 7145 H 683.74 -1.23597 3.71268 0
M  V30 7146 H 683.363 -2.73732 2.88369 0
M  V30 7147 N 684.36 -1.4356 -0.65026 0
M  V30 7148 C 685.776 -1.27025 -0.966269 0
M  V30 7149 C 685.976 -0.192117 -2.00582 0
M  V30 7150 O 685.032 0.428459 -2.48838 0
M  V30 7151 C 686.345 -2.63556 -1.44772 0
M  V30 7152 C 687.893 -2.71111 -1.56421 0
M  V30 7153 C 688.368 -4.08067 -2.07956 0
M  V30 7154 N 689.859 -4.10146 -2.15254 0
M  V30 7155 C 690.594 -5.12952 -2.56258 0
M  V30 7156 N 690.09 -6.26129 -2.96537 0
M  V30 7157 N 691.883 -5.00306 -2.56224 0
M  V30 7158 H 684.034 -2.12367 0.0375758 0
M  V30 7159 H 686.297 -0.946894 -0.0457782 0
M  V30 7160 H 686.003 -3.43429 -0.758271 0
M  V30 7161 H 685.877 -2.89152 -2.42221 0
M  V30 7162 H 688.264 -1.91569 -2.24467 0
M  V30 7163 H 688.345 -2.49277 -0.573967 0
M  V30 7164 H 687.989 -4.88077 -1.40511 0
M  V30 7165 H 687.919 -4.27266 -3.07817 0
M  V30 7166 H 690.41 -3.28453 -1.86887 0
M  V30 7167 H 690.723 -7.00403 -3.26582 0
M  V30 7168 H 689.068 -6.29597 -2.94334 0
M  V30 7169 H 692.259 -4.10952 -2.24135 0
M  V30 7170 H 692.432 -5.80553 -2.87857 0
M  V30 7171 N 685.838 0.888903 -1.30139 0
M  V30 7172 C 687.063 1.67884 -1.21777 0
M  V30 7173 C 687.488 1.86848 0.216689 0
M  V30 7174 O 686.846 1.39659 1.15608 0
M  V30 7175 C 686.894 3.03483 -1.94757 0
M  V30 7176 O 685.998 3.92294 -1.27198 0
M  V30 7177 H 685.339 0.513144 -0.421402 0
M  V30 7178 H 687.869 1.10968 -1.71893 0
M  V30 7179 H 687.879 3.53553 -2.03627 0
M  V30 7180 H 686.554 2.89 -2.99085 0
M  V30 7181 H 685.131 3.50732 -1.26655 0
M  V30 7182 N 687.317 1.12792 1.10072 0
M  V30 7183 C 688.25 0.742921 2.15768 0
M  V30 7184 C 689.228 -0.267714 1.60381 0
M  V30 7185 O 690.412 -0.160782 1.87813 0
M  V30 7186 C 687.539 0.100244 3.38552 0
M  V30 7187 C 686.585 1.07831 4.12644 0
M  V30 7188 S 687.418 2.60765 4.6772 0
M  V30 7189 C 688.574 1.97838 5.9381 0
M  V30 7190 H 688.807 1.63822 2.48092 0
M  V30 7191 H 686.34 0.947385 1.21918 0
M  V30 7192 H 688.298 -0.264175 4.09649 0
M  V30 7193 H 686.959 -0.772223 3.04459 0
M  V30 7194 H 686.152 0.576325 5.00694 0
M  V30 7195 H 685.754 1.38586 3.47376 0
M  V30 7196 H 688.046 1.32341 6.64449 0
M  V30 7197 H 688.989 2.83943 6.48677 0
M  V30 7198 H 689.397 1.43267 5.46017 0
M  V30 7199 N 688.795 -1.27931 0.920396 0
M  V30 7200 C 689.742 -2.27085 0.412422 0
M  V30 7201 C 690.712 -1.57858 -0.516725 0
M  V30 7202 O 691.897 -1.85717 -0.437475 0
M  V30 7203 C 689.037 -3.43466 -0.335399 0
M  V30 7204 C 688.15 -4.27425 0.627017 0
M  V30 7205 C 687.285 -5.31016 -0.139916 0
M  V30 7206 C 686.324 -6.06641 0.815683 0
M  V30 7207 N 685.461 -7.02052 0.0818439 0
M  V30 7208 H 690.301 -2.69913 1.26298 0
M  V30 7209 H 687.838 -1.32732 0.634076 0
M  V30 7210 H 689.796 -4.09744 -0.785226 0
M  V30 7211 H 688.426 -3.01611 -1.15025 0
M  V30 7212 H 687.478 -3.6113 1.19537 0
M  V30 7213 H 688.79 -4.79969 1.35763 0
M  V30 7214 H 687.944 -6.03208 -0.649998 0
M  V30 7215 H 686.683 -4.79257 -0.903543 0
M  V30 7216 H 685.688 -5.33294 1.33708 0
M  V30 7217 H 686.913 -6.60489 1.57897 0
M  V30 7218 H 684.859 -6.52634 -0.663671 0
M  V30 7219 H 684.776 -7.52249 0.752163 0
M  V30 7220 H 686.044 -7.78432 -0.407825 0
M  V30 7221 N 690.273 -0.685099 -1.4193 0
M  V30 7222 C 691.501 -0.220372 -2.05723 0
M  V30 7223 C 691.916 1.12642 -1.51516 0
M  V30 7224 O 691.273 1.70182 -0.659114 0
M  V30 7225 C 691.324 -0.157974 -3.61155 0
M  V30 7226 O 691.045 -1.45156 -4.13354 0
M  V30 7227 C 692.546 0.329009 -4.42077 0
M  V30 7228 H 689.766 -0.104725 -0.662777 0
M  V30 7229 H 692.31 -0.934736 -1.81887 0
M  V30 7230 H 690.465 0.507144 -3.84066 0
M  V30 7231 H 690.879 -1.33172 -5.07312 0
M  V30 7232 H 692.353 0.321559 -5.51063 0
M  V30 7233 H 692.83 1.36608 -4.17414 0
M  V30 7234 H 693.436 -0.304737 -4.24207 0
M  V30 7235 N 691.751 1.51645 -0.429126 0
M  V30 7236 C 693.167 1.59394 -0.080994 0
M  V30 7237 C 693.367 1.44064 1.40882 0
M  V30 7238 O 692.423 1.27771 2.17786 0
M  V30 7239 C 693.736 2.94779 -0.593773 0
M  V30 7240 C 695.284 3.08067 -0.553494 0
M  V30 7241 C 695.759 4.45963 -1.04311 0
M  V30 7242 N 697.25 4.5226 -1.00076 0
M  V30 7243 C 697.985 5.57268 -1.35056 0
M  V30 7244 N 697.481 6.69734 -1.77282 0
M  V30 7245 N 699.274 5.47582 -1.26925 0
M  V30 7246 H 691.425 1.59856 -1.39857 0
M  V30 7247 H 693.688 0.753095 -0.575805 0
M  V30 7248 H 693.394 3.11342 -1.63583 0
M  V30 7249 H 693.268 3.77197 -0.0142202 0
M  V30 7250 H 695.655 2.91177 0.479556 0
M  V30 7251 H 695.736 2.27508 -1.16935 0
M  V30 7252 H 695.38 4.63598 -2.07459 0
M  V30 7253 H 695.31 5.25049 -0.403873 0
M  V30 7254 H 697.801 3.71537 -0.690564 0
M  V30 7255 H 698.114 7.4587 -2.02232 0
M  V30 7256 H 696.459 6.70963 -1.81202 0
M  V30 7257 H 699.65 4.58604 -0.93809 0
M  V30 7258 H 699.823 6.29308 -1.54516 0
M  V30 7259 N 693.229 0.160201 1.56784 0
M  V30 7260 C 694.477 -0.486625 1.96154 0
M  V30 7261 C 694.798 -1.64525 1.04673 0
M  V30 7262 O 694.068 -1.95586 0.110864 0
M  V30 7263 H 692.648 -0.182764 0.724297 0
M  V30 7264 H 695.31 0.238787 1.93432 0
M  V30 7265 H 694.406 -0.854025 3.00188 0
M  V30 7266 N 694.707 -1.5719 -0.113559 0
M  V30 7267 C 695.637 -2.03772 -1.14013 0
M  V30 7268 C 696.618 -0.923176 -1.42869 0
M  V30 7269 O 697.803 -1.19325 -1.53216 0
M  V30 7270 C 694.933 -2.44663 -2.4649 0
M  V30 7271 C 693.887 -3.59612 -2.32085 0
M  V30 7272 C 693.213 -3.8642 -3.69573 0
M  V30 7273 C 694.513 -4.91149 -1.7768 0
M  V30 7274 H 696.207 -2.89785 -0.752665 0
M  V30 7275 H 693.753 -1.39412 -0.360609 0
M  V30 7276 H 695.706 -2.75857 -3.18561 0
M  V30 7277 H 694.43 -1.55628 -2.87137 0
M  V30 7278 H 693.089 -3.28636 -1.62461 0
M  V30 7279 H 692.737 -2.94581 -4.07715 0
M  V30 7280 H 692.437 -4.63797 -3.60786 0
M  V30 7281 H 693.961 -4.2007 -4.4314 0
M  V30 7282 H 695.375 -5.20843 -2.39574 0
M  V30 7283 H 693.772 -5.72562 -1.79701 0
M  V30 7284 H 694.842 -4.79301 -0.734776 0
M  V30 7285 N 696.185 0.383891 -1.52853 0
M  V30 7286 C 697.596 0.961591 -1.60032 0
M  V30 7287 C 697.947 1.90819 -0.456333 0
M  V30 7288 O 697.072 2.12288 0.419873 0
M  V30 7289 C 697.667 1.75078 -2.90057 0
M  V30 7290 C 696.226 2.2781 -2.99632 0
M  V30 7291 C 695.373 1.08512 -2.55187 0
M  V30 7292 H 698.324 0.163269 -1.57858 0
M  V30 7293 H 698.345 2.61046 -2.7683 0
M  V30 7294 H 697.857 1.06157 -3.73299 0
M  V30 7295 H 695.958 3.00028 -2.20939 0
M  V30 7296 H 696.071 2.56947 -4.0437 0
M  V30 7297 H 694.435 1.44667 -2.09627 0
M  V30 7298 H 695.218 0.41118 -3.40829 0
M  V30 7299 N 697.663 1.43903 0.642637 0
M  V30 7300 C 698.61 1.49881 1.75512 0
M  V30 7301 C 699.58 0.347538 1.62423 0
M  V30 7302 O 700.765 0.556177 1.82514 0
M  V30 7303 C 697.905 1.43797 3.13714 0
M  V30 7304 C 697.018 2.6921 3.37861 0
M  V30 7305 C 696.153 2.5504 4.6597 0
M  V30 7306 C 695.192 3.75671 4.83257 0
M  V30 7307 N 694.329 3.60247 6.02633 0
M  V30 7308 H 699.169 2.44935 1.69737 0
M  V30 7309 H 696.706 1.21572 0.828165 0
M  V30 7310 H 698.664 1.38262 3.93624 0
M  V30 7311 H 697.294 0.523173 3.18532 0
M  V30 7312 H 696.346 2.8498 2.51973 0
M  V30 7313 H 697.658 3.58786 3.46517 0
M  V30 7314 H 696.812 2.47273 5.54023 0
M  V30 7315 H 695.551 1.63006 4.59653 0
M  V30 7316 H 694.556 3.83836 3.93637 0
M  V30 7317 H 695.781 4.68728 4.91397 0
M  V30 7318 H 693.727 2.70955 5.97427 0
M  V30 7319 H 693.644 4.43431 6.12295 0
M  V30 7320 H 694.912 3.56351 6.93278 0
M  V30 7321 N 699.141 -0.881989 1.30609 0
M  V30 7322 C 700.104 -1.96957 1.1722 0
M  V30 7323 C 701.104 -1.60472 0.102598 0
M  V30 7324 O 702.294 -1.70628 0.350943 0
M  V30 7325 C 699.426 -3.31463 0.796572 0
M  V30 7326 H 700.619 -2.10262 2.13846 0
M  V30 7327 H 698.172 -1.06877 1.14048 0
M  V30 7328 H 698.907 -3.23859 -0.169053 0
M  V30 7329 H 698.692 -3.59314 1.56959 0
M  V30 7330 H 700.182 -4.11233 0.72645 0
M  V30 7331 N 700.619 -1.13374 -1.09472 0
M  V30 7332 C 701.566 -0.810682 -2.16094 0
M  V30 7333 C 702.536 0.227003 -1.64541 0
M  V30 7334 O 703.721 0.0993538 -1.90541 0
M  V30 7335 C 700.861 -0.282336 -3.43943 0
M  V30 7336 C 699.974 -1.37902 -4.09398 0
M  V30 7337 C 699.109 -0.809066 -5.25002 0
M  V30 7338 C 698.148 -1.88419 -5.82379 0
M  V30 7339 N 697.285 -1.33221 -6.89345 0
M  V30 7340 H 702.125 -1.72397 -2.43071 0
M  V30 7341 H 699.662 -0.860564 -1.19301 0
M  V30 7342 H 701.62 0.0421189 -4.17179 0
M  V30 7343 H 700.25 0.594083 -3.17286 0
M  V30 7344 H 699.302 -1.82008 -3.34032 0
M  V30 7345 H 700.614 -2.19161 -4.48074 0
M  V30 7346 H 699.768 -0.435867 -6.05132 0
M  V30 7347 H 698.507 0.0346058 -4.87688 0
M  V30 7348 H 697.512 -2.26646 -5.00911 0
M  V30 7349 H 698.737 -2.73125 -6.21755 0
M  V30 7350 H 696.683 -0.510535 -6.5401 0
M  V30 7351 H 696.6 -2.08129 -7.26786 0
M  V30 7352 H 697.868 -0.986565 -7.73232 0
M  V30 7353 N 702.098 1.27442 -0.927168 0
M  V30 7354 C 703.323 1.99036 -0.583042 0
M  V30 7355 C 703.748 1.68711 0.83176 0
M  V30 7356 O 703.106 0.927081 1.55804 0
M  V30 7357 C 703.154 3.51271 -0.814925 0
M  V30 7358 O 702.258 4.12226 0.119742 0
M  V30 7359 H 701.599 0.624883 -0.224538 0
M  V30 7360 H 704.129 1.62263 -1.24628 0
M  V30 7361 H 704.139 4.01411 -0.730282 0
M  V30 7362 H 702.814 3.72676 -1.84623 0
M  V30 7363 H 701.391 3.72897 -0.0147688 0
M  V30 7364 N 703.576 0.692616 1.41565 0
M  V30 7365 C 704.526 0.00231847 2.28 0
M  V30 7366 C 705.51 -0.755793 1.42044 0
M  V30 7367 O 706.702 -0.631772 1.65341 0
M  V30 7368 C 703.831 -0.935468 3.30309 0
M  V30 7369 C 702.917 -0.173761 4.23744 0
M  V30 7370 N 703.308 0.830872 4.98929 0
M  V30 7371 C 701.606 -0.409666 4.44115 0
M  V30 7372 C 702.307 1.28656 5.67294 0
M  V30 7373 N 701.283 0.613053 5.40132 0
M  V30 7374 H 705.085 0.772635 2.83562 0
M  V30 7375 H 702.599 0.523198 1.53741 0
M  V30 7376 H 704.596 -1.44513 3.91052 0
M  V30 7377 H 703.256 -1.70542 2.76307 0
M  V30 7378 H 704.267 1.21101 5.03542 0
M  V30 7379 H 700.944 -1.15773 4.01127 0
M  V30 7380 H 702.334 2.12006 6.37576 0
M  V30 7381 N 705.054 -1.51416 0.437162 0
M  V30 7382 C 706.017 -2.26312 -0.362729 0
M  V30 7383 C 707.017 -1.29748 -0.949847 0
M  V30 7384 O 708.207 -1.53462 -0.824325 0
M  V30 7385 C 705.339 -3.05475 -1.5132 0
M  V30 7386 H 706.532 -2.98459 0.29365 0
M  V30 7387 H 704.085 -1.55137 0.190327 0
M  V30 7388 H 704.82 -2.37744 -2.20563 0
M  V30 7389 H 704.605 -3.76401 -1.09838 0
M  V30 7390 H 706.095 -3.62209 -2.07833 0
M  V30 7391 N 706.532 -0.168513 -1.56696 0
M  V30 7392 C 707.943 0.348694 -1.83415 0
M  V30 7393 C 708.294 1.63257 -1.0882 0
M  V30 7394 O 707.419 2.13707 -0.340333 0
M  V30 7395 C 708.014 0.639423 -3.32711 0
M  V30 7396 C 706.573 1.10108 -3.59935 0
M  V30 7397 C 705.72 0.135464 -2.76969 0
M  V30 7398 H 708.671 -0.392829 -1.53761 0
M  V30 7399 H 708.692 1.49179 -3.50037 0
M  V30 7400 H 708.204 -0.295173 -3.86976 0
M  V30 7401 H 706.305 2.05088 -3.11079 0
M  V30 7402 H 706.418 1.01218 -4.68286 0
M  V30 7403 H 704.782 0.632286 -2.46727 0
M  V30 7404 H 705.565 -0.793104 -3.34013 0
M  V30 7405 N 708.01 1.57248 0.105221 0
M  V30 7406 C 708.92 2.04653 1.14693 0
M  V30 7407 C 709.936 0.969488 1.44489 0
M  V30 7408 O 711.112 1.28196 1.55331 0
M  V30 7409 C 708.177 2.45297 2.45011 0
M  V30 7410 C 707.238 3.67148 2.22489 0
M  V30 7411 C 706.471 4.05844 3.46592 0
M  V30 7412 O 706.694 3.44736 4.54437 0
M  V30 7413 O 705.628 4.98862 3.36779 0
M  V30 7414 H 709.454 2.93663 0.774336 0
M  V30 7415 H 707.039 1.45998 0.31701 0
M  V30 7416 H 708.921 2.72112 3.21766 0
M  V30 7417 H 707.596 1.59429 2.81717 0
M  V30 7418 H 706.503 3.45463 1.43547 0
M  V30 7419 H 707.836 4.53764 1.9068 0
M  V30 7420 N 709.488 -0.375779 1.53054 0
M  V30 7421 C 710.734 -1.12114 1.68992 0
M  V30 7422 C 711.067 -1.8926 0.435238 0
M  V30 7423 O 710.342 -1.86044 -0.567278 0
M  V30 7424 C 710.625 -2.08867 2.93337 0
M  V30 7425 C 710.478 -1.35397 4.28938 0
M  V30 7426 C 711.797 -3.09124 3.13257 0
M  V30 7427 H 708.916 -0.406207 0.614951 0
M  V30 7428 H 711.558 -0.403054 1.85676 0
M  V30 7429 H 709.708 -2.70102 2.79244 0
M  V30 7430 H 711.38 -0.770242 4.54824 0
M  V30 7431 H 709.623 -0.655801 4.28814 0
M  V30 7432 H 710.294 -2.06161 5.12056 0
M  V30 7433 H 712.77 -2.57987 3.26469 0
M  V30 7434 H 711.646 -3.74054 4.01715 0
M  V30 7435 H 711.907 -3.78729 2.28072 0
M  V30 7436 N 710.966 -1.44241 -0.634997 0
M  V30 7437 C 712.215 -1.46102 -1.39058 0
M  V30 7438 C 712.528 -0.0959909 -1.95364 0
M  V30 7439 O 713.734 0.00788751 -2.71499 0
M  V30 7440 C 712.19 -2.57195 -2.51751 0
M  V30 7441 C 711.798 -3.99888 -2.01974 0
M  V30 7442 C 713.542 -2.68272 -3.28984 0
M  V30 7443 C 711.449 -5.02412 -3.11987 0
M  V30 7444 H 710.379 -0.543556 -0.522554 0
M  V30 7445 H 713.03 -1.70294 -0.683538 0
M  V30 7446 H 711.412 -2.26237 -3.25012 0
M  V30 7447 H 712.586 -4.40396 -1.35604 0
M  V30 7448 H 710.901 -3.93019 -1.37568 0
M  V30 7449 H 713.498 -3.42042 -4.10988 0
M  V30 7450 H 713.841 -1.73957 -3.78212 0
M  V30 7451 H 714.374 -2.98622 -2.62812 0
M  V30 7452 H 711.113 -5.98342 -2.67707 0
M  V30 7453 H 710.633 -4.66501 -3.77011 0
M  V30 7454 H 712.312 -5.25939 -3.76825 0
M  V30 7455 N 712.444 0.87505 -1.31075 0
M  V30 7456 C 713.672 1.66058 -1.23419 0
M  V30 7457 C 714.087 1.87723 0.201347 0
M  V30 7458 O 713.444 1.43178 1.13165 0
M  V30 7459 C 713.495 3.03142 -1.96945 0
M  V30 7460 O 713.216 2.82448 -3.34895 0
M  V30 7461 C 714.717 3.97583 -1.96067 0
M  V30 7462 H 711.937 0.517868 -0.426677 0
M  V30 7463 H 714.481 1.09258 -1.72867 0
M  V30 7464 H 712.636 3.56645 -1.51271 0
M  V30 7465 H 713.05 3.69483 -3.72267 0
M  V30 7466 H 714.524 4.91104 -2.52034 0
M  V30 7467 H 715.001 4.2898 -0.941961 0
M  V30 7468 H 715.607 3.50015 -2.41597 0
M  V30 7469 N 713.922 1.13953 1.08869 0
M  V30 7470 C 715.147 0.928559 1.85452 0
M  V30 7471 C 715.572 -0.517642 1.80837 0
M  V30 7472 O 714.93 -1.36779 1.19001 0
M  V30 7473 C 714.978 1.42814 3.31114 0
M  V30 7474 O 714.082 0.617129 4.07756 0
M  V30 7475 H 713.423 0.33235 0.574839 0
M  V30 7476 H 715.953 1.5156 1.37443 0
M  V30 7477 H 715.963 1.43425 3.8196 0
M  V30 7478 H 714.638 2.48109 3.33788 0
M  V30 7479 H 713.215 0.679365 3.66659 0
M  V30 7480 N 715.4 -1.26948 0.933913 0
M  V30 7481 C 716.625 -1.98724 0.593589 0
M  V30 7482 C 717.05 -1.6915 -0.822801 0
M  V30 7483 O 716.408 -0.93533 -1.5531 0
M  V30 7484 C 716.456 -3.50834 0.833542 0
M  V30 7485 O 715.56 -4.12284 -0.0978788 0
M  V30 7486 H 714.901 -0.623683 0.227849 0
M  V30 7487 H 717.431 -1.61599 1.25486 0
M  V30 7488 H 717.441 -4.01018 0.75156 0
M  V30 7489 H 716.116 -3.71691 1.86597 0
M  V30 7490 H 714.693 -3.72884 0.0345443 0
M  V30 7491 N 716.879 -0.700114 -1.41195 0
M  V30 7492 C 718.29 -0.307249 -1.84154 0
M  V30 7493 C 718.641 1.15539 -1.58572 0
M  V30 7494 O 717.766 1.88744 -1.05852 0
M  V30 7495 C 718.361 -0.550872 -3.34292 0
M  V30 7496 C 716.92 -0.211877 -3.75803 0
M  V30 7497 C 716.067 -0.830915 -2.64558 0
M  V30 7498 H 719.018 -0.900431 -1.30683 0
M  V30 7499 H 719.039 0.188954 -3.80031 0
M  V30 7500 H 718.551 -1.61548 -3.5288 0
M  V30 7501 H 716.652 0.848283 -3.62815 0
M  V30 7502 H 716.765 -0.67007 -4.74391 0
M  V30 7503 H 715.129 -0.260155 -2.53368 0
M  V30 7504 H 715.912 -1.89948 -2.85963 0
M  V30 7505 N 718.357 1.51182 -0.445186 0
M  V30 7506 C 719.287 2.30821 0.352686 0
M  V30 7507 C 720.268 1.36576 1.01395 0
M  V30 7508 O 721.453 1.65497 1.01609 0
M  V30 7509 C 718.583 3.15593 1.44976 0
M  V30 7510 C 717.537 4.1818 0.911553 0
M  V30 7511 C 716.863 4.91523 2.10497 0
M  V30 7512 C 718.163 5.22266 -0.059418 0
M  V30 7513 H 719.857 2.97771 -0.311936 0
M  V30 7514 H 717.403 1.43201 -0.151461 0
M  V30 7515 H 719.356 3.70091 2.01521 0
M  V30 7516 H 718.08 2.4648 2.14278 0
M  V30 7517 H 716.739 3.64746 0.368264 0
M  V30 7518 H 716.387 4.18906 2.78437 0
M  V30 7519 H 716.087 5.60898 1.7512 0
M  V30 7520 H 717.611 5.48847 2.6758 0
M  V30 7521 H 719.025 5.71789 0.415985 0
M  V30 7522 H 717.422 5.99213 -0.326152 0
M  V30 7523 H 718.492 4.7461 -0.993631 0
M  V30 7524 N 719.835 0.176821 1.56605 0
M  V30 7525 C 720.782 -0.751312 2.18229 0
M  V30 7526 C 721.752 -1.22297 1.12395 0
M  V30 7527 O 722.937 -1.29015 1.40569 0
M  V30 7528 C 720.077 -1.97291 2.83143 0
M  V30 7529 C 719.19 -1.54431 4.03454 0
M  V30 7530 C 718.325 -2.72 4.56278 0
M  V30 7531 C 717.364 -2.25657 5.68986 0
M  V30 7532 N 716.501 -3.36338 6.16296 0
M  V30 7533 H 721.341 -0.219033 2.97194 0
M  V30 7534 H 718.878 -0.0963803 1.46784 0
M  V30 7535 H 720.836 -2.68949 3.1894 0
M  V30 7536 H 719.466 -2.4788 2.06773 0
M  V30 7537 H 718.518 -0.724273 3.73441 0
M  V30 7538 H 719.83 -1.16417 4.85024 0
M  V30 7539 H 718.984 -3.51806 4.94285 0
M  V30 7540 H 717.723 -3.13277 3.73777 0
M  V30 7541 H 716.728 -1.44299 5.30526 0
M  V30 7542 H 717.953 -1.85432 6.53293 0
M  V30 7543 H 715.899 -3.7718 5.36723 0
M  V30 7544 H 715.816 -3.02435 6.9287 0
M  V30 7545 H 717.084 -4.16413 6.58954 0
M  V30 7546 O 721.352 -1.61453 0.0391262 0
M  V30 7547 H 722.043 -1.85062 -0.571999 0
M  V30 END ATOM
M  V30 BEGIN BOND
M  V30 END BOND
M  V30 END CTAB
M  END
$$$$
