drugbank_target|Q9NY46 Sodium channel protein type 3 subunit alpha (DB00273; DB00555; DB00564; DB01069; DB09085; DB09088; DB09342; DB09345; DB11186; DB13746)
 OpenBabel12092120043D

  0  0  0     0  0            999 V3000
M  V30 BEGIN CTAB
M  V30 COUNTS 31853 32198 0 0 0
M  V30 BEGIN ATOM
M  V30 1 H -0.908 1.98254 -0.117106 0
M  V30 2 N 0 1.576 0 0
M  V30 3 C 0.933 2.03868 1.02534 0
M  V30 4 C 1.911 0.928543 1.3348 0
M  V30 5 O 3.095 1.19667 1.45644 0
M  V30 6 C 0.222 2.43627 2.35294 0
M  V30 7 C -0.732 3.65373 2.2001 0
M  V30 8 S 0.101 5.13292 1.52614 0
M  V30 9 C 1.257 5.56322 2.86805 0
M  V30 10 H 1.49 2.90518 0.631377 0
M  V30 11 H -0.977 1.52953 0.210867 0
M  V30 12 H 0.981 2.67203 3.11629 0
M  V30 13 H -0.358 1.57376 2.7183 0
M  V30 14 H -1.165 3.90944 3.18086 0
M  V30 15 H -1.563 3.418 1.51819 0
M  V30 16 H 0.729 5.58782 3.83104 0
M  V30 17 H 1.672 6.56266 2.65933 0
M  V30 18 H 2.08 4.83886 2.90714 0
M  V30 19 N 1.4781 -0.272755 1.55222 0
M  V30 20 C 2.4411 -1.32041 1.87344 0
M  V30 21 C 3.4411 -1.42342 0.74803 0
M  V30 22 O 4.6311 -1.41488 1.0162 0
M  V30 23 C 1.7631 -2.70173 2.07893 0
M  V30 24 H 2.9561 -1.04789 2.80997 0
M  V30 25 H 0.5091 -0.51083 1.47717 0
M  V30 26 H 1.2441 -3.02605 1.16622 0
M  V30 27 H 1.0291 -2.64082 2.89833 0
M  V30 28 H 2.5191 -3.45869 2.34017 0
M  V30 29 N 2.9562 -1.48159 -0.537278 0
M  V30 30 C 3.8882 -1.58218 -1.65831 0
M  V30 31 C 4.9012 -0.466948 -1.5596 0
M  V30 32 O 6.0902 -0.73747 -1.62553 0
M  V30 33 C 3.1902 -1.48906 -3.04434 0
M  V30 34 C 2.3632 -2.75343 -3.3986 0
M  V30 35 C 1.4222 -2.59588 -4.57712 0
M  V30 36 O 0.4482 -3.33457 -4.61297 0
M  V30 37 N 1.6502 -1.68724 -5.55439 0
M  V30 38 H 4.4152 -2.54891 -1.57641 0
M  V30 39 H 1.9762 -1.4479 -0.724386 0
M  V30 40 H 3.9682 -1.36072 -3.81139 0
M  V30 41 H 2.5382 -0.602368 -3.06741 0
M  V30 42 H 1.7582 -3.02795 -2.52406 0
M  V30 43 H 3.0462 -3.5924 -3.60311 0
M  V30 44 H 2.4442 -1.07898 -5.55315 0
M  V30 45 H 1.0012 -1.61832 -6.3139 0
M  V30 46 N 4.4343 0.785586 -1.36625 0
M  V30 47 C 5.3973 1.87999 -1.31107 0
M  V30 48 C 6.3973 1.59316 -0.217959 0
M  V30 49 O 7.5873 1.67656 -0.472977 0
M  V30 50 C 4.7193 3.24861 -1.03334 0
M  V30 51 H 5.9123 1.94307 -2.2844 0
M  V30 52 H 3.4653 0.983813 -1.21453 0
M  V30 53 H 4.2003 3.24235 -0.0647432 0
M  V30 54 H 3.9853 3.4707 -1.82441 0
M  V30 55 H 5.4753 4.04929 -1.02088 0
M  V30 56 N 5.9124 1.20967 1.01018 0
M  V30 57 C 6.8424 0.988272 2.11555 0
M  V30 58 C 7.8234 -0.0849778 1.69888 0
M  V30 59 O 9.0084 0.0738202 1.9406 0
M  V30 60 C 6.1384 0.546528 3.42973 0
M  V30 61 C 5.0924 1.56375 3.9841 0
M  V30 62 C 4.4184 0.97842 5.25672 0
M  V30 63 C 5.7184 2.94922 4.31066 0
M  V30 64 H 7.4124 1.91276 2.30334 0
M  V30 65 H 4.9584 0.921073 1.1069 0
M  V30 66 H 6.9114 0.378839 4.19694 0
M  V30 67 H 5.6354 -0.413598 3.23971 0
M  V30 68 H 4.2944 1.71891 3.23804 0
M  V30 69 H 3.9424 0.0101688 5.02999 0
M  V30 70 H 3.6424 1.65784 5.63728 0
M  V30 71 H 5.1664 0.821939 6.05043 0
M  V30 72 H 6.5804 2.8288 4.9865 0
M  V30 73 H 4.9774 3.5983 4.80253 0
M  V30 74 H 6.0474 3.4616 3.39561 0
M  V30 75 N 7.3905 -1.2043 1.01659 0
M  V30 76 C 8.3205 -2.25466 0.607226 0
M  V30 77 C 9.3015 -1.65853 -0.377716 0
M  V30 78 O 10.4865 -1.92409 -0.263149 0
M  V30 79 C 7.6165 -3.47256 -0.0552949 0
M  V30 80 C 6.5705 -4.19462 0.850632 0
M  V30 81 C 5.8965 -5.34673 0.0538859 0
M  V30 82 C 7.1965 -4.75603 2.15868 0
M  V30 83 H 8.8905 -2.59962 1.48526 0
M  V30 84 H 6.4365 -1.2496 0.715605 0
M  V30 85 H 8.3895 -4.19917 -0.353233 0
M  V30 86 H 7.1135 -3.11924 -0.968045 0
M  V30 87 H 5.7725 -3.48667 1.13257 0
M  V30 88 H 5.4205 -4.95585 -0.860514 0
M  V30 89 H 5.1205 -5.83913 0.657192 0
M  V30 90 H 6.6445 -6.10138 -0.237598 0
M  V30 91 H 8.0585 -5.40083 1.92311 0
M  V30 92 H 6.4555 -5.3528 2.71284 0
M  V30 93 H 7.5255 -3.94346 2.82169 0
M  V30 94 N 8.8686 -0.792821 -1.36206 0
M  V30 95 C 10.1146 -0.36733 -1.99446 0
M  V30 96 C 10.4476 1.05917 -1.62774 0
M  V30 97 O 9.7226 1.7324 -0.88421 0
M  V30 98 C 10.0056 -0.535044 -3.56103 0
M  V30 99 C 9.8586 -2.00548 -4.02617 0
M  V30 100 C 11.1776 0.0478191 -4.40074 0
M  V30 101 H 8.2966 -0.134941 -0.724541 0
M  V30 102 H 10.9386 -0.999794 -1.61568 0
M  V30 103 H 9.0886 0.00336329 -3.885 0
M  V30 104 H 10.7606 -2.60521 -3.80692 0
M  V30 105 H 9.0036 -2.50686 -3.54032 0
M  V30 106 H 9.6746 -2.07377 -5.11565 0
M  V30 107 H 12.1506 -0.411822 -4.14057 0
M  V30 108 H 11.0266 -0.0995336 -5.4881 0
M  V30 109 H 11.2876 1.14025 -4.27142 0
M  V30 110 N 10.3467 1.47872 -0.545128 0
M  V30 111 C 11.7577 1.86384 -0.108581 0
M  V30 112 C 12.1087 1.45309 1.31832 0
M  V30 113 O 11.2337 0.850641 1.9898 0
M  V30 114 C 11.8287 3.38265 -0.190274 0
M  V30 115 C 10.3877 3.75914 0.191164 0
M  V30 116 C 9.5347 2.71926 -0.543273 0
M  V30 117 H 12.4857 1.39561 -0.755537 0
M  V30 118 H 12.5067 3.75831 0.594217 0
M  V30 119 H 12.0187 3.6813 -1.2289 0
M  V30 120 H 10.1197 3.51665 1.23136 0
M  V30 121 H 10.2327 4.78836 -0.158987 0
M  V30 122 H 8.5967 2.54697 0.0122495 0
M  V30 123 H 9.3797 3.04634 -1.58282 0
M  V30 124 N 11.8248 0.280983 1.55075 0
M  V30 125 C 13.2358 -0.215629 1.85451 0
M  V30 126 C 13.5868 -1.54991 1.203 0
M  V30 127 O 12.7118 -2.10699 0.493435 0
M  V30 128 C 13.3068 -0.398026 3.36454 0
M  V30 129 C 11.8658 -0.838866 3.66933 0
M  V30 130 C 11.0128 0.064458 2.77225 0
M  V30 131 H 13.9638 0.502601 1.50531 0
M  V30 132 H 13.9848 -1.23569 3.59876 0
M  V30 133 H 13.4968 0.573241 3.83843 0
M  V30 134 H 11.5978 -1.8214 3.25048 0
M  V30 135 H 11.7108 -0.672123 4.74362 0
M  V30 136 H 10.0748 -0.452863 2.50642 0
M  V30 137 H 10.8578 1.03172 3.2743 0
M  V30 138 N 13.3029 -1.57598 0.00835791 0
M  V30 139 C 14.5509 -1.90551 -0.6734 0
M  V30 140 C 14.8719 -0.883301 -1.73847 0
M  V30 141 O 14.1419 0.0781442 -1.95744 0
M  V30 142 H 12.7219 -0.703312 -0.251717 0
M  V30 143 H 15.3839 -1.94833 0.0512592 0
M  V30 144 H 14.4799 -2.9056 -1.13935 0
M  V30 145 N 14.781 0.264519 -1.55364 0
M  V30 146 C 16.192 0.834936 -1.6699 0
M  V30 147 C 16.543 1.86718 -0.602552 0
M  V30 148 O 15.668 2.14899 0.254425 0
M  V30 149 C 16.263 1.5212 -3.02729 0
M  V30 150 C 14.822 2.03954 -3.16354 0
M  V30 151 C 13.969 0.884498 -2.62815 0
M  V30 152 H 16.92 0.0406869 -1.58648 0
M  V30 153 H 16.941 2.38853 -2.96191 0
M  V30 154 H 16.453 0.769668 -3.80392 0
M  V30 155 H 14.554 2.82041 -2.43482 0
M  V30 156 H 14.667 2.24902 -4.23032 0
M  V30 157 H 13.031 1.2802 -2.20188 0
M  V30 158 H 13.814 0.14634 -3.42988 0
M  V30 159 N 16.2591 1.48442 0.529413 0
M  V30 160 C 17.1691 1.6569 1.66084 0
M  V30 161 C 18.1851 0.539432 1.65427 0
M  V30 162 O 19.3611 0.810572 1.84368 0
M  V30 163 C 16.4261 1.69315 3.02545 0
M  V30 164 C 15.4871 2.92694 3.14052 0
M  V30 165 C 14.7201 2.96137 4.44003 0
M  V30 166 O 14.9431 2.07973 5.31134 0
M  V30 167 O 13.8771 3.88312 4.59888 0
M  V30 168 H 17.7031 2.61483 1.54469 0
M  V30 169 H 15.2881 1.3185 0.702567 0
M  V30 170 H 17.1701 1.74217 3.83701 0
M  V30 171 H 15.8451 0.766966 3.14483 0
M  V30 172 H 14.7521 2.93324 2.32189 0
M  V30 173 H 16.0851 3.84699 3.0703 0
M  V30 174 N 17.7372 -0.778329 1.37039 0
M  V30 175 C 18.9622 -1.57248 1.35233 0
M  V30 176 C 19.3872 -1.87999 -0.0615568 0
M  V30 177 O 18.7452 -1.48734 -1.03672 0
M  V30 178 C 18.7932 -2.86353 2.19167 0
M  V30 179 O 17.8972 -3.80442 1.59178 0
M  V30 180 H 17.2382 -0.476569 0.462362 0
M  V30 181 H 19.7682 -0.963853 1.80474 0
M  V30 182 H 19.7782 -3.35519 2.32145 0
M  V30 183 H 18.4532 -2.63299 3.21942 0
M  V30 184 H 17.0302 -3.39067 1.55203 0
M  V30 185 N 19.2153 -1.21501 -1.00376 0
M  V30 186 C 20.4623 -1.03299 -1.74171 0
M  V30 187 C 20.7903 0.433326 -1.89612 0
M  V30 188 O 20.0453 1.33779 -1.42834 0
M  V30 189 C 20.3443 -1.67673 -3.15627 0
M  V30 190 C 20.0103 -3.17533 -3.2013 0
M  V30 191 C 18.6723 -3.58427 -3.21067 0
M  V30 192 C 21.0243 -4.13504 -3.17275 0
M  V30 193 C 18.3523 -4.93794 -3.16835 0
M  V30 194 C 20.7043 -5.48834 -3.14585 0
M  V30 195 C 19.3683 -5.89123 -3.13831 0
M  V30 196 H 18.6383 -0.377999 -0.637336 0
M  V30 197 H 21.2853 -1.51111 -1.17634 0
M  V30 198 H 19.5903 -1.12158 -3.75404 0
M  V30 199 H 21.2873 -1.51091 -3.71446 0
M  V30 200 H 17.8773 -2.84965 -3.20145 0
M  V30 201 H 22.0613 -3.82936 -3.15711 0
M  V30 202 H 17.3173 -5.24255 -3.1459 0
M  V30 203 H 21.4913 -6.22934 -3.1133 0
M  V30 204 H 19.1183 -6.93984 -3.10307 0
M  V30 205 N 20.6934 1.19889 -1.02296 0
M  V30 206 C 22.1094 1.41462 -0.738954 0
M  V30 207 C 22.3094 1.89721 0.678846 0
M  V30 208 O 21.3654 2.07016 1.4457 0
M  V30 209 C 22.6784 2.43083 -1.77005 0
M  V30 210 C 24.2264 2.5684 -1.78892 0
M  V30 211 C 24.7014 3.61709 -2.80945 0
M  V30 212 N 26.1924 3.69199 -2.79725 0
M  V30 213 C 26.9274 4.50019 -3.55345 0
M  V30 214 N 26.4234 5.34592 -4.40662 0
M  V30 215 N 28.2164 4.44612 -3.43914 0
M  V30 216 H 20.3674 0.868827 -1.93817 0
M  V30 217 H 22.6304 0.44399 -0.837602 0
M  V30 218 H 22.3364 2.14636 -2.78612 0
M  V30 219 H 22.2104 3.4217 -1.58744 0
M  V30 220 H 24.5974 2.84614 -0.779674 0
M  V30 221 H 24.6784 1.57927 -2.01228 0
M  V30 222 H 24.3224 3.34678 -3.82038 0
M  V30 223 H 24.2524 4.60259 -2.5587 0
M  V30 224 H 26.7434 3.08794 -2.17842 0
M  V30 225 H 27.0564 5.93363 -4.95116 0
M  V30 226 H 25.4014 5.34073 -4.44737 0
M  V30 227 H 28.5924 3.7758 -2.76679 0
M  V30 228 H 28.7654 5.0736 -4.031 0
M  V30 229 N 22.1715 0.800033 1.35784 0
M  V30 230 C 23.1015 0.220184 2.3246 0
M  V30 231 C 24.0825 -0.65073 1.57161 0
M  V30 232 O 25.2675 -0.582359 1.85263 0
M  V30 233 C 22.3975 -0.637353 3.41402 0
M  V30 234 C 21.3515 0.134531 4.27789 0
M  V30 235 C 20.6775 -0.844285 5.27992 0
M  V30 236 C 21.9775 1.32979 5.05088 0
M  V30 237 H 23.6715 1.02787 2.81203 0
M  V30 238 H 21.2175 0.495717 1.35199 0
M  V30 239 H 23.1705 -1.05302 4.08031 0
M  V30 240 H 21.8945 -1.47785 2.91251 0
M  V30 241 H 20.5535 0.531296 3.6273 0
M  V30 242 H 20.2015 -1.68011 4.74111 0
M  V30 243 H 19.9015 -0.332184 5.8666 0
M  V30 244 H 21.4255 -1.2583 5.97494 0
M  V30 245 H 22.8395 0.98934 5.64699 0
M  V30 246 H 21.2365 1.77593 5.7322 0
M  V30 247 H 22.3065 2.11978 4.36111 0
M  V30 248 N 23.6496 -1.47581 0.552962 0
M  V30 249 C 24.8966 -2.02482 0.0273243 0
M  V30 250 C 25.2246 -1.42776 -1.32081 0
M  V30 251 O 24.4796 -0.571393 -1.87173 0
M  V30 252 C 24.7786 -3.57199 -0.119728 0
M  V30 253 C 24.4446 -4.35804 1.15697 0
M  V30 254 C 23.1066 -4.57 1.50681 0
M  V30 255 C 25.4586 -4.81167 2.00319 0
M  V30 256 C 22.7866 -5.20807 2.70142 0
M  V30 257 C 25.1386 -5.46293 3.18978 0
M  V30 258 C 23.8026 -5.65722 3.54281 0
M  V30 259 H 23.0726 -0.740933 0.00999866 0
M  V30 260 H 25.7196 -1.77302 0.72362 0
M  V30 261 H 24.0246 -3.81348 -0.89896 0
M  V30 262 H 25.7216 -3.97324 -0.541718 0
M  V30 263 H 22.3116 -4.19582 0.874561 0
M  V30 264 H 26.4956 -4.64574 1.74599 0
M  V30 265 H 21.7516 -5.34045 2.97668 0
M  V30 266 H 25.9256 -5.80407 3.84838 0
M  V30 267 H 23.5526 -6.14936 4.46942 0
M  V30 268 N 25.1277 -0.289203 -1.54924 0
M  V30 269 C 26.3557 0.326463 -2.04308 0
M  V30 270 C 26.7707 1.48413 -1.16701 0
M  V30 271 O 26.1277 1.81507 -0.190087 0
M  V30 272 C 26.1787 0.794014 -3.52672 0
M  V30 273 O 25.8997 -0.317564 -4.36948 0
M  V30 274 C 27.4007 1.47605 -4.18004 0
M  V30 275 H 24.6207 0.0726272 -0.667058 0
M  V30 276 H 27.1647 -0.425401 -2.00026 0
M  V30 277 H 25.3197 1.49593 -3.57352 0
M  V30 278 H 25.7337 0.0443186 -5.24481 0
M  V30 279 H 27.2077 1.75447 -5.23376 0
M  V30 280 H 27.6847 2.41224 -3.67025 0
M  V30 281 H 28.2907 0.81762 -4.17367 0
M  V30 282 N 26.6058 1.57591 -0.0167156 0
M  V30 283 C 28.0218 1.55946 0.339557 0
M  V30 284 C 28.2218 1.02109 1.73713 0
M  V30 285 O 27.2778 0.662303 2.43659 0
M  V30 286 C 28.5908 3.00037 0.199499 0
M  V30 287 C 30.1388 3.11805 0.273193 0
M  V30 288 C 30.6138 4.57713 0.162068 0
M  V30 289 N 32.1048 4.6268 0.219444 0
M  V30 290 C 32.8398 5.73185 0.157054 0
M  V30 291 N 32.3358 6.92786 0.0442936 0
M  V30 292 N 34.1288 5.61707 0.21014 0
M  V30 293 H 26.2798 1.90921 -0.930758 0
M  V30 294 H 28.5428 0.877674 -0.358319 0
M  V30 295 H 28.2488 3.4333 -0.76273 0
M  V30 296 H 28.1228 3.64387 0.974786 0
M  V30 297 H 30.5098 2.68433 1.22587 0
M  V30 298 H 30.5908 2.50201 -0.532256 0
M  V30 299 H 30.2348 5.01763 -0.78714 0
M  V30 300 H 30.1648 5.17283 0.986222 0
M  V30 301 H 32.6558 3.76649 0.307246 0
M  V30 302 H 32.9688 7.728 0.00304069 0
M  V30 303 H 31.3138 6.94999 0.00968457 0
M  V30 304 H 34.5048 4.6716 0.296546 0
M  V30 305 H 34.6778 6.47807 0.158054 0
M  V30 306 N 28.0839 -0.256276 1.55502 0
M  V30 307 C 28.9939 -1.33882 1.92647 0
M  V30 308 C 30.0099 -1.53159 0.825727 0
M  V30 309 O 31.1859 -1.66963 1.12629 0
M  V30 310 C 28.2509 -2.6751 2.20543 0
M  V30 311 C 27.3119 -2.56836 3.43997 0
M  V30 312 C 26.5449 -3.84092 3.70553 0
M  V30 313 O 26.7679 -4.85545 2.99336 0
M  V30 314 O 25.7019 -3.83288 4.64084 0
M  V30 315 H 29.5279 -1.05374 2.84833 0
M  V30 316 H 27.1129 -0.456237 1.42263 0
M  V30 317 H 28.9949 -3.46492 2.39835 0
M  V30 318 H 27.6699 -2.9577 1.31536 0
M  V30 319 H 26.5769 -1.76172 3.30021 0
M  V30 320 H 27.9099 -2.33523 4.33275 0
M  V30 321 N 29.562 -1.4872 -0.521534 0
M  V30 322 C 30.787 -1.61101 -1.30618 0
M  V30 323 C 31.212 -0.274611 -1.86085 0
M  V30 324 O 30.57 0.754937 -1.64834 0
M  V30 325 C 30.618 -2.66709 -2.4269 0
M  V30 326 O 29.722 -2.24456 -3.45967 0
M  V30 327 H 29.063 -0.539921 -0.386499 0
M  V30 328 H 31.593 -1.94767 -0.626645 0
M  V30 329 H 31.603 -2.88245 -2.88754 0
M  V30 330 H 30.278 -3.63727 -2.01682 0
M  V30 331 H 28.855 -2.13168 -3.05964 0
M  V30 332 N 31.0401 0.771051 -1.3745 0
M  V30 333 C 31.9701 1.89827 -1.3597 0
M  V30 334 C 32.9511 1.68562 -0.228216 0
M  V30 335 O 34.1361 1.8941 -0.428675 0
M  V30 336 C 31.2661 3.2712 -1.16662 0
M  V30 337 C 30.2201 3.6295 -2.2683 0
M  V30 338 C 29.5461 4.98791 -1.92644 0
M  V30 339 C 30.8461 3.69627 -3.69017 0
M  V30 340 H 32.5401 1.91323 -2.30295 0
M  V30 341 H 30.0861 0.919082 -1.10855 0
M  V30 342 H 32.0391 4.05615 -1.14256 0
M  V30 343 H 30.7631 3.26059 -0.187926 0
M  V30 344 H 29.4221 2.86763 -2.28392 0
M  V30 345 H 29.0701 4.94271 -0.933021 0
M  V30 346 H 28.7701 5.23733 -2.66416 0
M  V30 347 H 30.2941 5.79685 -1.91826 0
M  V30 348 H 31.7081 4.38273 -3.69581 0
M  V30 349 H 30.1051 4.06067 -4.41848 0
M  V30 350 H 31.1751 2.70273 -4.02592 0
M  V30 351 N 32.5182 1.22032 0.997298 0
M  V30 352 C 33.4812 0.987909 2.06816 0
M  V30 353 C 34.4812 -0.0440084 1.6074 0
M  V30 354 O 35.6712 0.194053 1.73116 0
M  V30 355 C 32.8032 0.49132 3.37341 0
M  V30 356 H 33.9962 1.93803 2.28868 0
M  V30 357 H 31.5492 1.03838 1.16822 0
M  V30 358 H 32.2842 -0.463364 3.20973 0
M  V30 359 H 32.0692 1.23575 3.72118 0
M  V30 360 H 33.5592 0.348824 4.16141 0
M  V30 361 N 33.9963 -1.19345 1.0293 0
M  V30 362 C 34.9593 -2.20793 0.615069 0
M  V30 363 C 35.9593 -1.57553 -0.321533 0
M  V30 364 O 37.1493 -1.73862 -0.108483 0
M  V30 365 C 34.2813 -3.40754 -0.0999222 0
M  V30 366 H 35.4743 -2.58955 1.51269 0
M  V30 367 H 33.0273 -1.3303 0.820534 0
M  V30 368 H 33.7623 -3.0811 -1.01187 0
M  V30 369 H 33.5473 -3.87889 0.57309 0
M  V30 370 H 35.0373 -4.15898 -0.376645 0
M  V30 371 N 35.4744 -0.807222 -1.35358 0
M  V30 372 C 36.7234 -0.384376 -1.98004 0
M  V30 373 C 37.0364 1.0543 -1.64754 0
M  V30 374 O 38.2424 1.58029 -2.20769 0
M  V30 375 C 36.6984 -0.636326 -3.5423 0
M  V30 376 C 36.3064 -2.08759 -3.96388 0
M  V30 377 C 38.0504 -0.278869 -4.23583 0
M  V30 378 C 35.9574 -2.28525 -5.45463 0
M  V30 379 H 34.8874 -0.139986 -0.740891 0
M  V30 380 H 37.5384 -0.991369 -1.54415 0
M  V30 381 H 35.9204 0.0406256 -3.95979 0
M  V30 382 H 37.0944 -2.8024 -3.6579 0
M  V30 383 H 35.4094 -2.40497 -3.39926 0
M  V30 384 H 38.0064 -0.404599 -5.33167 0
M  V30 385 H 38.3494 0.775012 -4.09022 0
M  V30 386 H 38.8824 -0.909764 -3.87257 0
M  V30 387 H 35.6214 -3.32361 -5.64992 0
M  V30 388 H 35.1414 -1.61569 -5.77629 0
M  V30 389 H 36.8204 -2.10109 -6.11934 0
M  V30 390 N 36.9525 1.47285 -0.560781 0
M  V30 391 C 37.8625 2.33846 0.187954 0
M  V30 392 C 38.8785 1.48412 0.908293 0
M  V30 393 O 40.0545 1.81332 0.876388 0
M  V30 394 C 37.1195 3.25178 1.2025 0
M  V30 395 C 36.1805 4.26504 0.489208 0
M  V30 396 C 35.4135 5.13472 1.45542 0
M  V30 397 O 35.6365 5.02959 2.6905 0
M  V30 398 O 34.5705 5.93902 0.977963 0
M  V30 399 H 38.3965 2.99177 -0.522177 0
M  V30 400 H 35.9815 1.45903 -0.321364 0
M  V30 401 H 37.8635 3.81584 1.78805 0
M  V30 402 H 36.5385 2.6247 1.89449 0
M  V30 403 H 35.4455 3.73847 -0.137627 0
M  V30 404 H 36.7785 4.91935 -0.161399 0
M  V30 405 N 38.4306 0.297415 1.54768 0
M  V30 406 C 39.3776 -0.580276 2.23386 0
M  V30 407 C 40.3476 -1.13238 1.21517 0
M  V30 408 O 41.5326 -1.17757 1.50126 0
M  V30 409 C 38.6726 -1.74801 2.97555 0
M  V30 410 C 37.7856 -1.22764 4.1419 0
M  V30 411 C 36.9206 -2.35895 4.75949 0
M  V30 412 C 35.9596 -1.80974 5.84735 0
M  V30 413 N 35.0966 -2.87664 6.40464 0
M  V30 414 H 39.9366 0.0114833 2.97998 0
M  V30 415 H 37.4736 0.0174361 1.4709 0
M  V30 416 H 39.4316 -2.43475 3.38786 0
M  V30 417 H 38.0616 -2.31145 2.25326 0
M  V30 418 H 37.1136 -0.433271 3.77924 0
M  V30 419 H 38.4256 -0.785551 4.92575 0
M  V30 420 H 37.5796 -3.12523 5.20014 0
M  V30 421 H 36.3186 -2.83429 3.96887 0
M  V30 422 H 35.3236 -1.02834 5.40097 0
M  V30 423 H 36.5486 -1.34348 6.65678 0
M  V30 424 H 34.4946 -3.34538 5.64287 0
M  V30 425 H 34.4116 -2.4794 7.14186 0
M  V30 426 H 35.6796 -3.642 6.89187 0
M  V30 427 N 39.9087 -1.5758 0.0250728 0
M  V30 428 C 41.3247 -1.56124 -0.331282 0
M  V30 429 C 41.5247 -1.03029 -1.73169 0
M  V30 430 O 40.5807 -0.675215 -2.43305 0
M  V30 431 C 41.8937 -3.00139 -0.183584 0
M  V30 432 C 43.4417 -3.11946 -0.256654 0
M  V30 433 C 43.9167 -4.57793 -0.137792 0
M  V30 434 N 45.4077 -4.6279 -0.194904 0
M  V30 435 C 46.1427 -5.7326 -0.126655 0
M  V30 436 N 45.6387 -6.928 -0.00755288 0
M  V30 437 N 47.4317 -5.61811 -0.180348 0
M  V30 438 H 39.5827 -1.90424 0.94087 0
M  V30 439 H 41.8457 -0.875761 0.362968 0
M  V30 440 H 41.5517 -3.4292 0.780927 0
M  V30 441 H 41.4257 -3.64899 -0.955448 0
M  V30 442 H 43.8127 -2.69079 -1.21162 0
M  V30 443 H 43.8937 -2.49915 0.545517 0
M  V30 444 H 43.5377 -5.01339 0.813739 0
M  V30 445 H 43.4677 -5.17798 -0.958775 0
M  V30 446 H 45.9587 -3.76807 -0.287267 0
M  V30 447 H 46.2717 -7.72791 0.0379428 0
M  V30 448 H 44.6167 -6.94995 0.0271731 0
M  V30 449 H 47.8077 -4.6731 -0.271767 0
M  V30 450 H 47.9807 -6.47882 -0.123697 0
M  V30 451 N 41.3868 0.248026 -1.55636 0
M  V30 452 C 42.3498 1.29044 -1.89421 0
M  V30 453 C 43.3498 1.41134 -0.770581 0
M  V30 454 O 44.5398 1.39854 -1.03858 0
M  V30 455 C 41.6718 2.66831 -2.12165 0
M  V30 456 H 42.8648 1.00305 -2.82629 0
M  V30 457 H 40.4178 0.487265 -1.48511 0
M  V30 458 H 41.1528 3.00711 -1.21422 0
M  V30 459 H 40.9378 2.59438 -2.93997 0
M  V30 460 H 42.4278 3.42103 -2.3949 0
M  V30 461 N 42.8649 1.48995 0.513639 0
M  V30 462 C 43.8279 1.64229 1.59879 0
M  V30 463 C 44.8279 0.514696 1.5234 0
M  V30 464 O 46.0179 0.78087 1.55718 0
M  V30 465 C 43.1499 1.62783 2.99524 0
M  V30 466 H 44.3429 2.61004 1.47705 0
M  V30 467 H 41.8959 1.37837 0.736936 0
M  V30 468 H 42.6309 0.675461 3.17188 0
M  V30 469 H 42.4159 2.4466 3.06404 0
M  V30 470 H 43.9059 1.76669 3.78388 0
M  V30 471 N 44.343 -0.763751 1.37857 0
M  V30 472 C 45.253 -1.90817 1.36478 0
M  V30 473 C 46.269 -1.71997 0.263248 0
M  V30 474 O 47.445 -1.95095 0.499979 0
M  V30 475 C 44.51 -3.2605 1.17864 0
M  V30 476 C 43.571 -3.57467 2.3773 0
M  V30 477 C 42.804 -4.86249 2.19995 0
M  V30 478 O 43.027 -5.57884 1.18836 0
M  V30 479 O 41.961 -5.16911 3.08361 0
M  V30 480 H 45.787 -1.94933 2.32884 0
M  V30 481 H 43.372 -0.907619 1.1867 0
M  V30 482 H 45.254 -4.06924 1.09504 0
M  V30 483 H 43.929 -3.22769 0.245372 0
M  V30 484 H 42.836 -2.76796 2.51664 0
M  V30 485 H 44.169 -3.655 3.29652 0
M  V30 486 N 45.8211 -1.22559 -0.990812 0
M  V30 487 C 46.7311 -1.01394 -2.11557 0
M  V30 488 C 47.7471 0.0383962 -1.73958 0
M  V30 489 O 48.9231 -0.154787 -2.00804 0
M  V30 490 C 45.9881 -0.596569 -3.41529 0
M  V30 491 C 45.0491 -1.72276 -3.93217 0
M  V30 492 C 44.2821 -1.32521 -5.16985 0
M  V30 493 O 44.5051 -0.204909 -5.70032 0
M  V30 494 O 43.4391 -2.14247 -5.62478 0
M  V30 495 H 47.2651 -1.95633 -2.32296 0
M  V30 496 H 44.8501 -1.01172 -1.0993 0
M  V30 497 H 46.7321 -0.374263 -4.19735 0
M  V30 498 H 45.4071 0.316939 -3.22145 0
M  V30 499 H 44.3141 -1.99961 -3.16174 0
M  V30 500 H 45.6471 -2.61421 -4.17037 0
M  V30 501 N 47.2992 1.18797 -1.03562 0
M  V30 502 C 48.2462 2.22253 -0.622259 0
M  V30 503 C 49.2162 1.61987 0.36736 0
M  V30 504 O 50.4012 1.88986 0.262492 0
M  V30 505 C 47.5412 3.45097 0.0138462 0
M  V30 506 C 46.6542 4.19722 -1.02263 0
M  V30 507 C 45.7892 5.30009 -0.355573 0
M  V30 508 C 44.8282 5.96399 -1.37749 0
M  V30 509 N 43.9652 6.98234 -0.735766 0
M  V30 510 H 48.8052 2.56968 -1.50903 0
M  V30 511 H 46.3422 1.26245 -0.755017 0
M  V30 512 H 48.3002 4.15279 0.399948 0
M  V30 513 H 46.9302 3.11018 0.864158 0
M  V30 514 H 45.9822 3.48418 -1.52673 0
M  V30 515 H 47.2942 4.65227 -1.79903 0
M  V30 516 H 46.4482 6.0664 0.0850095 0
M  V30 517 H 45.1872 4.85592 0.452967 0
M  V30 518 H 44.1922 5.18512 -1.82826 0
M  V30 519 H 45.4172 6.42899 -2.18764 0
M  V30 520 H 43.3632 6.55979 0.0525597 0
M  V30 521 H 43.2802 7.41965 -1.44995 0
M  V30 522 H 44.5482 7.78845 -0.31941 0
M  V30 523 N 48.7773 0.814389 1.34928 0
M  V30 524 C 49.7403 0.235759 2.27984 0
M  V30 525 C 50.7403 -0.581412 1.49921 0
M  V30 526 O 51.9303 -0.398758 1.69575 0
M  V30 527 C 49.0623 -0.670433 3.34242 0
M  V30 528 H 50.2553 1.05659 2.80671 0
M  V30 529 H 47.8083 0.585614 1.44915 0
M  V30 530 H 48.5433 -1.51466 2.86755 0
M  V30 531 H 48.3283 -0.0860822 3.92005 0
M  V30 532 H 49.8183 -1.06935 4.03676 0
M  V30 533 N 50.2554 -1.46986 0.568584 0
M  V30 534 C 51.2024 -2.30153 -0.172707 0
M  V30 535 C 52.1724 -1.39759 -0.897586 0
M  V30 536 O 53.3574 -1.68716 -0.891044 0
M  V30 537 C 50.4974 -3.23952 -1.1895 0
M  V30 538 C 49.6104 -4.29441 -0.469517 0
M  V30 539 C 48.7454 -5.1038 -1.47259 0
M  V30 540 C 47.7844 -6.07632 -0.738225 0
M  V30 541 N 46.9214 -6.8149 -1.68868 0
M  V30 542 H 51.7614 -2.93019 0.542596 0
M  V30 543 H 49.2984 -1.44422 0.279401 0
M  V30 544 H 51.2564 -3.76767 -1.79173 0
M  V30 545 H 49.8864 -2.62926 -1.87269 0
M  V30 546 H 48.9384 -3.79594 0.247467 0
M  V30 547 H 50.2504 -4.98689 0.105241 0
M  V30 548 H 49.4044 -5.67402 -2.14803 0
M  V30 549 H 48.1434 -4.4106 -2.08128 0
M  V30 550 H 47.1484 -5.49778 -0.0489293 0
M  V30 551 H 48.3734 -6.78966 -0.135129 0
M  V30 552 H 46.3194 -6.14891 -2.28573 0
M  V30 553 H 46.2364 -7.46948 -1.16636 0
M  V30 554 H 47.5044 -7.43078 -2.3549 0
M  V30 555 N 51.7335 -0.305618 -1.54608 0
M  V30 556 C 52.6805 0.568421 -2.23691 0
M  V30 557 C 53.6505 1.12592 -1.22116 0
M  V30 558 O 54.8355 1.16959 -1.50749 0
M  V30 559 C 51.9755 1.7322 -2.98477 0
M  V30 560 C 51.0885 1.20566 -4.14835 0
M  V30 561 C 50.2235 2.33368 -4.77193 0
M  V30 562 C 49.2625 1.7787 -5.85686 0
M  V30 563 N 48.3995 2.84263 -6.4198 0
M  V30 564 H 53.2395 -0.0272867 -2.97988 0
M  V30 565 H 50.7765 -0.0252363 -1.47078 0
M  V30 566 H 52.7345 2.41675 -3.40072 0
M  V30 567 H 51.3645 2.29947 -2.26548 0
M  V30 568 H 50.4165 0.413223 -3.78149 0
M  V30 569 H 51.7285 0.759417 -4.92985 0
M  V30 570 H 50.8825 3.09761 -5.21664 0
M  V30 571 H 49.6215 2.8132 -3.98385 0
M  V30 572 H 48.6265 0.99968 -5.40635 0
M  V30 573 H 49.8515 1.30816 -6.66381 0
M  V30 574 H 47.7975 3.31541 -5.66053 0
M  V30 575 H 47.7145 2.44149 -7.15491 0
M  V30 576 H 48.9825 3.6054 -6.91109 0
M  V30 577 N 53.2116 1.57565 -0.0334293 0
M  V30 578 C 54.6226 1.79746 0.504798 0
M  V30 579 C 54.9736 0.944091 1.71992 0
M  V30 580 O 54.0986 0.155694 2.15839 0
M  V30 581 C 54.6936 3.25997 0.922567 0
M  V30 582 C 53.2526 3.49159 1.40588 0
M  V30 583 C 52.3996 2.74785 0.372633 0
M  V30 584 H 55.3506 1.56565 -0.259436 0
M  V30 585 H 55.3716 3.35945 1.78666 0
M  V30 586 H 54.8836 3.88081 0.0379825 0
M  V30 587 H 52.9846 2.92332 2.31025 0
M  V30 588 H 53.0976 4.57873 1.41028 0
M  V30 589 H 51.4616 2.40391 0.841672 0
M  V30 590 H 52.2446 3.39587 -0.503559 0
M  V30 591 N 54.6897 -0.239769 1.55765 0
M  V30 592 C 55.6367 -1.29696 1.90913 0
M  V30 593 C 56.6067 -1.47478 0.764164 0
M  V30 594 O 57.7917 -1.61345 1.01845 0
M  V30 595 C 54.9317 -2.64598 2.21544 0
M  V30 596 C 54.0447 -2.54765 3.48882 0
M  V30 597 C 53.1797 -3.82069 3.69049 0
M  V30 598 C 52.2187 -3.66883 4.89963 0
M  V30 599 N 51.3557 -4.86094 5.06614 0
M  V30 600 H 56.1957 -0.990224 2.81067 0
M  V30 601 H 53.7327 -0.477684 1.39128 0
M  V30 602 H 55.6907 -3.43132 2.3731 0
M  V30 603 H 54.3207 -2.93405 1.34585 0
M  V30 604 H 53.3727 -1.67763 3.41409 0
M  V30 605 H 54.6847 -2.39457 4.37563 0
M  V30 606 H 53.8387 -4.69046 3.84812 0
M  V30 607 H 52.5777 -4.00282 2.78614 0
M  V30 608 H 51.5827 -2.78289 4.74168 0
M  V30 609 H 52.8077 -3.50157 5.81865 0
M  V30 610 H 50.7537 -5.04655 4.19117 0
M  V30 611 H 50.6707 -4.73443 5.89396 0
M  V30 612 H 51.9387 -5.74549 5.26795 0
M  V30 613 N 56.1678 -1.49265 -0.50573 0
M  V30 614 C 57.1148 -1.65585 -1.6078 0
M  V30 615 C 58.0848 -0.497396 -1.58478 0
M  V30 616 O 59.2698 -0.72385 -1.76536 0
M  V30 617 C 56.4098 -1.72408 -2.98948 0
M  V30 618 C 55.5228 -2.99525 -3.11301 0
M  V30 619 C 54.6578 -2.97356 -4.40174 0
M  V30 620 C 53.6968 -4.19074 -4.46143 0
M  V30 621 N 52.8338 -4.14841 -5.66437 0
M  V30 622 H 57.6738 -2.59688 -1.46172 0
M  V30 623 H 55.2108 -1.28761 -0.711261 0
M  V30 624 H 57.1688 -1.74344 -3.79025 0
M  V30 625 H 55.7988 -0.817753 -3.1227 0
M  V30 626 H 54.8508 -3.07222 -2.24318 0
M  V30 627 H 56.1628 -3.89518 -3.11572 0
M  V30 628 H 55.3168 -2.97829 -5.28567 0
M  V30 629 H 54.0558 -2.05133 -4.42461 0
M  V30 630 H 53.0608 -4.1885 -3.56153 0
M  V30 631 H 54.2858 -5.12483 -4.45575 0
M  V30 632 H 52.2318 -3.25453 -5.69575 0
M  V30 633 H 52.1488 -4.98564 -5.68304 0
M  V30 634 H 53.4168 -4.1941 -6.57051 0
M  V30 635 N 57.6459 0.756429 -1.3826 0
M  V30 636 C 58.5559 1.9009 -1.37488 0
M  V30 637 C 59.5719 1.71855 -0.272366 0
M  V30 638 O 60.7479 1.94827 -0.510318 0
M  V30 639 C 57.8129 3.25421 -1.19592 0
M  V30 640 C 56.8739 3.56202 -2.39622 0
M  V30 641 C 56.1069 4.85075 -2.2257 0
M  V30 642 O 56.3299 5.57246 -1.21793 0
M  V30 643 O 55.2639 5.15269 -3.11098 0
M  V30 644 H 59.0899 1.93695 -2.33914 0
M  V30 645 H 56.6749 0.901313 -1.1915 0
M  V30 646 H 58.5569 4.06337 -1.11661 0
M  V30 647 H 57.2319 3.22634 -0.262486 0
M  V30 648 H 56.1389 2.75458 -2.53128 0
M  V30 649 H 57.4719 3.63747 -3.31586 0
M  V30 650 N 59.124 1.23083 0.984299 0
M  V30 651 C 60.056 0.96636 2.07832 0
M  V30 652 C 61.069 -0.0582135 1.62696 0
M  V30 653 O 62.258 0.176843 1.77622 0
M  V30 654 C 59.358 0.433397 3.36117 0
M  V30 655 C 58.531 1.51722 4.10243 0
M  V30 656 C 57.59 0.989821 5.16807 0
M  V30 657 O 56.616 1.67794 5.43906 0
M  V30 658 N 57.818 -0.184367 5.80207 0
M  V30 659 H 60.583 1.90824 2.31098 0
M  V30 660 H 58.144 1.13888 1.1507 0
M  V30 661 H 60.136 0.065699 4.04647 0
M  V30 662 H 58.706 -0.413806 3.09849 0
M  V30 663 H 57.926 2.05786 3.36223 0
M  V30 664 H 59.214 2.24619 4.56534 0
M  V30 665 H 58.612 -0.760062 5.60571 0
M  V30 666 H 57.169 -0.493366 6.4993 0
M  V30 667 N 60.6021 -1.18246 1.0419 0
M  V30 668 C 61.8791 -1.84121 0.660208 0
M  V30 669 C 62.2591 -1.92778 -0.860221 0
M  V30 670 O 61.6071 -1.45464 -1.76217 0
M  V30 671 C 61.8171 -3.22355 1.33747 0
M  V30 672 C 63.1651 -3.98376 1.46906 0
M  V30 673 O 64.1891 -3.31799 1.29568 0
M  V30 674 O 63.0481 -5.17665 1.75171 0
M  V30 675 H 60.1421 -0.794036 0.231161 0
M  V30 676 H 62.6881 -1.25628 1.14087 0
M  V30 677 H 61.4601 -3.10964 2.37522 0
M  V30 678 H 61.0831 -3.88506 0.845515 0
M  V30 679 N 62.0802 -0.821533 -1.34494 0
M  V30 680 C 63.0282 -0.230702 -2.31453 0
M  V30 681 C 64.0222 0.627793 -1.57338 0
M  V30 682 O 65.2282 0.519288 -1.72347 0
M  V30 683 H 61.6032 -0.0558577 -0.749923 0
M  V30 684 H 63.5742 -1.06332 -2.78812 0
M  V30 685 C 62.3232 0.59391 -3.4259 0
M  V30 686 H 61.6462 -0.0573588 -3.99759 0
M  V30 687 H 63.0862 0.973446 -4.12674 0
M  V30 688 C 61.5452 1.76568 -2.86924 0
M  V30 689 O 62.0752 2.8638 -2.81691 0
M  V30 690 N 60.2812 1.58198 -2.43766 0
M  V30 691 H 59.8282 0.68872 -2.48222 0
M  V30 692 H 59.7862 2.36752 -2.06871 0
M  V30 693 N 63.5583 1.46682 -0.576371 0
M  V30 694 C 64.8353 1.95599 0.00703437 0
M  V30 695 C 65.2153 1.51904 1.46589 0
M  V30 696 O 64.5633 0.766755 2.15251 0
M  V30 697 C 64.7733 3.4864 -0.158404 0
M  V30 698 C 66.1213 4.24594 -0.0229439 0
M  V30 699 O 67.1453 3.56094 -0.0869173 0
M  V30 700 O 66.0043 5.46373 0.118015 0
M  V30 701 H 63.0983 0.825275 0.053384 0
M  V30 702 H 65.6443 1.56996 -0.644244 0
M  V30 703 H 64.4163 3.7331 -1.17282 0
M  V30 704 H 64.0393 3.94057 0.5296 0
M  V30 705 N 65.0364 0.313813 1.54444 0
M  V30 706 C 66.3134 -0.345447 1.92525 0
M  V30 707 C 66.6934 -1.70667 1.24242 0
M  V30 708 O 66.0414 -2.25273 0.382654 0
M  V30 709 C 66.2514 -0.44737 3.46121 0
M  V30 710 C 67.5994 -0.712238 4.18584 0
M  V30 711 O 68.6234 -0.530678 3.52225 0
M  V30 712 O 67.4824 -1.06183 5.36085 0
M  V30 713 H 64.5764 -0.195407 0.803583 0
M  V30 714 H 67.1224 0.362813 1.65776 0
M  V30 715 H 65.8944 0.509043 3.87975 0
M  V30 716 H 65.5174 -1.20359 3.78945 0
M  V30 717 N 66.5145 -1.57545 0.0417849 0
M  V30 718 C 67.4245 -2.14451 -0.951213 0
M  V30 719 C 68.4405 -1.09992 -1.34825 0
M  V30 720 O 69.6165 -1.42114 -1.42708 0
M  V30 721 C 66.6815 -2.67063 -2.21084 0
M  V30 722 C 65.7425 -3.86284 -1.87304 0
M  V30 723 C 64.9755 -4.36378 -3.07261 0
M  V30 724 O 65.1985 -3.85587 -4.20332 0
M  V30 725 O 64.1325 -5.28077 -2.88822 0
M  V30 726 H 67.9585 -2.99601 -0.497287 0
M  V30 727 H 65.5435 -1.48317 -0.179567 0
M  V30 728 H 67.4255 -3.00914 -2.95006 0
M  V30 729 H 66.1005 -1.84989 -2.65633 0
M  V30 730 H 65.0075 -3.57338 -1.10727 0
M  V30 731 H 66.3405 -4.6956 -1.47562 0
M  V30 732 N 67.9926 0.231505 -1.5589 0
M  V30 733 C 68.9406 1.30649 -1.92441 0
M  V30 734 C 69.9346 1.49037 -0.805254 0
M  V30 735 O 71.1406 1.50329 -0.990007 0
M  V30 736 H 67.5156 0.437812 -0.611412 0
M  V30 737 H 69.4866 0.970973 -2.82161 0
M  V30 738 C 68.2356 2.65179 -2.24889 0
M  V30 739 H 67.5586 2.51835 -3.10514 0
M  V30 740 H 68.9986 3.39234 -2.54355 0
M  V30 741 C 67.4576 3.19439 -1.07054 0
M  V30 742 O 67.9876 4.00371 -0.326499 0
M  V30 743 N 66.1936 2.77675 -0.85703 0
M  V30 744 H 65.7406 2.11969 -1.46379 0
M  V30 745 H 65.6986 3.14321 -0.0703223 0
M  V30 746 N 69.4707 1.49531 0.497807 0
M  V30 747 C 70.4177 1.66436 1.59899 0
M  V30 748 C 71.3877 0.505793 1.58212 0
M  V30 749 O 72.5727 0.733202 1.7615 0
M  V30 750 C 69.7127 1.7399 2.98029 0
M  V30 751 C 68.8257 3.01172 3.09708 0
M  V30 752 C 67.9607 2.99686 4.38591 0
M  V30 753 C 66.9997 4.21434 4.43914 0
M  V30 754 N 66.1367 4.1784 5.64229 0
M  V30 755 H 70.9767 2.60459 1.44793 0
M  V30 756 H 68.5137 1.29137 0.704423 0
M  V30 757 H 70.4717 1.76352 3.78095 0
M  V30 758 H 69.1017 0.834301 3.11832 0
M  V30 759 H 68.1537 3.08408 2.22685 0
M  V30 760 H 69.4657 3.91165 3.09502 0
M  V30 761 H 68.6197 3.00628 5.2698 0
M  V30 762 H 67.3587 2.07477 4.41367 0
M  V30 763 H 66.3637 4.20733 3.53926 0
M  V30 764 H 67.5887 5.14839 4.42851 0
M  V30 765 H 65.5347 3.28469 5.67841 0
M  V30 766 H 65.4517 5.01571 5.65652 0
M  V30 767 H 66.7197 4.22889 6.54817 0
M  V30 768 N 70.9488 -0.749086 1.3866 0
M  V30 769 C 72.3598 -1.32664 1.31366 0
M  V30 770 C 72.7108 -1.96179 -0.028484 0
M  V30 771 O 71.8358 -1.9537 -0.93057 0
M  V30 772 C 72.4308 -2.41219 2.37905 0
M  V30 773 C 70.9898 -2.94684 2.34176 0
M  V30 774 C 70.1368 -1.68108 2.20533 0
M  V30 775 H 73.0878 -0.547628 1.48952 0
M  V30 776 H 73.1088 -3.21268 2.0388 0
M  V30 777 H 72.6208 -1.94962 3.35576 0
M  V30 778 H 70.7218 -3.45258 1.401 0
M  V30 779 H 70.8348 -3.48757 3.2849 0
M  V30 780 H 69.1988 -1.91907 1.67463 0
M  V30 781 H 69.9818 -1.23923 3.20153 0
M  V30 782 N 72.4269 -1.23603 -0.977757 0
M  V30 783 C 73.3739 -1.01954 -2.07061 0
M  V30 784 C 74.3439 0.0638697 -1.65977 0
M  V30 785 O 75.5289 -0.0887624 -1.90593 0
M  V30 786 C 72.6689 -0.619658 -3.39491 0
M  V30 787 C 71.7819 -1.77547 -3.93829 0
M  V30 788 C 70.9169 -1.32212 -5.14484 0
M  V30 789 C 69.9559 -2.44852 -5.60994 0
M  V30 790 N 69.0929 -2.00456 -6.72876 0
M  V30 791 H 73.9329 -1.95495 -2.24913 0
M  V30 792 H 71.4699 -0.973861 -1.10247 0
M  V30 793 H 73.4279 -0.368898 -4.15566 0
M  V30 794 H 72.0579 0.278752 -3.21594 0
M  V30 795 H 71.1099 -2.14016 -3.14486 0
M  V30 796 H 72.4219 -2.62219 -4.24314 0
M  V30 797 H 71.5759 -1.02965 -5.97899 0
M  V30 798 H 70.3149 -0.445808 -4.85658 0
M  V30 799 H 69.3199 -2.74871 -4.76157 0
M  V30 800 H 70.5449 -3.33024 -5.91837 0
M  V30 801 H 68.4909 -1.15208 -6.45804 0
M  V30 802 H 68.4079 -2.78687 -7.02759 0
M  V30 803 H 69.6759 -1.7432 -7.59758 0
M  V30 804 N 73.905 1.17692 -1.04816 0
M  V30 805 C 75.316 1.69501 -0.782698 0
M  V30 806 C 75.667 1.83456 0.695577 0
M  V30 807 O 74.792 1.51942 1.54086 0
M  V30 808 C 75.387 3.07874 -1.41419 0
M  V30 809 C 73.946 3.56864 -1.19686 0
M  V30 810 C 73.093 2.3322 -1.50012 0
M  V30 811 H 76.044 1.02262 -1.2136 0
M  V30 812 H 76.065 3.71528 -0.821428 0
M  V30 813 H 75.577 2.97685 -2.49009 0
M  V30 814 H 73.678 3.72337 -0.140043 0
M  V30 815 H 73.791 4.39851 -1.89916 0
M  V30 816 H 72.155 2.37501 -0.920071 0
M  V30 817 H 72.938 2.25644 -2.58727 0
M  V30 818 N 75.3831 0.828654 1.34056 0
M  V30 819 C 76.3311 0.242973 2.31327 0
M  V30 820 C 77.3251 -0.61944 1.57668 0
M  V30 821 O 78.5311 -0.51014 1.7262 0
M  V30 822 H 74.9061 0.059834 0.749616 0
M  V30 823 H 76.8771 1.07809 2.78244 0
M  V30 824 C 75.6261 -0.575733 3.429 0
M  V30 825 H 74.9491 0.0785582 3.99723 0
M  V30 826 H 76.3891 -0.951547 4.13185 0
M  V30 827 C 74.8481 -1.75044 2.87856 0
M  V30 828 O 75.3781 -2.84882 2.83205 0
M  V30 829 N 73.5841 -1.56903 2.44602 0
M  V30 830 H 73.1311 -0.675547 2.48584 0
M  V30 831 H 73.0891 -2.35652 2.08124 0
M  V30 832 N 76.8612 -1.46375 0.584142 0
M  V30 833 C 78.0862 -2.07268 0.0740405 0
M  V30 834 C 78.5112 -1.42979 -1.22223 0
M  V30 835 O 77.8692 -0.514092 -1.73859 0
M  V30 836 C 77.9172 -3.60518 -0.0767769 0
M  V30 837 O 77.0212 -3.96533 -1.13292 0
M  V30 838 H 76.3622 -0.660961 0.0634524 0
M  V30 839 H 78.8922 -1.87991 0.807492 0
M  V30 840 H 78.9022 -4.07021 -0.282489 0
M  V30 841 H 77.5772 -4.06702 0.86986 0
M  V30 842 H 76.1542 -3.61738 -0.905553 0
M  V30 843 N 78.3393 -0.321999 -1.54275 0
M  V30 844 C 79.6163 0.335232 -1.92706 0
M  V30 845 C 79.9963 1.70006 -1.25145 0
M  V30 846 O 79.3443 2.25067 -0.394596 0
M  V30 847 C 79.5543 0.429008 -3.46353 0
M  V30 848 C 80.9023 0.690029 -4.18956 0
M  V30 849 O 81.9263 0.511992 -3.52501 0
M  V30 850 O 80.7853 1.03338 -5.36641 0
M  V30 851 H 77.8793 0.191143 -0.804608 0
M  V30 852 H 80.4253 -0.3716 -1.65581 0
M  V30 853 H 79.1973 -0.529611 -3.87699 0
M  V30 854 H 78.8203 1.18348 -3.79578 0
M  V30 855 N 79.8174 1.5752 -0.0501392 0
M  V30 856 C 80.7474 2.14502 0.922566 0
M  V30 857 C 81.7284 1.06642 1.3252 0
M  V30 858 O 82.9134 1.34577 1.4001 0
M  V30 859 C 80.0434 2.68916 2.19776 0
M  V30 860 C 78.9974 3.8175 1.93523 0
M  V30 861 C 78.3234 4.22677 3.27487 0
M  V30 862 C 79.6234 5.06932 1.25765 0
M  V30 863 H 81.3174 2.9603 0.447952 0
M  V30 864 H 78.8634 1.42401 0.214024 0
M  V30 865 H 80.8164 3.07419 2.88222 0
M  V30 866 H 79.5404 1.84578 2.69441 0
M  V30 867 H 78.1994 3.43718 1.27489 0
M  V30 868 H 77.8474 3.35291 3.74952 0
M  V30 869 H 77.5474 4.98725 3.1072 0
M  V30 870 H 79.0714 4.63779 3.97166 0
M  V30 871 H 80.4854 5.42888 1.84244 0
M  V30 872 H 78.8824 5.88116 1.19328 0
M  V30 873 H 79.9524 4.84337 0.233536 0
M  V30 874 N 81.2955 -0.223234 1.56011 0
M  V30 875 C 82.2055 -1.29766 1.95443 0
M  V30 876 C 83.2215 -1.51373 0.858028 0
M  V30 877 O 84.3975 -1.64536 1.16146 0
M  V30 878 C 81.4625 -2.62772 2.26167 0
M  V30 879 C 80.5235 -2.49482 3.49367 0
M  V30 880 C 79.7565 -3.76145 3.78616 0
M  V30 881 O 79.9795 -4.79087 3.09568 0
M  V30 882 O 78.9135 -3.73358 4.72109 0
M  V30 883 H 82.7395 -0.99309 2.87004 0
M  V30 884 H 80.3245 -0.425958 1.43199 0
M  V30 885 H 82.2065 -3.41327 2.47131 0
M  V30 886 H 80.8815 -2.92913 1.37781 0
M  V30 887 H 79.7885 -1.69133 3.33684 0
M  V30 888 H 81.1215 -2.2428 4.38131 0
M  V30 889 N 82.7736 -1.49793 -0.48987 0
M  V30 890 C 83.7366 -1.66752 -1.57246 0
M  V30 891 C 84.7366 -0.538867 -1.51502 0
M  V30 892 O 85.9266 -0.805545 -1.54456 0
M  V30 893 C 83.0586 -1.67528 -2.96896 0
M  V30 894 H 84.2516 -2.63321 -1.43534 0
M  V30 895 H 81.8046 -1.38992 -0.714914 0
M  V30 896 H 82.5396 -0.725837 -3.16073 0
M  V30 897 H 82.3246 -2.49504 -3.02473 0
M  V30 898 H 83.8146 -1.82667 -3.7553 0
M  V30 899 N 84.2517 0.741722 -1.39055 0
M  V30 900 C 85.4997 1.49818 -1.35643 0
M  V30 901 C 85.8207 1.94938 0.0491642 0
M  V30 902 O 85.0907 1.68505 0.999141 0
M  V30 903 H 83.6707 0.555755 -0.499144 0
M  V30 904 H 86.3327 0.880957 -1.73854 0
M  V30 905 H 85.4287 2.38348 -2.01486 0
M  V30 906 N 85.7298 1.2412 0.971189 0
M  V30 907 C 86.6768 1.0305 2.06517 0
M  V30 908 C 87.6468 -0.0550666 1.66009 0
M  V30 909 O 88.8318 0.0988688 1.90544 0
M  V30 910 C 85.9718 0.637653 3.39158 0
M  V30 911 C 85.0848 1.79633 3.92882 0
M  V30 912 C 84.2198 1.34939 5.13775 0
M  V30 913 C 83.2588 2.47823 5.59687 0
M  V30 914 N 82.3958 2.04022 6.71803 0
M  V30 915 H 87.2358 1.96685 2.23873 0
M  V30 916 H 84.7728 0.979694 1.09729 0
M  V30 917 H 86.7308 0.390931 4.15364 0
M  V30 918 H 85.3608 -0.261693 3.21737 0
M  V30 919 H 84.4128 2.15681 3.13346 0
M  V30 920 H 85.7248 2.64466 4.22918 0
M  V30 921 H 84.8788 1.06134 5.97345 0
M  V30 922 H 83.6178 0.471557 4.85415 0
M  V30 923 H 82.6228 2.77392 4.74693 0
M  V30 924 H 83.8478 3.36158 5.90063 0
M  V30 925 H 81.7938 1.18632 6.45184 0
M  V30 926 H 81.7108 2.82409 7.01271 0
M  V30 927 H 82.9788 1.78347 7.58823 0
M  V30 928 N 87.2079 -1.17134 1.05439 0
M  V30 929 C 88.1559 -2.23289 0.651511 0
M  V30 930 C 89.1499 -1.66186 -0.328411 0
M  V30 931 O 90.3559 -1.78949 -0.194206 0
M  V30 932 H 86.7309 -0.726938 0.192523 0
M  V30 933 H 88.7019 -2.54565 1.55689 0
M  V30 934 C 87.4509 -3.47671 0.0448436 0
M  V30 935 H 86.7739 -3.91918 0.78996 0
M  V30 936 H 88.2139 -4.2353 -0.19964 0
M  V30 937 C 86.6729 -3.14453 -1.20918 0
M  V30 938 O 87.2029 -3.29459 -2.29825 0
M  V30 939 N 85.4089 -2.68657 -1.10779 0
M  V30 940 H 84.9559 -2.56646 -0.221526 0
M  V30 941 H 84.9139 -2.46804 -1.9477 0
M  V30 942 N 88.686 -0.835752 -1.33615 0
M  V30 943 C 89.616 -0.281739 -2.31794 0
M  V30 944 C 90.597 0.608833 -1.58831 0
M  V30 945 O 91.782 0.533035 -1.86741 0
M  V30 946 C 88.912 0.546612 -3.42971 0
M  V30 947 C 87.866 -0.247904 -4.27281 0
M  V30 948 C 87.192 0.704001 -5.30045 0
M  V30 949 C 88.492 -1.46324 -5.01385 0
M  V30 950 H 90.186 -1.10206 -2.78379 0
M  V30 951 H 87.732 -0.531388 -1.33837 0
M  V30 952 H 89.685 0.944467 -4.1068 0
M  V30 953 H 88.409 1.40011 -2.95067 0
M  V30 954 H 87.068 -0.627281 -3.61194 0
M  V30 955 H 86.716 1.55381 -4.78399 0
M  V30 956 H 86.416 0.176524 -5.87335 0
M  V30 957 H 87.94 1.09944 -6.0062 0
M  V30 958 H 89.354 -1.13871 -5.61877 0
M  V30 959 H 87.751 -1.92728 -5.6831 0
M  V30 960 H 88.821 -2.23467 -4.30338 0
M  V30 961 N 90.1641 1.46063 -0.591896 0
M  V30 962 C 91.5751 1.85944 -0.167822 0
M  V30 963 C 91.9261 1.49429 1.27143 0
M  V30 964 O 91.0511 0.913515 1.96173 0
M  V30 965 C 91.6461 3.37489 -0.297794 0
M  V30 966 C 90.2051 3.76332 0.0714732 0
M  V30 967 C 89.3521 2.7006 -0.629509 0
M  V30 968 H 92.3031 1.37087 -0.799555 0
M  V30 969 H 92.3241 3.77532 0.474349 0
M  V30 970 H 91.8361 3.64034 -1.3454 0
M  V30 971 H 89.9371 3.55405 1.11886 0
M  V30 972 H 90.0501 4.78088 -0.311245 0
M  V30 973 H 88.4141 2.54607 -0.0687867 0
M  V30 974 H 89.1971 2.99444 -1.67894 0
M  V30 975 N 91.6422 0.330177 1.54103 0
M  V30 976 C 92.8892 -0.270405 2.00686 0
M  V30 977 C 93.2172 -1.51621 1.21825 0
M  V30 978 O 92.4722 -1.93536 0.29025 0
M  V30 979 C 92.7712 -0.643134 3.51566 0
M  V30 980 C 92.4372 0.504251 4.48072 0
M  V30 981 C 91.0992 0.819163 4.74176 0
M  V30 982 C 93.4512 1.27465 5.05373 0
M  V30 983 C 90.7792 1.90708 5.5484 0
M  V30 984 C 93.1312 2.35271 5.87223 0
M  V30 985 C 91.7952 2.67336 6.11627 0
M  V30 986 H 91.0652 -0.0989482 0.734364 0
M  V30 987 H 93.7122 0.455324 1.86008 0
M  V30 988 H 92.0172 -1.44938 3.64006 0
M  V30 989 H 93.7142 -1.11949 3.85056 0
M  V30 990 H 90.3042 0.248733 4.27878 0
M  V30 991 H 94.4882 1.04462 4.85182 0
M  V30 992 H 89.7442 2.15991 5.71977 0
M  V30 993 H 93.9182 2.95405 6.30641 0
M  V30 994 H 91.5452 3.51763 6.73919 0
M  V30 995 N 93.1203 -1.57491 0.0584922 0
M  V30 996 C 94.3693 -1.92155 -0.613146 0
M  V30 997 C 94.6823 -0.939334 -1.71569 0
M  V30 998 O 95.8883 -1.17829 -2.44599 0
M  V30 999 C 94.3443 -3.41303 -1.14195 0
M  V30 1000 C 93.9523 -4.47944 -0.0711265 0
M  V30 1001 C 95.6963 -3.84988 -1.78841 0
M  V30 1002 C 93.6033 -5.88212 -0.613225 0
M  V30 1003 H 92.5333 -0.717162 -0.232796 0
M  V30 1004 H 95.1843 -1.83049 0.12857 0
M  V30 1005 H 93.5663 -3.45437 -1.93621 0
M  V30 1006 H 94.7403 -4.55408 0.702836 0
M  V30 1007 H 93.0553 -4.13644 0.478313 0
M  V30 1008 H 95.6523 -4.87159 -2.20408 0
M  V30 1009 H 95.9953 -3.21632 -2.64308 0
M  V30 1010 H 96.5283 -3.83401 -1.06059 0
M  V30 1011 H 93.2673 -6.55183 0.203978 0
M  V30 1012 H 92.7873 -5.84294 -1.35501 0
M  V30 1013 H 94.4663 -6.37687 -1.09383 0
M  V30 1014 N 94.5984 0.214957 -1.56127 0
M  V30 1015 C 95.8284 0.953707 -1.8327 0
M  V30 1016 C 96.2364 1.78181 -0.636262 0
M  V30 1017 O 95.5794 1.79191 0.404516 0
M  V30 1018 C 95.6414 1.91516 -3.0424 0
M  V30 1019 C 95.3054 1.27094 -4.38972 0
M  V30 1020 C 96.3024 0.657575 -5.15725 0
M  V30 1021 C 93.9874 1.28073 -4.85698 0
M  V30 1022 C 95.9814 0.0625968 -6.37369 0
M  V30 1023 C 93.6684 0.681914 -6.07283 0
M  V30 1024 C 94.6664 0.0739046 -6.8296 0
M  V30 1025 O 94.3544 -0.515582 -8.02245 0
M  V30 1026 H 94.0864 0.284764 -0.613095 0
M  V30 1027 H 96.6404 0.233283 -2.04071 0
M  V30 1028 H 94.8704 2.67475 -2.79274 0
M  V30 1029 H 96.5594 2.52001 -3.18198 0
M  V30 1030 H 97.3254 0.642288 -4.80728 0
M  V30 1031 H 93.2044 1.74337 -4.26764 0
M  V30 1032 H 96.7484 -0.412593 -6.96379 0
M  V30 1033 H 92.6454 0.694636 -6.41752 0
M  V30 1034 H 93.4134 -0.410544 -8.1747 0
M  V30 1035 N 96.0765 1.50051 0.48192 0
M  V30 1036 C 97.3245 1.60181 1.23234 0
M  V30 1037 C 97.6455 0.299176 1.92691 0
M  V30 1038 O 96.9155 -0.682708 1.83619 0
M  V30 1039 H 95.4955 0.590232 0.457859 0
M  V30 1040 H 98.1575 1.86775 0.556881 0
M  V30 1041 H 97.2535 2.40753 1.98607 0
M  V30 1042 N 97.5546 -0.734337 1.39446 0
M  V30 1043 C 98.8316 -1.48579 1.27215 0
M  V30 1044 C 99.2116 -2.1077 -0.117968 0
M  V30 1045 O 98.5596 -1.98646 -1.12924 0
M  V30 1046 C 98.7696 -2.53667 2.39696 0
M  V30 1047 C 100.118 -3.20031 2.79044 0
M  V30 1048 O 101.142 -2.6398 2.39151 0
M  V30 1049 O 100.001 -4.21455 3.47905 0
M  V30 1050 H 97.0946 -0.659816 0.49857 0
M  V30 1051 H 99.6406 -0.768106 1.51322 0
M  V30 1052 H 98.4126 -2.06096 3.32626 0
M  V30 1053 H 98.0356 -3.32994 2.17258 0
M  V30 1054 N 99.0327 -1.24633 -0.964593 0
M  V30 1055 C 100.282 -1.08188 -1.7023 0
M  V30 1056 C 100.595 0.37873 -1.91898 0
M  V30 1057 O 101.801 0.663427 -2.6327 0
M  V30 1058 C 100.257 -1.88773 -3.06419 0
M  V30 1059 C 99.8647 -3.39263 -2.92582 0
M  V30 1060 C 101.609 -1.80867 -3.84041 0
M  V30 1061 C 99.5157 -4.1218 -4.24101 0
M  V30 1062 H 98.4457 -0.401245 -0.638372 0
M  V30 1063 H 101.097 -1.48742 -1.07462 0
M  V30 1064 H 99.4787 -1.41035 -3.70034 0
M  V30 1065 H 100.653 -3.94603 -2.37961 0
M  V30 1066 H 98.9677 -3.48154 -2.28424 0
M  V30 1067 H 101.565 -2.32646 -4.81435 0
M  V30 1068 H 101.908 -0.774543 -4.09031 0
M  V30 1069 H 102.441 -2.26301 -3.27159 0
M  V30 1070 H 99.1797 -5.15965 -4.04303 0
M  V30 1071 H 98.6997 -3.61626 -4.78526 0
M  V30 1072 H 100.379 -4.19349 -4.92702 0
M  V30 1073 N 100.511 1.16574 -1.06058 0
M  V30 1074 C 101.922 1.68662 -0.800632 0
M  V30 1075 C 102.273 1.84184 0.67608 0
M  V30 1076 O 101.398 1.53568 1.52466 0
M  V30 1077 C 101.993 3.06356 -1.44676 0
M  V30 1078 C 100.552 3.55575 -1.23465 0
M  V30 1079 C 99.6988 2.31616 -1.52477 0
M  V30 1080 H 102.65 1.00969 -1.22438 0
M  V30 1081 H 102.671 3.70636 -0.860788 0
M  V30 1082 H 102.183 2.95027 -2.52152 0
M  V30 1083 H 100.284 3.72167 -0.179527 0
M  V30 1084 H 100.397 4.37812 -1.94571 0
M  V30 1085 H 98.7608 2.36512 -0.945209 0
M  V30 1086 H 99.5438 2.22887 -2.61106 0
M  V30 1087 N 101.989 0.842826 1.3317 0
M  V30 1088 C 103.4 0.496651 1.79973 0
M  V30 1089 C 103.751 -0.984641 1.69703 0
M  V30 1090 O 102.876 -1.76743 1.24863 0
M  V30 1091 C 103.471 0.894727 3.26772 0
M  V30 1092 C 102.03 0.600629 3.71577 0
M  V30 1093 C 101.177 1.10091 2.5451 0
M  V30 1094 H 104.128 1.03116 1.20635 0
M  V30 1095 H 104.149 0.206347 3.7994 0
M  V30 1096 H 103.661 1.97287 3.34215 0
M  V30 1097 H 101.762 -0.467284 3.69658 0
M  V30 1098 H 101.875 1.15863 4.64879 0
M  V30 1099 H 100.239 0.52162 2.49301 0
M  V30 1100 H 101.022 2.18591 2.64713 0
M  V30 1101 N 103.467 -1.45747 0.599634 0
M  V30 1102 C 104.377 -2.34262 -0.125888 0
M  V30 1103 C 105.393 -1.50768 -0.868625 0
M  V30 1104 O 106.569 -1.83592 -0.828003 0
M  V30 1105 C 103.634 -3.28252 -1.11587 0
M  V30 1106 C 102.695 -4.27651 -0.375956 0
M  V30 1107 C 101.928 -5.1715 -1.31877 0
M  V30 1108 O 102.151 -5.09916 -2.55621 0
M  V30 1109 O 101.085 -5.96286 -0.820157 0
M  V30 1110 H 104.911 -2.97688 0.601315 0
M  V30 1111 H 102.496 -1.44999 0.359934 0
M  V30 1112 H 104.378 -3.86191 -1.68626 0
M  V30 1113 H 103.053 -2.67401 -1.82424 0
M  V30 1114 H 101.96 -3.7335 0.236698 0
M  V30 1115 H 103.293 -4.91334 0.29177 0
M  V30 1116 N 104.945 -0.338344 -1.53925 0
M  V30 1117 C 105.878 0.563758 -2.21127 0
M  V30 1118 C 106.856 1.10433 -1.19345 0
M  V30 1119 O 108.04 1.16557 -1.48144 0
M  V30 1120 C 105.167 1.77505 -2.88461 0
M  V30 1121 C 104.213 1.3644 -4.04087 0
M  V30 1122 S 105.046 0.388593 -5.34088 0
M  V30 1123 C 106.202 1.60683 -6.04923 0
M  V30 1124 H 106.435 -0.00704546 -2.97299 0
M  V30 1125 H 103.968 -0.122418 -1.53914 0
M  V30 1126 H 105.926 2.46999 -3.27875 0
M  V30 1127 H 104.587 2.31706 -2.12064 0
M  V30 1128 H 103.78 2.26739 -4.50117 0
M  V30 1129 H 103.382 0.748998 -3.66423 0
M  V30 1130 H 105.674 2.54209 -6.28 0
M  V30 1131 H 106.617 1.18842 -6.98056 0
M  V30 1132 H 107.025 1.80052 -5.35015 0
M  V30 1133 N 106.423 1.57458 -0.0668435 0
M  V30 1134 C 107.669 1.93587 0.6043 0
M  V30 1135 C 108.002 0.946722 1.69561 0
M  V30 1136 O 107.277 -0.0248516 1.94484 0
M  V30 1137 C 107.56 3.40014 1.18585 0
M  V30 1138 C 107.413 4.49685 0.101529 0
M  V30 1139 C 108.732 3.87154 2.09284 0
M  V30 1140 H 105.851 0.703958 0.218202 0
M  V30 1141 H 108.493 1.89542 -0.131804 0
M  V30 1142 H 106.643 3.43592 1.81319 0
M  V30 1143 H 108.315 4.5823 -0.531279 0
M  V30 1144 H 106.558 4.30059 -0.568487 0
M  V30 1145 H 107.229 5.49266 0.54874 0
M  V30 1146 H 109.705 3.85551 1.56491 0
M  V30 1147 H 108.581 4.90231 2.46911 0
M  V30 1148 H 108.842 3.2481 2.99918 0
M  V30 1149 N 107.901 -0.206675 1.56239 0
M  V30 1150 C 109.126 -0.949474 1.8439 0
M  V30 1151 C 109.551 -1.76549 0.649016 0
M  V30 1152 O 108.909 -1.76782 -0.402231 0
M  V30 1153 C 108.957 -1.83078 3.10668 0
M  V30 1154 O 108.061 -2.9281 2.90407 0
M  V30 1155 H 107.402 -0.268033 0.607499 0
M  V30 1156 H 109.932 -0.215488 2.03462 0
M  V30 1157 H 109.942 -2.2377 3.41161 0
M  V30 1158 H 108.617 -1.23112 3.97261 0
M  V30 1159 H 107.194 -2.55956 2.71184 0
M  V30 1160 N 109.379 -1.50304 -0.473955 0
M  V30 1161 C 110.289 -1.7174 -1.5982 0
M  V30 1162 C 111.305 -0.600457 -1.63311 0
M  V30 1163 O 112.481 -0.878441 -1.81233 0
M  V30 1164 C 109.546 -1.80427 -2.96052 0
M  V30 1165 C 108.607 -3.04148 -3.02972 0
M  V30 1166 C 107.84 -3.12411 -4.32706 0
M  V30 1167 O 108.063 -2.27542 -5.23049 0
M  V30 1168 O 106.997 -4.05113 -4.45159 0
M  V30 1169 H 110.823 -2.67035 -1.44657 0
M  V30 1170 H 108.408 -1.34366 -0.653148 0
M  V30 1171 H 110.29 -1.88338 -3.7697 0
M  V30 1172 H 108.965 -0.883156 -3.11419 0
M  V30 1173 H 107.872 -3.0174 -2.21142 0
M  V30 1174 H 109.205 -3.95829 -2.92541 0
M  V30 1175 N 110.857 0.726932 -1.39834 0
M  V30 1176 C 112.268 1.30558 -1.3346 0
M  V30 1177 C 112.619 1.962 -0.00273003 0
M  V30 1178 O 111.744 1.96826 0.899371 0
M  V30 1179 C 112.339 2.37404 -2.41713 0
M  V30 1180 C 110.898 2.90921 -2.38835 0
M  V30 1181 C 110.045 1.64578 -2.2318 0
M  V30 1182 H 112.996 0.523862 -1.49804 0
M  V30 1183 H 113.017 3.17984 -2.08966 0
M  V30 1184 H 112.529 1.89599 -3.38635 0
M  V30 1185 H 110.63 3.42985 -1.45575 0
M  V30 1186 H 110.743 3.43487 -3.33997 0
M  V30 1187 H 109.107 1.89219 -1.70494 0
M  V30 1188 H 109.89 1.18814 -3.22084 0
M  V30 1189 N 112.336 1.25143 0.95797 0
M  V30 1190 C 113.266 1.07711 2.07173 0
M  V30 1191 C 114.247 -0.0128462 1.70095 0
M  V30 1192 O 115.432 0.156061 1.93572 0
M  V30 1193 C 112.562 0.691503 3.40346 0
M  V30 1194 C 111.516 1.73132 3.9142 0
M  V30 1195 C 110.842 1.20049 5.21049 0
M  V30 1196 C 112.142 3.1294 4.1817 0
M  V30 1197 H 113.836 2.00873 2.22014 0
M  V30 1198 H 111.382 0.967191 1.06684 0
M  V30 1199 H 113.335 0.556505 4.17709 0
M  V30 1200 H 112.059 -0.275819 3.25433 0
M  V30 1201 H 110.718 1.8547 3.16222 0
M  V30 1202 H 110.366 0.223499 5.02503 0
M  V30 1203 H 110.066 1.89545 5.56189 0
M  V30 1204 H 111.59 1.07782 6.01012 0
M  V30 1205 H 113.004 3.03775 4.86203 0
M  V30 1206 H 111.401 3.79875 4.64559 0
M  V30 1207 H 112.471 3.6025 3.24573 0
M  V30 1208 N 113.814 -1.1601 1.06675 0
M  V30 1209 C 114.724 -2.24156 0.692179 0
M  V30 1210 C 115.74 -1.71507 -0.293513 0
M  V30 1211 O 116.916 -2.009 -0.141861 0
M  V30 1212 C 113.981 -3.46587 0.0884131 0
M  V30 1213 C 113.042 -4.14257 1.12646 0
M  V30 1214 C 112.275 -5.30844 0.551416 0
M  V30 1215 O 112.498 -5.66858 -0.634656 0
M  V30 1216 O 111.432 -5.87848 1.29298 0
M  V30 1217 H 115.258 -2.58513 1.59388 0
M  V30 1218 H 112.843 -1.23599 0.83926 0
M  V30 1219 H 114.725 -4.20679 -0.246361 0
M  V30 1220 H 113.4 -3.13994 -0.786712 0
M  V30 1221 H 112.307 -3.42118 1.51348 0
M  V30 1222 H 113.64 -4.50914 1.97325 0
M  V30 1223 N 115.292 -0.849877 -1.32721 0
M  V30 1224 C 116.569 -0.372405 -1.92022 0
M  V30 1225 C 116.949 1.1435 -1.77447 0
M  V30 1226 O 116.297 1.96296 -1.16962 0
M  V30 1227 C 116.507 -0.831482 -3.3895 0
M  V30 1228 C 117.855 -0.845882 -4.16089 0
M  V30 1229 O 118.879 -0.775806 -3.47649 0
M  V30 1230 O 117.738 -0.943753 -5.38289 0
M  V30 1231 H 114.832 -0.107667 -0.819961 0
M  V30 1232 H 117.378 -0.93646 -1.41522 0
M  V30 1233 H 116.15 -1.87448 -3.4348 0
M  V30 1234 H 115.773 -0.24461 -3.96847 0
M  V30 1235 N 116.77 1.45427 -0.607355 0
M  V30 1236 C 117.7 2.3329 0.0989352 0
M  V30 1237 C 118.681 1.46816 0.859007 0
M  V30 1238 O 119.866 1.75588 0.829604 0
M  V30 1239 C 116.996 3.29518 1.09705 0
M  V30 1240 C 115.95 4.25626 0.450206 0
M  V30 1241 C 115.276 5.11542 1.55655 0
M  V30 1242 C 116.576 5.18505 -0.628455 0
M  V30 1243 H 118.27 2.92595 -0.634716 0
M  V30 1244 H 115.816 1.40696 -0.306681 0
M  V30 1245 H 117.769 3.89855 1.59971 0
M  V30 1246 H 116.493 2.68372 1.86129 0
M  V30 1247 H 115.152 3.66586 -0.0315886 0
M  V30 1248 H 114.8 4.46765 2.31107 0
M  V30 1249 H 114.5 5.76647 1.12925 0
M  V30 1250 H 116.024 5.74748 2.06148 0
M  V30 1251 H 117.438 5.72916 -0.209877 0
M  V30 1252 H 115.835 5.92085 -0.977489 0
M  V30 1253 H 116.905 4.60948 -1.50514 0
M  V30 1254 N 118.248 0.346503 1.53744 0
M  V30 1255 C 119.525 -0.304532 1.93215 0
M  V30 1256 C 119.905 -1.67993 1.27834 0
M  V30 1257 O 119.253 -2.24411 0.430352 0
M  V30 1258 C 119.463 -0.373852 3.46992 0
M  V30 1259 C 120.811 -0.62329 4.2 0
M  V30 1260 O 121.835 -0.455847 3.53271 0
M  V30 1261 O 120.694 -0.947879 5.38217 0
M  V30 1262 H 117.788 -0.178318 0.807547 0
M  V30 1263 H 120.334 0.397895 1.64969 0
M  V30 1264 H 119.106 0.591224 3.86808 0
M  V30 1265 H 118.729 -1.12294 3.81413 0
M  V30 1266 N 119.726 -1.57421 0.075193 0
M  V30 1267 C 121.137 -1.81021 -0.456964 0
M  V30 1268 C 121.488 -0.98936 -1.69429 0
M  V30 1269 O 120.613 -0.212865 -2.15351 0
M  V30 1270 C 121.208 -3.28329 -0.83581 0
M  V30 1271 C 119.767 -3.52764 -1.31281 0
M  V30 1272 C 118.914 -2.75676 -0.299648 0
M  V30 1273 H 121.865 -1.55822 0.300856 0
M  V30 1274 H 121.886 -3.40564 -1.69696 0
M  V30 1275 H 121.398 -3.88046 0.0649238 0
M  V30 1276 H 119.499 -2.98355 -2.23193 0
M  V30 1277 H 119.612 -4.61451 -1.28839 0
M  V30 1278 H 117.976 -2.42538 -0.777641 0
M  V30 1279 H 118.759 -3.38132 0.593417 0
M  V30 1280 N 121.204 0.198386 -1.56346 0
M  V30 1281 C 122.434 0.934215 -1.84271 0
M  V30 1282 C 122.842 1.77496 -0.655125 0
M  V30 1283 O 122.185 1.7961 0.385488 0
M  V30 1284 C 122.247 1.88278 -3.06254 0
M  V30 1285 C 121.911 1.22431 -4.40295 0
M  V30 1286 C 122.908 0.602839 -5.16393 0
M  V30 1287 C 120.593 1.22915 -4.87029 0
M  V30 1288 C 122.587 -0.0050083 -6.374 0
M  V30 1289 C 120.274 0.617465 -6.07973 0
M  V30 1290 C 121.272 0.00146341 -6.83 0
M  V30 1291 O 120.96 -0.600642 -8.01653 0
M  V30 1292 H 120.692 0.278245 -0.616081 0
M  V30 1293 H 123.246 0.211626 -2.04307 0
M  V30 1294 H 121.476 2.64498 -2.82095 0
M  V30 1295 H 123.165 2.48612 -3.20853 0
M  V30 1296 H 123.931 0.591265 -4.81382 0
M  V30 1297 H 119.81 1.69801 -4.28589 0
M  V30 1298 H 123.354 -0.48643 -6.95902 0
M  V30 1299 H 119.251 0.62653 -6.42452 0
M  V30 1300 H 120.019 -0.497225 -8.16988 0
M  V30 1301 N 122.682 1.50554 0.465978 0
M  V30 1302 C 123.912 1.65323 1.23903 0
M  V30 1303 C 124.32 0.338051 1.86155 0
M  V30 1304 O 123.663 -0.690518 1.70228 0
M  V30 1305 C 123.725 2.69048 2.3844 0
M  V30 1306 C 123.389 4.12462 1.96784 0
M  V30 1307 C 124.386 4.98168 1.48745 0
M  V30 1308 C 122.071 4.58407 2.05349 0
M  V30 1309 C 124.065 6.27868 1.0982 0
M  V30 1310 C 121.752 5.88112 1.66035 0
M  V30 1311 C 122.75 6.72668 1.18349 0
M  V30 1312 O 122.438 7.99951 0.795825 0
M  V30 1313 H 122.17 0.558629 0.38067 0
M  V30 1314 H 124.724 1.97561 0.562022 0
M  V30 1315 H 122.954 2.32062 3.09328 0
M  V30 1316 H 124.643 2.72985 3.0039 0
M  V30 1317 H 125.409 4.63885 1.41546 0
M  V30 1318 H 121.288 3.92735 2.41414 0
M  V30 1319 H 124.832 6.93819 0.725293 0
M  V30 1320 H 120.729 6.21914 1.72895 0
M  V30 1321 H 121.497 8.13265 0.924222 0
M  V30 1322 N 124.16 -0.719506 1.40217 0
M  V30 1323 C 125.409 -1.47486 1.37589 0
M  V30 1324 C 125.722 -1.9559 -0.0201568 0
M  V30 1325 O 126.928 -2.70973 -0.169049 0
M  V30 1326 C 125.384 -2.66575 2.41796 0
M  V30 1327 C 124.992 -2.25358 3.87192 0
M  V30 1328 C 126.736 -3.4433 2.48269 0
M  V30 1329 C 124.643 -3.41262 4.83005 0
M  V30 1330 H 123.573 -0.553901 0.511576 0
M  V30 1331 H 126.224 -0.783427 1.65936 0
M  V30 1332 H 124.606 -3.3787 2.06543 0
M  V30 1333 H 125.78 -1.61509 4.31569 0
M  V30 1334 H 124.095 -1.60657 3.84159 0
M  V30 1335 H 126.692 -4.30569 3.17041 0
M  V30 1336 H 127.035 -3.87872 1.51198 0
M  V30 1337 H 127.568 -2.80076 2.82493 0
M  V30 1338 H 124.307 -3.02755 5.81394 0
M  V30 1339 H 123.827 -4.0404 4.43297 0
M  V30 1340 H 125.506 -4.07383 5.02641 0
M  V30 1341 N 125.638 -1.25649 -0.95132 0
M  V30 1342 C 126.586 -1.06118 -2.06982 0
M  V30 1343 C 127.58 0.00889169 -1.69398 0
M  V30 1344 O 128.786 -0.146988 -1.79399 0
M  V30 1345 H 125.161 -0.326248 -0.677544 0
M  V30 1346 H 127.132 -2.00932 -2.2061 0
M  V30 1347 C 125.881 -0.700145 -3.40578 0
M  V30 1348 H 125.204 -1.51537 -3.69968 0
M  V30 1349 H 126.644 -0.603211 -4.19687 0
M  V30 1350 C 125.103 0.59403 -3.31622 0
M  V30 1351 O 125.633 1.63522 -3.66911 0
M  V30 1352 N 123.839 0.58089 -2.84735 0
M  V30 1353 H 123.386 -0.266783 -2.56215 0
M  V30 1354 H 123.344 1.44695 -2.79125 0
M  V30 1355 N 127.117 1.15442 -1.07289 0
M  V30 1356 C 128.064 2.20161 -0.692653 0
M  V30 1357 C 129.034 1.63073 0.31564 0
M  V30 1358 O 130.219 1.89725 0.202235 0
M  V30 1359 C 127.359 3.44967 -0.0959509 0
M  V30 1360 C 126.472 4.16256 -1.15564 0
M  V30 1361 C 125.607 5.28609 -0.524011 0
M  V30 1362 C 124.646 5.91715 -1.56653 0
M  V30 1363 N 123.783 6.9554 -0.957531 0
M  V30 1364 H 128.623 2.52037 -1.59002 0
M  V30 1365 H 126.16 1.2378 -0.794798 0
M  V30 1366 H 128.118 4.16341 0.267628 0
M  V30 1367 H 126.748 3.1361 0.764772 0
M  V30 1368 H 125.8 3.43385 -1.6368 0
M  V30 1369 H 127.112 4.59268 -1.94613 0
M  V30 1370 H 126.266 6.06604 -0.108032 0
M  V30 1371 H 125.005 4.86787 0.29825 0
M  V30 1372 H 124.01 5.12433 -1.9923 0
M  V30 1373 H 125.235 6.35614 -2.39107 0
M  V30 1374 H 123.181 6.55814 -0.156162 0
M  V30 1375 H 123.098 7.36977 -1.68526 0
M  V30 1376 H 124.366 7.77435 -0.567032 0
M  V30 1377 N 128.595 0.856903 1.32268 0
M  V30 1378 C 129.542 0.301172 2.28827 0
M  V30 1379 C 130.512 -0.593104 1.5515 0
M  V30 1380 O 131.697 -0.527537 1.83362 0
M  V30 1381 C 128.837 -0.502523 3.41422 0
M  V30 1382 C 127.95 0.417797 4.29975 0
M  V30 1383 C 127.085 -0.398749 5.29701 0
M  V30 1384 C 126.124 0.518827 6.09897 0
M  V30 1385 N 125.261 -0.260674 7.01616 0
M  V30 1386 H 130.101 1.12983 2.75751 0
M  V30 1387 H 127.638 0.568582 1.35667 0
M  V30 1388 H 129.596 -0.984141 4.05426 0
M  V30 1389 H 128.226 -1.29599 2.95642 0
M  V30 1390 H 127.278 1.01781 3.66531 0
M  V30 1391 H 128.59 1.12191 4.86019 0
M  V30 1392 H 127.744 -0.943435 5.9932 0
M  V30 1393 H 126.483 -1.13622 4.7428 0
M  V30 1394 H 125.488 1.07538 5.39181 0
M  V30 1395 H 126.713 1.25495 6.67404 0
M  V30 1396 H 124.659 -0.981198 6.4862 0
M  V30 1397 H 124.576 0.384364 7.55022 0
M  V30 1398 H 125.844 -0.787014 7.75517 0
M  V30 1399 N 130.073 -1.45103 0.615059 0
M  V30 1400 C 131.301 -2.06553 0.11977 0
M  V30 1401 C 131.716 -1.45842 -1.19898 0
M  V30 1402 O 131.073 -0.575325 -1.73194 0
M  V30 1403 C 131.124 -3.61495 -0.018364 0
M  V30 1404 O 130.845 -4.19942 1.24822 0
M  V30 1405 C 132.346 -4.39947 -0.544237 0
M  V30 1406 H 129.566 -0.667096 0.0722739 0
M  V30 1407 H 132.11 -1.8623 0.84491 0
M  V30 1408 H 130.265 -3.81135 -0.693865 0
M  V30 1409 H 130.679 -5.13204 1.0827 0
M  V30 1410 H 132.153 -5.48838 -0.589953 0
M  V30 1411 H 132.63 -4.10255 -1.56805 0
M  V30 1412 H 133.236 -4.25188 0.0974703 0
M  V30 1413 N 131.551 -0.354651 -1.53558 0
M  V30 1414 C 132.798 0.238443 -2.01091 0
M  V30 1415 C 133.126 1.49663 -1.24222 0
M  V30 1416 O 132.381 1.93049 -0.321003 0
M  V30 1417 C 132.68 0.587121 -3.52545 0
M  V30 1418 C 132.346 -0.575472 -4.47213 0
M  V30 1419 C 131.008 -0.894497 -4.72813 0
M  V30 1420 C 133.36 -1.35489 -5.03281 0
M  V30 1421 C 130.688 -1.99511 -5.51736 0
M  V30 1422 C 133.04 -2.44583 -5.83405 0
M  V30 1423 C 131.704 -2.77033 -6.07296 0
M  V30 1424 H 130.974 0.0872526 -0.735845 0
M  V30 1425 H 133.621 -0.484859 -1.8526 0
M  V30 1426 H 131.926 1.39129 -3.66265 0
M  V30 1427 H 133.623 1.05809 -3.86789 0
M  V30 1428 H 130.213 -0.316774 -4.27428 0
M  V30 1429 H 134.397 -1.12167 -4.83459 0
M  V30 1430 H 129.653 -2.25063 -5.68469 0
M  V30 1431 H 133.827 -3.05401 -6.25862 0
M  V30 1432 H 131.454 -3.6244 -6.68237 0
M  V30 1433 N 133.029 1.57378 -0.0835403 0
M  V30 1434 C 134.278 1.93106 0.582498 0
M  V30 1435 C 134.591 0.96651 1.70053 0
M  V30 1436 O 135.797 1.21705 2.42693 0
M  V30 1437 C 134.253 3.43076 1.08751 0
M  V30 1438 C 133.861 4.48 -0.000146404 0
M  V30 1439 C 135.605 3.87785 1.72694 0
M  V30 1440 C 133.512 5.89113 0.519568 0
M  V30 1441 H 132.442 0.720775 0.221358 0
M  V30 1442 H 135.093 1.82821 -0.157675 0
M  V30 1443 H 133.475 3.48474 1.88101 0
M  V30 1444 H 134.649 4.54233 -0.775199 0
M  V30 1445 H 132.964 4.1283 -0.54406 0
M  V30 1446 H 135.561 4.90604 2.1263 0
M  V30 1447 H 135.904 3.25796 2.59158 0
M  V30 1448 H 136.437 3.8504 0.999457 0
M  V30 1449 H 133.176 6.54775 -0.308186 0
M  V30 1450 H 132.696 5.86376 1.26188 0
M  V30 1451 H 134.375 6.39346 0.992237 0
M  V30 1452 N 134.507 -0.190092 1.56449 0
M  V30 1453 C 135.753 -0.911052 1.81184 0
M  V30 1454 C 136.086 -1.82699 0.658396 0
M  V30 1455 O 135.361 -1.91491 -0.340775 0
M  V30 1456 C 135.644 -1.72297 3.16205 0
M  V30 1457 C 135.497 -0.831419 4.42049 0
M  V30 1458 C 136.816 -2.69454 3.47969 0
M  V30 1459 H 133.935 -0.32977 0.659106 0
M  V30 1460 H 136.577 -0.178169 1.89163 0
M  V30 1461 H 134.727 -2.34778 3.09534 0
M  V30 1462 H 136.399 -0.220929 4.60771 0
M  V30 1463 H 134.642 -0.138406 4.33579 0
M  V30 1464 H 135.313 -1.43461 5.33032 0
M  V30 1465 H 137.789 -2.17104 3.54972 0
M  V30 1466 H 136.665 -3.23342 4.43555 0
M  V30 1467 H 136.926 -3.48744 2.71717 0
M  V30 1468 N 135.985 -1.50799 -0.457987 0
M  V30 1469 C 136.918 -1.65273 -1.57353 0
M  V30 1470 C 137.896 -0.500578 -1.54703 0
M  V30 1471 O 139.08 -0.721781 -1.74134 0
M  V30 1472 C 136.207 -1.64737 -2.95938 0
M  V30 1473 C 135.253 -2.8567 -3.16693 0
M  V30 1474 S 136.086 -4.46791 -2.95191 0
M  V30 1475 C 137.242 -4.48968 -4.36095 0
M  V30 1476 H 137.475 -2.59633 -1.44838 0
M  V30 1477 H 135.008 -1.40225 -0.64625 0
M  V30 1478 H 136.966 -1.65112 -3.7583 0
M  V30 1479 H 135.627 -0.715899 -3.05833 0
M  V30 1480 H 134.82 -2.81637 -4.17967 0
M  V30 1481 H 134.422 -2.8293 -2.44594 0
M  V30 1482 H 136.714 -4.23337 -5.28954 0
M  V30 1483 H 137.657 -5.50664 -4.45168 0
M  V30 1484 H 138.065 -3.78522 -4.18786 0
M  V30 1485 N 137.463 0.71206 -1.40597 0
M  V30 1486 C 138.411 1.84746 -1.41321 0
M  V30 1487 C 139.405 1.66842 -0.293268 0
M  V30 1488 O 140.611 1.73904 -0.464481 0
M  V30 1489 H 136.986 0.608522 -0.441819 0
M  V30 1490 H 138.957 1.81252 -2.37045 0
M  V30 1491 C 137.706 3.22638 -1.29614 0
M  V30 1492 H 137.029 3.37023 -2.15071 0
M  V30 1493 H 138.469 4.02209 -1.3418 0
M  V30 1494 C 136.928 3.36899 -0.00673121 0
M  V30 1495 O 137.458 3.90186 0.954859 0
M  V30 1496 N 135.664 2.9053 0.0639327 0
M  V30 1497 H 135.211 2.47353 -0.719311 0
M  V30 1498 H 135.169 3.0045 0.926118 0
M  V30 1499 N 138.941 1.26152 0.944643 0
M  V30 1500 C 139.888 1.07408 2.04285 0
M  V30 1501 C 140.858 -0.0198413 1.66088 0
M  V30 1502 O 142.043 0.139264 1.90291 0
M  V30 1503 C 139.183 0.70945 3.37729 0
M  V30 1504 C 138.296 1.87926 3.88983 0
M  V30 1505 C 137.431 1.45807 5.10797 0
M  V30 1506 C 136.47 2.5964 5.54305 0
M  V30 1507 N 135.607 2.18226 6.67324 0
M  V30 1508 H 140.447 2.01389 2.1965 0
M  V30 1509 H 137.984 1.00275 1.07626 0
M  V30 1510 H 139.942 0.478948 4.14442 0
M  V30 1511 H 138.572 -0.193389 3.2222 0
M  V30 1512 H 137.624 2.22279 3.08701 0
M  V30 1513 H 138.936 2.73377 4.17213 0
M  V30 1514 H 138.09 1.18781 5.94959 0
M  V30 1515 H 136.829 0.574414 4.84305 0
M  V30 1516 H 135.834 2.87399 4.68702 0
M  V30 1517 H 137.059 3.48599 5.828 0
M  V30 1518 H 135.005 1.3229 6.42523 0
M  V30 1519 H 134.922 2.97221 6.95123 0
M  V30 1520 H 136.19 1.94403 7.54869 0
M  V30 1521 N 140.419 -1.14872 1.07899 0
M  V30 1522 C 141.667 -1.85422 0.803941 0
M  V30 1523 C 141.988 -1.83051 -0.67211 0
M  V30 1524 O 141.258 -1.27532 -1.48703 0
M  V30 1525 H 139.838 -0.686537 0.294408 0
M  V30 1526 H 142.5 -1.39226 1.3639 0
M  V30 1527 H 141.596 -2.90399 1.14346 0
M  V30 1528 N 141.898 -0.863906 -1.31812 0
M  V30 1529 C 142.845 -0.313303 -2.28664 0
M  V30 1530 C 143.815 0.584868 -1.55462 0
M  V30 1531 O 145 0.517805 -1.83639 0
M  V30 1532 C 142.14 0.48441 -3.41683 0
M  V30 1533 C 141.253 -0.440594 -4.29747 0
M  V30 1534 C 140.388 0.370652 -5.29905 0
M  V30 1535 C 139.427 -0.551164 -6.09613 0
M  V30 1536 N 138.564 0.223462 -7.01744 0
M  V30 1537 H 143.404 -1.14444 -2.75148 0
M  V30 1538 H 140.941 -0.575769 -1.35364 0
M  V30 1539 H 142.899 0.962627 -4.05943 0
M  V30 1540 H 141.529 1.28029 -2.96325 0
M  V30 1541 H 140.581 -1.03724 -3.65986 0
M  V30 1542 H 141.893 -1.14767 -4.85417 0
M  V30 1543 H 141.047 0.911638 -5.99812 0
M  V30 1544 H 139.786 1.11105 -4.74876 0
M  V30 1545 H 138.791 -1.10396 -5.38603 0
M  V30 1546 H 140.016 -1.29032 -6.66729 0
M  V30 1547 H 137.962 0.946787 -6.49132 0
M  V30 1548 H 137.879 -0.424399 -7.54808 0
M  V30 1549 H 139.147 0.745876 -7.75923 0
M  V30 1550 N 143.376 1.44774 -0.622745 0
M  V30 1551 C 144.339 2.29069 0.0774015 0
M  V30 1552 C 145.339 1.4059 0.780461 0
M  V30 1553 O 146.529 1.62551 0.626322 0
M  V30 1554 C 143.661 3.21974 1.12006 0
M  V30 1555 H 144.854 2.92459 -0.663901 0
M  V30 1556 H 142.407 1.51548 -0.382486 0
M  V30 1557 H 143.142 2.63417 1.89162 0
M  V30 1558 H 142.927 3.87168 0.619951 0
M  V30 1559 H 144.417 3.85318 1.60995 0
M  V30 1560 N 144.854 0.36279 1.53368 0
M  V30 1561 C 146.103 -0.22888 2.00397 0
M  V30 1562 C 146.416 -1.50096 1.25421 0
M  V30 1563 O 147.622 -2.17106 1.63025 0
M  V30 1564 C 146.078 -0.458417 3.56969 0
M  V30 1565 C 145.686 0.798877 4.4082 0
M  V30 1566 C 147.43 -1.00789 4.12361 0
M  V30 1567 C 145.337 0.539078 5.88938 0
M  V30 1568 H 144.267 -0.089305 0.748693 0
M  V30 1569 H 146.918 0.481099 1.77081 0
M  V30 1570 H 145.3 -1.22959 3.76427 0
M  V30 1571 H 146.474 1.57262 4.33134 0
M  V30 1572 H 144.789 1.27137 3.96516 0
M  V30 1573 H 147.386 -1.21754 5.20653 0
M  V30 1574 H 147.729 -1.9692 3.66781 0
M  V30 1575 H 148.262 -0.296961 3.9669 0
M  V30 1576 H 145.001 1.47064 6.3879 0
M  V30 1577 H 144.521 -0.196222 5.99479 0
M  V30 1578 H 146.2 0.163542 6.46793 0
M  V30 1579 N 146.332 -1.57332 0.0918853 0
M  V30 1580 C 147.579 -1.94236 -0.572577 0
M  V30 1581 C 147.907 -0.973398 -1.6839 0
M  V30 1582 O 147.162 0.00756912 -1.95699 0
M  V30 1583 C 147.461 -3.37689 -1.17051 0
M  V30 1584 C 147.127 -4.50527 -0.183304 0
M  V30 1585 C 145.789 -4.81119 0.0882276 0
M  V30 1586 C 148.141 -5.18883 0.49095 0
M  V30 1587 C 145.469 -5.77395 1.04076 0
M  V30 1588 C 147.821 -6.1618 1.43193 0
M  V30 1589 C 146.485 -6.45179 1.71173 0
M  V30 1590 H 145.755 -0.710762 -0.209521 0
M  V30 1591 H 148.402 -1.9077 0.167036 0
M  V30 1592 H 146.707 -3.37718 -1.9863 0
M  V30 1593 H 148.404 -3.63543 -1.69227 0
M  V30 1594 H 144.994 -4.26681 -0.405124 0
M  V30 1595 H 149.178 -4.95427 0.294312 0
M  V30 1596 H 144.434 -5.98179 1.26457 0
M  V30 1597 H 148.608 -6.68243 1.96023 0
M  V30 1598 H 146.235 -7.1959 2.4514 0
M  V30 1599 N 147.81 0.181792 -1.56548 0
M  V30 1600 C 149.226 0.53316 -1.50431 0
M  V30 1601 C 149.426 1.85184 -0.794297 0
M  V30 1602 O 148.482 2.50058 -0.350318 0
M  V30 1603 C 149.795 0.575597 -2.9514 0
M  V30 1604 C 151.343 0.663519 -3.05886 0
M  V30 1605 C 151.818 0.736946 -4.52032 0
M  V30 1606 N 153.309 0.800118 -4.56237 0
M  V30 1607 C 154.044 0.877327 -5.66649 0
M  V30 1608 N 153.54 0.916016 -6.86718 0
M  V30 1609 N 155.333 0.915542 -5.54594 0
M  V30 1610 H 147.484 -0.683025 -2.01118 0
M  V30 1611 H 149.747 -0.244988 -0.915797 0
M  V30 1612 H 149.453 -0.324482 -3.502 0
M  V30 1613 H 149.327 1.42572 -3.49218 0
M  V30 1614 H 151.714 1.55403 -2.50867 0
M  V30 1615 H 151.795 -0.21307 -2.54911 0
M  V30 1616 H 151.439 -0.149262 -5.07681 0
M  V30 1617 H 151.369 1.62953 -5.00753 0
M  V30 1618 H 153.86 0.778926 -3.69785 0
M  V30 1619 H 154.173 0.975813 -7.66614 0
M  V30 1620 H 152.518 0.884469 -6.89349 0
M  V30 1621 H 155.709 0.882245 -4.59711 0
M  V30 1622 H 155.882 0.972253 -6.40665 0
M  V30 1623 N 149.288 1.51039 0.449983 0
M  V30 1624 C 150.535 1.63081 1.20045 0
M  V30 1625 C 150.863 0.341024 1.91487 0
M  V30 1626 O 150.118 -0.674276 1.83717 0
M  V30 1627 C 150.417 2.77556 2.25161 0
M  V30 1628 C 150.083 4.17289 1.70823 0
M  V30 1629 C 148.745 4.55305 1.55725 0
M  V30 1630 C 151.097 5.04536 1.3074 0
M  V30 1631 C 148.425 5.78287 0.989999 0
M  V30 1632 C 150.777 6.28085 0.754482 0
M  V30 1633 C 149.441 6.64885 0.590308 0
M  V30 1634 H 148.711 0.596755 0.439277 0
M  V30 1635 H 151.358 1.85037 0.49333 0
M  V30 1636 H 149.663 2.49771 3.01863 0
M  V30 1637 H 151.36 2.84073 2.83026 0
M  V30 1638 H 147.95 3.8731 1.83546 0
M  V30 1639 H 152.134 4.75782 1.41229 0
M  V30 1640 H 147.39 6.05456 0.850451 0
M  V30 1641 H 151.564 6.95038 0.435324 0
M  V30 1642 H 149.191 7.60055 0.14862 0
M  V30 1643 N 150.766 -0.704594 1.40972 0
M  V30 1644 C 151.991 -1.49858 1.43378 0
M  V30 1645 C 152.416 -1.88061 0.038184 0
M  V30 1646 O 151.774 -1.5402 -0.956425 0
M  V30 1647 C 151.822 -2.74333 2.34038 0
M  V30 1648 O 150.926 -3.7147 1.7912 0
M  V30 1649 H 150.267 -0.45139 0.486974 0
M  V30 1650 H 152.797 -0.866832 1.8533 0
M  V30 1651 H 152.807 -3.22741 2.49604 0
M  V30 1652 H 151.482 -2.45863 3.35446 0
M  V30 1653 H 150.059 -3.30363 1.72958 0
M  V30 1654 N 152.244 -1.26651 -0.937939 0
M  V30 1655 C 153.207 -1.08546 -2.01867 0
M  V30 1656 C 154.207 -0.0327327 -1.60767 0
M  V30 1657 O 155.397 -0.276427 -1.71993 0
M  V30 1658 C 152.529 -0.651711 -3.34613 0
M  V30 1659 H 153.722 -2.04502 -2.1936 0
M  V30 1660 H 151.275 -1.09294 -1.11734 0
M  V30 1661 H 152.01 0.309696 -3.22818 0
M  V30 1662 H 151.795 -1.41189 -3.65798 0
M  V30 1663 H 153.285 -0.546973 -4.14002 0
M  V30 1664 N 153.722 1.14298 -1.08507 0
M  V30 1665 C 154.95 1.89219 -0.836876 0
M  V30 1666 C 155.365 1.78638 0.611054 0
M  V30 1667 O 154.722 1.14643 1.41998 0
M  V30 1668 C 154.773 3.39158 -1.25116 0
M  V30 1669 O 154.494 3.49449 -2.64229 0
M  V30 1670 C 155.995 4.31073 -1.03398 0
M  V30 1671 H 153.215 0.599328 -0.301739 0
M  V30 1672 H 155.759 1.44746 -1.44461 0
M  V30 1673 H 153.914 3.81251 -0.687514 0
M  V30 1674 H 154.328 4.42589 -2.81452 0
M  V30 1675 H 155.802 5.34646 -1.37323 0
M  V30 1676 H 156.279 4.3919 0.0289259 0
M  V30 1677 H 156.885 3.94738 -1.58311 0
M  V30 1678 N 155.201 0.870884 1.31352 0
M  V30 1679 C 156.426 0.495957 2.01383 0
M  V30 1680 C 156.851 -0.904324 1.64935 0
M  V30 1681 O 156.209 -1.59687 0.858466 0
M  V30 1682 C 156.257 0.661433 3.54482 0
M  V30 1683 O 155.361 -0.298851 4.11316 0
M  V30 1684 H 154.702 0.197158 0.634054 0
M  V30 1685 H 157.232 1.17455 1.67527 0
M  V30 1686 H 157.242 0.555072 4.04207 0
M  V30 1687 H 155.917 1.68246 3.8035 0
M  V30 1688 H 154.494 -0.147368 3.72609 0
M  V30 1689 N 156.679 -1.44442 0.630414 0
M  V30 1690 C 157.642 -2.29107 -0.0652523 0
M  V30 1691 C 158.642 -1.41002 -0.772995 0
M  V30 1692 O 159.832 -1.62881 -0.617692 0
M  V30 1693 C 156.964 -3.22564 -1.10296 0
M  V30 1694 H 158.157 -2.92103 0.679401 0
M  V30 1695 H 155.71 -1.51343 0.390517 0
M  V30 1696 H 156.445 -2.64416 -1.87762 0
M  V30 1697 H 156.23 -3.87491 -0.59941 0
M  V30 1698 H 157.72 -3.86167 -1.5895 0
M  V30 1699 N 158.157 -0.370918 -1.53173 0
M  V30 1700 C 159.087 0.464847 -2.28826 0
M  V30 1701 C 160.068 1.07936 -1.31468 0
M  V30 1702 O 161.253 1.0956 -1.60344 0
M  V30 1703 C 158.383 1.60196 -3.08147 0
M  V30 1704 C 157.337 1.11443 -4.13237 0
M  V30 1705 C 156.663 2.3422 -4.80672 0
M  V30 1706 C 157.963 0.195384 -5.21934 0
M  V30 1707 H 159.657 -0.166329 -2.98938 0
M  V30 1708 H 157.203 -0.0814359 -1.4377 0
M  V30 1709 H 159.156 2.19332 -3.59822 0
M  V30 1710 H 157.88 2.26045 -2.35735 0
M  V30 1711 H 156.539 0.545727 -3.62515 0
M  V30 1712 H 156.187 2.98537 -4.04827 0
M  V30 1713 H 155.887 2.02269 -5.51689 0
M  V30 1714 H 157.411 2.94032 -5.35143 0
M  V30 1715 H 158.825 0.694375 -5.69079 0
M  V30 1716 H 157.222 -0.0335027 -6.00091 0
M  V30 1717 H 158.292 -0.760961 -4.78892 0
M  V30 1718 N 159.635 1.57281 -0.100228 0
M  V30 1719 C 160.865 1.98591 0.569681 0
M  V30 1720 C 161.273 0.978315 1.61943 0
M  V30 1721 O 160.616 -0.0396108 1.83657 0
M  V30 1722 C 160.678 3.36282 1.271 0
M  V30 1723 C 160.342 4.55488 0.371409 0
M  V30 1724 C 161.339 5.18491 -0.382504 0
M  V30 1725 C 159.024 5.01474 0.287965 0
M  V30 1726 C 161.018 6.25852 -1.20779 0
M  V30 1727 C 158.705 6.08701 -0.540965 0
M  V30 1728 C 159.703 6.70755 -1.28749 0
M  V30 1729 O 159.391 7.75914 -2.10269 0
M  V30 1730 H 159.123 0.65752 0.156982 0
M  V30 1731 H 161.677 2.0463 -0.177734 0
M  V30 1732 H 159.907 3.26941 2.0651 0
M  V30 1733 H 161.596 3.62005 1.83595 0
M  V30 1734 H 162.362 4.83891 -0.3278 0
M  V30 1735 H 158.241 4.52932 0.858689 0
M  V30 1736 H 161.785 6.74218 -1.79096 0
M  V30 1737 H 157.682 6.42732 -0.597131 0
M  V30 1738 H 158.45 7.92925 -2.03007 0
M  V30 1739 N 161.113 -0.173488 1.56642 0
M  V30 1740 C 162.362 -0.888758 1.81063 0
M  V30 1741 C 162.675 -1.83506 0.67712 0
M  V30 1742 O 163.881 -2.59254 0.806206 0
M  V30 1743 C 162.337 -1.63091 3.20826 0
M  V30 1744 C 161.945 -0.728357 4.4204 0
M  V30 1745 C 163.689 -2.33454 3.54541 0
M  V30 1746 C 161.596 -1.47062 5.72823 0
M  V30 1747 H 160.526 -0.335618 0.675186 0
M  V30 1748 H 163.177 -0.141712 1.82952 0
M  V30 1749 H 161.559 -2.42263 3.13248 0
M  V30 1750 H 162.733 0.0262449 4.60793 0
M  V30 1751 H 161.048 -0.134492 4.16183 0
M  V30 1752 H 163.645 -2.89578 4.49498 0
M  V30 1753 H 163.988 -3.08687 2.79317 0
M  V30 1754 H 164.521 -1.61227 3.63663 0
M  V30 1755 H 161.26 -0.760658 6.51072 0
M  V30 1756 H 160.78 -2.1986 5.58052 0
M  V30 1757 H 162.459 -2.01868 6.14702 0
M  V30 1758 N 162.591 -1.51276 -0.441967 0
M  V30 1759 C 163.521 -1.752 -1.54361 0
M  V30 1760 C 164.502 -0.601682 -1.59103 0
M  V30 1761 O 165.687 -0.843913 -1.74905 0
M  V30 1762 C 162.817 -1.87282 -2.92477 0
M  V30 1763 C 161.771 -3.02687 -3.02596 0
M  V30 1764 C 161.097 -2.99947 -4.42647 0
M  V30 1765 C 162.397 -4.4273 -2.77106 0
M  V30 1766 H 164.091 -2.67442 -1.34592 0
M  V30 1767 H 161.637 -1.28694 -0.646048 0
M  V30 1768 H 163.59 -2.02602 -3.695 0
M  V30 1769 H 162.314 -0.916844 -3.13467 0
M  V30 1770 H 160.973 -2.87065 -2.28012 0
M  V30 1771 H 160.621 -2.02136 -4.60597 0
M  V30 1772 H 160.321 -3.77439 -4.50348 0
M  V30 1773 H 161.845 -3.17354 -5.2165 0
M  V30 1774 H 163.259 -4.58727 -3.43864 0
M  V30 1775 H 161.656 -5.21893 -2.96222 0
M  V30 1776 H 162.726 -4.53087 -1.72744 0
M  V30 1777 N 164.069 0.697108 -1.41344 0
M  V30 1778 C 165.297 1.48593 -1.43972 0
M  V30 1779 C 165.712 1.88747 -0.0445612 0
M  V30 1780 O 165.069 1.56682 0.935785 0
M  V30 1781 C 165.12 2.74946 -2.34706 0
M  V30 1782 O 164.841 2.36484 -3.68791 0
M  V30 1783 C 166.342 3.687 -2.46121 0
M  V30 1784 H 163.562 0.457964 -0.490418 0
M  V30 1785 H 166.106 0.858429 -1.8561 0
M  V30 1786 H 164.261 3.33937 -1.9638 0
M  V30 1787 H 164.675 3.17918 -4.17167 0
M  V30 1788 H 166.149 4.54145 -3.13777 0
M  V30 1789 H 166.626 4.13081 -1.49199 0
M  V30 1790 H 167.232 3.15613 -2.85076 0
M  V30 1791 N 165.547 1.27147 0.931209 0
M  V30 1792 C 166.958 1.12044 1.49342 0
M  V30 1793 C 167.309 -0.295795 1.93957 0
M  V30 1794 O 166.434 -1.18835 1.80852 0
M  V30 1795 C 167.029 2.02781 2.71414 0
M  V30 1796 C 165.588 1.91794 3.2387 0
M  V30 1797 C 164.735 1.95543 1.96617 0
M  V30 1798 H 167.686 1.40091 0.745672 0
M  V30 1799 H 167.707 1.58156 3.46074 0
M  V30 1800 H 167.219 3.05848 2.38911 0
M  V30 1801 H 165.32 0.916992 3.6114 0
M  V30 1802 H 165.433 2.77852 3.90302 0
M  V30 1803 H 163.797 1.39722 2.12955 0
M  V30 1804 H 164.58 3.00259 1.66432 0
M  V30 1805 N 167.025 -1.13721 1.09112 0
M  V30 1806 C 167.955 -2.21148 0.749385 0
M  V30 1807 C 168.936 -1.6792 -0.271475 0
M  V30 1808 O 170.121 -1.93693 -0.140251 0
M  V30 1809 C 167.251 -3.46905 0.165659 0
M  V30 1810 C 166.205 -4.13203 1.11567 0
M  V30 1811 C 165.531 -5.33248 0.393809 0
M  V30 1812 C 166.831 -4.60912 2.45678 0
M  V30 1813 H 168.525 -2.4999 1.64758 0
M  V30 1814 H 166.071 -1.20156 0.793626 0
M  V30 1815 H 168.024 -4.21313 -0.085466 0
M  V30 1816 H 166.748 -3.17449 -0.767714 0
M  V30 1817 H 165.407 -3.40758 1.35202 0
M  V30 1818 H 165.055 -5.00054 -0.543599 0
M  V30 1819 H 164.755 -5.78552 1.02721 0
M  V30 1820 H 166.279 -6.10413 0.150908 0
M  V30 1821 H 167.693 -5.26759 2.26269 0
M  V30 1822 H 166.09 -5.16944 3.04776 0
M  V30 1823 H 167.16 -3.75603 3.06677 0
M  V30 1824 N 168.503 -0.877838 -1.30888 0
M  V30 1825 C 169.451 -0.328662 -2.30266 0
M  V30 1826 C 170.445 0.560496 -1.59859 0
M  V30 1827 O 171.651 0.445722 -1.74394 0
M  V30 1828 H 168.026 -0.0876142 -0.746879 0
M  V30 1829 H 169.997 -1.18061 -2.74051 0
M  V30 1830 C 168.746 0.448071 -3.44801 0
M  V30 1831 H 168.069 -0.226859 -3.99156 0
M  V30 1832 H 169.509 0.797541 -4.16432 0
M  V30 1833 C 167.968 1.64239 -2.94155 0
M  V30 1834 O 168.498 2.74175 -2.93583 0
M  V30 1835 N 166.704 1.47716 -2.50256 0
M  V30 1836 H 166.251 0.582821 -2.5092 0
M  V30 1837 H 166.209 2.27765 -2.16727 0
M  V30 1838 N 169.982 1.44106 -0.638065 0
M  V30 1839 C 171.393 1.85316 -0.226894 0
M  V30 1840 C 171.744 1.53399 1.22324 0
M  V30 1841 O 170.869 0.975463 1.93167 0
M  V30 1842 C 171.464 3.3637 -0.405013 0
M  V30 1843 C 170.023 3.76369 -0.0482902 0
M  V30 1844 C 169.17 2.67921 -0.715108 0
M  V30 1845 H 172.121 1.34474 -0.842764 0
M  V30 1846 H 172.142 3.7885 0.354 0
M  V30 1847 H 171.654 3.59569 -1.46053 0
M  V30 1848 H 169.755 3.58784 1.00522 0
M  V30 1849 H 169.868 4.76856 -0.463187 0
M  V30 1850 H 168.232 2.54259 -0.149753 0
M  V30 1851 H 169.015 2.93951 -1.77335 0
M  V30 1852 N 171.46 0.379036 1.52974 0
M  V30 1853 C 172.706 -0.206727 2.01744 0
M  V30 1854 C 173.039 -1.47314 1.26539 0
M  V30 1855 O 172.314 -1.91084 0.362903 0
M  V30 1856 C 172.597 -0.485066 3.56818 0
M  V30 1857 C 172.45 0.795919 4.42702 0
M  V30 1858 C 173.769 -1.28003 4.21074 0
M  V30 1859 H 170.888 -0.0736607 0.73331 0
M  V30 1860 H 173.53 0.506581 1.83122 0
M  V30 1861 H 171.68 -1.09272 3.72816 0
M  V30 1862 H 173.352 1.43307 4.38476 0
M  V30 1863 H 171.595 1.41344 4.10127 0
M  V30 1864 H 172.266 0.555947 5.49193 0
M  V30 1865 H 174.742 -0.765867 4.08991 0
M  V30 1866 H 173.618 -1.44352 5.29579 0
M  V30 1867 H 173.879 -2.29236 3.78026 0
M  V30 1868 N 172.938 -1.57226 0.108567 0
M  V30 1869 C 174.354 -1.5766 -0.248058 0
M  V30 1870 C 174.554 -1.12063 -1.67464 0
M  V30 1871 O 173.61 -0.803236 -2.39383 0
M  V30 1872 C 174.923 -3.0069 -0.0242287 0
M  V30 1873 C 176.471 -3.12868 -0.0909372 0
M  V30 1874 C 176.946 -4.57879 0.105067 0
M  V30 1875 N 178.437 -4.63172 0.0506846 0
M  V30 1876 C 179.172 -5.73126 0.177396 0
M  V30 1877 N 178.668 -6.91866 0.359696 0
M  V30 1878 N 180.461 -5.61977 0.117709 0
M  V30 1879 H 172.612 -1.85169 1.04049 0
M  V30 1880 H 174.875 -0.85529 0.40888 0
M  V30 1881 H 174.581 -3.38299 0.961604 0
M  V30 1882 H 174.455 -3.6945 -0.76068 0
M  V30 1883 H 176.842 -2.75124 -1.06729 0
M  V30 1884 H 176.923 -2.46672 0.677225 0
M  V30 1885 H 176.567 -4.96321 1.07834 0
M  V30 1886 H 176.497 -5.22153 -0.682954 0
M  V30 1887 H 178.988 -3.778 -0.0871266 0
M  V30 1888 H 179.301 -7.71503 0.447529 0
M  V30 1889 H 177.646 -6.93874 0.395536 0
M  V30 1890 H 180.837 -4.68094 -0.0236741 0
M  V30 1891 H 181.01 -6.47627 0.219905 0
M  V30 1892 N 174.416 0.165178 -1.56732 0
M  V30 1893 C 175.363 1.2044 -1.96883 0
M  V30 1894 C 176.333 1.43664 -0.833657 0
M  V30 1895 O 177.518 1.56302 -1.09427 0
M  V30 1896 C 174.658 2.53727 -2.33916 0
M  V30 1897 C 173.771 2.3783 -3.6064 0
M  V30 1898 C 172.906 3.64026 -3.86857 0
M  V30 1899 C 171.945 3.43088 -5.06909 0
M  V30 1900 N 171.082 4.61369 -5.29229 0
M  V30 1901 H 175.922 0.854996 -2.85471 0
M  V30 1902 H 173.459 0.41076 -1.41249 0
M  V30 1903 H 175.417 3.31419 -2.53411 0
M  V30 1904 H 174.047 2.8665 -1.48431 0
M  V30 1905 H 173.099 1.51282 -3.49024 0
M  V30 1906 H 174.411 2.18308 -4.4849 0
M  V30 1907 H 173.565 4.50152 -4.06753 0
M  V30 1908 H 172.304 3.86533 -2.97394 0
M  V30 1909 H 171.309 2.55349 -4.86906 0
M  V30 1910 H 172.534 3.21997 -5.97909 0
M  V30 1911 H 170.48 4.84084 -4.42718 0
M  V30 1912 H 170.397 4.44783 -6.11313 0
M  V30 1913 H 171.665 5.48761 -5.53608 0
M  V30 1914 N 175.894 1.51508 0.433938 0
M  V30 1915 C 177.143 1.63578 1.18005 0
M  V30 1916 C 177.456 0.359514 1.92268 0
M  V30 1917 O 178.662 0.359632 2.69108 0
M  V30 1918 C 177.118 2.88901 2.14626 0
M  V30 1919 C 176.726 4.23544 1.45995 0
M  V30 1920 C 178.47 3.10328 2.89649 0
M  V30 1921 C 176.377 5.40014 2.4112 0
M  V30 1922 H 175.307 0.609277 0.444182 0
M  V30 1923 H 177.958 1.77978 0.446773 0
M  V30 1924 H 176.34 2.68142 2.91403 0
M  V30 1925 H 177.514 4.54696 0.747532 0
M  V30 1926 H 175.829 4.08021 0.831115 0
M  V30 1927 H 178.426 3.94518 3.60915 0
M  V30 1928 H 178.769 2.23544 3.51189 0
M  V30 1929 H 179.302 3.31443 2.19978 0
M  V30 1930 H 176.041 6.29068 1.84264 0
M  V30 1931 H 175.561 5.13233 3.10406 0
M  V30 1932 H 177.24 5.72099 3.02177 0
M  V30 1933 N 177.372 -0.689602 1.41712 0
M  V30 1934 C 178.335 -1.78521 1.43746 0
M  V30 1935 C 179.335 -1.57436 0.327191 0
M  V30 1936 O 180.525 -1.64 0.587348 0
M  V30 1937 C 177.657 -3.16971 1.25467 0
M  V30 1938 H 178.85 -1.78108 2.41283 0
M  V30 1939 H 176.403 -0.89781 1.27942 0
M  V30 1940 H 177.138 -3.23019 0.287948 0
M  V30 1941 H 176.923 -3.33678 2.05917 0
M  V30 1942 H 178.413 -3.96935 1.2974 0
M  V30 1943 N 178.85 -1.27639 -0.924453 0
M  V30 1944 C 180.099 -1.13549 -1.66702 0
M  V30 1945 C 180.412 0.317487 -1.93006 0
M  V30 1946 O 181.618 0.579333 -2.65247 0
M  V30 1947 C 180.074 -1.98426 -3.00259 0
M  V30 1948 C 179.682 -3.484 -2.81641 0
M  V30 1949 C 181.426 -1.92993 -3.78092 0
M  V30 1950 C 179.333 -4.25464 -4.10773 0
M  V30 1951 H 178.263 -0.421351 -0.625283 0
M  V30 1952 H 180.914 -1.52085 -1.02676 0
M  V30 1953 H 179.296 -1.52736 -3.6536 0
M  V30 1954 H 180.47 -4.01973 -2.25287 0
M  V30 1955 H 178.785 -3.55245 -2.17232 0
M  V30 1956 H 181.382 -2.47844 -4.7379 0
M  V30 1957 H 181.725 -0.904281 -4.0636 0
M  V30 1958 H 182.258 -2.36595 -3.19793 0
M  V30 1959 H 178.997 -5.28566 -3.87683 0
M  V30 1960 H 178.517 -3.76667 -4.66779 0
M  V30 1961 H 180.196 -4.34812 -4.79111 0
M  V30 1962 N 180.328 1.1314 -1.09713 0
M  V30 1963 C 181.275 2.18642 -0.739196 0
M  V30 1964 C 182.245 1.63706 0.280978 0
M  V30 1965 O 183.43 1.90111 0.161946 0
M  V30 1966 C 180.57 3.44685 -0.169102 0
M  V30 1967 C 179.683 4.13711 -1.24367 0
M  V30 1968 C 178.818 5.27379 -0.636019 0
M  V30 1969 C 177.857 5.88259 -1.69169 0
M  V30 1970 N 176.994 6.93352 -1.10485 0
M  V30 1971 H 181.834 2.48607 -1.64312 0
M  V30 1972 H 179.371 1.22066 -0.820875 0
M  V30 1973 H 181.329 4.16815 0.179256 0
M  V30 1974 H 179.959 3.15161 0.698079 0
M  V30 1975 H 179.011 3.39835 -1.70927 0
M  V30 1976 H 180.323 4.55037 -2.04311 0
M  V30 1977 H 179.477 6.06238 -0.236677 0
M  V30 1978 H 178.216 4.8731 0.194928 0
M  V30 1979 H 177.221 5.08092 -2.10055 0
M  V30 1980 H 178.446 6.30399 -2.52536 0
M  V30 1981 H 176.392 6.55335 -0.295234 0
M  V30 1982 H 176.309 7.33236 -1.84121 0
M  V30 1983 H 177.577 7.76057 -0.73181 0
M  V30 1984 N 181.806 0.884767 1.30421 0
M  V30 1985 C 183.055 0.499164 1.95426 0
M  V30 1986 C 183.368 -0.95645 1.70621 0
M  V30 1987 O 184.574 -1.44889 2.29607 0
M  V30 1988 C 183.03 0.84177 3.49917 0
M  V30 1989 C 182.638 2.31514 3.83543 0
M  V30 1990 C 184.382 0.525355 4.21237 0
M  V30 1991 C 182.289 2.59939 5.31212 0
M  V30 1992 H 181.219 0.182944 0.73147 0
M  V30 1993 H 183.87 1.07971 1.48373 0
M  V30 1994 H 182.252 0.190311 3.95542 0
M  V30 1995 H 183.426 3.0109 3.48829 0
M  V30 1996 H 181.741 2.59907 3.25326 0
M  V30 1997 H 184.338 0.714762 5.29901 0
M  V30 1998 H 184.681 -0.535222 4.12845 0
M  V30 1999 H 185.214 1.134 3.81294 0
M  V30 2000 H 181.953 3.64736 5.44654 0
M  V30 2001 H 181.473 1.94972 5.67227 0
M  V30 2002 H 183.152 2.45429 5.98643 0
M  V30 2003 N 183.284 -1.43765 0.645699 0
M  V30 2004 C 184.214 -2.33471 -0.0370477 0
M  V30 2005 C 185.195 -1.49042 -0.819779 0
M  V30 2006 O 186.38 -1.77726 -0.782758 0
M  V30 2007 C 183.51 -3.32311 -1.0093 0
M  V30 2008 C 182.464 -4.2667 -0.337201 0
M  V30 2009 C 181.79 -5.1549 -1.42037 0
M  V30 2010 C 183.09 -5.16657 0.765706 0
M  V30 2011 H 184.784 -2.90809 0.712069 0
M  V30 2012 H 182.33 -1.39834 0.343876 0
M  V30 2013 H 184.283 -3.9396 -1.49578 0
M  V30 2014 H 183.007 -2.73213 -1.78948 0
M  V30 2015 H 181.666 -3.66374 0.128771 0
M  V30 2016 H 181.314 -4.52735 -2.1918 0
M  V30 2017 H 181.014 -5.79438 -0.975966 0
M  V30 2018 H 182.538 -5.80012 -1.90838 0
M  V30 2019 H 183.952 -5.72158 0.361702 0
M  V30 2020 H 182.349 -5.89286 1.13413 0
M  V30 2021 H 183.419 -4.56796 1.62683 0
M  V30 2022 N 184.763 -0.387143 -1.52771 0
M  V30 2023 C 186.009 0.196025 -2.0185 0
M  V30 2024 C 186.342 1.46641 -1.27319 0
M  V30 2025 O 185.617 1.90889 -0.373032 0
M  V30 2026 C 185.9 0.466136 -3.5707 0
M  V30 2027 C 185.753 -0.819385 -4.42274 0
M  V30 2028 C 187.072 1.25768 -4.21747 0
M  V30 2029 H 184.191 0.0697708 -0.73369 0
M  V30 2030 H 186.833 -0.516286 -1.82851 0
M  V30 2031 H 184.983 1.07293 -3.7339 0
M  V30 2032 H 186.655 -1.4563 -4.37709 0
M  V30 2033 H 184.898 -1.43517 -4.09372 0
M  V30 2034 H 185.569 -0.585065 -5.48891 0
M  V30 2035 H 188.045 0.744167 -4.09391 0
M  V30 2036 H 186.921 1.41541 -5.30337 0
M  V30 2037 H 187.182 2.27228 -3.79236 0
M  V30 2038 N 186.241 1.57166 -0.116904 0
M  V30 2039 C 187.191 2.11756 0.845178 0
M  V30 2040 C 188.175 1.03783 1.22955 0
M  V30 2041 O 189.367 1.3002 1.20099 0
M  V30 2042 C 186.496 2.71886 2.09602 0
M  V30 2043 C 185.582 3.86937 1.7361 0
M  V30 2044 N 185.973 4.94073 1.08284 0
M  V30 2045 C 184.271 3.97082 2.03082 0
M  V30 2046 C 184.972 5.74477 0.913855 0
M  V30 2047 N 183.948 5.2423 1.43818 0
M  V30 2048 H 187.75 2.91967 0.336523 0
M  V30 2049 H 185.264 1.62174 0.0856332 0
M  V30 2050 H 187.261 3.09338 2.79492 0
M  V30 2051 H 185.921 1.93138 2.61013 0
M  V30 2052 H 186.932 5.12483 0.747067 0
M  V30 2053 H 183.609 3.29372 2.56554 0
M  V30 2054 H 184.999 6.70701 0.40125 0
M  V30 2055 N 187.719 -0.156864 1.56817 0
M  V30 2056 C 188.944 -0.890331 1.87318 0
M  V30 2057 C 189.369 -1.74394 0.704855 0
M  V30 2058 O 188.727 -1.77972 -0.345786 0
M  V30 2059 C 188.775 -1.73102 3.16336 0
M  V30 2060 O 187.879 -2.83422 2.99576 0
M  V30 2061 H 187.22 -0.24857 0.615718 0
M  V30 2062 H 189.75 -0.150649 2.04045 0
M  V30 2063 H 189.76 -2.12803 3.48107 0
M  V30 2064 H 188.435 -1.10412 4.00976 0
M  V30 2065 H 187.012 -2.47199 2.7919 0
M  V30 2066 N 189.197 -1.51736 -0.425897 0
M  V30 2067 C 190.127 -1.76827 -1.52494 0
M  V30 2068 C 191.108 -0.618524 -1.58456 0
M  V30 2069 O 192.293 -0.862416 -1.74 0
M  V30 2070 C 189.423 -1.90374 -2.90474 0
M  V30 2071 C 188.377 -3.0588 -2.99369 0
M  V30 2072 C 187.703 -3.04625 -4.3944 0
M  V30 2073 C 189.003 -4.45644 -2.72394 0
M  V30 2074 H 190.697 -2.68855 -1.31748 0
M  V30 2075 H 188.243 -1.29372 -0.632362 0
M  V30 2076 H 190.196 -2.0651 -3.6733 0
M  V30 2077 H 188.92 -0.95004 -3.12477 0
M  V30 2078 H 187.579 -2.89467 -2.24954 0
M  V30 2079 H 187.227 -2.0701 -4.58428 0
M  V30 2080 H 186.927 -3.82195 -4.46319 0
M  V30 2081 H 188.451 -3.22869 -5.18255 0
M  V30 2082 H 189.865 -4.62348 -3.38979 0
M  V30 2083 H 188.262 -5.25006 -2.9067 0
M  V30 2084 H 189.332 -4.54893 -1.67929 0
M  V30 2085 N 190.675 0.682077 -1.42076 0
M  V30 2086 C 191.922 1.44215 -1.42156 0
M  V30 2087 C 192.25 1.94468 -0.0354186 0
M  V30 2088 O 191.505 1.70816 0.955002 0
M  V30 2089 C 191.804 2.66036 -2.38662 0
M  V30 2090 C 191.47 2.34366 -3.85206 0
M  V30 2091 C 190.132 2.25439 -4.25124 0
M  V30 2092 C 192.484 2.08513 -4.77673 0
M  V30 2093 C 189.812 1.88775 -5.55501 0
M  V30 2094 C 192.164 1.73354 -6.08384 0
M  V30 2095 C 190.828 1.62933 -6.47309 0
M  V30 2096 H 190.098 0.527718 -0.520187 0
M  V30 2097 H 192.745 0.778387 -1.74967 0
M  V30 2098 H 191.05 3.3741 -1.99152 0
M  V30 2099 H 192.747 3.24205 -2.35991 0
M  V30 2100 H 189.337 2.42213 -3.53597 0
M  V30 2101 H 193.521 2.14346 -4.47626 0
M  V30 2102 H 188.777 1.7927 -5.84527 0
M  V30 2103 H 192.951 1.52373 -6.79526 0
M  V30 2104 H 190.578 1.34292 -7.48244 0
M  V30 2105 N 192.153 1.28127 0.917671 0
M  V30 2106 C 193.378 1.18007 1.70555 0
M  V30 2107 C 193.803 -0.258257 1.86319 0
M  V30 2108 O 193.161 -1.1869 1.37049 0
M  V30 2109 C 193.209 1.87948 3.07746 0
M  V30 2110 O 192.313 1.18427 3.9503 0
M  V30 2111 H 191.654 0.409867 0.522403 0
M  V30 2112 H 194.184 1.69379 1.1477 0
M  V30 2113 H 194.194 1.95701 3.58001 0
M  V30 2114 H 192.869 2.92573 2.95591 0
M  V30 2115 H 191.446 1.18811 3.53466 0
M  V30 2116 N 193.631 -1.12557 1.10312 0
M  V30 2117 C 194.564 -2.1737 0.694674 0
M  V30 2118 C 195.542 -1.59745 -0.303373 0
M  V30 2119 O 196.726 -1.87408 -0.202578 0
M  V30 2120 C 193.853 -3.38691 0.0248052 0
M  V30 2121 C 192.899 -4.14943 0.986121 0
M  V30 2122 S 193.732 -4.73413 2.50281 0
M  V30 2123 C 194.888 -5.9807 1.84562 0
M  V30 2124 H 195.121 -2.5168 1.58255 0
M  V30 2125 H 192.654 -1.23998 0.919992 0
M  V30 2126 H 194.612 -4.08959 -0.355361 0
M  V30 2127 H 193.273 -3.02664 -0.839851 0
M  V30 2128 H 192.466 -5.01854 0.464651 0
M  V30 2129 H 192.068 -3.50377 1.30813 0
M  V30 2130 H 194.36 -6.67232 1.17507 0
M  V30 2131 H 195.303 -6.54841 2.69423 0
M  V30 2132 H 195.711 -5.49073 1.31069 0
M  V30 2133 N 195.109 -0.891671 -1.2995 0
M  V30 2134 C 196.039 -0.379797 -2.30391 0
M  V30 2135 C 197.02 0.540919 -1.6127 0
M  V30 2136 O 198.205 0.453352 -1.88834 0
M  V30 2137 C 195.335 0.400654 -3.44981 0
M  V30 2138 C 194.289 -0.428905 -4.25846 0
M  V30 2139 C 193.615 0.478557 -5.32554 0
M  V30 2140 C 194.915 -1.67458 -4.94727 0
M  V30 2141 H 196.609 -1.21914 -2.73454 0
M  V30 2142 H 194.155 -0.587675 -1.31462 0
M  V30 2143 H 196.108 0.769434 -4.14316 0
M  V30 2144 H 194.832 1.27371 -3.0074 0
M  V30 2145 H 193.491 -0.779911 -3.58208 0
M  V30 2146 H 193.139 1.34951 -4.84559 0
M  V30 2147 H 192.839 -0.0727433 -5.87555 0
M  V30 2148 H 194.363 0.843705 -6.04743 0
M  V30 2149 H 195.777 -1.376 -5.56542 0
M  V30 2150 H 194.174 -2.16659 -5.59624 0
M  V30 2151 H 195.244 -2.41518 -4.20473 0
M  V30 2152 N 196.587 1.43421 -0.653314 0
M  V30 2153 C 197.836 2.01032 -0.164076 0
M  V30 2154 C 198.149 1.52147 1.22926 0
M  V30 2155 O 199.355 2.02031 1.81371 0
M  V30 2156 C 197.811 3.59082 -0.24252 0
M  V30 2157 C 197.419 4.1696 -1.63855 0
M  V30 2158 C 199.163 4.24079 0.18911 0
M  V30 2159 C 197.07 5.67304 -1.67092 0
M  V30 2160 H 196 0.751798 -0.0575769 0
M  V30 2161 H 198.651 1.6439 -0.815362 0
M  V30 2162 H 197.033 3.93125 0.476276 0
M  V30 2163 H 198.207 3.94416 -2.38271 0
M  V30 2164 H 196.522 3.64335 -2.01616 0
M  V30 2165 H 199.119 5.34381 0.184775 0
M  V30 2166 H 199.462 3.98005 1.22056 0
M  V30 2167 H 199.995 3.94918 -0.477938 0
M  V30 2168 H 196.734 5.98145 -2.68146 0
M  V30 2169 H 196.254 5.91904 -0.970014 0
M  V30 2170 H 197.933 6.31344 -1.4147 0
M  V30 2171 N 198.065 0.39524 1.52563 0
M  V30 2172 C 198.998 -0.4813 2.23067 0
M  V30 2173 C 199.976 -1.05927 1.23362 0
M  V30 2174 O 201.16 -1.10979 1.52368 0
M  V30 2175 C 198.287 -1.66676 2.9485 0
M  V30 2176 C 197.333 -1.21348 4.08873 0
M  V30 2177 S 198.166 -0.190102 5.35162 0
M  V30 2178 C 199.322 -1.38121 6.1047 0
M  V30 2179 H 199.555 0.117381 2.97068 0
M  V30 2180 H 197.088 0.179458 1.53354 0
M  V30 2181 H 199.046 -2.3466 3.36816 0
M  V30 2182 H 197.707 -2.23676 2.20518 0
M  V30 2183 H 196.9 -2.09877 4.58222 0
M  V30 2184 H 196.502 -0.612486 3.68951 0
M  V30 2185 H 198.794 -2.30726 6.37002 0
M  V30 2186 H 199.737 -0.928521 7.01986 0
M  V30 2187 H 200.145 -1.60071 5.41329 0
M  V30 2188 N 199.544 -1.57102 0.125237 0
M  V30 2189 C 200.784 -1.97294 -0.534259 0
M  V30 2190 C 201.148 -1.0074 -1.63449 0
M  V30 2191 O 202.349 -1.29893 -2.35332 0
M  V30 2192 C 200.62 -3.41705 -1.04748 0
M  V30 2193 S 202.179 -4.03913 -1.71463 0
M  V30 2194 H 198.997 -0.689517 -0.173458 0
M  V30 2195 H 201.599 -1.94349 0.211797 0
M  V30 2196 H 200.303 -4.09723 -0.235649 0
M  V30 2197 H 199.834 -3.48315 -1.82867 0
M  V30 2198 H 201.849 -3.95182 -3.00077 0
M  V30 2199 N 201.022 0.148545 -1.56898 0
M  V30 2200 C 202.25 0.876389 -1.87422 0
M  V30 2201 C 202.665 1.74809 -0.713256 0
M  V30 2202 O 202.022 1.79725 0.317025 0
M  V30 2203 C 202.073 1.73438 -3.17178 0
M  V30 2204 O 201.794 0.897809 -4.28802 0
M  V30 2205 C 203.295 2.56993 -3.61205 0
M  V30 2206 H 200.515 0.253489 -0.621277 0
M  V30 2207 H 203.059 0.141798 -2.04008 0
M  V30 2208 H 201.214 2.42205 -3.0235 0
M  V30 2209 H 201.628 1.48672 -5.02988 0
M  V30 2210 H 203.102 3.12773 -4.54838 0
M  V30 2211 H 203.579 3.32958 -2.86419 0
M  V30 2212 H 204.185 1.9352 -3.78722 0
M  V30 2213 N 202.5 1.5196 0.417844 0
M  V30 2214 C 203.749 1.6482 1.16264 0
M  V30 2215 C 204.062 0.379886 1.91876 0
M  V30 2216 O 205.268 0.388154 2.68711 0
M  V30 2217 C 203.724 2.91161 2.1155 0
M  V30 2218 C 203.332 4.25068 1.41495 0
M  V30 2219 C 205.076 3.13383 2.86341 0
M  V30 2220 C 202.983 5.42541 2.35379 0
M  V30 2221 H 201.913 0.613954 0.437694 0
M  V30 2222 H 204.564 1.78442 0.427871 0
M  V30 2223 H 202.946 2.71218 2.88543 0
M  V30 2224 H 204.12 4.55463 0.699263 0
M  V30 2225 H 202.435 4.0888 0.787792 0
M  V30 2226 H 205.032 3.98324 3.5671 0
M  V30 2227 H 205.375 2.27256 3.48798 0
M  V30 2228 H 205.908 3.33757 2.1645 0
M  V30 2229 H 202.647 6.30987 1.77582 0
M  V30 2230 H 202.167 5.16497 3.04945 0
M  V30 2231 H 203.846 5.75272 2.96093 0
M  V30 2232 N 203.978 -0.674533 1.42435 0
M  V30 2233 C 204.908 -1.80009 1.48724 0
M  V30 2234 C 205.889 -1.6659 0.343793 0
M  V30 2235 O 207.074 -1.86007 0.558137 0
M  V30 2236 C 204.204 -3.18306 1.38919 0
M  V30 2237 C 203.158 -3.46461 2.51294 0
M  V30 2238 C 202.484 -4.84335 2.26547 0
M  V30 2239 C 203.784 -3.43328 3.93603 0
M  V30 2240 H 205.478 -1.75004 2.42928 0
M  V30 2241 H 203.024 -0.840533 1.16923 0
M  V30 2242 H 204.977 -3.9678 1.41927 0
M  V30 2243 H 203.701 -3.2399 0.412094 0
M  V30 2244 H 202.36 -2.70348 2.47604 0
M  V30 2245 H 202.008 -4.86669 1.2713 0
M  V30 2246 H 201.708 -5.04136 3.01861 0
M  V30 2247 H 203.232 -5.65094 2.31304 0
M  V30 2248 H 204.646 -4.11772 3.98894 0
M  V30 2249 H 203.043 -3.74664 4.68771 0
M  V30 2250 H 204.113 -2.41897 4.20255 0
M  V30 2251 N 205.456 -1.28612 -0.910864 0
M  V30 2252 C 206.684 -1.18792 -1.69399 0
M  V30 2253 C 207.099 0.253039 -1.87097 0
M  V30 2254 O 206.456 1.17071 -1.40003 0
M  V30 2255 C 206.507 -1.88511 -3.08457 0
M  V30 2256 O 206.228 -3.26979 -2.91576 0
M  V30 2257 C 207.729 -1.85029 -4.02839 0
M  V30 2258 H 204.949 -0.412233 -0.529438 0
M  V30 2259 H 207.493 -1.69788 -1.13984 0
M  V30 2260 H 205.648 -1.41379 -3.60681 0
M  V30 2261 H 206.062 -3.61936 -3.79608 0
M  V30 2262 H 207.536 -2.38395 -4.97867 0
M  V30 2263 H 208.013 -0.823303 -4.31414 0
M  V30 2264 H 208.619 -2.31853 -3.56545 0
M  V30 2265 N 206.934 1.1197 -1.10907 0
M  V30 2266 C 207.882 2.19927 -0.757303 0
M  V30 2267 C 208.876 1.67564 0.248747 0
M  V30 2268 O 210.082 1.79672 0.108605 0
M  V30 2269 H 206.457 0.716925 -0.226987 0
M  V30 2270 H 208.428 2.46847 -1.67658 0
M  V30 2271 C 207.177 3.47061 -0.210671 0
M  V30 2272 H 206.5 3.87703 -0.976049 0
M  V30 2273 H 207.94 4.24 -0.0026584 0
M  V30 2274 C 206.399 3.19864 1.05777 0
M  V30 2275 O 206.929 3.40049 2.13845 0
M  V30 2276 N 205.135 2.73636 0.978349 0
M  V30 2277 H 204.682 2.5741 0.0988246 0
M  V30 2278 H 204.64 2.55815 1.82773 0
M  V30 2279 N 208.412 0.89855 1.29475 0
M  V30 2280 C 209.652 0.530771 1.97388 0
M  V30 2281 C 210.016 -0.905832 1.69289 0
M  V30 2282 O 211.217 -1.38042 2.30646 0
M  V30 2283 C 209.488 0.81369 3.48014 0
M  V30 2284 S 211.047 0.550048 4.35339 0
M  V30 2285 H 207.865 0.196956 0.683176 0
M  V30 2286 H 210.467 1.16074 1.57312 0
M  V30 2287 H 209.171 1.85749 3.65958 0
M  V30 2288 H 208.702 0.171795 3.93025 0
M  V30 2289 H 210.717 -0.605423 4.92493 0
M  V30 2290 N 209.89 -1.43072 0.660911 0
M  V30 2291 C 211.136 -2.0202 0.177708 0
M  V30 2292 C 211.469 -1.52066 -1.20787 0
M  V30 2293 O 210.744 -0.716987 -1.80802 0
M  V30 2294 C 211.027 -3.59561 0.197019 0
M  V30 2295 C 210.88 -4.19727 1.61706 0
M  V30 2296 C 212.199 -4.37664 -0.462396 0
M  V30 2297 H 209.318 -0.734034 0.0660494 0
M  V30 2298 H 211.96 -1.70272 0.843058 0
M  V30 2299 H 210.11 -3.86739 -0.369527 0
M  V30 2300 H 211.782 -4.03553 2.23479 0
M  V30 2301 H 210.025 -3.76084 2.16201 0
M  V30 2302 H 210.696 -5.28834 1.58237 0
M  V30 2303 H 213.172 -4.16095 0.0197215 0
M  V30 2304 H 212.048 -5.47305 -0.418188 0
M  V30 2305 H 212.309 -4.14493 -1.53778 0
M  V30 2306 N 211.368 -0.403325 -1.52352 0
M  V30 2307 C 212.615 0.174347 -2.01748 0
M  V30 2308 C 212.943 1.45636 -1.2892 0
M  V30 2309 O 212.198 1.9193 -0.382258 0
M  V30 2310 C 212.497 0.474665 -3.54234 0
M  V30 2311 C 212.163 -0.717458 -4.45155 0
M  V30 2312 C 210.825 -1.04447 -4.69728 0
M  V30 2313 C 213.177 -1.51432 -4.98716 0
M  V30 2314 C 210.505 -2.16963 -5.45109 0
M  V30 2315 C 212.857 -2.6302 -5.75329 0
M  V30 2316 C 211.521 -2.96213 -5.98175 0
M  V30 2317 H 210.791 0.0637981 -0.738248 0
M  V30 2318 H 213.438 -0.543553 -1.83624 0
M  V30 2319 H 211.743 1.27406 -3.70506 0
M  V30 2320 H 213.44 0.934496 -3.89959 0
M  V30 2321 H 210.03 -0.452596 -4.26204 0
M  V30 2322 H 214.214 -1.27491 -4.79645 0
M  V30 2323 H 209.47 -2.43034 -5.61021 0
M  V30 2324 H 213.644 -3.25158 -6.15829 0
M  V30 2325 H 211.271 -3.83516 -6.56368 0
M  V30 2326 N 212.846 1.57033 -0.133567 0
M  V30 2327 C 213.779 2.11824 0.848872 0
M  V30 2328 C 214.757 1.03833 1.2513 0
M  V30 2329 O 215.941 1.31579 1.34978 0
M  V30 2330 C 213.068 2.62692 2.138 0
M  V30 2331 C 212.114 3.82705 1.88253 0
M  V30 2332 S 212.947 5.2438 1.08563 0
M  V30 2333 C 214.103 5.78627 2.38624 0
M  V30 2334 H 214.336 2.94824 0.38289 0
M  V30 2335 H 211.869 1.5419 0.0804796 0
M  V30 2336 H 213.827 2.92652 2.87863 0
M  V30 2337 H 212.488 1.79847 2.57515 0
M  V30 2338 H 211.681 4.16496 2.83809 0
M  V30 2339 H 211.283 3.53437 1.22305 0
M  V30 2340 H 213.575 5.8924 3.34369 0
M  V30 2341 H 214.518 6.76443 2.09358 0
M  V30 2342 H 214.926 5.06783 2.48658 0
M  V30 2343 N 214.325 -0.140222 1.56975 0
M  V30 2344 C 215.553 -0.866437 1.87884 0
M  V30 2345 C 215.968 -1.74428 0.722517 0
M  V30 2346 O 215.325 -1.79891 -0.30749 0
M  V30 2347 C 215.376 -1.71753 3.18093 0
M  V30 2348 O 215.097 -0.875056 4.29272 0
M  V30 2349 C 216.598 -2.55074 3.62563 0
M  V30 2350 H 213.818 -0.25019 0.622612 0
M  V30 2351 H 216.362 -0.130977 2.0408 0
M  V30 2352 H 214.517 -2.40598 3.03631 0
M  V30 2353 H 214.931 -1.46002 5.03769 0
M  V30 2354 H 216.405 -3.10356 4.5649 0
M  V30 2355 H 216.882 -3.31434 2.88181 0
M  V30 2356 H 217.488 -1.91509 3.79743 0
M  V30 2357 N 215.803 -1.52179 -0.40978 0
M  V30 2358 C 216.733 -1.78435 -1.5061 0
M  V30 2359 C 217.714 -0.635295 -1.57791 0
M  V30 2360 O 218.899 -0.880823 -1.73076 0
M  V30 2361 C 216.029 -1.93444 -2.88439 0
M  V30 2362 C 214.983 -3.09038 -2.96108 0
M  V30 2363 C 214.309 -3.09268 -4.36185 0
M  V30 2364 C 215.609 -4.48508 -2.67652 0
M  V30 2365 H 217.303 -2.70237 -1.28889 0
M  V30 2366 H 214.849 -1.30036 -0.618605 0
M  V30 2367 H 216.802 -2.10394 -3.65119 0
M  V30 2368 H 215.526 -0.983129 -3.11452 0
M  V30 2369 H 214.185 -2.91837 -2.21872 0
M  V30 2370 H 213.833 -2.11861 -4.56206 0
M  V30 2371 H 213.533 -3.86907 -4.42241 0
M  V30 2372 H 215.057 -3.28348 -5.14801 0
M  V30 2373 H 216.471 -4.65918 -3.34056 0
M  V30 2374 H 214.868 -5.28059 -2.85085 0
M  V30 2375 H 215.938 -4.56649 -1.63095 0
M  V30 2376 N 217.281 0.66697 -1.42791 0
M  V30 2377 C 218.506 1.46004 -1.47301 0
M  V30 2378 C 218.931 1.87894 -0.0880317 0
M  V30 2379 O 218.289 1.56502 0.915253 0
M  V30 2380 C 218.337 2.68031 -2.41229 0
M  V30 2381 O 217.441 3.6659 -1.88906 0
M  V30 2382 H 216.782 0.43832 -0.49877 0
M  V30 2383 H 219.312 0.817391 -1.87563 0
M  V30 2384 H 219.322 3.1601 -2.58073 0
M  V30 2385 H 217.997 2.36883 -3.41847 0
M  V30 2386 H 216.574 3.25661 -1.81656 0
M  V30 2387 N 218.759 1.29093 0.90403 0
M  V30 2388 C 219.707 1.13727 2.02901 0
M  V30 2389 C 220.701 0.0539853 1.69314 0
M  V30 2390 O 221.907 0.213469 1.7873 0
M  V30 2391 H 218.282 0.35117 0.664969 0
M  V30 2392 H 220.253 2.08982 2.13001 0
M  V30 2393 C 219.002 0.826066 3.37745 0
M  V30 2394 H 218.325 1.65164 3.64089 0
M  V30 2395 H 219.765 0.758559 4.17159 0
M  V30 2396 C 218.224 -0.470541 3.33598 0
M  V30 2397 O 218.754 -1.49792 3.72727 0
M  V30 2398 N 216.96 -0.474812 2.86695 0
M  V30 2399 H 216.507 0.361692 2.55048 0
M  V30 2400 H 216.465 -1.34236 2.84303 0
M  V30 2401 N 220.237 -1.11381 1.11499 0
M  V30 2402 C 221.648 -1.6465 0.880191 0
M  V30 2403 C 221.999 -1.87199 -0.587434 0
M  V30 2404 O 221.124 -1.60667 -1.44966 0
M  V30 2405 C 221.719 -2.99105 1.59128 0
M  V30 2406 C 220.278 -3.49279 1.40289 0
M  V30 2407 C 219.425 -2.24077 1.63354 0
M  V30 2408 H 222.376 -0.950123 1.27116 0
M  V30 2409 H 222.397 -3.66107 1.03664 0
M  V30 2410 H 221.909 -2.82661 2.65941 0
M  V30 2411 H 220.01 -3.70887 0.356888 0
M  V30 2412 H 220.123 -4.2803 2.15238 0
M  V30 2413 H 218.487 -2.31733 1.05698 0
M  V30 2414 H 219.27 -2.10175 2.71443 0
M  V30 2415 N 221.715 -0.905404 -1.28997 0
M  V30 2416 C 223.126 -0.581953 -1.77398 0
M  V30 2417 C 223.477 0.902552 -1.74208 0
M  V30 2418 O 222.602 1.70584 -1.33154 0
M  V30 2419 C 223.197 -1.04961 -3.22131 0
M  V30 2420 C 221.756 -0.777229 -3.68288 0
M  V30 2421 C 220.903 -1.22109 -2.48967 0
M  V30 2422 H 223.854 -1.08754 -1.15578 0
M  V30 2423 H 223.875 -0.387387 -3.78523 0
M  V30 2424 H 223.387 -2.13008 -3.24421 0
M  V30 2425 H 221.488 0.290383 -3.71467 0
M  V30 2426 H 221.601 -1.37911 -4.58822 0
M  V30 2427 H 219.965 -0.639971 -2.46529 0
M  V30 2428 H 220.748 -2.30972 -2.53982 0
M  V30 2429 N 223.193 1.4272 -0.668489 0
M  V30 2430 C 224.47 1.95248 -0.117373 0
M  V30 2431 C 224.85 1.60919 1.36632 0
M  V30 2432 O 224.198 0.902095 2.09939 0
M  V30 2433 C 224.408 3.46927 -0.379806 0
M  V30 2434 C 225.756 4.23588 -0.292923 0
M  V30 2435 O 226.78 3.5482 -0.313204 0
M  V30 2436 O 225.639 5.46017 -0.229697 0
M  V30 2437 H 222.733 0.827 0.00079152 0
M  V30 2438 H 225.279 1.52581 -0.742783 0
M  V30 2439 H 224.051 3.65096 -1.40786 0
M  V30 2440 H 223.674 3.96627 0.277923 0
M  V30 2441 N 224.671 0.411399 1.52136 0
M  V30 2442 C 225.917 -0.156262 2.02799 0
M  V30 2443 C 226.272 -1.42613 1.29149 0
M  V30 2444 O 225.565 -1.87592 0.389839 0
M  V30 2445 C 225.759 -0.455872 3.54481 0
M  V30 2446 C 225.588 0.783404 4.42824 0
M  V30 2447 C 224.358 1.30928 4.88043 0
M  V30 2448 C 226.556 1.66217 4.86699 0
M  V30 2449 N 224.538 2.5038 5.6052 0
M  V30 2450 C 225.909 2.70292 5.5798 0
M  V30 2451 C 227.964 1.67966 4.68713 0
M  V30 2452 C 226.667 3.7603 6.13184 0
M  V30 2453 C 228.693 2.72624 5.24815 0
M  V30 2454 C 228.055 3.7542 5.9602 0
M  V30 2455 H 224.154 -0.0186886 0.781777 0
M  V30 2456 H 226.738 0.566255 1.86284 0
M  V30 2457 H 224.909 -1.14743 3.71064 0
M  V30 2458 H 226.641 -1.01261 3.91827 0
M  V30 2459 H 223.396 0.866977 4.65597 0
M  V30 2460 H 223.82 3.10881 6.014 0
M  V30 2461 H 228.462 0.898312 4.13147 0
M  V30 2462 H 226.18 4.55019 6.6782 0
M  V30 2463 H 229.766 2.74887 5.12765 0
M  V30 2464 H 228.646 4.55073 6.38654 0
M  V30 2465 N 226.149 -1.5696 0.141893 0
M  V30 2466 C 227.377 -2.00322 -0.517579 0
M  V30 2467 C 227.792 -1.02193 -1.58752 0
M  V30 2468 O 227.149 -0.0181619 -1.82491 0
M  V30 2469 C 227.2 -3.43618 -1.12289 0
M  V30 2470 O 226.921 -4.37995 -0.0956929 0
M  V30 2471 C 228.422 -4.02231 -1.86347 0
M  V30 2472 H 225.642 -0.657243 -0.135177 0
M  V30 2473 H 228.186 -2.03146 0.234973 0
M  V30 2474 H 226.341 -3.41662 -1.82609 0
M  V30 2475 H 226.755 -5.21729 -0.538469 0
M  V30 2476 H 228.229 -5.04509 -2.23997 0
M  V30 2477 H 228.706 -3.42655 -2.74744 0
M  V30 2478 H 229.312 -4.07802 -1.20737 0
M  V30 2479 N 227.627 0.131896 -1.57047 0
M  V30 2480 C 228.574 1.16236 -1.99393 0
M  V30 2481 C 229.544 1.41863 -0.863943 0
M  V30 2482 O 230.729 1.53946 -1.12718 0
M  V30 2483 C 227.869 2.48708 -2.39245 0
M  V30 2484 C 226.982 2.30127 -3.65603 0
M  V30 2485 C 226.117 3.55738 -3.94492 0
M  V30 2486 C 225.156 3.32259 -5.14073 0
M  V30 2487 N 224.293 4.50039 -5.38896 0
M  V30 2488 H 229.133 0.794251 -2.87221 0
M  V30 2489 H 226.67 0.380707 -1.42088 0
M  V30 2490 H 228.628 3.25969 -2.60384 0
M  V30 2491 H 227.258 2.83437 -1.54478 0
M  V30 2492 H 226.31 1.43845 -3.52154 0
M  V30 2493 H 227.622 2.08746 -4.5302 0
M  V30 2494 H 226.776 4.41423 -4.1621 0
M  V30 2495 H 225.515 3.80138 -3.05526 0
M  V30 2496 H 224.52 2.44963 -4.92212 0
M  V30 2497 H 225.745 3.09242 -6.04604 0
M  V30 2498 H 223.691 4.74584 -4.52886 0
M  V30 2499 H 223.608 4.31716 -6.2061 0
M  V30 2500 H 224.876 5.36895 -5.65123 0
M  V30 2501 N 229.106 1.52395 0.401703 0
M  V30 2502 C 230.054 1.7689 1.51039 0
M  V30 2503 C 231.048 0.636298 1.56996 0
M  V30 2504 O 232.254 0.818507 1.60314 0
M  V30 2505 H 228.629 0.559502 0.502456 0
M  V30 2506 H 230.6 2.69757 1.27568 0
M  V30 2507 C 229.349 1.94331 2.88324 0
M  V30 2508 H 228.672 2.80905 2.84486 0
M  V30 2509 H 230.112 2.15466 3.65172 0
M  V30 2510 C 228.571 0.712396 3.29282 0
M  V30 2511 O 229.101 -0.116218 4.01532 0
M  V30 2512 N 227.307 0.546154 2.85422 0
M  V30 2513 H 226.854 1.22156 2.26794 0
M  V30 2514 H 226.812 -0.276113 3.13185 0
M  V30 2515 N 230.584 -0.659388 1.43143 0
M  V30 2516 C 231.83 -1.42145 1.44647 0
M  V30 2517 C 232.163 -1.9408 0.0681907 0
M  V30 2518 O 231.438 -1.71899 -0.910007 0
M  V30 2519 C 231.721 -2.60735 2.48373 0
M  V30 2520 C 231.574 -2.14332 3.95451 0
M  V30 2521 C 232.893 -3.62951 2.48906 0
M  V30 2522 H 230.012 -0.51552 0.526696 0
M  V30 2523 H 232.654 -0.748069 1.74654 0
M  V30 2524 H 230.804 -3.18184 2.22916 0
M  V30 2525 H 232.476 -1.61932 4.31944 0
M  V30 2526 H 230.719 -1.4576 4.08578 0
M  V30 2527 H 231.39 -2.99583 4.63631 0
M  V30 2528 H 233.866 -3.1525 2.71582 0
M  V30 2529 H 232.742 -4.43487 3.23435 0
M  V30 2530 H 233.003 -4.15126 1.52061 0
M  V30 2531 N 232.062 -1.29571 -0.897171 0
M  V30 2532 C 232.972 -1.16808 -2.03453 0
M  V30 2533 C 233.988 -0.0907471 -1.73763 0
M  V30 2534 O 235.164 -0.303312 -1.99103 0
M  V30 2535 C 232.229 -0.848264 -3.36163 0
M  V30 2536 C 231.29 -2.0097 -3.79354 0
M  V30 2537 C 230.523 -1.70505 -5.05731 0
M  V30 2538 O 230.746 -0.62718 -5.66941 0
M  V30 2539 O 229.68 -2.5538 -5.45036 0
M  V30 2540 H 233.506 -2.12325 -2.17144 0
M  V30 2541 H 231.091 -1.09047 -1.02123 0
M  V30 2542 H 232.973 -0.684581 -4.15802 0
M  V30 2543 H 231.648 0.0771071 -3.23608 0
M  V30 2544 H 230.555 -2.22863 -3.00471 0
M  V30 2545 H 231.888 -2.91636 -3.96496 0
M  V30 2546 N 233.54 1.10788 -1.12088 0
M  V30 2547 C 234.77 1.86191 -0.895351 0
M  V30 2548 C 235.178 1.80763 0.558702 0
M  V30 2549 O 234.521 1.19188 1.39785 0
M  V30 2550 C 234.583 3.35659 -1.28737 0
M  V30 2551 C 234.247 3.64849 -2.75198 0
M  V30 2552 C 235.244 3.61757 -3.734 0
M  V30 2553 C 232.929 3.93641 -3.12013 0
M  V30 2554 C 234.923 3.87045 -5.06434 0
M  V30 2555 C 232.61 4.18585 -4.4523 0
M  V30 2556 C 233.608 4.15277 -5.42249 0
M  V30 2557 O 233.296 4.3959 -6.73065 0
M  V30 2558 H 233.028 0.595425 -0.32007 0
M  V30 2559 H 235.582 1.40992 -1.49367 0
M  V30 2560 H 233.812 3.81497 -0.63224 0
M  V30 2561 H 235.501 3.92441 -1.03656 0
M  V30 2562 H 236.267 3.39557 -3.46303 0
M  V30 2563 H 232.146 3.95348 -2.37109 0
M  V30 2564 H 235.69 3.84378 -5.82151 0
M  V30 2565 H 231.587 4.40264 -4.72057 0
M  V30 2566 H 232.355 4.57123 -6.78956 0
M  V30 2567 N 235.018 0.912232 1.28515 0
M  V30 2568 C 236.246 0.560416 1.99166 0
M  V30 2569 C 236.661 -0.857927 1.68182 0
M  V30 2570 O 236.018 -1.56805 0.933733 0
M  V30 2571 C 236.069 0.758142 3.53461 0
M  V30 2572 O 235.79 2.12067 3.83352 0
M  V30 2573 C 237.291 0.412954 4.41372 0
M  V30 2574 H 234.511 0.213805 0.636026 0
M  V30 2575 H 237.055 1.22502 1.63749 0
M  V30 2576 H 235.21 0.140556 3.87145 0
M  V30 2577 H 235.624 2.15923 4.77993 0
M  V30 2578 H 237.098 0.60208 5.48707 0
M  V30 2579 H 237.575 -0.65073 4.34353 0
M  V30 2580 H 238.181 1.00802 4.13182 0
M  V30 2581 N 236.496 -1.42363 0.676048 0
M  V30 2582 C 237.743 -2.01522 0.19883 0
M  V30 2583 C 238.071 -1.53456 -1.19505 0
M  V30 2584 O 237.326 -0.727967 -1.81657 0
M  V30 2585 C 237.625 -3.56929 0.183431 0
M  V30 2586 C 237.291 -4.24431 1.52215 0
M  V30 2587 C 235.953 -4.42585 1.8887 0
M  V30 2588 C 238.305 -4.62459 2.40377 0
M  V30 2589 C 235.633 -4.96039 3.13309 0
M  V30 2590 C 237.985 -5.17294 3.64129 0
M  V30 2591 C 236.649 -5.33661 4.00951 0
M  V30 2592 H 235.919 -0.737419 0.0727571 0
M  V30 2593 H 238.566 -1.70531 0.871281 0
M  V30 2594 H 236.871 -3.87594 -0.572532 0
M  V30 2595 H 238.568 -4.00486 -0.203035 0
M  V30 2596 H 235.158 -4.10661 1.22701 0
M  V30 2597 H 239.342 -4.48105 2.13343 0
M  V30 2598 H 234.598 -5.06896 3.41857 0
M  V30 2599 H 238.772 -5.45704 4.32644 0
M  V30 2600 H 236.399 -5.74845 4.9745 0
M  V30 2601 N 237.974 -0.419461 -1.51915 0
M  V30 2602 C 239.202 0.152136 -2.0634 0
M  V30 2603 C 239.617 1.37988 -1.28859 0
M  V30 2604 O 238.974 1.79243 -0.343232 0
M  V30 2605 C 239.025 0.492266 -3.58133 0
M  V30 2606 O 238.746 -0.686736 -4.32684 0
M  V30 2607 C 240.247 1.11648 -4.2901 0
M  V30 2608 H 237.467 0.0158325 -0.670813 0
M  V30 2609 H 240.011 -0.593394 -1.95702 0
M  V30 2610 H 238.166 1.18769 -3.68745 0
M  V30 2611 H 238.58 -0.400341 -5.2297 0
M  V30 2612 H 240.054 1.3046 -5.36362 0
M  V30 2613 H 240.531 2.09251 -3.86148 0
M  V30 2614 H 241.137 0.460958 -4.22795 0
M  V30 2615 N 239.452 1.56882 -0.150215 0
M  V30 2616 C 240.7 1.9584 0.499105 0
M  V30 2617 C 241.021 1.03623 1.65188 0
M  V30 2618 O 240.291 0.0984084 1.95653 0
M  V30 2619 H 238.871 0.723119 0.187373 0
M  V30 2620 H 241.533 1.9358 -0.226466 0
M  V30 2621 H 240.629 2.99638 0.873122 0
M  V30 2622 N 240.93 -0.123565 1.57115 0
M  V30 2623 C 242.179 -0.830704 1.83799 0
M  V30 2624 C 242.492 -1.81259 0.735158 0
M  V30 2625 O 243.698 -2.56558 0.888278 0
M  V30 2626 C 242.154 -1.52802 3.25852 0
M  V30 2627 C 241.762 -0.587356 4.44133 0
M  V30 2628 C 243.506 -2.22056 3.61789 0
M  V30 2629 C 241.413 -1.28764 5.77212 0
M  V30 2630 H 240.343 -0.313967 0.685522 0
M  V30 2631 H 242.994 -0.0834359 1.8331 0
M  V30 2632 H 241.376 -2.32175 3.20797 0
M  V30 2633 H 242.55 0.172829 4.60476 0
M  V30 2634 H 240.865 -0.00201892 4.164 0
M  V30 2635 H 243.462 -2.75131 4.58483 0
M  V30 2636 H 243.805 -2.99644 2.88997 0
M  V30 2637 H 244.338 -1.49576 3.68608 0
M  V30 2638 H 241.077 -0.55314 6.53162 0
M  V30 2639 H 240.597 -2.01995 5.64764 0
M  V30 2640 H 242.276 -1.8221 6.20813 0
M  V30 2641 N 242.408 -1.52605 -0.393616 0
M  V30 2642 C 243.638 -1.71046 -1.15874 0
M  V30 2643 C 244.046 -0.426483 -1.84331 0
M  V30 2644 O 243.389 0.608513 -1.73329 0
M  V30 2645 C 243.451 -2.80118 -2.25332 0
M  V30 2646 C 243.115 -4.21381 -1.76881 0
M  V30 2647 C 244.112 -5.04697 -1.24808 0
M  V30 2648 C 241.797 -4.67683 -1.83244 0
M  V30 2649 C 243.791 -6.32393 -0.797387 0
M  V30 2650 C 241.478 -5.95364 -1.37787 0
M  V30 2651 C 242.476 -6.77549 -0.861208 0
M  V30 2652 O 242.164 -8.02837 -0.413252 0
M  V30 2653 H 241.896 -0.576155 -0.353583 0
M  V30 2654 H 244.45 -2.00018 -0.467123 0
M  V30 2655 H 242.68 -2.46557 -2.97904 0
M  V30 2656 H 244.369 -2.87006 -2.87023 0
M  V30 2657 H 245.135 -4.70111 -1.19252 0
M  V30 2658 H 241.014 -4.03805 -2.22401 0
M  V30 2659 H 244.558 -6.9649 -0.393437 0
M  V30 2660 H 240.455 -6.29455 -1.43026 0
M  V30 2661 H 241.223 -8.16749 -0.53515 0
M  V30 2662 N 243.887 0.651787 -1.4349 0
M  V30 2663 C 245.115 1.43937 -1.48626 0
M  V30 2664 C 245.53 1.8851 -0.104587 0
M  V30 2665 O 244.887 1.5958 0.885464 0
M  V30 2666 C 244.938 2.6734 -2.43334 0
M  V30 2667 O 244.659 2.24631 -3.76128 0
M  V30 2668 C 246.16 3.60683 -2.57726 0
M  V30 2669 H 243.38 0.44213 -0.504739 0
M  V30 2670 H 245.924 0.798944 -1.88248 0
M  V30 2671 H 244.079 3.2752 -2.06904 0
M  V30 2672 H 244.493 3.04485 -4.2707 0
M  V30 2673 H 245.967 4.43933 -3.28067 0
M  V30 2674 H 246.444 4.08126 -1.62265 0
M  V30 2675 H 247.05 3.06384 -2.94973 0
M  V30 2676 N 245.365 1.30045 0.890287 0
M  V30 2677 C 246.612 1.18561 1.64163 0
M  V30 2678 C 246.94 -0.260852 1.92743 0
M  V30 2679 O 246.195 -1.20376 1.54299 0
M  V30 2680 C 246.494 1.95409 2.99249 0
M  V30 2681 C 246.16 3.45066 2.90242 0
M  V30 2682 C 244.822 3.85878 2.87492 0
M  V30 2683 C 247.174 4.4039 2.78758 0
M  V30 2684 C 244.502 5.20314 2.7109 0
M  V30 2685 C 246.854 5.74928 2.63894 0
M  V30 2686 C 245.518 6.14986 2.59516 0
M  V30 2687 H 244.788 0.433846 0.600715 0
M  V30 2688 H 247.435 1.61088 1.03552 0
M  V30 2689 H 245.74 1.45501 3.63781 0
M  V30 2690 H 247.437 1.8392 3.56334 0
M  V30 2691 H 244.027 3.12631 2.93189 0
M  V30 2692 H 248.211 4.09806 2.79952 0
M  V30 2693 H 243.467 5.50449 2.66112 0
M  V30 2694 H 247.641 6.48434 2.53981 0
M  V30 2695 H 245.268 7.19104 2.46565 0
M  V30 2696 N 246.843 -1.10192 1.12674 0
M  V30 2697 C 247.753 -2.20172 0.810026 0
M  V30 2698 C 248.769 -1.72821 -0.202188 0
M  V30 2699 O 249.945 -2.01369 -0.0351691 0
M  V30 2700 C 247.01 -3.45631 0.272007 0
M  V30 2701 C 246.071 -4.07704 1.34447 0
M  V30 2702 C 245.304 -5.27175 0.832029 0
M  V30 2703 O 245.527 -5.69425 -0.333284 0
M  V30 2704 O 244.461 -5.80168 1.60277 0
M  V30 2705 H 248.287 -2.49701 1.72867 0
M  V30 2706 H 245.872 -1.18977 0.903597 0
M  V30 2707 H 247.754 -4.21394 -0.0230219 0
M  V30 2708 H 246.429 -3.17723 -0.619164 0
M  V30 2709 H 245.336 -3.33614 1.6927 0
M  V30 2710 H 246.669 -4.3982 2.2095 0
M  V30 2711 N 248.321 -0.919034 -1.28029 0
M  V30 2712 C 249.546 -0.570357 -1.99403 0
M  V30 2713 C 249.971 0.842486 -1.68178 0
M  V30 2714 O 249.329 1.56391 -0.917141 0
M  V30 2715 C 249.377 -0.792541 -3.51783 0
M  V30 2716 O 248.481 0.145988 -4.12142 0
M  V30 2717 H 247.822 -0.220555 -0.6263 0
M  V30 2718 H 250.352 -1.23592 -1.63053 0
M  V30 2719 H 250.362 -0.704708 -4.01868 0
M  V30 2720 H 249.037 -1.82247 -3.73844 0
M  V30 2721 H 247.614 0.00897528 -3.72899 0
M  V30 2722 N 249.799 1.42003 -0.683588 0
M  V30 2723 C 250.729 2.33487 -0.024866 0
M  V30 2724 C 251.71 1.51163 0.779975 0
M  V30 2725 O 252.895 1.79739 0.735362 0
M  V30 2726 C 250.025 3.3487 0.920836 0
M  V30 2727 C 248.979 4.27414 0.223958 0
M  V30 2728 C 248.305 5.19074 1.2832 0
M  V30 2729 C 249.605 5.14445 -0.90242 0
M  V30 2730 H 251.299 2.88819 -0.788921 0
M  V30 2731 H 248.845 1.38873 -0.38083 0
M  V30 2732 H 250.798 3.97787 1.39081 0
M  V30 2733 H 249.522 2.77861 1.71642 0
M  V30 2734 H 248.181 3.65904 -0.225864 0
M  V30 2735 H 247.829 4.58387 2.071 0
M  V30 2736 H 247.529 5.81822 0.821995 0
M  V30 2737 H 249.053 5.84867 1.75392 0
M  V30 2738 H 250.467 5.70998 -0.513272 0
M  V30 2739 H 248.864 5.86072 -1.28997 0
M  V30 2740 H 249.934 4.52322 -1.74737 0
M  V30 2741 N 251.277 0.427512 1.51691 0
M  V30 2742 C 252.526 -0.143679 2.01188 0
M  V30 2743 C 252.839 -1.44642 1.31674 0
M  V30 2744 O 254.045 -2.09997 1.72086 0
M  V30 2745 C 252.501 -0.306602 3.58592 0
M  V30 2746 C 252.109 0.985125 4.37035 0
M  V30 2747 C 253.853 -0.832091 4.16265 0
M  V30 2748 C 251.76 0.788382 5.86122 0
M  V30 2749 H 250.69 -0.0574701 0.751807 0
M  V30 2750 H 253.341 0.555772 1.74881 0
M  V30 2751 H 251.723 -1.06882 3.81303 0
M  V30 2752 H 252.897 1.75492 4.26074 0
M  V30 2753 H 251.212 1.4384 3.90767 0
M  V30 2754 H 253.809 -0.995617 5.25349 0
M  V30 2755 H 254.152 -1.81186 3.74803 0
M  V30 2756 H 254.685 -0.128444 3.97593 0
M  V30 2757 H 251.424 1.74025 6.31978 0
M  V30 2758 H 250.944 0.0582143 5.99772 0
M  V30 2759 H 252.623 0.437722 6.45518 0
M  V30 2760 N 252.755 -1.56801 0.158532 0
M  V30 2761 C 253.702 -2.17337 -0.776729 0
M  V30 2762 C 254.672 -1.1096 -1.23601 0
M  V30 2763 O 255.857 -1.39054 -1.30647 0
M  V30 2764 C 252.997 -2.80822 -2.00582 0
M  V30 2765 C 252.11 -4.01624 -1.59129 0
M  V30 2766 C 251.245 -4.53072 -2.77306 0
M  V30 2767 C 250.284 -5.66314 -2.32282 0
M  V30 2768 N 249.421 -6.12329 -3.43508 0
M  V30 2769 H 254.261 -2.96918 -0.253701 0
M  V30 2770 H 251.798 -1.46661 -0.113504 0
M  V30 2771 H 253.756 -3.15779 -2.72652 0
M  V30 2772 H 252.386 -2.03866 -2.50277 0
M  V30 2773 H 251.438 -3.72571 -0.767806 0
M  V30 2774 H 252.75 -4.83633 -1.2207 0
M  V30 2775 H 251.904 -4.90145 -3.57551 0
M  V30 2776 H 250.643 -3.70095 -3.17617 0
M  V30 2777 H 249.648 -5.28806 -1.5048 0
M  V30 2778 H 250.873 -6.51085 -1.93043 0
M  V30 2779 H 248.819 -5.32284 -3.83418 0
M  V30 2780 H 248.736 -6.89293 -3.105 0
M  V30 2781 H 250.004 -6.5405 -4.24075 0
M  V30 2782 N 254.233 0.115231 -1.57178 0
M  V30 2783 C 255.482 0.820945 -1.84237 0
M  V30 2784 C 255.795 1.80866 -0.744761 0
M  V30 2785 O 257.001 2.56083 -0.901871 0
M  V30 2786 C 255.457 1.51072 -3.26658 0
M  V30 2787 C 255.065 0.563795 -4.44438 0
M  V30 2788 C 256.809 2.20134 -3.62962 0
M  V30 2789 C 254.716 1.25701 -5.77887 0
M  V30 2790 H 253.646 0.310328 -0.687177 0
M  V30 2791 H 256.297 0.0737134 -1.83352 0
M  V30 2792 H 254.679 2.30471 -3.22024 0
M  V30 2793 H 255.853 -0.197247 -4.60378 0
M  V30 2794 H 254.168 -0.0200638 -4.16395 0
M  V30 2795 H 256.765 2.72696 -4.59936 0
M  V30 2796 H 257.108 2.98107 -2.90582 0
M  V30 2797 H 257.641 1.47619 -3.69396 0
M  V30 2798 H 254.38 0.518493 -6.53446 0
M  V30 2799 H 253.9 1.98997 -5.65827 0
M  V30 2800 H 255.579 1.78915 -6.2177 0
M  V30 2801 N 255.711 1.52812 0.385517 0
M  V30 2802 C 256.641 1.80808 1.47752 0
M  V30 2803 C 257.622 0.660318 1.5676 0
M  V30 2804 O 258.807 0.908246 1.71652 0
M  V30 2805 C 255.937 1.98008 2.85324 0
M  V30 2806 C 254.891 3.13709 2.91154 0
M  V30 2807 C 254.217 3.16169 4.31209 0
M  V30 2808 C 255.517 4.52709 2.60483 0
M  V30 2809 H 257.211 2.72253 1.24573 0
M  V30 2810 H 254.757 1.31003 0.597839 0
M  V30 2811 H 256.71 2.16176 3.61726 0
M  V30 2812 H 255.434 1.03255 3.09848 0
M  V30 2813 H 254.093 2.95329 2.17201 0
M  V30 2814 H 253.741 2.19092 4.52778 0
M  V30 2815 H 253.441 3.93894 4.36029 0
M  V30 2816 H 254.965 3.36496 5.09512 0
M  V30 2817 H 256.379 4.71173 3.26602 0
M  V30 2818 H 254.776 5.32528 2.76648 0
M  V30 2819 H 255.846 4.59186 1.55809 0
M  V30 2820 N 257.189 -0.644168 1.43834 0
M  V30 2821 C 258.152 -1.73857 1.49353 0
M  V30 2822 C 259.152 -1.56315 0.377112 0
M  V30 2823 O 260.342 -1.62048 0.639226 0
M  V30 2824 C 257.474 -3.12819 1.35488 0
M  V30 2825 H 258.667 -1.70342 2.46827 0
M  V30 2826 H 256.22 -0.856652 1.30733 0
M  V30 2827 H 256.955 -3.2194 0.390569 0
M  V30 2828 H 256.74 -3.26958 2.16428 0
M  V30 2829 H 258.23 -3.92606 1.42302 0
M  V30 2830 N 258.668 -1.30515 -0.883378 0
M  V30 2831 C 260.084 -1.08881 -1.16692 0
M  V30 2832 C 260.284 0.149409 -2.00945 0
M  V30 2833 O 259.34 0.84257 -2.38027 0
M  V30 2834 C 260.653 -2.35319 -1.87204 0
M  V30 2835 C 262.201 -2.40799 -1.99962 0
M  V30 2836 C 262.676 -3.67083 -2.73887 0
M  V30 2837 N 264.167 -3.679 -2.81432 0
M  V30 2838 C 264.902 -4.62303 -3.3921 0
M  V30 2839 N 264.398 -5.67052 -3.98025 0
M  V30 2840 N 266.191 -4.49845 -3.3704 0
M  V30 2841 H 258.342 -2.09951 -0.321633 0
M  V30 2842 H 260.605 -0.92556 -0.205043 0
M  V30 2843 H 260.311 -3.25689 -1.3274 0
M  V30 2844 H 260.185 -2.44089 -2.87577 0
M  V30 2845 H 262.572 -1.50907 -2.53597 0
M  V30 2846 H 262.653 -2.36003 -0.98673 0
M  V30 2847 H 262.297 -4.57334 -2.20925 0
M  V30 2848 H 262.227 -3.69141 -3.75556 0
M  V30 2849 H 264.718 -2.92171 -2.39676 0
M  V30 2850 H 265.031 -6.35184 -4.40183 0
M  V30 2851 H 263.376 -5.70842 -3.96439 0
M  V30 2852 H 266.567 -3.67194 -2.90321 0
M  V30 2853 H 266.74 -5.23597 -3.81772 0
M  V30 2854 N 260.146 1.09593 -1.13257 0
M  V30 2855 C 261.394 1.81375 -0.891492 0
M  V30 2856 C 261.715 1.86049 0.584009 0
M  V30 2857 O 260.985 1.34481 1.42449 0
M  V30 2858 H 259.565 0.671708 -0.326828 0
M  V30 2859 H 262.227 1.3256 -1.42877 0
M  V30 2860 H 261.323 2.84612 -1.28071 0
M  V30 2861 N 261.624 0.925811 1.2754 0
M  V30 2862 C 262.871 0.565255 1.94451 0
M  V30 2863 C 263.199 -0.89316 1.7278 0
M  V30 2864 O 262.454 -1.65213 1.04895 0
M  V30 2865 C 262.753 0.835296 3.47502 0
M  V30 2866 C 262.419 2.27515 3.89291 0
M  V30 2867 C 261.081 2.66879 4.00411 0
M  V30 2868 C 263.433 3.21158 4.10496 0
M  V30 2869 C 260.761 3.99014 4.30122 0
M  V30 2870 C 263.113 4.52871 4.4169 0
M  V30 2871 C 261.777 4.92072 4.51023 0
M  V30 2872 H 261.047 0.206841 0.711546 0
M  V30 2873 H 263.694 1.16942 1.51647 0
M  V30 2874 H 261.999 0.148442 3.91519 0
M  V30 2875 H 263.696 0.535322 3.97411 0
M  V30 2876 H 260.286 1.95976 3.81171 0
M  V30 2877 H 264.47 2.9195 4.01346 0
M  V30 2878 H 259.726 4.2907 4.35556 0
M  V30 2879 H 263.9 5.25436 4.57045 0
M  V30 2880 H 261.527 5.9449 4.738 0
M  V30 2881 N 263.102 -1.41638 0.69111 0
M  V30 2882 C 264.342 -2.03166 0.224291 0
M  V30 2883 C 264.706 -1.53537 -1.15284 0
M  V30 2884 O 265.907 -2.0696 -1.71525 0
M  V30 2885 C 264.178 -3.56342 0.274758 0
M  V30 2886 S 265.737 -4.3864 -0.118669 0
M  V30 2887 H 262.555 -0.705188 0.0907263 0
M  V30 2888 H 265.157 -1.7314 0.907895 0
M  V30 2889 H 263.861 -3.89958 1.2791 0
M  V30 2890 H 263.392 -3.91063 -0.428142 0
M  V30 2891 H 265.407 -4.77549 -1.34764 0
M  V30 2892 N 264.58 -0.43555 -1.51462 0
M  V30 2893 C 265.51 0.367376 -2.30592 0
M  V30 2894 C 266.491 1.02263 -1.35928 0
M  V30 2895 O 267.676 1.02661 -1.64847 0
M  V30 2896 C 264.806 1.46983 -3.14664 0
M  V30 2897 C 263.76 0.938161 -4.17591 0
M  V30 2898 C 263.086 2.13622 -4.90173 0
M  V30 2899 C 264.386 -0.0261621 -5.22293 0
M  V30 2900 H 266.08 -0.292969 -2.97963 0
M  V30 2901 H 263.626 -0.14234 -1.43295 0
M  V30 2902 H 265.579 2.03873 -3.688 0
M  V30 2903 H 264.303 2.15843 -2.4511 0
M  V30 2904 H 262.962 0.391481 -3.64504 0
M  V30 2905 H 262.61 2.81098 -4.17124 0
M  V30 2906 H 262.31 1.78688 -5.59772 0
M  V30 2907 H 263.834 2.7107 -5.47132 0
M  V30 2908 H 265.248 0.452384 -5.71512 0
M  V30 2909 H 263.645 -0.287992 -5.99409 0
M  V30 2910 H 264.715 -0.963391 -4.75233 0
M  V30 2911 N 266.058 1.56714 -0.166846 0
M  V30 2912 C 266.968 2.21331 0.777791 0
M  V30 2913 C 267.984 1.20358 1.25658 0
M  V30 2914 O 269.16 1.53005 1.30964 0
M  V30 2915 C 266.225 2.83787 1.99163 0
M  V30 2916 C 265.286 3.99947 1.56016 0
M  V30 2917 C 264.519 4.59415 2.71613 0
M  V30 2918 O 264.742 4.17769 3.88362 0
M  V30 2919 O 263.676 5.49359 2.45945 0
M  V30 2920 H 267.502 3.02605 0.257636 0
M  V30 2921 H 265.087 1.49275 0.0611393 0
M  V30 2922 H 266.969 3.23405 2.70161 0
M  V30 2923 H 265.644 2.05513 2.50092 0
M  V30 2924 H 264.551 3.65007 0.819809 0
M  V30 2925 H 265.884 4.79801 1.09782 0
M  V30 2926 N 267.536 -0.106894 1.57237 0
M  V30 2927 C 268.813 -0.843526 1.76477 0
M  V30 2928 C 269.193 -1.97499 0.745464 0
M  V30 2929 O 268.541 -2.27357 -0.228306 0
M  V30 2930 C 268.751 -1.34903 3.21873 0
M  V30 2931 C 270.099 -1.79654 3.8472 0
M  V30 2932 O 271.123 -1.44554 3.2555 0
M  V30 2933 O 269.982 -2.44515 4.88748 0
M  V30 2934 H 267.076 -0.401468 0.723016 0
M  V30 2935 H 269.622 -0.0896927 1.69463 0
M  V30 2936 H 268.394 -0.53781 3.87586 0
M  V30 2937 H 268.017 -2.16522 3.33473 0
M  V30 2938 N 269.014 -1.53014 -0.377408 0
M  V30 2939 C 270.261 -1.68623 -1.12128 0
M  V30 2940 C 270.589 -0.431997 -1.89642 0
M  V30 2941 O 269.844 0.585855 -1.86725 0
M  V30 2942 C 270.143 -2.87982 -2.11663 0
M  V30 2943 C 269.809 -4.24964 -1.50719 0
M  V30 2944 C 268.471 -4.62217 -1.33825 0
M  V30 2945 C 270.823 -5.10199 -1.06519 0
M  V30 2946 C 268.151 -5.82352 -0.712963 0
M  V30 2947 C 270.503 -6.30969 -0.453955 0
M  V30 2948 C 269.167 -6.66944 -0.272411 0
M  V30 2949 H 268.437 -0.617034 -0.410305 0
M  V30 2950 H 271.084 -1.8718 -0.404484 0
M  V30 2951 H 269.389 -2.63889 -2.89603 0
M  V30 2952 H 271.086 -2.97253 -2.6915 0
M  V30 2953 H 267.676 -3.95626 -1.64858 0
M  V30 2954 H 271.86 -4.81978 -1.18368 0
M  V30 2955 H 267.116 -6.08824 -0.560611 0
M  V30 2956 H 271.29 -6.96324 -0.103217 0
M  V30 2957 H 268.917 -7.59898 0.214181 0
M  V30 2958 N 270.492 0.636531 -1.44174 0
M  V30 2959 C 271.72 1.42353 -1.50144 0
M  V30 2960 C 272.135 1.88389 -0.124575 0
M  V30 2961 O 271.492 1.6051 0.868489 0
M  V30 2962 C 271.543 2.64744 -2.46156 0
M  V30 2963 O 271.264 2.20629 -3.7849 0
M  V30 2964 C 272.765 3.57929 -2.61537 0
M  V30 2965 H 269.985 0.436752 -0.5094 0
M  V30 2966 H 272.529 0.778933 -1.89084 0
M  V30 2967 H 270.684 3.25307 -2.10366 0
M  V30 2968 H 271.098 2.99938 -4.30276 0
M  V30 2969 H 272.572 4.40428 -3.32757 0
M  V30 2970 H 273.049 4.06382 -1.66585 0
M  V30 2971 H 273.655 3.03238 -2.98206 0
M  V30 2972 N 271.97 1.30982 0.876444 0
M  V30 2973 C 273.217 1.20296 1.62896 0
M  V30 2974 C 273.545 -0.240395 1.93009 0
M  V30 2975 O 272.8 -1.18733 1.55567 0
M  V30 2976 C 273.099 1.98572 2.9716 0
M  V30 2977 C 272.765 3.48125 2.86566 0
M  V30 2978 C 271.427 3.88905 2.83383 0
M  V30 2979 C 273.779 4.43322 2.74071 0
M  V30 2980 C 271.107 5.2316 2.65556 0
M  V30 2981 C 273.459 5.77695 2.57781 0
M  V30 2982 C 272.123 6.17704 2.52979 0
M  V30 2983 H 271.393 0.440193 0.59608 0
M  V30 2984 H 274.04 1.62177 1.01837 0
M  V30 2985 H 272.345 1.49352 3.62217 0
M  V30 2986 H 274.042 1.8769 3.54364 0
M  V30 2987 H 270.632 3.15723 2.89856 0
M  V30 2988 H 274.816 4.12752 2.75589 0
M  V30 2989 H 270.072 5.53241 2.60259 0
M  V30 2990 H 274.246 6.51091 2.47089 0
M  V30 2991 H 271.873 7.21678 2.38924 0
M  V30 2992 N 273.449 -1.08991 1.13837 0
M  V30 2993 C 274.379 -2.17771 0.842507 0
M  V30 2994 C 275.36 -1.6892 -0.20001 0
M  V30 2995 O 276.545 -1.94113 -0.0579731 0
M  V30 2996 C 273.675 -3.4589 0.312644 0
M  V30 2997 C 272.629 -4.08099 1.28992 0
M  V30 2998 C 271.955 -5.31098 0.619623 0
M  V30 2999 C 273.255 -4.50077 2.65005 0
M  V30 3000 H 274.949 -2.42777 1.75213 0
M  V30 3001 H 272.495 -1.16682 0.843875 0
M  V30 3002 H 274.448 -4.21297 0.0933043 0
M  V30 3003 H 273.172 -3.20419 -0.632382 0
M  V30 3004 H 271.831 -3.34717 1.49533 0
M  V30 3005 H 271.479 -5.0191 -0.33102 0
M  V30 3006 H 271.179 -5.73674 1.27167 0
M  V30 3007 H 272.703 -6.09224 0.409669 0
M  V30 3008 H 274.117 -5.16688 2.48407 0
M  V30 3009 H 272.514 -5.03553 3.26427 0
M  V30 3010 H 273.584 -3.62257 3.22332 0
M  V30 3011 N 274.927 -0.932562 -1.27047 0
M  V30 3012 C 276.343 -0.633544 -1.46487 0
M  V30 3013 C 276.543 0.815746 -1.84249 0
M  V30 3014 O 275.599 1.59319 -1.95892 0
M  V30 3015 C 276.912 -1.58758 -2.55375 0
M  V30 3016 C 278.46 -1.59634 -2.69232 0
M  V30 3017 C 278.935 -2.53747 -3.81283 0
M  V30 3018 N 280.426 -2.51982 -3.88664 0
M  V30 3019 C 281.161 -3.21491 -4.74796 0
M  V30 3020 N 280.657 -4.00395 -5.65381 0
M  V30 3021 N 282.45 -3.10485 -4.68568 0
M  V30 3022 H 274.601 -1.86946 -1.00821 0
M  V30 3023 H 276.864 -0.802897 -0.504044 0
M  V30 3024 H 276.57 -2.62172 -2.34432 0
M  V30 3025 H 276.444 -1.33301 -3.52861 0
M  V30 3026 H 278.831 -0.569488 -2.89553 0
M  V30 3027 H 278.912 -1.89142 -1.72218 0
M  V30 3028 H 278.556 -3.56545 -3.61715 0
M  V30 3029 H 278.486 -2.21532 -4.77735 0
M  V30 3030 H 280.977 -1.94681 -3.23895 0
M  V30 3031 H 281.29 -4.50406 -6.27976 0
M  V30 3032 H 279.635 -4.04498 -5.65161 0
M  V30 3033 H 282.826 -2.48331 -3.96799 0
M  V30 3034 H 282.999 -3.64925 -5.35475 0
M  V30 3035 N 276.405 1.4127 -0.698611 0
M  V30 3036 C 277.682 1.94955 -0.158762 0
M  V30 3037 C 278.062 1.63781 1.33188 0
M  V30 3038 O 277.41 0.946423 2.07979 0
M  V30 3039 C 277.62 3.46044 -0.453309 0
M  V30 3040 C 278.968 4.22872 -0.382707 0
M  V30 3041 O 279.992 3.54076 -0.388396 0
M  V30 3042 O 278.851 5.45407 -0.345463 0
M  V30 3043 H 275.945 0.82683 -0.0167505 0
M  V30 3044 H 278.491 1.50971 -0.77498 0
M  V30 3045 H 277.263 3.62028 -1.48498 0
M  V30 3046 H 276.886 3.97128 0.19373 0
M  V30 3047 N 277.883 0.443576 1.51229 0
M  V30 3048 C 279.294 -0.0180867 1.86691 0
M  V30 3049 C 279.645 -1.41384 1.36033 0
M  V30 3050 O 278.77 -2.04291 0.713722 0
M  V30 3051 C 279.365 -0.039597 3.38777 0
M  V30 3052 C 277.924 -0.445692 3.73752 0
M  V30 3053 C 277.071 0.357584 2.74985 0
M  V30 3054 H 280.022 0.659138 1.44364 0
M  V30 3055 H 280.043 -0.847761 3.70936 0
M  V30 3056 H 279.555 0.976382 3.75617 0
M  V30 3057 H 277.656 -1.46704 3.42503 0
M  V30 3058 H 277.769 -0.166155 4.78812 0
M  V30 3059 H 276.133 -0.184973 2.54027 0
M  V30 3060 H 276.916 1.37256 3.14668 0
M  V30 3061 N 279.361 -1.56624 0.175154 0
M  V30 3062 C 280.607 -1.98061 -0.462976 0
M  V30 3063 C 280.962 -1.05949 -1.60601 0
M  V30 3064 O 280.255 -0.0999027 -1.91339 0
M  V30 3065 C 280.449 -3.43419 -0.989864 0
M  V30 3066 C 280.278 -4.49587 0.100583 0
M  V30 3067 C 279.048 -5.02281 0.551539 0
M  V30 3068 C 281.246 -5.06322 0.902369 0
M  V30 3069 N 279.228 -5.92088 1.62189 0
M  V30 3070 C 280.599 -5.92607 1.82256 0
M  V30 3071 C 282.654 -4.88811 0.947019 0
M  V30 3072 C 281.357 -6.63254 2.78364 0
M  V30 3073 C 283.383 -5.60182 1.89606 0
M  V30 3074 C 282.745 -6.46197 2.80372 0
M  V30 3075 H 278.844 -0.769833 -0.137409 0
M  V30 3076 H 281.428 -1.9273 0.276256 0
M  V30 3077 H 279.599 -3.49288 -1.6986 0
M  V30 3078 H 281.331 -3.7186 -1.59694 0
M  V30 3079 H 278.086 -4.73367 0.148537 0
M  V30 3080 H 278.51 -6.41696 2.15767 0
M  V30 3081 H 283.152 -4.22004 0.259304 0
M  V30 3082 H 280.87 -7.29271 3.48122 0
M  V30 3083 H 284.456 -5.48617 1.93676 0
M  V30 3084 H 283.336 -7.00453 3.52612 0
M  V30 3085 N 280.839 0.0985539 -1.57292 0
M  V30 3086 C 281.787 1.1387 -2.02821 0
M  V30 3087 C 282.781 1.41676 -0.928666 0
M  V30 3088 O 283.987 1.41398 -1.11385 0
M  V30 3089 H 280.362 0.384419 -0.646317 0
M  V30 3090 H 282.333 0.728347 -2.89375 0
M  V30 3091 C 281.082 2.45166 -2.46554 0
M  V30 3092 H 280.405 2.24613 -3.3074 0
M  V30 3093 H 281.845 3.16456 -2.8219 0
M  V30 3094 C 280.304 3.09216 -1.33742 0
M  V30 3095 O 280.834 3.96163 -0.66464 0
M  V30 3096 N 279.04 2.69413 -1.08928 0
M  V30 3097 H 278.587 1.98801 -1.63817 0
M  V30 3098 H 278.545 3.12594 -0.336458 0
M  V30 3099 N 282.317 1.53212 0.369288 0
M  V30 3100 C 283.563 1.70413 1.11046 0
M  V30 3101 C 283.918 0.448509 1.87099 0
M  V30 3102 O 283.211 -0.558382 1.83283 0
M  V30 3103 C 283.405 2.89101 2.10132 0
M  V30 3104 C 283.234 4.26084 1.43814 0
M  V30 3105 C 282.004 4.90994 1.19384 0
M  V30 3106 C 284.202 5.06754 0.877802 0
M  V30 3107 N 282.184 6.11911 0.49377 0
M  V30 3108 C 283.555 6.1924 0.306891 0
M  V30 3109 C 285.61 4.91814 0.776129 0
M  V30 3110 C 284.313 7.1842 -0.355774 0
M  V30 3111 C 286.339 5.91263 0.127252 0
M  V30 3112 C 285.701 7.03069 -0.432801 0
M  V30 3113 H 281.8 0.676872 0.391623 0
M  V30 3114 H 284.384 1.90603 0.397334 0
M  V30 3115 H 282.555 2.70456 2.78761 0
M  V30 3116 H 284.287 2.95142 2.76899 0
M  V30 3117 H 281.042 4.50074 1.47413 0
M  V30 3118 H 281.466 6.76813 0.159207 0
M  V30 3119 H 286.108 4.05564 1.19489 0
M  V30 3120 H 283.826 8.04264 -0.786499 0
M  V30 3121 H 287.412 5.81779 0.0495613 0
M  V30 3122 H 286.292 7.78702 -0.926958 0
M  V30 3123 N 283.795 -0.628877 1.44509 0
M  V30 3124 C 284.725 -1.75187 1.54376 0
M  V30 3125 C 285.706 -1.65411 0.396618 0
M  V30 3126 O 286.891 -1.84137 0.617031 0
M  V30 3127 C 284.021 -3.13725 1.48976 0
M  V30 3128 C 282.975 -3.38291 2.62189 0
M  V30 3129 C 282.301 -4.76883 2.41841 0
M  V30 3130 C 283.601 -3.30632 4.04326 0
M  V30 3131 H 285.295 -1.67187 2.48373 0
M  V30 3132 H 282.841 -0.802909 1.19538 0
M  V30 3133 H 284.794 -3.92064 1.54478 0
M  V30 3134 H 283.518 -3.22515 0.514961 0
M  V30 3135 H 282.177 -2.62334 2.56079 0
M  V30 3136 H 281.825 -4.82378 1.42548 0
M  V30 3137 H 281.525 -4.94278 3.17747 0
M  V30 3138 H 283.049 -5.57449 2.49165 0
M  V30 3139 H 284.463 -3.98873 4.11793 0
M  V30 3140 H 282.86 -3.59561 4.80454 0
M  V30 3141 H 283.93 -2.28404 4.27738 0
M  V30 3142 N 285.273 -1.31445 -0.869486 0
M  V30 3143 C 286.55 -1.11795 -1.60503 0
M  V30 3144 C 286.93 0.327168 -2.08549 0
M  V30 3145 O 286.278 1.32135 -1.8642 0
M  V30 3146 C 286.488 -2.13258 -2.76265 0
M  V30 3147 C 287.836 -2.45805 -3.46215 0
M  V30 3148 O 288.86 -2.11688 -2.86473 0
M  V30 3149 O 287.719 -3.04228 -4.5399 0
M  V30 3150 H 284.813 -0.430421 -0.706163 0
M  V30 3151 H 287.359 -1.42925 -0.914907 0
M  V30 3152 H 286.131 -3.10461 -2.3818 0
M  V30 3153 H 285.754 -1.83035 -3.52964 0
M  V30 3154 N 286.751 1.08385 -1.14413 0
M  V30 3155 C 287.998 1.80776 -0.912482 0
M  V30 3156 C 288.326 1.86236 0.560934 0
M  V30 3157 O 287.581 1.33431 1.43159 0
M  V30 3158 C 287.88 3.26273 -1.45879 0
M  V30 3159 C 287.546 3.4093 -2.95089 0
M  V30 3160 C 286.208 3.44638 -3.35824 0
M  V30 3161 C 288.56 3.44591 -3.91033 0
M  V30 3162 C 285.888 3.49597 -4.71167 0
M  V30 3163 C 288.24 3.51086 -5.26233 0
M  V30 3164 C 286.904 3.53067 -5.6648 0
M  V30 3165 H 286.174 0.661507 -0.333901 0
M  V30 3166 H 288.821 1.27613 -1.42784 0
M  V30 3167 H 287.126 3.82146 -0.864376 0
M  V30 3168 H 288.823 3.80839 -1.2555 0
M  V30 3169 H 285.413 3.38736 -2.62594 0
M  V30 3170 H 289.597 3.40957 -3.60641 0
M  V30 3171 H 284.853 3.49424 -5.0171 0
M  V30 3172 H 289.027 3.52864 -6.00383 0
M  V30 3173 H 286.654 3.56662 -6.71339 0
M  V30 3174 N 288.23 0.939286 1.26551 0
M  V30 3175 C 289.455 0.602008 1.98471 0
M  V30 3176 C 289.88 -0.815624 1.69497 0
M  V30 3177 O 289.238 -1.54912 0.941905 0
M  V30 3178 C 289.286 0.848407 3.50477 0
M  V30 3179 O 288.39 -0.0804009 4.12322 0
M  V30 3180 H 287.731 0.23049 0.622712 0
M  V30 3181 H 290.261 1.2617 1.61066 0
M  V30 3182 H 290.271 0.768553 4.00696 0
M  V30 3183 H 288.946 1.88171 3.70897 0
M  V30 3184 H 287.523 0.0503508 3.72866 0
M  V30 3185 N 289.708 -1.40897 0.706093 0
M  V30 3186 C 290.954 -2.01352 0.241889 0
M  V30 3187 C 291.287 -1.55832 -1.15888 0
M  V30 3188 O 290.562 -0.774145 -1.7843 0
M  V30 3189 C 290.845 -3.58752 0.311311 0
M  V30 3190 C 290.698 -4.1437 1.74978 0
M  V30 3191 C 292.017 -4.38914 -0.322922 0
M  V30 3192 H 289.136 -0.731562 0.0893687 0
M  V30 3193 H 291.778 -1.67504 0.896802 0
M  V30 3194 H 289.928 -3.87718 -0.246302 0
M  V30 3195 H 291.6 -3.96239 2.36205 0
M  V30 3196 H 289.843 -3.69016 2.28057 0
M  V30 3197 H 290.514 -5.23532 1.74981 0
M  V30 3198 H 292.99 -4.15822 0.152089 0
M  V30 3199 H 291.866 -5.48358 -0.243855 0
M  V30 3200 H 292.127 -4.19176 -1.40513 0
M  V30 3201 N 291.186 -0.45159 -1.50991 0
M  V30 3202 C 292.435 0.111653 -2.01391 0
M  V30 3203 C 292.748 1.42529 -1.33959 0
M  V30 3204 O 293.954 2.07232 -1.75405 0
M  V30 3205 C 292.41 0.249514 -3.59034 0
M  V30 3206 C 292.018 -1.05453 -4.35412 0
M  V30 3207 C 293.762 0.765762 -4.17536 0
M  V30 3208 C 291.669 -0.881529 -5.84793 0
M  V30 3209 H 290.599 0.0455022 -0.752626 0
M  V30 3210 H 293.25 -0.583524 -1.73975 0
M  V30 3211 H 291.632 1.00803 -3.82955 0
M  V30 3212 H 292.806 -1.82248 -4.23229 0
M  V30 3213 H 291.121 -1.50039 -3.88429 0
M  V30 3214 H 293.718 0.911913 -5.26866 0
M  V30 3215 H 294.061 1.75201 -3.77638 0
M  V30 3216 H 294.594 0.0651744 -3.97747 0
M  V30 3217 H 291.333 -1.84057 -6.29129 0
M  V30 3218 H 290.853 -0.153625 -5.99603 0
M  V30 3219 H 292.532 -0.540363 -6.4474 0
M  V30 3220 N 292.664 1.56529 -0.183458 0
M  V30 3221 C 293.91 1.97537 0.459036 0
M  V30 3222 C 294.243 1.06989 1.62071 0
M  V30 3223 O 293.518 0.11948 1.94133 0
M  V30 3224 C 293.801 3.47874 0.930368 0
M  V30 3225 C 293.654 4.492 -0.232317 0
M  V30 3226 C 294.973 4.01612 1.79989 0
M  V30 3227 H 292.092 0.718204 0.165383 0
M  V30 3228 H 294.734 1.88042 -0.272038 0
M  V30 3229 H 292.884 3.56095 1.55333 0
M  V30 3230 H 294.556 4.53027 -0.86972 0
M  V30 3231 H 292.799 4.24657 -0.885928 0
M  V30 3232 H 293.47 5.51823 0.139796 0
M  V30 3233 H 295.946 3.96097 1.27461 0
M  V30 3234 H 294.822 5.07195 2.09867 0
M  V30 3235 H 295.083 3.46163 2.74998 0
M  V30 3236 N 294.142 -0.090211 1.57342 0
M  V30 3237 C 295.075 -1.14035 1.97664 0
M  V30 3238 C 296.053 -1.38576 0.850616 0
M  V30 3239 O 297.237 -1.52255 1.11134 0
M  V30 3240 C 294.364 -2.48854 2.2976 0
M  V30 3241 C 293.41 -2.40564 3.52181 0
M  V30 3242 S 294.243 -1.81745 5.03715 0
M  V30 3243 C 295.399 -3.18178 5.38993 0
M  V30 3244 H 295.632 -0.796636 2.86428 0
M  V30 3245 H 293.165 -0.298072 1.51496 0
M  V30 3246 H 295.123 -3.26413 2.48927 0
M  V30 3247 H 293.784 -2.80393 1.41558 0
M  V30 3248 H 292.977 -3.39942 3.72096 0
M  V30 3249 H 292.579 -1.71135 3.32549 0
M  V30 3250 H 294.871 -4.14461 5.35937 0
M  V30 3251 H 295.814 -3.03062 6.39968 0
M  V30 3252 H 296.222 -3.17935 4.66452 0
M  V30 3253 N 295.62 -1.53406 -0.361157 0
M  V30 3254 C 296.583 -1.79479 -1.42548 0
M  V30 3255 C 297.583 -0.665327 -1.4639 0
M  V30 3256 O 298.773 -0.933549 -1.47073 0
M  V30 3257 C 295.905 -1.92087 -2.8163 0
M  V30 3258 H 297.098 -2.74538 -1.20701 0
M  V30 3259 H 294.651 -1.4455 -0.594546 0
M  V30 3260 H 295.386 -0.991099 -3.08784 0
M  V30 3261 H 295.171 -2.74241 -2.80239 0
M  V30 3262 H 296.661 -2.13836 -3.58697 0
M  V30 3263 N 297.098 0.621204 -1.44841 0
M  V30 3264 C 298.328 1.40548 -1.51426 0
M  V30 3265 C 298.736 1.88673 -0.141083 0
M  V30 3266 O 298.079 1.62053 0.865128 0
M  V30 3267 C 298.141 2.65325 -2.42576 0
M  V30 3268 C 297.805 2.3893 -3.89566 0
M  V30 3269 C 298.802 2.00138 -4.79834 0
M  V30 3270 C 296.487 2.52263 -4.3436 0
M  V30 3271 C 298.481 1.75021 -6.129 0
M  V30 3272 C 296.168 2.2676 -5.67471 0
M  V30 3273 C 297.166 1.88199 -6.56559 0
M  V30 3274 O 296.854 1.62986 -7.87204 0
M  V30 3275 H 296.586 0.437122 -0.515655 0
M  V30 3276 H 299.14 0.765987 -1.90583 0
M  V30 3277 H 297.37 3.31947 -1.98364 0
M  V30 3278 H 299.059 3.27347 -2.39998 0
M  V30 3279 H 299.825 1.89386 -4.46495 0
M  V30 3280 H 295.704 2.81246 -3.65269 0
M  V30 3281 H 299.248 1.44848 -6.82396 0
M  V30 3282 H 295.145 2.37125 -6.00368 0
M  V30 3283 H 295.913 1.7715 -7.991 0
M  V30 3284 N 298.576 1.31904 0.862503 0
M  V30 3285 C 299.822 1.22197 1.61851 0
M  V30 3286 C 300.155 -0.217641 1.92977 0
M  V30 3287 O 299.43 -1.15264 1.56666 0
M  V30 3288 C 299.713 2.07378 2.94391 0
M  V30 3289 C 299.566 3.59678 2.70096 0
M  V30 3290 C 300.885 1.92891 3.95577 0
M  V30 3291 H 298.004 0.445255 0.587296 0
M  V30 3292 H 300.646 1.6177 0.99651 0
M  V30 3293 H 298.796 1.73758 3.47477 0
M  V30 3294 H 300.468 4.03472 2.23625 0
M  V30 3295 H 298.711 3.82735 2.04197 0
M  V30 3296 H 299.382 4.14595 3.64438 0
M  V30 3297 H 301.858 2.22327 3.51724 0
M  V30 3298 H 300.734 2.54781 4.86187 0
M  V30 3299 H 300.995 0.894315 4.3296 0
M  V30 3300 N 300.054 -1.07777 1.14986 0
M  V30 3301 C 301.282 -1.84018 0.945773 0
M  V30 3302 C 301.697 -1.81897 -0.505863 0
M  V30 3303 O 301.054 -1.22726 -1.35072 0
M  V30 3304 C 301.105 -3.31287 1.44677 0
M  V30 3305 O 300.826 -3.33449 2.84154 0
M  V30 3306 C 302.327 -4.24311 1.28355 0
M  V30 3307 H 299.547 -0.580716 0.336169 0
M  V30 3308 H 302.091 -1.36077 1.52654 0
M  V30 3309 H 300.246 -3.76594 0.908625 0
M  V30 3310 H 300.66 -4.25427 3.06777 0
M  V30 3311 H 302.134 -5.2573 1.68261 0
M  V30 3312 H 302.611 -4.38612 0.227184 0
M  V30 3313 H 303.217 -3.84836 1.81056 0
M  V30 3314 N 301.532 -0.945985 -1.26051 0
M  V30 3315 C 302.442 -0.465633 -2.29933 0
M  V30 3316 C 303.458 0.462761 -1.67733 0
M  V30 3317 O 304.634 0.341118 -1.9849 0
M  V30 3318 C 301.699 0.256994 -3.45746 0
M  V30 3319 C 300.76 -0.708549 -4.23412 0
M  V30 3320 C 299.993 -0.0203135 -5.33696 0
M  V30 3321 O 300.216 1.19571 -5.57726 0
M  V30 3322 O 299.15 -0.701459 -5.97799 0
M  V30 3323 H 302.976 -1.32866 -2.73094 0
M  V30 3324 H 300.561 -0.712071 -1.31339 0
M  V30 3325 H 302.443 0.663852 -4.16138 0
M  V30 3326 H 301.118 1.09533 -3.04605 0
M  V30 3327 H 300.025 -1.16545 -3.55483 0
M  V30 3328 H 301.358 -1.51465 -4.68315 0
M  V30 3329 N 303.011 1.40521 -0.713556 0
M  V30 3330 C 304.258 2.00923 -0.25219 0
M  V30 3331 C 304.586 1.56571 1.15395 0
M  V30 3332 O 303.841 0.775874 1.79663 0
M  V30 3333 C 304.14 3.56317 -0.278 0
M  V30 3334 C 303.806 4.20246 -1.63415 0
M  V30 3335 C 302.468 4.37422 -2.00538 0
M  V30 3336 C 304.82 4.55923 -2.52554 0
M  V30 3337 C 302.148 4.87558 -3.2635 0
M  V30 3338 C 304.5 5.07458 -3.77716 0
M  V30 3339 C 303.164 5.22843 -4.14959 0
M  V30 3340 H 302.434 0.735231 -0.0922829 0
M  V30 3341 H 305.081 1.68161 -0.916188 0
M  V30 3342 H 303.386 3.88976 0.469567 0
M  V30 3343 H 305.083 4.00883 0.0967819 0
M  V30 3344 H 301.673 4.07263 -1.33546 0
M  V30 3345 H 305.857 4.42291 -2.25149 0
M  V30 3346 H 301.113 4.97654 -3.55176 0
M  V30 3347 H 305.287 5.34041 -4.4696 0
M  V30 3348 H 302.914 5.61454 -5.12516 0
M  V30 3349 N 304.489 0.459591 1.5075 0
M  V30 3350 C 305.735 -0.0994966 2.02556 0
M  V30 3351 C 306.068 -1.40399 1.3417 0
M  V30 3352 O 305.343 -1.88892 0.463683 0
M  V30 3353 C 305.626 -0.295242 3.58888 0
M  V30 3354 C 305.479 1.02947 4.37861 0
M  V30 3355 C 306.798 -1.05502 4.27267 0
M  V30 3356 H 303.917 -0.034686 0.736183 0
M  V30 3357 H 306.559 0.602938 1.8018 0
M  V30 3358 H 304.709 -0.893563 3.78084 0
M  V30 3359 H 306.381 1.66348 4.30263 0
M  V30 3360 H 304.624 1.62885 4.02058 0
M  V30 3361 H 305.295 0.846281 5.45474 0
M  V30 3362 H 307.771 -0.547993 4.12476 0
M  V30 3363 H 306.647 -1.16077 5.36486 0
M  V30 3364 H 306.908 -2.08875 3.89645 0
M  V30 3365 N 305.967 -1.56429 0.191757 0
M  V30 3366 C 307.192 -2.02309 -0.456706 0
M  V30 3367 C 307.617 -1.07103 -1.5463 0
M  V30 3368 O 306.975 -0.0539677 -1.8122 0
M  V30 3369 C 307.023 -3.46654 -0.993159 0
M  V30 3370 O 306.127 -3.54559 -2.10622 0
M  V30 3371 H 305.468 -0.655303 -0.107114 0
M  V30 3372 H 307.998 -2.02364 0.301653 0
M  V30 3373 H 308.008 -3.86377 -1.31061 0
M  V30 3374 H 306.683 -4.1544 -0.195504 0
M  V30 3375 H 305.26 -3.26708 -1.79767 0
M  V30 3376 N 307.445 0.0818655 -1.57387 0
M  V30 3377 C 308.375 1.09885 -2.06028 0
M  V30 3378 C 309.356 1.4098 -0.951774 0
M  V30 3379 O 310.541 1.50781 -1.22387 0
M  V30 3380 C 307.671 2.4151 -2.4958 0
M  V30 3381 C 306.625 2.24792 -3.64215 0
M  V30 3382 C 305.951 3.61712 -3.93787 0
M  V30 3383 C 307.251 1.67749 -4.94629 0
M  V30 3384 H 308.945 0.694128 -2.91243 0
M  V30 3385 H 306.491 0.332448 -1.4011 0
M  V30 3386 H 308.444 3.12939 -2.82219 0
M  V30 3387 H 307.168 2.83943 -1.61381 0
M  V30 3388 H 305.827 1.55807 -3.31843 0
M  V30 3389 H 305.475 4.01697 -3.02735 0
M  V30 3390 H 305.175 3.51368 -4.70971 0
M  V30 3391 H 306.699 4.34587 -4.28913 0
M  V30 3392 H 308.113 2.29032 -5.25564 0
M  V30 3393 H 306.51 1.68128 -5.76067 0
M  V30 3394 H 307.58 0.638059 -4.80684 0
M  V30 3395 N 308.923 1.53595 0.353017 0
M  V30 3396 C 310.171 1.70049 1.09215 0
M  V30 3397 C 310.492 0.461406 1.89463 0
M  V30 3398 O 309.762 -0.524633 1.88744 0
M  V30 3399 H 308.342 0.626912 0.40619 0
M  V30 3400 H 311.004 1.90822 0.396585 0
M  V30 3401 H 310.1 2.56718 1.77488 0
M  V30 3402 N 310.401 -0.613514 1.45168 0
M  V30 3403 C 311.349 -1.74572 1.53712 0
M  V30 3404 C 312.343 -1.64426 0.407505 0
M  V30 3405 O 313.549 -1.70291 0.583176 0
M  V30 3406 H 309.924 -0.576641 0.48269 0
M  V30 3407 H 311.895 -1.64492 2.48968 0
M  V30 3408 C 310.644 -3.12943 1.51532 0
M  V30 3409 H 309.967 -3.21407 2.37776 0
M  V30 3410 H 311.407 -3.9201 1.61569 0
M  V30 3411 C 309.866 -3.36053 0.238798 0
M  V30 3412 O 310.396 -3.95837 -0.6838 0
M  V30 3413 N 308.602 -2.9028 0.136359 0
M  V30 3414 H 308.149 -2.41811 0.887999 0
M  V30 3415 H 308.107 -3.06116 -0.716944 0
M  V30 3416 N 311.879 -1.3236 -0.855495 0
M  V30 3417 C 313.125 -1.23054 -1.612 0
M  V30 3418 C 313.458 0.207404 -1.93089 0
M  V30 3419 O 312.733 1.14432 -1.57275 0
M  V30 3420 C 313.016 -2.08937 -2.93287 0
M  V30 3421 C 312.869 -3.61105 -2.68185 0
M  V30 3422 C 314.188 -1.94986 -3.94549 0
M  V30 3423 H 311.307 -0.448364 -0.584926 0
M  V30 3424 H 313.949 -1.62297 -0.987917 0
M  V30 3425 H 312.099 -1.75599 -3.46551 0
M  V30 3426 H 313.771 -4.04652 -2.21483 0
M  V30 3427 H 312.014 -3.83813 -2.02164 0
M  V30 3428 H 312.685 -4.16522 -3.62234 0
M  V30 3429 H 315.161 -2.24189 -3.5054 0
M  V30 3430 H 314.037 -2.57356 -4.84829 0
M  V30 3431 H 314.298 -0.917263 -4.3248 0
M  V30 3432 N 313.357 1.07166 -1.15556 0
M  V30 3433 C 314.582 1.84053 -0.955988 0
M  V30 3434 C 315.007 1.81586 0.490739 0
M  V30 3435 O 314.365 1.21018 1.34997 0
M  V30 3436 C 314.413 3.28957 -1.47714 0
M  V30 3437 O 313.517 4.06795 -0.677593 0
M  V30 3438 H 312.858 0.569842 -0.340847 0
M  V30 3439 H 315.388 1.35178 -1.53584 0
M  V30 3440 H 315.398 3.79788 -1.4908 0
M  V30 3441 H 314.073 3.30068 -2.53037 0
M  V30 3442 H 312.65 3.6561 -0.733721 0
M  V30 3443 N 314.835 0.952656 1.25548 0
M  V30 3444 C 315.798 0.475794 2.24207 0
M  V30 3445 C 316.798 -0.419428 1.55234 0
M  V30 3446 O 317.988 -0.216994 1.72843 0
M  V30 3447 C 315.12 -0.312814 3.39462 0
M  V30 3448 H 316.313 1.34779 2.67908 0
M  V30 3449 H 313.866 0.735739 1.37901 0
M  V30 3450 H 314.601 -1.20257 3.01179 0
M  V30 3451 H 314.386 0.329404 3.90714 0
M  V30 3452 H 315.876 -0.635986 4.12729 0
M  V30 3453 N 316.313 -1.40141 0.720998 0
M  V30 3454 C 317.243 -2.33339 0.0867621 0
M  V30 3455 C 318.224 -1.53178 -0.739622 0
M  V30 3456 O 319.409 -1.81625 -0.687449 0
M  V30 3457 C 316.539 -3.37194 -0.831728 0
M  V30 3458 C 315.493 -4.27857 -0.110558 0
M  V30 3459 C 314.819 -5.22294 -1.14513 0
M  V30 3460 C 316.119 -5.11872 1.0385 0
M  V30 3461 H 317.813 -2.86626 0.865219 0
M  V30 3462 H 315.359 -1.37814 0.417516 0
M  V30 3463 H 317.312 -4.01335 -1.28485 0
M  V30 3464 H 316.036 -2.82314 -1.64214 0
M  V30 3465 H 314.695 -3.65176 0.322797 0
M  V30 3466 H 314.343 -4.63717 -1.94874 0
M  V30 3467 H 314.043 -5.83797 -0.667446 0
M  V30 3468 H 315.567 -5.89312 -1.59824 0
M  V30 3469 H 316.981 -5.69436 0.664482 0
M  V30 3470 H 315.378 -5.82445 1.4449 0
M  V30 3471 H 316.448 -4.4753 1.86668 0
M  V30 3472 N 317.792 -0.46758 -1.50504 0
M  V30 3473 C 319.208 -0.121533 -1.59137 0
M  V30 3474 C 319.408 1.3717 -1.47603 0
M  V30 3475 O 318.464 2.14464 -1.33272 0
M  V30 3476 C 319.777 -0.6686 -2.93173 0
M  V30 3477 C 321.325 -0.631716 -3.06559 0
M  V30 3478 C 321.8 -1.15627 -4.43164 0
M  V30 3479 N 323.291 -1.11553 -4.49567 0
M  V30 3480 C 324.026 -1.49195 -5.5365 0
M  V30 3481 N 323.522 -1.94269 -6.65005 0
M  V30 3482 N 325.315 -1.4082 -5.44175 0
M  V30 3483 H 317.466 -1.4388 -1.56245 0
M  V30 3484 H 319.729 -0.594784 -0.738198 0
M  V30 3485 H 319.435 -1.71453 -3.07078 0
M  V30 3486 H 319.309 -0.11021 -3.77039 0
M  V30 3487 H 321.696 0.405297 -2.92304 0
M  V30 3488 H 321.777 -1.22687 -2.24458 0
M  V30 3489 H 321.421 -2.1919 -4.58168 0
M  V30 3490 H 321.351 -0.537365 -5.23851 0
M  V30 3491 H 323.842 -0.784895 -3.69659 0
M  V30 3492 H 324.155 -2.21148 -7.40482 0
M  V30 3493 H 322.5 -1.98219 -6.66134 0
M  V30 3494 H 325.691 -1.0545 -4.56068 0
M  V30 3495 H 325.864 -1.70481 -6.25172 0
M  V30 3496 N 319.27 1.56325 -0.20005 0
M  V30 3497 C 320.498 2.02105 0.442874 0
M  V30 3498 C 320.913 1.08014 1.5485 0
M  V30 3499 O 320.27 0.0858797 1.82298 0
M  V30 3500 C 320.321 3.47549 0.994583 0
M  V30 3501 O 320.042 4.38049 -0.0669322 0
M  V30 3502 C 321.543 4.0887 1.7129 0
M  V30 3503 H 318.763 0.661807 0.110691 0
M  V30 3504 H 321.307 2.02134 -0.310207 0
M  V30 3505 H 319.462 3.48204 1.69803 0
M  V30 3506 H 319.876 5.23368 0.344462 0
M  V30 3507 H 321.35 5.12475 2.05118 0
M  V30 3508 H 321.827 3.52615 2.61838 0
M  V30 3509 H 322.433 4.12002 1.05518 0
M  V30 3510 N 320.748 -0.0735177 1.57428 0
M  V30 3511 C 321.995 -0.772999 1.87166 0
M  V30 3512 C 322.323 -1.77665 0.791551 0
M  V30 3513 O 321.578 -1.94541 -0.212636 0
M  V30 3514 C 321.877 -1.51799 3.23561 0
M  V30 3515 C 321.543 -0.654484 4.46125 0
M  V30 3516 C 320.205 -0.416511 4.79394 0
M  V30 3517 C 322.557 -0.0555862 5.2117 0
M  V30 3518 C 319.885 0.429869 5.85123 0
M  V30 3519 C 322.237 0.778239 6.27795 0
M  V30 3520 C 320.901 1.0261 6.59566 0
M  V30 3521 H 320.171 -0.282861 0.684888 0
M  V30 3522 H 322.818 -0.0338272 1.9147 0
M  V30 3523 H 321.123 -2.32932 3.1504 0
M  V30 3524 H 322.82 -2.06397 3.43804 0
M  V30 3525 H 319.41 -0.850091 4.20085 0
M  V30 3526 H 323.594 -0.226558 4.95783 0
M  V30 3527 H 318.85 0.630665 6.08139 0
M  V30 3528 H 323.024 1.24906 6.85107 0
M  V30 3529 H 320.651 1.68371 7.4132 0
M  V30 3530 N 322.226 -1.5378 -0.344866 0
M  V30 3531 C 323.642 -1.44015 -0.687888 0
M  V30 3532 C 323.842 -0.595834 -1.92489 0
M  V30 3533 O 322.898 -0.0863064 -2.52352 0
M  V30 3534 C 324.211 -2.87481 -0.881758 0
M  V30 3535 C 325.759 -2.97247 -0.980459 0
M  V30 3536 C 326.234 -4.41819 -1.20665 0
M  V30 3537 N 327.725 -4.45339 -1.27389 0
M  V30 3538 C 328.46 -5.54333 -1.46639 0
M  V30 3539 N 327.956 -6.73335 -1.63071 0
M  V30 3540 N 329.749 -5.41944 -1.49176 0
M  V30 3541 H 321.9 -2.07169 0.468475 0
M  V30 3542 H 324.163 -0.93643 0.147655 0
M  V30 3543 H 323.869 -3.51672 -0.0443444 0
M  V30 3544 H 323.743 -3.32352 -1.78388 0
M  V30 3545 H 326.13 -2.33197 -1.8084 0
M  V30 3546 H 326.211 -2.5574 -0.0552713 0
M  V30 3547 H 325.855 -5.06449 -0.383652 0
M  V30 3548 H 325.785 -4.80917 -2.14539 0
M  V30 3549 H 328.276 -3.59585 -1.1622 0
M  V30 3550 H 328.589 -7.52165 -1.77391 0
M  V30 3551 H 326.934 -6.76282 -1.60209 0
M  V30 3552 H 330.125 -4.47932 -1.3592 0
M  V30 3553 H 330.298 -6.26946 -1.63837 0
M  V30 3554 N 323.704 0.605807 -1.45491 0
M  V30 3555 C 324.95 1.36679 -1.49823 0
M  V30 3556 C 325.283 1.93693 -0.140175 0
M  V30 3557 O 324.558 1.75158 0.845581 0
M  V30 3558 C 324.841 2.51337 -2.57879 0
M  V30 3559 C 324.694 1.99508 -4.03134 0
M  V30 3560 C 326.013 3.53463 -2.62205 0
M  V30 3561 H 323.132 0.495617 -0.545466 0
M  V30 3562 H 325.774 0.682732 -1.7731 0
M  V30 3563 H 323.924 3.09691 -2.34571 0
M  V30 3564 H 325.596 1.45789 -4.37656 0
M  V30 3565 H 323.839 1.30496 -4.13707 0
M  V30 3566 H 324.51 2.82169 -4.74431 0
M  V30 3567 H 326.986 3.04953 -2.83095 0
M  V30 3568 H 325.862 4.31178 -3.39672 0
M  V30 3569 H 326.123 4.09197 -1.67363 0
M  V30 3570 N 325.182 1.32811 0.848464 0
M  V30 3571 C 326.112 1.24882 1.97299 0
M  V30 3572 C 327.093 0.131357 1.69592 0
M  V30 3573 O 328.278 0.319553 1.91553 0
M  V30 3574 C 325.408 0.97746 3.33261 0
M  V30 3575 C 324.362 2.05682 3.75338 0
M  V30 3576 C 323.688 1.63777 5.09 0
M  V30 3577 C 324.988 3.47254 3.90144 0
M  V30 3578 H 326.682 2.18966 2.04191 0
M  V30 3579 H 324.228 1.05413 0.981029 0
M  V30 3580 H 326.181 0.908513 4.1149 0
M  V30 3581 H 324.905 0.000980011 3.266 0
M  V30 3582 H 323.564 2.11603 2.99366 0
M  V30 3583 H 323.212 0.648569 4.98801 0
M  V30 3584 H 322.912 2.36 5.38124 0
M  V30 3585 H 324.436 1.5833 5.89715 0
M  V30 3586 H 325.85 3.43888 4.58709 0
M  V30 3587 H 324.247 4.1788 4.30693 0
M  V30 3588 H 325.317 3.86462 2.92874 0
M  V30 3589 N 326.66 -1.06551 1.16123 0
M  V30 3590 C 328.076 -1.3142 0.905585 0
M  V30 3591 C 328.276 -1.96571 -0.442964 0
M  V30 3592 O 327.332 -2.23068 -1.18308 0
M  V30 3593 C 328.645 -2.19741 2.05267 0
M  V30 3594 C 330.193 -2.33165 2.08813 0
M  V30 3595 C 330.668 -3.24838 3.22868 0
M  V30 3596 N 332.159 -3.32421 3.22568 0
M  V30 3597 C 332.894 -4.0344 4.0746 0
M  V30 3598 N 332.39 -4.77003 5.02434 0
M  V30 3599 N 334.183 -3.99464 3.95456 0
M  V30 3600 H 326.334 -0.626548 2.02949 0
M  V30 3601 H 328.597 -0.338777 0.8854 0
M  V30 3602 H 328.303 -1.79142 3.02657 0
M  V30 3603 H 328.177 -3.20313 1.99198 0
M  V30 3604 H 330.564 -2.73013 1.12018 0
M  V30 3605 H 330.645 -1.3227 2.18948 0
M  V30 3606 H 330.289 -2.85708 4.19921 0
M  V30 3607 H 330.219 -4.25707 3.0997 0
M  V30 3608 H 332.71 -2.79994 2.53795 0
M  V30 3609 H 333.023 -5.28712 5.63634 0
M  V30 3610 H 331.368 -4.75992 5.06415 0
M  V30 3611 H 334.559 -3.4111 3.20564 0
M  V30 3612 H 334.732 -4.54544 4.61837 0
M  V30 3613 N 328.138 -0.959301 -1.25041 0
M  V30 3614 C 329.101 -0.487677 -2.23952 0
M  V30 3615 C 330.101 0.41119 -1.55454 0
M  V30 3616 O 331.291 0.207825 -1.72956 0
M  V30 3617 C 328.423 0.294807 -3.39623 0
M  V30 3618 H 329.616 -1.36198 -2.67189 0
M  V30 3619 H 327.169 -0.743042 -1.37508 0
M  V30 3620 H 327.904 1.18658 -3.01813 0
M  V30 3621 H 327.689 -0.35012 -3.90534 0
M  V30 3622 H 329.179 0.614089 -4.1306 0
M  V30 3623 N 329.616 1.39756 -0.72842 0
M  V30 3624 C 330.546 2.33289 -0.0991354 0
M  V30 3625 C 331.527 1.53568 0.731489 0
M  V30 3626 O 332.712 1.81987 0.677807 0
M  V30 3627 C 329.842 3.3763 0.813834 0
M  V30 3628 C 328.796 4.2791 0.0878663 0
M  V30 3629 C 328.122 5.22894 1.11741 0
M  V30 3630 C 329.422 5.11314 -1.06563 0
M  V30 3631 H 331.116 2.86163 -0.880408 0
M  V30 3632 H 328.662 1.37591 -0.424819 0
M  V30 3633 H 330.615 4.0201 1.26355 0
M  V30 3634 H 329.339 2.83181 1.62715 0
M  V30 3635 H 327.998 3.65 -0.342159 0
M  V30 3636 H 327.646 4.64744 1.92412 0
M  V30 3637 H 327.346 5.84143 0.636477 0
M  V30 3638 H 328.87 5.90151 1.56697 0
M  V30 3639 H 330.284 5.69076 -0.694671 0
M  V30 3640 H 328.681 5.81671 -1.47577 0
M  V30 3641 H 329.751 4.46534 -1.89038 0
M  V30 3642 N 331.094 0.475555 1.50254 0
M  V30 3643 C 332.041 -0.316293 2.28622 0
M  V30 3644 C 333.011 -0.983227 1.33873 0
M  V30 3645 O 334.196 -0.994805 1.62814 0
M  V30 3646 C 331.336 -1.38975 3.1588 0
M  V30 3647 C 330.449 -0.737146 4.25664 0
M  V30 3648 C 329.584 -1.78887 5.00173 0
M  V30 3649 C 328.623 -1.11676 6.01826 0
M  V30 3650 N 327.76 -2.11154 6.69596 0
M  V30 3651 H 332.6 0.358297 2.95838 0
M  V30 3652 H 330.137 0.188541 1.45887 0
M  V30 3653 H 332.095 -2.02383 3.64825 0
M  V30 3654 H 330.725 -2.03344 2.50701 0
M  V30 3655 H 329.777 0.0096065 3.80399 0
M  V30 3656 H 331.089 -0.206816 4.98371 0
M  V30 3657 H 330.243 -2.49865 5.52859 0
M  V30 3658 H 328.982 -2.35302 4.27182 0
M  V30 3659 H 327.987 -0.392633 5.48396 0
M  V30 3660 H 329.212 -0.55945 6.76792 0
M  V30 3661 H 327.158 -2.66577 5.99394 0
M  V30 3662 H 327.075 -1.63118 7.38193 0
M  V30 3663 H 328.343 -2.81497 7.26897 0
M  V30 3664 N 332.573 -1.56217 0.208337 0
M  V30 3665 C 333.801 -2.02337 -0.43215 0
M  V30 3666 C 334.216 -1.08834 -1.54275 0
M  V30 3667 O 333.573 -0.0955462 -1.8225 0
M  V30 3668 C 333.624 -3.48072 -0.976138 0
M  V30 3669 O 333.345 -4.38007 0.0901621 0
M  V30 3670 C 334.846 -4.09773 -1.69119 0
M  V30 3671 H 332.066 -0.662385 -0.10718 0
M  V30 3672 H 334.61 -2.01966 0.320923 0
M  V30 3673 H 332.765 -3.49099 -1.67954 0
M  V30 3674 H 333.179 -5.23543 -0.316701 0
M  V30 3675 H 334.653 -5.13556 -2.02397 0
M  V30 3676 H 335.13 -3.53999 -2.59964 0
M  V30 3677 H 335.736 -4.12556 -1.03332 0
M  V30 3678 N 334.051 0.0651679 -1.57465 0
M  V30 3679 C 335.3 0.761916 -1.86756 0
M  V30 3680 C 335.613 1.78406 -0.801925 0
M  V30 3681 O 336.819 2.53084 -0.982885 0
M  V30 3682 C 335.275 1.40603 -3.31299 0
M  V30 3683 C 334.883 0.422115 -4.46007 0
M  V30 3684 C 336.627 2.08476 -3.69781 0
M  V30 3685 C 334.534 1.07252 -5.81593 0
M  V30 3686 H 333.464 0.288308 -0.696702 0
M  V30 3687 H 336.115 0.015344 -1.83494 0
M  V30 3688 H 334.497 2.20109 -3.29193 0
M  V30 3689 H 335.671 -0.343613 -4.59517 0
M  V30 3690 H 333.986 -0.152527 -4.16121 0
M  V30 3691 H 336.583 2.57925 -4.68379 0
M  V30 3692 H 336.926 2.88712 -2.99919 0
M  V30 3693 H 337.459 1.35792 -3.73905 0
M  V30 3694 H 334.198 0.310342 -6.54765 0
M  V30 3695 H 333.718 1.80895 -5.71872 0
M  V30 3696 H 335.397 1.59043 -6.27148 0
M  V30 3697 N 335.529 1.53961 0.336706 0
M  V30 3698 C 336.754 1.75797 1.10046 0
M  V30 3699 C 337.179 0.498985 1.81361 0
M  V30 3700 O 336.537 -0.548769 1.72795 0
M  V30 3701 C 336.585 2.94257 2.08436 0
M  V30 3702 O 335.689 2.64883 3.16087 0
M  V30 3703 H 335.03 0.582936 0.317934 0
M  V30 3704 H 337.56 2.00945 0.38501 0
M  V30 3705 H 337.57 3.21237 2.51537 0
M  V30 3706 H 336.245 3.85564 1.55927 0
M  V30 3707 H 334.822 2.48812 2.77753 0
M  V30 3708 N 337.007 -0.598083 1.45811 0
M  V30 3709 C 338.253 -1.35882 1.50545 0
M  V30 3710 C 338.586 -1.93616 0.150445 0
M  V30 3711 O 337.861 -1.75604 -0.83628 0
M  V30 3712 C 338.144 -2.49966 2.59208 0
M  V30 3713 C 337.997 -1.97367 4.04186 0
M  V30 3714 C 339.316 -3.52068 2.64076 0
M  V30 3715 H 336.435 -0.492717 0.548087 0
M  V30 3716 H 339.077 -0.673319 1.77669 0
M  V30 3717 H 337.227 -3.08443 2.3621 0
M  V30 3718 H 338.899 -1.43466 4.38423 0
M  V30 3719 H 337.142 -1.283 4.14393 0
M  V30 3720 H 337.813 -2.79649 4.75921 0
M  V30 3721 H 340.289 -3.03448 2.84708 0
M  V30 3722 H 339.165 -4.2937 3.41954 0
M  V30 3723 H 339.426 -4.08304 1.69531 0
M  V30 3724 N 338.485 -1.33259 -0.841409 0
M  V30 3725 C 339.734 -1.23921 -1.59143 0
M  V30 3726 C 340.047 0.1941 -1.94635 0
M  V30 3727 O 341.253 0.409474 -2.68394 0
M  V30 3728 C 339.709 -2.17119 -2.87032 0
M  V30 3729 C 339.317 -3.65606 -2.58914 0
M  V30 3730 C 341.061 -2.16648 -3.65053 0
M  V30 3731 C 338.968 -4.50726 -3.82884 0
M  V30 3732 H 337.898 -0.460264 -0.597221 0
M  V30 3733 H 340.549 -1.58307 -0.927959 0
M  V30 3734 H 338.931 -1.75663 -3.54906 0
M  V30 3735 H 340.105 -4.15487 -1.99267 0
M  V30 3736 H 338.42 -3.68341 -1.942 0
M  V30 3737 H 341.017 -2.77474 -4.57069 0
M  V30 3738 H 341.36 -1.16088 -3.99787 0
M  V30 3739 H 341.893 -2.56453 -3.041 0
M  V30 3740 H 338.632 -5.52151 -3.53283 0
M  V30 3741 H 338.152 -4.0559 -4.41879 0
M  V30 3742 H 339.831 -4.64401 -4.50489 0
M  V30 3743 N 339.963 1.05934 -1.16686 0
M  V30 3744 C 341.374 1.60263 -0.957745 0
M  V30 3745 C 341.725 1.89789 0.49745 0
M  V30 3746 O 340.85 1.67401 1.37135 0
M  V30 3747 C 341.445 2.91172 -1.73218 0
M  V30 3748 C 340.004 3.42188 -1.56794 0
M  V30 3749 C 339.151 2.16028 -1.73859 0
M  V30 3750 H 342.102 0.888392 -1.31504 0
M  V30 3751 H 342.123 3.60744 -1.21014 0
M  V30 3752 H 341.635 2.6965 -2.79124 0
M  V30 3753 H 339.736 3.68762 -0.533437 0
M  V30 3754 H 339.849 4.17273 -2.35414 0
M  V30 3755 H 338.213 2.26426 -1.16633 0
M  V30 3756 H 338.996 1.96985 -2.81161 0
M  V30 3757 N 341.441 0.965919 1.2453 0
M  V30 3758 C 342.689 0.625593 1.92174 0
M  V30 3759 C 343.01 -0.841652 1.75901 0
M  V30 3760 O 342.28 -1.60061 1.12948 0
M  V30 3761 H 340.86 0.228388 0.71123 0
M  V30 3762 H 343.522 1.2266 1.51461 0
M  V30 3763 H 342.618 0.864653 2.99884 0
M  V30 3764 N 342.919 -1.39368 0.735821 0
M  V30 3765 C 343.849 -2.33234 0.111506 0
M  V30 3766 C 344.83 -1.53954 -0.723334 0
M  V30 3767 O 346.015 -1.82344 -0.668147 0
M  V30 3768 C 343.145 -3.38057 -0.795917 0
M  V30 3769 C 342.099 -4.2795 -0.065172 0
M  V30 3770 C 341.425 -5.23479 -1.08967 0
M  V30 3771 C 342.725 -5.10741 1.09273 0
M  V30 3772 H 344.419 -2.85692 0.895571 0
M  V30 3773 H 341.965 -1.37364 0.432109 0
M  V30 3774 H 343.918 -4.02675 -1.24221 0
M  V30 3775 H 342.642 -2.8404 -1.61211 0
M  V30 3776 H 341.301 -3.64813 0.361511 0
M  V30 3777 H 340.949 -4.65758 -1.89944 0
M  V30 3778 H 340.649 -5.84472 -0.605489 0
M  V30 3779 H 342.173 -5.90974 -1.53565 0
M  V30 3780 H 343.587 -5.68699 0.724841 0
M  V30 3781 H 341.984 -5.8088 1.50659 0
M  V30 3782 H 343.054 -4.45525 1.91404 0
M  V30 3783 N 344.397 -0.483516 -1.5 0
M  V30 3784 C 345.344 0.304164 -2.28787 0
M  V30 3785 C 346.314 0.976114 -1.34392 0
M  V30 3786 O 347.499 0.986156 -1.63339 0
M  V30 3787 C 344.639 1.37298 -3.16612 0
M  V30 3788 C 343.752 0.714561 -4.26049 0
M  V30 3789 C 342.887 1.76232 -5.01114 0
M  V30 3790 C 341.926 1.08483 -6.0241 0
M  V30 3791 N 341.063 2.076 -6.70706 0
M  V30 3792 H 345.903 -0.373981 -2.95644 0
M  V30 3793 H 343.44 -0.196275 -1.45785 0
M  V30 3794 H 345.398 2.00445 -3.65893 0
M  V30 3795 H 344.028 2.02012 -2.51776 0
M  V30 3796 H 343.08 -0.0297798 -3.80388 0
M  V30 3797 H 344.392 0.180383 -4.98474 0
M  V30 3798 H 343.546 2.46929 -5.54176 0
M  V30 3799 H 342.285 2.33033 -4.28424 0
M  V30 3800 H 341.29 0.363545 -5.48597 0
M  V30 3801 H 342.515 0.523551 -6.77079 0
M  V30 3802 H 340.461 2.63394 -6.00799 0
M  V30 3803 H 340.378 1.59201 -7.39047 0
M  V30 3804 H 341.646 2.77639 -7.2838 0
M  V30 3805 N 345.875 1.56104 -0.216619 0
M  V30 3806 C 347.103 2.02563 0.421413 0
M  V30 3807 C 347.518 1.0965 1.53695 0
M  V30 3808 O 346.875 0.10521 1.82196 0
M  V30 3809 C 346.926 3.48584 0.957665 0
M  V30 3810 O 346.647 4.37953 -0.113389 0
M  V30 3811 C 348.148 4.10664 1.66943 0
M  V30 3812 H 345.368 0.662944 0.103665 0
M  V30 3813 H 347.912 2.01793 -0.331629 0
M  V30 3814 H 346.067 3.49985 1.661 0
M  V30 3815 H 346.481 5.23704 0.288932 0
M  V30 3816 H 347.955 5.14622 1.99671 0
M  V30 3817 H 348.432 3.55373 2.58083 0
M  V30 3818 H 349.038 4.13098 1.01142 0
M  V30 3819 N 347.353 -0.0568162 1.57498 0
M  V30 3820 C 348.602 -0.752001 1.87157 0
M  V30 3821 C 348.915 -1.77978 0.811375 0
M  V30 3822 O 350.121 -2.52559 0.996293 0
M  V30 3823 C 348.577 -1.38844 3.3204 0
M  V30 3824 C 348.185 -0.398456 4.46225 0
M  V30 3825 C 349.929 -2.06512 3.70882 0
M  V30 3826 C 347.836 -1.04166 5.82154 0
M  V30 3827 H 346.766 -0.28461 0.698222 0
M  V30 3828 H 349.417 -0.00561272 1.83499 0
M  V30 3829 H 347.799 -2.1836 3.30356 0
M  V30 3830 H 348.973 0.367977 4.59328 0
M  V30 3831 H 347.288 0.174592 4.16034 0
M  V30 3832 H 349.885 -2.55437 4.6974 0
M  V30 3833 H 350.228 -2.87117 3.01445 0
M  V30 3834 H 350.761 -1.33808 3.7462 0
M  V30 3835 H 347.5 -0.275614 6.5492 0
M  V30 3836 H 347.02 -1.7786 5.72823 0
M  V30 3837 H 348.699 -1.55715 6.27982 0
M  V30 3838 N 348.832 -1.54138 -0.328536 0
M  V30 3839 C 350.078 -1.7236 -1.06865 0
M  V30 3840 C 350.411 -0.493231 -1.87832 0
M  V30 3841 O 349.686 0.5098 -1.877 0
M  V30 3842 C 349.969 -2.99621 -1.99747 0
M  V30 3843 C 349.822 -4.32899 -1.22143 0
M  V30 3844 C 351.141 -3.22615 -2.99345 0
M  V30 3845 H 348.26 -0.627151 -0.387105 0
M  V30 3846 H 350.902 -1.86827 -0.345767 0
M  V30 3847 H 349.052 -2.87418 -2.61387 0
M  V30 3848 H 350.724 -4.56978 -0.630017 0
M  V30 3849 H 348.967 -4.30628 -0.523628 0
M  V30 3850 H 349.638 -5.18154 -1.90318 0
M  V30 3851 H 352.114 -3.34248 -2.47826 0
M  V30 3852 H 350.99 -4.13027 -3.61524 0
M  V30 3853 H 351.251 -2.3961 -3.71536 0
M  V30 3854 N 350.31 0.590341 -1.46126 0
M  V30 3855 C 351.558 1.34616 -1.50742 0
M  V30 3856 C 351.879 1.94363 -0.157486 0
M  V30 3857 O 351.149 1.78136 0.815136 0
M  V30 3858 H 349.729 0.499789 -0.555175 0
M  V30 3859 H 352.391 0.691953 -1.82203 0
M  V30 3860 H 351.487 2.15678 -2.25587 0
M  V30 3861 N 351.788 1.33704 0.83433 0
M  V30 3862 C 352.751 1.24244 1.92603 0
M  V30 3863 C 353.751 0.160383 1.59998 0
M  V30 3864 O 354.941 0.412228 1.69252 0
M  V30 3865 C 352.073 0.91555 3.28376 0
M  V30 3866 H 353.266 2.21287 2.02416 0
M  V30 3867 H 350.819 1.17827 1.02696 0
M  V30 3868 H 351.554 -0.0521886 3.24258 0
M  V30 3869 H 351.339 1.69811 3.53422 0
M  V30 3870 H 352.829 0.874231 4.08347 0
M  V30 3871 N 353.266 -1.05314 1.17247 0
M  V30 3872 C 354.196 -2.1498 0.911362 0
M  V30 3873 C 355.177 -1.69471 -0.146169 0
M  V30 3874 O 356.362 -1.942 0.003812 0
M  V30 3875 C 353.492 -3.4472 0.422528 0
M  V30 3876 C 352.446 -4.03789 1.4191 0
M  V30 3877 C 351.772 -5.28858 0.788274 0
M  V30 3878 C 353.072 -4.41418 2.7919 0
M  V30 3879 H 354.766 -2.3708 1.82848 0
M  V30 3880 H 352.312 -1.13938 0.880569 0
M  V30 3881 H 354.265 -4.20787 0.227289 0
M  V30 3882 H 352.989 -3.22269 -0.530123 0
M  V30 3883 H 351.648 -3.2979 1.60106 0
M  V30 3884 H 351.296 -5.02709 -0.171173 0
M  V30 3885 H 350.996 -5.69338 1.45353 0
M  V30 3886 H 352.52 -6.07612 0.603282 0
M  V30 3887 H 353.934 -5.08524 2.64719 0
M  V30 3888 H 352.331 -4.92913 3.42282 0
M  V30 3889 H 353.401 -3.51819 3.33693 0
M  V30 3890 N 354.744 -0.972509 -1.24016 0
M  V30 3891 C 355.993 -0.632603 -1.91523 0
M  V30 3892 C 356.306 0.836641 -1.76804 0
M  V30 3893 O 357.512 1.28728 -2.39043 0
M  V30 3894 C 355.968 -1.08082 -3.43287 0
M  V30 3895 C 355.576 -2.57386 -3.66683 0
M  V30 3896 C 357.32 -0.814288 -4.16617 0
M  V30 3897 C 355.227 -2.95915 -5.12043 0
M  V30 3898 H 354.157 -0.232898 -0.717129 0
M  V30 3899 H 356.808 -1.17936 -1.40582 0
M  V30 3900 H 355.19 -0.462339 -3.93292 0
M  V30 3901 H 356.364 -3.24405 -3.27258 0
M  V30 3902 H 354.679 -2.81701 -3.06649 0
M  V30 3903 H 357.276 -1.0781 -5.23718 0
M  V30 3904 H 357.619 0.24955 -4.15551 0
M  V30 3905 H 358.152 -1.39397 -3.72577 0
M  V30 3906 H 354.891 -4.0139 -5.18234 0
M  V30 3907 H 354.411 -2.33584 -5.52448 0
M  V30 3908 H 356.09 -2.86086 -5.80314 0
M  V30 3909 N 356.222 1.38976 -0.743202 0
M  V30 3910 C 357.154 2.29096 -0.0689228 0
M  V30 3911 C 358.167 1.47229 0.694791 0
M  V30 3912 O 359.356 1.70212 0.537597 0
M  V30 3913 C 356.456 3.25988 0.926548 0
M  V30 3914 C 355.629 4.36833 0.222647 0
M  V30 3915 C 354.688 5.13981 1.12739 0
M  V30 3916 O 353.714 5.6601 0.601795 0
M  V30 3917 N 354.916 5.25966 2.45641 0
M  V30 3918 H 357.681 2.87604 -0.842846 0
M  V30 3919 H 355.242 1.50645 -0.593109 0
M  V30 3920 H 357.234 3.74476 1.5346 0
M  V30 3921 H 355.804 2.68453 1.60162 0
M  V30 3922 H 355.024 3.90116 -0.565983 0
M  V30 3923 H 356.312 5.0811 -0.264841 0
M  V30 3924 H 355.71 4.85228 2.9081 0
M  V30 3925 H 354.267 5.77865 3.01522 0
M  V30 3926 N 357.7 0.491464 1.49741 0
M  V30 3927 C 358.925 -0.0557177 2.07325 0
M  V30 3928 C 359.35 -1.30925 1.35056 0
M  V30 3929 O 358.708 -1.76733 0.404365 0
M  V30 3930 C 358.756 -0.302074 3.59333 0
M  V30 3931 O 357.86 -1.37868 3.88672 0
M  V30 3932 H 357.201 0.0219956 0.663636 0
M  V30 3933 H 359.731 0.688352 1.92673 0
M  V30 3934 H 359.741 -0.536464 4.04458 0
M  V30 3935 H 358.416 0.61383 4.11345 0
M  V30 3936 H 356.993 -1.12999 3.55367 0
M  V30 3937 N 359.178 -1.55987 0.224894 0
M  V30 3938 C 360.424 -1.98684 -0.406502 0
M  V30 3939 C 360.757 -1.11248 -1.59177 0
M  V30 3940 O 360.032 -0.170909 -1.93748 0
M  V30 3941 C 360.315 -3.50218 -0.837808 0
M  V30 3942 C 360.168 -4.48426 0.351332 0
M  V30 3943 C 361.487 -4.06243 -1.69278 0
M  V30 3944 H 358.606 -0.722337 -0.146283 0
M  V30 3945 H 361.248 -1.87255 0.321799 0
M  V30 3946 H 359.398 -3.60089 -1.45837 0
M  V30 3947 H 361.07 -4.50562 0.989526 0
M  V30 3948 H 359.313 -4.22159 0.998207 0
M  V30 3949 H 359.984 -5.52 0.00655905 0
M  V30 3950 H 362.46 -3.99337 -1.16914 0
M  V30 3951 H 361.336 -5.12581 -1.96346 0
M  V30 3952 H 361.597 -3.53332 -2.65723 0
M  V30 3953 N 360.656 0.0484629 -1.57525 0
M  V30 3954 C 361.603 1.05504 -2.05275 0
M  V30 3955 C 362.573 1.37084 -0.937927 0
M  V30 3956 O 363.758 1.47754 -1.2072 0
M  V30 3957 C 360.898 2.35676 -2.52093 0
M  V30 3958 C 360.011 2.10423 -3.77288 0
M  V30 3959 C 359.146 3.34327 -4.12794 0
M  V30 3960 C 358.185 3.04542 -5.30962 0
M  V30 3961 N 357.322 4.20841 -5.61994 0
M  V30 3962 H 362.162 0.640885 -2.91027 0
M  V30 3963 H 359.699 0.304854 -1.43906 0
M  V30 3964 H 361.657 3.11709 -2.77297 0
M  V30 3965 H 360.287 2.7485 -1.69285 0
M  V30 3966 H 359.339 1.24976 -3.59284 0
M  V30 3967 H 360.651 1.84438 -4.63448 0
M  V30 3968 H 359.805 4.1874 -4.39024 0
M  V30 3969 H 358.544 3.63408 -3.25247 0
M  V30 3970 H 357.549 2.18528 -5.04505 0
M  V30 3971 H 358.774 2.76758 -6.20146 0
M  V30 3972 H 356.72 4.4991 -4.77406 0
M  V30 3973 H 356.637 3.98212 -6.42622 0
M  V30 3974 H 357.905 5.06184 -5.92789 0
M  V30 3975 N 362.134 1.5431 0.320358 0
M  V30 3976 C 363.081 1.83918 1.39438 0
M  V30 3977 C 364.051 0.686525 1.51248 0
M  V30 3978 O 365.236 0.933269 1.66417 0
M  V30 3979 C 362.376 2.075 2.75749 0
M  V30 3980 C 361.489 3.35177 2.72544 0
M  V30 3981 C 360.624 3.48704 4.00723 0
M  V30 3982 C 359.663 4.70244 3.91838 0
M  V30 3983 N 358.8 4.80679 5.11754 0
M  V30 3984 H 363.64 2.75544 1.13489 0
M  V30 3985 H 361.177 1.36459 0.549309 0
M  V30 3986 H 363.135 2.19166 3.54996 0
M  V30 3987 H 361.765 1.19163 3 0
M  V30 3988 H 360.817 3.32233 1.85271 0
M  V30 3989 H 362.129 4.24534 2.61863 0
M  V30 3990 H 361.283 3.59928 4.88402 0
M  V30 3991 H 360.022 2.57445 4.14214 0
M  V30 3992 H 359.027 4.59072 3.02544 0
M  V30 3993 H 360.252 5.6289 3.7991 0
M  V30 3994 H 358.198 3.92337 5.25745 0
M  V30 3995 H 358.115 5.64007 5.0342 0
M  V30 3996 H 359.383 4.96239 6.01138 0
M  V30 3997 N 363.613 -0.582584 1.46437 0
M  V30 3998 C 364.543 -1.70187 1.59871 0
M  V30 3999 C 365.524 -1.64066 0.449042 0
M  V30 4000 O 366.709 -1.82081 0.6753 0
M  V30 4001 C 363.839 -3.08827 1.58881 0
M  V30 4002 C 362.793 -3.29779 2.72819 0
M  V30 4003 C 362.119 -4.68947 2.5689 0
M  V30 4004 C 363.419 -3.17601 4.1464 0
M  V30 4005 H 365.113 -1.592 2.53566 0
M  V30 4006 H 362.659 -0.764472 1.22032 0
M  V30 4007 H 364.612 -3.86951 1.66873 0
M  V30 4008 H 363.336 -3.20713 0.617306 0
M  V30 4009 H 361.995 -2.54054 2.64296 0
M  V30 4010 H 361.643 -4.77599 1.57823 0
M  V30 4011 H 361.343 -4.83919 3.33312 0
M  V30 4012 H 362.867 -5.4924 2.66773 0
M  V30 4013 H 364.281 -3.8557 4.24274 0
M  V30 4014 H 362.678 -3.44094 4.9165 0
M  V30 4015 H 363.748 -2.14681 4.34788 0
M  V30 4016 N 365.091 -1.34144 -0.827227 0
M  V30 4017 C 366.316 -1.29476 -1.62021 0
M  V30 4018 C 366.741 0.129292 -1.87655 0
M  V30 4019 O 366.099 1.08967 -1.449 0
M  V30 4020 C 366.147 -2.08702 -2.94068 0
M  V30 4021 O 365.251 -1.45359 -3.85933 0
M  V30 4022 H 364.592 -0.444881 -0.492927 0
M  V30 4023 H 367.122 -1.76882 -1.02829 0
M  V30 4024 H 367.132 -2.19898 -3.43669 0
M  V30 4025 H 365.807 -3.12241 -2.74734 0
M  V30 4026 H 364.384 -1.42879 -3.44442 0
M  V30 4027 N 366.569 1.04691 -1.17803 0
M  V30 4028 C 367.846 1.7472 -0.879328 0
M  V30 4029 C 368.226 2.01812 0.619271 0
M  V30 4030 O 367.574 1.65824 1.57209 0
M  V30 4031 C 367.784 3.03686 -1.71976 0
M  V30 4032 C 369.132 3.77542 -1.94286 0
M  V30 4033 O 370.156 3.13569 -1.68976 0
M  V30 4034 O 369.015 4.92506 -2.36855 0
M  V30 4035 H 366.109 0.760011 -0.326056 0
M  V30 4036 H 368.655 1.10813 -1.28525 0
M  V30 4037 H 367.427 2.79754 -2.73594 0
M  V30 4038 H 367.05 3.75332 -1.31194 0
M  V30 4039 N 368.047 0.979072 1.23499 0
M  V30 4040 C 369.293 0.648178 1.92163 0
M  V30 4041 C 369.626 -0.816049 1.76222 0
M  V30 4042 O 368.901 -1.58849 1.12237 0
M  V30 4043 C 369.184 1.03773 3.44824 0
M  V30 4044 C 369.037 2.55948 3.69879 0
M  V30 4045 C 370.356 0.580653 4.36253 0
M  V30 4046 H 367.475 0.236952 0.69787 0
M  V30 4047 H 370.117 1.22012 1.45647 0
M  V30 4048 H 368.267 0.551058 3.84572 0
M  V30 4049 H 369.939 3.12179 3.3962 0
M  V30 4050 H 368.182 2.98641 3.14636 0
M  V30 4051 H 368.853 2.78255 4.76737 0
M  V30 4052 H 371.329 0.998465 4.03943 0
M  V30 4053 H 370.205 0.881663 5.41773 0
M  V30 4054 H 370.466 -0.519052 4.39042 0
M  V30 4055 N 369.525 -1.3858 0.750561 0
M  V30 4056 C 370.458 -2.28095 0.0693139 0
M  V30 4057 C 371.436 -1.45217 -0.731491 0
M  V30 4058 O 372.62 -1.74587 -0.71076 0
M  V30 4059 C 369.747 -3.26282 -0.90871 0
M  V30 4060 C 368.793 -4.26056 -0.194507 0
M  V30 4061 S 369.626 -5.24026 1.10257 0
M  V30 4062 C 370.782 -6.2577 0.127542 0
M  V30 4063 H 371.015 -2.85526 0.8284 0
M  V30 4064 H 368.548 -1.44536 0.543014 0
M  V30 4065 H 370.506 -3.83367 -1.46766 0
M  V30 4066 H 369.167 -2.6784 -1.64075 0
M  V30 4067 H 368.36 -4.95249 -0.93512 0
M  V30 4068 H 367.962 -3.72852 0.292837 0
M  V30 4069 H 370.254 -6.73796 -0.707516 0
M  V30 4070 H 371.197 -7.03712 0.787044 0
M  V30 4071 H 371.605 -5.63938 -0.251803 0
M  V30 4072 N 371.003 -0.499398 -1.49478 0
M  V30 4073 C 372.252 0.0475259 -2.01644 0
M  V30 4074 C 372.565 1.38195 -1.38425 0
M  V30 4075 O 373.771 2.01547 -1.8191 0
M  V30 4076 C 372.227 0.135164 -3.59646 0
M  V30 4077 C 371.835 -1.19252 -4.31837 0
M  V30 4078 C 373.579 0.632538 -4.19761 0
M  V30 4079 C 371.486 -1.06713 -5.81693 0
M  V30 4080 H 370.416 0.0215349 -0.753692 0
M  V30 4081 H 373.067 -0.638577 -1.7203 0
M  V30 4082 H 371.449 0.885681 -3.85969 0
M  V30 4083 H 372.623 -1.9562 -4.17216 0
M  V30 4084 H 370.938 -1.62321 -3.83459 0
M  V30 4085 H 373.535 0.743833 -5.29501 0
M  V30 4086 H 373.878 1.63098 -3.83021 0
M  V30 4087 H 374.411 -0.0613987 -3.97753 0
M  V30 4088 H 371.15 -2.03979 -6.22955 0
M  V30 4089 H 370.67 -0.344307 -5.98811 0
M  V30 4090 H 372.349 -0.745208 -6.42694 0
M  V30 4091 N 372.481 1.55866 -0.233164 0
M  V30 4092 C 373.411 2.23783 0.666599 0
M  V30 4093 C 374.392 1.21343 1.19205 0
M  V30 4094 O 375.577 1.4996 1.23392 0
M  V30 4095 C 372.707 2.92671 1.86978 0
M  V30 4096 C 371.661 4.01682 1.47768 0
M  V30 4097 C 370.987 4.57926 2.76058 0
M  V30 4098 C 372.287 5.18126 0.658993 0
M  V30 4099 H 373.981 2.99232 0.100306 0
M  V30 4100 H 371.527 1.43924 0.046804 0
M  V30 4101 H 373.48 3.3888 2.50476 0
M  V30 4102 H 372.204 2.14688 2.46123 0
M  V30 4103 H 370.863 3.56222 0.866106 0
M  V30 4104 H 370.511 3.76659 3.33372 0
M  V30 4105 H 370.211 5.31505 2.50552 0
M  V30 4106 H 371.735 5.06859 3.40479 0
M  V30 4107 H 373.149 5.60644 1.19795 0
M  V30 4108 H 371.546 5.98009 0.500552 0
M  V30 4109 H 372.616 4.83763 -0.331856 0
M  V30 4110 N 373.959 -0.0401083 1.57549 0
M  V30 4111 C 375.187 -0.745196 1.93014 0
M  V30 4112 C 375.602 -1.6948 0.831984 0
M  V30 4113 O 374.959 -1.81482 -0.192463 0
M  V30 4114 C 375.01 -1.51176 3.28372 0
M  V30 4115 O 374.731 -0.600284 4.33968 0
M  V30 4116 C 376.232 -2.315 3.78051 0
M  V30 4117 H 373.452 -0.210088 0.637263 0
M  V30 4118 H 375.996 -0.000924689 2.045 0
M  V30 4119 H 374.151 -2.20801 3.18317 0
M  V30 4120 H 374.565 -1.13669 5.12035 0
M  V30 4121 H 376.039 -2.80697 4.75303 0
M  V30 4122 H 376.516 -3.12436 3.08675 0
M  V30 4123 H 377.122 -1.66971 3.91153 0
M  V30 4124 N 375.437 -1.54477 -0.31217 0
M  V30 4125 C 376.683 -1.73483 -1.0503 0
M  V30 4126 C 377.016 -0.513125 -1.87298 0
M  V30 4127 O 376.291 0.489864 -1.8823 0
M  V30 4128 C 376.574 -3.01723 -1.96558 0
M  V30 4129 C 376.427 -4.3417 -1.17545 0
M  V30 4130 C 377.746 -3.25772 -2.95907 0
M  V30 4131 H 374.865 -0.631222 -0.380432 0
M  V30 4132 H 377.507 -1.87184 -0.325932 0
M  V30 4133 H 375.657 -2.90174 -2.58324 0
M  V30 4134 H 377.329 -4.5762 -0.581513 0
M  V30 4135 H 375.572 -4.31159 -0.477925 0
M  V30 4136 H 376.243 -5.20143 -1.84811 0
M  V30 4137 H 378.719 -3.36857 -2.44267 0
M  V30 4138 H 377.595 -4.16838 -3.57123 0
M  V30 4139 H 377.856 -2.43537 -3.68974 0
M  V30 4140 N 376.915 0.57481 -1.46744 0
M  V30 4141 C 378.162 1.33272 -1.52462 0
M  V30 4142 C 378.49 1.93669 -0.179572 0
M  V30 4143 O 377.745 1.7743 0.825664 0
M  V30 4144 C 378.044 2.476 -2.57738 0
M  V30 4145 C 377.71 2.05146 -4.01529 0
M  V30 4146 C 376.372 1.93284 -4.40676 0
M  V30 4147 C 378.724 1.72506 -4.91824 0
M  V30 4148 C 376.052 1.47049 -5.67973 0
M  V30 4149 C 378.404 1.27748 -6.19567 0
M  V30 4150 C 377.068 1.14468 -6.57612 0
M  V30 4151 H 376.338 0.487678 -0.557899 0
M  V30 4152 H 378.985 0.646456 -1.80259 0
M  V30 4153 H 377.29 3.21708 -2.23632 0
M  V30 4154 H 378.987 3.05807 -2.5939 0
M  V30 4155 H 375.577 2.15316 -3.7059 0
M  V30 4156 H 379.761 1.80552 -4.62293 0
M  V30 4157 H 375.017 1.35417 -5.96215 0
M  V30 4158 H 379.191 1.01547 -6.88957 0
M  V30 4159 H 376.818 0.78419 -7.56145 0
M  V30 4160 N 378.394 1.34581 0.820102 0
M  V30 4161 C 379.634 1.28448 1.58998 0
M  V30 4162 C 379.998 -0.142883 1.91468 0
M  V30 4163 O 381.199 -0.328422 2.66786 0
M  V30 4164 C 379.47 2.153 2.85273 0
M  V30 4165 S 381.029 2.26548 3.75794 0
M  V30 4166 H 377.847 0.456685 0.54494 0
M  V30 4167 H 380.449 1.69825 0.968487 0
M  V30 4168 H 379.153 3.18008 2.59421 0
M  V30 4169 H 378.684 1.7483 3.52417 0
M  V30 4170 H 380.699 1.44034 4.74835 0
M  V30 4171 N 379.872 -1.04064 1.18357 0
M  V30 4172 C 380.802 -2.14001 0.934113 0
M  V30 4173 C 381.783 -1.69616 -0.128186 0
M  V30 4174 O 382.968 -1.94185 0.0244093 0
M  V30 4175 C 380.098 -3.44253 0.459066 0
M  V30 4176 C 379.052 -4.02261 1.46185 0
M  V30 4177 C 378.378 -5.27992 0.844322 0
M  V30 4178 C 379.678 -4.38432 2.83856 0
M  V30 4179 H 381.372 -2.35127 1.85352 0
M  V30 4180 H 378.918 -1.12998 0.892604 0
M  V30 4181 H 380.871 -4.20522 0.271907 0
M  V30 4182 H 379.595 -3.22813 -0.495912 0
M  V30 4183 H 378.254 -3.28074 1.63595 0
M  V30 4184 H 377.902 -5.02862 -0.117845 0
M  V30 4185 H 377.602 -5.67765 1.51384 0
M  V30 4186 H 379.126 -6.06938 0.667693 0
M  V30 4187 H 380.54 -5.05688 2.70098 0
M  V30 4188 H 378.937 -4.89254 3.47491 0
M  V30 4189 H 380.007 -3.4826 3.37406 0
M  V30 4190 N 381.35 -0.985608 -1.22978 0
M  V30 4191 C 382.575 -0.675254 -1.961 0
M  V30 4192 C 383 0.752154 -1.72407 0
M  V30 4193 O 382.358 1.5131 -0.998751 0
M  V30 4194 C 382.406 -0.977899 -3.47087 0
M  V30 4195 O 381.51 -0.072685 -4.12336 0
M  V30 4196 H 380.851 -0.253443 -0.613728 0
M  V30 4197 H 383.381 -1.32061 -1.56272 0
M  V30 4198 H 383.391 -0.916739 -3.97567 0
M  V30 4199 H 382.066 -2.01807 -3.63657 0
M  V30 4200 H 380.643 -0.188703 -3.72422 0
M  V30 4201 N 382.828 1.3818 -0.7579 0
M  V30 4202 C 384.074 2.00316 -0.316453 0
M  V30 4203 C 384.407 1.60026 1.10025 0
M  V30 4204 O 383.682 0.839835 1.75434 0
M  V30 4205 C 383.965 3.57349 -0.444245 0
M  V30 4206 C 383.818 4.07591 -1.90236 0
M  V30 4207 C 385.137 4.3981 0.1598 0
M  V30 4208 H 382.256 0.727741 -0.116459 0
M  V30 4209 H 384.898 1.6406 -0.958352 0
M  V30 4210 H 383.048 3.88365 0.102233 0
M  V30 4211 H 384.72 3.87199 -2.50748 0
M  V30 4212 H 382.963 3.60297 -2.41595 0
M  V30 4213 H 383.634 5.16677 -1.94291 0
M  V30 4214 H 386.11 4.14971 -0.306314 0
M  V30 4215 H 384.986 5.48885 0.0401675 0
M  V30 4216 H 385.247 4.24102 1.24859 0
M  V30 4217 N 384.306 0.507319 1.49211 0
M  V30 4218 C 385.553 -0.0349529 2.0247 0
M  V30 4219 C 385.881 -1.36409 1.38647 0
M  V30 4220 O 385.136 -1.88841 0.513566 0
M  V30 4221 C 385.435 -0.229513 3.56662 0
M  V30 4222 C 385.101 1.02241 4.39156 0
M  V30 4223 C 383.763 1.36557 4.61417 0
M  V30 4224 C 386.115 1.85428 4.871 0
M  V30 4225 C 383.443 2.53999 5.28868 0
M  V30 4226 C 385.795 3.02028 5.55843 0
M  V30 4227 C 384.459 3.36717 5.76349 0
M  V30 4228 H 383.729 -0.0127902 0.74089 0
M  V30 4229 H 386.376 0.668756 1.79443 0
M  V30 4230 H 384.681 -1.0158 3.78403 0
M  V30 4231 H 386.378 -0.663641 3.9547 0
M  V30 4232 H 382.968 0.745124 4.22073 0
M  V30 4233 H 387.152 1.6023 4.69723 0
M  V30 4234 H 382.408 2.81105 5.42946 0
M  V30 4235 H 386.582 3.66808 5.91967 0
M  V30 4236 H 384.209 4.27821 6.28389 0
M  V30 4237 N 385.784 -1.5574 0.241426 0
M  V30 4238 C 386.747 -2.19877 -0.647063 0
M  V30 4239 C 387.747 -1.16642 -1.10686 0
M  V30 4240 O 388.937 -1.41757 -1.01245 0
M  V30 4241 C 386.069 -2.83797 -1.88871 0
M  V30 4242 H 387.262 -2.99772 -0.087574 0
M  V30 4243 H 384.815 -1.56298 -0.00813574 0
M  V30 4244 H 385.55 -2.07824 -2.48957 0
M  V30 4245 H 385.335 -3.59414 -1.56728 0
M  V30 4246 H 386.825 -3.32898 -2.52129 0
M  V30 4247 N 387.262 0.0317525 -1.57568 0
M  V30 4248 C 388.192 1.03274 -2.0942 0
M  V30 4249 C 389.173 1.3788 -0.996143 0
M  V30 4250 O 390.358 1.46811 -1.27122 0
M  V30 4251 C 387.488 2.33448 -2.57137 0
M  V30 4252 C 386.442 2.13091 -3.71182 0
M  V30 4253 C 385.768 3.49001 -4.05095 0
M  V30 4254 C 387.068 1.51928 -4.99715 0
M  V30 4255 H 388.762 0.60112 -2.93303 0
M  V30 4256 H 386.308 0.287705 -1.41097 0
M  V30 4257 H 388.261 3.03802 -2.92032 0
M  V30 4258 H 386.985 2.78665 -1.70333 0
M  V30 4259 H 385.644 1.45171 -3.36632 0
M  V30 4260 H 385.292 3.91862 -3.15362 0
M  V30 4261 H 384.992 3.36207 -4.81911 0
M  V30 4262 H 386.516 4.20721 -4.42522 0
M  V30 4263 H 387.93 2.12196 -5.32584 0
M  V30 4264 H 386.327 1.49716 -5.81124 0
M  V30 4265 H 387.397 0.484811 -4.8247 0
M  V30 4266 N 388.74 1.54641 0.303973 0
M  V30 4267 C 389.989 1.7299 1.03717 0
M  V30 4268 C 390.302 0.521168 1.88529 0
M  V30 4269 O 391.508 0.586408 2.65092 0
M  V30 4270 C 389.964 3.06051 1.89369 0
M  V30 4271 C 389.572 4.34393 1.09574 0
M  V30 4272 C 391.316 3.3376 2.62306 0
M  V30 4273 C 389.223 5.58506 1.94486 0
M  V30 4274 H 388.153 0.64473 0.390947 0
M  V30 4275 H 390.804 1.81124 0.294328 0
M  V30 4276 H 389.186 2.91874 2.67629 0
M  V30 4277 H 390.36 4.59396 0.359485 0
M  V30 4278 H 388.675 4.13597 0.482324 0
M  V30 4279 H 391.272 4.23687 3.26181 0
M  V30 4280 H 391.615 2.52503 3.3098 0
M  V30 4281 H 392.148 3.48894 1.91097 0
M  V30 4282 H 388.887 6.42422 1.30287 0
M  V30 4283 H 388.407 5.37694 2.65792 0
M  V30 4284 H 390.086 5.95651 2.52605 0
M  V30 4285 N 390.218 -0.567019 1.47046 0
M  V30 4286 C 391.466 -1.322 1.52864 0
M  V30 4287 C 391.787 -1.94088 0.188388 0
M  V30 4288 O 391.057 -1.7941 -0.786693 0
M  V30 4289 H 389.637 -0.490894 0.563056 0
M  V30 4290 H 392.299 -0.662879 1.83281 0
M  V30 4291 H 391.395 -2.12062 2.2899 0
M  V30 4292 N 391.696 -1.35014 -0.812953 0
M  V30 4293 C 392.626 -1.30069 -1.93919 0
M  V30 4294 C 393.607 -0.176275 -1.69184 0
M  V30 4295 O 394.792 -0.370227 -1.90638 0
M  V30 4296 C 391.922 -1.06547 -3.30552 0
M  V30 4297 C 390.876 -2.15561 -3.69753 0
M  V30 4298 C 390.202 -1.77214 -5.04479 0
M  V30 4299 C 391.502 -3.57476 -3.808 0
M  V30 4300 H 393.196 -2.24303 -1.98314 0
M  V30 4301 H 390.742 -1.07977 -0.952736 0
M  V30 4302 H 392.695 -1.01729 -4.08937 0
M  V30 4303 H 391.419 -0.0875719 -3.26483 0
M  V30 4304 H 390.078 -2.19466 -2.9365 0
M  V30 4305 H 389.726 -0.780589 -4.96906 0
M  V30 4306 H 389.426 -2.50184 -5.31678 0
M  V30 4307 H 390.95 -1.7391 -5.8531 0
M  V30 4308 H 392.364 -3.55929 -4.4943 0
M  V30 4309 H 390.761 -4.29152 -4.19462 0
M  V30 4310 H 391.831 -3.94091 -2.82525 0
M  V30 4311 N 393.175 1.03435 -1.18907 0
M  V30 4312 C 394.107 2.1165 -0.879595 0
M  V30 4313 C 395.12 1.62316 0.125439 0
M  V30 4314 O 396.309 1.78201 -0.103245 0
M  V30 4315 C 393.409 3.37622 -0.294042 0
M  V30 4316 C 392.582 4.16166 -1.34629 0
M  V30 4317 C 391.641 5.20457 -0.775274 0
M  V30 4318 O 390.667 5.50379 -1.4516 0
M  V30 4319 N 391.869 5.78949 0.424126 0
M  V30 4320 H 394.634 2.38791 -1.81105 0
M  V30 4321 H 392.195 1.19681 -1.09032 0
M  V30 4322 H 394.187 4.04572 0.101679 0
M  V30 4323 H 392.757 3.07873 0.541575 0
M  V30 4324 H 391.977 3.44444 -1.91707 0
M  V30 4325 H 393.265 4.65432 -2.05549 0
M  V30 4326 H 392.663 5.56948 0.991209 0
M  V30 4327 H 391.22 6.47334 0.761691 0
M  V30 4328 N 394.653 0.992116 1.22453 0
M  V30 4329 C 395.583 0.561677 2.26644 0
M  V30 4330 C 396.564 -0.411055 1.65059 0
M  V30 4331 O 397.749 -0.301861 1.9184 0
M  V30 4332 C 394.879 -0.125247 3.47074 0
M  V30 4333 C 393.833 0.765948 4.21091 0
M  V30 4334 C 393.159 -0.0538484 5.34673 0
M  V30 4335 C 394.459 2.06242 4.79856 0
M  V30 4336 H 396.153 1.43259 2.62902 0
M  V30 4337 H 393.699 0.690283 1.26377 0
M  V30 4338 H 395.652 -0.437764 4.1912 0
M  V30 4339 H 394.376 -1.03069 3.0991 0
M  V30 4340 H 393.035 1.0621 3.50878 0
M  V30 4341 H 392.683 -0.960188 4.9375 0
M  V30 4342 H 392.383 0.539415 5.85119 0
M  V30 4343 H 393.907 -0.360477 6.09535 0
M  V30 4344 H 395.321 1.8139 5.43848 0
M  V30 4345 H 393.718 2.60444 5.40638 0
M  V30 4346 H 394.788 2.74167 3.99951 0
M  V30 4347 N 396.131 -1.37776 0.765217 0
M  V30 4348 C 397.378 -1.99849 0.326588 0
M  V30 4349 C 397.706 -1.60746 -1.09504 0
M  V30 4350 O 396.961 -0.84202 -1.76659 0
M  V30 4351 C 397.26 -3.5504 0.410053 0
M  V30 4352 C 396.926 -4.13891 1.78899 0
M  V30 4353 C 395.588 -4.29678 2.16635 0
M  V30 4354 C 397.94 -4.46236 2.69301 0
M  V30 4355 C 395.268 -4.7511 3.44221 0
M  V30 4356 C 397.62 -4.93089 3.9629 0
M  V30 4357 C 396.284 -5.07082 4.34078 0
M  V30 4358 H 395.554 -0.7313 0.119507 0
M  V30 4359 H 398.201 -1.64645 0.977968 0
M  V30 4360 H 396.506 -3.90451 -0.324878 0
M  V30 4361 H 398.203 -4.00966 0.0520699 0
M  V30 4362 H 394.793 -4.02026 1.48569 0
M  V30 4363 H 398.977 -4.3363 2.41409 0
M  V30 4364 H 394.233 -4.84129 3.73402 0
M  V30 4365 H 398.407 -5.17084 4.66472 0
M  V30 4366 H 396.034 -5.42046 5.33001 0
M  V30 4367 N 397.609 -0.515225 -1.4894 0
M  V30 4368 C 398.542 0.302518 -2.26186 0
M  V30 4369 C 399.52 0.957895 -1.31389 0
M  V30 4370 O 400.704 0.985198 -1.60705 0
M  V30 4371 C 397.831 1.42719 -3.07163 0
M  V30 4372 C 396.877 0.884736 -4.17223 0
M  V30 4373 S 397.71 -0.235767 -5.34981 0
M  V30 4374 C 398.866 0.891731 -6.19515 0
M  V30 4375 H 399.099 -0.353076 -2.95196 0
M  V30 4376 H 396.632 -0.300753 -1.51443 0
M  V30 4377 H 398.59 2.07152 -3.54398 0
M  V30 4378 H 397.251 2.05445 -2.37595 0
M  V30 4379 H 396.444 1.72801 -4.73451 0
M  V30 4380 H 396.046 0.317362 -3.72651 0
M  V30 4381 H 398.338 1.79377 -6.53322 0
M  V30 4382 H 399.281 0.367751 -7.07144 0
M  V30 4383 H 399.689 1.16548 -5.52338 0
M  V30 4384 N 399.087 1.5561 -0.249682 0
M  V30 4385 C 400.335 1.98618 0.373548 0
M  V30 4386 C 400.656 1.13919 1.58264 0
M  V30 4387 O 399.926 0.222637 1.94631 0
M  V30 4388 H 398.506 0.733571 0.141006 0
M  V30 4389 H 401.168 1.91748 -0.349117 0
M  V30 4390 H 400.264 3.04584 0.680796 0
M  V30 4391 N 400.565 -0.0233959 1.57583 0
M  V30 4392 C 401.513 -1.04063 2.08023 0
M  V30 4393 C 402.507 -1.37084 0.995204 0
M  V30 4394 O 403.713 -1.35923 1.18004 0
M  V30 4395 H 400.088 -0.353144 0.663922 0
M  V30 4396 H 402.059 -0.589453 2.9252 0
M  V30 4397 C 400.808 -2.33123 2.57971 0
M  V30 4398 H 400.131 -2.08577 3.4108 0
M  V30 4399 H 401.571 -3.02632 2.96967 0
M  V30 4400 C 400.03 -3.02483 1.48342 0
M  V30 4401 O 400.56 -3.92541 0.852898 0
M  V30 4402 N 398.766 -2.63909 1.21658 0
M  V30 4403 H 398.313 -1.90758 1.73116 0
M  V30 4404 H 398.271 -3.10633 0.485218 0
M  V30 4405 N 402.043 -1.548 -0.295768 0
M  V30 4406 C 402.973 -1.89115 -1.36959 0
M  V30 4407 C 403.954 -0.75059 -1.52644 0
M  V30 4408 O 405.139 -1.00678 -1.66065 0
M  V30 4409 C 402.269 -2.14307 -2.73295 0
M  V30 4410 C 401.223 -3.30151 -2.72368 0
M  V30 4411 C 400.549 -3.40772 -4.12042 0
M  V30 4412 C 401.849 -4.67126 -2.33646 0
M  V30 4413 H 403.543 -2.79053 -1.08488 0
M  V30 4414 H 401.089 -1.34266 -0.520443 0
M  V30 4415 H 403.042 -2.36898 -3.48507 0
M  V30 4416 H 401.766 -1.21145 -3.03301 0
M  V30 4417 H 400.425 -3.0749 -1.99613 0
M  V30 4418 H 400.073 -2.45117 -4.39234 0
M  V30 4419 H 399.773 -4.18645 -4.12322 0
M  V30 4420 H 401.297 -3.6563 -4.89027 0
M  V30 4421 H 402.711 -4.89414 -2.98575 0
M  V30 4422 H 401.108 -5.47751 -2.45129 0
M  V30 4423 H 402.178 -4.67489 -1.28772 0
M  V30 4424 N 403.521 0.559213 -1.47345 0
M  V30 4425 C 404.937 0.884943 -1.32819 0
M  V30 4426 C 405.137 1.98988 -0.317173 0
M  V30 4427 O 404.193 2.51031 0.272011 0
M  V30 4428 C 405.506 1.28007 -2.72093 0
M  V30 4429 C 407.054 1.39161 -2.80363 0
M  V30 4430 C 407.529 1.82031 -4.20272 0
M  V30 4431 N 409.02 1.89185 -4.22804 0
M  V30 4432 C 409.755 2.2368 -5.27973 0
M  V30 4433 N 409.251 2.56802 -6.43447 0
M  V30 4434 N 411.044 2.24436 -5.15349 0
M  V30 4435 H 403.195 -0.170304 -2.11716 0
M  V30 4436 H 405.458 -0.0135247 -0.947904 0
M  V30 4437 H 405.164 0.542027 -3.47498 0
M  V30 4438 H 405.038 2.23665 -3.03733 0
M  V30 4439 H 407.425 2.12048 -2.05231 0
M  V30 4440 H 407.506 0.41696 -2.52379 0
M  V30 4441 H 407.15 1.09715 -4.95908 0
M  V30 4442 H 407.08 2.80495 -4.45679 0
M  V30 4443 H 409.571 1.65982 -3.39497 0
M  V30 4444 H 409.884 2.82144 -7.19454 0
M  V30 4445 H 408.229 2.54387 -6.46771 0
M  V30 4446 H 411.42 1.97998 -4.24163 0
M  V30 4447 H 411.593 2.50989 -5.97418 0
M  V30 4448 N 404.999 1.35443 0.805782 0
M  V30 4449 C 405.947 1.28465 1.93906 0
M  V30 4450 C 406.941 0.17943 1.68447 0
M  V30 4451 O 408.147 0.345459 1.76654 0
M  V30 4452 H 404.522 0.399528 0.637088 0
M  V30 4453 H 406.493 2.24206 1.96912 0
M  V30 4454 C 405.242 1.07432 3.30687 0
M  V30 4455 H 404.565 1.91716 3.50835 0
M  V30 4456 H 406.005 1.06591 4.10383 0
M  V30 4457 C 404.464 -0.22179 3.36169 0
M  V30 4458 O 404.994 -1.21731 3.82811 0
M  V30 4459 N 403.2 -0.260841 2.89427 0
M  V30 4460 H 402.747 0.549884 2.51663 0
M  V30 4461 H 402.705 -1.12777 2.93477 0
M  V30 4462 N 406.477 -1.02803 1.19454 0
M  V30 4463 C 407.424 -2.11099 0.933046 0
M  V30 4464 C 408.394 -1.65571 -0.132447 0
M  V30 4465 O 409.579 -1.90797 0.00987576 0
M  V30 4466 C 406.719 -3.41763 0.478747 0
M  V30 4467 C 405.832 -4.00833 1.6111 0
M  V30 4468 C 404.967 -5.19511 1.10825 0
M  V30 4469 C 404.006 -5.70639 2.21445 0
M  V30 4470 N 403.143 -6.80589 1.72461 0
M  V30 4471 H 407.983 -2.32804 1.86028 0
M  V30 4472 H 405.52 -1.14179 0.927441 0
M  V30 4473 H 407.478 -4.16736 0.196745 0
M  V30 4474 H 406.108 -3.20166 -0.411493 0
M  V30 4475 H 405.16 -3.23066 2.00829 0
M  V30 4476 H 406.472 -4.34794 2.4445 0
M  V30 4477 H 405.626 -6.01645 0.781533 0
M  V30 4478 H 404.365 -4.87086 0.244606 0
M  V30 4479 H 403.37 -4.87116 2.54947 0
M  V30 4480 H 404.595 -6.05102 3.08267 0
M  V30 4481 H 402.541 -6.50016 0.884056 0
M  V30 4482 H 402.458 -7.13681 2.49389 0
M  V30 4483 H 403.726 -7.66317 1.42755 0
M  V30 4484 N 407.956 -0.998596 -1.21925 0
M  V30 4485 C 409.196 -0.685948 -1.92546 0
M  V30 4486 C 409.56 0.768441 -1.75952 0
M  V30 4487 O 410.761 1.19277 -2.40887 0
M  V30 4488 C 409.032 -1.08767 -3.40448 0
M  V30 4489 S 410.591 -0.894251 -4.29591 0
M  V30 4490 H 407.409 -0.250622 -0.665364 0
M  V30 4491 H 410.011 -1.28207 -1.47591 0
M  V30 4492 H 408.715 -2.14242 -3.50041 0
M  V30 4493 H 408.246 -0.48357 -3.90417 0
M  V30 4494 H 410.261 0.212149 -4.95746 0
M  V30 4495 N 409.434 1.37368 -0.772513 0
M  V30 4496 C 410.364 2.32856 -0.173304 0
M  V30 4497 C 411.345 1.55818 0.682262 0
M  V30 4498 O 412.53 1.84052 0.619566 0
M  V30 4499 C 409.66 3.40048 0.706007 0
M  V30 4500 C 408.614 4.27973 -0.0483144 0
M  V30 4501 C 407.94 5.26184 0.950491 0
M  V30 4502 C 409.24 5.07665 -1.22776 0
M  V30 4503 H 410.934 2.83217 -0.971002 0
M  V30 4504 H 408.48 1.3617 -0.468377 0
M  V30 4505 H 410.433 4.05827 1.13501 0
M  V30 4506 H 409.157 2.88214 1.53623 0
M  V30 4507 H 407.816 3.63726 -0.458107 0
M  V30 4508 H 407.464 4.7063 1.77529 0
M  V30 4509 H 407.164 5.85872 0.450314 0
M  V30 4510 H 408.688 5.94838 1.37842 0
M  V30 4511 H 410.102 5.66578 -0.875366 0
M  V30 4512 H 408.499 5.76681 -1.66007 0
M  V30 4513 H 409.569 4.40294 -2.03149 0
M  V30 4514 N 410.912 0.523116 1.48665 0
M  V30 4515 C 411.844 -0.280421 2.27478 0
M  V30 4516 C 412.857 -0.910694 1.34945 0
M  V30 4517 O 414.046 -0.790295 1.60052 0
M  V30 4518 C 411.146 -1.41171 3.08097 0
M  V30 4519 C 410.319 -0.884642 4.28361 0
M  V30 4520 C 409.378 -1.89622 4.90846 0
M  V30 4521 O 408.404 -1.4559 5.50265 0
M  V30 4522 N 409.606 -3.22801 4.82472 0
M  V30 4523 H 412.371 0.395481 2.97079 0
M  V30 4524 H 409.932 0.357018 1.57915 0
M  V30 4525 H 411.924 -2.08645 3.4677 0
M  V30 4526 H 410.494 -1.99139 2.40961 0
M  V30 4527 H 409.714 -0.0341177 3.94185 0
M  V30 4528 H 411.002 -0.511268 5.06225 0
M  V30 4529 H 410.4 -3.61246 4.35336 0
M  V30 4530 H 408.957 -3.85927 5.25265 0
M  V30 4531 N 412.39 -1.55475 0.257931 0
M  V30 4532 C 413.636 -2.00237 -0.357338 0
M  V30 4533 C 413.991 -1.14313 -1.54759 0
M  V30 4534 O 413.284 -0.201187 -1.90541 0
M  V30 4535 C 413.478 -3.48183 -0.806433 0
M  V30 4536 C 413.307 -4.48422 0.338758 0
M  V30 4537 C 412.077 -4.98651 0.817011 0
M  V30 4538 C 414.275 -5.00827 1.16949 0
M  V30 4539 N 412.257 -5.82658 1.93346 0
M  V30 4540 C 413.628 -5.82113 2.13413 0
M  V30 4541 C 415.683 -4.83104 1.2048 0
M  V30 4542 C 414.386 -6.47566 3.13131 0
M  V30 4543 C 416.412 -5.49343 2.19034 0
M  V30 4544 C 415.774 -6.30427 3.14232 0
M  V30 4545 H 411.873 -0.776034 -0.0964083 0
M  V30 4546 H 414.457 -1.90995 0.37803 0
M  V30 4547 H 412.628 -3.57801 -1.51107 0
M  V30 4548 H 414.36 -3.79802 -1.39758 0
M  V30 4549 H 411.115 -4.71914 0.39925 0
M  V30 4550 H 411.539 -6.29356 2.49478 0
M  V30 4551 H 416.181 -4.20036 0.482634 0
M  V30 4552 H 413.899 -7.09793 3.8629 0
M  V30 4553 H 417.485 -5.37579 2.22485 0
M  V30 4554 H 416.365 -6.80777 3.89246 0
M  V30 4555 N 413.868 0.0150385 -1.57593 0
M  V30 4556 C 415.279 0.559832 -1.78109 0
M  V30 4557 C 415.63 1.74814 -0.890756 0
M  V30 4558 O 414.755 2.16216 -0.0892482 0
M  V30 4559 C 415.35 1.02238 -3.23006 0
M  V30 4560 C 413.909 1.51258 -3.44671 0
M  V30 4561 C 413.056 0.456955 -2.73509 0
M  V30 4562 H 416.007 -0.211169 -1.57289 0
M  V30 4563 H 416.028 1.88912 -3.30292 0
M  V30 4564 H 415.54 0.157302 -3.87781 0
M  V30 4565 H 413.641 2.39905 -2.8509 0
M  V30 4566 H 413.754 1.55042 -4.5332 0
M  V30 4567 H 412.118 0.915196 -2.37689 0
M  V30 4568 H 412.901 -0.398896 -3.40975 0
M  V30 4569 N 415.346 1.54954 0.287554 0
M  V30 4570 C 416.757 1.65732 0.859634 0
M  V30 4571 C 417.108 0.574767 1.87592 0
M  V30 4572 O 416.233 -0.286299 2.14498 0
M  V30 4573 C 416.828 3.00438 1.56597 0
M  V30 4574 C 415.387 3.13292 2.08627 0
M  V30 4575 C 414.534 2.61473 0.923416 0
M  V30 4576 H 417.485 1.5857 0.0642338 0
M  V30 4577 H 417.506 2.92613 2.43224 0
M  V30 4578 H 417.018 3.79207 0.826053 0
M  V30 4579 H 415.119 2.39268 2.85625 0
M  V30 4580 H 415.232 4.19647 2.31157 0
M  V30 4581 H 413.596 2.18264 1.31275 0
M  V30 4582 H 414.379 3.42733 0.197241 0
M  V30 4583 N 416.824 -0.551391 1.4764 0
M  V30 4584 C 418.049 -1.33837 1.58437 0
M  V30 4585 C 418.474 -1.866 0.237063 0
M  V30 4586 O 417.832 -1.6328 -0.787994 0
M  V30 4587 C 417.88 -2.48014 2.61766 0
M  V30 4588 O 416.984 -3.50419 2.1744 0
M  V30 4589 H 416.325 -0.397299 0.532024 0
M  V30 4590 H 418.855 -0.665759 1.93465 0
M  V30 4591 H 418.865 -2.94503 2.82369 0
M  V30 4592 H 417.54 -2.08969 3.5959 0
M  V30 4593 H 416.117 -3.10196 2.06961 0
M  V30 4594 N 418.302 -1.35869 -0.798587 0
M  V30 4595 C 419.579 -1.20145 -1.54352 0
M  V30 4596 C 419.959 0.216161 -2.0999 0
M  V30 4597 O 419.307 1.22068 -1.93162 0
M  V30 4598 C 419.517 -2.27602 -2.64572 0
M  V30 4599 C 420.865 -2.63811 -3.32699 0
M  V30 4600 O 421.889 -2.26576 -2.74849 0
M  V30 4601 O 420.748 -3.27866 -4.37226 0
M  V30 4602 H 417.842 -0.467248 -0.682355 0
M  V30 4603 H 420.388 -1.47574 -0.837859 0
M  V30 4604 H 419.16 -3.2265 -2.21388 0
M  V30 4605 H 418.783 -2.01488 -3.42766 0
M  V30 4606 N 419.78 1.02168 -1.19998 0
M  V30 4607 C 421.005 1.79833 -1.03319 0
M  V30 4608 C 421.43 1.83504 0.413281 0
M  V30 4609 O 420.788 1.26635 1.29743 0
M  V30 4610 C 420.836 3.22396 -1.61533 0
M  V30 4611 O 419.94 4.03555 -0.849519 0
M  V30 4612 H 419.281 0.554872 -0.364709 0
M  V30 4613 H 421.811 1.28542 -1.59179 0
M  V30 4614 H 421.821 3.73124 -1.65054 0
M  V30 4615 H 420.496 3.19039 -2.66809 0
M  V30 4616 H 419.073 3.62169 -0.888129 0
M  V30 4617 N 421.258 1.00505 1.21394 0
M  V30 4618 C 422.221 0.570459 2.21987 0
M  V30 4619 C 423.221 -0.353211 1.56873 0
M  V30 4620 O 424.411 -0.14349 1.73608 0
M  V30 4621 C 421.543 -0.168555 3.40483 0
M  V30 4622 H 422.736 1.46021 2.6195 0
M  V30 4623 H 420.289 0.793565 1.34656 0
M  V30 4624 H 421.024 -1.07374 3.06009 0
M  V30 4625 H 420.809 0.494823 3.88965 0
M  V30 4626 H 422.299 -0.460362 4.15055 0
M  V30 4627 N 422.737 -1.36956 0.779787 0
M  V30 4628 C 423.984 -1.99491 0.347766 0
M  V30 4629 C 424.312 -1.61898 -1.07793 0
M  V30 4630 O 423.567 -0.86071 -1.75756 0
M  V30 4631 C 423.866 -3.54585 0.447686 0
M  V30 4632 C 423.532 -4.1197 1.83279 0
M  V30 4633 C 422.194 -4.27356 2.2118 0
M  V30 4634 C 424.546 -4.43354 2.74019 0
M  V30 4635 C 421.874 -4.71432 3.4924 0
M  V30 4636 C 424.226 -4.88858 4.01497 0
M  V30 4637 C 422.89 -5.0245 4.39432 0
M  V30 4638 H 422.16 -0.729991 0.127257 0
M  V30 4639 H 424.807 -1.63599 0.995376 0
M  V30 4640 H 423.112 -3.90773 -0.283447 0
M  V30 4641 H 424.809 -4.00888 0.0945948 0
M  V30 4642 H 421.399 -4.00428 1.52825 0
M  V30 4643 H 425.583 -4.31045 2.45995 0
M  V30 4644 H 420.839 -4.80141 3.78516 0
M  V30 4645 H 425.013 -5.12108 4.71931 0
M  V30 4646 H 422.64 -5.36362 5.38721 0
M  V30 4647 N 424.215 -0.530993 -1.48385 0
M  V30 4648 C 425.125 0.23503 -2.3342 0
M  V30 4649 C 426.141 0.93801 -1.46552 0
M  V30 4650 O 427.317 0.912745 -1.7953 0
M  V30 4651 C 424.382 1.26778 -3.22689 0
M  V30 4652 C 423.443 0.575038 -4.25431 0
M  V30 4653 C 422.676 1.55858 -5.10435 0
M  V30 4654 O 422.899 2.79129 -4.97437 0
M  V30 4655 O 421.833 1.09742 -5.91811 0
M  V30 4656 H 425.659 -0.461794 -3.00169 0
M  V30 4657 H 423.244 -0.291903 -1.46521 0
M  V30 4658 H 425.126 1.86457 -3.77904 0
M  V30 4659 H 423.801 1.94699 -2.586 0
M  V30 4660 H 422.708 -0.0622782 -3.74048 0
M  V30 4661 H 424.041 -0.062253 -4.92161 0
M  V30 4662 N 425.693 1.55336 -0.266172 0
M  V30 4663 C 426.921 2.03801 0.356756 0
M  V30 4664 C 427.336 1.14485 1.50129 0
M  V30 4665 O 426.693 0.163121 1.8177 0
M  V30 4666 C 426.744 3.51455 0.846281 0
M  V30 4667 O 426.465 4.37371 -0.252663 0
M  V30 4668 C 427.966 4.15767 1.53794 0
M  V30 4669 H 425.186 0.665906 0.0825218 0
M  V30 4670 H 427.73 2.00636 -0.39566 0
M  V30 4671 H 425.885 3.55092 1.54881 0
M  V30 4672 H 426.299 5.24358 0.122173 0
M  V30 4673 H 427.773 5.20714 1.83198 0
M  V30 4674 H 428.25 3.63404 2.46646 0
M  V30 4675 H 428.856 4.16107 0.879488 0
M  V30 4676 N 427.171 -0.0066808 1.57599 0
M  V30 4677 C 428.119 -1.01851 2.09115 0
M  V30 4678 C 429.113 -1.36021 1.00969 0
M  V30 4679 O 430.319 -1.34663 1.19439 0
M  V30 4680 H 426.694 -0.346083 0.667631 0
M  V30 4681 H 428.665 -0.558394 2.93129 0
M  V30 4682 C 427.414 -2.30374 2.60429 0
M  V30 4683 H 426.737 -2.04947 3.43273 0
M  V30 4684 H 428.177 -2.99466 3.00161 0
M  V30 4685 C 426.636 -3.00893 1.51542 0
M  V30 4686 O 427.166 -3.91614 0.894484 0
M  V30 4687 N 425.372 -2.62603 1.2445 0
M  V30 4688 H 424.919 -1.88911 1.75129 0
M  V30 4689 H 424.877 -3.10101 0.518137 0
M  V30 4690 N 428.649 -1.55105 -0.279332 0
M  V30 4691 C 429.877 -1.7943 -1.03017 0
M  V30 4692 C 430.292 -0.564456 -1.80165 0
M  V30 4693 O 429.649 0.466326 -1.76442 0
M  V30 4694 C 429.7 -3.0155 -1.99374 0
M  V30 4695 O 429.421 -4.19784 -1.25352 0
M  V30 4696 C 430.922 -3.3843 -2.86321 0
M  V30 4697 H 428.142 -0.597882 -0.304594 0
M  V30 4698 H 430.686 -2.02105 -0.312035 0
M  V30 4699 H 428.841 -2.81019 -2.66659 0
M  V30 4700 H 429.255 -4.88781 -1.90246 0
M  V30 4701 H 430.729 -4.27066 -3.49741 0
M  V30 4702 H 431.206 -2.57549 -3.5576 0
M  V30 4703 H 431.812 -3.61197 -2.24536 0
M  V30 4704 N 430.127 0.543554 -1.4793 0
M  V30 4705 C 431.355 1.32516 -1.58894 0
M  V30 4706 C 431.77 1.87215 -0.244131 0
M  V30 4707 O 431.127 1.65709 0.764652 0
M  V30 4708 C 431.178 2.48554 -2.62494 0
M  V30 4709 O 430.899 1.96112 -3.91755 0
M  V30 4710 C 432.4 3.40572 -2.8377 0
M  V30 4711 H 429.62 0.403472 -0.536145 0
M  V30 4712 H 432.164 0.657106 -1.93655 0
M  V30 4713 H 430.319 3.1127 -2.30629 0
M  V30 4714 H 430.733 2.71967 -4.4848 0
M  V30 4715 H 432.207 4.18375 -3.60093 0
M  V30 4716 H 432.684 3.94965 -1.92092 0
M  V30 4717 H 433.29 2.8366 -3.16887 0
M  V30 4718 N 431.605 1.3629 0.791371 0
M  V30 4719 C 432.83 1.33726 1.58531 0
M  V30 4720 C 433.255 -0.0794933 1.87932 0
M  V30 4721 O 432.613 -1.05087 1.47738 0
M  V30 4722 C 432.661 2.16425 2.88431 0
M  V30 4723 O 431.765 1.5554 3.81944 0
M  V30 4724 H 431.106 0.457793 0.480959 0
M  V30 4725 H 433.636 1.79547 0.981031 0
M  V30 4726 H 433.646 2.28933 3.37718 0
M  V30 4727 H 432.321 3.19415 2.66359 0
M  V30 4728 H 430.898 1.51961 3.40532 0
M  V30 4729 N 433.083 -1.0153 1.20538 0
M  V30 4730 C 434.313 -1.78487 1.04048 0
M  V30 4731 C 434.721 -1.84631 -0.413292 0
M  V30 4732 O 434.064 -1.29919 -1.29872 0
M  V30 4733 C 434.126 -3.24367 1.55003 0
M  V30 4734 C 433.79 -3.41827 3.0332 0
M  V30 4735 C 434.787 -3.30941 4.00966 0
M  V30 4736 C 432.472 -3.67602 3.42307 0
M  V30 4737 C 434.466 -3.45577 5.35589 0
M  V30 4738 C 432.153 -3.81881 4.77085 0
M  V30 4739 C 433.151 -3.70874 5.73534 0
M  V30 4740 O 432.839 -3.84714 7.05868 0
M  V30 4741 H 432.571 -0.568108 0.366373 0
M  V30 4742 H 435.125 -1.28677 1.60098 0
M  V30 4743 H 433.355 -3.75266 0.933397 0
M  V30 4744 H 435.044 -3.82963 1.34514 0
M  V30 4745 H 435.81 -3.10964 3.72191 0
M  V30 4746 H 431.689 -3.75256 2.67776 0
M  V30 4747 H 435.233 -3.36902 6.10854 0
M  V30 4748 H 431.13 -4.01359 5.0555 0
M  V30 4749 H 431.898 -4.01724 7.13134 0
M  V30 4750 N 434.561 -1.01147 -1.20859 0
M  V30 4751 C 435.808 -0.697865 -1.90095 0
M  V30 4752 C 436.136 0.772014 -1.78522 0
M  V30 4753 O 435.391 1.57595 -1.16027 0
M  V30 4754 C 435.69 -1.0727 -3.40922 0
M  V30 4755 C 435.356 -2.53792 -3.72693 0
M  V30 4756 C 434.018 -2.93829 -3.81075 0
M  V30 4757 C 436.37 -3.48674 -3.87397 0
M  V30 4758 C 433.698 -4.27696 -4.01613 0
M  V30 4759 C 436.05 -4.82223 -4.09444 0
M  V30 4760 C 434.714 -5.21973 -4.16054 0
M  V30 4761 H 433.984 -0.255367 -0.695607 0
M  V30 4762 H 436.631 -1.27111 -1.43231 0
M  V30 4763 H 434.936 -0.417799 -3.89566 0
M  V30 4764 H 436.633 -0.807818 -3.92779 0
M  V30 4765 H 433.223 -2.21768 -3.66765 0
M  V30 4766 H 437.407 -3.18904 -3.80281 0
M  V30 4767 H 432.663 -4.58055 -4.04964 0
M  V30 4768 H 436.837 -5.55672 -4.19763 0
M  V30 4769 H 434.464 -6.25717 -4.31721 0
M  V30 4770 N 436.039 1.36541 -0.78704 0
M  V30 4771 C 436.987 2.31965 -0.171724 0
M  V30 4772 C 437.981 1.55689 0.667631 0
M  V30 4773 O 439.187 1.70969 0.562981 0
M  V30 4774 H 435.562 0.751101 -0.0367545 0
M  V30 4775 H 437.533 2.81428 -0.992017 0
M  V30 4776 C 436.282 3.40968 0.680904 0
M  V30 4777 H 435.605 3.99775 0.0443961 0
M  V30 4778 H 437.045 4.10063 1.07815 0
M  V30 4779 C 435.504 2.82338 1.83813 0
M  V30 4780 O 436.034 2.74311 2.93456 0
M  V30 4781 N 434.24 2.39661 1.6435 0
M  V30 4782 H 433.787 2.46389 0.751668 0
M  V30 4783 H 433.745 2.00779 2.4194 0
M  V30 4784 N 437.518 0.538854 1.48102 0
M  V30 4785 C 438.766 0.00798599 2.02098 0
M  V30 4786 C 439.087 -1.33922 1.41739 0
M  V30 4787 O 438.357 -1.86932 0.585934 0
M  V30 4788 H 436.937 -3.62179e-05 0.747 0
M  V30 4789 H 439.599 0.7047 1.81714 0
M  V30 4790 H 438.695 -0.0937672 3.11959 0
M  V30 4791 N 438.996 -1.55193 0.274407 0
M  V30 4792 C 440.224 -2.03987 -0.345943 0
M  V30 4793 C 440.639 -1.15279 -1.4952 0
M  V30 4794 O 439.996 -0.172759 -1.8168 0
M  V30 4795 C 440.047 -3.51898 -0.827631 0
M  V30 4796 O 439.768 -4.37231 0.275855 0
M  V30 4797 C 441.269 -4.16577 -1.51587 0
M  V30 4798 H 438.489 -0.666335 -0.0789892 0
M  V30 4799 H 441.033 -2.00423 0.406294 0
M  V30 4800 H 439.188 -3.55909 -1.52996 0
M  V30 4801 H 439.602 -5.24415 -0.0943638 0
M  V30 4802 H 441.076 -5.21678 -1.80433 0
M  V30 4803 H 441.553 -3.64707 -2.44716 0
M  V30 4804 H 442.159 -4.16568 -0.857409 0
M  V30 4805 N 440.474 -0.00167713 -1.576 0
M  V30 4806 C 441.407 1.02317 -2.03977 0
M  V30 4807 C 442.385 1.33381 -0.929963 0
M  V30 4808 O 443.569 1.45517 -1.19822 0
M  V30 4809 C 440.696 2.35035 -2.43878 0
M  V30 4810 C 439.742 2.19621 -3.65607 0
M  V30 4811 S 440.575 1.52068 -5.13455 0
M  V30 4812 C 441.731 2.86212 -5.56627 0
M  V30 4813 H 441.964 0.628285 -2.90585 0
M  V30 4814 H 439.497 0.209239 -1.52976 0
M  V30 4815 H 441.455 3.11345 -2.67534 0
M  V30 4816 H 440.116 2.71663 -1.57665 0
M  V30 4817 H 439.309 3.1767 -3.91282 0
M  V30 4818 H 438.911 1.51455 -3.41961 0
M  V30 4819 H 441.203 3.82509 -5.59189 0
M  V30 4820 H 442.146 2.65235 -6.56549 0
M  V30 4821 H 442.554 2.90199 -4.84195 0
M  V30 4822 N 441.952 1.55251 0.271103 0
M  V30 4823 C 443.229 1.66664 1.02384 0
M  V30 4824 C 443.609 0.534363 2.04225 0
M  V30 4825 O 442.957 -0.465337 2.23712 0
M  V30 4826 C 443.167 3.05961 1.67895 0
M  V30 4827 C 444.515 3.63772 2.18986 0
M  V30 4828 O 445.539 3.08606 1.77878 0
M  V30 4829 O 444.398 4.60429 2.94393 0
M  V30 4830 H 441.492 0.676957 0.475035 0
M  V30 4831 H 444.038 1.67589 0.26681 0
M  V30 4832 H 442.81 3.79815 0.941071 0
M  V30 4833 H 442.433 3.08943 2.5028 0
M  V30 4834 N 443.43 -0.535701 1.48216 0
M  V30 4835 C 444.655 -1.32149 1.59848 0
M  V30 4836 C 445.08 -1.86338 0.256842 0
M  V30 4837 O 444.438 -1.64107 -0.770632 0
M  V30 4838 C 444.486 -2.45224 2.64381 0
M  V30 4839 O 443.59 -3.48093 2.21144 0
M  V30 4840 H 442.931 -0.391634 0.536208 0
M  V30 4841 H 445.461 -0.645202 1.94161 0
M  V30 4842 H 445.471 -2.91491 2.85476 0
M  V30 4843 H 444.146 -2.05143 3.61786 0
M  V30 4844 H 442.723 -3.07984 2.10239 0
M  V30 4845 N 444.908 -1.36708 -0.784132 0
M  V30 4846 C 445.856 -1.31533 -1.91838 0
M  V30 4847 C 446.85 -0.206205 -1.6814 0
M  V30 4848 O 448.056 -0.373519 -1.76082 0
M  V30 4849 H 444.431 -0.409613 -0.630651 0
M  V30 4850 H 446.402 -2.2731 -1.9332 0
M  V30 4851 C 445.151 -1.12679 -3.28936 0
M  V30 4852 H 444.474 -1.97274 -3.4774 0
M  V30 4853 H 445.914 -1.13106 -4.08636 0
M  V30 4854 C 444.373 0.168281 -3.36479 0
M  V30 4855 O 444.903 1.15625 -3.84699 0
M  V30 4856 N 443.109 0.214762 -2.89805 0
M  V30 4857 H 442.656 -0.589852 -2.50756 0
M  V30 4858 H 442.614 1.08094 -2.95234 0
M  V30 4859 N 446.386 1.0089 -1.21074 0
M  V30 4860 C 447.634 1.74262 -1.02358 0
M  V30 4861 C 447.955 1.89869 0.444393 0
M  V30 4862 O 447.225 1.44677 1.32081 0
M  V30 4863 H 445.805 0.645615 -0.375754 0
M  V30 4864 H 448.467 1.21596 -1.52317 0
M  V30 4865 H 447.563 2.74328 -1.4883 0
M  V30 4866 N 447.864 1.01787 1.20321 0
M  V30 4867 C 449.092 0.727194 1.937 0
M  V30 4868 C 449.507 -0.712305 1.74848 0
M  V30 4869 O 448.864 -1.48327 1.06327 0
M  V30 4870 C 448.915 1.05497 3.45764 0
M  V30 4871 O 448.636 2.43794 3.64 0
M  V30 4872 C 450.137 0.785534 4.36285 0
M  V30 4873 H 447.357 0.266939 0.615617 0
M  V30 4874 H 449.901 1.35939 1.52777 0
M  V30 4875 H 448.056 0.468158 3.84561 0
M  V30 4876 H 448.47 2.55656 4.57974 0
M  V30 4877 H 449.944 1.06495 5.4163 0
M  V30 4878 H 450.421 -0.280273 4.38305 0
M  V30 4879 H 451.027 1.35456 4.03152 0
M  V30 4880 N 449.342 -1.36122 0.79427 0
M  V30 4881 C 450.589 -1.99111 0.368905 0
M  V30 4882 C 450.917 -1.63032 -1.0607 0
M  V30 4883 O 450.172 -0.879303 -1.74833 0
M  V30 4884 C 450.471 -3.5409 0.48527 0
M  V30 4885 C 450.137 -4.10003 1.87638 0
M  V30 4886 C 448.799 -4.24986 2.257 0
M  V30 4887 C 451.151 -4.40423 2.78706 0
M  V30 4888 C 448.479 -4.67701 3.54221 0
M  V30 4889 C 450.831 -4.84573 4.0666 0
M  V30 4890 C 449.495 -4.97761 4.44737 0
M  V30 4891 H 448.765 -0.7286 0.134992 0
M  V30 4892 H 451.412 -1.62534 1.01267 0
M  V30 4893 H 449.717 -3.91052 -0.241984 0
M  V30 4894 H 451.414 -4.00766 0.137109 0
M  V30 4895 H 448.004 -3.98784 1.57064 0
M  V30 4896 H 452.188 -4.28412 2.50553 0
M  V30 4897 H 447.444 -4.761 3.83587 0
M  V30 4898 H 451.618 -5.07074 4.77336 0
M  V30 4899 H 449.245 -5.30618 5.44379 0
M  V30 4900 N 450.82 -0.546701 -1.47814 0
M  V30 4901 C 452.066 -0.0187684 -2.02791 0
M  V30 4902 C 452.399 1.32338 -1.42128 0
M  V30 4903 O 451.674 1.85867 -0.573023 0
M  V30 4904 C 451.957 0.0854985 -3.59998 0
M  V30 4905 C 451.81 -1.283 -4.31114 0
M  V30 4906 C 453.129 0.80412 -4.32691 0
M  V30 4907 H 450.248 -0.0082946 -0.736953 0
M  V30 4908 H 452.89 -0.706962 -1.76358 0
M  V30 4909 H 451.04 0.671609 -3.82651 0
M  V30 4910 H 452.712 -1.91151 -4.19832 0
M  V30 4911 H 450.955 -1.86049 -3.91878 0
M  V30 4912 H 451.626 -1.16287 -5.39612 0
M  V30 4913 H 454.102 0.306576 -4.14969 0
M  V30 4914 H 452.978 0.846011 -5.42341 0
M  V30 4915 H 453.239 1.85802 -4.01161 0
M  V30 4916 N 452.299 1.55045 -0.282633 0
M  V30 4917 C 453.247 2.24254 0.617478 0
M  V30 4918 C 454.241 1.24215 1.15183 0
M  V30 4919 O 455.447 1.42123 1.10459 0
M  V30 4920 H 451.822 0.719801 0.217693 0
M  V30 4921 H 453.793 2.98398 0.0110076 0
M  V30 4922 C 452.542 2.98281 1.78672 0
M  V30 4923 H 451.865 3.75053 1.38475 0
M  V30 4924 H 453.305 3.50017 2.393 0
M  V30 4925 C 451.764 2.04184 2.67975 0
M  V30 4926 O 452.294 1.59792 3.6855 0
M  V30 4927 N 450.5 1.70526 2.35307 0
M  V30 4928 H 450.047 2.06821 1.53567 0
M  V30 4929 H 450.005 1.07839 2.95327 0
M  V30 4930 N 453.777 0.010035 1.57597 0
M  V30 4931 C 455.023 -0.673697 1.91283 0
M  V30 4932 C 455.356 -1.72863 0.884979 0
M  V30 4933 O 454.631 -1.94268 -0.0949487 0
M  V30 4934 C 454.914 -1.30766 3.35518 0
M  V30 4935 C 454.767 -0.263578 4.49027 0
M  V30 4936 C 456.086 -2.23105 3.79358 0
M  V30 4937 H 453.205 -0.243439 0.695634 0
M  V30 4938 H 455.847 0.0633864 1.89894 0
M  V30 4939 H 453.997 -1.93588 3.36832 0
M  V30 4940 H 455.669 0.365738 4.59848 0
M  V30 4941 H 453.912 0.413077 4.31829 0
M  V30 4942 H 454.583 -0.746398 5.4693 0
M  V30 4943 H 457.059 -1.70289 3.79659 0
M  V30 4944 H 455.935 -2.64424 4.81011 0
M  V30 4945 H 456.196 -3.11433 3.13787 0
M  V30 4946 N 455.255 -1.55392 -0.262866 0
M  V30 4947 C 456.483 -1.80513 -1.01108 0
M  V30 4948 C 456.898 -0.583533 -1.79556 0
M  V30 4949 O 456.255 0.447585 -1.76926 0
M  V30 4950 C 456.306 -3.03648 -1.96164 0
M  V30 4951 O 456.027 -4.2109 -1.20893 0
M  V30 4952 C 457.528 -3.41448 -2.82715 0
M  V30 4953 H 454.748 -0.601079 -0.298236 0
M  V30 4954 H 457.292 -2.02425 -0.290582 0
M  V30 4955 H 455.447 -2.83832 -2.63663 0
M  V30 4956 H 455.861 -4.90771 -1.85051 0
M  V30 4957 H 457.335 -4.30751 -3.45192 0
M  V30 4958 H 457.812 -2.61308 -3.53008 0
M  V30 4959 H 458.418 -3.63559 -2.20693 0
M  V30 4960 N 456.733 0.527833 -1.48498 0
M  V30 4961 C 457.666 1.64892 -1.57753 0
M  V30 4962 C 458.644 1.5687 -0.427867 0
M  V30 4963 O 459.828 1.77311 -0.639764 0
M  V30 4964 C 456.955 3.03301 -1.50752 0
M  V30 4965 C 456.001 3.29675 -2.70586 0
M  V30 4966 S 456.834 3.15712 -4.32535 0
M  V30 4967 C 457.99 4.56564 -4.28136 0
M  V30 4968 H 458.223 1.56792 -2.52594 0
M  V30 4969 H 455.756 0.710959 -1.37057 0
M  V30 4970 H 457.714 3.83123 -1.474 0
M  V30 4971 H 456.375 3.08839 -0.572454 0
M  V30 4972 H 455.568 4.3065 -2.61833 0
M  V30 4973 H 455.17 2.57526 -2.71212 0
M  V30 4974 H 457.462 5.48126 -3.98201 0
M  V30 4975 H 458.405 4.70371 -5.29298 0
M  V30 4976 H 458.813 4.35987 -3.58574 0
M  V30 4977 N 458.211 1.37122 0.776871 0
M  V30 4978 C 459.436 1.354 1.57104 0
M  V30 4979 C 459.861 -0.0595562 1.88006 0
M  V30 4980 O 459.219 -1.03514 1.48844 0
M  V30 4981 C 459.267 2.19472 2.8612 0
M  V30 4982 O 458.371 1.59582 3.80273 0
M  V30 4983 H 457.712 0.462869 0.476076 0
M  V30 4984 H 460.242 1.80577 0.961932 0
M  V30 4985 H 460.252 2.32502 3.35271 0
M  V30 4986 H 458.927 3.22222 2.62956 0
M  V30 4987 H 457.504 1.55564 3.38902 0
M  V30 4988 N 459.689 -1.00246 1.21608 0
M  V30 4989 C 460.917 -1.77631 1.06089 0
M  V30 4990 C 461.332 -1.84746 -0.38916 0
M  V30 4991 O 460.689 -1.31068 -1.26994 0
M  V30 4992 C 460.74 -3.21415 1.65453 0
M  V30 4993 O 460.461 -3.14703 3.04785 0
M  V30 4994 C 461.962 -4.15289 1.55079 0
M  V30 4995 H 459.182 -0.558162 0.37242 0
M  V30 4996 H 461.726 -1.26093 1.60999 0
M  V30 4997 H 459.881 -3.70053 1.14629 0
M  V30 4998 H 460.295 -4.05056 3.33212 0
M  V30 4999 H 461.769 -5.13965 2.01355 0
M  V30 5000 H 462.246 -4.36279 0.505665 0
M  V30 5001 H 462.852 -3.72543 2.05163 0
M  V30 5002 N 461.167 -1.02423 -1.1978 0
M  V30 5003 C 462.414 -0.717988 -1.89344 0
M  V30 5004 C 462.742 0.753036 -1.79331 0
M  V30 5005 O 461.997 1.56355 -1.17692 0
M  V30 5006 C 462.296 -1.1088 -3.39765 0
M  V30 5007 C 461.962 -2.57731 -3.6998 0
M  V30 5008 C 460.624 -2.97854 -3.77937 0
M  V30 5009 C 462.976 -3.52763 -3.83677 0
M  V30 5010 C 460.304 -4.31931 -3.97054 0
M  V30 5011 C 462.656 -4.86538 -4.04306 0
M  V30 5012 C 461.32 -5.26356 -4.10494 0
M  V30 5013 H 460.59 -0.26273 -0.692859 0
M  V30 5014 H 463.237 -1.28623 -1.41875 0
M  V30 5015 H 461.542 -0.459094 -3.89101 0
M  V30 5016 H 463.239 -0.849432 -3.919 0
M  V30 5017 H 459.829 -2.25646 -3.64393 0
M  V30 5018 H 464.013 -3.2292 -3.76877 0
M  V30 5019 H 459.269 -4.62324 -4.00083 0
M  V30 5020 H 463.443 -5.60093 -4.13846 0
M  V30 5021 H 461.07 -6.3026 -4.2506 0
M  V30 5022 N 462.645 1.35699 -0.801477 0
M  V30 5023 C 463.593 2.3177 -0.196317 0
M  V30 5024 C 464.587 1.56388 0.651081 0
M  V30 5025 O 465.793 1.71557 0.544815 0
M  V30 5026 H 462.168 0.750669 -0.0447189 0
M  V30 5027 H 464.139 2.8036 -1.02181 0
M  V30 5028 C 462.888 3.41671 0.644702 0
M  V30 5029 H 462.211 3.998 0.0019921 0
M  V30 5030 H 463.651 4.11184 1.0346 0
M  V30 5031 C 462.11 2.84271 1.80808 0
M  V30 5032 O 462.64 2.77408 2.9053 0
M  V30 5033 N 460.846 2.41391 1.61799 0
M  V30 5034 H 460.393 2.47173 0.725493 0
M  V30 5035 H 460.351 2.03334 2.39797 0
M  V30 5036 N 464.123 0.554532 1.47522 0
M  V30 5037 C 465.369 0.0377449 2.03365 0
M  V30 5038 C 465.724 -1.29654 1.42154 0
M  V30 5039 O 465.017 -1.83022 0.566865 0
M  V30 5040 C 465.211 -0.115927 3.57212 0
M  V30 5041 C 465.04 1.20191 4.33341 0
M  V30 5042 C 463.81 1.76849 4.73342 0
M  V30 5043 C 466.008 2.11849 4.68641 0
M  V30 5044 N 463.99 3.02665 5.34104 0
M  V30 5045 C 465.361 3.22245 5.29677 0
M  V30 5046 C 467.416 2.11876 4.5057 0
M  V30 5047 C 466.119 4.32763 5.74551 0
M  V30 5048 C 468.145 3.21405 4.9644 0
M  V30 5049 C 467.507 4.30519 5.57523 0
M  V30 5050 H 463.606 0.0559107 0.779999 0
M  V30 5051 H 466.19 0.741232 1.80038 0
M  V30 5052 H 464.361 -0.788533 3.80311 0
M  V30 5053 H 466.093 -0.634538 3.99695 0
M  V30 5054 H 462.848 1.30681 4.55214 0
M  V30 5055 H 463.272 3.66788 5.69031 0
M  V30 5056 H 467.914 1.28801 4.02704 0
M  V30 5057 H 465.632 5.166 6.2141 0
M  V30 5058 H 469.218 3.22509 4.8423 0
M  V30 5059 H 468.098 5.13873 5.92371 0
M  V30 5060 N 465.601 -1.54893 0.290851 0
M  V30 5061 C 466.548 -2.23138 -0.58974 0
M  V30 5062 C 467.518 -1.21036 -1.13752 0
M  V30 5063 O 468.703 -1.49626 -1.18392 0
M  V30 5064 C 465.843 -2.96811 -1.76061 0
M  V30 5065 C 464.956 -4.13665 -1.24519 0
M  V30 5066 C 464.091 -4.74944 -2.3791 0
M  V30 5067 C 463.13 -5.83963 -1.83451 0
M  V30 5068 N 462.267 -6.39239 -2.90376 0
M  V30 5069 H 467.107 -2.98 -0.00114915 0
M  V30 5070 H 464.644 -1.47096 0.0112006 0
M  V30 5071 H 466.602 -3.37751 -2.44909 0
M  V30 5072 H 465.232 -2.24344 -2.32098 0
M  V30 5073 H 464.284 -3.77737 -0.449288 0
M  V30 5074 H 465.596 -4.92238 -0.806424 0
M  V30 5075 H 464.75 -5.18684 -3.14724 0
M  V30 5076 H 463.489 -3.95682 -2.85109 0
M  V30 5077 H 462.494 -5.39657 -1.05122 0
M  V30 5078 H 463.719 -6.65103 -1.37169 0
M  V30 5079 H 461.665 -5.62864 -3.36927 0
M  V30 5080 H 461.582 -7.13129 -2.50965 0
M  V30 5081 H 462.85 -6.87637 -3.67118 0
M  V30 5082 N 467.08 -0.0183926 -1.57589 0
M  V30 5083 C 468.357 0.700621 -1.82622 0
M  V30 5084 C 468.737 1.90951 -0.90005 0
M  V30 5085 O 468.085 2.28452 0.0469145 0
M  V30 5086 C 468.295 1.08899 -3.31575 0
M  V30 5087 C 469.643 1.48514 -3.9778 0
M  V30 5088 O 470.667 1.18227 -3.36007 0
M  V30 5089 O 469.526 2.04903 -5.06633 0
M  V30 5090 H 466.62 0.342743 -0.752633 0
M  V30 5091 H 469.166 -0.0452548 -1.6964 0
M  V30 5092 H 467.938 0.228113 -3.90635 0
M  V30 5093 H 467.561 1.89338 -3.49624 0
M  V30 5094 N 468.558 1.5553 0.254621 0
M  V30 5095 C 469.788 1.80784 1.00004 0
M  V30 5096 C 470.196 0.59071 1.79742 0
M  V30 5097 O 469.539 -0.449988 1.78103 0
M  V30 5098 C 469.601 2.99268 1.99196 0
M  V30 5099 C 469.265 4.35595 1.38224 0
M  V30 5100 C 470.262 5.13884 0.788611 0
M  V30 5101 C 467.947 4.82281 1.40393 0
M  V30 5102 C 469.941 6.37004 0.224783 0
M  V30 5103 C 467.628 6.05351 0.836243 0
M  V30 5104 C 468.626 6.82551 0.24769 0
M  V30 5105 O 468.314 8.03297 -0.311249 0
M  V30 5106 H 468.046 0.60565 0.300274 0
M  V30 5107 H 470.6 2.03411 0.285143 0
M  V30 5108 H 468.83 2.72377 2.74496 0
M  V30 5109 H 470.519 3.11682 2.60018 0
M  V30 5110 H 471.285 4.78938 0.764423 0
M  V30 5111 H 467.164 4.22189 1.85142 0
M  V30 5112 H 470.708 6.97203 -0.235235 0
M  V30 5113 H 466.605 6.39776 0.857733 0
M  V30 5114 H 467.373 8.1825 -0.20237 0
M  V30 5115 N 470.036 -0.519951 1.48776 0
M  V30 5116 C 471.285 -1.27175 1.56555 0
M  V30 5117 C 471.598 -1.9401 0.248869 0
M  V30 5118 O 472.804 -2.70725 0.205004 0
M  V30 5119 C 471.26 -2.30811 2.76142 0
M  V30 5120 C 470.868 -1.7 4.14493 0
M  V30 5121 C 472.612 -3.06937 2.9324 0
M  V30 5122 C 470.519 -2.71635 5.25327 0
M  V30 5123 H 469.449 -0.478329 0.582853 0
M  V30 5124 H 472.1 -0.547916 1.75129 0
M  V30 5125 H 470.482 -3.06274 2.51023 0
M  V30 5126 H 471.656 -1.00658 4.49672 0
M  V30 5127 H 469.971 -1.06331 4.02595 0
M  V30 5128 H 472.568 -3.82905 3.73213 0
M  V30 5129 H 472.911 -3.63409 2.03075 0
M  V30 5130 H 473.444 -2.38589 3.18308 0
M  V30 5131 H 470.183 -2.1997 6.1749 0
M  V30 5132 H 469.703 -3.39275 4.94624 0
M  V30 5133 H 471.382 -3.34429 5.53865 0
M  V30 5134 N 471.514 -1.37532 -0.769588 0
M  V30 5135 C 472.762 -1.32597 -1.5252 0
M  V30 5136 C 473.083 0.0884294 -1.94799 0
M  V30 5137 O 472.353 1.03289 -1.66458 0
M  V30 5138 H 470.933 -0.487846 -0.565699 0
M  V30 5139 H 473.595 -1.72044 -0.915806 0
M  V30 5140 H 472.691 -1.96643 -2.42359 0
M  V30 5141 N 472.992 0.995999 -1.22138 0
M  V30 5142 C 474.269 1.70834 -0.952642 0
M  V30 5143 C 474.649 2.04257 0.533119 0
M  V30 5144 O 473.997 1.72343 1.50034 0
M  V30 5145 C 474.207 2.96119 -1.84701 0
M  V30 5146 C 475.555 3.68962 -2.10124 0
M  V30 5147 O 476.579 3.0612 -1.82124 0
M  V30 5148 O 475.438 4.82017 -2.57531 0
M  V30 5149 H 472.532 0.745498 -0.357997 0
M  V30 5150 H 475.078 1.05262 -1.33109 0
M  V30 5151 H 473.85 2.67898 -2.85213 0
M  V30 5152 H 473.473 3.6943 -1.46995 0
M  V30 5153 N 474.47 1.03057 1.19235 0
M  V30 5154 C 475.747 0.642608 1.84743 0
M  V30 5155 C 476.127 -0.878577 1.91948 0
M  V30 5156 O 475.475 -1.77597 1.43776 0
M  V30 5157 C 475.685 1.30665 3.23616 0
M  V30 5158 C 477.033 1.43098 3.9976 0
M  V30 5159 O 478.057 1.26396 3.3302 0
M  V30 5160 O 476.916 1.70223 5.19313 0
M  V30 5161 H 474.01 0.223573 0.796206 0
M  V30 5162 H 476.556 1.12883 1.26711 0
M  V30 5163 H 475.328 2.34544 3.13217 0
M  V30 5164 H 474.951 0.808405 3.89295 0
M  V30 5165 N 475.948 -1.35272 0.808662 0
M  V30 5166 C 477.173 -2.03477 0.401475 0
M  V30 5167 C 477.598 -1.60537 -0.980279 0
M  V30 5168 O 476.956 -0.78304 -1.63518 0
M  V30 5169 C 477.004 -3.57181 0.495354 0
M  V30 5170 O 476.108 -4.09474 -0.490397 0
M  V30 5171 H 475.449 -0.642561 0.167366 0
M  V30 5172 H 477.979 -1.72824 1.09512 0
M  V30 5173 H 477.989 -4.06356 0.365912 0
M  V30 5174 H 476.664 -3.87784 1.5032 0
M  V30 5175 H 475.241 -3.71516 -0.321023 0
M  V30 5176 N 477.426 -0.562348 -1.47226 0
M  V30 5177 C 478.376 0.202967 -2.27095 0
M  V30 5178 C 479.36 0.880611 -1.34663 0
M  V30 5179 O 480.552 0.778069 -1.58981 0
M  V30 5180 C 477.681 1.22906 -3.20545 0
M  V30 5181 C 476.767 0.554566 -4.20459 0
M  V30 5182 N 477.158 -0.378295 -5.04383 0
M  V30 5183 C 475.456 0.807854 -4.38623 0
M  V30 5184 C 476.157 -0.770583 -5.76573 0
M  V30 5185 N 475.133 -0.124263 -5.43458 0
M  V30 5186 H 478.935 -0.514196 -2.89367 0
M  V30 5187 H 476.449 -0.382655 -1.57827 0
M  V30 5188 H 478.446 1.79134 -3.76453 0
M  V30 5189 H 477.106 1.94726 -2.59831 0
M  V30 5190 H 478.117 -0.75274 -5.124 0
M  V30 5191 H 474.794 1.51418 -3.89075 0
M  V30 5192 H 476.184 -1.53742 -6.54074 0
M  V30 5193 N 478.904 1.54736 -0.299062 0
M  V30 5194 C 480.151 2.00101 0.310784 0
M  V30 5195 C 480.479 1.18746 1.54045 0
M  V30 5196 O 479.734 0.251198 1.94081 0
M  V30 5197 C 480.033 3.50199 0.713835 0
M  V30 5198 C 479.699 4.48997 -0.413873 0
M  V30 5199 C 478.361 4.7573 -0.723462 0
M  V30 5200 C 480.713 5.07839 -1.17257 0
M  V30 5201 C 478.041 5.5857 -1.79491 0
M  V30 5202 C 480.393 5.91844 -2.23392 0
M  V30 5203 C 479.057 6.16889 -2.54959 0
M  V30 5204 H 478.327 0.732221 0.113724 0
M  V30 5205 H 480.974 1.86888 -0.417756 0
M  V30 5206 H 479.279 3.61012 1.52243 0
M  V30 5207 H 480.976 3.82723 1.19684 0
M  V30 5208 H 477.566 4.28292 -0.162476 0
M  V30 5209 H 481.75 4.87188 -0.946651 0
M  V30 5210 H 477.006 5.76213 -2.04423 0
M  V30 5211 H 481.18 6.36465 -2.8264 0
M  V30 5212 H 478.807 6.80869 -3.38114 0
M  V30 5213 N 480.382 0.0267497 1.57577 0
M  V30 5214 C 481.612 -0.6617 1.95717 0
M  V30 5215 C 482.02 -1.66331 0.901706 0
M  V30 5216 O 481.363 -1.83273 -0.125241 0
M  V30 5217 C 481.425 -1.42649 3.29987 0
M  V30 5218 C 481.089 -0.583482 4.5326 0
M  V30 5219 C 482.086 0.140221 5.19711 0
M  V30 5220 C 479.771 -0.521581 4.99585 0
M  V30 5221 C 481.765 0.914523 6.30805 0
M  V30 5222 C 479.452 0.256428 6.10562 0
M  V30 5223 C 480.45 0.973189 6.76031 0
M  V30 5224 O 480.138 1.73845 7.84878 0
M  V30 5225 H 479.87 -0.187483 0.649481 0
M  V30 5226 H 482.424 0.0820847 2.05236 0
M  V30 5227 H 480.654 -2.21536 3.16952 0
M  V30 5228 H 482.343 -2.00282 3.53047 0
M  V30 5229 H 483.109 0.101716 4.84893 0
M  V30 5230 H 478.988 -1.06904 4.48433 0
M  V30 5231 H 482.532 1.4745 6.81839 0
M  V30 5232 H 478.429 0.296657 6.44818 0
M  V30 5233 H 479.197 1.65797 8.01532 0
M  V30 5234 N 481.861 -1.55662 -0.24637 0
M  V30 5235 C 483.107 -1.77782 -0.975779 0
M  V30 5236 C 483.44 -0.592103 -1.84953 0
M  V30 5237 O 482.715 0.409588 -1.90138 0
M  V30 5238 C 482.998 -3.09788 -1.83584 0
M  V30 5239 C 482.851 -4.38764 -0.990241 0
M  V30 5240 C 484.17 -3.38029 -2.81823 0
M  V30 5241 H 481.289 -0.646789 -0.353317 0
M  V30 5242 H 483.931 -1.88398 -0.246248 0
M  V30 5243 H 482.081 -3.00869 -2.45784 0
M  V30 5244 H 483.753 -4.59675 -0.386897 0
M  V30 5245 H 481.996 -4.32798 -0.294626 0
M  V30 5246 H 482.667 -5.27514 -1.62584 0
M  V30 5247 H 485.143 -3.46915 -2.2976 0
M  V30 5248 H 484.019 -4.3161 -3.39122 0
M  V30 5249 H 484.28 -2.58968 -3.58313 0
M  V30 5250 N 483.339 0.512053 -1.4905 0
M  V30 5251 C 484.269 1.62365 -1.67809 0
M  V30 5252 C 485.25 1.61737 -0.526809 0
M  V30 5253 O 486.435 1.78651 -0.761404 0
M  V30 5254 C 483.565 3.00895 -1.73435 0
M  V30 5255 C 482.519 3.16387 -2.88242 0
M  V30 5256 C 481.845 4.56157 -2.78971 0
M  V30 5257 C 483.145 2.97457 -4.29321 0
M  V30 5258 H 484.839 1.46921 -2.60873 0
M  V30 5259 H 482.385 0.705379 -1.2554 0
M  V30 5260 H 484.338 3.78549 -1.85145 0
M  V30 5261 H 483.062 3.17403 -0.769619 0
M  V30 5262 H 481.721 2.41155 -2.76116 0
M  V30 5263 H 481.369 4.69525 -1.8043 0
M  V30 5264 H 481.069 4.67465 -3.5602 0
M  V30 5265 H 482.593 5.35886 -2.92675 0
M  V30 5266 H 484.007 3.64888 -4.42187 0
M  V30 5267 H 482.404 3.20245 -5.07507 0
M  V30 5268 H 483.474 1.93692 -4.44535 0
M  V30 5269 N 484.817 1.37938 0.762283 0
M  V30 5270 C 486.094 1.24196 1.51112 0
M  V30 5271 C 486.474 -0.160409 2.1049 0
M  V30 5272 O 485.822 -1.16904 1.96331 0
M  V30 5273 C 486.032 2.34537 2.58445 0
M  V30 5274 C 487.38 2.7254 3.25588 0
M  V30 5275 O 488.404 2.33783 2.68745 0
M  V30 5276 O 487.263 3.39343 4.28379 0
M  V30 5277 H 484.357 0.485175 0.669727 0
M  V30 5278 H 486.903 1.49743 0.798438 0
M  V30 5279 H 485.675 3.28406 2.12756 0
M  V30 5280 H 485.298 2.10505 3.37303 0
M  V30 5281 N 486.295 -0.989507 1.22664 0
M  V30 5282 C 487.543 -1.72612 1.05117 0
M  V30 5283 C 487.864 -1.90552 -0.414131 0
M  V30 5284 O 487.134 -1.4676 -1.29762 0
M  V30 5285 H 485.714 -0.639555 0.385977 0
M  V30 5286 H 488.376 -1.19158 1.54232 0
M  V30 5287 H 487.472 -2.71926 1.53175 0
M  V30 5288 N 487.773 -1.03688 -1.18687 0
M  V30 5289 C 488.705 -0.582696 -2.21669 0
M  V30 5290 C 489.718 0.345656 -1.59088 0
M  V30 5291 O 490.907 0.140776 -1.77944 0
M  V30 5292 C 488.007 0.169204 -3.38477 0
M  V30 5293 C 487.18 -0.766079 -4.30639 0
M  V30 5294 C 486.239 -0.0581541 -5.26168 0
M  V30 5295 O 485.265 -0.687346 -5.65035 0
M  V30 5296 N 486.467 1.20981 -5.67753 0
M  V30 5297 H 489.232 -1.46843 -2.61261 0
M  V30 5298 H 486.793 -0.916896 -1.33434 0
M  V30 5299 H 488.785 0.652543 -3.99405 0
M  V30 5300 H 487.355 0.956435 -2.97609 0
M  V30 5301 H 486.575 -1.42935 -3.67373 0
M  V30 5302 H 487.863 -1.40146 -4.89118 0
M  V30 5303 H 487.261 1.74159 -5.38224 0
M  V30 5304 H 485.818 1.6375 -6.30896 0
M  V30 5305 N 489.251 1.34841 -0.815825 0
M  V30 5306 C 490.198 2.29644 -0.230664 0
M  V30 5307 C 491.168 1.53253 0.640533 0
M  V30 5308 O 492.353 1.81653 0.583672 0
M  V30 5309 C 489.493 3.39715 0.607275 0
M  V30 5310 C 488.606 4.31056 -0.28538 0
M  V30 5311 C 487.741 5.28225 0.561446 0
M  V30 5312 C 486.78 6.11204 -0.331035 0
M  V30 5313 N 485.917 7.00483 0.476302 0
M  V30 5314 H 490.757 2.79095 -1.0445 0
M  V30 5315 H 488.294 1.37351 -0.526595 0
M  V30 5316 H 490.252 4.02208 1.10835 0
M  V30 5317 H 488.882 2.91517 1.38629 0
M  V30 5318 H 487.934 3.69487 -0.904621 0
M  V30 5319 H 489.246 4.89239 -0.97193 0
M  V30 5320 H 488.4 5.96135 1.12728 0
M  V30 5321 H 487.139 4.70562 1.28153 0
M  V30 5322 H 486.144 5.42232 -0.909069 0
M  V30 5323 H 487.369 6.70947 -1.04912 0
M  V30 5324 H 485.315 6.45296 1.18019 0
M  V30 5325 H 485.232 7.55847 -0.152008 0
M  V30 5326 H 486.5 7.7273 1.02512 0
M  V30 5327 N 490.729 0.570148 1.46925 0
M  V30 5328 C 492.006 -0.0153259 1.95594 0
M  V30 5329 C 492.386 -1.47232 1.51281 0
M  V30 5330 O 491.734 -2.15574 0.757624 0
M  V30 5331 C 491.944 0.143624 3.48704 0
M  V30 5332 C 493.292 0.00494484 4.246 0
M  V30 5333 O 494.316 0.0718214 3.56128 0
M  V30 5334 O 493.175 -0.141175 5.46318 0
M  V30 5335 H 490.269 -0.0568819 0.825041 0
M  V30 5336 H 492.815 0.637583 1.57267 0
M  V30 5337 H 491.587 1.15699 3.73804 0
M  V30 5338 H 491.21 -0.5463 3.93829 0
M  V30 5339 N 492.207 -1.54576 0.307264 0
M  V30 5340 C 493.618 -1.8579 -0.184121 0
M  V30 5341 C 493.969 -1.22914 -1.52927 0
M  V30 5342 O 493.094 -0.529126 -2.09831 0
M  V30 5343 C 493.689 -3.37081 -0.340862 0
M  V30 5344 C 492.248 -3.68304 -0.776465 0
M  V30 5345 C 491.395 -2.77076 0.111503 0
M  V30 5346 H 494.346 -1.49656 0.528078 0
M  V30 5347 H 494.367 -3.61922 -1.17443 0
M  V30 5348 H 493.879 -3.82815 0.638309 0
M  V30 5349 H 491.98 -3.28092 -1.76596 0
M  V30 5350 H 492.093 -4.75434 -0.591512 0
M  V30 5351 H 490.457 -2.51374 -0.410256 0
M  V30 5352 H 491.24 -3.25632 1.08714 0
M  V30 5353 N 493.685 -0.035106 -1.57561 0
M  V30 5354 C 494.615 0.942993 -2.13612 0
M  V30 5355 C 495.596 1.33531 -1.05373 0
M  V30 5356 O 496.781 1.41287 -1.33235 0
M  V30 5357 C 493.911 2.22332 -2.66807 0
M  V30 5358 C 492.865 1.97156 -3.79886 0
M  V30 5359 C 492.191 3.31506 -4.19533 0
M  V30 5360 C 493.491 1.30596 -5.05709 0
M  V30 5361 H 495.185 0.476179 -2.95589 0
M  V30 5362 H 492.731 0.227602 -1.4219 0
M  V30 5363 H 494.684 2.91142 -3.04654 0
M  V30 5364 H 493.408 2.7119 -1.81999 0
M  V30 5365 H 492.067 1.30763 -3.42486 0
M  V30 5366 H 491.715 3.78134 -3.31698 0
M  V30 5367 H 491.415 3.15465 -4.95738 0
M  V30 5368 H 492.939 4.01574 -4.59968 0
M  V30 5369 H 494.353 1.89416 -5.41105 0
M  V30 5370 H 492.75 1.24934 -5.86951 0
M  V30 5371 H 493.82 0.279742 -4.84092 0
M  V30 5372 N 495.163 1.55791 0.238111 0
M  V30 5373 C 496.093 1.94068 1.29846 0
M  V30 5374 C 497.074 0.806726 1.49753 0
M  V30 5375 O 498.259 1.06772 1.62214 0
M  V30 5376 C 495.389 2.24302 2.65153 0
M  V30 5377 C 494.343 3.40032 2.59927 0
M  V30 5378 C 493.669 3.55829 3.99111 0
M  V30 5379 C 494.969 4.75476 2.16148 0
M  V30 5380 H 496.663 2.82887 0.980563 0
M  V30 5381 H 494.209 1.36105 0.470253 0
M  V30 5382 H 496.162 2.4967 3.39475 0
M  V30 5383 H 494.886 1.32318 2.98596 0
M  V30 5384 H 493.545 3.14687 1.88063 0
M  V30 5385 H 493.193 2.6125 4.29834 0
M  V30 5386 H 492.893 4.3366 3.96501 0
M  V30 5387 H 494.417 3.83528 4.7512 0
M  V30 5388 H 495.831 5.00158 2.80205 0
M  V30 5389 H 494.228 5.56472 2.24631 0
M  V30 5390 H 495.298 4.71946 1.11333 0
M  V30 5391 N 496.642 -0.504142 1.49319 0
M  V30 5392 C 497.882 -1.26867 1.60263 0
M  V30 5393 C 498.246 -1.89924 0.281578 0
M  V30 5394 O 499.447 -2.67479 0.266176 0
M  V30 5395 C 497.718 -2.30956 2.72753 0
M  V30 5396 S 499.277 -3.1679 3.03628 0
M  V30 5397 H 496.095 -0.431198 0.565322 0
M  V30 5398 H 498.697 -0.571407 1.86963 0
M  V30 5399 H 497.401 -1.83156 3.67263 0
M  V30 5400 H 496.932 -3.05356 2.48035 0
M  V30 5401 H 498.947 -4.31549 2.44908 0
M  V30 5402 N 498.12 -1.38341 -0.754957 0
M  V30 5403 C 499.368 -1.34208 -1.51105 0
M  V30 5404 C 499.689 0.0677634 -1.94882 0
M  V30 5405 O 498.959 1.01517 -1.67544 0
M  V30 5406 H 497.539 -0.493819 -0.560493 0
M  V30 5407 H 500.201 -1.73005 -0.897507 0
M  V30 5408 H 499.297 -1.99203 -2.4026 0
M  V30 5409 N 499.598 0.982988 -1.23187 0
M  V30 5410 C 500.546 2.09616 -1.00817 0
M  V30 5411 C 501.54 1.6932 0.0519995 0
M  V30 5412 O 502.746 1.79715 -0.101284 0
M  V30 5413 H 499.121 0.685628 -0.308899 0
M  V30 5414 H 501.092 2.25652 -1.95253 0
M  V30 5415 C 499.841 3.42249 -0.613243 0
M  V30 5416 H 499.164 3.73705 -1.42073 0
M  V30 5417 H 500.604 4.21086 -0.496208 0
M  V30 5418 C 499.063 3.30002 0.678233 0
M  V30 5419 O 499.593 3.6263 1.72807 0
M  V30 5420 N 497.799 2.83164 0.653165 0
M  V30 5421 H 497.346 2.56811 -0.201492 0
M  V30 5422 H 497.304 2.75352 1.51752 0
M  V30 5423 N 501.076 1.04316 1.18135 0
M  V30 5424 C 502.324 0.746542 1.87806 0
M  V30 5425 C 502.645 -0.728082 1.80898 0
M  V30 5426 O 501.915 -1.52554 1.22899 0
M  V30 5427 H 500.495 0.273157 0.695265 0
M  V30 5428 H 503.157 1.32044 1.43354 0
M  V30 5429 H 502.253 1.05362 2.93778 0
M  V30 5430 N 502.554 -1.34406 0.822964 0
M  V30 5431 C 503.779 -2.0304 0.423034 0
M  V30 5432 C 504.204 -1.61568 -0.963196 0
M  V30 5433 O 503.562 -0.800339 -1.62678 0
M  V30 5434 C 503.61 -3.56636 0.53321 0
M  V30 5435 O 502.714 -4.09971 -0.446939 0
M  V30 5436 H 502.055 -0.64075 0.174171 0
M  V30 5437 H 504.585 -1.71653 1.11339 0
M  V30 5438 H 504.595 -4.05945 0.408991 0
M  V30 5439 H 503.27 -3.86168 1.54425 0
M  V30 5440 H 501.847 -3.71835 -0.281601 0
M  V30 5441 N 504.032 -0.577932 -1.46621 0
M  V30 5442 C 505.309 0.00495287 -1.95599 0
M  V30 5443 C 505.689 1.46428 -1.5206 0
M  V30 5444 O 505.037 2.1517 -0.769046 0
M  V30 5445 C 505.247 -0.162114 -3.48623 0
M  V30 5446 C 506.595 -0.0274623 -4.24591 0
M  V30 5447 O 507.619 -0.0907067 -3.56084 0
M  V30 5448 O 506.478 0.1122 -5.46385 0
M  V30 5449 H 503.572 0.0525057 -0.825332 0
M  V30 5450 H 506.118 -0.645914 -1.56927 0
M  V30 5451 H 504.89 -1.17679 -3.73185 0
M  V30 5452 H 504.513 0.525407 -3.94113 0
M  V30 5453 N 505.51 1.54411 -0.315457 0
M  V30 5454 C 506.473 2.22713 0.54142 0
M  V30 5455 C 507.473 1.2179 1.04995 0
M  V30 5456 O 508.663 1.46426 0.943667 0
M  V30 5457 C 505.795 2.92485 1.75116 0
M  V30 5458 H 506.988 2.99849 -0.0555508 0
M  V30 5459 H 504.541 1.56159 -0.0664453 0
M  V30 5460 H 505.276 2.19466 2.38758 0
M  V30 5461 H 505.061 3.66483 1.39401 0
M  V30 5462 H 506.551 3.44548 2.35959 0
M  V30 5463 N 506.988 0.0434614 1.5754 0
M  V30 5464 C 508.236 -0.630786 1.92004 0
M  V30 5465 C 508.557 -1.71836 0.921807 0
M  V30 5466 O 507.827 -1.9587 -0.034522 0
M  V30 5467 H 506.407 -0.235988 0.708745 0
M  V30 5468 H 509.069 0.0946462 1.9467 0
M  V30 5469 H 508.165 -1.07434 2.93026 0
M  V30 5470 N 508.466 -1.55915 -0.229846 0
M  V30 5471 C 509.398 -1.88209 -1.30805 0
M  V30 5472 C 510.411 -0.769672 -1.43457 0
M  V30 5473 O 511.6 -1.04792 -1.44502 0
M  V30 5474 C 508.7 -2.06829 -2.68468 0
M  V30 5475 C 507.873 -3.37798 -2.77869 0
M  V30 5476 C 506.932 -3.45952 -3.96489 0
M  V30 5477 O 505.958 -4.19043 -3.85216 0
M  V30 5478 N 507.16 -2.76488 -5.10426 0
M  V30 5479 H 509.925 -2.81286 -1.03431 0
M  V30 5480 H 507.486 -1.5636 -0.41991 0
M  V30 5481 H 509.478 -2.09608 -3.46189 0
M  V30 5482 H 508.048 -1.20416 -2.88477 0
M  V30 5483 H 507.268 -3.4719 -1.86689 0
M  V30 5484 H 508.556 -4.24091 -2.81113 0
M  V30 5485 H 507.954 -2.16868 -5.2248 0
M  V30 5486 H 506.511 -2.84938 -5.8622 0
M  V30 5487 N 509.944 0.496216 -1.49584 0
M  V30 5488 C 511.184 1.26015 -1.60933 0
M  V30 5489 C 511.548 1.89772 -0.291646 0
M  V30 5490 O 512.749 2.67334 -0.280357 0
M  V30 5491 C 511.02 2.29506 -2.73974 0
M  V30 5492 S 512.579 3.15175 -3.05303 0
M  V30 5493 H 509.397 0.428194 -0.567601 0
M  V30 5494 H 511.999 0.561484 -1.87263 0
M  V30 5495 H 510.703 1.81205 -3.68229 0
M  V30 5496 H 510.234 3.04036 -2.49651 0
M  V30 5497 H 512.249 4.30244 -2.47193 0
M  V30 5498 N 511.423 1.38739 0.74761 0
M  V30 5499 C 512.834 1.31507 1.32524 0
M  V30 5500 C 513.185 -0.0263963 1.96182 0
M  V30 5501 O 512.31 -0.92849 1.95469 0
M  V30 5502 C 512.905 2.38162 2.40966 0
M  V30 5503 C 511.464 2.34489 2.94434 0
M  V30 5504 C 510.611 2.20712 1.67873 0
M  V30 5505 H 513.562 1.4901 0.546043 0
M  V30 5506 H 513.583 2.04222 3.21051 0
M  V30 5507 H 513.095 3.35783 1.94605 0
M  V30 5508 H 511.196 1.40467 3.45108 0
M  V30 5509 H 511.309 3.28861 3.48407 0
M  V30 5510 H 509.673 1.67667 1.91729 0
M  V30 5511 H 510.456 3.20285 1.23582 0
M  V30 5512 N 512.901 -0.976442 1.23707 0
M  V30 5513 C 513.811 -2.10359 1.03856 0
M  V30 5514 C 514.827 -1.73991 -0.0180919 0
M  V30 5515 O 516.003 -2.0061 0.178211 0
M  V30 5516 C 513.068 -3.40809 0.636387 0
M  V30 5517 C 512.129 -3.91179 1.76854 0
M  V30 5518 C 511.362 -5.15404 1.38546 0
M  V30 5519 O 511.585 -5.69754 0.27142 0
M  V30 5520 O 510.519 -5.5994 2.20797 0
M  V30 5521 H 514.345 -2.29997 1.98331 0
M  V30 5522 H 511.93 -1.08742 1.02448 0
M  V30 5523 H 513.812 -4.19269 0.423223 0
M  V30 5524 H 512.487 -3.22493 -0.279322 0
M  V30 5525 H 511.394 -3.13819 2.03638 0
M  V30 5526 H 512.727 -4.13958 2.6627 0
M  V30 5527 N 514.379 -1.04941 -1.1758 0
M  V30 5528 C 515.627 -0.756492 -1.87408 0
M  V30 5529 C 515.948 0.718478 -1.81281 0
M  V30 5530 O 515.218 1.519 -1.23706 0
M  V30 5531 H 513.798 -0.276841 -0.693807 0
M  V30 5532 H 516.46 -1.32803 -1.42652 0
M  V30 5533 H 515.556 -1.06918 -2.93215 0
M  V30 5534 N 515.857 1.33968 -0.830081 0
M  V30 5535 C 517.087 2.01987 -0.434142 0
M  V30 5536 C 517.495 1.62639 0.96671 0
M  V30 5537 O 516.838 0.831151 1.63822 0
M  V30 5538 C 516.9 3.5648 -0.465018 0
M  V30 5539 C 516.564 4.19176 -1.82045 0
M  V30 5540 C 517.561 4.39181 -2.78237 0
M  V30 5541 C 515.246 4.55792 -2.11089 0
M  V30 5542 C 517.24 4.94937 -4.01642 0
M  V30 5543 C 514.927 5.11258 -3.34752 0
M  V30 5544 C 515.925 5.30775 -4.29845 0
M  V30 5545 O 515.613 5.85064 -5.51322 0
M  V30 5546 H 515.345 0.653847 -0.171639 0
M  V30 5547 H 517.899 1.72066 -1.12171 0
M  V30 5548 H 516.129 3.8569 0.279284 0
M  V30 5549 H 517.818 4.05804 -0.0881334 0
M  V30 5550 H 518.584 4.11249 -2.57097 0
M  V30 5551 H 514.463 4.39901 -1.3787 0
M  V30 5552 H 518.007 5.10086 -4.75876 0
M  V30 5553 H 513.904 5.38619 -3.55753 0
M  V30 5554 H 514.672 6.03489 -5.5294 0
M  V30 5555 N 517.335 0.585699 1.46312 0
M  V30 5556 C 518.584 0.0701192 2.01578 0
M  V30 5557 C 518.897 -1.29889 1.46247 0
M  V30 5558 O 520.103 -1.90598 1.93351 0
M  V30 5559 C 518.559 0.0747499 3.59822 0
M  V30 5560 C 518.167 1.44226 4.24149 0
M  V30 5561 C 519.911 -0.38673 4.22735 0
M  V30 5562 C 517.818 1.40446 5.74481 0
M  V30 5563 H 516.748 0.0224441 0.753666 0
M  V30 5564 H 519.399 0.737789 1.68015 0
M  V30 5565 H 517.781 -0.659144 3.90476 0
M  V30 5566 H 518.955 2.19612 4.05101 0
M  V30 5567 H 517.27 1.84401 3.73343 0
M  V30 5568 H 519.867 -0.433853 5.32937 0
M  V30 5569 H 520.21 -1.40489 3.91878 0
M  V30 5570 H 520.743 0.293195 3.96718 0
M  V30 5571 H 517.482 2.39952 6.10003 0
M  V30 5572 H 517.002 0.692845 5.95785 0
M  V30 5573 H 518.681 1.11865 6.37256 0
M  V30 5574 N 518.813 -1.54241 0.323641 0
M  V30 5575 C 520.053 -2.0248 -0.279502 0
M  V30 5576 C 520.417 -1.20672 -1.49339 0
M  V30 5577 O 521.618 -1.58715 -2.1694 0
M  V30 5578 C 519.889 -3.52238 -0.605266 0
M  V30 5579 S 521.448 -4.22411 -1.18805 0
M  V30 5580 H 518.266 -0.705957 -0.0845313 0
M  V30 5581 H 520.868 -1.90089 0.456781 0
M  V30 5582 H 519.572 -4.094 0.286339 0
M  V30 5583 H 519.103 -3.6871 -1.37174 0
M  V30 5584 H 521.118 -4.30075 -2.47487 0
M  V30 5585 N 520.291 -0.0518155 -1.57515 0
M  V30 5586 C 521.537 0.622745 -1.93002 0
M  V30 5587 C 521.87 1.70456 -0.930499 0
M  V30 5588 O 521.145 1.94452 0.0434086 0
M  V30 5589 C 521.428 1.21824 -3.38867 0
M  V30 5590 C 521.281 0.144434 -4.49568 0
M  V30 5591 C 522.6 2.12968 -3.8514 0
M  V30 5592 H 519.719 0.22491 -0.701844 0
M  V30 5593 H 522.361 -0.113711 -1.89659 0
M  V30 5594 H 520.511 1.8459 -3.41846 0
M  V30 5595 H 522.183 -0.48753 -4.58717 0
M  V30 5596 H 520.426 -0.527424 -4.30582 0
M  V30 5597 H 521.097 0.601127 -5.48717 0
M  V30 5598 H 523.573 1.60163 -3.8404 0
M  V30 5599 H 522.449 2.51578 -4.87852 0
M  V30 5600 H 522.71 3.03004 -3.21934 0
M  V30 5601 N 521.769 1.56035 0.221574 0
M  V30 5602 C 522.716 1.92413 1.27459 0
M  V30 5603 C 523.686 0.781323 1.46576 0
M  V30 5604 O 524.871 1.03721 1.60145 0
M  V30 5605 C 522.011 2.24617 2.61995 0
M  V30 5606 C 521.124 3.51831 2.50677 0
M  V30 5607 C 520.259 3.73482 3.77736 0
M  V30 5608 C 519.298 4.94211 3.6114 0
M  V30 5609 N 518.435 5.12252 4.80148 0
M  V30 5610 H 523.275 2.82203 0.957355 0
M  V30 5611 H 520.812 1.39676 0.461415 0
M  V30 5612 H 522.77 2.41298 3.40339 0
M  V30 5613 H 521.4 1.38 2.91815 0
M  V30 5614 H 520.452 3.43343 1.63767 0
M  V30 5615 H 521.764 4.40328 2.34334 0
M  V30 5616 H 520.918 3.9026 4.64523 0
M  V30 5617 H 519.657 2.83266 3.97003 0
M  V30 5618 H 518.662 4.77384 2.72736 0
M  V30 5619 H 519.887 5.85912 3.43343 0
M  V30 5620 H 517.833 4.24978 4.99729 0
M  V30 5621 H 517.75 5.94881 4.66532 0
M  V30 5622 H 519.018 5.33465 5.68362 0
M  V30 5623 N 523.247 -0.488276 1.49845 0
M  V30 5624 C 524.21 -1.57069 1.66919 0
M  V30 5625 C 525.21 -1.51445 0.540479 0
M  V30 5626 O 526.4 -1.5437 0.807188 0
M  V30 5627 C 523.532 -2.96718 1.67844 0
M  V30 5628 H 524.725 -1.43254 2.63474 0
M  V30 5629 H 522.278 -0.713435 1.39068 0
M  V30 5630 H 523.013 -3.15996 0.7292 0
M  V30 5631 H 522.798 -3.02208 2.49826 0
M  V30 5632 H 524.288 -3.75335 1.83066 0
M  V30 5633 N 524.725 -1.39134 -0.740242 0
M  V30 5634 C 525.973 -1.35803 -1.49673 0
M  V30 5635 C 526.294 0.0470897 -1.94943 0
M  V30 5636 O 525.564 0.997347 -1.68611 0
M  V30 5637 H 524.144 -0.499736 -0.555224 0
M  V30 5638 H 526.806 -1.73947 -0.879107 0
M  V30 5639 H 525.902 -2.0174 -2.38133 0
M  V30 5640 N 526.204 0.969867 -1.24223 0
M  V30 5641 C 527.62 1.23809 -1.00716 0
M  V30 5642 C 527.82 1.99469 0.285358 0
M  V30 5643 O 526.876 2.31764 1.00207 0
M  V30 5644 C 528.189 2.02734 -2.2208 0
M  V30 5645 C 529.737 2.15834 -2.26681 0
M  V30 5646 C 530.212 2.98154 -3.47661 0
M  V30 5647 N 531.703 3.05737 -3.47964 0
M  V30 5648 C 532.438 3.69785 -4.38231 0
M  V30 5649 N 531.934 4.35569 -5.3875 0
M  V30 5650 N 533.727 3.66775 -4.25949 0
M  V30 5651 H 525.878 0.463294 -2.07286 0
M  V30 5652 H 528.141 0.267348 -0.909521 0
M  V30 5653 H 527.847 1.54524 -3.15935 0
M  V30 5654 H 527.721 3.0347 -2.24021 0
M  V30 5655 H 530.108 2.63248 -1.33359 0
M  V30 5656 H 530.189 1.14453 -2.28767 0
M  V30 5657 H 529.833 2.51435 -4.41297 0
M  V30 5658 H 529.763 3.99729 -3.42818 0
M  V30 5659 H 532.254 2.58941 -2.75242 0
M  V30 5660 H 532.567 4.82251 -6.03866 0
M  V30 5661 H 530.912 4.34244 -5.42639 0
M  V30 5662 H 534.103 3.14558 -3.46657 0
M  V30 5663 H 534.276 4.16407 -4.96497 0
M  V30 5664 N 527.682 1.05563 1.17022 0
M  V30 5665 C 528.63 0.653887 2.2322 0
M  V30 5666 C 529.624 -0.326642 1.66221 0
M  V30 5667 O 530.83 -0.192301 1.7897 0
M  V30 5668 H 527.205 0.193297 0.726733 0
M  V30 5669 H 529.176 1.5596 2.54399 0
M  V30 5670 C 527.925 0.0485434 3.47666 0
M  V30 5671 H 527.248 0.79413 3.91834 0
M  V30 5672 H 528.688 -0.195133 4.23551 0
M  V30 5673 C 527.147 -1.20583 3.14581 0
M  V30 5674 O 527.677 -2.29475 3.29703 0
M  V30 5675 N 525.883 -1.10493 2.68774 0
M  V30 5676 H 525.43 -0.218795 2.56669 0
M  V30 5677 H 525.388 -1.94507 2.47011 0
M  V30 5678 N 529.16 -1.33526 0.837174 0
M  V30 5679 C 530.571 -1.80182 0.489017 0
M  V30 5680 C 530.922 -1.69285 -0.991826 0
M  V30 5681 O 530.047 -1.24113 -1.77271 0
M  V30 5682 C 530.642 -3.27149 0.880866 0
M  V30 5683 C 529.201 -3.71828 0.584872 0
M  V30 5684 C 528.348 -2.54974 1.09011 0
M  V30 5685 H 531.299 -1.21071 1.02603 0
M  V30 5686 H 531.32 -3.80024 0.190239 0
M  V30 5687 H 530.832 -3.35048 1.95869 0
M  V30 5688 H 528.933 -3.69457 -0.48295 0
M  V30 5689 H 529.046 -4.65366 1.13892 0
M  V30 5690 H 527.41 -2.4952 0.511047 0
M  V30 5691 H 528.193 -2.65637 2.17467 0
M  V30 5692 N 530.638 -0.59345 -1.46 0
M  V30 5693 C 531.586 0.146268 -2.3214 0
M  V30 5694 C 532.58 0.873743 -1.45128 0
M  V30 5695 O 533.786 0.790912 -1.61693 0
M  V30 5696 H 530.161 0.0660349 -0.749095 0
M  V30 5697 H 532.132 -0.598895 -2.92328 0
M  V30 5698 C 530.881 1.1396 -3.28494 0
M  V30 5699 H 530.204 0.589252 -3.95434 0
M  V30 5700 H 531.644 1.62738 -3.91526 0
M  V30 5701 C 530.103 2.20604 -2.54628 0
M  V30 5702 O 530.633 3.28128 -2.31722 0
M  V30 5703 N 528.839 1.95502 -2.15005 0
M  V30 5704 H 528.386 1.0807 -2.33834 0
M  V30 5705 H 528.344 2.67064 -1.65904 0
M  V30 5706 N 532.116 1.54067 -0.331816 0
M  V30 5707 C 533.346 2.04833 0.269605 0
M  V30 5708 C 533.754 1.20714 1.45687 0
M  V30 5709 O 533.097 0.232539 1.82222 0
M  V30 5710 C 533.159 3.51386 0.759499 0
M  V30 5711 C 532.823 4.55971 -0.306557 0
M  V30 5712 C 533.82 5.07126 -1.14538 0
M  V30 5713 C 531.505 5.00216 -0.457116 0
M  V30 5714 C 533.499 6.01096 -2.12042 0
M  V30 5715 C 531.186 5.93999 -1.43556 0
M  V30 5716 C 532.184 6.44326 -2.26568 0
M  V30 5717 O 531.872 7.36267 -3.22749 0
M  V30 5718 H 531.604 0.673509 0.0579763 0
M  V30 5719 H 534.158 1.99748 -0.478521 0
M  V30 5720 H 532.388 3.53896 1.55867 0
M  V30 5721 H 534.077 3.85184 1.28017 0
M  V30 5722 H 534.843 4.73716 -1.04009 0
M  V30 5723 H 530.722 4.60652 0.179142 0
M  V30 5724 H 534.266 6.40302 -2.76873 0
M  V30 5725 H 530.163 6.26825 -1.54146 0
M  V30 5726 H 530.931 7.54165 -3.18083 0
M  V30 5727 N 533.594 0.0601682 1.57485 0
M  V30 5728 C 534.842 -0.610386 1.92662 0
M  V30 5729 C 535.163 -1.70849 0.939981 0
M  V30 5730 O 534.433 -1.95895 -0.0137455 0
M  V30 5731 H 533.013 -0.228457 0.711208 0
M  V30 5732 H 535.675 0.115288 1.94559 0
M  V30 5733 H 534.771 -1.0432 2.94149 0
M  V30 5734 N 535.072 -1.5615 -0.213296 0
M  V30 5735 C 536.302 -1.83372 -0.951757 0
M  V30 5736 C 536.71 -0.638158 -1.78113 0
M  V30 5737 O 536.053 0.402609 -1.79234 0
M  V30 5738 C 536.115 -3.04444 -1.91192 0
M  V30 5739 C 535.779 -4.39107 -1.26627 0
M  V30 5740 C 536.776 -5.15794 -0.652087 0
M  V30 5741 C 534.461 -4.85834 -1.27556 0
M  V30 5742 C 536.455 -6.37376 -0.055814 0
M  V30 5743 C 534.142 -6.07356 -0.675451 0
M  V30 5744 C 535.14 -6.82967 -0.0666367 0
M  V30 5745 O 534.828 -8.0219 0.524119 0
M  V30 5746 H 534.56 -0.613398 -0.284111 0
M  V30 5747 H 537.114 -2.04096 -0.231112 0
M  V30 5748 H 535.344 -2.79559 -2.67178 0
M  V30 5749 H 537.033 -3.18466 -2.51662 0
M  V30 5750 H 537.799 -4.80796 -0.637172 0
M  V30 5751 H 533.678 -4.26949 -1.73883 0
M  V30 5752 H 537.222 -6.96334 0.420004 0
M  V30 5753 H 533.119 -6.41825 -0.687806 0
M  V30 5754 H 533.887 -8.17426 0.419243 0
M  V30 5755 N 536.55 0.480323 -1.50102 0
M  V30 5756 C 537.778 1.25657 -1.64371 0
M  V30 5757 C 538.193 1.86011 -0.323316 0
M  V30 5758 O 537.55 1.68803 0.693682 0
M  V30 5759 C 537.601 2.37197 -2.728 0
M  V30 5760 O 537.322 1.7932 -3.9972 0
M  V30 5761 C 538.823 3.2823 -2.9796 0
M  V30 5762 H 536.043 0.380369 -0.552775 0
M  V30 5763 H 538.587 0.574379 -1.96268 0
M  V30 5764 H 536.742 3.01208 -2.43623 0
M  V30 5765 H 537.156 2.52701 -4.59611 0
M  V30 5766 H 538.63 4.02725 -3.77513 0
M  V30 5767 H 539.107 3.86462 -2.08671 0
M  V30 5768 H 539.713 2.69964 -3.28633 0
M  V30 5769 N 538.028 1.39524 0.732853 0
M  V30 5770 C 539.253 1.40329 1.52717 0
M  V30 5771 C 539.678 0.000286574 1.881 0
M  V30 5772 O 539.036 -0.987262 1.52062 0
M  V30 5773 C 539.084 2.28464 2.78992 0
M  V30 5774 O 538.188 1.716 3.75003 0
M  V30 5775 H 537.529 0.47778 0.461109 0
M  V30 5776 H 540.059 1.83546 0.903996 0
M  V30 5777 H 540.069 2.43051 3.27705 0
M  V30 5778 H 538.744 3.30425 2.52572 0
M  V30 5779 H 537.321 1.66267 3.33781 0
M  V30 5780 N 539.506 -0.963266 1.24736 0
M  V30 5781 C 540.753 -1.7068 1.0897 0
M  V30 5782 C 541.081 -1.90934 -0.370751 0
M  V30 5783 O 540.336 -1.47155 -1.29011 0
M  V30 5784 C 540.635 -3.09944 1.7796 0
M  V30 5785 C 540.301 -3.09518 3.27887 0
M  V30 5786 C 538.963 -3.09109 3.68789 0
M  V30 5787 C 541.315 -3.03509 4.23712 0
M  V30 5788 C 538.643 -3.00429 5.03944 0
M  V30 5789 C 540.995 -2.96371 5.5888 0
M  V30 5790 C 539.659 -2.94293 5.99123 0
M  V30 5791 H 538.929 -0.624564 0.398749 0
M  V30 5792 H 541.576 -1.12603 1.54896 0
M  V30 5793 H 539.881 -3.71513 1.2444 0
M  V30 5794 H 541.578 -3.66278 1.63222 0
M  V30 5795 H 538.168 -3.10603 2.95337 0
M  V30 5796 H 542.352 -3.0295 3.93109 0
M  V30 5797 H 537.608 -2.97183 5.34314 0
M  V30 5798 H 541.782 -2.90681 6.32833 0
M  V30 5799 H 539.409 -2.87322 7.03811 0
M  V30 5800 N 540.985 -1.06182 -1.16461 0
M  V30 5801 C 542.262 -0.691364 -1.82974 0
M  V30 5802 C 542.642 0.827377 -1.9421 0
M  V30 5803 O 541.99 1.73723 -1.48434 0
M  V30 5804 C 542.2 -1.39199 -3.20038 0
M  V30 5805 C 543.548 -1.53647 -3.95825 0
M  V30 5806 O 544.572 -1.35181 -3.29552 0
M  V30 5807 O 543.431 -1.83932 -5.14618 0
M  V30 5808 H 540.525 -0.244605 -0.789998 0
M  V30 5809 H 543.071 -1.16203 -1.23673 0
M  V30 5810 H 541.843 -2.42766 -3.06888 0
M  V30 5811 H 541.466 -0.911335 -3.87015 0
M  V30 5812 N 542.463 1.3308 -0.844243 0
M  V30 5813 C 543.691 2.01808 -0.456203 0
M  V30 5814 C 544.106 1.63498 0.944131 0
M  V30 5815 O 543.463 0.85102 1.61443 0
M  V30 5816 C 543.514 3.56922 -0.573513 0
M  V30 5817 O 543.235 3.93851 -1.91868 0
M  V30 5818 C 544.736 4.42922 -0.183125 0
M  V30 5819 H 541.956 0.646273 -0.180477 0
M  V30 5820 H 544.5 1.69891 -1.1383 0
M  V30 5821 H 542.655 3.87352 0.0607367 0
M  V30 5822 H 543.069 4.88564 -1.90802 0
M  V30 5823 H 544.543 5.51093 -0.316241 0
M  V30 5824 H 545.02 4.30386 0.875477 0
M  V30 5825 H 545.626 4.1786 -0.792027 0
M  V30 5826 N 543.941 0.601185 1.45683 0
M  V30 5827 C 545.188 0.0938811 2.02282 0
M  V30 5828 C 545.516 -1.27315 1.47041 0
M  V30 5829 O 544.771 -1.85193 0.632623 0
M  V30 5830 C 545.07 -0.00222425 3.574 0
M  V30 5831 C 544.736 1.29963 4.31764 0
M  V30 5832 C 543.398 1.65625 4.51798 0
M  V30 5833 C 545.75 2.1603 4.74321 0
M  V30 5834 C 543.078 2.87119 5.11644 0
M  V30 5835 C 545.43 3.36766 5.3551 0
M  V30 5836 C 544.094 3.72689 5.53768 0
M  V30 5837 H 543.364 0.0343535 0.740203 0
M  V30 5838 H 546.011 0.781522 1.74827 0
M  V30 5839 H 544.316 -0.773096 3.84097 0
M  V30 5840 H 546.013 -0.410794 3.9889 0
M  V30 5841 H 542.603 1.01204 4.1648 0
M  V30 5842 H 546.787 1.89778 4.58582 0
M  V30 5843 H 542.043 3.15065 5.2397 0
M  V30 5844 H 546.217 4.03713 5.67441 0
M  V30 5845 H 543.844 4.66918 5.99909 0
M  V30 5846 N 545.419 -1.53889 0.339982 0
M  V30 5847 C 546.644 -2.05741 -0.261798 0
M  V30 5848 C 547.069 -1.21354 -1.43718 0
M  V30 5849 O 546.427 -0.22645 -1.7988 0
M  V30 5850 C 546.475 -3.54542 -0.658228 0
M  V30 5851 O 545.579 -3.7302 -1.75869 0
M  V30 5852 H 544.92 -0.662529 -0.0441672 0
M  V30 5853 H 547.45 -1.98568 0.493161 0
M  V30 5854 H 547.46 -3.9711 -0.936368 0
M  V30 5855 H 546.135 -4.15412 0.201358 0
M  V30 5856 H 544.712 -3.42355 -1.47809 0
M  V30 5857 N 546.897 -0.0685191 -1.57451 0
M  V30 5858 C 548.143 0.596247 -1.94465 0
M  V30 5859 C 548.498 1.67417 -0.948117 0
M  V30 5860 O 547.791 1.91576 0.0301056 0
M  V30 5861 C 547.985 1.22051 -3.35914 0
M  V30 5862 C 547.814 0.204586 -4.49234 0
M  V30 5863 C 546.584 -0.20959 -5.04865 0
M  V30 5864 C 548.782 -0.556872 -5.11276 0
M  V30 5865 N 546.764 -1.21656 -6.01725 0
M  V30 5866 C 548.135 -1.41642 -6.03604 0
M  V30 5867 C 550.19 -0.613297 -4.94108 0
M  V30 5868 C 548.893 -2.32737 -6.80607 0
M  V30 5869 C 550.919 -1.51174 -5.71752 0
M  V30 5870 C 550.281 -2.35898 -6.63726 0
M  V30 5871 H 546.38 0.189307 -0.75874 0
M  V30 5872 H 548.964 -0.144899 -1.9416 0
M  V30 5873 H 547.135 1.9316 -3.36963 0
M  V30 5874 H 548.867 1.84548 -3.60172 0
M  V30 5875 H 545.622 0.172871 -4.73284 0
M  V30 5876 H 546.046 -1.71746 -6.54853 0
M  V30 5877 H 550.688 0.0275228 -4.22791 0
M  V30 5878 H 548.406 -2.97856 -7.51204 0
M  V30 5879 H 551.992 -1.5602 -5.6049 0
M  V30 5880 H 550.872 -3.04291 -7.22756 0
M  V30 5881 N 548.375 1.56261 0.205012 0
M  V30 5882 C 549.338 1.92908 1.23771 0
M  V30 5883 C 550.338 0.809208 1.38955 0
M  V30 5884 O 551.528 1.07676 1.36936 0
M  V30 5885 C 548.66 2.19442 2.60879 0
M  V30 5886 H 549.853 2.85287 0.924728 0
M  V30 5887 H 547.406 1.49798 0.446125 0
M  V30 5888 H 548.141 1.29668 2.97248 0
M  V30 5889 H 547.926 3.0104 2.51232 0
M  V30 5890 H 549.416 2.48833 3.35368 0
M  V30 5891 N 549.853 -0.472356 1.50355 0
M  V30 5892 C 551.1 -1.22453 1.61281 0
M  V30 5893 C 551.428 -1.91972 0.31256 0
M  V30 5894 O 550.683 -1.82696 -0.701475 0
M  V30 5895 C 550.982 -2.29257 2.74182 0
M  V30 5896 C 550.648 -1.76999 4.14708 0
M  V30 5897 C 549.31 -1.62467 4.52944 0
M  V30 5898 C 551.662 -1.38215 5.0254 0
M  V30 5899 C 548.99 -1.07574 5.76754 0
M  V30 5900 C 551.342 -0.847638 6.26895 0
M  V30 5901 C 550.006 -0.688946 6.63935 0
M  V30 5902 H 549.276 -0.448087 0.590168 0
M  V30 5903 H 551.923 -0.520744 1.84284 0
M  V30 5904 H 550.228 -3.05538 2.45263 0
M  V30 5905 H 551.925 -2.87212 2.7984 0
M  V30 5906 H 548.515 -1.89276 3.84542 0
M  V30 5907 H 552.699 -1.48276 4.73633 0
M  V30 5908 H 547.955 -0.940237 6.04127 0
M  V30 5909 H 552.129 -0.538455 6.94315 0
M  V30 5910 H 549.756 -0.261435 7.5975 0
M  V30 5911 N 551.331 -1.39911 -0.725443 0
M  V30 5912 C 552.261 -1.42138 -1.85254 0
M  V30 5913 C 553.242 -0.283513 -1.67721 0
M  V30 5914 O 554.427 -0.490717 -1.87898 0
M  V30 5915 C 551.557 -1.27354 -3.23107 0
M  V30 5916 C 550.511 -2.3864 -3.55296 0
M  V30 5917 C 549.837 -2.08939 -4.92188 0
M  V30 5918 C 551.137 -3.8097 -3.57295 0
M  V30 5919 H 552.831 -2.36461 -1.83648 0
M  V30 5920 H 550.377 -1.13817 -0.882138 0
M  V30 5921 H 552.33 -1.2753 -4.01639 0
M  V30 5922 H 551.054 -0.295025 -3.25265 0
M  V30 5923 H 549.713 -2.37696 -2.79099 0
M  V30 5924 H 549.361 -1.09502 -4.90936 0
M  V30 5925 H 549.061 -2.83491 -5.14691 0
M  V30 5926 H 550.585 -2.10781 -5.73065 0
M  V30 5927 H 551.999 -3.8379 -4.25885 0
M  V30 5928 H 550.396 -4.5496 -3.9132 0
M  V30 5929 H 551.466 -4.11261 -2.5689 0
M  V30 5930 N 552.809 0.956637 -1.25245 0
M  V30 5931 C 554.034 1.74104 -1.12706 0
M  V30 5932 C 554.459 1.85436 0.315429 0
M  V30 5933 O 553.817 1.33334 1.22848 0
M  V30 5934 C 553.865 3.1338 -1.78396 0
M  V30 5935 O 552.969 3.98485 -1.06224 0
M  V30 5936 H 552.31 0.53476 -0.393609 0
M  V30 5937 H 554.84 1.19924 -1.65769 0
M  V30 5938 H 554.85 3.6385 -1.846 0
M  V30 5939 H 553.525 3.04448 -2.83345 0
M  V30 5940 H 552.102 3.56952 -1.07886 0
M  V30 5941 N 554.287 1.06798 1.15896 0
M  V30 5942 C 555.217 0.704677 2.22613 0
M  V30 5943 C 556.198 -0.305252 1.67339 0
M  V30 5944 O 557.383 -0.179247 1.93371 0
M  V30 5945 C 554.513 0.0957325 3.47168 0
M  V30 5946 C 553.467 1.0322 4.15367 0
M  V30 5947 C 552.793 0.286293 5.33933 0
M  V30 5948 C 554.093 2.36341 4.65768 0
M  V30 5949 H 555.787 1.59688 2.53259 0
M  V30 5950 H 553.333 0.769257 1.21731 0
M  V30 5951 H 555.286 -0.170333 4.21056 0
M  V30 5952 H 554.01 -0.831516 3.15838 0
M  V30 5953 H 552.669 1.28309 3.43413 0
M  V30 5954 H 552.317 -0.644237 4.98857 0
M  V30 5955 H 552.017 0.910436 5.80504 0
M  V30 5956 H 553.541 0.0278938 6.10594 0
M  V30 5957 H 554.955 2.1561 5.31211 0
M  V30 5958 H 553.352 2.94299 5.2298 0
M  V30 5959 H 554.422 2.99047 3.81705 0
M  V30 5960 N 555.766 -1.3263 0.851289 0
M  V30 5961 C 557.013 -1.97368 0.453023 0
M  V30 5962 C 557.341 -1.67384 -0.990596 0
M  V30 5963 O 556.596 -0.952665 -1.70947 0
M  V30 5964 C 556.895 -3.51713 0.635015 0
M  V30 5965 C 556.561 -4.01676 2.04859 0
M  V30 5966 C 555.223 -4.15031 2.43522 0
M  V30 5967 C 557.575 -4.28206 2.97135 0
M  V30 5968 C 554.903 -4.52257 3.73739 0
M  V30 5969 C 557.255 -4.66889 4.26846 0
M  V30 5970 C 555.919 -4.7845 4.65448 0
M  V30 5971 H 555.189 -0.722219 0.165773 0
M  V30 5972 H 557.836 -1.58092 1.0807 0
M  V30 5973 H 556.141 -3.91726 -0.0759081 0
M  V30 5974 H 557.838 -3.99823 0.306964 0
M  V30 5975 H 554.428 -3.91764 1.73836 0
M  V30 5976 H 558.612 -4.174 2.68498 0
M  V30 5977 H 553.868 -4.59402 4.03435 0
M  V30 5978 H 558.042 -4.86372 4.98413 0
M  V30 5979 H 555.669 -5.07052 5.66395 0
M  V30 5980 N 557.244 -0.608902 -1.45362 0
M  V30 5981 C 558.66 -0.272659 -1.57254 0
M  V30 5982 C 558.86 1.22477 -1.60005 0
M  V30 5983 O 557.916 2.00785 -1.53106 0
M  V30 5984 C 559.229 -0.944991 -2.85465 0
M  V30 5985 C 560.777 -0.921033 -2.99142 0
M  V30 5986 C 561.252 -1.5734 -4.30126 0
M  V30 5987 N 562.743 -1.53895 -4.36887 0
M  V30 5988 C 563.478 -2.01286 -5.36909 0
M  V30 5989 N 562.974 -2.56768 -6.43461 0
M  V30 5990 N 564.767 -1.92046 -5.28275 0
M  V30 5991 H 556.918 -1.58117 -1.4182 0
M  V30 5992 H 559.181 -0.662437 -0.678146 0
M  V30 5993 H 558.887 -1.99941 -2.89338 0
M  V30 5994 H 558.761 -0.469079 -3.74272 0
M  V30 5995 H 561.148 0.124846 -2.94836 0
M  V30 5996 H 561.229 -1.43522 -2.11743 0
M  V30 5997 H 560.873 -2.61862 -4.35191 0
M  V30 5998 H 560.803 -1.03422 -5.16344 0
M  V30 5999 H 563.294 -1.13366 -3.60495 0
M  V30 6000 H 563.607 -2.9072 -7.16032 0
M  V30 6001 H 561.952 -2.60808 -6.44208 0
M  V30 6002 H 565.143 -1.48439 -4.43941 0
M  V30 6003 H 565.316 -2.29293 -6.06077 0
M  V30 6004 N 558.722 1.53707 -0.348139 0
M  V30 6005 C 559.652 2.28111 0.498766 0
M  V30 6006 C 560.633 1.29851 1.09876 0
M  V30 6007 O 561.818 1.587 1.11928 0
M  V30 6008 C 558.948 3.05735 1.64753 0
M  V30 6009 C 557.902 4.11537 1.17565 0
M  V30 6010 C 557.228 4.77142 2.4133 0
M  V30 6011 C 558.528 5.21587 0.272844 0
M  V30 6012 H 560.222 2.99152 -0.121934 0
M  V30 6013 H 557.768 1.43875 -0.0600842 0
M  V30 6014 H 559.721 3.56526 2.24649 0
M  V30 6015 H 558.445 2.32354 2.2952 0
M  V30 6016 H 557.104 3.61665 0.599483 0
M  V30 6017 H 556.752 4.0035 3.04514 0
M  V30 6018 H 556.452 5.48626 2.10436 0
M  V30 6019 H 557.976 5.30719 3.01943 0
M  V30 6020 H 559.39 5.67986 0.778779 0
M  V30 6021 H 557.787 6.00074 0.0555849 0
M  V30 6022 H 558.857 4.79969 -0.689785 0
M  V30 6023 N 560.2 0.0768682 1.57412 0
M  V30 6024 C 561.133 -0.924685 2.08626 0
M  V30 6025 C 562.111 -1.28792 0.992542 0
M  V30 6026 O 563.295 -1.39634 1.26628 0
M  V30 6027 C 560.422 -2.23131 2.54814 0
M  V30 6028 C 559.468 -2.01928 3.75669 0
M  V30 6029 S 560.301 -1.27397 5.20125 0
M  V30 6030 C 561.457 -2.59329 5.69648 0
M  V30 6031 H 561.69 -0.488928 2.93252 0
M  V30 6032 H 559.223 -0.136014 1.538 0
M  V30 6033 H 561.181 -2.98226 2.82084 0
M  V30 6034 H 559.842 -2.63831 1.70447 0
M  V30 6035 H 559.035 -2.98639 4.05993 0
M  V30 6036 H 558.637 -1.34967 3.48798 0
M  V30 6037 H 560.929 -3.55394 5.76803 0
M  V30 6038 H 561.872 -2.33608 6.68456 0
M  V30 6039 H 562.28 -2.66767 4.9749 0
M  V30 6040 N 561.678 -1.56367 -0.196722 0
M  V30 6041 C 562.906 -1.84639 -0.933608 0
M  V30 6042 C 563.321 -0.659164 -1.76919 0
M  V30 6043 O 562.678 0.372142 -1.78665 0
M  V30 6044 C 562.729 -3.11694 -1.83109 0
M  V30 6045 O 562.45 -4.25838 -1.02924 0
M  V30 6046 C 563.951 -3.53132 -2.67979 0
M  V30 6047 H 561.171 -0.613188 -0.272473 0
M  V30 6048 H 563.715 -2.03475 -0.204465 0
M  V30 6049 H 561.87 -2.94759 -2.51387 0
M  V30 6050 H 562.284 -4.98178 -1.64069 0
M  V30 6051 H 563.758 -4.45005 -3.26611 0
M  V30 6052 H 564.235 -2.76045 -3.41608 0
M  V30 6053 H 564.841 -3.72592 -2.05074 0
M  V30 6054 N 563.156 0.464375 -1.50603 0
M  V30 6055 C 564.088 1.57916 -1.66118 0
M  V30 6056 C 565.101 1.53497 -0.54246 0
M  V30 6057 O 566.29 1.58763 -0.815877 0
M  V30 6058 C 563.39 2.96809 -1.63577 0
M  V30 6059 C 562.563 3.26026 -2.91592 0
M  V30 6060 C 561.622 4.44506 -2.81604 0
M  V30 6061 O 560.648 4.44484 -3.55559 0
M  V30 6062 N 561.85 5.46549 -1.95614 0
M  V30 6063 H 564.615 1.45022 -2.62276 0
M  V30 6064 H 562.176 0.652903 -1.48151 0
M  V30 6065 H 564.168 3.74048 -1.54499 0
M  V30 6066 H 562.738 3.03438 -0.751262 0
M  V30 6067 H 561.958 2.37337 -3.14746 0
M  V30 6068 H 563.246 3.42361 -3.76386 0
M  V30 6069 H 562.644 5.49391 -1.34854 0
M  V30 6070 H 561.201 6.22746 -1.92435 0
M  V30 6071 N 564.634 1.40294 0.718013 0
M  V30 6072 C 565.911 1.2894 1.47084 0
M  V30 6073 C 566.291 -0.0933625 2.10893 0
M  V30 6074 O 565.639 -1.10598 1.99951 0
M  V30 6075 C 565.849 2.4264 2.50852 0
M  V30 6076 C 567.197 2.8276 3.16752 0
M  V30 6077 O 568.221 2.42215 2.61171 0
M  V30 6078 O 567.08 3.528 4.17366 0
M  V30 6079 H 564.174 0.506236 0.653952 0
M  V30 6080 H 566.72 1.52208 0.750394 0
M  V30 6081 H 565.492 3.35009 2.022 0
M  V30 6082 H 565.115 2.21129 3.30435 0
M  V30 6083 N 566.112 -0.949982 1.2575 0
M  V30 6084 C 567.342 -1.72721 1.13363 0
M  V30 6085 C 567.75 -1.86562 -0.314842 0
M  V30 6086 O 567.093 -1.36621 -1.22803 0
M  V30 6087 C 567.155 -3.15695 1.7198 0
M  V30 6088 C 566.819 -3.25268 3.21014 0
M  V30 6089 C 567.816 -3.09222 4.17945 0
M  V30 6090 C 565.501 -3.4894 3.61312 0
M  V30 6091 C 567.495 -3.16701 5.53154 0
M  V30 6092 C 565.182 -3.56055 4.96657 0
M  V30 6093 C 566.18 -3.3995 5.92387 0
M  V30 6094 O 565.868 -3.46757 7.25269 0
M  V30 6095 H 565.6 -0.547888 0.395973 0
M  V30 6096 H 568.154 -1.20009 1.66694 0
M  V30 6097 H 566.384 -3.69791 1.13101 0
M  V30 6098 H 568.073 -3.75295 1.54624 0
M  V30 6099 H 568.839 -2.90798 3.88151 0
M  V30 6100 H 564.718 -3.60534 2.87291 0
M  V30 6101 H 568.262 -3.04048 6.27854 0
M  V30 6102 H 564.159 -3.73997 5.26115 0
M  V30 6103 H 564.927 -3.63358 7.33426 0
M  V30 6104 N 567.59 -1.07411 -1.15328 0
M  V30 6105 C 568.836 -0.808666 -1.86634 0
M  V30 6106 C 569.191 0.65816 -1.80793 0
M  V30 6107 O 568.484 1.47689 -1.22059 0
M  V30 6108 C 568.678 -1.25191 -3.34757 0
M  V30 6109 C 568.507 -2.76028 -3.55019 0
M  V30 6110 C 567.277 -3.43644 -3.70455 0
M  V30 6111 C 569.475 -3.74224 -3.5279 0
M  V30 6112 N 567.457 -4.83117 -3.78776 0
M  V30 6113 C 568.828 -4.9954 -3.67233 0
M  V30 6114 C 570.883 -3.67373 -3.36068 0
M  V30 6115 C 569.586 -6.18819 -3.66682 0
M  V30 6116 C 571.612 -4.86116 -3.36816 0
M  V30 6117 C 570.974 -6.10266 -3.51789 0
M  V30 6118 H 567.073 -0.348478 -0.700062 0
M  V30 6119 H 569.657 -1.37049 -1.38295 0
M  V30 6120 H 567.828 -0.717775 -3.8171 0
M  V30 6121 H 569.56 -0.933936 -3.93776 0
M  V30 6122 H 566.315 -2.94051 -3.71256 0
M  V30 6123 H 566.739 -5.55705 -3.86679 0
M  V30 6124 H 571.381 -2.72334 -3.2341 0
M  V30 6125 H 569.099 -7.14179 -3.78118 0
M  V30 6126 H 572.685 -4.82492 -3.25103 0
M  V30 6127 H 571.565 -7.00609 -3.52301 0
M  V30 6128 N 569.068 1.32177 -0.85831 0
M  V30 6129 C 569.978 2.32561 -0.308606 0
M  V30 6130 C 570.994 1.64209 0.575462 0
M  V30 6131 O 572.17 1.95719 0.474961 0
M  V30 6132 C 569.235 3.43207 0.490909 0
M  V30 6133 C 568.296 4.27243 -0.419733 0
M  V30 6134 C 567.529 5.32605 0.341719 0
M  V30 6135 O 567.752 5.48332 1.57125 0
M  V30 6136 O 566.686 6.0118 -0.294379 0
M  V30 6137 H 570.512 2.81477 -1.14037 0
M  V30 6138 H 568.097 1.35866 -0.621349 0
M  V30 6139 H 569.979 4.10677 0.944574 0
M  V30 6140 H 568.654 2.96474 1.29941 0
M  V30 6141 H 567.561 3.62569 -0.921652 0
M  V30 6142 H 568.894 4.7751 -1.19352 0
M  V30 6143 N 570.547 0.616602 1.45037 0
M  V30 6144 C 571.495 -0.109318 2.32343 0
M  V30 6145 C 572.489 -0.850543 1.465 0
M  V30 6146 O 573.695 -0.765088 1.62931 0
M  V30 6147 H 570.07 -0.0541091 0.750051 0
M  V30 6148 H 572.041 0.645326 2.91338 0
M  V30 6149 C 570.79 -1.0872 3.30266 0
M  V30 6150 H 570.113 -0.526267 3.96321 0
M  V30 6151 H 571.553 -1.56489 3.94065 0
M  V30 6152 C 570.012 -2.16525 2.58105 0
M  V30 6153 O 570.542 -3.244 2.36913 0
M  V30 6154 N 568.748 -1.92057 2.18088 0
M  V30 6155 H 568.295 -1.04337 2.35524 0
M  V30 6156 H 568.253 -2.64391 1.70131 0
M  V30 6157 N 572.025 -1.5352 0.356285 0
M  V30 6158 C 572.955 -2.28372 -0.486661 0
M  V30 6159 C 573.936 -1.30432 -1.09185 0
M  V30 6160 O 575.121 -1.59291 -1.11085 0
M  V30 6161 C 572.251 -3.06604 -1.63129 0
M  V30 6162 C 571.205 -4.12154 -1.15381 0
M  V30 6163 C 570.531 -4.78415 -2.38796 0
M  V30 6164 C 571.831 -5.21724 -0.245179 0
M  V30 6165 H 573.525 -2.99083 0.137797 0
M  V30 6166 H 571.071 -1.43841 0.0677134 0
M  V30 6167 H 573.024 -3.57712 -2.22755 0
M  V30 6168 H 571.748 -2.33568 -2.28284 0
M  V30 6169 H 570.407 -3.61978 -0.580294 0
M  V30 6170 H 570.055 -4.01959 -3.02387 0
M  V30 6171 H 569.755 -5.49734 -2.07524 0
M  V30 6172 H 571.279 -5.32313 -2.99125 0
M  V30 6173 H 572.693 -5.68391 -0.748646 0
M  V30 6174 H 571.09 -6.00095 -0.0237608 0
M  V30 6175 H 572.16 -4.79596 0.715229 0
M  V30 6176 N 573.503 -0.0852151 -1.57369 0
M  V30 6177 C 574.733 0.588605 -1.98038 0
M  V30 6178 C 575.141 1.62869 -0.962817 0
M  V30 6179 O 574.484 1.83611 0.057134 0
M  V30 6180 C 574.546 1.30303 -3.35054 0
M  V30 6181 C 574.21 0.414855 -4.55113 0
M  V30 6182 C 575.207 -0.333011 -5.18832 0
M  V30 6183 C 572.892 0.335804 -5.01176 0
M  V30 6184 C 574.886 -1.14801 -6.26976 0
M  V30 6185 C 572.573 -0.482857 -6.09189 0
M  V30 6186 C 573.571 -1.22342 -6.71953 0
M  V30 6187 O 573.259 -2.02855 -7.77885 0
M  V30 6188 H 572.991 0.163249 -0.655992 0
M  V30 6189 H 575.545 -0.1582 -2.0479 0
M  V30 6190 H 573.775 2.0962 -3.24956 0
M  V30 6191 H 575.464 1.87041 -3.60237 0
M  V30 6192 H 576.23 -0.281611 -4.84182 0
M  V30 6193 H 572.109 0.901869 -4.52092 0
M  V30 6194 H 575.653 -1.72654 -6.75897 0
M  V30 6195 H 571.55 -0.535773 -6.43273 0
M  V30 6196 H 572.318 -1.95432 -7.94826 0
M  V30 6197 N 574.981 1.5647 0.188427 0
M  V30 6198 C 575.913 1.91611 1.25769 0
M  V30 6199 C 576.926 0.807436 1.41366 0
M  V30 6200 O 578.115 1.08586 1.41673 0
M  V30 6201 C 575.215 2.13874 2.6289 0
M  V30 6202 C 574.388 3.45047 2.68815 0
M  V30 6203 C 573.447 3.56342 3.87178 0
M  V30 6204 O 572.473 4.29109 3.73971 0
M  V30 6205 N 573.675 2.89924 5.02916 0
M  V30 6206 H 576.44 2.8393 0.959373 0
M  V30 6207 H 574.001 1.57418 0.378306 0
M  V30 6208 H 575.993 2.18713 3.4051 0
M  V30 6209 H 574.563 1.28022 2.85183 0
M  V30 6210 H 573.783 3.52017 1.77419 0
M  V30 6211 H 575.071 4.31395 2.6977 0
M  V30 6212 H 574.469 2.30644 5.16546 0
M  V30 6213 H 573.026 3.0038 5.78459 0
M  V30 6214 N 576.459 -0.456382 1.50847 0
M  V30 6215 C 577.389 -1.56025 1.73719 0
M  V30 6216 C 578.37 -1.5967 0.586473 0
M  V30 6217 O 579.555 -1.75702 0.827185 0
M  V30 6218 C 576.685 -2.94251 1.84483 0
M  V30 6219 C 575.639 -3.05471 2.99786 0
M  V30 6220 C 574.965 -4.45489 2.95709 0
M  V30 6221 C 576.265 -2.81318 4.40065 0
M  V30 6222 H 577.959 -1.37138 2.66146 0
M  V30 6223 H 575.505 -0.658299 1.28072 0
M  V30 6224 H 577.458 -3.71417 1.99067 0
M  V30 6225 H 576.182 -3.14328 0.886891 0
M  V30 6226 H 574.841 -2.30741 2.84876 0
M  V30 6227 H 574.489 -4.62505 1.97732 0
M  V30 6228 H 574.189 -4.53929 3.73125 0
M  V30 6229 H 575.713 -5.24655 3.12362 0
M  V30 6230 H 577.127 -3.48226 4.55425 0
M  V30 6231 H 575.524 -3.01188 5.19043 0
M  V30 6232 H 576.594 -1.7706 4.51418 0
M  V30 6233 N 577.937 -1.40673 -0.710563 0
M  V30 6234 C 579.165 -1.42547 -1.4996 0
M  V30 6235 C 579.58 -0.0265485 -1.88781 0
M  V30 6236 O 578.937 0.950694 -1.55782 0
M  V30 6237 C 578.988 -2.32071 -2.77173 0
M  V30 6238 O 578.709 -3.66518 -2.39992 0
M  V30 6239 C 580.21 -2.42591 -3.71032 0
M  V30 6240 H 577.43 -0.486025 -0.462623 0
M  V30 6241 H 579.974 -1.84783 -0.876102 0
M  V30 6242 H 578.129 -1.93184 -3.35795 0
M  V30 6243 H 578.543 -4.14115 -3.21884 0
M  V30 6244 H 580.017 -3.09429 -4.57119 0
M  V30 6245 H 580.494 -1.4525 -4.14486 0
M  V30 6246 H 581.1 -2.82051 -3.18319 0
M  V30 6247 N 579.415 0.9433 -1.26252 0
M  V30 6248 C 580.345 2.05902 -1.10122 0
M  V30 6249 C 581.326 1.70099 -0.00700552 0
M  V30 6250 O 582.511 1.93377 -0.178641 0
M  V30 6251 C 579.641 3.39516 -0.731175 0
M  V30 6252 C 578.595 3.89372 -1.77688 0
M  V30 6253 C 577.921 5.19613 -1.26122 0
M  V30 6254 C 579.221 4.14489 -3.17799 0
M  V30 6255 H 580.915 2.19655 -2.03451 0
M  V30 6256 H 578.461 1.05548 -0.979576 0
M  V30 6257 H 580.414 4.17031 -0.605215 0
M  V30 6258 H 579.138 3.25733 0.23782 0
M  V30 6259 H 577.797 3.14036 -1.89148 0
M  V30 6260 H 577.445 5.02208 -0.282128 0
M  V30 6261 H 577.145 5.53939 -1.96023 0
M  V30 6262 H 578.669 5.99713 -1.14789 0
M  V30 6263 H 580.083 4.82625 -3.09428 0
M  V30 6264 H 578.48 4.60094 -3.85271 0
M  V30 6265 H 579.55 3.20347 -3.64014 0
M  V30 6266 N 580.893 1.08022 1.14757 0
M  V30 6267 C 582.309 0.807072 1.3769 0
M  V30 6268 C 582.509 -0.585504 1.92806 0
M  V30 6269 O 581.565 -1.34301 2.13821 0
M  V30 6270 C 582.878 1.88651 2.34161 0
M  V30 6271 C 584.426 1.91206 2.47809 0
M  V30 6272 C 584.901 2.98253 3.47576 0
M  V30 6273 N 586.392 2.974 3.55117 0
M  V30 6274 C 587.127 3.76872 4.32152 0
M  V30 6275 N 586.623 4.66212 5.12463 0
M  V30 6276 N 588.416 3.6519 4.27309 0
M  V30 6277 H 580.567 1.97824 0.77326 0
M  V30 6278 H 582.83 0.85826 0.402608 0
M  V30 6279 H 582.536 2.88749 2.00791 0
M  V30 6280 H 582.41 1.75244 3.3402 0
M  V30 6281 H 584.797 0.917564 2.80472 0
M  V30 6282 H 584.878 2.08691 1.47925 0
M  V30 6283 H 584.522 3.97907 3.15646 0
M  V30 6284 H 584.452 2.78014 4.47231 0
M  V30 6285 H 586.943 2.32643 2.97801 0
M  V30 6286 H 587.256 5.23468 5.68508 0
M  V30 6287 H 585.601 4.70257 5.11745 0
M  V30 6288 H 588.792 2.94765 3.63636 0
M  V30 6289 H 588.965 4.27366 4.87095 0
M  V30 6290 N 582.371 -1.3172 0.865308 0
M  V30 6291 C 583.334 -2.26918 0.322627 0
M  V30 6292 C 584.334 -1.52031 -0.523751 0
M  V30 6293 O 585.524 -1.70973 -0.333727 0
M  V30 6294 C 582.656 -3.36558 -0.542338 0
M  V30 6295 H 583.849 -2.76432 1.16298 0
M  V30 6296 H 581.402 -1.42573 0.640512 0
M  V30 6297 H 582.137 -2.92329 -1.40407 0
M  V30 6298 H 581.922 -3.92048 0.0636395 0
M  V30 6299 H 583.412 -4.07465 -0.91446 0
M  V30 6300 N 583.85 -0.624285 -1.44708 0
M  V30 6301 C 584.812 0.0749638 -2.29077 0
M  V30 6302 C 585.812 0.778965 -1.40673 0
M  V30 6303 O 587.003 0.624591 -1.62618 0
M  V30 6304 C 584.135 1.11663 -3.22094 0
M  V30 6305 H 585.327 -0.667013 -2.92388 0
M  V30 6306 H 582.88 -0.384098 -1.51507 0
M  V30 6307 H 583.615 1.88881 -2.63618 0
M  V30 6308 H 583.401 0.61583 -3.87234 0
M  V30 6309 H 584.891 1.60585 -3.8549 0
M  V30 6310 N 585.328 1.53329 -0.364422 0
M  V30 6311 C 586.576 2.00842 0.225189 0
M  V30 6312 C 586.897 1.25345 1.49378 0
M  V30 6313 O 586.167 0.366396 1.92443 0
M  V30 6314 H 584.747 0.742009 0.0862027 0
M  V30 6315 H 587.409 1.8863 -0.490389 0
M  V30 6316 H 586.505 3.08795 0.452987 0
M  V30 6317 N 586.806 0.0935595 1.57322 0
M  V30 6318 C 587.753 -0.865935 2.1394 0
M  V30 6319 C 588.723 -1.28083 1.05754 0
M  V30 6320 O 589.908 -1.36285 1.33533 0
M  V30 6321 C 587.048 -2.12023 2.72287 0
M  V30 6322 C 586.161 -1.756 3.94701 0
M  V30 6323 C 585.296 -2.95804 4.41218 0
M  V30 6324 C 584.335 -2.555 5.56225 0
M  V30 6325 N 583.472 -3.68534 5.97601 0
M  V30 6326 H 588.312 -0.376261 2.95615 0
M  V30 6327 H 585.849 -0.174052 1.46067 0
M  V30 6328 H 587.807 -2.85477 3.04235 0
M  V30 6329 H 586.437 -2.58492 1.93343 0
M  V30 6330 H 585.489 -0.921208 3.69077 0
M  V30 6331 H 586.801 -1.41964 4.78171 0
M  V30 6332 H 585.955 -3.77513 4.74941 0
M  V30 6333 H 584.694 -3.32649 3.56645 0
M  V30 6334 H 583.699 -1.72218 5.22131 0
M  V30 6335 H 584.924 -2.19801 6.42545 0
M  V30 6336 H 582.87 -4.051 5.15974 0
M  V30 6337 H 582.787 -3.38737 6.75865 0
M  V30 6338 H 584.055 -4.50757 6.35955 0
M  V30 6339 N 588.284 -1.56567 -0.180126 0
M  V30 6340 C 589.512 -1.85618 -0.913972 0
M  V30 6341 C 589.927 -0.677892 -1.7621 0
M  V30 6342 O 589.284 0.353171 -1.7905 0
M  V30 6343 C 589.335 -3.13619 -1.79793 0
M  V30 6344 O 589.056 -4.26906 -0.98402 0
M  V30 6345 C 590.557 -3.55954 -2.64219 0
M  V30 6346 H 587.777 -0.616043 -0.265954 0
M  V30 6347 H 590.321 -2.03681 -0.182872 0
M  V30 6348 H 588.476 -2.97409 -2.48247 0
M  V30 6349 H 588.89 -4.9989 -1.58776 0
M  V30 6350 H 590.364 -4.48444 -3.21873 0
M  V30 6351 H 590.841 -2.79653 -3.38661 0
M  V30 6352 H 591.447 -3.74746 -2.01111 0
M  V30 6353 N 589.762 0.448376 -1.51087 0
M  V30 6354 C 590.992 1.21965 -1.66757 0
M  V30 6355 C 591.4 1.85748 -0.359753 0
M  V30 6356 O 590.743 1.71022 0.670604 0
M  V30 6357 C 590.805 2.35284 -2.71812 0
M  V30 6358 C 590.469 1.91957 -4.1473 0
M  V30 6359 C 591.466 1.42921 -4.9987 0
M  V30 6360 C 589.151 1.99985 -4.60772 0
M  V30 6361 C 591.145 1.02485 -6.29107 0
M  V30 6362 C 588.832 1.5916 -5.90009 0
M  V30 6363 C 589.83 1.10491 -6.74004 0
M  V30 6364 O 589.518 0.702413 -8.00825 0
M  V30 6365 H 589.25 0.374125 -0.563034 0
M  V30 6366 H 591.804 0.538927 -1.98204 0
M  V30 6367 H 590.034 3.06599 -2.35657 0
M  V30 6368 H 591.723 2.97184 -2.76472 0
M  V30 6369 H 592.489 1.36123 -4.65506 0
M  V30 6370 H 588.368 2.36814 -3.95525 0
M  V30 6371 H 591.912 0.644271 -6.94619 0
M  V30 6372 H 587.809 1.65626 -6.2389 0
M  V30 6373 H 588.577 0.829248 -8.14288 0
M  V30 6374 N 591.24 1.41047 0.703093 0
M  V30 6375 C 592.173 1.36713 1.82715 0
M  V30 6376 C 593.151 0.235533 1.60885 0
M  V30 6377 O 594.335 0.421227 1.83733 0
M  V30 6378 C 591.462 1.13069 3.1927 0
M  V30 6379 C 590.508 2.28846 3.59905 0
M  V30 6380 S 591.341 3.91297 3.65578 0
M  V30 6381 C 592.497 3.69941 5.04871 0
M  V30 6382 H 592.73 2.31838 1.86114 0
M  V30 6383 H 590.263 1.27481 0.871083 0
M  V30 6384 H 592.221 1.00113 3.98105 0
M  V30 6385 H 590.882 0.195763 3.13489 0
M  V30 6386 H 590.075 2.07977 4.59088 0
M  V30 6387 H 589.677 2.3817 2.88359 0
M  V30 6388 H 591.969 3.29181 5.92154 0
M  V30 6389 H 592.912 4.68699 5.30779 0
M  V30 6390 H 593.32 3.03369 4.76054 0
M  V30 6391 N 592.718 -0.936591 1.26751 0
M  V30 6392 C 593.967 -1.67778 1.11953 0
M  V30 6393 C 594.28 -1.92694 -0.33589 0
M  V30 6394 O 595.486 -2.64682 -0.604618 0
M  V30 6395 C 593.942 -3.02138 1.95551 0
M  V30 6396 C 593.55 -2.84953 3.45696 0
M  V30 6397 C 595.294 -3.79917 1.89377 0
M  V30 6398 C 593.201 -4.14814 4.21525 0
M  V30 6399 H 592.131 -0.629275 0.415366 0
M  V30 6400 H 594.782 -1.04122 1.51099 0
M  V30 6401 H 593.164 -3.668 1.49243 0
M  V30 6402 H 594.338 -2.29112 3.99805 0
M  V30 6403 H 592.653 -2.20612 3.53156 0
M  V30 6404 H 595.25 -4.76134 2.43312 0
M  V30 6405 H 595.593 -4.07204 0.865464 0
M  V30 6406 H 596.126 -3.22037 2.33532 0
M  V30 6407 H 592.865 -3.92709 5.24843 0
M  V30 6408 H 592.385 -4.70352 3.72195 0
M  V30 6409 H 594.064 -4.83239 4.3022 0
M  V30 6410 N 594.196 -1.08629 -1.14182 0
M  V30 6411 C 595.443 -0.817345 -1.85272 0
M  V30 6412 C 595.771 0.656917 -1.83071 0
M  V30 6413 O 595.026 1.49897 -1.25815 0
M  V30 6414 C 595.325 -1.28734 -3.3341 0
M  V30 6415 C 594.991 -2.76981 -3.55798 0
M  V30 6416 C 593.653 -3.17469 -3.61617 0
M  V30 6417 C 596.005 -3.72605 -3.64438 0
M  V30 6418 C 593.333 -4.52371 -3.736 0
M  V30 6419 C 595.685 -5.07286 -3.77947 0
M  V30 6420 C 594.349 -5.47376 -3.82016 0
M  V30 6421 H 593.619 -0.299088 -0.677958 0
M  V30 6422 H 596.266 -1.35962 -1.34857 0
M  V30 6423 H 594.571 -0.664702 -3.8612 0
M  V30 6424 H 596.268 -1.05598 -3.86846 0
M  V30 6425 H 592.858 -2.44644 -3.51919 0
M  V30 6426 H 597.042 -3.42443 -3.5923 0
M  V30 6427 H 592.298 -4.82882 -3.75013 0
M  V30 6428 H 596.472 -5.81243 -3.83575 0
M  V30 6429 H 594.099 -6.51906 -3.91054 0
M  V30 6430 N 595.674 1.31259 -0.872281 0
M  V30 6431 C 596.921 1.96622 -0.484365 0
M  V30 6432 C 597.249 1.68939 0.963841 0
M  V30 6433 O 596.504 0.97974 1.6941 0
M  V30 6434 C 596.803 3.50659 -0.690889 0
M  V30 6435 C 596.469 3.98366 -2.11224 0
M  V30 6436 C 595.131 4.11104 -2.50094 0
M  V30 6437 C 597.483 4.23425 -3.0391 0
M  V30 6438 C 594.811 4.46254 -3.80887 0
M  V30 6439 C 597.163 4.60039 -4.3422 0
M  V30 6440 C 595.827 4.70984 -4.73001 0
M  V30 6441 H 595.097 0.71949 -0.177242 0
M  V30 6442 H 597.744 1.56353 -1.10571 0
M  V30 6443 H 596.049 3.91798 0.0135782 0
M  V30 6444 H 597.746 3.99284 -0.370534 0
M  V30 6445 H 594.336 3.88949 -1.80047 0
M  V30 6446 H 598.52 4.13075 -2.75104 0
M  V30 6447 H 593.776 4.52926 -4.10692 0
M  V30 6448 H 597.95 4.78381 -5.06088 0
M  V30 6449 H 595.577 4.97977 -5.7439 0
M  V30 6450 N 597.152 0.631951 1.44375 0
M  V30 6451 C 598.398 0.13697 2.02337 0
M  V30 6452 C 598.731 -1.23826 1.49602 0
M  V30 6453 O 598.006 -1.8221 0.680415 0
M  V30 6454 C 598.289 0.124536 3.59885 0
M  V30 6455 C 598.142 1.53217 4.229 0
M  V30 6456 C 599.461 -0.550481 4.36644 0
M  V30 6457 H 596.58 0.051247 0.735216 0
M  V30 6458 H 599.222 0.808581 1.71936 0
M  V30 6459 H 597.372 -0.44737 3.85916 0
M  V30 6460 H 599.044 2.15303 4.07973 0
M  V30 6461 H 597.287 2.0858 3.80364 0
M  V30 6462 H 597.958 1.4755 5.31914 0
M  V30 6463 H 600.434 -0.0641154 4.16051 0
M  V30 6464 H 599.31 -0.528371 5.46351 0
M  V30 6465 H 599.571 -1.62097 4.11311 0
M  V30 6466 N 598.631 -1.53133 0.372548 0
M  V30 6467 C 599.561 -2.28876 -0.462412 0
M  V30 6468 C 600.542 -1.31583 -1.07796 0
M  V30 6469 O 601.727 -1.60461 -1.09389 0
M  V30 6470 C 598.857 -3.08317 -1.59868 0
M  V30 6471 C 597.811 -4.13355 -1.11003 0
M  V30 6472 C 597.137 -4.8092 -2.33708 0
M  V30 6473 C 598.437 -5.21955 -0.18983 0
M  V30 6474 H 600.131 -2.9892 0.169511 0
M  V30 6475 H 597.677 -1.43761 0.0829658 0
M  V30 6476 H 599.63 -3.60055 -2.18949 0
M  V30 6477 H 598.354 -2.35976 -2.25794 0
M  V30 6478 H 597.013 -3.62573 -0.541869 0
M  V30 6479 H 596.661 -4.05144 -2.98106 0
M  V30 6480 H 596.361 -5.51904 -2.01682 0
M  V30 6481 H 597.885 -5.35455 -2.93462 0
M  V30 6482 H 599.299 -5.69153 -0.688319 0
M  V30 6483 H 597.696 -6.00087 0.0398887 0
M  V30 6484 H 598.766 -4.78811 0.766057 0
M  V30 6485 N 600.109 -0.101901 -1.5727 0
M  V30 6486 C 601.355 0.561027 -1.94885 0
M  V30 6487 C 601.688 1.6741 -0.984258 0
M  V30 6488 O 600.963 1.94491 -0.0184767 0
M  V30 6489 C 601.246 1.10982 -3.42571 0
M  V30 6490 C 601.099 0.00133418 -4.498 0
M  V30 6491 C 602.418 2.00608 -3.9172 0
M  V30 6492 H 599.537 0.202467 -0.708644 0
M  V30 6493 H 602.179 -0.173992 -1.89202 0
M  V30 6494 H 600.329 1.73621 -3.47546 0
M  V30 6495 H 602.001 -0.63322 -4.56933 0
M  V30 6496 H 600.244 -0.664143 -4.28686 0
M  V30 6497 H 600.915 0.426253 -5.50352 0
M  V30 6498 H 603.391 1.47864 -3.88941 0
M  V30 6499 H 602.267 2.3593 -4.95609 0
M  V30 6500 H 602.528 2.92608 -3.3141 0
M  V30 6501 N 601.587 1.56661 0.17182 0
M  V30 6502 C 602.836 1.81158 0.886831 0
M  V30 6503 C 603.149 0.679072 1.83434 0
M  V30 6504 O 604.355 0.808964 2.59168 0
M  V30 6505 C 602.811 3.20999 1.6275 0
M  V30 6506 C 602.419 4.42117 0.723652 0
M  V30 6507 C 604.163 3.5479 2.33076 0
M  V30 6508 C 602.07 5.7298 1.46452 0
M  V30 6509 H 601 0.675543 0.334899 0
M  V30 6510 H 603.651 1.82967 0.139765 0
M  V30 6511 H 602.033 3.13506 2.4193 0
M  V30 6512 H 603.207 4.60789 -0.0311485 0
M  V30 6513 H 601.522 4.16197 0.130063 0
M  V30 6514 H 604.119 4.49806 2.89099 0
M  V30 6515 H 604.462 2.79646 3.08389 0
M  V30 6516 H 604.995 3.63834 1.6084 0
M  V30 6517 H 601.734 6.51152 0.753729 0
M  V30 6518 H 601.254 5.58285 2.19266 0
M  V30 6519 H 602.933 6.14916 2.01214 0
M  V30 6520 N 603.065 -0.440357 1.51323 0
M  V30 6521 C 604.312 -1.19004 1.63842 0
M  V30 6522 C 604.64 -1.91266 0.35321 0
M  V30 6523 O 603.895 -1.84143 -0.662565 0
M  V30 6524 C 604.194 -2.2339 2.78984 0
M  V30 6525 C 603.86 -1.68162 4.18369 0
M  V30 6526 C 602.522 -1.52823 4.56288 0
M  V30 6527 C 604.874 -1.27524 5.05358 0
M  V30 6528 C 602.202 -0.953157 5.78906 0
M  V30 6529 C 604.554 -0.714474 6.28552 0
M  V30 6530 C 603.218 -0.547961 6.65247 0
M  V30 6531 H 602.488 -0.435468 0.59954 0
M  V30 6532 H 605.135 -0.481538 1.85347 0
M  V30 6533 H 603.44 -3.00267 2.51688 0
M  V30 6534 H 605.137 -2.81211 2.85869 0
M  V30 6535 H 601.727 -1.81077 3.8847 0
M  V30 6536 H 605.911 -1.38197 4.76671 0
M  V30 6537 H 601.167 -0.811882 6.05986 0
M  V30 6538 H 605.341 -0.391059 6.95301 0
M  V30 6539 H 602.968 -0.100222 7.60134 0
M  V30 6540 N 604.543 -1.41418 -0.695603 0
M  V30 6541 C 605.473 -1.46035 -1.82197 0
M  V30 6542 C 606.454 -0.319025 -1.67082 0
M  V30 6543 O 607.639 -0.530462 -1.86815 0
M  V30 6544 C 604.769 -1.34179 -3.20333 0
M  V30 6545 C 603.723 -2.46123 -3.50154 0
M  V30 6546 C 603.049 -2.19332 -4.87645 0
M  V30 6547 C 604.349 -3.88463 -3.49133 0
M  V30 6548 H 606.043 -2.40303 -1.78591 0
M  V30 6549 H 603.589 -1.15663 -0.857797 0
M  V30 6550 H 605.542 -1.36021 -3.98844 0
M  V30 6551 H 604.266 -0.363952 -3.24566 0
M  V30 6552 H 602.925 -2.43563 -2.73994 0
M  V30 6553 H 602.573 -1.19891 -4.88503 0
M  V30 6554 H 602.273 -2.94344 -5.08562 0
M  V30 6555 H 603.797 -2.22889 -5.68465 0
M  V30 6556 H 605.211 -3.92738 -4.17648 0
M  V30 6557 H 603.608 -4.63158 -3.81582 0
M  V30 6558 H 604.678 -4.16617 -2.48109 0
M  V30 6559 N 606.021 0.929856 -1.27246 0
M  V30 6560 C 607.269 1.674 -1.13233 0
M  V30 6561 C 607.59 1.92311 0.322744 0
M  V30 6562 O 606.86 1.52784 1.22612 0
M  V30 6563 H 605.44 0.620411 -0.416052 0
M  V30 6564 H 608.102 1.11663 -1.59741 0
M  V30 6565 H 607.198 2.64308 -1.65975 0
M  V30 6566 N 607.499 1.09233 1.13605 0
M  V30 6567 C 608.724 0.849067 1.89224 0
M  V30 6568 C 609.149 -0.593875 1.78479 0
M  V30 6569 O 608.507 -1.41703 1.13092 0
M  V30 6570 C 608.555 1.28642 3.36873 0
M  V30 6571 O 607.659 0.44363 4.10007 0
M  V30 6572 H 607 0.30767 0.588417 0
M  V30 6573 H 609.53 1.45595 1.43748 0
M  V30 6574 H 609.54 1.27096 3.87699 0
M  V30 6575 H 608.215 2.33729 3.44011 0
M  V30 6576 H 606.792 0.523241 3.69211 0
M  V30 6577 N 608.977 -1.30795 0.87923 0
M  V30 6578 C 610.224 -1.96362 0.494786 0
M  V30 6579 C 610.552 -1.69448 -0.954868 0
M  V30 6580 O 609.807 -0.988711 -1.68888 0
M  V30 6581 C 610.106 -3.50287 0.709476 0
M  V30 6582 C 609.772 -3.9724 2.13333 0
M  V30 6583 C 608.434 -4.09772 2.52271 0
M  V30 6584 C 610.786 -4.21807 3.06151 0
M  V30 6585 C 608.114 -4.44227 3.83248 0
M  V30 6586 C 610.466 -4.5773 4.36654 0
M  V30 6587 C 609.13 -4.68469 4.75492 0
M  V30 6588 H 608.4 -0.71854 0.181055 0
M  V30 6589 H 611.047 -1.55764 1.11399 0
M  V30 6590 H 609.352 -3.91799 0.0072 0
M  V30 6591 H 611.049 -3.99082 0.391703 0
M  V30 6592 H 607.639 -3.87988 1.82107 0
M  V30 6593 H 611.823 -4.11611 2.77291 0
M  V30 6594 H 607.079 -4.50741 4.13089 0
M  V30 6595 H 611.253 -4.7569 5.08617 0
M  V30 6596 H 608.88 -4.94923 5.77022 0
M  V30 6597 N 610.455 -0.639598 -1.44038 0
M  V30 6598 C 611.685 -0.154586 -2.06021 0
M  V30 6599 C 612.093 1.17951 -1.47933 0
M  V30 6600 O 611.436 1.73627 -0.59994 0
M  V30 6601 C 611.498 0.0255459 -3.59491 0
M  V30 6602 C 611.162 -1.2317 -4.40089 0
M  V30 6603 C 612.159 -2.15735 -4.73027 0
M  V30 6604 C 609.844 -1.46949 -4.80324 0
M  V30 6605 C 611.838 -3.30382 -5.45093 0
M  V30 6606 C 609.525 -2.61891 -5.52138 0
M  V30 6607 C 610.523 -3.53433 -5.84443 0
M  V30 6608 O 610.211 -4.6637 -6.54793 0
M  V30 6609 H 609.943 -0.0808543 -0.671147 0
M  V30 6610 H 612.497 -0.876541 -1.85758 0
M  V30 6611 H 610.727 0.802733 -3.78276 0
M  V30 6612 H 612.416 0.466184 -4.03214 0
M  V30 6613 H 613.182 -1.98602 -4.42473 0
M  V30 6614 H 609.061 -0.765815 -4.54595 0
M  V30 6615 H 612.605 -4.01856 -5.70226 0
M  V30 6616 H 608.502 -2.78964 -5.82108 0
M  V30 6617 H 609.27 -4.6546 -6.73267 0
M  V30 6618 N 611.933 1.52934 -0.380664 0
M  V30 6619 C 612.863 2.29118 0.450268 0
M  V30 6620 C 613.844 1.32153 1.07096 0
M  V30 6621 O 615.029 1.61038 1.08537 0
M  V30 6622 C 612.159 3.09161 1.58231 0
M  V30 6623 C 611.113 4.13938 1.0881 0
M  V30 6624 C 610.439 4.82153 2.31155 0
M  V30 6625 C 611.739 5.22048 0.162146 0
M  V30 6626 H 613.433 2.98826 -0.185361 0
M  V30 6627 H 610.979 1.43715 -0.0905886 0
M  V30 6628 H 612.932 3.61211 2.17036 0
M  V30 6629 H 611.656 2.3717 2.2454 0
M  V30 6630 H 610.315 3.62855 0.522633 0
M  V30 6631 H 609.963 4.06719 2.95953 0
M  V30 6632 H 609.663 5.52966 1.98752 0
M  V30 6633 H 611.187 5.37004 2.90618 0
M  V30 6634 H 612.601 5.6951 0.658126 0
M  V30 6635 H 610.998 6.00057 -0.0717122 0
M  V30 6636 H 612.068 4.78398 -0.791438 0
M  V30 6637 N 613.412 0.11024 1.57214 0
M  V30 6638 C 614.658 -0.550684 1.9518 0
M  V30 6639 C 614.991 -1.66885 0.993122 0
M  V30 6640 O 614.266 -1.94479 0.0287907 0
M  V30 6641 C 614.549 -1.09163 3.43155 0
M  V30 6642 C 614.402 0.0225198 4.49794 0
M  V30 6643 C 615.721 -1.98527 3.92778 0
M  V30 6644 H 612.84 -0.198706 0.709708 0
M  V30 6645 H 615.482 0.184024 1.89107 0
M  V30 6646 H 613.632 -1.71775 3.48462 0
M  V30 6647 H 615.304 0.657443 4.56591 0
M  V30 6648 H 613.547 0.686868 4.28328 0
M  V30 6649 H 614.218 -0.39706 5.5057 0
M  V30 6650 H 616.694 -1.458 3.8972 0
M  V30 6651 H 615.57 -2.33298 4.96853 0
M  V30 6652 H 615.831 -2.90846 3.32958 0
M  V30 6653 N 614.89 -1.56749 -0.16351 0
M  V30 6654 C 615.838 -1.97939 -1.22159 0
M  V30 6655 C 616.832 -0.869288 -1.45395 0
M  V30 6656 O 618.038 -1.05443 -1.45883 0
M  V30 6657 H 614.413 -0.629869 -0.410815 0
M  V30 6658 H 616.384 -2.86115 -0.847381 0
M  V30 6659 C 615.133 -2.36206 -2.55151 0
M  V30 6660 H 614.456 -3.2117 -2.38097 0
M  V30 6661 H 615.896 -2.68863 -3.27854 0
M  V30 6662 C 614.355 -1.20841 -3.14482 0
M  V30 6663 O 614.885 -0.500258 -3.98573 0
M  V30 6664 N 613.091 -0.976943 -2.73686 0
M  V30 6665 H 612.638 -1.55457 -2.05404 0
M  V30 6666 H 612.596 -0.206912 -3.13718 0
M  V30 6667 N 616.368 0.432326 -1.51554 0
M  V30 6668 C 617.298 1.53242 -1.76179 0
M  V30 6669 C 618.279 1.58717 -0.611801 0
M  V30 6670 O 619.464 1.74364 -0.855033 0
M  V30 6671 C 616.594 2.91278 -1.89141 0
M  V30 6672 C 615.548 3.00663 -3.04608 0
M  V30 6673 C 614.874 4.40728 -3.02759 0
M  V30 6674 C 616.174 2.74281 -4.44485 0
M  V30 6675 H 617.868 1.32886 -2.68294 0
M  V30 6676 H 615.414 0.637841 -1.29103 0
M  V30 6677 H 617.367 3.68203 -2.04951 0
M  V30 6678 H 616.091 3.12877 -0.936785 0
M  V30 6679 H 614.75 2.26179 -2.88511 0
M  V30 6680 H 614.398 4.59301 -2.05065 0
M  V30 6681 H 614.098 4.47936 -3.80299 0
M  V30 6682 H 615.622 5.19619 -3.20669 0
M  V30 6683 H 617.036 3.40936 -4.60907 0
M  V30 6684 H 615.433 2.92893 -5.23769 0
M  V30 6685 H 616.503 1.69856 -4.54177 0
M  V30 6686 N 617.846 1.41785 0.688094 0
M  V30 6687 C 619.095 1.4084 1.44385 0
M  V30 6688 C 619.408 0.0234166 1.95586 0
M  V30 6689 O 620.614 -0.108647 2.71283 0
M  V30 6690 C 619.07 2.47675 2.61123 0
M  V30 6691 C 618.678 3.92116 2.16677 0
M  V30 6692 C 620.422 2.55877 3.38714 0
M  V30 6693 C 618.329 4.90487 3.30419 0
M  V30 6694 H 617.259 0.523787 0.542368 0
M  V30 6695 H 619.91 1.6764 0.74627 0
M  V30 6696 H 618.292 2.14018 3.33185 0
M  V30 6697 H 619.466 4.35059 1.51856 0
M  V30 6698 H 617.781 3.87642 1.5206 0
M  V30 6699 H 620.378 3.26553 4.234 0
M  V30 6700 H 620.721 1.59801 3.84408 0
M  V30 6701 H 621.254 2.88662 2.73714 0
M  V30 6702 H 617.993 5.87994 2.89729 0
M  V30 6703 H 617.513 4.52187 3.94065 0
M  V30 6704 H 619.192 5.11591 3.96085 0
M  V30 6705 N 619.324 -0.923095 1.27737 0
M  V30 6706 C 620.254 -2.04124 1.13383 0
M  V30 6707 C 621.235 -1.70066 0.0340658 0
M  V30 6708 O 622.42 -1.93068 0.209383 0
M  V30 6709 C 619.55 -3.3831 0.785097 0
M  V30 6710 C 618.504 -3.86496 1.8386 0
M  V30 6711 C 617.83 -5.1754 1.34373 0
M  V30 6712 C 619.13 -4.09381 3.24353 0
M  V30 6713 H 620.824 -2.1639 2.06919 0
M  V30 6714 H 618.37 -1.03976 0.996243 0
M  V30 6715 H 620.323 -4.16016 0.671485 0
M  V30 6716 H 619.047 -3.2607 -0.185969 0
M  V30 6717 H 617.706 -3.10987 1.9412 0
M  V30 6718 H 617.354 -5.01696 0.361989 0
M  V30 6719 H 617.054 -5.50751 2.04811 0
M  V30 6720 H 618.578 -5.97811 1.24315 0
M  V30 6721 H 619.992 -4.77641 3.17067 0
M  V30 6722 H 618.389 -4.53906 3.92542 0
M  V30 6723 H 619.459 -3.14515 3.69064 0
M  V30 6724 N 620.802 -1.09834 -1.13024 0
M  V30 6725 C 621.765 -0.745058 -2.16752 0
M  V30 6726 C 622.765 0.227435 -1.59183 0
M  V30 6727 O 623.955 0.0050786 -1.74199 0
M  V30 6728 C 621.087 -0.102543 -3.40746 0
M  V30 6729 H 622.28 -1.66375 -2.49518 0
M  V30 6730 H 619.833 -0.898061 -1.27924 0
M  V30 6731 H 620.568 0.827177 -3.13573 0
M  V30 6732 H 620.353 -0.80235 -3.83803 0
M  V30 6733 H 621.843 0.129082 -4.174 0
M  V30 6734 N 622.28 1.30327 -0.886154 0
M  V30 6735 C 623.526 1.96388 -0.505941 0
M  V30 6736 C 623.859 1.69784 0.942712 0
M  V30 6737 O 623.134 1.00322 1.6663 0
M  V30 6738 C 623.417 3.51488 -0.782826 0
M  V30 6739 C 623.27 3.87603 -2.28219 0
M  V30 6740 C 624.589 4.39331 -0.260128 0
M  V30 6741 H 621.708 0.713327 -0.185292 0
M  V30 6742 H 624.35 1.54178 -1.11036 0
M  V30 6743 H 622.5 3.87572 -0.268399 0
M  V30 6744 H 624.172 3.61537 -2.86512 0
M  V30 6745 H 622.415 3.3563 -2.74837 0
M  V30 6746 H 623.086 4.95806 -2.42653 0
M  V30 6747 H 625.562 4.10162 -0.700444 0
M  V30 6748 H 624.438 5.46769 -0.483179 0
M  V30 6749 H 624.699 4.34072 0.838674 0
M  V30 6750 N 623.758 0.647228 1.43697 0
M  V30 6751 C 625.004 0.158422 2.0218 0
M  V30 6752 C 625.337 -1.22233 1.50907 0
M  V30 6753 O 624.612 -1.81478 0.699702 0
M  V30 6754 C 624.895 0.1627 3.59732 0
M  V30 6755 C 624.748 1.57694 4.21251 0
M  V30 6756 C 626.067 -0.504138 4.37203 0
M  V30 6757 H 623.186 0.059042 0.734631 0
M  V30 6758 H 625.828 0.826772 1.71069 0
M  V30 6759 H 623.978 -0.406414 3.86368 0
M  V30 6760 H 625.65 2.19618 4.05667 0
M  V30 6761 H 623.893 2.12603 3.7813 0
M  V30 6762 H 624.564 1.53183 5.3032 0
M  V30 6763 H 627.04 -0.0199841 4.16095 0
M  V30 6764 H 625.916 -0.470394 5.46881 0
M  V30 6765 H 626.177 -1.57726 4.13007 0
M  V30 6766 N 625.236 -1.5273 0.388769 0
M  V30 6767 C 626.199 -2.25043 -0.434544 0
M  V30 6768 C 627.199 -1.26661 -0.990644 0
M  V30 6769 O 628.389 -1.50762 -0.872731 0
M  V30 6770 C 625.521 -3.00507 -1.60961 0
M  V30 6771 H 626.714 -2.99242 0.198549 0
M  V30 6772 H 624.267 -1.55664 0.140875 0
M  V30 6773 H 625.002 -2.30607 -2.28015 0
M  V30 6774 H 624.787 -3.72716 -1.21757 0
M  V30 6775 H 626.277 -3.55413 -2.19251 0
M  V30 6776 N 626.714 -0.118576 -1.57153 0
M  V30 6777 C 627.647 0.869046 -2.11004 0
M  V30 6778 C 628.625 1.26115 -1.02634 0
M  V30 6779 O 629.809 1.36228 -1.30285 0
M  V30 6780 C 626.936 2.16297 -2.6064 0
M  V30 6781 C 625.982 1.91896 -3.80891 0
M  V30 6782 S 626.815 1.13562 -5.2332 0
M  V30 6783 C 627.971 2.44135 -5.76324 0
M  V30 6784 H 628.204 0.411005 -2.94445 0
M  V30 6785 H 625.737 0.0951891 -1.54106 0
M  V30 6786 H 627.695 2.90642 -2.89892 0
M  V30 6787 H 626.356 2.59219 -1.77382 0
M  V30 6788 H 625.549 2.8777 -4.13768 0
M  V30 6789 H 625.151 1.25672 -3.52253 0
M  V30 6790 H 627.443 3.39976 -5.86022 0
M  V30 6791 H 628.386 2.15803 -6.74414 0
M  V30 6792 H 628.794 2.53483 -5.04387 0
M  V30 6793 N 628.193 1.56834 0.155195 0
M  V30 6794 C 629.156 1.96748 1.17571 0
M  V30 6795 C 630.156 0.853006 1.3631 0
M  V30 6796 O 631.346 1.11978 1.33441 0
M  V30 6797 C 628.478 2.27631 2.53765 0
M  V30 6798 H 629.671 2.88085 0.833498 0
M  V30 6799 H 627.224 1.51141 0.398242 0
M  V30 6800 H 627.959 1.39059 2.92973 0
M  V30 6801 H 627.744 3.0888 2.41527 0
M  V30 6802 H 629.234 2.59377 3.27282 0
M  V30 6803 N 629.671 -0.424282 1.51781 0
M  V30 6804 C 630.901 -1.19297 1.68677 0
M  V30 6805 C 631.309 -1.85152 0.389258 0
M  V30 6806 O 630.652 -1.72067 -0.643311 0
M  V30 6807 C 630.714 -2.30929 2.75521 0
M  V30 6808 C 630.378 -1.85335 4.17732 0
M  V30 6809 C 631.375 -1.34951 5.0208 0
M  V30 6810 C 629.06 -1.92629 4.63896 0
M  V30 6811 C 631.054 -0.924636 6.30658 0
M  V30 6812 C 628.741 -1.49754 5.92467 0
M  V30 6813 C 629.739 -0.997543 6.75676 0
M  V30 6814 O 629.427 -0.57492 8.01842 0
M  V30 6815 H 629.159 -0.36512 0.568914 0
M  V30 6816 H 631.713 -0.507327 1.99036 0
M  V30 6817 H 629.943 -3.02811 2.40505 0
M  V30 6818 H 631.632 -2.92748 2.81165 0
M  V30 6819 H 632.398 -1.287 4.67612 0
M  V30 6820 H 628.277 -2.30491 3.99243 0
M  V30 6821 H 631.821 -0.533682 6.95556 0
M  V30 6822 H 627.718 -1.55679 6.26446 0
M  V30 6823 H 628.486 -0.699597 8.15505 0
M  V30 6824 N 631.149 -1.42148 -0.680565 0
M  V30 6825 C 632.059 -1.47565 -1.82378 0
M  V30 6826 C 633.075 -0.36489 -1.70131 0
M  V30 6827 O 634.251 -0.614916 -1.91783 0
M  V30 6828 C 631.316 -1.37013 -3.18478 0
M  V30 6829 C 630.377 -2.58532 -3.42724 0
M  V30 6830 C 629.61 -2.48473 -4.72331 0
M  V30 6831 O 629.833 -1.51745 -5.49845 0
M  V30 6832 O 628.767 -3.38503 -4.97694 0
M  V30 6833 H 632.593 -2.44045 -1.80764 0
M  V30 6834 H 630.178 -1.23849 -0.835569 0
M  V30 6835 H 632.06 -1.33468 -3.99705 0
M  V30 6836 H 630.735 -0.436552 -3.20743 0
M  V30 6837 H 629.642 -2.67652 -2.61368 0
M  V30 6838 H 630.975 -3.50769 -3.45286 0
M  V30 6839 N 632.627 0.916307 -1.28225 0
M  V30 6840 C 633.537 2.05165 -1.13775 0
M  V30 6841 C 634.553 1.73879 -0.0649418 0
M  V30 6842 O 635.729 1.99531 -0.273722 0
M  V30 6843 C 632.794 3.37385 -0.798267 0
M  V30 6844 C 631.855 3.82296 -1.95316 0
M  V30 6845 C 631.088 5.08206 -1.62978 0
M  V30 6846 O 631.311 5.6781 -0.542948 0
M  V30 6847 O 630.245 5.48768 -2.47261 0
M  V30 6848 H 634.071 2.20273 -2.09078 0
M  V30 6849 H 631.656 1.0373 -1.07519 0
M  V30 6850 H 633.538 4.16773 -0.62278 0
M  V30 6851 H 632.213 3.23458 0.125139 0
M  V30 6852 H 631.12 3.03746 -2.18378 0
M  V30 6853 H 632.453 4.00782 -2.85718 0
M  V30 6854 N 634.105 1.10431 1.1244 0
M  V30 6855 C 635.037 0.710945 2.17895 0
M  V30 6856 C 636.05 -0.252315 1.60833 0
M  V30 6857 O 637.239 -0.03679 1.78462 0
M  V30 6858 C 634.339 0.0284262 3.38888 0
M  V30 6859 C 633.512 1.01585 4.2544 0
M  V30 6860 C 632.571 0.364826 5.24934 0
M  V30 6861 O 631.597 1.01561 5.60066 0
M  V30 6862 N 632.799 -0.87674 5.73841 0
M  V30 6863 H 635.564 1.61826 2.52255 0
M  V30 6864 H 633.125 0.993132 1.27861 0
M  V30 6865 H 635.117 -0.418568 4.0253 0
M  V30 6866 H 633.687 -0.781294 3.02679 0
M  V30 6867 H 632.907 1.64111 3.58415 0
M  V30 6868 H 634.195 1.68425 4.80115 0
M  V30 6869 H 633.593 -1.42483 5.47462 0
M  V30 6870 H 632.15 -1.26688 6.39369 0
M  V30 6871 N 635.583 -1.29855 0.893053 0
M  V30 6872 C 636.531 -2.29867 0.355512 0
M  V30 6873 C 637.525 -1.60502 -0.541801 0
M  V30 6874 O 638.731 -1.74902 -0.425339 0
M  V30 6875 H 635.106 -0.745805 0.0963247 0
M  V30 6876 H 637.077 -2.72655 1.21252 0
M  V30 6877 C 635.826 -3.453 -0.407801 0
M  V30 6878 H 635.149 -3.98864 0.273426 0
M  V30 6879 H 636.589 -4.17334 -0.748887 0
M  V30 6880 C 635.048 -2.96051 -1.60795 0
M  V30 6881 O 635.578 -2.96763 -2.7073 0
M  V30 6882 N 633.784 -2.51963 -1.44786 0
M  V30 6883 H 633.331 -2.51583 -0.553498 0
M  V30 6884 H 633.289 -2.1937 -2.2522 0
M  V30 6885 N 637.061 -0.65484 -1.43351 0
M  V30 6886 C 637.993 0.0744757 -2.29079 0
M  V30 6887 C 639.006 0.7855 -1.42596 0
M  V30 6888 O 640.195 0.642986 -1.66517 0
M  V30 6889 C 637.295 1.12859 -3.19556 0
M  V30 6890 C 636.468 0.495381 -4.34586 0
M  V30 6891 C 635.527 1.44659 -5.05925 0
M  V30 6892 O 634.553 0.954567 -5.61139 0
M  V30 6893 N 635.755 2.78051 -5.09576 0
M  V30 6894 H 638.52 -0.661346 -2.92312 0
M  V30 6895 H 636.081 -0.497744 -1.54059 0
M  V30 6896 H 638.073 1.76577 -3.64147 0
M  V30 6897 H 636.643 1.76636 -2.57912 0
M  V30 6898 H 635.863 -0.32092 -3.92892 0
M  V30 6899 H 637.151 0.0534203 -5.08772 0
M  V30 6900 H 636.549 3.20584 -4.66093 0
M  V30 6901 H 635.106 3.37068 -5.57878 0
M  V30 6902 N 638.539 1.52521 -0.396863 0
M  V30 6903 C 639.502 2.2527 0.422604 0
M  V30 6904 C 640.502 1.27184 0.983913 0
M  V30 6905 O 641.692 1.51222 0.864723 0
M  V30 6906 C 638.824 3.01356 1.59365 0
M  V30 6907 H 640.017 2.99133 -0.214416 0
M  V30 6908 H 637.57 1.55587 -0.149128 0
M  V30 6909 H 638.305 2.31813 2.26789 0
M  V30 6910 H 638.09 3.73357 1.19779 0
M  V30 6911 H 639.58 3.56571 2.17363 0
M  V30 6912 N 640.017 0.126909 1.57088 0
M  V30 6913 C 641.245 -0.53667 1.99819 0
M  V30 6914 C 641.66 -1.5972 1.00673 0
M  V30 6915 O 641.017 -1.825 0.000747365 0
M  V30 6916 C 641.068 -1.15563 3.42531 0
M  V30 6917 O 640.789 -0.137483 4.37884 0
M  V30 6918 C 642.29 -1.90176 4.00435 0
M  V30 6919 H 639.51 -0.141443 0.655923 0
M  V30 6920 H 642.054 0.215578 2.03361 0
M  V30 6921 H 640.209 -1.85861 3.39904 0
M  V30 6922 H 640.623 -0.588229 5.21191 0
M  V30 6923 H 642.097 -2.28801 5.02349 0
M  V30 6924 H 642.574 -2.78002 3.40017 0
M  V30 6925 H 643.18 -1.24623 4.06632 0
M  V30 6926 N 641.495 -1.56914 -0.146875 0
M  V30 6927 C 642.425 -2.01308 -1.1831 0
M  V30 6928 C 643.406 -0.892664 -1.44795 0
M  V30 6929 O 644.591 -1.16048 -1.55713 0
M  V30 6930 C 641.721 -2.3938 -2.51624 0
M  V30 6931 C 640.675 -3.54608 -2.3966 0
M  V30 6932 C 640.001 -3.78493 -3.77686 0
M  V30 6933 C 641.301 -4.87269 -1.88058 0
M  V30 6934 H 642.995 -2.88123 -0.813964 0
M  V30 6935 H 640.541 -1.38615 -0.3901 0
M  V30 6936 H 642.494 -2.69037 -3.24341 0
M  V30 6937 H 641.218 -1.49502 -2.90373 0
M  V30 6938 H 639.877 -3.25116 -1.69396 0
M  V30 6939 H 639.525 -2.85866 -4.13871 0
M  V30 6940 H 639.225 -4.56039 -3.70543 0
M  V30 6941 H 640.749 -4.10576 -4.51951 0
M  V30 6942 H 642.163 -5.15644 -2.50568 0
M  V30 6943 H 640.56 -5.68622 -1.91805 0
M  V30 6944 H 641.63 -4.77634 -0.836277 0
M  V30 6945 N 642.974 0.416227 -1.52004 0
M  V30 6946 C 643.884 1.53147 -1.77717 0
M  V30 6947 C 644.9 1.609 -0.662368 0
M  V30 6948 O 646.076 1.77747 -0.946991 0
M  V30 6949 C 643.141 2.88948 -1.91598 0
M  V30 6950 C 642.202 2.9114 -3.15493 0
M  V30 6951 C 641.435 4.20464 -3.28703 0
M  V30 6952 O 641.658 5.13981 -2.47345 0
M  V30 6953 O 640.592 4.29368 -4.21813 0
M  V30 6954 H 644.418 1.34357 -2.72363 0
M  V30 6955 H 642.003 0.601373 -1.36762 0
M  V30 6956 H 643.885 3.69505 -2.02593 0
M  V30 6957 H 642.56 3.07821 -1.00141 0
M  V30 6958 H 641.467 2.09461 -3.09962 0
M  V30 6959 H 642.8 2.77216 -4.06709 0
M  V30 6960 N 644.452 1.42507 0.673017 0
M  V30 6961 C 645.362 1.4853 1.81593 0
M  V30 6962 C 646.378 0.373907 1.69935 0
M  V30 6963 O 647.554 0.625078 1.91454 0
M  V30 6964 C 644.619 1.387 3.17747 0
M  V30 6965 C 643.68 2.60346 3.41348 0
M  V30 6966 C 642.913 2.50975 4.71007 0
M  V30 6967 O 643.136 1.54659 5.49033 0
M  V30 6968 O 642.07 3.41138 4.95892 0
M  V30 6969 H 645.896 2.45001 1.79467 0
M  V30 6970 H 643.481 1.2429 0.82899 0
M  V30 6971 H 645.363 1.35586 3.98992 0
M  V30 6972 H 644.038 0.453555 3.20507 0
M  V30 6973 H 642.945 2.69034 2.59945 0
M  V30 6974 H 644.278 3.52595 3.43421 0
M  V30 6975 N 645.93 -0.909495 1.28709 0
M  V30 6976 C 646.893 -1.99399 1.13016 0
M  V30 6977 C 647.893 -1.60654 0.068536 0
M  V30 6978 O 649.083 -1.71334 0.314671 0
M  V30 6979 C 646.215 -3.33078 0.726085 0
M  V30 6980 H 647.408 -2.14751 2.09338 0
M  V30 6981 H 644.961 -1.09272 1.11756 0
M  V30 6982 H 645.696 -3.23428 -0.23771 0
M  V30 6983 H 645.481 -3.62562 1.49302 0
M  V30 6984 H 646.971 -4.12681 0.639058 0
M  V30 6985 N 647.408 -1.11026 -1.11852 0
M  V30 6986 C 648.318 -0.777252 -2.2135 0
M  V30 6987 C 649.334 0.227821 -1.72502 0
M  V30 6988 O 650.51 0.0650587 -2.01295 0
M  V30 6989 C 647.575 -0.220668 -3.45997 0
M  V30 6990 C 646.636 -1.2838 -4.09655 0
M  V30 6991 C 645.869 -0.753678 -5.28352 0
M  V30 6992 O 646.092 0.417779 -5.68868 0
M  V30 6993 O 645.026 -1.51647 -5.82483 0
M  V30 6994 H 648.852 -1.69141 -2.5224 0
M  V30 6995 H 646.437 -0.885836 -1.20305 0
M  V30 6996 H 648.319 0.0855756 -4.21313 0
M  V30 6997 H 646.994 0.666262 -3.16769 0
M  V30 6998 H 645.901 -1.64299 -3.3609 0
M  V30 6999 H 647.234 -2.14396 -4.43052 0
M  V30 7000 N 648.886 1.2938 -0.899927 0
M  V30 7001 C 649.818 2.26737 -0.335139 0
M  V30 7002 C 650.831 1.54316 0.518681 0
M  V30 7003 O 652.02 1.75313 0.335803 0
M  V30 7004 C 649.12 3.34558 0.540774 0
M  V30 7005 C 648.293 4.36455 -0.287372 0
M  V30 7006 C 647.352 5.2361 0.52141 0
M  V30 7007 O 646.378 5.69167 -0.0611735 0
M  V30 7008 N 647.58 5.50985 1.82745 0
M  V30 7009 H 650.345 2.75838 -1.17191 0
M  V30 7010 H 647.906 1.42716 -0.764438 0
M  V30 7011 H 649.898 3.89794 1.08825 0
M  V30 7012 H 648.468 2.85272 1.27823 0
M  V30 7013 H 647.688 3.80875 -1.01626 0
M  V30 7014 H 648.976 5.01573 -0.854518 0
M  V30 7015 H 648.374 5.15781 2.32349 0
M  V30 7016 H 646.931 6.09036 2.32204 0
M  V30 7017 N 650.364 0.662433 1.43002 0
M  V30 7018 C 651.311 -0.0235324 2.30788 0
M  V30 7019 C 652.281 -0.805342 1.4527 0
M  V30 7020 O 653.466 -0.78009 1.74124 0
M  V30 7021 C 650.606 -0.977545 3.30965 0
M  V30 7022 C 649.719 -0.190865 4.31578 0
M  V30 7023 C 648.854 -1.13951 5.18834 0
M  V30 7024 C 647.893 -0.343796 6.11134 0
M  V30 7025 N 647.03 -1.2445 6.90982 0
M  V30 7026 H 651.87 0.730921 2.88897 0
M  V30 7027 H 649.407 0.372197 1.42313 0
M  V30 7028 H 651.365 -1.54437 3.87563 0
M  V30 7029 H 649.995 -1.69877 2.74484 0
M  V30 7030 H 649.047 0.492388 3.772 0
M  V30 7031 H 650.359 0.427464 4.96965 0
M  V30 7032 H 649.513 -1.77666 5.80103 0
M  V30 7033 H 648.252 -1.79174 4.53595 0
M  V30 7034 H 647.257 0.30665 5.48944 0
M  V30 7035 H 648.482 0.304161 6.78419 0
M  V30 7036 H 646.428 -1.88336 6.28383 0
M  V30 7037 H 646.345 -0.680959 7.52927 0
M  V30 7038 H 647.613 -1.86952 7.56749 0
M  V30 7039 N 651.842 -1.52309 0.404946 0
M  V30 7040 C 652.752 -2.30634 -0.429555 0
M  V30 7041 C 653.768 -1.38187 -1.05737 0
M  V30 7042 O 654.944 -1.71261 -1.05979 0
M  V30 7043 C 652.009 -3.10947 -1.53339 0
M  V30 7044 C 651.07 -4.19126 -0.929065 0
M  V30 7045 C 650.303 -4.95601 -1.9803 0
M  V30 7046 O 650.526 -4.72331 -3.1978 0
M  V30 7047 O 649.46 -5.80551 -1.58886 0
M  V30 7048 H 653.286 -3.0298 0.208963 0
M  V30 7049 H 650.871 -1.4845 0.168255 0
M  V30 7050 H 652.753 -3.60974 -2.1743 0
M  V30 7051 H 651.428 -2.41399 -2.15658 0
M  V30 7052 H 650.335 -3.73257 -0.250982 0
M  V30 7053 H 651.668 -4.90955 -0.349855 0
M  V30 7054 N 653.32 -0.135238 -1.57019 0
M  V30 7055 C 654.283 0.794707 -2.14981 0
M  V30 7056 C 655.283 1.18342 -1.08866 0
M  V30 7057 O 656.473 1.10627 -1.34563 0
M  V30 7058 C 653.605 2.07685 -2.70333 0
M  V30 7059 H 654.798 0.290696 -2.98488 0
M  V30 7060 H 652.351 0.114128 -1.55883 0
M  V30 7061 H 653.086 2.6248 -1.9046 0
M  V30 7062 H 652.871 1.80745 -3.47957 0
M  V30 7063 H 654.361 2.74127 -3.1503 0
M  V30 7064 N 654.798 1.5699 0.138552 0
M  V30 7065 C 655.708 2.02174 1.19008 0
M  V30 7066 C 656.724 0.938622 1.46512 0
M  V30 7067 O 657.9 1.24872 1.58016 0
M  V30 7068 C 654.965 2.40045 2.50159 0
M  V30 7069 C 654.026 3.62346 2.30226 0
M  V30 7070 C 653.259 3.98401 3.55123 0
M  V30 7071 O 653.482 3.35019 4.61647 0
M  V30 7072 O 652.416 4.91606 3.47285 0
M  V30 7073 H 656.242 2.91954 0.836452 0
M  V30 7074 H 653.827 1.45293 0.347907 0
M  V30 7075 H 655.709 2.65225 3.27465 0
M  V30 7076 H 654.384 1.53417 2.85035 0
M  V30 7077 H 653.291 3.42341 1.50843 0
M  V30 7078 H 654.624 4.49617 2.00262 0
M  V30 7079 N 656.276 -0.40816 1.52223 0
M  V30 7080 C 657.523 -1.15502 1.66329 0
M  V30 7081 C 657.851 -1.90474 0.393701 0
M  V30 7082 O 657.106 -1.85507 -0.623356 0
M  V30 7083 C 657.405 -2.17422 2.83659 0
M  V30 7084 C 657.071 -1.5925 4.21841 0
M  V30 7085 C 655.733 -1.4311 4.59427 0
M  V30 7086 C 658.085 -1.16776 5.0795 0
M  V30 7087 C 655.413 -0.830148 5.80797 0
M  V30 7088 C 657.765 -0.580988 6.29926 0
M  V30 7089 C 656.429 -0.406729 6.6626 0
M  V30 7090 H 655.699 -0.422653 0.608642 0
M  V30 7091 H 658.346 -0.442114 1.86327 0
M  V30 7092 H 656.651 -2.94861 2.58001 0
M  V30 7093 H 658.348 -2.75084 2.9177 0
M  V30 7094 H 654.938 -1.72796 3.92224 0
M  V30 7095 H 659.122 -1.28055 4.79495 0
M  V30 7096 H 654.378 -0.68316 6.07571 0
M  V30 7097 H 658.552 -0.243488 6.95974 0
M  V30 7098 H 656.179 0.0610366 7.60175 0
M  V30 7099 N 657.755 -1.42862 -0.66545 0
M  V30 7100 C 658.687 -1.43026 -1.79098 0
M  V30 7101 C 659.7 -0.32803 -1.59461 0
M  V30 7102 O 660.889 -0.591709 -1.68407 0
M  V30 7103 C 657.989 -1.21566 -3.16346 0
M  V30 7104 C 657.162 -2.44399 -3.62751 0
M  V30 7105 C 656.221 -2.18344 -4.78761 0
M  V30 7106 O 655.247 -2.91611 -4.88827 0
M  V30 7107 N 656.449 -1.1924 -5.68122 0
M  V30 7108 H 659.214 -2.40045 -1.79439 0
M  V30 7109 H 656.775 -1.37861 -0.848872 0
M  V30 7110 H 658.767 -1.02037 -3.91625 0
M  V30 7111 H 657.337 -0.330368 -3.10849 0
M  V30 7112 H 656.557 -2.79433 -2.78048 0
M  V30 7113 H 657.845 -3.26173 -3.90498 0
M  V30 7114 H 657.243 -0.586603 -5.6265 0
M  V30 7115 H 655.8 -1.05698 -6.43173 0
M  V30 7116 N 659.233 0.902656 -1.29189 0
M  V30 7117 C 660.165 2.01149 -1.09872 0
M  V30 7118 C 661.178 1.62732 -0.0471046 0
M  V30 7119 O 662.367 1.76107 -0.29132 0
M  V30 7120 C 659.467 3.32612 -0.649818 0
M  V30 7121 C 658.64 3.99574 -1.7793 0
M  V30 7122 C 657.699 5.09325 -1.32191 0
M  V30 7123 O 656.725 5.31919 -2.02611 0
M  V30 7124 N 657.927 5.80185 -0.191171 0
M  V30 7125 H 660.692 2.18276 -2.05368 0
M  V30 7126 H 658.253 1.07466 -1.2109 0
M  V30 7127 H 660.245 4.03375 -0.327199 0
M  V30 7128 H 658.815 3.11876 0.212597 0
M  V30 7129 H 658.035 3.22213 -2.27095 0
M  V30 7130 H 659.323 4.41056 -2.53668 0
M  V30 7131 H 658.721 5.64312 0.396016 0
M  V30 7132 H 657.278 6.5176 0.0721001 0
M  V30 7133 N 660.711 1.11618 1.11262 0
M  V30 7134 C 661.644 0.719995 2.16544 0
M  V30 7135 C 662.622 -0.28471 1.60088 0
M  V30 7136 O 663.806 -0.180693 1.87632 0
M  V30 7137 C 660.933 0.0643302 3.38639 0
M  V30 7138 C 659.979 1.03448 4.13764 0
M  V30 7139 S 660.812 2.55789 4.70459 0
M  V30 7140 C 661.968 1.91529 5.95875 0
M  V30 7141 H 662.201 1.61181 2.49816 0
M  V30 7142 H 659.734 0.934401 1.22916 0
M  V30 7143 H 661.692 -0.307609 4.09346 0
M  V30 7144 H 660.353 -0.804471 3.03623 0
M  V30 7145 H 659.546 0.523188 5.01277 0
M  V30 7146 H 659.148 1.34893 3.48826 0
M  V30 7147 H 661.44 1.25286 6.65815 0
M  V30 7148 H 662.383 2.77047 6.51652 0
M  V30 7149 H 662.791 1.37468 5.47506 0
M  V30 7150 N 662.189 -1.289 0.906776 0
M  V30 7151 C 663.119 -2.29932 0.406659 0
M  V30 7152 C 664.1 -1.6189 -0.522061 0
M  V30 7153 O 665.285 -1.8935 -0.431283 0
M  V30 7154 C 662.415 -3.45425 -0.360366 0
M  V30 7155 C 661.369 -4.25316 0.478574 0
M  V30 7156 C 660.695 -5.33076 -0.416373 0
M  V30 7157 C 661.995 -4.92739 1.7322 0
M  V30 7158 H 663.689 -2.72013 1.25097 0
M  V30 7159 H 661.235 -1.30768 0.602977 0
M  V30 7160 H 663.188 -4.15186 -0.721029 0
M  V30 7161 H 661.912 -3.02206 -1.23852 0
M  V30 7162 H 660.571 -3.57273 0.821662 0
M  V30 7163 H 660.219 -4.86101 -1.29287 0
M  V30 7164 H 659.919 -5.8743 0.141309 0
M  V30 7165 H 661.443 -6.05686 -0.773072 0
M  V30 7166 H 662.857 -5.54898 1.44086 0
M  V30 7167 H 661.254 -5.57057 2.23175 0
M  V30 7168 H 662.324 -4.17625 2.46408 0
M  V30 7169 N 663.667 -0.670007 -1.42649 0
M  V30 7170 C 664.577 0.0114788 -2.34597 0
M  V30 7171 C 665.593 0.794055 -1.54825 0
M  V30 7172 O 666.769 0.737472 -1.87412 0
M  V30 7173 C 663.834 0.954436 -3.33304 0
M  V30 7174 C 662.895 0.166925 -4.28975 0
M  V30 7175 C 662.128 1.06497 -5.22967 0
M  V30 7176 O 662.351 2.30446 -5.21777 0
M  V30 7177 O 661.285 0.528347 -5.99577 0
M  V30 7178 H 665.111 -0.745794 -2.944 0
M  V30 7179 H 662.696 -0.430228 -1.43071 0
M  V30 7180 H 664.578 1.49589 -3.93956 0
M  V30 7181 H 663.253 1.69164 -2.7598 0
M  V30 7182 H 662.16 -0.418515 -3.71752 0
M  V30 7183 H 663.493 -0.531067 -4.89327 0
M  V30 7184 N 665.145 1.52092 -0.413018 0
M  V30 7185 C 666.077 2.24819 0.445994 0
M  V30 7186 C 667.09 1.27925 1.00692 0
M  V30 7187 O 668.279 1.53845 0.905204 0
M  V30 7188 C 665.379 2.96951 1.6332 0
M  V30 7189 C 664.552 4.20746 1.19548 0
M  V30 7190 C 663.611 4.75668 2.25003 0
M  V30 7191 O 662.637 5.38148 1.85434 0
M  V30 7192 N 663.839 4.57579 3.57214 0
M  V30 7193 H 666.604 2.99176 -0.177209 0
M  V30 7194 H 664.165 1.60102 -0.240601 0
M  V30 7195 H 666.157 3.30586 2.33441 0
M  V30 7196 H 664.727 2.25756 2.16225 0
M  V30 7197 H 663.947 3.92881 0.32224 0
M  V30 7198 H 665.235 5.01132 0.880033 0
M  V30 7199 H 664.633 4.07758 3.92109 0
M  V30 7200 H 663.19 4.95642 4.23299 0
M  V30 7201 N 666.623 0.143563 1.56945 0
M  V30 7202 C 667.553 -0.7936 2.196 0
M  V30 7203 C 668.534 -1.25955 1.14321 0
M  V30 7204 O 669.719 -1.31773 1.42651 0
M  V30 7205 C 666.849 -2.03424 2.81489 0
M  V30 7206 C 665.803 -1.70519 3.92565 0
M  V30 7207 C 665.129 -3.01817 4.41373 0
M  V30 7208 C 666.429 -0.95449 5.13504 0
M  V30 7209 H 668.123 -0.271423 2.98167 0
M  V30 7210 H 665.669 -0.12911 1.4342 0
M  V30 7211 H 667.622 -2.69463 3.23987 0
M  V30 7212 H 666.346 -2.58008 2.00248 0
M  V30 7213 H 665.005 -1.06859 3.5068 0
M  V30 7214 H 664.653 -3.54386 3.56959 0
M  V30 7215 H 664.353 -2.80565 5.16292 0
M  V30 7216 H 665.877 -3.68934 4.86539 0
M  V30 7217 H 667.291 -1.5169 5.52868 0
M  V30 7218 H 665.688 -0.842035 5.94163 0
M  V30 7219 H 666.758 0.0544033 4.84869 0
M  V30 7220 N 668.101 -1.57061 -0.130224 0
M  V30 7221 C 669.048 -1.99517 -1.16024 0
M  V30 7222 C 670.018 -0.865452 -1.41771 0
M  V30 7223 O 671.203 -1.12882 -1.53826 0
M  V30 7224 C 668.343 -2.3951 -2.48453 0
M  V30 7225 C 667.456 -3.65848 -2.29737 0
M  V30 7226 C 666.591 -3.9487 -3.55318 0
M  V30 7227 C 665.63 -5.14426 -3.31711 0
M  V30 7228 N 664.767 -5.39375 -4.49466 0
M  V30 7229 H 669.607 -2.87305 -0.791194 0
M  V30 7230 H 667.144 -1.42129 -0.379195 0
M  V30 7231 H 669.102 -2.60731 -3.25692 0
M  V30 7232 H 667.732 -1.54779 -2.83272 0
M  V30 7233 H 666.784 -3.52307 -1.4347 0
M  V30 7234 H 668.096 -4.53241 -2.08263 0
M  V30 7235 H 667.25 -4.16679 -4.4098 0
M  V30 7236 H 665.989 -3.05931 -3.79813 0
M  V30 7237 H 664.994 -4.92473 -2.44439 0
M  V30 7238 H 666.219 -6.04933 -3.08598 0
M  V30 7239 H 664.165 -4.53391 -4.74102 0
M  V30 7240 H 664.082 -6.21069 -4.31055 0
M  V30 7241 H 665.35 -5.65694 -5.36293 0
M  V30 7242 N 669.579 0.400081 -1.52437 0
M  V30 7243 C 670.526 1.48803 -1.76426 0
M  V30 7244 C 671.496 1.5461 -0.607032 0
M  V30 7245 O 672.681 1.71041 -0.845563 0
M  V30 7246 C 669.821 2.86156 -1.92896 0
M  V30 7247 C 668.934 2.89587 -3.20567 0
M  V30 7248 C 668.069 4.18296 -3.27417 0
M  V30 7249 C 667.108 4.15736 -4.49255 0
M  V30 7250 N 666.245 5.36032 -4.53447 0
M  V30 7251 H 671.085 1.27649 -2.69276 0
M  V30 7252 H 668.622 0.619451 -1.33421 0
M  V30 7253 H 670.58 3.65901 -2.00429 0
M  V30 7254 H 669.21 3.05785 -1.03418 0
M  V30 7255 H 668.262 2.02278 -3.22161 0
M  V30 7256 H 669.574 2.83562 -4.10358 0
M  V30 7257 H 668.728 5.06439 -3.34072 0
M  V30 7258 H 667.467 4.27028 -2.35581 0
M  V30 7259 H 666.472 3.25982 -4.42737 0
M  V30 7260 H 667.697 4.08636 -5.42396 0
M  V30 7261 H 665.643 5.45415 -3.64498 0
M  V30 7262 H 665.56 5.32038 -5.37096 0
M  V30 7263 H 666.828 6.26104 -4.64343 0
M  V30 7264 N 671.057 1.43213 0.657864 0
M  V30 7265 C 671.989 1.43974 1.78337 0
M  V30 7266 C 673.002 0.336482 1.59285 0
M  V30 7267 O 674.191 0.600631 1.68091 0
M  V30 7268 C 671.291 1.23242 3.15697 0
M  V30 7269 C 670.464 2.46319 3.61449 0
M  V30 7270 C 669.523 2.2088 4.77597 0
M  V30 7271 O 668.549 2.942 4.87273 0
M  V30 7272 N 669.751 1.22251 5.67481 0
M  V30 7273 H 672.516 2.40993 1.78164 0
M  V30 7274 H 670.077 1.3831 0.841549 0
M  V30 7275 H 672.069 1.04113 3.91079 0
M  V30 7276 H 670.639 0.346849 3.1067 0
M  V30 7277 H 669.859 2.80904 2.76563 0
M  V30 7278 H 671.147 3.28239 3.88763 0
M  V30 7279 H 670.545 0.616433 5.62331 0
M  V30 7280 H 669.102 1.09107 6.42603 0
M  V30 7281 N 672.536 -0.895792 1.29666 0
M  V30 7282 C 673.468 -2.00563 1.10937 0
M  V30 7283 C 674.481 -1.62705 0.055734 0
M  V30 7284 O 675.67 -1.7595 0.300656 0
M  V30 7285 C 672.77 -3.32262 0.667448 0
M  V30 7286 C 671.943 -3.98625 1.80047 0
M  V30 7287 C 671.002 -5.08617 1.3489 0
M  V30 7288 O 670.028 -5.30837 2.05429 0
M  V30 7289 N 671.23 -5.80076 0.221937 0
M  V30 7290 H 673.995 -2.17184 2.06522 0
M  V30 7291 H 671.556 -1.06822 1.21658 0
M  V30 7292 H 673.548 -4.03196 0.348586 0
M  V30 7293 H 672.118 -3.11985 -0.196055 0
M  V30 7294 H 671.338 -3.21005 2.28801 0
M  V30 7295 H 672.626 -4.39704 2.56003 0
M  V30 7296 H 672.024 -5.64514 -0.366084 0
M  V30 7297 H 670.581 -6.51789 -0.0375346 0
M  V30 7298 N 674.014 -1.12206 -1.10668 0
M  V30 7299 C 674.924 -0.800686 -2.20513 0
M  V30 7300 C 675.94 0.209512 -1.72734 0
M  V30 7301 O 677.116 0.043705 -2.01353 0
M  V30 7302 C 674.181 -0.257353 -3.45744 0
M  V30 7303 C 673.242 -1.32718 -4.0827 0
M  V30 7304 C 672.475 -0.809674 -5.27522 0
M  V30 7305 O 672.698 0.35742 -5.69279 0
M  V30 7306 O 671.632 -1.57816 -5.80842 0
M  V30 7307 H 675.458 -1.71807 -2.50432 0
M  V30 7308 H 673.043 -0.898546 -1.19359 0
M  V30 7309 H 674.925 0.0408849 -4.2138 0
M  V30 7310 H 673.6 0.632627 -3.17458 0
M  V30 7311 H 672.507 -1.67855 -3.34329 0
M  V30 7312 H 673.84 -2.19083 -4.40753 0
M  V30 7313 N 675.492 1.28418 -0.913599 0
M  V30 7314 C 676.402 2.31043 -0.406965 0
M  V30 7315 C 677.418 1.66501 0.505298 0
M  V30 7316 O 678.594 1.97558 0.391522 0
M  V30 7317 C 675.659 3.4498 0.344901 0
M  V30 7318 C 674.72 4.25078 -0.600563 0
M  V30 7319 C 673.953 5.33575 0.115516 0
M  V30 7320 O 674.176 5.54503 1.33727 0
M  V30 7321 O 673.11 5.9939 -0.549095 0
M  V30 7322 H 676.936 2.76387 -1.25873 0
M  V30 7323 H 674.521 1.33109 -0.678415 0
M  V30 7324 H 676.403 4.14314 0.769542 0
M  V30 7325 H 675.078 3.01719 1.1725 0
M  V30 7326 H 673.985 3.58334 -1.0746 0
M  V30 7327 H 675.318 4.72018 -1.39497 0
M  V30 7328 N 676.97 0.677563 1.42291 0
M  V30 7329 C 677.933 0.0101085 2.29198 0
M  V30 7330 C 678.933 -0.726219 1.43467 0
M  V30 7331 O 680.123 -0.563807 1.64824 0
M  V30 7332 C 677.255 -0.996316 3.26016 0
M  V30 7333 H 678.448 0.775071 2.89711 0
M  V30 7334 H 676.001 0.440065 1.49977 0
M  V30 7335 H 676.736 -1.78967 2.70446 0
M  V30 7336 H 676.521 -0.471687 3.89253 0
M  V30 7337 H 678.011 -1.46167 3.91184 0
M  V30 7338 N 678.448 -1.51871 0.421078 0
M  V30 7339 C 679.38 -2.25052 -0.434065 0
M  V30 7340 C 680.393 -1.28458 -1.00013 0
M  V30 7341 O 681.582 -1.54323 -0.897033 0
M  V30 7342 C 678.682 -2.97813 -1.61743 0
M  V30 7343 C 677.855 -4.21374 -1.17315 0
M  V30 7344 C 676.914 -4.76854 -2.22478 0
M  V30 7345 O 675.94 -5.39123 -1.82577 0
M  V30 7346 N 677.142 -4.59467 -3.54782 0
M  V30 7347 H 679.907 -2.99077 0.193073 0
M  V30 7348 H 677.468 -1.59972 0.249088 0
M  V30 7349 H 679.46 -3.3182 -2.31685 0
M  V30 7350 H 678.03 -2.26899 -2.15024 0
M  V30 7351 H 677.25 -3.93046 -0.3014 0
M  V30 7352 H 678.538 -5.01591 -0.853444 0
M  V30 7353 H 677.936 -4.09832 -3.89941 0
M  V30 7354 H 676.493 -4.9788 -4.20665 0
M  V30 7355 N 679.926 -0.151884 -1.56866 0
M  V30 7356 C 680.889 0.771861 -2.15812 0
M  V30 7357 C 681.889 1.17181 -1.10115 0
M  V30 7358 O 683.079 1.09194 -1.35729 0
M  V30 7359 C 680.211 2.04806 -2.7252 0
M  V30 7360 H 681.404 0.259021 -2.98779 0
M  V30 7361 H 678.957 0.097588 -1.55995 0
M  V30 7362 H 679.692 2.60445 -1.93233 0
M  V30 7363 H 679.477 1.77044 -3.49854 0
M  V30 7364 H 680.967 2.70771 -3.1792 0
M  V30 7365 N 681.404 1.57128 0.121893 0
M  V30 7366 C 682.65 1.84974 0.831418 0
M  V30 7367 C 682.983 0.737204 1.79663 0
M  V30 7368 O 682.258 -0.257199 1.92792 0
M  V30 7369 C 682.541 3.23397 1.58386 0
M  V30 7370 C 682.394 4.45246 0.638445 0
M  V30 7371 C 683.713 3.59355 2.54071 0
M  V30 7372 H 680.832 0.67282 0.300803 0
M  V30 7373 H 683.474 1.89759 0.0957587 0
M  V30 7374 H 681.624 3.19449 2.21098 0
M  V30 7375 H 683.296 4.61295 0.0203925 0
M  V30 7376 H 681.539 4.33771 -0.05023 0
M  V30 7377 H 682.21 5.38765 1.20151 0
M  V30 7378 H 684.686 3.64075 2.01465 0
M  V30 7379 H 683.562 4.57193 3.03752 0
M  V30 7380 H 683.823 2.86622 3.36601 0
M  V30 7381 N 682.882 -0.391992 1.52647 0
M  V30 7382 C 683.845 -1.46135 1.7657 0
M  V30 7383 C 684.845 -1.47701 0.635698 0
M  V30 7384 O 686.035 -1.48924 0.903728 0
M  V30 7385 C 683.167 -2.85443 1.86374 0
M  V30 7386 H 684.36 -1.26208 2.72051 0
M  V30 7387 H 681.913 -0.623549 1.43323 0
M  V30 7388 H 682.648 -3.10718 0.928685 0
M  V30 7389 H 682.433 -2.85708 2.68539 0
M  V30 7390 H 683.923 -3.62933 2.06566 0
M  V30 7391 N 684.36 -1.4356 -0.65026 0
M  V30 7392 C 685.323 -1.48615 -1.74489 0
M  V30 7393 C 686.323 -0.370483 -1.56474 0
M  V30 7394 O 687.513 -0.632351 -1.62317 0
M  V30 7395 C 684.645 -1.34161 -3.13391 0
M  V30 7396 H 685.838 -2.46103 -1.71387 0
M  V30 7397 H 683.391 -1.30369 -0.862186 0
M  V30 7398 H 684.126 -0.376918 -3.22102 0
M  V30 7399 H 683.911 -2.1504 -3.27872 0
M  V30 7400 H 685.401 -1.40637 -3.93206 0
M  V30 7401 N 685.838 0.888903 -1.30139 0
M  V30 7402 C 686.801 1.97576 -1.16174 0
M  V30 7403 C 687.801 1.60525 -0.094086 0
M  V30 7404 O 688.991 1.70812 -0.341889 0
M  V30 7405 C 686.123 3.3188 -0.778983 0
M  V30 7406 H 687.316 2.11393 -2.12728 0
M  V30 7407 H 684.869 1.0748 -1.1348 0
M  V30 7408 H 685.604 3.23765 0.186225 0
M  V30 7409 H 685.389 3.60141 -1.55051 0
M  V30 7410 H 686.879 4.11612 -0.704631 0
M  V30 7411 N 687.317 1.12792 1.10072 0
M  V30 7412 C 688.542 0.908838 1.86427 0
M  V30 7413 C 688.967 -0.536793 1.80278 0
M  V30 7414 O 688.325 -1.38033 1.17543 0
M  V30 7415 C 688.373 1.39295 3.3261 0
M  V30 7416 O 687.477 0.573846 4.08388 0
M  V30 7417 H 686.818 0.326234 0.578331 0
M  V30 7418 H 689.348 1.50094 1.39043 0
M  V30 7419 H 689.358 1.39366 3.83459 0
M  V30 7420 H 688.033 2.44555 3.36401 0
M  V30 7421 H 686.61 0.640438 3.67359 0
M  V30 7422 N 688.795 -1.27931 0.920396 0
M  V30 7423 C 689.758 -2.25345 0.41858 0
M  V30 7424 C 690.758 -1.54116 -0.458798 0
M  V30 7425 O 691.948 -1.72235 -0.260912 0
M  V30 7426 C 689.08 -3.38556 -0.399104 0
M  V30 7427 H 690.273 -2.71251 1.27918 0
M  V30 7428 H 687.826 -1.39728 0.700406 0
M  V30 7429 H 688.561 -2.98021 -1.27882 0
M  V30 7430 H 688.346 -3.91426 0.229863 0
M  V30 7431 H 689.836 -4.10976 -0.740817 0
M  V30 7432 N 690.273 -0.685099 -1.4193 0
M  V30 7433 C 691.236 -0.0222632 -2.29189 0
M  V30 7434 C 692.236 0.7186 -1.4385 0
M  V30 7435 O 693.426 0.555058 -1.6512 0
M  V30 7436 C 690.558 0.979013 -3.2654 0
M  V30 7437 H 691.751 -0.790424 -2.89296 0
M  V30 7438 H 689.304 -0.448012 -1.49742 0
M  V30 7439 H 690.039 1.77531 -2.71392 0
M  V30 7440 H 689.824 0.451037 -3.89497 0
M  V30 7441 H 691.314 1.44091 -3.91954 0
M  V30 7442 N 691.751 1.51645 -0.429126 0
M  V30 7443 C 692.976 2.06917 0.141399 0
M  V30 7444 C 693.401 1.29527 1.36398 0
M  V30 7445 O 692.759 0.33094 1.78254 0
M  V30 7446 C 692.807 3.57776 0.4504 0
M  V30 7447 O 691.911 3.82639 1.53821 0
M  V30 7448 H 691.252 0.663978 0.0054647 0
M  V30 7449 H 693.782 1.95355 -0.608093 0
M  V30 7450 H 693.792 4.01894 0.703249 0
M  V30 7451 H 692.467 4.13532 -0.443213 0
M  V30 7452 H 691.044 3.5039 1.27597 0
M  V30 7453 N 693.229 0.160201 1.56784 0
M  V30 7454 C 694.645 -0.196089 1.58391 0
M  V30 7455 C 694.845 -1.63689 1.17508 0
M  V30 7456 O 693.901 -2.36613 0.881506 0
M  V30 7457 C 695.214 0.0746449 3.00607 0
M  V30 7458 C 696.762 0.0119762 3.12998 0
M  V30 7459 C 697.237 0.255551 4.57286 0
M  V30 7460 N 698.728 0.202938 4.62755 0
M  V30 7461 C 699.463 0.365731 5.72232 0
M  V30 7462 N 698.959 0.586972 6.90309 0
M  V30 7463 N 700.752 0.302411 5.61286 0
M  V30 7464 H 692.903 1.1008 1.81648 0
M  V30 7465 H 695.166 0.436779 0.841384 0
M  V30 7466 H 694.872 1.07231 3.34954 0
M  V30 7467 H 694.746 -0.638802 3.71751 0
M  V30 7468 H 697.133 -0.976254 2.78484 0
M  V30 7469 H 697.214 0.75796 2.44313 0
M  V30 7470 H 696.858 1.24094 4.92507 0
M  V30 7471 H 696.788 -0.510912 5.24116 0
M  V30 7472 H 699.279 0.0371328 3.77882 0
M  V30 7473 H 699.592 0.700941 7.69615 0
M  V30 7474 H 697.937 0.623453 6.92198 0
M  V30 7475 H 701.128 0.130238 4.67919 0
M  V30 7476 H 701.301 0.432712 6.46554 0
M  V30 7477 N 694.707 -1.5719 -0.113559 0
M  V30 7478 C 695.984 -1.76117 -0.850999 0
M  V30 7479 C 696.364 -0.737085 -1.97814 0
M  V30 7480 O 695.712 0.237942 -2.27258 0
M  V30 7481 C 695.922 -3.21298 -1.36266 0
M  V30 7482 C 697.27 -3.83955 -1.81283 0
M  V30 7483 O 698.294 -3.24934 -1.45933 0
M  V30 7484 O 697.153 -4.87707 -2.46585 0
M  V30 7485 H 694.247 -0.721308 -0.404529 0
M  V30 7486 H 696.793 -1.69423 -0.0968756 0
M  V30 7487 H 695.565 -3.87355 -0.554235 0
M  V30 7488 H 695.188 -3.32552 -2.17933 0
M  V30 7489 N 696.185 0.383891 -1.52853 0
M  V30 7490 C 697.432 1.12842 -1.68146 0
M  V30 7491 C 697.76 1.89823 -0.423954 0
M  V30 7492 O 697.015 1.86475 0.593765 0
M  V30 7493 C 697.314 2.12881 -2.87082 0
M  V30 7494 C 696.98 1.52519 -4.24322 0
M  V30 7495 C 695.642 1.35783 -4.61645 0
M  V30 7496 C 697.994 1.0868 -5.09743 0
M  V30 7497 C 695.322 0.737643 -5.82044 0
M  V30 7498 C 697.674 0.480699 -6.30771 0
M  V30 7499 C 696.338 0.300681 -6.66822 0
M  V30 7500 H 695.608 0.412917 -0.615289 0
M  V30 7501 H 698.255 0.412416 -1.87006 0
M  V30 7502 H 696.56 2.90719 -2.62659 0
M  V30 7503 H 698.257 2.70408 -2.96109 0
M  V30 7504 H 694.847 1.66534 -3.94923 0
M  V30 7505 H 699.031 1.2041 -4.81472 0
M  V30 7506 H 694.287 0.586415 -6.08581 0
M  V30 7507 H 698.461 0.132733 -6.96273 0
M  V30 7508 H 696.088 -0.181966 -7.59982 0
M  V30 7509 N 697.663 1.43903 0.642637 0
M  V30 7510 C 698.888 1.49758 1.43483 0
M  V30 7511 C 699.313 0.119911 1.87717 0
M  V30 7512 O 698.671 -0.888558 1.58033 0
M  V30 7513 C 698.719 2.45744 2.63898 0
M  V30 7514 O 697.823 1.95101 3.63331 0
M  V30 7515 H 697.164 0.506138 0.429791 0
M  V30 7516 H 699.694 1.88923 0.785438 0
M  V30 7517 H 699.704 2.63399 3.11584 0
M  V30 7518 H 698.379 3.45818 2.31046 0
M  V30 7519 H 696.956 1.87158 3.22531 0
M  V30 7520 N 699.141 -0.881989 1.30609 0
M  V30 7521 C 700.389 -1.63082 1.19368 0
M  V30 7522 C 700.71 -1.93376 -0.251147 0
M  V30 7523 O 699.98 -1.5723 -1.16857 0
M  V30 7524 H 698.56 -0.604542 0.438791 0
M  V30 7525 H 701.222 -1.05658 1.63776 0
M  V30 7526 H 700.318 -2.57966 1.7567 0
M  V30 7527 N 700.619 -1.13374 -1.09472 0
M  V30 7528 C 701.868 -0.889844 -1.8101 0
M  V30 7529 C 702.181 0.585686 -1.86625 0
M  V30 7530 O 703.387 0.946497 -2.54467 0
M  V30 7531 C 701.843 -1.54241 -3.25174 0
M  V30 7532 C 701.451 -3.05343 -3.27826 0
M  V30 7533 C 703.195 -1.37919 -4.0147 0
M  V30 7534 C 701.102 -3.63486 -4.6651 0
M  V30 7535 H 700.032 -0.329256 -0.678311 0
M  V30 7536 H 702.683 -1.36139 -1.23038 0
M  V30 7537 H 701.065 -0.998525 -3.83204 0
M  V30 7538 H 702.239 -3.66307 -2.79563 0
M  V30 7539 H 700.554 -3.21175 -2.65019 0
M  V30 7540 H 703.151 -1.78771 -5.03929 0
M  V30 7541 H 703.494 -0.323987 -4.15037 0
M  V30 7542 H 704.027 -1.89284 -3.49881 0
M  V30 7543 H 700.766 -4.68811 -4.58145 0
M  V30 7544 H 700.286 -3.073 -5.15099 0
M  V30 7545 H 701.965 -3.63134 -5.35484 0
M  V30 7546 N 702.098 1.27442 -0.927168 0
M  V30 7547 C 703.346 1.94007 -0.566203 0
M  V30 7548 C 703.667 1.7323 0.895345 0
M  V30 7549 O 702.937 1.07973 1.63459 0
M  V30 7550 H 701.517 0.717917 -0.206409 0
M  V30 7551 H 704.179 1.55161 -1.17945 0
M  V30 7552 H 703.275 3.02401 -0.772028 0
M  V30 7553 N 703.576 0.692616 1.41565 0
M  V30 7554 C 704.824 0.221896 2.00878 0
M  V30 7555 C 705.145 -1.18164 1.5512 0
M  V30 7556 O 704.415 -1.79679 0.78054 0
M  V30 7557 H 702.995 0.0790463 0.742806 0
M  V30 7558 H 705.657 0.893115 1.73232 0
M  V30 7559 H 704.753 0.23702 3.11199 0
M  V30 7560 N 705.054 -1.51416 0.437162 0
M  V30 7561 C 705.984 -2.30631 -0.364922 0
M  V30 7562 C 706.965 -1.36037 -1.02118 0
M  V30 7563 O 708.15 -1.64956 -1.02485 0
M  V30 7564 C 705.28 -3.1482 -1.46648 0
M  V30 7565 C 704.234 -4.17691 -0.933717 0
M  V30 7566 C 703.56 -4.904 -2.13101 0
M  V30 7567 C 704.86 -5.2229 0.0317201 0
M  V30 7568 H 706.554 -2.97932 0.29614 0
M  V30 7569 H 704.1 -1.4328 0.143865 0
M  V30 7570 H 706.053 -3.69017 -2.03481 0
M  V30 7571 H 704.777 -2.4534 -2.15583 0
M  V30 7572 H 703.436 -3.64545 -0.387602 0
M  V30 7573 H 703.084 -4.17423 -2.80654 0
M  V30 7574 H 702.784 -5.59962 -1.78092 0
M  V30 7575 H 704.308 -5.4742 -2.70487 0
M  V30 7576 H 705.722 -5.7156 -0.446302 0
M  V30 7577 H 704.119 -5.99378 0.29437 0
M  V30 7578 H 705.189 -4.75131 0.968447 0
M  V30 7579 N 706.532 -0.168513 -1.56696 0
M  V30 7580 C 707.78 0.476216 -1.96409 0
M  V30 7581 C 708.101 1.63968 -1.05544 0
M  V30 7582 O 707.371 1.95525 -0.121235 0
M  V30 7583 H 705.951 0.178921 -0.725256 0
M  V30 7584 H 708.613 -0.249042 -1.93302 0
M  V30 7585 H 707.709 0.838094 -3.00637 0
M  V30 7586 N 708.01 1.57248 0.105221 0
M  V30 7587 C 708.92 2.04653 1.14693 0
M  V30 7588 C 709.936 0.969488 1.44489 0
M  V30 7589 O 711.112 1.28196 1.55331 0
M  V30 7590 C 708.177 2.45297 2.45011 0
M  V30 7591 C 707.238 3.67148 2.22489 0
M  V30 7592 C 706.471 4.05844 3.46592 0
M  V30 7593 O 706.694 3.44736 4.54437 0
M  V30 7594 O 705.628 4.98862 3.36779 0
M  V30 7595 H 709.454 2.93663 0.774336 0
M  V30 7596 H 707.039 1.45998 0.31701 0
M  V30 7597 H 708.921 2.72112 3.21766 0
M  V30 7598 H 707.596 1.59429 2.81717 0
M  V30 7599 H 706.503 3.45463 1.43547 0
M  V30 7600 H 707.836 4.53764 1.9068 0
M  V30 7601 N 709.488 -0.375779 1.53054 0
M  V30 7602 C 710.418 -1.46598 1.81745 0
M  V30 7603 C 711.399 -1.56337 0.670286 0
M  V30 7604 O 712.584 -1.71071 0.919158 0
M  V30 7605 C 709.714 -2.84058 1.99821 0
M  V30 7606 C 708.668 -2.8915 3.15557 0
M  V30 7607 C 707.994 -4.29187 3.18908 0
M  V30 7608 C 709.294 -2.57595 4.54359 0
M  V30 7609 H 710.988 -1.22837 2.73041 0
M  V30 7610 H 708.534 -0.589485 1.31381 0
M  V30 7611 H 710.487 -3.60342 2.18475 0
M  V30 7612 H 709.211 -3.09184 1.05226 0
M  V30 7613 H 707.87 -2.15316 2.96706 0
M  V30 7614 H 707.518 -4.51374 2.2197 0
M  V30 7615 H 707.218 -4.33512 3.96662 0
M  V30 7616 H 708.742 -5.07359 3.39734 0
M  V30 7617 H 710.156 -3.23595 4.73243 0
M  V30 7618 H 708.553 -2.73252 5.34279 0
M  V30 7619 H 709.623 -1.52882 4.60169 0
M  V30 7620 N 710.966 -1.44241 -0.634997 0
M  V30 7621 C 711.896 -1.53632 -1.7584 0
M  V30 7622 C 712.877 -0.389603 -1.65578 0
M  V30 7623 O 714.062 -0.609219 -1.84397 0
M  V30 7624 C 711.192 -1.47644 -3.14354 0
M  V30 7625 C 710.146 -2.60752 -3.394 0
M  V30 7626 C 709.472 -2.39817 -4.77904 0
M  V30 7627 C 710.772 -4.02921 -3.32343 0
M  V30 7628 H 712.466 -2.47662 -1.68238 0
M  V30 7629 H 710.012 -1.19197 -0.807969 0
M  V30 7630 H 711.965 -1.52815 -3.92716 0
M  V30 7631 H 710.689 -0.501284 -3.2273 0
M  V30 7632 H 709.348 -2.54965 -2.63417 0
M  V30 7633 H 708.996 -1.40502 -4.82978 0
M  V30 7634 H 708.696 -3.15649 -4.9562 0
M  V30 7635 H 710.22 -2.46799 -5.585 0
M  V30 7636 H 711.634 -4.10098 -4.00615 0
M  V30 7637 H 710.031 -4.78925 -3.61595 0
M  V30 7638 H 711.101 -4.26766 -2.30215 0
M  V30 7639 N 712.444 0.87505 -1.31075 0
M  V30 7640 C 713.354 2.01441 -1.20244 0
M  V30 7641 C 714.37 1.73584 -0.120227 0
M  V30 7642 O 715.546 1.98559 -0.337063 0
M  V30 7643 C 712.611 3.34675 -0.905199 0
M  V30 7644 C 711.672 3.75889 -2.0738 0
M  V30 7645 C 710.905 5.02764 -1.79064 0
M  V30 7646 O 711.128 5.65795 -0.723318 0
M  V30 7647 O 710.062 5.40623 -2.64594 0
M  V30 7648 H 713.888 2.13509 -2.1598 0
M  V30 7649 H 711.473 1.00257 -1.10765 0
M  V30 7650 H 713.355 4.1458 -0.755057 0
M  V30 7651 H 712.03 3.23692 0.0221695 0
M  V30 7652 H 710.937 2.96645 -2.27931 0
M  V30 7653 H 712.27 3.91489 -2.98324 0
M  V30 7654 N 713.922 1.13953 1.08869 0
M  V30 7655 C 715.147 0.928559 1.85452 0
M  V30 7656 C 715.572 -0.517642 1.80837 0
M  V30 7657 O 714.93 -1.36779 1.19001 0
M  V30 7658 C 714.978 1.42814 3.31114 0
M  V30 7659 O 714.082 0.617129 4.07756 0
M  V30 7660 H 713.423 0.33235 0.574839 0
M  V30 7661 H 715.953 1.5156 1.37443 0
M  V30 7662 H 715.963 1.43425 3.8196 0
M  V30 7663 H 714.638 2.48109 3.33788 0
M  V30 7664 H 713.215 0.679365 3.66659 0
M  V30 7665 N 715.4 -1.26948 0.933913 0
M  V30 7666 C 716.625 -1.98724 0.593589 0
M  V30 7667 C 717.05 -1.6915 -0.822801 0
M  V30 7668 O 716.408 -0.93533 -1.5531 0
M  V30 7669 C 716.456 -3.50834 0.833542 0
M  V30 7670 O 715.56 -4.12284 -0.0978788 0
M  V30 7671 H 714.901 -0.623683 0.227849 0
M  V30 7672 H 717.431 -1.61599 1.25486 0
M  V30 7673 H 717.441 -4.01018 0.75156 0
M  V30 7674 H 716.116 -3.71691 1.86597 0
M  V30 7675 H 714.693 -3.72884 0.0345443 0
M  V30 7676 N 716.879 -0.700114 -1.41195 0
M  V30 7677 C 718.104 -0.240704 -2.05998 0
M  V30 7678 C 718.529 1.10313 -1.52357 0
M  V30 7679 O 717.887 1.69154 -0.652424 0
M  V30 7680 C 717.935 -0.213783 -3.59966 0
M  V30 7681 O 717.039 0.809933 -4.04368 0
M  V30 7682 H 716.38 -0.116471 -0.653705 0
M  V30 7683 H 718.91 -0.956251 -1.80878 0
M  V30 7684 H 718.92 -0.0461852 -4.07974 0
M  V30 7685 H 717.595 -1.19454 -3.98376 0
M  V30 7686 H 716.172 0.611319 -3.67855 0
M  V30 7687 N 718.357 1.51182 -0.445186 0
M  V30 7688 C 719.267 2.31692 0.368255 0
M  V30 7689 C 720.283 1.40942 1.02036 0
M  V30 7690 O 721.459 1.74011 1.01401 0
M  V30 7691 C 718.524 3.14903 1.45041 0
M  V30 7692 C 717.585 4.21442 0.817615 0
M  V30 7693 C 716.818 5.00677 1.8482 0
M  V30 7694 O 717.041 4.80644 3.07145 0
M  V30 7695 O 715.975 5.84559 1.43438 0
M  V30 7696 H 719.801 3.0232 -0.289219 0
M  V30 7697 H 717.386 1.47951 -0.207555 0
M  V30 7698 H 719.268 3.66612 2.07783 0
M  V30 7699 H 717.943 2.47031 2.09182 0
M  V30 7700 H 716.85 3.73791 0.151931 0
M  V30 7701 H 718.183 4.9171 0.219564 0
M  V30 7702 N 719.835 0.176821 1.56605 0
M  V30 7703 C 720.798 -0.737429 2.17013 0
M  V30 7704 C 721.798 -1.15414 1.11965 0
M  V30 7705 O 722.988 -1.0702 1.37449 0
M  V30 7706 C 720.12 -2.00445 2.75744 0
M  V30 7707 H 721.313 -0.211455 2.99154 0
M  V30 7708 H 718.866 -0.0727582 1.56131 0
M  V30 7709 H 719.601 -2.57338 1.97352 0
M  V30 7710 H 719.386 -1.71456 3.52626 0
M  V30 7711 H 720.876 -2.65679 3.22187 0
M  V30 7712 N 721.313 -1.57302 -0.09688 0
M  V30 7713 C 722.538 -1.9058 -0.818169 0
M  V30 7714 C 722.963 -0.770921 -1.71576 0
M  V30 7715 O 722.321 0.277588 -1.79162 0
M  V30 7716 C 722.369 -3.22714 -1.60898 0
M  V30 7717 O 721.473 -3.10178 -2.71779 0
M  V30 7718 H 720.814 -0.624759 -0.224882 0
M  V30 7719 H 723.344 -2.04471 -0.07264 0
M  V30 7720 H 723.354 -3.55978 -1.99358 0
M  V30 7721 H 722.029 -4.04899 -0.950227 0
M  V30 7722 H 720.606 -2.88424 -2.3636 0
M  V30 7723 N 722.791 0.367657 -1.53252 0
M  V30 7724 C 723.738 1.45028 -1.79543 0
M  V30 7725 C 724.708 1.53288 -0.63969 0
M  V30 7726 O 725.893 1.69209 -0.881653 0
M  V30 7727 C 723.033 2.82 -1.98923 0
M  V30 7728 C 722.146 2.82722 -3.26638 0
M  V30 7729 C 721.281 4.11257 -3.36216 0
M  V30 7730 C 720.32 4.06113 -4.57972 0
M  V30 7731 N 719.457 5.26293 -4.64715 0
M  V30 7732 H 724.297 1.21908 -2.71923 0
M  V30 7733 H 721.834 0.591011 -1.34705 0
M  V30 7734 H 723.792 3.61568 -2.08146 0
M  V30 7735 H 722.422 3.03523 -1.09881 0
M  V30 7736 H 721.474 1.95399 -3.26379 0
M  V30 7737 H 722.786 2.74794 -4.16281 0
M  V30 7738 H 721.94 4.99239 -3.44739 0
M  V30 7739 H 720.679 4.21935 -2.44586 0
M  V30 7740 H 719.684 3.16517 -4.49552 0
M  V30 7741 H 720.909 3.97039 -5.50942 0
M  V30 7742 H 718.855 5.37561 -3.75985 0
M  V30 7743 H 718.772 5.20526 -5.4826 0
M  V30 7744 H 720.04 6.16113 -4.77519 0
M  V30 7745 N 724.269 1.44576 0.627338 0
M  V30 7746 C 725.199 1.54562 1.75022 0
M  V30 7747 C 726.18 0.398378 1.65369 0
M  V30 7748 O 727.365 0.61899 1.84071 0
M  V30 7749 C 724.495 1.49309 3.13567 0
M  V30 7750 C 723.449 2.62549 3.38012 0
M  V30 7751 C 722.775 2.42348 4.76625 0
M  V30 7752 C 724.075 4.04678 3.30202 0
M  V30 7753 H 725.769 2.4855 1.66922 0
M  V30 7754 H 723.315 1.19624 0.801636 0
M  V30 7755 H 725.268 1.54895 3.919 0
M  V30 7756 H 723.992 0.518392 3.2246 0
M  V30 7757 H 722.651 2.56358 2.62061 0
M  V30 7758 H 722.299 1.43062 4.82226 0
M  V30 7759 H 721.999 3.18273 4.93939 0
M  V30 7760 H 723.523 2.49758 5.57183 0
M  V30 7761 H 724.937 4.12217 3.98435 0
M  V30 7762 H 723.334 4.80836 3.5905 0
M  V30 7763 H 724.404 4.2798 2.27949 0
M  V30 7764 N 725.747 -0.868086 1.31537 0
M  V30 7765 C 726.972 -1.65926 1.24432 0
M  V30 7766 C 727.397 -1.87169 -0.186936 0
M  V30 7767 O 726.755 -1.4148 -1.13371 0
M  V30 7768 C 726.803 -3.00347 1.9956 0
M  V30 7769 O 725.907 -3.90221 1.33422 0
M  V30 7770 H 725.248 -0.506375 0.429512 0
M  V30 7771 H 727.778 -1.0822 1.73637 0
M  V30 7772 H 727.788 -3.50269 2.09226 0
M  V30 7773 H 726.463 -2.84205 3.03645 0
M  V30 7774 H 725.04 -3.48672 1.32219 0
M  V30 7775 N 727.225 -1.14528 -1.08264 0
M  V30 7776 C 728.45 -0.938381 -1.84957 0
M  V30 7777 C 728.875 0.508044 -1.81109 0
M  V30 7778 O 728.233 1.36146 -1.19724 0
M  V30 7779 C 728.281 -1.44568 -3.30352 0
M  V30 7780 O 727.385 -0.638745 -4.07423 0
M  V30 7781 H 726.726 -0.335394 -0.573068 0
M  V30 7782 H 729.256 -1.52287 -1.36637 0
M  V30 7783 H 729.266 -1.45449 -3.81194 0
M  V30 7784 H 727.941 -2.49876 -3.32468 0
M  V30 7785 H 726.518 -0.698801 -3.66294 0
M  V30 7786 N 728.703 1.26451 -0.940633 0
M  V30 7787 C 729.65 2.264 -0.448497 0
M  V30 7788 C 730.62 1.5866 0.491546 0
M  V30 7789 O 731.805 1.86389 0.407874 0
M  V30 7790 C 728.945 3.43956 0.280715 0
M  V30 7791 C 728.058 4.26374 -0.694937 0
M  V30 7792 C 727.193 5.31171 0.0554186 0
M  V30 7793 C 726.232 6.05266 -0.912091 0
M  V30 7794 N 725.369 7.01833 -0.193524 0
M  V30 7795 H 730.209 2.67869 -1.30576 0
M  V30 7796 H 727.746 1.31707 -0.655112 0
M  V30 7797 H 729.704 4.10941 0.71994 0
M  V30 7798 H 728.334 3.03403 1.10212 0
M  V30 7799 H 727.386 3.59183 -1.25267 0
M  V30 7800 H 728.698 4.77748 -1.43382 0
M  V30 7801 H 727.852 6.04166 0.553951 0
M  V30 7802 H 726.591 4.80634 0.827183 0
M  V30 7803 H 725.596 5.31099 -1.42175 0
M  V30 7804 H 726.821 6.57893 -1.68385 0
M  V30 7805 H 724.767 6.53607 0.559758 0
M  V30 7806 H 724.684 7.50957 -0.871744 0
M  V30 7807 H 725.952 7.78983 0.283932 0
M  V30 7808 N 730.181 0.707592 1.40822 0
M  V30 7809 C 731.406 0.251626 2.05868 0
M  V30 7810 C 731.831 -1.09503 1.5294 0
M  V30 7811 O 731.189 -1.68806 0.661385 0
M  V30 7812 C 731.237 0.23287 3.59847 0
M  V30 7813 O 730.341 -0.788477 4.04792 0
M  V30 7814 H 729.682 0.119936 0.653078 0
M  V30 7815 H 732.212 0.96583 1.80369 0
M  V30 7816 H 732.222 0.0678204 4.07944 0
M  V30 7817 H 730.897 1.21565 3.97737 0
M  V30 7818 H 729.474 -0.591802 3.68174 0
M  V30 7819 N 731.66 -1.50943 0.453197 0
M  V30 7820 C 732.623 -2.26684 -0.338705 0
M  V30 7821 C 733.623 -1.30748 -0.936032 0
M  V30 7822 O 734.813 -1.54327 -0.808002 0
M  V30 7823 C 731.945 -3.07063 -1.48071 0
M  V30 7824 H 733.138 -2.98131 0.325289 0
M  V30 7825 H 730.691 -1.54926 0.206771 0
M  V30 7826 H 731.426 -2.4007 -2.18029 0
M  V30 7827 H 731.211 -3.77545 -1.0584 0
M  V30 7828 H 732.701 -3.64393 -2.0398 0
M  V30 7829 N 733.138 -0.185124 -1.56509 0
M  V30 7830 C 734.085 0.739729 -2.18624 0
M  V30 7831 C 735.055 1.217 -1.13042 0
M  V30 7832 O 736.24 1.28268 -1.41251 0
M  V30 7833 C 733.38 1.95787 -2.84186 0
M  V30 7834 C 732.493 1.52289 -4.04267 0
M  V30 7835 C 731.628 2.69576 -4.57714 0
M  V30 7836 C 730.667 2.22636 -5.70175 0
M  V30 7837 N 729.804 3.33065 -6.18071 0
M  V30 7838 H 734.644 0.203269 -2.97306 0
M  V30 7839 H 732.181 0.0885946 -1.46833 0
M  V30 7840 H 734.139 2.67253 -3.20361 0
M  V30 7841 H 732.769 2.4678 -2.08085 0
M  V30 7842 H 731.821 0.704458 -3.7382 0
M  V30 7843 H 733.133 1.13843 -4.85635 0
M  V30 7844 H 732.287 3.4918 -4.96143 0
M  V30 7845 H 731.026 3.1129 -3.75433 0
M  V30 7846 H 730.031 1.41483 -5.31284 0
M  V30 7847 H 731.256 1.81964 -6.54267 0
M  V30 7848 H 729.202 3.74328 -5.38715 0
M  V30 7849 H 729.119 2.98756 -6.94464 0
M  V30 7850 H 730.387 4.12912 -6.61153 0
M  V30 7851 N 734.616 1.57351 0.0885366 0
M  V30 7852 C 735.526 2.05858 1.12516 0
M  V30 7853 C 736.542 0.984758 1.43452 0
M  V30 7854 O 737.718 1.29836 1.53963 0
M  V30 7855 C 734.783 2.47882 2.42395 0
M  V30 7856 C 733.844 3.69487 2.18582 0
M  V30 7857 C 733.077 4.09497 3.42268 0
M  V30 7858 O 733.3 3.49536 4.50755 0
M  V30 7859 O 732.234 5.02406 3.31469 0
M  V30 7860 H 736.06 2.94467 0.743146 0
M  V30 7861 H 733.645 1.46326 0.301507 0
M  V30 7862 H 735.527 2.75509 3.18862 0
M  V30 7863 H 734.202 1.62408 2.8001 0
M  V30 7864 H 733.109 3.46967 1.39875 0
M  V30 7865 H 734.442 4.55761 1.85857 0
M  V30 7866 N 736.094 -0.359525 1.53444 0
M  V30 7867 C 737.34 -1.09958 1.71116 0
M  V30 7868 C 737.695 -1.8681 0.460414 0
M  V30 7869 O 736.988 -1.83635 -0.5467 0
M  V30 7870 C 737.182 -2.08287 2.90433 0
M  V30 7871 C 737.011 -1.41098 4.26991 0
M  V30 7872 C 735.781 -1.16255 4.91745 0
M  V30 7873 C 737.979 -0.845517 5.07302 0
M  V30 7874 N 735.961 -0.454798 6.12213 0
M  V30 7875 C 737.332 -0.267455 6.19423 0
M  V30 7876 C 739.387 -0.744797 4.92298 0
M  V30 7877 C 738.09 0.401511 7.18179 0
M  V30 7878 C 740.116 -0.0896013 5.91332 0
M  V30 7879 C 739.478 0.47756 7.02779 0
M  V30 7880 H 735.577 -0.387305 0.679352 0
M  V30 7881 H 738.161 -0.38519 1.90852 0
M  V30 7882 H 736.332 -2.77034 2.72226 0
M  V30 7883 H 738.064 -2.75015 2.96899 0
M  V30 7884 H 734.819 -1.44544 4.51003 0
M  V30 7885 H 735.243 -0.116108 6.769 0
M  V30 7886 H 739.885 -1.16905 4.06317 0
M  V30 7887 H 737.603 0.837694 8.03746 0
M  V30 7888 H 741.189 -0.0125162 5.81799 0
M  V30 7889 H 740.069 0.976522 7.78096 0
M  V30 7890 N 737.572 -1.44907 -0.619662 0
M  V30 7891 C 738.988 -1.29046 -0.939107 0
M  V30 7892 C 739.188 -0.23462 -2.00129 0
M  V30 7893 O 738.244 0.37558 -2.49691 0
M  V30 7894 C 739.557 -2.66567 -1.39149 0
M  V30 7895 C 741.105 -2.74368 -1.50635 0
M  V30 7896 C 741.58 -4.12386 -1.99253 0
M  V30 7897 N 743.071 -4.1462 -2.06506 0
M  V30 7898 C 743.806 -5.18272 -2.4532 0
M  V30 7899 N 743.302 -6.32278 -2.83189 0
M  V30 7900 N 745.095 -5.05628 -2.45554 0
M  V30 7901 H 737.246 -2.12239 0.0826135 0
M  V30 7902 H 739.509 -0.947652 -0.0256829 0
M  V30 7903 H 739.215 -3.4496 -0.685254 0
M  V30 7904 H 739.089 -2.94224 -2.36034 0
M  V30 7905 H 741.476 -1.96287 -2.20353 0
M  V30 7906 H 741.557 -2.50439 -0.520963 0
M  V30 7907 H 741.201 -4.90947 -1.30127 0
M  V30 7908 H 741.131 -4.33699 -2.98684 0
M  V30 7909 H 743.622 -3.32343 -1.79878 0
M  V30 7910 H 743.935 -7.07172 -3.11652 0
M  V30 7911 H 742.28 -6.35699 -2.80913 0
M  V30 7912 H 745.471 -4.15613 -2.15367 0
M  V30 7913 H 745.644 -5.86529 -2.75478 0
M  V30 7914 N 739.05 0.861098 -1.31996 0
M  V30 7915 C 739.998 1.99052 -1.20337 0
M  V30 7916 C 740.992 1.69045 -0.109623 0
M  V30 7917 O 742.198 1.77931 -0.272117 0
M  V30 7918 H 738.573 0.653064 -0.372843 0
M  V30 7919 H 740.544 2.06015 -2.15872 0
M  V30 7920 C 739.293 3.34846 -0.936663 0
M  V30 7921 H 738.616 3.58462 -1.77045 0
M  V30 7922 H 740.056 4.1444 -0.895302 0
M  V30 7923 C 738.515 3.34965 0.360607 0
M  V30 7924 O 739.045 3.7745 1.37456 0
M  V30 7925 N 737.251 2.88101 0.380296 0
M  V30 7926 H 736.798 2.53721 -0.445351 0
M  V30 7927 H 736.756 2.88563 1.24816 0
M  V30 7928 N 740.528 1.15101 1.07655 0
M  V30 7929 C 741.944 0.893004 1.32279 0
M  V30 7930 C 742.144 -0.461701 1.96139 0
M  V30 7931 O 741.2 -1.20431 2.21929 0
M  V30 7932 C 742.513 2.03161 2.21689 0
M  V30 7933 C 744.061 2.06579 2.35147 0
M  V30 7934 C 744.536 3.19754 3.27905 0
M  V30 7935 N 746.027 3.19382 3.35484 0
M  V30 7936 C 746.762 4.03592 4.07309 0
M  V30 7937 N 746.258 4.97859 4.81776 0
M  V30 7938 N 748.051 3.91626 4.03219 0
M  V30 7939 H 740.202 2.02341 0.645886 0
M  V30 7940 H 742.465 0.882127 0.347211 0
M  V30 7941 H 742.171 3.00934 1.82021 0
M  V30 7942 H 742.045 1.96132 3.22199 0
M  V30 7943 H 744.432 1.09408 2.74069 0
M  V30 7944 H 744.513 2.17676 1.34353 0
M  V30 7945 H 744.157 4.17175 2.89702 0
M  V30 7946 H 744.087 3.05893 4.28645 0
M  V30 7947 H 746.578 2.51112 2.82403 0
M  V30 7948 H 746.891 5.58563 5.34067 0
M  V30 7949 H 745.236 5.0185 4.80803 0
M  V30 7950 H 748.427 3.17295 3.44154 0
M  V30 7951 H 748.6 4.57479 4.5893 0
M  V30 7952 N 742.006 -1.2595 0.947325 0
M  V30 7953 C 743.422 -1.45737 0.650597 0
M  V30 7954 C 743.622 -1.85189 -0.794188 0
M  V30 7955 O 742.678 -1.97738 -1.57022 0
M  V30 7956 C 743.991 -2.53505 1.61728 0
M  V30 7957 C 745.539 -2.67351 1.62765 0
M  V30 7958 C 746.014 -3.78296 2.58179 0
M  V30 7959 N 747.505 -3.85696 2.56501 0
M  V30 7960 C 748.24 -4.71012 3.2701 0
M  V30 7961 N 747.736 -5.60669 4.06966 0
M  V30 7962 N 749.529 -4.64912 3.15932 0
M  V30 7963 H 741.68 -0.986327 1.8811 0
M  V30 7964 H 743.943 -0.494639 0.808725 0
M  V30 7965 H 743.649 -2.31357 2.6489 0
M  V30 7966 H 743.523 -3.51281 1.3741 0
M  V30 7967 H 745.91 -2.88869 0.603241 0
M  V30 7968 H 745.991 -1.69998 1.91139 0
M  V30 7969 H 745.635 -3.5753 3.60742 0
M  V30 7970 H 745.565 -4.75117 2.27093 0
M  V30 7971 H 748.056 -3.21601 1.98447 0
M  V30 7972 H 748.369 -6.22677 4.57704 0
M  V30 7973 H 746.714 -5.60402 4.11066 0
M  V30 7974 H 749.905 -3.93874 2.52945 0
M  V30 7975 H 750.078 -5.3118 3.71149 0
M  V30 7976 N 743.484 -0.715051 -1.40445 0
M  V30 7977 C 744.431 -0.0621393 -2.30716 0
M  V30 7978 C 745.401 0.750871 -1.48159 0
M  V30 7979 O 746.586 0.714928 -1.76899 0
M  V30 7980 C 743.726 0.854036 -3.34365 0
M  V30 7981 C 742.839 0.0305565 -4.31989 0
M  V30 7982 C 741.974 0.946162 -5.22706 0
M  V30 7983 C 741.013 0.116741 -6.11989 0
M  V30 7984 N 740.15 0.987194 -6.95125 0
M  V30 7985 H 744.99 -0.83764 -2.85985 0
M  V30 7986 H 742.527 -0.424759 -1.40834 0
M  V30 7987 H 744.485 1.39946 -3.93028 0
M  V30 7988 H 743.115 1.59572 -2.806 0
M  V30 7989 H 742.167 -0.632044 -3.75112 0
M  V30 7990 H 743.479 -0.611615 -4.95036 0
M  V30 7991 H 742.633 1.56014 -5.86297 0
M  V30 7992 H 741.372 1.62216 -4.59932 0
M  V30 7993 H 740.377 -0.510176 -5.47428 0
M  V30 7994 H 741.602 -0.555742 -6.76822 0
M  V30 7995 H 739.548 1.64885 -6.3494 0
M  V30 7996 H 739.465 0.401046 -7.54936 0
M  V30 7997 H 740.733 1.58737 -7.63166 0
M  V30 7998 N 744.962 1.50701 -0.461195 0
M  V30 7999 C 745.909 2.2831 0.338094 0
M  V30 8000 C 746.879 1.32928 0.995957 0
M  V30 8001 O 748.064 1.61857 1.0103 0
M  V30 8002 C 745.204 3.14539 1.41983 0
M  V30 8003 C 744.317 4.24942 0.77773 0
M  V30 8004 C 743.452 4.98443 1.83652 0
M  V30 8005 C 742.491 6.00733 1.17413 0
M  V30 8006 N 741.628 6.6755 2.17533 0
M  V30 8007 H 746.468 2.96167 -0.330051 0
M  V30 8008 H 744.005 1.4606 -0.174611 0
M  V30 8009 H 745.963 3.62877 2.05855 0
M  V30 8010 H 744.593 2.48749 2.05727 0
M  V30 8011 H 743.645 3.80391 0.0266924 0
M  V30 8012 H 744.957 4.98151 0.254362 0
M  V30 8013 H 744.111 5.50449 2.55129 0
M  V30 8014 H 742.85 4.24917 2.39367 0
M  V30 8015 H 741.855 5.47997 0.444944 0
M  V30 8016 H 743.08 6.76227 0.624006 0
M  V30 8017 H 741.026 5.96823 2.72284 0
M  V30 8018 H 740.943 7.36603 1.70154 0
M  V30 8019 H 742.211 7.24178 2.88421 0
M  V30 8020 N 746.441 0.193421 1.56409 0
M  V30 8021 C 747.857 -0.162447 1.58771 0
M  V30 8022 C 748.057 -1.6116 1.20954 0
M  V30 8023 O 747.113 -2.3469 0.931497 0
M  V30 8024 C 748.426 0.138391 3.00381 0
M  V30 8025 C 749.974 0.0783649 3.12902 0
M  V30 8026 C 750.449 0.352491 4.56642 0
M  V30 8027 N 751.94 0.30105 4.62221 0
M  V30 8028 C 752.675 0.487028 5.71328 0
M  V30 8029 N 752.171 0.733265 6.88909 0
M  V30 8030 N 753.964 0.4214 5.60518 0
M  V30 8031 H 746.115 1.13909 1.79272 0
M  V30 8032 H 748.378 0.454528 0.83193 0
M  V30 8033 H 748.084 1.14312 3.32604 0
M  V30 8034 H 747.958 -0.559804 3.73023 0
M  V30 8035 H 750.345 -0.916963 2.80492 0
M  V30 8036 H 750.426 0.809611 2.4265 0
M  V30 8037 H 750.07 1.34513 4.89764 0
M  V30 8038 H 750 -0.399624 5.25081 0
M  V30 8039 H 752.491 0.117279 3.77718 0
M  V30 8040 H 752.804 0.86403 7.67955 0
M  V30 8041 H 751.149 0.770138 6.9072 0
M  V30 8042 H 754.34 0.229461 4.67537 0
M  V30 8043 H 754.513 0.569758 6.4549 0
M  V30 8044 N 747.919 -1.57396 -0.0801906 0
M  V30 8045 C 749.335 -1.53564 -0.434778 0
M  V30 8046 C 749.535 -0.912372 -1.79661 0
M  V30 8047 O 748.591 -0.511268 -2.4727 0
M  V30 8048 C 749.904 -2.98244 -0.383561 0
M  V30 8049 C 751.452 -3.09536 -0.46435 0
M  V30 8050 C 751.927 -4.55851 -0.443128 0
M  V30 8051 N 753.418 -4.60456 -0.503448 0
M  V30 8052 C 754.153 -5.71135 -0.509106 0
M  V30 8053 N 753.649 -6.91203 -0.47008 0
M  V30 8054 N 755.442 -5.59353 -0.555035 0
M  V30 8055 H 747.593 -1.96281 0.811635 0
M  V30 8056 H 749.856 -0.898041 0.303689 0
M  V30 8057 H 749.562 -3.47369 0.550236 0
M  V30 8058 H 749.436 -3.57705 -1.19694 0
M  V30 8059 H 751.823 -2.6039 -1.38857 0
M  V30 8060 H 751.904 -2.53 0.377445 0
M  V30 8061 H 751.548 -5.05653 0.477207 0
M  V30 8062 H 751.478 -5.10242 -1.30234 0
M  V30 8063 H 753.969 -3.74048 -0.538199 0
M  V30 8064 H 754.282 -7.7132 -0.478091 0
M  V30 8065 H 752.627 -6.93625 -0.436897 0
M  V30 8066 H 755.818 -4.64453 -0.583158 0
M  V30 8067 H 755.991 -6.4561 -0.555976 0
M  V30 8068 N 749.397 0.351382 -1.53633 0
M  V30 8069 C 750.329 1.45159 -1.77374 0
M  V30 8070 C 751.342 1.4905 -0.654826 0
M  V30 8071 O 752.531 1.52274 -0.931396 0
M  V30 8072 C 749.631 2.83858 -1.85143 0
M  V30 8073 C 748.804 3.03498 -3.14972 0
M  V30 8074 C 747.863 4.22393 -3.138 0
M  V30 8075 O 746.889 4.16885 -3.87551 0
M  V30 8076 N 748.091 5.30533 -2.35617 0
M  V30 8077 H 750.856 1.25167 -2.72311 0
M  V30 8078 H 748.417 0.54121 -1.52586 0
M  V30 8079 H 750.409 3.61557 -1.8182 0
M  V30 8080 H 748.979 2.9703 -0.974275 0
M  V30 8081 H 748.199 2.13336 -3.31484 0
M  V30 8082 H 749.487 3.13498 -4.00745 0
M  V30 8083 H 748.885 5.37875 -1.75235 0
M  V30 8084 H 747.442 6.06756 -2.38098 0
M  V30 8085 N 750.875 1.45233 0.611969 0
M  V30 8086 C 752.291 1.29542 0.932251 0
M  V30 8087 C 752.491 0.24523 2.00002 0
M  V30 8088 O 751.547 -0.362333 2.49887 0
M  V30 8089 C 752.86 2.67301 1.37733 0
M  V30 8090 C 754.408 2.75163 1.49178 0
M  V30 8091 C 754.883 4.13437 1.97064 0
M  V30 8092 N 756.374 4.15709 2.04304 0
M  V30 8093 C 757.109 5.19566 2.42568 0
M  V30 8094 N 756.605 6.33771 2.79832 0
M  V30 8095 N 758.398 5.06923 2.42869 0
M  V30 8096 H 750.549 2.12192 -0.0938679 0
M  V30 8097 H 752.812 0.947775 0.0206569 0
M  V30 8098 H 752.518 3.45318 0.666951 0
M  V30 8099 H 752.392 2.95472 2.3447 0
M  V30 8100 H 754.779 1.97453 2.19309 0
M  V30 8101 H 754.86 2.50712 0.507674 0
M  V30 8102 H 754.504 4.91631 1.27521 0
M  V30 8103 H 754.434 4.35277 2.9638 0
M  V30 8104 H 756.925 3.33293 1.78113 0
M  V30 8105 H 757.238 7.08815 3.07898 0
M  V30 8106 H 755.583 6.37179 2.77538 0
M  V30 8107 H 758.774 4.1675 2.1316 0
M  V30 8108 H 758.947 5.87981 2.72364 0
M  V30 8109 N 752.353 -0.854086 1.3245 0
M  V30 8110 C 753.263 -1.99503 1.23434 0
M  V30 8111 C 754.279 -1.73371 0.147828 0
M  V30 8112 O 755.455 -1.97998 0.368609 0
M  V30 8113 C 752.52 -3.33192 0.958328 0
M  V30 8114 C 751.581 -3.72542 2.13333 0
M  V30 8115 C 750.814 -4.99852 1.8704 0
M  V30 8116 O 751.037 -5.64573 0.813239 0
M  V30 8117 O 749.971 -5.36345 2.73161 0
M  V30 8118 H 753.797 -2.10046 2.1935 0
M  V30 8119 H 751.382 -0.984823 1.12346 0
M  V30 8120 H 753.264 -4.13327 0.820918 0
M  V30 8121 H 751.939 -3.23687 0.0293299 0
M  V30 8122 H 750.846 -2.92981 2.32622 0
M  V30 8123 H 752.179 -3.86694 3.04514 0
M  V30 8124 N 753.831 -1.1567 -1.07043 0
M  V30 8125 C 754.781 -0.824733 -2.12561 0
M  V30 8126 C 755.765 0.19243 -1.59745 0
M  V30 8127 O 756.957 -0.00728759 -1.76998 0
M  V30 8128 C 754.086 -0.31921 -3.41813 0
M  V30 8129 C 753.172 -1.36671 -4.01475 0
M  V30 8130 N 753.563 -2.57493 -4.35351 0
M  V30 8131 C 751.861 -1.22018 -4.28984 0
M  V30 8132 C 752.562 -3.24658 -4.82672 0
M  V30 8133 N 751.538 -2.52043 -4.81638 0
M  V30 8134 H 755.34 -1.74363 -2.3659 0
M  V30 8135 H 752.854 -1.04262 -1.24511 0
M  V30 8136 H 754.851 -0.0630216 -4.16852 0
M  V30 8137 H 753.511 0.593708 -3.19226 0
M  V30 8138 H 754.522 -2.94612 -4.25939 0
M  V30 8139 H 751.199 -0.367414 -4.1588 0
M  V30 8140 H 752.589 -4.2775 -5.1815 0
M  V30 8141 N 755.309 1.25446 -0.953992 0
M  V30 8142 C 756.239 2.28264 -0.491717 0
M  V30 8143 C 757.22 1.63717 0.461617 0
M  V30 8144 O 758.405 1.90821 0.36071 0
M  V30 8145 C 755.535 3.46525 0.231915 0
M  V30 8146 C 754.489 4.23247 -0.636098 0
M  V30 8147 C 753.815 5.34254 0.218238 0
M  V30 8148 C 755.115 4.85971 -1.91389 0
M  V30 8149 H 756.809 2.67183 -1.35106 0
M  V30 8150 H 754.355 1.2844 -0.651095 0
M  V30 8151 H 756.308 4.17576 0.566439 0
M  V30 8152 H 755.032 3.06594 1.12551 0
M  V30 8153 H 753.691 3.53978 -0.953696 0
M  V30 8154 H 753.339 4.90564 1.11156 0
M  V30 8155 H 753.039 5.86501 -0.359232 0
M  V30 8156 H 754.563 6.08138 0.547743 0
M  V30 8157 H 755.977 5.49168 -1.64581 0
M  V30 8158 H 754.374 5.48391 -2.43696 0
M  V30 8159 H 755.444 4.08192 -2.61738 0
M  V30 8160 N 756.787 0.722489 1.40064 0
M  V30 8161 C 757.697 0.0755984 2.34478 0
M  V30 8162 C 758.713 -0.736046 1.57665 0
M  V30 8163 O 759.889 -0.667407 1.9002 0
M  V30 8164 C 756.954 -0.830075 3.36616 0
M  V30 8165 C 756.015 -0.00759884 4.29299 0
M  V30 8166 C 755.248 -0.870139 5.26559 0
M  V30 8167 O 755.471 -2.10921 5.2997 0
M  V30 8168 O 754.405 -0.305454 6.01124 0
M  V30 8169 H 758.231 0.854545 2.9143 0
M  V30 8170 H 755.816 0.483032 1.41376 0
M  V30 8171 H 757.698 -1.34864 3.99236 0
M  V30 8172 H 756.373 -1.58805 2.82069 0
M  V30 8173 H 755.28 0.556199 3.69942 0
M  V30 8174 H 756.613 0.712312 4.87018 0
M  V30 8175 N 758.265 -1.50454 0.469181 0
M  V30 8176 C 759.513 -2.01916 -0.0862982 0
M  V30 8177 C 759.834 -1.35337 -1.40388 0
M  V30 8178 O 759.104 -0.498096 -1.89462 0
M  V30 8179 H 757.684 -0.746185 -0.0348825 0
M  V30 8180 H 760.346 -1.84804 0.619167 0
M  V30 8181 H 759.442 -3.11182 -0.239189 0
M  V30 8182 N 759.743 -0.201713 -1.56304 0
M  V30 8183 C 760.691 0.733133 -2.20744 0
M  V30 8184 C 761.685 1.2148 -1.18064 0
M  V30 8185 O 762.891 1.17692 -1.36193 0
M  V30 8186 H 759.266 0.254789 -0.707521 0
M  V30 8187 H 761.237 0.165996 -2.97938 0
M  V30 8188 C 759.986 1.93925 -2.88597 0
M  V30 8189 H 759.309 1.5777 -3.67353 0
M  V30 8190 H 760.749 2.57158 -3.37114 0
M  V30 8191 C 759.208 2.78219 -1.89989 0
M  V30 8192 O 759.738 3.76353 -1.40432 0
M  V30 8193 N 757.944 2.43847 -1.58072 0
M  V30 8194 H 757.491 1.64103 -1.98565 0
M  V30 8195 H 757.449 3.0053 -0.923524 0
M  V30 8196 N 761.222 1.57436 0.0718424 0
M  V30 8197 C 762.17 2.04725 1.10411 0
M  V30 8198 C 763.164 0.952579 1.4008 0
M  V30 8199 O 764.37 1.13769 1.39487 0
M  V30 8200 H 760.745 0.652749 0.373393 0
M  V30 8201 H 762.716 2.90569 0.679126 0
M  V30 8202 C 761.465 2.5068 2.40946 0
M  V30 8203 H 760.788 3.34505 2.18967 0
M  V30 8204 H 762.228 2.87521 3.11621 0
M  V30 8205 C 760.687 1.38971 3.06902 0
M  V30 8206 O 761.217 0.731786 3.94978 0
M  V30 8207 N 759.423 1.13485 2.67525 0
M  V30 8208 H 758.97 1.67168 1.95991 0
M  V30 8209 H 758.928 0.389467 3.11978 0
M  V30 8210 N 762.7 -0.34323 1.53817 0
M  V30 8211 C 763.647 -1.42153 1.81827 0
M  V30 8212 C 764.617 -1.52251 0.663996 0
M  V30 8213 O 765.802 -1.67784 0.908461 0
M  V30 8214 C 762.942 -2.78799 2.03384 0
M  V30 8215 C 762.055 -2.7749 3.31094 0
M  V30 8216 C 761.19 -4.05856 3.42717 0
M  V30 8217 C 760.229 -3.98776 4.64375 0
M  V30 8218 N 759.366 -5.18833 4.73029 0
M  V30 8219 H 764.206 -1.17567 2.73829 0
M  V30 8220 H 761.743 -0.569506 1.35628 0
M  V30 8221 H 763.701 -3.58211 2.13872 0
M  V30 8222 H 762.331 -3.01736 1.14696 0
M  V30 8223 H 761.383 -1.90182 3.29446 0
M  V30 8224 H 762.695 -2.68137 4.206 0
M  V30 8225 H 761.849 -4.93691 3.52638 0
M  V30 8226 H 760.588 -4.1799 2.51267 0
M  V30 8227 H 759.593 -3.09325 4.5453 0
M  V30 8228 H 760.818 -3.88224 5.57189 0
M  V30 8229 H 758.764 -5.31511 3.84489 0
M  V30 8230 H 758.681 -5.11737 5.56472 0
M  V30 8231 H 759.949 -6.08439 4.87261 0
M  V30 8232 N 764.178 -1.45556 -0.604258 0
M  V30 8233 C 765.426 -1.4945 -1.36048 0
M  V30 8234 C 765.747 -0.138933 -1.94504 0
M  V30 8235 O 765.017 0.832097 -1.7735 0
M  V30 8236 H 763.597 -0.550381 -0.505064 0
M  V30 8237 H 766.259 -1.81535 -0.709308 0
M  V30 8238 H 765.355 -2.23519 -2.17821 0
M  V30 8239 N 765.656 0.84705 -1.32902 0
M  V30 8240 C 766.566 1.98845 -1.2449 0
M  V30 8241 C 767.582 1.7329 -0.15702 0
M  V30 8242 O 768.758 1.978 -0.379104 0
M  V30 8243 C 765.823 3.32679 -0.975985 0
M  V30 8244 C 764.884 3.71405 -2.15306 0
M  V30 8245 C 764.117 4.98853 -1.89688 0
M  V30 8246 O 764.34 5.64134 -0.843168 0
M  V30 8247 O 763.274 5.34889 -2.76002 0
M  V30 8248 H 767.1 2.0888 -2.2046 0
M  V30 8249 H 764.685 0.978852 -1.12867 0
M  V30 8250 H 766.567 4.12885 -0.842826 0
M  V30 8251 H 765.242 3.23667 -0.0464954 0
M  V30 8252 H 764.149 2.91743 -2.34172 0
M  V30 8253 H 765.482 3.85073 -3.06561 0
M  V30 8254 N 767.134 1.16236 1.06428 0
M  V30 8255 C 768.55 0.906983 1.31324 0
M  V30 8256 C 768.75 -0.440872 1.96618 0
M  V30 8257 O 767.806 -1.1807 2.23194 0
M  V30 8258 C 769.119 2.05501 2.19522 0
M  V30 8259 C 770.667 2.09061 2.32943 0
M  V30 8260 C 771.142 3.23214 3.24495 0
M  V30 8261 N 772.633 3.22922 3.32078 0
M  V30 8262 C 773.368 4.07889 4.03006 0
M  V30 8263 N 772.864 5.02941 4.76469 0
M  V30 8264 N 774.657 3.95881 3.99043 0
M  V30 8265 H 766.808 2.03015 0.624388 0
M  V30 8266 H 769.071 0.88576 0.337835 0
M  V30 8267 H 768.777 3.02847 1.78819 0
M  V30 8268 H 768.651 1.99538 3.201 0
M  V30 8269 H 771.038 1.12308 2.72893 0
M  V30 8270 H 771.119 2.19089 1.32037 0
M  V30 8271 H 770.763 4.20225 2.85261 0
M  V30 8272 H 770.693 3.10423 4.25377 0
M  V30 8273 H 773.184 2.54093 2.79724 0
M  V30 8274 H 773.497 5.64196 5.28112 0
M  V30 8275 H 771.842 5.06922 4.75453 0
M  V30 8276 H 775.033 3.20927 3.40769 0
M  V30 8277 H 775.206 4.62321 4.54052 0
M  V30 8278 N 768.612 -1.24939 0.960631 0
M  V30 8279 C 769.889 -1.88118 0.535807 0
M  V30 8280 C 770.269 -1.86605 -0.987009 0
M  V30 8281 O 769.617 -1.33375 -1.85536 0
M  V30 8282 C 769.827 -3.30565 1.11927 0
M  V30 8283 C 771.175 -4.07296 1.19981 0
M  V30 8284 O 772.199 -3.39709 1.07126 0
M  V30 8285 O 771.058 -5.28206 1.40218 0
M  V30 8286 H 768.152 -0.807698 0.177631 0
M  V30 8287 H 770.698 -1.32964 1.05445 0
M  V30 8288 H 769.47 -3.26128 2.16231 0
M  V30 8289 H 769.093 -3.93284 0.584245 0
M  V30 8290 N 770.09 -0.729906 -1.39679 0
M  V30 8291 C 771.315 -0.284345 -2.05442 0
M  V30 8292 C 771.74 1.07056 -1.54663 0
M  V30 8293 O 771.098 1.67732 -0.688157 0
M  V30 8294 C 771.146 -0.290089 -3.59431 0
M  V30 8295 O 770.25 0.723978 -4.05995 0
M  V30 8296 H 769.591 -0.130311 -0.651088 0
M  V30 8297 H 772.121 -0.994403 -1.78809 0
M  V30 8298 H 772.131 -0.132712 -4.07784 0
M  V30 8299 H 770.806 -1.27877 -3.95753 0
M  V30 8300 H 769.383 0.533154 -3.69069 0
M  V30 8301 N 771.568 1.50203 -0.477153 0
M  V30 8302 C 772.815 2.02358 0.0757385 0
M  V30 8303 C 773.143 1.3587 1.39174 0
M  V30 8304 O 772.398 0.475415 1.89838 0
M  V30 8305 C 772.697 3.56127 0.301325 0
M  V30 8306 C 772.363 4.41126 -0.933725 0
M  V30 8307 C 771.025 4.64075 -1.27233 0
M  V30 8308 C 773.377 4.90737 -1.75576 0
M  V30 8309 C 770.705 5.33878 -2.43292 0
M  V30 8310 C 773.057 5.61816 -2.90768 0
M  V30 8311 C 771.721 5.83016 -3.25036 0
M  V30 8312 H 770.991 0.740482 0.0277147 0
M  V30 8313 H 773.638 1.80754 -0.632467 0
M  V30 8314 H 771.943 3.76279 1.09183 0
M  V30 8315 H 773.64 3.94053 0.743184 0
M  V30 8316 H 770.23 4.23489 -0.659935 0
M  V30 8317 H 774.414 4.72856 -1.50734 0
M  V30 8318 H 769.67 5.48499 -2.70109 0
M  V30 8319 H 773.844 5.99237 -3.54807 0
M  V30 8320 H 771.471 6.36881 -4.15074 0
M  V30 8321 N 773.046 0.209999 1.56195 0
M  V30 8322 C 774.457 -0.299943 1.84275 0
M  V30 8323 C 774.808 -1.60314 1.1311 0
M  V30 8324 O 773.933 -2.1273 0.396874 0
M  V30 8325 C 774.528 -0.550986 3.3429 0
M  V30 8326 C 773.087 -1.00526 3.62728 0
M  V30 8327 C 772.234 -0.0619828 2.77231 0
M  V30 8328 H 775.185 0.433458 1.52666 0
M  V30 8329 H 775.206 -1.39846 3.53869 0
M  V30 8330 H 774.718 0.397669 3.86057 0
M  V30 8331 H 772.819 -1.96768 3.16407 0
M  V30 8332 H 772.932 -0.887664 4.70805 0
M  V30 8333 H 771.296 -0.566648 2.48317 0
M  V30 8334 H 772.079 0.881383 3.31793 0
M  V30 8335 N 774.524 -1.57472 -0.0634922 0
M  V30 8336 C 775.471 -2.04258 -1.07457 0
M  V30 8337 C 776.441 -0.924804 -1.37973 0
M  V30 8338 O 777.626 -1.19305 -1.48899 0
M  V30 8339 C 774.766 -2.49832 -2.38071 0
M  V30 8340 C 773.879 -3.75263 -2.14014 0
M  V30 8341 C 773.014 -4.09585 -3.38251 0
M  V30 8342 C 772.053 -5.28032 -3.09594 0
M  V30 8343 N 771.19 -5.57953 -4.26185 0
M  V30 8344 H 776.03 -2.90402 -0.668626 0
M  V30 8345 H 773.567 -1.43609 -0.318572 0
M  V30 8346 H 775.525 -2.7431 -3.14341 0
M  V30 8347 H 774.155 -1.66654 -2.76453 0
M  V30 8348 H 773.207 -3.58075 -1.28399 0
M  V30 8349 H 774.519 -4.61667 -1.88852 0
M  V30 8350 H 773.673 -4.35008 -4.2291 0
M  V30 8351 H 772.412 -3.21765 -3.66495 0
M  V30 8352 H 771.417 -5.02397 -2.23332 0
M  V30 8353 H 772.642 -6.17477 -2.82663 0
M  V30 8354 H 770.588 -4.73092 -4.54445 0
M  V30 8355 H 770.505 -6.38793 -4.04326 0
M  V30 8356 H 771.773 -5.87931 -5.11817 0
M  V30 8357 N 776.003 0.335068 -1.53997 0
M  V30 8358 C 777.228 1.09859 -1.75914 0
M  V30 8359 C 777.653 1.81308 -0.500915 0
M  V30 8360 O 777.011 1.72854 0.54693 0
M  V30 8361 C 777.059 2.08122 -2.94478 0
M  V30 8362 O 776.163 3.15805 -2.65219 0
M  V30 8363 H 775.504 0.317313 -0.583274 0
M  V30 8364 H 778.034 0.382872 -2.00986 0
M  V30 8365 H 778.044 2.51195 -3.21504 0
M  V30 8366 H 776.719 1.55517 -3.8573 0
M  V30 8367 H 775.296 2.77489 -2.49107 0
M  V30 8368 N 777.481 1.45874 0.596531 0
M  V30 8369 C 778.391 1.57947 1.73464 0
M  V30 8370 C 779.407 0.463461 1.67714 0
M  V30 8371 O 780.583 0.725685 1.87872 0
M  V30 8372 C 777.648 1.55348 3.09948 0
M  V30 8373 C 776.709 2.78074 3.27068 0
M  V30 8374 C 775.942 2.75589 4.57041 0
M  V30 8375 O 776.165 1.83545 5.40063 0
M  V30 8376 O 775.099 3.66945 4.77111 0
M  V30 8377 H 778.925 2.54169 1.66228 0
M  V30 8378 H 776.51 1.2851 0.76194 0
M  V30 8379 H 778.392 1.56545 3.91244 0
M  V30 8380 H 777.067 0.622811 3.17652 0
M  V30 8381 H 775.974 2.82435 2.45319 0
M  V30 8382 H 777.307 3.70303 3.24248 0
M  V30 8383 N 778.959 -0.83999 1.33349 0
M  V30 8384 C 780.184 -1.63249 1.27924 0
M  V30 8385 C 780.609 -1.87523 -0.147193 0
M  V30 8386 O 779.967 -1.43853 -1.10345 0
M  V30 8387 C 780.015 -2.96046 2.05886 0
M  V30 8388 O 779.119 -3.87303 1.4167 0
M  V30 8389 H 778.46 -0.49715 0.440157 0
M  V30 8390 H 780.99 -1.04512 1.75893 0
M  V30 8391 H 781 -3.45752 2.16609 0
M  V30 8392 H 779.675 -2.77701 3.09605 0
M  V30 8393 H 778.252 -3.45789 1.39585 0
M  V30 8394 N 780.437 -1.16799 -1.0581 0
M  V30 8395 C 781.347 -0.893492 -2.16919 0
M  V30 8396 C 782.363 0.136061 -1.73467 0
M  V30 8397 O 783.539 -0.0417348 -2.01357 0
M  V30 8398 C 780.604 -0.403763 -3.44341 0
M  V30 8399 C 779.665 -1.49914 -4.02274 0
M  V30 8400 C 778.898 -1.03269 -5.23614 0
M  V30 8401 O 779.121 0.115647 -5.70283 0
M  V30 8402 O 778.055 -1.8231 -5.73626 0
M  V30 8403 H 781.881 -1.82274 -2.42919 0
M  V30 8404 H 779.466 -0.948361 -1.1544 0
M  V30 8405 H 781.348 -0.137874 -4.21174 0
M  V30 8406 H 780.023 0.497413 -3.19855 0
M  V30 8407 H 778.93 -1.81883 -3.26909 0
M  V30 8408 H 780.263 -2.3758 -4.31064 0
M  V30 8409 N 781.915 1.24427 -0.967243 0
M  V30 8410 C 783.192 1.87831 -0.545776 0
M  V30 8411 C 783.572 1.87126 0.977099 0
M  V30 8412 O 782.92 1.34357 1.84826 0
M  V30 8413 C 783.13 3.29967 -1.13679 0
M  V30 8414 C 784.478 4.06654 -1.22139 0
M  V30 8415 O 785.502 3.39136 -1.08926 0
M  V30 8416 O 784.361 5.27455 -1.43017 0
M  V30 8417 H 781.455 0.806745 -0.181912 0
M  V30 8418 H 784.001 1.32403 -1.06148 0
M  V30 8419 H 782.773 3.24977 -2.17958 0
M  V30 8420 H 782.396 3.92969 -0.605093 0
M  V30 8421 N 783.393 0.737304 1.3929 0
M  V30 8422 C 784.618 0.295237 2.05288 0
M  V30 8423 C 785.043 -1.06235 1.55228 0
M  V30 8424 O 784.401 -1.67365 0.697043 0
M  V30 8425 C 784.449 0.309146 3.59272 0
M  V30 8426 O 783.553 -0.702437 4.06374 0
M  V30 8427 H 782.894 0.133762 0.650387 0
M  V30 8428 H 785.424 1.00387 1.78279 0
M  V30 8429 H 785.434 0.154336 4.07708 0
M  V30 8430 H 784.109 1.29974 3.95069 0
M  V30 8431 H 782.686 -0.513574 3.69346 0
M  V30 8432 N 784.871 -1.49948 0.485112 0
M  V30 8433 C 786.117 -2.02695 -0.0651022 0
M  V30 8434 C 786.45 -1.36534 -1.38102 0
M  V30 8435 O 785.725 -0.495677 -1.88078 0
M  V30 8436 C 786.008 -3.59337 -0.234285 0
M  V30 8437 C 785.861 -4.3605 1.10364 0
M  V30 8438 C 787.18 -4.28996 -0.982351 0
M  V30 8439 H 784.299 -0.736666 -0.0221856 0
M  V30 8440 H 786.941 -1.7913 0.633433 0
M  V30 8441 H 785.091 -3.79546 -0.829262 0
M  V30 8442 H 786.763 -4.27377 1.73627 0
M  V30 8443 H 785.006 -3.99236 1.69686 0
M  V30 8444 H 785.677 -5.43959 0.938743 0
M  V30 8445 H 788.153 -4.13346 -0.477904 0
M  V30 8446 H 787.029 -5.38379 -1.06955 0
M  V30 8447 H 787.29 -3.93135 -2.02231 0
M  V30 8448 N 786.349 -0.21828 -1.56081 0
M  V30 8449 C 787.296 0.693189 -2.20144 0
M  V30 8450 C 788.266 1.19274 -1.15598 0
M  V30 8451 O 789.451 1.25243 -1.4394 0
M  V30 8452 C 786.591 1.89715 -2.88275 0
M  V30 8453 C 785.704 1.4368 -4.07407 0
M  V30 8454 C 784.839 2.59807 -4.63329 0
M  V30 8455 C 783.878 2.10492 -5.74769 0
M  V30 8456 N 783.015 3.1988 -6.24997 0
M  V30 8457 H 787.855 0.14016 -2.9767 0
M  V30 8458 H 785.392 0.0574292 -1.46988 0
M  V30 8459 H 787.35 2.60398 -3.25958 0
M  V30 8460 H 785.98 2.42311 -2.13273 0
M  V30 8461 H 785.032 0.625007 -3.7523 0
M  V30 8462 H 786.344 1.03517 -4.8794 0
M  V30 8463 H 785.498 3.38577 -5.03438 0
M  V30 8464 H 784.237 3.03256 -3.81951 0
M  V30 8465 H 783.242 1.30182 -5.34165 0
M  V30 8466 H 784.467 1.68045 -6.5798 0
M  V30 8467 H 782.413 3.62817 -5.46534 0
M  V30 8468 H 782.33 2.83958 -7.00645 0
M  V30 8469 H 783.598 3.98796 -6.69763 0
M  V30 8470 N 787.827 1.57504 0.0551401 0
M  V30 8471 C 789.243 1.54236 0.410292 0
M  V30 8472 C 789.443 0.940839 1.78187 0
M  V30 8473 O 788.499 0.550541 2.46425 0
M  V30 8474 C 789.812 2.98816 0.336064 0
M  V30 8475 C 791.36 3.10236 0.415047 0
M  V30 8476 C 791.835 4.56499 0.37055 0
M  V30 8477 N 793.326 4.61199 0.43013 0
M  V30 8478 C 794.061 5.71873 0.418179 0
M  V30 8479 N 793.557 6.91864 0.360056 0
M  V30 8480 N 795.35 5.60165 0.465977 0
M  V30 8481 H 787.501 1.94965 -0.842759 0
M  V30 8482 H 789.764 0.893096 -0.317937 0
M  V30 8483 H 789.47 3.4645 -0.605429 0
M  V30 8484 H 789.344 3.59564 1.13988 0
M  V30 8485 H 791.731 2.62566 1.34697 0
M  V30 8486 H 791.812 2.52367 -0.417648 0
M  V30 8487 H 791.456 5.0483 -0.557592 0
M  V30 8488 H 791.386 5.12249 1.221 0
M  V30 8489 H 793.877 3.74857 0.478623 0
M  V30 8490 H 794.19 7.71983 0.35532 0
M  V30 8491 H 792.535 6.94233 0.326492 0
M  V30 8492 H 795.726 4.65322 0.509194 0
M  V30 8493 H 795.899 6.46413 0.453194 0
M  V30 8494 N 789.305 -0.326896 1.54172 0
M  V30 8495 C 790.53 -1.08924 1.76494 0
M  V30 8496 C 790.955 -1.81039 0.510523 0
M  V30 8497 O 790.313 -1.73141 -0.537756 0
M  V30 8498 C 790.361 -2.06558 2.95578 0
M  V30 8499 O 789.465 -3.14394 2.6689 0
M  V30 8500 H 788.806 -0.314216 0.584948 0
M  V30 8501 H 791.336 -0.372207 2.01186 0
M  V30 8502 H 791.346 -2.49487 3.22832 0
M  V30 8503 H 790.021 -1.53469 3.86549 0
M  V30 8504 H 788.598 -2.76164 2.50576 0
M  V30 8505 N 790.784 -1.46188 -0.588786 0
M  V30 8506 C 792.009 -1.5498 -1.37826 0
M  V30 8507 C 792.434 -0.189498 -1.87143 0
M  V30 8508 O 791.792 0.829293 -1.61222 0
M  V30 8509 C 791.84 -2.55369 -2.54596 0
M  V30 8510 O 790.944 -2.08452 -3.55839 0
M  V30 8511 H 790.285 -0.521741 -0.41071 0
M  V30 8512 H 792.815 -1.91708 -0.714779 0
M  V30 8513 H 792.825 -2.74782 -3.01594 0
M  V30 8514 H 791.5 -3.54155 -2.18052 0
M  V30 8515 H 790.077 -1.98999 -3.15363 0
M  V30 8516 N 792.262 0.832906 -1.33792 0
M  V30 8517 C 793.509 1.58853 -1.25586 0
M  V30 8518 C 793.837 1.93695 0.176807 0
M  V30 8519 O 793.092 1.59386 1.13554 0
M  V30 8520 C 793.391 2.9047 -2.08235 0
M  V30 8521 C 793.057 2.74965 -3.57358 0
M  V30 8522 C 791.719 2.70444 -3.98012 0
M  V30 8523 C 794.071 2.59347 -4.52093 0
M  V30 8524 C 791.399 2.48212 -5.31608 0
M  V30 8525 C 793.751 2.38649 -5.85858 0
M  V30 8526 C 792.415 2.32533 -6.25687 0
M  V30 8527 H 791.685 0.581285 -0.459553 0
M  V30 8528 H 794.332 0.964501 -1.65438 0
M  V30 8529 H 792.637 3.57111 -1.6118 0
M  V30 8530 H 794.334 3.48001 -1.99239 0
M  V30 8531 H 790.924 2.79319 -3.25083 0
M  V30 8532 H 795.108 2.6187 -4.2159 0
M  V30 8533 H 790.364 2.41929 -5.61498 0
M  V30 8534 H 794.538 2.25549 -6.58863 0
M  V30 8535 H 792.165 2.15067 -7.29143 0
M  V30 8536 N 793.74 1.17359 1.05189 0
M  V30 8537 C 794.67 0.91365 2.14883 0
M  V30 8538 C 795.651 -0.144365 1.69486 0
M  V30 8539 O 796.836 0.00587861 1.94199 0
M  V30 8540 C 793.966 0.426196 3.44675 0
M  V30 8541 C 792.92 1.4234 4.03638 0
M  V30 8542 C 792.246 0.793902 5.28773 0
M  V30 8543 C 793.546 2.7966 4.41121 0
M  V30 8544 H 795.24 1.831 2.36885 0
M  V30 8545 H 792.786 0.881781 1.13845 0
M  V30 8546 H 794.739 0.231767 4.20762 0
M  V30 8547 H 793.463 -0.526693 3.22325 0
M  V30 8548 H 792.122 1.60457 3.2962 0
M  V30 8549 H 791.77 -0.165824 5.02727 0
M  V30 8550 H 791.47 1.45959 5.69183 0
M  V30 8551 H 792.994 0.609747 6.07548 0
M  V30 8552 H 794.408 2.6526 5.08242 0
M  V30 8553 H 792.805 3.42807 4.92548 0
M  V30 8554 H 793.875 3.34068 3.51464 0
M  V30 8555 N 795.218 -1.23913 0.973828 0
M  V30 8556 C 796.465 -1.92151 0.639079 0
M  V30 8557 C 796.793 -1.76064 -0.826545 0
M  V30 8558 O 796.048 -1.11126 -1.61088 0
M  V30 8559 C 796.347 -3.4406 0.967356 0
M  V30 8560 C 796.013 -3.80321 2.42212 0
M  V30 8561 C 794.675 -3.8993 2.81971 0
M  V30 8562 C 797.027 -3.97935 3.36596 0
M  V30 8563 C 794.355 -4.14575 4.15144 0
M  V30 8564 C 796.707 -4.24079 4.69404 0
M  V30 8565 C 795.371 -4.31908 5.08932 0
M  V30 8566 H 794.641 -0.70313 0.233856 0
M  V30 8567 H 797.288 -1.47072 1.22646 0
M  V30 8568 H 795.593 -3.90667 0.297807 0
M  V30 8569 H 797.29 -3.95077 0.686654 0
M  V30 8570 H 793.88 -3.73411 2.10385 0
M  V30 8571 H 798.064 -3.89908 3.07059 0
M  V30 8572 H 793.32 -4.18858 4.45385 0
M  V30 8573 H 797.494 -4.36652 5.42502 0
M  V30 8574 H 795.121 -4.50758 6.12145 0
M  V30 8575 N 796.696 -0.74468 -1.38897 0
M  V30 8576 C 797.921 -0.306119 -2.05128 0
M  V30 8577 C 798.346 1.0541 -1.55789 0
M  V30 8578 O 797.704 1.66993 -0.705909 0
M  V30 8579 C 797.752 -0.328195 -3.59103 0
M  V30 8580 O 796.856 0.680876 -4.06741 0
M  V30 8581 H 796.197 -0.137209 -0.649669 0
M  V30 8582 H 798.727 -1.01331 -1.77745 0
M  V30 8583 H 798.737 -0.175956 -4.0762 0
M  V30 8584 H 797.412 -1.32067 -3.94374 0
M  V30 8585 H 795.989 0.49398 -3.69614 0
M  V30 8586 N 798.174 1.49689 -0.493057 0
M  V30 8587 C 799.107 2.25712 0.336062 0
M  V30 8588 C 800.085 1.29953 0.977294 0
M  V30 8589 O 801.269 1.59225 1.00895 0
M  V30 8590 C 798.396 3.0501 1.47263 0
M  V30 8591 C 797.442 4.15863 0.946575 0
M  V30 8592 S 798.275 5.35272 -0.156323 0
M  V30 8593 C 799.431 6.18123 0.983601 0
M  V30 8594 H 799.664 2.95688 -0.309215 0
M  V30 8595 H 797.197 1.51872 -0.278238 0
M  V30 8596 H 799.155 3.51284 2.12391 0
M  V30 8597 H 797.816 2.34519 2.08949 0
M  V30 8598 H 797.009 4.70834 1.7981 0
M  V30 8599 H 796.611 3.72139 0.372647 0
M  V30 8600 H 798.903 6.50588 1.89056 0
M  V30 8601 H 799.846 7.06521 0.472687 0
M  V30 8602 H 800.254 5.50547 1.24735 0
M  V30 8603 N 799.652 0.226554 1.55963 0
M  V30 8604 C 800.929 -0.453058 1.90281 0
M  V30 8605 C 801.309 -1.77377 1.14458 0
M  V30 8606 O 800.657 -2.27067 0.255496 0
M  V30 8607 C 800.867 -0.641108 3.43061 0
M  V30 8608 C 802.215 -0.946265 4.13921 0
M  V30 8609 O 803.239 -0.727713 3.48687 0
M  V30 8610 O 802.098 -1.36131 5.29274 0
M  V30 8611 H 799.192 -0.240242 0.791336 0
M  V30 8612 H 801.738 0.26911 1.67553 0
M  V30 8613 H 800.51 0.290283 3.90222 0
M  V30 8614 H 800.133 -1.41458 3.71585 0
M  V30 8615 N 801.13 -1.57531 -0.0467866 0
M  V30 8616 C 802.378 -1.88078 -0.739656 0
M  V30 8617 C 802.699 -0.821936 -1.76831 0
M  V30 8618 O 801.969 0.146582 -1.95351 0
M  V30 8619 H 800.549 -0.694075 -0.276169 0
M  V30 8620 H 803.211 -1.94893 -0.0169391 0
M  V30 8621 H 802.307 -2.86396 -1.24031 0
M  V30 8622 N 802.608 0.318715 -1.54344 0
M  V30 8623 C 803.556 1.41254 -1.84798 0
M  V30 8624 C 804.55 1.53325 -0.720256 0
M  V30 8625 O 805.756 1.55653 -0.903992 0
M  V30 8626 H 802.131 0.471468 -0.585851 0
M  V30 8627 H 804.102 1.12795 -2.7626 0
M  V30 8628 C 802.851 2.77395 -2.09637 0
M  V30 8629 H 802.174 2.68881 -2.95876 0
M  V30 8630 H 803.614 3.52987 -2.34896 0
M  V30 8631 C 802.073 3.24948 -0.889398 0
M  V30 8632 O 802.603 4.01573 -0.101063 0
M  V30 8633 N 800.809 2.82051 -0.699684 0
M  V30 8634 H 800.356 2.19858 -1.3424 0
M  V30 8635 H 800.314 3.1422 0.106368 0
M  V30 8636 N 804.086 1.46499 0.581025 0
M  V30 8637 C 805.502 1.31491 0.904563 0
M  V30 8638 C 805.702 0.287598 1.99437 0
M  V30 8639 O 804.758 -0.309247 2.50599 0
M  V30 8640 C 806.071 2.70163 1.32032 0
M  V30 8641 C 807.619 2.78266 1.43308 0
M  V30 8642 C 808.094 4.17524 1.8825 0
M  V30 8643 N 809.585 4.19949 1.9544 0
M  V30 8644 C 810.32 5.24594 2.31493 0
M  V30 8645 N 809.816 6.39564 2.66326 0
M  V30 8646 N 811.609 5.11961 2.32062 0
M  V30 8647 H 803.76 2.11946 -0.138856 0
M  V30 8648 H 806.023 0.948 0.000548528 0
M  V30 8649 H 805.729 3.46655 0.593554 0
M  V30 8650 H 805.603 3.00379 2.2815 0
M  V30 8651 H 807.99 2.02061 2.15071 0
M  V30 8652 H 808.071 2.51732 0.45438 0
M  V30 8653 H 807.715 4.94225 1.17065 0
M  V30 8654 H 807.645 4.41466 2.87081 0
M  V30 8655 H 810.136 3.36996 1.71004 0
M  V30 8656 H 810.449 7.15187 2.92793 0
M  V30 8657 H 808.794 6.42923 2.6396 0
M  V30 8658 H 811.985 4.21177 2.04272 0
M  V30 8659 H 812.158 5.93626 2.5983 0
M  V30 8660 N 805.565 -0.825799 1.34232 0
M  V30 8661 C 806.495 -1.95151 1.28212 0
M  V30 8662 C 807.476 -1.69345 0.160123 0
M  V30 8663 O 808.661 -1.90983 0.352019 0
M  V30 8664 C 805.791 -3.31554 1.03388 0
M  V30 8665 C 804.745 -3.71793 2.12023 0
M  V30 8666 C 804.071 -5.06147 1.72392 0
M  V30 8667 C 805.371 -3.84193 3.53826 0
M  V30 8668 H 807.065 -2.00445 2.22401 0
M  V30 8669 H 804.611 -0.962996 1.07063 0
M  V30 8670 H 806.564 -4.09889 0.978225 0
M  V30 8671 H 805.288 -3.26551 0.0564142 0
M  V30 8672 H 803.947 -2.95731 2.16654 0
M  V30 8673 H 803.595 -4.97628 0.733137 0
M  V30 8674 H 803.295 -5.34041 2.451 0
M  V30 8675 H 804.819 -5.86943 1.68317 0
M  V30 8676 H 806.233 -4.52806 3.51624 0
M  V30 8677 H 804.63 -4.23538 4.2513 0
M  V30 8678 H 805.7 -2.86272 3.91377 0
M  V30 8679 N 807.043 -1.17915 -1.04565 0
M  V30 8680 C 808.271 -0.99616 -1.8134 0
M  V30 8681 C 808.686 0.455509 -1.83223 0
M  V30 8682 O 808.043 1.31636 -1.26405 0
M  V30 8683 C 808.094 -1.53758 -3.27171 0
M  V30 8684 O 807.815 -2.93241 -3.25486 0
M  V30 8685 C 809.316 -1.40007 -4.2061 0
M  V30 8686 H 806.536 -0.352055 -0.571225 0
M  V30 8687 H 809.08 -1.56349 -1.31815 0
M  V30 8688 H 807.235 -1.01213 -3.73945 0
M  V30 8689 H 807.649 -3.18392 -4.16805 0
M  V30 8690 H 809.123 -1.82695 -5.2089 0
M  V30 8691 H 809.6 -0.348054 -4.37819 0
M  V30 8692 H 810.206 -1.916 -3.79697 0
M  V30 8693 N 808.521 1.23394 -0.980386 0
M  V30 8694 C 809.746 1.96384 -0.666935 0
M  V30 8695 C 810.171 1.72087 0.759456 0
M  V30 8696 O 809.529 0.992328 1.51732 0
M  V30 8697 C 809.577 3.47499 -0.963177 0
M  V30 8698 O 808.681 4.12363 -0.0552051 0
M  V30 8699 H 808.022 0.614797 -0.250839 0
M  V30 8700 H 810.552 1.56831 -1.31398 0
M  V30 8701 H 810.562 3.97953 -0.899877 0
M  V30 8702 H 809.237 3.6451 -2.00264 0
M  V30 8703 H 807.814 3.72499 -0.172914 0
M  V30 8704 N 809.999 0.752036 1.385 0
M  V30 8705 C 811.276 0.233075 1.94206 0
M  V30 8706 C 811.656 -1.26838 1.68746 0
M  V30 8707 O 811.004 -2.04214 1.02513 0
M  V30 8708 C 811.214 0.58509 3.44061 0
M  V30 8709 C 812.562 0.543871 4.21102 0
M  V30 8710 O 813.586 0.523291 3.52335 0
M  V30 8711 O 812.445 0.553436 5.4369 0
M  V30 8712 H 809.539 0.0483049 0.825588 0
M  V30 8713 H 812.085 0.832053 1.47902 0
M  V30 8714 H 810.857 1.62212 3.56094 0
M  V30 8715 H 810.48 -0.0419738 3.97578 0
M  V30 8716 N 811.477 -1.49425 0.500989 0
M  V30 8717 C 812.424 -2.29126 -0.277443 0
M  V30 8718 C 813.394 -1.35522 -0.960363 0
M  V30 8719 O 814.579 -1.64479 -0.967027 0
M  V30 8720 C 811.719 -3.18193 -1.33593 0
M  V30 8721 C 810.832 -4.26854 -0.664791 0
M  V30 8722 C 809.967 -5.03137 -1.70372 0
M  V30 8723 C 809.006 -6.03635 -1.01445 0
M  V30 8724 N 808.143 -6.73083 -1.99758 0
M  V30 8725 H 812.983 -2.95187 0.408458 0
M  V30 8726 H 810.52 -1.45546 0.213275 0
M  V30 8727 H 812.478 -3.68207 -1.96161 0
M  V30 8728 H 811.108 -2.54116 -1.9906 0
M  V30 8729 H 810.16 -3.80328 0.0741708 0
M  V30 8730 H 811.472 -4.9865 -0.122197 0
M  V30 8731 H 810.626 -5.5702 -2.40445 0
M  V30 8732 H 809.365 -4.31114 -2.28017 0
M  V30 8733 H 808.37 -5.48984 -0.299496 0
M  V30 8734 H 809.595 -6.77644 -0.444497 0
M  V30 8735 H 807.541 -6.03832 -2.56365 0
M  V30 8736 H 807.458 -7.40855 -1.50565 0
M  V30 8737 H 808.726 -7.3157 -2.69119 0
M  V30 8738 N 812.955 -0.234822 -1.55841 0
M  V30 8739 C 813.902 0.6698 -2.20867 0
M  V30 8740 C 814.872 1.18042 -1.16856 0
M  V30 8741 O 816.057 1.23709 -1.45261 0
M  V30 8742 C 813.197 1.86646 -2.90271 0
M  V30 8743 C 812.31 1.39351 -4.08908 0
M  V30 8744 C 811.445 2.54878 -4.66059 0
M  V30 8745 C 810.484 2.04384 -5.76969 0
M  V30 8746 N 809.621 3.13233 -6.28355 0
M  V30 8747 H 814.461 0.10858 -2.97802 0
M  V30 8748 H 811.998 0.041836 -1.4704 0
M  V30 8749 H 813.956 2.56926 -3.28702 0
M  V30 8750 H 812.586 2.40035 -2.15831 0
M  V30 8751 H 811.638 0.585173 -3.75872 0
M  V30 8752 H 812.95 0.983356 -4.89011 0
M  V30 8753 H 812.104 3.33219 -5.07001 0
M  V30 8754 H 810.843 2.99188 -3.85146 0
M  V30 8755 H 809.848 1.24509 -5.35516 0
M  V30 8756 H 811.073 1.61057 -6.59725 0
M  V30 8757 H 809.019 3.57 -5.50352 0
M  V30 8758 H 808.936 2.76511 -7.03618 0
M  V30 8759 H 810.204 3.91669 -6.73955 0
M  V30 8760 N 814.433 1.57553 0.0384317 0
M  V30 8761 C 815.68 1.88841 0.731116 0
M  V30 8762 C 816.008 0.83093 1.75857 0
M  V30 8763 O 815.263 -0.169248 1.94967 0
M  V30 8764 C 815.562 3.26862 1.44554 0
M  V30 8765 C 815.228 4.47472 0.554946 0
M  V30 8766 C 813.89 4.80203 0.309621 0
M  V30 8767 C 816.242 5.21165 -0.0605204 0
M  V30 8768 C 813.57 5.8402 -0.560101 0
M  V30 8769 C 815.922 6.25905 -0.91789 0
M  V30 8770 C 814.586 6.57117 -1.17277 0
M  V30 8771 H 813.856 0.691018 0.267534 0
M  V30 8772 H 816.503 1.91498 -0.00883195 0
M  V30 8773 H 814.808 3.2015 2.25856 0
M  V30 8774 H 816.505 3.48316 1.98688 0
M  V30 8775 H 813.095 4.21874 0.756304 0
M  V30 8776 H 817.279 4.96164 0.116064 0
M  V30 8777 H 812.535 6.06583 -0.765974 0
M  V30 8778 H 816.709 6.82155 -1.40136 0
M  V30 8779 H 814.336 7.37385 -1.84843 0
M  V30 8780 N 815.911 -0.310526 1.54511 0
M  V30 8781 C 817.151 -1.05498 1.7507 0
M  V30 8782 C 817.515 -1.84814 0.520381 0
M  V30 8783 O 818.716 -2.61937 0.603547 0
M  V30 8784 C 816.987 -1.94466 2.99863 0
M  V30 8785 S 818.546 -2.75686 3.41383 0
M  V30 8786 H 815.364 -0.355951 0.615483 0
M  V30 8787 H 817.966 -0.329464 1.92704 0
M  V30 8788 H 816.67 -1.35055 3.87541 0
M  V30 8789 H 816.201 -2.71401 2.84789 0
M  V30 8790 H 818.216 -3.96971 2.97706 0
M  V30 8791 N 817.389 -1.46805 -0.573248 0
M  V30 8792 C 818.614 -1.56433 -1.36175 0
M  V30 8793 C 819.039 -0.209336 -1.86932 0
M  V30 8794 O 818.397 0.812146 -1.62092 0
M  V30 8795 C 818.445 -2.58055 -2.51873 0
M  V30 8796 O 817.549 -2.12214 -3.53609 0
M  V30 8797 H 816.89 -0.526068 -0.405153 0
M  V30 8798 H 819.42 -1.92456 -0.694405 0
M  V30 8799 H 819.43 -2.77966 -2.98662 0
M  V30 8800 H 818.105 -3.56448 -2.14284 0
M  V30 8801 H 816.682 -2.02333 -3.13234 0
M  V30 8802 N 818.867 0.818669 -1.34668 0
M  V30 8803 C 820.278 1.39177 -1.24446 0
M  V30 8804 C 820.629 1.9578 0.128268 0
M  V30 8805 O 819.754 1.90382 1.02877 0
M  V30 8806 C 820.349 2.53012 -2.25323 0
M  V30 8807 C 818.908 3.06218 -2.18878 0
M  V30 8808 C 818.055 1.79112 -2.11694 0
M  V30 8809 H 821.006 0.622709 -1.45973 0
M  V30 8810 H 821.027 3.31226 -1.8727 0
M  V30 8811 H 820.539 2.11784 -3.25221 0
M  V30 8812 H 818.64 3.51939 -1.22351 0
M  V30 8813 H 818.753 3.65019 -3.10319 0
M  V30 8814 H 817.117 2.0018 -1.57481 0
M  V30 8815 H 817.9 1.40053 -3.13433 0
M  V30 8816 N 820.346 1.18468 1.03938 0
M  V30 8817 C 821.296 0.880799 2.103 0
M  V30 8818 C 822.28 -0.150008 1.60199 0
M  V30 8819 O 823.472 0.054213 1.76917 0
M  V30 8820 C 820.601 0.409723 3.40846 0
M  V30 8821 C 819.687 1.47267 3.9771 0
M  V30 8822 N 820.078 2.68945 4.28371 0
M  V30 8823 C 818.376 1.33349 4.25598 0
M  V30 8824 C 819.077 3.37341 4.73894 0
M  V30 8825 N 818.053 2.64725 4.74786 0
M  V30 8826 H 821.855 1.80574 2.31884 0
M  V30 8827 H 819.369 1.07527 1.21703 0
M  V30 8828 H 821.366 0.17352 4.16539 0
M  V30 8829 H 820.026 -0.508862 3.20688 0
M  V30 8830 H 821.037 3.05801 4.17978 0
M  V30 8831 H 817.714 0.477548 4.1476 0
M  V30 8832 H 819.104 4.41338 5.06627 0
M  V30 8833 N 821.824 -1.22873 0.986916 0
M  V30 8834 C 822.756 -2.23889 0.490537 0
M  V30 8835 C 823.769 -1.57523 -0.411144 0
M  V30 8836 O 824.958 -1.7721 -0.214236 0
M  V30 8837 C 822.058 -3.37488 -0.30902 0
M  V30 8838 C 821.231 -4.33438 0.587354 0
M  V30 8839 C 820.29 -5.25958 -0.159467 0
M  V30 8840 O 819.316 -5.67394 0.453115 0
M  V30 8841 N 820.518 -5.62265 -1.44355 0
M  V30 8842 H 823.283 -2.67109 1.35914 0
M  V30 8843 H 820.844 -1.37111 0.860937 0
M  V30 8844 H 822.836 -3.96365 -0.817139 0
M  V30 8845 H 821.406 -2.934 -1.07868 0
M  V30 8846 H 820.626 -3.72969 1.27622 0
M  V30 8847 H 821.914 -4.94495 1.19801 0
M  V30 8848 H 821.312 -5.30562 -1.96266 0
M  V30 8849 H 819.869 -6.23585 -1.89698 0
M  V30 8850 N 823.302 -0.75937 -1.38099 0
M  V30 8851 C 824.527 -0.327859 -2.04792 0
M  V30 8852 C 824.952 1.03752 -1.56899 0
M  V30 8853 O 824.31 1.66235 -0.723581 0
M  V30 8854 C 824.358 -0.366264 -3.58735 0
M  V30 8855 O 823.462 0.637697 -4.0744 0
M  V30 8856 H 822.803 -0.144092 -0.648177 0
M  V30 8857 H 825.333 -1.03211 -1.7666 0
M  V30 8858 H 825.343 -0.219179 -4.07411 0
M  V30 8859 H 824.018 -1.36243 -3.92951 0
M  V30 8860 H 822.595 0.454749 -3.70117 0
M  V30 8861 N 824.78 1.49157 -0.508906 0
M  V30 8862 C 825.71 2.32109 0.254469 0
M  V30 8863 C 826.691 1.40754 0.955111 0
M  V30 8864 O 827.876 1.69658 0.944983 0
M  V30 8865 C 825.006 3.21458 1.3146 0
M  V30 8866 C 823.96 4.2167 0.733368 0
M  V30 8867 C 823.286 5.00009 1.8946 0
M  V30 8868 C 824.586 5.21544 -0.280875 0
M  V30 8869 H 826.28 2.9618 -0.43795 0
M  V30 8870 H 823.826 1.4243 -0.212062 0
M  V30 8871 H 825.779 3.78305 1.85643 0
M  V30 8872 H 824.503 2.55346 2.03632 0
M  V30 8873 H 823.162 3.65979 0.213231 0
M  V30 8874 H 822.81 4.30338 2.60419 0
M  V30 8875 H 822.51 5.67821 1.51173 0
M  V30 8876 H 824.034 5.59702 2.44061 0
M  V30 8877 H 825.448 5.73039 0.173095 0
M  V30 8878 H 823.845 5.97291 -0.580006 0
M  V30 8879 H 824.915 4.69969 -1.19404 0
M  V30 8880 N 826.258 0.243083 1.55714 0
M  V30 8881 C 827.188 -0.652336 2.24203 0
M  V30 8882 C 828.169 -1.1843 1.221 0
M  V30 8883 O 829.354 -1.22435 1.50743 0
M  V30 8884 C 826.484 -1.85111 2.93856 0
M  V30 8885 C 825.438 -1.45208 4.02615 0
M  V30 8886 C 824.764 -2.73137 4.59674 0
M  V30 8887 C 826.064 -0.625988 5.18535 0
M  V30 8888 H 827.758 -0.0812504 2.9929 0
M  V30 8889 H 825.304 -0.0376388 1.43951 0
M  V30 8890 H 827.257 -2.48314 3.40468 0
M  V30 8891 H 825.981 -2.44751 2.16251 0
M  V30 8892 H 824.64 -0.843406 3.56766 0
M  V30 8893 H 824.288 -3.30967 3.78774 0
M  V30 8894 H 823.988 -2.47163 5.33089 0
M  V30 8895 H 825.512 -3.37245 5.09017 0
M  V30 8896 H 826.926 -1.16223 5.61396 0
M  V30 8897 H 825.323 -0.462465 5.98315 0
M  V30 8898 H 826.393 0.362652 4.83542 0
M  V30 8899 N 827.736 -1.57571 -0.0300757 0
M  V30 8900 C 828.961 -1.93879 -0.736601 0
M  V30 8901 C 829.386 -0.842998 -1.68152 0
M  V30 8902 O 828.744 0.20135 -1.80178 0
M  V30 8903 C 828.792 -3.29247 -1.47066 0
M  V30 8904 O 827.896 -3.21426 -2.58378 0
M  V30 8905 H 827.237 -0.633735 -0.198181 0
M  V30 8906 H 829.767 -2.04595 0.0141485 0
M  V30 8907 H 829.777 -3.64113 -1.84081 0
M  V30 8908 H 828.452 -4.08565 -0.77764 0
M  V30 8909 H 827.029 -2.98189 -2.23914 0
M  V30 8910 N 829.214 0.302327 -1.54673 0
M  V30 8911 C 830.463 1.03533 -1.73101 0
M  V30 8912 C 830.776 1.88473 -0.523174 0
M  V30 8913 O 831.982 2.65029 -0.589229 0
M  V30 8914 C 830.438 1.89043 -3.06252 0
M  V30 8915 C 830.046 1.09112 -4.3451 0
M  V30 8916 C 831.79 2.61951 -3.34039 0
M  V30 8917 C 829.697 1.93891 -5.58713 0
M  V30 8918 H 828.627 0.390261 -0.645145 0
M  V30 8919 H 831.278 0.2924 -1.81155 0
M  V30 8920 H 829.66 2.67319 -2.92159 0
M  V30 8921 H 830.834 0.354596 -4.59434 0
M  V30 8922 H 829.149 0.477923 -4.13648 0
M  V30 8923 H 831.746 3.25729 -4.24033 0
M  V30 8924 H 832.089 3.30711 -2.52855 0
M  V30 8925 H 832.622 1.90725 -3.49097 0
M  V30 8926 H 829.361 1.29604 -6.4256 0
M  V30 8927 H 828.881 2.6522 -5.37976 0
M  V30 8928 H 830.56 2.51971 -5.95919 0
M  V30 8929 N 830.692 1.47107 0.565454 0
M  V30 8930 C 832.108 1.32443 0.890566 0
M  V30 8931 C 832.308 0.308735 1.99121 0
M  V30 8932 O 831.364 -0.28265 2.50913 0
M  V30 8933 C 832.677 2.71548 1.2916 0
M  V30 8934 C 834.225 2.7977 1.40349 0
M  V30 8935 C 834.7 4.19497 1.83811 0
M  V30 8936 N 836.191 4.21998 1.90975 0
M  V30 8937 C 836.926 5.2702 2.25916 0
M  V30 8938 N 836.422 6.42353 2.59527 0
M  V30 8939 N 838.215 5.14393 2.26619 0
M  V30 8940 H 830.366 2.11786 -0.161328 0
M  V30 8941 H 832.629 0.947952 -0.00950631 0
M  V30 8942 H 832.335 3.47265 0.556753 0
M  V30 8943 H 832.209 3.02782 2.24951 0
M  V30 8944 H 834.596 2.0433 2.12916 0
M  V30 8945 H 834.677 2.522 0.427655 0
M  V30 8946 H 834.321 4.95439 1.11816 0
M  V30 8947 H 834.251 4.44486 2.82382 0
M  V30 8948 H 836.742 3.38791 1.6742 0
M  V30 8949 H 837.055 7.18252 2.85191 0
M  V30 8950 H 835.4 6.45687 2.57126 0
M  V30 8951 H 838.591 4.2332 1.99794 0
M  V30 8952 H 838.764 5.96349 2.5352 0
M  V30 8953 N 832.17 -0.811516 1.35101 0
M  V30 8954 C 833.418 -1.56525 1.27845 0
M  V30 8955 C 833.739 -1.94435 -0.14829 0
M  V30 8956 O 833.009 -1.63203 -1.08359 0
M  V30 8957 H 831.589 -0.580433 0.47022 0
M  V30 8958 H 834.251 -0.968277 1.69146 0
M  V30 8959 H 833.347 -2.48291 1.89097 0
M  V30 8960 N 833.648 -1.19017 -1.03309 0
M  V30 8961 C 834.873 -1.01598 -1.80811 0
M  V30 8962 C 835.298 0.430773 -1.83101 0
M  V30 8963 O 834.656 1.30946 -1.25391 0
M  V30 8964 C 834.704 -1.5845 -3.23923 0
M  V30 8965 O 833.808 -0.810972 -4.04348 0
M  V30 8966 H 833.149 -0.359398 -0.558327 0
M  V30 8967 H 835.679 -1.57945 -1.30055 0
M  V30 8968 H 835.689 -1.61486 -3.74682 0
M  V30 8969 H 834.364 -2.63752 -3.21571 0
M  V30 8970 H 832.941 -0.85353 -3.63 0
M  V30 8971 N 835.127 1.22348 -0.993418 0
M  V30 8972 C 836.057 2.26584 -0.564088 0
M  V30 8973 C 837.038 1.65102 0.409298 0
M  V30 8974 O 838.223 1.91872 0.299819 0
M  V30 8975 C 835.353 3.47087 0.121554 0
M  V30 8976 C 834.307 4.21009 -0.770429 0
M  V30 8977 C 833.633 5.34678 0.0481586 0
M  V30 8978 C 834.933 4.79636 -2.06752 0
M  V30 8979 H 836.627 2.62749 -1.43538 0
M  V30 8980 H 834.173 1.26303 -0.691628 0
M  V30 8981 H 836.126 4.19166 0.433303 0
M  V30 8982 H 834.85 3.1002 1.0274 0
M  V30 8983 H 833.509 3.50764 -1.06583 0
M  V30 8984 H 833.157 4.93852 0.954933 0
M  V30 8985 H 832.857 5.85061 -0.545641 0
M  V30 8986 H 834.381 6.09573 0.353991 0
M  V30 8987 H 835.795 5.43654 -1.81969 0
M  V30 8988 H 834.192 5.4036 -2.61019 0
M  V30 8989 H 835.262 3.99659 -2.74592 0
M  V30 8990 N 836.605 0.766683 1.37694 0
M  V30 8991 C 837.852 0.328714 1.99814 0
M  V30 8992 C 838.18 -1.09333 1.60862 0
M  V30 8993 O 837.435 -1.7657 0.8439 0
M  V30 8994 C 837.734 0.413831 3.54996 0
M  V30 8995 C 837.4 1.7934 4.137 0
M  V30 8996 C 836.062 2.17092 4.29447 0
M  V30 8997 C 838.414 2.69776 4.45949 0
M  V30 8998 C 835.742 3.44726 4.74743 0
M  V30 8999 C 838.094 3.96814 4.92667 0
M  V30 9000 C 836.758 4.34618 5.0662 0
M  V30 9001 H 836.028 0.120285 0.731172 0
M  V30 9002 H 838.675 0.97972 1.64541 0
M  V30 9003 H 836.98 -0.320723 3.90485 0
M  V30 9004 H 838.677 0.0563369 4.0096 0
M  V30 9005 H 835.267 1.48997 4.01868 0
M  V30 9006 H 839.451 2.41871 4.33373 0
M  V30 9007 H 834.707 3.73917 4.83731 0
M  V30 9008 H 838.881 4.67022 5.16588 0
M  V30 9009 H 836.508 5.33578 5.41478 0
M  V30 9010 N 838.083 -1.48885 0.516809 0
M  V30 9011 C 839.308 -2.0739 -0.0205201 0
M  V30 9012 C 839.733 -1.37259 -1.28614 0
M  V30 9013 O 839.091 -0.434304 -1.76021 0
M  V30 9014 C 839.139 -3.59793 -0.24104 0
M  V30 9015 O 838.243 -3.90957 -1.31251 0
M  V30 9016 H 837.584 -0.663167 0.0332564 0
M  V30 9017 H 840.114 -1.91477 0.720956 0
M  V30 9018 H 840.124 -4.0531 -0.467737 0
M  V30 9019 H 838.799 -4.10244 0.68356 0
M  V30 9020 H 837.376 -3.57234 -1.06951 0
M  V30 9021 N 839.561 -0.251338 -1.55583 0
M  V30 9022 C 840.972 0.25098 -1.85005 0
M  V30 9023 C 841.323 1.57259 -1.17321 0
M  V30 9024 O 840.448 2.11603 -0.453136 0
M  V30 9025 C 841.043 0.462161 -3.35633 0
M  V30 9026 C 839.602 0.908737 -3.65266 0
M  V30 9027 C 838.749 -0.0115418 -2.77298 0
M  V30 9028 H 841.7 -0.473782 -1.51463 0
M  V30 9029 H 841.721 1.30415 -3.57452 0
M  V30 9030 H 841.233 -0.499886 -3.84867 0
M  V30 9031 H 839.334 1.8831 -3.21512 0
M  V30 9032 H 839.447 0.762526 -4.72993 0
M  V30 9033 H 837.811 0.500612 -2.49732 0
M  V30 9034 H 838.594 -0.969042 -3.29339 0
M  V30 9035 N 841.039 1.57585 0.0217189 0
M  V30 9036 C 842.455 1.55072 0.377484 0
M  V30 9037 C 842.655 0.978423 1.76151 0
M  V30 9038 O 841.711 0.602688 2.45202 0
M  V30 9039 C 843.024 2.99462 0.272605 0
M  V30 9040 C 844.572 3.11047 0.349148 0
M  V30 9041 C 845.047 4.57182 0.273636 0
M  V30 9042 N 846.538 4.62007 0.332206 0
M  V30 9043 C 847.273 5.72631 0.296782 0
M  V30 9044 N 846.769 6.92472 0.21322 0
M  V30 9045 N 848.562 5.61028 0.347053 0
M  V30 9046 H 840.713 1.93133 -0.883925 0
M  V30 9047 H 842.976 0.886151 -0.33681 0
M  V30 9048 H 842.682 3.45088 -0.67878 0
M  V30 9049 H 842.556 3.61901 1.06335 0
M  V30 9050 H 844.943 2.65364 1.29097 0
M  V30 9051 H 845.024 2.51425 -0.471085 0
M  V30 9052 H 844.668 5.03534 -0.664548 0
M  V30 9053 H 844.598 5.14724 1.11207 0
M  V30 9054 H 847.089 3.75788 0.399003 0
M  V30 9055 H 847.402 7.72563 0.191492 0
M  V30 9056 H 845.747 6.94769 0.179161 0
M  V30 9057 H 848.938 4.66298 0.410378 0
M  V30 9058 H 849.111 6.47229 0.315979 0
M  V30 9059 N 842.517 -0.29412 1.54831 0
M  V30 9060 C 843.933 -0.640167 1.46199 0
M  V30 9061 C 844.133 -1.90426 0.658798 0
M  V30 9062 O 843.189 -2.51932 0.169228 0
M  V30 9063 C 844.502 -0.786763 2.90225 0
M  V30 9064 C 846.05 -0.882201 3.0031 0
M  V30 9065 C 846.525 -1.06074 4.45547 0
M  V30 9066 N 848.016 -1.12678 4.49286 0
M  V30 9067 C 848.751 -1.28334 5.58854 0
M  V30 9068 N 848.247 -1.40845 6.78332 0
M  V30 9069 N 850.04 -1.31277 5.46555 0
M  V30 9070 H 842.191 0.536334 2.05517 0
M  V30 9071 H 844.454 0.178363 0.93107 0
M  V30 9072 H 844.16 0.0713018 3.51628 0
M  V30 9073 H 844.034 -1.67364 3.38037 0
M  V30 9074 H 846.421 -1.73075 2.39017 0
M  V30 9075 H 846.502 0.0288405 2.55784 0
M  V30 9076 H 846.146 -0.216935 5.07437 0
M  V30 9077 H 846.076 -1.98611 4.8771 0
M  V30 9078 H 848.567 -1.04335 3.63212 0
M  V30 9079 H 848.88 -1.52566 7.57591 0
M  V30 9080 H 847.225 -1.37888 6.81184 0
M  V30 9081 H 850.416 -1.2112 4.52159 0
M  V30 9082 H 850.589 -1.43136 6.31994 0
M  V30 9083 N 843.995 -1.47404 -0.557645 0
M  V30 9084 C 844.943 -1.60265 -1.68576 0
M  V30 9085 C 845.937 -0.469982 -1.6275 0
M  V30 9086 O 847.143 -0.647764 -1.67941 0
M  V30 9087 H 843.518 -0.504353 -0.557792 0
M  V30 9088 H 845.489 -2.55066 -1.54867 0
M  V30 9089 C 844.238 -1.63369 -3.0693 0
M  V30 9090 H 843.561 -2.49874 -3.12095 0
M  V30 9091 H 845.001 -1.76417 -3.85556 0
M  V30 9092 C 843.46 -0.366921 -3.34896 0
M  V30 9093 O 843.99 0.53218 -3.98159 0
M  V30 9094 N 842.196 -0.247082 -2.89548 0
M  V30 9095 H 841.743 -0.979669 -2.38244 0
M  V30 9096 H 841.701 0.599552 -3.0863 0
M  V30 9097 N 845.473 0.80434 -1.35529 0
M  V30 9098 C 846.698 1.598 -1.32207 0
M  V30 9099 C 847.123 1.87848 0.0974226 0
M  V30 9100 O 846.481 1.46728 1.06492 0
M  V30 9101 C 846.529 2.90483 -2.13663 0
M  V30 9102 O 845.633 3.83411 -1.51888 0
M  V30 9103 H 844.974 0.485305 -0.453183 0
M  V30 9104 H 847.504 0.998119 -1.78602 0
M  V30 9105 H 847.514 3.39888 -2.257 0
M  V30 9106 H 846.189 2.69395 -3.16859 0
M  V30 9107 H 844.766 3.41967 -1.48704 0
M  V30 9108 N 846.951 1.19563 1.02676 0
M  V30 9109 C 847.898 0.935291 2.11 0
M  V30 9110 C 848.868 -0.130685 1.65585 0
M  V30 9111 O 850.053 0.0119062 1.90796 0
M  V30 9112 C 847.193 0.482384 3.41712 0
M  V30 9113 C 846.306 1.61537 4.00662 0
M  V30 9114 C 845.441 1.11378 5.19392 0
M  V30 9115 C 844.48 2.22052 5.70403 0
M  V30 9116 N 843.617 1.73185 6.80405 0
M  V30 9117 H 848.457 1.86275 2.32606 0
M  V30 9118 H 845.994 0.928656 1.14081 0
M  V30 9119 H 847.952 0.20118 4.16715 0
M  V30 9120 H 846.582 -0.408086 3.2021 0
M  V30 9121 H 845.634 2.01173 3.22852 0
M  V30 9122 H 846.946 2.44912 4.34534 0
M  V30 9123 H 846.1 0.787935 6.01562 0
M  V30 9124 H 844.839 0.249789 4.8706 0
M  V30 9125 H 843.844 2.55465 4.86845 0
M  V30 9126 H 845.069 3.08911 6.04774 0
M  V30 9127 H 843.015 0.890973 6.49921 0
M  V30 9128 H 842.932 2.50148 7.13416 0
M  V30 9129 H 844.2 1.4357 7.66164 0
M  V30 9130 N 848.429 -1.21819 0.999893 0
M  V30 9131 C 849.657 -1.94758 0.698359 0
M  V30 9132 C 850.072 -1.73771 -0.738183 0
M  V30 9133 O 849.429 -1.04113 -1.49889 0
M  V30 9134 C 849.48 -3.47292 1.00353 0
M  V30 9135 O 849.201 -3.67579 2.38363 0
M  V30 9136 C 850.702 -4.37403 0.72068 0
M  V30 9137 H 847.922 -0.619512 0.257771 0
M  V30 9138 H 850.466 -1.54778 1.33656 0
M  V30 9139 H 848.621 -3.85213 0.411018 0
M  V30 9140 H 849.035 -4.61719 2.48829 0
M  V30 9141 H 850.509 -5.43151 0.984422 0
M  V30 9142 H 850.986 -4.3784 -0.345309 0
M  V30 9143 H 851.592 -4.05119 1.29456 0
M  V30 9144 N 849.908 -0.773975 -1.37286 0
M  V30 9145 C 851.133 -0.349561 -2.04433 0
M  V30 9146 C 851.558 1.02082 -1.5799 0
M  V30 9147 O 850.916 1.65458 -0.741172 0
M  V30 9148 C 850.964 -0.404292 -3.58326 0
M  V30 9149 O 850.068 0.594447 -4.08093 0
M  V30 9150 H 849.409 -0.150959 -0.646612 0
M  V30 9151 H 851.939 -1.05079 -1.75555 0
M  V30 9152 H 851.949 -0.262378 -4.07155 0
M  V30 9153 H 850.624 -1.40403 -3.91484 0
M  V30 9154 H 849.201 0.415468 -3.70578 0
M  V30 9155 N 851.386 1.48609 -0.524698 0
M  V30 9156 C 852.635 2.01696 0.0132937 0
M  V30 9157 C 852.948 1.40751 1.35825 0
M  V30 9158 O 854.154 1.85304 1.9843 0
M  V30 9159 C 852.61 3.59824 0.0741012 0
M  V30 9160 C 852.218 4.2975 -1.26564 0
M  V30 9161 C 853.962 4.20774 0.5612 0
M  V30 9162 C 851.869 5.79798 -1.16571 0
M  V30 9163 H 850.799 0.753949 0.00873931 0
M  V30 9164 H 853.45 1.70922 -0.667684 0
M  V30 9165 H 851.832 3.87416 0.820043 0
M  V30 9166 H 853.006 4.13836 -2.02674 0
M  V30 9167 H 851.321 3.80649 -1.68806 0
M  V30 9168 H 853.918 5.30687 0.653853 0
M  V30 9169 H 854.261 3.85734 1.56573 0
M  V30 9170 H 854.794 3.97591 -0.128901 0
M  V30 9171 H 851.533 6.19403 -2.14523 0
M  V30 9172 H 851.053 5.9814 -0.445894 0
M  V30 9173 H 852.732 6.41337 -0.854186 0
M  V30 9174 N 852.864 0.259585 1.55447 0
M  V30 9175 C 854.111 -0.361607 1.99245 0
M  V30 9176 C 854.439 -1.57017 1.14787 0
M  V30 9177 O 853.694 -1.94658 0.201724 0
M  V30 9178 C 853.993 -0.802727 3.48269 0
M  V30 9179 C 853.659 0.299472 4.49904 0
M  V30 9180 C 852.321 0.602157 4.77418 0
M  V30 9181 C 854.673 1.04295 5.10658 0
M  V30 9182 C 852.001 1.65217 5.62957 0
M  V30 9183 C 854.353 2.08257 5.97337 0
M  V30 9184 C 853.017 2.39177 6.23178 0
M  V30 9185 H 852.287 -0.132322 0.72909 0
M  V30 9186 H 854.934 0.370059 1.8789 0
M  V30 9187 H 853.239 -1.61381 3.5702 0
M  V30 9188 H 854.936 -1.29385 3.79553 0
M  V30 9189 H 851.526 0.0534256 4.28567 0
M  V30 9190 H 855.71 0.822358 4.89439 0
M  V30 9191 H 850.966 1.89692 5.81229 0
M  V30 9192 H 855.14 2.6635 6.43452 0
M  V30 9193 H 852.767 3.20677 6.89253 0
M  V30 9194 N 854.342 -1.57594 -0.0133615 0
M  V30 9195 C 855.567 -1.94649 -0.715996 0
M  V30 9196 C 855.992 -0.860786 -1.67249 0
M  V30 9197 O 855.35 0.182228 -1.80382 0
M  V30 9198 C 855.398 -3.30789 -1.43566 0
M  V30 9199 O 854.502 -3.24148 -2.54955 0
M  V30 9200 H 853.843 -0.635801 -0.191449 0
M  V30 9201 H 856.373 -2.04569 0.0358478 0
M  V30 9202 H 856.383 -3.66045 -1.80208 0
M  V30 9203 H 855.058 -4.09367 -0.734263 0
M  V30 9204 H 853.635 -3.00548 -2.20739 0
M  V30 9205 N 855.82 0.285905 -1.54985 0
M  V30 9206 C 857.067 1.0192 -1.74982 0
M  V30 9207 C 857.395 1.86743 -0.543816 0
M  V30 9208 O 856.65 1.89874 0.473972 0
M  V30 9209 C 856.949 1.94193 -3.0004 0
M  V30 9210 C 856.615 1.25225 -4.33162 0
M  V30 9211 C 855.277 1.06149 -4.69346 0
M  V30 9212 C 857.629 0.760427 -5.15623 0
M  V30 9213 C 854.957 0.365991 -5.85557 0
M  V30 9214 C 857.309 0.0785787 -6.32551 0
M  V30 9215 C 855.973 -0.124002 -6.67385 0
M  V30 9216 H 855.243 0.372951 -0.640304 0
M  V30 9217 H 857.89 0.292652 -1.89251 0
M  V30 9218 H 856.195 2.73426 -2.80616 0
M  V30 9219 H 857.892 2.51029 -3.12707 0
M  V30 9220 H 854.482 1.41081 -4.04715 0
M  V30 9221 H 858.666 0.895466 -4.88155 0
M  V30 9222 H 853.922 0.198193 -6.11079 0
M  V30 9223 H 858.096 -0.310339 -6.95708 0
M  V30 9224 H 855.723 -0.664918 -7.57287 0
M  V30 9225 N 857.298 1.47698 0.54982 0
M  V30 9226 C 858.714 1.3338 0.876468 0
M  V30 9227 C 858.914 0.329837 1.98782 0
M  V30 9228 O 857.97 -0.256022 2.51199 0
M  V30 9229 C 859.283 2.72903 1.26272 0
M  V30 9230 C 860.831 2.81243 1.37373 0
M  V30 9231 C 861.306 4.21423 1.79351 0
M  V30 9232 N 862.797 4.24 1.86489 0
M  V30 9233 C 863.532 5.29386 2.20313 0
M  V30 9234 N 863.028 6.4507 2.527 0
M  V30 9235 N 864.821 5.16768 2.2115 0
M  V30 9236 H 856.972 2.11603 -0.183781 0
M  V30 9237 H 859.235 0.947798 -0.0195601 0
M  V30 9238 H 858.941 3.47836 0.519889 0
M  V30 9239 H 858.815 3.05151 2.21727 0
M  V30 9240 H 861.202 2.06577 2.10737 0
M  V30 9241 H 861.283 2.52639 0.400882 0
M  V30 9242 H 860.927 4.96597 1.06555 0
M  V30 9243 H 860.857 4.47456 2.77652 0
M  V30 9244 H 863.348 3.40547 1.63817 0
M  V30 9245 H 863.661 7.21236 2.77557 0
M  V30 9246 H 862.006 6.48377 2.50263 0
M  V30 9247 H 865.197 4.25416 1.95293 0
M  V30 9248 H 865.37 5.99004 2.4718 0
M  V30 9249 N 858.776 -0.797141 1.35954 0
M  V30 9250 C 860.024 -1.55161 1.29497 0
M  V30 9251 C 860.345 -1.94582 -0.127659 0
M  V30 9252 O 859.615 -1.64343 -1.06622 0
M  V30 9253 H 858.195 -0.575413 0.47635 0
M  V30 9254 H 860.857 -0.950282 1.70164 0
M  V30 9255 H 859.953 -2.46272 1.9172 0
M  V30 9256 N 860.254 -1.20106 -1.0204 0
M  V30 9257 C 861.67 -0.955099 -1.27867 0
M  V30 9258 C 861.87 0.367595 -1.98119 0
M  V30 9259 O 860.926 1.09705 -2.27423 0
M  V30 9260 C 862.239 -2.13507 -2.11744 0
M  V30 9261 C 863.787 -2.17563 -2.25023 0
M  V30 9262 C 864.262 -3.35035 -3.12275 0
M  V30 9263 N 865.753 -3.35024 -3.19864 0
M  V30 9264 C 866.488 -4.22566 -3.8759 0
M  V30 9265 N 865.984 -5.20278 -4.57474 0
M  V30 9266 N 867.777 -4.10418 -3.84075 0
M  V30 9267 H 859.928 -2.05193 -0.54861 0
M  V30 9268 H 862.191 -0.897689 -0.304728 0
M  V30 9269 H 861.897 -3.09275 -1.67456 0
M  V30 9270 H 861.771 -2.11281 -3.12474 0
M  V30 9271 H 864.158 -1.22359 -2.68537 0
M  V30 9272 H 864.239 -2.23838 -1.23815 0
M  V30 9273 H 863.883 -4.30522 -2.69468 0
M  V30 9274 H 863.813 -3.25996 -4.13563 0
M  V30 9275 H 866.304 -2.64299 -2.701 0
M  V30 9276 H 866.617 -5.83408 -5.06809 0
M  V30 9277 H 864.962 -5.24219 -4.56311 0
M  V30 9278 H 868.153 -3.33353 -3.28623 0
M  V30 9279 H 868.326 -4.78854 -4.36581 0
M  V30 9280 N 861.732 1.21287 -1.00634 0
M  V30 9281 C 862.695 2.21927 -0.572821 0
M  V30 9282 C 863.695 1.5691 0.351541 0
M  V30 9283 O 864.885 1.73623 0.141643 0
M  V30 9284 C 862.017 3.40501 0.164932 0
M  V30 9285 H 863.21 2.61795 -1.463 0
M  V30 9286 H 860.763 1.34571 -0.794998 0
M  V30 9287 H 861.498 3.06123 1.07049 0
M  V30 9288 H 861.283 3.88912 -0.498962 0
M  V30 9289 H 862.773 4.15103 0.455945 0
M  V30 9290 N 863.21 0.781244 1.36873 0
M  V30 9291 C 864.157 0.172146 2.30157 0
M  V30 9292 C 865.127 -0.679328 1.51573 0
M  V30 9293 O 866.312 -0.629713 1.80109 0
M  V30 9294 C 863.452 -0.693534 3.38059 0
M  V30 9295 C 862.565 0.175586 4.31643 0
M  V30 9296 C 861.7 -0.695695 5.26625 0
M  V30 9297 C 860.739 0.17538 6.11849 0
M  V30 9298 N 859.876 -0.654416 6.99043 0
M  V30 9299 H 864.716 0.973133 2.81663 0
M  V30 9300 H 862.253 0.491469 1.38647 0
M  V30 9301 H 864.211 -1.21035 3.99257 0
M  V30 9302 H 862.841 -1.46003 2.87894 0
M  V30 9303 H 861.893 0.810295 3.7167 0
M  V30 9304 H 863.205 0.847107 4.91554 0
M  V30 9305 H 862.359 -1.27863 5.93073 0
M  V30 9306 H 861.098 -1.40087 4.67148 0
M  V30 9307 H 860.103 0.77078 5.4437 0
M  V30 9308 H 861.328 0.87803 6.734 0
M  V30 9309 H 859.274 -1.34403 6.42084 0
M  V30 9310 H 859.191 -0.0403998 7.55989 0
M  V30 9311 H 860.459 -1.22144 7.69871 0
M  V30 9312 N 864.689 -1.48329 0.532571 0
M  V30 9313 C 865.966 -1.95492 -0.0650985 0
M  V30 9314 C 866.346 -1.47485 -1.51034 0
M  V30 9315 O 865.694 -0.702516 -2.17433 0
M  V30 9316 C 865.904 -3.48957 0.0548341 0
M  V30 9317 C 867.252 -4.24475 -0.103115 0
M  V30 9318 O 868.276 -3.56195 -0.0188343 0
M  V30 9319 O 867.135 -5.45781 -0.280164 0
M  V30 9320 H 864.229 -0.823327 -0.0778603 0
M  V30 9321 H 866.775 -1.58839 0.597353 0
M  V30 9322 H 865.547 -3.76628 1.06148 0
M  V30 9323 H 865.17 -3.92311 -0.64635 0
M  V30 9324 N 866.167 -0.267825 -1.55308 0
M  V30 9325 C 867.413 0.351556 -1.9973 0
M  V30 9326 C 867.746 1.56049 -1.15596 0
M  V30 9327 O 867.021 1.93203 -0.224274 0
M  V30 9328 C 867.304 0.74091 -3.52395 0
M  V30 9329 C 867.157 -0.474861 -4.47286 0
M  V30 9330 C 868.476 1.5801 -4.10756 0
M  V30 9331 H 865.595 0.126308 -0.726096 0
M  V30 9332 H 868.237 -0.373316 -1.86296 0
M  V30 9333 H 866.387 1.35851 -3.63973 0
M  V30 9334 H 868.059 -1.1134 -4.47662 0
M  V30 9335 H 866.302 -1.11425 -4.19246 0
M  V30 9336 H 866.973 -0.158782 -5.51772 0
M  V30 9337 H 869.449 1.05857 -4.0241 0
M  V30 9338 H 868.325 1.82135 -5.17801 0
M  V30 9339 H 868.586 2.55878 -3.60526 0
M  V30 9340 N 867.645 1.57599 0.00500368 0
M  V30 9341 C 868.893 1.89973 0.68953 0
M  V30 9342 C 869.214 0.868531 1.7459 0
M  V30 9343 O 868.484 -0.0947367 1.95671 0
M  V30 9344 H 867.064 0.701153 0.25767 0
M  V30 9345 H 869.726 1.94869 -0.0347392 0
M  V30 9346 H 868.822 2.89584 1.16394 0
M  V30 9347 N 869.123 -0.277682 1.55134 0
M  V30 9348 C 870.348 -1.03254 1.7987 0
M  V30 9349 C 870.773 -1.79324 0.567861 0
M  V30 9350 O 870.131 -1.74764 -0.4824 0
M  V30 9351 C 870.179 -1.9705 3.02 0
M  V30 9352 O 869.283 -3.05744 2.76757 0
M  V30 9353 H 868.624 -0.295447 0.594649 0
M  V30 9354 H 871.154 -0.308013 2.02268 0
M  V30 9355 H 871.164 -2.3909 3.30606 0
M  V30 9356 H 869.839 -1.41094 3.91236 0
M  V30 9357 H 868.416 -2.68052 2.59235 0
M  V30 9358 N 870.601 -1.47988 -0.541979 0
M  V30 9359 C 871.511 -1.64276 -1.67483 0
M  V30 9360 C 872.527 -0.525387 -1.65879 0
M  V30 9361 O 873.703 -0.794912 -1.85049 0
M  V30 9362 C 870.768 -1.66744 -3.03969 0
M  V30 9363 C 869.829 -2.90021 -3.16522 0
M  V30 9364 C 869.062 -2.92362 -4.46498 0
M  V30 9365 O 869.285 -2.03462 -5.32878 0
M  V30 9366 O 868.219 -3.84399 -4.63164 0
M  V30 9367 H 872.045 -2.60164 -1.5668 0
M  V30 9368 H 869.63 -1.31249 -0.71372 0
M  V30 9369 H 871.512 -1.70958 -3.85164 0
M  V30 9370 H 870.187 -0.740277 -3.15122 0
M  V30 9371 H 869.094 -2.91345 -2.34667 0
M  V30 9372 H 870.427 -3.82082 -3.10281 0
M  V30 9373 N 872.079 0.78992 -1.36375 0
M  V30 9374 C 873.027 1.92394 -1.30719 0
M  V30 9375 C 874.021 1.68226 -0.199076 0
M  V30 9376 O 875.227 1.76239 -0.366051 0
M  V30 9377 H 871.602 0.632382 -0.406936 0
M  V30 9378 H 873.573 1.94282 -2.26488 0
M  V30 9379 C 872.322 3.2941 -1.11284 0
M  V30 9380 H 871.645 3.48573 -1.95798 0
M  V30 9381 H 873.085 4.09111 -1.11373 0
M  V30 9382 C 871.544 3.36405 0.182543 0
M  V30 9383 O 872.074 3.84206 1.17255 0
M  V30 9384 N 870.28 2.89712 0.227046 0
M  V30 9385 H 869.827 2.51004 -0.579217 0
M  V30 9386 H 869.785 2.94773 1.09344 0
M  V30 9387 N 873.557 1.20646 1.01402 0
M  V30 9388 C 874.834 0.927176 1.72229 0
M  V30 9389 C 875.214 -0.563382 2.03443 0
M  V30 9390 O 874.562 -1.52576 1.70096 0
M  V30 9391 C 874.772 1.80285 2.98828 0
M  V30 9392 C 876.12 2.04624 3.72041 0
M  V30 9393 O 877.144 1.77559 3.0879 0
M  V30 9394 O 876.003 2.50347 4.85787 0
M  V30 9395 H 873.097 0.346891 0.75073 0
M  V30 9396 H 875.643 1.31532 1.07227 0
M  V30 9397 H 874.415 2.81204 2.72102 0
M  V30 9398 H 874.038 1.41495 3.71571 0
M  V30 9399 N 875.035 -1.20752 1.01276 0
M  V30 9400 C 876.282 -1.90021 0.699887 0
M  V30 9401 C 876.61 -1.78604 -0.770113 0
M  V30 9402 O 875.865 -1.16195 -1.57471 0
M  V30 9403 C 876.164 -3.40808 1.07633 0
M  V30 9404 C 875.83 -3.72423 2.54189 0
M  V30 9405 C 874.492 -3.80762 2.94234 0
M  V30 9406 C 876.844 -3.87025 3.49086 0
M  V30 9407 C 874.172 -4.01158 4.28123 0
M  V30 9408 C 876.524 -4.0893 4.82658 0
M  V30 9409 C 875.188 -4.15498 5.22415 0
M  V30 9410 H 874.458 -0.695335 0.256107 0
M  V30 9411 H 877.105 -1.43096 1.27263 0
M  V30 9412 H 875.41 -3.89521 0.421944 0
M  V30 9413 H 877.107 -3.92693 0.811997 0
M  V30 9414 H 873.697 -3.66529 2.22158 0
M  V30 9415 H 877.881 -3.79942 3.19309 0
M  V30 9416 H 873.137 -4.04476 4.58486 0
M  V30 9417 H 877.311 -4.19172 5.56119 0
M  V30 9418 H 874.938 -4.31055 6.26176 0
M  V30 9419 N 876.513 -0.788492 -1.36457 0
M  V30 9420 C 877.476 -0.192209 -2.28393 0
M  V30 9421 C 878.476 0.609916 -1.48784 0
M  V30 9422 O 879.666 0.431046 -1.68783 0
M  V30 9423 C 876.798 0.734096 -3.32902 0
M  V30 9424 H 877.991 -1.00284 -2.82636 0
M  V30 9425 H 875.544 -0.557852 -1.46006 0
M  V30 9426 H 876.279 1.5691 -2.83813 0
M  V30 9427 H 876.064 0.160875 -3.9177 0
M  V30 9428 H 877.554 1.1462 -4.01562 0
M  V30 9429 N 877.991 1.48044 -0.54043 0
M  V30 9430 C 879.268 1.95523 0.0547302 0
M  V30 9431 C 879.648 1.48284 1.5025 0
M  V30 9432 O 878.996 0.714037 2.17057 0
M  V30 9433 C 879.206 3.48923 -0.0733393 0
M  V30 9434 C 880.554 4.24523 0.0806026 0
M  V30 9435 O 881.578 3.562 -5.58687e-05 0
M  V30 9436 O 880.437 5.45922 0.251216 0
M  V30 9437 H 877.531 0.823728 0.073493 0
M  V30 9438 H 880.077 1.5852 -0.605768 0
M  V30 9439 H 878.849 3.76059 -1.08144 0
M  V30 9440 H 878.472 3.92648 0.625536 0
M  V30 9441 N 879.47 0.276058 1.55163 0
M  V30 9442 C 880.747 -0.392292 1.91626 0
M  V30 9443 C 881.127 -1.73646 1.20043 0
M  V30 9444 O 880.475 -2.26139 0.327606 0
M  V30 9445 C 880.685 -0.531641 3.44927 0
M  V30 9446 C 882.033 -0.8141 4.16722 0
M  V30 9447 O 883.057 -0.616413 3.50826 0
M  V30 9448 O 881.916 -1.19224 5.33337 0
M  V30 9449 H 879.01 -0.214945 0.798579 0
M  V30 9450 H 881.556 0.32228 1.66612 0
M  V30 9451 H 880.328 0.414282 3.89101 0
M  V30 9452 H 879.951 -1.29564 3.75897 0
M  V30 9453 N 880.948 -1.576 0.00335426 0
M  V30 9454 C 881.858 -2.12067 -1.00322 0
M  V30 9455 C 882.874 -1.06672 -1.37467 0
M  V30 9456 O 884.05 -1.38592 -1.46131 0
M  V30 9457 C 881.115 -2.61593 -2.27531 0
M  V30 9458 C 880.176 -3.81602 -1.96668 0
M  V30 9459 C 879.409 -4.28756 -3.17811 0
M  V30 9460 O 879.632 -3.75222 -4.2961 0
M  V30 9461 O 878.566 -5.20877 -3.01613 0
M  V30 9462 H 882.392 -2.98299 -0.570199 0
M  V30 9463 H 879.977 -1.47835 -0.215682 0
M  V30 9464 H 881.859 -2.93631 -3.02256 0
M  V30 9465 H 880.534 -1.78457 -2.70065 0
M  V30 9466 H 879.441 -3.54531 -1.19408 0
M  V30 9467 H 880.774 -4.65822 -1.58968 0
M  V30 9468 N 882.426 0.269451 -1.5528 0
M  V30 9469 C 883.376 1.33553 -1.84791 0
M  V30 9470 C 884.36 1.44532 -0.707067 0
M  V30 9471 O 885.552 1.48153 -0.968493 0
M  V30 9472 C 882.681 2.69516 -2.12641 0
M  V30 9473 C 881.767 2.62633 -3.32993 0
M  V30 9474 N 882.158 2.25371 -4.52815 0
M  V30 9475 C 880.456 2.93688 -3.35654 0
M  V30 9476 C 881.157 2.28567 -5.34913 0
M  V30 9477 N 880.133 2.67181 -4.73408 0
M  V30 9478 H 883.935 1.03758 -2.74976 0
M  V30 9479 H 881.449 0.478087 -1.55203 0
M  V30 9480 H 883.446 3.46424 -2.3194 0
M  V30 9481 H 882.106 3.00197 -1.23742 0
M  V30 9482 H 883.117 1.9729 -4.7885 0
M  V30 9483 H 879.794 3.29057 -2.56958 0
M  V30 9484 H 881.184 2.02289 -6.40725 0
M  V30 9485 N 883.904 1.48273 0.534124 0
M  V30 9486 C 885.129 1.59988 1.31979 0
M  V30 9487 C 885.554 0.258824 1.86311 0
M  V30 9488 O 884.912 -0.768885 1.64188 0
M  V30 9489 C 884.96 2.64642 2.44943 0
M  V30 9490 O 884.064 2.21515 3.47858 0
M  V30 9491 H 883.405 0.536625 0.391063 0
M  V30 9492 H 885.935 1.94229 0.643135 0
M  V30 9493 H 885.945 2.85786 2.91187 0
M  V30 9494 H 884.62 3.62004 2.04758 0
M  V30 9495 H 883.197 2.10567 3.0776 0
M  V30 9496 N 885.382 -0.782676 1.36792 0
M  V30 9497 C 886.61 -1.57162 1.34565 0
M  V30 9498 C 887.025 -1.88664 -0.0715501 0
M  V30 9499 O 886.382 -1.50633 -1.03033 0
M  V30 9500 C 886.433 -2.88854 2.1736 0
M  V30 9501 O 886.154 -2.58707 3.53557 0
M  V30 9502 C 887.655 -3.83132 2.2299 0
M  V30 9503 H 884.875 -0.487245 0.461338 0
M  V30 9504 H 887.419 -0.970905 1.79982 0
M  V30 9505 H 885.574 -3.45377 1.7548 0
M  V30 9506 H 885.988 -3.42961 3.96835 0
M  V30 9507 H 887.462 -4.72575 2.85266 0
M  V30 9508 H 887.939 -4.21472 1.23524 0
M  V30 9509 H 888.545 -3.32541 2.65135 0
M  V30 9510 N 886.86 -1.21182 -1.00761 0
M  V30 9511 C 888.107 -1.02746 -1.74498 0
M  V30 9512 C 888.435 0.439344 -1.89473 0
M  V30 9513 O 887.69 1.34232 -1.42409 0
M  V30 9514 C 887.989 -1.6667 -3.16158 0
M  V30 9515 C 887.655 -3.16515 -3.21137 0
M  V30 9516 C 886.317 -3.57405 -3.22203 0
M  V30 9517 C 888.669 -4.12495 -3.18587 0
M  V30 9518 C 885.997 -4.92786 -3.18401 0
M  V30 9519 C 888.349 -5.47833 -3.16326 0
M  V30 9520 C 887.013 -5.88124 -3.157 0
M  V30 9521 H 886.283 -0.375974 -0.638533 0
M  V30 9522 H 888.93 -1.50736 -1.18114 0
M  V30 9523 H 887.235 -1.10966 -3.75758 0
M  V30 9524 H 888.932 -1.49911 -3.71924 0
M  V30 9525 H 885.522 -2.83947 -3.21048 0
M  V30 9526 H 889.706 -3.81932 -3.16925 0
M  V30 9527 H 884.962 -5.23253 -3.16253 0
M  V30 9528 H 889.136 -6.21942 -3.13306 0
M  V30 9529 H 886.763 -6.92995 -3.12508 0
M  V30 9530 N 888.338 1.20213 -1.01915 0
M  V30 9531 C 889.248 2.26763 -0.601311 0
M  V30 9532 C 890.264 1.70185 0.362369 0
M  V30 9533 O 891.44 2.00165 0.222682 0
M  V30 9534 C 888.505 3.46662 0.0512879 0
M  V30 9535 C 887.566 4.18459 -0.958659 0
M  V30 9536 C 886.799 5.32634 -0.337107 0
M  V30 9537 O 887.022 5.63841 0.86251 0
M  V30 9538 O 885.956 5.9258 -1.05511 0
M  V30 9539 H 889.782 2.64725 -1.48844 0
M  V30 9540 H 887.367 1.2688 -0.788784 0
M  V30 9541 H 889.249 4.19345 0.41564 0
M  V30 9542 H 887.924 3.1057 0.912572 0
M  V30 9543 H 886.831 3.47937 -1.37442 0
M  V30 9544 H 888.164 4.58498 -1.78999 0
M  V30 9545 N 889.816 0.795718 1.36037 0
M  V30 9546 C 891.093 0.294743 1.93367 0
M  V30 9547 C 891.473 -1.21406 1.72696 0
M  V30 9548 O 890.821 -2.00849 1.08959 0
M  V30 9549 C 891.031 0.694254 3.42025 0
M  V30 9550 C 892.379 0.677566 4.19159 0
M  V30 9551 O 893.403 0.635119 3.50492 0
M  V30 9552 O 892.262 0.726127 5.41655 0
M  V30 9553 H 889.356 0.0745459 0.823633 0
M  V30 9554 H 891.902 0.878685 1.4518 0
M  V30 9555 H 890.674 1.73458 3.50753 0
M  V30 9556 H 890.297 0.0845338 3.9751 0
M  V30 9557 N 891.294 -1.47756 0.548274 0
M  V30 9558 C 892.519 -2.07387 0.023475 0
M  V30 9559 C 892.944 -1.39956 -1.25674 0
M  V30 9560 O 892.302 -0.471543 -1.7506 0
M  V30 9561 C 892.35 -3.60224 -0.164669 0
M  V30 9562 O 891.454 -3.93653 -1.22928 0
M  V30 9563 H 890.795 -0.662312 0.0473156 0
M  V30 9564 H 893.325 -1.89905 0.761409 0
M  V30 9565 H 893.335 -4.06211 -0.38166 0
M  V30 9566 H 892.01 -4.08702 0.770425 0
M  V30 9567 H 890.587 -3.59422 -0.993495 0
M  V30 9568 N 892.772 -0.284283 -1.55015 0
M  V30 9569 C 893.682 0.60906 -2.26556 0
M  V30 9570 C 894.698 1.16246 -1.29472 0
M  V30 9571 O 895.874 1.1908 -1.62425 0
M  V30 9572 C 892.939 1.77246 -2.97968 0
M  V30 9573 C 892 1.25482 -4.10552 0
M  V30 9574 C 891.233 2.36277 -4.78549 0
M  V30 9575 O 891.456 3.55829 -4.45805 0
M  V30 9576 O 890.39 2.03914 -5.66306 0
M  V30 9577 H 894.216 0.0292298 -3.03686 0
M  V30 9578 H 891.801 -0.0513466 -1.49312 0
M  V30 9579 H 893.683 2.45062 -3.42815 0
M  V30 9580 H 892.358 2.33921 -2.23747 0
M  V30 9581 H 891.265 0.542859 -3.7014 0
M  V30 9582 H 892.598 0.733708 -4.86701 0
M  V30 9583 N 894.251 1.57596 -0.0117121 0
M  V30 9584 C 895.476 1.95764 0.684938 0
M  V30 9585 C 895.901 0.887285 1.65858 0
M  V30 9586 O 895.259 -0.153508 1.80649 0
M  V30 9587 C 895.307 3.33031 1.38285 0
M  V30 9588 O 894.411 3.28163 2.49765 0
M  V30 9589 H 893.752 0.638767 0.181309 0
M  V30 9590 H 896.282 2.04486 -0.0683883 0
M  V30 9591 H 896.292 3.68866 1.74362 0
M  V30 9592 H 894.967 4.10483 0.669043 0
M  V30 9593 H 893.544 3.04021 2.15929 0
M  V30 9594 N 895.729 -0.261212 1.5542 0
M  V30 9595 C 897.145 -0.609012 1.47524 0
M  V30 9596 C 897.345 -1.88986 0.699042 0
M  V30 9597 O 896.401 -2.51517 0.222628 0
M  V30 9598 C 897.714 -0.725025 2.91828 0
M  V30 9599 C 899.262 -0.818302 3.02114 0
M  V30 9600 C 899.737 -0.965996 4.47697 0
M  V30 9601 N 901.228 -1.03123 4.51575 0
M  V30 9602 C 901.963 -1.16451 5.6145 0
M  V30 9603 N 901.459 -1.26425 6.81167 0
M  V30 9604 N 903.252 -1.19655 5.49217 0
M  V30 9605 H 895.403 0.579807 2.04333 0
M  V30 9606 H 897.666 0.198072 0.927077 0
M  V30 9607 H 897.372 0.145871 3.51397 0
M  V30 9608 H 897.246 -1.60156 3.41511 0
M  V30 9609 H 899.633 -1.67966 2.42634 0
M  V30 9610 H 899.714 0.0830895 2.55665 0
M  V30 9611 H 899.358 -0.109251 5.07782 0
M  V30 9612 H 899.288 -1.88221 4.91813 0
M  V30 9613 H 901.779 -0.966072 3.65343 0
M  V30 9614 H 902.092 -1.36462 7.60656 0
M  V30 9615 H 900.437 -1.23408 6.83956 0
M  V30 9616 H 903.628 -1.11501 4.54626 0
M  V30 9617 H 903.801 -1.29698 6.34888 0
M  V30 9618 N 897.207 -1.48554 -0.526253 0
M  V30 9619 C 898.623 -1.34757 -0.855138 0
M  V30 9620 C 898.823 -0.36142 -1.98232 0
M  V30 9621 O 897.879 0.216026 -2.51574 0
M  V30 9622 C 899.192 -2.74877 -1.21915 0
M  V30 9623 C 900.74 -2.83393 -1.32882 0
M  V30 9624 C 901.215 -4.24223 -1.72624 0
M  V30 9625 N 902.706 -4.26913 -1.7972 0
M  V30 9626 C 903.441 -5.32824 -2.11863 0
M  V30 9627 N 902.937 -6.49008 -2.42405 0
M  V30 9628 N 904.73 -5.20221 -2.12901 0
M  V30 9629 H 896.881 -2.11284 0.217422 0
M  V30 9630 H 899.144 -0.947367 0.0346362 0
M  V30 9631 H 898.85 -3.48619 -0.464486 0
M  V30 9632 H 898.724 -3.0864 -2.16844 0
M  V30 9633 H 901.111 -2.09904 -2.07424 0
M  V30 9634 H 901.192 -2.53245 -0.360638 0
M  V30 9635 H 900.836 -4.98229 -0.986411 0
M  V30 9636 H 900.766 -4.51817 -2.70498 0
M  V30 9637 H 903.257 -3.4311 -1.58379 0
M  V30 9638 H 903.57 -7.25561 -2.66048 0
M  V30 9639 H 901.915 -6.52277 -2.39917 0
M  V30 9640 H 905.106 -4.28469 -1.885 0
M  V30 9641 H 905.279 -6.02861 -2.37619 0
M  V30 9642 N 898.685 0.775411 -1.37205 0
M  V30 9643 C 899.962 1.5229 -1.22748 0
M  V30 9644 C 900.342 2.10327 0.180487 0
M  V30 9645 O 899.69 1.95206 1.18772 0
M  V30 9646 C 899.9 2.60671 -2.3206 0
M  V30 9647 C 901.248 3.28173 -2.6942 0
M  V30 9648 O 902.272 2.70963 -2.31208 0
M  V30 9649 O 901.131 4.31598 -3.3524 0
M  V30 9650 H 898.225 0.674326 -0.478762 0
M  V30 9651 H 900.771 0.812691 -1.48975 0
M  V30 9652 H 899.543 2.1588 -3.26361 0
M  V30 9653 H 899.166 3.39296 -2.07277 0
M  V30 9654 N 900.163 1.21714 1.00117 0
M  V30 9655 C 901.388 1.06357 1.78054 0
M  V30 9656 C 901.813 -0.382075 1.84179 0
M  V30 9657 O 901.171 -1.27575 1.28819 0
M  V30 9658 C 901.219 1.66982 3.19608 0
M  V30 9659 O 900.323 0.917892 4.02055 0
M  V30 9660 H 899.664 0.374074 0.548602 0
M  V30 9661 H 902.194 1.61338 1.25822 0
M  V30 9662 H 902.204 1.71363 3.70268 0
M  V30 9663 H 900.879 2.72185 3.14465 0
M  V30 9664 H 899.456 0.949473 3.6061 0
M  V30 9665 N 901.641 -1.19671 1.02551 0
M  V30 9666 C 902.571 -2.25009 0.623965 0
M  V30 9667 C 903.552 -1.66129 -0.36538 0
M  V30 9668 O 904.737 -1.92599 -0.248842 0
M  V30 9669 C 901.867 -3.47287 -0.0294869 0
M  V30 9670 C 900.821 -4.18818 0.881781 0
M  V30 9671 C 900.147 -5.34618 0.0936189 0
M  V30 9672 C 901.447 -4.73986 2.19396 0
M  V30 9673 H 903.141 -2.58851 1.50454 0
M  V30 9674 H 900.687 -1.24425 0.724872 0
M  V30 9675 H 902.64 -4.20168 -0.322016 0
M  V30 9676 H 901.364 -3.12635 -0.944838 0
M  V30 9677 H 900.023 -3.47815 1.15845 0
M  V30 9678 H 899.671 -4.9621 -0.823661 0
M  V30 9679 H 899.371 -5.83409 0.700568 0
M  V30 9680 H 900.895 -6.10297 -0.192249 0
M  V30 9681 H 902.309 -5.38639 1.96319 0
M  V30 9682 H 900.706 -5.3325 2.75254 0
M  V30 9683 H 901.776 -3.92238 2.85092 0
M  V30 9684 N 903.119 -0.802921 -1.35613 0
M  V30 9685 C 904.366 -0.381576 -1.98872 0
M  V30 9686 C 904.694 1.0503 -1.63704 0
M  V30 9687 O 903.949 1.7427 -0.890418 0
M  V30 9688 C 904.248 -0.507806 -3.53774 0
M  V30 9689 C 903.914 -1.90245 -4.088 0
M  V30 9690 C 902.576 -2.28401 -4.2354 0
M  V30 9691 C 904.928 -2.81504 -4.3864 0
M  V30 9692 C 902.256 -3.57192 -4.65436 0
M  V30 9693 C 904.608 -4.09737 -4.81973 0
M  V30 9694 C 903.272 -4.47897 -4.94919 0
M  V30 9695 H 902.542 -0.139629 -0.727726 0
M  V30 9696 H 905.189 -1.023 -1.61886 0
M  V30 9697 H 903.494 0.21708 -3.91198 0
M  V30 9698 H 905.191 -0.162625 -4.0067 0
M  V30 9699 H 901.781 -1.596 -3.97776 0
M  V30 9700 H 905.965 -2.53276 -4.26808 0
M  V30 9701 H 901.221 -3.86611 -4.73648 0
M  V30 9702 H 905.395 -4.80555 -5.04024 0
M  V30 9703 H 903.022 -5.47747 -5.27141 0
M  V30 9704 N 904.597 1.47463 -0.556102 0
M  V30 9705 C 905.843 2.02775 -0.0316806 0
M  V30 9706 C 906.176 1.42967 1.3143 0
M  V30 9707 O 905.451 0.584847 1.85499 0
M  V30 9708 C 905.734 3.60046 0.0625742 0
M  V30 9709 C 905.587 4.30288 -1.31043 0
M  V30 9710 C 906.906 4.33195 0.776553 0
M  V30 9711 H 904.025 0.736886 -0.0129869 0
M  V30 9712 H 906.667 1.75904 -0.718177 0
M  V30 9713 H 904.817 3.83071 0.647231 0
M  V30 9714 H 906.489 4.18607 -1.9382 0
M  V30 9715 H 904.732 3.90685 -1.8854 0
M  V30 9716 H 905.403 5.38861 -1.1972 0
M  V30 9717 H 907.879 4.15156 0.280147 0
M  V30 9718 H 906.755 5.42869 0.81146 0
M  V30 9719 H 907.016 4.02336 1.83244 0
M  V30 9720 N 906.075 0.2925 1.54862 0
M  V30 9721 C 907.486 -0.201841 1.85606 0
M  V30 9722 C 907.837 -1.54093 1.21449 0
M  V30 9723 O 906.962 -2.10327 0.509079 0
M  V30 9724 C 907.557 -0.373011 3.3674 0
M  V30 9725 C 906.116 -0.811574 3.67547 0
M  V30 9726 C 905.263 0.0850583 2.7717 0
M  V30 9727 H 908.214 0.513774 1.50153 0
M  V30 9728 H 908.235 -1.20892 3.60785 0
M  V30 9729 H 907.747 0.601751 3.83407 0
M  V30 9730 H 905.848 -1.79719 3.26392 0
M  V30 9731 H 905.961 -0.636853 4.74848 0
M  V30 9732 H 904.325 -0.434224 2.50971 0
M  V30 9733 H 905.108 1.05602 3.26654 0
M  V30 9734 N 907.553 -1.57587 0.0200696 0
M  V30 9735 C 908.503 -2.0616 -0.973751 0
M  V30 9736 C 909.487 -0.960282 -1.29102 0
M  V30 9737 O 910.679 -1.22391 -1.27865 0
M  V30 9738 C 907.808 -2.58487 -2.25919 0
M  V30 9739 C 906.894 -3.75533 -1.97068 0
M  V30 9740 N 907.285 -4.86482 -1.38451 0
M  V30 9741 C 905.583 -3.83847 -2.27107 0
M  V30 9742 C 906.284 -5.67773 -1.26527 0
M  V30 9743 N 905.26 -5.14398 -1.75772 0
M  V30 9744 H 909.062 -2.89346 -0.515365 0
M  V30 9745 H 906.576 -1.61341 -0.185163 0
M  V30 9746 H 908.573 -2.91572 -2.97979 0
M  V30 9747 H 907.233 -1.76728 -2.72392 0
M  V30 9748 H 908.244 -5.06922 -1.06069 0
M  V30 9749 H 904.921 -3.12978 -2.76316 0
M  V30 9750 H 906.311 -6.66966 -0.812785 0
M  V30 9751 N 909.032 0.252966 -1.55557 0
M  V30 9752 C 910.448 0.60118 -1.47844 0
M  V30 9753 C 910.648 1.88612 -0.709055 0
M  V30 9754 O 909.704 2.51395 -0.235964 0
M  V30 9755 C 911.017 0.709539 -2.92209 0
M  V30 9756 C 912.565 0.802269 -3.02544 0
M  V30 9757 C 913.04 0.94224 -4.48203 0
M  V30 9758 N 914.531 1.00726 -4.52116 0
M  V30 9759 C 915.266 1.13472 -5.6206 0
M  V30 9760 N 914.762 1.22811 -6.81828 0
M  V30 9761 N 916.555 1.1674 -5.49844 0
M  V30 9762 H 908.706 -0.590635 -2.04023 0
M  V30 9763 H 910.969 -0.202986 -0.926013 0
M  V30 9764 H 910.675 -0.164505 -3.51315 0
M  V30 9765 H 910.549 1.58343 -3.42356 0
M  V30 9766 H 912.936 1.66677 -2.43522 0
M  V30 9767 H 913.017 -0.0966469 -2.55617 0
M  V30 9768 H 912.661 0.0823209 -5.07833 0
M  V30 9769 H 912.591 1.85611 -4.92805 0
M  V30 9770 H 915.082 0.946684 -3.6585 0
M  V30 9771 H 915.395 1.32426 -7.61369 0
M  V30 9772 H 913.74 1.19779 -6.84601 0
M  V30 9773 H 916.931 1.09089 -4.55211 0
M  V30 9774 H 917.104 1.26329 -6.35567 0
M  V30 9775 N 910.51 1.48831 0.518367 0
M  V30 9776 C 911.46 1.60614 1.61824 0
M  V30 9777 C 912.444 0.462631 1.54106 0
M  V30 9778 O 913.636 0.714689 1.6193 0
M  V30 9779 C 910.765 1.65984 3.00507 0
M  V30 9780 C 909.851 2.85854 3.13286 0
M  V30 9781 N 910.242 4.1014 2.96005 0
M  V30 9782 C 908.54 2.83429 3.4436 0
M  V30 9783 C 909.241 4.90626 3.12508 0
M  V30 9784 N 908.217 4.2366 3.40607 0
M  V30 9785 H 912.019 2.54443 1.47091 0
M  V30 9786 H 909.533 1.45363 0.724102 0
M  V30 9787 H 911.53 1.72521 3.79529 0
M  V30 9788 H 910.19 0.732792 3.16323 0
M  V30 9789 H 911.201 4.40395 2.72531 0
M  V30 9790 H 907.878 2.0003 3.66462 0
M  V30 9791 H 909.268 5.99302 3.03786 0
M  V30 9792 N 911.988 -0.768124 1.37614 0
M  V30 9793 C 913.236 -1.52379 1.3276 0
M  V30 9794 C 913.557 -1.94809 -0.0863564 0
M  V30 9795 O 912.827 -1.66568 -1.03112 0
M  V30 9796 H 911.407 -0.565179 0.488448 0
M  V30 9797 H 914.069 -0.913974 1.72141 0
M  V30 9798 H 913.165 -2.4215 1.96901 0
M  V30 9799 N 913.466 -1.22244 -0.994698 0
M  V30 9800 C 914.376 -1.00722 -2.11878 0
M  V30 9801 C 915.392 0.043919 -1.73945 0
M  V30 9802 O 916.568 -0.148411 -2.00852 0
M  V30 9803 C 913.633 -0.585723 -3.41717 0
M  V30 9804 C 912.694 -1.71027 -3.93762 0
M  V30 9805 C 911.927 -1.30879 -5.17403 0
M  V30 9806 O 912.15 -0.18681 -5.70094 0
M  V30 9807 O 911.084 -2.1246 -5.63156 0
M  V30 9808 H 914.91 -1.94894 -2.32916 0
M  V30 9809 H 912.495 -1.00822 -1.10251 0
M  V30 9810 H 914.377 -0.360935 -4.19851 0
M  V30 9811 H 913.052 0.327166 -3.22042 0
M  V30 9812 H 911.959 -1.98956 -3.16808 0
M  V30 9813 H 913.292 -2.60096 -4.17865 0
M  V30 9814 N 914.944 1.19125 -1.03184 0
M  V30 9815 C 916.36 1.40909 -0.749447 0
M  V30 9816 C 916.56 1.9022 0.664729 0
M  V30 9817 O 915.616 2.08085 1.43028 0
M  V30 9818 C 916.929 2.41761 -1.78807 0
M  V30 9819 C 918.477 2.55503 -1.80796 0
M  V30 9820 C 918.952 3.59612 -2.83626 0
M  V30 9821 N 920.443 3.6711 -2.82461 0
M  V30 9822 C 921.178 4.47366 -3.5868 0
M  V30 9823 N 920.674 5.31302 -4.44623 0
M  V30 9824 N 922.467 4.42044 -3.47208 0
M  V30 9825 H 914.618 0.854399 -1.94458 0
M  V30 9826 H 916.881 0.437753 -0.840878 0
M  V30 9827 H 916.587 2.12559 -2.80199 0
M  V30 9828 H 916.461 3.40981 -1.61283 0
M  V30 9829 H 918.848 2.84027 -0.800803 0
M  V30 9830 H 918.929 1.56427 -2.02396 0
M  V30 9831 H 918.573 3.3183 -3.84515 0
M  V30 9832 H 918.503 4.58345 -2.59283 0
M  V30 9833 H 920.994 3.07166 -2.2013 0
M  V30 9834 H 921.307 5.89667 -4.99512 0
M  V30 9835 H 919.652 5.30753 -4.48694 0
M  V30 9836 H 922.843 3.75513 -2.79477 0
M  V30 9837 H 923.016 5.0435 -4.06859 0
M  V30 9838 N 916.422 0.810101 1.35185 0
M  V30 9839 C 917.838 0.494269 1.51754 0
M  V30 9840 C 918.038 -0.983907 1.75845 0
M  V30 9841 O 917.094 -1.76882 1.80191 0
M  V30 9842 C 918.407 1.34268 2.69059 0
M  V30 9843 C 919.955 1.33848 2.82938 0
M  V30 9844 C 920.43 2.17109 4.03271 0
M  V30 9845 N 921.921 2.14664 4.10456 0
M  V30 9846 C 922.656 2.75843 5.02691 0
M  V30 9847 N 922.152 3.45962 6.00235 0
M  V30 9848 N 923.945 2.65465 4.95464 0
M  V30 9849 H 916.096 1.76736 1.17805 0
M  V30 9850 H 918.359 0.752429 0.576676 0
M  V30 9851 H 918.065 2.39183 2.57845 0
M  V30 9852 H 917.939 0.998362 3.63748 0
M  V30 9853 H 920.326 0.29716 2.936 0
M  V30 9854 H 920.407 1.72269 1.89095 0
M  V30 9855 H 920.051 3.21283 3.93369 0
M  V30 9856 H 919.981 1.76046 4.96302 0
M  V30 9857 H 922.472 1.63648 3.40628 0
M  V30 9858 H 922.785 3.89922 6.67219 0
M  V30 9859 H 921.13 3.50067 6.00398 0
M  V30 9860 H 924.321 2.1027 4.18215 0
M  V30 9861 H 924.494 3.13433 5.67154 0
M  V30 9862 N 917.9 -1.47166 0.563914 0
M  V30 9863 C 918.848 -2.31798 -0.193009 0
M  V30 9864 C 919.842 -1.43338 -0.902805 0
M  V30 9865 O 921.048 -1.60067 -0.823328 0
M  V30 9866 H 917.423 -0.747613 -0.0811139 0
M  V30 9867 H 919.394 -2.93476 0.539876 0
M  V30 9868 C 918.143 -3.26131 -1.20555 0
M  V30 9869 H 917.466 -3.94166 -0.668803 0
M  V30 9870 H 918.906 -3.88167 -1.70593 0
M  V30 9871 C 917.365 -2.50132 -2.25689 0
M  V30 9872 O 917.895 -2.25064 -3.3273 0
M  V30 9873 N 916.101 -2.11022 -1.99795 0
M  V30 9874 H 915.648 -2.3161 -1.1276 0
M  V30 9875 H 915.606 -1.60489 -2.70353 0
M  V30 9876 N 919.378 -0.300708 -1.54705 0
M  V30 9877 C 920.603 0.314073 -2.05008 0
M  V30 9878 C 921.028 1.46759 -1.17657 0
M  V30 9879 O 920.386 1.80398 -0.180598 0
M  V30 9880 C 920.434 0.748243 -3.52752 0
M  V30 9881 O 919.538 1.85305 -3.68424 0
M  V30 9882 H 918.879 0.0610139 -0.661191 0
M  V30 9883 H 921.409 -0.442467 -1.99758 0
M  V30 9884 H 921.419 1.03713 -3.94598 0
M  V30 9885 H 920.094 -0.095573 -4.1579 0
M  V30 9886 H 918.671 1.56473 -3.38483 0
M  V30 9887 N 920.856 1.57574 -0.0284266 0
M  V30 9888 C 921.804 2.11332 0.971675 0
M  V30 9889 C 922.798 1.03974 1.33738 0
M  V30 9890 O 924.004 1.22409 1.31969 0
M  V30 9891 H 920.379 0.675174 0.331125 0
M  V30 9892 H 922.35 2.943 0.49296 0
M  V30 9893 C 921.099 2.65496 2.24516 0
M  V30 9894 H 920.422 3.47753 1.9725 0
M  V30 9895 H 921.862 3.06757 2.92705 0
M  V30 9896 C 920.321 1.58207 2.97443 0
M  V30 9897 O 920.851 0.981496 3.89525 0
M  V30 9898 N 919.057 1.30269 2.59766 0
M  V30 9899 H 918.604 1.79294 1.84963 0
M  V30 9900 H 918.562 0.587085 3.0887 0
M  V30 9901 N 922.334 -0.244713 1.55689 0
M  V30 9902 C 923.58 -0.973886 1.77886 0
M  V30 9903 C 923.913 -1.8489 0.594071 0
M  V30 9904 O 923.188 -1.90182 -0.407564 0
M  V30 9905 C 923.471 -1.83255 3.09983 0
M  V30 9906 C 923.324 -0.985571 4.3887 0
M  V30 9907 C 924.643 -2.81464 3.38329 0
M  V30 9908 H 921.762 -0.352629 0.647165 0
M  V30 9909 H 924.404 -0.244243 1.88424 0
M  V30 9910 H 922.554 -2.45464 3.01131 0
M  V30 9911 H 924.226 -0.382005 4.59716 0
M  V30 9912 H 922.469 -0.29002 4.32829 0
M  V30 9913 H 923.14 -1.62022 5.27686 0
M  V30 9914 H 925.616 -2.2939 3.47159 0
M  V30 9915 H 924.492 -3.38663 4.31971 0
M  V30 9916 H 924.753 -3.58037 2.59349 0
M  V30 9917 N 923.813 -1.49104 -0.510467 0
M  V30 9918 C 925.038 -1.62068 -1.29417 0
M  V30 9919 C 925.463 -0.288432 -1.85875 0
M  V30 9920 O 924.821 0.742667 -1.65391 0
M  V30 9921 C 924.869 -2.68506 -2.40701 0
M  V30 9922 O 923.973 -2.27021 -3.4429 0
M  V30 9923 H 923.314 -0.542778 -0.382476 0
M  V30 9924 H 925.844 -1.95228 -0.612154 0
M  V30 9925 H 925.854 -2.90383 -2.86604 0
M  V30 9926 H 924.529 -3.65216 -1.98973 0
M  V30 9927 H 923.106 -2.15436 -3.04371 0
M  V30 9928 N 925.291 0.760815 -1.38019 0
M  V30 9929 C 926.223 1.88387 -1.30549 0
M  V30 9930 C 927.236 1.61319 -0.219119 0
M  V30 9931 O 928.425 1.72033 -0.476122 0
M  V30 9932 C 925.525 3.23863 -0.998291 0
M  V30 9933 C 924.698 3.78492 -2.19232 0
M  V30 9934 C 923.757 4.92468 -1.85368 0
M  V30 9935 O 922.783 5.0748 -2.57785 0
M  V30 9936 N 923.985 5.74901 -0.804319 0
M  V30 9937 H 926.75 1.95308 -2.27322 0
M  V30 9938 H 924.311 0.940423 -1.31786 0
M  V30 9939 H 926.303 3.97644 -0.7524 0
M  V30 9940 H 924.873 3.12374 -0.11877 0
M  V30 9941 H 924.093 2.96361 -2.5993 0
M  V30 9942 H 925.381 4.11722 -2.98935 0
M  V30 9943 H 924.779 5.65333 -0.203628 0
M  V30 9944 H 923.336 6.48861 -0.618301 0
M  V30 9945 N 926.769 1.22769 0.988202 0
M  V30 9946 C 927.732 1.00325 2.06076 0
M  V30 9947 C 928.732 -0.0320618 1.60768 0
M  V30 9948 O 929.922 0.206912 1.72967 0
M  V30 9949 C 927.054 0.516376 3.36966 0
M  V30 9950 H 928.247 1.95499 2.27421 0
M  V30 9951 H 925.8 1.04704 1.16047 0
M  V30 9952 H 926.535 -0.439498 3.21308 0
M  V30 9953 H 926.32 1.26337 3.71189 0
M  V30 9954 H 927.81 0.37974 4.1587 0
M  V30 9955 N 928.247 -1.18576 1.03814 0
M  V30 9956 C 929.472 -1.92978 0.759873 0
M  V30 9957 C 929.897 -1.75514 -0.676486 0
M  V30 9958 O 929.255 -1.06359 -1.46824 0
M  V30 9959 C 929.303 -3.42507 1.12788 0
M  V30 9960 O 928.407 -4.1163 0.251886 0
M  V30 9961 H 927.748 -0.602129 0.279886 0
M  V30 9962 H 930.278 -1.50383 1.3873 0
M  V30 9963 H 930.288 -3.93206 1.08872 0
M  V30 9964 H 928.963 -3.5454 2.17427 0
M  V30 9965 H 927.54 -3.7125 0.350441 0
M  V30 9966 N 929.725 -0.817259 -1.34754 0
M  V30 9967 C 930.658 -0.180483 -2.27485 0
M  V30 9968 C 931.636 0.659792 -1.48612 0
M  V30 9969 O 932.82 0.624761 -1.77845 0
M  V30 9970 C 929.947 0.748487 -3.30326 0
M  V30 9971 C 928.993 -0.0135304 -4.26498 0
M  V30 9972 S 929.826 -1.35685 -5.18025 0
M  V30 9973 C 930.982 -0.432605 -6.24403 0
M  V30 9974 H 931.215 -0.966677 -2.81145 0
M  V30 9975 H 928.748 -0.612864 -1.41716 0
M  V30 9976 H 930.706 1.27893 -3.90069 0
M  V30 9977 H 929.367 1.50816 -2.75524 0
M  V30 9978 H 928.56 0.692454 -4.9922 0
M  V30 9979 H 928.162 -0.474344 -3.7098 0
M  V30 9980 H 930.454 0.378035 -6.76444 0
M  V30 9981 H 931.397 -1.12934 -6.99036 0
M  V30 9982 H 931.805 -0.0235533 -5.64495 0
M  V30 9983 N 931.203 1.46865 -0.571711 0
M  V30 9984 C 932.428 2.07323 -0.0564655 0
M  V30 9985 C 932.853 1.41938 1.23431 0
M  V30 9986 O 932.211 0.499334 1.74288 0
M  V30 9987 C 932.259 3.6044 0.107339 0
M  V30 9988 O 931.363 3.95558 1.1665 0
M  V30 9989 H 930.704 0.661475 -0.0578465 0
M  V30 9990 H 933.234 1.88669 -0.791524 0
M  V30 9991 H 933.244 4.06767 0.316987 0
M  V30 9992 H 931.919 4.07425 -0.835348 0
M  V30 9993 H 930.496 3.60957 0.936189 0
M  V30 9994 N 932.681 0.308908 1.54543 0
M  V30 9995 C 933.906 -0.303196 2.05172 0
M  V30 9996 C 934.331 -1.46133 1.18434 0
M  V30 9997 O 933.689 -1.803 0.190162 0
M  V30 9998 C 933.737 -0.729526 3.53143 0
M  V30 9999 O 932.841 -1.83348 3.69401 0
M  V30 10000 H 932.182 -0.0575066 0.661505 0
M  V30 10001 H 934.712 0.453055 1.99521 0
M  V30 10002 H 934.722 -1.01619 3.95143 0
M  V30 10003 H 933.397 0.117622 4.15734 0
M  V30 10004 H 931.974 -1.54676 3.39308 0
M  V30 10005 N 934.159 -1.57557 0.0367827 0
M  V30 10006 C 935.575 -1.56366 -0.31967 0
M  V30 10007 C 935.775 -1.04313 -1.72398 0
M  V30 10008 O 934.831 -0.693278 -2.42796 0
M  V30 10009 C 936.144 -3.00267 -0.161274 0
M  V30 10010 C 937.692 -3.12128 -0.233464 0
M  V30 10011 C 938.167 -4.57882 -0.103767 0
M  V30 10012 N 939.658 -4.62922 -0.160506 0
M  V30 10013 C 940.393 -5.73338 -0.0840493 0
M  V30 10014 N 939.889 -6.92786 0.043933 0
M  V30 10015 N 941.682 -5.61929 -0.138592 0
M  V30 10016 H 933.833 -1.8972 0.954996 0
M  V30 10017 H 936.096 -0.87304 0.369467 0
M  V30 10018 H 935.802 -3.42331 0.80639 0
M  V30 10019 H 935.676 -3.65599 -0.928304 0
M  V30 10020 H 938.063 -2.69972 -1.19159 0
M  V30 10021 H 938.144 -2.49503 0.564075 0
M  V30 10022 H 937.788 -5.0072 0.850973 0
M  V30 10023 H 937.718 -5.18496 -0.920268 0
M  V30 10024 H 940.209 -3.7701 -0.259257 0
M  V30 10025 H 940.522 -7.72741 0.095372 0
M  V30 10026 H 938.867 -6.94955 0.0788211 0
M  V30 10027 H 942.058 -4.67499 -0.237031 0
M  V30 10028 H 942.231 -6.47956 -0.075546 0
M  V30 10029 N 935.637 0.236453 -1.55816 0
M  V30 10030 C 936.57 1.3196 -1.86177 0
M  V30 10031 C 937.548 1.459 -0.717769 0
M  V30 10032 O 938.732 1.61949 -0.964606 0
M  V30 10033 C 935.859 2.69183 -2.05568 0
M  V30 10034 C 934.905 2.72338 -3.28229 0
M  V30 10035 S 935.738 2.27898 -4.84585 0
M  V30 10036 C 936.894 3.67025 -5.06994 0
M  V30 10037 H 937.127 1.06011 -2.77757 0
M  V30 10038 H 934.66 0.437961 -1.48058 0
M  V30 10039 H 936.618 3.48191 -2.17423 0
M  V30 10040 H 935.279 2.92365 -1.14811 0
M  V30 10041 H 934.472 3.7314 -3.38795 0
M  V30 10042 H 934.074 2.01382 -3.15153 0
M  V30 10043 H 936.366 4.62604 -4.94979 0
M  V30 10044 H 937.309 3.61385 -6.08939 0
M  V30 10045 H 937.717 3.60022 -4.34792 0
M  V30 10046 N 937.115 1.49373 0.502552 0
M  V30 10047 C 938.361 1.59016 1.25864 0
M  V30 10048 C 938.694 0.27532 1.92238 0
M  V30 10049 O 937.969 -0.720988 1.80643 0
M  V30 10050 C 938.252 2.74828 2.32683 0
M  V30 10051 C 938.105 4.16102 1.7082 0
M  V30 10052 C 939.424 2.86288 3.34256 0
M  V30 10053 H 936.543 0.578798 0.456248 0
M  V30 10054 H 939.185 1.81651 0.557032 0
M  V30 10055 H 937.335 2.5566 2.92524 0
M  V30 10056 H 939.007 4.46782 1.14818 0
M  V30 10057 H 937.25 4.21822 1.01238 0
M  V30 10058 H 937.921 4.93006 2.48292 0
M  V30 10059 H 940.397 3.03733 2.84404 0
M  V30 10060 H 939.273 3.69001 4.06362 0
M  V30 10061 H 939.534 1.95576 3.96488 0
M  V30 10062 N 938.594 -0.753485 1.38421 0
M  V30 10063 C 940.005 -1.33081 1.30944 0
M  V30 10064 C 940.356 -1.96169 -0.0347124 0
M  V30 10065 O 939.481 -1.95073 -0.936768 0
M  V30 10066 C 940.076 -2.41973 2.37138 0
M  V30 10067 C 938.635 -2.95426 2.33239 0
M  V30 10068 C 937.782 -1.68808 2.19998 0
M  V30 10069 H 940.733 -0.552354 1.48777 0
M  V30 10070 H 940.754 -3.21913 2.02859 0
M  V30 10071 H 940.266 -1.96027 3.34956 0
M  V30 10072 H 938.367 -3.45701 1.39003 0
M  V30 10073 H 938.48 -3.49798 3.27381 0
M  V30 10074 H 936.844 -1.92438 1.66852 0
M  V30 10075 H 937.627 -1.24939 3.19758 0
M  V30 10076 N 940.072 -1.23292 -0.981677 0
M  V30 10077 C 941.32 -1.06214 -1.71939 0
M  V30 10078 C 941.641 0.401989 -1.90812 0
M  V30 10079 O 940.911 1.28825 -1.47584 0
M  V30 10080 H 939.491 -0.390042 -0.637084 0
M  V30 10081 H 942.153 -1.54988 -1.18173 0
M  V30 10082 H 941.249 -1.54904 -2.70945 0
M  V30 10083 N 941.55 1.18024 -1.04442 0
M  V30 10084 C 942.48 2.23988 -0.659683 0
M  V30 10085 C 943.461 1.6669 0.338904 0
M  V30 10086 O 944.646 1.92971 0.21817 0
M  V30 10087 C 941.776 3.4729 -0.0257672 0
M  V30 10088 C 940.73 4.17362 -0.948299 0
M  V30 10089 C 940.056 5.34401 -0.17866 0
M  V30 10090 C 941.356 4.70435 -2.26909 0
M  V30 10091 H 943.05 2.56425 -1.54553 0
M  V30 10092 H 940.596 1.23256 -0.744575 0
M  V30 10093 H 942.549 4.20627 0.255131 0
M  V30 10094 H 941.273 3.14098 0.894981 0
M  V30 10095 H 939.932 3.45928 -1.21364 0
M  V30 10096 H 939.58 4.97458 0.744614 0
M  V30 10097 H 939.28 5.8222 -0.793294 0
M  V30 10098 H 940.804 6.10526 0.0951315 0
M  V30 10099 H 942.218 5.35447 -2.04864 0
M  V30 10100 H 940.615 5.28803 -2.83703 0
M  V30 10101 H 941.685 3.87653 -2.91296 0
M  V30 10102 N 943.028 0.824394 1.34319 0
M  V30 10103 C 944.439 0.471802 1.8064 0
M  V30 10104 C 944.79 -1.00793 1.6833 0
M  V30 10105 O 943.915 -1.78447 1.22416 0
M  V30 10106 C 944.51 0.849609 3.27974 0
M  V30 10107 C 943.069 0.549365 3.72369 0
M  V30 10108 C 942.216 1.06573 2.56003 0
M  V30 10109 H 945.167 1.01443 1.22045 0
M  V30 10110 H 945.188 0.153968 3.80188 0
M  V30 10111 H 944.7 1.92663 3.36902 0
M  V30 10112 H 942.801 -0.518182 3.68979 0
M  V30 10113 H 942.914 1.09446 4.66432 0
M  V30 10114 H 941.278 0.487214 2.49997 0
M  V30 10115 H 942.061 2.14923 2.677 0
M  V30 10116 N 944.506 -1.46559 0.579492 0
M  V30 10117 C 945.469 -2.28739 -0.145371 0
M  V30 10118 C 946.469 -1.38211 -0.821854 0
M  V30 10119 O 947.659 -1.6062 -0.674302 0
M  V30 10120 C 944.791 -3.18507 -1.21515 0
M  V30 10121 H 945.984 -2.94301 0.576786 0
M  V30 10122 H 943.537 -1.52616 0.337327 0
M  V30 10123 H 944.272 -2.57685 -1.96899 0
M  V30 10124 H 944.057 -3.85157 -0.734616 0
M  V30 10125 H 945.547 -3.80369 -1.72363 0
M  V30 10126 N 945.984 -0.3171 -1.54377 0
M  V30 10127 C 946.932 0.567371 -2.25574 0
M  V30 10128 C 947.926 1.12387 -1.2675 0
M  V30 10129 O 949.132 1.07266 -1.44548 0
M  V30 10130 H 945.507 0.201605 -0.724472 0
M  V30 10131 H 947.478 -0.0554644 -2.98348 0
M  V30 10132 C 946.227 1.71984 -3.02187 0
M  V30 10133 H 945.55 1.30086 -3.78044 0
M  V30 10134 H 946.99 2.31443 -3.5526 0
M  V30 10135 C 945.449 2.6336 -2.10103 0
M  V30 10136 O 945.979 3.64899 -1.67962 0
M  V30 10137 N 944.185 2.3145 -1.75725 0
M  V30 10138 H 943.732 1.48921 -2.10191 0
M  V30 10139 H 943.69 2.92852 -1.14391 0
M  V30 10140 N 947.462 1.57535 -0.0451378 0
M  V30 10141 C 948.71 1.92071 0.628743 0
M  V30 10142 C 949.031 0.923635 1.71738 0
M  V30 10143 O 948.301 -0.0324376 1.95873 0
M  V30 10144 H 946.881 0.708995 0.235233 0
M  V30 10145 H 949.543 1.9466 -0.0967177 0
M  V30 10146 H 948.639 2.9314 1.07123 0
M  V30 10147 N 948.94 -0.228186 1.55939 0
M  V30 10148 C 949.887 -1.28274 1.91871 0
M  V30 10149 C 950.857 -1.46906 0.775103 0
M  V30 10150 O 952.042 -1.60583 1.03042 0
M  V30 10151 C 949.182 -2.62945 2.23504 0
M  V30 10152 C 948.295 -2.52166 3.50766 0
M  V30 10153 C 947.43 -3.79316 3.71878 0
M  V30 10154 C 946.469 -3.63231 4.92676 0
M  V30 10155 N 945.606 -4.82315 5.10212 0
M  V30 10156 H 950.446 -0.96931 2.81795 0
M  V30 10157 H 947.983 -0.467331 1.39479 0
M  V30 10158 H 949.941 -3.41359 2.39854 0
M  V30 10159 H 948.571 -2.92397 1.36762 0
M  V30 10160 H 947.623 -1.65221 3.42646 0
M  V30 10161 H 948.935 -2.36199 4.39331 0
M  V30 10162 H 948.089 -4.66173 3.88288 0
M  V30 10163 H 946.828 -3.982 2.81581 0
M  V30 10164 H 945.833 -2.74757 4.76223 0
M  V30 10165 H 947.058 -3.45823 5.84451 0
M  V30 10166 H 945.004 -5.01526 4.22856 0
M  V30 10167 H 944.921 -4.6905 5.92898 0
M  V30 10168 H 946.189 -5.70618 5.31051 0
M  V30 10169 N 950.418 -1.49637 -0.494624 0
M  V30 10170 C 951.351 -1.61387 -1.61337 0
M  V30 10171 C 952.329 -0.462704 -1.55878 0
M  V30 10172 O 953.513 -0.679103 -1.75842 0
M  V30 10173 C 950.64 -1.57471 -2.99867 0
M  V30 10174 C 949.686 -2.77863 -3.23565 0
M  V30 10175 S 950.519 -4.3946 -3.05999 0
M  V30 10176 C 951.675 -4.382 -4.46914 0
M  V30 10177 H 951.908 -2.56024 -1.51126 0
M  V30 10178 H 949.441 -1.38607 -0.680253 0
M  V30 10179 H 951.399 -1.55898 -3.79745 0
M  V30 10180 H 950.06 -0.641107 -3.07488 0
M  V30 10181 H 949.253 -2.71361 -4.24711 0
M  V30 10182 H 948.855 -2.76882 -2.51421 0
M  V30 10183 H 951.147 -4.10312 -5.3912 0
M  V30 10184 H 952.09 -5.39645 -4.58464 0
M  V30 10185 H 952.498 -3.68197 -4.27891 0
M  V30 10186 N 951.896 0.746133 -1.38819 0
M  V30 10187 C 952.846 1.85085 -1.33145 0
M  V30 10188 C 953.83 1.59466 -0.214339 0
M  V30 10189 O 955.022 1.71159 -0.450943 0
M  V30 10190 C 952.151 3.22884 -1.16623 0
M  V30 10191 C 951.237 3.54369 -2.32988 0
M  V30 10192 N 951.628 3.56863 -3.58445 0
M  V30 10193 C 949.926 3.84674 -2.25703 0
M  V30 10194 C 950.627 3.85827 -4.3533 0
M  V30 10195 N 949.603 4.03037 -3.64777 0
M  V30 10196 H 953.405 1.85301 -2.28124 0
M  V30 10197 H 950.919 0.943847 -1.32156 0
M  V30 10198 H 952.916 4.0195 -1.10642 0
M  V30 10199 H 951.576 3.23914 -0.225841 0
M  V30 10200 H 952.587 3.38443 -3.92017 0
M  V30 10201 H 949.264 3.93375 -1.39864 0
M  V30 10202 H 950.654 3.94317 -5.44025 0
M  V30 10203 N 953.375 1.23811 0.975125 0
M  V30 10204 C 954.6 1.10109 1.75757 0
M  V30 10205 C 955.025 -0.342922 1.84948 0
M  V30 10206 O 954.383 -1.24814 1.31496 0
M  V30 10207 C 954.431 1.73724 3.15994 0
M  V30 10208 O 953.535 1.00297 4.00018 0
M  V30 10209 H 952.876 0.385627 0.540544 0
M  V30 10210 H 955.406 1.63971 1.22372 0
M  V30 10211 H 955.416 1.79178 3.6655 0
M  V30 10212 H 954.091 2.78794 3.0862 0
M  V30 10213 H 952.668 1.02575 3.58515 0
M  V30 10214 N 954.853 -1.17469 1.05066 0
M  V30 10215 C 956.081 -1.9162 0.780334 0
M  V30 10216 C 956.496 -1.76745 -0.663817 0
M  V30 10217 O 955.853 -1.10377 -1.45338 0
M  V30 10218 C 955.904 -3.42723 1.14992 0
M  V30 10219 O 955.625 -3.57139 2.53739 0
M  V30 10220 C 957.126 -4.33952 0.905549 0
M  V30 10221 H 954.346 -0.608022 0.283814 0
M  V30 10222 H 956.89 -1.4897 1.401 0
M  V30 10223 H 955.045 -3.83124 0.57403 0
M  V30 10224 H 955.459 -4.5075 2.68189 0
M  V30 10225 H 956.933 -5.38487 1.21391 0
M  V30 10226 H 957.41 -4.38911 -0.159295 0
M  V30 10227 H 958.016 -3.99263 1.46522 0
M  V30 10228 N 956.331 -0.831506 -1.3388 0
M  V30 10229 C 957.577 -0.424302 -1.98312 0
M  V30 10230 C 957.91 1.01211 -1.65741 0
M  V30 10231 O 957.185 1.70636 -0.933464 0
M  V30 10232 C 957.468 -0.636815 -3.54424 0
M  V30 10233 C 957.321 -2.11997 -3.96708 0
M  V30 10234 C 958.64 -0.0782411 -4.4003 0
M  V30 10235 H 955.759 -0.155637 -0.720379 0
M  V30 10236 H 958.401 -1.04566 -1.58638 0
M  V30 10237 H 956.551 -0.107907 -3.8835 0
M  V30 10238 H 958.223 -2.71317 -3.73075 0
M  V30 10239 H 956.466 -2.60723 -3.46707 0
M  V30 10240 H 957.137 -2.21944 -5.05416 0
M  V30 10241 H 959.613 -0.530243 -4.12708 0
M  V30 10242 H 958.489 -0.256676 -5.483 0
M  V30 10243 H 958.75 1.01745 -4.30233 0
M  V30 10244 N 957.809 1.4625 -0.587256 0
M  V30 10245 C 959.086 1.95599 -0.00750181 0
M  V30 10246 C 959.466 1.52989 1.45457 0
M  V30 10247 O 958.814 0.782731 2.14676 0
M  V30 10248 C 959.024 3.48513 -0.184309 0
M  V30 10249 C 960.372 4.24565 -0.0544972 0
M  V30 10250 O 961.396 3.5602 -0.113378 0
M  V30 10251 O 960.255 5.46445 0.0774075 0
M  V30 10252 H 957.349 0.825649 0.0472495 0
M  V30 10253 H 959.895 1.56512 -0.655893 0
M  V30 10254 H 958.667 3.72428 -1.20053 0
M  V30 10255 H 958.29 3.9444 0.500301 0
M  V30 10256 N 959.287 0.325282 1.54207 0
M  V30 10257 C 960.527 -0.277347 2.0251 0
M  V30 10258 C 960.891 -1.49211 1.20831 0
M  V30 10259 O 962.092 -2.16771 1.58945 0
M  V30 10260 C 960.363 -0.601517 3.52302 0
M  V30 10261 S 961.922 -1.18356 4.22537 0
M  V30 10262 H 958.74 -0.08378 0.706047 0
M  V30 10263 H 961.342 0.458804 1.9004 0
M  V30 10264 H 960.046 0.290696 4.09369 0
M  V30 10265 H 959.577 -1.36782 3.68855 0
M  V30 10266 H 961.592 -2.47029 4.30338 0
M  V30 10267 N 960.765 -1.57509 0.0534917 0
M  V30 10268 C 961.713 -2.12851 -0.937931 0
M  V30 10269 C 962.707 -1.06088 -1.32067 0
M  V30 10270 O 963.913 -1.24494 -1.30005 0
M  V30 10271 H 960.288 -0.680357 -0.320342 0
M  V30 10272 H 962.259 -2.95047 -0.446077 0
M  V30 10273 C 961.008 -2.69034 -2.20264 0
M  V30 10274 H 960.331 -3.50848 -1.91693 0
M  V30 10275 H 961.771 -3.11375 -2.87788 0
M  V30 10276 C 960.23 -1.62919 -2.94888 0
M  V30 10277 O 960.76 -1.04334 -3.87914 0
M  V30 10278 N 958.966 -1.34385 -2.57661 0
M  V30 10279 H 958.513 -1.82214 -1.82088 0
M  V30 10280 H 958.471 -0.636149 -3.07897 0
M  V30 10281 N 962.243 0.219913 -1.56058 0
M  V30 10282 C 963.491 0.942199 -1.78793 0
M  V30 10283 C 963.812 1.84804 -0.622284 0
M  V30 10284 O 963.082 1.9255 0.360735 0
M  V30 10285 H 961.662 0.350895 -0.659455 0
M  V30 10286 H 964.324 0.231376 -1.93522 0
M  V30 10287 H 963.42 1.54804 -2.71002 0
M  V30 10288 N 963.721 1.49897 0.486681 0
M  V30 10289 C 964.967 1.60342 1.2417 0
M  V30 10290 C 965.3 0.295694 1.91936 0
M  V30 10291 O 964.575 -0.701788 1.81398 0
M  V30 10292 C 964.858 2.77281 2.29755 0
M  V30 10293 C 964.711 4.1789 1.66397 0
M  V30 10294 C 966.03 2.89817 3.31201 0
M  V30 10295 H 963.149 0.583605 0.450083 0
M  V30 10296 H 965.791 1.82232 0.537734 0
M  V30 10297 H 963.941 2.58748 2.89796 0
M  V30 10298 H 965.613 4.47975 1.10073 0
M  V30 10299 H 963.856 4.22872 0.967579 0
M  V30 10300 H 964.527 4.95612 2.43049 0
M  V30 10301 H 967.003 3.06732 2.81167 0
M  V30 10302 H 965.879 3.7329 4.02425 0
M  V30 10303 H 966.14 1.9977 3.94391 0
M  V30 10304 N 965.199 -0.738761 1.39212 0
M  V30 10305 C 966.445 -1.50046 1.36433 0
M  V30 10306 C 966.778 -1.94157 -0.0409474 0
M  V30 10307 O 966.053 -1.66515 -1.00514 0
M  V30 10308 C 966.336 -2.74277 2.33333 0
M  V30 10309 C 966.189 -2.36209 3.82786 0
M  V30 10310 C 967.508 -3.76361 2.28123 0
M  V30 10311 H 964.627 -0.544294 0.496903 0
M  V30 10312 H 967.269 -0.845005 1.70175 0
M  V30 10313 H 965.419 -3.30204 2.04689 0
M  V30 10314 H 967.091 -1.85942 4.22165 0
M  V30 10315 H 965.334 -1.68483 3.99745 0
M  V30 10316 H 966.005 -3.25156 4.46069 0
M  V30 10317 H 968.481 -3.30009 2.53443 0
M  V30 10318 H 967.357 -4.60957 2.9801 0
M  V30 10319 H 967.618 -4.23013 1.28499 0
M  V30 10320 N 966.677 -1.24326 -0.968545 0
M  V30 10321 C 967.902 -1.1104 -1.75171 0
M  V30 10322 C 968.327 0.333109 -1.85127 0
M  V30 10323 O 967.685 1.24115 -1.32156 0
M  V30 10324 C 967.733 -1.75397 -3.15068 0
M  V30 10325 O 966.837 -1.02417 -3.9948 0
M  V30 10326 H 966.178 -0.388488 -0.538491 0
M  V30 10327 H 968.708 -1.64617 -1.215 0
M  V30 10328 H 968.718 -1.8112 -3.65595 0
M  V30 10329 H 967.393 -2.80427 -3.07138 0
M  V30 10330 H 965.97 -1.04475 -3.57966 0
M  V30 10331 N 968.156 1.1691 -1.05688 0
M  V30 10332 C 969.086 2.23275 -0.683402 0
M  V30 10333 C 970.067 1.6704 0.321206 0
M  V30 10334 O 971.252 1.93191 0.197691 0
M  V30 10335 C 968.382 3.47244 -0.0626006 0
M  V30 10336 C 967.336 4.16333 -0.992513 0
M  V30 10337 C 966.662 5.34182 -0.23533 0
M  V30 10338 C 967.962 4.68002 -2.31886 0
M  V30 10339 H 969.656 2.54771 -1.57264 0
M  V30 10340 H 967.202 1.2246 -0.757606 0
M  V30 10341 H 969.155 4.20874 0.210503 0
M  V30 10342 H 967.879 3.1503 0.861616 0
M  V30 10343 H 966.538 3.44622 -1.25026 0
M  V30 10344 H 966.186 4.9822 0.69181 0
M  V30 10345 H 965.886 5.81346 -0.855002 0
M  V30 10346 H 967.41 6.10592 0.0303717 0
M  V30 10347 H 968.824 5.33244 -2.10531 0
M  V30 10348 H 967.221 5.25764 -2.89296 0
M  V30 10349 H 968.291 3.84541 -2.95391 0
M  V30 10350 N 969.634 0.838594 1.33437 0
M  V30 10351 C 970.88 0.434813 1.98084 0
M  V30 10352 C 971.213 -1.00331 1.66275 0
M  V30 10353 O 970.488 -1.70139 0.942501 0
M  V30 10354 C 970.771 0.655602 3.54082 0
M  V30 10355 C 970.624 2.14097 3.95578 0
M  V30 10356 C 971.943 0.101576 4.39983 0
M  V30 10357 H 969.062 0.159456 0.719544 0
M  V30 10358 H 971.704 1.05406 1.58081 0
M  V30 10359 H 969.854 0.128501 3.88287 0
M  V30 10360 H 971.526 2.73292 3.71631 0
M  V30 10361 H 969.769 2.62558 3.4532 0
M  V30 10362 H 970.44 2.24621 5.04231 0
M  V30 10363 H 972.916 0.552122 4.12421 0
M  V30 10364 H 971.792 0.28575 5.48156 0
M  V30 10365 H 972.053 -0.994616 4.30767 0
M  V30 10366 N 971.112 -1.45937 0.595003 0
M  V30 10367 C 972.36 -2.01921 0.0851368 0
M  V30 10368 C 972.681 -1.46748 -1.28413 0
M  V30 10369 O 971.951 -0.656873 -1.84559 0
M  V30 10370 H 970.531 -0.746457 0.0284826 0
M  V30 10371 H 973.193 -1.78891 0.773561 0
M  V30 10372 H 972.289 -3.1209 0.0254002 0
M  V30 10373 N 972.59 -0.333456 -1.54032 0
M  V30 10374 C 973.838 0.265608 -2.00347 0
M  V30 10375 C 974.159 1.51873 -1.2231 0
M  V30 10376 O 973.429 1.93142 -0.327549 0
M  V30 10377 H 972.009 0.101135 -0.740122 0
M  V30 10378 H 974.671 -0.452285 -1.8958 0
M  V30 10379 H 973.767 0.51511 -3.0782 0
M  V30 10380 N 974.068 1.57479 -0.061844 0
M  V30 10381 C 975.479 1.80627 0.472295 0
M  V30 10382 C 975.83 0.97496 1.70261 0
M  V30 10383 O 974.955 0.1946 2.15523 0
M  V30 10384 C 975.55 3.27608 0.863616 0
M  V30 10385 C 974.109 3.51638 1.34267 0
M  V30 10386 C 973.256 2.75412 0.323009 0
M  V30 10387 H 976.207 1.56072 -0.287634 0
M  V30 10388 H 976.228 3.39113 1.72577 0
M  V30 10389 H 975.74 3.88087 -0.0320226 0
M  V30 10390 H 973.841 2.96452 2.25714 0
M  V30 10391 H 973.954 4.60342 1.32747 0
M  V30 10392 H 972.318 2.4187 0.798175 0
M  V30 10393 H 973.101 3.38623 -0.564729 0
M  V30 10394 N 975.546 -0.211634 1.56173 0
M  V30 10395 C 976.771 -0.955324 1.84088 0
M  V30 10396 C 977.196 -1.76754 0.643407 0
M  V30 10397 O 976.554 -1.76653 -0.407842 0
M  V30 10398 C 976.602 -1.84063 3.10085 0
M  V30 10399 O 975.706 -2.9373 2.89476 0
M  V30 10400 H 975.047 -0.26996 0.606645 0
M  V30 10401 H 977.577 -0.221947 2.03393 0
M  V30 10402 H 977.587 -2.24852 3.40449 0
M  V30 10403 H 976.262 -1.24373 3.96868 0
M  V30 10404 H 974.839 -2.56816 2.7037 0
M  V30 10405 N 977.024 -1.50153 -0.478725 0
M  V30 10406 C 977.987 -1.67916 -1.56003 0
M  V30 10407 C 978.987 -0.550111 -1.51097 0
M  V30 10408 O 980.177 -0.817001 -1.53853 0
M  V30 10409 C 977.309 -1.6973 -2.95643 0
M  V30 10410 H 978.502 -2.6438 -1.41573 0
M  V30 10411 H 976.055 -1.39519 -0.704565 0
M  V30 10412 H 976.79 -0.749306 -3.15525 0
M  V30 10413 H 976.575 -2.51745 -3.00611 0
M  V30 10414 H 978.065 -1.85453 -3.74162 0
M  V30 10415 N 978.502 0.731368 -1.39602 0
M  V30 10416 C 979.432 1.85855 -1.41351 0
M  V30 10417 C 980.413 1.67839 -0.2764 0
M  V30 10418 O 981.598 1.88104 -0.482747 0
M  V30 10419 C 978.728 3.23644 -1.25983 0
M  V30 10420 C 977.682 3.56304 -2.37132 0
M  V30 10421 C 977.008 4.93069 -2.0685 0
M  V30 10422 C 978.308 3.58906 -3.79452 0
M  V30 10423 H 980.002 1.84648 -2.3568 0
M  V30 10424 H 977.548 0.886955 -1.13442 0
M  V30 10425 H 979.501 4.02176 -1.25826 0
M  V30 10426 H 978.225 3.25387 -0.281234 0
M  V30 10427 H 976.884 2.80104 -2.36511 0
M  V30 10428 H 976.532 4.91396 -1.0742 0
M  V30 10429 H 976.232 5.15888 -2.81306 0
M  V30 10430 H 977.756 5.73953 -2.0835 0
M  V30 10431 H 979.17 4.27508 -3.81982 0
M  V30 10432 H 977.567 3.93246 -4.53297 0
M  V30 10433 H 978.637 2.58631 -4.10168 0
M  V30 10434 N 979.98 1.24838 0.961938 0
M  V30 10435 C 981.208 1.11871 1.74047 0
M  V30 10436 C 981.623 -0.328209 1.85925 0
M  V30 10437 O 980.98 -1.22616 1.35173 0
M  V30 10438 C 981.031 1.75931 3.15801 0
M  V30 10439 O 980.752 3.14967 3.04512 0
M  V30 10440 C 982.253 1.68649 4.09966 0
M  V30 10441 H 979.473 0.390569 0.545616 0
M  V30 10442 H 982.017 1.65058 1.20732 0
M  V30 10443 H 980.172 1.26733 3.66084 0
M  V30 10444 H 980.586 3.46349 3.93882 0
M  V30 10445 H 982.06 2.18144 5.07067 0
M  V30 10446 H 982.537 0.648831 4.34381 0
M  V30 10447 H 983.143 2.17301 3.65596 0
M  V30 10448 N 981.458 -1.16348 1.06306 0
M  V30 10449 C 982.683 -1.91323 0.800636 0
M  V30 10450 C 983.108 -1.7691 -0.639105 0
M  V30 10451 O 982.466 -1.0945 -1.44535 0
M  V30 10452 C 982.514 -3.40038 1.20027 0
M  V30 10453 O 981.618 -4.11003 0.339142 0
M  V30 10454 H 980.959 -0.596057 0.292595 0
M  V30 10455 H 983.489 -1.47406 1.41889 0
M  V30 10456 H 983.499 -3.90808 1.17188 0
M  V30 10457 H 982.174 -3.49848 2.24898 0
M  V30 10458 H 980.751 -3.70423 0.42911 0
M  V30 10459 N 982.937 -0.845659 -1.3299 0
M  V30 10460 C 984.348 -0.50048 -1.79867 0
M  V30 10461 C 984.699 0.981027 -1.69913 0
M  V30 10462 O 983.824 1.76477 -1.25239 0
M  V30 10463 C 984.419 -0.901679 -3.26581 0
M  V30 10464 C 982.978 -0.608536 -3.71448 0
M  V30 10465 C 982.125 -1.10632 -2.54275 0
M  V30 10466 H 985.076 -1.03372 -1.20416 0
M  V30 10467 H 985.097 -0.214433 -3.79895 0
M  V30 10468 H 984.609 -1.97998 -3.33794 0
M  V30 10469 H 982.71 0.459416 -3.69757 0
M  V30 10470 H 982.823 -1.16853 -4.64631 0
M  V30 10471 H 981.187 -0.526925 -2.4919 0
M  V30 10472 H 981.97 -2.19154 -2.64247 0
M  V30 10473 N 984.415 1.45619 -0.602734 0
M  V30 10474 C 985.643 2.06647 -0.102253 0
M  V30 10475 C 986.058 1.4482 1.21131 0
M  V30 10476 O 985.415 0.560621 1.73676 0
M  V30 10477 C 985.466 3.61467 0.0490113 0
M  V30 10478 O 985.187 4.20985 -1.21257 0
M  V30 10479 C 986.688 4.39469 0.581517 0
M  V30 10480 H 983.908 0.667685 -0.0666155 0
M  V30 10481 H 986.452 1.86939 -0.829091 0
M  V30 10482 H 984.607 3.80534 0.726153 0
M  V30 10483 H 985.021 5.14103 -1.03915 0
M  V30 10484 H 986.495 5.48318 0.636462 0
M  V30 10485 H 986.972 4.0891 1.60277 0
M  V30 10486 H 987.578 4.25256 -0.061419 0
M  V30 10487 N 985.893 0.34162 1.53853 0
M  V30 10488 C 987.141 -0.254979 2.00485 0
M  V30 10489 C 987.462 -1.51222 1.23114 0
M  V30 10490 O 986.732 -1.92966 0.337787 0
M  V30 10491 H 985.312 -0.0972084 0.740648 0
M  V30 10492 H 987.974 0.462332 1.89337 0
M  V30 10493 H 987.07 -0.498778 3.08089 0
M  V30 10494 N 987.371 -1.57444 0.0701946 0
M  V30 10495 C 988.303 -2.09611 -0.927142 0
M  V30 10496 C 989.316 -1.02791 -1.26245 0
M  V30 10497 O 990.505 -1.30309 -1.21992 0
M  V30 10498 C 987.605 -2.54015 -2.24342 0
M  V30 10499 C 986.778 -3.84389 -2.08719 0
M  V30 10500 C 985.837 -4.14904 -3.23638 0
M  V30 10501 O 984.863 -4.84528 -2.98699 0
M  V30 10502 N 986.065 -3.68322 -4.48686 0
M  V30 10503 H 988.83 -2.95803 -0.481753 0
M  V30 10504 H 986.391 -1.61487 -0.115572 0
M  V30 10505 H 988.383 -2.71492 -3.00124 0
M  V30 10506 H 986.953 -1.72969 -2.60385 0
M  V30 10507 H 986.173 -3.76308 -1.17415 0
M  V30 10508 H 987.461 -4.69729 -1.9553 0
M  V30 10509 H 986.859 -3.12073 -4.71834 0
M  V30 10510 H 985.416 -3.91002 -5.21499 0
M  V30 10511 N 988.849 0.203349 -1.56283 0
M  V30 10512 C 989.779 1.2549 -1.96912 0
M  V30 10513 C 990.76 1.47919 -0.839884 0
M  V30 10514 O 991.945 1.59795 -1.10359 0
M  V30 10515 C 989.075 2.6009 -2.30153 0
M  V30 10516 C 988.029 2.52289 -3.45738 0
M  V30 10517 C 987.355 3.91086 -3.64632 0
M  V30 10518 C 988.655 2.05503 -4.80173 0
M  V30 10519 H 990.349 0.917306 -2.85002 0
M  V30 10520 H 987.895 0.439818 -1.37119 0
M  V30 10521 H 989.848 3.33829 -2.5717 0
M  V30 10522 H 988.572 2.95574 -1.38937 0
M  V30 10523 H 987.231 1.81006 -3.18798 0
M  V30 10524 H 986.879 4.23908 -2.7076 0
M  V30 10525 H 986.579 3.86742 -4.42385 0
M  V30 10526 H 988.103 4.66459 -3.94016 0
M  V30 10527 H 989.517 2.68995 -5.06275 0
M  V30 10528 H 987.914 2.1218 -5.61337 0
M  V30 10529 H 988.984 1.00793 -4.74309 0
M  V30 10530 N 990.327 1.50405 0.470755 0
M  V30 10531 C 991.738 1.54266 1.05162 0
M  V30 10532 C 992.089 0.346359 1.93119 0
M  V30 10533 O 991.214 -0.540699 2.09536 0
M  V30 10534 C 991.809 2.7956 1.91394 0
M  V30 10535 C 990.368 2.86101 2.44588 0
M  V30 10536 C 989.515 2.48557 1.22941 0
M  V30 10537 H 992.466 1.56665 0.253359 0
M  V30 10538 H 992.487 2.61434 2.76464 0
M  V30 10539 H 991.999 3.66611 1.27351 0
M  V30 10540 H 990.1 2.03403 3.12183 0
M  V30 10541 H 990.213 3.88999 2.79672 0
M  V30 10542 H 988.577 2.01003 1.56429 0
M  V30 10543 H 989.36 3.37916 0.605598 0
M  V30 10544 N 991.805 -0.723954 1.39988 0
M  V30 10545 C 993.216 -1.30273 1.33738 0
M  V30 10546 C 993.567 -1.96199 0.00690581 0
M  V30 10547 O 992.692 -1.97016 -0.895179 0
M  V30 10548 C 993.287 -2.36889 2.42217 0
M  V30 10549 C 991.846 -2.90412 2.39453 0
M  V30 10550 C 990.993 -1.64103 2.2353 0
M  V30 10551 H 993.944 -0.520672 1.49916 0
M  V30 10552 H 993.965 -3.17538 2.09642 0
M  V30 10553 H 993.477 -1.88878 3.39038 0
M  V30 10554 H 991.578 -3.42674 1.46304 0
M  V30 10555 H 991.691 -3.42775 3.34727 0
M  V30 10556 H 990.055 -1.88855 1.70897 0
M  V30 10557 H 990.838 -1.18128 3.22336 0
M  V30 10558 N 993.283 -1.25346 -0.955304 0
M  V30 10559 C 994.193 -1.07412 -2.08566 0
M  V30 10560 C 995.209 -0.0114424 -1.73996 0
M  V30 10561 O 996.385 -0.212236 -2.00279 0
M  V30 10562 C 993.45 -0.694141 -3.3968 0
M  V30 10563 C 992.511 -1.83468 -3.88121 0
M  V30 10564 C 991.744 -1.47274 -5.12978 0
M  V30 10565 O 991.967 -0.368086 -5.69211 0
M  V30 10566 O 990.901 -2.30269 -5.56111 0
M  V30 10567 H 994.727 -2.02206 -2.26598 0
M  V30 10568 H 992.312 -1.04279 -1.06988 0
M  V30 10569 H 994.194 -0.494325 -4.18491 0
M  V30 10570 H 992.869 0.224545 -3.2292 0
M  V30 10571 H 991.776 -2.08935 -3.10318 0
M  V30 10572 H 993.109 -2.73258 -4.09379 0
M  V30 10573 N 994.761 1.15782 -1.06922 0
M  V30 10574 C 996.009 1.86097 -0.788192 0
M  V30 10575 C 996.33 1.82475 0.687606 0
M  V30 10576 O 995.6 1.26266 1.49778 0
M  V30 10577 H 994.18 0.689008 -0.288577 0
M  V30 10578 H 996.842 1.40377 -1.35205 0
M  V30 10579 H 995.938 2.91358 -1.1188 0
M  V30 10580 N 996.239 0.8527 1.3254 0
M  V30 10581 C 997.467 0.469044 2.01513 0
M  V30 10582 C 997.882 -0.933701 1.64096 0
M  V30 10583 O 997.239 -1.60898 0.861283 0
M  V30 10584 C 997.29 0.596228 3.56549 0
M  V30 10585 O 997.011 1.94371 3.92621 0
M  V30 10586 C 998.512 0.211324 4.42796 0
M  V30 10587 H 995.732 0.184589 0.645111 0
M  V30 10588 H 998.276 1.1491 1.69163 0
M  V30 10589 H 996.431 -0.0360712 3.87383 0
M  V30 10590 H 996.845 1.93909 4.87339 0
M  V30 10591 H 998.319 0.351324 5.50881 0
M  V30 10592 H 998.796 -0.848055 4.30935 0
M  V30 10593 H 999.402 0.818617 4.17347 0
M  V30 10594 N 997.718 -1.45297 0.610449 0
M  V30 10595 C 998.946 -2.0659 0.113211 0
M  V30 10596 C 999.361 -1.4546 -1.20361 0
M  V30 10597 O 998.718 -0.569823 -1.73376 0
M  V30 10598 C 998.769 -3.61488 -0.0298411 0
M  V30 10599 O 998.49 -4.20336 1.23488 0
M  V30 10600 C 999.991 -4.39772 -0.558202 0
M  V30 10601 H 997.211 -0.667322 0.0701555 0
M  V30 10602 H 999.755 -1.86497 0.838993 0
M  V30 10603 H 997.91 -3.80913 -0.705963 0
M  V30 10604 H 998.324 -5.13545 1.0664 0
M  V30 10605 H 999.798 -5.48648 -0.607375 0
M  V30 10606 H 1000.27 -4.09755 -1.58107 0
M  V30 10607 H 1000.88 -4.25217 0.0839704 0
M  V30 10608 N 999.196 -0.349774 -1.5367 0
M  V30 10609 C 1000.42 0.246038 -2.05432 0
M  V30 10610 C 1000.84 1.43719 -1.22435 0
M  V30 10611 O 1000.2 1.80622 -0.261166 0
M  V30 10612 C 1000.25 0.65501 -3.55516 0
M  V30 10613 O 999.968 -0.488782 -4.35365 0
M  V30 10614 C 1001.47 1.31088 -4.23475 0
M  V30 10615 H 998.689 0.0463952 -0.669394 0
M  V30 10616 H 1001.23 -0.503566 -1.98203 0
M  V30 10617 H 999.388 1.35455 -3.62947 0
M  V30 10618 H 999.802 -0.161528 -5.24251 0
M  V30 10619 H 1001.28 1.54774 -5.29857 0
M  V30 10620 H 1001.75 2.26636 -3.76208 0
M  V30 10621 H 1002.36 0.653211 -4.20254 0
M  V30 10622 N 1000.67 1.57404 -0.0785433 0
M  V30 10623 C 1001.58 2.16612 0.900902 0
M  V30 10624 C 1002.6 1.13109 1.32221 0
M  V30 10625 O 1003.78 1.45406 1.39352 0
M  V30 10626 C 1000.84 2.7215 2.14791 0
M  V30 10627 C 999.902 3.90551 1.78237 0
M  V30 10628 C 999.135 4.43431 2.96993 0
M  V30 10629 O 999.358 3.95292 4.11218 0
M  V30 10630 O 998.292 5.34674 2.76418 0
M  V30 10631 H 1002.12 3.0068 0.427227 0
M  V30 10632 H 999.703 1.48696 0.144902 0
M  V30 10633 H 1001.58 3.07718 2.87902 0
M  V30 10634 H 1000.26 1.91139 2.61243 0
M  V30 10635 H 999.167 3.59825 1.02357 0
M  V30 10636 H 1000.5 4.72876 1.36562 0
M  V30 10637 N 1002.15 -0.195058 1.56388 0
M  V30 10638 C 1003.38 -0.931642 1.84738 0
M  V30 10639 C 1003.79 -1.76849 0.661046 0
M  V30 10640 O 1003.15 -1.78705 -0.370241 0
M  V30 10641 C 1003.2 -1.82777 3.11889 0
M  V30 10642 O 1002.92 -1.02471 4.25948 0
M  V30 10643 C 1004.42 -2.67603 3.53417 0
M  V30 10644 H 1001.64 -0.271821 0.613477 0
M  V30 10645 H 1004.19 -0.202299 2.03497 0
M  V30 10646 H 1002.34 -2.51074 2.95027 0
M  V30 10647 H 1002.76 -1.63539 4.98353 0
M  V30 10648 H 1004.23 -3.26138 4.45352 0
M  V30 10649 H 1004.71 -3.41314 2.76408 0
M  V30 10650 H 1005.31 -2.04678 3.7281 0
M  V30 10651 N 1003.63 -1.50653 -0.462772 0
M  V30 10652 C 1004.54 -1.72923 -1.58539 0
M  V30 10653 C 1005.56 -0.612577 -1.6286 0
M  V30 10654 O 1006.73 -0.891885 -1.80575 0
M  V30 10655 C 1003.8 -1.82623 -2.94703 0
M  V30 10656 C 1002.86 -3.06392 -3.00704 0
M  V30 10657 C 1002.09 -3.15618 -4.30373 0
M  V30 10658 O 1002.31 -2.31423 -5.21344 0
M  V30 10659 O 1001.25 -4.0841 -4.42136 0
M  V30 10660 H 1005.07 -2.68103 -1.42669 0
M  V30 10661 H 1002.66 -1.34848 -0.643144 0
M  V30 10662 H 1004.54 -1.91134 -3.7556 0
M  V30 10663 H 1003.22 -0.906275 -3.10754 0
M  V30 10664 H 1002.12 -3.03375 -2.18894 0
M  V30 10665 H 1003.46 -3.97992 -2.89591 0
M  V30 10666 N 1005.11 0.71652 -1.4037 0
M  V30 10667 C 1006.35 1.47857 -1.38803 0
M  V30 10668 C 1006.69 1.94197 0.0100536 0
M  V30 10669 O 1005.96 1.68093 0.978521 0
M  V30 10670 C 1006.25 2.7053 -2.37667 0
M  V30 10671 C 1006.1 2.3009 -3.86496 0
M  V30 10672 C 1007.42 3.72684 -2.34082 0
M  V30 10673 H 1004.54 0.53632 -0.505499 0
M  V30 10674 H 1007.18 0.817824 -1.71498 0
M  V30 10675 H 1005.33 3.26906 -2.09916 0
M  V30 10676 H 1007 1.79202 -4.2507 0
M  V30 10677 H 1005.24 1.62102 -4.02375 0
M  V30 10678 H 1005.91 3.18018 -4.51186 0
M  V30 10679 H 1008.39 3.25935 -2.58661 0
M  V30 10680 H 1007.27 4.56157 -3.05306 0
M  V30 10681 H 1007.53 4.20916 -1.35213 0
M  V30 10682 N 1006.59 1.25851 0.948643 0
M  V30 10683 C 1008 1.02802 1.22081 0
M  V30 10684 C 1008.2 -0.251461 1.99925 0
M  V30 10685 O 1007.26 -0.962592 2.33432 0
M  V30 10686 C 1008.57 2.25489 1.98936 0
M  V30 10687 C 1010.12 2.30312 2.11956 0
M  V30 10688 C 1010.59 3.52671 2.92211 0
M  V30 10689 N 1012.09 3.53103 2.99787 0
M  V30 10690 C 1012.82 4.44445 3.62294 0
M  V30 10691 N 1012.32 5.46065 4.26362 0
M  V30 10692 N 1014.11 4.32113 3.59493 0
M  V30 10693 H 1006.26 2.08042 0.428044 0
M  V30 10694 H 1008.52 0.913928 0.251872 0
M  V30 10695 H 1008.23 3.18513 1.4914 0
M  V30 10696 H 1008.1 2.2914 2.99624 0
M  V30 10697 H 1010.49 1.37808 2.60946 0
M  V30 10698 H 1010.57 2.30676 1.10554 0
M  V30 10699 H 1010.22 4.45501 2.43909 0
M  V30 10700 H 1010.15 3.49554 3.93853 0
M  V30 10701 H 1012.64 2.79597 2.54232 0
M  V30 10702 H 1012.95 6.11964 4.71932 0
M  V30 10703 H 1011.29 5.49931 4.24972 0
M  V30 10704 H 1014.49 3.51946 3.08629 0
M  V30 10705 H 1014.66 5.03493 4.0792 0
M  V30 10706 N 1008.06 -1.15214 1.07534 0
M  V30 10707 C 1009.01 -2.20013 0.697337 0
M  V30 10708 C 1009.98 -1.6314 -0.312168 0
M  V30 10709 O 1011.17 -1.89768 -0.198196 0
M  V30 10710 C 1008.31 -3.44945 0.103293 0
M  V30 10711 C 1007.42 -4.16009 1.1645 0
M  V30 10712 C 1006.55 -5.28496 0.535261 0
M  V30 10713 C 1005.59 -5.9138 1.57912 0
M  V30 10714 N 1004.73 -6.95335 0.972332 0
M  V30 10715 H 1009.57 -2.51698 1.59538 0
M  V30 10716 H 1007.11 -1.2361 0.797431 0
M  V30 10717 H 1009.07 -4.16397 -0.258766 0
M  V30 10718 H 1007.7 -3.13772 -0.758096 0
M  V30 10719 H 1006.75 -3.43035 1.64411 0
M  V30 10720 H 1008.06 -4.58853 1.9559 0
M  V30 10721 H 1007.21 -6.06579 0.120942 0
M  V30 10722 H 1005.95 -4.8685 -0.287889 0
M  V30 10723 H 1004.96 -5.12008 2.0032 0
M  V30 10724 H 1006.18 -6.35103 2.40459 0
M  V30 10725 H 1004.13 -6.55779 0.170119 0
M  V30 10726 H 1004.05 -7.36616 1.70095 0
M  V30 10727 H 1005.31 -7.77312 0.583577 0
M  V30 10728 N 1009.54 -0.859717 -1.32086 0
M  V30 10729 C 1010.96 -0.55025 -1.49815 0
M  V30 10730 C 1011.16 0.917966 -1.79376 0
M  V30 10731 O 1010.21 1.70073 -1.86632 0
M  V30 10732 C 1011.53 -1.44161 -2.6389 0
M  V30 10733 C 1013.08 -1.44257 -2.77775 0
M  V30 10734 C 1013.55 -2.31926 -3.94936 0
M  V30 10735 N 1015.04 -2.2975 -4.02206 0
M  V30 10736 C 1015.78 -2.9431 -4.92107 0
M  V30 10737 N 1015.27 -3.68001 -5.86981 0
M  V30 10738 N 1017.07 -2.83671 -4.8527 0
M  V30 10739 H 1009.22 -1.80987 -1.11164 0
M  V30 10740 H 1011.48 -0.773313 -0.548353 0
M  V30 10741 H 1011.19 -2.48588 -2.4879 0
M  V30 10742 H 1011.06 -1.13268 -3.59792 0
M  V30 10743 H 1013.45 -0.405923 -2.92295 0
M  V30 10744 H 1013.53 -1.79169 -1.82571 0
M  V30 10745 H 1013.17 -3.35661 -3.81174 0
M  V30 10746 H 1013.1 -1.94344 -4.89426 0
M  V30 10747 H 1015.59 -1.76177 -3.3432 0
M  V30 10748 H 1015.91 -4.14417 -6.52287 0
M  V30 10749 H 1014.25 -3.72109 -5.86992 0
M  V30 10750 H 1017.44 -2.25647 -4.10123 0
M  V30 10751 H 1017.61 -3.34267 -5.5513 0
M  V30 10752 N 1011.02 1.44971 -0.618145 0
M  V30 10753 C 1012.44 1.57077 -0.282666 0
M  V30 10754 C 1012.64 1.60782 1.21456 0
M  V30 10755 O 1011.69 1.54382 1.99806 0
M  V30 10756 C 1013.01 2.84858 -0.963148 0
M  V30 10757 C 1014.55 2.9855 -0.940062 0
M  V30 10758 C 1015.03 4.29115 -1.60076 0
M  V30 10759 N 1016.52 4.35899 -1.56674 0
M  V30 10760 C 1017.25 5.35617 -2.04701 0
M  V30 10761 N 1016.75 6.41813 -2.6086 0
M  V30 10762 N 1018.54 5.27042 -1.95406 0
M  V30 10763 H 1010.69 1.4081 -1.59017 0
M  V30 10764 H 1012.96 0.673914 -0.666741 0
M  V30 10765 H 1012.66 2.88059 -2.0178 0
M  V30 10766 H 1012.54 3.73966 -0.492901 0
M  V30 10767 H 1014.92 2.94909 0.10607 0
M  V30 10768 H 1015.01 2.10825 -1.44868 0
M  V30 10769 H 1014.65 4.33514 -2.64627 0
M  V30 10770 H 1014.58 5.15675 -1.06708 0
M  V30 10771 H 1017.07 3.59766 -1.15659 0
M  V30 10772 H 1017.38 7.14166 -2.95273 0
M  V30 10773 H 1015.73 6.42534 -2.64905 0
M  V30 10774 H 1018.92 4.42987 -1.51263 0
M  V30 10775 H 1019.09 6.04604 -2.33147 0
M  V30 10776 N 1012.5 0.357919 1.53482 0
M  V30 10777 C 1013.43 -0.484231 2.28424 0
M  V30 10778 C 1014.41 -1.09046 1.30548 0
M  V30 10779 O 1015.59 -1.10916 1.59409 0
M  V30 10780 C 1012.72 -1.62803 3.06778 0
M  V30 10781 C 1011.68 -1.14943 4.12277 0
M  V30 10782 C 1011 -2.38287 4.78669 0
M  V30 10783 C 1012.3 -0.239627 5.2175 0
M  V30 10784 H 1014 0.140979 2.99068 0
M  V30 10785 H 1011.54 0.069244 1.43833 0
M  V30 10786 H 1013.5 -2.22374 3.57949 0
M  V30 10787 H 1012.22 -2.28036 2.3381 0
M  V30 10788 H 1010.88 -0.576442 3.6204 0
M  V30 10789 H 1010.53 -3.01959 4.02281 0
M  V30 10790 H 1010.23 -2.06939 5.49955 0
M  V30 10791 H 1011.75 -2.98558 5.32631 0
M  V30 10792 H 1013.17 -0.742597 5.6847 0
M  V30 10793 H 1011.56 -0.0173747 6.00097 0
M  V30 10794 H 1012.63 0.720333 4.7952 0
M  V30 10795 N 1013.98 -1.5736 0.0868897 0
M  V30 10796 C 1015.2 -1.98809 -0.590757 0
M  V30 10797 C 1015.63 -0.965407 -1.61436 0
M  V30 10798 O 1014.98 0.067143 -1.81176 0
M  V30 10799 C 1015.03 -3.39249 -1.22238 0
M  V30 10800 O 1014.14 -3.39706 -2.33824 0
M  V30 10801 H 1013.48 -0.64669 -0.150626 0
M  V30 10802 H 1016.01 -2.03927 0.165873 0
M  V30 10803 H 1016.02 -3.76765 -1.56564 0
M  V30 10804 H 1014.69 -4.13208 -0.472434 0
M  V30 10805 H 1013.27 -3.13977 -2.01178 0
M  V30 10806 N 1015.45 0.186762 -1.56489 0
M  V30 10807 C 1016.68 0.925916 -1.85584 0
M  V30 10808 C 1017.1 1.75708 -0.671446 0
M  V30 10809 O 1016.46 1.7728 0.379687 0
M  V30 10810 C 1016.51 1.79107 -3.12975 0
M  V30 10811 O 1015.61 2.89088 -2.94112 0
M  V30 10812 H 1014.96 0.260275 -0.610863 0
M  V30 10813 H 1017.49 0.189561 -2.0372 0
M  V30 10814 H 1017.5 2.19408 -3.43983 0
M  V30 10815 H 1016.17 1.18044 -3.98796 0
M  V30 10816 H 1014.75 2.52482 -2.74422 0
M  V30 10817 N 1016.93 1.50896 0.454776 0
M  V30 10818 C 1018.16 1.66239 1.22671 0
M  V30 10819 C 1018.57 0.351876 1.85899 0
M  V30 10820 O 1017.91 -0.677848 1.70736 0
M  V30 10821 C 1017.98 2.70812 2.36434 0
M  V30 10822 C 1017.64 4.13913 1.93714 0
M  V30 10823 C 1018.64 4.99259 1.45039 0
M  V30 10824 C 1016.32 4.59921 2.01937 0
M  V30 10825 C 1018.32 6.28667 1.05151 0
M  V30 10826 C 1016 5.89329 1.6166 0
M  V30 10827 C 1017 6.73529 1.13347 0
M  V30 10828 O 1016.69 8.0052 0.736354 0
M  V30 10829 H 1016.42 0.561443 0.376508 0
M  V30 10830 H 1018.97 1.97974 0.547325 0
M  V30 10831 H 1017.2 2.34355 3.07595 0
M  V30 10832 H 1018.89 2.7521 2.98353 0
M  V30 10833 H 1019.66 4.64925 1.38095 0
M  V30 10834 H 1015.54 3.94518 2.38488 0
M  V30 10835 H 1019.08 6.94339 0.673711 0
M  V30 10836 H 1014.98 6.23182 1.68269 0
M  V30 10837 H 1015.75 8.1393 0.863759 0
M  V30 10838 N 1018.41 -0.709066 1.40748 0
M  V30 10839 C 1019.34 -1.83412 1.37451 0
M  V30 10840 C 1020.36 -1.60394 0.27884 0
M  V30 10841 O 1021.54 -1.70147 0.539642 0
M  V30 10842 C 1018.64 -3.19935 1.1178 0
M  V30 10843 C 1017.82 -3.70095 2.33128 0
M  V30 10844 C 1016.88 -4.85249 2.03518 0
M  V30 10845 O 1015.9 -4.97563 2.76442 0
M  V30 10846 N 1017.1 -5.7152 1.01714 0
M  V30 10847 H 1019.87 -1.86736 2.34414 0
M  V30 10848 H 1017.43 -0.890863 1.35186 0
M  V30 10849 H 1019.42 -3.94578 0.899464 0
M  V30 10850 H 1017.99 -3.11718 0.234624 0
M  V30 10851 H 1017.21 -2.8651 2.70751 0
M  V30 10852 H 1018.5 -4.00344 3.1401 0
M  V30 10853 H 1017.9 -5.64188 0.413307 0
M  V30 10854 H 1016.46 -6.46119 0.858696 0
M  V30 10855 N 1019.89 -1.26353 -0.941956 0
M  V30 10856 C 1021.14 -1.11241 -1.68251 0
M  V30 10857 C 1021.45 0.344055 -1.9255 0
M  V30 10858 O 1022.66 0.615832 -2.64423 0
M  V30 10859 C 1021.11 -1.94269 -3.02965 0
M  V30 10860 C 1020.72 -3.44485 -2.86415 0
M  V30 10861 C 1022.47 -1.87764 -3.80716 0
M  V30 10862 C 1020.37 -4.19763 -4.16597 0
M  V30 10863 H 1019.3 -0.412694 -0.63103 0
M  V30 10864 H 1021.95 -1.50656 -1.04762 0
M  V30 10865 H 1020.34 -1.47687 -3.6743 0
M  V30 10866 H 1021.51 -3.9883 -2.30805 0
M  V30 10867 H 1019.82 -3.52218 -2.22107 0
M  V30 10868 H 1022.42 -2.41292 -4.77161 0
M  V30 10869 H 1022.76 -0.848195 -4.07568 0
M  V30 10870 H 1023.3 -2.32165 -3.23024 0
M  V30 10871 H 1020.04 -5.23173 -3.9493 0
M  V30 10872 H 1019.56 -3.70198 -4.71925 0
M  V30 10873 H 1021.24 -4.28168 -4.85058 0
M  V30 10874 N 1021.37 1.14642 -1.08144 0
M  V30 10875 C 1022.59 1.90025 -0.830972 0
M  V30 10876 C 1023.02 1.77904 0.610879 0
M  V30 10877 O 1022.38 1.11735 1.42776 0
M  V30 10878 C 1022.42 3.38085 -1.25422 0
M  V30 10879 O 1021.53 4.10412 -0.404486 0
M  V30 10880 H 1020.87 0.591327 -0.302041 0
M  V30 10881 H 1023.4 1.4513 -1.44216 0
M  V30 10882 H 1023.41 3.88894 -1.23391 0
M  V30 10883 H 1022.08 3.46226 -2.30435 0
M  V30 10884 H 1020.66 3.69693 -0.487987 0
M  V30 10885 N 1022.85 0.866709 1.31628 0
M  V30 10886 C 1023.78 0.264788 2.26659 0
M  V30 10887 C 1024.76 -0.604181 1.50958 0
M  V30 10888 O 1025.94 -0.558324 1.80042 0
M  V30 10889 C 1023.07 -0.625373 3.32877 0
M  V30 10890 C 1022.11 0.171813 4.26154 0
M  V30 10891 S 1022.95 1.54818 5.12632 0
M  V30 10892 C 1024.1 0.66405 6.22367 0
M  V30 10893 H 1024.34 1.07036 2.77364 0
M  V30 10894 H 1021.87 0.665038 1.39343 0
M  V30 10895 H 1023.83 -1.13327 3.94547 0
M  V30 10896 H 1022.49 -1.40486 2.80932 0
M  V30 10897 H 1021.68 -0.506694 5.01447 0
M  V30 10898 H 1021.28 0.611704 3.68964 0
M  V30 10899 H 1023.57 -0.126717 6.77381 0
M  V30 10900 H 1024.52 1.388 6.94363 0
M  V30 10901 H 1024.93 0.233046 5.64019 0
M  V30 10902 N 1024.32 -1.44642 0.625825 0
M  V30 10903 C 1025.23 -2.34451 -0.0836134 0
M  V30 10904 C 1026.25 -1.5231 -0.841289 0
M  V30 10905 O 1027.43 -1.85056 -0.794754 0
M  V30 10906 C 1024.49 -3.30211 -1.05648 0
M  V30 10907 C 1023.55 -4.28259 -0.298759 0
M  V30 10908 C 1022.78 -5.19444 -1.22528 0
M  V30 10909 O 1023.01 -5.14444 -2.46382 0
M  V30 10910 O 1021.94 -5.97668 -0.71247 0
M  V30 10911 H 1025.77 -2.96555 0.654912 0
M  V30 10912 H 1023.35 -1.44327 0.386029 0
M  V30 10913 H 1025.23 -3.8917 -1.61632 0
M  V30 10914 H 1023.91 -2.70648 -1.77571 0
M  V30 10915 H 1022.82 -3.72863 0.304001 0
M  V30 10916 H 1024.15 -4.90728 0.380345 0
M  V30 10917 N 1025.8 -0.366053 -1.5329 0
M  V30 10918 C 1026.73 0.523781 -2.22108 0
M  V30 10919 C 1027.71 1.08262 -1.21318 0
M  V30 10920 O 1028.9 1.13866 -1.50222 0
M  V30 10921 C 1026.02 1.72273 -2.91616 0
M  V30 10922 C 1025.07 1.29129 -4.06482 0
M  V30 10923 S 1025.9 0.292195 -5.34702 0
M  V30 10924 C 1027.06 1.49746 -6.07723 0
M  V30 10925 H 1027.29 -0.0606687 -2.97238 0
M  V30 10926 H 1024.82 -0.15016 -1.53668 0
M  V30 10927 H 1026.78 2.41045 -3.32277 0
M  V30 10928 H 1025.44 2.27843 -2.16209 0
M  V30 10929 H 1024.64 2.18583 -4.54134 0
M  V30 10930 H 1024.24 0.682783 -3.67715 0
M  V30 10931 H 1026.53 2.4284 -6.32483 0
M  V30 10932 H 1027.47 1.06232 -7.00086 0
M  V30 10933 H 1027.88 1.70373 -5.38176 0
M  V30 10934 N 1027.28 1.57312 -0.0952337 0
M  V30 10935 C 1028.21 2.17056 0.860753 0
M  V30 10936 C 1029.19 1.10394 1.29411 0
M  V30 10937 O 1030.38 1.38532 1.36098 0
M  V30 10938 C 1027.51 2.751 2.11984 0
M  V30 10939 C 1026.46 3.87136 1.8251 0
M  V30 10940 C 1025.79 4.31883 3.15247 0
M  V30 10941 C 1027.09 5.10326 1.11194 0
M  V30 10942 H 1028.78 2.97192 0.362983 0
M  V30 10943 H 1026.33 1.42955 0.173151 0
M  V30 10944 H 1028.28 3.15547 2.79299 0
M  V30 10945 H 1027 1.92219 2.64044 0
M  V30 10946 H 1025.66 3.47229 1.17592 0
M  V30 10947 H 1025.31 3.45893 3.65195 0
M  V30 10948 H 1025.01 5.0742 2.96309 0
M  V30 10949 H 1026.53 4.74964 3.83721 0
M  V30 10950 H 1027.95 5.47942 1.6862 0
M  V30 10951 H 1026.34 5.91293 1.02435 0
M  V30 10952 H 1027.41 4.84807 0.0947227 0
M  V30 10953 N 1028.76 -0.17846 1.56586 0
M  V30 10954 C 1029.67 -1.24115 1.9908 0
M  V30 10955 C 1030.68 -1.48854 0.901031 0
M  V30 10956 O 1031.86 -1.61142 1.2081 0
M  V30 10957 C 1028.92 -2.56187 2.33601 0
M  V30 10958 C 1027.99 -2.39373 3.56369 0
M  V30 10959 C 1027.22 -3.65147 3.89234 0
M  V30 10960 O 1027.44 -4.70024 3.23162 0
M  V30 10961 O 1026.38 -3.59683 4.82609 0
M  V30 10962 H 1030.2 -0.910482 2.89731 0
M  V30 10963 H 1027.79 -0.38477 1.4436 0
M  V30 10964 H 1029.67 -3.34109 2.56806 0
M  V30 10965 H 1028.34 -2.88847 1.46113 0
M  V30 10966 H 1027.25 -1.59506 3.38391 0
M  V30 10967 H 1028.58 -2.1164 4.44375 0
M  V30 10968 N 1030.24 -1.51135 -0.446768 0
M  V30 10969 C 1031.51 -1.5387 -1.20762 0
M  V30 10970 C 1031.89 -0.297446 -2.08994 0
M  V30 10971 O 1031.24 0.717975 -2.16927 0
M  V30 10972 C 1031.45 -2.84767 -2.01764 0
M  V30 10973 C 1032.8 -3.3636 -2.59128 0
M  V30 10974 O 1033.82 -2.86254 -2.11984 0
M  V30 10975 O 1032.68 -4.23765 -3.45088 0
M  V30 10976 H 1029.78 -0.618228 -0.549293 0
M  V30 10977 H 1032.32 -1.63442 -0.456605 0
M  V30 10978 H 1031.09 -3.6657 -1.36901 0
M  V30 10979 H 1030.72 -2.78313 -2.8395 0
M  V30 10980 N 1031.71 0.701592 -1.41122 0
M  V30 10981 C 1032.94 1.49553 -1.43696 0
M  V30 10982 C 1033.36 1.88053 -0.0421865 0
M  V30 10983 O 1032.72 1.54223 0.953144 0
M  V30 10984 C 1032.77 2.73834 -2.34622 0
M  V30 10985 O 1031.87 3.71088 -1.7991 0
M  V30 10986 H 1031.21 0.450352 -0.487933 0
M  V30 10987 H 1033.74 0.862886 -1.85514 0
M  V30 10988 H 1033.75 3.22209 -2.5029 0
M  V30 10989 H 1032.43 2.45149 -3.35969 0
M  V30 10990 H 1031.01 3.29994 -1.73661 0
M  V30 10991 N 1033.19 1.2685 0.935242 0
M  V30 10992 C 1034.42 1.15645 1.72165 0
M  V30 10993 C 1034.84 -0.283909 1.85945 0
M  V30 10994 O 1034.2 -1.20567 1.354 0
M  V30 10995 C 1034.25 1.83689 3.10307 0
M  V30 10996 O 1033.35 1.12972 3.96625 0
M  V30 10997 H 1032.69 0.402629 0.528002 0
M  V30 10998 H 1035.22 1.67781 1.17093 0
M  V30 10999 H 1035.23 1.90749 3.60664 0
M  V30 11000 H 1033.91 2.88472 2.99595 0
M  V30 11001 H 1032.48 1.13929 3.5507 0
M  V30 11002 N 1034.67 -1.14067 1.0875 0
M  V30 11003 C 1035.92 -1.84819 0.817698 0
M  V30 11004 C 1036.24 -1.83545 -0.658488 0
M  V30 11005 O 1035.51 -1.28633 -1.47751 0
M  V30 11006 H 1034.09 -0.68433 0.299502 0
M  V30 11007 H 1036.75 -1.38208 1.37421 0
M  V30 11008 H 1035.85 -2.89541 1.16501 0
M  V30 11009 N 1036.15 -0.873678 -1.31166 0
M  V30 11010 C 1037.56 -0.566109 -1.49223 0
M  V30 11011 C 1037.76 0.898889 -1.80339 0
M  V30 11012 O 1036.82 1.68084 -1.88425 0
M  V30 11013 C 1038.13 -1.46952 -2.62346 0
M  V30 11014 C 1039.68 -1.47195 -2.76229 0
M  V30 11015 C 1040.16 -2.36102 -3.92454 0
M  V30 11016 N 1041.65 -2.34003 -3.99746 0
M  V30 11017 C 1042.38 -2.99513 -4.88958 0
M  V30 11018 N 1041.88 -3.74206 -5.83045 0
M  V30 11019 N 1043.67 -2.88802 -4.82234 0
M  V30 11020 H 1035.82 -1.82156 -1.09239 0
M  V30 11021 H 1038.09 -0.779086 -0.54012 0
M  V30 11022 H 1037.79 -2.51213 -2.4614 0
M  V30 11023 H 1037.67 -1.17077 -3.5857 0
M  V30 11024 H 1040.05 -0.436902 -2.91848 0
M  V30 11025 H 1040.13 -1.81095 -1.80661 0
M  V30 11026 H 1039.78 -3.39685 -3.77593 0
M  V30 11027 H 1039.71 -1.99524 -4.87337 0
M  V30 11028 H 1042.2 -1.79713 -3.32433 0
M  V30 11029 H 1042.51 -4.21312 -6.47855 0
M  V30 11030 H 1040.86 -3.78314 -5.83012 0
M  V30 11031 H 1044.05 -2.29984 -4.07707 0
M  V30 11032 H 1044.22 -3.40136 -5.51554 0
M  V30 11033 N 1037.63 1.44308 -0.633487 0
M  V30 11034 C 1038.56 2.28943 0.108474 0
M  V30 11035 C 1039.57 1.41415 0.806582 0
M  V30 11036 O 1040.76 1.65544 0.667634 0
M  V30 11037 C 1037.86 3.17845 1.1759 0
M  V30 11038 C 1037.03 4.33802 0.559842 0
M  V30 11039 C 1036.09 5.03722 1.52154 0
M  V30 11040 O 1035.12 5.5966 1.03776 0
M  V30 11041 N 1036.32 5.05392 2.85586 0
M  V30 11042 H 1039.09 2.93262 -0.617879 0
M  V30 11043 H 1036.65 1.54781 -0.474819 0
M  V30 11044 H 1038.64 3.61485 1.81963 0
M  V30 11045 H 1037.21 2.55261 1.80445 0
M  V30 11046 H 1036.43 3.93325 -0.262559 0
M  V30 11047 H 1037.72 5.08637 0.128942 0
M  V30 11048 H 1037.11 4.61282 3.27468 0
M  V30 11049 H 1035.67 5.52813 3.45313 0
M  V30 11050 N 1039.1 0.374177 1.53094 0
M  V30 11051 C 1040.52 0.0234783 1.59583 0
M  V30 11052 C 1040.72 -1.45984 1.38892 0
M  V30 11053 O 1039.78 -2.22251 1.19836 0
M  V30 11054 C 1041.09 0.487117 2.96728 0
M  V30 11055 C 1042.64 0.442073 3.09862 0
M  V30 11056 C 1043.11 0.881659 4.49434 0
M  V30 11057 N 1044.6 0.837062 4.55574 0
M  V30 11058 C 1045.34 1.14878 5.61774 0
M  V30 11059 N 1044.83 1.53022 6.75689 0
M  V30 11060 N 1046.63 1.07102 5.51802 0
M  V30 11061 H 1038.78 1.34003 1.64794 0
M  V30 11062 H 1041.04 0.548281 0.773364 0
M  V30 11063 H 1040.75 1.52252 3.17037 0
M  V30 11064 H 1040.62 -0.121772 3.77003 0
M  V30 11065 H 1043.01 -0.584216 2.89259 0
M  V30 11066 H 1043.09 1.08657 2.31576 0
M  V30 11067 H 1042.73 1.90611 4.70776 0
M  V30 11068 H 1042.66 0.214326 5.26164 0
M  V30 11069 H 1045.15 0.556173 3.73785 0
M  V30 11070 H 1045.47 1.75211 7.52676 0
M  V30 11071 H 1043.81 1.56895 6.77059 0
M  V30 11072 H 1047 0.772149 4.61688 0
M  V30 11073 H 1047.18 1.31728 6.3447 0
M  V30 11074 N 1040.58 -1.57259 0.103575 0
M  V30 11075 C 1041.55 -2.13337 -0.837859 0
M  V30 11076 C 1042.55 -1.06459 -1.20512 0
M  V30 11077 O 1043.74 -1.32307 -1.13316 0
M  V30 11078 C 1040.87 -2.66093 -2.13089 0
M  V30 11079 H 1042.06 -2.97842 -0.350775 0
M  V30 11080 H 1039.61 -1.55621 -0.145511 0
M  V30 11081 H 1040.35 -1.85133 -2.66264 0
M  V30 11082 H 1040.13 -3.44244 -1.87719 0
M  V30 11083 H 1041.62 -3.09443 -2.80419 0
M  V30 11084 N 1042.06 0.170153 -1.56679 0
M  V30 11085 C 1043.31 0.887906 -1.8233 0
M  V30 11086 C 1043.64 1.81845 -0.681608 0
M  V30 11087 O 1042.91 1.9191 0.316362 0
M  V30 11088 C 1043.2 1.68256 -3.18374 0
M  V30 11089 C 1043.05 0.775059 -4.43072 0
M  V30 11090 C 1044.37 2.65001 -3.51372 0
M  V30 11091 H 1041.49 0.32135 -0.663252 0
M  V30 11092 H 1044.13 0.154065 -1.89374 0
M  V30 11093 H 1042.28 2.30817 -3.12499 0
M  V30 11094 H 1043.95 0.162234 -4.61015 0
M  V30 11095 H 1042.2 0.0831809 -4.3372 0
M  V30 11096 H 1042.87 1.36661 -5.34816 0
M  V30 11097 H 1045.34 2.12566 -3.57708 0
M  V30 11098 H 1044.22 3.17667 -4.47637 0
M  V30 11099 H 1044.48 3.45255 -2.76136 0
M  V30 11100 N 1043.54 1.5137 0.438746 0
M  V30 11101 C 1044.76 1.68058 1.21537 0
M  V30 11102 C 1045.19 0.376787 1.84288 0
M  V30 11103 O 1044.55 -0.662911 1.68746 0
M  V30 11104 C 1044.59 2.79684 2.27616 0
M  V30 11105 O 1043.7 2.43189 3.33066 0
M  V30 11106 H 1043.04 0.560408 0.356144 0
M  V30 11107 H 1045.57 1.97926 0.518311 0
M  V30 11108 H 1045.58 3.03726 2.72423 0
M  V30 11109 H 1044.25 3.74293 1.81321 0
M  V30 11110 H 1042.83 2.29713 2.93746 0
M  V30 11111 N 1045.02 -0.694098 1.41492 0
M  V30 11112 C 1046.27 -1.4498 1.40227 0
M  V30 11113 C 1046.58 -1.95594 0.0151253 0
M  V30 11114 O 1047.78 -2.71234 -0.120146 0
M  V30 11115 C 1046.24 -2.62171 2.46565 0
M  V30 11116 C 1045.85 -2.18337 3.91194 0
M  V30 11117 C 1047.59 -3.39796 2.54439 0
M  V30 11118 C 1045.5 -3.32495 4.89082 0
M  V30 11119 H 1044.43 -0.544584 0.521483 0
M  V30 11120 H 1047.08 -0.75337 1.67322 0
M  V30 11121 H 1045.46 -3.34089 2.12604 0
M  V30 11122 H 1046.64 -1.53698 4.34412 0
M  V30 11123 H 1044.95 -1.53702 3.86994 0
M  V30 11124 H 1047.55 -4.2478 3.24755 0
M  V30 11125 H 1047.89 -3.85082 1.5817 0
M  V30 11126 H 1048.42 -2.74935 2.87499 0
M  V30 11127 H 1045.16 -2.92219 5.86761 0
M  V30 11128 H 1044.68 -3.95978 4.50512 0
M  V30 11129 H 1046.36 -3.98251 5.09907 0
M  V30 11130 N 1046.49 -1.27344 -0.928501 0
M  V30 11131 C 1047.46 -1.10043 -2.01055 0
M  V30 11132 C 1048.46 -0.0446793 -1.60738 0
M  V30 11133 O 1049.65 -0.289202 -1.71783 0
M  V30 11134 C 1046.78 -0.676559 -3.34119 0
M  V30 11135 H 1047.97 -2.06126 -2.17835 0
M  V30 11136 H 1045.53 -1.10121 -1.10919 0
M  V30 11137 H 1046.26 0.285697 -3.23039 0
M  V30 11138 H 1046.05 -1.43903 -3.64739 0
M  V30 11139 H 1047.54 -0.577725 -4.13584 0
M  V30 11140 N 1047.97 1.13488 -1.09353 0
M  V30 11141 C 1049.2 1.89133 -0.85108 0
M  V30 11142 C 1049.62 1.78542 0.591976 0
M  V30 11143 O 1048.98 1.13243 1.41583 0
M  V30 11144 C 1049.03 3.36736 -1.29001 0
M  V30 11145 O 1048.13 4.09959 -0.447993 0
M  V30 11146 H 1047.47 0.58809 -0.308296 0
M  V30 11147 H 1050 1.43593 -1.45747 0
M  V30 11148 H 1050.01 3.87564 -1.27508 0
M  V30 11149 H 1048.69 3.43762 -2.34095 0
M  V30 11150 H 1047.27 3.69155 -0.52717 0
M  V30 11151 N 1049.45 0.880621 1.30701 0
M  V30 11152 C 1050.7 0.492957 1.95583 0
M  V30 11153 C 1051.01 -0.961863 1.70316 0
M  V30 11154 O 1052.22 -1.45617 2.29146 0
M  V30 11155 C 1050.68 0.830656 3.50183 0
M  V30 11156 C 1050.28 2.30295 3.84276 0
M  V30 11157 C 1052.03 0.511979 4.21401 0
M  V30 11158 C 1049.93 2.58251 5.32034 0
M  V30 11159 H 1048.86 0.18062 0.732047 0
M  V30 11160 H 1051.52 1.075 1.48715 0
M  V30 11161 H 1049.9 0.177752 3.95601 0
M  V30 11162 H 1051.07 2.99981 3.49783 0
M  V30 11163 H 1049.39 2.58873 3.2615 0
M  V30 11164 H 1051.98 0.697935 5.30125 0
M  V30 11165 H 1052.33 -0.548327 4.12673 0
M  V30 11166 H 1052.86 1.12189 3.81652 0
M  V30 11167 H 1049.6 3.63005 5.45809 0
M  V30 11168 H 1049.12 1.9317 5.67843 0
M  V30 11169 H 1050.8 2.43527 5.99419 0
M  V30 11170 N 1050.93 -1.4397 0.641131 0
M  V30 11171 C 1051.86 -2.33458 -0.04446 0
M  V30 11172 C 1052.84 -1.48781 -0.824507 0
M  V30 11173 O 1054.03 -1.77477 -0.788397 0
M  V30 11174 C 1051.16 -3.31989 -1.01984 0
M  V30 11175 C 1050.11 -4.2656 -0.350745 0
M  V30 11176 C 1049.44 -5.15036 -1.43673 0
M  V30 11177 C 1050.74 -5.16897 0.749299 0
M  V30 11178 H 1052.43 -2.91034 0.702832 0
M  V30 11179 H 1049.98 -1.39942 0.339435 0
M  V30 11180 H 1051.93 -3.93483 -1.50828 0
M  V30 11181 H 1050.65 -2.72643 -1.79815 0
M  V30 11182 H 1049.31 -3.66413 0.117139 0
M  V30 11183 H 1048.96 -4.52037 -2.20617 0
M  V30 11184 H 1048.66 -5.79125 -0.994358 0
M  V30 11185 H 1050.18 -5.79403 -1.92678 0
M  V30 11186 H 1051.6 -5.7227 0.343534 0
M  V30 11187 H 1049.99 -5.89643 1.11541 0
M  V30 11188 H 1051.06 -4.5731 1.61232 0
M  V30 11189 N 1052.41 -0.382291 -1.52893 0
M  V30 11190 C 1053.64 0.202408 -2.05908 0
M  V30 11191 C 1054.05 1.4109 -1.25456 0
M  V30 11192 O 1053.41 1.80027 -0.29942 0
M  V30 11193 C 1053.46 0.579452 -3.56826 0
M  V30 11194 O 1053.18 -0.58102 -4.3423 0
M  V30 11195 C 1054.68 1.22076 -4.2616 0
M  V30 11196 H 1051.9 0.0321859 -0.670228 0
M  V30 11197 H 1054.44 -0.545494 -1.9709 0
M  V30 11198 H 1052.6 1.27726 -3.65739 0
M  V30 11199 H 1053.01 -0.272693 -5.23791 0
M  V30 11200 H 1054.49 1.435 -5.33021 0
M  V30 11201 H 1054.96 2.18605 -3.80931 0
M  V30 11202 H 1055.57 0.563922 -4.21545 0
M  V30 11203 N 1053.89 1.57202 -0.111913 0
M  V30 11204 C 1054.83 2.16186 0.858286 0
M  V30 11205 C 1055.83 1.10917 1.28039 0
M  V30 11206 O 1057.03 1.29233 1.25295 0
M  V30 11207 H 1053.41 0.691777 0.29487 0
M  V30 11208 H 1055.38 2.96499 0.336265 0
M  V30 11209 C 1054.13 2.77024 2.10127 0
M  V30 11210 H 1053.45 3.5772 1.78539 0
M  V30 11211 H 1054.89 3.21841 2.76033 0
M  V30 11212 C 1053.35 1.73752 2.88638 0
M  V30 11213 O 1053.88 1.18659 3.83774 0
M  V30 11214 N 1052.09 1.43855 2.52496 0
M  V30 11215 H 1051.63 1.88846 1.75199 0
M  V30 11216 H 1051.59 0.749985 3.05324 0
M  V30 11217 N 1055.36 -0.161842 1.56767 0
M  V30 11218 C 1056.59 -0.892247 1.86672 0
M  V30 11219 C 1057.01 -1.75407 0.69841 0
M  V30 11220 O 1056.36 -1.7945 -0.332251 0
M  V30 11221 C 1056.41 -1.7612 3.15696 0
M  V30 11222 O 1056.14 -0.934131 4.28025 0
M  V30 11223 C 1057.64 -2.60046 3.59014 0
M  V30 11224 H 1054.86 -0.258747 0.619105 0
M  V30 11225 H 1057.4 -0.159089 2.0388 0
M  V30 11226 H 1055.56 -2.44759 3.00286 0
M  V30 11227 H 1055.97 -1.52931 5.01709 0
M  V30 11228 H 1057.44 -3.16618 4.5217 0
M  V30 11229 H 1057.92 -3.35374 2.83586 0
M  V30 11230 H 1058.53 -1.96724 3.77067 0
M  V30 11231 N 1056.84 -1.516 -0.430713 0
M  V30 11232 C 1057.77 -1.68084 -1.54347 0
M  V30 11233 C 1058.75 -0.528401 -1.53775 0
M  V30 11234 O 1059.94 -0.753072 -1.72804 0
M  V30 11235 C 1057.06 -1.70048 -2.92919 0
M  V30 11236 C 1056.11 -2.91336 -3.11489 0
M  V30 11237 S 1056.94 -4.52043 -2.87084 0
M  V30 11238 C 1058.1 -4.56761 -4.27926 0
M  V30 11239 H 1058.33 -2.62203 -1.40131 0
M  V30 11240 H 1055.86 -1.41368 -0.620853 0
M  V30 11241 H 1057.82 -1.71864 -3.72791 0
M  V30 11242 H 1056.48 -0.770946 -3.04492 0
M  V30 11243 H 1055.68 -2.8913 -4.1282 0
M  V30 11244 H 1055.28 -2.87296 -2.39451 0
M  V30 11245 H 1057.57 -4.32809 -5.21232 0
M  V30 11246 H 1058.51 -5.58604 -4.35163 0
M  V30 11247 H 1058.92 -3.86014 -4.1189 0
M  V30 11248 N 1058.32 0.686584 -1.41858 0
M  V30 11249 C 1059.23 1.83002 -1.46791 0
M  V30 11250 C 1060.25 1.70284 -0.357675 0
M  V30 11251 O 1061.42 1.92042 -0.606781 0
M  V30 11252 C 1058.49 3.19056 -1.35661 0
M  V30 11253 C 1057.55 3.43817 -2.57077 0
M  V30 11254 C 1056.78 4.7338 -2.46469 0
M  V30 11255 O 1057 5.50483 -1.49413 0
M  V30 11256 O 1055.94 4.99124 -3.36391 0
M  V30 11257 H 1059.76 1.81797 -2.43277 0
M  V30 11258 H 1057.35 0.840812 -1.23494 0
M  V30 11259 H 1059.23 4.00267 -1.31773 0
M  V30 11260 H 1057.91 3.20925 -0.422951 0
M  V30 11261 H 1056.81 2.625 -2.66541 0
M  V30 11262 H 1058.15 3.4677 -3.49302 0
M  V30 11263 N 1059.8 1.27835 0.921735 0
M  V30 11264 C 1060.71 1.12904 2.05645 0
M  V30 11265 C 1061.72 0.0575704 1.73905 0
M  V30 11266 O 1062.9 0.265261 1.99645 0
M  V30 11267 C 1059.96 0.783957 3.3772 0
M  V30 11268 C 1059.03 1.93694 3.8312 0
M  V30 11269 C 1058.26 1.60823 5.08893 0
M  V30 11270 O 1058.48 0.518873 5.68035 0
M  V30 11271 O 1057.42 2.44932 5.49811 0
M  V30 11272 H 1061.24 2.08143 2.21157 0
M  V30 11273 H 1058.83 1.07078 1.04185 0
M  V30 11274 H 1060.71 0.605107 4.17033 0
M  V30 11275 H 1059.38 -0.138849 3.23402 0
M  V30 11276 H 1058.29 2.17089 3.04669 0
M  V30 11277 H 1059.62 2.84016 4.0199 0
M  V30 11278 N 1061.28 -1.12907 1.09954 0
M  V30 11279 C 1062.21 -2.20585 0.765799 0
M  V30 11280 C 1063.19 -1.68117 -0.258989 0
M  V30 11281 O 1064.37 -1.93792 -0.125853 0
M  V30 11282 C 1061.5 -3.46772 0.191435 0
M  V30 11283 C 1060.46 -4.12363 1.14635 0
M  V30 11284 C 1059.78 -5.3294 0.433426 0
M  V30 11285 C 1061.08 -4.59073 2.49096 0
M  V30 11286 H 1062.78 -2.48759 1.66612 0
M  V30 11287 H 1060.32 -1.19563 0.802534 0
M  V30 11288 H 1062.27 -4.21365 -0.0541535 0
M  V30 11289 H 1061 -3.18011 -0.744101 0
M  V30 11290 H 1059.66 -3.39744 1.37731 0
M  V30 11291 H 1059.31 -5.00444 -0.506422 0
M  V30 11292 H 1059.01 -5.77772 1.07018 0
M  V30 11293 H 1060.53 -6.10284 0.196267 0
M  V30 11294 H 1061.94 -5.25063 2.30177 0
M  V30 11295 H 1060.34 -5.14665 3.0861 0
M  V30 11296 H 1061.41 -3.73313 3.0946 0
M  V30 11297 N 1062.75 -0.88754 -1.30232 0
M  V30 11298 C 1063.66 -0.360333 -2.31816 0
M  V30 11299 C 1064.68 0.538741 -1.6545 0
M  V30 11300 O 1065.86 0.431246 -1.96729 0
M  V30 11301 C 1062.92 0.414336 -3.44215 0
M  V30 11302 C 1061.98 -0.514799 -4.26202 0
M  V30 11303 C 1061.21 0.222994 -5.33234 0
M  V30 11304 O 1061.44 1.44871 -5.51696 0
M  V30 11305 O 1060.37 -0.428221 -6.00375 0
M  V30 11306 H 1064.2 -1.20279 -2.78867 0
M  V30 11307 H 1061.78 -0.651459 -1.34448 0
M  V30 11308 H 1063.66 0.852859 -4.12679 0
M  V30 11309 H 1062.34 1.23305 -2.99295 0
M  V30 11310 H 1061.25 -1.00219 -3.60426 0
M  V30 11311 H 1062.58 -1.29959 -4.74733 0
M  V30 11312 N 1064.23 1.43628 -0.648757 0
M  V30 11313 C 1065.14 2.34554 0.0463037 0
M  V30 11314 C 1066.16 1.53629 0.816952 0
M  V30 11315 O 1067.33 1.86297 0.765212 0
M  V30 11316 C 1064.4 3.3185 1.00381 0
M  V30 11317 C 1063.46 4.2868 0.230589 0
M  V30 11318 C 1062.69 5.21328 1.14249 0
M  V30 11319 O 1062.92 5.18298 2.38166 0
M  V30 11320 O 1061.85 5.98726 0.617296 0
M  V30 11321 H 1065.68 2.95475 -0.702008 0
M  V30 11322 H 1063.26 1.43694 -0.408942 0
M  V30 11323 H 1065.14 3.91692 1.5542 0
M  V30 11324 H 1063.82 2.73439 1.73243 0
M  V30 11325 H 1062.73 3.72332 -0.363282 0
M  V30 11326 H 1064.06 4.90061 -0.458368 0
M  V30 11327 N 1065.71 0.390394 1.52688 0
M  V30 11328 C 1066.94 -0.194013 2.06491 0
M  V30 11329 C 1067.36 -1.3965 1.26014 0
M  V30 11330 O 1066.72 -1.79038 0.285468 0
M  V30 11331 C 1066.77 -0.541306 3.56514 0
M  V30 11332 O 1065.87 -1.63509 3.78601 0
M  V30 11333 H 1065.21 -0.0223608 0.663623 0
M  V30 11334 H 1067.74 0.558179 1.96839 0
M  V30 11335 H 1067.75 -0.805301 3.99974 0
M  V30 11336 H 1066.43 0.337828 4.14526 0
M  V30 11337 H 1065 -1.36473 3.4703 0
M  V30 11338 N 1067.19 -1.57141 0.120249 0
M  V30 11339 C 1068.6 -1.5784 -0.236335 0
M  V30 11340 C 1068.8 -1.13304 -1.66626 0
M  V30 11341 O 1067.86 -0.821004 -2.3878 0
M  V30 11342 C 1069.17 -3.007 -0.00188211 0
M  V30 11343 C 1070.72 -3.12927 -0.0676838 0
M  V30 11344 C 1071.2 -4.57789 0.139092 0
M  V30 11345 N 1072.69 -4.63122 0.085104 0
M  V30 11346 C 1073.42 -5.72978 0.219983 0
M  V30 11347 N 1072.92 -6.91579 0.411102 0
M  V30 11348 N 1074.71 -5.61874 0.159469 0
M  V30 11349 H 1066.86 -1.84391 1.05422 0
M  V30 11350 H 1069.13 -0.852228 0.415225 0
M  V30 11351 H 1068.83 -3.37575 0.986718 0
M  V30 11352 H 1068.71 -3.70005 -0.733203 0
M  V30 11353 H 1071.09 -2.75909 -1.04681 0
M  V30 11354 H 1071.17 -2.46162 0.695538 0
M  V30 11355 H 1070.82 -4.95506 1.1152 0
M  V30 11356 H 1070.75 -5.22646 -0.644131 0
M  V30 11357 H 1073.24 -3.77854 -0.0590479 0
M  V30 11358 H 1073.55 -7.71149 0.504851 0
M  V30 11359 H 1071.9 -6.9356 0.447091 0
M  V30 11360 H 1075.09 -4.68099 0.0111131 0
M  V30 11361 H 1075.26 -6.47445 0.268028 0
M  V30 11362 N 1068.67 0.153526 -1.5685 0
M  V30 11363 C 1069.6 1.2147 -1.94365 0
M  V30 11364 C 1070.61 1.39532 -0.838726 0
M  V30 11365 O 1071.8 1.39219 -1.11715 0
M  V30 11366 C 1068.9 2.5806 -2.19677 0
M  V30 11367 C 1068.07 2.61062 -3.50949 0
M  V30 11368 C 1067.13 3.79144 -3.64878 0
M  V30 11369 O 1066.16 3.64319 -4.37333 0
M  V30 11370 N 1067.36 4.96333 -3.01054 0
M  V30 11371 H 1070.13 0.895889 -2.85996 0
M  V30 11372 H 1067.69 0.343147 -1.58222 0
M  V30 11373 H 1069.68 3.35553 -2.26243 0
M  V30 11374 H 1068.25 2.8226 -1.34343 0
M  V30 11375 H 1067.47 1.69533 -3.55882 0
M  V30 11376 H 1068.76 2.60094 -4.37297 0
M  V30 11377 H 1068.15 5.1128 -2.42093 0
M  V30 11378 H 1066.71 5.71625 -3.13191 0
M  V30 11379 N 1070.14 1.51827 0.422667 0
M  V30 11380 C 1071.09 1.74198 1.51406 0
M  V30 11381 C 1072.06 0.584013 1.55494 0
M  V30 11382 O 1073.25 0.820079 1.72277 0
M  V30 11383 C 1070.39 1.88627 2.88988 0
M  V30 11384 C 1069.5 3.16233 2.94314 0
M  V30 11385 C 1068.63 3.21172 4.2311 0
M  V30 11386 C 1067.67 4.43033 4.2236 0
M  V30 11387 N 1066.81 4.4544 5.42704 0
M  V30 11388 H 1071.65 2.67352 1.31632 0
M  V30 11389 H 1069.19 1.32487 0.63919 0
M  V30 11390 H 1071.15 1.94976 3.68837 0
M  V30 11391 H 1069.78 0.988673 3.07287 0
M  V30 11392 H 1068.83 3.19123 2.07039 0
M  V30 11393 H 1070.14 4.06104 2.89623 0
M  V30 11394 H 1069.29 3.26517 5.11343 0
M  V30 11395 H 1068.03 2.29216 4.30478 0
M  V30 11396 H 1067.04 4.37849 3.32518 0
M  V30 11397 H 1068.26 5.3627 4.16643 0
M  V30 11398 H 1066.21 3.56361 5.50766 0
M  V30 11399 H 1066.13 5.29138 5.39953 0
M  V30 11400 H 1067.39 4.54997 6.32928 0
M  V30 11401 N 1071.62 -0.679052 1.4222 0
M  V30 11402 C 1072.86 -1.45118 1.43945 0
M  V30 11403 C 1073.23 -1.91928 0.0524851 0
M  V30 11404 O 1074.43 -2.68743 -0.0555318 0
M  V30 11405 C 1072.7 -2.6191 2.43183 0
M  V30 11406 S 1074.26 -3.50819 2.63574 0
M  V30 11407 H 1071.08 -0.495695 0.509713 0
M  V30 11408 H 1073.68 -0.790842 1.7879 0
M  V30 11409 H 1072.38 -2.25752 3.42731 0
M  V30 11410 H 1071.91 -3.3282 2.09748 0
M  V30 11411 H 1073.93 -4.57735 1.91555 0
M  V30 11412 N 1073.1 -1.28322 -0.914942 0
M  V30 11413 C 1074.51 -1.13937 -1.47903 0
M  V30 11414 C 1074.86 0.271072 -1.94318 0
M  V30 11415 O 1073.99 1.16522 -1.8235 0
M  V30 11416 C 1074.58 -2.06221 -2.68809 0
M  V30 11417 C 1073.14 -1.95903 -3.21402 0
M  V30 11418 C 1072.29 -1.98031 -1.94111 0
M  V30 11419 H 1075.24 -1.41029 -0.727772 0
M  V30 11420 H 1075.26 -1.6255 -3.44031 0
M  V30 11421 H 1074.77 -3.08866 -2.34997 0
M  V30 11422 H 1072.87 -0.962907 -3.59943 0
M  V30 11423 H 1072.99 -2.82799 -3.86732 0
M  V30 11424 H 1071.35 -1.42423 -2.11158 0
M  V30 11425 H 1072.13 -3.02354 -1.62595 0
M  V30 11426 N 1074.58 1.12322 -1.10551 0
M  V30 11427 C 1075.99 1.6539 -0.8662 0
M  V30 11428 C 1076.34 1.86695 0.603284 0
M  V30 11429 O 1075.47 1.59432 1.46323 0
M  V30 11430 C 1076.06 3.00443 -1.56587 0
M  V30 11431 C 1074.62 3.50456 -1.37323 0
M  V30 11432 C 1073.77 2.25454 -1.61449 0
M  V30 11433 H 1076.72 0.960866 -1.26305 0
M  V30 11434 H 1076.74 3.66972 -1.00557 0
M  V30 11435 H 1076.25 2.84905 -2.63535 0
M  V30 11436 H 1074.35 3.71176 -0.325431 0
M  V30 11437 H 1074.46 4.29839 -2.11601 0
M  V30 11438 H 1072.83 2.32621 -1.03729 0
M  V30 11439 H 1073.61 2.12469 -2.69651 0
M  V30 11440 N 1076.06 0.894434 1.2976 0
M  V30 11441 C 1077.3 0.524501 1.97556 0
M  V30 11442 C 1077.66 -0.911202 1.69 0
M  V30 11443 O 1078.86 -1.38774 2.30207 0
M  V30 11444 C 1077.13 0.802636 3.48271 0
M  V30 11445 S 1078.69 0.536223 4.35511 0
M  V30 11446 H 1075.51 0.194786 0.683798 0
M  V30 11447 H 1078.11 1.15574 1.5768 0
M  V30 11448 H 1076.82 1.84586 3.66546 0
M  V30 11449 H 1076.35 0.159316 3.93077 0
M  V30 11450 H 1078.36 -0.621056 4.92298 0
M  V30 11451 N 1077.53 -1.43282 0.656365 0
M  V30 11452 C 1078.78 -2.02603 0.179905 0
M  V30 11453 C 1079.14 -1.50875 -1.19393 0
M  V30 11454 O 1078.43 -0.6935 -1.78609 0
M  V30 11455 C 1078.62 -3.57148 0.134225 0
M  V30 11456 C 1078.45 -4.23872 1.50209 0
M  V30 11457 C 1077.22 -4.59812 2.09526 0
M  V30 11458 C 1079.42 -4.52674 2.44112 0
M  V30 11459 N 1077.4 -5.11624 3.39284 0
M  V30 11460 C 1078.77 -5.05839 3.58506 0
M  V30 11461 C 1080.83 -4.34645 2.42874 0
M  V30 11462 C 1079.53 -5.42872 4.71892 0
M  V30 11463 C 1081.56 -4.72742 3.55343 0
M  V30 11464 C 1080.92 -5.26043 4.68463 0
M  V30 11465 H 1077.02 -0.774177 0.110334 0
M  V30 11466 H 1079.6 -1.74413 0.865352 0
M  V30 11467 H 1077.77 -3.84896 -0.520575 0
M  V30 11468 H 1079.5 -4.03154 -0.3534 0
M  V30 11469 H 1076.26 -4.44958 1.62203 0
M  V30 11470 H 1076.68 -5.4198 4.05693 0
M  V30 11471 H 1081.33 -3.92708 1.56654 0
M  V30 11472 H 1079.04 -5.83752 5.58802 0
M  V30 11473 H 1082.63 -4.60485 3.55591 0
M  V30 11474 H 1081.51 -5.54975 5.54051 0
M  V30 11475 N 1079.01 -0.398486 -1.52479 0
M  V30 11476 C 1080.24 0.180295 -2.05812 0
M  V30 11477 C 1080.65 1.40301 -1.26934 0
M  V30 11478 O 1079.99 1.81039 -0.311544 0
M  V30 11479 C 1080.06 0.60601 -3.54355 0
M  V30 11480 C 1079.72 -0.504508 -4.54207 0
M  V30 11481 C 1080.72 -1.36478 -5.01667 0
M  V30 11482 C 1078.4 -0.674161 -4.97755 0
M  V30 11483 C 1080.4 -2.37975 -5.91309 0
M  V30 11484 C 1078.08 -1.69246 -5.87196 0
M  V30 11485 C 1079.08 -2.54367 -6.33866 0
M  V30 11486 O 1078.77 -3.54454 -7.21538 0
M  V30 11487 H 1078.5 0.0286396 -0.675393 0
M  V30 11488 H 1081.06 -0.564912 -1.97479 0
M  V30 11489 H 1079.29 1.40334 -3.60338 0
M  V30 11490 H 1080.97 1.1115 -3.90385 0
M  V30 11491 H 1081.74 -1.24506 -4.68746 0
M  V30 11492 H 1077.62 -0.0213029 -4.60995 0
M  V30 11493 H 1081.16 -3.0445 -6.27659 0
M  V30 11494 H 1077.06 -1.81252 -6.1953 0
M  V30 11495 H 1077.83 -3.50571 -7.39623 0
M  V30 11496 N 1080.49 1.57075 -0.12858 0
M  V30 11497 C 1081.91 1.57964 0.227961 0
M  V30 11498 C 1082.11 1.14186 1.66023 0
M  V30 11499 O 1081.16 0.833655 2.38341 0
M  V30 11500 C 1082.48 3.00697 -0.0140648 0
M  V30 11501 C 1084.02 3.12958 0.0510876 0
M  V30 11502 C 1084.5 4.57709 -0.163368 0
M  V30 11503 N 1085.99 4.6307 -0.109663 0
M  V30 11504 C 1086.73 5.72853 -0.250366 0
M  V30 11505 N 1086.22 6.91351 -0.447772 0
M  V30 11506 N 1088.01 5.61781 -0.189265 0
M  V30 11507 H 1080.17 1.83829 -1.06398 0
M  V30 11508 H 1082.43 0.850014 -0.419739 0
M  V30 11509 H 1082.13 3.37047 -1.00461 0
M  V30 11510 H 1082.01 3.70389 0.713571 0
M  V30 11511 H 1084.4 2.7646 1.03216 0
M  V30 11512 H 1084.48 2.4579 -0.708583 0
M  V30 11513 H 1084.12 4.94907 -1.14146 0
M  V30 11514 H 1084.05 5.2298 0.616405 0
M  V30 11515 H 1086.54 3.7788 0.0390086 0
M  V30 11516 H 1086.85 7.70871 -0.54574 0
M  V30 11517 H 1085.2 6.93314 -0.483866 0
M  V30 11518 H 1088.39 4.68086 -0.0359374 0
M  V30 11519 H 1088.56 6.47294 -0.302359 0
M  V30 11520 N 1081.97 -0.145205 1.5693 0
M  V30 11521 C 1083.22 -0.857516 1.83447 0
M  V30 11522 C 1083.54 -1.81088 0.709739 0
M  V30 11523 O 1082.8 -1.9337 -0.301097 0
M  V30 11524 C 1083.1 -1.66391 3.16305 0
M  V30 11525 C 1082.76 -0.857171 4.42678 0
M  V30 11526 C 1081.43 -0.634611 4.76997 0
M  V30 11527 C 1083.78 -0.293105 5.20375 0
M  V30 11528 C 1081.11 0.162693 5.86474 0
M  V30 11529 C 1083.46 0.491248 6.3069 0
M  V30 11530 C 1082.12 0.724368 6.63558 0
M  V30 11531 H 1081.39 -0.313787 0.671281 0
M  V30 11532 H 1084.04 -0.121074 1.91117 0
M  V30 11533 H 1082.34 -2.47051 3.04094 0
M  V30 11534 H 1084.04 -2.21855 3.34038 0
M  V30 11535 H 1080.63 -1.0407 4.15773 0
M  V30 11536 H 1084.82 -0.452326 4.94234 0
M  V30 11537 H 1080.07 0.352788 6.10381 0
M  V30 11538 H 1084.25 0.935449 6.90089 0
M  V30 11539 H 1081.87 1.34403 7.48224 0
M  V30 11540 N 1083.45 -1.52049 -0.414609 0
M  V30 11541 C 1084.41 -1.74382 -1.4874 0
M  V30 11542 C 1085.41 -0.613701 -1.48628 0
M  V30 11543 O 1086.6 -0.88152 -1.50249 0
M  V30 11544 C 1083.73 -1.82116 -2.88178 0
M  V30 11545 H 1084.93 -2.70147 -1.30233 0
M  V30 11546 H 1082.48 -1.42382 -0.644756 0
M  V30 11547 H 1083.21 -0.882457 -3.12063 0
M  V30 11548 H 1083 -2.64268 -2.89663 0
M  V30 11549 H 1084.49 -2.01155 -3.65959 0
M  V30 11550 N 1084.93 0.6715 -1.42579 0
M  V30 11551 C 1085.87 1.80623 -1.46554 0
M  V30 11552 C 1086.87 1.65934 -0.340932 0
M  V30 11553 O 1088.07 1.72502 -0.514098 0
M  V30 11554 H 1084.45 0.595619 -0.459067 0
M  V30 11555 H 1086.42 1.74388 -2.42139 0
M  V30 11556 C 1085.17 3.18794 -1.38801 0
M  V30 11557 H 1084.49 3.30725 -2.24635 0
M  V30 11558 H 1085.93 3.98201 -1.45645 0
M  V30 11559 C 1084.39 3.36742 -0.103219 0
M  V30 11560 O 1084.92 3.92761 0.842715 0
M  V30 11561 N 1083.13 2.90594 -0.0193034 0
M  V30 11562 H 1082.67 2.45192 -0.78986 0
M  V30 11563 H 1082.63 3.0298 0.839686 0
M  V30 11564 N 1086.4 1.28806 0.908124 0
M  V30 11565 C 1087.65 1.1646 1.66027 0
M  V30 11566 C 1087.98 -0.285025 1.92097 0
M  V30 11567 O 1087.26 -1.20675 1.52538 0
M  V30 11568 C 1087.54 1.96951 3.01467 0
M  V30 11569 C 1087.39 3.50007 2.82515 0
M  V30 11570 C 1088.71 1.78932 4.02084 0
M  V30 11571 H 1085.83 0.424435 0.602515 0
M  V30 11572 H 1088.47 1.58185 1.0525 0
M  V30 11573 H 1086.62 1.61495 3.53344 0
M  V30 11574 H 1088.3 3.95401 2.37605 0
M  V30 11575 H 1086.54 3.75356 2.17463 0
M  V30 11576 H 1087.21 4.01591 3.7872 0
M  V30 11577 H 1089.69 2.09885 3.59287 0
M  V30 11578 H 1088.56 2.37615 4.94803 0
M  V30 11579 H 1088.82 0.742286 4.35824 0
M  V30 11580 N 1087.88 -1.11734 1.11145 0
M  V30 11581 C 1089.13 -1.83405 0.858413 0
M  V30 11582 C 1089.46 -1.84488 -0.615975 0
M  V30 11583 O 1088.71 -1.29123 -1.47057 0
M  V30 11584 C 1089.01 -3.3046 1.36129 0
M  V30 11585 C 1088.68 -3.4954 2.84837 0
M  V30 11586 C 1087.34 -3.54456 3.25445 0
M  V30 11587 C 1089.69 -3.56048 3.8063 0
M  V30 11588 C 1087.02 -3.63431 4.60581 0
M  V30 11589 C 1089.37 -3.66554 5.15579 0
M  V30 11590 C 1088.03 -3.69728 5.55749 0
M  V30 11591 H 1087.3 -0.671128 0.314115 0
M  V30 11592 H 1089.95 -1.31795 1.38933 0
M  V30 11593 H 1088.26 -3.84544 0.750547 0
M  V30 11594 H 1089.95 -3.84398 1.14188 0
M  V30 11595 H 1086.54 -3.46382 2.52423 0
M  V30 11596 H 1090.73 -3.51513 3.5036 0
M  V30 11597 H 1085.98 -3.64164 4.91116 0
M  V30 11598 H 1090.16 -3.70532 5.89643 0
M  V30 11599 H 1087.78 -3.76435 6.60455 0
M  V30 11600 N 1089.36 -0.901303 -1.29284 0
M  V30 11601 C 1090.29 -0.396909 -2.30102 0
M  V30 11602 C 1091.27 0.528919 -1.61668 0
M  V30 11603 O 1092.46 0.439306 -1.89166 0
M  V30 11604 C 1089.59 0.375006 -3.45269 0
M  V30 11605 C 1088.54 -0.46054 -4.25515 0
M  V30 11606 C 1087.87 0.438967 -5.32895 0
M  V30 11607 C 1089.17 -1.7113 -4.93469 0
M  V30 11608 H 1090.86 -1.23943 -2.72541 0
M  V30 11609 H 1088.41 -0.597428 -1.31022 0
M  V30 11610 H 1090.36 0.738622 -4.14876 0
M  V30 11611 H 1089.08 1.25132 -3.01678 0
M  V30 11612 H 1087.74 -0.80651 -3.57618 0
M  V30 11613 H 1087.39 1.31346 -4.85548 0
M  V30 11614 H 1087.09 -0.116406 -5.87485 0
M  V30 11615 H 1088.61 0.79874 -6.05353 0
M  V30 11616 H 1090.03 -1.41732 -5.55504 0
M  V30 11617 H 1088.42 -2.20811 -5.57999 0
M  V30 11618 H 1089.49 -2.44636 -4.18666 0
M  V30 11619 N 1090.84 1.42931 -0.663954 0
M  V30 11620 C 1092.09 2.00904 -0.179011 0
M  V30 11621 C 1092.4 1.53056 1.21791 0
M  V30 11622 O 1093.61 2.03374 1.79865 0
M  V30 11623 C 1092.06 3.58892 -0.269198 0
M  V30 11624 C 1091.67 4.15731 -1.66949 0
M  V30 11625 C 1093.41 4.24207 0.157589 0
M  V30 11626 C 1091.32 5.66047 -1.71303 0
M  V30 11627 H 1090.25 0.75135 -0.0631623 0
M  V30 11628 H 1092.9 1.6378 -0.827556 0
M  V30 11629 H 1091.28 3.93469 0.447048 0
M  V30 11630 H 1092.46 3.92634 -2.41195 0
M  V30 11631 H 1090.77 3.62826 -2.04318 0
M  V30 11632 H 1093.37 5.34503 0.145057 0
M  V30 11633 H 1093.71 3.98901 1.19095 0
M  V30 11634 H 1094.25 3.94552 -0.507274 0
M  V30 11635 H 1090.98 5.96136 -2.72584 0
M  V30 11636 H 1090.5 5.91167 -1.01398 0
M  V30 11637 H 1092.18 6.30275 -1.46158 0
M  V30 11638 N 1092.32 0.406567 1.52266 0
M  V30 11639 C 1093.56 -0.1627 2.02748 0
M  V30 11640 C 1093.92 -1.43022 1.28695 0
M  V30 11641 O 1093.21 -1.87715 0.383881 0
M  V30 11642 C 1093.4 -0.467124 3.54334 0
M  V30 11643 C 1093.23 0.76934 4.4307 0
M  V30 11644 C 1092 1.29377 4.88456 0
M  V30 11645 C 1094.2 1.64671 4.87225 0
M  V30 11646 N 1092.18 2.48599 5.61313 0
M  V30 11647 C 1093.55 2.68519 5.58836 0
M  V30 11648 C 1095.61 1.66477 4.69244 0
M  V30 11649 C 1094.31 3.74081 6.14374 0
M  V30 11650 C 1096.34 2.70956 5.25677 0
M  V30 11651 C 1095.7 3.73525 5.97209 0
M  V30 11652 H 1091.8 -0.0211706 0.781713 0
M  V30 11653 H 1094.38 0.560338 1.86463 0
M  V30 11654 H 1092.55 -1.15921 3.70698 0
M  V30 11655 H 1094.29 -1.02505 3.91503 0
M  V30 11656 H 1091.04 0.85219 4.6587 0
M  V30 11657 H 1091.46 3.0897 6.02384 0
M  V30 11658 H 1096.11 0.88519 4.1343 0
M  V30 11659 H 1093.82 4.52896 6.69261 0
M  V30 11660 H 1097.41 2.73258 5.13635 0
M  V30 11661 H 1096.29 4.53043 6.40095 0
M  V30 11662 N 1093.79 -1.57004 0.136909 0
M  V30 11663 C 1095.07 -1.87375 -0.561233 0
M  V30 11664 C 1095.45 -1.04117 -1.83638 0
M  V30 11665 O 1094.8 -0.125103 -2.28157 0
M  V30 11666 C 1095.01 -3.38829 -0.836426 0
M  V30 11667 C 1096.36 -4.07826 -1.18164 0
M  V30 11668 O 1097.38 -3.4395 -0.92611 0
M  V30 11669 O 1096.24 -5.20614 -1.66204 0
M  V30 11670 H 1093.33 -0.776287 -0.285145 0
M  V30 11671 H 1095.88 -1.68818 0.172761 0
M  V30 11672 H 1094.65 -3.91244 0.066442 0
M  V30 11673 H 1094.28 -3.62879 -1.62496 0
M  V30 11674 N 1095.27 0.136881 -1.57004 0
M  V30 11675 C 1096.51 0.853873 -1.8571 0
M  V30 11676 C 1096.88 1.77885 -0.722556 0
M  V30 11677 O 1098.08 2.53606 -0.89092 0
M  V30 11678 C 1096.35 1.59935 -3.19618 0
M  V30 11679 S 1097.91 2.36038 -3.69908 0
M  V30 11680 H 1094.73 0.285342 -0.65123 0
M  V30 11681 H 1097.33 0.113254 -1.95172 0
M  V30 11682 H 1096.03 0.91148 -4.0015 0
M  V30 11683 H 1095.56 2.38069 -3.13188 0
M  V30 11684 H 1097.58 3.61425 -3.3998 0
M  V30 11685 N 1096.75 1.52266 0.40654 0
M  V30 11686 C 1097.99 1.6813 1.16239 0
M  V30 11687 C 1098.35 0.403791 1.87706 0
M  V30 11688 O 1099.56 0.438566 2.65198 0
M  V30 11689 C 1097.83 2.87115 2.12837 0
M  V30 11690 S 1099.39 3.23475 2.96495 0
M  V30 11691 H 1096.2 0.59202 0.393743 0
M  V30 11692 H 1098.81 1.90266 0.449325 0
M  V30 11693 H 1097.51 3.78337 1.59026 0
M  V30 11694 H 1097.04 2.6726 2.88679 0
M  V30 11695 H 1099.06 2.72299 4.14811 0
M  V30 11696 N 1098.23 -0.663929 1.42933 0
M  V30 11697 C 1099.51 -1.42054 1.34462 0
M  V30 11698 C 1099.89 -2.11096 -0.0127801 0
M  V30 11699 O 1099.23 -2.04027 -1.02884 0
M  V30 11700 C 1099.44 -2.41406 2.5204 0
M  V30 11701 C 1100.79 -3.05726 2.94647 0
M  V30 11702 O 1101.82 -2.51733 2.52009 0
M  V30 11703 O 1100.67 -4.03593 3.68477 0
M  V30 11704 H 1097.77 -0.634149 0.530834 0
M  V30 11705 H 1100.31 -0.691738 1.54962 0
M  V30 11706 H 1099.09 -1.89263 3.42484 0
M  V30 11707 H 1098.71 -3.21752 2.33584 0
M  V30 11708 N 1099.71 -1.29285 -0.901281 0
M  V30 11709 C 1100.67 -1.14283 -1.98676 0
M  V30 11710 C 1101.67 -0.0787641 -1.60607 0
M  V30 11711 O 1102.86 -0.325574 -1.71131 0
M  V30 11712 C 1099.99 -0.747279 -3.32609 0
M  V30 11713 H 1101.18 -2.10701 -2.13413 0
M  V30 11714 H 1098.74 -1.12449 -1.08558 0
M  V30 11715 H 1099.47 0.217111 -3.23572 0
M  V30 11716 H 1099.26 -1.51608 -3.61604 0
M  V30 11717 H 1100.75 -0.665322 -4.12266 0
M  V30 11718 N 1101.18 1.11143 -1.11736 0
M  V30 11719 C 1102.43 1.8341 -0.879329 0
M  V30 11720 C 1102.79 1.83174 0.588657 0
M  V30 11721 O 1102.08 1.27609 1.42922 0
M  V30 11722 C 1102.27 3.29733 -1.3788 0
M  V30 11723 C 1102.1 3.44222 -2.89381 0
M  V30 11724 C 1100.87 3.57065 -3.57537 0
M  V30 11725 C 1103.07 3.38246 -3.8742 0
M  V30 11726 N 1101.05 3.60056 -4.97225 0
M  V30 11727 C 1102.42 3.47894 -5.13196 0
M  V30 11728 C 1104.48 3.21797 -3.79935 0
M  V30 11729 C 1103.18 3.4279 -6.32367 0
M  V30 11730 C 1105.21 3.18011 -4.98621 0
M  V30 11731 C 1104.57 3.28234 -6.23251 0
M  V30 11732 H 1100.67 0.686248 -0.374951 0
M  V30 11733 H 1103.25 1.32962 -1.42229 0
M  V30 11734 H 1101.42 3.78691 -0.86298 0
M  V30 11735 H 1103.15 3.89924 -1.08359 0
M  V30 11736 H 1099.91 3.59759 -3.08011 0
M  V30 11737 H 1100.33 3.65181 -5.70063 0
M  V30 11738 H 1104.98 3.12777 -2.84482 0
M  V30 11739 H 1102.69 3.50577 -7.28094 0
M  V30 11740 H 1106.28 3.06446 -4.94552 0
M  V30 11741 H 1105.16 3.25297 -7.13549 0
M  V30 11742 N 1102.66 0.908147 1.28804 0
M  V30 11743 C 1103.59 0.409106 2.29888 0
M  V30 11744 C 1104.57 -0.520338 1.61946 0
M  V30 11745 O 1105.76 -0.429268 1.89396 0
M  V30 11746 C 1102.89 -0.35669 3.45463 0
M  V30 11747 C 1101.84 0.4831 4.25265 0
M  V30 11748 C 1101.17 -0.4107 5.3312 0
M  V30 11749 C 1102.47 1.73744 4.92555 0
M  V30 11750 H 1104.16 1.25386 2.7188 0
M  V30 11751 H 1101.71 0.604368 1.30703 0
M  V30 11752 H 1103.66 -0.71661 4.15262 0
M  V30 11753 H 1102.39 -1.2353 3.02337 0
M  V30 11754 H 1101.04 0.825464 3.57186 0
M  V30 11755 H 1100.69 -1.28769 4.86238 0
M  V30 11756 H 1100.39 0.14756 5.87415 0
M  V30 11757 H 1101.92 -0.766626 6.05768 0
M  V30 11758 H 1103.33 1.44676 5.54745 0
M  V30 11759 H 1101.73 2.23767 5.5682 0
M  V30 11760 H 1102.8 2.46853 4.17363 0
M  V30 11761 N 1104.14 -1.42577 0.671525 0
M  V30 11762 C 1105.09 -2.30798 -0.00883676 0
M  V30 11763 C 1106.06 -1.4578 -0.796076 0
M  V30 11764 O 1107.24 -1.74617 -0.768987 0
M  V30 11765 C 1104.38 -3.31581 -0.956452 0
M  V30 11766 C 1103.5 -4.31691 -0.163381 0
M  V30 11767 C 1102.63 -5.19549 -1.10645 0
M  V30 11768 C 1101.67 -6.1134 -0.304876 0
M  V30 11769 N 1100.81 -6.91761 -1.20048 0
M  V30 11770 H 1105.65 -2.88426 0.749301 0
M  V30 11771 H 1103.18 -1.42074 0.381251 0
M  V30 11772 H 1105.14 -3.88539 -1.51966 0
M  V30 11773 H 1103.77 -2.75561 -1.68126 0
M  V30 11774 H 1102.82 -3.76879 0.516396 0
M  V30 11775 H 1104.14 -4.96683 0.459099 0
M  V30 11776 H 1103.29 -5.81223 -1.73969 0
M  V30 11777 H 1102.03 -4.54726 -1.76282 0
M  V30 11778 H 1101.03 -5.48738 0.341597 0
M  V30 11779 H 1102.26 -6.78211 0.347352 0
M  V30 11780 H 1100.2 -6.2957 -1.84331 0
M  V30 11781 H 1100.12 -7.53345 -0.633003 0
M  V30 11782 H 1101.39 -7.57924 -1.82129 0
M  V30 11783 N 1105.62 -0.414636 -1.52048 0
M  V30 11784 C 1106.86 0.159585 -2.02171 0
M  V30 11785 C 1107.2 1.44321 -1.29943 0
M  V30 11786 O 1106.47 1.90185 -0.407402 0
M  V30 11787 C 1106.76 0.401655 -3.57853 0
M  V30 11788 C 1106.61 -0.899026 -4.40724 0
M  V30 11789 C 1107.93 1.1814 -4.23947 0
M  V30 11790 H 1105.05 0.0565257 -0.734829 0
M  V30 11791 H 1107.69 -0.549183 -1.8189 0
M  V30 11792 H 1105.84 1.00541 -3.75265 0
M  V30 11793 H 1107.51 -1.53502 -4.35011 0
M  V30 11794 H 1105.75 -1.50877 -4.06717 0
M  V30 11795 H 1106.42 -0.683974 -5.47746 0
M  V30 11796 H 1108.9 0.670203 -4.10667 0
M  V30 11797 H 1107.78 1.31953 -5.32804 0
M  V30 11798 H 1108.04 2.2035 -3.83273 0
M  V30 11799 N 1107.1 1.56929 -0.145233 0
M  V30 11800 C 1108.04 2.16671 0.795128 0
M  V30 11801 C 1109.01 1.09908 1.24537 0
M  V30 11802 O 1110.2 1.37941 1.31821 0
M  V30 11803 C 1107.34 2.79111 2.02956 0
M  V30 11804 C 1106.45 4.00261 1.62528 0
M  V30 11805 C 1105.59 4.50705 2.81137 0
M  V30 11806 C 1104.63 5.64324 2.37075 0
M  V30 11807 N 1103.76 6.09395 3.48687 0
M  V30 11808 H 1108.6 2.96692 0.278865 0
M  V30 11809 H 1106.14 1.4656 0.125934 0
M  V30 11810 H 1108.1 3.13456 2.7532 0
M  V30 11811 H 1106.73 2.01737 2.51996 0
M  V30 11812 H 1105.78 3.71906 0.799365 0
M  V30 11813 H 1107.09 4.8258 1.26166 0
M  V30 11814 H 1106.25 4.87096 3.61693 0
M  V30 11815 H 1104.98 3.67389 3.20744 0
M  V30 11816 H 1103.99 5.27511 1.54958 0
M  V30 11817 H 1105.21 6.49425 1.98556 0
M  V30 11818 H 1103.16 5.29014 3.87917 0
M  V30 11819 H 1103.08 6.86636 3.16333 0
M  V30 11820 H 1104.35 6.50431 4.29605 0
M  V30 11821 N 1108.58 -0.128553 1.57075 0
M  V30 11822 C 1109.53 -1.16373 1.96065 0
M  V30 11823 C 1110.51 -1.37579 0.834323 0
M  V30 11824 O 1111.7 -1.38831 1.09795 0
M  V30 11825 C 1108.83 -2.49276 2.36043 0
M  V30 11826 C 1107.92 -2.31586 3.55287 0
M  V30 11827 N 1108.31 -1.83688 4.71267 0
M  V30 11828 C 1106.61 -2.62275 3.60732 0
M  V30 11829 C 1107.31 -1.79479 5.53319 0
M  V30 11830 N 1106.28 -2.23474 4.95541 0
M  V30 11831 H 1110.08 -0.785792 2.832 0
M  V30 11832 H 1107.6 -0.33641 1.58877 0
M  V30 11833 H 1109.6 -3.24134 2.62188 0
M  V30 11834 H 1108.26 -2.87837 1.50267 0
M  V30 11835 H 1109.27 -1.53376 4.94668 0
M  V30 11836 H 1105.94 -3.04586 2.85541 0
M  V30 11837 H 1107.33 -1.43781 6.56336 0
M  V30 11838 N 1110.05 -1.5248 -0.398459 0
M  V30 11839 C 1110.98 -1.79549 -1.49279 0
M  V30 11840 C 1111.96 -0.647004 -1.57315 0
M  V30 11841 O 1113.15 -0.893661 -1.72416 0
M  V30 11842 C 1110.28 -1.95582 -2.86993 0
M  V30 11843 C 1109.23 -3.1123 -2.93803 0
M  V30 11844 C 1108.56 -3.12501 -4.33874 0
M  V30 11845 C 1109.86 -4.50485 -2.64312 0
M  V30 11846 H 1111.55 -2.71187 -1.26877 0
M  V30 11847 H 1109.1 -1.30492 -0.608924 0
M  V30 11848 H 1111.05 -2.13102 -3.63546 0
M  V30 11849 H 1109.78 -1.00625 -3.10712 0
M  V30 11850 H 1108.44 -2.93477 -2.19697 0
M  V30 11851 H 1108.08 -2.15245 -4.54619 0
M  V30 11852 H 1107.78 -3.90183 -4.39353 0
M  V30 11853 H 1109.31 -3.32164 -5.12347 0
M  V30 11854 H 1110.72 -4.68387 -3.30585 0
M  V30 11855 H 1109.12 -5.30163 -2.81153 0
M  V30 11856 H 1110.19 -4.57848 -1.59696 0
M  V30 11857 N 1111.53 0.65634 -1.43283 0
M  V30 11858 C 1112.78 1.41837 -1.44949 0
M  V30 11859 C 1113.11 1.94065 -0.0723212 0
M  V30 11860 O 1112.39 1.72092 0.906346 0
M  V30 11861 C 1112.67 2.60206 -2.48927 0
M  V30 11862 C 1112.52 2.1349 -3.95907 0
M  V30 11863 C 1113.84 3.62421 -2.49678 0
M  V30 11864 H 1110.96 0.514398 -0.527792 0
M  V30 11865 H 1113.6 0.74435 -1.74813 0
M  V30 11866 H 1111.75 3.17708 -2.23592 0
M  V30 11867 H 1113.42 1.61012 -4.32288 0
M  V30 11868 H 1111.67 1.4489 -4.08888 0
M  V30 11869 H 1112.34 2.98596 -4.64268 0
M  V30 11870 H 1114.81 3.14671 -2.72252 0
M  V30 11871 H 1113.69 4.42798 -3.24378 0
M  V30 11872 H 1113.95 4.14802 -1.52944 0
M  V30 11873 N 1113.01 1.29761 0.894412 0
M  V30 11874 C 1113.96 1.15232 2.0205 0
M  V30 11875 C 1114.95 0.0665664 1.69269 0
M  V30 11876 O 1116.16 0.226746 1.78566 0
M  V30 11877 H 1112.53 0.356102 0.662341 0
M  V30 11878 H 1114.5 2.10559 2.11442 0
M  V30 11879 C 1113.25 0.851143 3.37121 0
M  V30 11880 H 1112.58 1.67865 3.62852 0
M  V30 11881 H 1114.02 0.78954 4.16584 0
M  V30 11882 C 1112.47 -0.445737 3.33938 0
M  V30 11883 O 1113 -1.47017 3.7383 0
M  V30 11884 N 1111.21 -0.453493 2.8704 0
M  V30 11885 H 1110.76 0.380636 2.54772 0
M  V30 11886 H 1110.72 -1.32119 2.85293 0
M  V30 11887 N 1114.49 -1.10549 1.12324 0
M  V30 11888 C 1115.42 -2.18911 0.812416 0
M  V30 11889 C 1116.4 -1.68628 -0.22327 0
M  V30 11890 O 1117.58 -1.94015 -0.0847184 0
M  V30 11891 C 1114.71 -3.46288 0.264947 0
M  V30 11892 C 1113.67 -4.09838 1.23356 0
M  V30 11893 C 1112.99 -5.31901 0.546374 0
M  V30 11894 C 1114.29 -4.53686 2.58778 0
M  V30 11895 H 1115.99 -2.45169 1.71851 0
M  V30 11896 H 1113.53 -1.17834 0.827715 0
M  V30 11897 H 1115.49 -4.21385 0.0352364 0
M  V30 11898 H 1114.21 -3.19517 -0.676479 0
M  V30 11899 H 1112.87 -3.36746 1.44906 0
M  V30 11900 H 1112.52 -5.01406 -0.400157 0
M  V30 11901 H 1112.22 -5.75372 1.19249 0
M  V30 11902 H 1113.74 -6.09731 0.325673 0
M  V30 11903 H 1115.16 -5.20063 2.41263 0
M  V30 11904 H 1113.55 -5.08003 3.19457 0
M  V30 11905 H 1114.62 -3.66665 3.17309 0
M  V30 11906 N 1115.97 -0.914965 -1.28321 0
M  V30 11907 C 1117.21 -0.544639 -1.94208 0
M  V30 11908 C 1117.53 0.916368 -1.72806 0
M  V30 11909 O 1118.73 1.39491 -2.32926 0
M  V30 11910 C 1117.19 -0.923209 -3.47858 0
M  V30 11911 C 1116.8 -2.40403 -3.78035 0
M  V30 11912 C 1118.54 -0.623526 -4.19896 0
M  V30 11913 C 1116.45 -2.72266 -5.25 0
M  V30 11914 H 1115.38 -0.199966 -0.727 0
M  V30 11915 H 1118.03 -1.11405 -1.45812 0
M  V30 11916 H 1116.41 -0.282576 -3.94991 0
M  V30 11917 H 1117.59 -3.09149 -3.41706 0
M  V30 11918 H 1115.9 -2.67429 -3.19172 0
M  V30 11919 H 1118.5 -0.838243 -5.28089 0
M  V30 11920 H 1118.84 0.438721 -4.13982 0
M  V30 11921 H 1119.37 -1.22268 -3.78544 0
M  V30 11922 H 1116.11 -3.77349 -5.35993 0
M  V30 11923 H 1115.63 -2.08157 -5.62522 0
M  V30 11924 H 1117.31 -2.59334 -5.92752 0
M  V30 11925 N 1117.44 1.42219 -0.679077 0
M  V30 11926 C 1118.69 2.01777 -0.20342 0
M  V30 11927 C 1119.02 1.53592 1.18841 0
M  V30 11928 O 1118.3 0.739954 1.79875 0
M  V30 11929 C 1118.58 3.59281 -0.242791 0
M  V30 11930 C 1118.43 4.17634 -1.67038 0
M  V30 11931 C 1119.75 4.38218 0.406624 0
M  V30 11932 H 1116.87 0.733134 -0.0753916 0
M  V30 11933 H 1119.51 1.69185 -0.864673 0
M  V30 11934 H 1117.66 3.87178 0.320248 0
M  V30 11935 H 1119.34 4.00674 -2.286 0
M  V30 11936 H 1117.58 3.73301 -2.20973 0
M  V30 11937 H 1118.25 5.26776 -1.64958 0
M  V30 11938 H 1120.73 4.16036 -0.0727077 0
M  V30 11939 H 1119.6 5.47793 0.348457 0
M  V30 11940 H 1119.86 4.16418 1.48487 0
M  V30 11941 N 1118.92 0.422693 1.51826 0
M  V30 11942 C 1119.85 -0.440987 2.23899 0
M  V30 11943 C 1120.83 -1.03685 1.25252 0
M  V30 11944 O 1122.02 -1.08212 1.54345 0
M  V30 11945 C 1119.14 -1.61331 2.97809 0
M  V30 11946 C 1118.19 -1.13954 4.10995 0
M  V30 11947 S 1119.02 -0.0935426 5.35418 0
M  V30 11948 C 1120.18 -1.27087 6.12862 0
M  V30 11949 H 1120.41 0.170945 2.96808 0
M  V30 11950 H 1117.94 0.20709 1.53005 0
M  V30 11951 H 1119.9 -2.28546 3.40994 0
M  V30 11952 H 1118.56 -2.19662 2.24516 0
M  V30 11953 H 1117.76 -2.01578 4.61933 0
M  V30 11954 H 1117.36 -0.545838 3.69995 0
M  V30 11955 H 1119.65 -2.19199 6.4106 0
M  V30 11956 H 1120.59 -0.801752 7.03546 0
M  V30 11957 H 1121 -1.50281 5.44129 0
M  V30 11958 N 1120.4 -1.5685 0.153553 0
M  V30 11959 C 1121.68 -1.8796 -0.541328 0
M  V30 11960 C 1122.06 -1.06059 -1.82523 0
M  V30 11961 O 1121.4 -0.149295 -2.28012 0
M  V30 11962 C 1121.61 -3.39697 -0.800442 0
M  V30 11963 C 1122.96 -4.09057 -1.13832 0
M  V30 11964 O 1123.99 -3.44913 -0.889578 0
M  V30 11965 O 1122.85 -5.22347 -1.60673 0
M  V30 11966 H 1119.94 -0.779268 -0.276895 0
M  V30 11967 H 1122.49 -1.68626 0.190657 0
M  V30 11968 H 1121.26 -3.91151 0.107935 0
M  V30 11969 H 1120.88 -3.64582 -1.58638 0
M  V30 11970 N 1121.88 0.120221 -1.57141 0
M  V30 11971 C 1123.29 0.677497 -1.73974 0
M  V30 11972 C 1123.64 1.80371 -0.772055 0
M  V30 11973 O 1122.76 2.16329 0.0553062 0
M  V30 11974 C 1123.36 1.23575 -3.1546 0
M  V30 11975 C 1121.92 1.73933 -3.33803 0
M  V30 11976 C 1121.07 0.638542 -2.69848 0
M  V30 11977 H 1124.02 -0.105685 -1.58348 0
M  V30 11978 H 1124.04 2.10542 -3.16942 0
M  V30 11979 H 1123.55 0.415851 -3.85866 0
M  V30 11980 H 1121.65 2.58404 -2.68437 0
M  V30 11981 H 1121.76 1.84961 -4.41957 0
M  V30 11982 H 1120.13 1.07185 -2.31049 0
M  V30 11983 H 1120.91 -0.170356 -3.42877 0
M  V30 11984 N 1123.36 1.52689 0.390367 0
M  V30 11985 C 1124.6 1.67666 1.13553 0
M  V30 11986 C 1124.93 0.415903 1.90001 0
M  V30 11987 O 1124.19 -0.601664 1.86222 0
M  V30 11988 C 1124.49 2.86177 2.14096 0
M  V30 11989 C 1124.15 4.23671 1.54316 0
M  V30 11990 C 1122.81 4.61066 1.37739 0
M  V30 11991 C 1125.17 5.09278 1.1084 0
M  V30 11992 C 1122.49 5.81727 0.76231 0
M  V30 11993 C 1124.85 6.30562 0.507433 0
M  V30 11994 C 1123.51 6.66689 0.328945 0
M  V30 11995 H 1122.78 0.613533 0.415521 0
M  V30 11996 H 1125.43 1.8683 0.420339 0
M  V30 11997 H 1123.73 2.61424 2.9183 0
M  V30 11998 H 1125.43 2.9496 2.7166 0
M  V30 11999 H 1122.02 3.94214 1.68207 0
M  V30 12000 H 1126.2 4.80957 1.2245 0
M  V30 12001 H 1121.46 6.08327 0.612208 0
M  V30 12002 H 1125.63 6.96211 0.162248 0
M  V30 12003 H 1123.26 7.60052 -0.149748 0
M  V30 12004 N 1124.83 -0.648732 1.43629 0
M  V30 12005 C 1126.08 -1.41066 1.45699 0
M  V30 12006 C 1126.41 -1.94024 0.082612 0
M  V30 12007 O 1125.69 -1.7257 -0.897207 0
M  V30 12008 C 1125.97 -2.58882 2.50304 0
M  V30 12009 C 1125.82 -2.11387 3.97033 0
M  V30 12010 C 1127.14 -3.61092 2.51597 0
M  V30 12011 H 1124.26 -0.511591 0.530512 0
M  V30 12012 H 1126.9 -0.735069 1.75205 0
M  V30 12013 H 1125.05 -3.16518 2.25274 0
M  V30 12014 H 1126.73 -1.58718 4.33136 0
M  V30 12015 H 1124.97 -1.4272 4.0965 0
M  V30 12016 H 1125.64 -2.96129 4.65845 0
M  V30 12017 H 1128.12 -3.13223 2.73917 0
M  V30 12018 H 1126.99 -4.41071 3.26722 0
M  V30 12019 H 1127.25 -4.13985 1.55141 0
M  V30 12020 N 1126.31 -1.30234 -0.887518 0
M  V30 12021 C 1127.59 -1.09572 -1.62029 0
M  V30 12022 C 1127.97 0.355877 -2.08079 0
M  V30 12023 O 1127.32 1.34692 -1.84582 0
M  V30 12024 C 1127.53 -2.0943 -2.79177 0
M  V30 12025 C 1128.88 -2.4101 -3.4957 0
M  V30 12026 O 1129.9 -2.0772 -2.89363 0
M  V30 12027 O 1128.76 -2.97943 -4.5814 0
M  V30 12028 H 1125.85 -0.420648 -0.712028 0
M  V30 12029 H 1128.4 -1.41651 -0.934517 0
M  V30 12030 H 1127.17 -3.07149 -2.42436 0
M  V30 12031 H 1126.79 -1.78154 -3.55453 0
M  V30 12032 N 1127.79 1.09952 -1.12909 0
M  V30 12033 C 1128.72 2.18477 -0.824014 0
M  V30 12034 C 1129.7 1.68744 0.214324 0
M  V30 12035 O 1130.89 1.94057 0.0744281 0
M  V30 12036 C 1128.02 3.46143 -0.283308 0
M  V30 12037 C 1126.97 4.09178 -1.25528 0
M  V30 12038 C 1126.3 5.31604 -0.574574 0
M  V30 12039 C 1127.6 4.52308 -2.6118 0
M  V30 12040 H 1129.29 2.44254 -1.73148 0
M  V30 12041 H 1126.84 1.17394 -0.833952 0
M  V30 12042 H 1128.79 4.21361 -0.057583 0
M  V30 12043 H 1127.51 3.19872 0.659525 0
M  V30 12044 H 1126.17 3.35973 -1.4669 0
M  V30 12045 H 1125.82 5.01611 0.37356 0
M  V30 12046 H 1125.52 5.74732 -1.22299 0
M  V30 12047 H 1127.04 6.0955 -0.358004 0
M  V30 12048 H 1128.46 5.18776 -2.44017 0
M  V30 12049 H 1126.86 5.06302 -3.22147 0
M  V30 12050 H 1127.93 3.64977 -3.19249 0
M  V30 12051 N 1129.27 0.921757 1.27833 0
M  V30 12052 C 1130.23 0.420978 2.25301 0
M  V30 12053 C 1131.23 -0.457158 1.54165 0
M  V30 12054 O 1132.42 -0.259079 1.72263 0
M  V30 12055 C 1129.55 -0.395501 3.38598 0
M  V30 12056 H 1130.75 1.28206 2.71115 0
M  V30 12057 H 1128.3 0.701893 1.39654 0
M  V30 12058 H 1129.03 -1.27565 2.98157 0
M  V30 12059 H 1128.82 0.234029 3.91401 0
M  V30 12060 H 1130.31 -0.736444 4.11055 0
M  V30 12061 N 1130.75 -1.41857 0.686609 0
M  V30 12062 C 1132 -2.00594 0.21095 0
M  V30 12063 C 1132.31 -1.54974 -1.19341 0
M  V30 12064 O 1133.51 -2.0621 -1.76607 0
M  V30 12065 C 1131.97 -3.58418 0.326261 0
M  V30 12066 C 1131.58 -4.13022 1.73542 0
M  V30 12067 C 1133.32 -4.24404 -0.0900816 0
M  V30 12068 C 1131.23 -5.6325 1.80287 0
M  V30 12069 H 1130.16 -0.75025 0.0751077 0
M  V30 12070 H 1132.81 -1.62442 0.853508 0
M  V30 12071 H 1131.19 -3.9413 -0.384394 0
M  V30 12072 H 1132.37 -3.88747 2.47411 0
M  V30 12073 H 1130.68 -3.5953 2.10065 0
M  V30 12074 H 1133.28 -5.34666 -0.060004 0
M  V30 12075 H 1133.62 -4.00745 -1.12733 0
M  V30 12076 H 1134.15 -3.93695 0.569979 0
M  V30 12077 H 1130.89 -5.91724 2.82034 0
M  V30 12078 H 1130.41 -5.89479 1.1079 0
M  V30 12079 H 1132.09 -6.2787 1.56167 0
M  V30 12080 N 1132.22 -0.430739 -1.51599 0
M  V30 12081 C 1133.45 0.136797 -2.06447 0
M  V30 12082 C 1133.87 1.37027 -1.29881 0
M  V30 12083 O 1133.22 1.78983 -0.356543 0
M  V30 12084 C 1133.28 0.465637 -3.58489 0
M  V30 12085 O 1133 -0.718873 -4.32162 0
M  V30 12086 C 1134.5 1.08456 -4.29828 0
M  V30 12087 H 1131.72 0.0108468 -0.670912 0
M  V30 12088 H 1134.26 -0.607921 -1.95255 0
M  V30 12089 H 1132.42 1.16025 -3.69617 0
M  V30 12090 H 1132.83 -0.439195 -5.22658 0
M  V30 12091 H 1134.3 1.2647 -5.37317 0
M  V30 12092 H 1134.78 2.06376 -3.87693 0
M  V30 12093 H 1135.39 0.429525 -4.23125 0
M  V30 12094 N 1133.7 1.56767 -0.161869 0
M  V30 12095 C 1134.95 1.95769 0.485536 0
M  V30 12096 C 1135.26 1.05006 1.65025 0
M  V30 12097 O 1136.47 1.33649 2.36326 0
M  V30 12098 C 1134.93 3.4807 0.915176 0
M  V30 12099 C 1134.53 4.47443 -0.223416 0
M  V30 12100 C 1136.28 3.95909 1.53153 0
M  V30 12101 C 1134.19 5.90971 0.225325 0
M  V30 12102 H 1133.12 0.730911 0.185161 0
M  V30 12103 H 1135.77 1.81808 -0.248592 0
M  V30 12104 H 1134.15 3.57415 1.705 0
M  V30 12105 H 1135.32 4.49805 -1.00061 0
M  V30 12106 H 1133.64 4.09606 -0.749127 0
M  V30 12107 H 1136.23 5.00592 1.87915 0
M  V30 12108 H 1136.58 3.38307 2.42599 0
M  V30 12109 H 1137.11 3.89542 0.806322 0
M  V30 12110 H 1133.85 6.52426 -0.634124 0
M  V30 12111 H 1133.37 5.91936 0.96808 0
M  V30 12112 H 1135.05 6.43497 0.672373 0
M  V30 12113 N 1135.18 -0.111886 1.57202 0
M  V30 12114 C 1136.42 -0.82422 1.87045 0
M  V30 12115 C 1136.78 -1.76713 0.750765 0
M  V30 12116 O 1137.99 -2.52157 0.931154 0
M  V30 12117 C 1136.26 -1.5483 3.22122 0
M  V30 12118 S 1137.82 -2.30123 3.73616 0
M  V30 12119 H 1134.63 -0.274945 0.655687 0
M  V30 12120 H 1137.24 -0.0821899 1.95327 0
M  V30 12121 H 1135.94 -0.847704 4.0155 0
M  V30 12122 H 1135.47 -2.33056 3.16936 0
M  V30 12123 H 1137.49 -3.5597 3.45687 0
M  V30 12124 N 1136.66 -1.52894 -0.382264 0
M  V30 12125 C 1137.91 -1.67489 -1.12385 0
M  V30 12126 C 1138.22 -0.424565 -1.90937 0
M  V30 12127 O 1139.43 -0.450763 -2.67732 0
M  V30 12128 C 1137.88 -2.96019 -2.04697 0
M  V30 12129 C 1137.49 -4.28255 -1.31535 0
M  V30 12130 C 1139.23 -3.19981 -2.78949 0
M  V30 12131 C 1137.14 -5.47887 -2.22652 0
M  V30 12132 H 1136.07 -0.624002 -0.423246 0
M  V30 12133 H 1138.72 -1.79392 -0.386107 0
M  V30 12134 H 1137.1 -2.77878 -2.82134 0
M  V30 12135 H 1138.28 -4.56971 -0.592771 0
M  V30 12136 H 1136.59 -4.10607 -0.692148 0
M  V30 12137 H 1139.19 -4.06541 -3.47316 0
M  V30 12138 H 1139.53 -2.35335 -3.43399 0
M  V30 12139 H 1140.07 -3.38718 -2.08602 0
M  V30 12140 H 1136.81 -6.3496 -1.62806 0
M  V30 12141 H 1136.33 -5.23473 -2.92807 0
M  V30 12142 H 1138 -5.82026 -2.82586 0
M  V30 12143 N 1138.14 0.641106 -1.43971 0
M  V30 12144 C 1139.38 1.40291 -1.46445 0
M  V30 12145 C 1139.72 1.93978 -0.0929004 0
M  V30 12146 O 1138.99 1.73043 0.888043 0
M  V30 12147 C 1139.27 2.57551 -2.51673 0
M  V30 12148 C 1139.13 2.09279 -3.98149 0
M  V30 12149 C 1140.45 3.59752 -2.53508 0
M  V30 12150 H 1137.57 0.508771 -0.533218 0
M  V30 12151 H 1140.21 0.725767 -1.75592 0
M  V30 12152 H 1138.36 3.15319 -2.2695 0
M  V30 12153 H 1140.03 1.56418 -4.33971 0
M  V30 12154 H 1138.27 1.40545 -4.10402 0
M  V30 12155 H 1138.94 2.93655 -4.67409 0
M  V30 12156 H 1141.42 3.11766 -2.75574 0
M  V30 12157 H 1140.3 4.39332 -3.29057 0
M  V30 12158 H 1140.56 4.13156 -1.57335 0
M  V30 12159 N 1139.62 1.30703 0.880598 0
M  V30 12160 C 1140.55 1.20033 2.00286 0
M  V30 12161 C 1141.53 0.0899614 1.69862 0
M  V30 12162 O 1142.71 0.272747 1.92275 0
M  V30 12163 C 1139.84 0.895902 3.35546 0
M  V30 12164 C 1138.8 1.96468 3.80242 0
M  V30 12165 C 1138.12 1.51316 5.12843 0
M  V30 12166 C 1139.42 3.37637 3.98496 0
M  V30 12167 H 1141.12 2.13922 2.0947 0
M  V30 12168 H 1138.66 1.02989 1.00644 0
M  V30 12169 H 1140.61 0.807899 4.13583 0
M  V30 12170 H 1139.34 -0.0786636 3.26505 0
M  V30 12171 H 1138 2.0424 3.04437 0
M  V30 12172 H 1137.65 0.52674 5.00234 0
M  V30 12173 H 1137.35 2.22807 5.43719 0
M  V30 12174 H 1138.87 1.43903 5.93401 0
M  V30 12175 H 1140.28 3.326 4.66959 0
M  V30 12176 H 1138.68 4.07253 4.40755 0
M  V30 12177 H 1139.75 3.79205 3.02211 0
M  V30 12178 N 1141.09 -1.09351 1.1349 0
M  V30 12179 C 1142.04 -2.18099 0.808426 0
M  V30 12180 C 1143.04 -1.68099 -0.209571 0
M  V30 12181 O 1144.24 -1.79877 -0.0666417 0
M  V30 12182 H 1140.62 -0.711432 0.243658 0
M  V30 12183 H 1142.59 -2.42867 1.73373 0
M  V30 12184 C 1141.34 -3.46475 0.291615 0
M  V30 12185 H 1140.66 -3.85319 1.06627 0
M  V30 12186 H 1142.1 -4.23878 0.101616 0
M  V30 12187 C 1140.56 -3.22245 -0.982827 0
M  V30 12188 O 1141.09 -3.44947 -2.0585 0
M  V30 12189 N 1139.29 -2.75845 -0.914218 0
M  V30 12190 H 1138.84 -2.57571 -0.03872 0
M  V30 12191 H 1138.8 -2.60011 -1.76753 0
M  V30 12192 N 1142.57 -0.928524 -1.27343 0
M  V30 12193 C 1143.8 -0.585734 -1.98436 0
M  V30 12194 C 1144.21 0.83644 -1.69261 0
M  V30 12195 O 1143.57 1.55603 -0.953626 0
M  V30 12196 C 1143.62 -0.803092 -3.52467 0
M  V30 12197 O 1143.34 -2.16932 -3.80621 0
M  V30 12198 C 1144.84 -0.469127 -4.40811 0
M  V30 12199 H 1142.06 -0.221887 -0.633251 0
M  V30 12200 H 1144.61 -1.24577 -1.62175 0
M  V30 12201 H 1142.76 -0.189846 -3.86935 0
M  V30 12202 H 1143.18 -2.21992 -4.75205 0
M  V30 12203 H 1144.65 -0.671906 -5.47895 0
M  V30 12204 H 1145.13 0.595365 -4.35146 0
M  V30 12205 H 1145.73 -1.06055 -4.11865 0
M  V30 12206 N 1144.05 1.41491 -0.694123 0
M  V30 12207 C 1144.98 2.33462 -0.0422169 0
M  V30 12208 C 1145.96 1.51739 0.76872 0
M  V30 12209 O 1147.15 1.8028 0.721985 0
M  V30 12210 C 1144.28 3.35545 0.895925 0
M  V30 12211 C 1143.23 4.27568 0.192188 0
M  V30 12212 C 1142.56 5.20014 1.24459 0
M  V30 12213 C 1143.86 5.1376 -0.940626 0
M  V30 12214 H 1145.55 2.88225 -0.810363 0
M  V30 12215 H 1143.1 1.38586 -0.39114 0
M  V30 12216 H 1145.05 3.9881 1.36121 0
M  V30 12217 H 1143.77 2.79129 1.69572 0
M  V30 12218 H 1142.43 3.65726 -0.25305 0
M  V30 12219 H 1142.08 4.59913 2.03687 0
M  V30 12220 H 1141.78 5.82417 0.778734 0
M  V30 12221 H 1143.3 5.86155 1.71041 0
M  V30 12222 H 1144.72 5.70601 -0.555692 0
M  V30 12223 H 1143.11 5.85097 -1.33349 0
M  V30 12224 H 1144.18 4.51011 -1.78093 0
M  V30 12225 N 1145.53 0.438773 1.51369 0
M  V30 12226 C 1146.77 -0.127213 2.021 0
M  V30 12227 C 1147.1 -1.42587 1.32284 0
M  V30 12228 O 1146.36 -1.90986 0.426949 0
M  V30 12229 C 1146.66 -0.39186 3.55245 0
M  V30 12230 C 1146.32 0.821158 4.4336 0
M  V30 12231 C 1144.98 1.15381 4.67162 0
M  V30 12232 C 1147.34 1.6303 4.95046 0
M  V30 12233 C 1144.66 2.29626 5.39897 0
M  V30 12234 C 1147.02 2.76376 5.69033 0
M  V30 12235 C 1145.68 3.10094 5.91099 0
M  V30 12236 H 1144.95 -0.0465505 0.739536 0
M  V30 12237 H 1147.6 0.586261 1.82305 0
M  V30 12238 H 1145.9 -1.18724 3.73379 0
M  V30 12239 H 1147.6 -0.843228 3.92034 0
M  V30 12240 H 1144.19 0.551946 4.25031 0
M  V30 12241 H 1148.37 1.38651 4.76539 0
M  V30 12242 H 1143.63 2.56062 5.55196 0
M  V30 12243 H 1147.8 3.39442 6.08072 0
M  V30 12244 H 1145.43 3.98731 6.47238 0
M  V30 12245 N 1147.01 -1.56678 0.170181 0
M  V30 12246 C 1147.94 -2.13747 -0.799203 0
M  V30 12247 C 1148.92 -1.06725 -1.22673 0
M  V30 12248 O 1150.1 -1.34694 -1.3187 0
M  V30 12249 C 1147.23 -2.67611 -2.07611 0
M  V30 12250 C 1146.27 -3.86994 -1.7927 0
M  V30 12251 S 1147.11 -5.26771 -0.962951 0
M  V30 12252 C 1148.26 -5.84039 -2.25054 0
M  V30 12253 H 1148.5 -2.95637 -0.313976 0
M  V30 12254 H 1146.03 -1.54336 -0.0444708 0
M  V30 12255 H 1147.99 -2.99291 -2.80954 0
M  V30 12256 H 1146.65 -1.85808 -2.53247 0
M  V30 12257 H 1145.84 -4.23006 -2.74011 0
M  V30 12258 H 1145.44 -3.56195 -1.14023 0
M  V30 12259 H 1147.73 -5.96883 -3.20525 0
M  V30 12260 H 1148.68 -6.81145 -1.93513 0
M  V30 12261 H 1149.09 -5.12449 -2.36763 0
M  V30 12262 N 1148.48 0.103547 -1.57259 0
M  V30 12263 C 1149.45 1.11039 -2.00507 0
M  V30 12264 C 1150.45 1.33432 -0.897361 0
M  V30 12265 O 1151.64 1.29688 -1.16304 0
M  V30 12266 C 1148.77 2.46144 -2.35851 0
M  V30 12267 H 1149.96 0.738332 -2.90669 0
M  V30 12268 H 1147.51 0.348334 -1.52369 0
M  V30 12269 H 1148.25 2.88242 -1.48617 0
M  V30 12270 H 1148.03 2.31241 -3.16654 0
M  V30 12271 H 1149.52 3.18577 -2.69997 0
M  V30 12272 N 1149.96 1.53094 0.37415 0
M  V30 12273 C 1150.89 1.73697 1.48002 0
M  V30 12274 C 1151.87 0.585109 1.51708 0
M  V30 12275 O 1153.06 0.816688 1.6989 0
M  V30 12276 C 1150.18 1.80802 2.86406 0
M  V30 12277 C 1149.23 3.02696 3.00462 0
M  V30 12278 S 1150.06 4.62386 2.70109 0
M  V30 12279 C 1151.22 4.72328 4.10679 0
M  V30 12280 H 1151.45 2.67223 1.30303 0
M  V30 12281 H 1148.98 1.43574 0.567957 0
M  V30 12282 H 1150.94 1.85581 3.66155 0
M  V30 12283 H 1149.6 0.883425 3.01421 0
M  V30 12284 H 1148.8 3.04252 4.01804 0
M  V30 12285 H 1148.4 2.95985 2.28624 0
M  V30 12286 H 1150.69 4.51856 5.04809 0
M  V30 12287 H 1151.63 5.7437 4.14131 0
M  V30 12288 H 1152.04 4.01035 3.9728 0
M  V30 12289 N 1151.44 -0.633461 1.44309 0
M  V30 12290 C 1152.35 -1.77428 1.53481 0
M  V30 12291 C 1153.37 -1.68839 0.420628 0
M  V30 12292 O 1154.54 -1.89658 0.677638 0
M  V30 12293 C 1151.61 -3.13801 1.47409 0
M  V30 12294 C 1150.67 -3.34039 2.6966 0
M  V30 12295 C 1149.9 -4.63907 2.63868 0
M  V30 12296 O 1150.12 -5.44559 1.69741 0
M  V30 12297 O 1149.06 -4.86295 3.54684 0
M  V30 12298 H 1152.88 -1.72642 2.49857 0
M  V30 12299 H 1150.47 -0.794399 1.26529 0
M  V30 12300 H 1152.35 -3.95101 1.46537 0
M  V30 12301 H 1151.03 -3.19134 0.541769 0
M  V30 12302 H 1149.93 -2.52427 2.761 0
M  V30 12303 H 1151.27 -3.33566 3.61931 0
M  V30 12304 N 1152.92 -1.31168 -0.873655 0
M  V30 12305 C 1153.87 -1.15107 -1.9681 0
M  V30 12306 C 1154.85 -0.0630813 -1.60776 0
M  V30 12307 O 1156.04 -0.28761 -1.74648 0
M  V30 12308 C 1153.17 -0.856705 -3.32439 0
M  V30 12309 C 1152.26 -1.9855 -3.74752 0
M  V30 12310 N 1152.65 -3.23213 -3.89059 0
M  V30 12311 C 1150.95 -1.8844 -4.04235 0
M  V30 12312 C 1151.65 -3.97026 -4.25141 0
M  V30 12313 N 1150.63 -3.25165 -4.35624 0
M  V30 12314 H 1154.43 -2.09643 -2.05978 0
M  V30 12315 H 1151.94 -1.22672 -1.06421 0
M  V30 12316 H 1153.94 -0.722635 -4.10589 0
M  V30 12317 H 1152.6 0.0804676 -3.246 0
M  V30 12318 H 1153.61 -3.58372 -3.73885 0
M  V30 12319 H 1150.29 -1.02164 -4.04807 0
M  V30 12320 H 1151.68 -5.04437 -4.43839 0
M  V30 12321 N 1154.4 1.08748 -1.14068 0
M  V30 12322 C 1155.63 1.84546 -0.928789 0
M  V30 12323 C 1156.03 1.81741 0.526007 0
M  V30 12324 O 1155.38 1.2169 1.37613 0
M  V30 12325 C 1155.44 3.33282 -1.34771 0
M  V30 12326 C 1155.1 3.59826 -2.81734 0
M  V30 12327 C 1156.1 3.54964 -3.79864 0
M  V30 12328 C 1153.79 3.87949 -3.19063 0
M  V30 12329 C 1155.78 3.77847 -5.13332 0
M  V30 12330 C 1153.47 4.10487 -4.52707 0
M  V30 12331 C 1154.46 4.05429 -5.49651 0
M  V30 12332 O 1154.15 4.27378 -6.80884 0
M  V30 12333 H 1153.88 0.589555 -0.330758 0
M  V30 12334 H 1156.44 1.38275 -1.51886 0
M  V30 12335 H 1154.67 3.80294 -0.700948 0
M  V30 12336 H 1156.36 3.90508 -1.10718 0
M  V30 12337 H 1157.12 3.33256 -3.52371 0
M  V30 12338 H 1153 3.91007 -2.44201 0
M  V30 12339 H 1156.55 3.73815 -5.88989 0
M  V30 12340 H 1152.44 4.31677 -4.79922 0
M  V30 12341 H 1153.21 4.44802 -6.8709 0
M  V30 12342 N 1155.87 0.935264 1.26849 0
M  V30 12343 C 1157.29 0.623198 1.75992 0
M  V30 12344 C 1157.64 -0.861647 1.76267 0
M  V30 12345 O 1156.76 -1.6743 1.37099 0
M  V30 12346 C 1157.36 1.12451 3.19594 0
M  V30 12347 C 1155.92 0.862974 3.66374 0
M  V30 12348 C 1155.06 1.27886 2.4605 0
M  V30 12349 H 1158.01 1.11422 1.13008 0
M  V30 12350 H 1158.03 0.475626 3.77516 0
M  V30 12351 H 1157.55 2.20522 3.19361 0
M  V30 12352 H 1155.65 -0.203606 3.72043 0
M  V30 12353 H 1155.76 1.48582 4.55478 0
M  V30 12354 H 1154.12 0.697335 2.44968 0
M  V30 12355 H 1154.91 2.36837 2.48522 0
M  V30 12356 N 1157.35 -1.41121 0.701616 0
M  V30 12357 C 1158.29 -2.28198 -0.010533 0
M  V30 12358 C 1159.26 -1.42569 -0.78185 0
M  V30 12359 O 1160.45 -1.71993 -0.771408 0
M  V30 12360 C 1157.57 -3.22903 -1.02231 0
M  V30 12361 C 1156.62 -4.25115 -0.343454 0
M  V30 12362 S 1157.45 -5.27563 0.918553 0
M  V30 12363 C 1158.61 -6.25833 -0.0914763 0
M  V30 12364 H 1158.84 -2.88249 0.727995 0
M  V30 12365 H 1156.38 -1.46348 0.492112 0
M  V30 12366 H 1158.33 -3.77997 -1.60089 0
M  V30 12367 H 1156.99 -2.61936 -1.73345 0
M  V30 12368 H 1156.19 -4.91674 -1.10782 0
M  V30 12369 H 1155.79 -3.73648 0.162206 0
M  V30 12370 H 1158.08 -6.70908 -0.942826 0
M  V30 12371 H 1159.02 -7.06035 0.540351 0
M  V30 12372 H 1159.43 -5.62712 -0.448956 0
M  V30 12373 N 1158.83 -0.446794 -1.51134 0
M  V30 12374 C 1160.06 0.114893 -2.06581 0
M  V30 12375 C 1160.47 1.35642 -1.31327 0
M  V30 12376 O 1159.83 1.78595 -0.375506 0
M  V30 12377 C 1159.88 0.427589 -3.58962 0
M  V30 12378 O 1159.6 -0.764669 -4.31375 0
M  V30 12379 C 1161.1 1.03891 -4.30954 0
M  V30 12380 H 1158.32 0.00373031 -0.67099 0
M  V30 12381 H 1160.87 -0.628596 -1.94599 0
M  V30 12382 H 1159.02 1.12099 -3.70827 0
M  V30 12383 H 1159.44 -0.494605 -5.22163 0
M  V30 12384 H 1160.91 1.20764 -5.38628 0
M  V30 12385 H 1161.39 2.02252 -3.8986 0
M  V30 12386 H 1161.99 0.384623 -4.23557 0
M  V30 12387 N 1160.31 1.56586 -0.178487 0
M  V30 12388 C 1161.22 2.21903 0.761321 0
M  V30 12389 C 1162.23 1.21289 1.2476 0
M  V30 12390 O 1163.41 1.53974 1.29823 0
M  V30 12391 C 1160.48 2.85259 1.97048 0
M  V30 12392 C 1159.54 4.01095 1.53039 0
M  V30 12393 C 1158.77 4.61421 2.68191 0
M  V30 12394 O 1158.99 4.20644 3.85247 0
M  V30 12395 O 1157.93 5.51171 2.41855 0
M  V30 12396 H 1161.75 3.02788 0.235141 0
M  V30 12397 H 1159.34 1.49316 0.0500442 0
M  V30 12398 H 1161.22 3.25404 2.6775 0
M  V30 12399 H 1159.89 2.07366 2.48558 0
M  V30 12400 H 1158.8 3.65606 0.792661 0
M  V30 12401 H 1160.13 4.80603 1.06213 0
M  V30 12402 N 1161.79 -0.095206 1.57312 0
M  V30 12403 C 1162.72 -1.14173 1.98739 0
M  V30 12404 C 1163.73 -1.36323 0.889934 0
M  V30 12405 O 1164.92 -1.34977 1.16805 0
M  V30 12406 C 1162.02 -2.49729 2.29104 0
M  V30 12407 C 1161.19 -2.47857 3.60396 0
M  V30 12408 C 1160.25 -3.65341 3.78699 0
M  V30 12409 O 1159.28 -3.47837 4.50553 0
M  V30 12410 N 1160.48 -4.84818 3.19268 0
M  V30 12411 H 1163.25 -0.789126 2.89124 0
M  V30 12412 H 1160.81 -0.284187 1.59386 0
M  V30 12413 H 1162.8 -3.26925 2.38541 0
M  V30 12414 H 1161.37 -2.7708 1.44726 0
M  V30 12415 H 1160.59 -1.56208 3.61929 0
M  V30 12416 H 1161.88 -2.43685 4.46649 0
M  V30 12417 H 1161.27 -5.01943 2.60902 0
M  V30 12418 H 1159.83 -5.59607 3.34191 0
M  V30 12419 N 1163.26 -1.53291 -0.366026 0
M  V30 12420 C 1164.51 -1.69451 -1.10872 0
M  V30 12421 C 1164.84 -0.446078 -1.89316 0
M  V30 12422 O 1164.09 0.571962 -1.87155 0
M  V30 12423 C 1164.39 -2.89547 -2.09517 0
M  V30 12424 C 1164.06 -4.26073 -1.47556 0
M  V30 12425 C 1162.72 -4.63199 -1.30386 0
M  V30 12426 C 1165.07 -5.10977 -1.02724 0
M  V30 12427 C 1162.4 -5.82866 -0.669666 0
M  V30 12428 C 1164.75 -6.31289 -0.407052 0
M  V30 12429 C 1163.42 -6.67128 -0.222839 0
M  V30 12430 H 1162.69 -0.620066 -0.405708 0
M  V30 12431 H 1165.33 -1.87475 -0.390563 0
M  V30 12432 H 1163.64 -2.66034 -2.87634 0
M  V30 12433 H 1165.34 -2.99245 -2.66933 0
M  V30 12434 H 1161.93 -3.9684 -1.61914 0
M  V30 12435 H 1166.11 -4.82844 -1.14783 0
M  V30 12436 H 1161.37 -6.09224 -0.515351 0
M  V30 12437 H 1165.54 -6.96381 -0.0514661 0
M  V30 12438 H 1163.17 -7.59718 0.270647 0
M  V30 12439 N 1164.74 0.6258 -1.44643 0
M  V30 12440 C 1165.97 1.41726 -1.51422 0
M  V30 12441 C 1166.39 1.87565 -0.14181 0
M  V30 12442 O 1165.75 1.59059 0.870054 0
M  V30 12443 C 1165.8 2.61012 -2.48807 0
M  V30 12444 O 1164.9 3.61029 -1.99328 0
M  V30 12445 H 1164.24 0.423855 -0.511119 0
M  V30 12446 H 1166.77 0.763336 -1.89827 0
M  V30 12447 H 1166.78 3.08489 -2.67018 0
M  V30 12448 H 1165.46 2.26995 -3.48491 0
M  V30 12449 H 1164.04 3.20325 -1.90909 0
M  V30 12450 N 1166.22 1.31629 0.866686 0
M  V30 12451 C 1167.45 1.24609 1.65793 0
M  V30 12452 C 1167.87 -0.184944 1.87189 0
M  V30 12453 O 1167.23 -1.1322 1.41601 0
M  V30 12454 C 1167.28 1.9988 3.00134 0
M  V30 12455 O 1166.38 1.33838 3.90079 0
M  V30 12456 H 1165.72 0.430051 0.505917 0
M  V30 12457 H 1168.25 1.73752 1.08035 0
M  V30 12458 H 1168.26 2.09599 3.50046 0
M  V30 12459 H 1166.94 3.03947 2.83882 0
M  V30 12460 H 1165.51 1.3259 3.48532 0
M  V30 12461 N 1167.7 -1.08142 1.14644 0
M  V30 12462 C 1168.95 -1.80849 0.917685 0
M  V30 12463 C 1169.28 -1.86123 -0.554249 0
M  V30 12464 O 1168.55 -1.33907 -1.41065 0
M  V30 12465 C 1168.84 -3.26325 1.52264 0
M  V30 12466 C 1168.69 -3.29244 3.06461 0
M  V30 12467 C 1170.01 -4.23375 1.20175 0
M  V30 12468 H 1167.13 -0.656559 0.334812 0
M  V30 12469 H 1169.77 -1.26595 1.41682 0
M  V30 12470 H 1167.92 -3.72656 1.09817 0
M  V30 12471 H 1169.59 -2.91216 3.57758 0
M  V30 12472 H 1167.83 -2.68438 3.40769 0
M  V30 12473 H 1168.51 -4.31785 3.43897 0
M  V30 12474 H 1170.98 -3.85394 1.56877 0
M  V30 12475 H 1169.86 -5.23472 1.65132 0
M  V30 12476 H 1170.12 -4.41944 0.117474 0
M  V30 12477 N 1169.18 -0.941978 -1.26351 0
M  V30 12478 C 1170.11 -0.469913 -2.28723 0
M  V30 12479 C 1171.09 0.477218 -1.63269 0
M  V30 12480 O 1172.27 0.378902 -1.90468 0
M  V30 12481 C 1169.4 0.264971 -3.46288 0
M  V30 12482 C 1168.36 -0.595682 -4.23834 0
M  V30 12483 C 1167.68 0.269208 -5.34022 0
M  V30 12484 C 1168.98 -1.86743 -4.87775 0
M  V30 12485 H 1170.68 -1.32551 -2.6846 0
M  V30 12486 H 1168.22 -0.638809 -1.29055 0
M  V30 12487 H 1170.18 0.606259 -4.17016 0
M  V30 12488 H 1168.9 1.15471 -3.05506 0
M  V30 12489 H 1167.56 -0.919875 -3.54872 0
M  V30 12490 H 1167.21 1.15832 -4.89481 0
M  V30 12491 H 1166.91 -0.30325 -5.86817 0
M  V30 12492 H 1168.43 0.605748 -6.07588 0
M  V30 12493 H 1169.85 -1.59333 -5.50714 0
M  V30 12494 H 1168.24 -2.38452 -5.50691 0
M  V30 12495 H 1169.31 -2.57831 -4.10671 0
M  V30 12496 N 1170.66 1.40747 -0.709091 0
M  V30 12497 C 1171.88 2.05319 -0.255258 0
M  V30 12498 C 1172.3 1.53406 1.10054 0
M  V30 12499 O 1171.66 0.687905 1.69039 0
M  V30 12500 C 1171.71 3.60835 -0.219251 0
M  V30 12501 O 1171.43 4.1083 -1.52151 0
M  V30 12502 C 1172.93 4.42572 0.253927 0
M  V30 12503 H 1170.15 0.660904 -0.115959 0
M  V30 12504 H 1172.69 1.80274 -0.965474 0
M  V30 12505 H 1170.85 3.84872 0.441882 0
M  V30 12506 H 1171.26 5.04979 -1.41764 0
M  V30 12507 H 1172.74 5.51529 0.22798 0
M  V30 12508 H 1173.21 4.19673 1.29504 0
M  V30 12509 H 1173.82 4.23629 -0.376694 0
M  V30 12510 N 1172.13 0.454803 1.50895 0
M  V30 12511 C 1173.38 -0.105927 2.02523 0
M  V30 12512 C 1173.71 -1.40825 1.33724 0
M  V30 12513 O 1172.99 -1.89038 0.457683 0
M  V30 12514 C 1173.27 -0.306635 3.58792 0
M  V30 12515 C 1173.12 1.01556 4.38185 0
M  V30 12516 C 1174.44 -1.06858 4.2693 0
M  V30 12517 H 1171.56 -0.0370232 0.736069 0
M  V30 12518 H 1174.2 0.597215 1.8037 0
M  V30 12519 H 1172.35 -0.905563 3.77799 0
M  V30 12520 H 1174.03 1.64981 4.30789 0
M  V30 12521 H 1172.27 1.61608 4.02574 0
M  V30 12522 H 1172.94 0.828959 5.4574 0
M  V30 12523 H 1175.42 -0.561086 4.123 0
M  V30 12524 H 1174.29 -1.1778 5.36115 0
M  V30 12525 H 1174.55 -2.10111 3.8898 0
M  V30 12526 N 1173.61 -1.56489 0.186789 0
M  V30 12527 C 1174.86 -1.96952 -0.453261 0
M  V30 12528 C 1175.18 -1.07451 -1.62725 0
M  V30 12529 O 1174.45 -0.144046 -1.9537 0
M  V30 12530 H 1173.03 -0.727295 -0.170445 0
M  V30 12531 H 1175.69 -1.92999 0.271584 0
M  V30 12532 H 1174.79 -3.01594 -0.802951 0
M  V30 12533 N 1175.09 0.086862 -1.5736 0
M  V30 12534 C 1176.04 1.12359 -2.03662 0
M  V30 12535 C 1177.03 1.40982 -0.939169 0
M  V30 12536 O 1178.24 1.40566 -1.12433 0
M  V30 12537 H 1174.61 0.379605 -0.649156 0
M  V30 12538 H 1176.58 0.706822 -2.89908 0
M  V30 12539 C 1175.33 2.43327 -2.48369 0
M  V30 12540 H 1174.66 2.22148 -3.324 0
M  V30 12541 H 1176.1 3.14351 -2.84534 0
M  V30 12542 C 1174.55 3.08214 -1.36036 0
M  V30 12543 O 1175.08 3.95659 -0.694063 0
M  V30 12544 N 1173.29 2.68596 -1.10927 0
M  V30 12545 H 1172.84 1.97578 -1.6529 0
M  V30 12546 H 1172.8 3.12336 -0.359679 0
M  V30 12547 N 1176.57 1.53483 0.357892 0
M  V30 12548 C 1177.5 1.83444 1.44466 0
M  V30 12549 C 1178.48 0.688486 1.55544 0
M  V30 12550 O 1179.66 0.93906 1.69986 0
M  V30 12551 C 1176.79 2.03122 2.81707 0
M  V30 12552 C 1175.75 3.1891 2.85448 0
M  V30 12553 C 1175.07 3.23895 4.25436 0
M  V30 12554 C 1176.37 4.57334 2.52275 0
M  V30 12555 H 1178.07 2.74456 1.19642 0
M  V30 12556 H 1175.61 1.3206 0.574112 0
M  V30 12557 H 1177.57 2.22666 3.57768 0
M  V30 12558 H 1176.29 1.08827 3.07935 0
M  V30 12559 H 1174.95 2.99199 2.11838 0
M  V30 12560 H 1174.6 2.27223 4.48753 0
M  V30 12561 H 1174.3 4.01694 4.28854 0
M  V30 12562 H 1175.82 3.45632 5.0336 0
M  V30 12563 H 1177.24 4.76988 3.1805 0
M  V30 12564 H 1175.63 5.37431 2.66998 0
M  V30 12565 H 1176.7 4.61921 1.47501 0
M  V30 12566 N 1178.05 -0.61812 1.44973 0
M  V30 12567 C 1179.29 -1.37944 1.48658 0
M  V30 12568 C 1179.62 -1.93805 0.123749 0
M  V30 12569 O 1178.9 -1.74434 -0.860401 0
M  V30 12570 C 1179.18 -2.53515 2.55739 0
M  V30 12571 C 1179.04 -2.02918 4.01428 0
M  V30 12572 C 1180.35 -3.55674 2.59199 0
M  V30 12573 H 1177.47 -0.500223 0.541244 0
M  V30 12574 H 1180.12 -0.69774 1.76725 0
M  V30 12575 H 1178.27 -3.11669 2.31937 0
M  V30 12576 H 1179.94 -1.49494 4.36405 0
M  V30 12577 H 1178.18 -1.33999 4.12586 0
M  V30 12578 H 1178.85 -2.86181 4.72021 0
M  V30 12579 H 1181.33 -3.07343 2.80499 0
M  V30 12580 H 1180.2 -4.34042 3.36004 0
M  V30 12581 H 1180.46 -4.10601 1.63888 0
M  V30 12582 N 1179.52 -1.32087 -0.859693 0
M  V30 12583 C 1180.77 -1.2236 -1.61351 0
M  V30 12584 C 1181.1 0.215796 -1.93299 0
M  V30 12585 O 1180.35 1.16742 -1.57066 0
M  V30 12586 C 1180.65 -2.0234 -2.94607 0
M  V30 12587 C 1180.32 -3.51746 -2.82109 0
M  V30 12588 C 1178.98 -3.92482 -2.78408 0
M  V30 12589 C 1181.33 -4.46776 -2.68403 0
M  V30 12590 C 1178.66 -5.265 -2.58873 0
M  V30 12591 C 1181.01 -5.80931 -2.50404 0
M  V30 12592 C 1179.68 -6.20875 -2.45092 0
M  V30 12593 H 1178.95 -0.447748 -0.590426 0
M  V30 12594 H 1181.59 -1.63461 -0.997637 0
M  V30 12595 H 1179.9 -1.53952 -3.60286 0
M  V30 12596 H 1181.6 -1.92187 -3.51945 0
M  V30 12597 H 1178.19 -3.19389 -2.85812 0
M  V30 12598 H 1182.37 -4.16228 -2.70311 0
M  V30 12599 H 1177.63 -5.5651 -2.53192 0
M  V30 12600 H 1181.8 -6.54185 -2.38777 0
M  V30 12601 H 1179.43 -7.24662 -2.29714 0
M  V30 12602 N 1181 1.07532 -1.15215 0
M  V30 12603 C 1182.23 1.83817 -0.949687 0
M  V30 12604 C 1182.64 1.82004 0.501991 0
M  V30 12605 O 1182 1.23014 1.34811 0
M  V30 12606 C 1182.05 3.30978 -1.45382 0
M  V30 12607 O 1181.77 3.32844 -2.84863 0
M  V30 12608 C 1183.27 4.24037 -1.29257 0
M  V30 12609 H 1180.49 0.58 -0.337404 0
M  V30 12610 H 1183.04 1.35752 -1.52944 0
M  V30 12611 H 1181.19 3.76399 -0.916638 0
M  V30 12612 H 1181.61 4.24773 -3.07682 0
M  V30 12613 H 1183.08 5.25371 -1.69379 0
M  V30 12614 H 1183.56 4.38563 -0.236519 0
M  V30 12615 H 1184.16 3.8445 -1.81874 0
M  V30 12616 N 1182.48 0.948665 1.2585 0
M  V30 12617 C 1183.73 0.59905 1.93018 0
M  V30 12618 C 1184.05 -0.865813 1.74725 0
M  V30 12619 O 1183.32 -1.61602 1.10732 0
M  V30 12620 H 1181.9 0.218565 0.71431 0
M  V30 12621 H 1184.56 1.20561 1.53137 0
M  V30 12622 H 1183.66 0.823244 3.01047 0
M  V30 12623 N 1183.96 -1.40369 0.716545 0
M  V30 12624 C 1185.21 -2.00101 0.253452 0
M  V30 12625 C 1185.52 -1.57471 -1.16027 0
M  V30 12626 O 1186.73 -2.09909 -1.72193 0
M  V30 12627 C 1185.18 -3.57645 0.402213 0
M  V30 12628 C 1184.79 -4.09248 1.82264 0
M  V30 12629 C 1186.53 -4.245 -3.88526e-05 0
M  V30 12630 C 1184.44 -5.59299 1.92193 0
M  V30 12631 H 1183.37 -0.748488 0.0910047 0
M  V30 12632 H 1186.02 -1.60595 0.887772 0
M  V30 12633 H 1184.4 -3.94857 -0.300706 0
M  V30 12634 H 1185.58 -3.83412 2.55601 0
M  V30 12635 H 1183.89 -3.54993 2.17644 0
M  V30 12636 H 1186.49 -5.34673 0.0534202 0
M  V30 12637 H 1186.83 -4.03046 -1.04208 0
M  V30 12638 H 1187.37 -3.92398 0.65336 0
M  V30 12639 H 1184.11 -5.85608 2.94522 0
M  V30 12640 H 1183.63 -5.86997 1.23268 0
M  V30 12641 H 1185.3 -6.24416 1.6945 0
M  V30 12642 N 1185.44 -0.462799 -1.50652 0
M  V30 12643 C 1186.68 0.0950445 -2.02277 0
M  V30 12644 C 1187.01 1.40465 -1.34536 0
M  V30 12645 O 1186.27 1.90283 -0.457279 0
M  V30 12646 C 1186.57 0.335294 -3.55824 0
M  V30 12647 C 1186.23 -0.891589 -4.41997 0
M  V30 12648 C 1184.89 -1.22799 -4.65268 0
M  V30 12649 C 1187.25 -1.70885 -4.9239 0
M  V30 12650 C 1184.57 -2.38186 -5.36175 0
M  V30 12651 C 1186.93 -2.85394 -5.64564 0
M  V30 12652 C 1185.59 -3.19458 -5.86091 0
M  V30 12653 H 1184.86 0.0347793 -0.740183 0
M  V30 12654 H 1187.51 -0.61519 -1.8135 0
M  V30 12655 H 1185.81 1.12769 -3.7522 0
M  V30 12656 H 1187.51 0.780752 -3.93326 0
M  V30 12657 H 1184.1 -0.619495 -4.24099 0
M  V30 12658 H 1188.28 -1.46215 -4.74273 0
M  V30 12659 H 1183.54 -2.64862 -5.51052 0
M  V30 12660 H 1187.71 -3.49073 -6.02595 0
M  V30 12661 H 1185.34 -4.08978 -6.40813 0
M  V30 12662 N 1186.91 1.56388 -0.195085 0
M  V30 12663 C 1188.14 2.01963 0.449289 0
M  V30 12664 C 1188.56 1.07522 1.55192 0
M  V30 12665 O 1187.91 0.0800915 1.82324 0
M  V30 12666 C 1187.97 3.47231 1.00561 0
M  V30 12667 O 1187.69 4.38068 -0.0530241 0
M  V30 12668 C 1189.19 4.08324 1.72587 0
M  V30 12669 H 1186.41 0.661452 0.112792 0
M  V30 12670 H 1188.95 2.02231 -0.303788 0
M  V30 12671 H 1187.11 3.47663 1.70907 0
M  V30 12672 H 1187.52 5.23256 0.361076 0
M  V30 12673 H 1188.99 5.11821 2.06744 0
M  V30 12674 H 1189.47 3.51782 2.62956 0
M  V30 12675 H 1190.08 4.11665 1.06826 0
M  V30 12676 N 1188.39 -0.0785156 1.57404 0
M  V30 12677 C 1189.36 -1.07835 2.02248 0
M  V30 12678 C 1190.36 -1.31987 0.918475 0
M  V30 12679 O 1191.55 -1.27821 1.18353 0
M  V30 12680 C 1188.68 -2.42361 2.39737 0
M  V30 12681 H 1189.87 -0.691995 2.91807 0
M  V30 12682 H 1187.42 -0.32405 1.52904 0
M  V30 12683 H 1188.16 -2.85841 1.53183 0
M  V30 12684 H 1187.94 -2.26174 3.20293 0
M  V30 12685 H 1189.43 -3.14241 2.75031 0
M  V30 12686 N 1189.87 -1.5367 -0.349747 0
M  V30 12687 C 1190.78 -1.84207 -1.45275 0
M  V30 12688 C 1191.8 -0.731695 -1.57868 0
M  V30 12689 O 1192.97 -1.02337 -1.73462 0
M  V30 12690 C 1190.04 -2.0398 -2.80345 0
M  V30 12691 C 1189.1 -3.27853 -2.77148 0
M  V30 12692 C 1188.33 -3.46673 -4.05775 0
M  V30 12693 O 1188.55 -2.69457 -5.02741 0
M  V30 12694 O 1187.49 -4.40082 -4.10623 0
M  V30 12695 H 1191.31 -2.77947 -1.22389 0
M  V30 12696 H 1188.9 -1.39247 -0.541345 0
M  V30 12697 H 1190.78 -2.18466 -3.60348 0
M  V30 12698 H 1189.46 -1.13429 -3.03176 0
M  V30 12699 H 1188.36 -3.18776 -1.95787 0
M  V30 12700 H 1189.7 -4.18377 -2.59271 0
M  V30 12701 N 1191.35 0.610423 -1.45298 0
M  V30 12702 C 1192.28 1.73493 -1.48241 0
M  V30 12703 C 1193.26 1.59025 -0.339065 0
M  V30 12704 O 1194.44 1.80625 -0.539144 0
M  V30 12705 C 1191.57 3.11291 -1.33476 0
M  V30 12706 C 1190.62 3.44355 -2.51638 0
M  V30 12707 S 1191.45 3.39512 -4.14116 0
M  V30 12708 C 1192.61 4.79895 -4.01811 0
M  V30 12709 H 1192.84 1.70734 -2.43387 0
M  V30 12710 H 1190.37 0.786833 -1.32847 0
M  V30 12711 H 1192.33 3.90799 -1.25644 0
M  V30 12712 H 1190.99 3.11568 -0.39805 0
M  V30 12713 H 1190.18 4.44679 -2.37226 0
M  V30 12714 H 1189.79 2.72356 -2.56317 0
M  V30 12715 H 1192.08 5.6963 -3.6678 0
M  V30 12716 H 1193.02 4.99363 -5.02038 0
M  V30 12717 H 1193.43 4.55443 -3.33515 0
M  V30 12718 N 1192.83 1.32541 0.852676 0
M  V30 12719 C 1194.07 1.23397 1.60938 0
M  V30 12720 C 1194.41 -0.203294 1.93133 0
M  V30 12721 O 1193.68 -1.14097 1.57519 0
M  V30 12722 C 1193.96 2.0956 2.92842 0
M  V30 12723 C 1193.82 3.61675 2.67416 0
M  V30 12724 C 1195.14 1.95825 3.94133 0
M  V30 12725 H 1192.25 0.449608 0.583971 0
M  V30 12726 H 1194.9 1.62507 0.98446 0
M  V30 12727 H 1193.05 1.76336 3.46176 0
M  V30 12728 H 1194.72 4.05122 2.20621 0
M  V30 12729 H 1192.96 3.84242 2.01347 0
M  V30 12730 H 1193.63 4.17292 3.61347 0
M  V30 12731 H 1196.11 2.24935 3.50062 0
M  V30 12732 H 1194.98 2.58387 4.8428 0
M  V30 12733 H 1195.25 0.926466 4.32284 0
M  V30 12734 N 1194.3 -1.0692 1.15784 0
M  V30 12735 C 1195.23 -2.16216 0.881649 0
M  V30 12736 C 1196.22 -1.69253 -0.16951 0
M  V30 12737 O 1197.4 -1.94186 -0.0229511 0
M  V30 12738 C 1194.53 -3.4527 0.374982 0
M  V30 12739 C 1193.48 -4.05706 1.36332 0
M  V30 12740 C 1192.81 -5.29894 0.715317 0
M  V30 12741 C 1194.11 -4.45224 2.7308 0
M  V30 12742 H 1195.8 -2.39577 1.79563 0
M  V30 12743 H 1193.35 -1.15141 0.864784 0
M  V30 12744 H 1195.3 -4.2106 0.169279 0
M  V30 12745 H 1194.03 -3.21508 -0.574485 0
M  V30 12746 H 1192.69 -3.31965 1.55546 0
M  V30 12747 H 1192.33 -5.02425 -0.240436 0
M  V30 12748 H 1192.03 -5.71287 1.37494 0
M  V30 12749 H 1193.56 -6.08386 0.519489 0
M  V30 12750 H 1194.97 -5.12124 2.57686 0
M  V30 12751 H 1193.37 -4.97583 3.35457 0
M  V30 12752 H 1194.44 -3.56384 3.28813 0
M  V30 12753 N 1195.78 -0.955326 -1.25345 0
M  V30 12754 C 1196.73 -0.474888 -2.25862 0
M  V30 12755 C 1197.7 0.472996 -1.59223 0
M  V30 12756 O 1198.88 0.386094 -1.86853 0
M  V30 12757 C 1196.02 0.240554 -3.44261 0
M  V30 12758 C 1195.14 -0.74465 -4.25534 0
M  V30 12759 C 1194.27 -0.00657513 -5.312 0
M  V30 12760 C 1193.31 -0.982666 -6.04161 0
M  V30 12761 N 1192.45 -0.275418 -7.0156 0
M  V30 12762 H 1197.29 -1.33693 -2.66327 0
M  V30 12763 H 1194.83 -0.670439 -1.30933 0
M  V30 12764 H 1196.78 0.671933 -4.11753 0
M  V30 12765 H 1195.41 1.06664 -3.04668 0
M  V30 12766 H 1194.47 -1.29451 -3.57696 0
M  V30 12767 H 1195.78 -1.48948 -4.76042 0
M  V30 12768 H 1194.93 0.483404 -6.04771 0
M  V30 12769 H 1193.67 0.771035 -4.81567 0
M  V30 12770 H 1192.68 -1.48364 -5.29404 0
M  V30 12771 H 1193.9 -1.76052 -6.55883 0
M  V30 12772 H 1191.85 0.483441 -6.54216 0
M  V30 12773 H 1191.76 -0.959324 -7.49889 0
M  V30 12774 H 1193.03 0.193002 -7.79261 0
M  V30 12775 N 1197.26 1.39987 -0.723979 0
M  V30 12776 C 1198.51 1.99964 -0.26406 0
M  V30 12777 C 1198.82 1.58084 1.1519 0
M  V30 12778 O 1200.03 2.10819 1.71077 0
M  V30 12779 C 1198.49 3.57427 -0.421174 0
M  V30 12780 C 1198.09 4.08276 -1.84432 0
M  V30 12781 C 1199.84 4.24494 -0.0224734 0
M  V30 12782 C 1197.74 5.58272 -1.95157 0
M  V30 12783 H 1196.67 0.747995 -0.0949728 0
M  V30 12784 H 1199.33 1.60122 -0.896276 0
M  V30 12785 H 1197.71 3.95011 0.279762 0
M  V30 12786 H 1198.88 3.82051 -2.57631 0
M  V30 12787 H 1197.2 3.53834 -2.19523 0
M  V30 12788 H 1199.79 5.34637 -0.0817744 0
M  V30 12789 H 1200.14 4.03593 1.02069 0
M  V30 12790 H 1200.67 3.92046 -0.67416 0
M  V30 12791 H 1197.41 5.84038 -2.97623 0
M  V30 12792 H 1196.93 5.86335 -1.2638 0
M  V30 12793 H 1198.61 6.23509 -1.72759 0
M  V30 12794 N 1198.74 0.470782 1.50404 0
M  V30 12795 C 1199.99 -0.0859981 2.01517 0
M  V30 12796 C 1200.3 -1.40811 1.35763 0
M  V30 12797 O 1201.51 -2.04982 1.7803 0
M  V30 12798 C 1199.96 -0.203773 3.59323 0
M  V30 12799 C 1199.57 1.10989 4.34034 0
M  V30 12800 C 1201.32 -0.712528 4.18477 0
M  V30 12801 C 1199.22 0.955928 5.83623 0
M  V30 12802 H 1198.15 -0.0359142 0.753144 0
M  V30 12803 H 1200.8 0.605631 1.73218 0
M  V30 12804 H 1199.19 -0.959177 3.84208 0
M  V30 12805 H 1200.36 1.87623 4.20873 0
M  V30 12806 H 1198.67 1.54973 3.86487 0
M  V30 12807 H 1201.27 -0.844745 5.27985 0
M  V30 12808 H 1201.61 -1.70377 3.79838 0
M  V30 12809 H 1202.15 -0.0145179 3.97797 0
M  V30 12810 H 1198.89 1.92054 6.26734 0
M  V30 12811 H 1198.41 0.22997 5.99359 0
M  V30 12812 H 1200.09 0.622423 6.43999 0
M  V30 12813 N 1200.22 -1.56282 0.203376 0
M  V30 12814 C 1201.18 -2.18233 -0.700489 0
M  V30 12815 C 1202.18 -1.13908 -1.13497 0
M  V30 12816 O 1203.37 -1.39246 -1.04672 0
M  V30 12817 C 1200.5 -2.79107 -1.95735 0
M  V30 12818 H 1201.7 -2.99469 -0.160649 0
M  V30 12819 H 1199.25 -1.56232 -0.0462475 0
M  V30 12820 H 1199.98 -2.01691 -2.53951 0
M  V30 12821 H 1199.77 -3.55486 -1.65446 0
M  V30 12822 H 1201.26 -3.2665 -2.60172 0
M  V30 12823 N 1201.7 0.070167 -1.57444 0
M  V30 12824 C 1202.63 1.11509 -1.991 0
M  V30 12825 C 1203.61 1.37481 -0.868194 0
M  V30 12826 O 1204.79 1.50827 -1.13064 0
M  V30 12827 C 1201.92 2.45908 -2.3291 0
M  V30 12828 C 1200.96 2.36059 -3.55216 0
M  V30 12829 S 1201.8 1.75316 -5.05989 0
M  V30 12830 C 1202.95 3.11289 -5.43001 0
M  V30 12831 H 1203.19 0.760096 -2.87419 0
M  V30 12832 H 1200.72 0.278756 -1.51863 0
M  V30 12833 H 1202.68 3.23217 -2.53063 0
M  V30 12834 H 1201.34 2.78567 -1.45117 0
M  V30 12835 H 1200.53 3.35176 -3.76395 0
M  V30 12836 H 1200.13 1.66886 -3.34701 0
M  V30 12837 H 1202.42 4.07603 -5.41171 0
M  V30 12838 H 1203.37 2.94888 -6.43775 0
M  V30 12839 H 1203.78 3.11969 -4.70463 0
M  V30 12840 N 1203.17 1.53854 0.341593 0
M  V30 12841 C 1204.45 1.61823 1.09875 0
M  V30 12842 C 1204.83 0.440711 2.06448 0
M  V30 12843 O 1204.18 -0.566833 2.21358 0
M  V30 12844 C 1204.39 2.9799 1.81668 0
M  V30 12845 C 1205.74 3.53411 2.35341 0
M  V30 12846 O 1206.76 3.00177 1.91761 0
M  V30 12847 O 1205.62 4.4653 3.15076 0
M  V30 12848 H 1202.71 0.654599 0.5054 0
M  V30 12849 H 1205.26 1.66199 0.342929 0
M  V30 12850 H 1204.03 3.7513 1.11323 0
M  V30 12851 H 1203.65 2.97213 2.64103 0
M  V30 12852 N 1204.65 -0.602709 1.4562 0
M  V30 12853 C 1206.06 -1.1847 1.44297 0
M  V30 12854 C 1206.41 -1.95434 0.17316 0
M  V30 12855 O 1205.54 -2.03894 -0.724986 0
M  V30 12856 C 1206.13 -2.15508 2.61422 0
M  V30 12857 C 1204.69 -2.69073 2.63204 0
M  V30 12858 C 1203.84 -1.44568 2.36633 0
M  V30 12859 H 1206.79 -0.391745 1.53789 0
M  V30 12860 H 1206.81 -2.98628 2.35799 0
M  V30 12861 H 1206.32 -1.59464 3.53826 0
M  V30 12862 H 1204.42 -3.29042 1.7482 0
M  V30 12863 H 1204.54 -3.13173 3.62573 0
M  V30 12864 H 1202.9 -1.73692 1.86287 0
M  V30 12865 H 1203.68 -0.903852 3.31188 0
M  V30 12866 N 1206.13 -1.32992 -0.845635 0
M  V30 12867 C 1207.36 -1.26903 -1.63031 0
M  V30 12868 C 1207.77 0.163589 -1.88491 0
M  V30 12869 O 1207.11 1.11402 -1.46066 0
M  V30 12870 C 1207.17 -1.96843 -3.00821 0
M  V30 12871 C 1206.84 -3.46164 -2.98362 0
M  V30 12872 C 1207.83 -4.41488 -2.74562 0
M  V30 12873 C 1205.52 -3.88237 -3.18712 0
M  V30 12874 C 1207.51 -5.7686 -2.71129 0
M  V30 12875 C 1205.2 -5.23715 -3.14905 0
M  V30 12876 C 1206.2 -6.17838 -2.91144 0
M  V30 12877 O 1205.89 -7.50836 -2.87228 0
M  V30 12878 H 1205.62 -0.438806 -0.514223 0
M  V30 12879 H 1208.17 -1.75817 -1.06196 0
M  V30 12880 H 1206.4 -1.42511 -3.59482 0
M  V30 12881 H 1208.09 -1.84343 -3.61625 0
M  V30 12882 H 1208.86 -4.10308 -2.58598 0
M  V30 12883 H 1204.74 -3.1539 -3.36229 0
M  V30 12884 H 1208.28 -6.50299 -2.52502 0
M  V30 12885 H 1204.18 -5.54523 -3.30416 0
M  V30 12886 H 1204.94 -7.60304 -3.03118 0
M  V30 12887 N 1207.61 1.06304 -1.1635 0
M  V30 12888 C 1208.84 1.82534 -0.967725 0
M  V30 12889 C 1209.25 1.82816 0.487338 0
M  V30 12890 O 1208.59 1.24581 1.35001 0
M  V30 12891 C 1208.65 3.30349 -1.4181 0
M  V30 12892 C 1208.31 3.53769 -2.89303 0
M  V30 12893 C 1209.31 3.46826 -3.87308 0
M  V30 12894 C 1207 3.81094 -3.2722 0
M  V30 12895 C 1208.99 3.66874 -5.21232 0
M  V30 12896 C 1206.68 4.00792 -4.61313 0
M  V30 12897 C 1207.68 3.93679 -5.58127 0
M  V30 12898 O 1207.36 4.12839 -6.89796 0
M  V30 12899 H 1207.1 0.582407 -0.343189 0
M  V30 12900 H 1209.65 1.35022 -1.54784 0
M  V30 12901 H 1207.88 3.78722 -0.781456 0
M  V30 12902 H 1209.57 3.88072 -1.18976 0
M  V30 12903 H 1210.33 3.25706 -3.59361 0
M  V30 12904 H 1206.21 3.85739 -2.5244 0
M  V30 12905 H 1209.76 3.61238 -5.96786 0
M  V30 12906 H 1205.65 4.214 -4.8897 0
M  V30 12907 H 1206.42 4.30128 -6.96371 0
M  V30 12908 N 1209.09 0.96196 1.24836 0
M  V30 12909 C 1210.32 0.637214 1.96528 0
M  V30 12910 C 1210.72 -0.79638 1.71623 0
M  V30 12911 O 1210.07 -1.54524 0.993372 0
M  V30 12912 C 1210.13 0.824972 3.49906 0
M  V30 12913 C 1209.79 2.23711 3.985 0
M  V30 12914 C 1210.79 3.21439 4.08623 0
M  V30 12915 C 1208.47 2.56327 4.31974 0
M  V30 12916 C 1210.47 4.49872 4.51546 0
M  V30 12917 C 1208.16 3.84987 4.74582 0
M  V30 12918 C 1209.15 4.81572 4.84332 0
M  V30 12919 O 1208.84 6.07938 5.25991 0
M  V30 12920 H 1208.57 0.237214 0.633013 0
M  V30 12921 H 1211.13 1.29081 1.59773 0
M  V30 12922 H 1209.36 0.114219 3.86531 0
M  V30 12923 H 1211.05 0.500179 4.02806 0
M  V30 12924 H 1211.81 2.97569 3.82985 0
M  V30 12925 H 1207.69 1.81872 4.23608 0
M  V30 12926 H 1211.24 5.25261 4.59071 0
M  V30 12927 H 1207.13 4.08661 4.99666 0
M  V30 12928 H 1207.9 6.11421 5.44157 0
M  V30 12929 N 1210.56 -1.39601 0.731392 0
M  V30 12930 C 1211.81 -2.00586 0.277756 0
M  V30 12931 C 1212.14 -1.58027 -1.13391 0
M  V30 12932 O 1211.39 -0.798691 -1.7866 0
M  V30 12933 C 1211.69 -3.55934 0.323352 0
M  V30 12934 C 1211.36 -4.18131 1.68753 0
M  V30 12935 C 1210.02 -4.34833 2.06092 0
M  V30 12936 C 1212.37 -4.5267 2.58339 0
M  V30 12937 C 1209.7 -4.83362 3.32532 0
M  V30 12938 C 1212.05 -5.02607 3.84148 0
M  V30 12939 C 1210.72 -5.17517 4.21584 0
M  V30 12940 H 1209.99 -0.733996 0.101638 0
M  V30 12941 H 1212.63 -1.66981 0.937528 0
M  V30 12942 H 1210.94 -3.89542 -0.419995 0
M  V30 12943 H 1212.64 -4.00974 -0.0457235 0
M  V30 12944 H 1209.23 -4.0553 1.38722 0
M  V30 12945 H 1213.41 -4.39388 2.30763 0
M  V30 12946 H 1208.67 -4.93091 3.61485 0
M  V30 12947 H 1212.84 -5.28306 4.53724 0
M  V30 12948 H 1210.47 -5.54882 5.19625 0
M  V30 12949 N 1212.04 -0.478751 -1.50152 0
M  V30 12950 C 1212.97 0.347829 -2.26545 0
M  V30 12951 C 1213.99 0.950354 -1.32182 0
M  V30 12952 O 1215.18 0.837462 -1.57635 0
M  V30 12953 C 1212.28 1.50255 -3.0377 0
M  V30 12954 C 1211.45 1.01142 -4.25546 0
M  V30 12955 C 1210.51 2.0411 -4.85 0
M  V30 12956 O 1209.53 1.61862 -5.45701 0
M  V30 12957 N 1210.74 3.36982 -4.72677 0
M  V30 12958 H 1213.5 -0.307113 -2.98122 0
M  V30 12959 H 1211.06 -0.309981 -1.58905 0
M  V30 12960 H 1213.05 2.18848 -3.40423 0
M  V30 12961 H 1211.62 2.06205 -2.34943 0
M  V30 12962 H 1210.84 0.151124 -3.9391 0
M  V30 12963 H 1212.13 0.661326 -5.04484 0
M  V30 12964 H 1211.53 3.74011 -4.2442 0
M  V30 12965 H 1210.09 4.0135 -5.13577 0
M  V30 12966 N 1213.52 1.56172 -0.211661 0
M  V30 12967 C 1214.43 2.23468 0.714081 0
M  V30 12968 C 1215.45 1.23908 1.22159 0
M  V30 12969 O 1216.62 1.56693 1.26528 0
M  V30 12970 C 1213.69 2.89375 1.90953 0
M  V30 12971 C 1212.75 4.04251 1.44497 0
M  V30 12972 C 1211.98 4.67006 2.58343 0
M  V30 12973 O 1212.2 4.28721 3.76237 0
M  V30 12974 O 1211.14 5.56177 2.3011 0
M  V30 12975 H 1214.96 3.03219 0.170862 0
M  V30 12976 H 1212.55 1.49389 0.0183607 0
M  V30 12977 H 1214.43 3.3101 2.60787 0
M  V30 12978 H 1213.11 2.12591 2.44104 0
M  V30 12979 H 1212.01 3.67205 0.714932 0
M  V30 12980 H 1213.35 4.82748 0.959947 0
M  V30 12981 N 1215 -0.0618163 1.57479 0
M  V30 12982 C 1216.25 -0.757569 1.87364 0
M  V30 12983 C 1216.57 -1.77607 0.805025 0
M  V30 12984 O 1215.84 -1.95202 -0.165216 0
M  V30 12985 H 1214.42 -0.28278 0.691408 0
M  V30 12986 H 1217.08 -0.0355354 1.94868 0
M  V30 12987 H 1216.18 -1.26758 2.85199 0
M  V30 12988 N 1216.48 -1.54033 -0.333429 0
M  V30 12989 C 1217.72 -1.72958 -1.07038 0
M  V30 12990 C 1218.08 -0.492055 -1.86002 0
M  V30 12991 O 1217.37 0.515453 -1.84536 0
M  V30 12992 C 1217.56 -2.93926 -2.03328 0
M  V30 12993 C 1217.39 -4.29324 -1.33831 0
M  V30 12994 C 1216.16 -4.93647 -1.07892 0
M  V30 12995 C 1218.36 -5.08664 -0.75929 0
M  V30 12996 N 1216.34 -6.12897 -0.35082 0
M  V30 12997 C 1217.71 -6.19788 -0.162281 0
M  V30 12998 C 1219.77 -4.93491 -0.661131 0
M  V30 12999 C 1218.47 -7.17394 0.523351 0
M  V30 13000 C 1220.5 -5.91399 0.0107794 0
M  V30 13001 C 1219.86 -7.01867 0.596775 0
M  V30 13002 H 1215.96 -0.685828 -0.375718 0
M  V30 13003 H 1218.54 -1.91478 -0.35274 0
M  V30 13004 H 1216.71 -2.76889 -2.72373 0
M  V30 13005 H 1218.45 -3.01524 -2.69936 0
M  V30 13006 H 1215.2 -4.53392 -1.36868 0
M  V30 13007 H 1215.63 -6.77 -0.00120039 0
M  V30 13008 H 1220.27 -4.08242 -1.09991 0
M  V30 13009 H 1217.99 -8.02209 0.973994 0
M  V30 13010 H 1221.57 -5.81736 0.0862353 0
M  V30 13011 H 1220.45 -7.76327 1.10845 0
M  V30 13012 N 1217.95 0.594978 -1.45938 0
M  V30 13013 C 1218.9 1.726 -1.55923 0
M  V30 13014 C 1219.9 1.63893 -0.428411 0
M  V30 13015 O 1221.1 1.69535 -0.604815 0
M  V30 13016 H 1217.48 0.570447 -0.489994 0
M  V30 13017 H 1219.45 1.61308 -2.51043 0
M  V30 13018 C 1218.2 3.10988 -1.55505 0
M  V30 13019 H 1217.52 3.18353 -2.4185 0
M  V30 13020 H 1218.96 3.8992 -1.66548 0
M  V30 13021 C 1217.42 3.35721 -0.281573 0
M  V30 13022 O 1217.95 3.96676 0.633336 0
M  V30 13023 N 1216.16 2.90083 -0.173314 0
M  V30 13024 H 1215.7 2.4066 -0.91872 0
M  V30 13025 H 1215.66 3.07005 0.677903 0
M  V30 13026 N 1219.43 1.33438 0.838571 0
M  V30 13027 C 1220.68 1.24259 1.58879 0
M  V30 13028 C 1220.99 -0.189957 1.94675 0
M  V30 13029 O 1222.2 -0.40376 2.68481 0
M  V30 13030 C 1220.66 2.1773 2.86569 0
M  V30 13031 C 1220.26 3.66156 2.58135 0
M  V30 13032 C 1222.01 2.17424 3.64591 0
M  V30 13033 C 1219.92 4.5154 3.81923 0
M  V30 13034 H 1218.85 0.461534 0.59624 0
M  V30 13035 H 1221.5 1.58504 0.924588 0
M  V30 13036 H 1219.88 1.76418 3.54532 0
M  V30 13037 H 1221.05 4.1591 1.98382 0
M  V30 13038 H 1219.37 3.68754 1.93416 0
M  V30 13039 H 1221.96 2.78446 4.56478 0
M  V30 13040 H 1222.31 1.16939 3.99539 0
M  V30 13041 H 1222.84 2.571 3.03553 0
M  V30 13042 H 1219.58 5.52902 3.52107 0
M  V30 13043 H 1219.1 4.06529 4.41015 0
M  V30 13044 H 1220.78 4.65359 4.495 0
M  V30 13045 N 1220.91 -1.05686 1.16912 0
M  V30 13046 C 1222.16 -1.78597 0.954425 0
M  V30 13047 C 1222.49 -1.87494 -0.517315 0
M  V30 13048 O 1221.74 -1.36736 -1.40006 0
M  V30 13049 C 1222.04 -3.22779 1.53455 0
M  V30 13050 C 1221.71 -3.3395 3.02965 0
M  V30 13051 C 1220.37 -3.36706 3.43777 0
M  V30 13052 C 1222.72 -3.35371 3.98969 0
M  V30 13053 C 1220.05 -3.38506 4.79198 0
M  V30 13054 C 1222.4 -3.38708 5.34284 0
M  V30 13055 C 1221.06 -3.39749 5.74567 0
M  V30 13056 H 1220.33 -0.653534 0.349249 0
M  V30 13057 H 1222.98 -1.24245 1.45723 0
M  V30 13058 H 1221.29 -3.80025 0.953331 0
M  V30 13059 H 1222.98 -3.77805 1.34404 0
M  V30 13060 H 1219.57 -3.32515 2.70429 0
M  V30 13061 H 1223.76 -3.32447 3.685 0
M  V30 13062 H 1219.01 -3.37619 5.09729 0
M  V30 13063 H 1223.19 -3.38755 6.08455 0
M  V30 13064 H 1220.81 -3.40897 6.7948 0
M  V30 13065 N 1222.39 -0.968567 -1.24324 0
M  V30 13066 C 1223.67 -0.547774 -1.87773 0
M  V30 13067 C 1224.05 0.975107 -1.87229 0
M  V30 13068 O 1223.39 1.84683 -1.34553 0
M  V30 13069 C 1223.6 -1.1403 -3.29846 0
M  V30 13070 C 1224.95 -1.22572 -4.06523 0
M  V30 13071 O 1225.98 -1.09287 -3.3902 0
M  V30 13072 O 1224.83 -1.43579 -5.27302 0
M  V30 13073 H 1221.93 -0.182771 -0.806551 0
M  V30 13074 H 1224.47 -1.06289 -1.3229 0
M  V30 13075 H 1223.25 -2.18303 -3.24745 0
M  V30 13076 H 1222.87 -0.609275 -3.92904 0
M  V30 13077 N 1223.87 1.39211 -0.738786 0
M  V30 13078 C 1225.11 2.0004 -0.28782 0
M  V30 13079 C 1225.44 1.58921 1.13 0
M  V30 13080 O 1224.71 0.839193 1.77015 0
M  V30 13081 H 1223.29 0.739805 -0.103425 0
M  V30 13082 H 1225.95 1.70202 -0.949587 0
M  V30 13083 H 1225.04 3.10251 -0.339208 0
M  V30 13084 N 1225.34 0.486708 1.49896 0
M  V30 13085 C 1226.59 -0.0646197 2.01596 0
M  V30 13086 C 1226.91 -1.39363 1.37249 0
M  V30 13087 O 1228.11 -2.03082 1.80194 0
M  V30 13088 C 1226.57 -0.16565 3.59519 0
M  V30 13089 C 1226.18 1.15586 4.32832 0
M  V30 13090 C 1227.92 -0.668103 4.1921 0
M  V30 13091 C 1225.83 1.01778 5.82576 0
M  V30 13092 H 1224.76 -0.0279241 0.753483 0
M  V30 13093 H 1227.41 0.623969 1.72566 0
M  V30 13094 H 1225.79 -0.918372 3.85204 0
M  V30 13095 H 1226.96 1.92076 4.1886 0
M  V30 13096 H 1225.28 1.59064 3.84822 0
M  V30 13097 H 1227.88 -0.788698 5.28851 0
M  V30 13098 H 1228.22 -1.66339 3.81624 0
M  V30 13099 H 1228.75 0.0276746 3.9779 0
M  V30 13100 H 1225.49 1.9869 6.24662 0
M  V30 13101 H 1225.01 0.293527 5.99081 0
M  V30 13102 H 1226.69 0.690693 6.43303 0
M  V30 13103 N 1226.82 -1.56058 0.219941 0
M  V30 13104 C 1228.07 -1.97436 -0.412543 0
M  V30 13105 C 1228.39 -1.11058 -1.61014 0
M  V30 13106 O 1229.59 -1.42328 -2.31203 0
M  V30 13107 C 1228.05 -3.51227 -0.785362 0
M  V30 13108 C 1227.66 -4.46305 0.389328 0
M  V30 13109 C 1229.4 -4.01321 -1.38354 0
M  V30 13110 C 1227.31 -5.914 -0.00583531 0
M  V30 13111 H 1226.24 -0.73728 -0.157906 0
M  V30 13112 H 1228.89 -1.8076 0.315898 0
M  V30 13113 H 1227.27 -3.63497 -1.57118 0
M  V30 13114 H 1228.44 -4.45781 1.16686 0
M  V30 13115 H 1226.76 -4.06543 0.900633 0
M  V30 13116 H 1229.36 -5.07221 -1.69207 0
M  V30 13117 H 1229.7 -3.47077 -2.29876 0
M  V30 13118 H 1230.23 -3.92267 -0.66119 0
M  V30 13119 H 1226.97 -6.49623 0.87583 0
M  V30 13120 H 1226.49 -5.95121 -0.74772 0
M  V30 13121 H 1228.17 -6.45549 -0.43308 0
M  V30 13122 N 1228.3 0.053464 -1.57509 0
M  V30 13123 C 1229.55 0.750212 -1.88414 0
M  V30 13124 C 1229.88 1.76288 -0.814619 0
M  V30 13125 O 1229.16 1.93728 0.173136 0
M  V30 13126 C 1229.44 1.44176 -3.29978 0
M  V30 13127 C 1229.29 0.444263 -4.47601 0
M  V30 13128 C 1230.61 2.38207 -3.70061 0
M  V30 13129 H 1227.73 0.271266 -0.685262 0
M  V30 13130 H 1230.37 0.0131676 -1.89995 0
M  V30 13131 H 1228.52 2.07001 -3.2876 0
M  V30 13132 H 1230.19 -0.180182 -4.60948 0
M  V30 13133 H 1228.44 -0.238771 -4.33142 0
M  V30 13134 H 1229.11 0.966134 -5.43479 0
M  V30 13135 H 1231.58 1.85446 -3.7249 0
M  V30 13136 H 1230.46 2.83588 -4.69967 0
M  V30 13137 H 1230.72 3.23821 -3.00985 0
M  V30 13138 N 1229.78 1.54207 0.325255 0
M  V30 13139 C 1231 1.7661 1.08736 0
M  V30 13140 C 1231.43 0.512449 1.80985 0
M  V30 13141 O 1230.79 -0.535913 1.73198 0
M  V30 13142 C 1230.84 2.95797 2.06243 0
M  V30 13143 O 1229.94 2.67225 3.14109 0
M  V30 13144 H 1229.28 0.585282 0.313593 0
M  V30 13145 H 1231.81 2.01225 0.370066 0
M  V30 13146 H 1231.82 3.23097 2.49143 0
M  V30 13147 H 1230.5 3.86712 1.53058 0
M  V30 13148 H 1229.07 2.50869 2.75897 0
M  V30 13149 N 1231.26 -0.58723 1.46251 0
M  V30 13150 C 1232.19 -1.70694 1.5933 0
M  V30 13151 C 1233.17 -1.64208 0.443831 0
M  V30 13152 O 1234.35 -1.82294 0.669516 0
M  V30 13153 C 1231.48 -3.0933 1.579 0
M  V30 13154 C 1230.44 -3.30643 2.7177 0
M  V30 13155 C 1229.76 -4.69761 2.554 0
M  V30 13156 C 1231.06 -3.18916 4.1363 0
M  V30 13157 H 1232.76 -1.60004 2.53059 0
M  V30 13158 H 1230.3 -0.768343 1.21789 0
M  V30 13159 H 1232.26 -3.87479 1.65644 0
M  V30 13160 H 1230.98 -3.20907 0.60712 0
M  V30 13161 H 1229.64 -2.54892 2.63488 0
M  V30 13162 H 1229.29 -4.78098 1.56306 0
M  V30 13163 H 1228.99 -4.84974 3.31774 0
M  V30 13164 H 1230.51 -5.50084 2.65028 0
M  V30 13165 H 1231.93 -3.86915 4.23048 0
M  V30 13166 H 1230.32 -3.45653 4.90555 0
M  V30 13167 H 1231.39 -2.1606 4.34104 0
M  V30 13168 N 1232.74 -1.33881 -0.831482 0
M  V30 13169 C 1233.96 -1.28961 -1.62431 0
M  V30 13170 C 1234.39 0.135249 -1.87613 0
M  V30 13171 O 1233.74 1.09426 -1.44553 0
M  V30 13172 C 1233.79 -2.07767 -2.94729 0
M  V30 13173 O 1232.9 -1.44133 -3.86393 0
M  V30 13174 H 1232.24 -0.443313 -0.494337 0
M  V30 13175 H 1234.77 -1.76555 -1.0339 0
M  V30 13176 H 1234.78 -2.18806 -3.44366 0
M  V30 13177 H 1233.45 -3.11367 -2.75724 0
M  V30 13178 H 1232.03 -1.41784 -3.44894 0
M  V30 13179 N 1234.21 1.05064 -1.1747 0
M  V30 13180 C 1235.14 2.14786 -0.915936 0
M  V30 13181 C 1236.12 1.69502 0.142561 0
M  V30 13182 O 1237.31 1.94198 -0.00794522 0
M  V30 13183 C 1234.44 3.44629 -0.429864 0
M  V30 13184 C 1233.39 4.03486 -1.42769 0
M  V30 13185 C 1232.72 5.28689 -0.799528 0
M  V30 13186 C 1234.02 4.40823 -2.80129 0
M  V30 13187 H 1235.71 2.3669 -1.83352 0
M  V30 13188 H 1233.26 1.13751 -0.882992 0
M  V30 13189 H 1235.21 4.20737 -0.236245 0
M  V30 13190 H 1233.94 3.22381 0.523263 0
M  V30 13191 H 1232.6 3.29449 -1.60808 0
M  V30 13192 H 1232.24 5.02744 0.160474 0
M  V30 13193 H 1231.94 5.69028 -1.46565 0
M  V30 13194 H 1233.47 6.07483 -0.616212 0
M  V30 13195 H 1234.88 5.07959 -2.65801 0
M  V30 13196 H 1233.28 4.92183 -3.43331 0
M  V30 13197 H 1234.35 3.51108 -3.34441 0
M  V30 13198 N 1235.69 0.975146 1.23809 0
M  V30 13199 C 1236.62 0.45593 2.23599 0
M  V30 13200 C 1237.6 -0.474069 1.55536 0
M  V30 13201 O 1238.79 -0.40373 1.84126 0
M  V30 13202 C 1235.91 -0.341008 3.36979 0
M  V30 13203 C 1234.96 0.532362 4.23164 0
M  V30 13204 S 1235.79 1.97706 4.97667 0
M  V30 13205 C 1236.95 1.18912 6.145 0
M  V30 13206 H 1237.18 1.30157 2.67295 0
M  V30 13207 H 1234.71 0.78074 1.33206 0
M  V30 13208 H 1236.67 -0.794817 4.02732 0
M  V30 13209 H 1235.33 -1.16171 2.91827 0
M  V30 13210 H 1234.53 -0.0798928 5.03937 0
M  V30 13211 H 1234.13 0.922202 3.62452 0
M  V30 13212 H 1236.42 0.447823 6.76018 0
M  V30 13213 H 1237.36 1.97148 6.80102 0
M  V30 13214 H 1237.77 0.710216 5.60014 0
M  V30 13215 N 1237.17 -1.38817 0.746158 0
M  V30 13216 C 1238.08 -2.34316 0.115386 0
M  V30 13217 C 1239.1 -1.58892 -0.709179 0
M  V30 13218 O 1240.27 -1.91126 -0.635059 0
M  V30 13219 C 1237.34 -3.37977 -0.772821 0
M  V30 13220 C 1236.4 -4.2925 0.0652679 0
M  V30 13221 C 1235.63 -5.2796 -0.78064 0
M  V30 13222 O 1235.85 -5.33474 -2.01896 0
M  V30 13223 O 1234.79 -6.01556 -0.20338 0
M  V30 13224 H 1238.61 -2.89937 0.903887 0
M  V30 13225 H 1236.2 -1.40536 0.506958 0
M  V30 13226 H 1238.08 -4.01468 -1.28068 0
M  V30 13227 H 1236.76 -2.84723 -1.53994 0
M  V30 13228 H 1235.66 -3.68945 0.61891 0
M  V30 13229 H 1237 -4.85739 0.794871 0
M  V30 13230 N 1238.65 -0.49465 -1.49636 0
M  V30 13231 C 1239.58 0.276606 -2.31856 0
M  V30 13232 C 1240.56 0.968499 -1.39836 0
M  V30 13233 O 1241.74 0.96113 -1.68748 0
M  V30 13234 C 1238.87 1.34522 -3.20189 0
M  V30 13235 C 1237.83 0.773571 -4.20951 0
M  V30 13236 C 1237.15 1.94223 -4.98178 0
M  V30 13237 C 1238.45 -0.231096 -5.21788 0
M  V30 13238 H 1240.15 -0.409668 -2.96584 0
M  V30 13239 H 1237.69 -0.198461 -1.42626 0
M  V30 13240 H 1239.65 1.89244 -3.76517 0
M  V30 13241 H 1238.37 2.06059 -2.53392 0
M  V30 13242 H 1237.03 0.248144 -3.65759 0
M  V30 13243 H 1236.68 2.64514 -4.27834 0
M  V30 13244 H 1236.38 1.56584 -5.66353 0
M  V30 13245 H 1237.9 2.49391 -5.57348 0
M  V30 13246 H 1239.32 0.227768 -5.72847 0
M  V30 13247 H 1237.71 -0.522984 -5.97817 0
M  V30 13248 H 1238.78 -1.14914 -4.71087 0
M  V30 13249 N 1240.13 1.55939 -0.228214 0
M  V30 13250 C 1241.37 1.98084 0.400884 0
M  V30 13251 C 1241.69 1.11727 1.59819 0
M  V30 13252 O 1240.96 0.195794 1.94919 0
M  V30 13253 H 1239.54 0.731558 0.151102 0
M  V30 13254 H 1242.21 1.92211 -0.322659 0
M  V30 13255 H 1241.3 3.03617 0.722706 0
M  V30 13256 N 1241.6 -0.0451101 1.57535 0
M  V30 13257 C 1242.53 -1.05046 2.08537 0
M  V30 13258 C 1243.52 -1.3872 0.984418 0
M  V30 13259 O 1244.7 -1.47884 1.25873 0
M  V30 13260 C 1241.83 -2.3562 2.55148 0
M  V30 13261 C 1240.78 -2.16231 3.69362 0
M  V30 13262 C 1240.11 -3.52423 4.02122 0
M  V30 13263 C 1241.41 -1.56159 4.98409 0
M  V30 13264 H 1243.1 -0.625965 2.92783 0
M  V30 13265 H 1240.65 -0.299657 1.40848 0
M  V30 13266 H 1242.6 -3.06266 2.89446 0
M  V30 13267 H 1241.33 -2.80099 1.67964 0
M  V30 13268 H 1239.99 -1.4802 3.35389 0
M  V30 13269 H 1239.63 -3.94522 3.12028 0
M  V30 13270 H 1239.33 -3.4028 4.79044 0
M  V30 13271 H 1240.86 -4.24458 4.38939 0
M  V30 13272 H 1242.27 -2.16703 5.30766 0
M  V30 13273 H 1240.67 -1.54638 5.79834 0
M  V30 13274 H 1241.74 -0.525698 4.82042 0
M  V30 13275 N 1243.08 -1.54377 -0.317073 0
M  V30 13276 C 1244.31 -1.77184 -1.07798 0
M  V30 13277 C 1244.73 -0.52204 -1.80711 0
M  V30 13278 O 1244.09 0.52672 -1.7348 0
M  V30 13279 C 1244.14 -2.96887 -2.04671 0
M  V30 13280 O 1243.24 -2.68887 -3.12688 0
M  V30 13281 H 1242.58 -0.586937 -0.310485 0
M  V30 13282 H 1245.11 -2.01419 -0.35939 0
M  V30 13283 H 1245.12 -3.24414 -2.47426 0
M  V30 13284 H 1243.8 -3.87518 -1.51005 0
M  V30 13285 H 1242.38 -2.52329 -2.74562 0
M  V30 13286 N 1244.56 0.579466 -1.4656 0
M  V30 13287 C 1245.51 1.70937 -1.57744 0
M  V30 13288 C 1246.5 1.6343 -0.44577 0
M  V30 13289 O 1247.71 1.68884 -0.622762 0
M  V30 13290 H 1244.08 0.565218 -0.496017 0
M  V30 13291 H 1246.05 1.58636 -2.52739 0
M  V30 13292 C 1244.8 3.09321 -1.58794 0
M  V30 13293 H 1244.13 3.1577 -2.45213 0
M  V30 13294 H 1245.57 3.88132 -1.70674 0
M  V30 13295 C 1244.03 3.35404 -0.317165 0
M  V30 13296 O 1244.56 3.97325 0.591228 0
M  V30 13297 N 1242.76 2.89883 -0.204071 0
M  V30 13298 H 1242.31 2.39672 -0.944194 0
M  V30 13299 H 1242.27 3.07706 0.645303 0
M  V30 13300 N 1246.04 1.3432 0.824371 0
M  V30 13301 C 1247.28 1.26783 1.58284 0
M  V30 13302 C 1247.62 -0.162282 1.93521 0
M  V30 13303 O 1246.89 -1.1073 1.59903 0
M  V30 13304 C 1247.18 2.15725 2.88331 0
M  V30 13305 C 1247.03 3.67266 2.59684 0
M  V30 13306 C 1248.35 2.04141 3.8989 0
M  V30 13307 H 1245.47 0.461893 0.574303 0
M  V30 13308 H 1248.11 1.64558 0.949769 0
M  V30 13309 H 1246.26 1.83639 3.42358 0
M  V30 13310 H 1247.93 4.09711 2.11978 0
M  V30 13311 H 1246.17 3.88426 1.93151 0
M  V30 13312 H 1246.84 4.24863 3.52414 0
M  V30 13313 H 1249.32 2.3231 3.45212 0
M  V30 13314 H 1248.2 2.68601 4.7869 0
M  V30 13315 H 1248.46 1.01795 4.30221 0
M  V30 13316 N 1247.52 -1.0444 1.18026 0
M  V30 13317 C 1248.43 -2.15862 0.918747 0
M  V30 13318 C 1249.44 -1.73614 -0.115808 0
M  V30 13319 O 1250.62 -2.01294 0.0652312 0
M  V30 13320 C 1247.68 -3.43846 0.443922 0
M  V30 13321 C 1246.74 -4.00497 1.54599 0
M  V30 13322 C 1245.98 -5.22373 1.09372 0
M  V30 13323 O 1246.2 -5.70379 -0.049085 0
M  V30 13324 O 1245.13 -5.71459 1.88992 0
M  V30 13325 H 1248.96 -2.40776 1.85097 0
M  V30 13326 H 1246.55 -1.14326 0.961769 0
M  V30 13327 H 1248.43 -4.20985 0.187017 0
M  V30 13328 H 1247.1 -3.20414 -0.460051 0
M  V30 13329 H 1246.01 -3.24764 1.85686 0
M  V30 13330 H 1247.34 -4.28262 2.42595 0
M  V30 13331 N 1248.99 -0.981699 -1.2329 0
M  V30 13332 C 1250.24 -0.650015 -1.91361 0
M  V30 13333 C 1250.56 0.819184 -1.76959 0
M  V30 13334 O 1249.83 1.5861 -1.14977 0
M  V30 13335 H 1248.41 -0.237427 -0.708264 0
M  V30 13336 H 1251.08 -1.24579 -1.49887 0
M  V30 13337 H 1250.17 -0.902772 -2.98758 0
M  V30 13338 N 1250.47 1.3842 -0.753509 0
M  V30 13339 C 1251.4 2.33073 -0.141198 0
M  V30 13340 C 1252.38 1.54863 0.70367 0
M  V30 13341 O 1253.57 1.8318 0.644872 0
M  V30 13342 C 1250.7 3.39043 0.752802 0
M  V30 13343 C 1249.65 4.27999 0.0106692 0
M  V30 13344 C 1248.98 5.24824 1.02291 0
M  V30 13345 C 1250.28 5.09308 -1.15768 0
M  V30 13346 H 1251.97 2.84528 -0.93188 0
M  V30 13347 H 1249.52 1.36802 -0.449567 0
M  V30 13348 H 1251.47 4.04224 1.19083 0
M  V30 13349 H 1250.2 2.8607 1.57581 0
M  V30 13350 H 1248.85 3.64323 -0.407939 0
M  V30 13351 H 1248.5 4.68139 1.83998 0
M  V30 13352 H 1248.2 5.85196 0.53101 0
M  V30 13353 H 1249.73 5.92882 1.46026 0
M  V30 13354 H 1251.14 5.6773 -0.797203 0
M  V30 13355 H 1249.54 5.78914 -1.58044 0
M  V30 13356 H 1250.61 4.43051 -1.97062 0
M  V30 13357 N 1251.95 0.502579 1.49372 0
M  V30 13358 C 1253.18 -0.0403087 2.07361 0
M  V30 13359 C 1253.6 -1.29918 1.36026 0
M  V30 13360 O 1252.96 -1.76428 0.417488 0
M  V30 13361 C 1253.01 -0.275362 3.59547 0
M  V30 13362 O 1252.11 -1.34975 3.89686 0
M  V30 13363 H 1251.45 0.0269268 0.663454 0
M  V30 13364 H 1253.98 0.702652 1.92156 0
M  V30 13365 H 1253.99 -0.506392 4.04845 0
M  V30 13366 H 1252.67 0.644382 4.10878 0
M  V30 13367 H 1251.24 -1.10355 3.56197 0
M  V30 13368 N 1253.43 -1.55816 0.23648 0
M  V30 13369 C 1254.67 -1.98981 -0.391725 0
M  V30 13370 C 1255.01 -1.12428 -1.58346 0
M  V30 13371 O 1254.28 -0.185303 -1.93615 0
M  V30 13372 C 1254.57 -3.50831 -0.811759 0
M  V30 13373 C 1254.42 -4.48152 0.384648 0
M  V30 13374 C 1255.74 -4.07489 -1.66254 0
M  V30 13375 H 1252.86 -0.723404 -0.140911 0
M  V30 13376 H 1255.5 -1.87011 0.335706 0
M  V30 13377 H 1253.65 -3.61162 -1.43157 0
M  V30 13378 H 1255.32 -4.49814 1.02298 0
M  V30 13379 H 1253.56 -4.21406 1.02955 0
M  V30 13380 H 1254.23 -5.51979 0.0475809 0
M  V30 13381 H 1256.71 -4.00195 -1.13944 0
M  V30 13382 H 1255.59 -5.14026 -1.92531 0
M  V30 13383 H 1255.85 -3.55297 -2.6309 0
M  V30 13384 N 1254.91 0.036755 -1.57557 0
M  V30 13385 C 1255.84 1.03939 -2.09091 0
M  V30 13386 C 1256.82 1.38196 -0.991761 0
M  V30 13387 O 1258 1.47214 -1.26656 0
M  V30 13388 C 1255.13 2.34263 -2.56394 0
M  V30 13389 C 1254.09 2.14269 -3.70504 0
M  V30 13390 C 1253.41 3.50286 -4.03985 0
M  V30 13391 C 1254.71 1.53514 -4.9923 0
M  V30 13392 H 1256.41 0.610429 -2.93111 0
M  V30 13393 H 1253.95 0.292183 -1.41005 0
M  V30 13394 H 1255.91 3.04727 -2.91066 0
M  V30 13395 H 1254.63 2.79205 -1.69447 0
M  V30 13396 H 1253.29 1.46239 -3.36169 0
M  V30 13397 H 1252.94 3.92861 -3.14116 0
M  V30 13398 H 1252.64 3.37735 -4.80842 0
M  V30 13399 H 1254.16 4.22124 -4.41184 0
M  V30 13400 H 1255.57 2.13885 -5.31908 0
M  V30 13401 H 1253.97 1.51561 -5.80646 0
M  V30 13402 H 1255.04 0.500126 -4.82314 0
M  V30 13403 N 1256.39 1.54543 0.308881 0
M  V30 13404 C 1257.8 1.45581 0.654088 0
M  V30 13405 C 1258 0.640597 1.91046 0
M  V30 13406 O 1257.06 0.14518 2.52082 0
M  V30 13407 C 1258.37 2.89461 0.814422 0
M  V30 13408 C 1259.92 2.99455 0.910817 0
M  V30 13409 C 1260.39 4.44515 1.10321 0
M  V30 13410 N 1261.88 4.4819 1.1696 0
M  V30 13411 C 1262.62 5.57604 1.33661 0
M  V30 13412 N 1262.12 6.76957 1.47311 0
M  V30 13413 N 1263.91 5.45278 1.36487 0
M  V30 13414 H 1256.06 2.06019 -0.516699 0
M  V30 13415 H 1258.32 0.932729 -0.169471 0
M  V30 13416 H 1258.03 3.5168 -0.0377455 0
M  V30 13417 H 1257.9 3.36425 1.70582 0
M  V30 13418 H 1260.29 2.37355 1.75348 0
M  V30 13419 H 1260.37 2.558 -0.00443172 0
M  V30 13420 H 1260.01 5.07206 0.265346 0
M  V30 13421 H 1259.94 4.85793 2.03256 0
M  V30 13422 H 1262.44 3.62199 1.07796 0
M  V30 13423 H 1262.75 7.561 1.59788 0
M  V30 13424 H 1261.09 6.79837 1.44382 0
M  V30 13425 H 1264.28 4.50983 1.25429 0
M  V30 13426 H 1264.46 6.30599 1.4916 0
M  V30 13427 N 1257.86 -0.571685 1.46866 0
M  V30 13428 C 1259.09 -1.36008 1.56578 0
M  V30 13429 C 1259.51 -1.86909 0.211326 0
M  V30 13430 O 1258.87 -1.62179 -0.810421 0
M  V30 13431 C 1258.92 -2.51598 2.58323 0
M  V30 13432 O 1258.02 -3.53383 2.1259 0
M  V30 13433 H 1257.36 -0.404593 0.526498 0
M  V30 13434 H 1259.89 -0.692357 1.92529 0
M  V30 13435 H 1259.9 -2.98366 2.78283 0
M  V30 13436 H 1258.58 -2.13904 3.56676 0
M  V30 13437 H 1257.16 -3.13019 2.02666 0
M  V30 13438 N 1259.34 -1.34755 -0.817236 0
M  V30 13439 C 1260.59 -1.27432 -1.57377 0
M  V30 13440 C 1260.92 0.15419 -1.93888 0
M  V30 13441 O 1260.17 1.11686 -1.60701 0
M  V30 13442 C 1260.47 -2.11611 -2.8802 0
M  V30 13443 C 1260.14 -3.60543 -2.70776 0
M  V30 13444 C 1258.8 -4.01141 -2.6578 0
M  V30 13445 C 1261.15 -4.55089 -2.54053 0
M  V30 13446 C 1258.48 -5.34469 -2.41991 0
M  V30 13447 C 1260.83 -5.88603 -2.31795 0
M  V30 13448 C 1259.49 -6.28358 -2.25215 0
M  V30 13449 H 1258.76 -0.466305 -0.575882 0
M  V30 13450 H 1261.41 -1.66552 -0.945128 0
M  V30 13451 H 1259.72 -1.65336 -3.55206 0
M  V30 13452 H 1261.41 -2.03287 -3.45652 0
M  V30 13453 H 1258 -3.2832 -2.75506 0
M  V30 13454 H 1262.19 -4.24617 -2.56932 0
M  V30 13455 H 1257.44 -5.64284 -2.35359 0
M  V30 13456 H 1261.62 -6.61451 -2.17844 0
M  V30 13457 H 1259.24 -7.31604 -2.06543 0
M  V30 13458 N 1260.82 1.03812 -1.18578 0
M  V30 13459 C 1262.24 1.29271 -0.936011 0
M  V30 13460 C 1262.44 1.97551 0.396965 0
M  V30 13461 O 1261.49 2.25769 1.13069 0
M  V30 13462 C 1262.8 2.1489 -2.1034 0
M  V30 13463 C 1264.35 2.28228 -2.14198 0
M  V30 13464 C 1264.83 3.17214 -3.30362 0
M  V30 13465 N 1266.32 3.24802 -3.30239 0
M  V30 13466 C 1267.05 3.9382 -4.16765 0
M  V30 13467 N 1266.55 4.65147 -5.1343 0
M  V30 13468 N 1268.34 3.90125 -4.04671 0
M  V30 13469 H 1260.49 0.579011 -2.04356 0
M  V30 13470 H 1262.76 0.318021 -0.893066 0
M  V30 13471 H 1262.46 1.72029 -3.06755 0
M  V30 13472 H 1262.34 3.15576 -2.06619 0
M  V30 13473 H 1264.72 2.70324 -1.18359 0
M  V30 13474 H 1264.8 1.27124 -2.21976 0
M  V30 13475 H 1264.45 2.75829 -4.26475 0
M  V30 13476 H 1264.38 4.18356 -3.19821 0
M  V30 13477 H 1266.87 2.73994 -2.60261 0
M  V30 13478 H 1267.18 5.15414 -5.7582 0
M  V30 13479 H 1265.53 4.64043 -5.17387 0
M  V30 13480 H 1268.72 3.33536 -3.28438 0
M  V30 13481 H 1268.89 4.43641 -4.7232 0
M  V30 13482 N 1262.3 0.988223 1.22768 0
M  V30 13483 C 1263.23 0.554478 2.26821 0
M  V30 13484 C 1264.21 -0.416293 1.64927 0
M  V30 13485 O 1265.39 -0.30795 1.91743 0
M  V30 13486 C 1262.52 -0.136266 3.47033 0
M  V30 13487 C 1261.48 0.752575 4.21332 0
M  V30 13488 C 1260.8 -0.0708236 5.34653 0
M  V30 13489 C 1262.1 2.04717 4.80508 0
M  V30 13490 H 1263.8 1.42423 2.63355 0
M  V30 13491 H 1261.34 0.686267 1.26595 0
M  V30 13492 H 1263.3 -0.451068 4.18979 0
M  V30 13493 H 1262.02 -1.04053 3.09581 0
M  V30 13494 H 1260.68 1.05095 3.51213 0
M  V30 13495 H 1260.33 -0.975859 4.93443 0
M  V30 13496 H 1260.03 0.520835 5.85287 0
M  V30 13497 H 1261.55 -0.379828 6.09417 0
M  V30 13498 H 1262.97 1.79663 5.44421 0
M  V30 13499 H 1261.36 2.58726 5.41462 0
M  V30 13500 H 1262.43 2.72896 4.00819 0
M  V30 13501 N 1263.78 -1.38018 0.760839 0
M  V30 13502 C 1264.71 -2.32995 0.153557 0
M  V30 13503 C 1265.69 -1.55234 -0.695448 0
M  V30 13504 O 1266.87 -1.8352 -0.635148 0
M  V30 13505 C 1264 -3.39437 -0.734811 0
M  V30 13506 C 1262.96 -4.27998 0.0120287 0
M  V30 13507 C 1262.28 -5.25359 -0.995067 0
M  V30 13508 C 1263.58 -5.08687 1.18468 0
M  V30 13509 H 1265.28 -2.8403 0.946956 0
M  V30 13510 H 1262.82 -1.36562 0.456816 0
M  V30 13511 H 1264.77 -4.0485 -1.16938 0
M  V30 13512 H 1263.5 -2.86901 -1.56061 0
M  V30 13513 H 1262.16 -3.64102 0.427254 0
M  V30 13514 H 1261.81 -4.69108 -1.81512 0
M  V30 13515 H 1261.51 -5.85469 -0.499969 0
M  V30 13516 H 1263.03 -5.93648 -1.4288 0
M  V30 13517 H 1264.44 -5.67299 0.8273 0
M  V30 13518 H 1262.84 -5.78068 1.61112 0
M  V30 13519 H 1263.91 -4.42 1.99409 0
M  V30 13520 N 1265.25 -0.510493 -1.49103 0
M  V30 13521 C 1266.67 -0.167061 -1.58723 0
M  V30 13522 C 1266.87 1.32886 -1.51471 0
M  V30 13523 O 1265.93 2.10559 -1.39359 0
M  V30 13524 C 1267.24 -0.752293 -2.91137 0
M  V30 13525 C 1268.79 -0.719258 -3.04624 0
M  V30 13526 C 1269.26 -1.28272 -4.39671 0
M  V30 13527 N 1270.75 -1.24383 -4.46187 0
M  V30 13528 C 1271.49 -1.6499 -5.4915 0
M  V30 13529 N 1270.98 -2.13235 -6.59168 0
M  V30 13530 N 1272.78 -1.56348 -5.39918 0
M  V30 13531 H 1264.93 -1.48296 -1.5206 0
M  V30 13532 H 1267.19 -0.615683 -0.72086 0
M  V30 13533 H 1266.9 -1.80178 -3.02041 0
M  V30 13534 H 1266.77 -0.218152 -3.76569 0
M  V30 13535 H 1269.16 0.321413 -2.93344 0
M  V30 13536 H 1269.24 -1.29065 -2.20852 0
M  V30 13537 H 1268.88 -2.32222 -4.51703 0
M  V30 13538 H 1268.81 -0.687179 -5.22097 0
M  V30 13539 H 1271.3 -0.890446 -3.67259 0
M  V30 13540 H 1271.62 -2.42266 -7.33844 0
M  V30 13541 H 1269.96 -2.17216 -6.60183 0
M  V30 13542 H 1273.15 -1.18469 -4.52861 0
M  V30 13543 H 1273.33 -1.88317 -6.20033 0
M  V30 13544 N 1266.73 1.55688 -0.24474 0
M  V30 13545 C 1267.98 1.99186 0.381167 0
M  V30 13546 C 1268.31 1.13266 1.57748 0
M  V30 13547 O 1267.59 0.195568 1.93514 0
M  V30 13548 C 1267.87 3.51257 0.793142 0
M  V30 13549 C 1267.72 4.47942 -0.408409 0
M  V30 13550 C 1269.04 4.08365 1.64091 0
M  V30 13551 H 1266.16 0.724141 0.137073 0
M  V30 13552 H 1268.8 1.8683 -0.345619 0
M  V30 13553 H 1266.95 3.61917 1.4124 0
M  V30 13554 H 1268.62 4.49265 -1.04682 0
M  V30 13555 H 1266.87 4.20854 -1.05189 0
M  V30 13556 H 1267.54 5.51946 -0.0768531 0
M  V30 13557 H 1270.01 4.00794 1.1182 0
M  V30 13558 H 1268.89 5.1504 1.89802 0
M  V30 13559 H 1269.15 3.56687 2.61202 0
M  V30 13560 N 1268.21 -0.0283989 1.57574 0
M  V30 13561 C 1269.46 -0.719077 1.89303 0
M  V30 13562 C 1269.78 -1.75325 0.84211 0
M  V30 13563 O 1269.04 -1.95071 -0.15683 0
M  V30 13564 C 1269.34 -1.4247 3.27776 0
M  V30 13565 C 1269 -0.526442 4.47816 0
M  V30 13566 C 1267.67 -0.279038 4.8039 0
M  V30 13567 C 1270.02 0.0937038 5.21116 0
M  V30 13568 C 1267.35 0.597277 5.83652 0
M  V30 13569 C 1269.7 0.957725 6.25308 0
M  V30 13570 C 1268.36 1.21458 6.56357 0
M  V30 13571 H 1267.63 -0.263129 0.692708 0
M  V30 13572 H 1270.28 0.0210252 1.91488 0
M  V30 13573 H 1268.58 -2.23813 3.21582 0
M  V30 13574 H 1270.28 -1.96466 3.49574 0
M  V30 13575 H 1266.87 -0.729426 4.22347 0
M  V30 13576 H 1271.06 -0.084469 4.96228 0
M  V30 13577 H 1266.31 0.804582 6.06083 0
M  V30 13578 H 1270.49 1.44476 6.81249 0
M  V30 13579 H 1268.11 1.89534 7.36193 0
M  V30 13580 N 1269.69 -1.54705 -0.300681 0
M  V30 13581 C 1270.63 -1.85678 -1.37084 0
M  V30 13582 C 1271.6 -0.70573 -1.50362 0
M  V30 13583 O 1272.79 -0.954385 -1.65215 0
M  V30 13584 C 1269.93 -2.10995 -2.73084 0
M  V30 13585 C 1269.04 -3.38621 -2.68254 0
M  V30 13586 C 1268.18 -3.53779 -3.9625 0
M  V30 13587 C 1267.22 -4.75195 -3.85818 0
M  V30 13588 N 1266.35 -4.87157 -5.05591 0
M  V30 13589 H 1271.19 -2.76967 -1.09971 0
M  V30 13590 H 1268.73 -1.37147 -0.531887 0
M  V30 13591 H 1270.69 -2.23669 -3.52176 0
M  V30 13592 H 1269.32 -1.22973 -2.98458 0
M  V30 13593 H 1268.37 -3.34566 -1.81025 0
M  V30 13594 H 1269.68 -4.27834 -2.56436 0
M  V30 13595 H 1268.84 -3.66119 -4.83779 0
M  V30 13596 H 1267.58 -2.62699 -4.10902 0
M  V30 13597 H 1266.58 -4.62888 -2.96673 0
M  V30 13598 H 1267.81 -5.67683 -3.72711 0
M  V30 13599 H 1265.75 -3.99001 -5.20706 0
M  V30 13600 H 1265.67 -5.70372 -4.96197 0
M  V30 13601 H 1266.94 -5.03854 -5.9477 0
M  V30 13602 N 1271.17 0.563888 -1.47167 0
M  V30 13603 C 1272.1 1.68137 -1.62025 0
M  V30 13604 C 1273.08 1.63481 -0.469899 0
M  V30 13605 O 1274.26 1.81206 -0.698432 0
M  V30 13606 C 1271.39 3.06779 -1.62801 0
M  V30 13607 C 1270.35 3.26278 -2.76996 0
M  V30 13608 C 1269.67 4.65638 -2.62841 0
M  V30 13609 C 1270.97 3.12295 -4.18651 0
M  V30 13610 H 1272.67 1.55958 -2.55573 0
M  V30 13611 H 1270.21 0.74887 -1.22996 0
M  V30 13612 H 1272.17 3.84795 -1.71787 0
M  V30 13613 H 1270.89 3.19901 -0.658097 0
M  V30 13614 H 1269.55 2.50668 -2.67509 0
M  V30 13615 H 1269.2 4.75551 -1.63892 0
M  V30 13616 H 1268.9 4.79635 -3.39447 0
M  V30 13617 H 1270.42 5.45798 -2.73746 0
M  V30 13618 H 1271.83 3.80136 -4.2915 0
M  V30 13619 H 1270.23 3.37805 -4.95992 0
M  V30 13620 H 1271.3 2.09126 -4.37486 0
M  V30 13621 N 1272.64 1.35187 0.810078 0
M  V30 13622 C 1273.61 1.27698 1.90331 0
M  V30 13623 C 1274.61 0.189216 1.59683 0
M  V30 13624 O 1275.8 0.442689 1.68481 0
M  V30 13625 C 1272.93 0.974631 3.26671 0
M  V30 13626 H 1274.12 2.24902 1.98392 0
M  V30 13627 H 1271.68 1.1966 1.00554 0
M  V30 13628 H 1272.41 0.0063068 3.24299 0
M  V30 13629 H 1272.2 1.76158 3.50301 0
M  V30 13630 H 1273.69 0.947743 4.06703 0
M  V30 13631 N 1274.12 -1.03182 1.19127 0
M  V30 13632 C 1275.07 -2.11394 0.926339 0
M  V30 13633 C 1276.04 -1.65528 -0.137703 0
M  V30 13634 O 1277.22 -1.908 0.00381804 0
M  V30 13635 C 1274.36 -3.41913 0.467894 0
M  V30 13636 C 1273.48 -4.01343 1.59837 0
M  V30 13637 C 1272.61 -5.1986 1.09175 0
M  V30 13638 C 1271.65 -5.71339 2.19632 0
M  V30 13639 N 1270.79 -6.81133 1.703 0
M  V30 13640 H 1275.63 -2.33393 1.85288 0
M  V30 13641 H 1273.17 -1.14473 0.923811 0
M  V30 13642 H 1275.12 -4.16796 0.183513 0
M  V30 13643 H 1273.75 -3.20034 -0.421656 0
M  V30 13644 H 1272.81 -3.23702 1.99803 0
M  V30 13645 H 1274.12 -4.35568 2.43068 0
M  V30 13646 H 1273.27 -6.0189 0.762427 0
M  V30 13647 H 1272.01 -4.87161 0.22914 0
M  V30 13648 H 1271.02 -4.87923 2.53399 0
M  V30 13649 H 1272.24 -6.06078 3.06344 0
M  V30 13650 H 1270.19 -6.50293 0.863415 0
M  V30 13651 H 1270.1 -7.1447 2.47122 0
M  V30 13652 H 1271.37 -7.66766 1.40321 0
M  V30 13653 N 1275.6 -0.99472 -1.22242 0
M  V30 13654 C 1276.83 -0.689809 -1.95592 0
M  V30 13655 C 1277.25 0.739321 -1.72961 0
M  V30 13656 O 1276.61 1.50563 -1.00997 0
M  V30 13657 C 1276.66 -1.00367 -3.46351 0
M  V30 13658 O 1275.76 -0.103326 -4.12271 0
M  V30 13659 H 1275.1 -0.257997 -0.611828 0
M  V30 13660 H 1277.63 -1.33219 -1.55286 0
M  V30 13661 H 1277.64 -0.946259 -3.96875 0
M  V30 13662 H 1276.32 -2.04504 -3.62148 0
M  V30 13663 H 1274.89 -0.216374 -3.72272 0
M  V30 13664 N 1277.08 1.37613 -0.768148 0
M  V30 13665 C 1278.32 2.00532 -0.340335 0
M  V30 13666 C 1278.68 1.59885 1.07026 0
M  V30 13667 O 1277.97 0.833239 1.72533 0
M  V30 13668 C 1278.17 3.54952 -0.417608 0
M  V30 13669 C 1278 4.10595 -1.83417 0
M  V30 13670 C 1276.77 4.41708 -2.45402 0
M  V30 13671 C 1278.96 4.31844 -2.79312 0
M  V30 13672 N 1276.95 4.83045 -3.78868 0
M  V30 13673 C 1278.32 4.75751 -3.97569 0
M  V30 13674 C 1280.37 4.13971 -2.76645 0
M  V30 13675 C 1279.07 5.03656 -5.13539 0
M  V30 13676 C 1281.1 4.4301 -3.91786 0
M  V30 13677 C 1280.46 4.87153 -5.08784 0
M  V30 13678 H 1276.56 0.762961 -0.171505 0
M  V30 13679 H 1279.15 1.66984 -1.00121 0
M  V30 13680 H 1277.32 3.87815 0.213071 0
M  V30 13681 H 1279.05 4.04687 0.0319154 0
M  V30 13682 H 1275.8 4.30661 -1.97048 0
M  V30 13683 H 1276.23 5.08028 -4.47478 0
M  V30 13684 H 1280.87 3.79017 -1.87365 0
M  V30 13685 H 1278.59 5.375 -6.03423 0
M  V30 13686 H 1282.17 4.30772 -3.91059 0
M  V30 13687 H 1281.05 5.09192 -5.964 0
M  V30 13688 N 1278.56 0.518393 1.4883 0
M  V30 13689 C 1279.97 0.0749773 1.86549 0
M  V30 13690 C 1280.32 -1.34429 1.4291 0
M  V30 13691 O 1279.44 -2.00481 0.814648 0
M  V30 13692 C 1280.04 0.129289 3.38553 0
M  V30 13693 C 1278.6 -0.258871 3.75509 0
M  V30 13694 C 1277.74 0.494185 2.72861 0
M  V30 13695 H 1280.7 0.730266 1.409 0
M  V30 13696 H 1280.72 -0.661844 3.747 0
M  V30 13697 H 1280.23 1.16237 3.70285 0
M  V30 13698 H 1278.33 -1.29453 3.49389 0
M  V30 13699 H 1278.44 0.0726769 4.79045 0
M  V30 13700 H 1276.81 -0.0581428 2.54634 0
M  V30 13701 H 1277.59 1.52767 3.07436 0
M  V30 13702 N 1280.03 -1.55556 0.252993 0
M  V30 13703 C 1281.26 -2.03491 -0.374022 0
M  V30 13704 C 1281.68 -1.13208 -1.51094 0
M  V30 13705 O 1281.03 -0.147705 -1.81901 0
M  V30 13706 C 1281.09 -3.50724 -0.876047 0
M  V30 13707 O 1280.81 -4.37569 0.215574 0
M  V30 13708 C 1282.31 -4.14448 -1.57313 0
M  V30 13709 H 1279.53 -0.665183 -0.0881644 0
M  V30 13710 H 1282.07 -2.00964 0.378636 0
M  V30 13711 H 1280.23 -3.53766 -1.57886 0
M  V30 13712 H 1280.64 -5.24235 -0.166625 0
M  V30 13713 H 1282.11 -5.19142 -1.87606 0
M  V30 13714 H 1282.59 -3.61299 -2.49719 0
M  V30 13715 H 1283.2 -4.15346 -0.914735 0
M  V30 13716 N 1281.51 0.0200419 -1.57587 0
M  V30 13717 C 1282.44 1.01715 -2.10181 0
M  V30 13718 C 1283.42 1.37136 -1.00636 0
M  V30 13719 O 1284.61 1.45862 -1.2821 0
M  V30 13720 C 1281.74 2.31531 -2.58865 0
M  V30 13721 C 1280.69 2.10327 -3.72755 0
M  V30 13722 C 1280.02 3.45981 -4.07678 0
M  V30 13723 C 1281.32 1.4821 -5.0083 0
M  V30 13724 H 1283.01 0.579307 -2.93742 0
M  V30 13725 H 1280.56 0.277211 -1.41307 0
M  V30 13726 H 1282.51 3.01623 -2.94281 0
M  V30 13727 H 1281.24 2.77392 -1.72399 0
M  V30 13728 H 1279.89 1.42665 -3.37701 0
M  V30 13729 H 1279.54 3.89508 -3.18265 0
M  V30 13730 H 1279.24 3.32616 -4.84397 0
M  V30 13731 H 1280.77 4.17421 -4.45637 0
M  V30 13732 H 1282.18 2.08232 -5.34146 0
M  V30 13733 H 1280.58 1.45393 -5.82221 0
M  V30 13734 H 1281.65 0.448942 -4.82817 0
M  V30 13735 N 1282.99 1.54862 0.292472 0
M  V30 13736 C 1283.94 1.87168 1.38097 0
M  V30 13737 C 1284.93 0.746176 1.52081 0
M  V30 13738 O 1286.14 0.930281 1.54097 0
M  V30 13739 H 1282.51 0.593769 0.461456 0
M  V30 13740 H 1284.48 2.78135 1.0809 0
M  V30 13741 C 1283.23 2.14315 2.73796 0
M  V30 13742 H 1282.56 3.00398 2.63821 0
M  V30 13743 H 1284 2.40853 3.48949 0
M  V30 13744 C 1282.46 0.944424 3.23392 0
M  V30 13745 O 1282.99 0.169208 4.01343 0
M  V30 13746 N 1281.19 0.747456 2.80823 0
M  V30 13747 H 1280.74 1.37953 2.17547 0
M  V30 13748 H 1280.7 -0.0530199 3.14355 0
M  V30 13749 N 1284.47 -0.556076 1.47464 0
M  V30 13750 C 1285.4 -1.67872 1.54578 0
M  V30 13751 C 1286.38 -1.57658 0.397853 0
M  V30 13752 O 1287.56 -1.785 0.605811 0
M  V30 13753 C 1284.69 -3.06122 1.44937 0
M  V30 13754 C 1283.74 -3.34778 2.64246 0
M  V30 13755 S 1284.57 -3.23909 4.26431 0
M  V30 13756 C 1285.73 -4.64651 4.19345 0
M  V30 13757 H 1285.96 -1.61583 2.49556 0
M  V30 13758 H 1283.49 -0.736985 1.35676 0
M  V30 13759 H 1285.45 -3.85866 1.40062 0
M  V30 13760 H 1284.11 -3.09876 0.513412 0
M  V30 13761 H 1283.3 -4.35569 2.53567 0
M  V30 13762 H 1282.91 -2.62655 2.66248 0
M  V30 13763 H 1285.2 -5.55625 3.87669 0
M  V30 13764 H 1286.14 -4.80386 5.20225 0
M  V30 13765 H 1286.55 -4.42751 3.50189 0
M  V30 13766 N 1285.95 -1.35615 -0.802897 0
M  V30 13767 C 1286.88 -1.31506 -1.92947 0
M  V30 13768 C 1287.86 -0.188843 -1.69048 0
M  V30 13769 O 1289.04 -0.384384 -1.90358 0
M  V30 13770 C 1286.17 -1.09001 -3.29752 0
M  V30 13771 C 1285.13 -2.18303 -3.68141 0
M  V30 13772 C 1284.45 -1.80959 -5.03148 0
M  V30 13773 C 1285.75 -3.60296 -3.78132 0
M  V30 13774 H 1287.45 -2.25771 -1.96642 0
M  V30 13775 H 1284.99 -1.08682 -0.944685 0
M  V30 13776 H 1286.95 -1.04766 -4.08169 0
M  V30 13777 H 1285.67 -0.111832 -3.26408 0
M  V30 13778 H 1284.33 -2.21642 -2.92011 0
M  V30 13779 H 1283.98 -0.817495 -4.96312 0
M  V30 13780 H 1283.68 -2.54129 -5.29804 0
M  V30 13781 H 1285.2 -1.78255 -5.84001 0
M  V30 13782 H 1286.62 -3.59259 -4.46773 0
M  V30 13783 H 1285.01 -4.32258 -4.16261 0
M  V30 13784 H 1286.08 -3.9618 -2.79588 0
M  V30 13785 N 1287.43 1.02549 -1.19673 0
M  V30 13786 C 1288.67 1.75408 -0.995732 0
M  V30 13787 C 1288.99 1.89773 0.473863 0
M  V30 13788 O 1290.19 2.59638 0.793762 0
M  V30 13789 C 1288.65 3.15444 -1.73273 0
M  V30 13790 C 1288.26 3.09121 -3.24266 0
M  V30 13791 C 1290 3.92575 -1.61509 0
M  V30 13792 C 1287.91 4.44109 -3.9054 0
M  V30 13793 H 1286.84 0.657569 -0.368944 0
M  V30 13794 H 1289.49 1.14739 -1.43203 0
M  V30 13795 H 1287.87 3.76601 -1.22425 0
M  V30 13796 H 1289.05 2.57325 -3.82257 0
M  V30 13797 H 1287.36 2.45485 -3.36342 0
M  V30 13798 H 1289.96 4.92428 -2.08372 0
M  V30 13799 H 1290.3 4.12382 -0.569804 0
M  V30 13800 H 1290.83 3.38027 -2.09721 0
M  V30 13801 H 1287.57 4.29506 -4.95182 0
M  V30 13802 H 1287.09 4.95947 -3.37337 0
M  V30 13803 H 1288.77 5.12982 -3.94282 0
M  V30 13804 N 1288.9 1.00119 1.21713 0
M  V30 13805 C 1289.85 0.558388 2.23943 0
M  V30 13806 C 1290.82 -0.413576 1.60869 0
M  V30 13807 O 1292.01 -0.316478 1.88157 0
M  V30 13808 C 1289.15 -0.112618 3.44916 0
M  V30 13809 C 1288.26 0.902071 4.22477 0
M  V30 13810 C 1287.39 0.203722 5.30809 0
M  V30 13811 C 1286.43 1.20622 6.00097 0
M  V30 13812 N 1285.57 0.535607 7.00054 0
M  V30 13813 H 1290.41 1.43486 2.61182 0
M  V30 13814 H 1287.95 0.718572 1.28355 0
M  V30 13815 H 1289.9 -0.51865 4.13964 0
M  V30 13816 H 1288.53 -0.952827 3.08417 0
M  V30 13817 H 1287.59 1.42637 3.52645 0
M  V30 13818 H 1288.9 1.66513 4.70186 0
M  V30 13819 H 1288.05 -0.258614 6.06149 0
M  V30 13820 H 1286.79 -0.591773 4.84096 0
M  V30 13821 H 1285.8 1.6791 5.23532 0
M  V30 13822 H 1287.02 2.00273 6.48897 0
M  V30 13823 H 1284.97 -0.2403 6.5556 0
M  V30 13824 H 1284.88 1.23698 7.45812 0
M  V30 13825 H 1286.15 0.0963489 7.7944 0
M  V30 13826 N 1290.38 -1.37203 0.775435 0
M  V30 13827 C 1291.63 -1.98846 0.338093 0
M  V30 13828 C 1291.94 -1.6225 -1.09244 0
M  V30 13829 O 1293.15 -2.17024 -1.63135 0
M  V30 13830 C 1291.61 -3.55618 0.553541 0
M  V30 13831 C 1291.21 -4.01149 1.99457 0
M  V30 13832 C 1292.96 -4.24118 0.180006 0
M  V30 13833 C 1290.86 -5.50644 2.15742 0
M  V30 13834 H 1289.79 -0.743955 0.122669 0
M  V30 13835 H 1292.45 -1.56685 0.955087 0
M  V30 13836 H 1290.83 -3.95777 -0.132964 0
M  V30 13837 H 1292 -3.72226 2.71633 0
M  V30 13838 H 1290.32 -3.45443 2.32504 0
M  V30 13839 H 1292.91 -5.33966 0.280145 0
M  V30 13840 H 1293.26 -4.07104 -0.870192 0
M  V30 13841 H 1293.79 -3.89274 0.819201 0
M  V30 13842 H 1290.53 -5.7259 3.19094 0
M  V30 13843 H 1290.05 -5.8124 1.48054 0
M  V30 13844 H 1291.73 -6.16668 1.95781 0
M  V30 13845 N 1291.86 -0.526279 -1.48553 0
M  V30 13846 C 1293.11 0.0111473 -2.01697 0
M  V30 13847 C 1293.42 1.35675 -1.40895 0
M  V30 13848 O 1294.63 1.98233 -1.85515 0
M  V30 13849 C 1293.08 0.0702721 -3.59831 0
M  V30 13850 C 1292.69 -1.27022 -4.29616 0
M  V30 13851 C 1294.44 0.556722 -4.20834 0
M  V30 13852 C 1292.34 -1.17188 -5.79673 0
M  V30 13853 H 1291.27 0.00793697 -0.753958 0
M  V30 13854 H 1293.92 -0.669503 -1.70851 0
M  V30 13855 H 1292.31 0.81592 -3.87503 0
M  V30 13856 H 1293.48 -2.03114 -4.1362 0
M  V30 13857 H 1291.79 -1.69211 -3.80469 0
M  V30 13858 H 1294.39 0.648205 -5.30756 0
M  V30 13859 H 1294.73 1.56163 -3.859 0
M  V30 13860 H 1295.27 -0.133132 -3.97577 0
M  V30 13861 H 1292.01 -2.15182 -6.19174 0
M  V30 13862 H 1291.53 -0.452259 -5.98093 0
M  V30 13863 H 1293.21 -0.861011 -6.41245 0
M  V30 13864 N 1293.34 1.5542 -0.261239 0
M  V30 13865 C 1294.59 1.9889 0.358777 0
M  V30 13866 C 1294.91 1.15092 1.57413 0
M  V30 13867 O 1294.18 0.237095 1.9446 0
M  V30 13868 H 1292.76 0.734599 0.13555 0
M  V30 13869 H 1295.42 1.91483 -0.363357 0
M  V30 13870 H 1294.51 3.05082 0.658142 0
M  V30 13871 N 1294.82 -0.0116844 1.57596 0
M  V30 13872 C 1295.76 -1.02514 2.08791 0
M  V30 13873 C 1296.76 -1.36341 1.00536 0
M  V30 13874 O 1297.96 -1.35042 1.19011 0
M  V30 13875 H 1294.34 -0.348201 0.666528 0
M  V30 13876 H 1296.31 -0.567698 2.9295 0
M  V30 13877 C 1295.06 -2.312 2.59696 0
M  V30 13878 H 1294.38 -2.06036 3.42621 0
M  V30 13879 H 1295.82 -3.00417 2.99208 0
M  V30 13880 C 1294.28 -3.01372 1.50586 0
M  V30 13881 O 1294.81 -3.91896 0.882046 0
M  V30 13882 N 1293.02 -2.62997 1.23616 0
M  V30 13883 H 1292.56 -1.89466 1.74529 0
M  V30 13884 H 1292.52 -3.10264 0.508289 0
M  V30 13885 N 1296.29 -1.55015 -0.284256 0
M  V30 13886 C 1297.52 -1.79431 -1.04016 0
M  V30 13887 C 1297.94 -0.560254 -1.79563 0
M  V30 13888 O 1297.3 0.489804 -1.74558 0
M  V30 13889 C 1297.35 -3.01162 -1.98328 0
M  V30 13890 O 1296.45 -2.75459 -3.06914 0
M  V30 13891 H 1295.79 -0.593391 -0.297965 0
M  V30 13892 H 1298.32 -2.02136 -0.316585 0
M  V30 13893 H 1298.33 -3.29589 -2.40489 0
M  V30 13894 H 1297.01 -3.90634 -1.42751 0
M  V30 13895 H 1295.59 -2.58096 -2.69148 0
M  V30 13896 N 1297.77 0.548248 -1.47757 0
M  V30 13897 C 1299.02 1.30694 -1.55071 0
M  V30 13898 C 1299.35 1.92994 -0.216075 0
M  V30 13899 O 1298.63 1.78341 0.776196 0
M  V30 13900 C 1298.91 2.41024 -2.67543 0
M  V30 13901 C 1298.76 1.83534 -4.10652 0
M  V30 13902 C 1300.08 3.42902 -2.75874 0
M  V30 13903 H 1297.2 0.47383 -0.564494 0
M  V30 13904 H 1299.84 0.612628 -1.79852 0
M  V30 13905 H 1297.99 3.00248 -2.46543 0
M  V30 13906 H 1299.66 1.28503 -4.4304 0
M  V30 13907 H 1297.91 1.14161 -4.18509 0
M  V30 13908 H 1298.58 2.63335 -4.85138 0
M  V30 13909 H 1301.05 2.9361 -2.94843 0
M  V30 13910 H 1299.93 4.17516 -3.5633 0
M  V30 13911 H 1300.19 4.02314 -1.83291 0
M  V30 13912 N 1299.25 1.36039 0.795694 0
M  V30 13913 C 1300.5 1.29663 1.55023 0
M  V30 13914 C 1300.82 -0.125588 1.94595 0
M  V30 13915 O 1300.09 -1.06447 1.64456 0
M  V30 13916 H 1298.67 0.476962 0.574906 0
M  V30 13917 H 1301.33 1.70265 0.948471 0
M  V30 13918 H 1300.43 1.91982 2.46068 0
M  V30 13919 N 1300.73 -1.01913 1.20215 0
M  V30 13920 C 1301.69 -2.08563 0.950481 0
M  V30 13921 C 1302.69 -1.60634 -0.0729659 0
M  V30 13922 O 1303.88 -1.73437 0.162826 0
M  V30 13923 C 1301.01 -3.38171 0.430453 0
M  V30 13924 H 1302.21 -2.32323 1.89647 0
M  V30 13925 H 1299.76 -1.18674 1.01716 0
M  V30 13926 H 1300.49 -3.20086 -0.521126 0
M  V30 13927 H 1300.28 -3.74284 1.1685 0
M  V30 13928 H 1301.77 -4.16702 0.273781 0
M  V30 13929 N 1302.21 -1.00763 -1.2118 0
M  V30 13930 C 1303.14 -0.590493 -2.2591 0
M  V30 13931 C 1304.12 0.390002 -1.65569 0
M  V30 13932 O 1305.3 0.277406 -1.92208 0
M  V30 13933 C 1302.43 0.0810388 -3.47205 0
M  V30 13934 C 1301.39 -0.81951 -4.20081 0
M  V30 13935 C 1300.71 -0.014244 -5.34698 0
M  V30 13936 C 1302.01 -2.12336 -4.7719 0
M  V30 13937 H 1303.71 -1.46595 -2.61056 0
M  V30 13938 H 1301.25 -0.706321 -1.25487 0
M  V30 13939 H 1303.21 0.384355 -4.19644 0
M  V30 13940 H 1301.93 0.991145 -3.11197 0
M  V30 13941 H 1300.59 -1.10669 -3.49497 0
M  V30 13942 H 1300.24 0.897233 -4.94933 0
M  V30 13943 H 1299.94 -0.613883 -5.84384 0
M  V30 13944 H 1301.46 0.282827 -6.09945 0
M  V30 13945 H 1302.87 -1.88301 -5.41494 0
M  V30 13946 H 1301.27 -2.67308 -5.37277 0
M  V30 13947 H 1302.34 -2.79238 -3.96427 0
M  V30 13948 N 1303.68 1.3679 -0.7827 0
M  V30 13949 C 1304.93 1.99023 -0.351316 0
M  V30 13950 C 1305.25 1.62436 1.07887 0
M  V30 13951 O 1304.52 0.895084 1.74256 0
M  V30 13952 H 1303.1 0.736141 -0.126909 0
M  V30 13953 H 1305.77 1.67095 -1.00325 0
M  V30 13954 H 1304.86 3.09015 -0.43774 0
M  V30 13955 N 1305.16 0.53415 1.48272 0
M  V30 13956 C 1306.11 -0.239672 2.31362 0
M  V30 13957 C 1307.1 -0.931501 1.4149 0
M  V30 13958 O 1308.31 -0.855411 1.58375 0
M  V30 13959 H 1304.69 -0.09616 0.745827 0
M  V30 13960 H 1306.66 0.480638 2.94504 0
M  V30 13961 C 1305.41 -1.27102 3.23636 0
M  V30 13962 H 1304.73 -0.748082 3.92739 0
M  V30 13963 H 1306.17 -1.78379 3.84652 0
M  V30 13964 C 1304.63 -2.30683 2.45534 0
M  V30 13965 O 1305.16 -3.37197 2.18314 0
M  V30 13966 N 1303.36 -2.04006 2.06954 0
M  V30 13967 H 1302.91 -1.17403 2.29291 0
M  V30 13968 H 1302.87 -2.73531 1.5501 0
M  V30 13969 N 1306.64 -1.55279 0.269478 0
M  V30 13970 C 1307.57 -2.25278 -0.614188 0
M  V30 13971 C 1308.55 -1.24092 -1.1634 0
M  V30 13972 O 1309.74 -1.52799 -1.19858 0
M  V30 13973 C 1306.87 -2.96956 -1.80096 0
M  V30 13974 C 1305.82 -4.05021 -1.38353 0
M  V30 13975 C 1305.15 -4.64244 -2.65295 0
M  V30 13976 C 1306.45 -5.19523 -0.537886 0
M  V30 13977 H 1308.14 -2.99385 -0.0304397 0
M  V30 13978 H 1305.69 -1.43994 -0.0132004 0
M  V30 13979 H 1307.64 -3.44633 -2.42499 0
M  V30 13980 H 1306.36 -2.20374 -2.41045 0
M  V30 13981 H 1305.02 -3.58146 -0.78273 0
M  V30 13982 H 1304.67 -3.84337 -3.2449 0
M  V30 13983 H 1304.37 -5.37208 -2.38079 0
M  V30 13984 H 1305.89 -5.14668 -3.28557 0
M  V30 13985 H 1307.31 -5.63287 -1.06677 0
M  V30 13986 H 1305.71 -5.99014 -0.360845 0
M  V30 13987 H 1306.78 -4.82857 0.444672 0
M  V30 13988 N 1308.12 0.00332656 -1.576 0
M  V30 13989 C 1309.35 0.699945 -1.94701 0
M  V30 13990 C 1309.76 1.67492 -0.871312 0
M  V30 13991 O 1309.12 1.81882 0.150054 0
M  V30 13992 C 1309.17 1.43471 -3.31811 0
M  V30 13993 O 1308.89 0.498835 -4.35251 0
M  V30 13994 C 1310.39 2.22614 -3.83351 0
M  V30 13995 H 1307.61 0.195158 -0.641993 0
M  V30 13996 H 1310.16 -0.0468044 -2.04446 0
M  V30 13997 H 1308.31 2.13311 -3.23384 0
M  V30 13998 H 1308.72 1.01688 -5.14548 0
M  V30 13999 H 1310.2 2.69527 -4.81725 0
M  V30 14000 H 1310.68 3.05146 -3.15883 0
M  V30 14001 H 1311.28 1.57796 -3.94944 0
M  V30 14002 N 1309.6 1.55164 0.276031 0
M  V30 14003 C 1310.53 1.90844 1.34539 0
M  V30 14004 C 1311.51 0.769968 1.51676 0
M  V30 14005 O 1312.69 1.02785 1.64769 0
M  V30 14006 C 1309.82 2.17769 2.70543 0
M  V30 14007 C 1308.78 3.33592 2.68142 0
M  V30 14008 C 1308.1 3.45991 4.07669 0
M  V30 14009 C 1309.4 4.70064 2.27678 0
M  V30 14010 H 1311.1 2.80412 1.04926 0
M  V30 14011 H 1308.64 1.34918 0.503303 0
M  V30 14012 H 1310.6 2.41317 3.45462 0
M  V30 14013 H 1309.32 1.24997 3.01734 0
M  V30 14014 H 1307.98 3.10007 1.95681 0
M  V30 14015 H 1307.63 2.50691 4.36077 0
M  V30 14016 H 1307.33 4.23862 4.06958 0
M  V30 14017 H 1308.85 3.71828 4.84331 0
M  V30 14018 H 1310.26 4.93176 2.92319 0
M  V30 14019 H 1308.66 5.50829 2.38134 0
M  V30 14020 H 1309.73 4.69091 1.22808 0
M  V30 14021 N 1311.07 -0.540404 1.48045 0
M  V30 14022 C 1312.32 -1.2987 1.55762 0
M  V30 14023 C 1312.65 -1.92877 0.226307 0
M  V30 14024 O 1311.93 -1.7875 -0.766727 0
M  V30 14025 C 1312.21 -2.39602 2.68817 0
M  V30 14026 C 1312.06 -1.81354 4.1162 0
M  V30 14027 C 1313.38 -3.41434 2.77688 0
M  V30 14028 H 1310.5 -0.47083 0.566999 0
M  V30 14029 H 1313.14 -0.603081 1.80175 0
M  V30 14030 H 1311.29 -2.98936 2.48132 0
M  V30 14031 H 1312.97 -1.26151 4.43716 0
M  V30 14032 H 1311.21 -1.1194 4.19108 0
M  V30 14033 H 1311.88 -2.60758 4.86528 0
M  V30 14034 H 1314.36 -2.92042 2.96396 0
M  V30 14035 H 1313.23 -4.15621 3.5854 0
M  V30 14036 H 1313.49 -4.01336 1.85422 0
M  V30 14037 N 1312.55 -1.36459 -0.788468 0
M  V30 14038 C 1313.48 -1.33545 -1.91541 0
M  V30 14039 C 1314.46 -0.206762 -1.68839 0
M  V30 14040 O 1315.65 -0.404553 -1.89939 0
M  V30 14041 C 1312.78 -1.12492 -3.28577 0
M  V30 14042 C 1311.73 -2.22196 -3.65805 0
M  V30 14043 C 1311.06 -1.86285 -5.01201 0
M  V30 14044 C 1312.36 -3.64286 -3.7429 0
M  V30 14045 H 1314.05 -2.27844 -1.94236 0
M  V30 14046 H 1311.6 -1.09677 -0.933105 0
M  V30 14047 H 1313.55 -1.09089 -4.07035 0
M  V30 14048 H 1312.28 -0.146446 -3.26272 0
M  V30 14049 H 1310.93 -2.24727 -2.89644 0
M  V30 14050 H 1310.58 -0.87009 -4.95417 0
M  V30 14051 H 1310.28 -2.59734 -5.27079 0
M  V30 14052 H 1311.81 -1.84439 -5.82078 0
M  V30 14053 H 1313.22 -3.63977 -4.42937 0
M  V30 14054 H 1311.62 -4.36648 -4.11653 0
M  V30 14055 H 1312.69 -3.99123 -2.75371 0
M  V30 14056 N 1314.03 1.01274 -1.20754 0
M  V30 14057 C 1314.99 2.08056 -0.961528 0
M  V30 14058 C 1315.99 1.60671 0.0644461 0
M  V30 14059 O 1317.18 1.73349 -0.172022 0
M  V30 14060 C 1314.32 3.37938 -0.448381 0
M  V30 14061 H 1315.51 2.31314 -1.90877 0
M  V30 14062 H 1313.06 1.18133 -1.02344 0
M  V30 14063 H 1313.8 3.20357 0.504144 0
M  V30 14064 H 1313.58 3.73659 -1.18833 0
M  V30 14065 H 1315.07 4.16551 -0.295876 0
M  V30 14066 N 1315.51 1.01404 1.20644 0
M  V30 14067 C 1316.76 0.697244 1.89265 0
M  V30 14068 C 1317.07 -0.776149 1.79542 0
M  V30 14069 O 1318.28 -1.2054 2.43274 0
M  V30 14070 C 1316.73 1.19672 3.39421 0
M  V30 14071 C 1316.34 2.69683 3.57736 0
M  V30 14072 C 1318.09 0.955225 4.13613 0
M  V30 14073 C 1315.99 3.13124 5.01704 0
M  V30 14074 H 1314.92 0.257105 0.708811 0
M  V30 14075 H 1317.57 1.22639 1.36499 0
M  V30 14076 H 1315.96 0.595562 3.91496 0
M  V30 14077 H 1317.13 3.35326 3.16059 0
M  V30 14078 H 1315.44 2.91946 2.96911 0
M  V30 14079 H 1318.04 1.25524 5.19757 0
M  V30 14080 H 1318.38 -0.108362 4.16159 0
M  V30 14081 H 1318.92 1.51962 3.67631 0
M  V30 14082 H 1315.66 4.18748 5.04311 0
M  V30 14083 H 1315.18 2.522 5.44201 0
M  V30 14084 H 1316.86 3.05617 5.70269 0
M  V30 14085 N 1316.99 -1.36373 0.789944 0
M  V30 14086 C 1318.24 -1.98476 0.359165 0
M  V30 14087 C 1318.55 -1.634 -1.07517 0
M  V30 14088 O 1319.76 -2.18742 -1.60824 0
M  V30 14089 C 1318.21 -3.55011 0.591228 0
M  V30 14090 C 1317.82 -3.99011 2.03701 0
M  V30 14091 C 1319.56 -4.23903 0.224979 0
M  V30 14092 C 1317.47 -5.48325 2.2157 0
M  V30 14093 H 1316.4 -0.742612 0.130552 0
M  V30 14094 H 1319.05 -1.55664 0.971652 0
M  V30 14095 H 1317.43 -3.95895 -0.0909788 0
M  V30 14096 H 1318.61 -3.69324 2.75566 0
M  V30 14097 H 1316.92 -3.42957 2.36155 0
M  V30 14098 H 1319.52 -5.33638 0.336764 0
M  V30 14099 H 1319.86 -4.08004 -0.826964 0
M  V30 14100 H 1320.4 -3.88383 0.860443 0
M  V30 14101 H 1317.13 -5.69173 3.25149 0
M  V30 14102 H 1316.65 -5.79637 1.54211 0
M  V30 14103 H 1318.33 -6.14556 2.0231 0
M  V30 14104 N 1318.47 -0.542005 -1.47987 0
M  V30 14105 C 1319.71 -0.0123299 -2.02796 0
M  V30 14106 C 1320.04 1.32789 -1.41707 0
M  V30 14107 O 1319.32 1.86048 -0.567119 0
M  V30 14108 C 1319.6 0.0969277 -3.5997 0
M  V30 14109 C 1319.46 -1.26931 -4.31519 0
M  V30 14110 C 1320.77 0.817854 -4.32434 0
M  V30 14111 H 1317.89 -0.00595479 -0.736976 0
M  V30 14112 H 1320.54 -0.70136 -1.76581 0
M  V30 14113 H 1318.69 0.683755 -3.82436 0
M  V30 14114 H 1320.36 -1.89817 -4.20437 0
M  V30 14115 H 1318.6 -1.84804 -3.92467 0
M  V30 14116 H 1319.27 -1.14573 -5.39979 0
M  V30 14117 H 1321.75 0.319749 -4.1487 0
M  V30 14118 H 1320.62 0.863225 -5.4207 0
M  V30 14119 H 1320.88 1.87075 -4.00569 0
M  V30 14120 N 1319.94 1.55134 -0.277709 0
M  V30 14121 C 1321.19 1.99654 0.33833 0
M  V30 14122 C 1321.52 1.16612 1.55666 0
M  V30 14123 O 1320.77 0.224428 1.94409 0
M  V30 14124 C 1321.07 3.49182 0.762028 0
M  V30 14125 C 1320.74 4.49524 -0.351958 0
M  V30 14126 C 1319.4 4.76682 -0.657833 0
M  V30 14127 C 1321.75 5.09406 -1.10247 0
M  V30 14128 C 1319.08 5.6099 -1.71776 0
M  V30 14129 C 1321.43 5.94866 -2.15214 0
M  V30 14130 C 1320.1 6.20344 -2.46434 0
M  V30 14131 H 1319.37 0.730584 0.123804 0
M  V30 14132 H 1322.01 1.87446 -0.391961 0
M  V30 14133 H 1320.32 3.58879 1.57204 0
M  V30 14134 H 1322.02 3.81037 1.24947 0
M  V30 14135 H 1318.61 4.28475 -0.103438 0
M  V30 14136 H 1322.79 4.88446 -0.879422 0
M  V30 14137 H 1318.05 5.78975 -1.96463 0
M  V30 14138 H 1322.22 6.403 -2.73842 0
M  V30 14139 H 1319.85 6.85464 -3.28699 0
M  V30 14140 N 1321.42 0.00503138 1.57599 0
M  V30 14141 C 1322.67 -0.677979 1.89964 0
M  V30 14142 C 1322.98 -1.74657 0.88059 0
M  V30 14143 O 1324.19 -2.48455 1.09463 0
M  V30 14144 C 1322.65 -1.25708 3.37232 0
M  V30 14145 C 1322.25 -0.223045 4.47444 0
M  V30 14146 C 1324 -1.91799 3.787 0
M  V30 14147 C 1321.9 -0.812416 5.85793 0
M  V30 14148 H 1320.83 -0.256991 0.708852 0
M  V30 14149 H 1323.49 0.0663988 1.8338 0
M  V30 14150 H 1321.87 -2.05228 3.3867 0
M  V30 14151 H 1323.04 0.54794 4.57531 0
M  V30 14152 H 1321.36 0.337714 4.15028 0
M  V30 14153 H 1323.95 -2.36808 4.79402 0
M  V30 14154 H 1324.3 -2.75067 3.1248 0
M  V30 14155 H 1324.83 -1.19004 3.79583 0
M  V30 14156 H 1321.57 -0.0184031 6.55497 0
M  V30 14157 H 1321.09 -1.55244 5.79361 0
M  V30 14158 H 1322.77 -1.30952 6.33609 0
M  V30 14159 N 1322.9 -1.55308 -0.267798 0
M  V30 14160 C 1324.15 -1.76159 -0.998707 0
M  V30 14161 C 1324.47 -0.565573 -1.86095 0
M  V30 14162 O 1323.73 0.45178 -1.90414 0
M  V30 14163 C 1324.03 -3.02286 -1.90678 0
M  V30 14164 C 1323.69 -4.34594 -1.20161 0
M  V30 14165 C 1322.36 -4.70553 -1.00664 0
M  V30 14166 C 1324.71 -5.16475 -0.7002 0
M  V30 14167 C 1322.04 -5.85945 -0.297629 0
M  V30 14168 C 1324.39 -6.326 -0.00475187 0
M  V30 14169 C 1323.05 -6.67195 0.20188 0
M  V30 14170 H 1322.32 -0.644613 -0.365453 0
M  V30 14171 H 1324.97 -1.89579 -0.270545 0
M  V30 14172 H 1323.27 -2.83788 -2.70133 0
M  V30 14173 H 1324.97 -3.15615 -2.47362 0
M  V30 14174 H 1321.56 -4.06334 -1.36348 0
M  V30 14175 H 1325.75 -4.89167 -0.838435 0
M  V30 14176 H 1321 -6.11268 -0.126864 0
M  V30 14177 H 1325.18 -6.95299 0.39151 0
M  V30 14178 H 1322.8 -7.56459 0.753252 0
M  V30 14179 N 1324.38 0.532545 -1.4833 0
M  V30 14180 C 1325.34 1.61955 -1.62183 0
M  V30 14181 C 1326.34 1.52982 -0.495281 0
M  V30 14182 O 1327.53 1.56698 -0.761005 0
M  V30 14183 C 1324.66 3.0157 -1.58961 0
M  V30 14184 H 1325.86 1.51013 -2.59105 0
M  V30 14185 H 1323.41 0.754405 -1.36888 0
M  V30 14186 H 1324.14 3.18021 -0.635069 0
M  V30 14187 H 1323.93 3.09491 -2.40744 0
M  V30 14188 H 1325.42 3.80604 -1.71843 0
M  V30 14189 N 1325.86 1.36875 0.78122 0
M  V30 14190 C 1327.1 1.31754 1.54171 0
M  V30 14191 C 1327.43 -0.100632 1.93939 0
M  V30 14192 O 1326.71 -1.05587 1.63345 0
M  V30 14193 C 1326.99 2.24789 2.81322 0
M  V30 14194 C 1326.85 3.75342 2.47868 0
M  V30 14195 C 1328.16 2.16442 3.83198 0
M  V30 14196 H 1325.28 0.479931 0.559317 0
M  V30 14197 H 1327.93 1.67497 0.896935 0
M  V30 14198 H 1326.08 1.94438 3.36342 0
M  V30 14199 H 1327.75 4.16247 1.98836 0
M  V30 14200 H 1325.99 3.94375 1.80696 0
M  V30 14201 H 1326.66 4.3586 3.38719 0
M  V30 14202 H 1329.14 2.43175 3.37647 0
M  V30 14203 H 1328.01 2.83695 4.69903 0
M  V30 14204 H 1328.27 1.15431 4.26765 0
M  V30 14205 N 1327.33 -1.00632 1.21289 0
M  V30 14206 C 1328.58 -1.74647 1.03084 0
M  V30 14207 C 1328.91 -1.89271 -0.43476 0
M  V30 14208 O 1328.19 -1.42607 -1.32263 0
M  V30 14209 C 1328.47 -3.15981 1.72709 0
M  V30 14210 C 1328.32 -3.09088 3.2678 0
M  V30 14211 C 1329.64 -4.14875 1.46857 0
M  V30 14212 H 1326.76 -0.633938 0.375889 0
M  V30 14213 H 1329.4 -1.17328 1.49446 0
M  V30 14214 H 1327.55 -3.64918 1.33294 0
M  V30 14215 H 1329.23 -2.67875 3.75554 0
M  V30 14216 H 1327.47 -2.46223 3.57151 0
M  V30 14217 H 1328.14 -4.09041 3.70661 0
M  V30 14218 H 1330.62 -3.74637 1.81069 0
M  V30 14219 H 1329.49 -5.1191 1.98088 0
M  V30 14220 H 1329.75 -4.40302 0.398296 0
M  V30 14221 N 1328.81 -1.02043 -1.20104 0
M  V30 14222 C 1330.06 -0.710566 -1.89197 0
M  V30 14223 C 1330.38 0.762471 -1.79475 0
M  V30 14224 O 1329.65 1.54871 -1.19965 0
M  V30 14225 H 1328.23 -0.259839 -0.700352 0
M  V30 14226 H 1330.89 -1.29285 -1.45848 0
M  V30 14227 H 1329.99 -0.997363 -2.95735 0
M  V30 14228 N 1330.29 1.35952 -0.797165 0
M  V30 14229 C 1331.22 2.27728 -0.146693 0
M  V30 14230 C 1332.2 1.47616 0.68178 0
M  V30 14231 O 1333.39 1.76898 0.651094 0
M  V30 14232 C 1330.51 3.29179 0.797442 0
M  V30 14233 C 1329.56 4.26471 0.0497851 0
M  V30 14234 S 1330.39 5.19982 -1.2798 0
M  V30 14235 C 1331.55 6.24977 -0.339864 0
M  V30 14236 H 1331.78 2.82549 -0.924834 0
M  V30 14237 H 1329.31 1.4261 -0.591759 0
M  V30 14238 H 1331.27 3.88127 1.33669 0
M  V30 14239 H 1329.93 2.73255 1.54889 0
M  V30 14240 H 1329.13 4.98138 0.766487 0
M  V30 14241 H 1328.73 3.71643 -0.419219 0
M  V30 14242 H 1331.02 6.75809 0.478412 0
M  V30 14243 H 1331.96 7.00636 -1.02544 0
M  V30 14244 H 1332.37 5.64468 0.0602491 0
M  V30 14245 N 1331.77 0.549846 1.47697 0
M  V30 14246 C 1332.7 -0.239345 2.27947 0
M  V30 14247 C 1333.71 -0.886206 1.36566 0
M  V30 14248 O 1334.9 -0.761298 1.61451 0
M  V30 14249 C 1332 -1.35591 3.10593 0
M  V30 14250 C 1331.18 -0.807234 4.29887 0
M  V30 14251 C 1330.23 -1.80738 4.94187 0
M  V30 14252 O 1329.26 -1.35641 5.52802 0
M  V30 14253 N 1330.46 -3.14046 4.88216 0
M  V30 14254 H 1333.23 0.449001 2.96318 0
M  V30 14255 H 1330.79 0.385443 1.57245 0
M  V30 14256 H 1332.78 -2.02356 3.50477 0
M  V30 14257 H 1331.35 -1.94761 2.44514 0
M  V30 14258 H 1330.57 0.0369877 3.94183 0
M  V30 14259 H 1331.86 -0.419877 5.07065 0
M  V30 14260 H 1331.26 -3.53335 4.41781 0
M  V30 14261 H 1329.81 -3.7639 5.32141 0
M  V30 14262 N 1333.25 -1.54984 0.285932 0
M  V30 14263 C 1334.18 -2.25916 -0.590259 0
M  V30 14264 C 1335.16 -1.25319 -1.15018 0
M  V30 14265 O 1336.34 -1.54062 -1.18231 0
M  V30 14266 C 1333.47 -2.98849 -1.76936 0
M  V30 14267 C 1332.43 -4.06466 -1.3405 0
M  V30 14268 C 1331.75 -4.67032 -2.60356 0
M  V30 14269 C 1333.05 -5.20064 -0.482754 0
M  V30 14270 H 1334.75 -2.994 0.00131571 0
M  V30 14271 H 1332.29 -1.44 0.00207281 0
M  V30 14272 H 1334.25 -3.47186 -2.3883 0
M  V30 14273 H 1332.97 -2.22918 -2.38694 0
M  V30 14274 H 1331.63 -3.58957 -0.7447 0
M  V30 14275 H 1331.28 -3.87757 -3.20396 0
M  V30 14276 H 1330.98 -5.39703 -2.32368 0
M  V30 14277 H 1332.5 -5.18124 -3.23079 0
M  V30 14278 H 1333.91 -5.64387 -1.00697 0
M  V30 14279 H 1332.31 -5.99363 -0.297291 0
M  V30 14280 H 1333.38 -4.82358 0.495861 0
M  V30 14281 N 1334.72 -0.0133892 -1.57594 0
M  V30 14282 C 1335.97 0.668634 -1.91143 0
M  V30 14283 C 1336.3 1.7303 -0.888299 0
M  V30 14284 O 1335.55 1.95418 0.105056 0
M  V30 14285 C 1335.85 1.33729 -3.31438 0
M  V30 14286 C 1335.52 0.407527 -4.49055 0
M  V30 14287 C 1334.18 0.151573 -4.80961 0
M  V30 14288 C 1336.53 -0.231835 -5.20684 0
M  V30 14289 C 1333.86 -0.751812 -5.81863 0
M  V30 14290 C 1336.21 -1.12318 -6.22549 0
M  V30 14291 C 1334.88 -1.38818 -6.52906 0
M  V30 14292 H 1334.15 0.24467 -0.699441 0
M  V30 14293 H 1336.79 -0.0717876 -1.91365 0
M  V30 14294 H 1335.1 2.15209 -3.27403 0
M  V30 14295 H 1336.8 1.87128 -3.5466 0
M  V30 14296 H 1333.39 0.617192 -4.24133 0
M  V30 14297 H 1337.57 -0.0471268 -4.96278 0
M  V30 14298 H 1332.83 -0.964991 -6.03737 0
M  V30 14299 H 1337 -1.62488 -6.77179 0
M  V30 14300 H 1334.63 -2.08986 -7.3091 0
M  V30 14301 N 1336.2 1.55448 0.259558 0
M  V30 14302 C 1337.45 1.76337 0.987396 0
M  V30 14303 C 1337.77 0.57505 1.86328 0
M  V30 14304 O 1337.04 -0.409621 1.9157 0
M  V30 14305 H 1335.62 0.650312 0.367565 0
M  V30 14306 H 1338.28 1.9287 0.280551 0
M  V30 14307 H 1337.38 2.66975 1.61651 0
M  V30 14308 N 1337.68 -0.524672 1.4861 0
M  V30 14309 C 1338.63 -1.62872 1.63527 0
M  V30 14310 C 1339.6 -1.59097 0.477202 0
M  V30 14311 O 1340.78 -1.77443 0.701341 0
M  V30 14312 C 1337.92 -3.01116 1.68592 0
M  V30 14313 C 1337.04 -3.15085 2.95542 0
M  V30 14314 C 1336.17 -4.4392 2.91734 0
M  V30 14315 C 1335.21 -4.51436 4.13366 0
M  V30 14316 N 1334.35 -5.71667 4.07605 0
M  V30 14317 H 1339.19 -1.49462 2.57808 0
M  V30 14318 H 1336.72 -0.727578 1.27846 0
M  V30 14319 H 1338.68 -3.81212 1.6951 0
M  V30 14320 H 1337.31 -3.13285 0.777975 0
M  V30 14321 H 1336.36 -2.28207 3.04345 0
M  V30 14322 H 1337.68 -3.165 3.85524 0
M  V30 14323 H 1336.83 -5.32312 2.91083 0
M  V30 14324 H 1335.57 -4.45034 1.9949 0
M  V30 14325 H 1334.57 -3.6145 4.14287 0
M  V30 14326 H 1335.8 -4.52057 5.06776 0
M  V30 14327 H 1333.74 -5.73668 3.18184 0
M  V30 14328 H 1333.66 -5.74599 4.91297 0
M  V30 14329 H 1334.93 -6.62331 4.1102 0
M  V30 14330 N 1339.16 -1.37287 -0.77395 0
M  V30 14331 C 1340.38 -1.35734 -1.56815 0
M  V30 14332 C 1340.81 0.0555546 -1.88018 0
M  V30 14333 O 1340.17 1.03197 -1.49064 0
M  V30 14334 C 1340.21 -2.2008 -2.85652 0
M  V30 14335 O 1339.32 -1.60391 -3.79932 0
M  V30 14336 H 1338.66 -0.463881 -0.47509 0
M  V30 14337 H 1341.19 -1.80781 -0.958087 0
M  V30 14338 H 1341.2 -2.33215 -3.34776 0
M  V30 14339 H 1339.87 -3.22781 -2.6227 0
M  V30 14340 H 1338.45 -1.56285 -3.3857 0
M  V30 14341 N 1340.64 0.999871 -1.21821 0
M  V30 14342 C 1341.87 1.77148 -1.06312 0
M  V30 14343 C 1342.27 1.85142 0.389747 0
M  V30 14344 O 1341.62 1.31562 1.28207 0
M  V30 14345 C 1341.68 3.22367 -1.59122 0
M  V30 14346 C 1341.34 3.37937 -3.07649 0
M  V30 14347 C 1342.34 3.25808 -4.05148 0
M  V30 14348 C 1340.03 3.63213 -3.46961 0
M  V30 14349 C 1342.02 3.38729 -5.39946 0
M  V30 14350 C 1339.71 3.75775 -4.81909 0
M  V30 14351 C 1340.7 3.6354 -5.78211 0
M  V30 14352 O 1340.39 3.75694 -7.1071 0
M  V30 14353 H 1340.12 0.563396 -0.373578 0
M  V30 14354 H 1342.68 1.26627 -1.61724 0
M  V30 14355 H 1340.91 3.74047 -0.98111 0
M  V30 14356 H 1342.6 3.81219 -1.39379 0
M  V30 14357 H 1343.36 3.062 -3.76121 0
M  V30 14358 H 1339.24 3.71816 -2.72533 0
M  V30 14359 H 1342.79 3.29096 -6.15095 0
M  V30 14360 H 1338.68 3.94889 -5.1062 0
M  V30 14361 H 1339.45 3.9261 -7.18192 0
M  V30 14362 N 1342.11 1.02678 1.19562 0
M  V30 14363 C 1343.06 0.605764 2.22709 0
M  V30 14364 C 1344.03 -0.37936 1.6171 0
M  V30 14365 O 1345.22 -0.276496 1.88786 0
M  V30 14366 C 1342.36 -0.0394312 3.45077 0
M  V30 14367 C 1341.47 0.991481 4.20468 0
M  V30 14368 C 1340.6 0.316269 5.30258 0
M  V30 14369 C 1339.64 1.33324 5.97404 0
M  V30 14370 N 1338.78 0.683979 6.9876 0
M  V30 14371 H 1343.62 1.48994 2.58079 0
M  V30 14372 H 1341.16 0.745636 1.26802 0
M  V30 14373 H 1343.12 -0.430726 4.14971 0
M  V30 14374 H 1341.75 -0.887193 3.10369 0
M  V30 14375 H 1340.8 1.50085 3.49541 0
M  V30 14376 H 1342.11 1.76449 4.66548 0
M  V30 14377 H 1341.26 -0.129983 6.06561 0
M  V30 14378 H 1340 -0.488956 4.85243 0
M  V30 14379 H 1339.01 1.78977 5.19853 0
M  V30 14380 H 1340.23 2.13992 6.44503 0
M  V30 14381 H 1338.18 -0.101192 6.55922 0
M  V30 14382 H 1338.1 1.3949 7.4302 0
M  V30 14383 H 1339.36 0.261658 7.79061 0
M  V30 14384 N 1343.59 -1.35528 0.804364 0
M  V30 14385 C 1344.5 -2.33616 0.214663 0
M  V30 14386 C 1345.52 -1.61757 -0.64115 0
M  V30 14387 O 1346.69 -1.93647 -0.553424 0
M  V30 14388 C 1343.76 -3.40951 -0.628778 0
M  V30 14389 C 1342.82 -4.28587 0.247269 0
M  V30 14390 C 1342.05 -5.30796 -0.556012 0
M  V30 14391 O 1342.28 -5.41557 -1.79088 0
M  V30 14392 O 1341.21 -6.01878 0.0519437 0
M  V30 14393 H 1345.04 -2.85843 1.02605 0
M  V30 14394 H 1342.62 -1.38259 0.566108 0
M  V30 14395 H 1344.5 -4.06538 -1.10926 0
M  V30 14396 H 1343.18 -2.90999 -1.4178 0
M  V30 14397 H 1342.09 -3.65988 0.774835 0
M  V30 14398 H 1343.42 -4.81931 1.00017 0
M  V30 14399 N 1345.07 -0.557671 -1.47404 0
M  V30 14400 C 1346.31 -0.0361491 -2.04368 0
M  V30 14401 C 1346.68 1.2894 -1.42262 0
M  V30 14402 O 1347.88 1.89864 -1.90276 0
M  V30 14403 C 1346.15 0.0547287 -3.57358 0
M  V30 14404 S 1347.71 0.522307 -4.3568 0
M  V30 14405 H 1344.52 -0.0253676 -0.710547 0
M  V30 14406 H 1347.13 -0.744509 -1.80769 0
M  V30 14407 H 1345.83 -0.914374 -4.00084 0
M  V30 14408 H 1345.36 0.786629 -3.85455 0
M  V30 14409 H 1347.38 1.7819 -4.63101 0
M  V30 14410 N 1346.55 1.54831 -0.294147 0
M  V30 14411 C 1347.8 2.00298 0.317605 0
M  V30 14412 C 1348.13 1.18228 1.54064 0
M  V30 14413 O 1347.4 0.257034 1.92794 0
M  V30 14414 C 1347.69 3.53602 0.680991 0
M  V30 14415 C 1347.54 4.46416 -0.550711 0
M  V30 14416 C 1348.86 4.13379 1.51016 0
M  V30 14417 H 1345.98 0.728135 0.113965 0
M  V30 14418 H 1348.62 1.85636 -0.404883 0
M  V30 14419 H 1346.77 3.66227 1.29654 0
M  V30 14420 H 1348.44 4.45707 -1.18922 0
M  V30 14421 H 1346.68 4.17294 -1.18524 0
M  V30 14422 H 1347.36 5.51423 -0.252412 0
M  V30 14423 H 1349.83 4.04148 0.99012 0
M  V30 14424 H 1348.71 5.20818 1.73321 0
M  V30 14425 H 1348.97 3.64817 2.49722 0
M  V30 14426 N 1348.03 0.0217466 1.57585 0
M  V30 14427 C 1349.27 -0.662733 1.93358 0
M  V30 14428 C 1349.63 -1.69715 0.897829 0
M  V30 14429 O 1350.83 -2.43358 1.14151 0
M  V30 14430 C 1349.1 -1.26973 3.34085 0
M  V30 14431 S 1350.66 -1.97631 3.91775 0
M  V30 14432 H 1347.48 -0.218386 0.67663 0
M  V30 14433 H 1350.08 0.0836466 1.95321 0
M  V30 14434 H 1348.79 -0.504339 4.07289 0
M  V30 14435 H 1348.32 -2.05357 3.35547 0
M  V30 14436 H 1350.33 -3.25393 3.74612 0
M  V30 14437 N 1349.51 -1.55583 -0.251311 0
M  V30 14438 C 1350.45 -1.89946 -1.31108 0
M  V30 14439 C 1351.42 -0.753209 -1.4804 0
M  V30 14440 O 1352.61 -1.00646 -1.62095 0
M  V30 14441 C 1349.75 -2.19576 -2.66233 0
M  V30 14442 C 1348.86 -3.46983 -2.57345 0
M  V30 14443 C 1348 -3.66206 -3.84794 0
M  V30 14444 C 1347.03 -4.87229 -3.70505 0
M  V30 14445 N 1346.17 -5.02996 -4.89836 0
M  V30 14446 H 1351.01 -2.80325 -1.01104 0
M  V30 14447 H 1348.55 -1.3877 -0.487986 0
M  V30 14448 H 1350.51 -2.3476 -3.44882 0
M  V30 14449 H 1349.14 -1.32406 -2.94395 0
M  V30 14450 H 1348.19 -3.40156 -1.70289 0
M  V30 14451 H 1349.5 -4.35776 -2.42695 0
M  V30 14452 H 1348.65 -3.81324 -4.71886 0
M  V30 14453 H 1347.39 -2.75638 -4.02337 0
M  V30 14454 H 1346.4 -4.72092 -2.81797 0
M  V30 14455 H 1347.62 -5.79253 -3.54462 0
M  V30 14456 H 1345.57 -4.15364 -5.07748 0
M  V30 14457 H 1345.49 -5.8587 -4.778 0
M  V30 14458 H 1346.75 -5.22521 -5.78439 0
M  V30 14459 N 1350.98 0.516783 -1.48886 0
M  V30 14460 C 1352.23 1.26841 -1.56825 0
M  V30 14461 C 1352.55 1.93957 -0.252998 0
M  V30 14462 O 1353.75 2.70681 -0.210765 0
M  V30 14463 C 1352.21 2.30223 -2.76633 0
M  V30 14464 C 1351.82 1.69117 -4.14853 0
M  V30 14465 C 1353.56 3.06313 -2.93893 0
M  V30 14466 C 1351.47 2.70516 -5.25904 0
M  V30 14467 H 1350.4 0.477087 -0.58387 0
M  V30 14468 H 1353.05 0.544187 -1.75245 0
M  V30 14469 H 1351.43 3.05739 -2.51674 0
M  V30 14470 H 1352.6 0.997003 -4.49885 0
M  V30 14471 H 1350.92 1.05473 -4.0282 0
M  V30 14472 H 1353.52 3.8211 -3.74027 0
M  V30 14473 H 1353.86 3.62976 -2.03848 0
M  V30 14474 H 1354.39 2.37911 -3.18815 0
M  V30 14475 H 1351.13 2.18655 -6.17956 0
M  V30 14476 H 1350.65 3.38221 -4.95345 0
M  V30 14477 H 1352.33 3.3325 -5.54575 0
M  V30 14478 N 1352.46 1.37696 0.766659 0
M  V30 14479 C 1353.41 1.33966 1.90147 0
M  V30 14480 C 1354.4 0.2276 1.67864 0
M  V30 14481 O 1355.61 0.395912 1.75592 0
M  V30 14482 H 1351.98 0.417611 0.625384 0
M  V30 14483 H 1353.96 2.29753 1.9041 0
M  V30 14484 C 1352.7 1.16859 3.27474 0
M  V30 14485 H 1352.03 2.01686 3.452 0
M  V30 14486 H 1353.47 1.18301 4.07162 0
M  V30 14487 C 1351.93 -0.125418 3.36666 0
M  V30 14488 O 1352.46 -1.10717 3.86141 0
M  V30 14489 N 1350.66 -0.17784 2.90055 0
M  V30 14490 H 1350.21 0.621737 2.49984 0
M  V30 14491 H 1350.17 -1.04325 2.96587 0
M  V30 14492 N 1353.94 -0.993397 1.22349 0
M  V30 14493 C 1355.22 -1.7063 0.956275 0
M  V30 14494 C 1355.6 -2.0437 -0.52877 0
M  V30 14495 O 1354.94 -1.72662 -1.49667 0
M  V30 14496 C 1355.15 -2.95725 1.85331 0
M  V30 14497 C 1356.5 -3.68514 2.10909 0
M  V30 14498 O 1357.53 -3.05732 1.82775 0
M  V30 14499 O 1356.39 -4.81468 2.58556 0
M  V30 14500 H 1353.48 -0.744734 0.359583 0
M  V30 14501 H 1356.03 -1.04979 1.33333 0
M  V30 14502 H 1354.8 -2.6729 2.85782 0
M  V30 14503 H 1354.42 -3.69116 1.47781 0
M  V30 14504 N 1355.42 -1.03311 -1.19015 0
M  V30 14505 C 1356.69 -0.646539 -1.84606 0
M  V30 14506 C 1357.07 0.87449 -1.92135 0
M  V30 14507 O 1356.42 1.77291 -1.44154 0
M  V30 14508 C 1356.63 -1.31354 -3.23338 0
M  V30 14509 C 1357.98 -1.43949 -3.99455 0
M  V30 14510 O 1359 -1.27104 -3.32751 0
M  V30 14511 O 1357.86 -1.71328 -5.1895 0
M  V30 14512 H 1354.96 -0.225267 -0.795728 0
M  V30 14513 H 1357.5 -1.13152 -1.2647 0
M  V30 14514 H 1356.28 -2.3521 -3.12717 0
M  V30 14515 H 1355.9 -0.816688 -3.89122 0
M  V30 14516 N 1356.9 1.35099 -0.81154 0
M  V30 14517 C 1358.14 2.00449 -0.399935 0
M  V30 14518 C 1358.5 1.62971 1.0151 0
M  V30 14519 O 1359.7 2.21078 1.52898 0
M  V30 14520 C 1357.97 3.52608 -0.583277 0
M  V30 14521 S 1359.53 4.38012 -0.26283 0
M  V30 14522 H 1356.35 0.69464 -0.151644 0
M  V30 14523 H 1358.95 1.64599 -1.05487 0
M  V30 14524 H 1357.65 3.77372 -1.61303 0
M  V30 14525 H 1357.19 3.93304 0.0868032 0
M  V30 14526 H 1359.2 4.87451 0.927696 0
M  V30 14527 N 1358.37 0.56548 1.47106 0
M  V30 14528 C 1359.6 0.0496298 2.0684 0
M  V30 14529 C 1360.02 -1.24777 1.4169 0
M  V30 14530 O 1359.37 -1.75046 0.516239 0
M  V30 14531 C 1359.42 -0.140987 3.61225 0
M  V30 14532 O 1359.15 1.10504 4.23934 0
M  V30 14533 C 1360.65 -0.693171 4.37847 0
M  V30 14534 H 1357.87 0.0496018 0.669164 0
M  V30 14535 H 1360.41 0.781247 1.88989 0
M  V30 14536 H 1358.57 -0.822762 3.78562 0
M  V30 14537 H 1358.98 0.907978 5.16581 0
M  V30 14538 H 1360.45 -0.7758 5.46521 0
M  V30 14539 H 1360.93 -1.70632 4.04699 0
M  V30 14540 H 1361.54 -0.046826 4.25274 0
M  V30 14541 N 1359.85 -1.54672 0.302354 0
M  V30 14542 C 1360.78 -2.2653 -0.566265 0
M  V30 14543 C 1361.76 -1.26532 -1.13682 0
M  V30 14544 O 1362.95 -1.55307 -1.1659 0
M  V30 14545 C 1360.08 -3.00709 -1.73757 0
M  V30 14546 C 1359.03 -4.07865 -1.29731 0
M  V30 14547 C 1358.36 -4.69767 -2.55388 0
M  V30 14548 C 1359.66 -5.20547 -0.427567 0
M  V30 14549 H 1361.35 -2.99382 0.033071 0
M  V30 14550 H 1358.9 -1.4399 0.0173458 0
M  V30 14551 H 1360.85 -3.497 -2.35134 0
M  V30 14552 H 1359.58 -2.25437 -2.36317 0
M  V30 14553 H 1358.23 -3.59726 -0.706586 0
M  V30 14554 H 1357.88 -3.91134 -3.16265 0
M  V30 14555 H 1357.58 -5.42137 -2.26631 0
M  V30 14556 H 1359.11 -5.21521 -3.17566 0
M  V30 14557 H 1360.52 -5.65424 -0.947053 0
M  V30 14558 H 1358.92 -5.99645 -0.233704 0
M  V30 14559 H 1359.99 -4.81805 0.546993 0
M  V30 14560 N 1361.33 -0.0301034 -1.57571 0
M  V30 14561 C 1362.74 0.508591 -1.79639 0
M  V30 14562 C 1363.09 1.72191 -0.940458 0
M  V30 14563 O 1362.22 2.15872 -0.151138 0
M  V30 14564 C 1362.81 0.929446 -3.25802 0
M  V30 14565 C 1361.37 1.41325 -3.48861 0
M  V30 14566 C 1360.52 0.378433 -2.74706 0
M  V30 14567 H 1363.47 -0.256131 -1.56619 0
M  V30 14568 H 1363.49 1.79374 -3.35567 0
M  V30 14569 H 1363 0.0461738 -3.88073 0
M  V30 14570 H 1361.1 2.31641 -2.91844 0
M  V30 14571 H 1361.22 1.41995 -4.57574 0
M  V30 14572 H 1359.58 0.846744 -2.40213 0
M  V30 14573 H 1360.36 -0.49639 -3.39692 0
M  V30 14574 N 1362.81 1.55714 0.243056 0
M  V30 14575 C 1364.22 1.48224 0.591754 0
M  V30 14576 C 1364.42 0.72105 1.88157 0
M  V30 14577 O 1363.48 0.251966 2.5124 0
M  V30 14578 C 1364.79 2.92655 0.690918 0
M  V30 14579 C 1366.34 3.03048 0.782988 0
M  V30 14580 C 1366.82 4.48794 0.913682 0
M  V30 14581 N 1368.31 4.52748 0.978454 0
M  V30 14582 C 1369.04 5.62771 1.09891 0
M  V30 14583 N 1368.54 6.82596 1.18467 0
M  V30 14584 N 1370.33 5.50576 1.13237 0
M  V30 14585 H 1362.48 2.03642 -0.603614 0
M  V30 14586 H 1364.75 0.924702 -0.208878 0
M  V30 14587 H 1364.45 3.51203 -0.186871 0
M  V30 14588 H 1364.33 3.43357 1.5616 0
M  V30 14589 H 1366.71 2.44578 1.65123 0
M  V30 14590 H 1366.79 2.55551 -0.112921 0
M  V30 14591 H 1366.44 5.07875 0.0499835 0
M  V30 14592 H 1366.37 4.93976 1.82469 0
M  V30 14593 H 1368.86 3.66445 0.92337 0
M  V30 14594 H 1369.17 7.62197 1.27576 0
M  V30 14595 H 1367.52 6.85349 1.15418 0
M  V30 14596 H 1370.71 4.55897 1.06188 0
M  V30 14597 H 1370.88 6.36358 1.2228 0
M  V30 14598 N 1364.29 -0.50888 1.49158 0
M  V30 14599 C 1365.53 -1.26274 1.59456 0
M  V30 14600 C 1365.89 -1.90436 0.274217 0
M  V30 14601 O 1365.18 -1.77359 -0.724875 0
M  V30 14602 C 1365.37 -2.35875 2.6851 0
M  V30 14603 C 1365.2 -1.8246 4.11021 0
M  V30 14604 C 1363.97 -1.64114 4.77907 0
M  V30 14605 C 1366.17 -1.34097 4.9651 0
M  V30 14606 N 1364.15 -1.05546 6.04759 0
M  V30 14607 C 1365.52 -0.876125 6.13779 0
M  V30 14608 C 1367.58 -1.22596 4.82571 0
M  V30 14609 C 1366.28 -0.307659 7.18642 0
M  V30 14610 C 1368.31 -0.671474 5.87576 0
M  V30 14611 C 1367.67 -0.216816 7.04066 0
M  V30 14612 H 1363.77 -0.452321 0.63791 0
M  V30 14613 H 1366.35 -0.571257 1.86131 0
M  V30 14614 H 1364.52 -3.02494 2.43622 0
M  V30 14615 H 1366.26 -3.02915 2.68374 0
M  V30 14616 H 1363.01 -1.88254 4.34577 0
M  V30 14617 H 1363.44 -0.782114 6.72467 0
M  V30 14618 H 1368.08 -1.56348 3.9283 0
M  V30 14619 H 1365.8 0.0421419 8.08089 0
M  V30 14620 H 1369.38 -0.585375 5.78848 0
M  V30 14621 H 1368.26 0.205554 7.83931 0
M  V30 14622 N 1365.76 -1.381 -0.759346 0
M  V30 14623 C 1366.71 -1.31373 -1.86347 0
M  V30 14624 C 1367.7 -0.199113 -1.59663 0
M  V30 14625 O 1368.89 -0.43459 -1.71582 0
M  V30 14626 C 1366.02 -1.13537 -3.23982 0
M  V30 14627 C 1365.11 -2.29596 -3.56576 0
M  V30 14628 N 1365.5 -3.55023 -3.60267 0
M  V30 14629 C 1363.79 -2.22022 -3.86811 0
M  V30 14630 C 1364.5 -4.31629 -3.89963 0
M  V30 14631 N 1363.47 -3.60915 -4.06499 0
M  V30 14632 H 1367.27 -2.26345 -1.8747 0
M  V30 14633 H 1364.79 -1.3125 -0.956415 0
M  V30 14634 H 1366.78 -1.06801 -4.02988 0
M  V30 14635 H 1365.44 -0.194922 -3.24114 0
M  V30 14636 H 1366.46 -3.88769 -3.42168 0
M  V30 14637 H 1363.13 -1.36104 -3.94692 0
M  V30 14638 H 1364.52 -5.40238 -3.9949 0
M  V30 14639 N 1367.24 0.986894 -1.22875 0
M  V30 14640 C 1368.18 2.07604 -0.947406 0
M  V30 14641 C 1369.15 1.62214 0.111904 0
M  V30 14642 O 1370.34 1.88488 -0.0209682 0
M  V30 14643 C 1367.46 3.3601 -0.42605 0
M  V30 14644 C 1366.51 4.00331 -1.47097 0
M  V30 14645 S 1367.34 4.40412 -3.04627 0
M  V30 14646 C 1368.5 5.7198 -2.54145 0
M  V30 14647 H 1368.73 2.31149 -1.86969 0
M  V30 14648 H 1366.27 1.1222 -1.06047 0
M  V30 14649 H 1368.22 4.10288 -0.131846 0
M  V30 14650 H 1366.88 3.10484 0.475211 0
M  V30 14651 H 1366.08 4.92809 -1.05618 0
M  V30 14652 H 1365.68 3.32403 -1.71418 0
M  V30 14653 H 1367.97 6.48602 -1.9576 0
M  V30 14654 H 1368.91 6.18293 -3.45137 0
M  V30 14655 H 1369.32 5.29669 -1.95221 0
M  V30 14656 N 1368.72 1.0394 1.18466 0
M  V30 14657 C 1369.67 0.623063 2.241 0
M  V30 14658 C 1370.66 -0.349518 1.65755 0
M  V30 14659 O 1371.87 -0.216947 1.78688 0
M  V30 14660 H 1368.24 0.183263 0.729327 0
M  V30 14661 H 1370.21 1.52439 2.56524 0
M  V30 14662 C 1368.96 0.000626805 3.477 0
M  V30 14663 H 1368.29 0.740056 3.92891 0
M  V30 14664 H 1369.73 -0.253484 4.23242 0
M  V30 14665 C 1368.19 -1.24907 3.1289 0
M  V30 14666 O 1368.72 -2.33996 3.2651 0
M  V30 14667 N 1366.92 -1.14187 2.67226 0
M  V30 14668 H 1366.47 -0.254146 2.56343 0
M  V30 14669 H 1366.43 -1.97893 2.44307 0
M  V30 14670 N 1370.2 -1.34667 0.818693 0
M  V30 14671 C 1371.48 -1.92838 0.327521 0
M  V30 14672 C 1371.86 -1.74732 -1.18457 0
M  V30 14673 O 1371.2 -1.12352 -1.98971 0
M  V30 14674 C 1371.41 -3.40797 0.752207 0
M  V30 14675 C 1372.76 -4.17948 0.748613 0
M  V30 14676 O 1373.79 -3.49364 0.694517 0
M  V30 14677 O 1372.64 -5.40344 0.817958 0
M  V30 14678 H 1369.74 -0.822249 0.0885148 0
M  V30 14679 H 1372.28 -1.43668 0.9032 0
M  V30 14680 H 1371.06 -3.47759 1.79387 0
M  V30 14681 H 1370.68 -3.97309 0.151992 0
M  V30 14682 N 1371.68 -0.573274 -1.46804 0
M  V30 14683 C 1372.92 -0.0552613 -2.02425 0
M  V30 14684 C 1373.25 1.30098 -1.44585 0
M  V30 14685 O 1372.51 1.86366 -0.597166 0
M  V30 14686 C 1372.81 0.0704285 -3.57331 0
M  V30 14687 C 1372.47 -1.217 -4.34166 0
M  V30 14688 C 1371.13 -1.56973 -4.54877 0
M  V30 14689 C 1373.49 -2.06939 -4.78357 0
M  V30 14690 C 1370.81 -2.77302 -5.1703 0
M  V30 14691 C 1373.17 -3.26486 -5.41839 0
M  V30 14692 C 1371.83 -3.62053 -5.6078 0
M  V30 14693 H 1371.1 -0.0202215 -0.740724 0
M  V30 14694 H 1373.75 -0.748016 -1.76287 0
M  V30 14695 H 1372.05 0.846254 -3.82552 0
M  V30 14696 H 1373.75 0.486841 -3.98034 0
M  V30 14697 H 1370.34 -0.932374 -4.18336 0
M  V30 14698 H 1374.52 -1.80992 -4.62121 0
M  V30 14699 H 1369.78 -3.05008 -5.29887 0
M  V30 14700 H 1373.95 -3.92811 -5.75042 0
M  V30 14701 H 1371.58 -4.55385 -6.08711 0
M  V30 14702 N 1373.15 1.5451 -0.310553 0
M  V30 14703 C 1374.4 2.00326 0.295904 0
M  V30 14704 C 1374.73 1.19887 1.53158 0
M  V30 14705 O 1373.98 0.265615 1.93889 0
M  V30 14706 C 1374.28 3.5072 0.68779 0
M  V30 14707 C 1373.95 4.48677 -0.447229 0
M  V30 14708 C 1372.61 4.7518 -0.758796 0
M  V30 14709 C 1374.96 5.06953 -1.21028 0
M  V30 14710 C 1372.29 5.5722 -1.83637 0
M  V30 14711 C 1374.64 5.90167 -2.27784 0
M  V30 14712 C 1373.31 6.14977 -2.59537 0
M  V30 14713 H 1372.58 0.733046 0.108279 0
M  V30 14714 H 1375.22 1.86572 -0.431633 0
M  V30 14715 H 1373.53 3.62133 1.49556 0
M  V30 14716 H 1375.23 3.83602 1.16836 0
M  V30 14717 H 1371.82 4.28159 -0.1943 0
M  V30 14718 H 1376 4.86471 -0.98283 0
M  V30 14719 H 1371.26 5.74678 -2.08699 0
M  V30 14720 H 1375.43 6.34347 -2.87362 0
M  V30 14721 H 1373.06 6.78338 -3.43165 0
M  V30 14722 N 1374.63 0.0384594 1.57553 0
M  V30 14723 C 1375.58 -0.949625 2.07283 0
M  V30 14724 C 1376.57 -1.27973 0.975284 0
M  V30 14725 O 1377.76 -1.26428 1.23875 0
M  V30 14726 C 1374.89 -2.22887 2.61106 0
M  V30 14727 C 1373.97 -1.92672 3.77807 0
M  V30 14728 N 1374.37 -1.32764 4.88065 0
M  V30 14729 C 1372.66 -2.22612 3.86471 0
M  V30 14730 C 1373.36 -1.19892 5.69211 0
M  V30 14731 N 1372.34 -1.69757 5.16414 0
M  V30 14732 H 1376.14 -0.481562 2.89928 0
M  V30 14733 H 1373.66 -0.166321 1.61546 0
M  V30 14734 H 1375.65 -2.94556 2.9503 0
M  V30 14735 H 1374.31 -2.70311 1.79895 0
M  V30 14736 H 1375.32 -1.00146 5.08125 0
M  V30 14737 H 1372 -2.72645 3.16182 0
M  V30 14738 H 1373.39 -0.734892 6.67869 0
M  V30 14739 N 1376.11 -1.55841 -0.234795 0
M  V30 14740 C 1377.34 -1.82649 -0.982547 0
M  V30 14741 C 1377.76 -0.617097 -1.77689 0
M  V30 14742 O 1377.12 0.434022 -1.76028 0
M  V30 14743 C 1377.17 -3.07319 -1.88646 0
M  V30 14744 O 1376.27 -2.85084 -2.97995 0
M  V30 14745 H 1375.61 -0.60257 -0.278936 0
M  V30 14746 H 1378.14 -2.03041 -0.252117 0
M  V30 14747 H 1378.15 -3.37073 -2.29882 0
M  V30 14748 H 1376.83 -3.94978 -1.30251 0
M  V30 14749 H 1375.4 -2.66528 -2.60801 0
M  V30 14750 N 1377.59 0.500963 -1.49426 0
M  V30 14751 C 1378.84 1.25509 -1.58915 0
M  V30 14752 C 1379.16 1.92534 -0.275868 0
M  V30 14753 O 1378.42 1.81324 0.736212 0
M  V30 14754 C 1378.72 2.34448 -2.69757 0
M  V30 14755 C 1378.38 1.8488 -4.11254 0
M  V30 14756 C 1377.05 1.71081 -4.49761 0
M  V30 14757 C 1379.4 1.4778 -4.9981 0
M  V30 14758 C 1376.73 1.18561 -5.74596 0
M  V30 14759 C 1379.08 0.967118 -6.25164 0
M  V30 14760 C 1377.74 0.815523 -6.62499 0
M  V30 14761 H 1377.01 0.459268 -0.58151 0
M  V30 14762 H 1379.66 0.555817 -1.83256 0
M  V30 14763 H 1377.96 3.10163 -2.39387 0
M  V30 14764 H 1379.66 2.925 -2.74308 0
M  V30 14765 H 1376.25 1.9658 -3.8086 0
M  V30 14766 H 1380.44 1.57288 -4.70717 0
M  V30 14767 H 1375.69 1.05536 -6.02223 0
M  V30 14768 H 1379.87 0.670857 -6.93161 0
M  V30 14769 H 1377.49 0.406375 -7.59113 0
M  V30 14770 N 1379.07 1.38501 0.752011 0
M  V30 14771 C 1380 1.38577 1.87933 0
M  V30 14772 C 1380.98 0.251454 1.68231 0
M  V30 14773 O 1382.16 0.45477 1.888 0
M  V30 14774 C 1379.29 1.21164 3.25479 0
M  V30 14775 C 1378.25 2.31816 3.59785 0
M  V30 14776 C 1377.57 1.99508 4.96085 0
M  V30 14777 C 1378.87 3.74082 3.645 0
M  V30 14778 H 1380.57 2.32913 1.88127 0
M  V30 14779 H 1378.11 1.12113 0.903698 0
M  V30 14780 H 1380.07 1.19842 4.04 0
M  V30 14781 H 1378.79 0.232899 3.25769 0
M  V30 14782 H 1377.45 2.32327 2.83584 0
M  V30 14783 H 1377.1 1.00114 4.92936 0
M  V30 14784 H 1376.8 2.73617 5.20007 0
M  V30 14785 H 1378.32 1.99807 5.76983 0
M  V30 14786 H 1379.74 3.75593 4.33131 0
M  V30 14787 H 1378.13 4.47409 3.99931 0
M  V30 14788 H 1379.2 4.06284 2.64692 0
M  V30 14789 N 1380.55 -0.980364 1.23396 0
M  V30 14790 C 1381.79 -1.71592 1.06015 0
M  V30 14791 C 1382.11 -1.91401 -0.403103 0
M  V30 14792 O 1383.31 -2.62405 -0.696853 0
M  V30 14793 C 1381.77 -3.08795 1.84861 0
M  V30 14794 C 1381.38 -2.96873 3.35515 0
M  V30 14795 C 1383.12 -3.8631 1.75968 0
M  V30 14796 C 1381.03 -4.29308 4.06753 0
M  V30 14797 H 1379.96 -0.643423 0.393095 0
M  V30 14798 H 1382.61 -1.09345 1.47363 0
M  V30 14799 H 1380.99 -3.71797 1.36318 0
M  V30 14800 H 1382.17 -2.4296 3.91544 0
M  V30 14801 H 1380.48 -2.32833 3.45221 0
M  V30 14802 H 1383.08 -4.84355 2.26504 0
M  V30 14803 H 1383.42 -4.09983 0.722464 0
M  V30 14804 H 1383.95 -3.3001 2.22122 0
M  V30 14805 H 1380.69 -4.10831 5.10782 0
M  V30 14806 H 1380.21 -4.83086 3.55511 0
M  V30 14807 H 1381.89 -4.97995 4.1305 0
M  V30 14808 N 1382.02 -1.04567 -1.17913 0
M  V30 14809 C 1383.27 -0.753137 -1.88297 0
M  V30 14810 C 1383.6 0.717651 -1.80453 0
M  V30 14811 O 1382.88 1.5242 -1.20824 0
M  V30 14812 C 1383.16 -1.22626 -3.38578 0
M  V30 14813 C 1383.01 -2.75952 -3.55205 0
M  V30 14814 C 1384.33 -0.82029 -4.32388 0
M  V30 14815 H 1381.45 -0.275067 -0.683745 0
M  V30 14816 H 1384.09 -1.29856 -1.38699 0
M  V30 14817 H 1382.24 -0.762246 -3.80949 0
M  V30 14818 H 1383.92 -3.30429 -3.21892 0
M  V30 14819 H 1382.16 -3.15534 -2.97693 0
M  V30 14820 H 1382.83 -3.04116 -4.60671 0
M  V30 14821 H 1385.31 -1.21965 -3.97824 0
M  V30 14822 H 1384.18 -1.17902 -5.36088 0
M  V30 14823 H 1384.44 0.276205 -4.41236 0
M  V30 14824 N 1383.5 1.34231 -0.825823 0
M  V30 14825 C 1384.75 1.98196 -0.415276 0
M  V30 14826 C 1385.08 1.65463 1.02236 0
M  V30 14827 O 1384.33 0.919868 1.72734 0
M  V30 14828 C 1384.63 3.52861 -0.56778 0
M  V30 14829 C 1384.3 4.05512 -1.97157 0
M  V30 14830 C 1382.96 4.19602 -2.35557 0
M  V30 14831 C 1385.31 4.33798 -2.88909 0
M  V30 14832 C 1382.64 4.59307 -3.6504 0
M  V30 14833 C 1384.99 4.74949 -4.17859 0
M  V30 14834 C 1383.65 4.87245 -4.56233 0
M  V30 14835 H 1382.92 0.725251 -0.15196 0
M  V30 14836 H 1385.57 1.60126 -1.05033 0
M  V30 14837 H 1383.88 3.9151 0.15065 0
M  V30 14838 H 1385.57 4.00336 -0.230608 0
M  V30 14839 H 1382.16 3.9501 -1.66328 0
M  V30 14840 H 1386.35 4.22448 -2.60483 0
M  V30 14841 H 1381.6 4.67017 -3.94594 0
M  V30 14842 H 1385.78 4.95795 -4.8904 0
M  V30 14843 H 1383.4 5.17768 -5.56615 0
M  V30 14844 N 1384.98 0.581051 1.46498 0
M  V30 14845 C 1386.4 0.242599 1.57745 0
M  V30 14846 C 1386.6 -1.25508 1.57639 0
M  V30 14847 O 1385.65 -2.0367 1.49247 0
M  V30 14848 C 1386.96 0.890342 2.87217 0
M  V30 14849 C 1388.51 0.863778 3.00845 0
M  V30 14850 C 1388.99 1.49103 4.3305 0
M  V30 14851 N 1390.48 1.4553 4.39745 0
M  V30 14852 C 1391.21 1.91003 5.40653 0
M  V30 14853 N 1390.71 2.44442 6.48244 0
M  V30 14854 N 1392.5 1.8193 5.31844 0
M  V30 14855 H 1384.65 1.55382 1.44811 0
M  V30 14856 H 1386.92 0.649375 0.690664 0
M  V30 14857 H 1386.62 1.94383 2.93101 0
M  V30 14858 H 1386.5 0.397569 3.75099 0
M  V30 14859 H 1388.88 -0.181089 2.94544 0
M  V30 14860 H 1388.96 1.39455 2.14443 0
M  V30 14861 H 1388.61 2.53509 4.40109 0
M  V30 14862 H 1388.54 0.935496 5.18224 0
M  V30 14863 H 1391.03 1.06466 3.62593 0
M  V30 14864 H 1391.34 2.77002 7.2145 0
M  V30 14865 H 1389.69 2.48467 6.49068 0
M  V30 14866 H 1392.88 1.3994 4.46693 0
M  V30 14867 H 1393.05 2.17685 6.10342 0
M  V30 14868 N 1386.46 -1.54343 0.318742 0
M  V30 14869 C 1387.7 -2.00777 -0.285699 0
M  V30 14870 C 1388.04 -1.20664 -1.52164 0
M  V30 14871 O 1387.31 -0.287674 -1.92361 0
M  V30 14872 C 1387.59 -3.54641 -0.624649 0
M  V30 14873 C 1387.45 -4.45483 0.621663 0
M  V30 14874 C 1388.77 -4.15729 -1.4442 0
M  V30 14875 H 1385.89 -0.729856 -0.102367 0
M  V30 14876 H 1388.53 -1.84968 0.434364 0
M  V30 14877 H 1386.68 -3.68243 -1.23811 0
M  V30 14878 H 1388.35 -4.43759 1.25998 0
M  V30 14879 H 1386.59 -4.15356 1.25148 0
M  V30 14880 H 1387.26 -5.50951 0.340106 0
M  V30 14881 H 1389.74 -4.05672 -0.925699 0
M  V30 14882 H 1388.62 -5.23509 -1.65013 0
M  V30 14883 H 1388.88 -3.68743 -2.43887 0
M  V30 14884 N 1387.94 -0.0468143 -1.5753 0
M  V30 14885 C 1388.87 0.927092 -2.14306 0
M  V30 14886 C 1389.85 1.32745 -1.06362 0
M  V30 14887 O 1391.03 1.40293 -1.34281 0
M  V30 14888 C 1388.16 2.20343 -2.68452 0
M  V30 14889 C 1387.12 1.94328 -3.81341 0
M  V30 14890 C 1386.44 3.28379 -4.21985 0
M  V30 14891 C 1387.74 1.26835 -5.06666 0
M  V30 14892 H 1389.44 0.454199 -2.95935 0
M  V30 14893 H 1386.98 0.217029 -1.42355 0
M  V30 14894 H 1388.93 2.8887 -3.0681 0
M  V30 14895 H 1387.66 2.6983 -1.84009 0
M  V30 14896 H 1386.32 1.28214 -3.43448 0
M  V30 14897 H 1385.97 3.75658 -3.34499 0
M  V30 14898 H 1385.67 3.11772 -4.98068 0
M  V30 14899 H 1387.19 3.98145 -4.6294 0
M  V30 14900 H 1388.6 1.85389 -5.42498 0
M  V30 14901 H 1387 1.20569 -5.87863 0
M  V30 14902 H 1388.07 0.243759 -4.84287 0
M  V30 14903 N 1389.41 1.55964 0.226527 0
M  V30 14904 C 1390.65 1.80518 0.958774 0
M  V30 14905 C 1391.02 0.619549 1.81729 0
M  V30 14906 O 1392.22 0.744294 2.5829 0
M  V30 14907 C 1390.49 3.09939 1.77968 0
M  V30 14908 S 1392.05 3.5579 2.56824 0
M  V30 14909 H 1388.87 0.633829 0.322151 0
M  V30 14910 H 1391.47 1.94203 0.224786 0
M  V30 14911 H 1390.17 3.94277 1.13903 0
M  V30 14912 H 1389.7 2.99047 2.55605 0
M  V30 14913 H 1391.72 3.18734 3.80293 0
M  V30 14914 N 1390.89 -0.493031 1.4969 0
M  V30 14915 C 1392.14 -1.24418 1.59263 0
M  V30 14916 C 1392.46 -1.92908 0.284882 0
M  V30 14917 O 1391.73 -1.83108 -0.696302 0
M  V30 14918 H 1390.31 -0.462223 0.586821 0
M  V30 14919 H 1392.97 -0.570713 1.86357 0
M  V30 14920 H 1392.07 -2.00386 2.39274 0
M  V30 14921 N 1392.37 -1.38898 -0.744656 0
M  V30 14922 C 1393.28 -1.39098 -1.88915 0
M  V30 14923 C 1394.3 -0.286956 -1.71617 0
M  V30 14924 O 1395.47 -0.526852 -1.94387 0
M  V30 14925 C 1392.54 -1.22352 -3.24393 0
M  V30 14926 C 1391.6 -2.4264 -3.54153 0
M  V30 14927 C 1390.83 -2.26683 -4.83167 0
M  V30 14928 O 1391.05 -1.26523 -5.56191 0
M  V30 14929 O 1389.99 -3.15464 -5.12607 0
M  V30 14930 H 1393.81 -2.35551 -1.91701 0
M  V30 14931 H 1391.4 -1.19911 -0.891158 0
M  V30 14932 H 1393.28 -1.15109 -4.05374 0
M  V30 14933 H 1391.96 -0.289886 -3.22399 0
M  V30 14934 H 1390.86 -2.55459 -2.73298 0
M  V30 14935 H 1392.2 -3.34664 -3.60917 0
M  V30 14936 N 1393.85 0.973806 -1.23914 0
M  V30 14937 C 1395.09 1.71927 -1.08685 0
M  V30 14938 C 1395.45 1.88781 0.371428 0
M  V30 14939 O 1394.74 1.43378 1.27095 0
M  V30 14940 C 1394.94 3.11441 -1.75326 0
M  V30 14941 C 1394.77 3.08196 -3.27483 0
M  V30 14942 C 1393.54 3.13018 -3.96671 0
M  V30 14943 C 1395.73 2.90848 -4.2416 0
M  V30 14944 N 1393.72 2.99727 -5.35758 0
M  V30 14945 C 1395.09 2.85789 -5.50204 0
M  V30 14946 C 1397.14 2.75382 -4.14812 0
M  V30 14947 C 1395.84 2.66847 -6.67971 0
M  V30 14948 C 1397.87 2.57806 -5.3225 0
M  V30 14949 C 1397.23 2.53451 -6.57223 0
M  V30 14950 H 1393.33 0.637935 -0.452286 0
M  V30 14951 H 1395.92 1.15502 -1.5674 0
M  V30 14952 H 1394.09 3.66071 -1.29794 0
M  V30 14953 H 1395.82 3.74659 -1.53012 0
M  V30 14954 H 1392.57 3.21458 -3.47795 0
M  V30 14955 H 1393 2.96339 -6.08697 0
M  V30 14956 H 1397.64 2.77535 -3.18958 0
M  V30 14957 H 1395.36 2.63438 -7.63954 0
M  V30 14958 H 1398.94 2.46793 -5.26863 0
M  V30 14959 H 1397.82 2.40023 -7.46565 0
M  V30 14960 N 1395.33 1.05191 1.17357 0
M  V30 14961 C 1396.58 0.757104 1.86951 0
M  V30 14962 C 1396.89 -0.718637 1.8192 0
M  V30 14963 O 1398.09 -1.12739 2.46986 0
M  V30 14964 C 1396.55 1.30409 3.35442 0
M  V30 14965 C 1396.16 2.80928 3.48975 0
M  V30 14966 C 1397.9 1.08633 4.10365 0
M  V30 14967 C 1395.81 3.28927 4.91488 0
M  V30 14968 H 1394.74 0.279525 0.700273 0
M  V30 14969 H 1397.39 1.2692 1.32528 0
M  V30 14970 H 1395.77 0.719812 3.89403 0
M  V30 14971 H 1396.95 3.45211 3.05231 0
M  V30 14972 H 1395.26 3.01245 2.87473 0
M  V30 14973 H 1397.86 1.41996 5.15501 0
M  V30 14974 H 1398.2 0.0240903 4.16293 0
M  V30 14975 H 1398.73 1.63581 3.6261 0
M  V30 14976 H 1395.47 4.34581 4.90734 0
M  V30 14977 H 1394.99 2.69386 5.35902 0
M  V30 14978 H 1396.67 3.23605 5.60258 0
M  V30 14979 N 1396.8 -1.33791 0.83293 0
M  V30 14980 C 1397.71 -2.33108 0.264169 0
M  V30 14981 C 1398.73 -1.6308 -0.606694 0
M  V30 14982 O 1399.91 -1.94777 -0.512225 0
M  V30 14983 C 1396.97 -3.42208 -0.556315 0
M  V30 14984 C 1396.03 -4.27966 0.338123 0
M  V30 14985 C 1395.27 -5.31856 -0.443297 0
M  V30 14986 O 1395.49 -5.45234 -1.6756 0
M  V30 14987 O 1394.42 -6.01632 0.179599 0
M  V30 14988 H 1398.25 -2.83602 1.08645 0
M  V30 14989 H 1395.83 -1.37027 0.595307 0
M  V30 14990 H 1397.72 -4.088 -1.02277 0
M  V30 14991 H 1396.39 -2.9394 -1.35575 0
M  V30 14992 H 1395.3 -3.64262 0.852293 0
M  V30 14993 H 1396.63 -4.79701 1.10217 0
M  V30 14994 N 1398.28 -0.588812 -1.46187 0
M  V30 14995 C 1399.51 -0.0825301 -2.06735 0
M  V30 14996 C 1399.93 1.22507 -1.43658 0
M  V30 14997 O 1399.28 1.74203 -0.544022 0
M  V30 14998 C 1399.33 0.083501 -3.61404 0
M  V30 14999 O 1399.05 -1.17235 -4.22123 0
M  V30 15000 C 1400.56 0.623425 -4.38894 0
M  V30 15001 H 1397.78 -0.0602413 -0.66829 0
M  V30 15002 H 1400.32 -0.811215 -1.87722 0
M  V30 15003 H 1398.47 0.762432 -3.79823 0
M  V30 15004 H 1398.89 -0.990047 -5.15071 0
M  V30 15005 H 1400.36 0.688755 -5.47686 0
M  V30 15006 H 1400.84 1.64172 -4.07362 0
M  V30 15007 H 1401.45 -0.0208373 -4.25295 0
M  V30 15008 N 1399.76 1.54172 -0.326923 0
M  V30 15009 C 1400.69 2.20703 0.580137 0
M  V30 15010 C 1401.67 1.18523 1.11315 0
M  V30 15011 O 1402.86 1.47276 1.17652 0
M  V30 15012 C 1399.98 2.87137 1.79638 0
M  V30 15013 C 1399.03 4.03064 1.39432 0
M  V30 15014 S 1399.86 5.33785 0.428179 0
M  V30 15015 C 1401.02 6.03715 1.65163 0
M  V30 15016 H 1401.25 2.97296 0.0149964 0
M  V30 15017 H 1398.78 1.54 -0.111004 0
M  V30 15018 H 1400.74 3.26035 2.49423 0
M  V30 15019 H 1399.4 2.1034 2.33272 0
M  V30 15020 H 1398.6 4.48424 2.3007 0
M  V30 15021 H 1398.2 3.65858 0.776144 0
M  V30 15022 H 1400.49 6.26098 2.58858 0
M  V30 15023 H 1401.43 6.97156 1.24014 0
M  V30 15024 H 1401.84 5.33666 1.84014 0
M  V30 15025 N 1401.24 0.0551678 1.57503 0
M  V30 15026 C 1402.48 -0.612713 1.93952 0
M  V30 15027 C 1402.84 -1.68215 0.933889 0
M  V30 15028 O 1402.13 -1.91544 -0.0463465 0
M  V30 15029 C 1402.33 -1.24895 3.34867 0
M  V30 15030 C 1402.16 -0.242666 4.49045 0
M  V30 15031 C 1400.93 0.16678 5.05025 0
M  V30 15032 C 1403.12 0.513505 5.1173 0
M  V30 15033 N 1401.11 1.16551 6.02735 0
M  V30 15034 C 1402.48 1.3652 6.04783 0
M  V30 15035 C 1404.53 0.571384 4.94611 0
M  V30 15036 C 1403.23 2.26959 6.82556 0
M  V30 15037 C 1405.26 1.46322 5.73013 0
M  V30 15038 C 1404.62 2.30262 6.65702 0
M  V30 15039 H 1400.72 -0.195733 0.757108 0
M  V30 15040 H 1403.31 0.128432 1.94276 0
M  V30 15041 H 1401.48 -1.9601 3.35313 0
M  V30 15042 H 1403.21 -1.87595 3.58595 0
M  V30 15043 H 1399.96 -0.212991 4.73121 0
M  V30 15044 H 1400.39 1.66188 6.56285 0
M  V30 15045 H 1405.03 -0.0633664 4.22753 0
M  V30 15046 H 1402.75 2.91477 7.53702 0
M  V30 15047 H 1406.33 1.51262 5.61793 0
M  V30 15048 H 1405.21 2.98153 7.2531 0
M  V30 15049 N 1402.72 -1.56081 -0.218252 0
M  V30 15050 C 1403.99 -1.70043 -0.966684 0
M  V30 15051 C 1404.37 -0.603372 -2.02293 0
M  V30 15052 O 1403.72 0.389138 -2.25162 0
M  V30 15053 C 1403.93 -3.11484 -1.57413 0
M  V30 15054 C 1405.28 -3.70995 -2.06513 0
M  V30 15055 O 1406.3 -3.14466 -1.67301 0
M  V30 15056 O 1405.16 -4.70156 -2.78596 0
M  V30 15057 H 1402.26 -0.692691 -0.451784 0
M  V30 15058 H 1404.8 -1.68398 -0.209774 0
M  V30 15059 H 1403.57 -3.8279 -0.811614 0
M  V30 15060 H 1403.2 -3.1726 -2.3965 0
M  V30 15061 N 1404.2 0.485086 -1.49949 0
M  V30 15062 C 1405.44 1.24816 -1.61865 0
M  V30 15063 C 1405.8 1.8955 -0.305741 0
M  V30 15064 O 1407 2.67118 -0.300216 0
M  V30 15065 C 1405.27 2.27464 -2.75672 0
M  V30 15066 S 1406.83 3.12898 -3.07637 0
M  V30 15067 H 1403.65 0.423964 -0.570767 0
M  V30 15068 H 1406.25 0.547552 -1.87676 0
M  V30 15069 H 1404.95 1.78464 -3.69566 0
M  V30 15070 H 1404.49 3.02172 -2.51904 0
M  V30 15071 H 1406.5 4.28395 -2.50384 0
M  V30 15072 N 1405.67 1.39291 0.737279 0
M  V30 15073 C 1406.61 1.32216 1.85995 0
M  V30 15074 C 1407.58 0.19623 1.61412 0
M  V30 15075 O 1408.77 0.376297 1.84706 0
M  V30 15076 C 1405.9 1.0525 3.21932 0
M  V30 15077 C 1404.94 2.20002 3.65378 0
M  V30 15078 S 1405.77 3.82265 3.75011 0
M  V30 15079 C 1406.93 3.57519 5.13742 0
M  V30 15080 H 1407.16 2.27231 1.91712 0
M  V30 15081 H 1404.7 1.25319 0.901911 0
M  V30 15082 H 1406.65 0.903753 4.00428 0
M  V30 15083 H 1405.32 0.119258 3.13874 0
M  V30 15084 H 1404.51 1.9672 4.64023 0
M  V30 15085 H 1404.11 2.31068 2.94081 0
M  V30 15086 H 1406.4 3.14643 6.00005 0
M  V30 15087 H 1407.35 4.55616 5.42051 0
M  V30 15088 H 1407.75 2.9167 4.8331 0
M  V30 15089 N 1407.15 -0.967221 1.24429 0
M  V30 15090 C 1408.06 -2.09582 1.05417 0
M  V30 15091 C 1409.08 -1.73999 -0.00516127 0
M  V30 15092 O 1410.25 -2.00472 0.193115 0
M  V30 15093 C 1407.32 -3.40327 0.661697 0
M  V30 15094 C 1406.38 -3.89854 1.79756 0
M  V30 15095 C 1405.61 -5.1436 1.42372 0
M  V30 15096 O 1405.84 -5.69536 0.313754 0
M  V30 15097 O 1404.77 -5.58283 2.24952 0
M  V30 15098 H 1408.6 -2.28517 2.00034 0
M  V30 15099 H 1406.18 -1.07978 1.03253 0
M  V30 15100 H 1408.06 -4.18943 0.454369 0
M  V30 15101 H 1406.74 -3.22691 -0.255348 0
M  V30 15102 H 1405.64 -3.12297 2.05964 0
M  V30 15103 H 1406.98 -4.11967 2.69339 0
M  V30 15104 N 1408.63 -1.05812 -1.16797 0
M  V30 15105 C 1409.88 -0.773066 -1.87487 0
M  V30 15106 C 1410.21 0.698471 -1.81204 0
M  V30 15107 O 1409.48 1.51129 -1.22434 0
M  V30 15108 C 1409.77 -1.2621 -3.37258 0
M  V30 15109 C 1409.62 -2.79704 -3.52258 0
M  V30 15110 C 1410.94 -0.866104 -4.31494 0
M  V30 15111 H 1408.06 -0.282304 -0.680789 0
M  V30 15112 H 1410.7 -1.3132 -1.37314 0
M  V30 15113 H 1408.85 -0.802608 -3.80119 0
M  V30 15114 H 1410.52 -3.33824 -3.1837 0
M  V30 15115 H 1408.76 -3.18673 -2.94329 0
M  V30 15116 H 1409.44 -3.08985 -4.57419 0
M  V30 15117 H 1411.91 -1.26178 -3.96508 0
M  V30 15118 H 1410.79 -1.23581 -5.34807 0
M  V30 15119 H 1411.05 0.229391 -4.41504 0
M  V30 15120 N 1410.11 1.33347 -0.840014 0
M  V30 15121 C 1411.07 2.27492 -0.279264 0
M  V30 15122 C 1412.07 1.51004 0.552669 0
M  V30 15123 O 1413.26 1.70305 0.366295 0
M  V30 15124 C 1410.39 3.35462 0.606466 0
M  V30 15125 H 1411.59 2.78601 -1.11001 0
M  V30 15126 H 1409.14 1.4377 -0.613187 0
M  V30 15127 H 1409.87 2.89596 1.45961 0
M  V30 15128 H 1409.66 3.92098 0.0111889 0
M  V30 15129 H 1411.15 4.05645 0.992052 0
M  V30 15130 N 1411.59 0.596556 1.45873 0
M  V30 15131 C 1412.83 0.0872856 2.01911 0
M  V30 15132 C 1413.15 -1.28257 1.46885 0
M  V30 15133 O 1412.42 -1.84489 0.658837 0
M  V30 15134 H 1411 0.0292769 0.746426 0
M  V30 15135 H 1413.67 0.775464 1.78809 0
M  V30 15136 H 1412.76 0.0287213 3.12087 0
M  V30 15137 N 1413.06 -1.53996 0.335095 0
M  V30 15138 C 1414 -2.22258 -0.559809 0
M  V30 15139 C 1415.01 -1.22636 -1.07071 0
M  V30 15140 O 1416.2 -1.4904 -0.982312 0
M  V30 15141 C 1413.3 -2.88256 -1.78218 0
M  V30 15142 C 1412.47 -4.14118 -1.40801 0
M  V30 15143 C 1411.53 -4.63603 -2.48915 0
M  V30 15144 O 1410.56 -5.28015 -2.12576 0
M  V30 15145 N 1411.76 -4.3881 -3.80034 0
M  V30 15146 H 1414.52 -2.9969 0.0247521 0
M  V30 15147 H 1412.08 -1.61119 0.158826 0
M  V30 15148 H 1414.08 -3.1828 -2.4996 0
M  V30 15149 H 1412.65 -2.14461 -2.27431 0
M  V30 15150 H 1411.87 -3.90732 -0.521729 0
M  V30 15151 H 1413.15 -4.96005 -1.13388 0
M  V30 15152 H 1412.55 -3.87278 -4.12349 0
M  V30 15153 H 1411.11 -4.73461 -4.47971 0
M  V30 15154 N 1414.54 -0.0635198 -1.57472 0
M  V30 15155 C 1415.77 0.616735 -1.97494 0
M  V30 15156 C 1416.18 1.63646 -0.941568 0
M  V30 15157 O 1415.54 1.82355 0.0727768 0
M  V30 15158 C 1415.59 1.29268 -3.37597 0
M  V30 15159 O 1415.31 0.313781 -4.36975 0
M  V30 15160 C 1416.81 2.06154 -3.92448 0
M  V30 15161 H 1414.03 0.167753 -0.649692 0
M  V30 15162 H 1416.58 -0.133475 -2.04064 0
M  V30 15163 H 1414.73 1.99404 -3.3214 0
M  V30 15164 H 1415.15 0.797723 -5.18398 0
M  V30 15165 H 1416.62 2.48853 -4.92723 0
M  V30 15166 H 1417.1 2.91474 -3.28541 0
M  V30 15167 H 1417.7 1.40903 -4.01281 0
M  V30 15168 N 1416.02 1.56195 0.209972 0
M  V30 15169 C 1416.95 1.88389 1.28781 0
M  V30 15170 C 1417.93 0.742429 1.44661 0
M  V30 15171 O 1419.11 0.991955 1.60289 0
M  V30 15172 C 1416.24 2.10107 2.65655 0
M  V30 15173 C 1415.29 3.32804 2.66728 0
M  V30 15174 S 1416.12 4.88384 2.1964 0
M  V30 15175 C 1417.28 5.13151 3.58367 0
M  V30 15176 H 1417.51 2.79517 1.01281 0
M  V30 15177 H 1415.04 1.4878 0.412768 0
M  V30 15178 H 1417 2.23302 3.44451 0
M  V30 15179 H 1415.66 1.19756 2.90374 0
M  V30 15180 H 1414.85 3.4508 3.67336 0
M  V30 15181 H 1414.46 3.18525 1.96004 0
M  V30 15182 H 1416.75 5.02759 4.54136 0
M  V30 15183 H 1417.69 6.14985 3.50998 0
M  V30 15184 H 1418.1 4.4084 3.52591 0
M  V30 15185 N 1417.5 -0.477127 1.50204 0
M  V30 15186 C 1418.74 -1.23956 1.62525 0
M  V30 15187 C 1419.1 -1.89385 0.315789 0
M  V30 15188 O 1420.3 -2.66955 0.314378 0
M  V30 15189 C 1418.57 -2.25999 2.76874 0
M  V30 15190 S 1420.13 -3.11262 3.09292 0
M  V30 15191 H 1416.95 -0.420931 0.573008 0
M  V30 15192 H 1419.55 -0.537592 1.87963 0
M  V30 15193 H 1418.26 -1.76501 3.70507 0
M  V30 15194 H 1417.79 -3.00832 2.53503 0
M  V30 15195 H 1419.8 -4.27061 2.52652 0
M  V30 15196 N 1418.98 -1.3968 -0.729882 0
M  V30 15197 C 1419.91 -1.41549 -1.85704 0
M  V30 15198 C 1420.89 -0.278186 -1.6781 0
M  V30 15199 O 1422.07 -0.484749 -1.88053 0
M  V30 15200 C 1419.2 -1.26327 -3.2351 0
M  V30 15201 C 1418.16 -2.37511 -3.56051 0
M  V30 15202 C 1417.48 -2.07375 -4.92849 0
M  V30 15203 C 1418.78 -3.79833 -3.58502 0
M  V30 15204 H 1420.48 -2.35877 -1.84398 0
M  V30 15205 H 1418.02 -1.13536 -0.885747 0
M  V30 15206 H 1419.98 -1.26254 -4.02042 0
M  V30 15207 H 1418.7 -0.284697 -3.25357 0
M  V30 15208 H 1417.36 -2.36809 -2.79852 0
M  V30 15209 H 1417.01 -1.07943 -4.91281 0
M  V30 15210 H 1416.71 -2.81855 -5.15588 0
M  V30 15211 H 1418.23 -2.08961 -5.73731 0
M  V30 15212 H 1419.64 -3.82436 -4.27101 0
M  V30 15213 H 1418.04 -4.53715 -3.92763 0
M  V30 15214 H 1419.11 -4.10443 -2.58195 0
M  V30 15215 N 1420.45 0.960609 -1.2494 0
M  V30 15216 C 1421.7 1.69884 -1.08731 0
M  V30 15217 C 1422.02 1.92018 0.372602 0
M  V30 15218 O 1423.22 2.6348 0.655018 0
M  V30 15219 C 1421.68 3.05815 -1.8975 0
M  V30 15220 C 1421.29 2.91498 -3.40196 0
M  V30 15221 C 1423.03 3.83462 -1.82092 0
M  V30 15222 C 1420.94 4.22783 -4.13532 0
M  V30 15223 H 1419.87 0.637087 -0.403281 0
M  V30 15224 H 1422.52 1.06987 -1.49084 0
M  V30 15225 H 1420.9 3.69582 -1.42216 0
M  V30 15226 H 1422.07 2.367 -3.9536 0
M  V30 15227 H 1420.39 2.27312 -3.48882 0
M  V30 15228 H 1422.99 4.8069 -2.34181 0
M  V30 15229 H 1423.33 4.08782 -0.787597 0
M  V30 15230 H 1423.86 3.26435 -2.27344 0
M  V30 15231 H 1420.6 4.02653 -5.17253 0
M  V30 15232 H 1420.12 4.77369 -3.63152 0
M  V30 15233 H 1421.8 4.91361 -4.2092 0
M  V30 15234 N 1421.93 1.0643 1.16234 0
M  V30 15235 C 1423.18 0.782998 1.87075 0
M  V30 15236 C 1423.51 -0.688852 1.81572 0
M  V30 15237 O 1422.79 -1.50478 1.23234 0
M  V30 15238 C 1423.07 1.27997 3.36584 0
M  V30 15239 C 1422.92 2.81568 3.5077 0
M  V30 15240 C 1424.24 0.888975 4.31028 0
M  V30 15241 H 1421.36 0.28591 0.679282 0
M  V30 15242 H 1424 1.32046 1.36615 0
M  V30 15243 H 1422.15 0.822756 3.79688 0
M  V30 15244 H 1423.82 3.35508 3.16595 0
M  V30 15245 H 1422.07 3.2023 2.92635 0
M  V30 15246 H 1422.74 3.11406 4.55774 0
M  V30 15247 H 1425.21 1.28279 3.95833 0
M  V30 15248 H 1424.09 1.26416 5.34144 0
M  V30 15249 H 1424.35 -0.205973 4.4162 0
M  V30 15250 N 1423.41 -1.329 0.847073 0
M  V30 15251 C 1424.66 -1.9751 0.446755 0
M  V30 15252 C 1424.99 -1.67069 -0.995905 0
M  V30 15253 O 1424.24 -0.947232 -1.71248 0
M  V30 15254 C 1424.54 -3.51913 0.623845 0
M  V30 15255 C 1424.21 -4.02324 2.03583 0
M  V30 15256 C 1422.87 -4.15802 2.42203 0
M  V30 15257 C 1425.22 -4.29147 2.95774 0
M  V30 15258 C 1422.55 -4.53441 3.72301 0
M  V30 15259 C 1424.9 -4.68242 4.25362 0
M  V30 15260 C 1423.56 -4.79925 4.63927 0
M  V30 15261 H 1422.83 -0.722742 0.163479 0
M  V30 15262 H 1425.48 -1.58435 1.07567 0
M  V30 15263 H 1423.79 -3.917 -0.0883447 0
M  V30 15264 H 1425.48 -3.99919 0.294268 0
M  V30 15265 H 1422.07 -3.92314 1.72591 0
M  V30 15266 H 1426.26 -4.1825 2.67171 0
M  V30 15267 H 1421.51 -4.60681 4.01974 0
M  V30 15268 H 1425.69 -4.87952 4.96866 0
M  V30 15269 H 1423.31 -5.08847 5.64782 0
M  V30 15270 N 1424.89 -0.604284 -1.45555 0
M  V30 15271 C 1425.82 0.165286 -2.27601 0
M  V30 15272 C 1426.8 0.876749 -1.36937 0
M  V30 15273 O 1427.98 0.886288 -1.66365 0
M  V30 15274 C 1425.11 1.23897 -3.15226 0
M  V30 15275 C 1424.16 0.631002 -4.21806 0
M  V30 15276 S 1424.99 -0.558612 -5.32578 0
M  V30 15277 C 1426.15 0.515745 -6.23772 0
M  V30 15278 H 1426.38 -0.53081 -2.92523 0
M  V30 15279 H 1423.91 -0.391717 -1.49348 0
M  V30 15280 H 1425.87 1.85358 -3.66268 0
M  V30 15281 H 1424.53 1.90712 -2.49575 0
M  V30 15282 H 1423.72 1.43876 -4.83028 0
M  V30 15283 H 1423.33 0.0915984 -3.73888 0
M  V30 15284 H 1425.62 1.39571 -6.62968 0
M  V30 15285 H 1426.56 -0.0602302 -7.08074 0
M  V30 15286 H 1426.97 0.829588 -5.58371 0
M  V30 15287 N 1426.37 1.53816 -0.343257 0
M  V30 15288 C 1427.3 2.27951 0.506005 0
M  V30 15289 C 1428.28 1.29502 1.10287 0
M  V30 15290 O 1429.46 1.58344 1.12432 0
M  V30 15291 C 1426.59 3.0521 1.65723 0
M  V30 15292 C 1425.55 4.11161 1.18871 0
M  V30 15293 C 1424.87 4.76373 2.42843 0
M  V30 15294 C 1426.17 5.21498 0.289403 0
M  V30 15295 H 1427.87 2.99189 -0.112435 0
M  V30 15296 H 1425.41 1.43893 -0.055516 0
M  V30 15297 H 1427.37 3.55811 2.2578 0
M  V30 15298 H 1426.09 2.31624 2.30256 0
M  V30 15299 H 1424.75 3.61473 0.610962 0
M  V30 15300 H 1424.4 3.99381 3.05784 0
M  V30 15301 H 1424.1 5.47955 2.12177 0
M  V30 15302 H 1425.62 5.29758 3.03627 0
M  V30 15303 H 1427.03 5.67736 0.796808 0
M  V30 15304 H 1425.43 6.00054 0.0746366 0
M  V30 15305 H 1426.5 4.80185 -0.674543 0
M  V30 15306 N 1427.84 0.0718701 1.57436 0
M  V30 15307 C 1429.09 -0.598116 1.93779 0
M  V30 15308 C 1429.42 -1.69258 0.952131 0
M  V30 15309 O 1428.7 -1.94491 -0.0186426 0
M  V30 15310 C 1428.98 -1.17499 3.40391 0
M  V30 15311 C 1428.83 -0.0871719 4.49716 0
M  V30 15312 C 1430.15 -2.08047 3.8782 0
M  V30 15313 H 1427.27 -0.215954 0.704651 0
M  V30 15314 H 1429.91 0.137854 1.89499 0
M  V30 15315 H 1428.06 -1.80221 3.44169 0
M  V30 15316 H 1429.74 0.545906 4.58058 0
M  V30 15317 H 1427.98 0.582213 4.29875 0
M  V30 15318 H 1428.65 -0.531202 5.49438 0
M  V30 15319 H 1431.13 -1.5526 3.86049 0
M  V30 15320 H 1430 -2.45345 4.91016 0
M  V30 15321 H 1430.26 -2.98879 3.25766 0
M  V30 15322 N 1429.32 -1.56304 -0.201686 0
M  V30 15323 C 1430.26 -1.8907 -1.27781 0
M  V30 15324 C 1431.23 -0.75009 -1.44265 0
M  V30 15325 O 1432.42 -1.00044 -1.59761 0
M  V30 15326 C 1429.54 -2.11513 -2.64537 0
M  V30 15327 C 1428.59 -3.34214 -2.64959 0
M  V30 15328 S 1429.42 -4.89541 -2.17047 0
M  V30 15329 C 1430.58 -5.15044 -3.55641 0
M  V30 15330 H 1430.81 -2.8005 -0.997971 0
M  V30 15331 H 1428.35 -1.48997 -0.404872 0
M  V30 15332 H 1430.3 -2.25126 -3.43262 0
M  V30 15333 H 1428.96 -1.21295 -2.89735 0
M  V30 15334 H 1428.16 -3.47023 -3.65501 0
M  V30 15335 H 1427.76 -3.1956 -1.94312 0
M  V30 15336 H 1430.05 -5.05161 -4.51463 0
M  V30 15337 H 1430.99 -6.16838 -3.47731 0
M  V30 15338 H 1431.4 -4.42704 -3.50248 0
M  V30 15339 N 1430.8 0.469154 -1.50455 0
M  V30 15340 C 1432.05 1.2229 -1.6178 0
M  V30 15341 C 1432.38 1.91577 -0.318073 0
M  V30 15342 O 1431.65 1.82205 0.68057 0
M  V30 15343 C 1431.94 2.26504 -2.79943 0
M  V30 15344 C 1431.79 1.61509 -4.19804 0
M  V30 15345 C 1433.11 3.27796 -2.93662 0
M  V30 15346 H 1430.23 0.443241 -0.588817 0
M  V30 15347 H 1432.87 0.516431 -1.82847 0
M  V30 15348 H 1431.02 2.86757 -2.62112 0
M  V30 15349 H 1432.69 1.04838 -4.49229 0
M  V30 15350 H 1430.94 0.918162 -4.23972 0
M  V30 15351 H 1431.61 2.37248 -4.98415 0
M  V30 15352 H 1434.08 2.77568 -3.09992 0
M  V30 15353 H 1432.96 3.98041 -3.77961 0
M  V30 15354 H 1433.22 3.92033 -2.04359 0
M  V30 15355 N 1432.28 1.40065 0.722464 0
M  V30 15356 C 1433.53 1.37277 1.47776 0
M  V30 15357 C 1433.84 -0.0242852 1.95585 0
M  V30 15358 O 1435.05 -0.174769 2.70937 0
M  V30 15359 C 1433.5 2.41233 2.67085 0
M  V30 15360 C 1433.11 3.86716 2.26174 0
M  V30 15361 C 1434.85 2.47541 3.44853 0
M  V30 15362 C 1432.76 4.82284 3.42281 0
M  V30 15363 H 1431.69 0.510405 0.55498 0
M  V30 15364 H 1434.34 1.6577 0.786928 0
M  V30 15365 H 1432.72 2.0583 3.38305 0
M  V30 15366 H 1433.9 4.31227 1.6242 0
M  V30 15367 H 1432.21 3.83819 1.61468 0
M  V30 15368 H 1434.81 3.16131 4.31237 0
M  V30 15369 H 1435.15 1.50379 3.8819 0
M  V30 15370 H 1435.69 2.81901 2.80672 0
M  V30 15371 H 1432.43 5.80754 3.03982 0
M  V30 15372 H 1431.95 4.42443 4.04975 0
M  V30 15373 H 1433.62 5.0178 4.08443 0
M  V30 15374 N 1433.76 -0.95397 1.25448 0
M  V30 15375 C 1435.01 -1.6953 1.10018 0
M  V30 15376 C 1435.33 -1.9166 -0.359385 0
M  V30 15377 O 1434.6 -1.50417 -1.25506 0
M  V30 15378 H 1433.18 -0.628238 0.404136 0
M  V30 15379 H 1435.84 -1.14691 1.57581 0
M  V30 15380 H 1434.93 -2.67427 1.60901 0
M  V30 15381 N 1435.24 -1.07045 -1.15668 0
M  V30 15382 C 1436.18 -0.68226 -2.22369 0
M  V30 15383 C 1437.18 0.305448 -1.66623 0
M  V30 15384 O 1438.38 0.169495 -1.792 0
M  V30 15385 H 1434.76 -0.202536 -0.724212 0
M  V30 15386 H 1436.73 -1.59187 -2.52393 0
M  V30 15387 C 1435.48 -0.0928131 -3.47576 0
M  V30 15388 H 1434.8 -0.843964 -3.90791 0
M  V30 15389 H 1436.24 0.14118 -4.23765 0
M  V30 15390 C 1434.7 1.16567 -3.16091 0
M  V30 15391 O 1435.23 2.25257 -3.32599 0
M  V30 15392 N 1433.44 1.07061 -2.7016 0
M  V30 15393 H 1432.98 0.186091 -2.56927 0
M  V30 15394 H 1432.94 1.91346 -2.49468 0
M  V30 15395 N 1436.71 1.32449 -0.85411 0
M  V30 15396 C 1437.64 2.31383 -0.313697 0
M  V30 15397 C 1438.62 1.59656 0.586858 0
M  V30 15398 O 1439.81 1.87459 0.507216 0
M  V30 15399 C 1436.94 3.43693 0.499235 0
M  V30 15400 C 1435.89 4.26899 -0.306839 0
M  V30 15401 C 1435.22 5.30966 0.630795 0
M  V30 15402 C 1436.52 4.99318 -1.53229 0
M  V30 15403 H 1438.21 2.76832 -1.14037 0
M  V30 15404 H 1435.76 1.33091 -0.549805 0
M  V30 15405 H 1437.71 4.11944 0.887709 0
M  V30 15406 H 1436.44 2.96971 1.35926 0
M  V30 15407 H 1435.1 3.60294 -0.677061 0
M  V30 15408 H 1434.74 4.80498 1.48765 0
M  V30 15409 H 1434.44 5.87522 0.0954635 0
M  V30 15410 H 1435.97 6.0208 1.01646 0
M  V30 15411 H 1437.38 5.60253 -1.21614 0
M  V30 15412 H 1435.78 5.65596 -2.00552 0
M  V30 15413 H 1436.85 4.27213 -2.29383 0
M  V30 15414 N 1438.19 0.611994 1.45232 0
M  V30 15415 C 1439.44 0.109073 2.02506 0
M  V30 15416 C 1439.77 -1.25876 1.47881 0
M  V30 15417 O 1439.05 -1.83131 0.65524 0
M  V30 15418 C 1439.33 0.0749288 3.60022 0
M  V30 15419 C 1439.18 1.47374 4.24972 0
M  V30 15420 C 1440.5 -0.610602 4.35844 0
M  V30 15421 H 1437.62 0.0411101 0.735853 0
M  V30 15422 H 1440.26 0.78481 1.73034 0
M  V30 15423 H 1438.41 -0.500511 3.85262 0
M  V30 15424 H 1440.08 2.0966 4.10902 0
M  V30 15425 H 1438.33 2.03319 3.83202 0
M  V30 15426 H 1439 1.40206 5.33897 0
M  V30 15427 H 1441.47 -0.121445 4.15923 0
M  V30 15428 H 1440.35 -0.603614 5.45571 0
M  V30 15429 H 1440.61 -1.6775 4.09038 0
M  V30 15430 N 1439.67 -1.53632 0.351409 0
M  V30 15431 C 1440.92 -2.01338 -0.243047 0
M  V30 15432 C 1441.25 -1.23864 -1.4957 0
M  V30 15433 O 1440.52 -0.328412 -1.91707 0
M  V30 15434 C 1440.81 -3.55886 -0.549284 0
M  V30 15435 C 1440.66 -4.44064 0.716016 0
M  V30 15436 C 1441.98 -4.18699 -1.35569 0
M  V30 15437 H 1439.1 -0.731863 -0.0868627 0
M  V30 15438 H 1441.74 -1.84005 0.473501 0
M  V30 15439 H 1439.89 -3.70787 -1.15972 0
M  V30 15440 H 1441.56 -4.40987 1.35383 0
M  V30 15441 H 1439.8 -4.12608 1.3393 0
M  V30 15442 H 1440.48 -5.50106 0.456895 0
M  V30 15443 H 1442.95 -4.07545 -0.839441 0
M  V30 15444 H 1441.83 -5.26892 -1.53871 0
M  V30 15445 H 1442.09 -3.73834 -2.3601 0
M  V30 15446 N 1441.15 -0.0802183 -1.57396 0
M  V30 15447 C 1442.08 0.881426 -2.16225 0
M  V30 15448 C 1443.06 1.30459 -1.09154 0
M  V30 15449 O 1444.24 1.37413 -1.37227 0
M  V30 15450 C 1441.37 2.14599 -2.73065 0
M  V30 15451 C 1440.33 1.86195 -3.85377 0
M  V30 15452 C 1439.65 3.19354 -4.28856 0
M  V30 15453 C 1440.95 1.16059 -5.09242 0
M  V30 15454 H 1442.65 0.391325 -2.96832 0
M  V30 15455 H 1440.19 0.186785 -1.42783 0
M  V30 15456 H 1442.15 2.82297 -3.12868 0
M  V30 15457 H 1440.87 2.65866 -1.89691 0
M  V30 15458 H 1439.53 1.209 -3.46091 0
M  V30 15459 H 1439.18 3.68479 -3.42392 0
M  V30 15460 H 1438.88 3.01137 -5.04569 0
M  V30 15461 H 1440.4 3.88235 -4.71281 0
M  V30 15462 H 1441.82 1.7384 -5.46308 0
M  V30 15463 H 1440.21 1.08072 -5.90288 0
M  V30 15464 H 1441.28 0.14098 -4.84695 0
M  V30 15465 N 1442.63 1.56409 0.193394 0
M  V30 15466 C 1443.57 1.95572 1.25914 0
M  V30 15467 C 1444.57 0.841384 1.47028 0
M  V30 15468 O 1445.77 1.0264 1.47868 0
M  V30 15469 H 1442.15 0.621914 0.422761 0
M  V30 15470 H 1444.12 2.84446 0.901827 0
M  V30 15471 C 1442.87 2.31293 2.59613 0
M  V30 15472 H 1442.19 3.16568 2.44182 0
M  V30 15473 H 1443.63 2.62558 3.32926 0
M  V30 15474 C 1442.09 1.14818 3.16731 0
M  V30 15475 O 1442.62 0.424105 3.99455 0
M  V30 15476 N 1440.83 0.924536 2.75501 0
M  V30 15477 H 1440.37 1.51509 2.08334 0
M  V30 15478 H 1440.33 0.147006 3.14056 0
M  V30 15479 N 1444.1 -0.461169 1.50702 0
M  V30 15480 C 1445.03 -1.56576 1.73223 0
M  V30 15481 C 1446.01 -1.59855 0.581401 0
M  V30 15482 O 1447.2 -1.75964 0.821602 0
M  V30 15483 C 1444.33 -2.94835 1.83548 0
M  V30 15484 C 1443.28 -3.06421 2.98815 0
M  V30 15485 C 1442.61 -4.46425 2.94293 0
M  V30 15486 C 1443.91 -2.82714 4.3917 0
M  V30 15487 H 1445.6 -1.37982 2.65709 0
M  V30 15488 H 1443.15 -0.662362 1.27862 0
M  V30 15489 H 1445.1 -3.72047 1.97887 0
M  V30 15490 H 1443.83 -3.14608 0.876906 0
M  V30 15491 H 1442.49 -2.31644 2.84142 0
M  V30 15492 H 1442.13 -4.63131 1.96262 0
M  V30 15493 H 1441.83 -4.55111 3.71682 0
M  V30 15494 H 1443.36 -5.25644 3.10695 0
M  V30 15495 H 1444.77 -3.4967 4.54317 0
M  V30 15496 H 1443.17 -3.02835 5.18084 0
M  V30 15497 H 1444.24 -1.78492 4.50853 0
M  V30 15498 N 1445.58 -1.40446 -0.715026 0
M  V30 15499 C 1446.83 -1.38754 -1.47491 0
M  V30 15500 C 1447.16 0.0099443 -1.94497 0
M  V30 15501 O 1446.41 0.99458 -1.68543 0
M  V30 15502 C 1446.71 -2.32392 -2.7153 0
M  V30 15503 C 1446.38 -3.79635 -2.43286 0
M  V30 15504 C 1445.04 -4.19751 -2.35293 0
M  V30 15505 C 1447.39 -4.72681 -2.19596 0
M  V30 15506 C 1444.72 -5.50947 -2.01679 0
M  V30 15507 C 1447.07 -6.04176 -1.87495 0
M  V30 15508 C 1445.73 -6.43333 -1.77985 0
M  V30 15509 H 1445 -0.507738 -0.539706 0
M  V30 15510 H 1447.65 -1.73104 -0.81898 0
M  V30 15511 H 1445.96 -1.91229 -3.41963 0
M  V30 15512 H 1447.65 -2.28366 -3.29621 0
M  V30 15513 H 1444.24 -3.47852 -2.50393 0
M  V30 15514 H 1448.43 -4.42506 -2.24727 0
M  V30 15515 H 1443.68 -5.80187 -1.92854 0
M  V30 15516 H 1447.86 -6.75788 -1.68179 0
M  V30 15517 H 1445.48 -7.44909 -1.51706 0
M  V30 15518 N 1447.06 0.947303 -1.25952 0
M  V30 15519 C 1447.99 2.0625 -1.09467 0
M  V30 15520 C 1448.97 1.701 -0.00160498 0
M  V30 15521 O 1450.16 1.93432 -0.172501 0
M  V30 15522 C 1447.29 3.39746 -0.720392 0
M  V30 15523 C 1446.24 3.89935 -1.76451 0
M  V30 15524 C 1445.57 5.2001 -1.24472 0
M  V30 15525 C 1446.87 4.15496 -3.16481 0
M  V30 15526 H 1448.56 2.203 -2.02752 0
M  V30 15527 H 1446.11 1.05858 -0.97622 0
M  V30 15528 H 1448.06 4.17221 -0.591972 0
M  V30 15529 H 1446.78 3.25656 0.248161 0
M  V30 15530 H 1445.44 3.14635 -1.8815 0
M  V30 15531 H 1445.09 5.02295 -0.266182 0
M  V30 15532 H 1444.79 5.54559 -1.94263 0
M  V30 15533 H 1446.31 6.00075 -1.12884 0
M  V30 15534 H 1447.73 4.83605 -3.07894 0
M  V30 15535 H 1446.12 4.61315 -3.83808 0
M  V30 15536 H 1447.19 3.21501 -3.62995 0
M  V30 15537 N 1448.54 1.07657 1.15099 0
M  V30 15538 C 1449.5 0.703558 2.18135 0
M  V30 15539 C 1450.5 -0.257771 1.5872 0
M  V30 15540 O 1451.69 -0.0383211 1.74158 0
M  V30 15541 C 1448.82 0.0374978 3.40879 0
M  V30 15542 H 1450.02 1.61583 2.52648 0
M  V30 15543 H 1447.57 0.873484 1.29615 0
M  V30 15544 H 1448.3 -0.886868 3.11938 0
M  V30 15545 H 1448.09 0.728961 3.85264 0
M  V30 15546 H 1449.58 -0.208714 4.17078 0
M  V30 15547 N 1450.02 -1.31994 0.861122 0
M  V30 15548 C 1450.95 -2.31214 0.325963 0
M  V30 15549 C 1451.93 -1.59965 -0.578383 0
M  V30 15550 O 1453.11 -1.87726 -0.497268 0
M  V30 15551 C 1450.24 -3.43953 -0.481001 0
M  V30 15552 C 1449.2 -4.2673 0.329474 0
M  V30 15553 C 1448.52 -5.31293 -0.602627 0
M  V30 15554 C 1449.82 -4.98498 1.55874 0
M  V30 15555 H 1451.52 -2.76223 1.15503 0
M  V30 15556 H 1449.06 -1.32797 0.556856 0
M  V30 15557 H 1451.02 -4.12409 -0.86585 0
M  V30 15558 H 1449.74 -2.97687 -1.3435 0
M  V30 15559 H 1448.4 -3.59929 0.696159 0
M  V30 15560 H 1448.05 -4.8128 -1.46215 0
M  V30 15561 H 1447.75 -5.87565 -0.0643044 0
M  V30 15562 H 1449.27 -6.02611 -0.984512 0
M  V30 15563 H 1450.68 -5.596 1.24583 0
M  V30 15564 H 1449.08 -5.64525 2.03548 0
M  V30 15565 H 1450.15 -4.25991 2.31646 0
M  V30 15566 N 1451.49 -0.619688 -1.44906 0
M  V30 15567 C 1452.42 0.0791121 -2.33366 0
M  V30 15568 C 1453.41 0.846503 -1.47541 0
M  V30 15569 O 1454.59 0.814657 -1.76287 0
M  V30 15570 C 1451.72 1.06901 -3.30438 0
M  V30 15571 C 1450.67 0.41403 -4.25993 0
M  V30 15572 C 1450 1.51303 -5.12846 0
M  V30 15573 C 1451.3 -0.672483 -5.17953 0
M  V30 15574 H 1452.99 -0.659551 -2.92045 0
M  V30 15575 H 1450.54 -0.318623 -1.40431 0
M  V30 15576 H 1452.49 1.56653 -3.912 0
M  V30 15577 H 1451.22 1.83842 -2.69944 0
M  V30 15578 H 1449.88 -0.0627315 -3.66546 0
M  V30 15579 H 1449.52 2.27303 -4.48712 0
M  V30 15580 H 1449.22 1.08022 -5.77586 0
M  V30 15581 H 1450.75 2.01258 -5.76479 0
M  V30 15582 H 1452.16 -0.258542 -5.72717 0
M  V30 15583 H 1450.56 -1.02776 -5.91234 0
M  V30 15584 H 1451.63 -1.54425 -4.59653 0
M  V30 15585 N 1452.97 1.53444 -0.359552 0
M  V30 15586 C 1453.9 2.28475 0.4818 0
M  V30 15587 C 1454.88 1.30664 1.08908 0
M  V30 15588 O 1456.07 1.59527 1.10746 0
M  V30 15589 C 1453.2 3.06951 1.62477 0
M  V30 15590 C 1452.15 4.12399 1.14504 0
M  V30 15591 C 1451.48 4.78922 2.37777 0
M  V30 15592 C 1452.78 5.21775 0.234075 0
M  V30 15593 H 1454.47 2.99053 -0.144162 0
M  V30 15594 H 1452.02 1.43826 -0.0707746 0
M  V30 15595 H 1453.97 3.58186 2.21993 0
M  V30 15596 H 1452.7 2.34053 2.27787 0
M  V30 15597 H 1451.35 3.62101 0.572589 0
M  V30 15598 H 1451 4.02602 3.0153 0
M  V30 15599 H 1450.7 5.50175 2.06353 0
M  V30 15600 H 1452.23 5.32948 2.97991 0
M  V30 15601 H 1453.64 5.68549 0.736548 0
M  V30 15602 H 1452.04 6.00099 0.0109887 0
M  V30 15603 H 1453.11 4.79443 -0.725435 0
M  V30 15604 N 1454.45 0.0885642 1.57351 0
M  V30 15605 C 1455.68 -0.588641 1.98871 0
M  V30 15606 C 1456.1 -1.61333 0.967125 0
M  V30 15607 O 1455.46 -1.81183 -0.0652149 0
M  V30 15608 C 1455.51 -1.21877 3.39379 0
M  V30 15609 O 1454.61 -2.33462 3.39955 0
M  V30 15610 H 1453.95 -0.149938 0.64685 0
M  V30 15611 H 1456.48 0.168043 2.03909 0
M  V30 15612 H 1456.49 -1.56163 3.76931 0
M  V30 15613 H 1455.17 -0.468037 4.13258 0
M  V30 15614 H 1453.74 -2.00844 3.14191 0
M  V30 15615 N 1455.93 -1.56509 -0.185096 0
M  V30 15616 C 1457.15 -1.85683 -0.923941 0
M  V30 15617 C 1457.58 -0.673315 -1.75636 0
M  V30 15618 O 1456.94 0.3778 -1.7732 0
M  V30 15619 C 1456.98 -3.13165 -1.78774 0
M  V30 15620 O 1456.09 -2.9442 -2.88775 0
M  V30 15621 H 1455.43 -0.611139 -0.259624 0
M  V30 15622 H 1457.96 -2.0374 -0.187393 0
M  V30 15623 H 1457.97 -3.44216 -2.19042 0
M  V30 15624 H 1456.64 -3.98922 -1.17619 0
M  V30 15625 H 1455.22 -2.7469 -2.5219 0
M  V30 15626 N 1457.41 0.45317 -1.50944 0
M  V30 15627 C 1458.65 1.20389 -1.62827 0
M  V30 15628 C 1458.98 1.91559 -0.336982 0
M  V30 15629 O 1458.24 1.83574 0.678153 0
M  V30 15630 C 1458.54 2.25747 -2.7708 0
M  V30 15631 C 1458.2 1.71703 -4.16928 0
M  V30 15632 C 1456.86 1.56686 -4.54976 0
M  V30 15633 C 1459.22 1.31804 -5.04259 0
M  V30 15634 C 1456.54 1.0022 -5.78077 0
M  V30 15635 C 1458.9 0.767738 -6.27924 0
M  V30 15636 C 1457.56 0.604341 -6.64759 0
M  V30 15637 H 1456.83 0.440536 -0.595827 0
M  V30 15638 H 1459.48 0.497234 -1.84932 0
M  V30 15639 H 1457.78 3.0239 -2.49134 0
M  V30 15640 H 1459.48 2.83625 -2.83475 0
M  V30 15641 H 1456.07 1.84364 -3.86921 0
M  V30 15642 H 1460.25 1.42233 -4.75482 0
M  V30 15643 H 1455.51 0.863228 -6.05275 0
M  V30 15644 H 1459.68 0.449994 -6.94945 0
M  V30 15645 H 1457.31 0.164663 -7.60022 0
M  V30 15646 N 1458.88 1.40823 0.707568 0
M  V30 15647 C 1460.11 1.43061 1.50161 0
M  V30 15648 C 1460.53 0.0342144 1.88069 0
M  V30 15649 O 1459.89 -0.959674 1.53818 0
M  V30 15650 C 1459.94 2.33459 2.74826 0
M  V30 15651 O 1459.04 1.78336 3.71847 0
M  V30 15652 H 1458.39 0.48602 0.452417 0
M  V30 15653 H 1460.92 1.85147 0.870742 0
M  V30 15654 H 1460.93 2.48922 3.23267 0
M  V30 15655 H 1459.6 3.34927 2.46571 0
M  V30 15656 H 1458.18 1.7226 3.30728 0
M  V30 15657 N 1460.36 -0.94061 1.26453 0
M  V30 15658 C 1461.59 -1.72654 1.14914 0
M  V30 15659 C 1462.01 -1.85823 -0.291789 0
M  V30 15660 O 1461.37 -1.34888 -1.2114 0
M  V30 15661 C 1461.42 -3.11083 1.82372 0
M  V30 15662 O 1460.52 -3.971 1.1129 0
M  V30 15663 H 1459.86 -0.529704 0.400387 0
M  V30 15664 H 1462.39 -1.17803 1.67283 0
M  V30 15665 H 1462.4 -3.6147 1.89219 0
M  V30 15666 H 1461.08 -3.00815 2.87199 0
M  V30 15667 H 1459.66 -3.5555 1.12423 0
M  V30 15668 N 1461.84 -1.08266 -1.14527 0
M  V30 15669 C 1463.12 -0.724254 -1.81697 0
M  V30 15670 C 1463.5 0.792212 -1.95671 0
M  V30 15671 O 1462.85 1.71017 -1.51543 0
M  V30 15672 C 1463.06 -1.44949 -3.17475 0
M  V30 15673 C 1464.4 -1.60761 -3.9299 0
M  V30 15674 O 1465.43 -1.41103 -3.2706 0
M  V30 15675 O 1464.29 -1.93184 -5.11216 0
M  V30 15676 H 1461.38 -0.258814 -0.785458 0
M  V30 15677 H 1463.93 -1.18414 -1.21557 0
M  V30 15678 H 1462.7 -2.48262 -3.02459 0
M  V30 15679 H 1462.32 -0.980993 -3.85308 0
M  V30 15680 N 1463.32 1.31536 -0.86811 0
M  V30 15681 C 1464.27 2.30504 -0.311581 0
M  V30 15682 C 1465.26 1.59439 0.572332 0
M  V30 15683 O 1466.47 1.74059 0.458639 0
M  V30 15684 H 1462.84 0.747508 -0.0820745 0
M  V30 15685 H 1464.81 2.74919 -1.16026 0
M  V30 15686 C 1463.56 3.44459 0.473622 0
M  V30 15687 H 1462.89 3.99313 -0.197259 0
M  V30 15688 H 1464.33 4.15829 0.828393 0
M  V30 15689 C 1462.78 2.92929 1.66416 0
M  V30 15690 O 1463.31 2.91543 2.76344 0
M  V30 15691 N 1461.52 2.49154 1.49568 0
M  V30 15692 H 1461.07 2.50481 0.601408 0
M  V30 15693 H 1461.03 2.15032 2.29366 0
M  V30 15694 N 1464.8 0.627364 1.44575 0
M  V30 15695 C 1465.73 -0.066735 2.33405 0
M  V30 15696 C 1466.71 -0.838666 1.47988 0
M  V30 15697 O 1467.89 -0.805296 1.76716 0
M  V30 15698 C 1465.02 -1.05148 3.31 0
M  V30 15699 C 1463.98 -0.391433 4.26206 0
M  V30 15700 C 1463.3 -1.48581 5.13642 0
M  V30 15701 C 1464.6 0.699942 5.17589 0
M  V30 15702 H 1466.3 0.675029 2.91691 0
M  V30 15703 H 1463.84 0.326066 1.4026 0
M  V30 15704 H 1465.8 -1.54576 3.92026 0
M  V30 15705 H 1464.52 -1.82408 2.70915 0
M  V30 15706 H 1463.18 0.0821694 3.66508 0
M  V30 15707 H 1462.83 -2.2492 4.49911 0
M  V30 15708 H 1462.53 -1.04957 5.7815 0
M  V30 15709 H 1464.05 -1.98198 5.77538 0
M  V30 15710 H 1465.47 0.288911 5.72572 0
M  V30 15711 H 1463.86 1.0591 5.9068 0
M  V30 15712 H 1464.93 1.5686 4.58828 0
M  V30 15713 N 1466.28 -1.53251 0.367684 0
M  V30 15714 C 1467.24 -2.24423 -0.465516 0
M  V30 15715 C 1468.24 -1.25283 -1.00801 0
M  V30 15716 O 1469.43 -1.49545 -0.893424 0
M  V30 15717 C 1466.56 -2.9826 -1.65087 0
M  V30 15718 H 1467.75 -2.99487 0.157292 0
M  V30 15719 H 1465.31 -1.55843 0.119409 0
M  V30 15720 H 1466.04 -2.27443 -2.31171 0
M  V30 15721 H 1465.83 -3.71003 -1.26882 0
M  V30 15722 H 1467.32 -3.52358 -2.24128 0
M  V30 15723 N 1467.75 -0.0969077 -1.57302 0
M  V30 15724 C 1468.72 0.846895 -2.1298 0
M  V30 15725 C 1469.72 1.20962 -1.05947 0
M  V30 15726 O 1470.91 1.13876 -1.31826 0
M  V30 15727 C 1468.04 2.14215 -2.65188 0
M  V30 15728 H 1469.23 0.363398 -2.9769 0
M  V30 15729 H 1466.78 0.152107 -1.55558 0
M  V30 15730 H 1467.52 2.67046 -1.84002 0
M  V30 15731 H 1467.3 1.89176 -3.43445 0
M  V30 15732 H 1468.79 2.81728 -3.08252 0
M  V30 15733 N 1469.23 1.56605 0.176793 0
M  V30 15734 C 1470.46 1.85812 0.910019 0
M  V30 15735 C 1470.87 0.68164 1.76066 0
M  V30 15736 O 1470.23 -0.34936 1.79125 0
M  V30 15737 C 1470.28 3.14001 1.79125 0
M  V30 15738 O 1470 4.27114 0.974931 0
M  V30 15739 C 1471.5 3.56516 2.6346 0
M  V30 15740 H 1468.72 0.616608 0.264643 0
M  V30 15741 H 1471.27 2.03719 0.178537 0
M  V30 15742 H 1469.42 2.97937 2.47613 0
M  V30 15743 H 1469.84 5.00227 1.57711 0
M  V30 15744 H 1471.31 4.49128 3.20918 0
M  V30 15745 H 1471.79 2.80373 3.38065 0
M  V30 15746 H 1472.39 3.75173 2.00313 0
M  V30 15747 N 1470.71 -0.445159 1.51182 0
M  V30 15748 C 1471.99 -1.20598 1.53998 0
M  V30 15749 C 1472.37 -2.08962 0.29967 0
M  V30 15750 O 1471.71 -2.17003 -0.715666 0
M  V30 15751 C 1471.92 -2.01461 2.84982 0
M  V30 15752 C 1473.27 -2.5877 3.36635 0
M  V30 15753 O 1474.3 -2.11679 2.86479 0
M  V30 15754 O 1473.16 -3.44637 4.24132 0
M  V30 15755 H 1470.25 -0.548635 0.618812 0
M  V30 15756 H 1472.8 -0.454865 1.6349 0
M  V30 15757 H 1471.57 -1.36511 3.66716 0
M  V30 15758 H 1471.19 -2.83654 2.78615 0
M  V30 15759 N 1472.19 -1.41197 -0.700089 0
M  V30 15760 C 1473.46 -1.30803 -1.4543 0
M  V30 15761 C 1473.84 0.0664987 -2.10995 0
M  V30 15762 O 1473.19 1.08043 -2.01343 0
M  V30 15763 C 1473.4 -2.45815 -2.47742 0
M  V30 15764 C 1474.75 -2.86771 -3.13126 0
M  V30 15765 O 1475.77 -2.45521 -2.58065 0
M  V30 15766 O 1474.63 -3.58086 -4.1284 0
M  V30 15767 H 1471.73 -0.514523 -0.647453 0
M  V30 15768 H 1474.27 -1.53151 -0.73095 0
M  V30 15769 H 1473.05 -3.37557 -1.97917 0
M  V30 15770 H 1472.67 -2.25319 -3.27593 0
M  V30 15771 N 1473.67 0.933891 -1.2695 0
M  V30 15772 C 1474.94 1.65874 -1.0366 0
M  V30 15773 C 1475.32 2.0666 0.43066 0
M  V30 15774 O 1474.67 1.79606 1.41259 0
M  V30 15775 C 1474.88 2.86546 -1.99229 0
M  V30 15776 C 1476.23 3.58031 -2.28251 0
M  V30 15777 O 1477.25 2.96663 -1.97154 0
M  V30 15778 O 1476.11 4.68583 -2.81233 0
M  V30 15779 H 1473.21 0.72673 -0.394706 0
M  V30 15780 H 1475.75 0.984975 -1.38189 0
M  V30 15781 H 1474.52 2.53351 -2.9821 0
M  V30 15782 H 1474.15 3.61645 -1.65224 0
M  V30 15783 N 1475.14 1.08871 1.13951 0
M  V30 15784 C 1476.09 0.71755 2.21255 0
M  V30 15785 C 1477.09 -0.278901 1.67088 0
M  V30 15786 O 1478.29 -0.140964 1.79447 0
M  V30 15787 H 1474.67 0.214032 0.720898 0
M  V30 15788 H 1476.64 1.63182 2.49828 0
M  V30 15789 C 1475.39 0.148098 3.47384 0
M  V30 15790 H 1474.71 0.906028 3.89398 0
M  V30 15791 H 1476.15 -0.0737451 4.23936 0
M  V30 15792 C 1474.61 -1.11524 3.17906 0
M  V30 15793 O 1475.14 -2.19937 3.3614 0
M  V30 15794 N 1473.34 -1.0275 2.71829 0
M  V30 15795 H 1472.89 -0.145193 2.5719 0
M  V30 15796 H 1472.85 -1.87353 2.5248 0
M  V30 15797 N 1476.62 -1.31073 0.875073 0
M  V30 15798 C 1477.53 -2.3215 0.338196 0
M  V30 15799 C 1478.55 -1.64928 -0.554504 0
M  V30 15800 O 1479.72 -1.96308 -0.449998 0
M  V30 15801 C 1476.79 -3.43804 -0.447163 0
M  V30 15802 C 1475.85 -4.26674 0.474106 0
M  V30 15803 C 1475.08 -5.32997 -0.273867 0
M  V30 15804 O 1475.31 -5.50288 -1.50129 0
M  V30 15805 O 1474.24 -6.00756 0.370913 0
M  V30 15806 H 1478.07 -2.80002 1.17612 0
M  V30 15807 H 1475.65 -1.35064 0.6386 0
M  V30 15808 H 1477.53 -4.11847 -0.892199 0
M  V30 15809 H 1476.21 -2.98105 -1.26155 0
M  V30 15810 H 1475.11 -3.61366 0.967748 0
M  V30 15811 H 1476.45 -4.75952 1.25423 0
M  V30 15812 N 1478.1 -0.635022 -1.4424 0
M  V30 15813 C 1479.03 0.116972 -2.279 0
M  V30 15814 C 1480.01 0.847505 -1.38766 0
M  V30 15815 O 1481.2 0.8508 -1.68207 0
M  V30 15816 C 1478.32 1.17183 -3.17783 0
M  V30 15817 C 1477.37 0.541389 -4.2305 0
M  V30 15818 S 1478.2 -0.671454 -5.31274 0
M  V30 15819 C 1479.36 0.383317 -6.24725 0
M  V30 15820 H 1479.59 -0.592739 -2.91331 0
M  V30 15821 H 1477.12 -0.423307 -1.48484 0
M  V30 15822 H 1479.08 1.77548 -3.70118 0
M  V30 15823 H 1477.74 1.85375 -2.53564 0
M  V30 15824 H 1476.94 1.33597 -4.85971 0
M  V30 15825 H 1476.54 0.0122707 -3.73998 0
M  V30 15826 H 1478.83 1.25477 -6.65779 0
M  V30 15827 H 1479.77 -0.21041 -7.07787 0
M  V30 15828 H 1480.18 0.710963 -5.60005 0
M  V30 15829 N 1479.58 1.53054 -0.375806 0
M  V30 15830 C 1480.53 2.27576 0.480838 0
M  V30 15831 C 1481.52 1.30948 1.07466 0
M  V30 15832 O 1482.73 1.48538 1.01669 0
M  V30 15833 H 1479.1 0.731641 0.173799 0
M  V30 15834 H 1481.07 2.97919 -0.169327 0
M  V30 15835 C 1479.82 3.08533 1.60321 0
M  V30 15836 H 1479.14 3.82735 1.15558 0
M  V30 15837 H 1480.58 3.63837 2.17712 0
M  V30 15838 C 1479.04 2.20004 2.55147 0
M  V30 15839 O 1479.57 1.81771 3.58221 0
M  V30 15840 N 1477.78 1.84433 2.24573 0
M  V30 15841 H 1477.33 2.15723 1.40788 0
M  V30 15842 H 1477.28 1.25488 2.88271 0
M  V30 15843 N 1481.06 0.105248 1.57248 0
M  V30 15844 C 1482 -0.867443 2.1582 0
M  V30 15845 C 1483 -1.28508 1.10373 0
M  V30 15846 O 1484.2 -1.25842 1.287 0
M  V30 15847 H 1480.58 -0.2978 0.690521 0
M  V30 15848 H 1482.55 -0.348831 2.96354 0
M  V30 15849 C 1481.3 -2.11299 2.7613 0
M  V30 15850 H 1480.62 -1.80054 3.5696 0
M  V30 15851 H 1482.06 -2.77395 3.20668 0
M  V30 15852 C 1480.52 -2.89372 1.72527 0
M  V30 15853 O 1481.05 -3.84274 1.17032 0
M  V30 15854 N 1479.26 -2.53103 1.42784 0
M  V30 15855 H 1478.8 -1.75998 1.88102 0
M  V30 15856 H 1478.76 -3.05639 0.737035 0
M  V30 15857 N 1482.53 -1.56697 -0.168486 0
M  V30 15858 C 1483.46 -1.99659 -1.21073 0
M  V30 15859 C 1484.45 -0.872625 -1.46011 0
M  V30 15860 O 1485.63 -1.13891 -1.57297 0
M  V30 15861 C 1482.76 -2.35889 -2.54899 0
M  V30 15862 C 1481.71 -3.51272 -2.44524 0
M  V30 15863 C 1481.04 -3.73253 -3.82866 0
M  V30 15864 C 1482.34 -4.84631 -1.94756 0
M  V30 15865 H 1484.03 -2.86974 -0.853593 0
M  V30 15866 H 1481.58 -1.38065 -0.409165 0
M  V30 15867 H 1483.53 -2.64542 -3.28017 0
M  V30 15868 H 1482.26 -1.45486 -2.92406 0
M  V30 15869 H 1480.92 -3.22751 -1.7386 0
M  V30 15870 H 1480.56 -2.80136 -4.17772 0
M  V30 15871 H 1480.26 -4.5089 -3.76792 0
M  V30 15872 H 1481.79 -4.04309 -4.57566 0
M  V30 15873 H 1483.2 -5.12142 -2.5765 0
M  V30 15874 H 1481.6 -5.65925 -1.99623 0
M  V30 15875 H 1482.67 -4.76436 -0.902021 0
M  V30 15876 N 1484.01 0.437135 -1.51416 0
M  V30 15877 C 1484.94 1.54894 -1.68939 0
M  V30 15878 C 1485.96 1.52493 -0.570059 0
M  V30 15879 O 1487.15 1.57266 -0.844381 0
M  V30 15880 C 1484.25 2.9381 -1.68904 0
M  V30 15881 C 1483.42 3.20714 -2.97425 0
M  V30 15882 C 1482.48 4.39355 -2.89575 0
M  V30 15883 O 1481.5 4.37999 -3.63519 0
M  V30 15884 N 1482.71 5.42931 -2.05441 0
M  V30 15885 H 1485.47 1.40267 -2.64849 0
M  V30 15886 H 1483.03 0.626075 -1.49305 0
M  V30 15887 H 1485.02 3.71201 -1.61221 0
M  V30 15888 H 1483.59 3.02034 -0.805871 0
M  V30 15889 H 1482.81 2.31621 -3.18975 0
M  V30 15890 H 1484.1 3.35516 -3.825 0
M  V30 15891 H 1483.5 5.4687 -1.44742 0
M  V30 15892 H 1482.06 6.19173 -2.03636 0
M  V30 15893 N 1485.49 1.41566 0.692592 0
M  V30 15894 C 1486.74 1.40381 1.44831 0
M  V30 15895 C 1487.05 0.0172068 1.95592 0
M  V30 15896 O 1488.26 -0.11726 2.71247 0
M  V30 15897 C 1486.71 2.46844 2.61908 0
M  V30 15898 C 1486.32 3.91426 2.17921 0
M  V30 15899 C 1488.07 2.548 3.39525 0
M  V30 15900 C 1485.97 4.89436 3.31974 0
M  V30 15901 H 1484.9 0.522062 0.544028 0
M  V30 15902 H 1487.55 1.67402 0.751589 0
M  V30 15903 H 1485.94 2.12959 3.33863 0
M  V30 15904 H 1487.11 4.34575 1.53236 0
M  V30 15905 H 1485.43 3.87158 1.5329 0
M  V30 15906 H 1488.02 3.25207 4.24434 0
M  V30 15907 H 1488.37 1.58579 3.84913 0
M  V30 15908 H 1488.9 2.87791 2.74629 0
M  V30 15909 H 1485.64 5.87071 2.91595 0
M  V30 15910 H 1485.16 4.50933 3.95499 0
M  V30 15911 H 1486.84 5.10331 3.97708 0
M  V30 15912 N 1486.97 -0.927146 1.27443 0
M  V30 15913 C 1487.93 -2.00938 1.10257 0
M  V30 15914 C 1488.93 -1.60733 0.0463898 0
M  V30 15915 O 1490.12 -1.71752 0.291029 0
M  V30 15916 C 1487.25 -3.34047 0.680115 0
M  V30 15917 H 1488.45 -2.17615 2.06358 0
M  V30 15918 H 1486 -1.10802 1.10239 0
M  V30 15919 H 1486.73 -3.23069 -0.282259 0
M  V30 15920 H 1486.52 -3.64585 1.44291 0
M  V30 15921 H 1488.01 -4.13523 0.582126 0
M  V30 15922 N 1488.45 -1.09474 -1.13372 0
M  V30 15923 C 1489.69 -0.832323 -1.84933 0
M  V30 15924 C 1490.03 0.640469 -1.83335 0
M  V30 15925 O 1489.3 1.47158 -1.2718 0
M  V30 15926 C 1489.58 -1.36876 -3.33072 0
M  V30 15927 C 1489.44 -2.90769 -3.43181 0
M  V30 15928 C 1490.76 -1.00294 -4.2852 0
M  V30 15929 H 1487.87 -0.30382 -0.671463 0
M  V30 15930 H 1490.52 -1.35622 -1.33066 0
M  V30 15931 H 1488.67 -0.923134 -3.77373 0
M  V30 15932 H 1490.34 -3.43784 -3.07588 0
M  V30 15933 H 1488.58 -3.27876 -2.84042 0
M  V30 15934 H 1489.25 -3.23381 -4.47358 0
M  V30 15935 H 1491.73 -1.38729 -3.92293 0
M  V30 15936 H 1490.6 -1.40533 -5.30605 0
M  V30 15937 H 1490.87 0.0888133 -4.42011 0
M  V30 15938 N 1489.92 1.30607 -0.882012 0
M  V30 15939 C 1491.17 1.95869 -0.497978 0
M  V30 15940 C 1491.49 1.69991 0.955405 0
M  V30 15941 O 1490.76 1.02188 1.67136 0
M  V30 15942 H 1489.34 0.724699 -0.181165 0
M  V30 15943 H 1492.01 1.59193 -1.12444 0
M  V30 15944 H 1491.1 3.04917 -0.665754 0
M  V30 15945 N 1491.4 0.642663 1.43901 0
M  V30 15946 C 1492.82 0.309286 1.56575 0
M  V30 15947 C 1493.02 -1.18709 1.6282 0
M  V30 15948 O 1492.07 -1.97157 1.57751 0
M  V30 15949 C 1493.39 1.01136 2.83182 0
M  V30 15950 C 1494.94 0.9906 2.96911 0
M  V30 15951 C 1495.41 1.67336 4.26336 0
M  V30 15952 N 1496.9 1.6405 4.33177 0
M  V30 15953 C 1497.64 2.13762 5.32065 0
M  V30 15954 N 1497.13 2.71716 6.37293 0
M  V30 15955 N 1498.93 2.04323 5.23649 0
M  V30 15956 H 1491.08 1.61384 1.38091 0
M  V30 15957 H 1493.34 0.678084 0.6625 0
M  V30 15958 H 1493.05 2.0664 2.84592 0
M  V30 15959 H 1492.92 0.556304 3.73075 0
M  V30 15960 H 1495.31 -0.0559997 2.95047 0
M  V30 15961 H 1495.39 1.48425 2.08335 0
M  V30 15962 H 1495.03 2.71947 4.2896 0
M  V30 15963 H 1494.96 1.15445 5.1379 0
M  V30 15964 H 1497.45 1.21749 3.57751 0
M  V30 15965 H 1497.77 3.07352 7.09052 0
M  V30 15966 H 1496.11 2.75772 6.37946 0
M  V30 15967 H 1499.3 1.5876 4.40355 0
M  V30 15968 H 1499.47 2.43376 6.0056 0
M  V30 15969 N 1492.88 -1.52852 0.383918 0
M  V30 15970 C 1493.81 -2.22704 -0.497825 0
M  V30 15971 C 1494.79 -1.22573 -1.06839 0
M  V30 15972 O 1495.98 -1.51541 -1.12105 0
M  V30 15973 C 1493.1 -2.93606 -1.68858 0
M  V30 15974 C 1492.15 -4.07962 -1.24376 0
M  V30 15975 S 1492.98 -5.35007 -0.229773 0
M  V30 15976 C 1494.14 -6.09429 -1.42643 0
M  V30 15977 H 1494.37 -2.97147 0.0953535 0
M  V30 15978 H 1491.9 -1.53482 0.168084 0
M  V30 15979 H 1493.86 -3.35067 -2.3715 0
M  V30 15980 H 1492.52 -2.18853 -2.25304 0
M  V30 15981 H 1491.72 -4.56654 -2.13269 0
M  V30 15982 H 1491.32 -3.68486 -0.639823 0
M  V30 15983 H 1493.61 -6.35274 -2.35443 0
M  V30 15984 H 1494.55 -7.01278 -0.980541 0
M  V30 15985 H 1494.96 -5.40128 -1.6408 0
M  V30 15986 N 1494.36 -0.113586 -1.5719 0
M  V30 15987 C 1495.29 0.868985 -2.12088 0
M  V30 15988 C 1496.3 1.23362 -1.06233 0
M  V30 15989 O 1497.49 1.18352 -1.33623 0
M  V30 15990 C 1494.59 2.17252 -2.60106 0
M  V30 15991 C 1493.77 1.9804 -3.89999 0
M  V30 15992 C 1492.83 3.12073 -4.23671 0
M  V30 15993 O 1491.85 2.85224 -4.92581 0
M  V30 15994 N 1493.05 4.38358 -3.80556 0
M  V30 15995 H 1495.82 0.399996 -2.97019 0
M  V30 15996 H 1493.38 0.0709947 -1.61744 0
M  V30 15997 H 1495.37 2.92523 -2.79665 0
M  V30 15998 H 1493.94 2.55516 -1.80084 0
M  V30 15999 H 1493.16 1.06993 -3.79402 0
M  V30 16000 H 1494.45 1.82502 -4.74943 0
M  V30 16001 H 1493.85 4.63048 -3.24966 0
M  V30 16002 H 1492.4 5.10518 -4.05234 0
M  V30 16003 N 1495.84 1.56784 0.160173 0
M  V30 16004 C 1496.78 1.97267 1.1981 0
M  V30 16005 C 1497.75 0.83824 1.43397 0
M  V30 16006 O 1498.94 1.09926 1.55952 0
M  V30 16007 C 1496.08 2.34725 2.52979 0
M  V30 16008 C 1495.19 3.61397 2.36677 0
M  V30 16009 C 1494.33 3.88018 3.62789 0
M  V30 16010 C 1493.37 5.08002 3.41468 0
M  V30 16011 N 1492.5 5.30699 4.59677 0
M  V30 16012 H 1497.34 2.85743 0.845878 0
M  V30 16013 H 1494.88 1.41379 0.406249 0
M  V30 16014 H 1496.84 2.54468 3.30608 0
M  V30 16015 H 1495.47 1.49345 2.86175 0
M  V30 16016 H 1494.52 3.49505 1.50167 0
M  V30 16017 H 1495.83 4.49185 2.16875 0
M  V30 16018 H 1494.99 4.08188 4.48851 0
M  V30 16019 H 1493.73 2.98627 3.85582 0
M  V30 16020 H 1492.73 4.87718 2.53793 0
M  V30 16021 H 1493.96 5.98934 3.20086 0
M  V30 16022 H 1491.9 4.44261 4.82668 0
M  V30 16023 H 1491.82 6.1273 4.42829 0
M  V30 16024 H 1493.09 5.55357 5.46991 0
M  V30 16025 N 1497.32 -0.429099 1.51646 0
M  V30 16026 C 1498.56 -1.17551 1.64396 0
M  V30 16027 C 1498.88 -1.91526 0.366444 0
M  V30 16028 O 1498.15 -1.85896 -0.618013 0
M  V30 16029 H 1496.73 -0.436918 0.605898 0
M  V30 16030 H 1499.4 -0.491159 1.8861 0
M  V30 16031 H 1498.49 -1.90057 2.47557 0
M  V30 16032 N 1498.79 -1.41931 -0.685074 0
M  V30 16033 C 1500.04 -1.41147 -1.44085 0
M  V30 16034 C 1500.36 -0.0275793 -1.95581 0
M  V30 16035 O 1501.56 0.102873 -2.71305 0
M  V30 16036 C 1500.02 -2.4823 -2.60596 0
M  V30 16037 C 1499.63 -3.92576 -2.15842 0
M  V30 16038 C 1501.37 -2.56597 -3.38169 0
M  V30 16039 C 1499.28 -4.91189 -3.29374 0
M  V30 16040 H 1498.21 -0.52494 -0.541252 0
M  V30 16041 H 1500.86 -1.67798 -0.7427 0
M  V30 16042 H 1499.24 -2.14727 -3.32729 0
M  V30 16043 H 1500.41 -4.35381 -1.50929 0
M  V30 16044 H 1498.73 -3.87965 -1.51235 0
M  V30 16045 H 1501.33 -3.27453 -4.22704 0
M  V30 16046 H 1501.67 -1.60618 -3.84067 0
M  V30 16047 H 1502.2 -2.89244 -2.73099 0
M  V30 16048 H 1498.94 -5.88609 -2.88477 0
M  V30 16049 H 1498.46 -4.53024 -3.93102 0
M  V30 16050 H 1500.14 -5.12433 -3.94996 0
M  V30 16051 N 1500.27 0.920374 -1.27933 0
M  V30 16052 C 1501.55 1.64765 -1.05413 0
M  V30 16053 C 1501.93 2.07106 0.408717 0
M  V30 16054 O 1501.28 1.81094 1.39346 0
M  V30 16055 C 1501.49 2.84417 -2.02257 0
M  V30 16056 C 1502.83 3.5559 -2.32036 0
M  V30 16057 O 1503.86 2.94555 -2.00289 0
M  V30 16058 O 1502.72 4.65574 -2.86187 0
M  V30 16059 H 1499.81 0.722503 -0.402391 0
M  V30 16060 H 1502.36 0.970263 -1.39226 0
M  V30 16061 H 1501.13 2.50174 -3.0088 0
M  V30 16062 H 1500.75 3.59872 -1.6905 0
M  V30 16063 N 1501.75 1.10074 1.1279 0
M  V30 16064 C 1502.98 0.861655 1.87774 0
M  V30 16065 C 1503.39 -0.591184 1.79727 0
M  V30 16066 O 1502.73 -1.4191 1.1665 0
M  V30 16067 C 1502.79 1.22668 3.37924 0
M  V30 16068 C 1502.46 2.68579 3.69749 0
M  V30 16069 C 1503.45 3.66821 3.68427 0
M  V30 16070 C 1501.14 3.04869 3.99199 0
M  V30 16071 C 1503.13 4.99377 3.96108 0
M  V30 16072 C 1500.82 4.37615 4.2654 0
M  V30 16073 C 1501.82 5.34678 4.24981 0
M  V30 16074 O 1501.51 6.65034 4.51647 0
M  V30 16075 H 1501.24 0.309289 0.601096 0
M  V30 16076 H 1503.79 1.46802 1.43661 0
M  V30 16077 H 1502.02 0.563393 3.82574 0
M  V30 16078 H 1503.71 0.965675 3.94246 0
M  V30 16079 H 1504.48 3.40128 3.45742 0
M  V30 16080 H 1500.36 2.29947 3.99557 0
M  V30 16081 H 1503.9 5.7513 3.94806 0
M  V30 16082 H 1499.8 4.64047 4.48698 0
M  V30 16083 H 1500.56 6.70608 4.69283 0
M  V30 16084 N 1503.23 -1.30138 0.888926 0
M  V30 16085 C 1504.47 -1.96279 0.51012 0
M  V30 16086 C 1504.81 -1.69984 -0.939096 0
M  V30 16087 O 1504.08 -1.00677 -1.66416 0
M  V30 16088 C 1504.36 -3.51321 0.790305 0
M  V30 16089 C 1504.22 -3.87116 2.29044 0
M  V30 16090 C 1505.54 -4.39274 0.269477 0
M  V30 16091 H 1502.66 -0.712931 0.18681 0
M  V30 16092 H 1505.3 -1.53942 1.11364 0
M  V30 16093 H 1503.45 -3.87514 0.276647 0
M  V30 16094 H 1505.12 -3.60926 2.87281 0
M  V30 16095 H 1503.36 -3.35044 2.7555 0
M  V30 16096 H 1504.03 -4.95288 2.43708 0
M  V30 16097 H 1506.51 -4.10012 0.709173 0
M  V30 16098 H 1505.39 -5.46665 0.494815 0
M  V30 16099 H 1505.65 -4.3425 -0.829434 0
M  V30 16100 N 1504.71 -0.650285 -1.43559 0
M  V30 16101 C 1505.65 0.043098 -2.3076 0
M  V30 16102 C 1506.62 0.81763 -1.44582 0
M  V30 16103 O 1507.81 0.794825 -1.73457 0
M  V30 16104 C 1504.95 1.00557 -3.30125 0
M  V30 16105 C 1504.06 0.227448 -4.31401 0
M  V30 16106 C 1503.2 1.18345 -5.17849 0
M  V30 16107 C 1502.23 0.395596 -6.1082 0
M  V30 16108 N 1501.37 1.30304 -6.89902 0
M  V30 16109 H 1506.21 -0.706402 -2.89506 0
M  V30 16110 H 1503.75 -0.360118 -1.42624 0
M  V30 16111 H 1505.71 1.57717 -3.8624 0
M  V30 16112 H 1504.34 1.72198 -2.73034 0
M  V30 16113 H 1503.39 -0.460391 -3.77604 0
M  V30 16114 H 1504.7 -0.385316 -4.9731 0
M  V30 16115 H 1503.85 1.82578 -5.78576 0
M  V30 16116 H 1502.59 1.83013 -4.52059 0
M  V30 16117 H 1501.6 -0.260099 -5.49184 0
M  V30 16118 H 1502.82 -0.246633 -6.78652 0
M  V30 16119 H 1500.77 1.93657 -6.26764 0
M  V30 16120 H 1500.69 0.744768 -7.52323 0
M  V30 16121 H 1501.95 1.93361 -7.55137 0
M  V30 16122 N 1506.18 1.52647 -0.392018 0
M  V30 16123 C 1507.13 2.28073 0.456674 0
M  V30 16124 C 1508.13 1.3208 1.06071 0
M  V30 16125 O 1509.33 1.49608 1.00088 0
M  V30 16126 H 1505.71 0.733443 0.166029 0
M  V30 16127 H 1507.68 2.97723 -0.200916 0
M  V30 16128 C 1506.43 3.10216 1.5704 0
M  V30 16129 H 1505.75 3.83939 1.11493 0
M  V30 16130 H 1507.19 3.66126 2.1384 0
M  V30 16131 C 1505.65 2.22698 2.52799 0
M  V30 16132 O 1506.18 1.8556 3.56273 0
M  V30 16133 N 1504.38 1.86804 2.22604 0
M  V30 16134 H 1503.93 2.17204 1.38492 0
M  V30 16135 H 1503.89 1.28538 2.86924 0
M  V30 16136 N 1507.66 0.121921 1.57128 0
M  V30 16137 C 1508.61 -0.827205 2.15467 0
M  V30 16138 C 1509.58 -1.26155 1.08047 0
M  V30 16139 O 1510.76 -1.33855 1.35969 0
M  V30 16140 C 1507.9 -2.07077 2.76067 0
M  V30 16141 C 1507.02 -1.68452 3.97804 0
M  V30 16142 C 1506.15 -2.87797 4.46482 0
M  V30 16143 C 1505.19 -2.45426 5.60743 0
M  V30 16144 N 1504.33 -3.57695 6.04151 0
M  V30 16145 H 1509.17 -0.322879 2.96246 0
M  V30 16146 H 1506.71 -0.147677 1.46357 0
M  V30 16147 H 1508.66 -2.79943 3.09335 0
M  V30 16148 H 1507.29 -2.54963 1.97974 0
M  V30 16149 H 1506.35 -0.854487 3.70679 0
M  V30 16150 H 1507.66 -1.33316 4.80654 0
M  V30 16151 H 1506.81 -3.68885 4.81673 0
M  V30 16152 H 1505.55 -3.26162 3.62587 0
M  V30 16153 H 1504.56 -1.62772 5.25153 0
M  V30 16154 H 1505.78 -2.08175 6.46405 0
M  V30 16155 H 1503.73 -3.95728 5.23197 0
M  V30 16156 H 1503.64 -3.26491 6.81865 0
M  V30 16157 H 1504.91 -4.39213 6.43981 0
M  V30 16158 N 1509.14 -1.56867 -0.151857 0
M  V30 16159 C 1510.07 -1.93039 -1.21701 0
M  V30 16160 C 1511.05 -0.795607 -1.41806 0
M  V30 16161 O 1512.24 -1.05076 -1.56497 0
M  V30 16162 C 1509.36 -2.19822 -2.57674 0
M  V30 16163 C 1508.41 -3.42474 -2.54192 0
M  V30 16164 S 1509.24 -4.96199 -2.01363 0
M  V30 16165 C 1510.4 -5.26098 -3.39075 0
M  V30 16166 H 1510.63 -2.83083 -0.90837 0
M  V30 16167 H 1508.16 -1.5021 -0.357265 0
M  V30 16168 H 1510.12 -2.35932 -3.35926 0
M  V30 16169 H 1508.78 -1.30451 -2.8573 0
M  V30 16170 H 1507.98 -3.58476 -3.54276 0
M  V30 16171 H 1507.58 -3.25581 -1.84047 0
M  V30 16172 H 1509.87 -5.19268 -4.35163 0
M  V30 16173 H 1510.81 -6.27588 -3.27931 0
M  V30 16174 H 1511.22 -4.53623 -3.35986 0
M  V30 16175 N 1510.62 0.421051 -1.51871 0
M  V30 16176 C 1512.03 0.758781 -1.40409 0
M  V30 16177 C 1512.23 1.95219 -0.499197 0
M  V30 16178 O 1511.29 2.52469 0.0395216 0
M  V30 16179 C 1512.6 1.02388 -2.82731 0
M  V30 16180 C 1514.15 1.12733 -2.91994 0
M  V30 16181 C 1514.63 1.42527 -4.35259 0
M  V30 16182 N 1516.12 1.49417 -4.38439 0
M  V30 16183 C 1516.85 1.74074 -5.46339 0
M  V30 16184 N 1516.35 1.96414 -6.64375 0
M  V30 16185 N 1518.14 1.7599 -5.33839 0
M  V30 16186 H 1510.29 -0.364682 -2.09246 0
M  V30 16187 H 1512.56 -0.100819 -0.942624 0
M  V30 16188 H 1512.26 0.219491 -3.51014 0
M  V30 16189 H 1512.14 1.94724 -3.23052 0
M  V30 16190 H 1514.52 1.92233 -2.23899 0
M  V30 16191 H 1514.6 0.182611 -2.55147 0
M  V30 16192 H 1514.25 0.635486 -5.03909 0
M  V30 16193 H 1514.18 2.38231 -4.69631 0
M  V30 16194 H 1516.67 1.3399 -3.53348 0
M  V30 16195 H 1516.98 2.14644 -7.42393 0
M  V30 16196 H 1515.33 1.93702 -6.67461 0
M  V30 16197 H 1518.52 1.58067 -4.40605 0
M  V30 16198 H 1518.69 1.94868 -6.18005 0
M  V30 16199 N 1512.1 1.42293 0.677538 0
M  V30 16200 C 1513.01 1.47953 1.82063 0
M  V30 16201 C 1514.02 0.36851 1.70053 0
M  V30 16202 O 1515.2 0.618996 1.91652 0
M  V30 16203 C 1512.26 1.3769 3.18186 0
M  V30 16204 C 1511.32 2.59261 3.42173 0
M  V30 16205 C 1510.56 2.49478 4.71801 0
M  V30 16206 O 1510.78 1.52915 5.49521 0
M  V30 16207 O 1509.71 3.39562 4.96972 0
M  V30 16208 H 1513.54 2.4443 1.80244 0
M  V30 16209 H 1511.13 1.24027 0.832932 0
M  V30 16210 H 1513.01 1.34319 3.9942 0
M  V30 16211 H 1511.68 0.443377 3.20649 0
M  V30 16212 H 1510.59 2.68207 2.60798 0
M  V30 16213 H 1511.92 3.51503 3.44538 0
M  V30 16214 N 1513.57 -0.913576 1.28419 0
M  V30 16215 C 1514.81 -1.67716 1.16836 0
M  V30 16216 C 1515.18 -1.8997 -0.278452 0
M  V30 16217 O 1516.38 -2.63781 -0.516994 0
M  V30 16218 C 1514.65 -2.99838 1.94504 0
M  V30 16219 S 1516.21 -3.9093 1.99297 0
M  V30 16220 H 1513.03 -0.575987 0.416845 0
M  V30 16221 H 1515.63 -1.08661 1.62521 0
M  V30 16222 H 1514.33 -2.81343 2.98788 0
M  V30 16223 H 1513.86 -3.6394 1.4937 0
M  V30 16224 H 1515.88 -4.83863 1.0996 0
M  V30 16225 N 1515.05 -1.1067 -1.12204 0
M  V30 16226 C 1516.3 -0.85063 -1.83768 0
M  V30 16227 C 1516.63 0.62379 -1.84226 0
M  V30 16228 O 1515.88 1.47603 -1.28498 0
M  V30 16229 C 1516.18 -1.34727 -3.31034 0
M  V30 16230 C 1515.85 -2.83353 -3.50745 0
M  V30 16231 C 1514.51 -3.2394 -3.55832 0
M  V30 16232 C 1516.86 -3.79118 -3.57658 0
M  V30 16233 C 1514.19 -4.59036 -3.6538 0
M  V30 16234 C 1516.54 -5.1402 -3.68736 0
M  V30 16235 C 1515.21 -5.54177 -3.72081 0
M  V30 16236 H 1514.48 -0.311268 -0.672453 0
M  V30 16237 H 1517.12 -1.38373 -1.32383 0
M  V30 16238 H 1515.43 -0.73424 -3.84859 0
M  V30 16239 H 1517.12 -1.12558 -3.84879 0
M  V30 16240 H 1513.71 -2.50952 -3.47449 0
M  V30 16241 H 1517.9 -3.48867 -3.52995 0
M  V30 16242 H 1513.15 -4.89568 -3.66243 0
M  V30 16243 H 1517.33 -5.88067 -3.73028 0
M  V30 16244 H 1514.96 -6.58853 -3.79232 0
M  V30 16245 N 1516.53 1.29665 -0.895815 0
M  V30 16246 C 1517.46 2.26842 -0.327939 0
M  V30 16247 C 1518.48 1.54151 0.523578 0
M  V30 16248 O 1519.66 1.75205 0.341367 0
M  V30 16249 C 1516.76 3.34384 0.551393 0
M  V30 16250 C 1515.94 4.36544 -0.273514 0
M  V30 16251 C 1515 5.23442 0.538031 0
M  V30 16252 O 1514.02 5.69184 -0.0431025 0
M  V30 16253 N 1515.22 5.50402 1.84493 0
M  V30 16254 H 1517.99 2.76208 -1.16315 0
M  V30 16255 H 1515.55 1.42958 -0.759903 0
M  V30 16256 H 1517.54 3.89446 1.10062 0
M  V30 16257 H 1516.11 2.84864 1.28728 0
M  V30 16258 H 1515.33 3.81196 -1.00416 0
M  V30 16259 H 1516.62 5.01842 -0.838589 0
M  V30 16260 H 1516.02 5.15041 2.33985 0
M  V30 16261 H 1514.58 6.08295 2.34137 0
M  V30 16262 N 1518.01 0.657889 1.43212 0
M  V30 16263 C 1518.96 -0.0308596 2.30779 0
M  V30 16264 C 1519.93 -0.809951 1.45014 0
M  V30 16265 O 1521.11 -0.785615 1.73876 0
M  V30 16266 C 1518.25 -0.988048 3.30653 0
M  V30 16267 C 1517.36 -0.204567 4.31515 0
M  V30 16268 C 1516.5 -1.15598 5.1847 0
M  V30 16269 C 1515.54 -0.363197 6.11022 0
M  V30 16270 N 1514.67 -1.26644 6.90584 0
M  V30 16271 H 1519.51 0.721745 2.89128 0
M  V30 16272 H 1517.05 0.367677 1.42431 0
M  V30 16273 H 1519.01 -1.55666 3.87071 0
M  V30 16274 H 1517.64 -1.70747 2.73944 0
M  V30 16275 H 1516.69 0.48041 3.77354 0
M  V30 16276 H 1518 0.411684 4.97098 0
M  V30 16277 H 1517.16 -1.79507 5.79536 0
M  V30 16278 H 1515.9 -1.80613 4.53023 0
M  V30 16279 H 1514.9 0.28922 5.49039 0
M  V30 16280 H 1516.13 0.28262 6.78512 0
M  V30 16281 H 1514.07 -1.90331 6.27782 0
M  V30 16282 H 1513.99 -0.70486 7.52707 0
M  V30 16283 H 1515.26 -1.89353 7.56152 0
M  V30 16284 N 1519.49 -1.52437 0.400108 0
M  V30 16285 C 1520.45 -2.2536 -0.417808 0
M  V30 16286 C 1521.45 -1.27393 -0.981204 0
M  V30 16287 O 1522.64 -1.51406 -0.861503 0
M  V30 16288 C 1519.77 -3.01695 -1.58724 0
M  V30 16289 H 1520.96 -2.99086 0.220782 0
M  V30 16290 H 1518.52 -1.55555 0.152439 0
M  V30 16291 H 1519.25 -2.32295 -2.26295 0
M  V30 16292 H 1519.04 -3.73611 -1.18984 0
M  V30 16293 H 1520.53 -3.57033 -2.16604 0
M  V30 16294 N 1520.96 -0.130252 -1.57061 0
M  V30 16295 C 1522.21 0.525006 -1.95576 0
M  V30 16296 C 1522.54 1.65964 -1.0142 0
M  V30 16297 O 1521.79 1.95659 -0.0401898 0
M  V30 16298 C 1522.09 1.08776 -3.40445 0
M  V30 16299 C 1521.76 0.0733062 -4.5084 0
M  V30 16300 C 1520.42 -0.20561 -4.80761 0
M  V30 16301 C 1522.77 -0.617428 -5.1753 0
M  V30 16302 C 1520.1 -1.18135 -5.74683 0
M  V30 16303 C 1522.45 -1.58188 -6.12503 0
M  V30 16304 C 1521.12 -1.86866 -6.4081 0
M  V30 16305 H 1520.39 0.192113 -0.715663 0
M  V30 16306 H 1523.03 -0.21354 -1.90306 0
M  V30 16307 H 1521.34 1.9033 -3.42464 0
M  V30 16308 H 1523.04 1.60305 -3.67564 0
M  V30 16309 H 1519.63 0.30088 -4.27543 0
M  V30 16310 H 1523.81 -0.415124 -4.94561 0
M  V30 16311 H 1519.07 -1.41017 -5.94915 0
M  V30 16312 H 1523.24 -2.12271 -6.6326 0
M  V30 16313 H 1520.87 -2.62628 -7.13394 0
M  V30 16314 N 1522.44 1.56945 0.143535 0
M  V30 16315 C 1523.69 1.83538 0.855563 0
M  V30 16316 C 1524.02 0.711666 1.81013 0
M  V30 16317 O 1523.27 -0.299039 1.93402 0
M  V30 16318 C 1523.57 3.16482 1.66054 0
M  V30 16319 C 1523.24 4.42768 0.85246 0
M  V30 16320 C 1521.9 4.77064 0.629535 0
M  V30 16321 C 1524.25 5.20406 0.287567 0
M  V30 16322 C 1521.58 5.86457 -0.168934 0
M  V30 16323 C 1523.93 6.30637 -0.49796 0
M  V30 16324 C 1522.6 6.6348 -0.731429 0
M  V30 16325 H 1521.87 0.671615 0.313073 0
M  V30 16326 H 1524.51 1.9113 0.11904 0
M  V30 16327 H 1522.82 3.04357 2.46727 0
M  V30 16328 H 1524.52 3.34274 2.215 0
M  V30 16329 H 1521.11 4.15884 1.03628 0
M  V30 16330 H 1525.29 4.94282 0.447066 0
M  V30 16331 H 1520.55 6.10343 -0.359283 0
M  V30 16332 H 1524.72 6.89989 -0.942792 0
M  V30 16333 H 1522.35 7.48081 -1.35199 0
M  V30 16334 N 1523.92 -0.412991 1.52093 0
M  V30 16335 C 1525.34 -0.751324 1.40809 0
M  V30 16336 C 1525.54 -1.94951 0.509543 0
M  V30 16337 O 1524.59 -2.52486 -0.026132 0
M  V30 16338 C 1525.91 -1.00888 2.8327 0
M  V30 16339 C 1527.45 -1.11183 2.92587 0
M  V30 16340 C 1527.93 -1.40217 4.36008 0
M  V30 16341 N 1529.42 -1.4709 4.39225 0
M  V30 16342 C 1530.16 -1.71174 5.47254 0
M  V30 16343 N 1529.65 -1.92887 6.65407 0
M  V30 16344 N 1531.44 -1.73157 5.34765 0
M  V30 16345 H 1523.6 0.375774 2.0905 0
M  V30 16346 H 1525.86 0.105817 0.942076 0
M  V30 16347 H 1525.56 -0.200872 3.51126 0
M  V30 16348 H 1525.44 -1.93008 3.2408 0
M  V30 16349 H 1527.83 -1.91043 2.24915 0
M  V30 16350 H 1527.91 -0.169078 2.55241 0
M  V30 16351 H 1527.55 -0.608754 5.04239 0
M  V30 16352 H 1527.48 -2.35737 4.70888 0
M  V30 16353 H 1529.97 -1.32114 3.54054 0
M  V30 16354 H 1530.28 -2.10704 7.43521 0
M  V30 16355 H 1528.63 -1.9016 6.68479 0
M  V30 16356 H 1531.82 -1.55728 4.41437 0
M  V30 16357 H 1531.99 -1.91587 6.1903 0
M  V30 16358 N 1525.4 -1.4265 -0.669982 0
M  V30 16359 C 1526.35 -1.46504 -1.7834 0
M  V30 16360 C 1527.32 -0.316478 -1.63057 0
M  V30 16361 O 1528.5 -0.521245 -1.83542 0
M  V30 16362 C 1525.64 -1.37784 -3.16401 0
M  V30 16363 C 1524.75 -2.62714 -3.42937 0
M  V30 16364 C 1523.89 -2.46101 -4.70752 0
M  V30 16365 C 1522.93 -3.66381 -4.90338 0
M  V30 16366 N 1522.07 -3.48681 -6.09398 0
M  V30 16367 H 1526.91 -2.41651 -1.74381 0
M  V30 16368 H 1524.44 -1.1997 -0.851215 0
M  V30 16369 H 1526.4 -1.30725 -3.9619 0
M  V30 16370 H 1525.03 -0.462291 -3.19473 0
M  V30 16371 H 1524.08 -2.8012 -2.57366 0
M  V30 16372 H 1525.39 -3.52108 -3.53301 0
M  V30 16373 H 1524.55 -2.36655 -5.58641 0
M  V30 16374 H 1523.29 -1.54204 -4.6268 0
M  V30 16375 H 1522.29 -3.76254 -4.00891 0
M  V30 16376 H 1523.52 -4.59265 -5.00253 0
M  V30 16377 H 1521.46 -2.59505 -6.02489 0
M  V30 16378 H 1521.38 -4.31666 -6.20645 0
M  V30 16379 H 1522.65 -3.43056 -6.99952 0
M  V30 16380 N 1526.88 0.906753 -1.28902 0
M  V30 16381 C 1528.29 1.47175 -1.14876 0
M  V30 16382 C 1528.64 1.94487 0.258693 0
M  V30 16383 O 1527.76 1.83088 1.15359 0
M  V30 16384 C 1528.36 2.67491 -2.07928 0
M  V30 16385 C 1526.92 3.20148 -1.97946 0
M  V30 16386 C 1526.07 1.92846 -1.99263 0
M  V30 16387 H 1529.02 0.718777 -1.4149 0
M  V30 16388 H 1529.04 3.42989 -1.64738 0
M  V30 16389 H 1528.55 2.33025 -3.10356 0
M  V30 16390 H 1526.65 3.59322 -0.985806 0
M  V30 16391 H 1526.76 3.84923 -2.85256 0
M  V30 16392 H 1525.13 2.10247 -1.43765 0
M  V30 16393 H 1525.91 1.60666 -3.03383 0
M  V30 16394 N 1528.36 1.11264 1.11616 0
M  V30 16395 C 1529.3 0.769295 2.17602 0
M  V30 16396 C 1530.27 -0.258362 1.64078 0
M  V30 16397 O 1531.46 -0.135698 1.90317 0
M  V30 16398 C 1528.6 0.216647 3.44419 0
M  V30 16399 C 1527.71 1.30064 4.11955 0
M  V30 16400 C 1526.85 0.708729 5.26451 0
M  V30 16401 C 1525.88 1.7727 5.85868 0
M  V30 16402 N 1525.02 1.20042 6.91762 0
M  V30 16403 H 1529.86 1.67727 2.46316 0
M  V30 16404 H 1527.4 0.83764 1.20921 0
M  V30 16405 H 1529.36 -0.121724 4.17022 0
M  V30 16406 H 1527.99 -0.654525 3.16095 0
M  V30 16407 H 1527.04 1.756 3.37445 0
M  V30 16408 H 1528.35 2.1057 4.52174 0
M  V30 16409 H 1527.5 0.320307 6.05854 0
M  V30 16410 H 1526.24 -0.127668 4.87533 0
M  V30 16411 H 1525.25 2.17046 5.05145 0
M  V30 16412 H 1526.47 2.6121 6.26854 0
M  V30 16413 H 1524.42 0.385633 6.54866 0
M  V30 16414 H 1524.34 1.94221 7.30626 0
M  V30 16415 H 1525.6 0.838825 7.74974 0
M  V30 16416 N 1529.83 -1.29188 0.902679 0
M  V30 16417 C 1531.08 -1.95727 0.530909 0
M  V30 16418 C 1531.41 -1.70971 -0.921014 0
M  V30 16419 O 1530.69 -1.02436 -1.65339 0
M  V30 16420 C 1530.97 -3.50463 0.827523 0
M  V30 16421 C 1530.82 -3.84665 2.33137 0
M  V30 16422 C 1532.14 -4.38964 0.316053 0
M  V30 16423 H 1529.26 -0.71091 0.194361 0
M  V30 16424 H 1531.9 -1.52752 1.1299 0
M  V30 16425 H 1530.05 -3.87199 0.317732 0
M  V30 16426 H 1531.73 -3.57859 2.91093 0
M  V30 16427 H 1529.97 -3.32102 2.79088 0
M  V30 16428 H 1530.64 -4.92676 2.48947 0
M  V30 16429 H 1533.12 -4.09237 0.75262 0
M  V30 16430 H 1531.99 -5.4611 0.552769 0
M  V30 16431 H 1532.25 -4.35105 -0.783329 0
M  V30 16432 N 1531.31 -0.665475 -1.42861 0
M  V30 16433 C 1532.56 -0.181149 -2.00885 0
M  V30 16434 C 1532.87 1.21629 -1.53186 0
M  V30 16435 O 1534.08 1.79648 -2.03565 0
M  V30 16436 C 1532.54 -0.273017 -3.58863 0
M  V30 16437 C 1532.14 -1.67392 -4.15553 0
M  V30 16438 C 1533.89 0.153075 -4.24224 0
M  V30 16439 C 1531.79 -1.71905 -5.65864 0
M  V30 16440 H 1530.72 -0.0639619 -0.751282 0
M  V30 16441 H 1533.38 -0.829299 -1.63691 0
M  V30 16442 H 1531.76 0.44286 -3.93516 0
M  V30 16443 H 1532.93 -2.41613 -3.92377 0
M  V30 16444 H 1531.25 -2.04704 -3.62609 0
M  V30 16445 H 1533.84 0.139369 -5.34518 0
M  V30 16446 H 1534.19 1.1867 -3.99028 0
M  V30 16447 H 1534.72 -0.511472 -3.94498 0
M  V30 16448 H 1531.46 -2.73218 -5.95846 0
M  V30 16449 H 1530.98 -1.02027 -5.91059 0
M  V30 16450 H 1532.66 -1.46829 -6.30119 0
M  V30 16451 N 1532.79 1.52222 -0.408187 0
M  V30 16452 C 1533.7 2.30725 0.424645 0
M  V30 16453 C 1534.72 1.38412 1.05442 0
M  V30 16454 O 1535.89 1.71486 1.05614 0
M  V30 16455 C 1532.96 3.11273 1.52677 0
M  V30 16456 C 1532.02 4.19323 0.920143 0
M  V30 16457 C 1531.25 4.96021 1.96974 0
M  V30 16458 O 1531.47 4.73011 3.18774 0
M  V30 16459 O 1530.41 5.80887 1.5765 0
M  V30 16460 H 1534.23 3.02935 -0.215411 0
M  V30 16461 H 1531.82 1.48413 -0.171414 0
M  V30 16462 H 1533.7 3.61436 2.16661 0
M  V30 16463 H 1532.38 2.41857 2.15144 0
M  V30 16464 H 1531.28 3.7331 0.243037 0
M  V30 16465 H 1532.62 4.91028 0.339405 0
M  V30 16466 N 1534.27 0.138579 1.5699 0
M  V30 16467 C 1535.52 -0.514545 1.95026 0
M  V30 16468 C 1535.83 -1.66565 1.02544 0
M  V30 16469 O 1537.04 -2.38284 1.30126 0
M  V30 16470 C 1535.49 -0.966746 3.46673 0
M  V30 16471 C 1535.1 0.156969 4.47725 0
M  V30 16472 C 1536.84 -1.59014 3.93592 0
M  V30 16473 C 1534.75 -0.313031 5.90571 0
M  V30 16474 H 1533.68 -0.195991 0.728082 0
M  V30 16475 H 1536.33 0.221575 1.82157 0
M  V30 16476 H 1534.71 -1.75788 3.54845 0
M  V30 16477 H 1535.89 0.933728 4.51241 0
M  V30 16478 H 1534.2 0.688238 4.10673 0
M  V30 16479 H 1536.8 -1.95326 4.97747 0
M  V30 16480 H 1537.14 -2.47595 3.34668 0
M  V30 16481 H 1537.68 -0.864061 3.88302 0
M  V30 16482 H 1534.41 0.5372 6.53295 0
M  V30 16483 H 1533.93 -1.05585 5.90434 0
M  V30 16484 H 1535.61 -0.767826 6.42428 0
M  V30 16485 N 1535.75 -1.57019 -0.13521 0
M  V30 16486 C 1536.7 -1.95569 -1.17203 0
M  V30 16487 C 1537.68 -0.828483 -1.37931 0
M  V30 16488 O 1538.87 -1.09205 -1.39295 0
M  V30 16489 C 1536 -2.34984 -2.50275 0
M  V30 16490 C 1535.09 -3.54302 -2.3309 0
M  V30 16491 N 1535.48 -4.70484 -1.85684 0
M  V30 16492 C 1533.78 -3.59617 -2.63802 0
M  V30 16493 C 1534.48 -5.52553 -1.81823 0
M  V30 16494 N 1533.45 -4.94589 -2.25572 0
M  V30 16495 H 1537.25 -2.82865 -0.79779 0
M  V30 16496 H 1534.77 -1.58733 -0.343142 0
M  V30 16497 H 1536.77 -2.60812 -3.25243 0
M  V30 16498 H 1535.43 -1.49045 -2.88471 0
M  V30 16499 H 1536.44 -4.94013 -1.55472 0
M  V30 16500 H 1533.11 -2.84247 -3.05794 0
M  V30 16501 H 1534.5 -6.5572 -1.46562 0
M  V30 16502 N 1537.22 0.404919 -1.52309 0
M  V30 16503 C 1538.13 1.51822 -1.7885 0
M  V30 16504 C 1539.15 1.60403 -0.674307 0
M  V30 16505 O 1540.33 1.77038 -0.960175 0
M  V30 16506 C 1537.39 2.87516 -1.9374 0
M  V30 16507 C 1536.45 2.88787 -3.17648 0
M  V30 16508 C 1535.69 4.18009 -3.31819 0
M  V30 16509 O 1535.91 5.12129 -2.51158 0
M  V30 16510 O 1534.84 4.26222 -4.24992 0
M  V30 16511 H 1538.67 1.32329 -2.73354 0
M  V30 16512 H 1536.25 0.591193 -1.37205 0
M  V30 16513 H 1538.14 3.6799 -2.05333 0
M  V30 16514 H 1536.81 3.07068 -1.02425 0
M  V30 16515 H 1535.72 2.07152 -3.11511 0
M  V30 16516 H 1537.05 2.74185 -4.08758 0
M  V30 16517 N 1538.7 1.43003 0.662408 0
M  V30 16518 C 1539.95 1.43848 1.41958 0
M  V30 16519 C 1540.27 0.06046 1.94906 0
M  V30 16520 O 1539.54 -0.90287 1.73854 0
M  V30 16521 H 1538.12 0.529587 0.526827 0
M  V30 16522 H 1540.78 1.7853 0.781867 0
M  V30 16523 H 1539.88 2.14562 2.26649 0
M  V30 16524 N 1540.18 -0.899904 1.29381 0
M  V30 16525 C 1541.13 -2.02537 1.14375 0
M  V30 16526 C 1542.12 -1.69296 0.0593904 0
M  V30 16527 O 1543.33 -1.78661 0.219174 0
M  V30 16528 H 1539.7 -0.663844 0.353291 0
M  V30 16529 H 1541.67 -2.12332 2.0966 0
M  V30 16530 C 1540.42 -3.37479 0.836845 0
M  V30 16531 H 1539.75 -3.6356 1.66326 0
M  V30 16532 H 1541.19 -4.16915 0.771873 0
M  V30 16533 C 1539.65 -3.33746 -0.459889 0
M  V30 16534 O 1540.18 -3.73203 -1.48601 0
M  V30 16535 N 1538.38 -2.86845 -0.465657 0
M  V30 16536 H 1537.93 -2.54931 0.369833 0
M  V30 16537 H 1537.89 -2.8473 -1.33327 0
M  V30 16538 N 1541.66 -1.11854 -1.11024 0
M  V30 16539 C 1542.61 -0.780825 -2.17191 0
M  V30 16540 C 1543.58 0.249657 -1.64213 0
M  V30 16541 O 1544.76 0.125603 -1.90386 0
M  V30 16542 C 1541.9 -0.23491 -3.443 0
M  V30 16543 C 1541.01 -1.32247 -4.1126 0
M  V30 16544 C 1540.15 -0.736638 -5.26068 0
M  V30 16545 C 1539.19 -1.80375 -5.8492 0
M  V30 16546 N 1538.32 -1.23709 -6.91115 0
M  V30 16547 H 1543.16 -1.69031 -2.45423 0
M  V30 16548 H 1540.7 -0.844041 -1.20476 0
M  V30 16549 H 1542.66 0.0996064 -4.17081 0
M  V30 16550 H 1541.29 0.637752 -3.16437 0
M  V30 16551 H 1540.34 -1.77387 -3.36509 0
M  V30 16552 H 1541.65 -2.12965 -4.51051 0
M  V30 16553 H 1540.81 -0.352432 -6.05675 0
M  V30 16554 H 1539.55 0.101811 -4.87594 0
M  V30 16555 H 1538.55 -2.19721 -5.03987 0
M  V30 16556 H 1539.78 -2.64531 -6.2546 0
M  V30 16557 H 1537.72 -0.420357 -6.54652 0
M  V30 16558 H 1537.64 -1.98093 -7.29586 0
M  V30 16559 H 1538.91 -0.879912 -7.74518 0
M  V30 16560 N 1543.14 1.28707 -0.909517 0
M  V30 16561 C 1544.39 1.94437 -0.536401 0
M  V30 16562 C 1544.7 1.72416 0.923685 0
M  V30 16563 O 1545.9 2.32333 1.40477 0
M  V30 16564 C 1544.36 3.48246 -0.908455 0
M  V30 16565 C 1543.97 3.79051 -2.38798 0
M  V30 16566 C 1545.71 4.20156 -0.605721 0
M  V30 16567 C 1543.62 5.2615 -2.70038 0
M  V30 16568 H 1542.55 0.727842 -0.196882 0
M  V30 16569 H 1545.2 1.46283 -1.10786 0
M  V30 16570 H 1543.58 3.95107 -0.265829 0
M  V30 16571 H 1544.76 3.43014 -3.07698 0
M  V30 16572 H 1543.07 3.20303 -2.66074 0
M  V30 16573 H 1545.67 5.28439 -0.815849 0
M  V30 16574 H 1546.01 4.13792 0.456266 0
M  V30 16575 H 1546.54 3.79059 -1.20662 0
M  V30 16576 H 1543.28 5.37587 -3.75073 0
M  V30 16577 H 1542.8 5.63399 -2.05771 0
M  V30 16578 H 1544.48 5.93846 -2.56819 0
M  V30 16579 N 1544.61 0.673042 1.42506 0
M  V30 16580 C 1545.89 0.123606 1.95209 0
M  V30 16581 C 1546.27 -1.36118 1.61354 0
M  V30 16582 O 1545.62 -2.0965 0.908793 0
M  V30 16583 C 1545.83 0.39088 3.46804 0
M  V30 16584 C 1547.18 0.306445 4.23493 0
M  V30 16585 O 1548.2 0.32453 3.54719 0
M  V30 16586 O 1547.06 0.247127 5.45941 0
M  V30 16587 H 1544.15 0.00184868 0.826998 0
M  V30 16588 H 1546.7 0.74765 1.52343 0
M  V30 16589 H 1545.47 1.41951 3.64645 0
M  V30 16590 H 1545.1 -0.265259 3.96714 0
M  V30 16591 N 1546.09 -1.52004 0.416254 0
M  V30 16592 C 1547.32 -2.0679 -0.158937 0
M  V30 16593 C 1547.74 -1.28366 -1.37491 0
M  V30 16594 O 1547.1 -0.315815 -1.78528 0
M  V30 16595 C 1547.15 -3.57381 -0.480717 0
M  V30 16596 O 1546.25 -3.81321 -1.5706 0
M  V30 16597 H 1545.59 -0.663907 -0.0110938 0
M  V30 16598 H 1548.12 -1.95863 0.591509 0
M  V30 16599 H 1548.13 -4.01283 -0.737297 0
M  V30 16600 H 1546.81 -4.13893 0.408137 0
M  V30 16601 H 1545.39 -3.49296 -1.30563 0
M  V30 16602 N 1547.57 -0.146903 -1.56914 0
M  V30 16603 C 1548.81 0.506985 -1.98013 0
M  V30 16604 C 1549.17 1.62043 -1.02985 0
M  V30 16605 O 1550.38 2.33517 -1.33128 0
M  V30 16606 C 1548.65 1.00023 -3.43118 0
M  V30 16607 S 1550.21 1.65873 -4.06241 0
M  V30 16608 H 1547.02 0.163927 -0.691845 0
M  V30 16609 H 1549.63 -0.238594 -1.94039 0
M  V30 16610 H 1548.33 0.179091 -4.10009 0
M  V30 16611 H 1547.86 1.78043 -3.50805 0
M  V30 16612 H 1549.88 2.94595 -3.99285 0
M  V30 16613 N 1549.05 1.57088 0.126881 0
M  V30 16614 C 1549.98 1.94951 1.18614 0
M  V30 16615 C 1550.96 0.818067 1.40522 0
M  V30 16616 O 1552.14 1.07553 1.54805 0
M  V30 16617 C 1549.27 2.23893 2.54144 0
M  V30 16618 C 1548.32 3.46475 2.48712 0
M  V30 16619 S 1549.15 4.9934 1.93443 0
M  V30 16620 C 1550.31 5.31426 3.30662 0
M  V30 16621 H 1550.54 2.84492 0.863219 0
M  V30 16622 H 1548.07 1.50759 0.333323 0
M  V30 16623 H 1550.03 2.41247 3.3213 0
M  V30 16624 H 1548.69 1.3498 2.83618 0
M  V30 16625 H 1547.88 3.64067 3.48528 0
M  V30 16626 H 1547.49 3.28467 1.78844 0
M  V30 16627 H 1549.78 5.26125 4.26847 0
M  V30 16628 H 1550.72 6.32726 3.17905 0
M  V30 16629 H 1551.13 4.5891 3.28727 0
M  V30 16630 N 1550.53 -0.396836 1.52522 0
M  V30 16631 C 1551.75 -1.16857 1.71345 0
M  V30 16632 C 1552.18 -1.83178 0.427465 0
M  V30 16633 O 1551.53 -1.7051 -0.616123 0
M  V30 16634 C 1551.58 -2.19817 2.85855 0
M  V30 16635 O 1550.69 -3.26233 2.52281 0
M  V30 16636 H 1550.03 -0.340554 0.570017 0
M  V30 16637 H 1552.56 -0.463532 1.9928 0
M  V30 16638 H 1552.57 -2.63944 3.11123 0
M  V30 16639 H 1551.24 -1.70931 3.79151 0
M  V30 16640 H 1549.82 -2.87299 2.37726 0
M  V30 16641 N 1552.01 -1.43353 -0.654814 0
M  V30 16642 C 1552.95 -1.48652 -1.789 0
M  V30 16643 C 1553.95 -0.360274 -1.65525 0
M  V30 16644 O 1555.15 -0.534194 -1.71891 0
M  V30 16645 H 1551.53 -0.465987 -0.590221 0
M  V30 16646 H 1553.5 -2.44158 -1.7155 0
M  V30 16647 C 1552.25 -1.42512 -3.17152 0
M  V30 16648 H 1551.57 -2.28479 -3.28081 0
M  V30 16649 H 1553.01 -1.50282 -3.96474 0
M  V30 16650 C 1551.47 -0.142511 -3.36598 0
M  V30 16651 O 1552 0.796821 -3.93718 0
M  V30 16652 N 1550.21 -0.0532157 -2.90551 0
M  V30 16653 H 1549.75 -0.818421 -2.44253 0
M  V30 16654 H 1549.71 0.80427 -3.03939 0
M  V30 16655 N 1553.48 0.89303 -1.29857 0
M  V30 16656 C 1554.43 2.01928 -1.15447 0
M  V30 16657 C 1555.43 1.69262 -0.0683677 0
M  V30 16658 O 1556.63 1.78542 -0.228646 0
M  V30 16659 H 1553.01 0.661961 -0.356807 0
M  V30 16660 H 1554.98 2.11218 -2.10784 0
M  V30 16661 C 1553.73 3.37031 -0.85473 0
M  V30 16662 H 1553.05 3.62673 -1.68251 0
M  V30 16663 H 1554.49 4.165 -0.793973 0
M  V30 16664 C 1552.95 3.33986 0.442183 0
M  V30 16665 O 1553.48 3.73986 1.4662 0
M  V30 16666 N 1551.68 2.87088 0.450438 0
M  V30 16667 H 1551.23 2.54732 -0.383347 0
M  V30 16668 H 1551.19 2.85433 1.31815 0
M  V30 16669 N 1554.96 1.12442 1.10429 0
M  V30 16670 C 1556.19 0.902599 1.86174 0
M  V30 16671 C 1556.6 -0.548147 1.80668 0
M  V30 16672 O 1555.96 -1.37898 1.19543 0
M  V30 16673 C 1556.01 1.36912 3.34571 0
M  V30 16674 O 1555.73 2.763 3.39985 0
M  V30 16675 C 1557.23 1.18424 4.27189 0
M  V30 16676 H 1554.45 0.322534 0.588399 0
M  V30 16677 H 1557 1.49439 1.396 0
M  V30 16678 H 1555.15 0.82055 3.7861 0
M  V30 16679 H 1555.57 2.96772 4.32466 0
M  V30 16680 H 1557.04 1.55954 5.29511 0
M  V30 16681 H 1557.52 0.12483 4.39023 0
M  V30 16682 H 1558.12 1.72032 3.88954 0
M  V30 16683 N 1556.44 -1.28223 0.91633 0
M  V30 16684 C 1557.69 -1.9448 0.549734 0
M  V30 16685 C 1558.01 -1.72465 -0.909999 0
M  V30 16686 O 1557.28 -1.06583 -1.64368 0
M  V30 16687 H 1555.86 -0.719641 0.200315 0
M  V30 16688 H 1558.52 -1.56156 1.16625 0
M  V30 16689 H 1557.62 -3.03044 0.746363 0
M  V30 16690 N 1557.92 -0.68059 -1.42147 0
M  V30 16691 C 1559.17 -0.202445 -2.00681 0
M  V30 16692 C 1559.48 1.19997 -1.54467 0
M  V30 16693 O 1560.69 1.77479 -2.05459 0
M  V30 16694 C 1559.14 -0.311064 -3.58553 0
M  V30 16695 C 1558.75 -1.7179 -4.13754 0
M  V30 16696 C 1560.49 0.108072 -4.24362 0
M  V30 16697 C 1558.4 -1.77897 -5.64009 0
M  V30 16698 H 1557.33 -0.0719266 -0.750561 0
M  V30 16699 H 1559.98 -0.846614 -1.62803 0
M  V30 16700 H 1558.36 0.401098 -3.93963 0
M  V30 16701 H 1559.54 -2.45761 -3.89793 0
M  V30 16702 H 1557.85 -2.08539 -3.60417 0
M  V30 16703 H 1560.45 0.0826684 -5.34636 0
M  V30 16704 H 1560.79 1.14431 -4.00264 0
M  V30 16705 H 1561.33 -0.553285 -3.93933 0
M  V30 16706 H 1558.06 -2.79523 -5.92914 0
M  V30 16707 H 1557.58 -1.0829 -5.89944 0
M  V30 16708 H 1559.26 -1.53504 -6.28527 0
M  V30 16709 N 1559.4 1.51781 -0.424309 0
M  V30 16710 C 1560.31 2.31162 0.40015 0
M  V30 16711 C 1561.32 1.39523 1.03969 0
M  V30 16712 O 1562.5 1.72597 1.0379 0
M  V30 16713 C 1559.56 3.12875 1.49366 0
M  V30 16714 C 1558.62 4.20275 0.875616 0
M  V30 16715 C 1557.86 4.98082 1.91702 0
M  V30 16716 O 1558.08 4.76365 3.13739 0
M  V30 16717 O 1557.01 5.82527 1.5148 0
M  V30 16718 H 1560.84 3.0269 -0.247529 0
M  V30 16719 H 1558.42 1.48223 -0.187146 0
M  V30 16720 H 1560.31 3.63714 2.12815 0
M  V30 16721 H 1558.98 2.44125 2.12567 0
M  V30 16722 H 1557.89 3.73546 0.203429 0
M  V30 16723 H 1559.22 4.91361 0.287306 0
M  V30 16724 N 1560.87 0.155222 1.56834 0
M  V30 16725 C 1562.12 -0.493831 1.95561 0
M  V30 16726 C 1562.44 -1.65468 1.04305 0
M  V30 16727 O 1563.64 -2.36891 1.32646 0
M  V30 16728 C 1562.1 -0.929923 3.47679 0
M  V30 16729 C 1561.71 0.204447 4.47533 0
M  V30 16730 C 1563.45 -1.5483 3.95257 0
M  V30 16731 C 1561.36 -0.250375 5.9087 0
M  V30 16732 H 1560.29 -0.188258 0.73012 0
M  V30 16733 H 1562.94 0.240883 1.81912 0
M  V30 16734 H 1561.32 -1.72014 3.56689 0
M  V30 16735 H 1562.49 0.981535 4.50225 0
M  V30 16736 H 1560.81 0.731756 4.0992 0
M  V30 16737 H 1563.41 -1.90036 4.9979 0
M  V30 16738 H 1563.75 -2.44031 3.37275 0
M  V30 16739 H 1564.28 -0.822828 3.89197 0
M  V30 16740 H 1561.02 0.606461 6.52689 0
M  V30 16741 H 1560.54 -0.993164 5.9152 0
M  V30 16742 H 1562.22 -0.699645 6.43206 0
M  V30 16743 N 1562.35 -1.57153 -0.118549 0
M  V30 16744 C 1563.58 -1.89434 -0.844355 0
M  V30 16745 C 1564 -0.747203 -1.72622 0
M  V30 16746 O 1563.36 0.302252 -1.78763 0
M  V30 16747 C 1563.41 -3.20466 -1.65331 0
M  V30 16748 O 1562.51 -3.06403 -2.76027 0
M  V30 16749 H 1561.85 -0.621601 -0.23347 0
M  V30 16750 H 1564.38 -2.04351 -0.100811 0
M  V30 16751 H 1564.39 -3.53197 -2.04245 0
M  V30 16752 H 1563.07 -4.03551 -1.00594 0
M  V30 16753 H 1561.64 -2.85139 -2.40312 0
M  V30 16754 N 1563.83 0.388742 -1.5273 0
M  V30 16755 C 1564.78 1.47488 -1.77527 0
M  V30 16756 C 1565.75 1.54155 -0.618505 0
M  V30 16757 O 1566.93 1.70407 -0.858251 0
M  V30 16758 C 1564.07 2.84714 -1.95018 0
M  V30 16759 C 1563.18 2.87197 -3.2271 0
M  V30 16760 C 1562.32 4.15851 -3.30517 0
M  V30 16761 C 1561.36 4.12386 -4.52332 0
M  V30 16762 N 1560.5 5.32647 -4.57418 0
M  V30 16763 H 1565.34 1.25644 -2.70218 0
M  V30 16764 H 1562.87 0.609519 -1.33878 0
M  V30 16765 H 1564.83 3.64402 -2.03143 0
M  V30 16766 H 1563.46 3.05008 -1.05688 0
M  V30 16767 H 1562.51 1.99879 -3.23655 0
M  V30 16768 H 1563.82 2.80505 -4.12454 0
M  V30 16769 H 1562.98 5.03943 -3.37827 0
M  V30 16770 H 1561.72 4.25265 -2.38748 0
M  V30 16771 H 1560.72 3.22683 -4.45147 0
M  V30 16772 H 1561.95 4.04594 -5.45418 0
M  V30 16773 H 1559.89 5.42691 -3.68541 0
M  V30 16774 H 1559.81 5.28032 -5.41035 0
M  V30 16775 H 1561.08 6.22636 -4.68983 0
M  V30 16776 N 1565.31 1.43698 0.647203 0
M  V30 16777 C 1566.22 1.51781 1.78884 0
M  V30 16778 C 1567.23 0.404498 1.69233 0
M  V30 16779 O 1568.41 0.659509 1.90296 0
M  V30 16780 C 1565.47 1.44408 3.15194 0
M  V30 16781 C 1564.54 2.6646 3.36597 0
M  V30 16782 C 1563.77 2.59429 4.66403 0
M  V30 16783 O 1563.99 1.64537 5.46154 0
M  V30 16784 O 1562.93 3.50027 4.89658 0
M  V30 16785 H 1566.75 2.48198 1.75019 0
M  V30 16786 H 1564.34 1.25766 0.806436 0
M  V30 16787 H 1566.22 1.42761 3.96481 0
M  V30 16788 H 1564.89 0.511292 3.19637 0
M  V30 16789 H 1563.8 2.73679 2.5505 0
M  V30 16790 H 1565.13 3.58732 3.37005 0
M  V30 16791 N 1566.79 -0.886131 1.30328 0
M  V30 16792 C 1567.72 -2.00793 1.19183 0
M  V30 16793 C 1568.7 -1.69899 0.08276 0
M  V30 16794 O 1569.88 -1.92389 0.264593 0
M  V30 16795 C 1567.01 -3.35922 0.881669 0
M  V30 16796 C 1565.97 -3.81072 1.94855 0
M  V30 16797 C 1565.29 -5.1348 1.4914 0
M  V30 16798 C 1566.59 -3.99923 3.35944 0
M  V30 16799 H 1568.29 -2.10375 2.13032 0
M  V30 16800 H 1565.83 -1.0108 1.02561 0
M  V30 16801 H 1567.79 -4.13922 0.790359 0
M  V30 16802 H 1566.51 -3.26469 -0.0925037 0
M  V30 16803 H 1565.17 -3.053 2.02947 0
M  V30 16804 H 1564.82 -5.00453 0.50553 0
M  V30 16805 H 1564.52 -5.44659 2.205 0
M  V30 16806 H 1566.04 -5.94005 1.41386 0
M  V30 16807 H 1567.45 -4.68364 3.30617 0
M  V30 16808 H 1565.85 -4.42477 4.05381 0
M  V30 16809 H 1566.92 -3.03816 3.77921 0
M  V30 16810 N 1568.26 -1.13026 -1.09832 0
M  V30 16811 C 1569.21 -0.799174 -2.1844 0
M  V30 16812 C 1570.21 0.216695 -1.68008 0
M  V30 16813 O 1571.41 0.0742662 -1.79847 0
M  V30 16814 H 1567.79 -0.24064 -0.712458 0
M  V30 16815 H 1569.76 -1.72342 -2.436 0
M  V30 16816 C 1568.51 -0.276925 -3.46595 0
M  V30 16817 H 1567.83 -1.04993 -3.85768 0
M  V30 16818 H 1569.27 -0.0836468 -4.23917 0
M  V30 16819 C 1567.73 0.996479 -3.21826 0
M  V30 16820 O 1568.26 2.0731 -3.44072 0
M  V30 16821 N 1566.47 0.925903 -2.75455 0
M  V30 16822 H 1566.01 0.0496383 -2.57552 0
M  V30 16823 H 1565.97 1.77853 -2.5926 0
M  V30 16824 N 1569.74 1.27735 -0.923117 0
M  V30 16825 C 1570.97 1.98394 -0.57648 0
M  V30 16826 C 1571.38 1.69093 0.848778 0
M  V30 16827 O 1570.72 0.945385 1.57506 0
M  V30 16828 C 1570.79 3.52278 -0.716984 0
M  V30 16829 C 1570.45 4.05191 -2.11351 0
M  V30 16830 C 1571.45 4.18314 -3.08722 0
M  V30 16831 C 1569.13 4.39652 -2.42922 0
M  V30 16832 C 1571.13 4.65166 -4.35774 0
M  V30 16833 C 1568.81 4.86196 -3.70211 0
M  V30 16834 C 1569.81 4.98911 -4.66451 0
M  V30 16835 O 1569.5 5.44437 -5.91476 0
M  V30 16836 H 1569.23 0.640008 -0.217636 0
M  V30 16837 H 1571.78 1.63666 -1.24107 0
M  V30 16838 H 1570.01 3.867 0.00469601 0
M  V30 16839 H 1571.7 4.04154 -0.376077 0
M  V30 16840 H 1572.47 3.91955 -2.85651 0
M  V30 16841 H 1568.35 4.29 -1.6876 0
M  V30 16842 H 1571.89 4.75006 -5.10896 0
M  V30 16843 H 1567.79 5.11997 -3.93103 0
M  V30 16844 H 1568.56 5.62701 -5.94399 0
M  V30 16845 N 1571.22 0.688118 1.41784 0
M  V30 16846 C 1572.15 0.0323199 2.33478 0
M  V30 16847 C 1573.13 -0.775145 1.51412 0
M  V30 16848 O 1574.32 -0.72962 1.79973 0
M  V30 16849 C 1571.45 -0.910141 3.35162 0
M  V30 16850 C 1570.4 -0.210312 4.27483 0
M  V30 16851 C 1569.73 -1.26662 5.19481 0
M  V30 16852 C 1571.03 0.918839 5.14154 0
M  V30 16853 H 1572.72 0.798138 2.88566 0
M  V30 16854 H 1570.27 0.385262 1.38751 0
M  V30 16855 H 1572.22 -1.3781 3.98229 0
M  V30 16856 H 1570.94 -1.70754 2.78408 0
M  V30 16857 H 1569.6 0.237544 3.6583 0
M  V30 16858 H 1569.25 -2.05635 4.59046 0
M  V30 16859 H 1568.95 -0.803416 5.82082 0
M  V30 16860 H 1570.47 -1.73524 5.85424 0
M  V30 16861 H 1571.89 0.531499 5.70831 0
M  V30 16862 H 1570.29 1.30867 5.85657 0
M  V30 16863 H 1571.36 1.7618 4.51762 0
M  V30 16864 N 1572.7 -1.51554 0.432352 0
M  V30 16865 C 1574.11 -1.59377 0.0843863 0
M  V30 16866 C 1574.31 -1.44364 -1.40575 0
M  V30 16867 O 1573.37 -1.28234 -2.17514 0
M  V30 16868 C 1574.68 -2.94652 0.600046 0
M  V30 16869 C 1576.23 -3.07949 0.560049 0
M  V30 16870 C 1576.71 -4.4574 1.0526 0
M  V30 16871 N 1578.2 -4.52046 1.01038 0
M  V30 16872 C 1578.93 -5.56979 1.36242 0
M  V30 16873 N 1578.43 -6.69355 1.78707 0
M  V30 16874 N 1580.22 -5.47311 1.2809 0
M  V30 16875 H 1572.37 -1.59558 1.40197 0
M  V30 16876 H 1574.64 -0.751868 0.577406 0
M  V30 16877 H 1574.34 -3.10993 1.64245 0
M  V30 16878 H 1574.22 -3.77193 0.0222482 0
M  V30 16879 H 1576.6 -2.91279 -0.473357 0
M  V30 16880 H 1576.68 -2.27259 1.17419 0
M  V30 16881 H 1576.33 -4.63156 2.08445 0
M  V30 16882 H 1576.26 -5.24962 0.415047 0
M  V30 16883 H 1578.75 -3.71389 0.69847 0
M  V30 16884 H 1579.06 -7.45438 2.03819 0
M  V30 16885 H 1577.41 -6.70576 1.82629 0
M  V30 16886 H 1580.6 -4.58403 0.947848 0
M  V30 16887 H 1580.77 -6.28978 1.55855 0
M  V30 16888 N 1574.18 -0.163538 -1.56749 0
M  V30 16889 C 1575.45 0.529349 -1.88301 0
M  V30 16890 C 1575.83 1.81844 -1.07219 0
M  V30 16891 O 1575.18 2.27912 -0.16381 0
M  V30 16892 C 1575.39 0.778796 -3.402 0
M  V30 16893 C 1576.74 1.11225 -4.09773 0
M  V30 16894 O 1577.76 0.867598 -3.45472 0
M  V30 16895 O 1576.62 1.57344 -5.2336 0
M  V30 16896 H 1573.72 0.271928 -0.781015 0
M  V30 16897 H 1576.26 -0.20139 -1.68501 0
M  V30 16898 H 1575.03 -0.132839 -3.91074 0
M  V30 16899 H 1574.66 1.56313 -3.65584 0
M  V30 16900 N 1575.65 1.57214 0.110213 0
M  V30 16901 C 1576.9 1.84946 0.814827 0
M  V30 16902 C 1577.22 0.750029 1.79999 0
M  V30 16903 O 1576.49 -0.225164 1.94602 0
M  V30 16904 H 1575.07 0.682385 0.303907 0
M  V30 16905 H 1577.74 1.94666 0.0954415 0
M  V30 16906 H 1576.83 2.81167 1.35469 0
M  V30 16907 N 1577.13 -0.380637 1.52934 0
M  V30 16908 C 1578.08 -1.48584 1.78957 0
M  V30 16909 C 1579.07 -1.56103 0.657901 0
M  V30 16910 O 1580.28 -1.59169 0.84055 0
M  V30 16911 H 1576.66 -0.494687 0.566382 0
M  V30 16912 H 1578.63 -1.23833 2.71492 0
M  V30 16913 C 1577.38 -2.85615 1.98291 0
M  V30 16914 H 1576.7 -2.80583 2.84804 0
M  V30 16915 H 1578.14 -3.62164 2.20485 0
M  V30 16916 C 1576.6 -3.28267 0.757764 0
M  V30 16917 O 1577.13 -4.01654 -0.0608007 0
M  V30 16918 N 1575.33 -2.84641 0.585486 0
M  V30 16919 H 1574.88 -2.25087 1.25274 0
M  V30 16920 H 1574.84 -3.13536 -0.232871 0
M  V30 16921 N 1578.61 -1.44039 -0.639573 0
M  V30 16922 C 1579.86 -1.46088 -1.39652 0
M  V30 16923 C 1580.18 -0.0914602 -1.94785 0
M  V30 16924 O 1579.45 0.875097 -1.75268 0
M  V30 16925 H 1578.03 -0.537901 -0.518335 0
M  V30 16926 H 1580.69 -1.79751 -0.753365 0
M  V30 16927 H 1579.79 -2.1814 -2.23207 0
M  V30 16928 N 1580.09 0.879207 -1.30796 0
M  V30 16929 C 1581.32 1.66449 -1.22891 0
M  V30 16930 C 1581.73 1.87658 0.207306 0
M  V30 16931 O 1581.09 1.42818 1.13619 0
M  V30 16932 C 1581.14 3.03765 -1.95982 0
M  V30 16933 O 1580.86 2.8351 -3.33997 0
M  V30 16934 C 1582.36 3.98204 -1.94804 0
M  V30 16935 H 1579.58 0.51922 -0.425031 0
M  V30 16936 H 1582.13 1.09807 -1.72519 0
M  V30 16937 H 1580.28 3.57124 -1.50138 0
M  V30 16938 H 1580.69 3.70663 -3.71092 0
M  V30 16939 H 1582.17 4.91901 -2.50474 0
M  V30 16940 H 1582.65 4.29277 -0.928336 0
M  V30 16941 H 1583.25 3.50781 -2.40485 0
M  V30 16942 N 1581.57 1.13606 1.09231 0
M  V30 16943 C 1582.8 0.922295 1.85206 0
M  V30 16944 C 1583.21 -0.528954 1.81239 0
M  V30 16945 O 1582.57 -1.36622 1.20999 0
M  V30 16946 C 1582.62 1.40453 3.331 0
M  V30 16947 O 1582.34 2.7989 3.37036 0
M  V30 16948 C 1583.84 1.22948 4.25909 0
M  V30 16949 H 1581.06 0.328757 0.584945 0
M  V30 16950 H 1583.6 1.50911 1.38007 0
M  V30 16951 H 1581.76 0.86066 3.77719 0
M  V30 16952 H 1582.17 3.01342 4.29294 0
M  V30 16953 H 1583.65 1.61562 5.27827 0
M  V30 16954 H 1584.12 0.171387 4.38865 0
M  V30 16955 H 1584.73 1.76147 3.87108 0
M  V30 16956 N 1583.05 -1.27244 0.929878 0
M  V30 16957 C 1584.27 -1.98912 0.587277 0
M  V30 16958 C 1584.7 -1.68888 -0.828168 0
M  V30 16959 O 1584.05 -0.930394 -1.55606 0
M  V30 16960 C 1584.1 -3.51097 0.822399 0
M  V30 16961 O 1583.21 -4.12251 -0.110968 0
M  V30 16962 H 1582.55 -0.624404 0.225867 0
M  V30 16963 H 1585.08 -1.61997 1.24973 0
M  V30 16964 H 1585.09 -4.01255 0.738824 0
M  V30 16965 H 1583.76 -3.72282 1.85416 0
M  V30 16966 H 1582.34 -3.72893 0.0227053 0
M  V30 16967 N 1584.52 -0.695628 -1.41417 0
M  V30 16968 C 1585.77 -0.226171 -2.0083 0
M  V30 16969 C 1586.09 1.17833 -1.55371 0
M  V30 16970 O 1585.36 1.79512 -0.784362 0
M  V30 16971 H 1583.94 -0.0806271 -0.742636 0
M  V30 16972 H 1586.6 -0.8968 -1.73042 0
M  V30 16973 H 1585.7 -0.243643 -3.11148 0
M  V30 16974 N 1586 1.51322 -0.440383 0
M  V30 16975 C 1587.25 2.02413 0.125248 0
M  V30 16976 C 1587.58 1.32374 1.42094 0
M  V30 16977 O 1586.86 0.439624 1.89467 0
M  V30 16978 C 1587.14 3.58483 0.340858 0
M  V30 16979 C 1586.99 4.39134 -0.973701 0
M  V30 16980 C 1588.31 4.25891 1.10927 0
M  V30 16981 H 1585.43 0.735683 0.0440452 0
M  V30 16982 H 1588.07 1.80932 -0.579976 0
M  V30 16983 H 1586.22 3.76917 0.941572 0
M  V30 16984 H 1587.89 4.32343 -1.60863 0
M  V30 16985 H 1586.14 4.04097 -1.57759 0
M  V30 16986 H 1586.81 5.46506 -0.776845 0
M  V30 16987 H 1589.28 4.11746 0.600403 0
M  V30 16988 H 1588.16 5.34967 1.2289 0
M  V30 16989 H 1588.42 3.86958 2.13813 0
M  V30 16990 N 1587.48 0.171848 1.5666 0
M  V30 16991 C 1588.73 -0.472034 1.9651 0
M  V30 16992 C 1589.05 -1.63743 1.05893 0
M  V30 16993 O 1588.32 -1.95498 0.125396 0
M  V30 16994 H 1586.9 -0.177377 0.725635 0
M  V30 16995 H 1589.56 0.253155 1.93249 0
M  V30 16996 H 1588.66 -0.831693 3.00814 0
M  V30 16997 N 1588.96 -1.5727 -0.101874 0
M  V30 16998 C 1590.19 -1.89943 -0.820329 0
M  V30 16999 C 1590.6 -0.764867 -1.72613 0
M  V30 17000 O 1589.96 0.263499 -1.80588 0
M  V30 17001 C 1590.01 -3.2219 -1.63939 0
M  V30 17002 O 1589.73 -4.31279 -0.770039 0
M  V30 17003 C 1591.23 -3.6868 -2.46151 0
M  V30 17004 H 1588.45 -0.628532 -0.234922 0
M  V30 17005 H 1590.99 -2.04339 -0.0811362 0
M  V30 17006 H 1589.15 -3.09411 -2.33117 0
M  V30 17007 H 1589.56 -5.07182 -1.33665 0
M  V30 17008 H 1591.04 -4.63928 -2.99124 0
M  V30 17009 H 1591.51 -2.96183 -3.24303 0
M  V30 17010 H 1592.12 -3.84303 -1.82185 0
M  V30 17011 N 1590.44 0.372521 -1.53134 0
M  V30 17012 C 1591.68 1.11368 -1.68646 0
M  V30 17013 C 1592 1.90034 -0.437275 0
M  V30 17014 O 1591.27 1.88062 0.548593 0
M  V30 17015 H 1589.85 0.414129 -0.621696 0
M  V30 17016 H 1592.52 0.42082 -1.90303 0
M  V30 17017 H 1591.61 1.80738 -2.54441 0
M  V30 17018 N 1591.91 1.44376 0.631925 0
M  V30 17019 C 1593.14 1.5082 1.42366 0
M  V30 17020 C 1593.56 0.133858 1.87623 0
M  V30 17021 O 1592.92 -0.876789 1.58689 0
M  V30 17022 C 1592.97 2.47698 2.62065 0
M  V30 17023 O 1592.07 1.97796 3.61871 0
M  V30 17024 H 1591.41 0.509318 0.426018 0
M  V30 17025 H 1593.94 1.89502 0.771376 0
M  V30 17026 H 1593.95 2.65708 3.09618 0
M  V30 17027 H 1592.63 3.47526 2.2847 0
M  V30 17028 H 1591.21 1.89549 3.21131 0
M  V30 17029 N 1593.39 -0.872258 1.31261 0
M  V30 17030 C 1594.62 -1.6632 1.23905 0
M  V30 17031 C 1595.04 -1.87109 -0.192878 0
M  V30 17032 O 1594.4 -1.4112 -1.1382 0
M  V30 17033 C 1594.45 -3.00979 1.98606 0
M  V30 17034 O 1593.55 -3.90642 1.32183 0
M  V30 17035 H 1592.89 -0.507736 0.427902 0
M  V30 17036 H 1595.42 -1.0877 1.73292 0
M  V30 17037 H 1595.43 -3.50931 2.08113 0
M  V30 17038 H 1594.11 -2.85168 3.02741 0
M  V30 17039 H 1592.68 -3.4909 1.31112 0
M  V30 17040 N 1594.87 -1.14184 -1.08627 0
M  V30 17041 C 1596.12 -0.91001 -1.81236 0
M  V30 17042 C 1596.45 0.562134 -1.85886 0
M  V30 17043 O 1595.72 1.41631 -1.33307 0
M  V30 17044 C 1596.01 -1.50879 -3.26967 0
M  V30 17045 C 1595.86 -3.05063 -3.3054 0
M  V30 17046 C 1597.18 -1.18379 -4.2388 0
M  V30 17047 H 1594.3 -0.332025 -0.657973 0
M  V30 17048 H 1596.94 -1.41144 -1.27194 0
M  V30 17049 H 1595.09 -1.08236 -3.73118 0
M  V30 17050 H 1596.76 -3.5652 -2.9273 0
M  V30 17051 H 1595 -3.39628 -2.6988 0
M  V30 17052 H 1595.68 -3.42064 -4.33239 0
M  V30 17053 H 1598.15 -1.55242 -3.86056 0
M  V30 17054 H 1597.03 -1.62911 -5.24167 0
M  V30 17055 H 1597.29 -0.0987385 -4.4199 0
M  V30 17056 N 1596.35 1.26749 -0.936613 0
M  V30 17057 C 1597.26 2.30272 -0.448573 0
M  V30 17058 C 1598.27 1.67386 0.475184 0
M  V30 17059 O 1599.45 1.98232 0.355825 0
M  V30 17060 C 1596.52 3.45546 0.28262 0
M  V30 17061 C 1595.58 4.23926 -0.677138 0
M  V30 17062 C 1594.81 5.33697 0.019255 0
M  V30 17063 O 1595.03 5.56825 1.23703 0
M  V30 17064 O 1593.97 5.98302 -0.657119 0
M  V30 17065 H 1597.79 2.74072 -1.30838 0
M  V30 17066 H 1595.38 1.31863 -0.702314 0
M  V30 17067 H 1597.26 4.15635 0.694686 0
M  V30 17068 H 1595.93 3.03784 1.11789 0
M  V30 17069 H 1594.84 3.56337 -1.13906 0
M  V30 17070 H 1596.17 4.69425 -1.47988 0
M  V30 17071 N 1597.83 0.703118 1.41046 0
M  V30 17072 C 1598.77 0.0425767 2.30761 0
M  V30 17073 C 1599.74 -0.763406 1.47517 0
M  V30 17074 O 1600.93 -0.7299 1.76287 0
M  V30 17075 C 1598.07 -0.882353 3.33629 0
M  V30 17076 C 1597.18 -0.0671799 4.31948 0
M  V30 17077 C 1596.32 -0.990443 5.21885 0
M  V30 17078 C 1595.36 -0.168622 6.11868 0
M  V30 17079 N 1594.49 -1.04609 6.94263 0
M  V30 17080 H 1599.33 0.813363 2.86685 0
M  V30 17081 H 1596.87 0.412804 1.41189 0
M  V30 17082 H 1598.83 -1.43273 3.91827 0
M  V30 17083 H 1597.46 -1.61946 2.79237 0
M  V30 17084 H 1596.51 0.600219 3.75635 0
M  V30 17085 H 1597.82 0.569624 4.95537 0
M  V30 17086 H 1596.98 -1.60979 5.84954 0
M  V30 17087 H 1595.71 -1.66109 4.5854 0
M  V30 17088 H 1594.72 0.463746 5.47841 0
M  V30 17089 H 1595.94 0.49834 6.77269 0
M  V30 17090 H 1593.89 -1.70262 6.33519 0
M  V30 17091 H 1593.81 -0.465036 7.54568 0
M  V30 17092 H 1595.08 -1.65201 7.61793 0
M  V30 17093 N 1599.3 -1.51086 0.448402 0
M  V30 17094 C 1600.53 -2.06293 -0.112531 0
M  V30 17095 C 1600.94 -1.31478 -1.36052 0
M  V30 17096 O 1600.29 -0.370897 -1.79917 0
M  V30 17097 C 1600.35 -3.56156 -0.489178 0
M  V30 17098 C 1600.01 -4.52302 0.653568 0
M  V30 17099 C 1601.01 -4.96909 1.52898 0
M  V30 17100 C 1598.69 -4.9527 0.837448 0
M  V30 17101 C 1600.69 -5.83165 2.57288 0
M  V30 17102 C 1598.37 -5.81314 1.8846 0
M  V30 17103 C 1599.37 -6.25161 2.75069 0
M  V30 17104 O 1599.06 -7.09495 3.77985 0
M  V30 17105 H 1598.79 -0.67597 -0.00641865 0
M  V30 17106 H 1601.35 -1.95515 0.629533 0
M  V30 17107 H 1599.58 -3.64757 -1.28411 0
M  V30 17108 H 1601.27 -3.93828 -0.982548 0
M  V30 17109 H 1602.03 -4.64399 1.3985 0
M  V30 17110 H 1597.91 -4.60676 0.172857 0
M  V30 17111 H 1601.45 -6.1731 3.24921 0
M  V30 17112 H 1597.35 -6.13236 2.01523 0
M  V30 17113 H 1598.12 -7.27697 3.74699 0
M  V30 17114 N 1600.78 -0.180154 -1.56567 0
M  V30 17115 C 1602.03 0.463205 -1.97439 0
M  V30 17116 C 1602.36 1.62296 -1.06647 0
M  V30 17117 O 1601.64 1.94157 -0.115382 0
M  V30 17118 C 1601.92 0.937709 -3.47677 0
M  V30 17119 C 1601.77 -0.222835 -4.49248 0
M  V30 17120 C 1603.09 1.80836 -4.01231 0
M  V30 17121 H 1600.21 0.166899 -0.717854 0
M  V30 17122 H 1602.85 -0.268069 -1.88099 0
M  V30 17123 H 1601 1.56084 -3.55767 0
M  V30 17124 H 1602.67 -0.860155 -4.5321 0
M  V30 17125 H 1600.92 -0.876962 -4.24843 0
M  V30 17126 H 1601.59 0.151444 -5.51792 0
M  V30 17127 H 1604.06 1.28297 -3.95827 0
M  V30 17128 H 1602.94 2.10937 -5.06751 0
M  V30 17129 H 1603.2 2.75728 -3.45581 0
M  V30 17130 N 1602.26 1.57322 0.0935319 0
M  V30 17131 C 1603.51 1.85353 0.795445 0
M  V30 17132 C 1603.82 0.769647 1.79822 0
M  V30 17133 O 1605.03 0.937121 2.54814 0
M  V30 17134 C 1603.48 3.28711 1.4655 0
M  V30 17135 C 1603.09 4.45174 0.502415 0
M  V30 17136 C 1604.84 3.65965 2.15105 0
M  V30 17137 C 1602.74 5.79566 1.17715 0
M  V30 17138 H 1601.67 0.691394 0.300816 0
M  V30 17139 H 1604.32 1.83436 0.0484063 0
M  V30 17140 H 1602.71 3.25173 2.26005 0
M  V30 17141 H 1603.88 4.60062 -0.260754 0
M  V30 17142 H 1602.2 4.16328 -0.0775186 0
M  V30 17143 H 1604.79 4.63655 2.66323 0
M  V30 17144 H 1605.14 2.94667 2.94069 0
M  V30 17145 H 1605.67 3.71398 1.42508 0
M  V30 17146 H 1602.41 6.54099 0.428277 0
M  V30 17147 H 1601.93 5.68519 1.9117 0
M  V30 17148 H 1603.61 6.2418 1.70318 0
M  V30 17149 N 1603.74 -0.364395 1.53329 0
M  V30 17150 C 1605.02 -1.12265 1.60174 0
M  V30 17151 C 1605.4 -2.0708 0.410015 0
M  V30 17152 O 1604.74 -2.20492 -0.599631 0
M  V30 17153 C 1604.95 -1.86071 2.9526 0
M  V30 17154 C 1606.3 -2.40562 3.49879 0
M  V30 17155 O 1607.33 -1.96196 2.97297 0
M  V30 17156 O 1606.18 -3.2167 4.41804 0
M  V30 17157 H 1603.28 -0.515062 0.647024 0
M  V30 17158 H 1605.82 -0.367563 1.65672 0
M  V30 17159 H 1604.6 -1.1688 3.73436 0
M  V30 17160 H 1604.22 -2.68486 2.93259 0
M  V30 17161 N 1605.22 -1.44709 -0.62426 0
M  V30 17162 C 1606.13 -1.54608 -1.76447 0
M  V30 17163 C 1607.14 -0.43137 -1.68568 0
M  V30 17164 O 1608.32 -0.6897 -1.89222 0
M  V30 17165 C 1605.38 -1.49404 -3.12857 0
M  V30 17166 C 1604.44 -2.71782 -3.32315 0
M  V30 17167 C 1603.68 -2.66817 -4.62217 0
M  V30 17168 O 1603.9 -1.73205 -5.43467 0
M  V30 17169 O 1602.83 -3.57773 -4.84027 0
M  V30 17170 H 1606.66 -2.50951 -1.71048 0
M  V30 17171 H 1604.25 -1.27033 -0.786326 0
M  V30 17172 H 1606.13 -1.4905 -3.9416 0
M  V30 17173 H 1604.8 -0.562078 -3.18783 0
M  V30 17174 H 1603.71 -2.77702 -2.50664 0
M  V30 17175 H 1605.04 -3.64048 -3.31255 0
M  V30 17176 N 1606.69 0.865285 -1.31722 0
M  V30 17177 C 1607.64 1.99433 -1.19704 0
M  V30 17178 C 1608.64 1.69079 -0.104255 0
M  V30 17179 O 1609.84 1.78017 -0.266466 0
M  V30 17180 H 1606.22 0.654244 -0.370768 0
M  V30 17181 H 1608.19 2.06699 -2.15216 0
M  V30 17182 C 1606.94 3.35142 -0.926027 0
M  V30 17183 H 1606.26 3.59022 -1.75906 0
M  V30 17184 H 1607.7 4.14722 -0.88214 0
M  V30 17185 C 1606.16 3.34848 0.37124 0
M  V30 17186 O 1606.69 3.77012 1.38654 0
M  V30 17187 N 1604.9 2.87979 0.389441 0
M  V30 17188 H 1604.44 2.53861 -0.437293 0
M  V30 17189 H 1604.4 2.88165 1.25731 0
M  V30 17190 N 1608.17 1.14759 1.0802 0
M  V30 17191 C 1609.45 0.828957 1.77166 0
M  V30 17192 C 1609.83 -0.676783 1.99957 0
M  V30 17193 O 1609.18 -1.61891 1.61256 0
M  V30 17194 C 1609.39 1.63213 3.08484 0
M  V30 17195 C 1610.74 1.834 3.82948 0
M  V30 17196 O 1611.76 1.59932 3.18277 0
M  V30 17197 O 1610.62 2.22661 4.99083 0
M  V30 17198 H 1607.71 0.304168 0.769032 0
M  V30 17199 H 1610.26 1.253 1.14446 0
M  V30 17200 H 1609.03 2.65474 2.8747 0
M  V30 17201 H 1608.65 1.20397 3.78933 0
M  V30 17202 N 1609.65 -1.26251 0.943322 0
M  V30 17203 C 1610.88 -1.97452 0.607969 0
M  V30 17204 C 1611.29 -1.70422 -0.82177 0
M  V30 17205 O 1610.63 -0.970323 -1.55982 0
M  V30 17206 C 1610.69 -3.51092 0.772938 0
M  V30 17207 C 1610.36 -4.01777 2.17771 0
M  V30 17208 C 1611.35 -4.1335 3.15338 0
M  V30 17209 C 1609.04 -4.35732 2.49886 0
M  V30 17210 C 1611.03 -4.58175 4.43119 0
M  V30 17211 C 1608.72 -4.80245 3.779 0
M  V30 17212 C 1609.72 -4.91427 4.74329 0
M  V30 17213 O 1609.41 -5.34958 6.00063 0
M  V30 17214 H 1609.14 -0.636465 0.227791 0
M  V30 17215 H 1611.69 -1.61671 1.26695 0
M  V30 17216 H 1609.92 -3.86658 0.0568252 0
M  V30 17217 H 1611.61 -4.03505 0.440326 0
M  V30 17218 H 1612.38 -3.87361 2.91851 0
M  V30 17219 H 1608.26 -4.26261 1.75563 0
M  V30 17220 H 1611.8 -4.66818 5.18389 0
M  V30 17221 H 1607.7 -5.05678 4.01198 0
M  V30 17222 H 1608.47 -5.53173 6.03276 0
M  V30 17223 N 1611.13 -0.710588 -1.40671 0
M  V30 17224 C 1612.06 -0.00399749 -2.282 0
M  V30 17225 C 1613.04 0.772757 -1.43064 0
M  V30 17226 O 1614.22 0.760441 -1.72481 0
M  V30 17227 C 1611.35 1.00173 -3.23548 0
M  V30 17228 C 1610.4 0.316378 -4.25325 0
M  V30 17229 S 1611.23 -0.952126 -5.26968 0
M  V30 17230 C 1612.39 0.0516252 -6.25879 0
M  V30 17231 H 1612.62 -0.746334 -2.8778 0
M  V30 17232 H 1610.15 -0.50142 -1.46031 0
M  V30 17233 H 1612.11 1.57679 -3.79009 0
M  V30 17234 H 1610.77 1.71674 -2.63034 0
M  V30 17235 H 1609.96 1.07649 -4.92369 0
M  V30 17236 H 1609.57 -0.185995 -3.73537 0
M  V30 17237 H 1611.86 0.900088 -6.71494 0
M  V30 17238 H 1612.8 -0.585297 -7.05677 0
M  V30 17239 H 1613.21 0.413117 -5.62986 0
M  V30 17240 N 1612.61 1.50847 -0.456408 0
M  V30 17241 C 1613.83 2.07139 0.104054 0
M  V30 17242 C 1614.26 1.31966 1.34039 0
M  V30 17243 O 1613.62 0.363038 1.77628 0
M  V30 17244 C 1613.66 3.5853 0.385794 0
M  V30 17245 O 1612.77 3.85351 1.46895 0
M  V30 17246 H 1612.11 0.663968 -0.00651246 0
M  V30 17247 H 1614.64 1.94226 -0.64323 0
M  V30 17248 H 1614.65 4.03097 0.630644 0
M  V30 17249 H 1613.32 4.12665 -0.51773 0
M  V30 17250 H 1611.9 3.52635 1.21256 0
M  V30 17251 N 1614.09 0.188454 1.56469 0
M  V30 17252 C 1615.33 -0.452058 1.9739 0
M  V30 17253 C 1615.66 -1.62086 1.0751 0
M  V30 17254 O 1614.92 -1.95375 0.11278 0
M  V30 17255 C 1615.21 -0.960652 3.44247 0
M  V30 17256 C 1614.88 0.0940708 4.50802 0
M  V30 17257 C 1613.54 0.383899 4.79666 0
M  V30 17258 C 1615.89 0.80908 5.14882 0
M  V30 17259 C 1613.22 1.39383 5.69903 0
M  V30 17260 C 1615.57 1.80811 6.0621 0
M  V30 17261 C 1614.24 2.10521 6.33433 0
M  V30 17262 H 1613.51 -0.16542 0.7223 0
M  V30 17263 H 1616.16 0.284024 1.89382 0
M  V30 17264 H 1614.46 -1.77488 3.49292 0
M  V30 17265 H 1616.16 -1.46553 3.7326 0
M  V30 17266 H 1612.75 -0.141993 4.28365 0
M  V30 17267 H 1616.93 0.598391 4.92679 0
M  V30 17268 H 1612.19 1.63 5.89272 0
M  V30 17269 H 1616.36 2.36742 6.54925 0
M  V30 17270 H 1613.99 2.88924 7.03155 0
M  V30 17271 N 1615.56 -1.5737 -0.0851874 0
M  V30 17272 C 1616.81 -1.85772 -0.785604 0
M  V30 17273 C 1617.13 -0.779172 -1.79411 0
M  V30 17274 O 1618.33 -0.950621 -2.54314 0
M  V30 17275 C 1616.79 -3.29484 -1.44805 0
M  V30 17276 C 1616.4 -4.45434 -0.478799 0
M  V30 17277 C 1618.14 -3.671 -2.13161 0
M  V30 17278 C 1616.05 -5.80183 -1.1464 0
M  V30 17279 H 1614.98 -0.69298 -0.297145 0
M  V30 17280 H 1617.63 -1.83459 -0.0386776 0
M  V30 17281 H 1616.01 -3.26367 -2.24278 0
M  V30 17282 H 1617.18 -4.59917 0.285148 0
M  V30 17283 H 1615.5 -4.16281 0.0995964 0
M  V30 17284 H 1618.1 -4.65061 -2.6386 0
M  V30 17285 H 1618.44 -2.96223 -2.92503 0
M  V30 17286 H 1618.97 -3.72148 -1.40536 0
M  V30 17287 H 1615.71 -6.54317 -0.393583 0
M  V30 17288 H 1615.23 -5.69525 -1.88153 0
M  V30 17289 H 1616.91 -6.25074 -1.67006 0
M  V30 17290 N 1617.04 0.356258 -1.53521 0
M  V30 17291 C 1617.99 1.45718 -1.81298 0
M  V30 17292 C 1618.98 1.55036 -0.682652 0
M  V30 17293 O 1620.19 1.57812 -0.865766 0
M  V30 17294 H 1616.56 0.485614 -0.57418 0
M  V30 17295 H 1618.54 1.19498 -2.73428 0
M  V30 17296 C 1617.28 2.82424 -2.0281 0
M  V30 17297 H 1616.61 2.76016 -2.89232 0
M  V30 17298 H 1618.05 3.5861 -2.26218 0
M  V30 17299 C 1616.51 3.2702 -0.809893 0
M  V30 17300 O 1617.04 4.017 -0.00310668 0
M  V30 17301 N 1615.24 2.83673 -0.630696 0
M  V30 17302 H 1614.79 2.23066 -1.28839 0
M  V30 17303 H 1614.75 3.13867 0.182961 0
M  V30 17304 N 1618.52 1.45038 0.616577 0
M  V30 17305 C 1619.47 1.53343 1.74896 0
M  V30 17306 C 1620.46 0.404033 1.64511 0
M  V30 17307 O 1621.67 0.57958 1.70414 0
M  V30 17308 H 1618.04 0.481471 0.577658 0
M  V30 17309 H 1620.01 2.4862 1.65017 0
M  V30 17310 C 1618.76 1.50871 3.13262 0
M  V30 17311 H 1618.09 2.37098 3.21908 0
M  V30 17312 H 1619.53 1.60741 3.9235 0
M  V30 17313 C 1617.98 0.231704 3.36102 0
M  V30 17314 O 1618.51 -0.692154 3.95692 0
M  V30 17315 N 1616.72 0.130232 2.90308 0
M  V30 17316 H 1616.27 0.882893 2.41997 0
M  V30 17317 H 1616.23 -0.723403 3.05964 0
M  V30 17318 N 1620 -0.858287 1.32179 0
M  V30 17319 C 1621.41 -1.4281 1.20259 0
M  V30 17320 C 1621.76 -1.95313 -0.186332 0
M  V30 17321 O 1620.88 -1.87244 -1.08484 0
M  V30 17322 C 1621.48 -2.59589 2.17713 0
M  V30 17323 C 1620.04 -3.1258 2.09691 0
M  V30 17324 C 1619.19 -1.85317 2.06283 0
M  V30 17325 H 1622.14 -0.665769 1.4406 0
M  V30 17326 H 1622.16 -3.36639 1.77354 0
M  V30 17327 H 1621.67 -2.21346 3.18791 0
M  V30 17328 H 1619.77 -3.55416 1.11849 0
M  V30 17329 H 1619.88 -3.74071 2.99346 0
M  V30 17330 H 1618.25 -2.04766 1.51469 0
M  V30 17331 H 1619.03 -1.49296 3.09137 0
M  V30 17332 N 1621.48 -1.1533 -1.07409 0
M  V30 17333 C 1622.7 -0.952101 -1.84255 0
M  V30 17334 C 1623.13 0.494571 -1.81482 0
M  V30 17335 O 1622.48 1.35253 -1.20733 0
M  V30 17336 C 1622.53 -1.47019 -3.29268 0
M  V30 17337 O 1621.64 -0.669005 -4.06937 0
M  V30 17338 H 1620.98 -0.339643 -0.57056 0
M  V30 17339 H 1623.51 -1.53298 -1.35502 0
M  V30 17340 H 1623.52 -1.48278 -3.80102 0
M  V30 17341 H 1622.19 -2.5234 -3.30602 0
M  V30 17342 H 1620.77 -0.726003 -3.65764 0
M  V30 17343 N 1622.95 1.25748 -0.950004 0
M  V30 17344 C 1623.88 2.28419 -0.484467 0
M  V30 17345 C 1624.86 1.63569 0.466813 0
M  V30 17346 O 1626.05 1.90705 0.366766 0
M  V30 17347 C 1623.18 3.46449 0.242916 0
M  V30 17348 C 1622.13 4.23447 -0.622657 0
M  V30 17349 C 1621.46 5.34182 0.235199 0
M  V30 17350 C 1622.76 4.86576 -1.89845 0
M  V30 17351 H 1624.45 2.6761 -1.34257 0
M  V30 17352 H 1622 1.28646 -0.647014 0
M  V30 17353 H 1623.95 4.17394 0.579693 0
M  V30 17354 H 1622.68 3.06235 1.13523 0
M  V30 17355 H 1621.34 3.54279 -0.942453 0
M  V30 17356 H 1620.98 4.90209 1.12713 0
M  V30 17357 H 1620.68 5.86612 -0.340609 0
M  V30 17358 H 1622.21 6.07961 0.567048 0
M  V30 17359 H 1623.62 5.49688 -1.62837 0
M  V30 17360 H 1622.02 5.49162 -2.41954 0
M  V30 17361 H 1623.09 4.09021 -2.60441 0
M  V30 17362 N 1624.43 0.718038 1.40292 0
M  V30 17363 C 1625.66 0.268326 2.05153 0
M  V30 17364 C 1626.07 -1.09075 1.54104 0
M  V30 17365 O 1625.43 -1.68597 0.698654 0
M  V30 17366 C 1625.48 0.242222 3.60688 0
M  V30 17367 O 1625.2 1.54764 4.09853 0
M  V30 17368 C 1626.7 -0.225741 4.42725 0
M  V30 17369 H 1623.92 0.120165 0.660153 0
M  V30 17370 H 1626.47 0.976933 1.79656 0
M  V30 17371 H 1624.62 -0.417367 3.85145 0
M  V30 17372 H 1625.04 1.44976 5.04066 0
M  V30 17373 H 1626.51 -0.192857 5.51663 0
M  V30 17374 H 1626.99 -1.26829 4.20489 0
M  V30 17375 H 1627.59 0.40366 4.2338 0
M  V30 17376 N 1625.91 -1.50602 0.464402 0
M  V30 17377 C 1627.16 -2.02587 -0.0930295 0
M  V30 17378 C 1627.49 -1.34618 -1.3997 0
M  V30 17379 O 1626.76 -0.469711 -1.88743 0
M  V30 17380 C 1627.05 -3.5898 -0.283783 0
M  V30 17381 C 1626.9 -4.3753 1.04344 0
M  V30 17382 C 1628.22 -4.27602 -1.04138 0
M  V30 17383 H 1625.34 -0.73629 -0.0323356 0
M  V30 17384 H 1627.98 -1.79986 0.608687 0
M  V30 17385 H 1626.13 -3.78368 -0.881488 0
M  V30 17386 H 1627.8 -4.29729 1.67721 0
M  V30 17387 H 1626.05 -4.01536 1.64168 0
M  V30 17388 H 1626.72 -5.45201 0.863691 0
M  V30 17389 H 1629.19 -4.12649 -0.534822 0
M  V30 17390 H 1628.07 -5.36854 -1.14364 0
M  V30 17391 H 1628.33 -3.9031 -2.0763 0
M  V30 17392 N 1627.39 -0.19675 -1.56367 0
M  V30 17393 C 1628.62 0.447139 -2.02011 0
M  V30 17394 C 1629.03 1.55077 -1.07687 0
M  V30 17395 O 1628.39 1.82316 -0.0820316 0
M  V30 17396 C 1628.44 1.00192 -3.47338 0
M  V30 17397 O 1628.16 -0.0576859 -4.38062 0
M  V30 17398 C 1629.66 1.72152 -4.08508 0
M  V30 17399 H 1626.88 0.112088 -0.661572 0
M  V30 17400 H 1629.43 -0.30594 -2.02199 0
M  V30 17401 H 1627.58 1.70537 -3.47844 0
M  V30 17402 H 1627.99 0.355508 -5.23294 0
M  V30 17403 H 1629.47 2.06199 -5.12041 0
M  V30 17404 H 1629.95 2.62581 -3.52062 0
M  V30 17405 H 1630.55 1.06388 -4.11779 0
M  V30 17406 N 1628.87 1.57413 0.0768405 0
M  V30 17407 C 1630.11 1.87279 0.778099 0
M  V30 17408 C 1630.45 0.788359 1.77478 0
M  V30 17409 O 1629.72 -0.201876 1.9345 0
M  V30 17410 C 1630 3.27801 1.49059 0
M  V30 17411 C 1629.86 4.46892 0.510661 0
M  V30 17412 C 1631.18 3.66485 2.43674 0
M  V30 17413 H 1628.29 0.681159 0.281409 0
M  V30 17414 H 1630.94 1.89955 0.0413711 0
M  V30 17415 H 1629.09 3.2565 2.11859 0
M  V30 17416 H 1630.76 4.61165 -0.111734 0
M  V30 17417 H 1629 4.33449 -0.174445 0
M  V30 17418 H 1629.67 5.41985 1.04671 0
M  V30 17419 H 1632.15 3.69696 1.90955 0
M  V30 17420 H 1631.02 4.65706 2.90533 0
M  V30 17421 H 1631.29 2.96145 3.28254 0
M  V30 17422 N 1630.34 -0.348112 1.53707 0
M  V30 17423 C 1631.76 -0.923978 1.62233 0
M  V30 17424 C 1632.11 -1.89702 0.500744 0
M  V30 17425 O 1631.23 -2.1321 -0.370212 0
M  V30 17426 C 1631.83 -1.68261 2.94064 0
M  V30 17427 C 1630.39 -2.20755 3.04867 0
M  V30 17428 C 1629.53 -1.02526 2.5765 0
M  V30 17429 H 1632.48 -0.126381 1.58196 0
M  V30 17430 H 1632.5 -2.54514 2.82848 0
M  V30 17431 H 1632.02 -0.974155 3.75675 0
M  V30 17432 H 1630.12 -2.9479 2.27881 0
M  V30 17433 H 1630.23 -2.47439 4.10257 0
M  V30 17434 H 1628.59 -1.39735 2.12947 0
M  V30 17435 H 1629.38 -0.331521 3.41696 0
M  V30 17436 N 1631.82 -1.45363 -0.608876 0
M  V30 17437 C 1633.07 -1.48586 -1.364 0
M  V30 17438 C 1633.38 -0.131213 -1.95159 0
M  V30 17439 O 1634.59 -0.0410845 -2.71469 0
M  V30 17440 C 1633.05 -2.61694 -2.47071 0
M  V30 17441 C 1632.65 -4.03466 -1.94729 0
M  V30 17442 C 1634.4 -2.74162 -3.24091 0
M  V30 17443 C 1632.31 -5.07958 -3.02874 0
M  V30 17444 H 1631.24 -0.552893 -0.512665 0
M  V30 17445 H 1633.89 -1.71499 -0.65271 0
M  V30 17446 H 1632.27 -2.32062 -3.20879 0
M  V30 17447 H 1633.44 -4.4277 -1.27638 0
M  V30 17448 H 1631.76 -3.95436 -1.30457 0
M  V30 17449 H 1634.35 -3.494 -4.04752 0
M  V30 17450 H 1634.7 -1.80751 -3.75013 0
M  V30 17451 H 1635.23 -3.03313 -2.57383 0
M  V30 17452 H 1631.97 -6.03073 -2.56871 0
M  V30 17453 H 1631.49 -4.73225 -3.68535 0
M  V30 17454 H 1633.17 -5.3265 -3.67277 0
M  V30 17455 N 1633.3 0.851265 -1.32632 0
M  V30 17456 C 1634.26 1.94168 -1.21785 0
M  V30 17457 C 1635.26 1.60189 -0.140023 0
M  V30 17458 O 1636.45 1.69763 -0.390671 0
M  V30 17459 C 1633.59 3.29513 -0.873717 0
M  V30 17460 H 1634.78 2.05214 -2.18695 0
M  V30 17461 H 1632.33 1.04186 -1.16512 0
M  V30 17462 H 1633.07 3.24165 0.0934202 0
M  V30 17463 H 1632.85 3.55552 -1.65302 0
M  V30 17464 H 1634.34 4.09425 -0.822231 0
M  V30 17465 N 1634.78 1.15898 1.06796 0
M  V30 17466 C 1636.02 0.938728 1.79766 0
M  V30 17467 C 1636.36 -0.53249 1.86757 0
M  V30 17468 O 1635.63 -1.39492 1.35544 0
M  V30 17469 C 1635.92 1.56062 3.24525 0
M  V30 17470 C 1635.77 3.10283 3.25645 0
M  V30 17471 C 1637.09 1.25108 4.21943 0
M  V30 17472 H 1634.21 0.342451 0.652607 0
M  V30 17473 H 1636.85 1.4315 1.24933 0
M  V30 17474 H 1635 1.14158 3.71349 0
M  V30 17475 H 1636.67 3.61132 2.87021 0
M  V30 17476 H 1634.91 3.43879 2.64443 0
M  V30 17477 H 1635.58 3.48913 4.27743 0
M  V30 17478 H 1638.06 1.61364 3.83537 0
M  V30 17479 H 1636.94 1.7123 5.21509 0
M  V30 17480 H 1637.2 0.169043 4.41777 0
M  V30 17481 N 1636.26 -1.25243 0.956659 0
M  V30 17482 C 1637.5 -1.92632 0.611328 0
M  V30 17483 C 1637.83 -1.75272 -0.85467 0
M  V30 17484 O 1637.1 -1.11758 -1.60894 0
M  V30 17485 H 1635.68 -0.712904 0.223109 0
M  V30 17486 H 1638.34 -1.52366 1.21534 0
M  V30 17487 H 1637.43 -3.00516 0.842396 0
M  V30 17488 N 1637.73 -0.725468 -1.3991 0
M  V30 17489 C 1638.64 -0.0805887 -2.34462 0
M  V30 17490 C 1639.66 0.732689 -1.57822 0
M  V30 17491 O 1640.84 0.663362 -1.90162 0
M  V30 17492 C 1637.9 0.822908 -3.36792 0
M  V30 17493 C 1636.96 -0.00153812 -4.293 0
M  V30 17494 C 1636.2 0.85893 -5.26743 0
M  V30 17495 O 1636.42 2.09793 -5.30418 0
M  V30 17496 O 1635.35 0.292659 -6.01188 0
M  V30 17497 H 1639.18 -0.860746 -2.91247 0
M  V30 17498 H 1636.76 -0.48604 -1.41273 0
M  V30 17499 H 1638.65 1.34014 -3.99522 0
M  V30 17500 H 1637.32 1.58204 -2.82406 0
M  V30 17501 H 1636.23 -0.564072 -3.69823 0
M  V30 17502 H 1637.56 -0.722675 -4.86866 0
M  V30 17503 N 1639.21 1.50354 -0.472382 0
M  V30 17504 C 1640.44 2.07238 0.0820787 0
M  V30 17505 C 1640.86 1.3338 1.32632 0
M  V30 17506 O 1640.22 0.381857 1.77233 0
M  V30 17507 C 1640.27 3.58919 0.347746 0
M  V30 17508 O 1639.37 3.86888 1.42799 0
M  V30 17509 H 1638.71 0.663862 -0.0135544 0
M  V30 17510 H 1641.24 1.93533 -0.663795 0
M  V30 17511 H 1641.25 4.03743 0.587855 0
M  V30 17512 H 1639.93 4.12093 -0.56147 0
M  V30 17513 H 1638.51 3.53901 1.17509 0
M  V30 17514 N 1640.69 0.205039 1.56261 0
M  V30 17515 C 1641.97 -0.479238 1.89638 0
M  V30 17516 C 1642.35 -1.78938 1.12002 0
M  V30 17517 O 1641.7 -2.27398 0.224179 0
M  V30 17518 C 1641.91 -0.688324 3.42145 0
M  V30 17519 C 1643.25 -1.00322 4.12578 0
M  V30 17520 O 1644.28 -0.775697 3.47651 0
M  V30 17521 O 1643.14 -1.43412 5.27347 0
M  V30 17522 H 1640.23 -0.251125 0.78795 0
M  V30 17523 H 1642.78 0.245994 1.67908 0
M  V30 17524 H 1641.55 0.236479 3.90585 0
M  V30 17525 H 1641.17 -1.46565 3.696 0
M  V30 17526 N 1642.17 -1.57451 -0.0684915 0
M  V30 17527 C 1643.42 -1.87411 -0.76702 0
M  V30 17528 C 1643.74 -0.797219 -1.77411 0
M  V30 17529 O 1643 0.206424 -1.94608 0
M  V30 17530 C 1643.3 -3.24044 -1.50765 0
M  V30 17531 C 1642.96 -4.46331 -0.640238 0
M  V30 17532 C 1641.63 -4.79525 -0.401205 0
M  V30 17533 C 1643.98 -5.21185 -0.0389475 0
M  V30 17534 C 1641.31 -5.84983 0.448547 0
M  V30 17535 C 1643.66 -6.27543 0.798278 0
M  V30 17536 C 1642.32 -6.59235 1.04715 0
M  V30 17537 H 1641.59 -0.685787 -0.280673 0
M  V30 17538 H 1644.24 -1.9148 -0.0277143 0
M  V30 17539 H 1642.54 -3.15782 -2.31925 0
M  V30 17540 H 1644.24 -3.44461 -2.05299 0
M  V30 17541 H 1640.83 -4.20354 -0.836675 0
M  V30 17542 H 1645.02 -4.95852 -0.210729 0
M  V30 17543 H 1640.27 -6.07934 0.650077 0
M  V30 17544 H 1644.45 -6.84705 1.27092 0
M  V30 17545 H 1642.07 -7.40779 1.70737 0
M  V30 17546 N 1643.65 0.339955 -1.5389 0
M  V30 17547 C 1644.56 1.441 -1.85128 0
M  V30 17548 C 1645.57 1.57399 -0.741733 0
M  V30 17549 O 1646.75 1.72807 -1.0344 0
M  V30 17550 C 1643.81 2.7904 -2.05761 0
M  V30 17551 C 1642.88 2.75055 -3.29611 0
M  V30 17552 C 1642.11 4.0356 -3.4925 0
M  V30 17553 O 1642.33 5.01015 -2.72653 0
M  V30 17554 O 1641.27 4.07813 -4.42687 0
M  V30 17555 H 1645.09 1.20616 -2.78721 0
M  V30 17556 H 1642.68 0.532468 -1.39589 0
M  V30 17557 H 1644.56 3.5895 -2.20756 0
M  V30 17558 H 1643.23 3.02447 -1.15357 0
M  V30 17559 H 1642.14 1.93753 -3.20016 0
M  V30 17560 H 1643.47 2.56602 -4.20019 0
M  V30 17561 N 1645.13 1.45684 0.601159 0
M  V30 17562 C 1646.07 1.55189 1.7326 0
M  V30 17563 C 1647.07 0.421459 1.64073 0
M  V30 17564 O 1648.27 0.597622 1.6979 0
M  V30 17565 H 1644.65 0.487571 0.572519 0
M  V30 17566 H 1646.62 2.50357 1.6237 0
M  V30 17567 C 1645.37 1.54185 3.11644 0
M  V30 17568 H 1644.69 2.40498 3.19375 0
M  V30 17569 H 1646.13 1.64893 3.90623 0
M  V30 17570 C 1644.59 0.267339 3.35838 0
M  V30 17571 O 1645.12 -0.650146 3.96404 0
M  V30 17572 N 1643.33 0.161015 2.90154 0
M  V30 17573 H 1642.87 0.90851 2.41047 0
M  V30 17574 H 1642.83 -0.690911 3.06714 0
M  V30 17575 N 1646.6 -0.84422 1.33082 0
M  V30 17576 C 1647.53 -1.96899 1.25511 0
M  V30 17577 C 1648.51 -1.69549 0.13677 0
M  V30 17578 O 1649.7 -1.9145 0.325667 0
M  V30 17579 C 1646.83 -3.32947 0.988094 0
M  V30 17580 C 1645.78 -3.7468 2.06879 0
M  V30 17581 C 1645.11 -5.08475 1.65401 0
M  V30 17582 C 1646.41 -3.89033 3.48498 0
M  V30 17583 H 1648.1 -2.03491 2.19617 0
M  V30 17584 H 1645.65 -0.977659 1.05725 0
M  V30 17585 H 1647.6 -4.11198 0.921645 0
M  V30 17586 H 1646.33 -3.26598 0.0114067 0
M  V30 17587 H 1644.99 -2.98689 2.12557 0
M  V30 17588 H 1644.63 -4.98592 0.66449 0
M  V30 17589 H 1644.33 -5.37368 2.37717 0
M  V30 17590 H 1645.86 -5.89207 1.60212 0
M  V30 17591 H 1647.27 -4.57609 3.4535 0
M  V30 17592 H 1645.67 -4.29357 4.19253 0
M  V30 17593 H 1646.74 -2.91639 3.87395 0
M  V30 17594 N 1648.08 -1.16463 -1.0618 0
M  V30 17595 C 1649.03 -0.868264 -2.15787 0
M  V30 17596 C 1650.02 0.163135 -1.68613 0
M  V30 17597 O 1651.23 0.0170117 -1.79992 0
M  V30 17598 H 1647.6 -0.263184 -0.704442 0
M  V30 17599 H 1649.58 -1.80005 -2.37993 0
M  V30 17600 C 1648.32 -0.387052 -3.45539 0
M  V30 17601 H 1647.65 -1.17212 -3.82232 0
M  V30 17602 H 1649.09 -0.218471 -4.23437 0
M  V30 17603 C 1647.55 0.893588 -3.24833 0
M  V30 17604 O 1648.08 1.96259 -3.50493 0
M  V30 17605 N 1646.28 0.8378 -2.78261 0
M  V30 17606 H 1645.83 -0.0323251 -2.5758 0
M  V30 17607 H 1645.79 1.69515 -2.64787 0
M  V30 17608 N 1649.56 1.24734 -0.963288 0
M  V30 17609 C 1650.79 1.96745 -0.640234 0
M  V30 17610 C 1651.2 1.71503 0.789445 0
M  V30 17611 O 1650.56 0.996174 1.52914 0
M  V30 17612 C 1650.61 3.50118 -0.899987 0
M  V30 17613 O 1650.33 3.74494 -2.27346 0
M  V30 17614 C 1651.83 4.39349 -0.590511 0
M  V30 17615 H 1649.05 0.626892 -0.239266 0
M  V30 17616 H 1651.6 1.58678 -1.29002 0
M  V30 17617 H 1649.75 3.86264 -0.296478 0
M  V30 17618 H 1650.17 4.68902 -2.35013 0
M  V30 17619 H 1651.64 5.45834 -0.822744 0
M  V30 17620 H 1652.12 4.36622 0.475138 0
M  V30 17621 H 1652.72 4.08783 -1.17373 0
M  V30 17622 N 1651.04 0.732878 1.39523 0
M  V30 17623 C 1651.95 0.0930216 2.34416 0
M  V30 17624 C 1652.96 -0.724309 1.58208 0
M  V30 17625 O 1654.14 -0.653267 1.90511 0
M  V30 17626 C 1651.2 -0.805036 3.37224 0
M  V30 17627 C 1650.27 0.0243049 4.29293 0
M  V30 17628 C 1649.5 -0.830984 5.27191 0
M  V30 17629 O 1649.72 -2.06977 5.31523 0
M  V30 17630 O 1648.66 -0.260772 6.01335 0
M  V30 17631 H 1652.48 0.876179 2.90786 0
M  V30 17632 H 1650.07 0.493525 1.41013 0
M  V30 17633 H 1651.95 -1.31894 4.00228 0
M  V30 17634 H 1650.62 -1.56704 2.83241 0
M  V30 17635 H 1649.53 0.583677 3.69519 0
M  V30 17636 H 1650.86 0.748485 4.86476 0
M  V30 17637 N 1652.52 -1.50101 0.480349 0
M  V30 17638 C 1653.43 -2.32488 -0.31408 0
M  V30 17639 C 1654.44 -1.43285 -0.987186 0
M  V30 17640 O 1655.62 -1.7633 -0.973123 0
M  V30 17641 C 1652.68 -3.18203 -1.37651 0
M  V30 17642 C 1651.74 -4.23236 -0.71903 0
M  V30 17643 C 1650.98 -5.04854 -1.73084 0
M  V30 17644 O 1651.2 -4.87681 -2.95843 0
M  V30 17645 O 1650.13 -5.87748 -1.29755 0
M  V30 17646 H 1653.96 -3.01562 0.3597 0
M  V30 17647 H 1651.54 -1.47427 0.242029 0
M  V30 17648 H 1653.43 -3.71362 -1.9917 0
M  V30 17649 H 1652.1 -2.51846 -2.0336 0
M  V30 17650 H 1651.01 -3.74044 -0.0646492 0
M  V30 17651 H 1652.34 -4.92089 -0.104743 0
M  V30 17652 N 1653.99 -0.213323 -1.5615 0
M  V30 17653 C 1655.24 0.420598 -1.98084 0
M  V30 17654 C 1655.57 1.60355 -1.10075 0
M  V30 17655 O 1654.82 1.95171 -0.143848 0
M  V30 17656 C 1655.12 0.905764 -3.45732 0
M  V30 17657 C 1654.79 -0.165778 -4.50595 0
M  V30 17658 C 1653.45 -0.460161 -4.78995 0
M  V30 17659 C 1655.8 -0.890891 -5.1353 0
M  V30 17660 C 1653.13 -1.48432 -5.67613 0
M  V30 17661 C 1655.48 -1.90433 -6.03256 0
M  V30 17662 C 1654.15 -2.20572 -6.30004 0
M  V30 17663 H 1653.42 0.153908 -0.72484 0
M  V30 17664 H 1656.06 -0.314117 -1.88906 0
M  V30 17665 H 1654.37 1.71909 -3.52072 0
M  V30 17666 H 1656.07 1.40596 -3.75545 0
M  V30 17667 H 1652.66 0.0738261 -4.28536 0
M  V30 17668 H 1656.84 -0.676696 -4.91665 0
M  V30 17669 H 1652.1 -1.72354 -5.86604 0
M  V30 17670 H 1656.27 -2.47131 -6.51075 0
M  V30 17671 H 1653.9 -3.00074 -6.9847 0
M  V30 17672 N 1655.47 1.57485 0.0601405 0
M  V30 17673 C 1656.7 1.92438 0.773466 0
M  V30 17674 C 1657.12 0.810755 1.6973 0
M  V30 17675 O 1656.48 -0.235697 1.79761 0
M  V30 17676 C 1656.53 3.26381 1.53323 0
M  V30 17677 O 1655.63 3.16436 2.64465 0
M  V30 17678 H 1654.97 0.629838 0.210239 0
M  V30 17679 H 1657.5 2.04585 0.0248981 0
M  V30 17680 H 1657.51 3.60534 1.90996 0
M  V30 17681 H 1656.19 4.07007 0.855468 0
M  V30 17682 H 1654.77 2.93862 2.29564 0
M  V30 17683 N 1656.95 -0.331789 1.54068 0
M  V30 17684 C 1658.18 -1.09484 1.76148 0
M  V30 17685 C 1658.6 -1.81201 0.504772 0
M  V30 17686 O 1657.96 -1.7297 -0.54325 0
M  V30 17687 C 1658.01 -2.07495 2.94921 0
M  V30 17688 O 1657.11 -3.15239 2.65891 0
M  V30 17689 H 1656.45 -0.316071 0.583948 0
M  V30 17690 H 1658.98 -0.378593 2.01067 0
M  V30 17691 H 1658.99 -2.5051 3.22038 0
M  V30 17692 H 1657.67 -1.54696 3.8606 0
M  V30 17693 H 1656.24 -2.76958 2.49697 0
M  V30 17694 N 1658.43 -1.46001 -0.593424 0
M  V30 17695 C 1659.34 -1.58316 -1.73128 0
M  V30 17696 C 1660.35 -0.467029 -1.67615 0
M  V30 17697 O 1661.53 -0.729682 -1.87717 0
M  V30 17698 C 1658.6 -1.56007 -3.09617 0
M  V30 17699 C 1657.66 -2.78769 -3.26475 0
M  V30 17700 C 1656.89 -2.76561 -4.56453 0
M  V30 17701 O 1657.11 -1.84694 -5.39671 0
M  V30 17702 O 1656.05 -3.67959 -4.76329 0
M  V30 17703 H 1659.87 -2.54522 -1.65686 0
M  V30 17704 H 1657.46 -1.28672 -0.759204 0
M  V30 17705 H 1659.34 -1.57377 -3.9091 0
M  V30 17706 H 1658.01 -0.629571 -3.17519 0
M  V30 17707 H 1656.92 -2.82956 -2.44717 0
M  V30 17708 H 1658.25 -3.70992 -3.23459 0
M  V30 17709 N 1659.91 0.83715 -1.33527 0
M  V30 17710 C 1661.13 1.62976 -1.28271 0
M  V30 17711 C 1661.56 1.87554 0.143201 0
M  V30 17712 O 1660.91 1.44088 1.10038 0
M  V30 17713 C 1660.96 2.95607 -2.06516 0
M  V30 17714 O 1660.07 3.87 -1.42494 0
M  V30 17715 H 1659.41 0.496212 -0.441214 0
M  V30 17716 H 1661.94 1.04137 -1.76115 0
M  V30 17717 H 1661.95 3.4529 -2.17344 0
M  V30 17718 H 1660.62 2.77041 -3.10195 0
M  V30 17719 H 1659.2 3.45492 -1.40321 0
M  V30 17720 N 1661.38 1.17024 1.05561 0
M  V30 17721 C 1662.29 0.898107 2.16728 0
M  V30 17722 C 1663.31 -0.132369 1.73496 0
M  V30 17723 O 1664.49 0.0460203 2.01347 0
M  V30 17724 C 1661.55 0.411091 3.44254 0
M  V30 17725 C 1660.61 1.5077 4.01954 0
M  V30 17726 C 1659.85 1.04383 5.23393 0
M  V30 17727 O 1660.07 -0.10351 5.70306 0
M  V30 17728 O 1659 1.8353 5.73237 0
M  V30 17729 H 1662.83 1.82791 2.42531 0
M  V30 17730 H 1660.41 0.950816 1.15238 0
M  V30 17731 H 1662.3 0.146837 4.21144 0
M  V30 17732 H 1660.97 -0.490605 3.19961 0
M  V30 17733 H 1659.88 1.82579 3.26521 0
M  V30 17734 H 1661.21 2.38497 4.30558 0
M  V30 17735 N 1662.86 -1.24221 0.969889 0
M  V30 17736 C 1663.79 -2.27619 0.520745 0
M  V30 17737 C 1664.77 -1.64291 -0.440731 0
M  V30 17738 O 1665.96 -1.91265 -0.336381 0
M  V30 17739 C 1663.09 -3.46792 -0.187768 0
M  V30 17740 C 1662.04 -4.22402 0.689945 0
M  V30 17741 C 1661.37 -5.34489 -0.150186 0
M  V30 17742 C 1662.67 -4.83494 1.97562 0
M  V30 17743 H 1664.36 -2.65441 1.38498 0
M  V30 17744 H 1661.91 -1.276 0.667398 0
M  V30 17745 H 1663.86 -4.18263 -0.513216 0
M  V30 17746 H 1662.59 -3.08002 -1.08637 0
M  V30 17747 H 1661.24 -3.52734 0.998696 0
M  V30 17748 H 1660.89 -4.9194 -1.049 0
M  V30 17749 H 1660.59 -5.85996 0.433891 0
M  V30 17750 H 1662.12 -6.08786 -0.470255 0
M  V30 17751 H 1663.53 -5.47028 1.71561 0
M  V30 17752 H 1661.93 -5.45243 2.5066 0
M  V30 17753 H 1663 -4.04826 2.66915 0
M  V30 17754 N 1664.34 -0.740267 -1.39132 0
M  V30 17755 C 1665.25 -0.105452 -2.34363 0
M  V30 17756 C 1666.27 0.715908 -1.5859 0
M  V30 17757 O 1667.44 0.643155 -1.90855 0
M  V30 17758 C 1664.51 0.787141 -3.37646 0
M  V30 17759 C 1663.57 -0.047071 -4.29274 0
M  V30 17760 C 1662.8 0.803014 -5.27624 0
M  V30 17761 O 1663.02 2.04155 -5.32613 0
M  V30 17762 O 1661.96 0.228879 -6.01465 0
M  V30 17763 H 1665.78 -0.891588 -2.90318 0
M  V30 17764 H 1663.37 -0.500996 -1.40749 0
M  V30 17765 H 1665.25 1.29769 -4.00921 0
M  V30 17766 H 1663.93 1.552 -2.84068 0
M  V30 17767 H 1662.83 -0.603265 -3.69204 0
M  V30 17768 H 1664.17 -0.774273 -4.86072 0
M  V30 17769 N 1665.82 1.49844 -0.488302 0
M  V30 17770 C 1666.73 2.32651 0.301746 0
M  V30 17771 C 1667.74 1.43807 0.979573 0
M  V30 17772 O 1668.92 1.76844 0.963758 0
M  V30 17773 C 1665.99 3.18928 1.35962 0
M  V30 17774 C 1665.05 4.23611 0.696575 0
M  V30 17775 C 1664.28 5.05765 1.70404 0
M  V30 17776 O 1664.5 4.89243 2.93253 0
M  V30 17777 O 1663.44 5.88427 1.26637 0
M  V30 17778 H 1667.26 3.01367 -0.375687 0
M  V30 17779 H 1664.85 1.47296 -0.249844 0
M  V30 17780 H 1666.73 3.72413 1.97198 0
M  V30 17781 H 1665.4 2.52921 2.02021 0
M  V30 17782 H 1664.31 3.74073 0.0448118 0
M  V30 17783 H 1665.64 4.92137 0.0786446 0
M  V30 17784 N 1667.3 0.221601 1.56034 0
M  V30 17785 C 1668.52 -0.417979 2.03145 0
M  V30 17786 C 1668.95 -1.52556 1.10038 0
M  V30 17787 O 1668.3 -1.81084 0.0885729 0
M  V30 17788 C 1668.35 -0.926762 3.48487 0
M  V30 17789 O 1667.46 -2.03811 3.58518 0
M  V30 17790 H 1666.8 -0.0945778 0.65723 0
M  V30 17791 H 1669.33 0.340252 2.01751 0
M  V30 17792 H 1669.34 -1.23656 3.8881 0
M  V30 17793 H 1668.01 -0.116115 4.15738 0
M  V30 17794 H 1666.59 -1.73494 3.30082 0
M  V30 17795 N 1668.77 -1.57515 -0.0517878 0
M  V30 17796 C 1669.72 -2.05051 -1.05937 0
M  V30 17797 C 1670.69 -0.935032 -1.37282 0
M  V30 17798 O 1671.88 -1.20408 -1.48009 0
M  V30 17799 C 1669.02 -2.51594 -2.36208 0
M  V30 17800 C 1668.13 -3.76843 -2.11219 0
M  V30 17801 C 1667.26 -4.12088 -3.35197 0
M  V30 17802 C 1666.3 -5.30318 -3.05662 0
M  V30 17803 N 1665.44 -5.61104 -4.22026 0
M  V30 17804 H 1670.28 -2.90891 -0.647027 0
M  V30 17805 H 1667.82 -1.43842 -0.307891 0
M  V30 17806 H 1669.78 -2.76638 -3.12293 0
M  V30 17807 H 1668.41 -1.68704 -2.75207 0
M  V30 17808 H 1667.46 -3.5902 -1.25734 0
M  V30 17809 H 1668.77 -4.63057 -1.85416 0
M  V30 17810 H 1667.92 -4.38139 -4.19666 0
M  V30 17811 H 1666.66 -3.24479 -3.64094 0
M  V30 17812 H 1665.67 -5.04043 -2.19592 0
M  V30 17813 H 1666.89 -6.19561 -2.78067 0
M  V30 17814 H 1664.84 -4.76456 -4.50917 0
M  V30 17815 H 1664.76 -6.4178 -3.99568 0
M  V30 17816 H 1666.02 -5.91719 -5.07434 0
M  V30 17817 N 1670.25 0.323614 -1.54242 0
M  V30 17818 C 1671.16 1.42128 -1.86646 0
M  V30 17819 C 1672.18 1.56603 -0.758385 0
M  V30 17820 O 1673.36 1.717 -1.05267 0
M  V30 17821 C 1670.42 2.76842 -2.08709 0
M  V30 17822 C 1669.48 2.71543 -3.3251 0
M  V30 17823 C 1668.71 3.99833 -3.5351 0
M  V30 17824 O 1668.94 4.98095 -2.77952 0
M  V30 17825 O 1667.87 4.03095 -4.46988 0
M  V30 17826 H 1671.7 1.17653 -2.79985 0
M  V30 17827 H 1669.28 0.517632 -1.40146 0
M  V30 17828 H 1671.16 3.56588 -2.24551 0
M  V30 17829 H 1669.84 3.01207 -1.18558 0
M  V30 17830 H 1668.75 1.90348 -3.22053 0
M  V30 17831 H 1670.08 2.52133 -4.22717 0
M  V30 17832 N 1671.73 1.46313 0.585673 0
M  V30 17833 C 1672.68 1.56653 1.69495 0
M  V30 17834 C 1673.65 0.411007 1.60935 0
M  V30 17835 O 1674.83 0.627369 1.80191 0
M  V30 17836 C 1671.97 1.55996 3.0783 0
M  V30 17837 C 1671.09 2.82261 3.27036 0
M  V30 17838 C 1670.22 2.73129 4.55603 0
M  V30 17839 C 1669.26 3.94346 4.68143 0
M  V30 17840 N 1668.4 3.83617 5.88032 0
M  V30 17841 H 1673.24 2.51407 1.59995 0
M  V30 17842 H 1670.77 1.24729 0.779821 0
M  V30 17843 H 1672.73 1.53602 3.87895 0
M  V30 17844 H 1671.36 0.647766 3.16234 0
M  V30 17845 H 1670.41 2.94648 2.40596 0
M  V30 17846 H 1671.73 3.72107 3.32171 0
M  V30 17847 H 1670.88 2.68823 5.43893 0
M  V30 17848 H 1669.62 1.80917 4.52902 0
M  V30 17849 H 1668.62 3.98987 3.78272 0
M  V30 17850 H 1669.85 4.8765 4.72625 0
M  V30 17851 H 1667.8 2.9419 5.86334 0
M  V30 17852 H 1667.71 4.67117 5.94422 0
M  V30 17853 H 1668.98 3.83281 6.7876 0
M  V30 17854 N 1673.21 -0.830057 1.33969 0
M  V30 17855 C 1674.14 -1.95557 1.27592 0
M  V30 17856 C 1675.12 -1.69395 0.154745 0
M  V30 17857 O 1676.31 -1.91094 0.345954 0
M  V30 17858 C 1673.44 -3.31881 1.02335 0
M  V30 17859 C 1672.39 -3.72464 2.10842 0
M  V30 17860 C 1671.72 -5.06692 1.70785 0
M  V30 17861 C 1673.02 -3.85315 3.52604 0
M  V30 17862 H 1674.71 -2.0115 2.21763 0
M  V30 17863 H 1672.26 -0.96639 1.06756 0
M  V30 17864 H 1674.21 -4.10197 0.965206 0
M  V30 17865 H 1672.93 -3.26568 0.0460462 0
M  V30 17866 H 1671.59 -2.96417 2.15714 0
M  V30 17867 H 1671.24 -4.97859 0.717334 0
M  V30 17868 H 1670.94 -5.34817 2.43403 0
M  V30 17869 H 1672.46 -5.87474 1.66452 0
M  V30 17870 H 1673.88 -4.5392 3.50185 0
M  V30 17871 H 1672.27 -4.24886 4.23783 0
M  V30 17872 H 1673.34 -2.87514 3.90466 0
M  V30 17873 N 1674.69 -1.17582 -1.04939 0
M  V30 17874 C 1675.64 -0.891102 -2.14854 0
M  V30 17875 C 1676.63 0.145242 -1.68776 0
M  V30 17876 O 1677.84 -0.00207978 -1.8 0
M  V30 17877 H 1674.21 -0.270641 -0.701611 0
M  V30 17878 H 1676.18 -1.82519 -2.36071 0
M  V30 17879 C 1674.93 -0.423679 -3.45109 0
M  V30 17880 H 1674.25 -1.2126 -3.80967 0
M  V30 17881 H 1675.69 -0.263369 -4.23181 0
M  V30 17882 C 1674.15 0.859085 -3.25763 0
M  V30 17883 O 1674.68 1.9253 -3.52555 0
M  V30 17884 N 1672.89 0.80824 -2.79134 0
M  V30 17885 H 1672.44 -0.0596431 -2.57531 0
M  V30 17886 H 1672.39 1.66697 -2.6657 0
M  V30 17887 N 1676.17 1.23705 -0.976463 0
M  V30 17888 C 1677.13 2.23257 -0.518533 0
M  V30 17889 C 1678.13 1.56006 0.3897 0
M  V30 17890 O 1679.32 1.73226 0.18394 0
M  V30 17891 C 1676.45 3.39997 0.247916 0
M  V30 17892 H 1677.64 2.65284 -1.39872 0
M  V30 17893 H 1675.2 1.3647 -0.761946 0
M  V30 17894 H 1675.93 3.03421 1.14482 0
M  V30 17895 H 1675.72 3.90013 -0.403975 0
M  V30 17896 H 1677.21 4.13868 0.557034 0
M  V30 17897 N 1677.64 0.747635 1.38738 0
M  V30 17898 C 1678.87 0.311781 2.04537 0
M  V30 17899 C 1679.29 -1.05782 1.56383 0
M  V30 17900 O 1678.64 -1.67077 0.734259 0
M  V30 17901 C 1678.69 0.318675 3.60093 0
M  V30 17902 O 1678.42 1.63423 4.06478 0
M  V30 17903 C 1679.92 -0.131782 4.43104 0
M  V30 17904 H 1677.14 0.134141 0.657455 0
M  V30 17905 H 1679.68 1.01482 1.77543 0
M  V30 17906 H 1677.84 -0.335578 3.85944 0
M  V30 17907 H 1678.25 1.55636 5.00877 0
M  V30 17908 H 1679.72 -0.0757978 5.51948 0
M  V30 17909 H 1680.2 -1.17881 4.23085 0
M  V30 17910 H 1680.81 0.493375 4.22429 0
M  V30 17911 N 1679.12 -1.49583 0.496242 0
M  V30 17912 C 1680.35 -2.07342 -0.0490986 0
M  V30 17913 C 1680.77 -1.35474 -1.30493 0
M  V30 17914 O 1680.13 -0.410005 -1.76603 0
M  V30 17915 C 1680.18 -3.59427 -0.290601 0
M  V30 17916 O 1679.28 -3.89111 -1.36626 0
M  V30 17917 H 1678.62 -0.663562 0.0241141 0
M  V30 17918 H 1681.15 -1.92452 0.6945 0
M  V30 17919 H 1681.16 -4.04627 -0.523549 0
M  V30 17920 H 1679.84 -4.11147 0.626959 0
M  V30 17921 H 1678.41 -3.55726 -1.11864 0
M  V30 17922 N 1680.6 -0.229873 -1.55915 0
M  V30 17923 C 1681.82 0.4072 -2.03363 0
M  V30 17924 C 1682.25 1.5197 -1.10845 0
M  V30 17925 O 1681.61 1.81034 -0.098175 0
M  V30 17926 C 1681.66 0.908268 -3.48974 0
M  V30 17927 O 1680.76 2.01907 -3.59593 0
M  V30 17928 H 1680.1 0.091091 -0.657722 0
M  V30 17929 H 1682.63 -0.350947 -2.01568 0
M  V30 17930 H 1682.64 1.21593 -3.8946 0
M  V30 17931 H 1681.32 0.0940655 -4.15794 0
M  V30 17932 H 1679.89 1.71741 -3.30998 0
M  V30 17933 N 1682.08 1.5754 0.0434337 0
M  V30 17934 C 1683.3 1.93247 0.753012 0
M  V30 17935 C 1683.73 0.828712 1.68861 0
M  V30 17936 O 1683.09 -0.216618 1.80001 0
M  V30 17937 C 1683.13 3.27989 1.49852 0
M  V30 17938 O 1682.24 3.19223 2.61094 0
M  V30 17939 H 1681.58 0.632032 0.203547 0
M  V30 17940 H 1684.11 2.046 0.00319776 0
M  V30 17941 H 1684.12 3.62539 1.87161 0
M  V30 17942 H 1682.79 4.07891 0.812251 0
M  V30 17943 H 1681.37 2.9628 2.26434 0
M  V30 17944 N 1683.56 -0.31543 1.54411 0
M  V30 17945 C 1684.47 -1.41136 1.87397 0
M  V30 17946 C 1685.48 -1.56199 0.76668 0
M  V30 17947 O 1686.66 -1.71139 1.06176 0
M  V30 17948 C 1683.72 -2.75731 2.10174 0
M  V30 17949 C 1682.78 -2.69776 3.33945 0
M  V30 17950 C 1682.02 -3.97952 3.55626 0
M  V30 17951 O 1682.24 -4.96614 2.80589 0
M  V30 17952 O 1681.17 -4.00719 4.49119 0
M  V30 17953 H 1685 -1.16167 2.80605 0
M  V30 17954 H 1682.58 -0.510193 1.40419 0
M  V30 17955 H 1684.47 -3.55392 2.26439 0
M  V30 17956 H 1683.14 -3.00574 1.20154 0
M  V30 17957 H 1682.05 -1.88638 3.23058 0
M  V30 17958 H 1683.38 -2.49887 4.24049 0
M  V30 17959 N 1685.03 -1.46622 -0.577906 0
M  V30 17960 C 1686.28 -1.5188 -1.3333 0
M  V30 17961 C 1686.6 -0.173993 -1.94222 0
M  V30 17962 O 1685.87 0.799972 -1.78822 0
M  V30 17963 H 1684.45 -0.559401 -0.495055 0
M  V30 17964 H 1687.12 -1.82785 -0.676449 0
M  V30 17965 H 1686.21 -2.27411 -2.13754 0
M  V30 17966 N 1686.51 0.822941 -1.34408 0
M  V30 17967 C 1687.74 1.61607 -1.29992 0
M  V30 17968 C 1688.16 1.87695 0.123301 0
M  V30 17969 O 1687.52 1.45247 1.08504 0
M  V30 17970 C 1687.57 2.934 -2.09639 0
M  V30 17971 O 1686.67 3.85467 -1.4659 0
M  V30 17972 H 1686.01 0.491504 -0.446452 0
M  V30 17973 H 1688.54 1.02264 -1.7721 0
M  V30 17974 H 1688.55 3.42966 -2.20994 0
M  V30 17975 H 1687.23 2.73736 -3.13116 0
M  V30 17976 H 1685.81 3.43984 -1.43978 0
M  V30 17977 N 1687.99 1.18137 1.04314 0
M  V30 17978 C 1689.22 1.00002 1.81128 0
M  V30 17979 C 1689.63 -0.451609 1.83319 0
M  V30 17980 O 1688.99 -1.31367 1.26685 0
M  V30 17981 C 1689.04 1.54454 3.26843 0
M  V30 17982 O 1688.76 2.93933 3.24861 0
M  V30 17983 C 1690.26 1.40902 4.20311 0
M  V30 17984 H 1687.48 0.35327 0.570475 0
M  V30 17985 H 1690.03 1.56629 1.31482 0
M  V30 17986 H 1688.18 1.02009 3.73728 0
M  V30 17987 H 1688.6 3.19279 4.16127 0
M  V30 17988 H 1690.07 1.83803 5.205 0
M  V30 17989 H 1690.55 0.357371 4.37744 0
M  V30 17990 H 1691.15 1.92407 3.79288 0
M  V30 17991 N 1689.47 -1.23186 0.98301 0
M  V30 17992 C 1690.71 -1.91955 0.65431 0
M  V30 17993 C 1691.05 -1.76482 -0.810419 0
M  V30 17994 O 1690.32 -1.12744 -1.5849 0
M  V30 17995 C 1690.61 -3.4449 1.04873 0
M  V30 17996 C 1690.46 -3.6906 2.57128 0
M  V30 17997 C 1691.78 -4.36065 0.594578 0
M  V30 17998 H 1688.9 -0.69711 0.239179 0
M  V30 17999 H 1691.54 -1.45257 1.22476 0
M  V30 18000 H 1689.69 -3.84394 0.563333 0
M  V30 18001 H 1691.36 -3.38622 3.13262 0
M  V30 18002 H 1689.6 -3.13681 2.99644 0
M  V30 18003 H 1690.27 -4.75846 2.79776 0
M  V30 18004 H 1692.75 -4.03622 1.01136 0
M  V30 18005 H 1691.63 -5.41489 0.898955 0
M  V30 18006 H 1691.89 -4.39206 -0.505033 0
M  V30 18007 N 1690.95 -0.754982 -1.38339 0
M  V30 18008 C 1692.22 -0.237208 -1.94156 0
M  V30 18009 C 1692.6 1.26479 -1.69016 0
M  V30 18010 O 1691.95 2.03995 -1.02948 0
M  V30 18011 C 1692.16 -0.592412 -3.43935 0
M  V30 18012 C 1693.51 -0.552832 -4.20986 0
M  V30 18013 O 1694.53 -0.530789 -3.52223 0
M  V30 18014 O 1693.39 -0.565006 -5.43571 0
M  V30 18015 H 1690.49 -0.0500619 -0.825483 0
M  V30 18016 H 1693.03 -0.835199 -1.47724 0
M  V30 18017 H 1691.8 -1.62969 -3.55748 0
M  V30 18018 H 1691.43 0.0335119 -3.97586 0
M  V30 18019 N 1692.42 1.49318 -0.504168 0
M  V30 18020 C 1693.67 2.02762 0.0392846 0
M  V30 18021 C 1694 1.38282 1.36352 0
M  V30 18022 O 1693.28 0.519587 1.87431 0
M  V30 18023 C 1693.56 3.59606 0.188507 0
M  V30 18024 C 1693.41 4.3461 -1.15908 0
M  V30 18025 C 1694.73 4.30213 0.927641 0
M  V30 18026 H 1691.85 0.736889 0.0128028 0
M  V30 18027 H 1694.49 1.78309 -0.656193 0
M  V30 18028 H 1692.64 3.80572 0.780861 0
M  V30 18029 H 1694.32 4.25132 -1.79055 0
M  V30 18030 H 1692.56 3.97043 -1.74756 0
M  V30 18031 H 1693.23 5.4272 -1.00794 0
M  V30 18032 H 1695.71 4.13922 0.425228 0
M  V30 18033 H 1694.58 5.39697 1.0009 0
M  V30 18034 H 1694.84 3.95678 1.97209 0
M  V30 18035 N 1693.9 0.238138 1.5579 0
M  V30 18036 C 1695.15 -0.389608 1.99022 0
M  V30 18037 C 1695.48 -1.58226 1.12597 0
M  V30 18038 O 1694.76 -1.93595 0.187363 0
M  V30 18039 C 1695.04 -0.808025 3.50917 0
M  V30 18040 C 1694.89 0.389417 4.48111 0
M  V30 18041 C 1696.21 -1.6582 4.07666 0
M  V30 18042 H 1693.33 -0.140141 0.723553 0
M  V30 18043 H 1695.97 0.337696 1.86975 0
M  V30 18044 H 1694.12 -1.42772 3.61315 0
M  V30 18045 H 1695.79 1.02777 4.49705 0
M  V30 18046 H 1694.04 1.03404 4.21296 0
M  V30 18047 H 1694.71 0.0534549 5.51974 0
M  V30 18048 H 1697.18 -1.13518 4.00316 0
M  V30 18049 H 1696.06 -1.91984 5.14231 0
M  V30 18050 H 1696.32 -2.62712 3.55577 0
M  V30 18051 N 1695.38 -1.57561 -0.0350783 0
M  V30 18052 C 1696.31 -2.09201 -1.03716 0
M  V30 18053 C 1697.29 -0.993231 -1.3809 0
M  V30 18054 O 1698.48 -1.26812 -1.47079 0
M  V30 18055 C 1695.61 -2.56643 -2.3399 0
M  V30 18056 C 1694.56 -3.70731 -2.13874 0
M  V30 18057 C 1693.89 -4.04358 -3.49855 0
M  V30 18058 C 1695.19 -4.99393 -1.52982 0
M  V30 18059 H 1696.88 -2.93176 -0.60731 0
M  V30 18060 H 1694.43 -1.41036 -0.290683 0
M  V30 18061 H 1696.38 -2.9139 -3.04417 0
M  V30 18062 H 1695.1 -1.69744 -2.79024 0
M  V30 18063 H 1693.76 -3.36325 -1.45881 0
M  V30 18064 H 1693.41 -3.14534 -3.92527 0
M  V30 18065 H 1693.11 -4.81201 -3.37223 0
M  V30 18066 H 1694.63 -4.41633 -4.21654 0
M  V30 18067 H 1696.05 -5.32135 -2.13319 0
M  V30 18068 H 1694.45 -5.80807 -1.50943 0
M  V30 18069 H 1695.52 -4.82367 -0.494993 0
M  V30 18070 N 1696.86 0.307236 -1.54576 0
M  V30 18071 C 1698.27 0.88064 -1.64626 0
M  V30 18072 C 1698.62 1.88308 -0.550865 0
M  V30 18073 O 1697.75 2.14116 0.313553 0
M  V30 18074 C 1698.34 1.60405 -2.98422 0
M  V30 18075 C 1696.9 2.12595 -3.10613 0
M  V30 18076 C 1696.05 0.956593 -2.60278 0
M  V30 18077 H 1699 0.0843939 -1.58475 0
M  V30 18078 H 1699.02 2.46925 -2.89496 0
M  V30 18079 H 1698.53 0.874209 -3.78126 0
M  V30 18080 H 1696.63 2.88644 -2.35617 0
M  V30 18081 H 1696.74 2.36475 -4.16673 0
M  V30 18082 H 1695.11 1.3404 -2.16576 0
M  V30 18083 H 1695.89 0.24081 -3.42454 0
M  V30 18084 N 1698.34 1.46926 0.570122 0
M  V30 18085 C 1699.75 1.32159 0.894766 0
M  V30 18086 C 1699.95 0.302411 1.99218 0
M  V30 18087 O 1699.01 -0.290615 2.50822 0
M  V30 18088 C 1700.32 2.71136 1.30021 0
M  V30 18089 C 1701.87 2.79323 1.41236 0
M  V30 18090 C 1702.34 4.18911 1.85142 0
M  V30 18091 N 1703.84 4.2139 1.92314 0
M  V30 18092 C 1704.57 5.263 2.27588 0
M  V30 18093 N 1704.07 6.41526 2.61565 0
M  V30 18094 N 1705.86 5.13671 2.28251 0
M  V30 18095 H 1698.01 2.11837 -0.154603 0
M  V30 18096 H 1700.27 0.947978 -0.00649658 0
M  V30 18097 H 1699.98 3.47087 0.567775 0
M  V30 18098 H 1699.85 3.02066 2.25911 0
M  V30 18099 H 1702.24 2.03653 2.13564 0
M  V30 18100 H 1702.32 2.52063 0.43566 0
M  V30 18101 H 1701.97 4.95081 1.13389 0
M  V30 18102 H 1701.9 4.43587 2.83792 0
M  V30 18103 H 1704.39 3.38257 1.68495 0
M  V30 18104 H 1704.7 7.17343 2.8747 0
M  V30 18105 H 1703.04 6.44867 2.59175 0
M  V30 18106 H 1706.24 4.22684 2.01137 0
M  V30 18107 H 1706.41 5.95541 2.55412 0
M  V30 18108 N 1699.82 -0.815801 1.34842 0
M  V30 18109 C 1700.73 -1.95886 1.29097 0
M  V30 18110 C 1701.74 -1.72876 0.197422 0
M  V30 18111 O 1702.92 -1.96861 0.425166 0
M  V30 18112 C 1699.98 -3.30311 1.05336 0
M  V30 18113 C 1699.04 -3.66279 2.23916 0
M  V30 18114 C 1698.28 -4.9429 2.01279 0
M  V30 18115 O 1698.5 -5.62012 0.974603 0
M  V30 18116 O 1697.43 -5.28302 2.88411 0
M  V30 18117 H 1701.26 -2.03678 2.25276 0
M  V30 18118 H 1698.84 -0.952243 1.1512 0
M  V30 18119 H 1700.73 -4.10806 0.938961 0
M  V30 18120 H 1699.4 -3.2347 0.122024 0
M  V30 18121 H 1698.31 -2.86198 2.40918 0
M  V30 18122 H 1699.64 -3.77814 3.15464 0
M  V30 18123 N 1701.29 -1.18689 -1.03686 0
M  V30 18124 C 1702.54 -0.982656 -1.76602 0
M  V30 18125 C 1702.86 0.488553 -1.88781 0
M  V30 18126 O 1702.13 1.35419 -1.41558 0
M  V30 18127 H 1700.71 -0.360595 -0.654202 0
M  V30 18128 H 1703.37 -1.49439 -1.25115 0
M  V30 18129 H 1702.47 -1.42392 -2.77725 0
M  V30 18130 N 1702.77 1.22662 -0.989529 0
M  V30 18131 C 1703.68 2.28162 -0.545835 0
M  V30 18132 C 1704.7 1.69251 0.403762 0
M  V30 18133 O 1705.87 1.99563 0.271428 0
M  V30 18134 C 1702.94 3.46434 0.135808 0
M  V30 18135 C 1702 4.20673 -0.85633 0
M  V30 18136 C 1701.23 5.33298 -0.207121 0
M  V30 18137 O 1701.46 5.6157 0.99975 0
M  V30 18138 O 1700.39 5.94977 -0.910288 0
M  V30 18139 H 1704.22 2.68276 -1.42344 0
M  V30 18140 H 1701.8 1.28766 -0.757609 0
M  V30 18141 H 1703.68 4.18207 0.517776 0
M  V30 18142 H 1702.36 3.08252 0.988035 0
M  V30 18143 H 1701.26 3.51186 -1.28917 0
M  V30 18144 H 1702.6 4.62726 -1.67765 0
M  V30 18145 N 1704.25 0.762308 1.37937 0
M  V30 18146 C 1705.18 0.100528 2.28979 0
M  V30 18147 C 1706.19 -0.674409 1.48174 0
M  V30 18148 O 1707.38 -0.514059 1.70938 0
M  V30 18149 C 1704.48 -0.881478 3.27236 0
M  V30 18150 C 1703.66 -0.162349 4.37099 0
M  V30 18151 C 1702.72 -1.05636 5.15488 0
M  V30 18152 O 1701.74 -0.523636 5.66786 0
M  V30 18153 N 1702.94 -2.3836 5.29306 0
M  V30 18154 H 1705.71 0.882451 2.86414 0
M  V30 18155 H 1703.27 0.613839 1.49812 0
M  V30 18156 H 1705.26 -1.48278 3.76558 0
M  V30 18157 H 1703.83 -1.56443 2.70637 0
M  V30 18158 H 1703.05 0.61976 3.89298 0
M  V30 18159 H 1704.34 0.334928 5.07696 0
M  V30 18160 H 1703.74 -2.84087 4.89194 0
M  V30 18161 H 1702.29 -2.9352 5.8197 0
M  V30 18162 N 1705.73 -1.49049 0.51208 0
M  V30 18163 C 1706.69 -2.27838 -0.249491 0
M  V30 18164 C 1707.69 -1.34321 -0.884004 0
M  V30 18165 O 1708.88 -1.57379 -0.74682 0
M  V30 18166 C 1706.01 -3.12637 -1.35908 0
M  V30 18167 H 1707.21 -2.96625 0.442029 0
M  V30 18168 H 1704.76 -1.53996 0.267406 0
M  V30 18169 H 1705.49 -2.48441 -2.0844 0
M  V30 18170 H 1705.28 -3.81408 -0.909427 0
M  V30 18171 H 1706.77 -3.72117 -1.89523 0
M  V30 18172 N 1707.21 -0.246397 -1.55662 0
M  V30 18173 C 1708.12 0.664125 -2.25003 0
M  V30 18174 C 1709.13 1.19368 -1.26598 0
M  V30 18175 O 1710.31 1.23006 -1.59473 0
M  V30 18176 C 1707.37 1.8446 -2.93557 0
M  V30 18177 C 1706.43 1.35456 -4.0737 0
M  V30 18178 C 1705.67 2.47877 -4.72645 0
M  V30 18179 O 1705.89 3.66594 -4.36995 0
M  V30 18180 O 1704.82 2.17663 -5.61165 0
M  V30 18181 H 1708.65 0.103277 -3.03524 0
M  V30 18182 H 1706.23 -0.0149207 -1.49393 0
M  V30 18183 H 1708.12 2.53349 -3.36737 0
M  V30 18184 H 1706.79 2.39308 -2.17976 0
M  V30 18185 H 1705.7 0.632958 -3.68706 0
M  V30 18186 H 1707.03 0.852175 -4.84767 0
M  V30 18187 N 1708.68 1.57577 0.026722 0
M  V30 18188 C 1709.91 1.9364 0.728771 0
M  V30 18189 C 1710.33 0.846352 1.68767 0
M  V30 18190 O 1709.68 -0.177038 1.81639 0
M  V30 18191 C 1709.73 3.29644 1.48381 0
M  V30 18192 O 1709.46 4.34462 0.563393 0
M  V30 18193 C 1710.96 3.80004 2.2828 0
M  V30 18194 H 1708.18 0.639025 0.204666 0
M  V30 18195 H 1710.72 2.04493 -0.016449 0
M  V30 18196 H 1708.88 3.20181 2.18089 0
M  V30 18197 H 1709.29 5.12982 1.09315 0
M  V30 18198 H 1710.76 4.77671 2.76649 0
M  V30 18199 H 1711.24 3.11319 3.09802 0
M  V30 18200 H 1711.85 3.92558 1.63642 0
M  V30 18201 N 1710.16 -0.299034 1.54737 0
M  V30 18202 C 1711.07 -1.39141 1.88884 0
M  V30 18203 C 1712.09 -1.55377 0.783203 0
M  V30 18204 O 1713.26 -1.70003 1.07985 0
M  V30 18205 C 1710.33 -2.73487 2.13087 0
M  V30 18206 C 1709.39 -2.66219 3.36788 0
M  V30 18207 C 1708.62 -3.94158 3.59827 0
M  V30 18208 O 1708.85 -4.9361 2.85841 0
M  V30 18209 O 1707.78 -3.95933 4.53344 0
M  V30 18210 H 1711.61 -1.13184 2.81821 0
M  V30 18211 H 1709.19 -0.495271 1.40952 0
M  V30 18212 H 1711.07 -3.5297 2.30195 0
M  V30 18213 H 1709.75 -2.99283 1.23335 0
M  V30 18214 H 1708.65 -1.85201 3.25041 0
M  V30 18215 H 1709.99 -2.45376 4.26675 0
M  V30 18216 N 1711.64 -1.47227 -0.562322 0
M  V30 18217 C 1713.05 -1.47509 -1.14446 0
M  V30 18218 C 1713.4 -0.22699 -1.94883 0
M  V30 18219 O 1712.53 0.668483 -2.05816 0
M  V30 18220 C 1713.12 -2.67266 -2.08217 0
M  V30 18221 C 1711.68 -2.70524 -2.61713 0
M  V30 18222 C 1710.83 -2.4053 -1.37988 0
M  V30 18223 H 1713.78 -1.54811 -0.349185 0
M  V30 18224 H 1713.8 -2.43945 -2.92012 0
M  V30 18225 H 1713.31 -3.58089 -1.49646 0
M  V30 18226 H 1711.41 -1.83827 -3.24096 0
M  V30 18227 H 1711.53 -3.71072 -3.03056 0
M  V30 18228 H 1709.89 -1.91007 -1.68489 0
M  V30 18229 H 1710.67 -3.33554 -0.812177 0
M  V30 18230 N 1713.12 0.808639 -1.35273 0
M  V30 18231 C 1714.03 1.95198 -1.30134 0
M  V30 18232 C 1715.04 1.72769 -0.206587 0
M  V30 18233 O 1716.22 1.96633 -0.4356 0
M  V30 18234 C 1713.28 3.29747 -1.07087 0
M  V30 18235 C 1712.35 3.65086 -2.25855 0
M  V30 18236 C 1711.58 4.93215 -2.03898 0
M  V30 18237 O 1711.8 5.61487 -1.00439 0
M  V30 18238 O 1710.74 5.26765 -2.91208 0
M  V30 18239 H 1714.56 2.0248 -2.26353 0
M  V30 18240 H 1712.15 0.946124 -1.15624 0
M  V30 18241 H 1714.03 4.10302 -0.960734 0
M  V30 18242 H 1712.7 3.23401 -0.139177 0
M  V30 18243 H 1711.61 2.84917 -2.42432 0
M  V30 18244 H 1712.94 3.76135 -3.17464 0
M  V30 18245 N 1714.6 1.19237 1.03055 0
M  V30 18246 C 1715.51 0.943876 2.14775 0
M  V30 18247 C 1716.52 -0.0955384 1.73738 0
M  V30 18248 O 1717.7 0.0887187 2.01204 0
M  V30 18249 C 1714.76 0.48402 3.43305 0
M  V30 18250 C 1713.82 1.59262 3.98665 0
M  V30 18251 C 1713.06 1.15461 5.21061 0
M  V30 18252 O 1713.28 0.0174841 5.70397 0
M  V30 18253 O 1712.21 1.95648 5.69215 0
M  V30 18254 H 1716.04 1.87894 2.38599 0
M  V30 18255 H 1713.63 0.975046 1.13195 0
M  V30 18256 H 1715.51 0.236135 4.20738 0
M  V30 18257 H 1714.18 -0.422626 3.20929 0
M  V30 18258 H 1713.09 1.89464 3.22574 0
M  V30 18259 H 1714.42 2.47576 4.25402 0
M  V30 18260 N 1716.07 -1.22136 0.99602 0
M  V30 18261 C 1717.35 -1.86506 0.589466 0
M  V30 18262 C 1717.73 -1.89355 -0.933159 0
M  V30 18263 O 1717.08 -1.38634 -1.8164 0
M  V30 18264 C 1717.29 -3.27224 1.21349 0
M  V30 18265 C 1718.64 -4.03692 1.31597 0
M  V30 18266 O 1719.66 -3.36502 1.16812 0
M  V30 18267 O 1718.52 -5.23973 1.55289 0
M  V30 18268 H 1715.61 -0.802279 0.200692 0
M  V30 18269 H 1718.16 -1.2989 1.0921 0
M  V30 18270 H 1716.93 -3.19802 2.25483 0
M  V30 18271 H 1716.56 -3.91449 0.696645 0
M  V30 18272 N 1717.55 -0.769612 -1.37531 0
M  V30 18273 C 1718.48 -0.168389 -2.32892 0
M  V30 18274 C 1719.46 0.685549 -1.55673 0
M  V30 18275 O 1720.65 0.62345 -1.8392 0
M  V30 18276 C 1717.78 0.713183 -3.39898 0
M  V30 18277 C 1716.73 -0.0392808 -4.27982 0
M  V30 18278 C 1716.06 0.961596 -5.25982 0
M  V30 18279 C 1717.36 -1.21704 -5.07923 0
M  V30 18280 H 1719.05 -0.965022 -2.83421 0
M  V30 18281 H 1716.6 -0.465502 -1.36268 0
M  V30 18282 H 1718.55 1.14358 -4.05586 0
M  V30 18283 H 1717.28 1.54231 -2.87889 0
M  V30 18284 H 1715.93 -0.450429 -3.63822 0
M  V30 18285 H 1715.58 1.78522 -4.70254 0
M  V30 18286 H 1715.28 0.462679 -5.85776 0
M  V30 18287 H 1716.81 1.39097 -5.94545 0
M  V30 18288 H 1718.22 -0.863405 -5.66761 0
M  V30 18289 H 1716.62 -1.6479 -5.77031 0
M  V30 18290 H 1717.69 -2.02219 -4.40722 0
M  V30 18291 N 1719.03 1.48775 -0.519977 0
M  V30 18292 C 1719.98 2.29461 0.248242 0
M  V30 18293 C 1720.95 1.36734 0.943027 0
M  V30 18294 O 1722.13 1.65697 0.946003 0
M  V30 18295 C 1719.27 3.19868 1.29531 0
M  V30 18296 C 1718.39 4.27666 0.610379 0
M  V30 18297 C 1717.52 5.05266 1.63951 0
M  V30 18298 C 1716.56 6.04878 0.937496 0
M  V30 18299 N 1715.7 6.75573 1.91171 0
M  V30 18300 H 1720.54 2.94643 -0.446016 0
M  V30 18301 H 1718.07 1.45262 -0.231792 0
M  V30 18302 H 1720.03 3.70675 1.91456 0
M  V30 18303 H 1718.66 2.5663 1.95808 0
M  V30 18304 H 1717.71 3.80202 -0.122598 0
M  V30 18305 H 1719.03 4.98765 0.0586864 0
M  V30 18306 H 1718.18 5.60037 2.33332 0
M  V30 18307 H 1716.92 4.33983 2.22509 0
M  V30 18308 H 1715.92 5.49321 0.229562 0
M  V30 18309 H 1717.15 6.78155 0.358166 0
M  V30 18310 H 1715.09 6.07048 2.48655 0
M  V30 18311 H 1715.01 7.42712 1.41118 0
M  V30 18312 H 1716.28 7.34938 2.59781 0
M  V30 18313 N 1720.51 0.254649 1.55529 0
M  V30 18314 C 1721.92 -0.247042 1.85058 0
M  V30 18315 C 1722.27 -1.57009 1.17655 0
M  V30 18316 O 1721.4 -2.11506 0.457638 0
M  V30 18317 C 1721.99 -0.455017 3.35731 0
M  V30 18318 C 1720.55 -0.900961 3.65458 0
M  V30 18319 C 1719.7 0.0174436 2.77295 0
M  V30 18320 H 1722.65 0.477005 1.51362 0
M  V30 18321 H 1722.67 -1.29654 3.57729 0
M  V30 18322 H 1722.18 0.508076 3.8476 0
M  V30 18323 H 1720.28 -1.87625 3.21913 0
M  V30 18324 H 1720.39 -0.752458 4.73154 0
M  V30 18325 H 1718.76 -0.495296 2.49838 0
M  V30 18326 H 1719.54 0.976049 3.29132 0
M  V30 18327 N 1721.99 -1.57589 -0.0183649 0
M  V30 18328 C 1722.9 -2.10665 -1.03235 0
M  V30 18329 C 1723.91 -1.04767 -1.38924 0
M  V30 18330 O 1725.09 -1.36565 -1.48027 0
M  V30 18331 C 1722.15 -2.58432 -2.31114 0
M  V30 18332 C 1721.21 -3.78856 -2.01908 0
M  V30 18333 C 1720.45 -4.24335 -3.2369 0
M  V30 18334 O 1720.67 -3.69266 -4.3474 0
M  V30 18335 O 1719.6 -5.16671 -3.08763 0
M  V30 18336 H 1723.43 -2.97485 -0.611254 0
M  V30 18337 H 1721.02 -1.47524 -0.236035 0
M  V30 18338 H 1722.9 -2.89438 -3.06274 0
M  V30 18339 H 1721.57 -1.74718 -2.72498 0
M  V30 18340 H 1720.48 -3.52852 -1.24282 0
M  V30 18341 H 1721.81 -4.63587 -1.65373 0
M  V30 18342 N 1723.46 0.290824 -1.54893 0
M  V30 18343 C 1724.43 1.34215 -1.85793 0
M  V30 18344 C 1725.43 1.43204 -0.731393 0
M  V30 18345 O 1726.62 1.42663 -0.999647 0
M  V30 18346 C 1723.75 2.72577 -2.0473 0
M  V30 18347 H 1724.94 1.08056 -2.79757 0
M  V30 18348 H 1722.5 0.528008 -1.47111 0
M  V30 18349 H 1723.23 3.03943 -1.13088 0
M  V30 18350 H 1723.02 2.67442 -2.86736 0
M  V30 18351 H 1724.51 3.48573 -2.29971 0
M  V30 18352 N 1724.94 1.47523 0.554506 0
M  V30 18353 C 1726.18 1.55867 1.32231 0
M  V30 18354 C 1726.55 0.216987 1.9077 0
M  V30 18355 O 1727.75 0.175283 2.68228 0
M  V30 18356 C 1726.02 2.64761 2.40076 0
M  V30 18357 S 1727.58 2.92706 3.26908 0
M  V30 18358 H 1724.4 0.550369 0.450128 0
M  V30 18359 H 1727 1.84917 0.634504 0
M  V30 18360 H 1725.7 3.60838 1.95509 0
M  V30 18361 H 1725.23 2.37534 3.13594 0
M  V30 18362 H 1727.25 2.30127 4.39609 0
M  V30 18363 N 1726.42 -0.801453 1.357 0
M  V30 18364 C 1727.67 -1.55879 1.2926 0
M  V30 18365 C 1728 -1.94055 -0.131552 0
M  V30 18366 O 1727.25 -1.61993 -1.09803 0
M  V30 18367 C 1727.55 -2.85531 2.14957 0
M  V30 18368 C 1727.22 -2.6655 3.63679 0
M  V30 18369 C 1725.88 -2.61081 4.04216 0
M  V30 18370 C 1728.23 -2.48725 4.58023 0
M  V30 18371 C 1725.56 -2.35737 5.37257 0
M  V30 18372 C 1727.91 -2.2491 5.91268 0
M  V30 18373 C 1726.57 -2.17867 6.30944 0
M  V30 18374 H 1725.84 -0.570401 0.472994 0
M  V30 18375 H 1728.49 -0.925627 1.67644 0
M  V30 18376 H 1726.8 -3.53252 1.69471 0
M  V30 18377 H 1728.49 -3.43256 2.07307 0
M  V30 18378 H 1725.08 -2.71656 3.31513 0
M  V30 18379 H 1729.27 -2.51959 4.27587 0
M  V30 18380 H 1724.52 -2.28758 5.66992 0
M  V30 18381 H 1728.7 -2.1011 6.63948 0
M  V30 18382 H 1726.32 -1.97991 7.33964 0
M  V30 18383 N 1727.9 -1.19782 -1.02421 0
M  V30 18384 C 1729.13 -1.02871 -1.79514 0
M  V30 18385 C 1729.54 0.422387 -1.84014 0
M  V30 18386 O 1728.9 1.29335 -1.28758 0
M  V30 18387 C 1728.95 -1.59634 -3.24344 0
M  V30 18388 O 1728.67 -2.99064 -3.20144 0
M  V30 18389 C 1730.17 -1.47571 -4.18016 0
M  V30 18390 H 1727.39 -0.362301 -0.564782 0
M  V30 18391 H 1729.94 -1.58701 -1.28974 0
M  V30 18392 H 1728.09 -1.07942 -3.72058 0
M  V30 18393 H 1728.5 -3.25859 -4.10994 0
M  V30 18394 H 1729.98 -1.92061 -5.1751 0
M  V30 18395 H 1730.46 -0.426967 -4.3712 0
M  V30 18396 H 1731.06 -1.98417 -3.76179 0
M  V30 18397 N 1729.38 1.21606 -1.00248 0
M  V30 18398 C 1730.29 2.2757 -0.570004 0
M  V30 18399 C 1731.3 1.69669 0.385788 0
M  V30 18400 O 1732.48 1.99839 0.250246 0
M  V30 18401 C 1729.54 3.46558 0.0990566 0
M  V30 18402 C 1728.61 4.19741 -0.9009 0
M  V30 18403 C 1727.84 5.33048 -0.263673 0
M  V30 18404 O 1728.06 5.62599 0.940131 0
M  V30 18405 O 1727 5.93978 -0.973342 0
M  V30 18406 H 1730.82 2.66751 -1.45182 0
M  V30 18407 H 1728.41 1.27955 -0.771224 0
M  V30 18408 H 1730.29 4.18733 0.47339 0
M  V30 18409 H 1728.96 3.09283 0.955285 0
M  V30 18410 H 1727.87 3.49798 -1.32634 0
M  V30 18411 H 1729.2 4.60921 -1.72664 0
M  V30 18412 N 1730.86 0.776895 1.37121 0
M  V30 18413 C 1732.1 0.342876 1.9917 0
M  V30 18414 C 1732.42 -1.08574 1.61977 0
M  V30 18415 O 1731.69 -1.74634 0.887689 0
M  V30 18416 H 1730.27 0.123788 0.736672 0
M  V30 18417 H 1732.94 0.996163 1.67519 0
M  V30 18418 H 1732.03 0.424637 3.09198 0
M  V30 18419 N 1732.33 -1.48497 0.527859 0
M  V30 18420 C 1733.57 -2.04399 -0.00503337 0
M  V30 18421 C 1733.94 -1.39636 -1.3178 0
M  V30 18422 O 1735.14 -1.86412 -1.93659 0
M  V30 18423 C 1733.41 -3.57175 -0.126716 0
M  V30 18424 S 1734.97 -4.3454 -0.60998 0
M  V30 18425 H 1731.79 -0.710914 0.0110467 0
M  V30 18426 H 1734.39 -1.82232 0.707938 0
M  V30 18427 H 1733.09 -4.01845 0.833581 0
M  V30 18428 H 1732.62 -3.83792 -0.864129 0
M  V30 18429 H 1734.64 -4.59417 -1.87484 0
M  V30 18430 N 1733.81 -0.262893 -1.55392 0
M  V30 18431 C 1735.06 0.357939 -1.98499 0
M  V30 18432 C 1735.37 1.5789 -1.15456 0
M  V30 18433 O 1736.58 2.2719 -1.4865 0
M  V30 18434 C 1735.04 0.688205 -3.53259 0
M  V30 18435 C 1734.64 -0.512257 -4.45062 0
M  V30 18436 C 1736.39 1.27234 -4.04984 0
M  V30 18437 C 1734.29 -0.157257 -5.91191 0
M  V30 18438 H 1733.22 0.137514 -0.741354 0
M  V30 18439 H 1735.88 -0.365626 -1.79821 0
M  V30 18440 H 1734.26 1.47034 -3.67692 0
M  V30 18441 H 1735.43 -1.28935 -4.42394 0
M  V30 18442 H 1733.75 -1.0124 -4.03905 0
M  V30 18443 H 1736.34 1.55155 -5.11694 0
M  V30 18444 H 1736.69 2.20217 -3.53285 0
M  V30 18445 H 1737.22 0.552763 -3.93941 0
M  V30 18446 H 1733.96 -1.05464 -6.4696 0
M  V30 18447 H 1733.48 0.583319 -5.96957 0
M  V30 18448 H 1735.16 0.254892 -6.46498 0
M  V30 18449 N 1735.29 1.57597 0.0100073 0
M  V30 18450 C 1736.24 2.07788 1.00463 0
M  V30 18451 C 1737.21 0.971101 1.34755 0
M  V30 18452 O 1738.39 1.2429 1.44764 0
M  V30 18453 C 1735.53 2.57769 2.29454 0
M  V30 18454 C 1734.64 3.8231 2.01153 0
M  V30 18455 C 1733.78 4.2083 3.24154 0
M  V30 18456 C 1732.82 5.38236 2.91494 0
M  V30 18457 N 1731.96 5.72096 4.07001 0
M  V30 18458 H 1736.8 2.92504 0.569675 0
M  V30 18459 H 1734.33 1.44607 0.269645 0
M  V30 18460 H 1736.29 2.84821 3.04849 0
M  V30 18461 H 1734.92 1.75942 2.70637 0
M  V30 18462 H 1733.97 3.62227 1.16171 0
M  V30 18463 H 1735.28 4.67811 1.73074 0
M  V30 18464 H 1734.44 4.49111 4.07902 0
M  V30 18465 H 1733.18 3.34019 3.55363 0
M  V30 18466 H 1732.18 5.09688 2.06151 0
M  V30 18467 H 1733.41 6.26716 2.61543 0
M  V30 18468 H 1731.35 4.88243 4.38126 0
M  V30 18469 H 1731.27 6.52148 3.82411 0
M  V30 18470 H 1732.54 6.04964 4.91567 0
M  V30 18471 N 1736.77 -0.282606 1.55045 0
M  V30 18472 C 1737.71 -1.34908 1.87266 0
M  V30 18473 C 1738.68 -1.49528 0.72323 0
M  V30 18474 O 1739.87 -1.6409 0.973602 0
M  V30 18475 C 1737.01 -2.70603 2.14168 0
M  V30 18476 C 1736.12 -2.64284 3.41728 0
M  V30 18477 C 1735.26 -3.92094 3.58379 0
M  V30 18478 C 1734.3 -3.80246 4.79666 0
M  V30 18479 N 1733.43 -4.99871 4.93025 0
M  V30 18480 H 1738.27 -1.06731 2.78231 0
M  V30 18481 H 1735.81 -0.515845 1.37759 0
M  V30 18482 H 1737.77 -3.49542 2.27763 0
M  V30 18483 H 1736.4 -2.97003 1.26448 0
M  V30 18484 H 1735.45 -1.77108 3.36656 0
M  V30 18485 H 1736.76 -2.51425 4.30798 0
M  V30 18486 H 1735.92 -4.79473 3.7174 0
M  V30 18487 H 1734.66 -4.07808 2.67476 0
M  V30 18488 H 1733.66 -2.91251 4.66319 0
M  V30 18489 H 1734.89 -3.6606 5.71994 0
M  V30 18490 H 1732.83 -5.16014 4.0505 0
M  V30 18491 H 1732.75 -4.89507 5.76124 0
M  V30 18492 H 1734.02 -5.88849 5.10761 0
M  V30 18493 N 1738.25 -1.47815 -0.546675 0
M  V30 18494 C 1739.49 -1.5498 -1.30336 0
M  V30 18495 C 1739.82 -0.216533 -1.93291 0
M  V30 18496 O 1739.08 0.791622 -1.78974 0
M  V30 18497 C 1739.37 -2.6242 -2.42632 0
M  V30 18498 C 1739.04 -4.05375 -1.97439 0
M  V30 18499 C 1737.7 -4.44287 -1.84831 0
M  V30 18500 C 1740.05 -4.9503 -1.6308 0
M  V30 18501 C 1737.38 -5.70678 -1.36174 0
M  V30 18502 C 1739.73 -6.21894 -1.1589 0
M  V30 18503 C 1738.4 -6.59678 -1.01886 0
M  V30 18504 H 1737.67 -0.567112 -0.476933 0
M  V30 18505 H 1740.32 -1.81461 -0.611907 0
M  V30 18506 H 1738.62 -2.29736 -3.17378 0
M  V30 18507 H 1740.32 -2.65184 -3.00796 0
M  V30 18508 H 1736.91 -3.74635 -2.08199 0
M  V30 18509 H 1741.09 -4.65657 -1.71689 0
M  V30 18510 H 1736.35 -5.98693 -1.24004 0
M  V30 18511 H 1740.52 -6.9077 -0.883691 0
M  V30 18512 H 1738.15 -7.57504 -0.639614 0
M  V30 18513 N 1739.72 0.794246 -1.36123 0
M  V30 18514 C 1741.13 1.36909 -1.26936 0
M  V30 18515 C 1741.49 1.9598 0.0929337 0
M  V30 18516 O 1740.61 1.92206 0.994266 0
M  V30 18517 C 1741.21 2.48906 -2.2985 0
M  V30 18518 C 1739.76 3.0222 -2.24366 0
M  V30 18519 C 1738.91 1.75264 -2.1489 0
M  V30 18520 H 1741.86 0.596278 -1.47072 0
M  V30 18521 H 1741.88 3.27794 -1.93213 0
M  V30 18522 H 1741.4 2.05884 -3.28988 0
M  V30 18523 H 1739.5 3.49675 -1.28679 0
M  V30 18524 H 1739.61 3.59363 -3.16852 0
M  V30 18525 H 1737.97 1.97306 -1.61066 0
M  V30 18526 H 1738.76 1.34377 -3.15908 0
M  V30 18527 N 1741.2 1.20323 1.01785 0
M  V30 18528 C 1742.45 1.01263 1.75363 0
M  V30 18529 C 1742.78 -0.455392 1.89094 0
M  V30 18530 O 1742.03 -1.35435 1.41266 0
M  V30 18531 C 1742.33 1.63984 3.1756 0
M  V30 18532 C 1742 3.13781 3.23809 0
M  V30 18533 C 1740.66 3.54661 3.25222 0
M  V30 18534 C 1743.01 4.09779 3.22072 0
M  V30 18535 C 1740.34 4.90068 3.22568 0
M  V30 18536 C 1742.69 5.45131 3.20959 0
M  V30 18537 C 1741.35 5.85426 3.20675 0
M  V30 18538 H 1740.62 0.370547 0.641698 0
M  V30 18539 H 1743.27 1.4973 1.19387 0
M  V30 18540 H 1741.58 1.07776 3.76685 0
M  V30 18541 H 1743.27 1.46753 3.73182 0
M  V30 18542 H 1739.86 2.81215 3.23444 0
M  V30 18543 H 1744.05 3.79231 3.20152 0
M  V30 18544 H 1739.3 5.20553 3.20678 0
M  V30 18545 H 1743.48 6.19264 3.18568 0
M  V30 18546 H 1741.1 6.90321 3.18373 0
M  V30 18547 N 1742.68 -1.21073 1.00892 0
M  V30 18548 C 1743.92 -1.91957 0.702281 0
M  V30 18549 C 1744.28 -1.76598 -0.753465 0
M  V30 18550 O 1745.48 -2.41891 -1.17226 0
M  V30 18551 C 1743.76 -3.39511 1.11655 0
M  V30 18552 S 1745.31 -4.28816 0.930715 0
M  V30 18553 H 1742.13 -0.663211 0.256265 0
M  V30 18554 H 1744.73 -1.46496 1.29457 0
M  V30 18555 H 1743.44 -3.48208 2.17208 0
M  V30 18556 H 1742.97 -3.89992 0.516721 0
M  V30 18557 H 1744.98 -4.95909 -0.170024 0
M  V30 18558 N 1744.16 -0.784156 -1.36707 0
M  V30 18559 C 1745.09 -0.136944 -2.28791 0
M  V30 18560 C 1746.1 0.65075 -1.49228 0
M  V30 18561 O 1747.29 0.486799 -1.71734 0
M  V30 18562 C 1744.39 0.829306 -3.28597 0
M  V30 18563 C 1743.57 0.09279 -4.37302 0
M  V30 18564 C 1742.62 0.974213 -5.17103 0
M  V30 18565 O 1741.65 0.433399 -5.67548 0
M  V30 18566 N 1742.85 2.29909 -5.33031 0
M  V30 18567 H 1745.62 -0.927906 -2.84974 0
M  V30 18568 H 1743.18 -0.637596 -1.48816 0
M  V30 18569 H 1745.17 1.42268 -3.78869 0
M  V30 18570 H 1743.74 1.52117 -2.73092 0
M  V30 18571 H 1742.96 -0.681615 -3.88262 0
M  V30 18572 H 1744.25 -0.415655 -5.07099 0
M  V30 18573 H 1743.65 2.76268 -4.93652 0
M  V30 18574 H 1742.2 2.84224 -5.86566 0
M  V30 18575 N 1745.64 1.48215 -0.535727 0
M  V30 18576 C 1746.88 2.028 -0.00373305 0
M  V30 18577 C 1747.22 1.41143 1.33388 0
M  V30 18578 O 1746.49 0.559227 1.86287 0
M  V30 18579 C 1746.77 3.59925 0.112186 0
M  V30 18580 C 1746.63 4.32053 -1.251 0
M  V30 18581 C 1747.95 4.32083 0.836177 0
M  V30 18582 H 1745.06 0.736995 -0.00283063 0
M  V30 18583 H 1747.71 1.76877 -0.693868 0
M  V30 18584 H 1745.86 3.82142 0.69996 0
M  V30 18585 H 1747.53 4.21238 -1.88033 0
M  V30 18586 H 1745.77 3.93246 -1.83139 0
M  V30 18587 H 1746.44 5.4046 -1.12283 0
M  V30 18588 H 1748.92 4.1473 0.337333 0
M  V30 18589 H 1747.79 5.41699 0.886196 0
M  V30 18590 H 1748.06 3.99772 1.88771 0
M  V30 18591 N 1747.11 0.27113 1.5525 0
M  V30 18592 C 1748.34 -0.353138 2.04371 0
M  V30 18593 C 1748.76 -1.48978 1.14835 0
M  V30 18594 O 1748.12 -1.8071 0.146138 0
M  V30 18595 C 1748.17 -0.815425 3.51259 0
M  V30 18596 O 1747.27 -1.92302 3.6482 0
M  V30 18597 H 1746.62 -0.0736207 0.659906 0
M  V30 18598 H 1749.15 0.404266 2.00566 0
M  V30 18599 H 1749.16 -1.11224 3.92547 0
M  V30 18600 H 1747.83 0.0162079 4.15897 0
M  V30 18601 H 1746.41 -1.62904 3.35435 0
M  V30 18602 N 1748.59 -1.576 -0.00164943 0
M  V30 18603 C 1749.82 -1.94775 -0.697872 0
M  V30 18604 C 1750.24 -0.873094 -1.67399 0
M  V30 18605 O 1749.59 0.148119 -1.81898 0
M  V30 18606 C 1749.64 -3.31963 -1.43117 0
M  V30 18607 O 1749.36 -4.35304 -0.494203 0
M  V30 18608 C 1750.87 -3.83588 -2.22206 0
M  V30 18609 H 1748.09 -0.6422 -0.194474 0
M  V30 18610 H 1750.63 -2.04441 0.04898 0
M  V30 18611 H 1748.78 -3.2361 -2.12967 0
M  V30 18612 H 1749.2 -5.14656 -1.0114 0
M  V30 18613 H 1750.67 -4.82012 -2.69014 0
M  V30 18614 H 1751.15 -3.16208 -3.0481 0
M  V30 18615 H 1751.76 -3.95111 -1.57376 0
M  V30 18616 N 1750.07 0.274379 -1.55193 0
M  V30 18617 C 1750.98 1.36118 -1.91073 0
M  V30 18618 C 1752 1.54111 -0.807823 0
M  V30 18619 O 1753.17 1.68264 -1.10676 0
M  V30 18620 C 1750.24 2.70062 -2.17411 0
M  V30 18621 C 1749.3 2.60827 -3.4098 0
M  V30 18622 C 1748.53 3.88384 -3.66052 0
M  V30 18623 O 1748.75 4.89 -2.93657 0
M  V30 18624 O 1747.69 3.8867 -4.59586 0
M  V30 18625 H 1751.51 1.08686 -2.83586 0
M  V30 18626 H 1749.1 0.472784 -1.41722 0
M  V30 18627 H 1750.98 3.49264 -2.35782 0
M  V30 18628 H 1749.66 2.97283 -1.28081 0
M  V30 18629 H 1748.56 1.80006 -3.27946 0
M  V30 18630 H 1749.9 2.38556 -4.30525 0
M  V30 18631 N 1751.55 1.48103 0.538828 0
M  V30 18632 C 1752.46 1.64632 1.67133 0
M  V30 18633 C 1753.47 0.528917 1.65766 0
M  V30 18634 O 1754.65 0.798849 1.84879 0
M  V30 18635 C 1751.72 1.67391 3.03614 0
M  V30 18636 C 1750.78 2.90694 3.15904 0
M  V30 18637 C 1750.01 2.93311 4.45875 0
M  V30 18638 O 1750.23 2.04596 5.32444 0
M  V30 18639 O 1749.17 3.85384 4.62345 0
M  V30 18640 H 1752.99 2.60496 1.56126 0
M  V30 18641 H 1750.58 1.31401 0.710925 0
M  V30 18642 H 1752.46 1.71777 3.84799 0
M  V30 18643 H 1751.13 0.746982 3.14963 0
M  V30 18644 H 1750.04 2.91844 2.34047 0
M  V30 18645 H 1751.37 3.82742 3.09467 0
M  V30 18646 N 1753.03 -0.787016 1.36542 0
M  V30 18647 C 1754.27 -1.54194 1.30647 0
M  V30 18648 C 1754.6 -1.94671 -0.113195 0
M  V30 18649 O 1753.87 -1.65131 -1.05397 0
M  V30 18650 H 1752.45 -0.571857 0.480613 0
M  V30 18651 H 1755.11 -0.93761 1.70865 0
M  V30 18652 H 1754.2 -2.4484 1.93545 0
M  V30 18653 N 1754.5 -1.20861 -1.01145 0
M  V30 18654 C 1755.45 -0.962085 -2.09792 0
M  V30 18655 C 1756.42 0.109588 -1.65738 0
M  V30 18656 O 1757.61 -0.0362022 -1.90766 0
M  V30 18657 C 1754.75 -0.52586 -3.4107 0
M  V30 18658 C 1753.86 -1.66626 -3.98572 0
M  V30 18659 C 1752.99 -1.17983 -5.17932 0
M  V30 18660 C 1752.03 -2.29298 -5.67529 0
M  V30 18661 N 1751.17 -1.81836 -6.78145 0
M  V30 18662 H 1756.01 -1.89222 -2.30215 0
M  V30 18663 H 1753.55 -0.943108 -1.12889 0
M  V30 18664 H 1755.51 -0.25423 -4.16425 0
M  V30 18665 H 1754.14 0.367275 -3.20704 0
M  V30 18666 H 1753.19 -2.05268 -3.20264 0
M  V30 18667 H 1754.5 -2.50426 -4.3138 0
M  V30 18668 H 1753.65 -0.864477 -6.0051 0
M  V30 18669 H 1752.39 -0.311793 -4.86702 0
M  V30 18670 H 1751.4 -2.61644 -4.83552 0
M  V30 18671 H 1752.62 -3.16587 -6.00791 0
M  V30 18672 H 1750.57 -0.973665 -6.48734 0
M  V30 18673 H 1750.49 -2.59213 -7.10172 0
M  V30 18674 H 1751.75 -1.53315 -7.64274 0
M  V30 18675 N 1755.98 1.20536 -1.01532 0
M  V30 18676 C 1757.23 1.89496 -0.70254 0
M  V30 18677 C 1757.55 1.7915 0.770072 0
M  V30 18678 O 1756.82 1.19308 1.55379 0
M  V30 18679 H 1755.4 0.701447 -0.256868 0
M  V30 18680 H 1758.06 1.46394 -1.28665 0
M  V30 18681 H 1757.16 2.96155 -0.984817 0
M  V30 18682 N 1757.46 0.791395 1.36289 0
M  V30 18683 C 1758.41 0.189246 2.30023 0
M  V30 18684 C 1759.38 -0.668045 1.52074 0
M  V30 18685 O 1760.56 -0.61631 1.80572 0
M  V30 18686 C 1757.7 -0.668391 3.38565 0
M  V30 18687 C 1756.82 0.207659 4.31501 0
M  V30 18688 C 1755.95 -0.656539 5.27127 0
M  V30 18689 C 1754.99 0.220845 6.11701 0
M  V30 18690 N 1754.13 -0.602449 6.99511 0
M  V30 18691 H 1758.97 0.994038 2.80932 0
M  V30 18692 H 1756.5 0.501759 1.38278 0
M  V30 18693 H 1758.46 -1.18064 4.00146 0
M  V30 18694 H 1757.09 -1.43859 2.88971 0
M  V30 18695 H 1756.14 0.837894 3.71057 0
M  V30 18696 H 1757.46 0.883613 4.90911 0
M  V30 18697 H 1756.61 -1.23452 5.94007 0
M  V30 18698 H 1755.35 -1.36611 4.68176 0
M  V30 18699 H 1754.35 0.811214 5.43782 0
M  V30 18700 H 1755.58 0.928049 6.72729 0
M  V30 18701 H 1753.52 -1.29628 6.43065 0
M  V30 18702 H 1753.44 0.015783 7.55998 0
M  V30 18703 H 1754.71 -1.16419 7.70757 0
M  V30 18704 N 1758.94 -1.47929 0.54358 0
M  V30 18705 C 1760.19 -2.01696 0.0123924 0
M  V30 18706 C 1760.5 -1.42469 -1.34022 0
M  V30 18707 O 1761.71 -1.87816 -1.96054 0
M  V30 18708 C 1760.16 -3.59889 -0.0282734 0
M  V30 18709 C 1759.77 -4.28104 1.32027 0
M  V30 18710 C 1761.52 -4.21455 -0.507571 0
M  V30 18711 C 1759.42 -5.78266 1.23945 0
M  V30 18712 H 1758.35 -0.754 0.000862593 0
M  V30 18713 H 1761 -1.70058 0.689396 0
M  V30 18714 H 1759.39 -3.88429 -0.770641 0
M  V30 18715 H 1760.56 -4.11221 2.07927 0
M  V30 18716 H 1758.87 -3.78468 1.7364 0
M  V30 18717 H 1761.47 -5.31477 -0.586219 0
M  V30 18718 H 1761.81 -3.87696 -1.51648 0
M  V30 18719 H 1762.35 -3.97395 0.179522 0
M  V30 18720 H 1759.09 -6.16621 2.22393 0
M  V30 18721 H 1758.61 -5.97524 0.522029 0
M  V30 18722 H 1760.29 -6.40197 0.935788 0
M  V30 18723 N 1760.42 -0.27936 -1.55104 0
M  V30 18724 C 1761.66 0.329674 -2.00711 0
M  V30 18725 C 1762.02 1.53167 -1.16437 0
M  V30 18726 O 1761.31 1.90245 -0.22746 0
M  V30 18727 C 1761.51 0.758312 -3.49263 0
M  V30 18728 C 1761.33 -0.400602 -4.47912 0
M  V30 18729 C 1760.1 -0.885741 -4.97476 0
M  V30 18730 C 1762.3 -1.23849 -4.99165 0
M  V30 18731 N 1760.28 -2.01368 -5.79935 0
M  V30 18732 C 1761.66 -2.21425 -5.79112 0
M  V30 18733 C 1763.71 -1.27134 -4.81395 0
M  V30 18734 C 1762.41 -3.22036 -6.43184 0
M  V30 18735 C 1764.44 -2.26593 -5.46269 0
M  V30 18736 C 1763.8 -3.22901 -6.26031 0
M  V30 18737 H 1759.9 0.0856909 -0.777291 0
M  V30 18738 H 1762.48 -0.404349 -1.90455 0
M  V30 18739 H 1760.66 1.46155 -3.59852 0
M  V30 18740 H 1762.39 1.34504 -3.81695 0
M  V30 18741 H 1759.14 -0.46433 -4.71318 0
M  V30 18742 H 1759.57 -2.58139 -6.25854 0
M  V30 18743 H 1764.21 -0.540548 -4.1933 0
M  V30 18744 H 1761.93 -3.96047 -7.04395 0
M  V30 18745 H 1765.51 -2.29882 -5.34458 0
M  V30 18746 H 1764.39 -3.98603 -6.75341 0
M  V30 18747 N 1761.9 1.57599 -0.0067085 0
M  V30 18748 C 1763.14 1.91976 0.672064 0
M  V30 18749 C 1763.5 0.88172 1.71007 0
M  V30 18750 O 1762.79 -0.105225 1.91311 0
M  V30 18751 C 1762.98 3.30868 1.35133 0
M  V30 18752 C 1762.81 4.48086 0.380635 0
M  V30 18753 C 1761.58 5.05299 -0.011403 0
M  V30 18754 C 1763.78 5.13067 -0.355902 0
M  V30 18755 N 1761.76 6.06034 -0.97961 0
M  V30 18756 C 1763.13 6.08695 -1.17858 0
M  V30 18757 C 1765.19 4.96134 -0.419018 0
M  V30 18758 C 1763.89 6.89212 -2.05862 0
M  V30 18759 C 1765.92 5.77242 -1.28632 0
M  V30 18760 C 1765.28 6.72468 -2.09683 0
M  V30 18761 H 1761.38 0.750731 0.218922 0
M  V30 18762 H 1763.96 1.94579 -0.0686305 0
M  V30 18763 H 1762.13 3.29127 2.06228 0
M  V30 18764 H 1763.87 3.52656 1.98534 0
M  V30 18765 H 1760.62 4.72242 0.358377 0
M  V30 18766 H 1761.04 6.61085 -1.45928 0
M  V30 18767 H 1765.69 4.22358 0.193335 0
M  V30 18768 H 1763.4 7.62309 -2.68162 0
M  V30 18769 H 1766.99 5.66178 -1.33915 0
M  V30 18770 H 1765.87 7.34135 -2.75708 0
M  V30 18771 N 1763.37 -0.266145 1.55336 0
M  V30 18772 C 1764.32 -1.349 1.89485 0
M  V30 18773 C 1765.32 -1.50792 0.771882 0
M  V30 18774 O 1766.52 -1.52495 0.956302 0
M  V30 18775 H 1762.9 -0.451312 0.601516 0
M  V30 18776 H 1764.87 -1.03354 2.7993 0
M  V30 18777 C 1763.62 -2.70119 2.18931 0
M  V30 18778 H 1762.94 -2.58684 3.04832 0
M  V30 18779 H 1764.38 -3.44811 2.46742 0
M  V30 18780 C 1762.84 -3.21742 0.999177 0
M  V30 18781 O 1763.37 -4.00998 0.237304 0
M  V30 18782 N 1761.57 -2.79514 0.795013 0
M  V30 18783 H 1761.12 -2.15175 1.41625 0
M  V30 18784 H 1761.08 -3.144 0.000343733 0
M  V30 18785 N 1764.85 -1.48386 -0.530967 0
M  V30 18786 C 1765.78 -1.6573 -1.64486 0
M  V30 18787 C 1766.76 -0.506198 -1.62393 0
M  V30 18788 O 1767.95 -0.738623 -1.79605 0
M  V30 18789 C 1765.08 -1.69594 -3.03076 0
M  V30 18790 C 1764.03 -2.84195 -3.20027 0
M  V30 18791 C 1763.36 -2.73148 -4.59668 0
M  V30 18792 C 1764.66 -4.25504 -3.02892 0
M  V30 18793 H 1766.35 -2.58983 -1.50227 0
M  V30 18794 H 1763.9 -1.24633 -0.721286 0
M  V30 18795 H 1765.85 -1.80316 -3.80873 0
M  V30 18796 H 1764.57 -0.729193 -3.18356 0
M  V30 18797 H 1763.23 -2.73027 -2.44647 0
M  V30 18798 H 1762.88 -1.74444 -4.71782 0
M  V30 18799 H 1762.58 -3.50047 -4.71954 0
M  V30 18800 H 1764.11 -2.85836 -5.39565 0
M  V30 18801 H 1765.52 -4.37511 -3.70482 0
M  V30 18802 H 1763.92 -5.03393 -3.26673 0
M  V30 18803 H 1764.99 -4.42036 -1.99329 0
M  V30 18804 N 1766.33 0.779763 -1.36958 0
M  V30 18805 C 1767.75 1.07919 -1.17582 0
M  V30 18806 C 1767.95 2.01499 -0.00649229 0
M  V30 18807 O 1767 2.43832 0.655905 0
M  V30 18808 C 1768.31 1.68439 -2.49096 0
M  V30 18809 C 1769.86 1.80735 -2.55546 0
M  V30 18810 C 1770.34 2.44669 -3.87171 0
M  V30 18811 N 1771.83 2.52127 -3.88569 0
M  V30 18812 C 1772.56 3.02429 -4.87159 0
M  V30 18813 N 1772.06 3.52964 -5.96144 0
M  V30 18814 N 1773.85 3.0123 -4.7457 0
M  V30 18815 H 1766 0.158249 -2.1181 0
M  V30 18816 H 1768.27 0.132826 -0.938649 0
M  V30 18817 H 1767.97 1.07147 -3.34981 0
M  V30 18818 H 1767.85 2.67832 -2.65604 0
M  V30 18819 H 1770.23 2.41162 -1.70073 0
M  V30 18820 H 1770.31 0.801199 -2.42929 0
M  V30 18821 H 1769.96 1.84883 -4.73055 0
M  V30 18822 H 1769.89 3.45874 -3.97088 0
M  V30 18823 H 1772.38 2.16355 -3.09837 0
M  V30 18824 H 1772.69 3.89725 -6.67334 0
M  V30 18825 H 1771.04 3.5109 -5.998 0
M  V30 18826 H 1774.23 2.61045 -3.88553 0
M  V30 18827 H 1774.4 3.40122 -5.51562 0
M  V30 18828 N 1767.81 1.21396 1.00503 0
M  V30 18829 C 1768.75 0.973198 2.09279 0
M  V30 18830 C 1769.72 -0.100797 1.65794 0
M  V30 18831 O 1770.91 0.0463185 1.90744 0
M  V30 18832 C 1768.05 0.543941 3.40786 0
M  V30 18833 C 1767.16 1.68737 3.97683 0
M  V30 18834 C 1766.3 1.20728 5.17299 0
M  V30 18835 C 1765.34 2.32305 5.66305 0
M  V30 18836 N 1764.47 1.8543 6.77171 0
M  V30 18837 H 1769.31 1.90441 2.29208 0
M  V30 18838 H 1766.85 0.949082 1.12387 0
M  V30 18839 H 1768.81 0.276311 4.16284 0
M  V30 18840 H 1767.44 -0.350263 3.20894 0
M  V30 18841 H 1766.49 2.06964 3.19171 0
M  V30 18842 H 1767.8 2.5271 4.30045 0
M  V30 18843 H 1766.96 0.896312 6.00043 0
M  V30 18844 H 1765.7 0.3376 4.8653 0
M  V30 18845 H 1764.7 2.64205 4.82158 0
M  V30 18846 H 1765.93 3.19769 5.99103 0
M  V30 18847 H 1763.87 1.00806 6.48208 0
M  V30 18848 H 1763.79 2.62976 7.08788 0
M  V30 18849 H 1765.06 1.57366 7.6345 0
M  V30 18850 N 1769.29 -1.19996 1.0217 0
M  V30 18851 C 1770.51 -1.93466 0.733374 0
M  V30 18852 C 1770.93 -1.75074 -0.70672 0
M  V30 18853 O 1770.29 -1.068 -1.47987 0
M  V30 18854 C 1770.34 -3.45425 1.06601 0
M  V30 18855 O 1770.06 -3.6322 2.44954 0
M  V30 18856 C 1771.56 -4.36032 0.799458 0
M  V30 18857 H 1768.78 -0.614762 0.268903 0
M  V30 18858 H 1771.32 -1.52343 1.36426 0
M  V30 18859 H 1769.48 -3.84409 0.480432 0
M  V30 18860 H 1769.89 -4.57155 2.57117 0
M  V30 18861 H 1771.37 -5.41287 1.08223 0
M  V30 18862 H 1771.84 -4.38392 -0.266279 0
M  V30 18863 H 1772.45 -4.02718 1.36743 0
M  V30 18864 N 1770.76 -0.798611 -1.35867 0
M  V30 18865 C 1772 -0.380789 -2.00822 0
M  V30 18866 C 1772.37 1.03061 -1.61995 0
M  V30 18867 O 1773.57 1.55001 -2.19609 0
M  V30 18868 C 1771.84 -0.549604 -3.53149 0
M  V30 18869 S 1773.4 -0.221022 -4.38243 0
M  V30 18870 H 1770.22 -0.145008 -0.696056 0
M  V30 18871 H 1772.82 -1.03912 -1.65598 0
M  V30 18872 H 1771.52 -1.57695 -3.78894 0
M  V30 18873 H 1771.05 0.124329 -3.93203 0
M  V30 18874 H 1773.07 0.974167 -4.86543 0
M  V30 18875 N 1772.24 1.47639 -0.551417 0
M  V30 18876 C 1773.47 2.06578 -0.0298471 0
M  V30 18877 C 1773.88 1.40538 1.26672 0
M  V30 18878 O 1773.22 0.493957 1.76934 0
M  V30 18879 C 1773.28 3.5868 0.242667 0
M  V30 18880 C 1772.95 4.46726 -0.963597 0
M  V30 18881 C 1773.95 4.85195 -1.86766 0
M  V30 18882 C 1771.63 4.88324 -1.17664 0
M  V30 18883 C 1773.62 5.64056 -2.96849 0
M  V30 18884 C 1771.31 5.66951 -2.28058 0
M  V30 18885 C 1772.31 6.04727 -3.17482 0
M  V30 18886 O 1772 6.81771 -4.25963 0
M  V30 18887 H 1771.73 0.674806 -0.0401627 0
M  V30 18888 H 1774.28 1.90714 -0.762724 0
M  V30 18889 H 1772.51 3.72736 1.02978 0
M  V30 18890 H 1774.2 3.99661 0.708914 0
M  V30 18891 H 1774.97 4.53662 -1.7151 0
M  V30 18892 H 1770.85 4.58391 -0.489796 0
M  V30 18893 H 1774.39 5.93461 -3.66675 0
M  V30 18894 H 1770.29 5.97897 -2.43289 0
M  V30 18895 H 1771.06 7.00156 -4.23938 0
M  V30 18896 N 1773.72 0.287581 1.54954 0
M  V30 18897 C 1774.95 -0.331442 2.04735 0
M  V30 18898 C 1775.37 -1.47752 1.16409 0
M  V30 18899 O 1774.73 -1.80545 0.165297 0
M  V30 18900 C 1774.78 -0.778123 3.52105 0
M  V30 18901 O 1773.88 -1.88422 3.66839 0
M  V30 18902 H 1773.22 -0.0666173 0.66065 0
M  V30 18903 H 1775.75 0.425516 2.00126 0
M  V30 18904 H 1775.76 -1.07054 3.93705 0
M  V30 18905 H 1774.44 0.0603184 4.15856 0
M  V30 18906 H 1773.01 -1.59338 3.37144 0
M  V30 18907 N 1775.2 -1.57593 0.0150662 0
M  V30 18908 C 1776.45 -1.90392 -0.66587 0
M  V30 18909 C 1776.76 -0.891694 -1.74092 0
M  V30 18910 O 1777.97 -1.11043 -2.47753 0
M  V30 18911 C 1776.42 -3.38026 -1.23558 0
M  V30 18912 C 1776.03 -4.47577 -0.19455 0
M  V30 18913 C 1777.77 -3.79913 -1.89384 0
M  V30 18914 C 1775.68 -5.86299 -0.7751 0
M  V30 18915 H 1774.61 -0.710474 -0.252473 0
M  V30 18916 H 1777.26 -1.83334 0.0780739 0
M  V30 18917 H 1775.64 -3.3997 -2.03068 0
M  V30 18918 H 1776.82 -4.57172 0.577061 0
M  V30 18919 H 1775.13 -4.14805 0.364134 0
M  V30 18920 H 1777.73 -4.809 -2.3375 0
M  V30 18921 H 1778.07 -3.14225 -2.73072 0
M  V30 18922 H 1778.61 -3.80333 -1.16585 0
M  V30 18923 H 1775.35 -6.55496 0.0233354 0
M  V30 18924 H 1774.87 -5.80338 -1.51552 0
M  V30 18925 H 1776.54 -6.3443 -1.26915 0
M  V30 18926 N 1776.68 0.257904 -1.55475 0
M  V30 18927 C 1777.92 0.988933 -1.77054 0
M  V30 18928 C 1778.26 1.85387 -0.578375 0
M  V30 18929 O 1777.53 1.8983 0.423673 0
M  V30 18930 C 1777.81 1.85876 -3.08419 0
M  V30 18931 C 1777.67 1.02274 -4.38018 0
M  V30 18932 C 1778.99 2.84322 -3.3593 0
M  V30 18933 H 1776.1 0.358103 -0.644152 0
M  V30 18934 H 1778.75 0.260209 -1.8821 0
M  V30 18935 H 1776.9 2.48008 -2.99039 0
M  V30 18936 H 1778.57 0.420967 -4.59375 0
M  V30 18937 H 1776.81 0.326705 -4.32568 0
M  V30 18938 H 1777.48 1.6649 -5.26294 0
M  V30 18939 H 1779.96 2.32325 -3.45202 0
M  V30 18940 H 1778.83 3.42313 -4.29084 0
M  V30 18941 H 1779.1 3.60223 -2.56304 0
M  V30 18942 N 1778.15 1.48666 0.52309 0
M  V30 18943 C 1779.06 1.66396 1.65377 0
M  V30 18944 C 1780.08 0.546469 1.65196 0
M  V30 18945 O 1781.26 0.818413 1.84022 0
M  V30 18946 C 1778.32 1.70602 3.01821 0
M  V30 18947 C 1777.38 2.94028 3.12803 0
M  V30 18948 C 1776.62 2.98024 4.42739 0
M  V30 18949 O 1776.84 2.10232 5.30244 0
M  V30 18950 O 1775.77 3.90266 4.58231 0
M  V30 18951 H 1779.6 2.62138 1.53354 0
M  V30 18952 H 1777.18 1.32148 0.696948 0
M  V30 18953 H 1779.07 1.75849 3.82956 0
M  V30 18954 H 1777.74 0.780346 3.14153 0
M  V30 18955 H 1776.65 2.9431 2.30938 0
M  V30 18956 H 1777.98 3.86003 3.0539 0
M  V30 18957 N 1779.63 -0.772489 1.37369 0
M  V30 18958 C 1780.58 -1.87592 1.29589 0
M  V30 18959 C 1781.57 -1.59846 0.183869 0
M  V30 18960 O 1782.76 -1.71989 0.418198 0
M  V30 18961 C 1779.89 -3.25051 1.1044 0
M  V30 18962 C 1778.97 -3.58751 2.26183 0
M  V30 18963 N 1779.36 -3.63638 3.51569 0
M  V30 18964 C 1777.66 -3.88912 2.1832 0
M  V30 18965 C 1778.36 -3.94064 4.27888 0
M  V30 18966 N 1777.34 -4.09925 3.57019 0
M  V30 18967 H 1781.14 -1.89621 2.24546 0
M  V30 18968 H 1778.66 -0.968896 1.30331 0
M  V30 18969 H 1780.65 -4.03989 1.02951 0
M  V30 18970 H 1779.31 -3.24286 0.163986 0
M  V30 18971 H 1780.32 -3.45862 3.85487 0
M  V30 18972 H 1777 -3.95973 1.32332 0
M  V30 18973 H 1778.39 -4.04627 5.36401 0
M  V30 18974 N 1781.11 -1.21927 -0.998575 0
M  V30 18975 C 1782.06 -0.981427 -2.10881 0
M  V30 18976 C 1783.05 0.0735277 -1.6924 0
M  V30 18977 O 1784.26 -0.078422 -1.79829 0
M  V30 18978 H 1780.63 -0.300155 -0.6895 0
M  V30 18979 H 1782.6 -1.92367 -2.28117 0
M  V30 18980 C 1781.35 -0.56967 -3.43002 0
M  V30 18981 H 1780.68 -1.37309 -3.75481 0
M  V30 18982 H 1782.12 -0.442618 -4.21683 0
M  V30 18983 C 1780.58 0.720145 -3.29113 0
M  V30 18984 O 1781.11 1.77404 -3.60403 0
M  V30 18985 N 1779.31 0.689122 -2.82311 0
M  V30 18986 H 1778.86 -0.168817 -2.57046 0
M  V30 18987 H 1778.82 1.55241 -2.734 0
M  V30 18988 N 1782.59 1.19452 -1.02805 0
M  V30 18989 C 1783.83 1.89662 -0.734839 0
M  V30 18990 C 1784.19 1.78072 0.728567 0
M  V30 18991 O 1783.48 1.16172 1.52363 0
M  V30 18992 C 1783.68 3.3941 -1.11964 0
M  V30 18993 C 1783.51 3.65573 -2.61891 0
M  V30 18994 C 1782.28 3.83649 -3.28849 0
M  V30 18995 C 1784.47 3.67197 -3.60098 0
M  V30 18996 N 1782.46 3.97434 -4.67888 0
M  V30 18997 C 1783.83 3.86544 -4.84751 0
M  V30 18998 C 1785.88 3.50219 -3.53908 0
M  V30 18999 C 1784.58 3.90672 -6.0396 0
M  V30 19000 C 1786.61 3.55624 -4.72531 0
M  V30 19001 C 1785.97 3.75455 -5.95997 0
M  V30 19002 H 1782.07 0.713192 -0.320751 0
M  V30 19003 H 1784.66 1.43565 -1.31519 0
M  V30 19004 H 1782.83 3.84232 -0.567503 0
M  V30 19005 H 1784.56 3.97136 -0.778765 0
M  V30 19006 H 1781.31 3.82504 -2.79263 0
M  V30 19007 H 1781.74 4.08178 -5.40111 0
M  V30 19008 H 1786.38 3.33843 -2.59439 0
M  V30 19009 H 1784.1 4.0584 -6.98799 0
M  V30 19010 H 1787.68 3.43778 -4.69369 0
M  V30 19011 H 1786.56 3.79511 -6.86252 0
M  V30 19012 N 1784.07 0.805805 1.35442 0
M  V30 19013 C 1785.31 0.385808 1.98791 0
M  V30 19014 C 1785.64 -1.04681 1.63927 0
M  V30 19015 O 1784.9 -1.7408 0.894125 0
M  V30 19016 C 1785.2 0.515335 3.53665 0
M  V30 19017 C 1784.86 1.91115 4.08394 0
M  V30 19018 C 1783.52 2.29302 4.23053 0
M  V30 19019 C 1785.88 2.82437 4.38039 0
M  V30 19020 C 1783.2 3.58182 4.64675 0
M  V30 19021 C 1785.56 4.10762 4.811 0
M  V30 19022 C 1784.22 4.48949 4.93964 0
M  V30 19023 H 1783.49 0.141177 0.727427 0
M  V30 19024 H 1786.14 1.02644 1.61667 0
M  V30 19025 H 1784.44 -0.208753 3.91243 0
M  V30 19026 H 1786.14 0.171152 4.00635 0
M  V30 19027 H 1782.73 1.60446 3.97436 0
M  V30 19028 H 1786.91 2.54183 4.26268 0
M  V30 19029 H 1782.17 3.87618 4.72824 0
M  V30 19030 H 1786.34 4.81626 5.03 0
M  V30 19031 H 1783.97 5.48867 5.25974 0
M  V30 19032 N 1785.54 -1.47344 0.559239 0
M  V30 19033 C 1786.45 -2.33826 -0.190402 0
M  V30 19034 C 1787.47 -1.48317 -0.909846 0
M  V30 19035 O 1788.65 -1.8124 -0.878286 0
M  V30 19036 C 1785.71 -3.25052 -1.20591 0
M  V30 19037 C 1784.77 -4.26452 -0.493671 0
M  V30 19038 C 1784.01 -5.13319 -1.4608 0
M  V30 19039 O 1784.23 -5.02678 -2.69576 0
M  V30 19040 O 1783.16 -5.93799 -0.984178 0
M  V30 19041 H 1786.99 -2.99232 0.519046 0
M  V30 19042 H 1784.57 -1.45936 0.319836 0
M  V30 19043 H 1786.46 -3.81397 -1.79205 0
M  V30 19044 H 1785.13 -2.62272 -1.89724 0
M  V30 19045 H 1784.04 -3.73861 0.133714 0
M  V30 19046 H 1785.37 -4.91952 0.15625 0
M  V30 19047 N 1787.02 -0.295795 -1.54799 0
M  V30 19048 C 1788.25 0.317763 -2.04445 0
M  V30 19049 C 1788.67 1.47915 -1.17331 0
M  V30 19050 O 1788.02 1.81425 -0.197811 0
M  V30 19051 C 1788.07 0.778995 -3.53007 0
M  V30 19052 O 1787.79 -0.33616 -4.36808 0
M  V30 19053 C 1789.3 1.45824 -4.18629 0
M  V30 19054 H 1786.52 0.0697871 -0.667361 0
M  V30 19055 H 1789.06 -0.433911 -1.99844 0
M  V30 19056 H 1787.21 1.4807 -3.57986 0
M  V30 19057 H 1787.63 0.0219928 -5.24495 0
M  V30 19058 H 1789.1 1.73218 -5.24118 0
M  V30 19059 H 1789.58 2.3966 -3.68049 0
M  V30 19060 H 1790.19 0.799847 -4.17711 0
M  V30 19061 N 1788.5 1.57583 -0.0234236 0
M  V30 19062 C 1789.75 1.91565 0.656449 0
M  V30 19063 C 1790.08 0.899298 1.72461 0
M  V30 19064 O 1789.33 -0.0926107 1.95481 0
M  V30 19065 C 1789.63 3.32283 1.31616 0
M  V30 19066 C 1789.3 4.49305 0.378925 0
M  V30 19067 C 1787.96 4.81048 0.120945 0
M  V30 19068 C 1790.31 5.20526 -0.264985 0
M  V30 19069 C 1787.64 5.81373 -0.788846 0
M  V30 19070 C 1789.99 6.21821 -1.1628 0
M  V30 19071 C 1788.65 6.52009 -1.42972 0
M  V30 19072 H 1787.92 0.700985 0.240212 0
M  V30 19073 H 1790.57 1.91316 -0.0839711 0
M  V30 19074 H 1788.88 3.28766 2.13119 0
M  V30 19075 H 1790.57 3.55845 1.84866 0
M  V30 19076 H 1787.16 4.24517 0.590173 0
M  V30 19077 H 1791.35 4.96238 -0.0787258 0
M  V30 19078 H 1786.6 6.0311 -1.00341 0
M  V30 19079 H 1790.78 6.7613 -1.66796 0
M  V30 19080 H 1788.4 7.29564 -2.13636 0
M  V30 19081 N 1789.98 -0.249655 1.5561 0
M  V30 19082 C 1791.23 -0.975982 1.76515 0
M  V30 19083 C 1791.54 -1.86589 0.586843 0
M  V30 19084 O 1792.75 -2.62876 0.678844 0
M  V30 19085 C 1791.2 -1.7854 3.12492 0
M  V30 19086 C 1790.81 -0.943014 4.37963 0
M  V30 19087 C 1792.56 -2.50462 3.42737 0
M  V30 19088 C 1790.46 -1.74816 5.64972 0
M  V30 19089 H 1789.39 -0.368139 0.65802 0
M  V30 19090 H 1792.04 -0.230745 1.82043 0
M  V30 19091 H 1790.43 -2.57248 3.01064 0
M  V30 19092 H 1791.6 -0.198453 4.60372 0
M  V30 19093 H 1789.91 -0.337249 4.15032 0
M  V30 19094 H 1792.51 -3.1115 4.34845 0
M  V30 19095 H 1792.85 -3.21938 2.63935 0
M  V30 19096 H 1793.39 -1.78767 3.55369 0
M  V30 19097 H 1790.13 -1.07719 6.46589 0
M  V30 19098 H 1789.65 -2.46807 5.46668 0
M  V30 19099 H 1791.33 -2.31599 6.04128 0
M  V30 19100 N 1791.46 -1.48941 -0.515198 0
M  V30 19101 C 1792.7 -1.57943 -1.27207 0
M  V30 19102 C 1793.04 -0.259011 -1.92465 0
M  V30 19103 O 1792.31 0.736277 -1.80026 0
M  V30 19104 C 1792.59 -2.72846 -2.35005 0
M  V30 19105 C 1792.45 -4.14639 -1.74341 0
M  V30 19106 C 1793.77 -2.83444 -3.36672 0
M  V30 19107 H 1790.89 -0.574909 -0.461138 0
M  V30 19108 H 1793.53 -1.81172 -0.572413 0
M  V30 19109 H 1791.68 -2.5317 -2.94681 0
M  V30 19110 H 1793.35 -4.45793 -1.18602 0
M  V30 19111 H 1791.59 -4.20948 -1.0481 0
M  V30 19112 H 1792.26 -4.90883 -2.52463 0
M  V30 19113 H 1794.74 -3.01311 -2.86969 0
M  V30 19114 H 1793.62 -3.65542 -4.09475 0
M  V30 19115 H 1793.88 -1.92208 -3.98131 0
M  V30 19116 N 1792.94 0.765193 -1.37777 0
M  V30 19117 C 1794.18 1.52397 -1.33347 0
M  V30 19118 C 1794.51 1.94335 0.0800559 0
M  V30 19119 O 1793.77 1.64847 1.05469 0
M  V30 19120 C 1794.06 2.79732 -2.22452 0
M  V30 19121 C 1793.73 2.56814 -3.70618 0
M  V30 19122 C 1792.39 2.50272 -4.10996 0
M  V30 19123 C 1794.74 2.36494 -4.64457 0
M  V30 19124 C 1792.07 2.2141 -5.43318 0
M  V30 19125 C 1794.42 2.09155 -5.97024 0
M  V30 19126 C 1793.09 2.01062 -6.36499 0
M  V30 19127 H 1792.36 0.55766 -0.487951 0
M  V30 19128 H 1795.01 0.880853 -1.70039 0
M  V30 19129 H 1793.31 3.48635 -1.78777 0
M  V30 19130 H 1795.01 3.37639 -2.16335 0
M  V30 19131 H 1791.6 2.62771 -3.38599 0
M  V30 19132 H 1795.78 2.40534 -4.34117 0
M  V30 19133 H 1791.04 2.13644 -5.72858 0
M  V30 19134 H 1795.21 1.92433 -6.69285 0
M  V30 19135 H 1792.84 1.78462 -7.38956 0
M  V30 19136 N 1794.41 1.22455 0.992094 0
M  V30 19137 C 1795.35 0.938597 2.08004 0
M  V30 19138 C 1796.32 -0.118779 1.62166 0
M  V30 19139 O 1797.51 0.0129778 1.88496 0
M  V30 19140 C 1794.64 0.411803 3.36187 0
M  V30 19141 C 1793.68 1.45398 4.00951 0
M  V30 19142 S 1794.51 3.02757 4.417 0
M  V30 19143 C 1795.67 2.51718 5.73052 0
M  V30 19144 H 1795.9 1.85987 2.3194 0
M  V30 19145 H 1793.44 1.0557 1.12669 0
M  V30 19146 H 1795.39 0.114452 4.1034 0
M  V30 19147 H 1794.06 -0.488368 3.1028 0
M  V30 19148 H 1793.25 1.03528 4.93252 0
M  V30 19149 H 1792.85 1.70008 3.33127 0
M  V30 19150 H 1795.14 1.93009 6.49426 0
M  V30 19151 H 1796.09 3.42513 6.1975 0
M  V30 19152 H 1796.49 1.92974 5.30491 0
M  V30 19153 N 1795.89 -1.18905 1.03437 0
M  V30 19154 C 1797.14 -1.88055 0.729268 0
M  V30 19155 C 1797.45 -1.80833 -0.745564 0
M  V30 19156 O 1798.66 -2.45285 -1.16393 0
M  V30 19157 C 1797.12 -3.37341 1.25415 0
M  V30 19158 C 1796.72 -3.53107 2.75716 0
M  V30 19159 C 1798.47 -4.11932 1.02529 0
M  V30 19160 C 1796.37 -4.96317 3.21595 0
M  V30 19161 H 1795.3 -0.704345 0.269098 0
M  V30 19162 H 1797.96 -1.34397 1.24938 0
M  V30 19163 H 1796.34 -3.90429 0.661925 0
M  V30 19164 H 1797.51 -3.10322 3.40642 0
M  V30 19165 H 1795.83 -2.91913 2.96944 0
M  V30 19166 H 1798.42 -5.17552 1.34328 0
M  V30 19167 H 1798.77 -4.16283 -0.0377114 0
M  V30 19168 H 1799.3 -3.64998 1.5818 0
M  V30 19169 H 1796.04 -4.97131 4.27248 0
M  V30 19170 H 1795.56 -5.39842 2.61401 0
M  V30 19171 H 1797.24 -5.65 3.15253 0
M  V30 19172 N 1797.37 -0.812977 -1.35013 0
M  V30 19173 C 1798.3 -0.242397 -2.32238 0
M  V30 19174 C 1799.28 0.635676 -1.57776 0
M  V30 19175 O 1800.47 0.564621 -1.85811 0
M  V30 19176 C 1797.6 0.604686 -3.41995 0
M  V30 19177 C 1796.55 -0.17542 -4.2764 0
M  V30 19178 C 1795.88 0.793772 -5.28775 0
M  V30 19179 C 1797.18 -1.37802 -5.03794 0
M  V30 19180 H 1798.87 -1.0547 -2.80208 0
M  V30 19181 H 1796.42 -0.508619 -1.34718 0
M  V30 19182 H 1798.37 1.01396 -4.09019 0
M  V30 19183 H 1797.09 1.44994 -2.9265 0
M  V30 19184 H 1795.75 -0.565948 -3.62205 0
M  V30 19185 H 1795.4 1.63471 -4.75696 0
M  V30 19186 H 1795.1 0.276085 -5.86951 0
M  V30 19187 H 1796.62 1.20112 -5.9867 0
M  V30 19188 H 1798.04 -1.04328 -5.63727 0
M  V30 19189 H 1796.43 -1.83064 -5.71496 0
M  V30 19190 H 1797.5 -2.16138 -4.34065 0
M  V30 19191 N 1798.85 1.47045 -0.567045 0
M  V30 19192 C 1799.78 2.32929 0.163191 0
M  V30 19193 C 1800.76 1.44393 0.899142 0
M  V30 19194 O 1801.94 1.73235 0.87768 0
M  V30 19195 C 1799.07 3.26369 1.18745 0
M  V30 19196 C 1798.03 4.24223 0.567335 0
M  V30 19197 C 1797.35 5.07058 1.69693 0
M  V30 19198 C 1798.65 5.2004 -0.485319 0
M  V30 19199 H 1800.35 2.94233 -0.553837 0
M  V30 19200 H 1797.89 1.41488 -0.267789 0
M  V30 19201 H 1799.85 3.85299 1.70654 0
M  V30 19202 H 1798.57 2.6314 1.93455 0
M  V30 19203 H 1797.23 3.66534 0.0694525 0
M  V30 19204 H 1796.88 4.40226 2.43331 0
M  V30 19205 H 1796.58 5.73316 1.28774 0
M  V30 19206 H 1798.1 5.68848 2.2191 0
M  V30 19207 H 1799.52 5.73277 -0.0519049 0
M  V30 19208 H 1797.91 5.94554 -0.813942 0
M  V30 19209 H 1798.98 4.64921 -1.37754 0
M  V30 19210 N 1800.33 0.304 1.5464 0
M  V30 19211 C 1801.55 -0.309709 2.05075 0
M  V30 19212 C 1801.98 -1.46509 1.1797 0
M  V30 19213 O 1801.33 -1.80359 0.184437 0
M  V30 19214 C 1801.38 -0.740734 3.5291 0
M  V30 19215 O 1800.49 -1.8452 3.68817 0
M  V30 19216 H 1799.83 -0.0596065 0.661319 0
M  V30 19217 H 1802.36 0.446718 1.99664 0
M  V30 19218 H 1802.37 -1.02873 3.94818 0
M  V30 19219 H 1801.04 0.104422 4.15769 0
M  V30 19220 H 1799.62 -1.55753 3.38815 0
M  V30 19221 N 1801.8 -1.57568 0.0317802 0
M  V30 19222 C 1803.03 -1.9662 -0.659953 0
M  V30 19223 C 1803.45 -0.908334 -1.64715 0
M  V30 19224 O 1802.81 0.130491 -1.8083 0
M  V30 19225 C 1802.86 -3.34765 -1.34033 0
M  V30 19226 O 1801.96 -3.31317 -2.45566 0
M  V30 19227 H 1801.3 -0.641024 -0.17316 0
M  V30 19228 H 1803.83 -2.04382 0.0944231 0
M  V30 19229 H 1803.84 -3.71056 -1.69651 0
M  V30 19230 H 1802.52 -4.11302 -0.616716 0
M  V30 19231 H 1801.1 -3.06746 -2.1204 0
M  V30 19232 N 1803.28 0.241399 -1.5574 0
M  V30 19233 C 1804.53 0.96675 -1.77478 0
M  V30 19234 C 1804.85 1.85644 -0.596757 0
M  V30 19235 O 1804.12 1.92035 0.387236 0
M  V30 19236 H 1802.7 0.35995 -0.654557 0
M  V30 19237 H 1805.36 0.258023 -1.93185 0
M  V30 19238 H 1804.46 1.58524 -2.68843 0
M  V30 19239 N 1804.76 1.49212 0.507292 0
M  V30 19240 C 1805.72 1.64908 1.59179 0
M  V30 19241 C 1806.72 0.521176 1.5212 0
M  V30 19242 O 1807.91 0.787492 1.55384 0
M  V30 19243 C 1805.05 1.64057 2.98828 0
M  V30 19244 H 1806.24 2.6163 1.46593 0
M  V30 19245 H 1803.79 1.38149 0.731062 0
M  V30 19246 H 1804.53 0.688956 3.16897 0
M  V30 19247 H 1804.31 2.45963 3.0536 0
M  V30 19248 H 1805.8 1.78279 3.77633 0
M  V30 19249 N 1806.24 -0.757876 1.38181 0
M  V30 19250 C 1807.17 -1.88519 1.37779 0
M  V30 19251 C 1808.15 -1.68336 0.24432 0
M  V30 19252 O 1809.33 -1.88991 0.446762 0
M  V30 19253 C 1806.46 -3.2599 1.19784 0
M  V30 19254 C 1805.42 -3.60764 2.30289 0
M  V30 19255 C 1804.74 -4.96927 1.97403 0
M  V30 19256 C 1806.04 -3.66082 3.72533 0
M  V30 19257 H 1807.74 -1.89112 2.32114 0
M  V30 19258 H 1805.28 -0.908442 1.11729 0
M  V30 19259 H 1807.24 -4.04504 1.18129 0
M  V30 19260 H 1805.96 -3.25864 0.219088 0
M  V30 19261 H 1804.62 -2.84566 2.31123 0
M  V30 19262 H 1804.27 -4.93356 0.98023 0
M  V30 19263 H 1803.97 -5.21162 2.7141 0
M  V30 19264 H 1805.49 -5.77825 1.97359 0
M  V30 19265 H 1806.91 -4.3472 3.73754 0
M  V30 19266 H 1805.3 -4.01824 4.4571 0
M  V30 19267 H 1806.37 -2.66412 4.05158 0
M  V30 19268 N 1807.72 -1.22979 -0.985586 0
M  V30 19269 C 1808.68 -1.00763 -2.05862 0
M  V30 19270 C 1809.68 0.02864 -1.60774 0
M  V30 19271 O 1810.87 -0.210593 -1.72922 0
M  V30 19272 C 1808 -0.523547 -3.36856 0
M  V30 19273 H 1809.19 -1.95982 -2.27004 0
M  V30 19274 H 1806.75 -1.0495 -1.15824 0
M  V30 19275 H 1807.48 0.432658 -3.21401 0
M  V30 19276 H 1807.27 -1.27127 -3.70919 0
M  V30 19277 H 1808.76 -0.388591 -4.15788 0
M  V30 19278 N 1809.19 1.18355 -1.04066 0
M  V30 19279 C 1810.44 1.88335 -0.744046 0
M  V30 19280 C 1810.77 1.80353 0.728219 0
M  V30 19281 O 1810.02 1.19839 1.54717 0
M  V30 19282 C 1810.32 3.38203 -1.15557 0
M  V30 19283 C 1809.99 3.66389 -2.62812 0
M  V30 19284 C 1808.65 3.73791 -3.03041 0
M  V30 19285 C 1811 3.78773 -3.58023 0
M  V30 19286 C 1808.33 3.91056 -4.37369 0
M  V30 19287 C 1810.68 3.97554 -4.92071 0
M  V30 19288 C 1809.35 4.03192 -5.3197 0
M  V30 19289 H 1808.62 0.689168 -0.272266 0
M  V30 19290 H 1811.26 1.40087 -1.30568 0
M  V30 19291 H 1809.57 3.8843 -0.512741 0
M  V30 19292 H 1811.27 3.90691 -0.903428 0
M  V30 19293 H 1807.86 3.61244 -2.30652 0
M  V30 19294 H 1812.04 3.72386 -3.28089 0
M  V30 19295 H 1807.3 3.93665 -4.67801 0
M  V30 19296 H 1811.47 4.06078 -5.65751 0
M  V30 19297 H 1809.1 4.16323 -6.36066 0
M  V30 19298 N 1810.67 0.820125 1.3458 0
M  V30 19299 C 1811.58 0.241913 2.33349 0
M  V30 19300 C 1812.6 -0.622228 1.62494 0
M  V30 19301 O 1813.77 -0.530787 1.9428 0
M  V30 19302 C 1810.84 -0.588944 3.41661 0
M  V30 19303 C 1809.9 0.29727 4.2827 0
M  V30 19304 C 1809.13 -0.494028 5.31409 0
M  V30 19305 O 1809.36 -1.72755 5.4361 0
M  V30 19306 O 1808.29 0.122182 6.01776 0
M  V30 19307 H 1812.12 1.05934 2.84626 0
M  V30 19308 H 1809.7 0.582205 1.37589 0
M  V30 19309 H 1811.58 -1.06174 4.07805 0
M  V30 19310 H 1810.26 -1.38374 2.92633 0
M  V30 19311 H 1809.17 0.817495 3.65059 0
M  V30 19312 H 1810.5 1.05635 4.80731 0
M  V30 19313 N 1812.15 -1.46743 0.574835 0
M  V30 19314 C 1813.43 -1.95598 -0.00908149 0
M  V30 19315 C 1813.81 -1.5175 -1.46748 0
M  V30 19316 O 1813.16 -0.764502 -2.15331 0
M  V30 19317 C 1813.37 -3.48657 0.154756 0
M  V30 19318 C 1814.71 -4.24596 0.0185002 0
M  V30 19319 O 1815.74 -3.56103 0.0831904 0
M  V30 19320 O 1814.6 -5.4636 -0.123733 0
M  V30 19321 H 1811.69 -0.825219 -0.0542477 0
M  V30 19322 H 1814.24 -1.57063 0.6426 0
M  V30 19323 H 1813.01 -3.73433 1.16891 0
M  V30 19324 H 1812.63 -3.94001 -0.533724 0
M  V30 19325 N 1813.63 -0.312197 -1.54477 0
M  V30 19326 C 1814.88 0.294607 -1.99537 0
M  V30 19327 C 1815.19 1.54137 -1.20421 0
M  V30 19328 O 1816.4 2.22346 -1.55803 0
M  V30 19329 C 1814.85 0.57547 -3.55269 0
M  V30 19330 C 1814.46 -0.653591 -4.43207 0
M  V30 19331 C 1816.2 1.14285 -4.08827 0
M  V30 19332 C 1814.11 -0.345261 -5.90391 0
M  V30 19333 H 1813.04 0.113859 -0.745354 0
M  V30 19334 H 1815.69 -0.42265 -1.78566 0
M  V30 19335 H 1814.07 1.35262 -3.72183 0
M  V30 19336 H 1815.25 -1.42945 -4.38068 0
M  V30 19337 H 1813.56 -1.14039 -4.0048 0
M  V30 19338 H 1816.16 1.38797 -5.16371 0
M  V30 19339 H 1816.5 2.08866 -3.60112 0
M  V30 19340 H 1817.04 0.427154 -3.955 0
M  V30 19341 H 1813.78 -1.25994 -6.43277 0
M  V30 19342 H 1813.3 0.393106 -5.9851 0
M  V30 19343 H 1814.97 0.0490847 -6.46981 0
M  V30 19344 N 1815.11 1.57549 -0.040136 0
M  V30 19345 C 1816.34 1.96272 0.645049 0
M  V30 19346 C 1816.74 0.915804 1.65559 0
M  V30 19347 O 1816.09 -0.109666 1.83372 0
M  V30 19348 C 1816.15 3.31187 1.3984 0
M  V30 19349 C 1815.81 4.53739 0.544953 0
M  V30 19350 C 1816.81 5.19573 -0.184369 0
M  V30 19351 C 1814.5 5.0001 0.479119 0
M  V30 19352 C 1816.49 6.30006 -0.968081 0
M  V30 19353 C 1814.18 6.10322 -0.30829 0
M  V30 19354 C 1815.17 6.7518 -1.03059 0
M  V30 19355 O 1814.86 7.83373 -1.80507 0
M  V30 19356 H 1814.59 0.651051 0.181958 0
M  V30 19357 H 1817.15 2.05159 -0.0995179 0
M  V30 19358 H 1815.38 3.18823 2.18835 0
M  V30 19359 H 1817.07 3.54735 1.97276 0
M  V30 19360 H 1817.83 4.84789 -0.142908 0
M  V30 19361 H 1813.71 4.49325 1.0309 0
M  V30 19362 H 1817.26 6.80562 -1.53237 0
M  V30 19363 H 1813.15 6.44543 -0.351428 0
M  V30 19364 H 1813.92 8.00094 -1.72601 0
M  V30 19365 N 1816.58 -0.233136 1.55866 0
M  V30 19366 C 1817.83 -0.957205 1.7754 0
M  V30 19367 C 1818.15 -1.85956 0.606601 0
M  V30 19368 O 1819.35 -2.62142 0.706687 0
M  V30 19369 C 1817.81 -1.75215 3.14369 0
M  V30 19370 C 1817.42 -0.896509 4.38938 0
M  V30 19371 C 1819.16 -2.46813 3.45374 0
M  V30 19372 C 1817.07 -1.68814 5.66794 0
M  V30 19373 H 1816 -0.361139 0.661887 0
M  V30 19374 H 1818.65 -0.211424 1.82278 0
M  V30 19375 H 1817.03 -2.54041 3.03775 0
M  V30 19376 H 1818.2 -0.149614 4.60557 0
M  V30 19377 H 1816.52 -0.293211 4.15366 0
M  V30 19378 H 1819.12 -3.0652 4.38121 0
M  V30 19379 H 1819.46 -3.19121 2.67334 0
M  V30 19380 H 1819.99 -1.74987 3.57245 0
M  V30 19381 H 1816.73 -1.00855 6.47695 0
M  V30 19382 H 1816.25 -2.40995 5.49255 0
M  V30 19383 H 1817.93 -2.25178 6.06551 0
M  V30 19384 N 1818.06 -1.49479 -0.499372 0
M  V30 19385 C 1818.97 -1.69006 -1.62709 0
M  V30 19386 C 1819.99 -0.572681 -1.64306 0
M  V30 19387 O 1821.17 -0.847586 -1.82696 0
M  V30 19388 C 1818.23 -1.75382 -2.99069 0
M  V30 19389 C 1817.29 -2.98968 -3.08086 0
M  V30 19390 C 1816.52 -3.0503 -4.37941 0
M  V30 19391 O 1816.75 -2.18641 -5.26832 0
M  V30 19392 O 1815.68 -3.97507 -4.51964 0
M  V30 19393 H 1819.51 -2.64544 -1.49164 0
M  V30 19394 H 1817.09 -1.3324 -0.675836 0
M  V30 19395 H 1818.97 -1.81919 -3.8011 0
M  V30 19396 H 1817.65 -0.830226 -3.12872 0
M  V30 19397 H 1816.56 -2.97947 -2.26227 0
M  V30 19398 H 1817.89 -3.90812 -2.9921 0
M  V30 19399 N 1819.54 0.750537 -1.38581 0
M  V30 19400 C 1820.47 1.87411 -1.31946 0
M  V30 19401 C 1821.49 1.61151 -0.231101 0
M  V30 19402 O 1822.68 1.71674 -0.488893 0
M  V30 19403 C 1819.78 3.23112 -1.02233 0
M  V30 19404 C 1818.95 3.76852 -2.22039 0
M  V30 19405 C 1818.01 4.91077 -1.89023 0
M  V30 19406 O 1817.03 5.0555 -2.61549 0
M  V30 19407 N 1818.24 5.74287 -0.847021 0
M  V30 19408 H 1821 1.93613 -2.28767 0
M  V30 19409 H 1818.56 0.930603 -1.32482 0
M  V30 19410 H 1820.55 3.97074 -0.78193 0
M  V30 19411 H 1819.12 3.12277 -0.141981 0
M  V30 19412 H 1818.34 2.94421 -2.62126 0
M  V30 19413 H 1819.63 4.09489 -3.01987 0
M  V30 19414 H 1819.03 5.65166 -0.245635 0
M  V30 19415 H 1817.59 6.48383 -0.666505 0
M  V30 19416 N 1821.02 1.235 0.979051 0
M  V30 19417 C 1822.44 0.997948 1.24552 0
M  V30 19418 C 1822.64 -0.300139 1.99252 0
M  V30 19419 O 1821.69 -1.01923 2.31015 0
M  V30 19420 C 1823 2.2057 2.04375 0
M  V30 19421 C 1824.55 2.25075 2.17509 0
M  V30 19422 C 1825.03 3.45441 3.00724 0
M  V30 19423 N 1826.52 3.45688 3.08308 0
M  V30 19424 C 1827.25 4.35478 3.73024 0
M  V30 19425 N 1826.75 5.35506 4.39551 0
M  V30 19426 N 1828.54 4.23218 3.69923 0
M  V30 19427 H 1820.69 2.06936 0.478649 0
M  V30 19428 H 1822.96 0.907514 0.274083 0
M  V30 19429 H 1822.66 3.14781 1.56863 0
M  V30 19430 H 1822.54 2.21765 3.05123 0
M  V30 19431 H 1824.92 1.31403 2.64229 0
M  V30 19432 H 1825 2.27912 1.16146 0
M  V30 19433 H 1824.65 4.3942 2.547 0
M  V30 19434 H 1824.58 3.39845 4.0226 0
M  V30 19435 H 1827.07 2.73315 2.60974 0
M  V30 19436 H 1827.38 6.00274 4.86715 0
M  V30 19437 H 1825.73 5.39404 4.38256 0
M  V30 19438 H 1828.92 3.44315 3.17119 0
M  V30 19439 H 1829.09 4.93396 4.20076 0
M  V30 19440 N 1822.5 -1.17802 1.04693 0
M  V30 19441 C 1823.44 -2.21648 0.643478 0
M  V30 19442 C 1824.41 -1.6233 -0.351858 0
M  V30 19443 O 1825.6 -1.89228 -0.244414 0
M  V30 19444 C 1822.74 -3.45095 0.019145 0
M  V30 19445 C 1821.85 -4.18725 1.06271 0
M  V30 19446 C 1820.99 -5.29644 0.406224 0
M  V30 19447 C 1820.03 -5.95055 1.43444 0
M  V30 19448 N 1819.16 -6.97499 0.802482 0
M  V30 19449 H 1824 -2.55513 1.53352 0
M  V30 19450 H 1821.54 -1.25518 0.767051 0
M  V30 19451 H 1823.5 -4.15642 -0.36023 0
M  V30 19452 H 1822.13 -3.1183 -0.834386 0
M  V30 19453 H 1821.18 -3.46943 1.55996 0
M  V30 19454 H 1822.49 -4.63486 1.84342 0
M  V30 19455 H 1821.65 -6.06694 -0.027012 0
M  V30 19456 H 1820.39 -4.86003 -0.406525 0
M  V30 19457 H 1819.39 -5.1674 1.87775 0
M  V30 19458 H 1820.62 -6.40778 2.249 0
M  V30 19459 H 1818.56 -6.55999 0.010153 0
M  V30 19460 H 1818.48 -7.40545 1.52081 0
M  V30 19461 H 1819.75 -7.78504 0.393852 0
M  V30 19462 N 1823.98 -0.827251 -1.34143 0
M  V30 19463 C 1825.2 -0.430502 -2.02372 0
M  V30 19464 C 1825.62 0.964846 -1.62284 0
M  V30 19465 O 1824.98 1.62512 -0.830421 0
M  V30 19466 C 1825.03 -0.528077 -3.57622 0
M  V30 19467 O 1824.75 -1.86843 -3.96259 0
M  V30 19468 C 1826.25 -0.126784 -4.43119 0
M  V30 19469 H 1823.47 -0.172244 -0.648516 0
M  V30 19470 H 1826.01 -1.11661 -1.71325 0
M  V30 19471 H 1824.17 0.109991 -3.87244 0
M  V30 19472 H 1824.58 -1.84573 -4.90951 0
M  V30 19473 H 1826.06 -0.246133 -5.51451 0
M  V30 19474 H 1826.53 0.930138 -4.29238 0
M  V30 19475 H 1827.14 -0.738824 -4.18833 0
M  V30 19476 N 1825.45 1.46436 -0.582609 0
M  V30 19477 C 1826.7 2.01592 -0.0658642 0
M  V30 19478 C 1827.02 1.45972 1.30198 0
M  V30 19479 O 1828.22 1.92948 1.91006 0
M  V30 19480 C 1826.68 3.59837 -0.0671547 0
M  V30 19481 C 1826.29 4.24453 -1.43331 0
M  V30 19482 C 1828.03 4.22652 0.395652 0
M  V30 19483 C 1825.94 5.74777 -1.39233 0
M  V30 19484 H 1824.87 0.753712 -0.0208533 0
M  V30 19485 H 1827.52 1.6817 -0.734241 0
M  V30 19486 H 1825.9 3.90336 0.667385 0
M  V30 19487 H 1827.07 4.05564 -2.18757 0
M  V30 19488 H 1825.39 3.73732 -1.83613 0
M  V30 19489 H 1827.99 5.32844 0.445101 0
M  V30 19490 H 1828.33 3.91581 1.41316 0
M  V30 19491 H 1828.86 3.96779 -0.284821 0
M  V30 19492 H 1825.6 6.10508 -2.38664 0
M  V30 19493 H 1825.12 5.9593 -0.680268 0
M  V30 19494 H 1826.8 6.37491 -1.1052 0
M  V30 19495 N 1826.93 0.320385 1.54309 0
M  V30 19496 C 1827.88 -0.547011 2.24224 0
M  V30 19497 C 1828.85 -1.11419 1.23187 0
M  V30 19498 O 1830.03 -1.15513 1.5186 0
M  V30 19499 C 1827.17 -1.70359 3.0012 0
M  V30 19500 C 1826.29 -1.16594 4.15968 0
M  V30 19501 C 1825.42 -2.28795 4.79402 0
M  V30 19502 C 1824.46 -1.72263 5.8736 0
M  V30 19503 N 1823.6 -2.78113 6.44668 0
M  V30 19504 H 1828.44 0.0557725 2.97948 0
M  V30 19505 H 1825.97 0.0392956 1.47048 0
M  V30 19506 H 1827.93 -2.38413 3.42367 0
M  V30 19507 H 1826.56 -2.27771 2.28736 0
M  V30 19508 H 1825.61 -0.377054 3.78527 0
M  V30 19509 H 1826.93 -0.712254 4.93689 0
M  V30 19510 H 1826.08 -3.04759 5.24601 0
M  V30 19511 H 1824.82 -2.77499 4.01056 0
M  V30 19512 H 1823.82 -0.947951 5.41566 0
M  V30 19513 H 1825.05 -1.2444 6.67601 0
M  V30 19514 H 1823 -3.26115 5.69197 0
M  V30 19515 H 1822.91 -2.37298 7.17792 0
M  V30 19516 H 1824.18 -3.53916 6.94524 0
M  V30 19517 N 1828.41 -1.57525 0.0484906 0
M  V30 19518 C 1829.64 -1.96897 -0.635553 0
M  V30 19519 C 1830.05 -0.925909 -1.64537 0
M  V30 19520 O 1829.41 0.0901742 -1.82277 0
M  V30 19521 C 1829.46 -3.36348 -1.32484 0
M  V30 19522 O 1829.18 -4.36656 -0.355464 0
M  V30 19523 C 1830.68 -3.90463 -2.0989 0
M  V30 19524 H 1827.9 -0.648062 -0.173945 0
M  V30 19525 H 1830.45 -2.04182 0.113997 0
M  V30 19526 H 1828.6 -3.30222 -2.02564 0
M  V30 19527 H 1829.02 -5.17613 -0.847153 0
M  V30 19528 H 1830.49 -4.90326 -2.53543 0
M  V30 19529 H 1830.97 -3.25745 -2.94596 0
M  V30 19530 H 1831.57 -3.99918 -1.44726 0
M  V30 19531 N 1829.89 0.224867 -1.55988 0
M  V30 19532 C 1830.82 1.30573 -1.87152 0
M  V30 19533 C 1831.8 1.45363 -0.728591 0
M  V30 19534 O 1832.98 1.61228 -0.976615 0
M  V30 19535 C 1830.11 2.67648 -2.07563 0
M  V30 19536 C 1829.16 2.69891 -3.30244 0
M  V30 19537 S 1829.99 2.2429 -4.86265 0
M  V30 19538 C 1831.14 3.63247 -5.09708 0
M  V30 19539 H 1831.38 1.03943 -2.78537 0
M  V30 19540 H 1828.91 0.426946 -1.4838 0
M  V30 19541 H 1830.87 3.46566 -2.20005 0
M  V30 19542 H 1829.53 2.91504 -1.1698 0
M  V30 19543 H 1828.72 3.70612 -3.41559 0
M  V30 19544 H 1828.32 1.99034 -3.16641 0
M  V30 19545 H 1830.62 4.58913 -4.98403 0
M  V30 19546 H 1831.56 3.5685 -6.11608 0
M  V30 19547 H 1831.97 3.56781 -4.37456 0
M  V30 19548 N 1831.37 1.49742 0.491438 0
M  V30 19549 C 1832.3 1.70033 1.60034 0
M  V30 19550 C 1833.28 0.549076 1.60994 0
M  V30 19551 O 1834.46 0.785983 1.77584 0
M  V30 19552 C 1831.59 1.7757 2.98473 0
M  V30 19553 C 1830.55 2.9258 3.12379 0
M  V30 19554 C 1829.87 2.85239 4.52264 0
M  V30 19555 C 1831.17 4.33385 2.91504 0
M  V30 19556 H 1832.87 2.62875 1.43307 0
M  V30 19557 H 1830.41 1.26502 0.687989 0
M  V30 19558 H 1832.36 1.90351 3.75958 0
M  V30 19559 H 1831.09 0.813343 3.1631 0
M  V30 19560 H 1829.75 2.79417 2.37322 0
M  V30 19561 H 1829.4 1.86892 4.66991 0
M  V30 19562 H 1829.1 3.62437 4.62508 0
M  V30 19563 H 1830.62 3.00041 5.31797 0
M  V30 19564 H 1832.03 4.4718 3.58752 0
M  V30 19565 H 1830.43 5.11878 3.13211 0
M  V30 19566 H 1831.5 4.47166 1.87539 0
M  V30 19567 N 1832.84 -0.743177 1.38977 0
M  V30 19568 C 1833.75 -1.88767 1.39299 0
M  V30 19569 C 1834.77 -1.71587 0.288782 0
M  V30 19570 O 1835.95 -1.94331 0.52892 0
M  V30 19571 C 1833.01 -3.24263 1.22697 0
M  V30 19572 C 1832.07 -3.53895 2.43017 0
M  V30 19573 C 1831.31 -4.82925 2.27198 0
M  V30 19574 O 1831.53 -5.56056 1.27114 0
M  V30 19575 O 1830.46 -5.12271 3.16009 0
M  V30 19576 H 1834.29 -1.9145 2.35755 0
M  V30 19577 H 1831.87 -0.889881 1.20006 0
M  V30 19578 H 1833.76 -4.05251 1.1554 0
M  V30 19579 H 1832.43 -3.22368 0.293317 0
M  V30 19580 H 1831.34 -2.73026 2.5575 0
M  V30 19581 H 1832.67 -3.6056 3.35048 0
M  V30 19582 N 1834.32 -1.24018 -0.972487 0
M  V30 19583 C 1835.55 -1.10232 -1.74736 0
M  V30 19584 C 1835.96 0.348409 -1.85964 0
M  V30 19585 O 1835.3 1.25245 -1.34386 0
M  V30 19586 C 1835.37 -1.66263 -3.18743 0
M  V30 19587 C 1835.03 -3.151 -3.31 0
M  V30 19588 C 1836.03 -4.12305 -3.16703 0
M  V30 19589 C 1833.71 -3.54965 -3.55394 0
M  V30 19590 C 1835.71 -5.47357 -3.26617 0
M  V30 19591 C 1833.39 -4.9016 -3.64947 0
M  V30 19592 C 1834.39 -5.86165 -3.5057 0
M  V30 19593 O 1834.08 -7.18903 -3.5977 0
M  V30 19594 H 1833.81 -0.386036 -0.554935 0
M  V30 19595 H 1836.36 -1.64505 -1.22993 0
M  V30 19596 H 1834.59 -1.06419 -3.71769 0
M  V30 19597 H 1836.28 -1.47837 -3.7802 0
M  V30 19598 H 1837.05 -3.82848 -2.97745 0
M  V30 19599 H 1832.93 -2.80747 -3.65653 0
M  V30 19600 H 1836.47 -6.22273 -3.15312 0
M  V30 19601 H 1832.37 -5.1929 -3.83416 0
M  V30 19602 H 1833.14 -7.26759 -3.76515 0
M  V30 19603 N 1835.8 1.17245 -1.05316 0
M  V30 19604 C 1836.76 2.19508 -0.659467 0
M  V30 19605 C 1837.76 1.58169 0.289697 0
M  V30 19606 O 1838.95 1.74045 0.0734019 0
M  V30 19607 C 1836.09 3.40886 0.0311886 0
M  V30 19608 H 1837.28 2.55852 -1.5646 0
M  V30 19609 H 1834.83 1.31348 -0.847193 0
M  V30 19610 H 1835.57 3.10088 0.949535 0
M  V30 19611 H 1835.35 3.86655 -0.651191 0
M  V30 19612 H 1836.84 4.16573 0.292702 0
M  V30 19613 N 1837.28 0.834353 1.33702 0
M  V30 19614 C 1838.56 0.350003 1.92443 0
M  V30 19615 C 1838.94 -1.1641 1.76102 0
M  V30 19616 O 1838.28 -1.97646 1.14666 0
M  V30 19617 C 1838.49 0.791928 3.39896 0
M  V30 19618 C 1839.84 0.797338 4.17046 0
M  V30 19619 O 1840.87 0.735242 3.48529 0
M  V30 19620 O 1839.72 0.880963 5.39353 0
M  V30 19621 H 1836.82 0.0981048 0.82116 0
M  V30 19622 H 1839.36 0.919905 1.42604 0
M  V30 19623 H 1838.14 1.83433 3.45641 0
M  V30 19624 H 1837.76 0.198349 3.97105 0
M  V30 19625 N 1838.76 -1.46125 0.590367 0
M  V30 19626 C 1839.7 -2.30384 -0.138481 0
M  V30 19627 C 1840.67 -1.41078 -0.876715 0
M  V30 19628 O 1841.86 -1.70022 -0.86587 0
M  V30 19629 C 1839 -3.25684 -1.14122 0
M  V30 19630 C 1838.11 -4.30091 -0.405639 0
M  V30 19631 C 1837.25 -5.12513 -1.39657 0
M  V30 19632 C 1836.29 -6.08662 -0.647833 0
M  V30 19633 N 1835.42 -6.83924 -1.5872 0
M  V30 19634 H 1840.26 -2.9218 0.586086 0
M  V30 19635 H 1837.8 -1.43991 0.300835 0
M  V30 19636 H 1839.76 -3.79388 -1.73553 0
M  V30 19637 H 1838.39 -2.6568 -1.8334 0
M  V30 19638 H 1837.44 -3.79184 0.303858 0
M  V30 19639 H 1838.75 -4.98477 0.179348 0
M  V30 19640 H 1837.91 -5.70531 -2.06346 0
M  V30 19641 H 1836.64 -4.44105 -2.01549 0
M  V30 19642 H 1835.65 -5.4979 0.0327878 0
M  V30 19643 H 1836.87 -6.79091 -0.0342018 0
M  V30 19644 H 1834.82 -6.1822 -2.19408 0
M  V30 19645 H 1834.74 -7.48599 -1.05522 0
M  V30 19646 H 1836.01 -7.46496 -2.2442 0
M  V30 19647 N 1840.23 -0.328564 -1.54137 0
M  V30 19648 C 1841.48 0.272909 -2.00955 0
M  V30 19649 C 1841.81 1.51393 -1.2163 0
M  V30 19650 O 1841.09 1.92174 -0.299916 0
M  V30 19651 C 1841.37 0.602055 -3.55031 0
M  V30 19652 C 1841.22 -0.650016 -4.45078 0
M  V30 19653 C 1842.54 1.4177 -4.1664 0
M  V30 19654 H 1839.66 0.0977177 -0.730493 0
M  V30 19655 H 1842.3 -0.446133 -1.84688 0
M  V30 19656 H 1840.45 1.21464 -3.69024 0
M  V30 19657 H 1842.13 -1.28821 -4.42948 0
M  V30 19658 H 1840.37 -1.2779 -4.1455 0
M  V30 19659 H 1841.04 -0.375181 -5.50724 0
M  V30 19660 H 1843.52 0.899849 -4.06254 0
M  V30 19661 H 1842.39 1.61676 -5.24549 0
M  V30 19662 H 1842.65 2.41534 -3.70289 0
M  V30 19663 N 1841.71 1.57497 -0.0568439 0
M  V30 19664 C 1842.96 1.92914 0.615668 0
M  V30 19665 C 1843.29 0.935677 1.70515 0
M  V30 19666 O 1842.54 -0.0511255 1.95633 0
M  V30 19667 C 1842.84 3.35 1.24538 0
M  V30 19668 C 1842.51 4.50008 0.283536 0
M  V30 19669 C 1841.17 4.81196 0.0188809 0
M  V30 19670 C 1843.52 5.19847 -0.375336 0
M  V30 19671 C 1840.85 5.79569 -0.911986 0
M  V30 19672 C 1843.2 6.19215 -1.29443 0
M  V30 19673 C 1841.87 6.48829 -1.5677 0
M  V30 19674 H 1841.14 0.705922 0.225289 0
M  V30 19675 H 1843.78 1.91095 -0.124533 0
M  V30 19676 H 1842.09 3.33213 2.06098 0
M  V30 19677 H 1843.78 3.59686 1.77277 0
M  V30 19678 H 1840.37 4.25674 0.499994 0
M  V30 19679 H 1844.56 4.95959 -0.183967 0
M  V30 19680 H 1839.81 6.00846 -1.13112 0
M  V30 19681 H 1843.99 6.7244 -1.811 0
M  V30 19682 H 1841.62 7.24868 -2.29063 0
M  V30 19683 N 1843.19 -0.216591 1.56105 0
M  V30 19684 C 1844.42 -0.957013 1.83436 0
M  V30 19685 C 1844.83 -1.77743 0.636612 0
M  V30 19686 O 1844.19 -1.78178 -0.394833 0
M  V30 19687 C 1844.24 -1.87058 3.09341 0
M  V30 19688 O 1843.96 -1.08331 4.24495 0
M  V30 19689 C 1845.46 -2.72448 3.49695 0
M  V30 19690 H 1842.68 -0.280249 0.609673 0
M  V30 19691 H 1845.23 -0.230324 2.03199 0
M  V30 19692 H 1843.38 -2.55116 2.91539 0
M  V30 19693 H 1843.8 -1.70391 4.96052 0
M  V30 19694 H 1845.27 -3.32244 4.40815 0
M  V30 19695 H 1845.75 -3.4509 2.71679 0
M  V30 19696 H 1846.35 -2.09796 3.69954 0
M  V30 19697 N 1844.67 -1.5 -0.48349 0
M  V30 19698 C 1845.9 -1.63867 -1.25821 0
M  V30 19699 C 1846.31 -0.316335 -1.86537 0
M  V30 19700 O 1845.65 0.710307 -1.69412 0
M  V30 19701 C 1845.71 -2.66251 -2.41559 0
M  V30 19702 C 1845.38 -4.10141 -2.01577 0
M  V30 19703 C 1846.37 -4.964 -1.5454 0
M  V30 19704 C 1844.06 -4.55983 -2.10677 0
M  V30 19705 C 1846.05 -6.26546 -1.17129 0
M  V30 19706 C 1843.74 -5.86137 -1.72877 0
M  V30 19707 C 1844.74 -6.71243 -1.2618 0
M  V30 19708 O 1844.42 -7.98969 -0.888988 0
M  V30 19709 H 1844.16 -0.554155 -0.387154 0
M  V30 19710 H 1846.71 -1.96893 -0.585005 0
M  V30 19711 H 1844.94 -2.28442 -3.12011 0
M  V30 19712 H 1846.63 -2.69466 -3.03551 0
M  V30 19713 H 1847.4 -4.62205 -1.46942 0
M  V30 19714 H 1843.27 -3.89895 -2.45974 0
M  V30 19715 H 1846.82 -6.92927 -0.806093 0
M  V30 19716 H 1842.72 -6.19857 -1.80131 0
M  V30 19717 H 1843.48 -8.12133 -1.01893 0
M  V30 19718 N 1846.15 0.735796 -1.39369 0
M  V30 19719 C 1847.4 1.49079 -1.35861 0
M  V30 19720 C 1847.71 1.95553 0.0429472 0
M  V30 19721 O 1848.91 2.70758 0.200614 0
M  V30 19722 C 1847.37 2.69375 -2.38674 0
M  V30 19723 C 1846.98 2.29854 -3.8454 0
M  V30 19724 C 1848.72 3.47199 -2.44239 0
M  V30 19725 C 1846.63 3.46868 -4.78996 0
M  V30 19726 H 1845.56 0.559825 -0.505086 0
M  V30 19727 H 1848.21 0.80271 -1.65012 0
M  V30 19728 H 1846.59 3.40253 -2.02592 0
M  V30 19729 H 1847.77 1.66527 -4.29657 0
M  V30 19730 H 1846.08 1.65123 -3.82261 0
M  V30 19731 H 1848.68 4.34234 -3.12002 0
M  V30 19732 H 1849.02 3.89608 -1.46668 0
M  V30 19733 H 1849.55 2.83349 -2.7921 0
M  V30 19734 H 1846.29 3.0951 -5.77827 0
M  V30 19735 H 1845.81 4.09178 -4.38558 0
M  V30 19736 H 1847.49 4.13213 -4.9786 0
M  V30 19737 N 1847.63 1.24532 0.965897 0
M  V30 19738 C 1848.87 1.08609 1.7091 0
M  V30 19739 C 1849.2 -0.374781 1.90855 0
M  V30 19740 O 1848.46 -1.29321 1.46883 0
M  V30 19741 C 1848.75 1.77305 3.10319 0
M  V30 19742 C 1848.42 3.27233 3.10209 0
M  V30 19743 C 1847.08 3.68136 3.09887 0
M  V30 19744 C 1849.43 4.23071 3.04402 0
M  V30 19745 C 1846.76 5.03309 3.01492 0
M  V30 19746 C 1849.11 5.58254 2.9755 0
M  V30 19747 C 1847.78 5.985 2.95557 0
M  V30 19748 H 1847.05 0.39743 0.625404 0
M  V30 19749 H 1849.7 1.54658 1.12929 0
M  V30 19750 H 1848 1.23655 3.71775 0
M  V30 19751 H 1849.7 1.62449 3.66622 0
M  V30 19752 H 1846.29 2.9468 3.11226 0
M  V30 19753 H 1850.47 3.92469 3.03779 0
M  V30 19754 H 1845.73 5.33686 2.98311 0
M  V30 19755 H 1849.9 6.32218 2.92016 0
M  V30 19756 H 1847.53 7.03203 2.88807 0
M  V30 19757 N 1849.1 -1.16685 1.05936 0
M  V30 19758 C 1850.35 -1.86466 0.768993 0
M  V30 19759 C 1850.67 -1.82374 -0.707038 0
M  V30 19760 O 1851.87 -2.47699 -1.11164 0
M  V30 19761 C 1850.33 -3.34605 1.32543 0
M  V30 19762 C 1849.94 -3.47179 2.83144 0
M  V30 19763 C 1851.68 -4.09665 1.11244 0
M  V30 19764 C 1849.59 -4.89384 3.3205 0
M  V30 19765 H 1848.52 -0.698479 0.283978 0
M  V30 19766 H 1851.17 -1.31717 1.27761 0
M  V30 19767 H 1849.55 -3.88937 0.744592 0
M  V30 19768 H 1850.72 -3.03027 3.47148 0
M  V30 19769 H 1849.04 -2.85549 3.03069 0
M  V30 19770 H 1851.64 -5.14586 1.45276 0
M  V30 19771 H 1851.98 -4.16269 0.0505969 0
M  V30 19772 H 1852.51 -3.61561 1.65887 0
M  V30 19773 H 1849.25 -4.87957 4.37697 0
M  V30 19774 H 1848.77 -5.34176 2.72793 0
M  V30 19775 H 1850.45 -5.58186 3.27166 0
M  V30 19776 N 1850.58 -0.841432 -1.33258 0
M  V30 19777 C 1851.51 -0.291603 -2.31672 0
M  V30 19778 C 1852.49 0.602066 -1.59089 0
M  V30 19779 O 1853.68 0.525081 -1.86967 0
M  V30 19780 C 1850.81 0.532008 -3.43201 0
M  V30 19781 C 1849.76 -0.26609 -4.27172 0
M  V30 19782 C 1849.09 0.681432 -5.3034 0
M  V30 19783 C 1850.39 -1.48457 -5.00757 0
M  V30 19784 H 1852.08 -1.1139 -2.77908 0
M  V30 19785 H 1849.63 -0.53708 -1.33609 0
M  V30 19786 H 1851.58 0.926977 -4.11078 0
M  V30 19787 H 1850.3 1.38754 -2.9566 0
M  V30 19788 H 1848.96 -0.64265 -3.60923 0
M  V30 19789 H 1848.61 1.53344 -4.79056 0
M  V30 19790 H 1848.31 0.151522 -5.87405 0
M  V30 19791 H 1849.84 1.07386 -6.01083 0
M  V30 19792 H 1851.25 -1.16262 -5.61388 0
M  V30 19793 H 1849.65 -1.95145 -5.67484 0
M  V30 19794 H 1850.72 -2.25296 -4.29383 0
M  V30 19795 N 1852.06 1.4581 -0.598108 0
M  V30 19796 C 1852.97 2.34249 0.12834 0
M  V30 19797 C 1853.99 1.50677 0.870202 0
M  V30 19798 O 1855.16 1.83505 0.829924 0
M  V30 19799 C 1852.23 3.28135 1.1193 0
M  V30 19800 C 1851.29 4.27611 0.380432 0
M  V30 19801 C 1850.52 5.17012 1.32419 0
M  V30 19802 O 1850.74 5.09648 2.56154 0
M  V30 19803 O 1849.68 5.962 0.826397 0
M  V30 19804 H 1853.5 2.9775 -0.598199 0
M  V30 19805 H 1851.09 1.45037 -0.358416 0
M  V30 19806 H 1852.97 3.86014 1.6903 0
M  V30 19807 H 1851.65 2.6721 1.82703 0
M  V30 19808 H 1850.55 3.73375 -0.23279 0
M  V30 19809 H 1851.89 4.91365 -0.286627 0
M  V30 19810 N 1853.54 0.336733 1.53961 0
M  V30 19811 C 1854.47 -0.566072 2.21068 0
M  V30 19812 C 1855.45 -1.10558 1.1923 0
M  V30 19813 O 1856.63 -1.16712 1.48022 0
M  V30 19814 C 1853.76 -1.77806 2.88275 0
M  V30 19815 C 1852.81 -1.36863 4.03944 0
M  V30 19816 S 1853.64 -0.394182 5.34047 0
M  V30 19817 C 1854.79 -1.61316 6.04754 0
M  V30 19818 H 1855.03 0.00393395 2.973 0
M  V30 19819 H 1852.56 0.120807 1.53927 0
M  V30 19820 H 1854.52 -2.47342 3.27616 0
M  V30 19821 H 1853.18 -2.31928 2.11822 0
M  V30 19822 H 1852.37 -2.2721 4.49879 0
M  V30 19823 H 1851.97 -0.752832 3.66345 0
M  V30 19824 H 1854.27 -2.54866 6.27734 0
M  V30 19825 H 1855.21 -1.19572 6.97931 0
M  V30 19826 H 1855.62 -1.80612 5.34827 0
M  V30 19827 N 1855.02 -1.57465 0.0651956 0
M  V30 19828 C 1855.95 -2.15374 -0.902018 0
M  V30 19829 C 1856.93 -1.07904 -1.31494 0
M  V30 19830 O 1858.11 -1.35909 -1.38717 0
M  V30 19831 C 1855.24 -2.71005 -2.17195 0
M  V30 19832 C 1854.2 -3.83583 -1.89864 0
M  V30 19833 C 1853.52 -4.25789 -3.23432 0
M  V30 19834 C 1854.82 -5.08112 -1.20913 0
M  V30 19835 H 1856.52 -2.96445 -0.419631 0
M  V30 19836 H 1854.06 -1.42599 -0.200401 0
M  V30 19837 H 1856.01 -3.1016 -2.8527 0
M  V30 19838 H 1854.74 -1.87146 -2.67664 0
M  V30 19839 H 1853.4 -3.44921 -1.24197 0
M  V30 19840 H 1853.05 -3.38861 -3.71729 0
M  V30 19841 H 1852.75 -5.01673 -3.05938 0
M  V30 19842 H 1854.27 -4.67555 -3.92715 0
M  V30 19843 H 1855.68 -5.44624 -1.79046 0
M  V30 19844 H 1854.08 -5.8923 -1.137 0
M  V30 19845 H 1855.15 -4.84538 -0.187224 0
M  V30 19846 N 1856.49 0.20831 -1.56217 0
M  V30 19847 C 1857.42 1.26115 -1.96513 0
M  V30 19848 C 1858.4 1.48185 -0.835183 0
M  V30 19849 O 1859.59 1.60145 -1.09851 0
M  V30 19850 C 1856.72 2.6082 -2.29326 0
M  V30 19851 C 1855.67 2.53385 -3.44935 0
M  V30 19852 C 1855 3.92241 -3.63388 0
M  V30 19853 C 1856.3 2.07026 -4.79518 0
M  V30 19854 H 1857.99 0.92635 -2.84709 0
M  V30 19855 H 1855.54 0.444169 -1.36979 0
M  V30 19856 H 1857.49 3.34644 -2.56109 0
M  V30 19857 H 1856.22 2.96014 -1.37997 0
M  V30 19858 H 1854.88 1.82018 -3.18222 0
M  V30 19859 H 1854.52 4.24766 -2.69413 0
M  V30 19860 H 1854.22 3.88145 -4.41154 0
M  V30 19861 H 1855.75 4.67707 -3.92533 0
M  V30 19862 H 1857.16 2.70601 -5.05419 0
M  V30 19863 H 1855.56 2.13961 -5.60661 0
M  V30 19864 H 1856.63 1.02298 -4.73986 0
M  V30 19865 N 1857.97 1.50255 0.475528 0
M  V30 19866 C 1858.92 1.68794 1.57408 0
M  V30 19867 C 1859.89 0.529252 1.57442 0
M  V30 19868 O 1861.07 0.759301 1.75041 0
M  V30 19869 C 1858.21 1.78401 2.9541 0
M  V30 19870 C 1857.33 3.05742 3.05198 0
M  V30 19871 C 1856.46 3.06172 4.34088 0
M  V30 19872 C 1855.5 4.27985 4.37602 0
M  V30 19873 N 1854.64 4.26179 5.57957 0
M  V30 19874 H 1859.48 2.62583 1.40905 0
M  V30 19875 H 1857.01 1.30169 0.685152 0
M  V30 19876 H 1858.97 1.81952 3.75432 0
M  V30 19877 H 1857.6 0.880556 3.10558 0
M  V30 19878 H 1856.65 3.11683 2.18077 0
M  V30 19879 H 1857.97 3.95722 3.03654 0
M  V30 19880 H 1857.12 3.08427 5.22454 0
M  V30 19881 H 1855.86 2.14014 4.38234 0
M  V30 19882 H 1854.86 4.25947 3.47634 0
M  V30 19883 H 1856.09 5.21364 4.35151 0
M  V30 19884 H 1854.04 3.36873 5.62897 0
M  V30 19885 H 1853.95 5.09923 5.58135 0
M  V30 19886 H 1855.22 4.32574 6.4846 0
M  V30 19887 N 1859.45 -0.728395 1.39758 0
M  V30 19888 C 1860.7 -1.48916 1.38548 0
M  V30 19889 C 1861.05 -1.92393 -0.0166523 0
M  V30 19890 O 1860.34 -1.64371 -0.984518 0
M  V30 19891 C 1860.54 -2.73735 2.29791 0
M  V30 19892 C 1860.37 -2.42465 3.78736 0
M  V30 19893 C 1859.14 -2.34435 4.47625 0
M  V30 19894 C 1861.33 -2.07573 4.70551 0
M  V30 19895 N 1859.32 -1.95705 5.8187 0
M  V30 19896 C 1860.69 -1.7934 5.93496 0
M  V30 19897 C 1862.74 -1.94098 4.58509 0
M  V30 19898 C 1861.45 -1.38989 7.05744 0
M  V30 19899 C 1863.47 -1.55151 5.70686 0
M  V30 19900 C 1862.83 -1.27807 6.92708 0
M  V30 19901 H 1858.93 -0.543508 0.562248 0
M  V30 19902 H 1861.52 -0.845916 1.75363 0
M  V30 19903 H 1859.69 -3.3583 1.95123 0
M  V30 19904 H 1861.42 -3.39985 2.19528 0
M  V30 19905 H 1858.17 -2.51751 4.01146 0
M  V30 19906 H 1858.6 -1.78914 6.52931 0
M  V30 19907 H 1863.24 -2.13904 3.64698 0
M  V30 19908 H 1860.96 -1.17925 7.99449 0
M  V30 19909 H 1864.54 -1.45321 5.63359 0
M  V30 19910 H 1863.42 -0.981212 7.78037 0
M  V30 19911 N 1860.93 -1.25042 -0.959279 0
M  V30 19912 C 1862.17 -1.09677 -1.70584 0
M  V30 19913 C 1862.51 0.362184 -1.90793 0
M  V30 19914 O 1861.78 1.26722 -1.47552 0
M  V30 19915 C 1862.06 -1.84646 -3.09157 0
M  V30 19916 C 1861.92 -3.38342 -2.96387 0
M  V30 19917 C 1863.24 -1.62588 -4.08966 0
M  V30 19918 H 1860.36 -0.399817 -0.619125 0
M  V30 19919 H 1863 -1.53816 -1.11537 0
M  V30 19920 H 1861.15 -1.47129 -3.59563 0
M  V30 19921 H 1862.82 -3.85507 -2.53342 0
M  V30 19922 H 1861.06 -3.66291 -2.32408 0
M  V30 19923 H 1861.73 -3.86007 -3.94592 0
M  V30 19924 H 1864.21 -1.9524 -3.67451 0
M  V30 19925 H 1863.09 -2.17488 -5.03975 0
M  V30 19926 H 1863.35 -0.566103 -4.38461 0
M  V30 19927 N 1862.41 1.16121 -1.06553 0
M  V30 19928 C 1863.37 2.18796 -0.682711 0
M  V30 19929 C 1864.37 1.58467 0.272905 0
M  V30 19930 O 1865.56 1.74113 0.0549379 0
M  V30 19931 C 1862.69 3.409 -0.00496866 0
M  V30 19932 H 1863.88 2.54178 -1.59165 0
M  V30 19933 H 1861.44 1.30442 -0.861077 0
M  V30 19934 H 1862.17 3.11077 0.916593 0
M  V30 19935 H 1861.96 3.85942 -0.692165 0
M  V30 19936 H 1863.45 4.1686 0.248503 0
M  V30 19937 N 1863.88 0.848487 1.3281 0
M  V30 19938 C 1865.11 0.461973 2.01369 0
M  V30 19939 C 1865.52 -0.944176 1.63957 0
M  V30 19940 O 1864.87 -1.62659 0.853677 0
M  V30 19941 C 1864.93 0.514163 3.55804 0
M  V30 19942 C 1864.59 1.87812 4.16624 0
M  V30 19943 C 1865.59 2.84271 4.353 0
M  V30 19944 C 1863.27 2.17358 4.52836 0
M  V30 19945 C 1865.27 4.08433 4.89348 0
M  V30 19946 C 1862.95 3.41774 5.0659 0
M  V30 19947 C 1863.95 4.37128 5.24793 0
M  V30 19948 O 1863.64 5.59342 5.774 0
M  V30 19949 H 1863.37 0.180645 0.651416 0
M  V30 19950 H 1865.93 1.14535 1.70502 0
M  V30 19951 H 1864.16 -0.226037 3.86039 0
M  V30 19952 H 1865.85 0.14412 4.05644 0
M  V30 19953 H 1866.61 2.62747 4.07663 0
M  V30 19954 H 1862.49 1.43927 4.37957 0
M  V30 19955 H 1866.03 4.82869 5.03471 0
M  V30 19956 H 1861.93 3.63151 5.33659 0
M  V30 19957 H 1862.7 5.61215 5.95802 0
M  V30 19958 N 1865.36 -1.4549 0.605832 0
M  V30 19959 C 1866.61 -2.01852 0.10014 0
M  V30 19960 C 1866.93 -1.47699 -1.27319 0
M  V30 19961 O 1866.2 -0.670571 -1.84066 0
M  V30 19962 H 1864.78 -0.746225 0.0340291 0
M  V30 19963 H 1867.44 -1.78311 0.786834 0
M  V30 19964 H 1866.54 -3.12062 0.0485925 0
M  V30 19965 N 1866.84 -0.344893 -1.5378 0
M  V30 19966 C 1868.09 0.251208 -2.00936 0
M  V30 19967 C 1868.42 1.50449 -1.23269 0
M  V30 19968 O 1867.67 1.93249 -0.308738 0
M  V30 19969 C 1867.97 0.609495 -3.52165 0
M  V30 19970 C 1867.64 -0.547063 -4.47569 0
M  V30 19971 C 1866.3 -0.864456 -4.73372 0
M  V30 19972 C 1868.65 -1.3229 -5.04132 0
M  V30 19973 C 1865.98 -1.96003 -5.52991 0
M  V30 19974 C 1868.33 -2.40874 -5.84947 0
M  V30 19975 C 1866.99 -2.73171 -6.09043 0
M  V30 19976 H 1866.26 0.0919233 -0.735276 0
M  V30 19977 H 1868.91 -0.473086 -1.85564 0
M  V30 19978 H 1867.22 1.41452 -3.65375 0
M  V30 19979 H 1868.91 1.08262 -3.86109 0
M  V30 19980 H 1865.5 -0.289626 -4.2762 0
M  V30 19981 H 1869.69 -1.09095 -4.84161 0
M  V30 19982 H 1864.94 -2.21449 -5.69886 0
M  V30 19983 H 1869.12 -3.01421 -6.27789 0
M  V30 19984 H 1866.74 -3.5819 -6.70525 0
M  V30 19985 N 1868.32 1.57428 -0.0735454 0
M  V30 19986 C 1869.25 2.09808 0.922679 0
M  V30 19987 C 1870.26 1.0306 1.26026 0
M  V30 19988 O 1871.45 1.30568 1.21714 0
M  V30 19989 C 1868.55 2.54492 2.23801 0
M  V30 19990 C 1867.73 3.84832 2.07901 0
M  V30 19991 C 1866.78 4.15592 3.22754 0
M  V30 19992 O 1865.81 4.85163 2.97667 0
M  V30 19993 N 1867.01 3.69277 4.47901 0
M  V30 19994 H 1869.78 2.95905 0.475456 0
M  V30 19995 H 1867.34 1.61511 0.112135 0
M  V30 19996 H 1869.33 2.7213 2.99545 0
M  V30 19997 H 1867.9 1.73523 2.60016 0
M  V30 19998 H 1867.12 3.76557 1.16614 0
M  V30 19999 H 1868.41 4.70144 1.9453 0
M  V30 20000 H 1867.81 3.13076 4.71168 0
M  V30 20001 H 1866.36 3.92111 5.20665 0
M  V30 20002 N 1869.8 -0.200022 1.56326 0
M  V30 20003 C 1871.02 -0.937503 1.84441 0
M  V30 20004 C 1871.44 -1.77058 0.655428 0
M  V30 20005 O 1870.8 -1.78587 -0.375913 0
M  V30 20006 C 1870.85 -1.83766 3.11307 0
M  V30 20007 O 1870.57 -1.03823 4.2562 0
M  V30 20008 C 1872.07 -2.68724 3.52565 0
M  V30 20009 H 1869.29 -0.273767 0.612611 0
M  V30 20010 H 1871.83 -0.208759 2.03432 0
M  V30 20011 H 1869.99 -2.52009 2.94228 0
M  V30 20012 H 1870.4 -1.6512 4.97831 0
M  V30 20013 H 1871.88 -3.2755 4.44314 0
M  V30 20014 H 1872.35 -3.4219 2.75323 0
M  V30 20015 H 1872.96 -2.0586 3.72158 0
M  V30 20016 N 1871.27 -1.50505 -0.467553 0
M  V30 20017 C 1872.5 -1.65193 -1.24076 0
M  V30 20018 C 1872.91 -0.336102 -1.86191 0
M  V30 20019 O 1872.26 0.692299 -1.70156 0
M  V30 20020 C 1872.32 -2.68798 -2.38721 0
M  V30 20021 C 1871.98 -4.12256 -1.97216 0
M  V30 20022 C 1872.98 -4.98012 -1.49267 0
M  V30 20023 C 1870.66 -4.58192 -2.05829 0
M  V30 20024 C 1872.66 -6.27753 -1.10477 0
M  V30 20025 C 1870.34 -5.87938 -1.66651 0
M  V30 20026 C 1871.34 -6.72544 -1.19053 0
M  V30 20027 O 1871.03 -7.99867 -0.804197 0
M  V30 20028 H 1870.76 -0.55823 -0.381254 0
M  V30 20029 H 1873.32 -1.97502 -0.564089 0
M  V30 20030 H 1871.55 -2.31739 -3.09571 0
M  V30 20031 H 1873.24 -2.7267 -3.00675 0
M  V30 20032 H 1874 -4.63737 -1.42031 0
M  V30 20033 H 1869.88 -3.92482 -2.41825 0
M  V30 20034 H 1873.42 -6.93743 -0.732554 0
M  V30 20035 H 1869.32 -6.21733 -1.73546 0
M  V30 20036 H 1870.09 -8.13168 -0.932733 0
M  V30 20037 N 1872.75 0.720973 -1.40142 0
M  V30 20038 C 1874 1.48078 -1.38128 0
M  V30 20039 C 1874.33 1.94491 0.0181891 0
M  V30 20040 O 1873.58 1.68119 1.00172 0
M  V30 20041 C 1873.88 2.72513 -2.31239 0
M  V30 20042 C 1873.55 2.44893 -3.78601 0
M  V30 20043 C 1872.21 2.3707 -4.1875 0
M  V30 20044 C 1874.56 2.21598 -4.71745 0
M  V30 20045 C 1871.89 2.04013 -5.50087 0
M  V30 20046 C 1874.24 1.90055 -6.03375 0
M  V30 20047 C 1872.91 1.8071 -6.42573 0
M  V30 20048 H 1872.18 0.541854 -0.505446 0
M  V30 20049 H 1874.82 0.826311 -1.72755 0
M  V30 20050 H 1873.13 3.4277 -1.89778 0
M  V30 20051 H 1874.82 3.30586 -2.26967 0
M  V30 20052 H 1871.41 2.51866 -3.46788 0
M  V30 20053 H 1875.6 2.26601 -4.41549 0
M  V30 20054 H 1870.85 1.95311 -5.79365 0
M  V30 20055 H 1875.03 1.71042 -6.75069 0
M  V30 20056 H 1872.66 1.54862 -7.44259 0
M  V30 20057 N 1874.23 1.25549 0.952634 0
M  V30 20058 C 1875.46 1.13162 1.73211 0
M  V30 20059 C 1875.87 -0.314383 1.86164 0
M  V30 20060 O 1875.23 -1.21608 1.3608 0
M  V30 20061 C 1875.28 1.78273 3.14485 0
M  V30 20062 O 1875 3.17221 3.02163 0
M  V30 20063 C 1876.5 1.71691 4.08702 0
M  V30 20064 H 1873.72 0.394613 0.542698 0
M  V30 20065 H 1876.27 1.65951 1.19502 0
M  V30 20066 H 1874.42 1.2945 3.65132 0
M  V30 20067 H 1874.84 3.49266 3.91297 0
M  V30 20068 H 1876.31 2.21906 5.05432 0
M  V30 20069 H 1876.79 0.681094 4.33887 0
M  V30 20070 H 1877.39 2.20012 3.63971 0
M  V30 20071 N 1875.71 -1.15554 1.07168 0
M  V30 20072 C 1876.66 -2.22296 0.684626 0
M  V30 20073 C 1877.65 -1.66656 -0.303675 0
M  V30 20074 O 1878.86 -1.79218 -0.167588 0
M  V30 20075 H 1875.23 -0.723996 0.203306 0
M  V30 20076 H 1877.2 -2.52223 1.59456 0
M  V30 20077 C 1875.95 -3.47566 0.0965118 0
M  V30 20078 H 1875.27 -3.90701 0.848122 0
M  V30 20079 H 1876.71 -4.2378 -0.136671 0
M  V30 20080 C 1875.17 -3.16215 -1.16231 0
M  V30 20081 O 1875.7 -3.32838 -2.24903 0
M  V30 20082 N 1873.91 -2.70273 -1.06774 0
M  V30 20083 H 1873.46 -2.56947 -0.183357 0
M  V30 20084 H 1873.41 -2.49671 -1.9108 0
M  V30 20085 N 1877.19 -0.855519 -1.32358 0
M  V30 20086 C 1878.15 -0.305794 -2.27151 0
M  V30 20087 C 1879.15 0.535008 -1.51639 0
M  V30 20088 O 1880.34 0.346394 -1.70721 0
M  V30 20089 C 1877.47 0.567275 -3.36147 0
M  V30 20090 H 1878.67 -1.14245 -2.77287 0
M  V30 20091 H 1876.22 -0.629924 -1.43044 0
M  V30 20092 H 1876.95 1.42571 -2.9128 0
M  V30 20093 H 1876.74 -0.0345714 -3.92085 0
M  V30 20094 H 1878.23 0.944644 -4.06775 0
M  V30 20095 N 1878.67 1.45167 -0.61354 0
M  V30 20096 C 1879.91 2.03048 -0.119679 0
M  V30 20097 C 1880.27 1.47264 1.23819 0
M  V30 20098 O 1879.56 0.640171 1.80589 0
M  V30 20099 C 1879.75 3.57389 -0.0281394 0
M  V30 20100 C 1879.58 4.28144 -1.37559 0
M  V30 20101 C 1878.35 4.6583 -1.95783 0
M  V30 20102 C 1880.55 4.59722 -2.30566 0
M  V30 20103 N 1878.53 5.21471 -3.23946 0
M  V30 20104 C 1879.9 5.16259 -3.43331 0
M  V30 20105 C 1881.96 4.41664 -2.29864 0
M  V30 20106 C 1880.66 5.56642 -4.55568 0
M  V30 20107 C 1882.69 4.83083 -3.41152 0
M  V30 20108 C 1882.05 5.39719 -4.5264 0
M  V30 20109 H 1878.15 0.777111 -0.0873027 0
M  V30 20110 H 1880.73 1.76905 -0.813193 0
M  V30 20111 H 1878.9 3.8318 0.634609 0
M  V30 20112 H 1880.64 4.01927 0.472928 0
M  V30 20113 H 1877.39 4.49577 -1.48922 0
M  V30 20114 H 1877.81 5.53785 -3.89424 0
M  V30 20115 H 1882.46 3.97185 -1.44927 0
M  V30 20116 H 1880.17 6.00084 -5.41226 0
M  V30 20117 H 1883.76 4.70838 -3.41764 0
M  V30 20118 H 1882.64 5.71179 -5.37331 0
M  V30 20119 N 1880.14 0.353044 1.53595 0
M  V30 20120 C 1881.38 -0.240775 2.02977 0
M  V30 20121 C 1881.75 -1.47007 1.23503 0
M  V30 20122 O 1882.95 -2.13869 1.62829 0
M  V30 20123 C 1881.22 -0.537874 3.53329 0
M  V30 20124 S 1882.78 -1.10715 4.24603 0
M  V30 20125 H 1879.6 -0.0710312 0.707443 0
M  V30 20126 H 1882.2 0.493007 1.89182 0
M  V30 20127 H 1880.9 0.364487 4.08778 0
M  V30 20128 H 1880.43 -1.30107 3.71262 0
M  V30 20129 H 1882.45 -2.39227 4.34724 0
M  V30 20130 N 1881.62 -1.57387 0.0818932 0
M  V30 20131 C 1882.87 -1.94964 -0.579705 0
M  V30 20132 C 1883.22 -0.962306 -1.66606 0
M  V30 20133 O 1882.52 0.0138288 -1.91595 0
M  V30 20134 C 1882.71 -3.36939 -1.19193 0
M  V30 20135 C 1882.54 -4.49392 -0.166414 0
M  V30 20136 C 1881.31 -5.04669 0.252475 0
M  V30 20137 C 1883.51 -5.10785 0.600288 0
M  V30 20138 N 1881.49 -6.0067 1.26764 0
M  V30 20139 C 1882.86 -6.02379 1.46765 0
M  V30 20140 C 1884.91 -4.9357 0.655252 0
M  V30 20141 C 1883.62 -6.78605 2.38511 0
M  V30 20142 C 1885.64 -5.70447 1.56026 0
M  V30 20143 C 1885.01 -6.61697 2.41528 0
M  V30 20144 H 1881.1 -0.760321 -0.182854 0
M  V30 20145 H 1883.69 -1.9403 0.161389 0
M  V30 20146 H 1881.86 -3.38591 -1.9029 0
M  V30 20147 H 1883.59 -3.61727 -1.81482 0
M  V30 20148 H 1880.35 -4.73414 -0.132657 0
M  V30 20149 H 1880.77 -6.5337 1.77303 0
M  V30 20150 H 1885.41 -4.22799 0.00839717 0
M  V30 20151 H 1883.13 -7.48646 3.04228 0
M  V30 20152 H 1886.72 -5.59144 1.60776 0
M  V30 20153 H 1885.6 -7.20145 3.1042 0
M  V30 20154 N 1883.1 0.191729 -1.56429 0
M  V30 20155 C 1884.03 1.24024 -1.97839 0
M  V30 20156 C 1885.01 1.47291 -0.850853 0
M  V30 20157 O 1886.2 1.58971 -1.11543 0
M  V30 20158 C 1883.33 2.58373 -2.32079 0
M  V30 20159 C 1882.28 2.49712 -3.47603 0
M  V30 20160 C 1881.61 3.88365 -3.67528 0
M  V30 20161 C 1882.91 2.01929 -4.81687 0
M  V30 20162 H 1884.6 0.8961 -2.85675 0
M  V30 20163 H 1882.15 0.429616 -1.37442 0
M  V30 20164 H 1884.1 3.31908 -2.59643 0
M  V30 20165 H 1882.82 2.94534 -1.41129 0
M  V30 20166 H 1881.48 1.78632 -3.20135 0
M  V30 20167 H 1881.13 4.21884 -2.73903 0
M  V30 20168 H 1880.83 3.83444 -4.45246 0
M  V30 20169 H 1882.35 4.63518 -3.97472 0
M  V30 20170 H 1883.77 2.65225 -5.0826 0
M  V30 20171 H 1882.16 2.08002 -5.62899 0
M  V30 20172 H 1883.23 0.972649 -4.75045 0
M  V30 20173 N 1884.58 1.50751 0.459565 0
M  V30 20174 C 1885.85 1.5284 1.22062 0
M  V30 20175 C 1886.23 0.279716 2.09239 0
M  V30 20176 O 1885.58 -0.73634 2.16311 0
M  V30 20177 C 1885.79 2.83046 2.04171 0
M  V30 20178 C 1887.14 3.34151 2.6197 0
M  V30 20179 O 1888.16 2.84446 2.14403 0
M  V30 20180 O 1887.02 4.20824 3.48668 0
M  V30 20181 H 1884.12 0.613549 0.554515 0
M  V30 20182 H 1886.66 1.63049 0.470445 0
M  V30 20183 H 1885.44 3.65397 1.40004 0
M  V30 20184 H 1885.06 2.75896 2.86299 0
M  V30 20185 N 1886.06 -0.713531 1.40522 0
M  V30 20186 C 1887.3 -1.47343 1.38911 0
M  V30 20187 C 1887.63 -1.94498 -0.00787452 0
M  V30 20188 O 1886.89 -1.68648 -0.992786 0
M  V30 20189 C 1887.18 -2.71283 2.32681 0
M  V30 20190 C 1886.85 -2.42881 3.79894 0
M  V30 20191 C 1885.51 -2.34846 4.20001 0
M  V30 20192 C 1887.86 -2.19093 4.72914 0
M  V30 20193 C 1885.19 -2.01093 5.51161 0
M  V30 20194 C 1887.54 -1.86852 6.04375 0
M  V30 20195 C 1886.21 -1.773 6.43522 0
M  V30 20196 H 1885.48 -0.539166 0.508312 0
M  V30 20197 H 1888.13 -0.817138 1.73191 0
M  V30 20198 H 1886.43 -3.41759 1.91593 0
M  V30 20199 H 1888.13 -3.29378 2.28717 0
M  V30 20200 H 1884.72 -2.50023 3.48118 0
M  V30 20201 H 1888.9 -2.24256 4.42745 0
M  V30 20202 H 1884.16 -1.92236 5.80392 0
M  V30 20203 H 1888.33 -1.6746 6.75966 0
M  V30 20204 H 1885.96 -1.50913 7.4507 0
M  V30 20205 N 1887.53 -1.26053 -0.945962 0
M  V30 20206 C 1888.46 -1.09687 -2.06134 0
M  V30 20207 C 1889.44 -0.00341513 -1.701 0
M  V30 20208 O 1890.63 -0.174559 -1.93414 0
M  V30 20209 C 1887.76 -0.724007 -3.3967 0
M  V30 20210 C 1886.71 -1.76866 -3.89747 0
M  V30 20211 C 1886.04 -1.25025 -5.19878 0
M  V30 20212 C 1887.34 -3.16923 -4.15159 0
M  V30 20213 H 1889.03 -2.02986 -2.20084 0
M  V30 20214 H 1886.58 -0.977346 -1.05754 0
M  V30 20215 H 1888.53 -0.596411 -4.17158 0
M  V30 20216 H 1887.26 0.244695 -3.25682 0
M  V30 20217 H 1885.92 -1.88485 -3.14435 0
M  V30 20218 H 1885.56 -0.271527 -5.02267 0
M  V30 20219 H 1885.26 -1.94853 -5.54352 0
M  V30 20220 H 1886.79 -1.13523 -5.99954 0
M  V30 20221 H 1888.2 -3.08409 -4.83277 0
M  V30 20222 H 1886.6 -3.84299 -4.60906 0
M  V30 20223 H 1887.67 -3.63337 -3.21114 0
M  V30 20224 N 1889.01 1.14984 -1.07779 0
M  V30 20225 C 1890.26 1.85219 -0.798561 0
M  V30 20226 C 1890.57 1.83476 0.677935 0
M  V30 20227 O 1891.78 2.49436 1.0721 0
M  V30 20228 C 1890.24 3.32454 -1.37849 0
M  V30 20229 C 1889.84 3.42631 -2.88631 0
M  V30 20230 C 1891.59 4.07843 -1.17747 0
M  V30 20231 C 1889.49 4.8404 -3.39794 0
M  V30 20232 H 1888.42 0.693872 -0.295054 0
M  V30 20233 H 1891.08 1.29668 -1.2984 0
M  V30 20234 H 1889.46 3.87703 -0.806374 0
M  V30 20235 H 1890.63 2.97466 -3.51925 0
M  V30 20236 H 1888.95 2.80691 -3.07573 0
M  V30 20237 H 1891.54 5.1221 -1.53444 0
M  V30 20238 H 1891.89 4.16136 -0.116815 0
M  V30 20239 H 1892.42 3.58876 -1.71618 0
M  V30 20240 H 1889.16 4.80932 -4.45404 0
M  V30 20241 H 1888.68 5.29769 -2.81256 0
M  V30 20242 H 1890.36 5.5291 -3.36005 0
M  V30 20243 N 1890.49 0.862526 1.31902 0
M  V30 20244 C 1891.74 0.470471 1.97267 0
M  V30 20245 C 1892.07 -0.973153 1.68058 0
M  V30 20246 O 1891.34 -1.68411 0.973035 0
M  V30 20247 C 1891.63 0.719362 3.52842 0
M  V30 20248 C 1891.48 2.21198 3.91652 0
M  V30 20249 C 1892.8 0.18092 4.39728 0
M  V30 20250 H 1889.92 0.172408 0.71655 0
M  V30 20251 H 1892.56 1.0824 1.56154 0
M  V30 20252 H 1890.71 0.198516 3.87992 0
M  V30 20253 H 1892.38 2.79951 3.66641 0
M  V30 20254 H 1890.62 2.68744 3.40528 0
M  V30 20255 H 1891.3 2.33679 5.00098 0
M  V30 20256 H 1893.77 0.626421 4.11358 0
M  V30 20257 H 1892.65 0.384575 5.47551 0
M  V30 20258 H 1892.91 -0.916756 4.3249 0
M  V30 20259 N 1891.97 -1.4484 0.62123 0
M  V30 20260 C 1893.25 -1.95528 0.0531511 0
M  V30 20261 C 1893.63 -1.56342 -1.41846 0
M  V30 20262 O 1892.97 -0.832621 -2.1279 0
M  V30 20263 C 1893.18 -3.47988 0.2656 0
M  V30 20264 C 1894.53 -4.24322 0.153573 0
M  V30 20265 O 1895.56 -3.55658 0.19644 0
M  V30 20266 O 1894.41 -5.46477 0.05015 0
M  V30 20267 H 1891.51 -0.826527 -0.0279665 0
M  V30 20268 H 1894.05 -1.54939 0.692243 0
M  V30 20269 H 1892.83 -3.69525 1.28713 0
M  V30 20270 H 1892.45 -3.955 -0.408105 0
M  V30 20271 N 1893.45 -0.361184 -1.53405 0
M  V30 20272 C 1894.69 0.230222 -2.01489 0
M  V30 20273 C 1895.03 1.48779 -1.24814 0
M  V30 20274 O 1894.3 1.91494 -0.340612 0
M  V30 20275 C 1894.58 0.526613 -3.56229 0
M  V30 20276 C 1894.44 -0.744277 -4.436 0
M  V30 20277 C 1895.76 1.32901 -4.19554 0
M  V30 20278 H 1892.87 0.0822009 -0.732402 0
M  V30 20279 H 1895.52 -0.485208 -1.837 0
M  V30 20280 H 1893.67 1.13609 -3.71517 0
M  V30 20281 H 1895.34 -1.38188 -4.40116 0
M  V30 20282 H 1893.58 -1.36555 -4.11747 0
M  V30 20283 H 1894.25 -0.491913 -5.49804 0
M  V30 20284 H 1896.73 0.813474 -4.08071 0
M  V30 20285 H 1895.6 1.50513 -5.27861 0
M  V30 20286 H 1895.87 2.33625 -3.75329 0
M  V30 20287 N 1894.92 1.57341 -0.0902386 0
M  V30 20288 C 1896.15 1.98934 0.586524 0
M  V30 20289 C 1896.57 0.968841 1.6123 0
M  V30 20290 O 1895.93 -0.0632868 1.8119 0
M  V30 20291 C 1895.98 3.39509 1.21516 0
M  V30 20292 O 1895.08 3.40203 2.331 0
M  V30 20293 H 1894.43 0.647009 0.14925 0
M  V30 20294 H 1896.96 2.03891 -0.170213 0
M  V30 20295 H 1896.97 3.77097 1.55762 0
M  V30 20296 H 1895.64 4.13308 0.463639 0
M  V30 20297 H 1894.22 3.14405 2.0051 0
M  V30 20298 N 1896.4 -0.183431 1.56529 0
M  V30 20299 C 1897.33 -1.22973 1.98494 0
M  V30 20300 C 1898.31 -1.46837 0.858653 0
M  V30 20301 O 1899.5 -1.58377 1.12385 0
M  V30 20302 C 1896.63 -2.57138 2.33446 0
M  V30 20303 C 1895.58 -2.47865 3.48922 0
M  V30 20304 C 1894.91 -3.8641 3.69582 0
M  V30 20305 C 1896.21 -1.99371 4.82751 0
M  V30 20306 H 1897.9 -0.880938 2.86147 0
M  V30 20307 H 1895.45 -0.422321 1.37668 0
M  V30 20308 H 1897.4 -3.30527 2.614 0
M  V30 20309 H 1896.13 -2.93781 1.42689 0
M  V30 20310 H 1894.78 -1.76932 3.21077 0
M  V30 20311 H 1894.43 -4.20426 2.76136 0
M  V30 20312 H 1894.13 -3.81077 4.47274 0
M  V30 20313 H 1895.66 -4.61403 3.99924 0
M  V30 20314 H 1897.07 -2.62526 5.0966 0
M  V30 20315 H 1895.47 -2.05014 5.63994 0
M  V30 20316 H 1896.54 -0.947442 4.75554 0
M  V30 20317 N 1897.88 -1.50992 -0.451564 0
M  V30 20318 C 1899.13 -1.63197 -1.20394 0
M  V30 20319 C 1899.46 -0.340409 -1.91193 0
M  V30 20320 O 1898.73 0.65926 -1.82986 0
M  V30 20321 C 1899.02 -2.82567 -2.23221 0
M  V30 20322 C 1898.87 -4.2166 -1.56598 0
M  V30 20323 C 1900.19 -2.97468 -3.24347 0
M  V30 20324 H 1897.31 -0.59395 -0.43634 0
M  V30 20325 H 1899.95 -1.83437 -0.495056 0
M  V30 20326 H 1898.1 -2.65441 -2.83678 0
M  V30 20327 H 1899.77 -4.50422 -0.995877 0
M  V30 20328 H 1898.02 -4.25015 -0.86862 0
M  V30 20329 H 1898.69 -5.0115 -2.31415 0
M  V30 20330 H 1901.16 -3.13211 -2.73931 0
M  V30 20331 H 1900.04 -3.82581 -3.93603 0
M  V30 20332 H 1900.3 -2.08921 -3.89621 0
M  V30 20333 N 1899.36 0.706069 -1.40899 0
M  V30 20334 C 1900.58 1.50008 -1.43221 0
M  V30 20335 C 1901.01 1.88065 -0.0362158 0
M  V30 20336 O 1900.37 1.5392 0.958036 0
M  V30 20337 C 1900.41 2.74578 -2.33751 0
M  V30 20338 O 1899.52 3.71657 -1.78731 0
M  V30 20339 H 1898.86 0.451899 -0.486501 0
M  V30 20340 H 1901.39 0.868772 -1.85239 0
M  V30 20341 H 1901.4 3.23002 -2.49266 0
M  V30 20342 H 1900.07 2.46214 -3.35189 0
M  V30 20343 H 1898.65 3.30544 -1.72612 0
M  V30 20344 N 1900.84 1.26553 0.939264 0
M  V30 20345 C 1901.77 1.10778 2.05549 0
M  V30 20346 C 1902.75 0.0124359 1.70095 0
M  V30 20347 O 1903.93 0.184814 1.93319 0
M  V30 20348 C 1901.06 0.742011 3.39281 0
M  V30 20349 C 1900.02 1.78931 3.88803 0
M  V30 20350 C 1899.34 1.2778 5.19207 0
M  V30 20351 C 1900.64 3.1912 4.13473 0
M  V30 20352 H 1902.34 2.04151 2.19004 0
M  V30 20353 H 1899.88 0.98294 1.05234 0
M  V30 20354 H 1901.84 0.618526 4.16836 0
M  V30 20355 H 1900.56 -0.22742 3.25807 0
M  V30 20356 H 1899.22 1.9015 3.13431 0
M  V30 20357 H 1898.87 0.298159 5.02116 0
M  V30 20358 H 1898.57 1.9779 5.53311 0
M  V30 20359 H 1900.09 1.16703 5.99344 0
M  V30 20360 H 1901.5 3.10967 4.81635 0
M  V30 20361 H 1899.9 3.86738 4.58862 0
M  V30 20362 H 1900.97 3.65034 3.19183 0
M  V30 20363 N 1902.31 -1.14411 1.08387 0
M  V30 20364 C 1903.56 -1.85719 0.814638 0
M  V30 20365 C 1903.89 -1.82715 -0.657934 0
M  V30 20366 O 1903.17 -1.2577 -1.48365 0
M  V30 20367 C 1903.45 -3.34363 1.33691 0
M  V30 20368 C 1903.3 -3.4594 2.87481 0
M  V30 20369 C 1904.62 -4.29457 0.962006 0
M  V30 20370 H 1901.74 -0.674332 0.297399 0
M  V30 20371 H 1904.38 -1.34354 1.34346 0
M  V30 20372 H 1902.53 -3.78237 0.887082 0
M  V30 20373 H 1904.21 -3.10854 3.40833 0
M  V30 20374 H 1902.45 -2.87158 3.25151 0
M  V30 20375 H 1903.12 -4.50423 3.19097 0
M  V30 20376 H 1905.6 -3.93599 1.34979 0
M  V30 20377 H 1904.47 -5.31922 1.35464 0
M  V30 20378 H 1904.73 -4.41906 -0.130987 0
M  V30 20379 N 1903.79 -0.869509 -1.31443 0
M  V30 20380 C 1904.76 -0.329869 -2.26814 0
M  V30 20381 C 1905.76 0.518895 -1.52198 0
M  V30 20382 O 1906.95 0.328267 -1.71079 0
M  V30 20383 C 1904.08 0.53159 -3.3673 0
M  V30 20384 H 1905.27 -1.1718 -2.7606 0
M  V30 20385 H 1902.82 -0.645061 -1.42368 0
M  V30 20386 H 1903.56 1.39473 -2.92776 0
M  V30 20387 H 1903.34 -0.0761553 -3.92026 0
M  V30 20388 H 1904.83 0.901447 -4.07754 0
M  V30 20389 N 1905.27 1.44508 -0.628902 0
M  V30 20390 C 1906.22 2.32427 0.0895754 0
M  V30 20391 C 1907.21 1.47217 0.838067 0
M  V30 20392 O 1908.42 1.63575 0.751218 0
M  V30 20393 H 1904.79 0.750483 0.0477349 0
M  V30 20394 H 1906.76 2.9078 -0.670054 0
M  V30 20395 C 1905.51 3.31177 1.0591 0
M  V30 20396 H 1904.84 3.96754 0.492578 0
M  V30 20397 H 1906.28 3.9538 1.53135 0
M  V30 20398 C 1904.74 2.59936 2.14325 0
M  V30 20399 O 1905.27 2.3966 3.22375 0
M  V30 20400 N 1903.47 2.19712 1.90197 0
M  V30 20401 H 1903.02 2.36402 1.02332 0
M  V30 20402 H 1902.98 1.72371 2.62936 0
M  V30 20403 N 1906.75 0.369315 1.53212 0
M  V30 20404 C 1907.71 -0.463128 2.24472 0
M  V30 20405 C 1908.71 -1.00667 1.2539 0
M  V30 20406 O 1909.9 -0.891832 1.4964 0
M  V30 20407 C 1907.03 -1.6477 2.98435 0
M  V30 20408 H 1908.23 0.160479 2.9947 0
M  V30 20409 H 1905.78 0.121068 1.5583 0
M  V30 20410 H 1906.52 -2.30929 2.27689 0
M  V30 20411 H 1906.3 -1.26487 3.71138 0
M  V30 20412 H 1907.79 -2.23753 3.52596 0
M  V30 20413 N 1908.23 -1.57291 0.0985816 0
M  V30 20414 C 1909.16 -2.17239 -0.856131 0
M  V30 20415 C 1910.14 -1.10669 -1.29176 0
M  V30 20416 O 1911.32 -1.38821 -1.35803 0
M  V30 20417 C 1908.45 -2.75551 -2.11398 0
M  V30 20418 C 1907.41 -3.87524 -1.81685 0
M  V30 20419 C 1906.73 -4.32553 -3.14327 0
M  V30 20420 C 1908.03 -5.10562 -1.10108 0
M  V30 20421 H 1909.73 -2.97268 -0.356657 0
M  V30 20422 H 1907.27 -1.42992 -0.170108 0
M  V30 20423 H 1909.23 -3.16141 -2.78627 0
M  V30 20424 H 1907.95 -1.92781 -2.63634 0
M  V30 20425 H 1906.61 -3.47478 -1.16853 0
M  V30 20426 H 1906.26 -3.46669 -3.64458 0
M  V30 20427 H 1905.96 -5.08049 -2.95228 0
M  V30 20428 H 1907.48 -4.7578 -3.82709 0
M  V30 20429 H 1908.9 -5.483 -1.67453 0
M  V30 20430 H 1907.29 -5.91509 -1.01176 0
M  V30 20431 H 1908.36 -4.84827 -0.0844041 0
M  V30 20432 N 1909.71 0.175127 -1.56624 0
M  V30 20433 C 1910.95 0.890605 -1.81418 0
M  V30 20434 C 1911.27 1.82946 -0.674958 0
M  V30 20435 O 1910.54 1.93504 0.305439 0
M  V30 20436 H 1909.12 0.331864 -0.669235 0
M  V30 20437 H 1911.79 0.175855 -1.94105 0
M  V30 20438 H 1910.88 1.46979 -2.75325 0
M  V30 20439 N 1911.18 1.5123 0.44355 0
M  V30 20440 C 1912.41 1.67146 1.21432 0
M  V30 20441 C 1912.82 0.365681 1.85632 0
M  V30 20442 O 1912.16 -0.665141 1.71235 0
M  V30 20443 C 1912.23 2.72562 2.34415 0
M  V30 20444 C 1911.89 4.15341 1.90632 0
M  V30 20445 C 1912.89 5.00323 1.41325 0
M  V30 20446 C 1910.57 4.61409 1.98513 0
M  V30 20447 C 1912.57 6.29431 1.00476 0
M  V30 20448 C 1910.25 5.90515 1.57276 0
M  V30 20449 C 1911.25 6.74353 1.08339 0
M  V30 20450 O 1910.94 8.01046 0.676843 0
M  V30 20451 H 1910.67 0.564225 0.372325 0
M  V30 20452 H 1913.23 1.98375 0.532597 0
M  V30 20453 H 1911.46 2.36634 3.05845 0
M  V30 20454 H 1913.14 2.77419 2.96299 0
M  V30 20455 H 1913.91 4.65938 1.34636 0
M  V30 20456 H 1909.79 3.96279 2.3555 0
M  V30 20457 H 1913.33 6.94821 0.622093 0
M  V30 20458 H 1909.23 6.24415 1.63633 0
M  V30 20459 H 1910 8.14549 0.803247 0
M  V30 20460 N 1912.66 -0.698586 1.41271 0
M  V30 20461 C 1913.89 -1.49247 1.44014 0
M  V30 20462 C 1914.31 -1.88043 0.0461888 0
M  V30 20463 O 1913.67 -1.54426 -0.94986 0
M  V30 20464 C 1913.72 -2.73334 2.35204 0
M  V30 20465 O 1912.82 -3.70704 1.807 0
M  V30 20466 H 1912.16 -0.449313 0.488891 0
M  V30 20467 H 1914.69 -0.858936 1.85697 0
M  V30 20468 H 1914.7 -3.21676 2.50975 0
M  V30 20469 H 1913.38 -2.44433 3.3649 0
M  V30 20470 H 1911.95 -3.29624 1.74363 0
M  V30 20471 N 1914.14 -1.27049 -0.93254 0
M  V30 20472 C 1915.05 -1.11156 -2.06595 0
M  V30 20473 C 1916.07 -0.0428245 -1.73947 0
M  V30 20474 O 1917.24 -0.248326 -1.99863 0
M  V30 20475 C 1914.31 -0.755297 -3.38373 0
M  V30 20476 C 1913.37 -1.90439 -3.84749 0
M  V30 20477 C 1912.6 -1.56502 -5.10238 0
M  V30 20478 O 1912.82 -0.470696 -5.68455 0
M  V30 20479 O 1911.76 -2.40262 -5.51868 0
M  V30 20480 H 1915.58 -2.0626 -2.22914 0
M  V30 20481 H 1913.17 -1.06191 -1.05089 0
M  V30 20482 H 1915.05 -0.569728 -4.17531 0
M  V30 20483 H 1913.73 0.166262 -3.23273 0
M  V30 20484 H 1912.63 -2.14498 -3.06499 0
M  V30 20485 H 1913.97 -2.80598 -4.04383 0
M  V30 20486 N 1915.62 1.13835 -1.08993 0
M  V30 20487 C 1916.55 2.21226 -0.74707 0
M  V30 20488 C 1917.53 1.67891 0.273232 0
M  V30 20489 O 1918.71 1.93678 0.142278 0
M  V30 20490 C 1915.84 3.46922 -0.162028 0
M  V30 20491 C 1914.8 4.1332 -1.11135 0
M  V30 20492 C 1914.12 5.33289 -0.388228 0
M  V30 20493 C 1915.42 4.61169 -2.45195 0
M  V30 20494 H 1917.12 2.50162 -1.64497 0
M  V30 20495 H 1914.66 1.20239 -0.792368 0
M  V30 20496 H 1916.62 4.21304 0.0898753 0
M  V30 20497 H 1915.34 3.17368 0.771036 0
M  V30 20498 H 1914 3.40899 -1.34845 0
M  V30 20499 H 1913.65 4.99997 0.548832 0
M  V30 20500 H 1913.35 5.78659 -1.02115 0
M  V30 20501 H 1914.87 6.10429 -0.144519 0
M  V30 20502 H 1916.29 5.26996 -2.25717 0
M  V30 20503 H 1914.68 5.17263 -3.04235 0
M  V30 20504 H 1915.75 3.75923 -3.06284 0
M  V30 20505 N 1917.1 0.876467 1.3098 0
M  V30 20506 C 1918.34 0.489671 1.96078 0
M  V30 20507 C 1918.66 -0.962603 1.69585 0
M  V30 20508 O 1917.93 -1.67568 1.01478 0
M  V30 20509 H 1916.51 0.178091 0.72546 0
M  V30 20510 H 1919.18 1.11768 1.59668 0
M  V30 20511 H 1918.27 0.652822 3.05196 0
M  V30 20512 N 1918.57 -1.44173 0.636557 0
M  V30 20513 C 1919.54 -2.29133 -0.0554994 0
M  V30 20514 C 1920.54 -1.41329 -0.766986 0
M  V30 20515 O 1921.73 -1.63142 -0.610753 0
M  V30 20516 C 1918.86 -3.23031 -1.08922 0
M  V30 20517 H 1920.05 -2.91811 0.691829 0
M  V30 20518 H 1917.6 -1.51175 0.396956 0
M  V30 20519 H 1918.34 -2.65213 -1.86635 0
M  V30 20520 H 1918.12 -3.87743 -0.58291 0
M  V30 20521 H 1919.61 -3.8684 -1.57304 0
M  V30 20522 N 1920.05 -0.377435 -1.53014 0
M  V30 20523 C 1921.3 0.209712 -2.00607 0
M  V30 20524 C 1921.61 1.48891 -1.2685 0
M  V30 20525 O 1922.82 2.15538 -1.65093 0
M  V30 20526 C 1921.28 0.424271 -3.5739 0
M  V30 20527 C 1920.88 -0.840982 -4.40036 0
M  V30 20528 C 1922.63 0.968428 -4.13306 0
M  V30 20529 C 1920.53 -0.595355 -5.88396 0
M  V30 20530 H 1919.46 0.0821436 -0.749512 0
M  V30 20531 H 1922.12 -0.498005 -1.76613 0
M  V30 20532 H 1920.5 1.19354 -3.77585 0
M  V30 20533 H 1921.67 -1.61396 -4.31611 0
M  V30 20534 H 1919.99 -1.30922 -3.95283 0
M  V30 20535 H 1922.58 1.16771 -5.21794 0
M  V30 20536 H 1922.93 1.93405 -3.68647 0
M  V30 20537 H 1923.46 0.259025 -3.96956 0
M  V30 20538 H 1920.2 -1.53164 -6.37355 0
M  V30 20539 H 1919.72 0.138904 -5.99639 0
M  V30 20540 H 1921.4 -0.225366 -6.46607 0
M  V30 20541 N 1921.53 1.57237 -0.106922 0
M  V30 20542 C 1922.48 2.14668 0.847728 0
M  V30 20543 C 1923.45 1.06838 1.2718 0
M  V30 20544 O 1924.63 1.34686 1.35146 0
M  V30 20545 C 1921.77 2.74079 2.09702 0
M  V30 20546 C 1920.89 3.96178 1.7224 0
M  V30 20547 C 1920.02 4.43715 2.92045 0
M  V30 20548 C 1919.06 5.58375 2.50766 0
M  V30 20549 N 1918.2 6.00711 3.63443 0
M  V30 20550 H 1923.04 2.95924 0.351133 0
M  V30 20551 H 1920.57 1.46209 0.161636 0
M  V30 20552 H 1922.53 3.06649 2.82882 0
M  V30 20553 H 1921.16 1.95532 2.56841 0
M  V30 20554 H 1920.21 3.69846 0.889819 0
M  V30 20555 H 1921.53 4.7936 1.37896 0
M  V30 20556 H 1920.68 4.78131 3.73464 0
M  V30 20557 H 1919.42 3.59458 3.29607 0
M  V30 20558 H 1918.42 5.23576 1.67776 0
M  V30 20559 H 1919.65 6.4439 2.14334 0
M  V30 20560 H 1917.59 5.19397 4.00702 0
M  V30 20561 H 1917.51 6.78718 3.32983 0
M  V30 20562 H 1918.78 6.39761 4.45338 0
M  V30 20563 N 1923.01 -0.166818 1.56715 0
M  V30 20564 C 1924.23 -0.902208 1.86748 0
M  V30 20565 C 1924.66 -1.74838 0.693767 0
M  V30 20566 O 1924.02 -1.77749 -0.35708 0
M  V30 20567 C 1924.06 -1.75107 3.1523 0
M  V30 20568 O 1923.17 -2.85319 2.9777 0
M  V30 20569 H 1922.51 -0.252474 0.614128 0
M  V30 20570 H 1925.04 -0.163603 2.03945 0
M  V30 20571 H 1925.05 -2.15009 3.46749 0
M  V30 20572 H 1923.72 -1.12955 4.00267 0
M  V30 20573 H 1922.3 -2.48967 2.77615 0
M  V30 20574 N 1924.49 -1.51463 -0.435524 0
M  V30 20575 C 1925.42 -1.75856 -1.53613 0
M  V30 20576 C 1926.4 -0.608449 -1.58846 0
M  V30 20577 O 1927.58 -0.85135 -1.74544 0
M  V30 20578 C 1924.71 -1.88525 -2.91677 0
M  V30 20579 C 1923.67 -3.03972 -3.01305 0
M  V30 20580 C 1922.99 -3.01828 -4.41366 0
M  V30 20581 C 1924.29 -4.43905 -2.75219 0
M  V30 20582 H 1925.99 -2.68013 -1.33452 0
M  V30 20583 H 1923.53 -1.28968 -0.640564 0
M  V30 20584 H 1925.49 -2.04173 -3.68634 0
M  V30 20585 H 1924.21 -0.930179 -3.13074 0
M  V30 20586 H 1922.87 -2.88033 -2.26788 0
M  V30 20587 H 1922.52 -2.04095 -4.59733 0
M  V30 20588 H 1922.22 -3.79353 -4.48737 0
M  V30 20589 H 1923.74 -3.19572 -5.20294 0
M  V30 20590 H 1925.15 -4.60187 -3.41908 0
M  V30 20591 H 1923.55 -5.2315 -2.93998 0
M  V30 20592 H 1924.62 -4.53818 -1.70814 0
M  V30 20593 N 1925.96 0.691085 -1.4164 0
M  V30 20594 C 1927.38 1.00223 -1.24207 0
M  V30 20595 C 1927.58 2.0105 -0.134625 0
M  V30 20596 O 1926.64 2.4751 0.499509 0
M  V30 20597 C 1927.95 1.52256 -2.59304 0
M  V30 20598 C 1929.5 1.64117 -2.66523 0
M  V30 20599 C 1929.97 2.19551 -4.01947 0
M  V30 20600 N 1931.46 2.26906 -4.03817 0
M  V30 20601 C 1932.2 2.70835 -5.05407 0
M  V30 20602 N 1931.69 3.14337 -6.17385 0
M  V30 20603 N 1933.49 2.70439 -4.92767 0
M  V30 20604 H 1925.64 0.0232257 -2.12387 0
M  V30 20605 H 1927.9 0.0728626 -0.945196 0
M  V30 20606 H 1927.61 0.856261 -3.41117 0
M  V30 20607 H 1927.48 2.50399 -2.821 0
M  V30 20608 H 1929.87 2.29858 -1.85066 0
M  V30 20609 H 1929.95 0.645083 -2.47532 0
M  V30 20610 H 1929.59 1.54424 -4.83855 0
M  V30 20611 H 1929.52 3.1992 -4.18281 0
M  V30 20612 H 1932.01 1.96212 -3.22969 0
M  V30 20613 H 1932.33 3.46496 -6.90768 0
M  V30 20614 H 1930.67 3.12235 -6.20914 0
M  V30 20615 H 1933.86 2.35806 -4.04368 0
M  V30 20616 H 1934.04 3.04357 -5.72076 0
M  V30 20617 N 1927.44 1.27542 0.925789 0
M  V30 20618 C 1928.67 1.1681 1.70772 0
M  V30 20619 C 1929.09 -0.274824 1.86789 0
M  V30 20620 O 1928.44 -1.18694 1.38629 0
M  V30 20621 C 1928.49 1.84904 3.10633 0
M  V30 20622 O 1928.21 3.23559 2.95366 0
M  V30 20623 C 1929.72 1.80322 4.04968 0
M  V30 20624 H 1926.94 0.406036 0.534206 0
M  V30 20625 H 1929.48 1.68448 1.15955 0
M  V30 20626 H 1927.63 1.37166 3.62304 0
M  V30 20627 H 1928.05 3.57488 3.838 0
M  V30 20628 H 1929.52 2.32577 5.00611 0
M  V30 20629 H 1930 0.772975 4.32344 0
M  V30 20630 H 1930.61 2.27683 3.59222 0
M  V30 20631 N 1928.92 -1.13255 1.09595 0
M  V30 20632 C 1929.85 -2.20827 0.758791 0
M  V30 20633 C 1930.83 -1.68034 -0.264325 0
M  V30 20634 O 1932.02 -1.93751 -0.132005 0
M  V30 20635 C 1929.15 -3.46831 0.180424 0
M  V30 20636 C 1928.1 -4.12724 1.13325 0
M  V30 20637 C 1927.43 -5.33075 0.416504 0
M  V30 20638 C 1928.73 -4.59862 2.47637 0
M  V30 20639 H 1930.42 -2.49287 1.65821 0
M  V30 20640 H 1927.97 -1.19818 0.798734 0
M  V30 20641 H 1929.92 -4.21346 -0.0675313 0
M  V30 20642 H 1928.64 -3.17773 -0.754194 0
M  V30 20643 H 1927.3 -3.40179 1.36651 0
M  V30 20644 H 1926.95 -5.00281 -0.522308 0
M  V30 20645 H 1926.65 -5.78109 1.05183 0
M  V30 20646 H 1928.17 -6.10344 0.17689 0
M  V30 20647 H 1929.59 -5.25791 2.28509 0
M  V30 20648 H 1927.99 -5.15642 3.06974 0
M  V30 20649 H 1929.06 -3.74294 3.08273 0
M  V30 20650 N 1930.4 -0.883401 -1.30514 0
M  V30 20651 C 1931.81 -0.577183 -1.48798 0
M  V30 20652 C 1932.01 0.885462 -1.81002 0
M  V30 20653 O 1931.07 1.66679 -1.89669 0
M  V30 20654 C 1932.38 -1.48898 -2.61247 0
M  V30 20655 C 1933.93 -1.49244 -2.75128 0
M  V30 20656 C 1934.41 -2.39012 -3.90688 0
M  V30 20657 N 1935.9 -2.36967 -3.97996 0
M  V30 20658 C 1936.63 -3.03138 -4.86718 0
M  V30 20659 N 1936.13 -3.78529 -5.80248 0
M  V30 20660 N 1937.92 -2.92378 -4.80074 0
M  V30 20661 H 1930.07 -1.82963 -1.07882 0
M  V30 20662 H 1932.34 -0.783078 -0.534315 0
M  V30 20663 H 1932.04 -2.53035 -2.44266 0
M  V30 20664 H 1931.92 -1.19739 -3.5769 0
M  V30 20665 H 1934.3 -0.458579 -2.91515 0
M  V30 20666 H 1934.38 -1.82432 -1.7931 0
M  V30 20667 H 1934.03 -3.42482 -3.75058 0
M  V30 20668 H 1933.96 -2.03141 -4.85841 0
M  V30 20669 H 1936.45 -1.82179 -3.31088 0
M  V30 20670 H 1936.76 -4.26115 -6.44706 0
M  V30 20671 H 1935.11 -3.82636 -5.80185 0
M  V30 20672 H 1938.3 -2.33008 -4.05986 0
M  V30 20673 H 1938.47 -3.44225 -5.49011 0
M  V30 20674 N 1931.88 1.43833 -0.644194 0
M  V30 20675 C 1932.84 2.29159 0.0433471 0
M  V30 20676 C 1933.84 1.41734 0.75948 0
M  V30 20677 O 1935.03 1.63464 0.602093 0
M  V30 20678 C 1932.16 3.23604 1.07208 0
M  V30 20679 H 1933.35 2.9144 -0.707295 0
M  V30 20680 H 1930.91 1.50963 -0.404968 0
M  V30 20681 H 1931.64 2.66199 1.85226 0
M  V30 20682 H 1931.43 3.88047 0.562339 0
M  V30 20683 H 1932.92 3.87669 1.55251 0
M  V30 20684 N 1933.35 0.385544 1.52811 0
M  V30 20685 C 1934.28 -0.442951 2.2926 0
M  V30 20686 C 1935.27 -1.06674 1.32494 0
M  V30 20687 O 1936.45 -1.08022 1.61384 0
M  V30 20688 C 1933.58 -1.57243 3.09664 0
M  V30 20689 C 1932.53 -1.07488 4.14283 0
M  V30 20690 C 1931.86 -2.29614 4.82889 0
M  V30 20691 C 1933.16 -0.145479 5.22097 0
M  V30 20692 H 1934.85 0.1949 2.98765 0
M  V30 20693 H 1932.4 0.0951762 1.43685 0
M  V30 20694 H 1934.35 -2.15882 3.61902 0
M  V30 20695 H 1933.08 -2.23781 2.37885 0
M  V30 20696 H 1931.74 -0.511047 3.6302 0
M  V30 20697 H 1931.38 -2.94653 4.07662 0
M  V30 20698 H 1931.08 -1.96985 5.53598 0
M  V30 20699 H 1932.61 -2.88902 5.37929 0
M  V30 20700 H 1934.02 -0.639941 5.69717 0
M  V30 20701 H 1932.42 0.0908687 6.00031 0
M  V30 20702 H 1933.49 0.806707 4.78142 0
M  V30 20703 N 1934.83 -1.57178 0.115259 0
M  V30 20704 C 1936.25 -1.57765 -0.241345 0
M  V30 20705 C 1936.45 -1.12775 -1.66985 0
M  V30 20706 O 1935.5 -0.813419 -2.39039 0
M  V30 20707 C 1936.82 -3.00698 -0.0114291 0
M  V30 20708 C 1938.37 -3.12904 -0.0776187 0
M  V30 20709 C 1938.84 -4.57831 0.124557 0
M  V30 20710 N 1940.33 -4.63146 0.0703998 0
M  V30 20711 C 1941.07 -5.73045 0.20179 0
M  V30 20712 N 1940.56 -6.91706 0.389143 0
M  V30 20713 N 1942.36 -5.61922 0.141629 0
M  V30 20714 H 1934.51 -1.84725 1.04836 0
M  V30 20715 H 1936.77 -0.853542 0.412517 0
M  V30 20716 H 1936.48 -3.37886 0.975995 0
M  V30 20717 H 1936.35 -3.69771 -0.744947 0
M  V30 20718 H 1938.74 -2.75575 -1.05556 0
M  V30 20719 H 1938.82 -2.46382 0.687719 0
M  V30 20720 H 1938.46 -4.95857 1.09946 0
M  V30 20721 H 1938.39 -5.22439 -0.660721 0
M  V30 20722 H 1940.88 -3.77833 -0.0710442 0
M  V30 20723 H 1941.2 -7.71306 0.480365 0
M  V30 20724 H 1939.54 -6.93699 0.425069 0
M  V30 20725 H 1942.73 -4.681 -0.00374873 0
M  V30 20726 H 1942.9 -6.47527 0.24747 0
M  V30 20727 N 1936.31 0.158505 -1.56801 0
M  V30 20728 C 1937.72 0.71972 -1.7227 0
M  V30 20729 C 1938.07 1.822 -0.72784 0
M  V30 20730 O 1937.2 2.1613 0.108043 0
M  V30 20731 C 1937.79 1.31231 -3.12352 0
M  V30 20732 C 1936.35 1.82021 -3.29462 0
M  V30 20733 C 1935.5 0.704157 -2.68211 0
M  V30 20734 H 1938.45 -0.0670395 -1.58558 0
M  V30 20735 H 1938.47 2.18208 -3.11714 0
M  V30 20736 H 1937.98 0.509823 -3.84737 0
M  V30 20737 H 1936.08 2.64873 -2.62056 0
M  V30 20738 H 1936.2 1.95684 -4.37315 0
M  V30 20739 H 1934.56 1.12787 -2.28366 0
M  V30 20740 H 1935.34 -0.0866929 -3.43191 0
M  V30 20741 N 1937.79 1.51692 0.427485 0
M  V30 20742 C 1938.72 1.76668 1.52679 0
M  V30 20743 C 1939.7 0.616865 1.58521 0
M  V30 20744 O 1940.89 0.860595 1.7409 0
M  V30 20745 C 1938.02 1.9007 2.90673 0
M  V30 20746 C 1936.97 3.05566 2.99689 0
M  V30 20747 C 1936.3 3.04165 4.39759 0
M  V30 20748 C 1937.6 4.45359 2.72861 0
M  V30 20749 H 1939.29 2.68717 1.32029 0
M  V30 20750 H 1936.84 1.29306 0.633716 0
M  V30 20751 H 1938.79 2.06125 3.67546 0
M  V30 20752 H 1937.51 0.946769 3.12576 0
M  V30 20753 H 1936.17 2.89231 2.25257 0
M  V30 20754 H 1935.82 2.0653 4.58644 0
M  V30 20755 H 1935.52 3.81727 4.46719 0
M  V30 20756 H 1937.04 3.22326 5.18592 0
M  V30 20757 H 1938.46 4.61993 3.39463 0
M  V30 20758 H 1936.85 5.24701 2.91219 0
M  V30 20759 H 1937.92 4.54717 1.68405 0
M  V30 20760 N 1939.27 -0.683564 1.42004 0
M  V30 20761 C 1940.68 -0.99563 1.24737 0
M  V30 20762 C 1940.88 -2.00976 0.145285 0
M  V30 20763 O 1939.94 -2.47771 -0.486376 0
M  V30 20764 C 1941.25 -1.50879 2.60108 0
M  V30 20765 C 1942.8 -1.62701 2.6739 0
M  V30 20766 C 1943.28 -2.17416 4.03106 0
M  V30 20767 N 1944.77 -2.24761 4.05015 0
M  V30 20768 C 1945.5 -2.68151 5.06836 0
M  V30 20769 N 1945 -3.11059 6.19043 0
M  V30 20770 N 1946.79 -2.67822 4.94194 0
M  V30 20771 H 1938.94 -0.011962 2.12397 0
M  V30 20772 H 1941.2 -0.0678489 0.945569 0
M  V30 20773 H 1940.91 -0.838159 3.41567 0
M  V30 20774 H 1940.78 -2.48899 2.83424 0
M  V30 20775 H 1943.17 -2.28873 1.86282 0
M  V30 20776 H 1943.25 -0.631947 2.47871 0
M  V30 20777 H 1942.9 -1.51856 4.84667 0
M  V30 20778 H 1942.83 -3.17698 4.19971 0
M  V30 20779 H 1945.32 -1.94497 3.24005 0
M  V30 20780 H 1945.63 -3.42828 6.92596 0
M  V30 20781 H 1943.98 -3.08937 6.22561 0
M  V30 20782 H 1947.17 -2.33658 4.05613 0
M  V30 20783 H 1947.34 -3.01318 5.73682 0
M  V30 20784 N 1940.75 -1.28031 -0.919012 0
M  V30 20785 C 1941.71 -1.11534 -2.00232 0
M  V30 20786 C 1942.71 -0.0566233 -1.607 0
M  V30 20787 O 1943.9 -0.30196 -1.71563 0
M  V30 20788 C 1941.03 -0.701371 -3.33607 0
M  V30 20789 H 1942.22 -2.0774 -2.16297 0
M  V30 20790 H 1939.78 -1.10942 -1.10098 0
M  V30 20791 H 1940.51 0.261682 -3.23243 0
M  V30 20792 H 1940.3 -1.4661 -3.63659 0
M  V30 20793 H 1941.79 -0.608444 -4.13144 0
M  V30 20794 N 1942.22 1.12672 -1.10194 0
M  V30 20795 C 1943.15 2.20422 -0.770492 0
M  V30 20796 C 1944.13 1.68172 0.25541 0
M  V30 20797 O 1945.32 1.93818 0.121728 0
M  V30 20798 C 1942.45 3.4673 -0.198815 0
M  V30 20799 C 1941.4 4.12118 -1.15512 0
M  V30 20800 C 1940.73 5.32847 -0.444768 0
M  V30 20801 C 1942.03 4.58542 -2.50073 0
M  V30 20802 H 1943.72 2.48404 -1.67141 0
M  V30 20803 H 1941.27 1.19392 -0.805077 0
M  V30 20804 H 1943.22 4.21376 0.0451853 0
M  V30 20805 H 1941.95 3.18168 0.737331 0
M  V30 20806 H 1940.61 3.3945 -1.38453 0
M  V30 20807 H 1940.25 5.00551 0.49577 0
M  V30 20808 H 1939.95 5.77543 -1.08247 0
M  V30 20809 H 1941.48 6.10241 -0.209255 0
M  V30 20810 H 1942.89 5.24572 -2.31294 0
M  V30 20811 H 1941.29 5.14007 -3.09704 0
M  V30 20812 H 1942.36 3.72654 -3.10254 0
M  V30 20813 N 1943.7 0.89031 1.30043 0
M  V30 20814 C 1944.93 0.525833 2.00623 0
M  V30 20815 C 1945.35 -0.87971 1.66261 0
M  V30 20816 O 1944.71 -1.58394 0.882105 0
M  V30 20817 C 1944.76 0.714046 3.5346 0
M  V30 20818 O 1943.86 -0.237685 4.11714 0
M  V30 20819 H 1943.2 0.20656 0.631054 0
M  V30 20820 H 1945.73 1.19932 1.65763 0
M  V30 20821 H 1945.74 0.615086 4.03337 0
M  V30 20822 H 1944.42 1.73881 3.77807 0
M  V30 20823 H 1942.99 -0.0919722 3.72787 0
M  V30 20824 N 1945.18 -1.43489 0.651812 0
M  V30 20825 C 1946.6 -1.56374 0.31925 0
M  V30 20826 C 1946.8 -1.63573 -1.1767 0
M  V30 20827 O 1945.85 -1.59003 -1.96149 0
M  V30 20828 C 1947.16 -2.82532 1.02937 0
M  V30 20829 C 1948.71 -2.96274 1.00949 0
M  V30 20830 C 1949.19 -4.25262 1.70047 0
M  V30 20831 N 1950.68 -4.32123 1.66805 0
M  V30 20832 C 1951.41 -5.30693 2.17146 0
M  V30 20833 N 1950.91 -6.3555 2.75769 0
M  V30 20834 N 1952.7 -5.22337 2.07654 0
M  V30 20835 H 1944.85 -1.3706 1.6226 0
M  V30 20836 H 1947.12 -0.658169 0.682289 0
M  V30 20837 H 1946.82 -2.83271 2.08448 0
M  V30 20838 H 1946.7 -3.72713 0.580047 0
M  V30 20839 H 1949.08 -2.95077 -0.0372118 0
M  V30 20840 H 1949.16 -2.07386 1.49749 0
M  V30 20841 H 1948.81 -4.2722 2.74673 0
M  V30 20842 H 1948.74 -5.13044 1.18714 0
M  V30 20843 H 1951.23 -3.56968 1.24024 0
M  V30 20844 H 1951.54 -7.0708 3.11861 0
M  V30 20845 H 1949.89 -6.36177 2.79829 0
M  V30 20846 H 1953.08 -4.39336 1.61561 0
M  V30 20847 H 1953.25 -5.98998 2.47195 0
M  V30 20848 N 1946.66 -0.393643 -1.52605 0
M  V30 20849 C 1947.9 0.187154 -2.01633 0
M  V30 20850 C 1948.23 1.46451 -1.27993 0
M  V30 20851 O 1947.49 1.92169 -0.370063 0
M  V30 20852 C 1947.79 0.497148 -3.53925 0
M  V30 20853 C 1947.45 -0.689176 -4.45602 0
M  V30 20854 C 1946.11 -1.01462 -4.70382 0
M  V30 20855 C 1948.47 -1.48262 -4.99668 0
M  V30 20856 C 1945.79 -2.13497 -5.46476 0
M  V30 20857 C 1948.15 -2.59361 -5.76987 0
M  V30 20858 C 1946.81 -2.92409 -6.00044 0
M  V30 20859 H 1946.08 0.0684846 -0.737828 0
M  V30 20860 H 1948.73 -0.531882 -1.83965 0
M  V30 20861 H 1947.03 1.29756 -3.6969 0
M  V30 20862 H 1948.73 0.959239 -3.89358 0
M  V30 20863 H 1945.32 -0.425524 -4.26482 0
M  V30 20864 H 1949.5 -1.24443 -4.80445 0
M  V30 20865 H 1944.76 -2.39467 -5.62553 0
M  V30 20866 H 1948.93 -3.21241 -6.17881 0
M  V30 20867 H 1946.56 -3.79341 -6.5879 0
M  V30 20868 N 1948.14 1.57115 -0.123593 0
M  V30 20869 C 1949.05 2.19104 0.838493 0
M  V30 20870 C 1950.06 1.1685 1.28927 0
M  V30 20871 O 1951.24 1.49337 1.35131 0
M  V30 20872 C 1948.3 2.78191 2.06908 0
M  V30 20873 C 1947.36 3.95495 1.66979 0
M  V30 20874 C 1946.6 4.51755 2.84171 0
M  V30 20875 O 1946.82 4.06908 3.99728 0
M  V30 20876 O 1945.75 5.42372 2.60991 0
M  V30 20877 H 1949.58 3.0178 0.340935 0
M  V30 20878 H 1947.16 1.4905 0.102255 0
M  V30 20879 H 1949.05 3.15837 2.78971 0
M  V30 20880 H 1947.72 1.98542 2.55661 0
M  V30 20881 H 1946.63 3.62609 0.920091 0
M  V30 20882 H 1947.96 4.76593 1.22963 0
M  V30 20883 N 1949.61 -0.150187 1.56883 0
M  V30 20884 C 1950.86 -0.86163 1.82812 0
M  V30 20885 C 1951.18 -1.81849 0.703977 0
M  V30 20886 O 1950.45 -1.93966 -0.274616 0
M  V30 20887 H 1949.03 -0.321175 0.67443 0
M  V30 20888 H 1951.69 -0.144952 1.9436 0
M  V30 20889 H 1950.79 -1.4258 2.77628 0
M  V30 20890 N 1951.09 -1.51916 -0.419434 0
M  V30 20891 C 1952.03 -1.69227 -1.53093 0
M  V30 20892 C 1953 -0.539814 -1.53378 0
M  V30 20893 O 1954.19 -0.765893 -1.72239 0
M  V30 20894 C 1951.31 -1.7222 -2.91647 0
M  V30 20895 C 1950.36 -2.93643 -3.09315 0
M  V30 20896 S 1951.19 -4.54164 -2.83717 0
M  V30 20897 C 1952.35 -4.59928 -4.2452 0
M  V30 20898 H 1952.58 -2.63237 -1.38179 0
M  V30 20899 H 1950.12 -1.41825 -0.61033 0
M  V30 20900 H 1952.07 -1.7463 -3.71503 0
M  V30 20901 H 1950.73 -0.793553 -3.0391 0
M  V30 20902 H 1949.93 -2.9219 -4.10659 0
M  V30 20903 H 1949.53 -2.89068 -2.3731 0
M  V30 20904 H 1951.82 -4.36671 -5.18001 0
M  V30 20905 H 1952.76 -5.61822 -4.31 0
M  V30 20906 H 1953.17 -3.89064 -4.0901 0
M  V30 20907 N 1952.57 0.676023 -1.42365 0
M  V30 20908 C 1953.99 0.989001 -1.25263 0
M  V30 20909 C 1954.19 2.00896 -0.155941 0
M  V30 20910 O 1953.24 2.48026 0.473229 0
M  V30 20911 C 1954.56 1.49498 -2.60904 0
M  V30 20912 C 1956.1 1.61281 -2.68249 0
M  V30 20913 C 1956.58 2.15275 -4.04253 0
M  V30 20914 N 1958.07 2.2261 -4.06201 0
M  V30 20915 C 1958.8 2.6546 -5.08251 0
M  V30 20916 N 1958.3 3.07771 -6.20684 0
M  V30 20917 N 1960.09 2.65198 -4.95607 0
M  V30 20918 H 1952.24 0.000697929 -2.124 0
M  V30 20919 H 1954.51 0.0628334 -0.945915 0
M  V30 20920 H 1954.21 0.820033 -3.42006 0
M  V30 20921 H 1954.09 2.47392 -2.8474 0
M  V30 20922 H 1956.47 2.27882 -1.87493 0
M  V30 20923 H 1956.56 0.618793 -2.48203 0
M  V30 20924 H 1956.2 1.49284 -4.85466 0
M  V30 20925 H 1956.13 3.15466 -4.2165 0
M  V30 20926 H 1958.62 1.92776 -3.25032 0
M  V30 20927 H 1958.93 3.3915 -6.94404 0
M  V30 20928 H 1957.28 3.05631 -6.24191 0
M  V30 20929 H 1960.47 2.31504 -4.06846 0
M  V30 20930 H 1960.64 2.98272 -5.75272 0
M  V30 20931 N 1954.05 1.28517 0.912209 0
M  V30 20932 C 1955.29 1.15932 1.66396 0
M  V30 20933 C 1955.63 -0.291123 1.92006 0
M  V30 20934 O 1954.9 -1.21159 1.52154 0
M  V30 20935 C 1955.19 1.95993 3.0209 0
M  V30 20936 C 1955.04 3.49109 2.83625 0
M  V30 20937 C 1956.36 1.77655 4.0265 0
M  V30 20938 H 1953.48 0.42252 0.603859 0
M  V30 20939 H 1956.12 1.5785 1.05752 0
M  V30 20940 H 1954.27 1.60372 3.53855 0
M  V30 20941 H 1955.94 3.94644 2.38859 0
M  V30 20942 H 1954.18 3.74664 2.18653 0
M  V30 20943 H 1954.85 4.00386 3.79993 0
M  V30 20944 H 1957.33 2.08743 3.59952 0
M  V30 20945 H 1956.21 2.36043 4.95555 0
M  V30 20946 H 1956.47 0.728445 4.36057 0
M  V30 20947 N 1955.53 -1.12086 1.1079 0
M  V30 20948 C 1956.77 -1.83949 0.853848 0
M  V30 20949 C 1957.11 -1.8407 -0.619029 0
M  V30 20950 O 1956.38 -1.28889 -1.45664 0
M  V30 20951 C 1956.66 -3.31452 1.40754 0
M  V30 20952 C 1956.52 -3.39765 2.94754 0
M  V30 20953 C 1957.84 -4.2732 1.05288 0
M  V30 20954 H 1954.95 -0.667872 0.311635 0
M  V30 20955 H 1957.6 -1.31475 1.37166 0
M  V30 20956 H 1955.75 -3.7627 0.967112 0
M  V30 20957 H 1957.42 -3.03555 3.4735 0
M  V30 20958 H 1955.66 -2.80196 3.31168 0
M  V30 20959 H 1956.33 -4.43553 3.2858 0
M  V30 20960 H 1958.81 -3.90647 1.43297 0
M  V30 20961 H 1957.68 -5.28929 1.46716 0
M  V30 20962 H 1957.95 -4.42084 -0.0372227 0
M  V30 20963 N 1957 -0.897194 -1.29569 0
M  V30 20964 C 1958.25 -0.522607 -1.95951 0
M  V30 20965 C 1958.58 0.928254 -1.70579 0
M  V30 20966 O 1957.86 1.65772 -1.01734 0
M  V30 20967 C 1958.14 -0.812659 -3.5081 0
M  V30 20968 C 1957.99 -2.31504 -3.8565 0
M  V30 20969 C 1959.31 -0.297442 -4.39094 0
M  V30 20970 H 1956.43 -0.191346 -0.711727 0
M  V30 20971 H 1959.07 -1.12342 -1.5323 0
M  V30 20972 H 1957.22 -0.301316 -3.8733 0
M  V30 20973 H 1958.9 -2.89573 -3.59089 0
M  V30 20974 H 1957.14 -2.77678 -3.33283 0
M  V30 20975 H 1957.81 -2.46857 -4.93726 0
M  V30 20976 H 1960.29 -0.735265 -4.09552 0
M  V30 20977 H 1959.16 -0.529614 -5.46339 0
M  V30 20978 H 1959.42 0.801767 -4.34769 0
M  V30 20979 N 1958.48 1.43142 -0.659413 0
M  V30 20980 C 1959.43 2.32565 0.040254 0
M  V30 20981 C 1960.42 1.48961 0.806651 0
M  V30 20982 O 1961.63 1.65131 0.716353 0
M  V30 20983 H 1958.01 0.751327 0.0318053 0
M  V30 20984 H 1959.98 2.89293 -0.731581 0
M  V30 20985 C 1958.73 3.33349 0.988614 0
M  V30 20986 H 1958.05 3.9771 0.40831 0
M  V30 20987 H 1959.49 3.9854 1.44714 0
M  V30 20988 C 1957.95 2.64423 2.08763 0
M  V30 20989 O 1958.48 2.46444 3.17219 0
M  V30 20990 N 1956.68 2.23697 1.85494 0
M  V30 20991 H 1956.23 2.38519 0.972945 0
M  V30 20992 H 1956.19 1.7791 2.59221 0
M  V30 20993 N 1959.96 0.40173 1.52394 0
M  V30 20994 C 1960.92 -0.41541 2.25404 0
M  V30 20995 C 1961.92 -0.979848 1.27498 0
M  V30 20996 O 1963.11 -0.859891 1.51498 0
M  V30 20997 C 1960.25 -1.58403 3.01863 0
M  V30 20998 H 1961.44 0.223965 2.99063 0
M  V30 20999 H 1958.99 0.154095 1.55539 0
M  V30 21000 H 1959.73 -2.26048 2.32536 0
M  V30 21001 H 1959.51 -1.18586 3.73737 0
M  V30 21002 H 1961 -2.16224 3.57263 0
M  V30 21003 N 1961.44 -1.57047 0.131923 0
M  V30 21004 C 1962.37 -2.19006 -0.809859 0
M  V30 21005 C 1963.35 -1.13384 -1.26799 0
M  V30 21006 O 1964.53 -1.4167 -1.32827 0
M  V30 21007 C 1961.66 -2.79973 -2.05505 0
M  V30 21008 C 1960.62 -3.9129 -1.73424 0
M  V30 21009 C 1959.94 -4.39123 -3.05081 0
M  V30 21010 C 1961.24 -5.12783 -0.992535 0
M  V30 21011 H 1962.94 -2.97958 -0.293522 0
M  V30 21012 H 1960.48 -1.4332 -0.13974 0
M  V30 21013 H 1962.44 -3.2198 -2.71858 0
M  V30 21014 H 1961.16 -1.9833 -2.59486 0
M  V30 21015 H 1959.82 -3.49879 -1.09456 0
M  V30 21016 H 1959.47 -3.54322 -3.57022 0
M  V30 21017 H 1959.17 -5.14197 -2.84385 0
M  V30 21018 H 1960.69 -4.8379 -3.72531 0
M  V30 21019 H 1962.11 -5.51728 -1.55785 0
M  V30 21020 H 1960.5 -5.93522 -0.886062 0
M  V30 21021 H 1961.57 -4.84896 0.0184538 0
M  V30 21022 N 1962.92 0.141865 -1.5696 0
M  V30 21023 C 1964.16 0.854874 -1.83901 0
M  V30 21024 C 1964.5 1.80586 -0.714297 0
M  V30 21025 O 1963.77 1.92449 0.281695 0
M  V30 21026 C 1964.05 1.62486 -3.21357 0
M  V30 21027 C 1963.91 0.695015 -4.44398 0
M  V30 21028 C 1965.23 2.5862 -3.56095 0
M  V30 21029 H 1962.34 0.309334 -0.66894 0
M  V30 21030 H 1964.99 0.119882 -1.89621 0
M  V30 21031 H 1963.14 2.25143 -3.16612 0
M  V30 21032 H 1964.81 0.0790536 -4.61232 0
M  V30 21033 H 1963.05 0.00493655 -4.338 0
M  V30 21034 H 1963.72 1.26992 -5.37194 0
M  V30 21035 H 1966.2 2.06079 -3.61484 0
M  V30 21036 H 1965.07 3.09542 -4.53294 0
M  V30 21037 H 1965.34 3.40219 -2.82319 0
M  V30 21038 N 1964.39 1.52136 0.411372 0
M  V30 21039 C 1965.64 1.65757 1.15624 0
M  V30 21040 C 1965.96 0.388771 1.91085 0
M  V30 21041 O 1965.23 -0.596276 1.86605 0
M  V30 21042 H 1963.81 0.610955 0.429817 0
M  V30 21043 H 1966.48 1.8917 0.469114 0
M  V30 21044 H 1965.57 2.49759 1.87155 0
M  V30 21045 N 1965.87 -0.668464 1.42721 0
M  V30 21046 C 1966.84 -1.76365 1.46384 0
M  V30 21047 C 1967.84 -1.56932 0.350554 0
M  V30 21048 O 1969.03 -1.63109 0.611658 0
M  V30 21049 C 1966.16 -3.15071 1.30164 0
M  V30 21050 H 1967.35 -1.74503 2.43903 0
M  V30 21051 H 1964.9 -0.878695 1.29262 0
M  V30 21052 H 1965.64 -3.22555 0.335926 0
M  V30 21053 H 1965.42 -3.3058 2.10853 0
M  V30 21054 H 1966.91 -3.94963 1.35625 0
M  V30 21055 N 1967.35 -1.28999 -0.905381 0
M  V30 21056 C 1968.6 -1.16014 -1.64996 0
M  V30 21057 C 1968.91 0.288766 -1.93457 0
M  V30 21058 O 1970.12 0.539847 -2.66079 0
M  V30 21059 C 1968.58 -2.02866 -2.97276 0
M  V30 21060 C 1968.18 -3.52547 -2.76432 0
M  V30 21061 C 1969.93 -1.98591 -3.75182 0
M  V30 21062 C 1967.83 -4.31522 -4.04404 0
M  V30 21063 H 1966.76 -0.430598 -0.618952 0
M  V30 21064 H 1969.42 -1.53594 -1.00404 0
M  V30 21065 H 1967.8 -1.5815 -3.63049 0
M  V30 21066 H 1968.97 -4.05277 -2.19287 0
M  V30 21067 H 1967.29 -3.58435 -2.11928 0
M  V30 21068 H 1969.88 -2.54859 -4.70054 0
M  V30 21069 H 1970.23 -0.964577 -4.04971 0
M  V30 21070 H 1970.76 -2.41321 -3.16242 0
M  V30 21071 H 1967.5 -5.3427 -3.79784 0
M  V30 21072 H 1967.02 -3.83563 -4.61129 0
M  V30 21073 H 1968.7 -4.41885 -4.72596 0
M  V30 21074 N 1968.83 1.11497 -1.11383 0
M  V30 21075 C 1970.24 1.64742 -0.878467 0
M  V30 21076 C 1970.59 1.87138 0.589393 0
M  V30 21077 O 1969.72 1.60515 1.45134 0
M  V30 21078 C 1970.31 2.99271 -1.58815 0
M  V30 21079 C 1968.87 3.49426 -1.39923 0
M  V30 21080 C 1968.02 2.24248 -1.6312 0
M  V30 21081 H 1970.97 0.951453 -1.27016 0
M  V30 21082 H 1970.99 3.66215 -1.03281 0
M  V30 21083 H 1970.5 2.82939 -2.65645 0
M  V30 21084 H 1968.6 3.70924 -0.353006 0
M  V30 21085 H 1968.72 4.28255 -2.1479 0
M  V30 21086 H 1967.08 2.31843 -1.05455 0
M  V30 21087 H 1967.86 2.10459 -2.71223 0
M  V30 21088 N 1970.31 0.904053 1.29092 0
M  V30 21089 C 1971.53 0.547082 2.00054 0
M  V30 21090 C 1971.96 -0.862026 1.67185 0
M  V30 21091 O 1971.32 -1.57449 0.898855 0
M  V30 21092 C 1971.36 0.751495 3.52682 0
M  V30 21093 O 1970.47 -0.194004 4.11943 0
M  V30 21094 H 1969.81 0.213241 0.628828 0
M  V30 21095 H 1972.34 1.21683 1.64482 0
M  V30 21096 H 1972.35 0.657831 4.02662 0
M  V30 21097 H 1971.02 1.77878 3.75942 0
M  V30 21098 H 1969.6 -0.0524281 3.72863 0
M  V30 21099 N 1971.79 -1.4279 0.666995 0
M  V30 21100 C 1973.03 -2.00866 0.183286 0
M  V30 21101 C 1973.35 -1.53315 -1.21465 0
M  V30 21102 O 1974.55 -2.03756 -1.79432 0
M  V30 21103 C 1973.01 -3.58834 0.276836 0
M  V30 21104 C 1972.62 -4.15374 1.67834 0
M  V30 21105 C 1974.36 -4.2424 -0.14856 0
M  V30 21106 C 1972.27 -5.65681 1.72507 0
M  V30 21107 H 1971.2 -0.751214 0.0647613 0
M  V30 21108 H 1973.85 -1.63603 0.83104 0
M  V30 21109 H 1972.23 -3.93563 -0.438672 0
M  V30 21110 H 1973.41 -3.9212 2.4203 0
M  V30 21111 H 1971.72 -3.62391 2.0509 0
M  V30 21112 H 1974.32 -5.34533 -0.133681 0
M  V30 21113 H 1974.66 -3.99154 -1.18245 0
M  V30 21114 H 1975.19 -3.94444 0.51567 0
M  V30 21115 H 1971.93 -5.95555 2.73852 0
M  V30 21116 H 1971.45 -5.9095 1.02655 0
M  V30 21117 H 1973.13 -6.29963 1.47499 0
M  V30 21118 N 1973.26 -0.409806 -1.52179 0
M  V30 21119 C 1974.2 0.459953 -2.23517 0
M  V30 21120 C 1975.17 1.04743 -1.24369 0
M  V30 21121 O 1976.36 1.09517 -1.53422 0
M  V30 21122 C 1973.49 1.6385 -2.9643 0
M  V30 21123 C 1972.53 1.17434 -4.10014 0
M  V30 21124 S 1973.36 0.138933 -5.3532 0
M  V30 21125 C 1974.52 1.32279 -6.11762 0
M  V30 21126 H 1974.75 -0.145775 -2.96942 0
M  V30 21127 H 1972.29 -0.19411 -1.53175 0
M  V30 21128 H 1974.24 2.31429 -3.39044 0
M  V30 21129 H 1972.91 2.21557 -2.22646 0
M  V30 21130 H 1972.1 2.05487 -4.60208 0
M  V30 21131 H 1971.7 0.577187 -3.69519 0
M  V30 21132 H 1973.99 2.24626 -6.39179 0
M  V30 21133 H 1974.94 0.861371 -7.02841 0
M  V30 21134 H 1975.34 1.54889 -5.42835 0
M  V30 21135 N 1974.74 1.56975 -0.14025 0
M  V30 21136 C 1975.69 2.17699 0.819153 0
M  V30 21137 C 1976.68 1.13208 1.26017 0
M  V30 21138 O 1977.89 1.31472 1.22944 0
M  V30 21139 H 1974.26 0.696983 0.282345 0
M  V30 21140 H 1976.24 2.97058 0.28273 0
M  V30 21141 C 1974.98 2.80769 2.05096 0
M  V30 21142 H 1974.31 3.60882 1.72058 0
M  V30 21143 H 1975.75 3.26768 2.70183 0
M  V30 21144 C 1974.21 1.7893 2.85457 0
M  V30 21145 O 1974.74 1.25562 3.81572 0
M  V30 21146 N 1972.94 1.48386 2.4986 0
M  V30 21147 H 1972.49 1.91976 1.71765 0
M  V30 21148 H 1972.45 0.804935 3.03921 0
M  V30 21149 N 1976.22 -0.133539 1.57033 0
M  V30 21150 C 1977.47 -0.845109 1.84352 0
M  V30 21151 C 1977.8 -1.80205 0.723864 0
M  V30 21152 O 1977.07 -1.92596 -0.271485 0
M  V30 21153 C 1977.36 -1.6078 3.22214 0
M  V30 21154 C 1977.21 -0.671438 4.4476 0
M  V30 21155 C 1978.53 -2.56728 3.57462 0
M  V30 21156 H 1975.65 -0.305783 0.670571 0
M  V30 21157 H 1978.29 -0.109825 1.89682 0
M  V30 21158 H 1976.44 -2.23461 3.17801 0
M  V30 21159 H 1978.11 -0.0545922 4.61268 0
M  V30 21160 H 1976.35 0.018069 4.33796 0
M  V30 21161 H 1977.03 -1.24142 5.37859 0
M  V30 21162 H 1979.5 -2.04159 3.62572 0
M  V30 21163 H 1978.38 -3.07133 4.54929 0
M  V30 21164 H 1978.64 -3.38717 2.84119 0
M  V30 21165 N 1977.7 -1.52352 -0.403298 0
M  V30 21166 C 1978.63 -1.79074 -1.49849 0
M  V30 21167 C 1979.61 -0.642006 -1.57519 0
M  V30 21168 O 1980.79 -0.888182 -1.72699 0
M  V30 21169 C 1977.92 -1.9467 -2.87612 0
M  V30 21170 C 1976.88 -3.10295 -2.9479 0
M  V30 21171 C 1976.2 -3.11122 -4.34864 0
M  V30 21172 C 1977.5 -4.49643 -2.65741 0
M  V30 21173 H 1979.2 -2.70783 -1.27737 0
M  V30 21174 H 1976.74 -1.30298 -0.613064 0
M  V30 21175 H 1978.7 -2.11947 -3.64221 0
M  V30 21176 H 1977.42 -0.996377 -3.1103 0
M  V30 21177 H 1976.08 -2.92778 -2.20627 0
M  V30 21178 H 1975.73 -2.13801 -4.553 0
M  V30 21179 H 1975.43 -3.88786 -4.4059 0
M  V30 21180 H 1976.95 -3.30536 -5.13399 0
M  V30 21181 H 1978.37 -4.67335 -3.3207 0
M  V30 21182 H 1976.76 -5.29268 -2.82835 0
M  V30 21183 H 1977.83 -4.57339 -1.61149 0
M  V30 21184 N 1979.18 0.660885 -1.43074 0
M  V30 21185 C 1980.11 1.78579 -1.50438 0
M  V30 21186 C 1981.09 1.66253 -0.359703 0
M  V30 21187 O 1982.27 1.85465 -0.575893 0
M  V30 21188 C 1979.4 3.16963 -1.41956 0
M  V30 21189 C 1978.36 3.44043 -2.54594 0
M  V30 21190 C 1977.68 4.82147 -2.31166 0
M  V30 21191 C 1978.98 3.3955 -3.96867 0
M  V30 21192 H 1980.68 1.72673 -2.4459 0
M  V30 21193 H 1978.22 0.829317 -1.17721 0
M  V30 21194 H 1980.17 3.95406 -1.45713 0
M  V30 21195 H 1978.9 3.23581 -0.443048 0
M  V30 21196 H 1977.56 2.67969 -2.50177 0
M  V30 21197 H 1977.21 4.85432 -1.31776 0
M  V30 21198 H 1976.91 5.01228 -3.06667 0
M  V30 21199 H 1978.43 5.62857 -2.36695 0
M  V30 21200 H 1979.84 4.0794 -4.02813 0
M  V30 21201 H 1978.24 3.70166 -4.72332 0
M  V30 21202 H 1979.31 2.37868 -4.22548 0
M  V30 21203 N 1980.65 1.29477 0.898527 0
M  V30 21204 C 1981.9 1.1769 1.65157 0
M  V30 21205 C 1982.23 -0.270742 1.92303 0
M  V30 21206 O 1981.51 -1.19538 1.5343 0
M  V30 21207 C 1981.79 1.99186 2.99995 0
M  V30 21208 C 1981.64 3.52097 2.79906 0
M  V30 21209 C 1982.96 1.81916 4.00743 0
M  V30 21210 H 1980.08 0.428901 0.599344 0
M  V30 21211 H 1982.72 1.58963 1.04071 0
M  V30 21212 H 1980.87 1.64116 3.52134 0
M  V30 21213 H 1982.55 3.97155 2.3466 0
M  V30 21214 H 1980.79 3.76962 2.14667 0
M  V30 21215 H 1981.46 4.04394 3.75725 0
M  V30 21216 H 1983.94 2.12549 3.57718 0
M  V30 21217 H 1982.81 2.41285 4.93024 0
M  V30 21218 H 1983.07 0.774654 4.3526 0
M  V30 21219 N 1982.13 -1.10905 1.11972 0
M  V30 21220 C 1983.37 -1.84389 0.882045 0
M  V30 21221 C 1983.74 -1.82976 -0.581712 0
M  V30 21222 O 1984.94 -2.51963 -0.936372 0
M  V30 21223 C 1983.21 -3.27323 1.43507 0
M  V30 21224 S 1984.77 -4.17993 1.3352 0
M  V30 21225 H 1981.59 -0.635766 0.318312 0
M  V30 21226 H 1984.19 -1.3349 1.42831 0
M  V30 21227 H 1982.89 -3.2592 2.49408 0
M  V30 21228 H 1982.42 -3.83291 0.886085 0
M  V30 21229 H 1984.44 -4.95271 0.30342 0
M  V30 21230 N 1983.61 -0.910886 -1.2861 0
M  V30 21231 C 1984.54 -0.413998 -2.29801 0
M  V30 21232 C 1985.52 0.51689 -1.62056 0
M  V30 21233 O 1986.71 0.425236 -1.89487 0
M  V30 21234 C 1983.84 0.349336 -3.45539 0
M  V30 21235 C 1982.79 -0.49215 -4.25161 0
M  V30 21236 C 1982.12 0.399352 -5.33207 0
M  V30 21237 C 1983.42 -1.74792 -4.92184 0
M  V30 21238 H 1985.11 -1.25965 -2.71612 0
M  V30 21239 H 1982.66 -0.607149 -1.30575 0
M  V30 21240 H 1984.61 0.70777 -4.15414 0
M  V30 21241 H 1983.33 1.22887 -3.02599 0
M  V30 21242 H 1981.99 -0.833064 -3.57009 0
M  V30 21243 H 1981.64 1.27734 -4.86511 0
M  V30 21244 H 1981.34 -0.160062 -5.87382 0
M  V30 21245 H 1982.86 0.753731 -6.0593 0
M  V30 21246 H 1984.28 -1.45856 -5.54436 0
M  V30 21247 H 1982.68 -2.24952 -5.56342 0
M  V30 21248 H 1983.75 -2.4774 -4.16837 0
M  V30 21249 N 1985.09 1.42434 -0.674558 0
M  V30 21250 C 1986.34 2.00765 -0.193936 0
M  V30 21251 C 1986.65 1.53957 1.20651 0
M  V30 21252 O 1987.86 2.04705 1.78348 0
M  V30 21253 C 1986.31 3.58682 -0.295862 0
M  V30 21254 C 1985.92 4.14478 -1.70034 0
M  V30 21255 C 1987.66 4.24313 0.12606 0
M  V30 21256 C 1985.57 5.64758 -1.75505 0
M  V30 21257 H 1984.5 0.75086 -0.0687443 0
M  V30 21258 H 1987.15 1.6316 -0.839705 0
M  V30 21259 H 1985.53 3.9379 0.417795 0
M  V30 21260 H 1986.71 3.90831 -2.44106 0
M  V30 21261 H 1985.02 3.61298 -2.07009 0
M  V30 21262 H 1987.62 5.34596 0.105331 0
M  V30 21263 H 1987.96 3.99775 1.16127 0
M  V30 21264 H 1988.5 3.94164 -0.536581 0
M  V30 21265 H 1985.24 5.94094 -2.77007 0
M  V30 21266 H 1984.76 5.90397 -1.05788 0
M  V30 21267 H 1986.43 6.29172 -1.50838 0
M  V30 21268 N 1986.57 0.417871 1.51959 0
M  V30 21269 C 1987.81 -0.155052 2.01906 0
M  V30 21270 C 1988.14 -1.44397 1.30307 0
M  V30 21271 O 1987.4 -1.91556 0.400588 0
M  V30 21272 C 1987.7 -0.440779 3.54672 0
M  V30 21273 C 1987.36 0.759981 4.44449 0
M  V30 21274 C 1986.02 1.08932 4.68708 0
M  V30 21275 C 1988.38 1.56193 4.97246 0
M  V30 21276 C 1985.7 2.22164 5.4301 0
M  V30 21277 C 1988.06 2.68508 5.72788 0
M  V30 21278 C 1986.72 3.01918 5.95316 0
M  V30 21279 H 1985.99 -0.0567377 0.738825 0
M  V30 21280 H 1988.64 0.561082 1.83096 0
M  V30 21281 H 1986.94 -1.23858 3.71707 0
M  V30 21282 H 1988.64 -0.897174 3.90835 0
M  V30 21283 H 1985.23 0.49332 4.25751 0
M  V30 21284 H 1989.41 1.32071 4.78405 0
M  V30 21285 H 1984.67 2.48387 5.58672 0
M  V30 21286 H 1988.84 3.3103 6.12692 0
M  V30 21287 H 1986.47 3.89774 6.52672 0
M  V30 21288 N 1988.04 -1.56898 0.148573 0
M  V30 21289 C 1989.29 -1.97247 -0.496492 0
M  V30 21290 C 1989.65 -1.0321 -1.62374 0
M  V30 21291 O 1988.94 -0.0674457 -1.91481 0
M  V30 21292 C 1989.13 -3.41691 -1.04795 0
M  V30 21293 C 1988.96 -4.49693 0.0243387 0
M  V30 21294 C 1987.73 -5.03144 0.466295 0
M  V30 21295 C 1989.93 -5.07779 0.816389 0
M  V30 21296 N 1987.91 -5.94753 1.52126 0
M  V30 21297 C 1989.28 -5.95612 1.72182 0
M  V30 21298 C 1991.34 -4.90346 0.864002 0
M  V30 21299 C 1990.04 -6.67878 2.67078 0
M  V30 21300 C 1992.07 -5.63316 1.80081 0
M  V30 21301 C 1991.43 -6.50858 2.69376 0
M  V30 21302 H 1987.53 -0.767393 -0.150442 0
M  V30 21303 H 1990.11 -1.93171 0.243538 0
M  V30 21304 H 1988.28 -3.46358 -1.75758 0
M  V30 21305 H 1990.01 -3.69099 -1.65976 0
M  V30 21306 H 1986.77 -4.73551 0.068254 0
M  V30 21307 H 1987.19 -6.45262 2.04856 0
M  V30 21308 H 1991.84 -4.22383 0.187713 0
M  V30 21309 H 1989.55 -7.35069 3.35707 0
M  V30 21310 H 1993.14 -5.51822 1.84346 0
M  V30 21311 H 1992.02 -7.06331 3.40685 0
M  V30 21312 N 1989.52 0.125209 -1.57102 0
M  V30 21313 C 1990.45 1.15521 -2.02922 0
M  V30 21314 C 1991.43 1.43549 -0.912559 0
M  V30 21315 O 1992.62 1.54097 -1.18185 0
M  V30 21316 C 1989.75 2.48297 -2.42829 0
M  V30 21317 C 1988.7 2.34744 -3.57881 0
M  V30 21318 C 1988.03 3.72427 -3.83669 0
M  V30 21319 C 1989.33 1.81317 -4.89818 0
M  V30 21320 H 1991.02 0.774129 -2.89219 0
M  V30 21321 H 1988.57 0.370935 -1.3914 0
M  V30 21322 H 1990.52 3.20597 -2.73487 0
M  V30 21323 H 1989.25 2.88283 -1.53495 0
M  V30 21324 H 1987.9 1.64893 -3.27423 0
M  V30 21325 H 1987.55 4.09887 -2.9155 0
M  V30 21326 H 1987.25 3.64215 -4.61109 0
M  V30 21327 H 1988.78 4.46242 -4.16773 0
M  V30 21328 H 1990.19 2.43429 -5.19052 0
M  V30 21329 H 1988.59 1.83941 -5.71214 0
M  V30 21330 H 1989.66 0.770291 -4.78743 0
M  V30 21331 N 1991 1.52564 0.395213 0
M  V30 21332 C 1992.25 1.6653 1.13801 0
M  V30 21333 C 1992.56 0.408362 1.9129 0
M  V30 21334 O 1993.77 0.428049 2.68104 0
M  V30 21335 C 1992.22 2.94273 2.07199 0
M  V30 21336 C 1991.83 4.27125 1.35162 0
M  V30 21337 C 1993.58 3.17604 2.81652 0
M  V30 21338 C 1991.48 5.4598 2.27289 0
M  V30 21339 H 1990.41 0.620392 0.428521 0
M  V30 21340 H 1993.06 1.79058 0.401302 0
M  V30 21341 H 1991.45 2.75477 2.8448 0
M  V30 21342 H 1992.62 4.56452 0.631492 0
M  V30 21343 H 1990.94 4.10006 0.726934 0
M  V30 21344 H 1993.53 4.03582 3.5075 0
M  V30 21345 H 1993.88 2.32415 3.45382 0
M  V30 21346 H 1994.41 3.36938 2.11466 0
M  V30 21347 H 1991.15 6.33557 1.68184 0
M  V30 21348 H 1990.67 5.20972 2.97235 0
M  V30 21349 H 1992.35 5.79609 2.8751 0
M  V30 21350 N 1992.48 -0.653289 1.43422 0
M  V30 21351 C 1993.73 -1.41319 1.45036 0
M  V30 21352 C 1994.05 -1.94357 0.074626 0
M  V30 21353 O 1993.31 -1.72707 -0.920363 0
M  V30 21354 C 1993.61 -2.6117 2.43978 0
M  V30 21355 C 1993.27 -2.2655 3.89854 0
M  V30 21356 C 1991.94 -2.16821 4.29584 0
M  V30 21357 C 1994.29 -1.98838 4.81781 0
M  V30 21358 C 1991.62 -1.77535 5.59194 0
M  V30 21359 C 1993.97 -1.61051 6.11756 0
M  V30 21360 C 1992.63 -1.49847 6.50463 0
M  V30 21361 H 1991.9 -0.517121 0.530723 0
M  V30 21362 H 1994.55 -0.742946 1.76501 0
M  V30 21363 H 1992.85 -3.33326 2.05916 0
M  V30 21364 H 1994.55 -3.19381 2.42481 0
M  V30 21365 H 1991.14 -2.35033 3.58409 0
M  V30 21366 H 1995.32 -2.05276 4.51858 0
M  V30 21367 H 1990.58 -1.67447 5.88023 0
M  V30 21368 H 1994.75 -1.38639 6.8246 0
M  V30 21369 H 1992.38 -1.19176 7.508 0
M  V30 21370 N 1993.96 -1.29952 -0.891648 0
M  V30 21371 C 1995.18 -1.21422 -1.68141 0
M  V30 21372 C 1995.61 0.220633 -1.86802 0
M  V30 21373 O 1994.96 1.15902 -1.39414 0
M  V30 21374 C 1995.01 -1.94116 -3.03894 0
M  V30 21375 O 1994.12 -1.26369 -3.92562 0
M  V30 21376 H 1993.46 -0.420318 -0.514032 0
M  V30 21377 H 1995.99 -1.71658 -1.11331 0
M  V30 21378 H 1996 -2.02881 -3.53982 0
M  V30 21379 H 1994.67 -2.98474 -2.89631 0
M  V30 21380 H 1993.25 -1.25915 -3.50998 0
M  V30 21381 N 1995.44 1.1031 -1.12559 0
M  V30 21382 C 1996.68 1.81665 -0.876399 0
M  V30 21383 C 1997 1.86186 0.599506 0
M  V30 21384 O 1998.2 2.53759 0.965337 0
M  V30 21385 C 1996.66 3.26308 -1.51826 0
M  V30 21386 C 1996.27 3.30081 -3.02904 0
M  V30 21387 C 1998.01 4.02482 -1.34939 0
M  V30 21388 C 1995.92 4.69192 -3.60018 0
M  V30 21389 H 1994.85 0.680734 -0.324218 0
M  V30 21390 H 1997.5 1.24044 -1.35223 0
M  V30 21391 H 1995.88 3.83934 -0.970087 0
M  V30 21392 H 1997.06 2.82272 -3.64224 0
M  V30 21393 H 1995.37 2.67393 -3.19202 0
M  V30 21394 H 1997.97 5.05241 -1.7503 0
M  V30 21395 H 1998.31 4.15266 -0.293208 0
M  V30 21396 H 1998.84 3.51274 -1.86685 0
M  V30 21397 H 1995.58 4.61608 -4.65401 0
M  V30 21398 H 1995.1 5.17363 -3.03473 0
M  V30 21399 H 1996.78 5.38161 -3.59153 0
M  V30 21400 N 1996.91 0.917694 1.28125 0
M  V30 21401 C 1997.85 0.353528 2.25445 0
M  V30 21402 C 1998.82 -0.544478 1.53213 0
M  V30 21403 O 2000.01 -0.487244 1.82094 0
M  V30 21404 C 1997.14 -0.494267 3.35074 0
M  V30 21405 C 1996.18 0.338908 4.25151 0
M  V30 21406 S 1997.01 1.74815 5.06162 0
M  V30 21407 C 1998.17 0.907763 6.19282 0
M  V30 21408 H 1998.4 1.17837 2.7295 0
M  V30 21409 H 1995.94 0.719206 1.36626 0
M  V30 21410 H 1997.89 -0.977577 3.9869 0
M  V30 21411 H 1996.56 -1.29354 2.86228 0
M  V30 21412 H 1995.75 -0.309531 5.03049 0
M  V30 21413 H 1995.35 0.756018 3.66279 0
M  V30 21414 H 1997.64 0.139193 6.77357 0
M  V30 21415 H 1998.59 1.65941 6.88382 0
M  V30 21416 H 1998.99 0.454194 5.6267 0
M  V30 21417 N 1998.39 -1.42074 0.682102 0
M  V30 21418 C 1999.64 -2.01037 0.206997 0
M  V30 21419 C 1999.96 -1.5424 -1.19311 0
M  V30 21420 O 1999.23 -0.767197 -1.80252 0
M  V30 21421 H 1997.81 -0.743372 0.073537 0
M  V30 21422 H 2000.47 -1.7389 0.880247 0
M  V30 21423 H 1999.57 -3.11366 0.213942 0
M  V30 21424 N 1999.87 -0.425924 -1.51735 0
M  V30 21425 C 2001.12 0.144557 -2.02284 0
M  V30 21426 C 2001.45 1.43351 -1.31012 0
M  V30 21427 O 2000.72 1.89877 -0.421524 0
M  V30 21428 C 2001.01 0.37505 -3.58142 0
M  V30 21429 C 2000.86 -0.931753 -4.40044 0
M  V30 21430 C 2002.18 1.14986 -4.24813 0
M  V30 21431 H 1999.3 0.0510632 -0.735229 0
M  V30 21432 H 2001.94 -0.562685 -1.81477 0
M  V30 21433 H 2000.09 0.977495 -3.76002 0
M  V30 21434 H 2001.76 -1.5673 -4.33859 0
M  V30 21435 H 2000 -1.53896 -4.05584 0
M  V30 21436 H 2000.68 -0.724661 -5.47223 0
M  V30 21437 H 2003.15 0.639666 -4.11154 0
M  V30 21438 H 2002.03 1.27989 -5.3377 0
M  V30 21439 H 2002.29 2.17496 -3.849 0
M  V30 21440 N 2001.35 1.56817 -0.156891 0
M  V30 21441 C 2002.3 2.18555 0.796017 0
M  V30 21442 C 2003.29 1.14538 1.24809 0
M  V30 21443 O 2004.5 1.32768 1.21542 0
M  V30 21444 H 2000.87 0.699939 0.274936 0
M  V30 21445 H 2002.84 2.97341 0.251207 0
M  V30 21446 C 2001.59 2.82928 2.02106 0
M  V30 21447 H 2000.91 3.62687 1.6822 0
M  V30 21448 H 2002.35 3.29615 2.66702 0
M  V30 21449 C 2000.81 1.81947 2.83543 0
M  V30 21450 O 2001.34 1.29602 3.80219 0
M  V30 21451 N 1999.55 1.51028 2.48272 0
M  V30 21452 H 1999.1 1.93787 1.69719 0
M  V30 21453 H 1999.05 0.837124 3.0305 0
M  V30 21454 N 2002.83 -0.116876 1.57166 0
M  V30 21455 C 2003.76 -1.14443 2.03531 0
M  V30 21456 C 2004.74 -1.43063 0.920159 0
M  V30 21457 O 2005.92 -1.53468 1.19001 0
M  V30 21458 C 2003.05 -2.47006 2.44142 0
M  V30 21459 C 2002.01 -2.32843 3.59121 0
M  V30 21460 C 2001.33 -3.70388 3.85639 0
M  V30 21461 C 2002.63 -1.78717 4.90772 0
M  V30 21462 H 2004.33 -0.75878 2.89625 0
M  V30 21463 H 2001.87 -0.363551 1.39335 0
M  V30 21464 H 2003.82 -3.19143 2.75184 0
M  V30 21465 H 2002.55 -2.87465 1.55021 0
M  V30 21466 H 2001.21 -1.63155 3.28293 0
M  V30 21467 H 2000.86 -4.08335 2.9372 0
M  V30 21468 H 2000.56 -3.61764 4.63034 0
M  V30 21469 H 2002.08 -4.44026 4.19134 0
M  V30 21470 H 2003.49 -2.40673 5.20336 0
M  V30 21471 H 2001.89 -1.80909 5.72182 0
M  V30 21472 H 2002.96 -0.744891 4.79144 0
M  V30 21473 N 2004.3 -1.52772 -0.387116 0
M  V30 21474 C 2005.55 -1.67907 -1.13196 0
M  V30 21475 C 2005.88 -0.419946 -1.89912 0
M  V30 21476 O 2005.13 0.5977 -1.86349 0
M  V30 21477 C 2005.43 -2.86632 -2.13487 0
M  V30 21478 C 2005.1 -4.23999 -1.53414 0
M  V30 21479 C 2003.76 -4.61358 -1.36757 0
M  V30 21480 C 2006.11 -5.09513 -1.09756 0
M  V30 21481 C 2003.44 -5.81887 -0.749927 0
M  V30 21482 C 2005.79 -6.30668 -0.494012 0
M  V30 21483 C 2004.46 -6.66757 -0.314755 0
M  V30 21484 H 2003.73 -0.614416 -0.414214 0
M  V30 21485 H 2006.37 -1.86919 -0.416362 0
M  V30 21486 H 2004.68 -2.62045 -2.91273 0
M  V30 21487 H 2006.38 -2.95538 -2.71032 0
M  V30 21488 H 2002.97 -3.94571 -1.67367 0
M  V30 21489 H 2007.15 -4.81217 -1.21426 0
M  V30 21490 H 2002.41 -6.08456 -0.599259 0
M  V30 21491 H 2006.58 -6.96244 -0.14743 0
M  V30 21492 H 2004.21 -7.60019 0.165924 0
M  V30 21493 N 2005.78 0.645673 -1.43767 0
M  V30 21494 C 2006.74 1.74013 -1.49171 0
M  V30 21495 C 2007.74 1.56355 -0.375476 0
M  V30 21496 O 2008.93 1.62115 -0.637529 0
M  V30 21497 C 2006.07 3.12961 -1.3516 0
M  V30 21498 H 2007.26 1.706 -2.46649 0
M  V30 21499 H 2004.81 0.858019 -1.30643 0
M  V30 21500 H 2005.55 3.2198 -0.387199 0
M  V30 21501 H 2005.33 3.27184 -2.16086 0
M  V30 21502 H 2006.82 3.92755 -1.41891 0
M  V30 21503 N 2007.26 1.30423 0.884744 0
M  V30 21504 C 2008.51 1.19023 1.63334 0
M  V30 21505 C 2008.83 -0.255228 1.93322 0
M  V30 21506 O 2008.1 -1.17189 1.56983 0
M  V30 21507 H 2006.68 0.437514 0.605467 0
M  V30 21508 H 2009.34 1.63552 1.06003 0
M  V30 21509 H 2008.44 1.75125 2.58336 0
M  V30 21510 N 2008.74 -1.09711 1.13142 0
M  V30 21511 C 2009.68 -2.16265 0.806118 0
M  V30 21512 C 2010.65 -1.64493 -0.230476 0
M  V30 21513 O 2011.84 -1.9052 -0.103375 0
M  V30 21514 C 2008.98 -3.44002 0.275075 0
M  V30 21515 C 2008.09 -4.09688 1.37038 0
M  V30 21516 C 2007.23 -5.25172 0.797983 0
M  V30 21517 C 2006.27 -5.82775 1.87189 0
M  V30 21518 N 2005.4 -6.89625 1.31766 0
M  V30 21519 H 2010.24 -2.43434 1.71883 0
M  V30 21520 H 2007.78 -1.19482 0.858044 0
M  V30 21521 H 2009.74 -4.17169 -0.0509244 0
M  V30 21522 H 2008.37 -3.1716 -0.600779 0
M  V30 21523 H 2007.42 -3.34415 1.81302 0
M  V30 21524 H 2008.73 -4.48535 2.18215 0
M  V30 21525 H 2007.89 -6.05223 0.423093 0
M  V30 21526 H 2006.63 -4.87679 -0.0448997 0
M  V30 21527 H 2005.63 -5.01388 2.25588 0
M  V30 21528 H 2006.86 -6.2233 2.71812 0
M  V30 21529 H 2004.8 -6.54117 0.496729 0
M  V30 21530 H 2004.72 -7.27224 2.06594 0
M  V30 21531 H 2005.99 -7.73438 0.970242 0
M  V30 21532 N 2010.22 -0.924476 -1.27637 0
M  V30 21533 C 2011.46 -0.563219 -1.9451 0
M  V30 21534 C 2011.79 0.894968 -1.72686 0
M  V30 21535 O 2011.05 1.65323 -1.04722 0
M  V30 21536 C 2011.35 -0.831659 -3.47589 0
M  V30 21537 C 2011.01 -2.27108 -3.89529 0
M  V30 21538 C 2009.67 -2.6646 -4.0069 0
M  V30 21539 C 2012.03 -3.20729 -4.10832 0
M  V30 21540 C 2009.35 -3.98563 -4.3054 0
M  V30 21541 C 2011.71 -4.52409 -4.42164 0
M  V30 21542 C 2010.37 -4.91599 -4.51538 0
M  V30 21543 H 2009.64 -0.206096 -0.711762 0
M  V30 21544 H 2012.29 -1.16783 -1.51769 0
M  V30 21545 H 2010.59 -0.144345 -3.91534 0
M  V30 21546 H 2012.29 -0.531162 -3.97467 0
M  V30 21547 H 2008.88 -1.95577 -3.81376 0
M  V30 21548 H 2013.06 -2.9153 -4.01652 0
M  V30 21549 H 2008.32 -4.28614 -4.36005 0
M  V30 21550 H 2012.49 -5.24957 -4.57595 0
M  V30 21551 H 2010.12 -5.93994 -4.74421 0
M  V30 21552 N 2011.69 1.41711 -0.689627 0
M  V30 21553 C 2012.92 2.05353 -0.226609 0
M  V30 21554 C 2013.33 1.51972 1.127 0
M  V30 21555 O 2012.68 0.660351 1.71421 0
M  V30 21556 C 2012.74 3.5936 -0.100309 0
M  V30 21557 C 2012.4 4.35507 -1.385 0
M  V30 21558 C 2013.4 4.65185 -2.32161 0
M  V30 21559 C 2011.08 4.74886 -1.63672 0
M  V30 21560 C 2013.08 5.33194 -3.4926 0
M  V30 21561 C 2010.76 5.42632 -2.81058 0
M  V30 21562 C 2011.76 5.71713 -3.73675 0
M  V30 21563 O 2011.45 6.38067 -4.89005 0
M  V30 21564 H 2011.18 0.667906 -0.104298 0
M  V30 21565 H 2013.74 1.82576 -0.941028 0
M  V30 21566 H 2011.97 3.80855 0.669825 0
M  V30 21567 H 2013.66 4.04599 0.324754 0
M  V30 21568 H 2014.42 4.3525 -2.13969 0
M  V30 21569 H 2010.3 4.51635 -0.924476 0
M  V30 21570 H 2013.84 5.5581 -4.2157 0
M  V30 21571 H 2009.74 5.71986 -2.99169 0
M  V30 21572 H 2010.51 6.56561 -4.88743 0
M  V30 21573 N 2013.17 0.433965 1.51507 0
M  V30 21574 C 2014.12 -0.397051 2.24516 0
M  V30 21575 C 2015.11 -0.992896 1.26611 0
M  V30 21576 O 2016.3 -0.911595 1.5172 0
M  V30 21577 C 2013.43 -1.49953 3.08819 0
M  V30 21578 C 2012.51 -0.913247 4.1415 0
M  V30 21579 N 2012.9 -0.0558268 5.05769 0
M  V30 21580 C 2011.2 -1.18118 4.30074 0
M  V30 21581 C 2011.9 0.27308 5.81059 0
M  V30 21582 N 2010.88 -0.342445 5.4252 0
M  V30 21583 H 2014.68 0.264043 2.92712 0
M  V30 21584 H 2012.2 0.245838 1.60528 0
M  V30 21585 H 2014.19 -2.1077 3.59696 0
M  V30 21586 H 2012.85 -2.163 2.42166 0
M  V30 21587 H 2013.86 0.310359 5.16969 0
M  V30 21588 H 2010.54 -1.84239 3.74649 0
M  V30 21589 H 2011.93 0.970595 6.64853 0
M  V30 21590 N 2014.65 -1.56732 0.165206 0
M  V30 21591 C 2015.89 -1.98591 -0.483841 0
M  V30 21592 C 2016.25 -1.04869 -1.6083 0
M  V30 21593 O 2017.46 -1.35844 -2.31948 0
M  V30 21594 C 2015.73 -3.44262 -0.960121 0
M  V30 21595 S 2017.29 -4.08149 -1.61121 0
M  V30 21596 H 2014.1 -0.693711 -0.155842 0
M  V30 21597 H 2016.71 -1.93747 0.261223 0
M  V30 21598 H 2015.41 -4.1019 -0.131229 0
M  V30 21599 H 2014.94 -3.52859 -1.73937 0
M  V30 21600 H 2016.96 -4.02695 -2.89915 0
M  V30 21601 N 2016.13 0.10854 -1.57226 0
M  V30 21602 C 2017.37 0.815673 -1.85673 0
M  V30 21603 C 2017.71 1.79031 -0.752441 0
M  V30 21604 O 2016.98 1.93004 0.240811 0
M  V30 21605 C 2017.27 1.55633 -3.24731 0
M  V30 21606 C 2017.12 0.600595 -4.45772 0
M  V30 21607 C 2018.44 2.51009 -3.61501 0
M  V30 21608 H 2015.56 0.295076 -0.675351 0
M  V30 21609 H 2018.2 0.079634 -1.89833 0
M  V30 21610 H 2016.35 2.18377 -3.21316 0
M  V30 21611 H 2018.02 -0.0187984 -4.61296 0
M  V30 21612 H 2016.26 -0.0870799 -4.33713 0
M  V30 21613 H 2016.93 1.15569 -5.39766 0
M  V30 21614 H 2019.41 1.98365 -3.65774 0
M  V30 21615 H 2018.29 2.99857 -4.59758 0
M  V30 21616 H 2018.55 3.34154 -2.89472 0
M  V30 21617 N 2017.61 1.52975 0.379009 0
M  V30 21618 C 2018.55 1.79115 1.48393 0
M  V30 21619 C 2019.55 0.659562 1.56032 0
M  V30 21620 O 2020.75 0.842243 1.59079 0
M  V30 21621 H 2017.13 0.566908 0.494084 0
M  V30 21622 H 2019.1 2.71624 1.23544 0
M  V30 21623 C 2017.85 1.98595 2.85404 0
M  V30 21624 H 2017.17 2.85102 2.8028 0
M  V30 21625 H 2018.61 2.2087 3.61929 0
M  V30 21626 C 2017.07 0.761257 3.28187 0
M  V30 21627 O 2017.6 -0.0565264 4.0166 0
M  V30 21628 N 2015.81 0.588515 2.84578 0
M  V30 21629 H 2015.35 1.25513 2.24954 0
M  V30 21630 H 2015.31 -0.229535 3.13561 0
M  V30 21631 N 2019.08 -0.63804 1.44107 0
M  V30 21632 C 2020.02 -1.76291 1.44903 0
M  V30 21633 C 2021 -1.59644 0.308656 0
M  V30 21634 O 2022.18 -1.81621 0.504576 0
M  V30 21635 C 2019.31 -3.13781 1.27511 0
M  V30 21636 C 2018.35 -3.49094 2.45021 0
M  V30 21637 S 2019.19 -3.47353 4.07561 0
M  V30 21638 C 2020.34 -4.87475 3.9258 0
M  V30 21639 H 2020.57 -1.75348 2.40084 0
M  V30 21640 H 2018.11 -0.812041 1.31321 0
M  V30 21641 H 2020.07 -3.93125 1.18164 0
M  V30 21642 H 2018.73 -3.1227 0.338519 0
M  V30 21643 H 2017.92 -4.49126 2.28697 0
M  V30 21644 H 2017.52 -2.77198 2.51073 0
M  V30 21645 H 2019.81 -5.76526 3.55843 0
M  V30 21646 H 2020.76 -5.08853 4.92417 0
M  V30 21647 H 2021.16 -4.61724 3.24763 0
M  V30 21648 N 2020.56 -1.3089 -0.877815 0
M  V30 21649 C 2021.79 -1.23068 -1.66319 0
M  V30 21650 C 2022.21 0.205309 -1.8768 0
M  V30 21651 O 2021.56 1.13467 -1.42939 0
M  V30 21652 C 2021.61 -1.96305 -3.03557 0
M  V30 21653 O 2021.33 -3.34298 -2.83154 0
M  V30 21654 C 2022.84 -1.95228 -3.97996 0
M  V30 21655 H 2020.06 -0.425583 -0.518768 0
M  V30 21656 H 2022.6 -1.72636 -1.09623 0
M  V30 21657 H 2020.75 -1.50518 -3.56964 0
M  V30 21658 H 2021.17 -3.71486 -3.70268 0
M  V30 21659 H 2022.64 -2.50997 -4.91635 0
M  V30 21660 H 2023.12 -0.932904 -4.29178 0
M  V30 21661 H 2023.73 -2.40858 -3.50525 0
M  V30 21662 N 2022.04 1.0911 -1.13723 0
M  V30 21663 C 2023.27 1.85108 -0.924265 0
M  V30 21664 C 2023.68 1.81295 0.527025 0
M  V30 21665 O 2023.04 1.21144 1.36493 0
M  V30 21666 C 2023.09 3.3295 -1.40807 0
M  V30 21667 O 2022.81 3.36738 -2.80249 0
M  V30 21668 C 2024.31 4.25778 -1.23401 0
M  V30 21669 H 2021.53 0.584594 -0.329379 0
M  V30 21670 H 2024.08 1.37847 -1.51058 0
M  V30 21671 H 2022.23 3.77627 -0.864679 0
M  V30 21672 H 2022.65 4.28973 -3.01799 0
M  V30 21673 H 2024.12 5.27655 -1.62123 0
M  V30 21674 H 2024.6 4.38847 -0.176058 0
M  V30 21675 H 2025.2 3.8692 -1.76559 0
M  V30 21676 N 2023.52 0.931232 1.27145 0
M  V30 21677 C 2024.77 0.572394 1.93825 0
M  V30 21678 C 2025.09 -0.88981 1.73515 0
M  V30 21679 O 2024.36 -1.63113 1.08494 0
M  V30 21680 H 2022.94 0.2087 0.717254 0
M  V30 21681 H 2025.6 1.18439 1.54784 0
M  V30 21682 H 2024.7 0.781679 3.02153 0
M  V30 21683 N 2025 -1.41343 0.697132 0
M  V30 21684 C 2025.95 -2.3259 0.0214207 0
M  V30 21685 C 2026.94 -1.51048 -0.766873 0
M  V30 21686 O 2028.15 -1.66973 -0.672319 0
M  V30 21687 H 2024.52 -0.751906 -0.0118741 0
M  V30 21688 H 2026.49 -2.87252 0.808025 0
M  V30 21689 C 2025.24 -3.35853 -0.899884 0
M  V30 21690 H 2024.56 -3.98652 -0.302721 0
M  V30 21691 H 2026 -4.02236 -1.34097 0
M  V30 21692 C 2024.46 -2.69865 -2.01679 0
M  V30 21693 O 2024.99 -2.54768 -3.10574 0
M  V30 21694 N 2023.2 -2.28536 -1.79498 0
M  V30 21695 H 2022.75 -2.41015 -0.909364 0
M  V30 21696 H 2022.7 -1.8472 -2.54413 0
M  V30 21697 N 2026.48 -0.441993 -1.51275 0
M  V30 21698 C 2027.41 0.412439 -2.24442 0
M  V30 21699 C 2028.39 1.02082 -1.26563 0
M  V30 21700 O 2029.57 1.06238 -1.5571 0
M  V30 21701 C 2026.7 1.57525 -2.99839 0
M  V30 21702 C 2025.74 1.08711 -4.12413 0
M  V30 21703 S 2026.58 0.025352 -5.35494 0
M  V30 21704 C 2027.73 1.19273 -6.14431 0
M  V30 21705 H 2027.97 -0.208728 -2.96566 0
M  V30 21706 H 2025.5 -0.226557 -1.52729 0
M  V30 21707 H 2027.46 2.24185 -3.43877 0
M  V30 21708 H 2026.12 2.16785 -2.27295 0
M  V30 21709 H 2025.31 1.95679 -4.64463 0
M  V30 21710 H 2024.91 0.498677 -3.70661 0
M  V30 21711 H 2027.2 2.11018 -6.438 0
M  V30 21712 H 2028.15 0.712094 -7.0451 0
M  V30 21713 H 2028.56 1.4334 -5.45998 0
M  V30 21714 N 2027.95 1.56642 -0.173515 0
M  V30 21715 C 2029.2 1.96949 0.470873 0
M  V30 21716 C 2029.53 1.05958 1.63105 0
M  V30 21717 O 2028.78 0.0941313 1.95473 0
M  V30 21718 C 2029.08 3.43315 0.993457 0
M  V30 21719 C 2028.75 4.50871 -0.05105 0
M  V30 21720 C 2027.41 4.80011 -0.338111 0
M  V30 21721 C 2029.76 5.1563 -0.759912 0
M  V30 21722 C 2027.09 5.71207 -1.33938 0
M  V30 21723 C 2029.44 6.07907 -1.75018 0
M  V30 21724 C 2028.11 6.35413 -2.04467 0
M  V30 21725 H 2027.38 0.720689 0.172305 0
M  V30 21726 H 2030.02 1.89644 -0.265939 0
M  V30 21727 H 2028.33 3.47583 1.80813 0
M  V30 21728 H 2030.03 3.71845 1.50108 0
M  V30 21729 H 2026.62 4.2821 0.182862 0
M  V30 21730 H 2030.8 4.93228 -0.551351 0
M  V30 21731 H 2026.06 5.908 -1.57369 0
M  V30 21732 H 2030.23 6.57154 -2.30481 0
M  V30 21733 H 2027.86 7.0588 -2.82201 0
M  V30 21734 N 2029.43 -0.1002 1.57281 0
M  V30 21735 C 2030.71 -0.836006 1.76834 0
M  V30 21736 C 2031.09 -1.9718 0.753864 0
M  V30 21737 O 2030.44 -2.27452 -0.218626 0
M  V30 21738 C 2030.65 -1.33532 3.22444 0
M  V30 21739 C 2031.99 -1.78015 3.85481 0
M  V30 21740 O 2033.02 -1.43167 3.26162 0
M  V30 21741 O 2031.88 -2.42432 4.89784 0
M  V30 21742 H 2028.97 -0.398386 0.724719 0
M  V30 21743 H 2031.52 -0.0824784 1.69499 0
M  V30 21744 H 2030.29 -0.521307 3.87812 0
M  V30 21745 H 2029.91 -2.151 3.34391 0
M  V30 21746 N 2030.91 -1.53174 -0.370891 0
M  V30 21747 C 2032.16 -1.68319 -1.11137 0
M  V30 21748 C 2032.47 -0.438743 -1.90616 0
M  V30 21749 O 2033.68 -0.470648 -2.6739 0
M  V30 21750 C 2032.13 -2.97532 -2.02491 0
M  V30 21751 C 2031.74 -4.29221 -1.28349 0
M  V30 21752 C 2033.49 -3.22045 -2.76563 0
M  V30 21753 C 2031.39 -5.49526 -2.18574 0
M  V30 21754 H 2030.32 -0.62713 -0.418597 0
M  V30 21755 H 2032.97 -1.79674 -0.372765 0
M  V30 21756 H 2031.36 -2.79967 -2.80061 0
M  V30 21757 H 2032.53 -4.57399 -0.558794 0
M  V30 21758 H 2030.84 -4.1111 -0.661614 0
M  V30 21759 H 2033.44 -4.09111 -3.44285 0
M  V30 21760 H 2033.78 -2.37881 -3.41641 0
M  V30 21761 H 2034.32 -3.40259 -2.06079 0
M  V30 21762 H 2031.06 -6.36152 -1.58083 0
M  V30 21763 H 2030.58 -5.25635 -2.88909 0
M  V30 21764 H 2032.26 -5.8411 -2.78252 0
M  V30 21765 N 2032.39 0.630389 -1.44443 0
M  V30 21766 C 2033.61 1.42206 -1.50971 0
M  V30 21767 C 2034.04 1.87609 -0.135854 0
M  V30 21768 O 2033.4 1.58782 0.8751 0
M  V30 21769 C 2033.44 2.61801 -2.47977 0
M  V30 21770 O 2032.55 3.6166 -1.98181 0
M  V30 21771 H 2031.89 0.425475 -0.509771 0
M  V30 21772 H 2034.42 0.769359 -1.89584 0
M  V30 21773 H 2034.43 3.09335 -2.66037 0
M  V30 21774 H 2033.1 2.281 -3.47769 0
M  V30 21775 H 2031.68 3.2093 -1.89891 0
M  V30 21776 N 2033.87 1.31354 0.870861 0
M  V30 21777 C 2035.14 1.11627 1.6062 0
M  V30 21778 C 2035.52 -0.329351 2.08515 0
M  V30 21779 O 2034.87 -1.3233 1.86282 0
M  V30 21780 C 2035.08 2.12968 2.76488 0
M  V30 21781 C 2036.43 2.45442 3.46473 0
M  V30 21782 O 2037.45 2.11388 2.86694 0
M  V30 21783 O 2036.31 3.03753 4.54309 0
M  V30 21784 H 2033.41 0.429682 0.706614 0
M  V30 21785 H 2035.95 1.42829 0.916402 0
M  V30 21786 H 2034.72 3.10212 2.38504 0
M  V30 21787 H 2034.35 1.82666 3.53156 0
M  V30 21788 N 2035.34 -1.08505 1.143 0
M  V30 21789 C 2036.59 -1.8114 0.911938 0
M  V30 21790 C 2036.92 -1.85946 -0.560156 0
M  V30 21791 O 2036.2 -1.33458 -1.41489 0
M  V30 21792 C 2036.48 -3.26806 1.51227 0
M  V30 21793 C 2036.33 -3.30215 3.05414 0
M  V30 21794 C 2037.65 -4.23754 1.1883 0
M  V30 21795 H 2034.77 -0.657619 0.332725 0
M  V30 21796 H 2037.41 -1.27044 1.41279 0
M  V30 21797 H 2035.56 -3.73003 1.08633 0
M  V30 21798 H 2037.24 -2.92351 3.56832 0
M  V30 21799 H 2035.48 -2.69518 3.39915 0
M  V30 21800 H 2036.15 -4.32875 3.42525 0
M  V30 21801 H 2038.63 -3.8589 1.55653 0
M  V30 21802 H 2037.5 -5.23993 1.63469 0
M  V30 21803 H 2037.76 -4.41979 0.103442 0
M  V30 21804 N 2036.82 -0.937962 -1.26649 0
M  V30 21805 C 2037.77 -0.435759 -2.28482 0
M  V30 21806 C 2038.76 0.485286 -1.623 0
M  V30 21807 O 2039.97 0.363854 -1.76284 0
M  V30 21808 H 2036.34 -0.122373 -0.741976 0
M  V30 21809 H 2038.32 -1.30722 -2.68243 0
M  V30 21810 C 2037.06 0.286679 -3.46516 0
M  V30 21811 H 2036.39 -0.412881 -3.97662 0
M  V30 21812 H 2037.83 0.602341 -4.197 0
M  V30 21813 C 2036.29 1.50334 -3.01499 0
M  V30 21814 O 2036.82 2.60176 -3.06058 0
M  V30 21815 N 2035.02 1.35877 -2.56877 0
M  V30 21816 H 2034.57 0.465092 -2.53367 0
M  V30 21817 H 2034.53 2.17403 -2.27119 0
M  V30 21818 N 2038.3 1.40971 -0.704618 0
M  V30 21819 C 2039.25 2.32576 -0.0337552 0
M  V30 21820 C 2040.24 1.51452 0.758852 0
M  V30 21821 O 2041.45 1.67327 0.663455 0
M  V30 21822 H 2037.82 0.751959 0.00788634 0
M  V30 21823 H 2039.79 2.86819 -0.823248 0
M  V30 21824 C 2038.54 3.36326 0.882061 0
M  V30 21825 H 2037.87 3.98807 0.281575 0
M  V30 21826 H 2039.31 4.02942 1.31962 0
M  V30 21827 C 2037.76 2.70931 2.00245 0
M  V30 21828 O 2038.29 2.56412 3.09218 0
M  V30 21829 N 2036.5 2.29485 1.78284 0
M  V30 21830 H 2036.05 2.41494 0.89657 0
M  V30 21831 H 2036.01 1.86067 2.5343 0
M  V30 21832 N 2039.78 0.45001 1.51039 0
M  V30 21833 C 2040.71 -0.345315 2.30933 0
M  V30 21834 C 2041.69 -1.00959 1.36899 0
M  V30 21835 O 2042.87 -1.0108 1.6582 0
M  V30 21836 C 2040 -1.43968 3.16055 0
M  V30 21837 C 2038.96 -0.898198 4.18469 0
M  V30 21838 C 2038.28 -2.08927 4.92193 0
M  V30 21839 C 2039.58 0.0760911 5.22245 0
M  V30 21840 H 2041.28 0.321441 2.97669 0
M  V30 21841 H 2038.82 0.156032 1.43152 0
M  V30 21842 H 2040.78 -2.00338 3.70732 0
M  V30 21843 H 2039.5 -2.1349 2.47163 0
M  V30 21844 H 2038.16 -0.356617 3.64861 0
M  V30 21845 H 2037.81 -2.77098 4.19792 0
M  V30 21846 H 2037.51 -1.73328 5.61454 0
M  V30 21847 H 2039.03 -2.65827 5.49698 0
M  V30 21848 H 2040.45 -0.397728 5.71919 0
M  V30 21849 H 2038.84 0.345281 5.99106 0
M  V30 21850 H 2039.91 1.00878 4.74291 0
M  V30 21851 N 2041.26 -1.56548 0.18182 0
M  V30 21852 C 2042.48 -2.02015 -0.469543 0
M  V30 21853 C 2042.91 -1.06119 -1.55307 0
M  V30 21854 O 2042.26 -0.0424595 -1.8125 0
M  V30 21855 C 2042.31 -3.46016 -1.01515 0
M  V30 21856 O 2041.42 -3.53215 -2.12869 0
M  V30 21857 H 2040.76 -0.65461 -0.111273 0
M  V30 21858 H 2043.29 -2.02552 0.288798 0
M  V30 21859 H 2043.3 -3.85537 -1.33511 0
M  V30 21860 H 2041.97 -4.15308 -0.22188 0
M  V30 21861 H 2040.55 -3.2556 -1.81838 0
M  V30 21862 N 2042.73 0.0918577 -1.57332 0
M  V30 21863 C 2044.01 0.826617 -1.77275 0
M  V30 21864 C 2044.39 1.96778 -0.764311 0
M  V30 21865 O 2043.74 2.27564 0.20656 0
M  V30 21866 C 2043.95 1.3182 -3.23148 0
M  V30 21867 C 2045.3 1.75968 -3.8642 0
M  V30 21868 O 2046.32 1.41435 -3.26917 0
M  V30 21869 O 2045.18 2.39831 -4.91063 0
M  V30 21870 H 2042.27 0.394537 -0.726821 0
M  V30 21871 H 2044.82 0.0734883 -1.69541 0
M  V30 21872 H 2043.59 0.500733 -3.88083 0
M  V30 21873 H 2043.22 2.13324 -3.35527 0
M  V30 21874 N 2044.21 1.53368 0.362763 0
M  V30 21875 C 2045.45 1.7139 1.11376 0
M  V30 21876 C 2045.82 0.457385 1.86472 0
M  V30 21877 O 2047.02 0.514341 2.63833 0
M  V30 21878 C 2045.29 2.93093 2.04527 0
M  V30 21879 S 2046.85 3.31834 2.87109 0
M  V30 21880 H 2043.67 0.603054 0.376626 0
M  V30 21881 H 2046.27 1.91475 0.394647 0
M  V30 21882 H 2044.97 3.82737 1.48125 0
M  V30 21883 H 2044.5 2.75418 2.80906 0
M  V30 21884 H 2046.52 2.84067 4.06842 0
M  V30 21885 N 2045.69 -0.62272 1.44776 0
M  V30 21886 C 2046.62 -1.74771 1.48283 0
M  V30 21887 C 2047.64 -1.58416 0.375253 0
M  V30 21888 O 2048.82 -1.66575 0.641472 0
M  V30 21889 C 2045.92 -3.12596 1.30909 0
M  V30 21890 C 2045.1 -3.55331 2.55066 0
M  V30 21891 C 2044.16 -4.72064 2.32469 0
M  V30 21892 O 2043.18 -4.79949 3.06003 0
M  V30 21893 N 2044.38 -5.64329 1.36063 0
M  V30 21894 H 2047.15 -1.7223 2.45269 0
M  V30 21895 H 2044.71 -0.807546 1.40322 0
M  V30 21896 H 2046.7 -3.88422 1.13625 0
M  V30 21897 H 2045.27 -3.09731 0.422559 0
M  V30 21898 H 2044.49 -2.69625 2.87569 0
M  V30 21899 H 2045.78 -3.80637 3.37628 0
M  V30 21900 H 2045.18 -5.6066 0.753476 0
M  V30 21901 H 2043.74 -6.39749 1.24756 0
M  V30 21902 N 2047.17 -1.31814 -0.863883 0
M  V30 21903 C 2048.13 -1.19926 -1.95321 0
M  V30 21904 C 2049.13 -0.124731 -1.60316 0
M  V30 21905 O 2050.32 -0.374454 -1.70128 0
M  V30 21906 C 2047.45 -0.842234 -3.30332 0
M  V30 21907 H 2048.65 -2.16727 -2.07291 0
M  V30 21908 H 2046.2 -1.15512 -1.05293 0
M  V30 21909 H 2046.93 0.124348 -3.24062 0
M  V30 21910 H 2046.72 -1.61902 -3.57114 0
M  V30 21911 H 2048.21 -0.783125 -4.10191 0
M  V30 21912 N 2048.65 1.07897 -1.14873 0
M  V30 21913 C 2049.58 2.16955 -0.863287 0
M  V30 21914 C 2050.56 1.69103 0.183853 0
M  V30 21915 O 2051.74 1.9416 0.0394136 0
M  V30 21916 C 2048.87 3.45575 -0.345696 0
M  V30 21917 C 2047.83 4.06847 -1.32888 0
M  V30 21918 C 2047.15 5.30481 -0.670367 0
M  V30 21919 C 2048.45 4.47523 -2.69296 0
M  V30 21920 H 2050.15 2.41091 -1.77526 0
M  V30 21921 H 2047.69 1.1587 -0.854991 0
M  V30 21922 H 2049.65 4.21188 -0.133575 0
M  V30 21923 H 2048.37 3.21009 0.601722 0
M  V30 21924 H 2047.03 3.33272 -1.52726 0
M  V30 21925 H 2046.68 5.02203 0.283023 0
M  V30 21926 H 2046.38 5.72433 -1.32645 0
M  V30 21927 H 2047.9 6.08805 -0.467891 0
M  V30 21928 H 2049.31 5.1429 -2.53335 0
M  V30 21929 H 2047.71 5.00409 -3.31226 0
M  V30 21930 H 2048.78 3.59159 -3.2578 0
M  V30 21931 N 2050.12 0.944665 1.2615 0
M  V30 21932 C 2051.37 0.592919 1.93207 0
M  V30 21933 C 2051.69 -0.871356 1.74449 0
M  V30 21934 O 2050.96 -1.61953 1.10218 0
M  V30 21935 H 2049.54 0.216296 0.715 0
M  V30 21936 H 2052.21 1.20074 1.53519 0
M  V30 21937 H 2051.3 0.813682 3.01307 0
M  V30 21938 N 2051.6 -1.40596 0.712085 0
M  V30 21939 C 2052.55 -2.30729 0.0572693 0
M  V30 21940 C 2053.52 -1.48 -0.753997 0
M  V30 21941 O 2054.7 -1.76748 -0.71866 0
M  V30 21942 C 2051.84 -3.34184 -0.861092 0
M  V30 21943 C 2050.96 -4.31982 -0.0396747 0
M  V30 21944 C 2050.09 -5.22505 -0.957193 0
M  V30 21945 C 2049.13 -6.11963 -0.129658 0
M  V30 21946 N 2048.27 -6.94915 -1.00186 0
M  V30 21947 H 2053.11 -2.86161 0.831601 0
M  V30 21948 H 2050.65 -1.40923 0.421786 0
M  V30 21949 H 2052.6 -3.92732 -1.40775 0
M  V30 21950 H 2051.23 -2.80263 -1.60164 0
M  V30 21951 H 2050.29 -3.75245 0.624125 0
M  V30 21952 H 2051.6 -4.95164 0.601165 0
M  V30 21953 H 2050.75 -5.85967 -1.57251 0
M  V30 21954 H 2049.49 -4.59589 -1.63186 0
M  V30 21955 H 2048.5 -5.47534 0.49862 0
M  V30 21956 H 2049.72 -6.76938 0.541455 0
M  V30 21957 H 2047.67 -6.34591 -1.66225 0
M  V30 21958 H 2047.58 -7.54849 -0.41698 0
M  V30 21959 H 2048.85 -7.6283 -1.60347 0
M  V30 21960 N 2053.08 -0.458013 -1.50798 0
M  V30 21961 C 2054.01 0.379016 -2.26044 0
M  V30 21962 C 2055.03 0.96848 -1.3086 0
M  V30 21963 O 2056.21 0.859106 -1.56466 0
M  V30 21964 C 2053.31 1.54427 -3.01671 0
M  V30 21965 C 2052.49 1.06997 -4.24111 0
M  V30 21966 C 2051.55 2.10775 -4.82142 0
M  V30 21967 O 2050.57 1.69367 -5.43418 0
M  V30 21968 N 2051.77 3.43464 -4.67988 0
M  V30 21969 H 2054.54 -0.266 -2.98517 0
M  V30 21970 H 2052.1 -0.288052 -1.59317 0
M  V30 21971 H 2054.09 2.23518 -3.37375 0
M  V30 21972 H 2052.66 2.09423 -2.32079 0
M  V30 21973 H 2051.88 0.205395 -3.93665 0
M  V30 21974 H 2053.17 0.730786 -5.03525 0
M  V30 21975 H 2052.57 3.79824 -4.19226 0
M  V30 21976 H 2051.13 4.0839 -5.07997 0
M  V30 21977 N 2054.56 1.56449 -0.190119 0
M  V30 21978 C 2055.52 2.17632 0.718966 0
M  V30 21979 C 2056.52 1.12941 1.14459 0
M  V30 21980 O 2057.71 1.38353 1.05849 0
M  V30 21981 C 2054.84 2.77437 1.98095 0
M  V30 21982 H 2056.04 2.99322 0.186033 0
M  V30 21983 H 2053.59 1.56187 0.0594913 0
M  V30 21984 H 2054.33 1.99531 2.55652 0
M  V30 21985 H 2054.11 3.5407 1.68454 0
M  V30 21986 H 2055.6 3.24433 2.62932 0
M  V30 21987 N 2056.04 -0.0835127 1.57379 0
M  V30 21988 C 2057.45 -0.438018 1.53472 0
M  V30 21989 C 2057.65 -1.79853 0.908578 0
M  V30 21990 O 2056.71 -2.47377 0.506047 0
M  V30 21991 C 2058.02 -0.389855 2.98162 0
M  V30 21992 C 2059.57 -0.470883 3.09438 0
M  V30 21993 C 2060.05 -0.452749 4.55757 0
M  V30 21994 N 2061.54 -0.513166 4.60349 0
M  V30 21995 C 2062.27 -0.52116 5.71027 0
M  V30 21996 N 2061.77 -0.484668 6.91103 0
M  V30 21997 N 2063.56 -0.566841 5.59235 0
M  V30 21998 H 2055.71 0.807491 1.96452 0
M  V30 21999 H 2057.97 0.301793 0.89868 0
M  V30 22000 H 2057.68 0.542902 3.47484 0
M  V30 22001 H 2057.55 -1.20449 3.57452 0
M  V30 22002 H 2059.94 -1.39406 2.60096 0
M  V30 22003 H 2060.02 0.372104 2.53079 0
M  V30 22004 H 2059.67 0.466533 5.05753 0
M  V30 22005 H 2059.6 -1.31311 5.09966 0
M  V30 22006 H 2062.09 -0.546093 3.73933 0
M  V30 22007 H 2062.4 -0.494371 7.71217 0
M  V30 22008 H 2060.75 -0.451537 6.93532 0
M  V30 22009 H 2063.94 -0.59296 4.64329 0
M  V30 22010 H 2064.11 -0.569602 6.45492 0
M  V30 22011 N 2057.52 -1.53558 -0.354624 0
M  V30 22012 C 2058.76 -1.71466 -1.09411 0
M  V30 22013 C 2059.12 -0.466375 -1.86662 0
M  V30 22014 O 2058.41 0.540835 -1.83808 0
M  V30 22015 C 2058.6 -2.91096 -2.07359 0
M  V30 22016 C 2058.43 -4.27439 -1.39734 0
M  V30 22017 C 2057.2 -4.92113 -1.14685 0
M  V30 22018 C 2059.4 -5.0757 -0.829317 0
M  V30 22019 N 2057.38 -6.12355 -0.43525 0
M  V30 22020 C 2058.75 -6.19505 -0.247678 0
M  V30 22021 C 2060.81 -4.92533 -0.729077 0
M  V30 22022 C 2059.51 -7.18047 0.424437 0
M  V30 22023 C 2061.54 -5.91358 -0.0707225 0
M  V30 22024 C 2060.9 -7.02623 0.499994 0
M  V30 22025 H 2057 -0.680585 -0.385134 0
M  V30 22026 H 2059.58 -1.90974 -0.379095 0
M  V30 22027 H 2057.75 -2.73109 -2.76163 0
M  V30 22028 H 2059.49 -2.97776 -2.74065 0
M  V30 22029 H 2056.24 -4.51462 -1.43103 0
M  V30 22030 H 2056.66 -6.76934 -0.0944978 0
M  V30 22031 H 2061.31 -4.06688 -1.15607 0
M  V30 22032 H 2059.02 -8.03475 0.863349 0
M  V30 22033 H 2062.61 -5.818 0.00605785 0
M  V30 22034 H 2061.49 -7.7778 1.00136 0
M  V30 22035 N 2058.99 0.615033 -1.45104 0
M  V30 22036 C 2059.94 1.72617 -1.53206 0
M  V30 22037 C 2060.91 1.6173 -0.378499 0
M  V30 22038 O 2062.1 1.81418 -0.590937 0
M  V30 22039 C 2059.24 3.1091 -1.49763 0
M  V30 22040 C 2058.35 3.32657 -2.75615 0
M  V30 22041 C 2057.48 4.61014 -2.63894 0
M  V30 22042 C 2056.52 4.75993 -3.84834 0
M  V30 22043 N 2055.66 5.95642 -3.71692 0
M  V30 22044 H 2060.5 1.65028 -2.48133 0
M  V30 22045 H 2058.04 0.804792 -1.23132 0
M  V30 22046 H 2059.99 3.90911 -1.45755 0
M  V30 22047 H 2058.62 3.17475 -0.583921 0
M  V30 22048 H 2057.68 2.46484 -2.89741 0
M  V30 22049 H 2058.99 3.39601 -3.65339 0
M  V30 22050 H 2058.14 5.49198 -2.5781 0
M  V30 22051 H 2056.88 4.56455 -1.71756 0
M  V30 22052 H 2055.89 3.86234 -3.91284 0
M  V30 22053 H 2057.11 4.82354 -4.78028 0
M  V30 22054 H 2055.06 5.92143 -2.82318 0
M  V30 22055 H 2054.97 6.03713 -4.55046 0
M  V30 22056 H 2056.24 6.86345 -3.69528 0
M  V30 22057 N 2060.47 1.3227 0.85688 0
M  V30 22058 C 2061.42 1.20972 1.98667 0
M  V30 22059 C 2062.41 0.115019 1.69009 0
M  V30 22060 O 2063.62 0.277796 1.77843 0
M  V30 22061 H 2059.99 0.374926 0.65187 0
M  V30 22062 H 2061.97 2.16528 2.05324 0
M  V30 22063 C 2060.71 0.947348 3.34545 0
M  V30 22064 H 2060.04 1.78189 3.57895 0
M  V30 22065 H 2061.48 0.908529 4.14152 0
M  V30 22066 C 2059.94 -0.349912 3.35078 0
M  V30 22067 O 2060.47 -1.3625 3.77887 0
M  V30 22068 N 2058.67 -0.371097 2.88221 0
M  V30 22069 H 2058.22 0.453449 2.53578 0
M  V30 22070 H 2058.18 -1.23894 2.8896 0
M  V30 22071 N 2061.95 -1.07287 1.15444 0
M  V30 22072 C 2063.2 -1.80162 0.931099 0
M  V30 22073 C 2063.53 -1.8653 -0.540402 0
M  V30 22074 O 2062.8 -1.34951 -1.40066 0
M  V30 22075 C 2063.09 -3.25184 1.54685 0
M  V30 22076 C 2062.94 -3.26957 3.089 0
M  V30 22077 C 2064.26 -4.2247 1.23318 0
M  V30 22078 H 2061.38 -0.654053 0.339682 0
M  V30 22079 H 2064.02 -1.25539 1.42619 0
M  V30 22080 H 2062.17 -3.7183 1.12583 0
M  V30 22081 H 2063.84 -2.88549 3.59912 0
M  V30 22082 H 2062.08 -2.65898 3.42755 0
M  V30 22083 H 2062.76 -4.29218 3.47097 0
M  V30 22084 H 2065.23 -3.84218 1.59737 0
M  V30 22085 H 2064.11 -5.2223 1.69018 0
M  V30 22086 H 2064.37 -4.41844 0.150314 0
M  V30 22087 N 2063.43 -0.951342 -1.25647 0
M  V30 22088 C 2064.37 -0.467715 -2.26011 0
M  V30 22089 C 2065.34 0.478049 -1.59072 0
M  V30 22090 O 2066.53 0.392024 -1.86729 0
M  V30 22091 C 2063.67 0.251483 -3.44182 0
M  V30 22092 C 2062.78 -0.731135 -4.25768 0
M  V30 22093 C 2061.92 0.0102901 -5.31199 0
M  V30 22094 C 2060.96 -0.963479 -6.0447 0
M  V30 22095 N 2060.09 -0.253142 -7.01643 0
M  V30 22096 H 2064.93 -1.32847 -2.6675 0
M  V30 22097 H 2062.47 -0.666278 -1.31146 0
M  V30 22098 H 2064.43 0.685002 -4.11538 0
M  V30 22099 H 2063.06 1.07631 -3.04328 0
M  V30 22100 H 2062.11 -1.28314 -3.58106 0
M  V30 22101 H 2063.42 -1.47435 -4.76513 0
M  V30 22102 H 2062.58 0.502603 -6.04615 0
M  V30 22103 H 2061.32 0.78632 -4.81319 0
M  V30 22104 H 2060.32 -1.46682 -5.29872 0
M  V30 22105 H 2061.55 -1.73968 -6.56439 0
M  V30 22106 H 2059.49 0.50421 -6.54059 0
M  V30 22107 H 2059.41 -0.935511 -7.50189 0
M  V30 22108 H 2060.68 0.217742 -7.79196 0
M  V30 22109 N 2064.91 1.40216 -0.719531 0
M  V30 22110 C 2066.15 2.01112 -0.261127 0
M  V30 22111 C 2066.48 1.56933 1.14393 0
M  V30 22112 O 2065.76 0.791168 1.77682 0
M  V30 22113 C 2066.04 3.58438 -0.345592 0
M  V30 22114 C 2065.9 4.12679 -1.78931 0
M  V30 22115 C 2067.21 4.39202 0.280948 0
M  V30 22116 H 2064.33 0.730674 -0.0963582 0
M  V30 22117 H 2066.98 1.66639 -0.912774 0
M  V30 22118 H 2065.13 3.87936 0.209226 0
M  V30 22119 H 2066.8 3.93963 -2.39982 0
M  V30 22120 H 2065.04 3.66819 -2.31574 0
M  V30 22121 H 2065.71 5.21835 -1.79978 0
M  V30 22122 H 2068.19 4.15658 -0.191834 0
M  V30 22123 H 2067.06 5.48566 0.191422 0
M  V30 22124 H 2067.32 4.205 1.36499 0
M  V30 22125 N 2066.38 0.466004 1.50553 0
M  V30 22126 C 2067.33 -0.344889 2.30029 0
M  V30 22127 C 2068.33 -0.995031 1.37097 0
M  V30 22128 O 2069.53 -0.926717 1.54311 0
M  V30 22129 H 2065.91 -0.130059 0.740668 0
M  V30 22130 H 2067.88 0.345888 2.96389 0
M  V30 22131 C 2066.63 -1.41723 3.17506 0
M  V30 22132 H 2065.95 -0.926335 3.8892 0
M  V30 22133 H 2067.39 -1.95728 3.7612 0
M  V30 22134 C 2065.85 -2.41636 2.34763 0
M  V30 22135 O 2066.38 -3.46798 2.02716 0
M  V30 22136 N 2064.58 -2.13228 1.97439 0
M  V30 22137 H 2064.13 -1.27733 2.23701 0
M  V30 22138 H 2064.09 -2.80313 1.4238 0
M  V30 22139 N 2067.86 -1.56346 0.198413 0
M  V30 22140 C 2069.11 -1.97674 -0.43948 0
M  V30 22141 C 2069.44 -1.0854 -1.61398 0
M  V30 22142 O 2068.69 -0.125218 -1.95299 0
M  V30 22143 C 2068.99 -3.44852 -0.938713 0
M  V30 22144 C 2068.66 -4.50733 0.122773 0
M  V30 22145 C 2067.32 -4.79412 0.414434 0
M  V30 22146 C 2069.67 -5.14356 0.841848 0
M  V30 22147 C 2067 -5.69004 1.43009 0
M  V30 22148 C 2069.35 -6.05046 1.84667 0
M  V30 22149 C 2068.01 -6.3208 2.1455 0
M  V30 22150 H 2067.28 -0.723339 -0.160817 0
M  V30 22151 H 2069.93 -1.89197 0.296077 0
M  V30 22152 H 2068.24 -3.50415 -1.75261 0
M  V30 22153 H 2069.93 -3.74186 -1.44173 0
M  V30 22154 H 2066.52 -4.28446 -0.114715 0
M  V30 22155 H 2070.71 -4.92288 0.629749 0
M  V30 22156 H 2065.96 -5.88222 1.66749 0
M  V30 22157 H 2070.14 -6.53404 2.40907 0
M  V30 22158 H 2067.76 -7.01301 2.93395 0
M  V30 22159 N 2069.34 0.0751653 -1.57421 0
M  V30 22160 C 2070.62 0.807768 -1.78142 0
M  V30 22161 C 2071 1.95956 -0.785139 0
M  V30 22162 O 2070.35 2.27771 0.182413 0
M  V30 22163 C 2070.56 1.28385 -3.24528 0
M  V30 22164 C 2071.9 1.71859 -3.88265 0
M  V30 22165 O 2072.93 1.3796 -3.28398 0
M  V30 22166 O 2071.79 2.3461 -4.93579 0
M  V30 22167 H 2068.88 0.386806 -0.730965 0
M  V30 22168 H 2071.43 0.0555021 -1.69609 0
M  V30 22169 H 2070.2 0.459543 -3.88592 0
M  V30 22170 H 2069.82 2.09753 -3.37771 0
M  V30 22171 N 2070.82 1.53744 0.346476 0
M  V30 22172 C 2071.77 1.82222 1.44561 0
M  V30 22173 C 2072.76 0.69251 1.54598 0
M  V30 22174 O 2073.97 0.875797 1.57257 0
M  V30 22175 H 2070.34 0.577261 0.481948 0
M  V30 22176 H 2072.31 2.74183 1.17755 0
M  V30 22177 C 2071.06 2.04604 2.81127 0
M  V30 22178 H 2070.38 2.90983 2.74169 0
M  V30 22179 H 2071.82 2.28497 3.57162 0
M  V30 22180 C 2070.28 0.830699 3.26498 0
M  V30 22181 O 2070.81 0.0286844 4.0169 0
M  V30 22182 N 2069.02 0.648746 2.83266 0
M  V30 22183 H 2068.57 1.30257 2.22241 0
M  V30 22184 H 2068.52 -0.162972 3.13977 0
M  V30 22185 N 2072.3 -0.607329 1.45428 0
M  V30 22186 C 2073.54 -1.36835 1.49679 0
M  V30 22187 C 2073.88 -1.93708 0.138148 0
M  V30 22188 O 2073.15 -1.75069 -0.847414 0
M  V30 22189 C 2073.43 -2.51607 2.57616 0
M  V30 22190 C 2073.29 -1.99929 4.02925 0
M  V30 22191 C 2074.61 -3.53738 2.61835 0
M  V30 22192 H 2071.72 -0.496187 0.544947 0
M  V30 22193 H 2074.37 -0.684587 1.77238 0
M  V30 22194 H 2072.52 -3.09936 2.34247 0
M  V30 22195 H 2074.19 -1.46247 4.37504 0
M  V30 22196 H 2072.43 -1.30929 4.1357 0
M  V30 22197 H 2073.1 -2.82666 4.74135 0
M  V30 22198 H 2075.58 -3.0525 2.82775 0
M  V30 22199 H 2074.45 -4.31533 3.39221 0
M  V30 22200 H 2074.72 -4.09372 1.66935 0
M  V30 22201 N 2073.77 -1.32722 -0.849853 0
M  V30 22202 C 2075.02 -1.23312 -1.60121 0
M  V30 22203 C 2075.34 0.203882 -1.93931 0
M  V30 22204 O 2074.61 1.12986 -1.60035 0
M  V30 22205 H 2073.19 -0.453413 -0.593654 0
M  V30 22206 H 2075.86 -1.66305 -1.0163 0
M  V30 22207 H 2074.95 -1.81913 -2.53602 0
M  V30 22208 N 2075.25 1.06673 -1.16011 0
M  V30 22209 C 2076.22 2.12223 -0.865686 0
M  V30 22210 C 2077.22 1.6021 0.137621 0
M  V30 22211 O 2078.41 1.73953 -0.0928217 0
M  V30 22212 C 2075.54 3.39631 -0.293865 0
M  V30 22213 H 2076.73 2.39774 -1.80134 0
M  V30 22214 H 2074.28 1.22675 -0.968529 0
M  V30 22215 H 2075.02 3.17726 0.649656 0
M  V30 22216 H 2074.8 3.78688 -1.01676 0
M  V30 22217 H 2076.29 4.17466 -0.105682 0
M  V30 22218 N 2076.73 0.957992 1.25141 0
M  V30 22219 C 2077.98 0.613378 1.92567 0
M  V30 22220 C 2078.3 -0.852805 1.75363 0
M  V30 22221 O 2077.57 -1.60775 1.11929 0
M  V30 22222 H 2076.15 0.223867 0.712666 0
M  V30 22223 H 2078.81 1.21696 1.52237 0
M  V30 22224 H 2077.91 0.845594 3.00427 0
M  V30 22225 N 2078.21 -1.39832 0.726957 0
M  V30 22226 C 2079.44 -2.0468 0.280975 0
M  V30 22227 C 2079.85 -1.54906 -1.08631 0
M  V30 22228 O 2079.19 -0.705568 -1.6961 0
M  V30 22229 C 2079.25 -3.58968 0.195552 0
M  V30 22230 C 2078.92 -4.31682 1.49998 0
M  V30 22231 C 2079.91 -4.58866 2.44413 0
M  V30 22232 C 2077.6 -4.7038 1.76206 0
M  V30 22233 C 2079.59 -5.23747 3.63274 0
M  V30 22234 C 2077.28 -5.3499 2.95346 0
M  V30 22235 C 2078.28 -5.61605 3.88702 0
M  V30 22236 O 2077.96 -6.24877 5.05751 0
M  V30 22237 H 2077.7 -0.664906 0.12197 0
M  V30 22238 H 2080.25 -1.80016 0.989104 0
M  V30 22239 H 2078.48 -3.82497 -0.568613 0
M  V30 22240 H 2080.17 -4.05318 -0.217367 0
M  V30 22241 H 2080.94 -4.29424 2.25434 0
M  V30 22242 H 2076.81 -4.49025 1.04389 0
M  V30 22243 H 2080.36 -5.44437 4.36158 0
M  V30 22244 H 2076.26 -5.63853 3.14229 0
M  V30 22245 H 2077.02 -6.43372 5.05979 0
M  V30 22246 N 2079.69 -0.473982 -1.50304 0
M  V30 22247 C 2080.62 0.308532 -2.31453 0
M  V30 22248 C 2081.6 0.987678 -1.38488 0
M  V30 22249 O 2082.78 0.984294 -1.67408 0
M  V30 22250 C 2079.91 1.38921 -3.18305 0
M  V30 22251 C 2078.87 0.831509 -4.19845 0
M  V30 22252 C 2078.19 2.0107 -4.95454 0
M  V30 22253 C 2079.49 -0.159166 -5.22057 0
M  V30 22254 H 2081.19 -0.368757 -2.9712 0
M  V30 22255 H 2078.73 -0.178787 -1.42886 0
M  V30 22256 H 2080.69 1.94415 -3.73873 0
M  V30 22257 H 2079.41 2.09531 -2.50528 0
M  V30 22258 H 2078.07 0.298526 -3.65383 0
M  V30 22259 H 2077.72 2.70384 -4.24148 0
M  V30 22260 H 2077.42 1.64374 -5.64141 0
M  V30 22261 H 2078.94 2.57048 -5.53858 0
M  V30 22262 H 2080.35 0.306691 -5.72479 0
M  V30 22263 H 2078.75 -0.440549 -5.98481 0
M  V30 22264 H 2079.82 -1.08411 -4.72626 0
M  V30 22265 N 2081.16 1.56239 -0.206702 0
M  V30 22266 C 2082.13 2.18382 0.695843 0
M  V30 22267 C 2083.13 1.14149 1.13255 0
M  V30 22268 O 2084.32 1.39468 1.04376 0
M  V30 22269 C 2081.45 2.79522 1.95141 0
M  V30 22270 H 2082.64 2.99503 0.154275 0
M  V30 22271 H 2080.2 1.56241 0.0429222 0
M  V30 22272 H 2080.93 2.02231 2.53521 0
M  V30 22273 H 2080.72 3.55837 1.64689 0
M  V30 22274 H 2082.21 3.27203 2.59476 0
M  V30 22275 N 2082.64 -0.0668159 1.57458 0
M  V30 22276 C 2083.57 -1.0791 2.07069 0
M  V30 22277 C 2084.55 -1.40063 0.965207 0
M  V30 22278 O 2085.74 -1.49604 1.23823 0
M  V30 22279 C 2082.87 -2.39113 2.51877 0
M  V30 22280 C 2081.82 -2.213 3.66347 0
M  V30 22281 C 2081.15 -3.57931 3.97227 0
M  V30 22282 C 2082.45 -1.63013 4.9621 0
M  V30 22283 H 2084.14 -0.666254 2.91893 0
M  V30 22284 H 2081.69 -0.319039 1.40421 0
M  V30 22285 H 2083.64 -3.10226 2.85198 0
M  V30 22286 H 2082.37 -2.82387 1.64088 0
M  V30 22287 H 2081.02 -1.52628 3.33317 0
M  V30 22288 H 2080.67 -3.98784 3.06562 0
M  V30 22289 H 2080.37 -3.4685 4.74309 0
M  V30 22290 H 2081.9 -4.30467 4.33048 0
M  V30 22291 H 2083.31 -2.23997 5.27729 0
M  V30 22292 H 2081.71 -1.62614 5.77648 0
M  V30 22293 H 2082.78 -0.592078 4.81272 0
M  V30 22294 N 2084.12 -1.53926 -0.338317 0
M  V30 22295 C 2085.05 -1.85269 -1.42119 0
M  V30 22296 C 2086.03 -0.708238 -1.54654 0
M  V30 22297 O 2087.22 -0.960631 -1.68777 0
M  V30 22298 C 2084.35 -2.06693 -2.79097 0
M  V30 22299 C 2083.3 -3.22519 -2.81364 0
M  V30 22300 C 2082.63 -3.29286 -4.21277 0
M  V30 22301 C 2083.93 -4.6051 -2.46431 0
M  V30 22302 H 2085.62 -2.75957 -1.16137 0
M  V30 22303 H 2083.17 -1.32781 -0.557249 0
M  V30 22304 H 2085.12 -2.27204 -3.54903 0
M  V30 22305 H 2083.84 -1.1274 -3.06524 0
M  V30 22306 H 2082.5 -3.01872 -2.08011 0
M  V30 22307 H 2082.15 -2.32919 -4.45823 0
M  V30 22308 H 2081.85 -4.07123 -4.23704 0
M  V30 22309 H 2083.38 -3.52014 -4.98918 0
M  V30 22310 H 2084.79 -4.80999 -3.1195 0
M  V30 22311 H 2083.19 -5.40788 -2.60132 0
M  V30 22312 H 2084.26 -4.63762 -1.41607 0
M  V30 22313 N 2085.6 0.599608 -1.45748 0
M  V30 22314 C 2086.53 1.72389 -1.51045 0
M  V30 22315 C 2087.54 1.57799 -0.400408 0
M  V30 22316 O 2088.73 1.65534 -0.667891 0
M  V30 22317 C 2085.83 3.10473 -1.35865 0
M  V30 22318 C 2085.01 3.51228 -2.60687 0
M  V30 22319 C 2084.07 4.68306 -2.39949 0
M  V30 22320 O 2083.09 4.7502 -3.136 0
M  V30 22321 N 2084.29 5.62093 -1.45024 0
M  V30 22322 H 2087.06 1.68306 -2.47978 0
M  V30 22323 H 2084.62 0.78512 -1.41589 0
M  V30 22324 H 2086.61 3.86565 -1.1979 0
M  V30 22325 H 2085.18 3.09019 -0.471781 0
M  V30 22326 H 2084.4 2.65016 -2.91822 0
M  V30 22327 H 2085.69 3.75218 -3.43641 0
M  V30 22328 H 2085.09 5.5939 -0.842577 0
M  V30 22329 H 2083.64 6.37684 -1.34918 0
M  V30 22330 N 2087.08 1.33171 0.842803 0
M  V30 22331 C 2088.32 1.24589 1.60017 0
M  V30 22332 C 2088.66 -0.188935 1.93279 0
M  V30 22333 O 2087.93 -1.12923 1.58362 0
M  V30 22334 C 2088.21 2.11731 2.91277 0
M  V30 22335 C 2088.07 3.63652 2.64721 0
M  V30 22336 C 2089.39 1.98749 3.92666 0
M  V30 22337 H 2086.51 0.453935 0.580613 0
M  V30 22338 H 2089.15 1.63234 0.972356 0
M  V30 22339 H 2087.3 1.78904 3.44856 0
M  V30 22340 H 2088.97 4.06751 2.17604 0
M  V30 22341 H 2087.21 3.85728 1.98486 0
M  V30 22342 H 2087.88 4.19966 3.58236 0
M  V30 22343 H 2090.36 2.2753 3.48381 0
M  V30 22344 H 2089.24 2.61979 4.82347 0
M  V30 22345 H 2089.5 0.958565 4.31583 0
M  V30 22346 N 2088.56 -1.06056 1.16576 0
M  V30 22347 C 2089.52 -2.11761 0.876928 0
M  V30 22348 C 2090.52 -1.60281 -0.129123 0
M  V30 22349 O 2091.71 -1.73901 0.102046 0
M  V30 22350 C 2088.84 -3.3947 0.311872 0
M  V30 22351 H 2090.03 -2.38816 1.81403 0
M  V30 22352 H 2087.59 -1.2216 0.975021 0
M  V30 22353 H 2088.32 -3.18066 -0.632797 0
M  V30 22354 H 2088.11 -3.78143 1.03683 0
M  V30 22355 H 2089.6 -4.17404 0.12782 0
M  V30 22356 N 2090.03 -0.964615 -1.24631 0
M  V30 22357 C 2091.26 -0.642327 -1.96677 0
M  V30 22358 C 2091.68 0.787619 -1.71587 0
M  V30 22359 O 2091.03 1.52808 -0.9978 0
M  V30 22360 C 2091.08 -0.903712 -3.50022 0
M  V30 22361 O 2090.81 -2.27744 -3.74252 0
M  V30 22362 C 2092.31 -0.595187 -4.39286 0
M  V30 22363 H 2089.53 -0.239932 -0.626637 0
M  V30 22364 H 2092.07 -1.29171 -1.58541 0
M  V30 22365 H 2090.23 -0.300589 -3.86232 0
M  V30 22366 H 2090.64 -2.35512 -4.68652 0
M  V30 22367 H 2092.11 -0.828552 -5.45746 0
M  V30 22368 H 2092.59 0.470491 -4.36673 0
M  V30 22369 H 2093.2 -1.17808 -4.08658 0
M  V30 22370 N 2091.51 1.39445 -0.734362 0
M  V30 22371 C 2092.76 2.00526 -0.282025 0
M  V30 22372 C 2093.09 1.58268 1.13055 0
M  V30 22373 O 2092.34 0.802491 1.7849 0
M  V30 22374 C 2092.64 3.55865 -0.330927 0
M  V30 22375 C 2092.31 4.1777 -1.69643 0
M  V30 22376 C 2090.97 4.34393 -2.07017 0
M  V30 22377 C 2093.32 4.52119 -2.59302 0
M  V30 22378 C 2090.65 4.82653 -3.3356 0
M  V30 22379 C 2093 5.01788 -3.85217 0
M  V30 22380 C 2091.66 5.16618 -4.22684 0
M  V30 22381 H 2090.93 0.733778 -0.1032 0
M  V30 22382 H 2093.58 1.66781 -0.94108 0
M  V30 22383 H 2091.89 3.89631 0.411703 0
M  V30 22384 H 2093.58 4.00983 0.0371893 0
M  V30 22385 H 2090.17 4.05233 -1.39584 0
M  V30 22386 H 2094.36 4.38896 -2.31698 0
M  V30 22387 H 2089.61 4.9232 -3.62534 0
M  V30 22388 H 2093.79 5.27339 -4.54848 0
M  V30 22389 H 2091.41 5.53775 -5.20805 0
M  V30 22390 N 2092.99 0.481946 1.5005 0
M  V30 22391 C 2093.94 -0.306558 2.28755 0
M  V30 22392 C 2094.91 -0.97752 1.3429 0
M  V30 22393 O 2096.09 -0.987865 1.63236 0
M  V30 22394 C 2093.23 -1.37629 3.16468 0
M  V30 22395 C 2092.34 -0.71902 4.25974 0
M  V30 22396 C 2091.48 -1.76757 5.0093 0
M  V30 22397 C 2090.52 -1.09113 6.02296 0
M  V30 22398 N 2089.66 -2.08302 6.70489 0
M  V30 22399 H 2094.5 0.370886 2.95683 0
M  V30 22400 H 2092.03 0.194749 1.45805 0
M  V30 22401 H 2093.99 -2.00828 3.65683 0
M  V30 22402 H 2092.62 -2.02275 2.51564 0
M  V30 22403 H 2091.67 0.0257987 3.80391 0
M  V30 22404 H 2092.98 -0.1856 4.98455 0
M  V30 22405 H 2092.14 -2.47509 5.53917 0
M  V30 22406 H 2090.88 -2.33481 4.2818 0
M  V30 22407 H 2089.88 -0.369286 5.48558 0
M  V30 22408 H 2091.11 -0.530637 6.77024 0
M  V30 22409 H 2089.05 -2.64023 6.00523 0
M  V30 22410 H 2088.97 -1.59974 7.3888 0
M  V30 22411 H 2090.24 -2.78401 7.28089 0
M  V30 22412 N 2094.47 -1.56127 0.214985 0
M  V30 22413 C 2095.72 -1.97737 -0.417663 0
M  V30 22414 C 2096.04 -1.10368 -1.6076 0
M  V30 22415 O 2095.31 -0.179261 -1.95078 0
M  V30 22416 H 2093.89 -0.730251 -0.157298 0
M  V30 22417 H 2096.55 -1.92477 0.306351 0
M  V30 22418 H 2095.64 -3.02994 -0.748421 0
M  V30 22419 N 2095.95 0.0584645 -1.57492 0
M  V30 22420 C 2097.19 0.750872 -1.89033 0
M  V30 22421 C 2097.55 1.74507 -0.810254 0
M  V30 22422 O 2096.84 1.90712 0.184243 0
M  V30 22423 C 2097.03 1.48699 -3.24998 0
M  V30 22424 C 2096.86 0.565594 -4.46129 0
M  V30 22425 C 2095.63 0.197549 -5.04914 0
M  V30 22426 C 2097.83 -0.143444 -5.141 0
M  V30 22427 N 2095.81 -0.728176 -6.09566 0
M  V30 22428 C 2097.18 -0.925871 -6.13048 0
M  V30 22429 C 2099.24 -0.213507 -4.97442 0
M  V30 22430 C 2097.94 -1.77187 -6.97135 0
M  V30 22431 C 2099.97 -1.04653 -5.82067 0
M  V30 22432 C 2099.33 -1.81697 -6.80563 0
M  V30 22433 H 2095.43 0.249778 -0.741037 0
M  V30 22434 H 2098.01 0.0118869 -1.94696 0
M  V30 22435 H 2096.18 2.19661 -3.20318 0
M  V30 22436 H 2097.92 2.12946 -3.44145 0
M  V30 22437 H 2094.67 0.553344 -4.70356 0
M  V30 22438 H 2095.09 -1.18468 -6.66554 0
M  V30 22439 H 2099.74 0.367816 -4.21197 0
M  V30 22440 H 2097.45 -2.36411 -7.72745 0
M  V30 22441 H 2101.04 -1.10389 -5.71232 0
M  V30 22442 H 2099.92 -2.45115 -7.44908 0
M  V30 22443 N 2097.42 1.54103 0.330149 0
M  V30 22444 C 2098.36 1.77865 1.42966 0
M  V30 22445 C 2099.33 0.62832 1.4997 0
M  V30 22446 O 2100.52 0.865011 1.67481 0
M  V30 22447 C 2097.65 1.88931 2.8111 0
M  V30 22448 C 2096.69 3.11177 2.91669 0
M  V30 22449 S 2097.52 4.69933 2.56755 0
M  V30 22450 C 2098.68 4.83896 3.96982 0
M  V30 22451 H 2098.91 2.70846 1.22596 0
M  V30 22452 H 2096.45 1.45142 0.526603 0
M  V30 22453 H 2098.4 1.95992 3.6069 0
M  V30 22454 H 2097.07 0.969392 2.98767 0
M  V30 22455 H 2096.26 3.15635 3.92925 0
M  V30 22456 H 2095.86 3.02412 2.20053 0
M  V30 22457 H 2098.15 4.66129 4.91661 0
M  V30 22458 H 2099.1 5.85995 3.97511 0
M  V30 22459 H 2099.5 4.12249 3.85631 0
M  V30 22460 N 2098.9 -0.59187 1.46064 0
M  V30 22461 C 2100.18 -1.35177 1.41374 0
M  V30 22462 C 2100.56 -2.10898 0.09244 0
M  V30 22463 O 2099.91 -2.08901 -0.925879 0
M  V30 22464 C 2100.12 -2.28545 2.63758 0
M  V30 22465 C 2101.47 -2.90662 3.09517 0
M  V30 22466 O 2102.49 -2.38861 2.64242 0
M  V30 22467 O 2101.35 -3.84728 3.88133 0
M  V30 22468 H 2098.44 -0.606905 0.561778 0
M  V30 22469 H 2100.99 -0.61365 1.58216 0
M  V30 22470 H 2099.76 -1.71959 3.51491 0
M  V30 22471 H 2099.38 -3.09711 2.49328 0
M  V30 22472 N 2100.38 -1.33616 -0.835729 0
M  V30 22473 C 2101.63 -1.24597 -1.58614 0
M  V30 22474 C 2101.94 0.185813 -1.94715 0
M  V30 22475 O 2103.15 0.398045 -2.68566 0
M  V30 22476 C 2101.6 -2.18339 -2.86105 0
M  V30 22477 C 2101.21 -3.66705 -2.57355 0
M  V30 22478 C 2102.96 -2.182 -3.64128 0
M  V30 22479 C 2100.86 -4.52352 -3.80962 0
M  V30 22480 H 2099.79 -0.462802 -0.595256 0
M  V30 22481 H 2102.44 -1.58701 -0.921212 0
M  V30 22482 H 2100.83 -1.77172 -3.54156 0
M  V30 22483 H 2102 -4.16331 -1.97496 0
M  V30 22484 H 2100.32 -3.69164 -1.92631 0
M  V30 22485 H 2102.91 -2.79417 -4.55884 0
M  V30 22486 H 2103.26 -1.17789 -3.99289 0
M  V30 22487 H 2103.79 -2.57745 -3.03005 0
M  V30 22488 H 2100.53 -5.5365 -3.5093 0
M  V30 22489 H 2100.05 -4.07467 -4.40149 0
M  V30 22490 H 2101.73 -4.66315 -4.48508 0
M  V30 22491 N 2101.86 1.05436 -1.17136 0
M  V30 22492 C 2102.79 2.12599 -0.829282 0
M  V30 22493 C 2103.77 1.6133 0.202856 0
M  V30 22494 O 2104.95 1.88308 0.0849539 0
M  V30 22495 C 2102.08 3.37873 -0.236614 0
M  V30 22496 C 2101.13 4.07962 -1.24374 0
M  V30 22497 S 2101.96 4.5683 -2.79404 0
M  V30 22498 C 2103.12 5.85354 -2.21611 0
M  V30 22499 H 2103.35 2.41288 -1.73688 0
M  V30 22500 H 2100.88 1.18 -0.995754 0
M  V30 22501 H 2102.84 4.10381 0.0988539 0
M  V30 22502 H 2101.5 3.07324 0.648884 0
M  V30 22503 H 2100.69 4.97964 -0.777659 0
M  V30 22504 H 2100.3 3.41508 -1.52474 0
M  V30 22505 H 2102.59 6.58575 -1.59013 0
M  V30 22506 H 2103.53 6.36706 -3.09857 0
M  V30 22507 H 2103.94 5.39799 -1.65157 0
M  V30 22508 N 2103.34 0.971211 1.24118 0
M  V30 22509 C 2104.57 0.651802 1.96049 0
M  V30 22510 C 2104.97 -0.783604 1.7221 0
M  V30 22511 O 2104.32 -1.53782 1.00483 0
M  V30 22512 C 2104.38 0.850953 3.49284 0
M  V30 22513 C 2104.04 2.26667 3.96826 0
M  V30 22514 C 2105.04 3.24467 4.06223 0
M  V30 22515 C 2102.73 2.5953 4.30057 0
M  V30 22516 C 2104.72 4.53215 4.4819 0
M  V30 22517 C 2102.41 3.88503 4.71708 0
M  V30 22518 C 2103.4 4.85158 4.8074 0
M  V30 22519 O 2103.09 6.1183 5.21459 0
M  V30 22520 H 2102.82 0.241912 0.631233 0
M  V30 22521 H 2105.38 1.30265 1.58809 0
M  V30 22522 H 2103.61 0.142941 3.86436 0
M  V30 22523 H 2105.3 0.530099 4.02424 0
M  V30 22524 H 2106.06 3.00407 3.80763 0
M  V30 22525 H 2101.94 1.85015 4.22245 0
M  V30 22526 H 2105.49 5.28659 4.55155 0
M  V30 22527 H 2101.38 4.12363 4.96616 0
M  V30 22528 H 2102.15 6.15448 5.39598 0
M  V30 22529 N 2104.81 -1.39054 0.741747 0
M  V30 22530 C 2105.78 -2.28913 0.114619 0
M  V30 22531 C 2106.78 -1.46629 -0.660038 0
M  V30 22532 O 2107.97 -1.67223 -0.488056 0
M  V30 22533 C 2105.1 -3.3022 -0.846607 0
M  V30 22534 H 2106.29 -2.85875 0.906381 0
M  V30 22535 H 2103.85 -1.47814 0.508001 0
M  V30 22536 H 2104.58 -2.78326 -1.66448 0
M  V30 22537 H 2104.37 -3.90999 -0.293686 0
M  V30 22538 H 2105.86 -3.97443 -1.28176 0
M  V30 22539 N 2106.29 -0.489897 -1.49792 0
M  V30 22540 C 2107.26 0.283286 -2.27443 0
M  V30 22541 C 2108.26 0.903846 -1.32993 0
M  V30 22542 O 2109.45 0.770101 -1.56253 0
M  V30 22543 C 2106.58 1.40534 -3.10585 0
M  V30 22544 H 2107.77 -0.397946 -2.97248 0
M  V30 22545 H 2105.32 -0.244516 -1.54376 0
M  V30 22546 H 2106.06 2.12106 -2.4532 0
M  V30 22547 H 2105.84 0.965947 -3.80016 0
M  V30 22548 H 2107.33 1.95026 -3.69262 0
M  V30 22549 N 2107.77 1.56011 -0.223262 0
M  V30 22550 C 2109.02 1.98642 0.408581 0
M  V30 22551 C 2109.35 1.11082 1.59294 0
M  V30 22552 O 2108.62 0.168881 1.93765 0
M  V30 22553 C 2108.91 3.5013 0.841473 0
M  V30 22554 C 2108.76 4.48462 -0.346639 0
M  V30 22555 C 2110.08 4.06065 1.69703 0
M  V30 22556 H 2107.2 0.722183 0.147039 0
M  V30 22557 H 2109.84 1.87289 -0.319839 0
M  V30 22558 H 2107.99 3.59936 1.46214 0
M  V30 22559 H 2109.66 4.50665 -0.98481 0
M  V30 22560 H 2107.91 4.22263 -0.993788 0
M  V30 22561 H 2108.58 5.52 -0.00078187 0
M  V30 22562 H 2111.05 3.99215 1.17332 0
M  V30 22563 H 2109.93 5.12376 1.96882 0
M  V30 22564 H 2110.19 3.53054 2.66093 0
M  V30 22565 N 2109.25 -0.0501116 1.5752 0
M  V30 22566 C 2110.53 -0.779325 1.79404 0
M  V30 22567 C 2110.91 -1.94682 0.816214 0
M  V30 22568 O 2110.25 -2.28032 -0.146153 0
M  V30 22569 C 2110.46 -1.23206 3.26529 0
M  V30 22570 C 2111.81 -1.65661 3.9095 0
M  V30 22571 O 2112.84 -1.32718 3.30552 0
M  V30 22572 O 2111.69 -2.26728 4.97249 0
M  V30 22573 H 2108.79 -0.375128 0.737026 0
M  V30 22574 H 2111.33 -0.0285117 1.69676 0
M  V30 22575 H 2110.11 -0.397664 3.89274 0
M  V30 22576 H 2109.73 -2.04353 3.41065 0
M  V30 22577 N 2110.73 -1.54276 -0.321972 0
M  V30 22578 C 2111.95 -1.76841 -1.0836 0
M  V30 22579 C 2112.38 -0.5163 -1.80876 0
M  V30 22580 O 2111.73 0.532225 -1.73312 0
M  V30 22581 C 2111.78 -2.96236 -2.05613 0
M  V30 22582 O 2110.89 -2.67893 -3.1354 0
M  V30 22583 H 2110.23 -0.585948 -0.312347 0
M  V30 22584 H 2112.76 -2.01304 -0.365783 0
M  V30 22585 H 2112.77 -3.23627 -2.48455 0
M  V30 22586 H 2111.44 -3.87037 -1.52234 0
M  V30 22587 H 2110.02 -2.51456 -2.75362 0
M  V30 22588 N 2112.2 0.584116 -1.46376 0
M  V30 22589 C 2113.62 0.907336 -1.313 0
M  V30 22590 C 2113.82 1.99497 -0.283388 0
M  V30 22591 O 2112.88 2.50533 0.314536 0
M  V30 22592 C 2114.19 1.32602 -2.69883 0
M  V30 22593 C 2115.74 1.43895 -2.77963 0
M  V30 22594 C 2116.21 1.89131 -4.17125 0
M  V30 22595 N 2117.7 1.96326 -4.19536 0
M  V30 22596 C 2118.44 2.32599 -5.24104 0
M  V30 22597 N 2117.93 2.67675 -6.39001 0
M  V30 22598 N 2119.73 2.33142 -5.1147 0
M  V30 22599 H 2111.88 -0.134382 -2.11974 0
M  V30 22600 H 2114.14 0.00254953 -0.947997 0
M  V30 22601 H 2113.85 0.600869 -3.46529 0
M  V30 22602 H 2113.72 2.28783 -2.99897 0
M  V30 22603 H 2116.11 2.15497 -2.01606 0
M  V30 22604 H 2116.19 0.459692 -2.51636 0
M  V30 22605 H 2115.83 1.18108 -4.93977 0
M  V30 22606 H 2115.76 2.88012 -4.40859 0
M  V30 22607 H 2118.25 1.71715 -3.36634 0
M  V30 22608 H 2118.57 2.94302 -7.14567 0
M  V30 22609 H 2116.91 2.65317 -6.42364 0
M  V30 22610 H 2120.1 2.05161 -4.20745 0
M  V30 22611 H 2120.28 2.61083 -5.93077 0
M  V30 22612 N 2113.68 1.34058 0.828631 0
M  V30 22613 C 2114.96 1.1668 1.56988 0
M  V30 22614 C 2115.34 -0.262846 2.09457 0
M  V30 22615 O 2114.69 -1.26337 1.90398 0
M  V30 22616 C 2114.9 2.21657 2.69572 0
M  V30 22617 C 2116.25 2.56341 3.38489 0
M  V30 22618 O 2117.27 2.20402 2.79824 0
M  V30 22619 O 2116.13 3.18053 4.44415 0
M  V30 22620 H 2113.22 0.451944 0.692586 0
M  V30 22621 H 2115.77 1.45672 0.870498 0
M  V30 22622 H 2114.54 3.17643 2.28515 0
M  V30 22623 H 2114.16 1.93809 3.47166 0
M  V30 22624 N 2115.16 -1.04814 1.17694 0
M  V30 22625 C 2116.41 -1.78147 0.969105 0
M  V30 22626 C 2116.74 -1.87634 -0.500715 0
M  V30 22627 O 2116.02 -1.37892 -1.37172 0
M  V30 22628 C 2116.3 -3.2183 1.61548 0
M  V30 22629 C 2116.15 -3.20332 3.15765 0
M  V30 22630 C 2117.47 -4.19759 1.32251 0
M  V30 22631 H 2114.59 -0.646701 0.353479 0
M  V30 22632 H 2117.23 -1.22485 1.45249 0
M  V30 22633 H 2115.38 -3.69358 1.20445 0
M  V30 22634 H 2117.05 -2.8085 3.65952 0
M  V30 22635 H 2115.3 -2.58568 3.48318 0
M  V30 22636 H 2115.97 -4.21759 3.56123 0
M  V30 22637 H 2118.44 -3.80743 1.67851 0
M  V30 22638 H 2117.32 -5.18527 1.80057 0
M  V30 22639 H 2117.58 -4.41426 0.244002 0
M  V30 22640 N 2116.64 -0.977779 -1.23601 0
M  V30 22641 C 2117.59 -0.51555 -2.24968 0
M  V30 22642 C 2118.56 0.4442 -1.6005 0
M  V30 22643 O 2119.74 0.352328 -1.87519 0
M  V30 22644 C 2116.88 0.17842 -3.44638 0
M  V30 22645 C 2115.99 -0.821283 -4.24121 0
M  V30 22646 C 2115.13 -0.102387 -5.31101 0
M  V30 22647 C 2114.17 -1.09148 -6.0229 0
M  V30 22648 N 2113.31 -0.401914 -7.00949 0
M  V30 22649 H 2118.15 -1.38475 -2.63872 0
M  V30 22650 H 2115.68 -0.693946 -1.29703 0
M  V30 22651 H 2117.64 0.597555 -4.12898 0
M  V30 22652 H 2116.27 1.01151 -3.06543 0
M  V30 22653 H 2115.32 -1.35882 -3.55303 0
M  V30 22654 H 2116.63 -1.5751 -4.73278 0
M  V30 22655 H 2115.79 0.374242 -6.05545 0
M  V30 22656 H 2114.53 0.684048 -4.82879 0
M  V30 22657 H 2113.53 -1.57889 -5.26641 0
M  V30 22658 H 2114.76 -1.87853 -6.52601 0
M  V30 22659 H 2112.7 0.365361 -6.54982 0
M  V30 22660 H 2112.62 -1.09443 -7.48036 0
M  V30 22661 H 2113.89 0.0524137 -7.79482 0
M  V30 22662 N 2118.12 1.38658 -0.749111 0
M  V30 22663 C 2119.05 2.33116 -0.133797 0
M  V30 22664 C 2120.03 1.54639 0.708583 0
M  V30 22665 O 2121.21 1.82975 0.650684 0
M  V30 22666 C 2118.34 3.38802 0.763563 0
M  V30 22667 C 2117.3 4.27993 0.0242578 0
M  V30 22668 C 2116.62 5.24497 1.03957 0
M  V30 22669 C 2117.92 5.09673 -1.14151 0
M  V30 22670 H 2119.62 2.84823 -0.922842 0
M  V30 22671 H 2117.16 1.36944 -0.445221 0
M  V30 22672 H 2119.12 4.03844 1.20366 0
M  V30 22673 H 2117.84 2.85568 1.58488 0
M  V30 22674 H 2116.5 3.64451 -0.39637 0
M  V30 22675 H 2116.15 4.67552 1.85483 0
M  V30 22676 H 2115.85 5.85024 0.549587 0
M  V30 22677 H 2117.37 5.92415 1.47908 0
M  V30 22678 H 2118.79 5.6798 -0.779174 0
M  V30 22679 H 2117.18 5.79413 -1.56206 0
M  V30 22680 H 2118.25 4.43675 -1.95654 0
M  V30 22681 N 2119.6 0.497834 1.49531 0
M  V30 22682 C 2120.53 -0.318951 2.2697 0
M  V30 22683 C 2121.54 -0.933444 1.33382 0
M  V30 22684 O 2122.73 -0.81732 1.58689 0
M  V30 22685 C 2119.83 -1.46375 3.05659 0
M  V30 22686 C 2119 -0.957146 4.26799 0
M  V30 22687 C 2118.06 -1.97917 4.8756 0
M  V30 22688 O 2117.09 -1.54899 5.47718 0
M  V30 22689 N 2118.29 -3.30935 4.7693 0
M  V30 22690 H 2121.05 0.345053 2.97707 0
M  V30 22691 H 2118.62 0.330191 1.58497 0
M  V30 22692 H 2120.61 -2.14495 3.43182 0
M  V30 22693 H 2119.18 -2.03196 2.3755 0
M  V30 22694 H 2118.4 -0.100949 3.94071 0
M  V30 22695 H 2119.69 -0.597028 5.05285 0
M  V30 22696 H 2119.08 -3.68576 4.29149 0
M  V30 22697 H 2117.64 -3.94778 5.18646 0
M  V30 22698 N 2121.07 -1.5589 0.231532 0
M  V30 22699 C 2122.48 -1.84671 -0.274487 0
M  V30 22700 C 2122.84 -1.15311 -1.58738 0
M  V30 22701 O 2121.96 -0.42619 -2.12162 0
M  V30 22702 C 2122.56 -3.35018 -0.504806 0
M  V30 22703 C 2121.11 -3.6408 -0.955115 0
M  V30 22704 C 2120.26 -2.7729 -0.023723 0
M  V30 22705 H 2123.21 -1.52053 0.454483 0
M  V30 22706 H 2123.23 -3.55765 -1.3495 0
M  V30 22707 H 2122.75 -3.85472 0.450902 0
M  V30 22708 H 2120.85 -3.19092 -1.92383 0
M  V30 22709 H 2120.96 -4.71985 -0.822615 0
M  V30 22710 H 2119.32 -2.49075 -0.53233 0
M  V30 22711 H 2120.11 -3.30545 0.927081 0
M  V30 22712 N 2122.55 0.0417572 -1.57545 0
M  V30 22713 C 2123.8 0.736189 -1.88966 0
M  V30 22714 C 2124.13 1.75678 -0.827697 0
M  V30 22715 O 2123.41 1.93851 0.158734 0
M  V30 22716 C 2123.69 1.4172 -3.3104 0
M  V30 22717 C 2123.54 0.410987 -4.47918 0
M  V30 22718 C 2124.86 2.3545 -3.71822 0
M  V30 22719 H 2121.98 0.266166 -0.687259 0
M  V30 22720 H 2124.62 -0.000952352 -1.9 0
M  V30 22721 H 2122.77 2.04552 -3.30289 0
M  V30 22722 H 2124.44 -0.214433 -4.60801 0
M  V30 22723 H 2122.69 -0.270954 -4.32953 0
M  V30 22724 H 2123.36 0.925718 -5.44182 0
M  V30 22725 H 2125.83 1.82673 -3.73858 0
M  V30 22726 H 2124.71 2.80087 -4.72062 0
M  V30 22727 H 2124.97 3.21575 -3.03384 0
M  V30 22728 N 2124.03 1.54445 0.313786 0
M  V30 22729 C 2125.26 1.76836 1.0683 0
M  V30 22730 C 2125.67 0.52169 1.81865 0
M  V30 22731 O 2125.01 -0.517625 1.76256 0
M  V30 22732 C 2125.07 2.91448 2.10471 0
M  V30 22733 C 2124.74 4.30003 1.54746 0
M  V30 22734 C 2125.73 5.10501 0.984136 0
M  V30 22735 C 2123.42 4.76573 1.58694 0
M  V30 22736 C 2125.41 6.35682 0.467701 0
M  V30 22737 C 2123.1 6.01719 1.06664 0
M  V30 22738 C 2124.1 6.81108 0.507972 0
M  V30 22739 O 2123.79 8.039 -0.00448226 0
M  V30 22740 H 2123.52 0.59375 0.323167 0
M  V30 22741 H 2126.07 2.02175 0.362557 0
M  V30 22742 H 2124.3 2.61703 2.8469 0
M  V30 22743 H 2125.99 3.01533 2.71722 0
M  V30 22744 H 2126.76 4.75672 0.94663 0
M  V30 22745 H 2122.64 4.14816 2.01118 0
M  V30 22746 H 2126.18 6.97593 0.0309903 0
M  V30 22747 H 2122.08 6.36037 1.10125 0
M  V30 22748 H 2122.84 8.18426 0.110023 0
M  V30 22749 N 2125.51 -0.576345 1.46683 0
M  V30 22750 C 2126.42 -1.71268 1.60326 0
M  V30 22751 C 2127.43 -1.67059 0.486559 0
M  V30 22752 O 2128.61 -1.86852 0.75154 0
M  V30 22753 C 2125.67 -3.07775 1.5961 0
M  V30 22754 C 2124.74 -3.232 2.8256 0
M  V30 22755 C 2123.97 -4.53195 2.81869 0
M  V30 22756 O 2124.19 -5.37478 1.90979 0
M  V30 22757 O 2123.13 -4.72003 3.73493 0
M  V30 22758 H 2126.95 -1.62705 2.56439 0
M  V30 22759 H 2124.54 -0.744135 1.29549 0
M  V30 22760 H 2126.42 -3.89046 1.61929 0
M  V30 22761 H 2125.09 -3.16762 0.666583 0
M  V30 22762 H 2124 -2.41398 2.85793 0
M  V30 22763 H 2125.33 -3.19107 3.74742 0
M  V30 22764 N 2126.99 -1.34495 -0.82151 0
M  V30 22765 C 2127.9 -1.28265 -1.96431 0
M  V30 22766 C 2128.91 -0.190092 -1.72959 0
M  V30 22767 O 2130.09 -0.416817 -1.9704 0
M  V30 22768 C 2127.15 -1.03935 -3.30754 0
M  V30 22769 C 2126.21 -2.22361 -3.67225 0
M  V30 22770 C 2125.45 -1.99182 -4.95139 0
M  V30 22771 O 2125.67 -0.950771 -5.6242 0
M  V30 22772 O 2124.6 -2.86169 -5.2952 0
M  V30 22773 H 2128.43 -2.2441 -2.04631 0
M  V30 22774 H 2126.01 -1.14716 -0.957114 0
M  V30 22775 H 2127.9 -0.921538 -4.112 0
M  V30 22776 H 2126.57 -0.108311 -3.23519 0
M  V30 22777 H 2125.48 -2.39702 -2.87217 0
M  V30 22778 H 2126.81 -3.1386 -3.79147 0
M  V30 22779 N 2128.46 1.04188 -1.18248 0
M  V30 22780 C 2129.41 2.14282 -0.904765 0
M  V30 22781 C 2130.41 1.68865 0.134493 0
M  V30 22782 O 2131.61 1.79995 -0.013541 0
M  V30 22783 H 2127.99 0.699873 -0.275103 0
M  V30 22784 H 2129.96 2.34904 -1.84018 0
M  V30 22785 C 2128.71 3.44832 -0.445645 0
M  V30 22786 H 2128.03 3.80187 -1.23683 0
M  V30 22787 H 2129.47 4.23005 -0.29031 0
M  V30 22788 C 2127.93 3.26303 0.838325 0
M  V30 22789 O 2128.46 3.53774 1.90282 0
M  V30 22790 N 2126.67 2.79643 0.79045 0
M  V30 22791 H 2126.21 2.57488 -0.0760399 0
M  V30 22792 H 2126.17 2.67626 1.64996 0
M  V30 22793 N 2129.94 0.98432 1.23081 0
M  V30 22794 C 2130.87 0.547274 2.26996 0
M  V30 22795 C 2131.85 -0.421528 1.64794 0
M  V30 22796 O 2133.04 -0.314036 1.91644 0
M  V30 22797 C 2130.17 -0.147283 3.46988 0
M  V30 22798 C 2129.12 0.739194 4.21568 0
M  V30 22799 C 2128.45 -0.0877981 5.34628 0
M  V30 22800 C 2129.75 2.03191 4.81156 0
M  V30 22801 H 2131.44 1.41586 2.63806 0
M  V30 22802 H 2128.99 0.682245 1.26813 0
M  V30 22803 H 2130.94 -0.464368 4.18834 0
M  V30 22804 H 2129.67 -1.05035 3.09249 0
M  V30 22805 H 2128.32 1.03979 3.51545 0
M  V30 22806 H 2127.97 -0.99152 4.93131 0
M  V30 22807 H 2127.67 0.50225 5.8545 0
M  V30 22808 H 2129.2 -0.399175 6.09294 0
M  V30 22809 H 2130.61 1.77933 5.44989 0
M  V30 22810 H 2129.01 2.57006 5.4228 0
M  V30 22811 H 2130.08 2.71622 4.01684 0
M  V30 22812 N 2131.42 -1.38259 0.756453 0
M  V30 22813 C 2132.65 -2.04038 0.324328 0
M  V30 22814 C 2133.06 -1.57176 -1.05321 0
M  V30 22815 O 2132.4 -0.741386 -1.68075 0
M  V30 22816 C 2132.46 -3.58472 0.271651 0
M  V30 22817 C 2132.13 -4.28403 1.59121 0
M  V30 22818 C 2133.12 -4.53578 2.54092 0
M  V30 22819 C 2130.81 -4.66536 1.86143 0
M  V30 22820 C 2132.8 -5.15923 3.74302 0
M  V30 22821 C 2130.49 -5.28605 3.06627 0
M  V30 22822 C 2131.49 -5.53233 4.00527 0
M  V30 22823 O 2131.18 -6.14009 5.18892 0
M  V30 22824 H 2130.91 -0.662169 0.136046 0
M  V30 22825 H 2133.46 -1.77878 1.02707 0
M  V30 22826 H 2131.69 -3.83617 -0.487352 0
M  V30 22827 H 2133.38 -4.05687 -0.131344 0
M  V30 22828 H 2134.15 -4.24545 2.34492 0
M  V30 22829 H 2130.03 -4.4671 1.1389 0
M  V30 22830 H 2133.57 -5.35063 4.47609 0
M  V30 22831 H 2129.47 -5.57061 3.26119 0
M  V30 22832 H 2130.24 -6.32495 5.19512 0
M  V30 22833 N 2132.9 -0.505757 -1.49264 0
M  V30 22834 C 2133.83 0.316874 -2.25989 0
M  V30 22835 C 2134.81 0.966218 -1.30778 0
M  V30 22836 O 2135.99 0.995383 -1.60076 0
M  V30 22837 C 2133.12 1.44666 -3.0625 0
M  V30 22838 C 2132.17 0.911211 -4.16652 0
M  V30 22839 S 2133 -0.201792 -5.3512 0
M  V30 22840 C 2134.16 0.931051 -6.18936 0
M  V30 22841 H 2134.39 -0.334324 -2.95414 0
M  V30 22842 H 2131.92 -0.291131 -1.5163 0
M  V30 22843 H 2133.88 2.09399 -3.53076 0
M  V30 22844 H 2132.54 2.06949 -2.36285 0
M  V30 22845 H 2131.73 1.75804 -4.72344 0
M  V30 22846 H 2131.34 0.341018 -3.72442 0
M  V30 22847 H 2133.63 1.83522 -6.5217 0
M  V30 22848 H 2134.57 0.412646 -7.06897 0
M  V30 22849 H 2134.98 1.20053 -5.51586 0
M  V30 22850 N 2134.38 1.55765 -0.239796 0
M  V30 22851 C 2135.61 2.02872 0.390693 0
M  V30 22852 C 2136.01 1.11855 1.52595 0
M  V30 22853 O 2135.36 0.123985 1.83281 0
M  V30 22854 C 2135.42 3.46259 0.966699 0
M  V30 22855 C 2135.08 4.56986 -0.0354088 0
M  V30 22856 C 2136.08 5.1303 -0.842397 0
M  V30 22857 C 2133.77 5.02047 -0.159444 0
M  V30 22858 C 2135.76 6.12621 -1.75995 0
M  V30 22859 C 2133.45 6.01472 -1.08051 0
M  V30 22860 C 2134.44 6.56637 -1.87929 0
M  V30 22861 O 2134.13 7.54123 -2.78484 0
M  V30 22862 H 2133.86 0.668881 0.0978453 0
M  V30 22863 H 2136.42 2.02236 -0.359131 0
M  V30 22864 H 2134.65 3.44022 1.76595 0
M  V30 22865 H 2136.34 3.76907 1.50652 0
M  V30 22866 H 2137.1 4.79054 -0.757119 0
M  V30 22867 H 2132.98 4.58777 0.452213 0
M  V30 22868 H 2136.53 6.55605 -2.38385 0
M  V30 22869 H 2132.42 6.34868 -1.16674 0
M  V30 22870 H 2133.19 7.71713 -2.72765 0
M  V30 22871 N 2135.85 -0.0334016 1.57565 0
M  V30 22872 C 2136.78 -1.03494 2.09312 0
M  V30 22873 C 2137.77 -1.37985 0.9947 0
M  V30 22874 O 2138.95 -1.46944 1.26969 0
M  V30 22875 C 2136.08 -2.33717 2.56892 0
M  V30 22876 C 2135.03 -2.1348 3.70959 0
M  V30 22877 C 2134.36 -3.49425 4.0473 0
M  V30 22878 C 2135.66 -1.52451 4.99556 0
M  V30 22879 H 2137.35 -0.60419 2.9324 0
M  V30 22880 H 2134.9 -0.289182 1.41066 0
M  V30 22881 H 2136.85 -3.04107 2.91714 0
M  V30 22882 H 2135.58 -2.78843 1.70041 0
M  V30 22883 H 2134.24 -1.45523 3.3648 0
M  V30 22884 H 2133.88 -3.92192 3.14952 0
M  V30 22885 H 2133.58 -3.36711 4.81559 0
M  V30 22886 H 2135.11 -4.21184 4.42082 0
M  V30 22887 H 2136.52 -2.12753 5.32362 0
M  V30 22888 H 2134.92 -1.50324 5.80967 0
M  V30 22889 H 2135.99 -0.48986 4.82419 0
M  V30 22890 N 2137.33 -1.54609 -0.305591 0
M  V30 22891 C 2138.56 -1.774 -1.05891 0
M  V30 22892 C 2138.97 -0.531327 -1.81586 0
M  V30 22893 O 2138.31 0.508271 -1.76528 0
M  V30 22894 C 2138.38 -2.9256 -2.08923 0
M  V30 22895 C 2138.04 -4.30818 -1.52464 0
M  V30 22896 C 2139.04 -5.11015 -0.957049 0
M  V30 22897 C 2136.72 -4.77407 -1.56165 0
M  V30 22898 C 2138.72 -6.35921 -0.433983 0
M  V30 22899 C 2136.4 -6.02276 -1.03471 0
M  V30 22900 C 2137.4 -6.81368 -0.471844 0
M  V30 22901 O 2137.09 -8.03886 0.047115 0
M  V30 22902 H 2136.82 -0.595455 -0.320014 0
M  V30 22903 H 2139.37 -2.02364 -0.35183 0
M  V30 22904 H 2137.6 -2.6321 -2.83298 0
M  V30 22905 H 2139.29 -3.02969 -2.70119 0
M  V30 22906 H 2140.06 -4.76167 -0.921391 0
M  V30 22907 H 2135.94 -4.15877 -1.98915 0
M  V30 22908 H 2139.48 -6.976 0.00600517 0
M  V30 22909 H 2135.38 -6.36612 -1.0675 0
M  V30 22910 H 2136.15 -8.18473 -0.0666184 0
M  V30 22911 N 2138.81 0.568558 -1.46987 0
M  V30 22912 C 2140.06 1.32622 -1.53028 0
M  V30 22913 C 2140.39 1.93591 -0.187815 0
M  V30 22914 O 2139.64 1.77779 0.818104 0
M  V30 22915 C 2139.94 2.46501 -2.5879 0
M  V30 22916 C 2139.61 2.03435 -4.02399 0
M  V30 22917 C 2138.27 1.91406 -4.41494 0
M  V30 22918 C 2140.62 1.70411 -4.92554 0
M  V30 22919 C 2137.95 1.4463 -5.68594 0
M  V30 22920 C 2140.3 1.2511 -6.20105 0
M  V30 22921 C 2138.96 1.11668 -6.58093 0
M  V30 22922 H 2138.23 0.485299 -0.559969 0
M  V30 22923 H 2140.88 0.638777 -1.80532 0
M  V30 22924 H 2139.19 3.20753 -2.24999 0
M  V30 22925 H 2140.88 3.047 -2.60689 0
M  V30 22926 H 2137.47 2.13737 -3.71503 0
M  V30 22927 H 2141.66 1.78582 -4.63057 0
M  V30 22928 H 2136.91 1.32878 -5.96786 0
M  V30 22929 H 2141.09 0.986139 -6.89383 0
M  V30 22930 H 2138.71 0.751996 -7.56471 0
M  V30 22931 N 2140.29 1.34929 0.814366 0
M  V30 22932 C 2141.53 1.27956 1.57338 0
M  V30 22933 C 2141.87 -0.147896 1.93636 0
M  V30 22934 O 2141.14 -1.09539 1.60722 0
M  V30 22935 C 2141.43 2.17862 2.8672 0
M  V30 22936 C 2141.28 3.69185 2.56948 0
M  V30 22937 C 2142.6 2.07033 3.88362 0
M  V30 22938 H 2139.72 0.466149 0.570854 0
M  V30 22939 H 2142.36 1.65259 0.937513 0
M  V30 22940 H 2140.51 1.86178 3.40984 0
M  V30 22941 H 2142.18 4.11275 2.08927 0
M  V30 22942 H 2140.42 3.89851 1.90259 0
M  V30 22943 H 2141.09 4.2747 3.49247 0
M  V30 22944 H 2143.57 2.34869 3.43476 0
M  V30 22945 H 2142.45 2.72151 4.76681 0
M  V30 22946 H 2142.71 1.04989 4.29453 0
M  V30 22947 N 2141.77 -1.0356 1.18799 0
M  V30 22948 C 2143.02 -1.76246 0.980824 0
M  V30 22949 C 2143.33 -1.89365 -0.489935 0
M  V30 22950 O 2144.53 -2.58955 -0.815746 0
M  V30 22951 C 2142.99 -3.16901 1.70592 0
M  V30 22952 C 2142.6 -3.11859 3.21633 0
M  V30 22953 C 2144.34 -3.9393 1.58175 0
M  V30 22954 C 2142.25 -4.47404 3.8676 0
M  V30 22955 H 2141.18 -0.660673 0.363355 0
M  V30 22956 H 2143.83 -1.15949 1.42225 0
M  V30 22957 H 2142.21 -3.77625 1.19228 0
M  V30 22958 H 2143.39 -2.60556 3.80062 0
M  V30 22959 H 2141.7 -2.48328 3.34249 0
M  V30 22960 H 2144.3 -4.94177 2.0419 0
M  V30 22961 H 2144.64 -4.1285 0.534821 0
M  V30 22962 H 2145.17 -3.39792 2.06848 0
M  V30 22963 H 2141.91 -4.33688 4.91523 0
M  V30 22964 H 2141.43 -4.9879 3.3312 0
M  V30 22965 H 2143.11 -5.16306 3.89919 0
M  V30 22966 N 2143.25 -0.990834 -1.22557 0
M  V30 22967 C 2144.49 -0.665533 -1.91251 0
M  V30 22968 C 2144.82 0.802172 -1.77188 0
M  V30 22969 O 2144.08 1.5954 -1.13339 0
M  V30 22970 C 2144.37 -1.01474 -3.42692 0
M  V30 22971 C 2144.04 -2.47437 -3.76943 0
M  V30 22972 C 2142.7 -2.87325 -3.86002 0
M  V30 22973 C 2145.05 -3.42055 -3.93253 0
M  V30 22974 C 2142.38 -4.20825 -4.08807 0
M  V30 22975 C 2144.73 -4.75211 -4.17561 0
M  V30 22976 C 2143.4 -5.14843 -4.24844 0
M  V30 22977 H 2142.67 -0.243536 -0.699837 0
M  V30 22978 H 2145.32 -1.24664 -1.45366 0
M  V30 22979 H 2143.62 -0.351686 -3.90218 0
M  V30 22980 H 2145.32 -0.741104 -3.94092 0
M  V30 22981 H 2141.91 -2.15518 -3.70473 0
M  V30 22982 H 2146.09 -3.1241 -3.85634 0
M  V30 22983 H 2141.35 -4.51123 -4.12672 0
M  V30 22984 H 2145.52 -5.48475 -4.29125 0
M  V30 22985 H 2143.15 -6.18306 -4.42268 0
M  V30 22986 N 2144.72 1.37856 -0.763775 0
M  V30 22987 C 2145.97 1.99126 -0.321223 0
M  V30 22988 C 2146.29 1.61318 1.10615 0
M  V30 22989 O 2147.49 2.15633 1.64969 0
M  V30 22990 C 2145.95 3.56074 -0.523371 0
M  V30 22991 C 2145.56 4.02826 -1.96049 0
M  V30 22992 C 2147.3 4.24256 -0.144043 0
M  V30 22993 C 2145.21 5.52454 -2.11066 0
M  V30 22994 H 2144.14 0.744968 -0.116357 0
M  V30 22995 H 2146.79 1.5749 -0.941769 0
M  V30 22996 H 2145.17 3.9565 0.166513 0
M  V30 22997 H 2146.34 3.74515 -2.68468 0
M  V30 22998 H 2144.66 3.47402 -2.29567 0
M  V30 22999 H 2147.26 5.34184 -0.234865 0
M  V30 23000 H 2147.6 4.06351 0.904676 0
M  V30 23001 H 2148.13 3.89954 -0.786169 0
M  V30 23002 H 2144.87 5.75275 -3.14228 0
M  V30 23003 H 2144.39 5.82474 -1.43121 0
M  V30 23004 H 2146.07 6.18305 -1.90546 0
M  V30 23005 N 2146.2 0.513665 1.48994 0
M  V30 23006 C 2147.45 -0.0282469 2.0168 0
M  V30 23007 C 2147.76 -1.36865 1.3974 0
M  V30 23008 O 2148.97 -1.99799 1.83828 0
M  V30 23009 C 2147.43 -0.100776 3.59759 0
M  V30 23010 C 2147.03 1.23375 4.30677 0
M  V30 23011 C 2148.78 -0.592381 4.20346 0
M  V30 23012 C 2146.68 1.12269 5.80646 0
M  V30 23013 H 2145.61 -0.0143288 0.753864 0
M  V30 23014 H 2148.27 0.654994 1.71412 0
M  V30 23015 H 2146.65 -0.848743 3.86798 0
M  V30 23016 H 2147.82 1.996 4.15327 0
M  V30 23017 H 2146.14 1.65979 3.8189 0
M  V30 23018 H 2148.73 -0.69318 5.30188 0
M  V30 23019 H 2149.08 -1.59429 3.84562 0
M  V30 23020 H 2149.61 0.0994202 3.97676 0
M  V30 23021 H 2146.35 2.09925 6.20976 0
M  V30 23022 H 2145.87 0.401536 5.98454 0
M  V30 23023 H 2147.55 0.806614 6.41952 0
M  V30 23024 N 2147.68 -1.55636 0.248053 0
M  V30 23025 C 2148.93 -1.98972 -0.37637 0
M  V30 23026 C 2149.25 -1.1362 -1.57863 0
M  V30 23027 O 2148.51 -0.187287 -1.94802 0
M  V30 23028 C 2148.81 -3.47664 -0.828526 0
M  V30 23029 C 2148.47 -4.50114 0.266108 0
M  V30 23030 C 2147.14 -4.77851 0.566745 0
M  V30 23031 C 2149.49 -5.11418 1.00506 0
M  V30 23032 C 2146.82 -5.64166 1.61039 0
M  V30 23033 C 2149.17 -5.98865 2.03823 0
M  V30 23034 C 2147.83 -6.24934 2.3455 0
M  V30 23035 H 2147.1 -0.728089 -0.137723 0
M  V30 23036 H 2149.75 -1.8816 0.356118 0
M  V30 23037 H 2148.05 -3.55814 -1.64024 0
M  V30 23038 H 2149.75 -3.78583 -1.32196 0
M  V30 23039 H 2146.34 -4.28595 0.0216504 0
M  V30 23040 H 2150.53 -4.90036 0.786048 0
M  V30 23041 H 2145.78 -5.82619 1.85378 0
M  V30 23042 H 2149.96 -6.45409 2.61573 0
M  V30 23043 H 2147.58 -6.91612 3.15558 0
M  V30 23044 N 2149.16 0.0250451 -1.5758 0
M  V30 23045 C 2150.41 0.713634 -1.89081 0
M  V30 23046 C 2150.73 1.7568 -0.846258 0
M  V30 23047 O 2150 1.95534 0.119612 0
M  V30 23048 H 2148.58 0.266566 -0.697819 0
M  V30 23049 H 2151.24 -0.00995501 -1.94897 0
M  V30 23050 H 2150.33 1.20068 -2.8808 0
M  V30 23051 N 2150.64 1.54769 0.297388 0
M  V30 23052 C 2151.86 1.78543 1.05533 0
M  V30 23053 C 2152.29 0.54501 1.80031 0
M  V30 23054 O 2151.64 -0.504585 1.74137 0
M  V30 23055 C 2151.69 2.99469 2.00874 0
M  V30 23056 O 2150.8 2.72847 3.09238 0
M  V30 23057 H 2150.14 0.590843 0.302985 0
M  V30 23058 H 2152.67 2.0186 0.333711 0
M  V30 23059 H 2152.68 3.27538 2.43275 0
M  V30 23060 H 2151.35 3.8941 1.46058 0
M  V30 23061 H 2149.93 2.55805 2.71327 0
M  V30 23062 N 2152.11 -0.560755 1.47286 0
M  V30 23063 C 2153.36 -1.31809 1.53729 0
M  V30 23064 C 2153.69 -1.93489 0.198079 0
M  V30 23065 O 2152.94 -1.78211 -0.808664 0
M  V30 23066 C 2153.24 -2.45125 2.60093 0
M  V30 23067 C 2152.91 -2.01298 4.03472 0
M  V30 23068 C 2151.57 -1.89062 4.42503 0
M  V30 23069 C 2153.92 -1.67796 4.93451 0
M  V30 23070 C 2151.25 -1.41613 5.69353 0
M  V30 23071 C 2153.6 -1.21819 6.2076 0
M  V30 23072 C 2152.27 -1.08176 6.58676 0
M  V30 23073 H 2151.54 -0.482323 0.562535 0
M  V30 23074 H 2154.18 -0.629194 1.80868 0
M  V30 23075 H 2152.49 -3.19555 2.26697 0
M  V30 23076 H 2154.19 -3.03313 2.62302 0
M  V30 23077 H 2150.78 -2.11764 3.72631 0
M  V30 23078 H 2154.96 -1.76124 4.63998 0
M  V30 23079 H 2150.22 -1.29712 5.97482 0
M  V30 23080 H 2154.39 -0.949566 6.89896 0
M  V30 23081 H 2152.02 -0.711868 7.5686 0
M  V30 23082 N 2153.59 -1.35359 -0.807199 0
M  V30 23083 C 2154.84 -1.28598 -1.56425 0
M  V30 23084 C 2155.17 0.139777 -1.93997 0
M  V30 23085 O 2154.42 1.10489 -1.61526 0
M  V30 23086 C 2154.72 -2.13745 -2.8644 0
M  V30 23087 C 2154.39 -3.62545 -2.68089 0
M  V30 23088 C 2153.05 -4.03105 -2.62792 0
M  V30 23089 C 2155.4 -4.56965 -2.50664 0
M  V30 23090 C 2152.73 -5.36253 -2.38013 0
M  V30 23091 C 2155.08 -5.9031 -2.27415 0
M  V30 23092 C 2153.74 -6.30015 -2.20539 0
M  V30 23093 H 2153.01 -0.470572 -0.572401 0
M  V30 23094 H 2155.66 -1.6725 -0.932725 0
M  V30 23095 H 2153.97 -1.67972 -3.53967 0
M  V30 23096 H 2155.66 -2.0585 -3.44132 0
M  V30 23097 H 2152.25 -3.30359 -2.73059 0
M  V30 23098 H 2156.44 -4.26515 -2.53769 0
M  V30 23099 H 2151.69 -5.66017 -2.31159 0
M  V30 23100 H 2155.87 -6.63051 -2.12922 0
M  V30 23101 H 2153.49 -7.33118 -2.01101 0
M  V30 23102 N 2155.07 1.02928 -1.19346 0
M  V30 23103 C 2156.3 1.79948 -1.02109 0
M  V30 23104 C 2156.71 1.83834 0.430184 0
M  V30 23105 O 2156.07 1.28209 1.2988 0
M  V30 23106 C 2156.12 3.25018 -1.58258 0
M  V30 23107 O 2155.84 3.21409 -2.97705 0
M  V30 23108 C 2157.34 4.18638 -1.45798 0
M  V30 23109 H 2154.56 0.566313 -0.359904 0
M  V30 23110 H 2157.11 1.29645 -1.58153 0
M  V30 23111 H 2155.26 3.72512 -1.06364 0
M  V30 23112 H 2155.68 4.12372 -3.24113 0
M  V30 23113 H 2157.15 5.1832 -1.89865 0
M  V30 23114 H 2157.63 4.37297 -0.408433 0
M  V30 23115 H 2158.23 3.77017 -1.96821 0
M  V30 23116 N 2156.55 0.997319 1.2203 0
M  V30 23117 C 2157.48 0.571319 2.26403 0
M  V30 23118 C 2158.46 -0.404025 1.65232 0
M  V30 23119 O 2159.64 -0.293692 1.91966 0
M  V30 23120 C 2156.77 -0.110472 3.47124 0
M  V30 23121 C 2155.73 0.783865 4.20761 0
M  V30 23122 C 2155.05 -0.0310887 5.34691 0
M  V30 23123 C 2156.35 2.08283 4.78974 0
M  V30 23124 H 2158.05 1.44376 2.6229 0
M  V30 23125 H 2155.59 0.695656 1.26082 0
M  V30 23126 H 2157.55 -0.419919 4.19303 0
M  V30 23127 H 2156.27 -1.01749 3.10346 0
M  V30 23128 H 2154.93 1.07702 3.50422 0
M  V30 23129 H 2154.58 -0.939162 4.94155 0
M  V30 23130 H 2154.28 0.564316 5.84884 0
M  V30 23131 H 2155.8 -0.334528 6.09683 0
M  V30 23132 H 2157.22 1.83704 5.43071 0
M  V30 23133 H 2155.61 2.62743 5.39524 0
M  V30 23134 H 2156.68 2.75867 3.9878 0
M  V30 23135 N 2158.03 -1.37449 0.771075 0
M  V30 23136 C 2158.97 -2.3215 0.144682 0
M  V30 23137 C 2159.97 -1.549 -0.685728 0
M  V30 23138 O 2161.17 -1.70302 -0.582865 0
M  V30 23139 H 2157.55 -0.751479 0.0279996 0
M  V30 23140 H 2159.52 -2.82565 0.959155 0
M  V30 23141 C 2158.27 -3.40151 -0.720591 0
M  V30 23142 H 2157.59 -3.99696 -0.0909784 0
M  V30 23143 H 2159.03 -4.08779 -1.12586 0
M  V30 23144 C 2157.49 -2.80177 -1.8709 0
M  V30 23145 O 2158.02 -2.70873 -2.96632 0
M  V30 23146 N 2156.23 -2.3773 -1.67132 0
M  V30 23147 H 2155.77 -2.45497 -0.780329 0
M  V30 23148 H 2155.73 -1.97946 -2.44263 0
M  V30 23149 N 2159.5 -0.52156 -1.4872 0
M  V30 23150 C 2160.43 0.234741 -2.32317 0
M  V30 23151 C 2161.42 0.943119 -1.4156 0
M  V30 23152 O 2162.6 0.930536 -1.70454 0
M  V30 23153 C 2159.73 1.28724 -3.22564 0
M  V30 23154 C 2158.68 0.697518 -4.22278 0
M  V30 23155 C 2158.01 1.85205 -5.016 0
M  V30 23156 C 2159.31 -0.325174 -5.21287 0
M  V30 23157 H 2161 -0.463097 -2.95797 0
M  V30 23158 H 2158.55 -0.224154 -1.42245 0
M  V30 23159 H 2160.5 1.82422 -3.79869 0
M  V30 23160 H 2159.23 2.01455 -2.57067 0
M  V30 23161 H 2157.89 0.182131 -3.66147 0
M  V30 23162 H 2157.53 2.56754 -4.32535 0
M  V30 23163 H 2157.23 1.46343 -5.69085 0
M  V30 23164 H 2158.76 2.39297 -5.61755 0
M  V30 23165 H 2160.17 0.124406 -5.73165 0
M  V30 23166 H 2158.57 -0.630729 -5.96776 0
M  V30 23167 H 2159.64 -1.23392 -4.68938 0
M  V30 23168 N 2160.98 1.55502 -0.256304 0
M  V30 23169 C 2162.23 1.99168 0.365812 0
M  V30 23170 C 2162.56 1.14455 1.57259 0
M  V30 23171 O 2161.81 0.197615 1.947 0
M  V30 23172 C 2162.11 3.48098 0.810077 0
M  V30 23173 C 2161.78 4.49967 -0.289975 0
M  V30 23174 C 2160.44 4.77544 -0.592079 0
M  V30 23175 C 2162.79 5.10877 -1.03217 0
M  V30 23176 C 2160.12 5.63304 -1.64029 0
M  V30 23177 C 2162.47 5.97775 -2.06996 0
M  V30 23178 C 2161.14 6.23681 -2.37861 0
M  V30 23179 H 2160.41 0.728809 0.13386 0
M  V30 23180 H 2163.05 1.87968 -0.366092 0
M  V30 23181 H 2161.36 3.56679 1.62134 0
M  V30 23182 H 2163.05 3.79279 1.30186 0
M  V30 23183 H 2159.64 4.28577 -0.0443795 0
M  V30 23184 H 2163.83 4.89612 -0.812025 0
M  V30 23185 H 2159.08 5.81628 -1.88465 0
M  V30 23186 H 2163.26 6.44013 -2.64992 0
M  V30 23187 H 2160.89 6.89929 -3.19221 0
M  V30 23188 N 2162.46 -0.0166879 1.57591 0
M  V30 23189 C 2163.71 -0.704094 1.89012 0
M  V30 23190 C 2164.02 -1.75854 0.856437 0
M  V30 23191 O 2165.23 -2.4994 1.06029 0
M  V30 23192 C 2163.68 -1.30343 3.35468 0
M  V30 23193 C 2163.29 -0.284687 4.47095 0
M  V30 23194 C 2165.04 -1.96999 3.76021 0
M  V30 23195 C 2162.94 -0.893068 5.84618 0
M  V30 23196 H 2161.87 -0.266736 0.705243 0
M  V30 23197 H 2164.52 0.0411208 1.83454 0
M  V30 23198 H 2162.91 -2.09876 3.3581 0
M  V30 23199 H 2164.08 0.484835 4.58242 0
M  V30 23200 H 2162.4 0.280487 4.15454 0
M  V30 23201 H 2164.99 -2.43392 4.76093 0
M  V30 23202 H 2165.34 -2.79347 3.0866 0
M  V30 23203 H 2165.87 -1.24224 3.77906 0
M  V30 23204 H 2162.61 -0.108736 6.5541 0
M  V30 23205 H 2162.13 -1.63214 5.77167 0
M  V30 23206 H 2163.81 -1.39672 6.31744 0
M  V30 23207 N 2163.94 -1.54924 -0.289176 0
M  V30 23208 C 2165.19 -1.74421 -1.02087 0
M  V30 23209 C 2165.51 -0.539388 -1.87392 0
M  V30 23210 O 2164.78 0.446105 -1.90753 0
M  V30 23211 H 2163.36 -0.643179 -0.379908 0
M  V30 23212 H 2166.02 -1.923 -0.317306 0
M  V30 23213 H 2165.12 -2.63841 -1.66716 0
M  V30 23214 N 2165.42 0.552936 -1.47582 0
M  V30 23215 C 2166.66 1.31186 -1.54655 0
M  V30 23216 C 2167 1.93062 -0.209946 0
M  V30 23217 O 2166.27 1.78093 0.781854 0
M  V30 23218 C 2166.55 2.41873 -2.66776 0
M  V30 23219 C 2166.41 1.84837 -4.10067 0
M  V30 23220 C 2167.73 3.43776 -2.74784 0
M  V30 23221 H 2164.84 0.47562 -0.562987 0
M  V30 23222 H 2167.49 0.618335 -1.79657 0
M  V30 23223 H 2165.64 3.01029 -2.45589 0
M  V30 23224 H 2167.31 1.29909 -4.4263 0
M  V30 23225 H 2165.55 1.15489 -4.18144 0
M  V30 23226 H 2166.22 2.64874 -4.84299 0
M  V30 23227 H 2168.7 2.94544 -2.9391 0
M  V30 23228 H 2167.57 4.18646 -3.55003 0
M  V30 23229 H 2167.84 4.02894 -1.82013 0
M  V30 23230 N 2166.89 1.35785 0.800009 0
M  V30 23231 C 2168.14 1.28759 1.55255 0
M  V30 23232 C 2168.46 -0.134123 1.9514 0
M  V30 23233 O 2169.66 -0.3267 2.69527 0
M  V30 23234 C 2168.12 2.25848 2.80215 0
M  V30 23235 C 2167.73 3.73399 2.47542 0
M  V30 23236 C 2169.47 2.27777 3.58215 0
M  V30 23237 C 2167.38 4.62293 3.68834 0
M  V30 23238 H 2166.31 0.478422 0.582777 0
M  V30 23239 H 2168.96 1.61087 0.878812 0
M  V30 23240 H 2167.34 1.86499 3.49334 0
M  V30 23241 H 2168.51 4.21421 1.86389 0
M  V30 23242 H 2166.83 3.74142 1.82775 0
M  V30 23243 H 2169.43 2.91406 4.48315 0
M  V30 23244 H 2169.77 1.28334 3.96025 0
M  V30 23245 H 2170.3 2.65688 2.96065 0
M  V30 23246 H 2167.04 5.6276 3.36127 0
M  V30 23247 H 2166.56 4.18993 4.29191 0
M  V30 23248 H 2168.24 4.78042 4.35987 0
M  V30 23249 N 2168.37 -1.02294 1.19891 0
M  V30 23250 C 2169.62 -1.75196 0.999463 0
M  V30 23251 C 2169.93 -1.89874 -0.469823 0
M  V30 23252 O 2171.14 -2.59806 -0.788235 0
M  V30 23253 C 2169.6 -3.15074 1.73944 0
M  V30 23254 C 2169.2 -3.0843 3.24923 0
M  V30 23255 C 2170.95 -3.9223 1.62345 0
M  V30 23256 C 2168.86 -4.43277 3.91484 0
M  V30 23257 H 2167.79 -0.656782 0.370342 0
M  V30 23258 H 2170.44 -1.14434 1.43447 0
M  V30 23259 H 2168.82 -3.76339 1.23227 0
M  V30 23260 H 2169.99 -2.5651 3.82804 0
M  V30 23261 H 2168.31 -2.44769 3.36864 0
M  V30 23262 H 2170.9 -4.91983 2.09419 0
M  V30 23263 H 2171.25 -4.1226 0.578579 0
M  V30 23264 H 2171.78 -3.37579 2.1044 0
M  V30 23265 H 2168.52 -4.28451 4.96095 0
M  V30 23266 H 2168.04 -4.95228 3.38392 0
M  V30 23267 H 2169.72 -5.12142 3.95373 0
M  V30 23268 N 2169.85 -1.00378 -1.21499 0
M  V30 23269 C 2171.13 -0.601329 -1.86127 0
M  V30 23270 C 2171.51 0.921083 -1.89945 0
M  V30 23271 O 2170.86 1.80753 -1.39787 0
M  V30 23272 C 2171.07 -1.2343 -3.26445 0
M  V30 23273 C 2172.41 -1.34165 -4.02846 0
M  V30 23274 O 2173.44 -1.18952 -3.35751 0
M  V30 23275 O 2172.3 -1.58622 -5.22973 0
M  V30 23276 H 2169.39 -0.205796 -0.800985 0
M  V30 23277 H 2171.94 -1.10035 -1.29192 0
M  V30 23278 H 2170.71 -2.27515 -3.18359 0
M  V30 23279 H 2170.33 -0.721556 -3.90998 0
M  V30 23280 N 2171.33 1.37038 -0.778354 0
M  V30 23281 C 2172.28 2.3207 -0.156991 0
M  V30 23282 C 2173.27 1.55262 0.677503 0
M  V30 23283 O 2174.48 1.70608 0.573826 0
M  V30 23284 H 2170.85 0.75132 -0.0319844 0
M  V30 23285 H 2172.82 2.82052 -0.974127 0
M  V30 23286 C 2171.57 3.40528 0.702542 0
M  V30 23287 H 2170.89 3.99739 0.0697802 0
M  V30 23288 H 2172.33 4.0937 1.10417 0
M  V30 23289 C 2170.79 2.81165 1.85602 0
M  V30 23290 O 2171.32 2.72442 2.95192 0
M  V30 23291 N 2169.53 2.38613 1.65868 0
M  V30 23292 H 2169.08 2.45907 0.767299 0
M  V30 23293 H 2169.03 1.99239 2.4321 0
M  V30 23294 N 2172.81 0.529439 1.48441 0
M  V30 23295 C 2174.05 -0.00485664 2.02499 0
M  V30 23296 C 2174.38 -1.34333 1.40659 0
M  V30 23297 O 2173.64 -1.88057 0.541576 0
M  V30 23298 C 2173.94 -0.176478 3.56964 0
M  V30 23299 C 2173.6 1.08757 4.37587 0
M  V30 23300 C 2172.26 1.434 4.59336 0
M  V30 23301 C 2174.62 1.92647 4.8429 0
M  V30 23302 C 2171.94 2.61831 5.25035 0
M  V30 23303 C 2174.3 3.10256 5.51293 0
M  V30 23304 C 2172.96 3.45246 5.71281 0
M  V30 23305 H 2172.23 -0.00177717 0.740998 0
M  V30 23306 H 2174.88 0.695352 1.7843 0
M  V30 23307 H 2173.18 -0.959449 3.79871 0
M  V30 23308 H 2174.88 -0.604791 3.96413 0
M  V30 23309 H 2171.47 0.807773 4.20919 0
M  V30 23310 H 2175.65 1.67194 4.6729 0
M  V30 23311 H 2170.91 2.89143 5.38708 0
M  V30 23312 H 2175.08 3.75566 5.86449 0
M  V30 23313 H 2172.71 4.37113 6.21961 0
M  V30 23314 N 2174.29 -1.55364 0.264547 0
M  V30 23315 C 2175.23 -2.23519 -0.643568 0
M  V30 23316 C 2176.23 -1.22864 -1.16622 0
M  V30 23317 O 2177.43 -1.40826 -1.12108 0
M  V30 23318 H 2173.81 -0.717216 -0.226066 0
M  V30 23319 H 2175.78 -2.98365 -0.0457788 0
M  V30 23320 C 2174.53 -2.96179 -1.82136 0
M  V30 23321 H 2173.85 -3.73414 -1.42836 0
M  V30 23322 H 2175.29 -3.47204 -2.43362 0
M  V30 23323 C 2173.75 -2.01048 -2.70336 0
M  V30 23324 O 2174.28 -1.55487 -3.70387 0
M  V30 23325 N 2172.49 -1.67772 -2.37278 0
M  V30 23326 H 2172.03 -2.05018 -1.55966 0
M  V30 23327 H 2171.99 -1.0439 -2.96564 0
M  V30 23328 N 2175.76 0.00833021 -1.57598 0
M  V30 23329 C 2176.7 1.03042 -2.04732 0
M  V30 23330 C 2177.71 1.31209 -0.96374 0
M  V30 23331 O 2178.9 1.28332 -1.24069 0
M  V30 23332 C 2176 2.36718 -2.42523 0
M  V30 23333 C 2175.17 2.2761 -3.73513 0
M  V30 23334 C 2174.23 3.43906 -3.98265 0
M  V30 23335 O 2173.26 3.22467 -4.69045 0
M  V30 23336 N 2174.46 4.66478 -3.45512 0
M  V30 23337 H 2177.22 0.628522 -2.93035 0
M  V30 23338 H 2174.78 0.19588 -1.60711 0
M  V30 23339 H 2176.78 3.13277 -2.56203 0
M  V30 23340 H 2175.35 2.68679 -1.59782 0
M  V30 23341 H 2174.57 1.36016 -3.69991 0
M  V30 23342 H 2175.85 2.18689 -4.59405 0
M  V30 23343 H 2175.25 4.86795 -2.88179 0
M  V30 23344 H 2173.81 5.40331 -3.64535 0
M  V30 23345 N 2177.24 1.55075 0.280956 0
M  V30 23346 C 2178.17 1.83809 1.36919 0
M  V30 23347 C 2179.19 0.722116 1.45909 0
M  V30 23348 O 2180.38 0.999868 1.47868 0
M  V30 23349 C 2177.48 1.97895 2.75119 0
M  V30 23350 C 2176.65 3.28485 2.88819 0
M  V30 23351 C 2175.71 3.32736 4.07643 0
M  V30 23352 O 2174.73 4.06159 3.98778 0
M  V30 23353 N 2175.94 2.59566 5.19236 0
M  V30 23354 H 2178.7 2.77736 1.12619 0
M  V30 23355 H 2176.26 1.54895 0.471063 0
M  V30 23356 H 2178.25 1.98119 3.5289 0
M  V30 23357 H 2176.82 1.10872 2.92278 0
M  V30 23358 H 2176.04 3.40868 1.97997 0
M  V30 23359 H 2177.33 4.14624 2.94897 0
M  V30 23360 H 2176.73 1.99582 5.29324 0
M  V30 23361 H 2175.29 2.65521 5.95266 0
M  V30 23362 N 2178.72 -0.545102 1.47873 0
M  V30 23363 C 2179.67 -1.65111 1.61267 0
M  V30 23364 C 2180.64 -1.5974 0.455231 0
M  V30 23365 O 2181.82 -1.78392 0.676821 0
M  V30 23366 C 2178.96 -3.03411 1.64426 0
M  V30 23367 C 2178.07 -3.19128 2.91172 0
M  V30 23368 C 2177.21 -4.47898 2.85589 0
M  V30 23369 C 2176.25 -4.5709 4.07106 0
M  V30 23370 N 2175.39 -5.7723 3.99688 0
M  V30 23371 H 2180.23 -1.53001 2.55724 0
M  V30 23372 H 2177.76 -0.745128 1.26832 0
M  V30 23373 H 2179.72 -3.83511 1.6424 0
M  V30 23374 H 2178.35 -3.14327 0.734727 0
M  V30 23375 H 2177.4 -2.32379 3.01171 0
M  V30 23376 H 2178.71 -3.21783 3.81126 0
M  V30 23377 H 2177.87 -5.36272 2.8372 0
M  V30 23378 H 2176.61 -4.47741 1.93338 0
M  V30 23379 H 2175.61 -3.67125 4.09267 0
M  V30 23380 H 2176.84 -4.58998 5.00498 0
M  V30 23381 H 2174.78 -5.77998 3.10248 0
M  V30 23382 H 2174.7 -5.81315 4.83332 0
M  V30 23383 H 2175.97 -6.67932 4.01854 0
M  V30 23384 N 2180.2 -1.36208 -0.792797 0
M  V30 23385 C 2181.14 -1.30258 -1.90529 0
M  V30 23386 C 2182.11 -0.171903 -1.65208 0
M  V30 23387 O 2183.3 -0.357869 -1.87414 0
M  V30 23388 C 2180.44 -1.09434 -3.27289 0
M  V30 23389 C 2179.55 -2.31548 -3.64705 0
M  V30 23390 C 2178.69 -2.03763 -4.90565 0
M  V30 23391 C 2177.73 -3.21855 -5.20649 0
M  V30 23392 N 2176.86 -2.93756 -6.37692 0
M  V30 23393 H 2181.7 -2.25385 -1.9495 0
M  V30 23394 H 2179.24 -1.12022 -0.953389 0
M  V30 23395 H 2181.2 -0.953883 -4.06149 0
M  V30 23396 H 2179.83 -0.179641 -3.223 0
M  V30 23397 H 2178.88 -2.56409 -2.80996 0
M  V30 23398 H 2180.19 -3.19685 -3.82888 0
M  V30 23399 H 2179.35 -1.86627 -5.77283 0
M  V30 23400 H 2178.09 -1.12931 -4.74445 0
M  V30 23401 H 2177.09 -3.39553 -4.32416 0
M  V30 23402 H 2178.32 -4.13507 -5.38691 0
M  V30 23403 H 2176.26 -2.05533 -6.2297 0
M  V30 23404 H 2176.18 -3.75431 -6.56192 0
M  V30 23405 H 2177.45 -2.80192 -7.27401 0
M  V30 23406 N 2181.68 1.01656 -1.20431 0
M  V30 23407 C 2182.62 2.10198 -0.953184 0
M  V30 23408 C 2183.59 1.6569 0.116613 0
M  V30 23409 O 2184.78 1.90779 -0.0281152 0
M  V30 23410 C 2181.92 3.4129 -0.511397 0
M  V30 23411 C 2181.03 3.99275 -1.64935 0
M  V30 23412 C 2180.17 5.18427 -1.15787 0
M  V30 23413 C 2179.2 5.68496 -2.2689 0
M  V30 23414 N 2178.34 6.78909 -1.7896 0
M  V30 23415 H 2183.18 2.31015 -1.88245 0
M  V30 23416 H 2180.72 1.13288 -0.938314 0
M  V30 23417 H 2182.68 4.16529 -0.236575 0
M  V30 23418 H 2181.31 3.20545 0.380867 0
M  V30 23419 H 2180.36 3.21132 -2.03909 0
M  V30 23420 H 2181.67 4.32437 -2.48595 0
M  V30 23421 H 2180.82 6.00871 -0.839013 0
M  V30 23422 H 2179.56 4.8683 -0.291159 0
M  V30 23423 H 2178.57 4.84657 -2.59592 0
M  V30 23424 H 2179.79 6.02127 -3.14037 0
M  V30 23425 H 2177.74 6.49141 -0.946156 0
M  V30 23426 H 2177.66 7.11265 -2.562 0
M  V30 23427 H 2178.92 7.64917 -1.50074 0
M  V30 23428 N 2183.15 1.01021 1.20965 0
M  V30 23429 C 2184.4 0.695875 1.90168 0
M  V30 23430 C 2184.73 -0.773882 1.78441 0
M  V30 23431 O 2183.98 -1.57716 1.15862 0
M  V30 23432 C 2184.28 1.06913 3.41034 0
M  V30 23433 C 2183.95 2.53402 3.72959 0
M  V30 23434 C 2182.61 2.9343 3.81382 0
M  V30 23435 C 2184.96 3.48268 3.87761 0
M  V30 23436 C 2182.29 4.27275 4.02061 0
M  V30 23437 C 2184.64 4.81794 4.09948 0
M  V30 23438 C 2183.31 5.21537 4.166 0
M  V30 23439 H 2182.58 0.254639 0.695874 0
M  V30 23440 H 2185.22 1.26961 1.43364 0
M  V30 23441 H 2183.53 0.413721 3.8961 0
M  V30 23442 H 2185.23 0.803706 3.92863 0
M  V30 23443 H 2181.82 2.21384 3.66997 0
M  V30 23444 H 2186 3.18506 3.80615 0
M  V30 23445 H 2181.26 4.57631 4.05443 0
M  V30 23446 H 2185.43 5.55233 4.20344 0
M  V30 23447 H 2183.06 6.25264 4.32375 0
M  V30 23448 N 2184.63 -1.36623 0.78561 0
M  V30 23449 C 2185.88 -1.98948 0.355551 0
M  V30 23450 C 2186.2 -1.62665 -1.07541 0
M  V30 23451 O 2185.47 -0.89879 -1.74065 0
M  V30 23452 H 2184.05 -0.735869 0.128476 0
M  V30 23453 H 2186.71 -1.66881 1.00681 0
M  V30 23454 H 2185.81 -3.08921 0.444316 0
M  V30 23455 N 2186.11 -0.537304 -1.48158 0
M  V30 23456 C 2187.36 -0.00587084 -2.02099 0
M  V30 23457 C 2187.68 1.3407 -1.41599 0
M  V30 23458 O 2186.95 1.86993 -0.583977 0
M  V30 23459 H 2185.53 0.000818022 -0.747 0
M  V30 23460 H 2188.19 -0.702798 -1.81788 0
M  V30 23461 H 2187.29 0.0970321 -3.11949 0
M  V30 23462 N 2187.59 1.55221 -0.272782 0
M  V30 23463 C 2188.52 2.19823 0.648896 0
M  V30 23464 C 2189.53 1.18223 1.11925 0
M  V30 23465 O 2190.72 1.44961 1.04156 0
M  V30 23466 C 2187.82 2.80842 1.89687 0
M  V30 23467 C 2187 4.08109 1.5737 0
M  V30 23468 C 2186.05 4.53199 2.6739 0
M  V30 23469 O 2185.08 5.19023 2.33676 0
M  V30 23470 N 2186.28 4.23144 3.97404 0
M  V30 23471 H 2189.05 2.99546 0.0960037 0
M  V30 23472 H 2186.61 1.61628 -0.0937867 0
M  V30 23473 H 2188.6 3.07952 2.62579 0
M  V30 23474 H 2187.17 2.05125 2.35887 0
M  V30 23475 H 2186.39 3.88313 0.67872 0
M  V30 23476 H 2187.68 4.91034 1.33278 0
M  V30 23477 H 2187.08 3.70352 4.27617 0
M  V30 23478 H 2185.63 4.5503 4.66681 0
M  V30 23479 N 2189.07 2.77022e-05 1.576 0
M  V30 23480 C 2190.34 -0.721854 1.81793 0
M  V30 23481 C 2190.72 -1.91987 0.877738 0
M  V30 23482 O 2190.07 -2.28382 -0.0735325 0
M  V30 23483 C 2190.28 -1.12755 3.30284 0
M  V30 23484 C 2191.63 -1.53139 3.96022 0
M  V30 23485 O 2192.65 -1.22134 3.34607 0
M  V30 23486 O 2191.51 -2.10793 5.04211 0
M  V30 23487 H 2188.61 -0.35149 0.748588 0
M  V30 23488 H 2191.15 0.0254839 1.69681 0
M  V30 23489 H 2189.92 -0.273618 3.90342 0
M  V30 23490 H 2189.55 -1.93399 3.47394 0
M  V30 23491 N 2190.54 -1.55222 -0.272728 0
M  V30 23492 C 2191.79 -1.75047 -1.00208 0
M  V30 23493 C 2192.11 -0.559079 -1.8744 0
M  V30 23494 O 2193.31 -0.639745 -2.63855 0
M  V30 23495 C 2191.77 -3.09808 -1.83159 0
M  V30 23496 C 2191.38 -4.36514 -1.00793 0
M  V30 23497 C 2193.12 -3.38981 -2.55523 0
M  V30 23498 C 2191.03 -5.62315 -1.83184 0
M  V30 23499 H 2189.96 -0.652482 -0.377866 0
M  V30 23500 H 2192.61 -1.81681 -0.257744 0
M  V30 23501 H 2190.99 -2.97212 -2.61689 0
M  V30 23502 H 2192.16 -4.60027 -0.266774 0
M  V30 23503 H 2190.48 -4.14486 -0.398824 0
M  V30 23504 H 2193.08 -4.30178 -3.17571 0
M  V30 23505 H 2193.42 -2.59126 -3.25821 0
M  V30 23506 H 2193.95 -3.52676 -1.84022 0
M  V30 23507 H 2190.69 -6.44918 -1.17306 0
M  V30 23508 H 2190.21 -5.42944 -2.54896 0
M  V30 23509 H 2191.89 -6.00624 -2.40542 0
M  V30 23510 N 2192.02 0.537252 -1.4816 0
M  V30 23511 C 2193.27 1.29346 -1.55807 0
M  V30 23512 C 2193.6 1.93149 -0.228836 0
M  V30 23513 O 2192.85 1.79475 0.78021 0
M  V30 23514 C 2193.15 2.40956 -2.6396 0
M  V30 23515 C 2192.82 1.94854 -4.06624 0
M  V30 23516 C 2191.48 1.81998 -4.45455 0
M  V30 23517 C 2193.83 1.59924 -4.96058 0
M  V30 23518 C 2191.16 1.32537 -5.71534 0
M  V30 23519 C 2193.51 1.11928 -6.22619 0
M  V30 23520 C 2192.18 0.976835 -6.60314 0
M  V30 23521 H 2191.45 0.473312 -0.570137 0
M  V30 23522 H 2194.09 0.60034 -1.81847 0
M  V30 23523 H 2192.4 3.15908 -2.31752 0
M  V30 23524 H 2194.09 2.99102 -2.67094 0
M  V30 23525 H 2190.68 2.05809 -3.75953 0
M  V30 23526 H 2194.87 1.6872 -4.66741 0
M  V30 23527 H 2190.12 1.2019 -5.9947 0
M  V30 23528 H 2194.3 0.839689 -6.91319 0
M  V30 23529 H 2191.93 0.591368 -7.57896 0
M  V30 23530 N 2193.5 1.36626 0.785562 0
M  V30 23531 C 2194.43 1.25628 1.90507 0
M  V30 23532 C 2195.41 0.139636 1.61999 0
M  V30 23533 O 2196.6 0.311443 1.85909 0
M  V30 23534 C 2193.72 0.939216 3.25417 0
M  V30 23535 C 2192.77 2.07084 3.72852 0
M  V30 23536 S 2193.6 3.68911 3.88156 0
M  V30 23537 C 2194.76 3.39326 5.25936 0
M  V30 23538 H 2194.99 2.20384 1.99545 0
M  V30 23539 H 2192.52 1.22087 0.945204 0
M  V30 23540 H 2194.48 0.7631 4.03345 0
M  V30 23541 H 2193.14 0.00936923 3.14099 0
M  V30 23542 H 2192.34 1.80365 4.70621 0
M  V30 23543 H 2191.94 2.20637 3.01986 0
M  V30 23544 H 2194.23 2.93458 6.10646 0
M  V30 23545 H 2195.17 4.36373 5.5766 0
M  V30 23546 H 2195.58 2.74582 4.93219 0
M  V30 23547 N 2194.98 -1.01016 1.20969 0
M  V30 23548 C 2196.21 -1.78301 1.04959 0
M  V30 23549 C 2196.62 -1.84495 -0.400883 0
M  V30 23550 O 2195.98 -1.30259 -1.27823 0
M  V30 23551 C 2196.03 -3.22459 1.63409 0
M  V30 23552 O 2195.75 -3.16632 3.0278 0
M  V30 23553 C 2197.25 -4.16266 1.52439 0
M  V30 23554 H 2194.47 -0.560515 0.368868 0
M  V30 23555 H 2197.02 -1.27113 1.60195 0
M  V30 23556 H 2195.17 -3.70773 1.12276 0
M  V30 23557 H 2195.58 -4.07164 3.30633 0
M  V30 23558 H 2197.06 -5.15233 1.98087 0
M  V30 23559 H 2197.54 -4.36592 0.477952 0
M  V30 23560 H 2198.14 -3.73838 2.02794 0
M  V30 23561 N 2196.46 -1.01661 -1.20428 0
M  V30 23562 C 2197.37 -0.596524 -2.26889 0
M  V30 23563 C 2198.38 0.365961 -1.70108 0
M  V30 23564 O 2199.56 0.226907 -2.00118 0
M  V30 23565 C 2196.62 0.058605 -3.4665 0
M  V30 23566 C 2195.68 -0.949824 -4.18661 0
M  V30 23567 C 2194.92 -0.325864 -5.32704 0
M  V30 23568 O 2195.14 0.87441 -5.63658 0
M  V30 23569 O 2194.07 -1.0426 -5.92801 0
M  V30 23570 H 2197.9 -1.48285 -2.65038 0
M  V30 23571 H 2195.49 -0.786105 -1.27046 0
M  V30 23572 H 2197.37 0.42449 -4.19257 0
M  V30 23573 H 2196.04 0.919125 -3.10377 0
M  V30 23574 H 2194.95 -1.36708 -3.48227 0
M  V30 23575 H 2196.28 -1.78031 -4.58875 0
M  V30 23576 N 2197.93 1.36205 -0.792844 0
M  V30 23577 C 2198.84 2.33789 -0.19485 0
M  V30 23578 C 2199.86 1.61207 0.65484 0
M  V30 23579 O 2201.04 1.93171 0.569822 0
M  V30 23580 C 2198.1 3.40405 0.657661 0
M  V30 23581 C 2197.16 4.28782 -0.210924 0
M  V30 23582 C 2196.4 5.30305 0.600993 0
M  V30 23583 O 2196.62 5.40019 1.83673 0
M  V30 23584 O 2195.55 6.019 -0.000914076 0
M  V30 23585 H 2199.38 2.86702 -1.00178 0
M  V30 23586 H 2196.96 1.38734 -0.554366 0
M  V30 23587 H 2198.85 4.05583 1.14368 0
M  V30 23588 H 2197.52 2.89786 1.44242 0
M  V30 23589 H 2196.43 3.66632 -0.743779 0
M  V30 23590 H 2197.76 4.82761 -0.95928 0
M  V30 23591 N 2199.41 0.545154 1.47871 0
M  V30 23592 C 2200.34 -0.246581 2.2787 0
M  V30 23593 C 2201.36 -0.890537 1.36284 0
M  V30 23594 O 2202.55 -0.76642 1.61209 0
M  V30 23595 C 2199.65 -1.36576 3.10161 0
M  V30 23596 C 2198.82 -0.820879 4.29628 0
M  V30 23597 C 2197.88 -1.82306 4.9361 0
M  V30 23598 O 2196.9 -1.37396 5.52369 0
M  V30 23599 N 2198.11 -3.15595 4.87217 0
M  V30 23600 H 2200.87 0.439591 2.96459 0
M  V30 23601 H 2198.43 0.380449 1.57366 0
M  V30 23602 H 2200.42 -2.03468 3.49833 0
M  V30 23603 H 2198.99 -1.95536 2.43894 0
M  V30 23604 H 2198.21 0.0244725 3.94192 0
M  V30 23605 H 2199.5 -0.435973 5.06929 0
M  V30 23606 H 2198.9 -3.54736 4.40657 0
M  V30 23607 H 2197.46 -3.78078 5.30943 0
M  V30 23608 N 2200.89 -1.55074 0.28101 0
M  V30 23609 C 2201.84 -2.22759 -0.603897 0
M  V30 23610 C 2202.81 -1.20311 -1.14518 0
M  V30 23611 O 2203.99 -1.48871 -1.1934 0
M  V30 23612 C 2201.13 -2.95687 -1.77942 0
M  V30 23613 C 2200.25 -4.12866 -1.27143 0
M  V30 23614 C 2199.38 -4.73424 -2.40921 0
M  V30 23615 C 2198.42 -5.82786 -1.87155 0
M  V30 23616 N 2197.56 -6.37382 -2.9443 0
M  V30 23617 H 2202.4 -2.97993 -0.0200716 0
M  V30 23618 H 2199.93 -1.471 0.00186011 0
M  V30 23619 H 2201.89 -3.36189 -2.47049 0
M  V30 23620 H 2200.52 -2.22866 -2.33518 0
M  V30 23621 H 2199.57 -3.77445 -0.473264 0
M  V30 23622 H 2200.89 -4.91716 -0.837664 0
M  V30 23623 H 2200.04 -5.16676 -3.18012 0
M  V30 23624 H 2198.78 -3.93864 -2.87616 0
M  V30 23625 H 2197.78 -5.38978 -1.08547 0
M  V30 23626 H 2199.01 -6.64218 -1.41389 0
M  V30 23627 H 2196.95 -5.60713 -3.40495 0
M  V30 23628 H 2196.87 -7.11521 -2.55488 0
M  V30 23629 H 2198.14 -6.85292 -3.71477 0
M  V30 23630 N 2202.37 -0.00838561 -1.57598 0
M  V30 23631 C 2203.32 0.980309 -2.08946 0
M  V30 23632 C 2204.29 1.33612 -0.986761 0
M  V30 23633 O 2205.47 1.43304 -1.25971 0
M  V30 23634 C 2202.61 2.2643 -2.60429 0
M  V30 23635 C 2201.72 1.96678 -3.84632 0
M  V30 23636 C 2200.86 3.1922 -4.24584 0
M  V30 23637 C 2199.9 2.85192 -5.41601 0
M  V30 23638 N 2199.04 4.00297 -5.76807 0
M  V30 23639 H 2203.88 0.535499 -2.93149 0
M  V30 23640 H 2201.41 0.252751 -1.44912 0
M  V30 23641 H 2203.37 3.01504 -2.88359 0
M  V30 23642 H 2202 2.68565 -1.79088 0
M  V30 23643 H 2201.05 1.11936 -3.63558 0
M  V30 23644 H 2202.36 1.67603 -4.69799 0
M  V30 23645 H 2201.52 4.02633 -4.53841 0
M  V30 23646 H 2200.26 3.51441 -3.38143 0
M  V30 23647 H 2199.26 2.00189 -5.12059 0
M  V30 23648 H 2200.49 2.54211 -6.29725 0
M  V30 23649 H 2198.43 4.32398 -4.93323 0
M  V30 23650 H 2198.35 3.74774 -6.56567 0
M  V30 23651 H 2199.62 4.84473 -6.1066 0
M  V30 23652 N 2203.85 1.55365 0.264492 0
M  V30 23653 C 2205.08 1.80145 1.0115 0
M  V30 23654 C 2205.49 0.579285 1.80114 0
M  V30 23655 O 2204.83 -0.461288 1.77814 0
M  V30 23656 C 2204.89 2.97997 2.01093 0
M  V30 23657 C 2204.55 4.34709 1.40988 0
M  V30 23658 C 2205.55 5.13373 0.821226 0
M  V30 23659 C 2203.24 4.8138 1.43452 0
M  V30 23660 C 2205.23 6.36848 0.265227 0
M  V30 23661 C 2202.92 6.04808 0.874665 0
M  V30 23662 C 2203.92 6.8238 0.291026 0
M  V30 23663 O 2203.6 8.03479 -0.260235 0
M  V30 23664 H 2203.34 0.603731 0.304114 0
M  V30 23665 H 2205.89 2.03226 0.298053 0
M  V30 23666 H 2204.12 2.70628 2.7622 0
M  V30 23667 H 2205.81 3.10025 2.61991 0
M  V30 23668 H 2206.57 4.78443 0.794819 0
M  V30 23669 H 2202.45 4.21005 1.87819 0
M  V30 23670 H 2206 6.97339 -0.190959 0
M  V30 23671 H 2201.89 6.39218 0.89834 0
M  V30 23672 H 2202.66 8.18362 -0.150409 0
M  V30 23673 N 2205.33 -0.529387 1.48443 0
M  V30 23674 C 2206.56 -1.30801 1.59921 0
M  V30 23675 C 2206.96 -1.87421 0.258825 0
M  V30 23676 O 2206.31 -1.67147 -0.762066 0
M  V30 23677 C 2206.37 -2.49632 2.58697 0
M  V30 23678 C 2206.03 -2.14094 4.03748 0
M  V30 23679 C 2207.03 -1.69732 4.91413 0
M  V30 23680 C 2204.71 -2.24599 4.49289 0
M  V30 23681 C 2206.71 -1.3634 6.22648 0
M  V30 23682 C 2204.4 -1.90819 5.80544 0
M  V30 23683 C 2205.39 -1.46761 6.67046 0
M  V30 23684 O 2205.08 -1.13426 7.95858 0
M  V30 23685 H 2204.81 -0.404011 0.541988 0
M  V30 23686 H 2207.37 -0.645274 1.95001 0
M  V30 23687 H 2205.6 -3.18889 2.1874 0
M  V30 23688 H 2207.29 -3.11693 2.60004 0
M  V30 23689 H 2208.05 -1.61086 4.57467 0
M  V30 23690 H 2203.93 -2.57847 3.82146 0
M  V30 23691 H 2207.48 -1.01879 6.90121 0
M  V30 23692 H 2203.37 -1.99107 6.14025 0
M  V30 23693 H 2204.14 -1.26818 8.08616 0
M  V30 23694 N 2206.8 -1.37041 -0.778305 0
M  V30 23695 C 2207.75 -1.32349 -1.91276 0
M  V30 23696 C 2208.75 -0.213361 -1.68051 0
M  V30 23697 O 2209.95 -0.381011 -1.75921 0
M  V30 23698 H 2206.33 -0.412294 -0.628902 0
M  V30 23699 H 2208.3 -2.28131 -1.92351 0
M  V30 23700 C 2207.05 -1.14079 -3.28453 0
M  V30 23701 H 2206.37 -1.98752 -3.46897 0
M  V30 23702 H 2207.81 -1.14845 -4.0815 0
M  V30 23703 C 2206.27 0.153956 -3.36548 0
M  V30 23704 O 2206.8 1.13987 -3.85188 0
M  V30 23705 N 2205 0.202424 -2.89894 0
M  V30 23706 H 2204.55 -0.60052 -2.50503 0
M  V30 23707 H 2204.51 1.06836 -2.95691 0
M  V30 23708 N 2208.28 1.00373 -1.21503 0
M  V30 23709 C 2209.24 2.07336 -0.976963 0
M  V30 23710 C 2210.24 1.60714 0.052504 0
M  V30 23711 O 2211.43 1.73216 -0.1849 0
M  V30 23712 C 2208.57 3.37596 -0.473483 0
M  V30 23713 H 2209.76 2.29889 -1.92591 0
M  V30 23714 H 2207.31 1.17369 -1.03219 0
M  V30 23715 H 2208.05 3.20723 0.480323 0
M  V30 23716 H 2207.83 3.72766 -1.21607 0
M  V30 23717 H 2209.32 4.16319 -0.326824 0
M  V30 23718 N 2209.76 1.02298 1.19887 0
M  V30 23719 C 2210.69 0.543321 2.21638 0
M  V30 23720 C 2211.67 -0.41267 1.57276 0
M  V30 23721 O 2212.85 -0.331166 1.85568 0
M  V30 23722 C 2209.98 -0.208511 3.38058 0
M  V30 23723 C 2209.03 0.698007 4.20749 0
M  V30 23724 S 2209.86 2.17083 4.89525 0
M  V30 23725 C 2211.02 1.42934 6.09361 0
M  V30 23726 H 2211.25 1.40546 2.61981 0
M  V30 23727 H 2208.78 0.83241 1.3004 0
M  V30 23728 H 2210.74 -0.636169 4.05541 0
M  V30 23729 H 2209.4 -1.0463 2.96161 0
M  V30 23730 H 2208.59 0.117919 5.03862 0
M  V30 23731 H 2208.2 1.06372 3.58554 0
M  V30 23732 H 2210.49 0.712756 6.7374 0
M  V30 23733 H 2211.43 2.23685 6.71841 0
M  V30 23734 H 2211.84 0.929425 5.56796 0
M  V30 23735 N 2211.24 -1.35782 0.800057 0
M  V30 23736 C 2212.18 -2.29898 0.203888 0
M  V30 23737 C 2213.15 -1.52496 -0.658348 0
M  V30 23738 O 2214.34 -1.80961 -0.6048 0
M  V30 23739 C 2211.48 -3.38984 -0.64682 0
M  V30 23740 C 2210.59 -4.3136 0.23513 0
M  V30 23741 C 2209.73 -5.27534 -0.622961 0
M  V30 23742 C 2208.77 -6.11548 0.25979 0
M  V30 23743 N 2207.9 -6.9988 -0.557896 0
M  V30 23744 H 2212.74 -2.80294 1.01191 0
M  V30 23745 H 2210.28 -1.37956 0.510554 0
M  V30 23746 H 2212.24 -4.00889 -1.15514 0
M  V30 23747 H 2210.87 -2.89881 -1.42016 0
M  V30 23748 H 2209.92 -3.70516 0.861504 0
M  V30 23749 H 2211.23 -4.90339 0.914854 0
M  V30 23750 H 2210.39 -5.94781 -1.19667 0
M  V30 23751 H 2209.13 -4.69036 -1.33628 0
M  V30 23752 H 2208.13 -5.43255 0.845822 0
M  V30 23753 H 2209.36 -6.72124 0.970866 0
M  V30 23754 H 2207.3 -6.43877 -1.2553 0
M  V30 23755 H 2207.22 -7.55973 0.06392 0
M  V30 23756 H 2208.49 -7.71483 -1.11509 0
M  V30 23757 N 2212.72 -0.552988 -1.4758 0
M  V30 23758 C 2213.66 0.197067 -2.29957 0
M  V30 23759 C 2214.63 0.912335 -1.38801 0
M  V30 23760 O 2215.82 0.908859 -1.67763 0
M  V30 23761 C 2212.96 1.22373 -3.22674 0
M  V30 23762 C 2212.07 0.514963 -4.2892 0
M  V30 23763 C 2211.21 1.52655 -5.08792 0
M  V30 23764 C 2210.24 0.802524 -6.06816 0
M  V30 23765 N 2209.38 1.76074 -6.79663 0
M  V30 23766 H 2214.22 -0.511538 -2.93577 0
M  V30 23767 H 2211.76 -0.264093 -1.4471 0
M  V30 23768 H 2213.72 1.83152 -3.74848 0
M  V30 23769 H 2212.35 1.90042 -2.60929 0
M  V30 23770 H 2211.4 -0.207259 -3.79835 0
M  V30 23771 H 2212.71 -0.0524302 -4.98772 0
M  V30 23772 H 2211.86 2.20799 -5.65095 0
M  V30 23773 H 2210.6 2.12786 -4.38832 0
M  V30 23774 H 2209.61 0.107141 -5.49696 0
M  V30 23775 H 2210.83 0.207016 -6.78784 0
M  V30 23776 H 2208.78 2.35071 -6.12436 0
M  V30 23777 H 2208.7 1.24539 -7.45672 0
M  V30 23778 H 2209.96 2.43346 -7.40542 0
M  V30 23779 N 2214.19 1.54923 -0.28923 0
M  V30 23780 C 2215.12 2.26041 0.58545 0
M  V30 23781 C 2216.1 1.25564 1.14751 0
M  V30 23782 O 2217.29 1.54313 1.17903 0
M  V30 23783 C 2214.42 2.99225 1.763 0
M  V30 23784 C 2213.37 4.06751 1.33184 0
M  V30 23785 C 2212.7 4.67585 2.59362 0
M  V30 23786 C 2214 5.20166 0.471684 0
M  V30 23787 H 2215.69 2.99399 -0.00768794 0
M  V30 23788 H 2213.24 1.43999 -0.0051376 0
M  V30 23789 H 2215.19 3.47694 2.38091 0
M  V30 23790 H 2213.92 2.23426 2.38219 0
M  V30 23791 H 2212.58 3.59114 0.737058 0
M  V30 23792 H 2212.22 3.88438 3.1957 0
M  V30 23793 H 2211.92 5.40196 2.31219 0
M  V30 23794 H 2213.45 5.1881 3.21976 0
M  V30 23795 H 2214.86 5.646 0.994956 0
M  V30 23796 H 2213.26 5.99425 0.284534 0
M  V30 23797 H 2214.33 4.82251 -0.506126 0
M  V30 23798 N 2215.67 0.0167433 1.57591 0
M  V30 23799 C 2216.92 -0.663251 1.90907 0
M  V30 23800 C 2217.24 -1.73375 0.892539 0
M  V30 23801 O 2216.51 -1.95783 -0.0677279 0
M  V30 23802 H 2215.09 -0.247971 0.704641 0
M  V30 23803 H 2217.75 0.0616251 1.94803 0
M  V30 23804 H 2216.85 -1.12387 2.91162 0
M  V30 23805 N 2217.15 -1.55503 -0.256249 0
M  V30 23806 C 2218.38 -1.81278 -1.00762 0
M  V30 23807 C 2218.8 -0.592551 -1.78523 0
M  V30 23808 O 2218.16 0.458239 -1.75413 0
M  V30 23809 C 2218.21 -3.0469 -1.92864 0
M  V30 23810 O 2217.31 -2.8095 -3.01896 0
M  V30 23811 H 2216.65 -0.598669 -0.287213 0
M  V30 23812 H 2219.18 -2.02674 -0.280074 0
M  V30 23813 H 2219.19 -3.33873 -2.34505 0
M  V30 23814 H 2217.87 -3.93145 -1.35682 0
M  V30 23815 H 2216.44 -2.62909 -2.64449 0
M  V30 23816 N 2218.63 0.521507 -1.48721 0
M  V30 23817 C 2219.58 1.62524 -1.63874 0
M  V30 23818 C 2220.55 1.58996 -0.480587 0
M  V30 23819 O 2221.73 1.77293 -0.705116 0
M  V30 23820 C 2218.87 3.00756 -1.69232 0
M  V30 23821 C 2217.98 3.14455 -2.96212 0
M  V30 23822 C 2217.12 4.43298 -2.92678 0
M  V30 23823 C 2216.16 4.50556 -4.14326 0
M  V30 23824 N 2215.29 5.70798 -4.0882 0
M  V30 23825 H 2220.13 1.48913 -2.58126 0
M  V30 23826 H 2217.67 0.724856 -1.28001 0
M  V30 23827 H 2219.63 3.8085 -1.70321 0
M  V30 23828 H 2218.26 3.13119 -0.784641 0
M  V30 23829 H 2217.31 2.27558 -3.0483 0
M  V30 23830 H 2218.62 3.15679 -3.86197 0
M  V30 23831 H 2217.78 5.31691 -2.92215 0
M  V30 23832 H 2216.52 4.44608 -2.00437 0
M  V30 23833 H 2215.52 3.60568 -4.15055 0
M  V30 23834 H 2216.75 4.50977 -5.07737 0
M  V30 23835 H 2214.69 5.7299 -3.19404 0
M  V30 23836 H 2214.61 5.73552 -4.92519 0
M  V30 23837 H 2215.88 6.61455 -4.12429 0
M  V30 23838 N 2220.11 1.37452 0.771027 0
M  V30 23839 C 2221.05 1.33273 1.88433 0
M  V30 23840 C 2222.02 0.198165 1.64914 0
M  V30 23841 O 2223.21 0.387639 1.86821 0
M  V30 23842 C 2220.35 1.14627 3.25507 0
M  V30 23843 C 2219.46 2.3732 3.60975 0
M  V30 23844 C 2218.6 2.11541 4.87261 0
M  V30 23845 C 2217.64 3.30097 5.15463 0
M  V30 23846 N 2216.77 3.03864 6.32938 0
M  V30 23847 H 2221.61 2.28458 1.9134 0
M  V30 23848 H 2219.15 1.13525 0.935446 0
M  V30 23849 H 2221.11 1.01838 4.0458 0
M  V30 23850 H 2219.74 0.230893 3.21973 0
M  V30 23851 H 2218.79 2.60847 2.76881 0
M  V30 23852 H 2220.1 3.25736 3.77754 0
M  V30 23853 H 2219.26 1.95787 5.74241 0
M  V30 23854 H 2217.99 1.20465 4.72588 0
M  V30 23855 H 2217 3.46389 4.26959 0
M  V30 23856 H 2218.22 4.22025 5.32045 0
M  V30 23857 H 2216.17 2.15418 6.19622 0
M  V30 23858 H 2216.09 3.85823 6.50136 0
M  V30 23859 H 2217.36 2.91729 7.22852 0
M  V30 23860 N 2221.58 -0.997276 1.22033 0
M  V30 23861 C 2223 -1.5507 1.03973 0
M  V30 23862 C 2223.35 -1.92118 -0.398158 0
M  V30 23863 O 2222.47 -1.743 -1.28251 0
M  V30 23864 C 2223.07 -2.81778 1.88114 0
M  V30 23865 C 2221.63 -3.33578 1.74363 0
M  V30 23866 C 2220.77 -2.06702 1.8485 0
M  V30 23867 H 2223.72 -0.818859 1.35943 0
M  V30 23868 H 2223.74 -3.53968 1.39595 0
M  V30 23869 H 2223.26 -2.54782 2.92759 0
M  V30 23870 H 2221.36 -3.65492 0.724334 0
M  V30 23871 H 2221.47 -4.04477 2.56779 0
M  V30 23872 H 2219.83 -2.20059 1.28242 0
M  V30 23873 H 2220.62 -1.82109 2.91017 0
M  V30 23874 N 2223.06 -1.02932 -1.19343 0
M  V30 23875 C 2223.99 -0.568609 -2.22035 0
M  V30 23876 C 2225.01 0.355751 -1.58866 0
M  V30 23877 O 2226.2 0.152072 -1.77851 0
M  V30 23878 C 2223.3 0.190693 -3.38363 0
M  V30 23879 C 2222.47 -0.738719 -4.31117 0
M  V30 23880 C 2221.53 -0.0247422 -5.26194 0
M  V30 23881 O 2220.55 -0.651454 -5.6546 0
M  V30 23882 N 2221.76 1.24584 -5.66974 0
M  V30 23883 H 2224.52 -1.45181 -2.62188 0
M  V30 23884 H 2222.08 -0.908405 -1.34013 0
M  V30 23885 H 2224.07 0.677891 -3.98982 0
M  V30 23886 H 2222.64 0.975314 -2.96996 0
M  V30 23887 H 2221.86 -1.406 -3.68273 0
M  V30 23888 H 2223.15 -1.37037 -4.89998 0
M  V30 23889 H 2222.55 1.77573 -5.37107 0
M  V30 23890 H 2221.11 1.67753 -6.29843 0
M  V30 23891 N 2224.54 1.35356 -0.807246 0
M  V30 23892 C 2225.49 2.29786 -0.216077 0
M  V30 23893 C 2226.46 1.52843 0.650252 0
M  V30 23894 O 2227.64 1.81279 0.595195 0
M  V30 23895 C 2224.78 3.39322 0.628834 0
M  V30 23896 C 2223.9 4.31229 -0.258003 0
M  V30 23897 C 2223.03 5.27857 0.594976 0
M  V30 23898 C 2222.07 6.11402 -0.292218 0
M  V30 23899 N 2221.21 7.00166 0.520772 0
M  V30 23900 H 2226.05 2.79753 -1.02676 0
M  V30 23901 H 2223.58 1.37683 -0.517863 0
M  V30 23902 H 2225.54 4.01496 1.13386 0
M  V30 23903 H 2224.17 2.9063 1.40477 0
M  V30 23904 H 2223.22 3.70054 -0.881141 0
M  V30 23905 H 2224.54 4.89846 -0.940845 0
M  V30 23906 H 2223.69 5.95407 1.16511 0
M  V30 23907 H 2222.43 4.69738 1.31138 0
M  V30 23908 H 2221.43 5.42799 -0.87462 0
M  V30 23909 H 2222.66 6.716 -1.0065 0
M  V30 23910 H 2220.6 6.44534 1.22114 0
M  V30 23911 H 2220.52 7.55928 -0.10401 0
M  V30 23912 H 2221.79 7.72063 1.07416 0
M  V30 23913 N 2226.02 0.560807 1.47284 0
M  V30 23914 C 2227.43 0.128376 1.86258 0
M  V30 23915 C 2227.78 -1.30281 1.46701 0
M  V30 23916 O 2226.91 -1.98065 0.871733 0
M  V30 23917 C 2227.5 0.2262 3.38044 0
M  V30 23918 C 2226.06 -0.151217 3.76096 0
M  V30 23919 C 2225.21 0.572131 2.71334 0
M  V30 23920 H 2228.16 0.770322 1.38751 0
M  V30 23921 H 2228.18 -0.554256 3.76442 0
M  V30 23922 H 2227.69 1.26794 3.66804 0
M  V30 23923 H 2225.79 -1.19393 3.52953 0
M  V30 23924 H 2225.9 0.209849 4.7864 0
M  V30 23925 H 2224.27 0.01481 2.54696 0
M  V30 23926 H 2225.05 1.6151 3.02935 0
M  V30 23927 N 2227.5 -1.54768 0.297442 0
M  V30 23928 C 2228.75 -1.99247 -0.313634 0
M  V30 23929 C 2229.06 -1.18945 -1.55279 0
M  V30 23930 O 2230.26 -1.53674 -2.23823 0
M  V30 23931 C 2228.72 -3.54704 -0.609345 0
M  V30 23932 C 2228.33 -4.4381 0.61127 0
M  V30 23933 C 2230.07 -4.07717 -1.18181 0
M  V30 23934 C 2227.98 -5.90694 0.288908 0
M  V30 23935 H 2226.91 -0.744233 -0.120966 0
M  V30 23936 H 2229.56 -1.78961 0.405591 0
M  V30 23937 H 2227.94 -3.70876 -1.38807 0
M  V30 23938 H 2229.12 -4.39412 1.38758 0
M  V30 23939 H 2227.43 -4.0155 1.10212 0
M  V30 23940 H 2230.03 -5.15023 -1.43718 0
M  V30 23941 H 2230.37 -3.58102 -2.12293 0
M  V30 23942 H 2230.9 -3.95074 -0.464874 0
M  V30 23943 H 2227.64 -6.4445 1.19849 0
M  V30 23944 H 2227.16 -5.98108 -0.4502 0
M  V30 23945 H 2228.84 -6.46905 -0.110819 0
M  V30 23946 N 2228.97 -0.0251005 -1.5758 0
M  V30 23947 C 2230.39 0.514292 -1.79477 0
M  V30 23948 C 2230.74 1.72489 -0.934987 0
M  V30 23949 O 2229.86 2.15918 -0.144283 0
M  V30 23950 C 2230.46 0.939785 -3.25505 0
M  V30 23951 C 2229.02 1.42432 -3.48411 0
M  V30 23952 C 2228.16 0.387152 -2.74584 0
M  V30 23953 H 2231.11 -0.251157 -1.567 0
M  V30 23954 H 2231.13 1.80439 -3.34996 0
M  V30 23955 H 2230.65 0.0584946 -3.88056 0
M  V30 23956 H 2228.75 2.32567 -2.91107 0
M  V30 23957 H 2228.86 1.43447 -4.57121 0
M  V30 23958 H 2227.22 0.854367 -2.39943 0
M  V30 23959 H 2228.01 -0.485603 -3.39848 0
M  V30 23960 N 2230.45 1.55637 0.247999 0
M  V30 23961 C 2231.87 1.48036 0.596457 0
M  V30 23962 C 2232.07 0.715073 1.88385 0
M  V30 23963 O 2231.12 0.243988 2.51318 0
M  V30 23964 C 2232.44 2.92434 0.700207 0
M  V30 23965 C 2233.99 3.02798 0.792606 0
M  V30 23966 C 2234.46 4.48501 0.927926 0
M  V30 23967 N 2235.95 4.52435 0.992824 0
M  V30 23968 C 2236.69 5.6242 1.11677 0
M  V30 23969 N 2236.18 6.82217 1.20633 0
M  V30 23970 N 2237.98 5.50214 1.14984 0
M  V30 23971 H 2230.13 2.03833 -0.597145 0
M  V30 23972 H 2232.39 0.925361 -0.205941 0
M  V30 23973 H 2232.1 3.51261 -0.17572 0
M  V30 23974 H 2231.97 3.42859 1.57249 0
M  V30 23975 H 2234.36 2.44053 1.65899 0
M  V30 23976 H 2234.44 2.55585 -0.104807 0
M  V30 23977 H 2234.08 5.07857 0.0661079 0
M  V30 23978 H 2234.01 4.93395 1.84036 0
M  V30 23979 H 2236.5 3.6615 0.934999 0
M  V30 23980 H 2236.82 7.61788 1.29995 0
M  V30 23981 H 2235.16 6.84979 1.17593 0
M  V30 23982 H 2238.35 4.55557 1.07635 0
M  V30 23983 H 2238.52 6.35967 1.24299 0
M  V30 23984 N 2231.93 -0.513613 1.48996 0
M  V30 23985 C 2233.34 -1.09534 1.51192 0
M  V30 23986 C 2233.69 -1.94031 0.29094 0
M  V30 23987 O 2232.82 -2.07903 -0.600453 0
M  V30 23988 C 2233.41 -1.99317 2.73967 0
M  V30 23989 C 2231.97 -2.52677 2.78983 0
M  V30 23990 C 2231.12 -1.30005 2.44937 0
M  V30 23991 H 2234.07 -0.298098 1.55875 0
M  V30 23992 H 2234.09 -2.83834 2.53414 0
M  V30 23993 H 2233.6 -1.37792 3.62815 0
M  V30 23994 H 2231.7 -3.17877 1.94383 0
M  V30 23995 H 2231.82 -2.90692 3.80835 0
M  V30 23996 H 2230.18 -1.62118 1.96443 0
M  V30 23997 H 2230.96 -0.702072 3.36044 0
M  V30 23998 N 2233.41 -1.37859 -0.763727 0
M  V30 23999 C 2234.37 -1.34084 -1.85887 0
M  V30 24000 C 2235.37 -0.243305 -1.58949 0
M  V30 24001 O 2236.56 -0.499619 -1.66882 0
M  V30 24002 C 2233.69 -1.08495 -3.23174 0
M  V30 24003 H 2234.89 -2.31506 -1.90644 0
M  V30 24004 H 2232.44 -1.23004 -0.964345 0
M  V30 24005 H 2233.18 -0.116375 -3.24091 0
M  V30 24006 H 2232.96 -1.87946 -3.4412 0
M  V30 24007 H 2234.45 -1.08524 -4.03252 0
M  V30 24008 N 2234.89 0.990791 -1.22561 0
M  V30 24009 C 2235.84 2.10252 -0.994835 0
M  V30 24010 C 2236.83 1.69284 0.06275 0
M  V30 24011 O 2238.04 1.79776 -0.0898708 0
M  V30 24012 H 2234.41 0.687575 -0.304539 0
M  V30 24013 H 2236.38 2.26888 -1.93816 0
M  V30 24014 C 2235.13 3.42632 -0.591499 0
M  V30 24015 H 2234.45 3.746 -1.39697 0
M  V30 24016 H 2235.89 4.21393 -0.469459 0
M  V30 24017 C 2234.35 3.29565 0.699174 0
M  V30 24018 O 2234.88 3.61526 1.75106 0
M  V30 24019 N 2233.09 2.82744 0.671132 0
M  V30 24020 H 2232.64 2.56934 -0.185181 0
M  V30 24021 H 2232.59 2.74383 1.53497 0
M  V30 24022 N 2236.37 1.03564 1.18795 0
M  V30 24023 C 2237.31 0.622298 2.22252 0
M  V30 24024 C 2238.28 -0.367332 1.61987 0
M  V30 24025 O 2239.47 -0.262459 1.88986 0
M  V30 24026 C 2236.61 -0.0137855 3.45097 0
M  V30 24027 C 2235.72 1.0227 4.1972 0
M  V30 24028 C 2234.86 0.355666 5.30008 0
M  V30 24029 C 2233.89 1.3776 5.96396 0
M  V30 24030 N 2233.03 0.735888 6.98233 0
M  V30 24031 H 2237.87 1.50907 2.56965 0
M  V30 24032 H 2235.41 0.755039 1.26244 0
M  V30 24033 H 2237.37 -0.399875 4.15279 0
M  V30 24034 H 2236 -0.864103 3.11019 0
M  V30 24035 H 2235.05 1.52679 3.48415 0
M  V30 24036 H 2236.36 1.79911 4.65224 0
M  V30 24037 H 2235.51 -0.0849028 6.06641 0
M  V30 24038 H 2234.25 -0.452882 4.85593 0
M  V30 24039 H 2233.26 1.82836 5.18509 0
M  V30 24040 H 2234.48 2.18776 6.42895 0
M  V30 24041 H 2232.43 -0.0524444 6.55979 0
M  V30 24042 H 2232.35 1.45008 7.41963 0
M  V30 24043 H 2233.61 0.319547 7.78845 0
M  V30 24044 N 2237.84 -1.34926 0.814413 0
M  V30 24045 C 2239.09 -1.98541 0.398458 0
M  V30 24046 C 2239.42 -1.64591 -1.03635 0
M  V30 24047 O 2238.67 -0.905191 -1.73507 0
M  V30 24048 C 2238.97 -3.5333 0.537843 0
M  V30 24049 C 2238.64 -4.07169 1.93711 0
M  V30 24050 C 2237.3 -4.21584 2.31991 0
M  V30 24051 C 2239.65 -4.36232 2.85221 0
M  V30 24052 C 2236.98 -4.62385 3.61133 0
M  V30 24053 C 2239.33 -4.78475 4.13817 0
M  V30 24054 C 2238 -4.91096 4.52086 0
M  V30 24055 H 2237.27 -0.726513 0.145806 0
M  V30 24056 H 2239.91 -1.61011 1.03672 0
M  V30 24057 H 2238.22 -3.91368 -0.183837 0
M  V30 24058 H 2239.92 -4.00517 0.196658 0
M  V30 24059 H 2236.51 -3.96406 1.62973 0
M  V30 24060 H 2240.69 -4.24641 2.56893 0
M  V30 24061 H 2235.95 -4.70346 3.90621 0
M  V30 24062 H 2240.12 -4.99923 4.84819 0
M  V30 24063 H 2237.75 -5.22468 5.52205 0
M  V30 24064 N 2239.32 -0.56861 -1.46985 0
M  V30 24065 C 2240.25 0.210297 -2.28233 0
M  V30 24066 C 2241.27 0.868743 -1.37683 0
M  V30 24067 O 2242.46 0.740676 -1.62408 0
M  V30 24068 C 2239.56 1.31625 -3.12295 0
M  V30 24069 C 2238.73 0.752425 -4.3088 0
M  V30 24070 C 2237.79 1.7443 -4.96448 0
M  V30 24071 O 2236.81 1.28591 -5.54485 0
M  V30 24072 N 2238.02 3.07804 -4.92176 0
M  V30 24073 H 2240.78 -0.4867 -2.95722 0
M  V30 24074 H 2238.34 -0.405436 -1.56741 0
M  V30 24075 H 2240.33 1.97877 -3.53025 0
M  V30 24076 H 2238.9 1.91631 -2.46974 0
M  V30 24077 H 2238.12 -0.087182 -3.94104 0
M  V30 24078 H 2239.41 0.35527 -5.07558 0
M  V30 24079 H 2238.81 3.47681 -4.46245 0
M  V30 24080 H 2237.37 3.69583 -5.36891 0
M  V30 24081 N 2240.8 1.54608 -0.305646 0
M  V30 24082 C 2242.05 1.99836 0.301666 0
M  V30 24083 C 2242.37 1.19553 1.54052 0
M  V30 24084 O 2241.64 0.292692 1.93701 0
M  V30 24085 H 2240.22 0.73818 0.114455 0
M  V30 24086 H 2242.88 1.90364 -0.41805 0
M  V30 24087 H 2241.98 3.06842 0.570494 0
M  V30 24088 N 2242.28 0.033457 1.57564 0
M  V30 24089 C 2243.21 -0.98183 2.05998 0
M  V30 24090 C 2244.19 -1.31478 0.956671 0
M  V30 24091 O 2245.37 -1.43071 1.22732 0
M  V30 24092 C 2242.5 -2.30069 2.48568 0
M  V30 24093 C 2241.55 -2.12204 3.69962 0
M  V30 24094 S 2242.38 -1.41683 5.16417 0
M  V30 24095 C 2243.53 -2.7493 5.62285 0
M  V30 24096 H 2243.77 -0.56956 2.91793 0
M  V30 24097 H 2241.3 -0.178349 1.53366 0
M  V30 24098 H 2243.26 -3.05887 2.73758 0
M  V30 24099 H 2241.92 -2.68428 1.63111 0
M  V30 24100 H 2241.11 -3.09715 3.97609 0
M  V30 24101 H 2240.71 -1.44529 3.44946 0
M  V30 24102 H 2243.01 -3.71155 5.66789 0
M  V30 24103 H 2243.95 -2.51942 6.61764 0
M  V30 24104 H 2244.36 -2.80376 4.89949 0
M  V30 24105 N 2243.76 -1.55766 -0.239741 0
M  V30 24106 C 2245 -1.78196 -0.968202 0
M  V30 24107 C 2245.33 -0.599971 -1.847 0
M  V30 24108 O 2244.61 0.401491 -1.90311 0
M  V30 24109 C 2244.89 -3.10567 -1.82264 0
M  V30 24110 C 2244.75 -4.39182 -0.971555 0
M  V30 24111 C 2246.06 -3.39226 -2.80382 0
M  V30 24112 H 2243.18 -0.648287 -0.350561 0
M  V30 24113 H 2245.83 -1.88501 -0.238226 0
M  V30 24114 H 2243.98 -3.01913 -2.44501 0
M  V30 24115 H 2245.65 -4.59835 -0.367327 0
M  V30 24116 H 2243.89 -4.3292 -0.2762 0
M  V30 24117 H 2244.56 -5.28201 -1.60337 0
M  V30 24118 H 2247.04 -3.47889 -2.28281 0
M  V30 24119 H 2245.91 -4.3305 -3.37282 0
M  V30 24120 H 2246.17 -2.60491 -3.57207 0
M  V30 24121 N 2245.23 0.505704 -1.49266 0
M  V30 24122 C 2246.48 1.26012 -1.58515 0
M  V30 24123 C 2246.81 1.9262 -0.269754 0
M  V30 24124 O 2246.06 1.81089 0.741965 0
M  V30 24125 C 2246.36 2.35303 -2.69012 0
M  V30 24126 C 2246.03 1.86185 -4.10665 0
M  V30 24127 C 2244.69 1.72508 -4.49215 0
M  V30 24128 C 2247.04 1.49366 -4.99339 0
M  V30 24129 C 2244.37 1.20384 -5.74216 0
M  V30 24130 C 2246.72 0.986962 -6.24853 0
M  V30 24131 C 2245.39 0.836553 -6.62237 0
M  V30 24132 H 2244.66 0.461112 -0.580049 0
M  V30 24133 H 2247.3 0.561633 -1.83079 0
M  V30 24134 H 2245.61 3.10921 -2.38401 0
M  V30 24135 H 2247.31 2.93369 -2.73378 0
M  V30 24136 H 2243.9 1.97788 -3.80234 0
M  V30 24137 H 2248.08 1.58782 -4.70215 0
M  V30 24138 H 2243.34 1.07447 -6.01885 0
M  V30 24139 H 2247.51 0.692861 -6.92945 0
M  V30 24140 H 2245.14 0.430474 -7.5898 0
M  V30 24141 N 2246.71 1.38262 0.756405 0
M  V30 24142 C 2247.99 1.24838 1.50582 0
M  V30 24143 C 2248.37 -0.151448 2.10556 0
M  V30 24144 O 2247.72 -1.16067 1.96827 0
M  V30 24145 C 2247.93 2.35635 2.57444 0
M  V30 24146 C 2249.28 2.73923 3.24425 0
M  V30 24147 O 2250.3 2.34925 2.67747 0
M  V30 24148 O 2249.16 3.41163 4.26931 0
M  V30 24149 H 2246.25 0.488022 0.667656 0
M  V30 24150 H 2248.8 1.50082 0.792057 0
M  V30 24151 H 2247.57 3.29309 2.11356 0
M  V30 24152 H 2247.19 2.11939 3.36404 0
M  V30 24153 N 2248.19 -0.984277 1.23084 0
M  V30 24154 C 2249.44 -1.72504 1.0606 0
M  V30 24155 C 2249.77 -1.90278 -0.403072 0
M  V30 24156 O 2249.02 -1.44947 -1.31487 0
M  V30 24157 C 2249.32 -3.12917 1.72679 0
M  V30 24158 C 2248.99 -3.15033 3.22591 0
M  V30 24159 C 2247.65 -3.15317 3.63495 0
M  V30 24160 C 2250 -3.10649 4.18505 0
M  V30 24161 C 2247.33 -3.0893 4.98777 0
M  V30 24162 C 2249.68 -3.05804 5.53775 0
M  V30 24163 C 2248.34 -3.04409 5.94047 0
M  V30 24164 H 2247.61 -0.631235 0.388102 0
M  V30 24165 H 2250.26 -1.15213 1.52965 0
M  V30 24166 H 2248.57 -3.7357 1.18123 0
M  V30 24167 H 2250.26 -3.68993 1.56988 0
M  V30 24168 H 2246.85 -3.15566 2.90028 0
M  V30 24169 H 2251.04 -3.09572 3.87916 0
M  V30 24170 H 2246.29 -3.062 5.29199 0
M  V30 24171 H 2250.47 -3.01369 6.27813 0
M  V30 24172 H 2248.09 -2.99214 6.98838 0
M  V30 24173 N 2249.67 -1.04192 -1.18244 0
M  V30 24174 C 2250.91 -0.747155 -1.88535 0
M  V30 24175 C 2251.25 0.723377 -1.80225 0
M  V30 24176 O 2250.52 1.52802 -1.2034 0
M  V30 24177 C 2250.81 -1.2155 -3.38965 0
M  V30 24178 C 2250.66 -2.74823 -3.56079 0
M  V30 24179 C 2251.98 -0.806558 -4.32646 0
M  V30 24180 H 2249.1 -0.272895 -0.684615 0
M  V30 24181 H 2251.74 -1.29415 -1.3911 0
M  V30 24182 H 2249.89 -0.750148 -3.81189 0
M  V30 24183 H 2251.56 -3.29405 -3.2294 0
M  V30 24184 H 2249.8 -3.14587 -2.98693 0
M  V30 24185 H 2250.47 -3.02652 -4.61634 0
M  V30 24186 H 2252.95 -1.20702 -3.98209 0
M  V30 24187 H 2251.83 -1.16199 -5.3646 0
M  V30 24188 H 2252.09 0.290213 -4.41146 0
M  V30 24189 N 2251.15 1.34492 -0.821557 0
M  V30 24190 C 2252.37 2.02552 -0.42192 0
M  V30 24191 C 2252.79 1.61874 0.971717 0
M  V30 24192 O 2252.15 0.823524 1.62863 0
M  V30 24193 C 2252.2 3.57843 -0.512913 0
M  V30 24194 O 2251.92 3.97047 -1.85162 0
M  V30 24195 C 2253.42 4.43168 -0.107999 0
M  V30 24196 H 2250.64 0.64924 -0.169494 0
M  V30 24197 H 2253.18 1.71796 -1.10933 0
M  V30 24198 H 2251.34 3.87194 0.126406 0
M  V30 24199 H 2251.75 4.91729 -1.82491 0
M  V30 24200 H 2253.23 5.5155 -0.222754 0
M  V30 24201 H 2253.7 4.2884 0.948325 0
M  V30 24202 H 2254.31 4.19143 -0.721062 0
M  V30 24203 N 2252.62 0.576397 1.46681 0
M  V30 24204 C 2254.04 0.23759 1.57822 0
M  V30 24205 C 2254.24 -1.26008 1.5724 0
M  V30 24206 O 2253.3 -2.04143 1.48599 0
M  V30 24207 C 2254.61 0.881218 2.87498 0
M  V30 24208 C 2256.16 0.854222 3.01118 0
M  V30 24209 C 2256.63 1.47727 4.33521 0
M  V30 24210 N 2258.12 1.44133 4.40204 0
M  V30 24211 C 2258.86 1.89286 5.41256 0
M  V30 24212 N 2258.35 2.42383 6.49017 0
M  V30 24213 N 2260.15 1.8024 5.32419 0
M  V30 24214 H 2252.3 1.54921 1.45304 0
M  V30 24215 H 2254.56 0.647179 0.692722 0
M  V30 24216 H 2254.27 1.93452 2.93716 0
M  V30 24217 H 2254.14 0.385658 3.75223 0
M  V30 24218 H 2256.53 -0.190439 2.94485 0
M  V30 24219 H 2256.61 1.38774 2.14885 0
M  V30 24220 H 2256.25 2.5211 4.40911 0
M  V30 24221 H 2256.18 0.919038 5.18518 0
M  V30 24222 H 2258.67 1.05314 3.62929 0
M  V30 24223 H 2258.99 2.7471 7.22325 0
M  V30 24224 H 2257.33 2.46405 6.49854 0
M  V30 24225 H 2260.52 1.38521 4.47135 0
M  V30 24226 H 2260.7 2.15746 6.1103 0
M  V30 24227 N 2254.1 -1.54444 0.313841 0
M  V30 24228 C 2255.03 -2.21466 -0.590386 0
M  V30 24229 C 2256.05 -1.21149 -1.08751 0
M  V30 24230 O 2257.24 -1.47672 -1.00276 0
M  V30 24231 C 2254.34 -2.85772 -1.82174 0
M  V30 24232 C 2253.51 -4.12138 -1.46495 0
M  V30 24233 C 2252.57 -4.60129 -2.5528 0
M  V30 24234 O 2251.59 -5.25036 -2.19832 0
M  V30 24235 N 2252.8 -4.33532 -3.86045 0
M  V30 24236 H 2255.56 -2.99695 -0.0165506 0
M  V30 24237 H 2253.12 -1.61323 0.136607 0
M  V30 24238 H 2255.11 -3.14805 -2.54322 0
M  V30 24239 H 2253.68 -2.11307 -2.30365 0
M  V30 24240 H 2252.9 -3.89976 -0.575527 0
M  V30 24241 H 2254.19 -4.94395 -1.20213 0
M  V30 24242 H 2253.59 -3.81559 -4.17647 0
M  V30 24243 H 2252.15 -4.67243 -4.54453 0
M  V30 24244 N 2255.58 -0.0418125 -1.57545 0
M  V30 24245 C 2256.83 0.634987 -1.92603 0
M  V30 24246 C 2257.16 1.71044 -0.919657 0
M  V30 24247 O 2256.43 1.9442 0.055755 0
M  V30 24248 C 2256.72 1.23973 -3.38087 0
M  V30 24249 C 2256.57 0.172978 -4.49467 0
M  V30 24250 C 2257.89 2.1541 -3.83779 0
M  V30 24251 H 2255.01 0.229362 -0.700401 0
M  V30 24252 H 2257.65 -0.101666 -1.89728 0
M  V30 24253 H 2255.8 1.86756 -3.40667 0
M  V30 24254 H 2257.47 -0.458392 -4.59017 0
M  V30 24255 H 2255.72 -0.500072 -4.30908 0
M  V30 24256 H 2256.39 0.635957 -5.48324 0
M  V30 24257 H 2258.86 1.62599 -3.83016 0
M  V30 24258 H 2257.74 2.5467 -4.86245 0
M  V30 24259 H 2258 3.05042 -3.20003 0
M  V30 24260 N 2257.06 1.55891 0.231477 0
M  V30 24261 C 2258.31 1.78442 0.95732 0
M  V30 24262 C 2258.63 0.608852 1.84725 0
M  V30 24263 O 2257.89 -0.407216 1.91416 0
M  V30 24264 C 2258.19 3.06653 1.83571 0
M  V30 24265 C 2257.85 4.3728 1.09985 0
M  V30 24266 C 2256.52 4.72774 0.896546 0
M  V30 24267 C 2258.87 5.17969 0.579467 0
M  V30 24268 C 2256.2 5.8648 0.160793 0
M  V30 24269 C 2258.55 6.32439 -0.142894 0
M  V30 24270 C 2257.21 6.66542 -0.357544 0
M  V30 24271 H 2256.48 0.652966 0.350308 0
M  V30 24272 H 2259.13 1.90159 0.226225 0
M  V30 24273 H 2257.43 2.90015 2.63436 0
M  V30 24274 H 2259.13 3.21302 2.39929 0
M  V30 24275 H 2255.72 4.09405 1.26828 0
M  V30 24276 H 2259.9 4.9099 0.724038 0
M  V30 24277 H 2255.16 6.11398 -0.0158367 0
M  V30 24278 H 2259.33 6.94195 -0.553681 0
M  V30 24279 H 2256.96 7.54495 -0.929599 0
M  V30 24280 N 2258.54 -0.497781 1.49532 0
M  V30 24281 C 2259.81 -1.25912 1.49685 0
M  V30 24282 C 2260.19 -2.09883 0.226376 0
M  V30 24283 O 2259.54 -2.14367 -0.791152 0
M  V30 24284 C 2259.75 -2.11308 2.77759 0
M  V30 24285 C 2261.1 -2.70389 3.27376 0
M  V30 24286 O 2262.12 -2.21573 2.78898 0
M  V30 24287 O 2260.98 -3.59265 4.11814 0
M  V30 24288 H 2258.08 -0.56995 0.599238 0
M  V30 24289 H 2260.62 -0.511788 1.61799 0
M  V30 24290 H 2259.39 -1.49257 3.61715 0
M  V30 24291 H 2259.02 -2.93228 2.6852 0
M  V30 24292 N 2260.01 -1.38661 -0.749062 0
M  V30 24293 C 2261.26 -1.34432 -1.50369 0
M  V30 24294 C 2261.58 0.0616053 -1.95503 0
M  V30 24295 O 2262.78 0.226441 -2.70554 0
M  V30 24296 C 2261.24 -2.36092 -2.7164 0
M  V30 24297 C 2260.85 -3.82329 -2.33513 0
M  V30 24298 C 2262.59 -2.40915 -3.49514 0
M  V30 24299 C 2260.5 -4.75664 -3.51422 0
M  V30 24300 H 2259.43 -0.499721 -0.564619 0
M  V30 24301 H 2262.08 -1.64238 -0.81842 0
M  V30 24302 H 2260.46 -1.99336 -3.42171 0
M  V30 24303 H 2261.63 -4.28049 -1.70619 0
M  V30 24304 H 2259.95 -3.80668 -1.68763 0
M  V30 24305 H 2262.55 -3.07844 -4.37191 0
M  V30 24306 H 2262.89 -1.42944 -3.9099 0
M  V30 24307 H 2263.42 -2.76494 -2.86 0
M  V30 24308 H 2260.16 -5.74847 -3.15009 0
M  V30 24309 H 2259.68 -4.34634 -4.13344 0
M  V30 24310 H 2261.36 -4.93894 -4.17944 0
M  V30 24311 N 2261.49 0.977736 -1.23605 0
M  V30 24312 C 2262.72 1.75989 -1.09738 0
M  V30 24313 C 2263.14 1.84875 0.346825 0
M  V30 24314 O 2262.5 1.31232 1.25091 0
M  V30 24315 C 2262.55 3.1636 -1.73057 0
M  V30 24316 O 2261.65 4.00229 -0.994522 0
M  V30 24317 H 2260.99 0.541357 -0.384485 0
M  V30 24318 H 2263.52 1.22717 -1.63712 0
M  V30 24319 H 2263.53 3.66928 -1.78404 0
M  V30 24320 H 2262.21 3.09208 -2.78142 0
M  V30 24321 H 2260.79 3.5873 -1.01818 0
M  V30 24322 N 2262.97 1.04818 1.1769 0
M  V30 24323 C 2264.22 0.751165 1.87191 0
M  V30 24324 C 2264.53 -0.724409 1.81691 0
M  V30 24325 O 2265.74 -1.13523 2.46627 0
M  V30 24326 C 2264.2 1.29344 3.35854 0
M  V30 24327 C 2263.8 2.79818 3.49865 0
M  V30 24328 C 2265.55 1.07329 4.10707 0
M  V30 24329 C 2263.45 3.27365 4.9253 0
M  V30 24330 H 2262.38 0.2773 0.701157 0
M  V30 24331 H 2265.04 1.26498 1.3293 0
M  V30 24332 H 2263.42 0.707445 3.8963 0
M  V30 24333 H 2264.59 3.4424 3.06326 0
M  V30 24334 H 2262.91 3.0033 2.88428 0
M  V30 24335 H 2265.5 1.40359 5.15949 0
M  V30 24336 H 2265.85 0.0108732 4.16299 0
M  V30 24337 H 2266.38 1.62429 3.63127 0
M  V30 24338 H 2263.12 4.3302 4.92111 0
M  V30 24339 H 2262.64 2.67683 5.36755 0
M  V30 24340 H 2264.32 3.21825 5.61282 0
M  V30 24341 N 2264.45 -1.34055 0.828678 0
M  V30 24342 C 2265.38 -2.27324 0.199803 0
M  V30 24343 C 2266.36 -1.49167 -0.647142 0
M  V30 24344 O 2267.54 -1.7837 -0.609629 0
M  V30 24345 C 2264.67 -3.3095 -0.720396 0
M  V30 24346 C 2263.72 -4.26471 0.0497638 0
M  V30 24347 S 2264.55 -5.16854 1.40081 0
M  V30 24348 C 2265.71 -6.24013 0.485637 0
M  V30 24349 H 2265.94 -2.80314 0.990527 0
M  V30 24350 H 2263.47 -1.4119 0.624881 0
M  V30 24351 H 2265.43 -3.91141 -1.24574 0
M  V30 24352 H 2264.09 -2.76795 -1.48469 0
M  V30 24353 H 2263.28 -4.99791 -0.650017 0
M  V30 24354 H 2262.89 -3.70563 0.505844 0
M  V30 24355 H 2265.18 -6.76741 -0.320553 0
M  V30 24356 H 2266.12 -6.98052 1.18868 0
M  V30 24357 H 2266.53 -5.64455 0.0715101 0
M  V30 24358 N 2265.93 -0.584167 -1.46374 0
M  V30 24359 C 2267.18 -0.0680095 -2.01585 0
M  V30 24360 C 2267.49 1.30042 -1.46111 0
M  V30 24361 O 2268.7 1.908 -1.93151 0
M  V30 24362 C 2267.15 -0.070984 -3.5983 0
M  V30 24363 C 2266.76 -1.43782 -4.243 0
M  V30 24364 C 2268.5 0.391154 -4.22694 0
M  V30 24365 C 2266.41 -1.39845 -5.74628 0
M  V30 24366 H 2265.34 -0.0216553 -0.753689 0
M  V30 24367 H 2267.99 -0.736031 -1.68092 0
M  V30 24368 H 2266.37 0.66323 -3.90407 0
M  V30 24369 H 2267.55 -2.19188 -4.05331 0
M  V30 24370 H 2265.86 -1.8401 -3.73536 0
M  V30 24371 H 2268.46 0.439431 -5.32891 0
M  V30 24372 H 2268.8 1.40899 -3.91731 0
M  V30 24373 H 2269.34 -0.289043 -3.96749 0
M  V30 24374 H 2266.07 -2.39313 -6.10253 0
M  V30 24375 H 2265.59 -0.686609 -5.95857 0
M  V30 24376 H 2267.27 -1.11198 -6.37373 0
M  V30 24377 N 2267.41 1.54275 -0.322027 0
M  V30 24378 C 2268.34 2.27232 0.537371 0
M  V30 24379 C 2269.32 1.2797 1.12061 0
M  V30 24380 O 2270.5 1.56779 1.14603 0
M  V30 24381 C 2267.63 3.02897 1.69913 0
M  V30 24382 C 2266.59 4.09484 1.24526 0
M  V30 24383 C 2265.91 4.72981 2.49385 0
M  V30 24384 C 2267.21 5.21049 0.361243 0
M  V30 24385 H 2268.91 2.99315 -0.0711932 0
M  V30 24386 H 2266.45 1.43956 -0.0356808 0
M  V30 24387 H 2268.4 3.52666 2.30662 0
M  V30 24388 H 2267.13 2.28429 2.33427 0
M  V30 24389 H 2265.79 3.60597 0.660719 0
M  V30 24390 H 2265.44 3.95129 3.11258 0
M  V30 24391 H 2265.14 5.44979 2.19708 0
M  V30 24392 H 2266.66 5.25523 3.10899 0
M  V30 24393 H 2268.07 5.66584 0.874972 0
M  V30 24394 H 2266.47 5.99894 0.157323 0
M  V30 24395 H 2267.54 4.81069 -0.608304 0
M  V30 24396 N 2268.88 0.0501669 1.5752 0
M  V30 24397 C 2270.13 -0.623294 1.91828 0
M  V30 24398 C 2270.45 -1.72063 0.930252 0
M  V30 24399 O 2271.65 -2.45218 1.16534 0
M  V30 24400 C 2270.11 -1.15997 3.40694 0
M  V30 24401 C 2269.72 -0.0948023 4.479 0
M  V30 24402 C 2271.46 -1.80874 3.84038 0
M  V30 24403 C 2269.37 -0.644307 5.8788 0
M  V30 24404 H 2268.3 -0.236584 0.715922 0
M  V30 24405 H 2270.95 0.118893 1.83114 0
M  V30 24406 H 2269.33 -1.95444 3.44409 0
M  V30 24407 H 2270.5 0.678755 4.55774 0
M  V30 24408 H 2268.82 0.456443 4.13891 0
M  V30 24409 H 2271.42 -2.2298 4.85988 0
M  V30 24410 H 2271.76 -2.66005 3.2023 0
M  V30 24411 H 2272.29 -1.08084 3.82835 0
M  V30 24412 H 2269.03 0.169344 6.55281 0
M  V30 24413 H 2268.55 -1.38587 5.8357 0
M  V30 24414 H 2270.23 -1.12752 6.371 0
M  V30 24415 N 2270.36 -1.56011 -0.223207 0
M  V30 24416 C 2271.6 -1.80722 -0.95493 0
M  V30 24417 C 2271.97 -0.623415 -1.81597 0
M  V30 24418 O 2273.17 -0.74979 -2.58131 0
M  V30 24419 C 2271.44 -3.10317 -1.77308 0
M  V30 24420 S 2273 -3.56336 -2.56066 0
M  V30 24421 H 2269.81 -0.634514 -0.320801 0
M  V30 24422 H 2272.42 -1.94251 -0.220652 0
M  V30 24423 H 2271.12 -3.94518 -1.13064 0
M  V30 24424 H 2270.65 -2.99591 -2.54968 0
M  V30 24425 H 2272.67 -3.19543 -3.79614 0
M  V30 24426 N 2271.84 0.489844 -1.49794 0
M  V30 24427 C 2272.77 1.59853 -1.70203 0
M  V30 24428 C 2273.75 1.60936 -0.550789 0
M  V30 24429 O 2274.94 1.775 -0.787872 0
M  V30 24430 C 2272.07 2.98284 -1.77888 0
M  V30 24431 C 2271.02 3.12068 -2.92912 0
M  V30 24432 C 2270.35 4.5196 -2.8572 0
M  V30 24433 C 2271.65 2.91043 -4.33695 0
M  V30 24434 H 2273.34 1.43027 -2.63028 0
M  V30 24435 H 2270.89 0.686642 -1.26575 0
M  V30 24436 H 2272.84 3.75755 -1.90751 0
M  V30 24437 H 2271.56 3.16224 -0.816708 0
M  V30 24438 H 2270.22 2.37024 -2.79669 0
M  V30 24439 H 2269.87 4.66792 -1.87388 0
M  V30 24440 H 2269.57 4.62122 -3.62929 0
M  V30 24441 H 2271.09 5.31477 -3.00607 0
M  V30 24442 H 2272.51 3.58276 -4.47561 0
M  V30 24443 H 2270.9 3.12666 -5.12211 0
M  V30 24444 H 2271.97 1.87063 -4.47365 0
M  V30 24445 N 2273.32 1.39056 0.741698 0
M  V30 24446 C 2274.27 1.37374 1.877 0
M  V30 24447 C 2275.26 0.257841 1.67426 0
M  V30 24448 O 2276.47 0.427519 1.74849 0
M  V30 24449 H 2272.84 0.428823 0.61775 0
M  V30 24450 H 2274.81 2.3315 1.86235 0
M  V30 24451 C 2273.56 1.22747 3.25313 0
M  V30 24452 H 2272.88 2.07879 3.41506 0
M  V30 24453 H 2274.32 1.25626 4.04962 0
M  V30 24454 C 2272.78 -0.0646724 3.36838 0
M  V30 24455 O 2273.31 -1.03734 3.88075 0
M  V30 24456 N 2271.52 -0.125493 2.90329 0
M  V30 24457 H 2271.07 0.666726 2.48822 0
M  V30 24458 H 2271.02 -0.989587 2.9842 0
M  V30 24459 N 2274.8 -0.971167 1.24121 0
M  V30 24460 C 2275.73 -2.06381 0.973767 0
M  V30 24461 C 2276.71 -1.62344 -0.0912376 0
M  V30 24462 O 2277.89 -1.88446 0.0449696 0
M  V30 24463 C 2275.02 -3.3544 0.468805 0
M  V30 24464 C 2274.06 -3.98425 1.52183 0
M  V30 24465 S 2274.9 -4.36497 3.1021 0
M  V30 24466 C 2276.05 -5.68697 2.61408 0
M  V30 24467 H 2276.29 -2.28749 1.89897 0
M  V30 24468 H 2273.82 -1.10861 1.07468 0
M  V30 24469 H 2275.78 -4.10087 0.184084 0
M  V30 24470 H 2274.44 -3.11064 -0.435634 0
M  V30 24471 H 2273.63 -4.91424 1.11885 0
M  V30 24472 H 2273.23 -3.30193 1.75637 0
M  V30 24473 H 2275.52 -6.46056 2.04004 0
M  V30 24474 H 2276.47 -6.13848 3.52982 0
M  V30 24475 H 2276.88 -5.2714 2.01951 0
M  V30 24476 N 2276.27 -1.05441 -1.17133 0
M  V30 24477 C 2277.52 -0.76711 -1.87732 0
M  V30 24478 C 2277.85 0.704221 -1.80982 0
M  V30 24479 O 2277.13 1.51517 -1.21954 0
M  V30 24480 C 2277.41 -1.25139 -3.37657 0
M  V30 24481 C 2277.26 -2.78584 -3.53145 0
M  V30 24482 C 2278.58 -0.8524 -4.31766 0
M  V30 24483 H 2275.7 -0.280141 -0.681682 0
M  V30 24484 H 2278.34 -1.30883 -1.3773 0
M  V30 24485 H 2276.49 -0.790536 -3.80372 0
M  V30 24486 H 2278.17 -3.32812 -3.19428 0
M  V30 24487 H 2276.41 -3.17737 -2.9534 0
M  V30 24488 H 2277.08 -3.07531 -4.58398 0
M  V30 24489 H 2279.56 -1.24918 -3.96906 0
M  V30 24490 H 2278.43 -1.21883 -5.35197 0
M  V30 24491 H 2278.69 0.243407 -4.41429 0
M  V30 24492 N 2277.75 1.33613 -0.835776 0
M  V30 24493 C 2278.98 2.02093 -0.443379 0
M  V30 24494 C 2279.4 1.62895 0.954493 0
M  V30 24495 O 2278.75 0.840752 1.6198 0
M  V30 24496 C 2278.8 3.57279 -0.550838 0
M  V30 24497 O 2278.52 3.95061 -1.89363 0
M  V30 24498 C 2280.03 4.43029 -0.154997 0
M  V30 24499 H 2277.25 0.647406 -0.17637 0
M  V30 24500 H 2279.79 1.7061 -1.12749 0
M  V30 24501 H 2277.94 3.87306 0.0853316 0
M  V30 24502 H 2278.36 4.89766 -1.87696 0
M  V30 24503 H 2279.83 5.51283 -0.281241 0
M  V30 24504 H 2280.31 4.29821 0.902788 0
M  V30 24505 H 2280.92 4.18355 -0.765477 0
M  V30 24506 N 2279.23 0.591922 1.46062 0
M  V30 24507 C 2280.16 -0.184577 2.27452 0
M  V30 24508 C 2281.14 -0.888327 1.36189 0
M  V30 24509 O 2282.33 -0.900361 1.65607 0
M  V30 24510 C 2279.45 -1.26565 3.14164 0
M  V30 24511 C 2278.5 -0.66674 4.21256 0
M  V30 24512 S 2279.33 0.513439 5.33033 0
M  V30 24513 C 2280.49 -0.56861 6.23312 0
M  V30 24514 H 2280.72 0.50599 2.92963 0
M  V30 24515 H 2278.25 0.379041 1.49675 0
M  V30 24516 H 2280.21 -1.88457 3.64684 0
M  V30 24517 H 2278.87 -1.92821 2.47949 0
M  V30 24518 H 2278.07 -1.47966 4.81791 0
M  V30 24519 H 2277.67 -0.123294 3.73797 0
M  V30 24520 H 2279.96 -1.45186 6.61761 0
M  V30 24521 H 2280.9 0.000196849 7.081 0
M  V30 24522 H 2281.31 -0.876898 5.57648 0
M  V30 24523 N 2280.71 -1.54102 0.330204 0
M  V30 24524 C 2281.64 -2.20826 -0.575438 0
M  V30 24525 C 2282.62 -1.1876 -1.11062 0
M  V30 24526 O 2283.8 -1.47526 -1.17339 0
M  V30 24527 C 2280.93 -2.87519 -1.79027 0
M  V30 24528 C 2279.98 -4.0336 -1.38574 0
M  V30 24529 S 2280.81 -5.33875 -0.416817 0
M  V30 24530 C 2281.97 -6.04065 -1.63878 0
M  V30 24531 H 2282.2 -2.97299 -0.00866888 0
M  V30 24532 H 2279.73 -1.53976 0.114281 0
M  V30 24533 H 2281.69 -3.26565 -2.48728 0
M  V30 24534 H 2280.35 -2.10836 -2.32823 0
M  V30 24535 H 2279.54 -4.48912 -2.29115 0
M  V30 24536 H 2279.15 -3.66022 -0.768355 0
M  V30 24537 H 2281.44 -6.26648 -2.57525 0
M  V30 24538 H 2282.38 -6.97418 -1.2253 0
M  V30 24539 H 2282.79 -5.34056 -1.82877 0
M  V30 24540 N 2282.19 -0.0585199 -1.57491 0
M  V30 24541 C 2283.43 0.614524 -1.93265 0
M  V30 24542 C 2283.77 1.70059 -0.937746 0
M  V30 24543 O 2283.04 1.94468 0.0351311 0
M  V30 24544 C 2283.32 1.2038 -3.39383 0
M  V30 24545 C 2283.18 0.125296 -4.49625 0
M  V30 24546 C 2284.5 2.11327 -3.86043 0
M  V30 24547 H 2281.61 0.22192 -0.702795 0
M  V30 24548 H 2284.26 -0.121783 -1.89609 0
M  V30 24549 H 2282.41 1.83133 -3.42629 0
M  V30 24550 H 2284.08 -0.507051 -4.58505 0
M  V30 24551 H 2282.32 -0.545747 -4.30353 0
M  V30 24552 H 2282.99 0.577765 -5.48968 0
M  V30 24553 H 2285.47 1.58527 -3.84719 0
M  V30 24554 H 2284.34 2.49499 -4.88919 0
M  V30 24555 H 2284.61 3.0163 -3.23221 0
M  V30 24556 N 2283.66 1.56128 0.21493 0
M  V30 24557 C 2284.57 1.96131 1.28724 0
M  V30 24558 C 2285.59 0.866071 1.50915 0
M  V30 24559 O 2286.77 1.17019 1.63916 0
M  V30 24560 C 2283.83 2.27562 2.61565 0
M  V30 24561 C 2282.89 3.5069 2.47619 0
M  V30 24562 C 2282.13 3.80612 3.74125 0
M  V30 24563 O 2282.35 3.12112 4.77433 0
M  V30 24564 O 2281.28 4.74089 3.70841 0
M  V30 24565 H 2285.11 2.87529 0.977805 0
M  V30 24566 H 2282.69 1.43424 0.418333 0
M  V30 24567 H 2284.58 2.48944 3.40007 0
M  V30 24568 H 2283.25 1.39337 2.92176 0
M  V30 24569 H 2282.16 3.34579 1.67355 0
M  V30 24570 H 2283.49 4.39319 2.21946 0
M  V30 24571 N 2285.14 -0.481893 1.50052 0
M  V30 24572 C 2286.37 -1.25829 1.64239 0
M  V30 24573 C 2286.79 -1.86045 0.321369 0
M  V30 24574 O 2286.14 -1.6873 -0.695448 0
M  V30 24575 C 2286.19 -2.37482 2.72552 0
M  V30 24576 O 2285.91 -1.79738 3.99532 0
M  V30 24577 C 2287.42 -3.28541 2.97616 0
M  V30 24578 H 2284.64 -0.380947 0.552377 0
M  V30 24579 H 2287.18 -0.576433 1.96208 0
M  V30 24580 H 2285.33 -3.01463 2.43308 0
M  V30 24581 H 2285.75 -2.53182 4.59347 0
M  V30 24582 H 2287.22 -4.0312 3.77092 0
M  V30 24583 H 2287.7 -3.8668 2.08266 0
M  V30 24584 H 2288.31 -2.70308 3.2835 0
M  V30 24585 N 2286.62 -1.39448 -0.734313 0
M  V30 24586 C 2287.9 -1.27217 -1.48577 0
M  V30 24587 C 2288.28 0.117931 -2.1077 0
M  V30 24588 O 2287.63 1.12921 -1.98648 0
M  V30 24589 C 2287.84 -2.397 -2.53663 0
M  V30 24590 C 2289.18 -2.7905 -3.20026 0
M  V30 24591 O 2290.21 -2.39155 -2.63976 0
M  V30 24592 O 2289.07 -3.47912 -4.21449 0
M  V30 24593 H 2286.16 -0.498582 -0.659807 0
M  V30 24594 H 2288.71 -1.51323 -0.76808 0
M  V30 24595 H 2287.48 -3.3263 -2.0609 0
M  V30 24596 H 2287.1 -2.17264 -3.3299 0
M  V30 24597 N 2288.1 0.964571 -1.24635 0
M  V30 24598 C 2289.38 1.68352 -0.995839 0
M  V30 24599 C 2289.76 2.05549 0.480927 0
M  V30 24600 O 2289.1 1.76108 1.45596 0
M  V30 24601 C 2289.31 2.91319 -1.92182 0
M  V30 24602 C 2290.66 3.63491 -2.19453 0
M  V30 24603 O 2291.69 3.01382 -1.89861 0
M  V30 24604 O 2290.54 4.75302 -2.69723 0
M  V30 24605 H 2287.64 0.736139 -0.376867 0
M  V30 24606 H 2290.18 1.01838 -1.35746 0
M  V30 24607 H 2288.96 2.60548 -2.91943 0
M  V30 24608 H 2288.58 3.65566 -1.56356 0
M  V30 24609 N 2289.58 1.0606 1.16572 0
M  V30 24610 C 2290.51 0.627278 2.20449 0
M  V30 24611 C 2291.52 -0.313506 1.59753 0
M  V30 24612 O 2292.71 -0.104865 1.78192 0
M  V30 24613 C 2289.81 -0.100915 3.3875 0
M  V30 24614 C 2288.98 0.852763 4.29007 0
M  V30 24615 C 2288.04 0.164245 5.25944 0
M  V30 24616 O 2287.07 0.801146 5.63534 0
M  V30 24617 N 2288.27 -1.09508 5.70077 0
M  V30 24618 H 2291.04 1.52082 2.58247 0
M  V30 24619 H 2288.6 0.943617 1.31558 0
M  V30 24620 H 2290.59 -0.57187 4.00639 0
M  V30 24621 H 2289.16 -0.896228 2.99477 0
M  V30 24622 H 2288.38 1.50314 3.64416 0
M  V30 24623 H 2289.67 1.49981 4.86193 0
M  V30 24624 H 2289.06 -1.6327 5.41627 0
M  V30 24625 H 2287.62 -1.50995 6.34069 0
M  V30 24626 N 2291.06 -1.33168 0.84285 0
M  V30 24627 C 2292.3 -1.97261 0.439612 0
M  V30 24628 C 2292.62 -1.6708 -1.00545 0
M  V30 24629 O 2291.89 -0.971809 -1.70096 0
M  V30 24630 H 2290.47 -0.729758 0.159571 0
M  V30 24631 H 2293.14 -1.62461 1.07668 0
M  V30 24632 H 2292.23 -3.06759 0.57494 0
M  V30 24633 N 2292.53 -0.599659 -1.45746 0
M  V30 24634 C 2293.48 0.123808 -2.30468 0
M  V30 24635 C 2294.45 0.867715 -1.41633 0
M  V30 24636 O 2295.64 0.855026 -1.70569 0
M  V30 24637 C 2292.78 1.12046 -3.26404 0
M  V30 24638 C 2291.89 0.378245 -4.30341 0
M  V30 24639 C 2291.02 1.36391 -5.13392 0
M  V30 24640 C 2290.06 0.609064 -6.09062 0
M  V30 24641 N 2289.2 1.54362 -6.84921 0
M  V30 24642 H 2294.04 -0.604678 -2.91801 0
M  V30 24643 H 2291.58 -0.309997 -1.43796 0
M  V30 24644 H 2293.53 1.71134 -3.80485 0
M  V30 24645 H 2292.16 1.81645 -2.66842 0
M  V30 24646 H 2291.22 -0.327996 -3.78983 0
M  V30 24647 H 2292.53 -0.211084 -4.98353 0
M  V30 24648 H 2291.68 2.02709 -5.71834 0
M  V30 24649 H 2290.42 1.98717 -4.45379 0
M  V30 24650 H 2289.43 -0.0677945 -5.49758 0
M  V30 24651 H 2290.65 -0.00903928 -6.79099 0
M  V30 24652 H 2288.6 2.15467 -6.19605 0
M  V30 24653 H 2288.51 1.00753 -7.49256 0
M  V30 24654 H 2289.78 2.19663 -7.47909 0
M  V30 24655 N 2294.01 1.53925 -0.338371 0
M  V30 24656 C 2295.24 2.04946 0.260883 0
M  V30 24657 C 2295.65 1.21333 1.45172 0
M  V30 24658 O 2294.99 0.240294 1.82122 0
M  V30 24659 C 2295.05 3.51706 0.744535 0
M  V30 24660 C 2294.72 4.55836 -0.325963 0
M  V30 24661 C 2295.72 5.06634 -1.16696 0
M  V30 24662 C 2293.4 5.00017 -0.478405 0
M  V30 24663 C 2295.39 6.00188 -2.14599 0
M  V30 24664 C 2293.08 5.93383 -1.46083 0
M  V30 24665 C 2294.08 6.43356 -2.29308 0
M  V30 24666 O 2293.77 7.34886 -3.2588 0
M  V30 24667 H 2293.5 0.67375 0.0551089 0
M  V30 24668 H 2296.05 1.99543 -0.487019 0
M  V30 24669 H 2294.28 3.54556 1.54359 0
M  V30 24670 H 2295.97 3.85725 1.26377 0
M  V30 24671 H 2296.74 4.73269 -1.06025 0
M  V30 24672 H 2292.62 4.60724 0.159532 0
M  V30 24673 H 2296.16 6.39118 -2.79596 0
M  V30 24674 H 2292.06 6.26163 -1.56813 0
M  V30 24675 H 2292.83 7.52804 -3.21291 0
M  V30 24676 N 2295.49 0.0668712 1.57458 0
M  V30 24677 C 2296.42 -0.937914 2.08035 0
M  V30 24678 C 2297.4 -1.2942 0.984344 0
M  V30 24679 O 2298.58 -1.40435 1.25739 0
M  V30 24680 C 2295.71 -2.24745 2.53392 0
M  V30 24681 C 2294.76 -2.04309 3.7438 0
M  V30 24682 S 2295.59 -1.30697 5.19306 0
M  V30 24683 C 2296.75 -2.62941 5.6799 0
M  V30 24684 H 2296.98 -0.507539 2.92936 0
M  V30 24685 H 2294.51 -0.145777 1.5371 0
M  V30 24686 H 2296.47 -3.00011 2.80185 0
M  V30 24687 H 2295.13 -2.64908 1.68768 0
M  V30 24688 H 2294.32 -3.01211 4.04089 0
M  V30 24689 H 2293.93 -1.37179 3.47934 0
M  V30 24690 H 2296.22 -3.5905 5.74534 0
M  V30 24691 H 2297.16 -2.37848 6.66959 0
M  V30 24692 H 2297.57 -2.6992 4.95786 0
M  V30 24693 N 2296.97 -1.56239 -0.206647 0
M  V30 24694 C 2298.2 -1.84042 -0.945313 0
M  V30 24695 C 2298.61 -0.647917 -1.77334 0
M  V30 24696 O 2297.97 0.38348 -1.78426 0
M  V30 24697 C 2298.02 -3.10525 -1.85084 0
M  V30 24698 O 2297.74 -4.25176 -1.05626 0
M  V30 24699 C 2299.24 -3.51423 -2.70216 0
M  V30 24700 H 2296.46 -0.611445 -0.276362 0
M  V30 24701 H 2299 -2.03341 -0.217381 0
M  V30 24702 H 2297.16 -2.93157 -2.53254 0
M  V30 24703 H 2297.57 -4.97126 -1.67229 0
M  V30 24704 H 2299.05 -4.42922 -3.2943 0
M  V30 24705 H 2299.52 -2.7387 -3.43354 0
M  V30 24706 H 2300.13 -3.71282 -2.07436 0
M  V30 24707 N 2298.45 0.473929 -1.50305 0
M  V30 24708 C 2299.38 1.58039 -1.71889 0
M  V30 24709 C 2300.36 1.60343 -0.567827 0
M  V30 24710 O 2301.54 1.76654 -0.806654 0
M  V30 24711 C 2298.67 2.9638 -1.81041 0
M  V30 24712 C 2297.63 3.08943 -2.96206 0
M  V30 24713 C 2296.95 4.48904 -2.90498 0
M  V30 24714 C 2298.25 2.86427 -4.36757 0
M  V30 24715 H 2299.95 1.4023 -2.6453 0
M  V30 24716 H 2297.49 0.673178 -1.27296 0
M  V30 24717 H 2299.44 3.73711 -1.94726 0
M  V30 24718 H 2298.17 3.1534 -0.850202 0
M  V30 24719 H 2296.83 2.34045 -2.82168 0
M  V30 24720 H 2296.48 4.64778 -1.92329 0
M  V30 24721 H 2296.18 4.58246 -3.6781 0
M  V30 24722 H 2297.7 5.28259 -3.06227 0
M  V30 24723 H 2299.11 3.53509 -4.51336 0
M  V30 24724 H 2297.51 3.07216 -5.15498 0
M  V30 24725 H 2298.58 1.82308 -4.49324 0
M  V30 24726 N 2299.92 1.39835 0.726907 0
M  V30 24727 C 2301.17 1.37703 1.48882 0
M  V30 24728 C 2301.5 -0.024451 1.94185 0
M  V30 24729 O 2300.78 -0.990956 1.67363 0
M  V30 24730 C 2301.06 2.35655 2.72284 0
M  V30 24731 C 2300.91 3.84779 2.32949 0
M  V30 24732 C 2302.23 2.31312 3.7441 0
M  V30 24733 H 2299.35 0.501509 0.540053 0
M  V30 24734 H 2301.99 1.70887 0.830516 0
M  V30 24735 H 2300.14 2.07487 3.28453 0
M  V30 24736 H 2301.82 4.23729 1.82349 0
M  V30 24737 H 2300.06 4.01162 1.65081 0
M  V30 24738 H 2300.73 4.48816 3.21354 0
M  V30 24739 H 2303.21 2.56237 3.27844 0
M  V30 24740 H 2302.08 3.01916 4.58408 0
M  V30 24741 H 2302.34 1.32089 4.21906 0
M  V30 24742 N 2301.4 -0.957948 1.25144 0
M  V30 24743 C 2302.33 -2.07171 1.07715 0
M  V30 24744 C 2303.31 -1.70095 -0.0128163 0
M  V30 24745 O 2304.5 -1.93572 0.156095 0
M  V30 24746 C 2301.63 -3.40345 0.691562 0
M  V30 24747 C 2300.58 -3.91416 1.73139 0
M  V30 24748 C 2299.91 -5.21047 1.20059 0
M  V30 24749 C 2301.21 -4.18164 3.12947 0
M  V30 24750 H 2302.9 -2.22011 2.00877 0
M  V30 24751 H 2300.45 -1.06682 0.96721 0
M  V30 24752 H 2302.4 -4.17708 0.556578 0
M  V30 24753 H 2301.12 -3.25434 -0.275761 0
M  V30 24754 H 2299.78 -3.16219 1.85476 0
M  V30 24755 H 2299.43 -5.02503 0.223587 0
M  V30 24756 H 2299.13 -5.56186 1.89554 0
M  V30 24757 H 2300.66 -6.0101 1.07792 0
M  V30 24758 H 2302.07 -4.86198 3.03783 0
M  V30 24759 H 2300.47 -4.64552 3.79883 0
M  V30 24760 H 2301.54 -3.24567 3.60256 0
M  V30 24761 N 2302.88 -1.06677 -1.16008 0
M  V30 24762 C 2304.1 -0.80674 -1.91067 0
M  V30 24763 C 2304.53 0.633454 -1.77113 0
M  V30 24764 O 2303.89 1.44185 -1.0991 0
M  V30 24765 C 2303.94 -1.21112 -3.39653 0
M  V30 24766 O 2303.04 -0.352262 -4.10893 0
M  V30 24767 H 2302.38 -0.294497 -0.59512 0
M  V30 24768 H 2304.91 -1.42359 -1.46953 0
M  V30 24769 H 2304.92 -1.18435 -3.90432 0
M  V30 24770 H 2303.6 -2.26014 -3.49128 0
M  V30 24771 H 2302.17 -0.440933 -3.70284 0
M  V30 24772 N 2304.36 1.32719 -0.8499 0
M  V30 24773 C 2305.77 1.50218 -0.539128 0
M  V30 24774 C 2305.97 1.7869 0.931239 0
M  V30 24775 O 2305.03 1.85366 1.71452 0
M  V30 24776 C 2306.34 2.64952 -1.42201 0
M  V30 24777 C 2307.89 2.78837 -1.42194 0
M  V30 24778 C 2308.37 3.96644 -2.28992 0
M  V30 24779 N 2309.86 4.03898 -2.26761 0
M  V30 24780 C 2310.59 4.94276 -2.90653 0
M  V30 24781 N 2310.09 5.89693 -3.63639 0
M  V30 24782 N 2311.88 4.8736 -2.80066 0
M  V30 24783 H 2304.03 1.12503 -1.80158 0
M  V30 24784 H 2306.29 0.554071 -0.769226 0
M  V30 24785 H 2306 2.50627 -2.46737 0
M  V30 24786 H 2305.87 3.60622 -1.10597 0
M  V30 24787 H 2308.26 2.92588 -0.384242 0
M  V30 24788 H 2308.34 1.83895 -1.7781 0
M  V30 24789 H 2307.99 3.83652 -3.32826 0
M  V30 24790 H 2307.92 4.90853 -1.9071 0
M  V30 24791 H 2310.41 3.35617 -1.73694 0
M  V30 24792 H 2310.72 6.55342 -4.09569 0
M  V30 24793 H 2309.07 5.89735 -3.67747 0
M  V30 24794 H 2312.26 4.11785 -2.226 0
M  V30 24795 H 2312.43 5.57593 -3.30142 0
M  V30 24796 N 2305.84 0.60738 1.45426 0
M  V30 24797 C 2307.09 0.100071 2.01452 0
M  V30 24798 C 2307.4 -1.27701 1.48161 0
M  V30 24799 O 2308.6 -1.87703 1.96162 0
M  V30 24800 C 2307.06 0.128221 3.59672 0
M  V30 24801 C 2306.67 1.50514 4.21959 0
M  V30 24802 C 2308.41 -0.323857 4.23263 0
M  V30 24803 C 2306.32 1.48969 5.72331 0
M  V30 24804 H 2305.25 0.0336431 0.753249 0
M  V30 24805 H 2307.9 0.762679 1.669 0
M  V30 24806 H 2306.28 -0.601036 3.91412 0
M  V30 24807 H 2307.46 2.25609 4.01792 0
M  V30 24808 H 2305.77 1.8993 3.70561 0
M  V30 24809 H 2308.37 -0.354597 5.33523 0
M  V30 24810 H 2308.71 -1.34649 3.93923 0
M  V30 24811 H 2309.24 0.352126 3.96238 0
M  V30 24812 H 2305.98 2.48992 6.06369 0
M  V30 24813 H 2305.5 0.781318 5.94689 0
M  V30 24814 H 2307.18 1.21324 6.35523 0
M  V30 24815 N 2307.31 -1.53743 0.34653 0
M  V30 24816 C 2308.26 -2.26617 -0.52418 0
M  V30 24817 C 2309.26 -1.28873 -1.09946 0
M  V30 24818 O 2310.46 -1.4657 -1.04485 0
M  V30 24819 H 2306.84 -0.728191 -0.18773 0
M  V30 24820 H 2308.81 -2.98188 0.112442 0
M  V30 24821 C 2307.56 -3.05417 -1.6618 0
M  V30 24822 H 2306.88 -3.8046 -1.22841 0
M  V30 24823 H 2308.32 -3.59616 -2.24615 0
M  V30 24824 C 2306.78 -2.15095 -2.59299 0
M  V30 24825 O 2307.31 -1.74902 -3.61624 0
M  V30 24826 N 2305.52 -1.80114 -2.28051 0
M  V30 24827 H 2305.06 -2.12997 -1.44879 0
M  V30 24828 H 2305.02 -1.19964 -2.90613 0
M  V30 24829 N 2308.79 -0.0752207 -1.5742 0
M  V30 24830 C 2309.72 0.888286 -2.15944 0
M  V30 24831 C 2310.7 1.30804 -1.08739 0
M  V30 24832 O 2311.89 1.37848 -1.3679 0
M  V30 24833 C 2309.02 2.15465 -2.72382 0
M  V30 24834 C 2307.97 1.87418 -3.84784 0
M  V30 24835 C 2307.3 3.20714 -4.2784 0
M  V30 24836 C 2308.6 1.17675 -5.08871 0
M  V30 24837 H 2310.29 0.400747 -2.96706 0
M  V30 24838 H 2307.84 0.191317 -1.42723 0
M  V30 24839 H 2309.79 2.83289 -3.1197 0
M  V30 24840 H 2308.52 2.66467 -1.88846 0
M  V30 24841 H 2307.17 1.21998 -3.45705 0
M  V30 24842 H 2306.82 3.69564 -3.41221 0
M  V30 24843 H 2306.52 3.02738 -5.03611 0
M  V30 24844 H 2308.05 3.8973 -4.70046 0
M  V30 24845 H 2309.46 1.75574 -5.45753 0
M  V30 24846 H 2307.86 1.09946 -5.89942 0
M  V30 24847 H 2308.93 0.156368 -4.84648 0
M  V30 24848 N 2310.27 1.56347 0.198358 0
M  V30 24849 C 2311.52 1.807 0.920616 0
M  V30 24850 C 2311.85 0.64873 1.83044 0
M  V30 24851 O 2311.12 -0.350892 1.91309 0
M  V30 24852 C 2311.41 3.1529 1.73966 0
M  V30 24853 C 2311.26 4.41604 0.854773 0
M  V30 24854 C 2312.58 3.4654 2.71289 0
M  V30 24855 H 2309.7 0.657354 0.333249 0
M  V30 24856 H 2312.34 1.89066 0.188165 0
M  V30 24857 H 2310.49 3.08289 2.36411 0
M  V30 24858 H 2312.16 4.60647 0.245281 0
M  V30 24859 H 2310.41 4.335 0.161322 0
M  V30 24860 H 2311.08 5.32266 1.46276 0
M  V30 24861 H 2313.55 3.5382 2.18977 0
M  V30 24862 H 2312.43 4.4184 3.25682 0
M  V30 24863 H 2312.69 2.6987 3.50175 0
M  V30 24864 N 2311.75 -0.465951 1.50554 0
M  V30 24865 C 2313 -1.21765 1.61801 0
M  V30 24866 C 2313.32 -1.91837 0.320729 0
M  V30 24867 O 2312.58 -1.82993 -0.693692 0
M  V30 24868 C 2312.88 -2.28088 2.75156 0
M  V30 24869 C 2312.54 -1.75232 4.15457 0
M  V30 24870 C 2311.21 -1.60538 4.53631 0
M  V30 24871 C 2313.56 -1.36075 5.03123 0
M  V30 24872 C 2310.89 -1.05118 5.77206 0
M  V30 24873 C 2313.24 -0.820946 6.27251 0
M  V30 24874 C 2311.9 -0.660678 6.64222 0
M  V30 24875 H 2311.17 -0.445571 0.59207 0
M  V30 24876 H 2313.82 -0.512895 1.84504 0
M  V30 24877 H 2312.12 -3.04491 2.46561 0
M  V30 24878 H 2313.82 -2.86018 2.8106 0
M  V30 24879 H 2310.41 -1.87637 3.85344 0
M  V30 24880 H 2314.59 -1.46259 4.74259 0
M  V30 24881 H 2309.85 -0.914513 6.04522 0
M  V30 24882 H 2314.02 -0.508895 6.94538 0
M  V30 24883 H 2311.65 -0.229092 7.59855 0
M  V30 24884 N 2313.23 -1.40218 -0.719481 0
M  V30 24885 C 2314.48 -1.37592 -1.47484 0
M  V30 24886 C 2314.79 0.0201224 -1.9559 0
M  V30 24887 O 2315.99 0.169002 -2.70973 0
M  V30 24888 C 2314.45 -2.41801 -2.66571 0
M  V30 24889 C 2314.06 -3.87196 -2.25351 0
M  V30 24890 C 2315.8 -2.48275 -3.44325 0
M  V30 24891 C 2313.71 -4.83011 -3.41254 0
M  V30 24892 H 2312.64 -0.511585 -0.553892 0
M  V30 24893 H 2315.29 -1.65937 -0.783398 0
M  V30 24894 H 2313.67 -2.06549 -3.37866 0
M  V30 24895 H 2314.85 -4.31571 -1.61501 0
M  V30 24896 H 2313.16 -3.84162 -1.60651 0
M  V30 24897 H 2315.76 -3.17048 -4.30563 0
M  V30 24898 H 2316.1 -1.51205 -3.8787 0
M  V30 24899 H 2316.63 -2.82498 -2.80071 0
M  V30 24900 H 2313.37 -5.814 -3.02745 0
M  V30 24901 H 2312.89 -4.43304 -4.04032 0
M  V30 24902 H 2314.57 -5.02648 -4.07374 0
M  V30 24903 N 2314.7 0.951297 -1.25651 0
M  V30 24904 C 2315.95 1.69882 -1.1076 0
M  V30 24905 C 2316.28 1.91019 0.350028 0
M  V30 24906 O 2315.56 1.48356 1.2578 0
M  V30 24907 C 2315.84 3.07975 -1.86611 0
M  V30 24908 C 2315.69 2.94226 -3.40222 0
M  V30 24909 C 2317.01 4.07922 -1.65189 0
M  V30 24910 H 2314.13 0.616566 -0.403751 0
M  V30 24911 H 2316.77 1.10556 -1.54523 0
M  V30 24912 H 2314.92 3.58619 -1.49415 0
M  V30 24913 H 2316.6 2.50882 -3.87112 0
M  V30 24914 H 2314.84 2.30071 -3.67763 0
M  V30 24915 H 2315.51 3.92126 -3.88512 0
M  V30 24916 H 2317.99 3.66201 -1.97576 0
M  V30 24917 H 2316.86 5.02579 -2.20692 0
M  V30 24918 H 2317.12 4.38091 -0.59401 0
M  V30 24919 N 2316.18 1.07291 1.1544 0
M  V30 24920 C 2317.11 0.714146 2.22311 0
M  V30 24921 C 2318.09 -0.298126 1.67467 0
M  V30 24922 O 2319.28 -0.171014 1.93446 0
M  V30 24923 C 2316.41 0.110509 3.47124 0
M  V30 24924 C 2315.36 1.04987 4.14924 0
M  V30 24925 C 2314.69 0.309018 5.33806 0
M  V30 24926 C 2315.99 2.38322 4.64758 0
M  V30 24927 H 2317.68 1.60765 2.52577 0
M  V30 24928 H 2315.23 0.774431 1.21402 0
M  V30 24929 H 2317.18 -0.152408 4.21124 0
M  V30 24930 H 2315.91 -0.818065 3.16189 0
M  V30 24931 H 2314.56 1.2977 3.42864 0
M  V30 24932 H 2314.21 -0.622997 4.99127 0
M  V30 24933 H 2313.91 0.935138 5.80111 0
M  V30 24934 H 2315.44 0.0538844 6.10576 0
M  V30 24935 H 2316.85 2.17869 5.30289 0
M  V30 24936 H 2315.25 2.96523 5.21722 0
M  V30 24937 H 2316.32 3.00669 3.80429 0
M  V30 24938 N 2317.66 -1.32267 0.856927 0
M  V30 24939 C 2318.91 -1.97173 0.46142 0
M  V30 24940 C 2319.24 -1.67804 -0.983462 0
M  V30 24941 O 2318.49 -0.959933 -1.7054 0
M  V30 24942 C 2318.79 -3.5144 0.64998 0
M  V30 24943 C 2318.46 -4.008 2.06567 0
M  V30 24944 C 2317.12 -4.1399 2.45286 0
M  V30 24945 C 2319.47 -4.26937 2.98955 0
M  V30 24946 C 2316.8 -4.50662 3.75661 0
M  V30 24947 C 2319.15 -4.65068 4.2883 0
M  V30 24948 C 2317.81 -4.76464 4.67481 0
M  V30 24949 H 2317.08 -0.721507 0.168846 0
M  V30 24950 H 2319.73 -1.57631 1.08742 0
M  V30 24951 H 2318.04 -3.91755 -0.0592329 0
M  V30 24952 H 2319.73 -3.99689 0.32398 0
M  V30 24953 H 2316.32 -3.9102 1.75502 0
M  V30 24954 H 2320.51 -4.16253 2.70272 0
M  V30 24955 H 2315.76 -4.57681 4.05387 0
M  V30 24956 H 2319.94 -4.84246 5.00479 0
M  V30 24957 H 2317.56 -5.04636 5.68548 0
M  V30 24958 N 2319.14 -0.615084 -1.45102 0
M  V30 24959 C 2320.37 -0.119806 -2.06553 0
M  V30 24960 C 2320.78 1.19896 -1.45844 0
M  V30 24961 O 2320.14 1.73193 -0.575355 0
M  V30 24962 C 2320.19 0.0183005 -3.61495 0
M  V30 24963 O 2319.91 -1.2483 -4.19939 0
M  V30 24964 C 2321.41 0.54416 -4.39947 0
M  V30 24965 H 2318.63 -0.0722856 -0.667095 0
M  V30 24966 H 2321.18 -0.844942 -1.86228 0
M  V30 24967 H 2319.33 0.693798 -3.81137 0
M  V30 24968 H 2319.74 -1.08279 -5.13202 0
M  V30 24969 H 2321.22 0.589856 -5.48839 0
M  V30 24970 H 2321.7 1.56798 -4.10257 0
M  V30 24971 H 2322.3 -0.0975451 -4.25188 0
M  V30 24972 N 2320.62 1.53557 -0.354678 0
M  V30 24973 C 2321.87 2.00694 0.237937 0
M  V30 24974 C 2322.19 1.24394 1.50171 0
M  V30 24975 O 2321.46 0.354169 1.92672 0
M  V30 24976 H 2320.04 0.741447 0.0909126 0
M  V30 24977 H 2322.7 1.88937 -0.478401 0
M  V30 24978 H 2321.79 3.08501 0.472586 0
M  V30 24979 N 2322.1 0.083568 1.57378 0
M  V30 24980 C 2323.01 -0.893982 2.16899 0
M  V30 24981 C 2324.02 -1.31859 1.13531 0
M  V30 24982 O 2325.2 -1.38887 1.4585 0
M  V30 24983 C 2322.26 -2.13921 2.72835 0
M  V30 24984 C 2321.32 -1.7699 3.91118 0
M  V30 24985 C 2320.56 -2.95576 4.44377 0
M  V30 24986 O 2320.78 -4.09954 3.96603 0
M  V30 24987 O 2319.71 -2.7471 5.35554 0
M  V30 24988 H 2323.54 -0.417626 3.00815 0
M  V30 24989 H 2321.12 -0.140155 1.48741 0
M  V30 24990 H 2323.01 -2.86919 3.08635 0
M  V30 24991 H 2321.68 -2.60631 1.91972 0
M  V30 24992 H 2320.59 -1.01208 3.6015 0
M  V30 24993 H 2321.92 -1.35052 4.73309 0
M  V30 24994 N 2323.57 -1.5645 -0.190064 0
M  V30 24995 C 2324.82 -1.80918 -0.909673 0
M  V30 24996 C 2325.15 -0.657615 -1.83046 0
M  V30 24997 O 2324.4 0.356322 -1.92429 0
M  V30 24998 C 2324.7 -3.11413 -1.75376 0
M  V30 24999 C 2324.37 -4.40043 -0.983528 0
M  V30 25000 C 2323.03 -4.74985 -0.770883 0
M  V30 25001 C 2325.38 -5.19323 -0.441933 0
M  V30 25002 C 2322.71 -5.867 -0.00524167 0
M  V30 25003 C 2325.06 -6.31837 0.310523 0
M  V30 25004 C 2323.73 -6.65359 0.53414 0
M  V30 25005 H 2323 -0.662025 -0.332873 0
M  V30 25006 H 2325.64 -1.90692 -0.175728 0
M  V30 25007 H 2323.95 -2.96898 -2.55654 0
M  V30 25008 H 2325.65 -3.27551 -2.31325 0
M  V30 25009 H 2322.24 -4.12624 -1.15928 0
M  V30 25010 H 2326.42 -4.92737 -0.593607 0
M  V30 25011 H 2321.68 -6.11141 0.177933 0
M  V30 25012 H 2325.85 -6.92483 0.73754 0
M  V30 25013 H 2323.48 -7.51765 1.12931 0
M  V30 25014 N 2325.05 0.45796 -1.50799 0
M  V30 25015 C 2326.3 1.21085 -1.62685 0
M  V30 25016 C 2326.63 1.91336 -0.332301 0
M  V30 25017 O 2325.91 1.82705 0.667011 0
M  V30 25018 C 2326.19 2.24417 -2.81619 0
M  V30 25019 C 2326.04 1.58384 -4.20992 0
M  V30 25020 C 2327.36 3.25605 -2.9609 0
M  V30 25021 H 2324.48 0.438853 -0.592095 0
M  V30 25022 H 2327.12 0.502828 -1.83226 0
M  V30 25023 H 2325.27 2.84801 -2.64236 0
M  V30 25024 H 2326.94 1.01496 -4.49996 0
M  V30 25025 H 2325.19 0.886629 -4.24643 0
M  V30 25026 H 2325.86 2.33538 -5.00164 0
M  V30 25027 H 2328.33 2.75256 -3.12047 0
M  V30 25028 H 2327.21 3.95221 -3.80909 0
M  V30 25029 H 2327.47 3.90503 -2.07267 0
M  V30 25030 N 2326.53 1.40598 0.712035 0
M  V30 25031 C 2327.46 1.43902 1.83887 0
M  V30 25032 C 2328.44 0.299533 1.67442 0
M  V30 25033 O 2329.63 0.508657 1.8742 0
M  V30 25034 C 2326.76 1.30437 3.21875 0
M  V30 25035 C 2325.71 2.42026 3.52998 0
M  V30 25036 C 2325.04 2.13634 4.90168 0
M  V30 25037 C 2326.34 3.84368 3.53636 0
M  V30 25038 H 2328.03 2.38206 1.81379 0
M  V30 25039 H 2325.58 1.14655 0.871217 0
M  V30 25040 H 2327.53 1.31364 4.00402 0
M  V30 25041 H 2326.25 0.326107 3.24968 0
M  V30 25042 H 2324.91 2.40354 2.76813 0
M  V30 25043 H 2324.56 1.14191 4.89867 0
M  V30 25044 H 2324.26 2.88398 5.11957 0
M  V30 25045 H 2325.78 2.1625 5.71024 0
M  V30 25046 H 2327.2 3.87844 4.22196 0
M  V30 25047 H 2325.59 4.5868 3.86953 0
M  V30 25048 H 2326.66 4.13698 2.52947 0
M  V30 25049 N 2328.01 -0.94462 1.26153 0
M  V30 25050 C 2328.95 -2.04283 1.07411 0
M  V30 25051 C 2329.92 -1.66088 -0.0198121 0
M  V30 25052 O 2331.11 -1.90291 0.139297 0
M  V30 25053 C 2328.25 -3.37728 0.709509 0
M  V30 25054 C 2327.36 -3.8898 1.87933 0
M  V30 25055 C 2326.5 -5.10795 1.45816 0
M  V30 25056 C 2325.54 -5.543 2.59649 0
M  V30 25057 N 2324.67 -6.67321 2.18238 0
M  V30 25058 H 2329.51 -2.19647 2.01393 0
M  V30 25059 H 2327.05 -1.07624 1.00277 0
M  V30 25060 H 2329.01 -4.14441 0.479021 0
M  V30 25061 H 2327.64 -3.22221 -0.193332 0
M  V30 25062 H 2326.69 -3.08697 2.22285 0
M  V30 25063 H 2328 -4.17208 2.73384 0
M  V30 25064 H 2327.16 -5.94957 1.18791 0
M  V30 25065 H 2325.9 -4.84304 0.5745 0
M  V30 25066 H 2324.9 -4.68697 2.87407 0
M  V30 25067 H 2326.13 -5.82794 3.48609 0
M  V30 25068 H 2324.07 -6.4252 1.32301 0
M  V30 25069 H 2323.99 -6.95118 2.97233 0
M  V30 25070 H 2325.26 -7.54866 1.94416 0
M  V30 25071 N 2329.49 -1.07901 -1.1487 0
M  V30 25072 C 2330.42 -0.725926 -2.21929 0
M  V30 25073 C 2331.4 0.289241 -1.67623 0
M  V30 25074 O 2332.58 0.160753 -1.93534 0
M  V30 25075 C 2329.71 -0.128917 -3.47061 0
M  V30 25076 C 2328.67 -1.07186 -4.14361 0
M  V30 25077 C 2327.99 -0.337322 -5.33635 0
M  V30 25078 C 2329.29 -2.40783 -4.63488 0
M  V30 25079 H 2330.99 -1.62102 -2.51721 0
M  V30 25080 H 2328.53 -0.780859 -1.2099 0
M  V30 25081 H 2330.48 0.130073 -4.21199 0
M  V30 25082 H 2329.21 0.801285 -3.16618 0
M  V30 25083 H 2327.87 -1.31586 -3.42171 0
M  V30 25084 H 2327.52 0.596518 -4.9945 0
M  V30 25085 H 2327.22 -0.96589 -5.79607 0
M  V30 25086 H 2328.74 -0.086264 -6.10539 0
M  V30 25087 H 2330.15 -2.20678 -5.29126 0
M  V30 25088 H 2328.55 -2.99285 -5.20143 0
M  V30 25089 H 2329.62 -3.02683 -3.78829 0
M  V30 25090 N 2330.96 1.31811 -0.863929 0
M  V30 25091 C 2332.21 1.97217 -0.47257 0
M  V30 25092 C 2332.54 1.68161 0.971364 0
M  V30 25093 O 2331.82 0.974827 1.68307 0
M  V30 25094 C 2332.1 3.52765 -0.723116 0
M  V30 25095 C 2331.95 3.91417 -2.21614 0
M  V30 25096 C 2333.27 4.39708 -0.185599 0
M  V30 25097 H 2330.39 0.716366 -0.173171 0
M  V30 25098 H 2333.03 1.56039 -1.08406 0
M  V30 25099 H 2331.18 3.87971 -0.202645 0
M  V30 25100 H 2332.86 3.66343 -2.80341 0
M  V30 25101 H 2331.1 3.40241 -2.69106 0
M  V30 25102 H 2331.77 4.99849 -2.34212 0
M  V30 25103 H 2334.25 4.11291 -0.630798 0
M  V30 25104 H 2333.12 5.4751 -0.390402 0
M  V30 25105 H 2333.38 4.32588 0.912153 0
M  V30 25106 N 2332.44 0.62277 1.44773 0
M  V30 25107 C 2333.67 0.129004 2.06998 0
M  V30 25108 C 2334.09 -1.18387 1.46172 0
M  V30 25109 O 2333.45 -1.72433 0.560037 0
M  V30 25110 C 2333.5 0.0188985 3.60595 0
M  V30 25111 O 2332.6 -1.02732 3.99399 0
M  V30 25112 H 2331.94 0.0809659 0.659045 0
M  V30 25113 H 2334.47 0.857083 1.85783 0
M  V30 25114 H 2334.48 -0.174404 4.07627 0
M  V30 25115 H 2333.16 0.977455 4.04251 0
M  V30 25116 H 2331.73 -0.809262 3.64013 0
M  V30 25117 N 2333.92 -1.53367 0.362817 0
M  V30 25118 C 2334.85 -2.28577 -0.476936 0
M  V30 25119 C 2335.83 -1.30896 -1.08629 0
M  V30 25120 O 2337.02 -1.59763 -1.10406 0
M  V30 25121 C 2334.15 -3.07296 -1.61823 0
M  V30 25122 C 2333.1 -4.12642 -1.13626 0
M  V30 25123 C 2332.43 -4.79427 -2.36757 0
M  V30 25124 C 2333.73 -5.21824 -0.222969 0
M  V30 25125 H 2335.42 -2.99021 0.150526 0
M  V30 25126 H 2332.97 -1.43811 0.0738356 0
M  V30 25127 H 2334.92 -3.58657 -2.21231 0
M  V30 25128 H 2333.64 -2.34537 -2.27288 0
M  V30 25129 H 2332.3 -3.62222 -0.564881 0
M  V30 25130 H 2331.95 -4.03243 -3.00673 0
M  V30 25131 H 2331.65 -5.50612 -2.05182 0
M  V30 25132 H 2333.17 -5.33581 -2.96856 0
M  V30 25133 H 2334.59 -5.68704 -0.724445 0
M  V30 25134 H 2332.98 -6.001 0.00178349 0
M  V30 25135 H 2334.05 -4.79287 0.735638 0
M  V30 25136 N 2335.4 -0.091913 -1.57332 0
M  V30 25137 C 2336.81 0.264738 -1.57389 0
M  V30 25138 C 2337.01 1.68641 -1.10283 0
M  V30 25139 O 2336.07 2.4022 -0.777843 0
M  V30 25140 C 2337.38 0.0560667 -3.00648 0
M  V30 25141 C 2338.93 0.124061 -3.12754 0
M  V30 25142 C 2339.41 -0.0565777 -4.57965 0
M  V30 25143 N 2340.9 -0.00163753 -4.632 0
M  V30 25144 C 2341.63 -0.116699 -5.73281 0
M  V30 25145 N 2341.13 -0.286416 -6.92208 0
M  V30 25146 N 2342.92 -0.0581961 -5.6207 0
M  V30 25147 H 2335.07 -1.02082 -1.86261 0
M  V30 25148 H 2337.34 -0.399801 -0.859572 0
M  V30 25149 H 2337.04 -0.925728 -3.39298 0
M  V30 25150 H 2336.92 0.799758 -3.68624 0
M  V30 25151 H 2339.3 1.09636 -2.73978 0
M  V30 25152 H 2339.38 -0.651068 -2.47376 0
M  V30 25153 H 2339.03 -1.02573 -4.97435 0
M  V30 25154 H 2338.96 0.738205 -5.214 0
M  V30 25155 H 2341.45 0.127126 -3.77686 0
M  V30 25156 H 2341.76 -0.365811 -7.71934 0
M  V30 25157 H 2340.11 -0.322042 -6.94253 0
M  V30 25158 H 2343.3 0.0732382 -4.68043 0
M  V30 25159 H 2343.47 -0.151317 -6.47823 0
M  V30 25160 N 2336.88 1.56548 0.181765 0
M  V30 25161 C 2337.83 1.92004 1.22957 0
M  V30 25162 C 2338.81 0.78717 1.4033 0
M  V30 25163 O 2340 1.05022 1.42476 0
M  V30 25164 C 2337.13 2.2745 2.5714 0
M  V30 25165 C 2336.22 3.47226 2.43506 0
M  V30 25166 N 2336.61 4.64764 1.99569 0
M  V30 25167 C 2334.91 3.51627 2.74362 0
M  V30 25168 C 2335.61 5.46912 1.98146 0
M  V30 25169 N 2334.58 4.87674 2.40156 0
M  V30 25170 H 2338.39 2.80372 0.881413 0
M  V30 25171 H 2335.9 1.57645 0.390114 0
M  V30 25172 H 2337.9 2.51041 3.32842 0
M  V30 25173 H 2336.56 1.40416 2.92769 0
M  V30 25174 H 2337.57 4.8918 1.70069 0
M  V30 25175 H 2334.24 2.75044 3.14097 0
M  V30 25176 H 2335.63 6.5108 1.65964 0
M  V30 25177 N 2338.35 -0.449957 1.5104 0
M  V30 25178 C 2339.58 -1.2214 1.6663 0
M  V30 25179 C 2339.99 -1.85786 0.357809 0
M  V30 25180 O 2339.34 -1.70952 -0.672394 0
M  V30 25181 C 2339.4 -2.35568 2.71566 0
M  V30 25182 C 2339.06 -1.92391 4.14529 0
M  V30 25183 C 2340.06 -1.43444 4.9972 0
M  V30 25184 C 2337.74 -2.00467 4.60563 0
M  V30 25185 C 2339.74 -1.03144 6.28999 0
M  V30 25186 C 2337.42 -1.59778 5.89843 0
M  V30 25187 C 2338.42 -1.11196 6.73887 0
M  V30 25188 O 2338.11 -0.710794 8.00751 0
M  V30 25189 H 2337.84 -0.374714 0.562642 0
M  V30 25190 H 2340.4 -0.541001 1.98147 0
M  V30 25191 H 2338.63 -3.06845 2.35336 0
M  V30 25192 H 2340.32 -2.97473 2.76161 0
M  V30 25193 H 2341.08 -1.3661 4.65363 0
M  V30 25194 H 2336.96 -2.37228 3.95277 0
M  V30 25195 H 2340.5 -0.651541 6.94551 0
M  V30 25196 H 2336.4 -1.66278 6.23716 0
M  V30 25197 H 2337.17 -0.83777 8.14201 0
M  V30 25198 N 2339.83 -1.40974 -0.704569 0
M  V30 25199 C 2341.06 -1.42977 -1.49135 0
M  V30 25200 C 2341.47 -0.0308739 -1.89175 0
M  V30 25201 O 2340.81 0.95811 -1.56735 0
M  V30 25202 C 2340.88 -2.26699 -2.79012 0
M  V30 25203 C 2340.54 -3.74977 -2.6123 0
M  V30 25204 C 2341.54 -4.67353 -2.27765 0
M  V30 25205 C 2339.22 -4.18918 -2.77151 0
M  V30 25206 C 2341.22 -6.01657 -2.10447 0
M  V30 25207 C 2338.9 -5.53289 -2.5945 0
M  V30 25208 C 2339.9 -6.44474 -2.26147 0
M  V30 25209 O 2339.59 -7.76367 -2.08591 0
M  V30 25210 H 2339.32 -0.489301 -0.466434 0
M  V30 25211 H 2341.87 -1.85794 -0.875767 0
M  V30 25212 H 2340.1 -1.78679 -3.42944 0
M  V30 25213 H 2341.79 -2.2051 -3.40778 0
M  V30 25214 H 2342.56 -4.34698 -2.15088 0
M  V30 25215 H 2338.44 -3.48256 -3.02058 0
M  V30 25216 H 2341.98 -6.72794 -1.84375 0
M  V30 25217 H 2337.88 -5.85527 -2.71715 0
M  V30 25218 H 2338.65 -7.87416 -2.23425 0
M  V30 25219 N 2341.31 0.937917 -1.26653 0
M  V30 25220 C 2342.56 1.68448 -1.1239 0
M  V30 25221 C 2342.89 1.91643 0.332174 0
M  V30 25222 O 2342.14 1.49727 1.26017 0
M  V30 25223 C 2342.44 3.06292 -1.84174 0
M  V30 25224 C 2342.11 3.02843 -3.34061 0
M  V30 25225 C 2340.77 3.01609 -3.74947 0
M  V30 25226 C 2343.12 2.94903 -4.29746 0
M  V30 25227 C 2340.45 2.90206 -5.099 0
M  V30 25228 C 2342.8 2.8504 -5.64743 0
M  V30 25229 C 2341.46 2.82151 -6.04935 0
M  V30 25230 H 2340.73 0.616396 -0.411263 0
M  V30 25231 H 2343.38 1.09456 -1.57136 0
M  V30 25232 H 2341.69 3.68928 -1.31906 0
M  V30 25233 H 2343.38 3.62912 -1.70575 0
M  V30 25234 H 2339.97 3.04584 -3.0154 0
M  V30 25235 H 2344.16 2.94962 -3.99138 0
M  V30 25236 H 2339.41 2.86349 -5.40199 0
M  V30 25237 H 2343.59 2.77861 -6.38566 0
M  V30 25238 H 2341.21 2.73071 -7.09462 0
M  V30 25239 N 2342.79 1.08509 1.14296 0
M  V30 25240 C 2344.02 0.836909 1.89218 0
M  V30 25241 C 2344.43 -0.611022 1.78639 0
M  V30 25242 O 2343.79 -1.41996 1.14645 0
M  V30 25243 C 2343.84 1.25122 3.39156 0
M  V30 25244 O 2343.56 2.64235 3.49444 0
M  V30 25245 C 2345.06 1.03405 4.31071 0
M  V30 25246 H 2342.28 0.30175 0.599323 0
M  V30 25247 H 2344.83 1.44463 1.44743 0
M  V30 25248 H 2342.98 0.687581 3.81249 0
M  V30 25249 H 2343.39 2.81459 4.42584 0
M  V30 25250 H 2344.87 1.37332 5.34644 0
M  V30 25251 H 2345.35 -0.0288487 4.39191 0
M  V30 25252 H 2345.95 1.58318 3.94735 0
M  V30 25253 N 2344.27 -1.31351 0.870907 0
M  V30 25254 C 2345.52 -1.95943 0.478443 0
M  V30 25255 C 2345.83 -1.69598 -0.974463 0
M  V30 25256 O 2347.03 -2.2806 -1.47312 0
M  V30 25257 C 2345.49 -3.50789 0.804671 0
M  V30 25258 C 2345.1 -3.85973 2.2744 0
M  V30 25259 C 2346.84 -4.21769 0.480722 0
M  V30 25260 C 2344.75 -5.33934 2.54299 0
M  V30 25261 H 2343.68 -0.733366 0.175188 0
M  V30 25262 H 2346.33 -1.49508 1.06394 0
M  V30 25263 H 2344.71 -3.95722 0.148417 0
M  V30 25264 H 2345.89 -3.51997 2.9738 0
M  V30 25265 H 2344.2 -3.2806 2.56448 0
M  V30 25266 H 2346.8 -5.30628 0.658612 0
M  V30 25267 H 2347.14 -4.12255 -0.578907 0
M  V30 25268 H 2347.67 -3.82474 1.09356 0
M  V30 25269 H 2344.41 -5.48485 3.58949 0
M  V30 25270 H 2343.93 -5.69259 1.88955 0
M  V30 25271 H 2345.61 -6.01208 2.39077 0
M  V30 25272 N 2345.74 -0.630439 -1.44441 0
M  V30 25273 C 2346.99 -0.134386 -2.01653 0
M  V30 25274 C 2347.31 1.24794 -1.49838 0
M  V30 25275 O 2346.58 1.82901 -0.701716 0
M  V30 25276 H 2345.16 -0.04669 -0.745539 0
M  V30 25277 H 2347.83 -0.816986 -1.7695 0
M  V30 25278 H 2346.92 -0.101552 -3.11935 0
M  V30 25279 N 2347.22 1.53172 -0.370945 0
M  V30 25280 C 2348.47 2.02314 0.20994 0
M  V30 25281 C 2348.82 1.25325 1.45984 0
M  V30 25282 O 2348.12 0.339998 1.88559 0
M  V30 25283 C 2348.31 3.53148 0.549634 0
M  V30 25284 C 2348.14 4.44744 -0.6658 0
M  V30 25285 C 2346.91 4.91341 -1.17951 0
M  V30 25286 C 2349.11 4.90933 -1.53263 0
M  V30 25287 N 2347.09 5.66958 -2.35441 0
M  V30 25288 C 2348.46 5.64946 -2.55413 0
M  V30 25289 C 2350.52 4.72999 -1.55488 0
M  V30 25290 C 2349.22 6.22931 -3.59651 0
M  V30 25291 C 2351.24 5.31854 -2.58623 0
M  V30 25292 C 2350.61 6.05757 -3.59496 0
M  V30 25293 H 2346.71 0.781007 0.0393958 0
M  V30 25294 H 2349.29 1.87719 -0.516699 0
M  V30 25295 H 2347.46 3.67894 1.24535 0
M  V30 25296 H 2349.19 3.89006 1.11608 0
M  V30 25297 H 2345.95 4.67731 -0.74331 0
M  V30 25298 H 2346.37 6.09426 -2.94838 0
M  V30 25299 H 2351.01 4.15382 -0.78853 0
M  V30 25300 H 2348.73 6.79641 -4.37165 0
M  V30 25301 H 2352.32 5.19869 -2.61205 0
M  V30 25302 H 2351.2 6.50487 -4.37991 0
M  V30 25303 N 2348.7 0.100255 1.57281 0
M  V30 25304 C 2349.65 -0.87429 2.15543 0
M  V30 25305 C 2350.64 -1.28857 1.09964 0
M  V30 25306 O 2351.85 -1.2625 1.283 0
M  V30 25307 H 2348.22 -0.299991 0.689572 0
M  V30 25308 H 2350.19 -0.358238 2.96242 0
M  V30 25309 C 2348.94 -2.12175 2.75458 0
M  V30 25310 H 2348.27 -1.81186 3.56387 0
M  V30 25311 H 2349.71 -2.78412 3.19786 0
M  V30 25312 C 2348.17 -2.89918 1.71607 0
M  V30 25313 O 2348.7 -3.84644 1.15811 0
M  V30 25314 N 2346.9 -2.53555 1.41979 0
M  V30 25315 H 2346.45 -1.76595 1.87542 0
M  V30 25316 H 2346.41 -3.05871 0.727328 0
M  V30 25317 N 2350.18 -1.56643 -0.17346 0
M  V30 25318 C 2351.43 -1.81065 -0.888726 0
M  V30 25319 C 2351.74 -0.677152 -1.83505 0
M  V30 25320 O 2352.95 -0.806252 -2.59252 0
M  V30 25321 C 2351.4 -3.20829 -1.63086 0
M  V30 25322 C 2351.01 -4.42041 -0.728279 0
M  V30 25323 C 2352.76 -3.54545 -2.33448 0
M  V30 25324 C 2350.66 -5.72826 -1.47052 0
M  V30 25325 H 2349.59 -0.675192 -0.335606 0
M  V30 25326 H 2352.24 -1.82952 -0.14168 0
M  V30 25327 H 2350.63 -3.13252 -2.42258 0
M  V30 25328 H 2351.8 -4.60792 0.0263259 0
M  V30 25329 H 2350.11 -4.16183 -0.134419 0
M  V30 25330 H 2352.71 -4.49503 -2.8957 0
M  V30 25331 H 2353.05 -2.79323 -3.08682 0
M  V30 25332 H 2353.59 -3.63666 -1.61221 0
M  V30 25333 H 2350.33 -6.51073 -0.760544 0
M  V30 25334 H 2349.85 -5.58055 -2.1985 0
M  V30 25335 H 2351.53 -6.14705 -2.01858 0
M  V30 25336 N 2351.66 0.44194 -1.51277 0
M  V30 25337 C 2352.9 1.19176 -1.63717 0
M  V30 25338 C 2353.23 1.91303 -0.351208 0
M  V30 25339 O 2352.49 1.84073 0.664492 0
M  V30 25340 C 2352.79 2.23681 -2.7875 0
M  V30 25341 C 2352.45 1.686 -4.18192 0
M  V30 25342 C 2351.11 1.533 -4.56128 0
M  V30 25343 C 2353.47 1.28053 -5.05225 0
M  V30 25344 C 2350.79 0.959215 -5.78806 0
M  V30 25345 C 2353.15 0.721052 -6.28477 0
M  V30 25346 C 2351.81 0.554923 -6.65189 0
M  V30 25347 H 2351.08 0.436095 -0.599084 0
M  V30 25348 H 2353.73 0.483477 -1.85296 0
M  V30 25349 H 2352.03 3.0053 -2.51374 0
M  V30 25350 H 2353.73 2.8151 -2.85575 0
M  V30 25351 H 2350.32 1.81483 -3.88281 0
M  V30 25352 H 2354.5 1.38695 -4.76526 0
M  V30 25353 H 2349.76 0.818223 -6.059 0
M  V30 25354 H 2353.93 0.398336 -6.9526 0
M  V30 25355 H 2351.56 0.108177 -7.60123 0
M  V30 25356 N 2353.14 1.41345 0.697083 0
M  V30 25357 C 2354.41 1.31112 1.45152 0
M  V30 25358 C 2354.79 -0.0620078 2.11009 0
M  V30 25359 O 2354.14 -1.07614 2.01572 0
M  V30 25360 C 2354.35 2.46342 2.47218 0
M  V30 25361 C 2355.7 2.87436 3.12515 0
M  V30 25362 O 2356.72 2.4607 2.57542 0
M  V30 25363 O 2355.58 3.58964 4.12077 0
M  V30 25364 H 2352.68 0.5159 0.646356 0
M  V30 25365 H 2355.22 1.53306 0.727689 0
M  V30 25366 H 2353.99 3.37977 1.97198 0
M  V30 25367 H 2353.62 2.26016 3.27112 0
M  V30 25368 N 2354.61 -0.931187 1.27148 0
M  V30 25369 C 2355.86 -1.6785 1.13281 0
M  V30 25370 C 2356.19 -1.91816 -0.322006 0
M  V30 25371 O 2355.44 -1.50393 -1.25221 0
M  V30 25372 C 2355.74 -3.05311 1.85795 0
M  V30 25373 C 2355.41 -3.01067 3.35663 0
M  V30 25374 C 2354.07 -2.99617 3.76541 0
M  V30 25375 C 2356.42 -2.9262 4.31304 0
M  V30 25376 C 2353.75 -2.87497 5.11431 0
M  V30 25377 C 2356.1 -2.82041 5.66247 0
M  V30 25378 C 2354.77 -2.78939 6.06423 0
M  V30 25379 H 2354.04 -0.614206 0.414526 0
M  V30 25380 H 2356.68 -1.08621 1.57714 0
M  V30 25381 H 2354.99 -3.68223 1.33861 0
M  V30 25382 H 2356.69 -3.62002 1.72497 0
M  V30 25383 H 2353.28 -3.02981 3.03151 0
M  V30 25384 H 2357.46 -2.92841 4.00697 0
M  V30 25385 H 2352.72 -2.8348 5.4171 0
M  V30 25386 H 2356.89 -2.7447 6.40031 0
M  V30 25387 H 2354.52 -2.69305 7.109 0
M  V30 25388 N 2356.09 -1.09114 -1.13719 0
M  V30 25389 C 2357.34 -0.826447 -1.85196 0
M  V30 25390 C 2357.67 0.646287 -1.8313 0
M  V30 25391 O 2356.95 1.47561 -1.26712 0
M  V30 25392 C 2357.23 -1.35818 -3.33505 0
M  V30 25393 C 2357.08 -2.89678 -3.44103 0
M  V30 25394 C 2358.4 -0.989332 -4.28836 0
M  V30 25395 H 2355.52 -0.301686 -0.672424 0
M  V30 25396 H 2358.16 -1.35199 -1.33496 0
M  V30 25397 H 2356.31 -0.911148 -3.77664 0
M  V30 25398 H 2357.98 -3.42806 -3.08678 0
M  V30 25399 H 2356.23 -3.26972 -2.85082 0
M  V30 25400 H 2356.9 -3.21959 -4.48382 0
M  V30 25401 H 2359.37 -1.37482 -3.92731 0
M  V30 25402 H 2358.25 -1.38848 -5.31049 0
M  V30 25403 H 2358.51 0.102846 -4.4198 0
M  V30 25404 N 2357.57 1.30887 -0.877861 0
M  V30 25405 C 2358.82 1.96705 -0.49346 0
M  V30 25406 C 2359.15 1.69182 0.953474 0
M  V30 25407 O 2358.42 0.992624 1.67264 0
M  V30 25408 C 2358.71 3.51978 -0.760491 0
M  V30 25409 C 2358.56 3.89044 -2.25753 0
M  V30 25410 C 2359.88 4.39487 -0.232226 0
M  V30 25411 H 2357 0.714489 -0.180759 0
M  V30 25412 H 2359.64 1.5488 -1.10055 0
M  V30 25413 H 2357.79 3.87734 -0.243783 0
M  V30 25414 H 2359.46 3.63349 -2.8421 0
M  V30 25415 H 2357.7 3.37368 -2.727 0
M  V30 25416 H 2358.38 4.97337 -2.395 0
M  V30 25417 H 2360.85 4.10599 -0.674386 0
M  V30 25418 H 2359.73 5.47065 -0.448451 0
M  V30 25419 H 2359.99 4.33531 0.86622 0
M  V30 25420 N 2359.05 0.638091 1.44105 0
M  V30 25421 C 2360.29 0.145581 2.02277 0
M  V30 25422 C 2360.63 -1.23189 1.50127 0
M  V30 25423 O 2359.9 -1.81919 0.688165 0
M  V30 25424 C 2360.18 0.139854 3.59828 0
M  V30 25425 C 2360.04 1.55016 4.22244 0
M  V30 25426 C 2361.36 -0.531889 4.36874 0
M  V30 25427 H 2358.48 0.0543761 0.734991 0
M  V30 25428 H 2361.12 0.815893 1.7159 0
M  V30 25429 H 2359.27 -0.430939 3.86103 0
M  V30 25430 H 2360.94 2.17038 4.07053 0
M  V30 25431 H 2359.18 2.10197 3.79473 0
M  V30 25432 H 2359.85 1.49813 5.31282 0
M  V30 25433 H 2362.33 -0.046405 4.16074 0
M  V30 25434 H 2361.21 -0.50511 5.46571 0
M  V30 25435 H 2361.47 -1.60345 4.11997 0
M  V30 25436 N 2360.53 -1.52973 0.379063 0
M  V30 25437 C 2361.77 -2.00629 -0.207577 0
M  V30 25438 C 2362.09 -1.27008 -1.48756 0
M  V30 25439 O 2363.29 -1.65322 -2.15362 0
M  V30 25440 C 2361.75 -3.57435 -0.420467 0
M  V30 25441 C 2361.36 -4.39946 0.845664 0
M  V30 25442 C 2363.1 -4.13409 -0.964029 0
M  V30 25443 C 2361.01 -5.88332 0.601616 0
M  V30 25444 H 2359.94 -0.749599 -0.0813459 0
M  V30 25445 H 2362.59 -1.7656 0.499884 0
M  V30 25446 H 2360.97 -3.77712 -1.18952 0
M  V30 25447 H 2362.15 -4.31439 1.61855 0
M  V30 25448 H 2360.46 -3.95143 1.31343 0
M  V30 25449 H 2363.06 -5.21918 -1.16216 0
M  V30 25450 H 2363.4 -3.68852 -1.93012 0
M  V30 25451 H 2363.93 -3.96983 -0.2548 0
M  V30 25452 H 2360.67 -6.37191 1.53842 0
M  V30 25453 H 2360.19 -5.99654 -0.132523 0
M  V30 25454 H 2361.87 -6.46583 0.232247 0
M  V30 25455 N 2362 -0.108595 -1.57225 0
M  V30 25456 C 2362.93 0.842282 -2.17779 0
M  V30 25457 C 2363.91 1.28469 -1.11489 0
M  V30 25458 O 2365.1 1.34916 -1.39683 0
M  V30 25459 C 2362.23 2.09639 -2.76891 0
M  V30 25460 C 2361.18 1.79214 -3.88673 0
M  V30 25461 C 2360.51 3.11567 -4.34546 0
M  V30 25462 C 2361.81 1.06855 -5.11253 0
M  V30 25463 H 2363.5 0.337721 -2.97489 0
M  V30 25464 H 2361.05 0.161 -1.43097 0
M  V30 25465 H 2363 2.76608 -3.17909 0
M  V30 25466 H 2361.73 2.62401 -1.94456 0
M  V30 25467 H 2360.39 1.14638 -3.48215 0
M  V30 25468 H 2360.03 3.62243 -3.48983 0
M  V30 25469 H 2359.73 2.91987 -5.09919 0
M  V30 25470 H 2361.26 3.79672 -4.78207 0
M  V30 25471 H 2362.67 1.63958 -5.49355 0
M  V30 25472 H 2361.07 0.974074 -5.92142 0
M  V30 25473 H 2362.14 0.0535316 -4.8487 0
M  V30 25474 N 2363.48 1.56732 0.16515 0
M  V30 25475 C 2364.71 1.86844 0.90022 0
M  V30 25476 C 2365.13 0.695627 1.74765 0
M  V30 25477 O 2364.49 -0.355188 1.77787 0
M  V30 25478 C 2364.54 3.15416 1.74771 0
M  V30 25479 O 2363.64 2.98073 2.85002 0
M  V30 25480 H 2362.98 0.614396 0.251821 0
M  V30 25481 H 2365.51 2.03962 0.161433 0
M  V30 25482 H 2365.52 3.46978 2.1464 0
M  V30 25483 H 2364.2 4.00387 1.12529 0
M  V30 25484 H 2362.77 2.7788 2.48671 0
M  V30 25485 N 2364.96 -0.433911 1.51509 0
M  V30 25486 C 2366.21 -1.18002 1.6358 0
M  V30 25487 C 2366.52 -1.92267 0.359548 0
M  V30 25488 O 2367.73 -2.69107 0.359679 0
M  V30 25489 C 2366.18 -2.14621 2.88905 0
M  V30 25490 C 2365.79 -1.45988 4.23546 0
M  V30 25491 C 2367.54 -2.89644 3.10333 0
M  V30 25492 C 2365.44 -2.4111 5.40018 0
M  V30 25493 H 2364.37 -0.444171 0.609285 0
M  V30 25494 H 2367.02 -0.446741 1.77979 0
M  V30 25495 H 2365.41 -2.91398 2.68147 0
M  V30 25496 H 2366.58 -0.747452 4.54697 0
M  V30 25497 H 2364.89 -0.831043 4.08023 0
M  V30 25498 H 2367.49 -3.60908 3.94525 0
M  V30 25499 H 2367.84 -3.51185 2.2355 0
M  V30 25500 H 2368.37 -2.19972 3.31447 0
M  V30 25501 H 2365.11 -1.84253 6.29072 0
M  V30 25502 H 2364.63 -3.10397 5.13239 0
M  V30 25503 H 2366.31 -3.02167 5.72105 0
M  V30 25504 N 2366.44 -1.41713 -0.689577 0
M  V30 25505 C 2367.68 -1.41602 -1.45179 0
M  V30 25506 C 2368.02 -0.0270422 -1.94181 0
M  V30 25507 O 2367.29 0.946235 -1.69931 0
M  V30 25508 C 2367.58 -2.42791 -2.65941 0
M  V30 25509 C 2367.43 -3.9082 -2.22665 0
M  V30 25510 C 2368.75 -2.41158 -3.68145 0
M  V30 25511 H 2365.87 -0.515651 -0.526567 0
M  V30 25512 H 2368.51 -1.73029 -0.784917 0
M  V30 25513 H 2366.66 -2.16122 -3.22837 0
M  V30 25514 H 2368.33 -4.28415 -1.7105 0
M  V30 25515 H 2366.57 -4.05397 -1.54387 0
M  V30 25516 H 2367.24 -4.57178 -3.09342 0
M  V30 25517 H 2369.72 -2.64839 -3.20935 0
M  V30 25518 H 2368.6 -3.13963 -4.50242 0
M  V30 25519 H 2368.86 -1.43228 -4.18256 0
M  V30 25520 N 2367.92 0.924431 -1.2764 0
M  V30 25521 C 2369.16 1.66916 -1.13944 0
M  V30 25522 C 2369.49 1.92446 0.314555 0
M  V30 25523 O 2368.76 1.53305 1.21961 0
M  V30 25524 H 2367.34 0.618635 -0.418689 0
M  V30 25525 H 2370 1.10982 -1.60215 0
M  V30 25526 H 2369.09 2.63599 -1.67098 0
M  V30 25527 N 2369.39 1.09715 1.13139 0
M  V30 25528 C 2370.33 0.683175 2.17734 0
M  V30 25529 C 2371.31 -0.311813 1.59582 0
M  V30 25530 O 2372.49 -0.212481 1.87299 0
M  V30 25531 C 2369.62 0.00690277 3.38699 0
M  V30 25532 C 2368.66 0.964175 4.15459 0
M  V30 25533 S 2369.5 2.47776 4.74729 0
M  V30 25534 C 2370.65 1.81398 5.99037 0
M  V30 25535 H 2370.88 1.56922 2.52513 0
M  V30 25536 H 2368.42 0.913426 1.24483 0
M  V30 25537 H 2370.38 -0.376972 4.08765 0
M  V30 25538 H 2369.04 -0.855837 3.02216 0
M  V30 25539 H 2368.23 0.438118 5.02092 0
M  V30 25540 H 2367.83 1.2896 3.51063 0
M  V30 25541 H 2370.12 1.13979 6.67844 0
M  V30 25542 H 2371.07 2.65958 6.56256 0
M  V30 25543 H 2371.47 1.28165 5.49758 0
M  V30 25544 N 2370.87 -1.30419 0.88479 0
M  V30 25545 C 2372.12 -1.9615 0.50314 0
M  V30 25546 C 2372.45 -1.69853 -0.947647 0
M  V30 25547 O 2371.7 -0.995891 -1.68465 0
M  V30 25548 C 2372 -3.49982 0.72438 0
M  V30 25549 C 2371.67 -3.96328 2.15022 0
M  V30 25550 C 2370.33 -4.08694 2.54013 0
M  V30 25551 C 2372.68 -4.205 3.07944 0
M  V30 25552 C 2370.01 -4.42592 3.85135 0
M  V30 25553 C 2372.36 -4.55867 4.38598 0
M  V30 25554 C 2371.03 -4.66441 4.77482 0
M  V30 25555 H 2370.3 -0.717763 0.184112 0
M  V30 25556 H 2372.94 -1.55289 1.12061 0
M  V30 25557 H 2371.25 -3.91793 0.0238775 0
M  V30 25558 H 2372.94 -3.98912 0.408687 0
M  V30 25559 H 2369.53 -3.8721 1.83757 0
M  V30 25560 H 2373.72 -4.10427 2.79041 0
M  V30 25561 H 2368.97 -4.48979 4.15004 0
M  V30 25562 H 2373.15 -4.73521 5.10638 0
M  V30 25563 H 2370.78 -4.92463 5.79124 0
M  V30 25564 N 2372.35 -0.645724 -1.43764 0
M  V30 25565 C 2373.28 0.0370066 -2.33471 0
M  V30 25566 C 2374.26 0.819753 -1.49044 0
M  V30 25567 O 2375.45 0.782727 -1.77727 0
M  V30 25568 C 2372.58 1.00924 -3.32313 0
M  V30 25569 C 2371.53 0.337126 -4.2667 0
M  V30 25570 C 2370.86 1.42028 -5.15492 0
M  V30 25571 C 2372.16 -0.765797 -5.16655 0
M  V30 25572 H 2373.85 -0.71212 -2.90808 0
M  V30 25573 H 2371.4 -0.343901 -1.39833 0
M  V30 25574 H 2373.35 1.49571 -3.93962 0
M  V30 25575 H 2372.07 1.78943 -2.73216 0
M  V30 25576 H 2370.73 -0.128836 -3.66374 0
M  V30 25577 H 2370.38 2.19172 -4.52739 0
M  V30 25578 H 2370.08 0.975864 -5.7944 0
M  V30 25579 H 2371.6 1.90827 -5.80015 0
M  V30 25580 H 2373.02 -0.361802 -5.72157 0
M  V30 25581 H 2371.42 -1.13423 -5.89284 0
M  V30 25582 H 2372.49 -1.62691 -4.56793 0
M  V30 25583 N 2373.83 1.5277 -0.38717 0
M  V30 25584 C 2374.79 2.24997 0.436899 0
M  V30 25585 C 2375.79 1.26557 0.991969 0
M  V30 25586 O 2376.98 1.5067 0.874308 0
M  V30 25587 C 2374.11 3.00338 1.61276 0
M  V30 25588 H 2375.31 2.99263 -0.195417 0
M  V30 25589 H 2372.86 1.55679 -0.139246 0
M  V30 25590 H 2373.59 2.30368 2.28256 0
M  V30 25591 H 2373.38 3.72589 1.22147 0
M  V30 25592 H 2374.87 3.55184 2.19623 0
M  V30 25593 N 2375.31 0.116931 1.57166 0
M  V30 25594 C 2376.22 -0.847774 2.18746 0
M  V30 25595 C 2377.23 -1.29421 1.16302 0
M  V30 25596 O 2378.41 -1.35762 1.48763 0
M  V30 25597 C 2375.47 -2.08085 2.77311 0
M  V30 25598 C 2374.53 -1.68654 3.94784 0
M  V30 25599 C 2373.77 -2.86083 4.50546 0
M  V30 25600 O 2373.99 -4.01449 4.05209 0
M  V30 25601 O 2372.92 -2.63288 5.41261 0
M  V30 25602 H 2376.75 -0.353725 3.01633 0
M  V30 25603 H 2374.34 -0.108573 1.49005 0
M  V30 25604 H 2376.22 -2.80307 3.14652 0
M  V30 25605 H 2374.89 -2.56501 1.97457 0
M  V30 25606 H 2373.8 -0.935454 3.62215 0
M  V30 25607 H 2375.13 -1.24982 4.76068 0
M  V30 25608 N 2376.78 -1.56818 -0.156836 0
M  V30 25609 C 2377.72 -1.92652 -1.22313 0
M  V30 25610 C 2378.7 -0.791101 -1.42058 0
M  V30 25611 O 2379.88 -1.04579 -1.5683 0
M  V30 25612 C 2377.01 -2.19003 -2.58371 0
M  V30 25613 C 2376.05 -3.41665 -2.55278 0
M  V30 25614 S 2376.89 -4.95557 -2.02937 0
M  V30 25615 C 2378.04 -5.25019 -3.40743 0
M  V30 25616 H 2378.27 -2.82793 -0.917353 0
M  V30 25617 H 2375.81 -1.50096 -0.362032 0
M  V30 25618 H 2377.77 -2.34865 -3.36673 0
M  V30 25619 H 2376.43 -1.29543 -2.86142 0
M  V30 25620 H 2375.62 -3.57349 -3.55412 0
M  V30 25621 H 2375.22 -3.24995 -1.8508 0
M  V30 25622 H 2377.51 -5.17884 -4.3681 0
M  V30 25623 H 2378.46 -6.26544 -3.29922 0
M  V30 25624 H 2378.86 -4.52554 -3.37425 0
M  V30 25625 N 2378.26 0.425871 -1.51737 0
M  V30 25626 C 2379.51 1.17133 -1.64203 0
M  V30 25627 C 2379.82 1.92074 -0.369739 0
M  V30 25628 O 2381.03 2.68912 -0.373945 0
M  V30 25629 C 2379.49 2.13086 -2.90039 0
M  V30 25630 C 2379.09 1.4374 -4.24315 0
M  V30 25631 C 2380.84 2.87994 -3.11865 0
M  V30 25632 C 2378.75 2.38243 -5.41289 0
M  V30 25633 H 2377.68 0.440933 -0.611632 0
M  V30 25634 H 2380.33 0.437296 -1.78213 0
M  V30 25635 H 2378.71 2.89972 -2.69689 0
M  V30 25636 H 2379.88 0.723328 -4.55087 0
M  V30 25637 H 2378.2 0.809393 -4.08458 0
M  V30 25638 H 2380.79 3.5881 -3.96433 0
M  V30 25639 H 2381.14 3.49995 -2.2541 0
M  V30 25640 H 2381.67 2.18212 -3.32609 0
M  V30 25641 H 2378.41 1.80914 -6.3004 0
M  V30 25642 H 2377.93 3.07671 -5.14878 0
M  V30 25643 H 2379.61 2.99129 -5.73699 0
M  V30 25644 N 2379.74 1.42077 0.682052 0
M  V30 25645 C 2380.65 1.47374 1.82532 0
M  V30 25646 C 2381.67 0.363109 1.70169 0
M  V30 25647 O 2382.84 0.612908 1.91847 0
M  V30 25648 C 2379.91 1.36679 3.18622 0
M  V30 25649 C 2378.97 2.58173 3.42995 0
M  V30 25650 C 2378.2 2.47979 4.72591 0
M  V30 25651 O 2378.42 1.5117 5.50004 0
M  V30 25652 O 2377.36 3.37982 4.98048 0
M  V30 25653 H 2381.18 2.43856 1.81019 0
M  V30 25654 H 2378.77 1.23762 0.836865 0
M  V30 25655 H 2380.65 1.3305 3.99845 0
M  V30 25656 H 2379.33 0.433195 3.20788 0
M  V30 25657 H 2378.23 2.67378 2.61648 0
M  V30 25658 H 2379.57 3.50407 3.45653 0
M  V30 25659 N 2381.22 -0.917649 1.28129 0
M  V30 25660 C 2382.17 -2.01958 1.1172 0
M  V30 25661 C 2383.14 -1.66093 0.0154221 0
M  V30 25662 O 2384.32 -1.89953 0.179629 0
M  V30 25663 C 2381.46 -3.36147 0.780987 0
M  V30 25664 C 2380.57 -3.84906 1.96142 0
M  V30 25665 C 2379.71 -5.07587 1.56617 0
M  V30 25666 C 2378.75 -5.48668 2.71348 0
M  V30 25667 N 2377.89 -6.62541 2.32343 0
M  V30 25668 H 2382.73 -2.15326 2.06007 0
M  V30 25669 H 2380.26 -1.05473 1.02537 0
M  V30 25670 H 2382.22 -4.13332 0.566822 0
M  V30 25671 H 2380.85 -3.22558 -0.124941 0
M  V30 25672 H 2379.9 -3.03912 2.28782 0
M  V30 25673 H 2381.21 -4.11315 2.82172 0
M  V30 25674 H 2380.37 -5.92303 1.31384 0
M  V30 25675 H 2379.11 -4.82977 0.677098 0
M  V30 25676 H 2378.11 -4.62496 2.97284 0
M  V30 25677 H 2379.34 -5.75268 3.60892 0
M  V30 25678 H 2377.28 -6.39569 1.459 0
M  V30 25679 H 2377.2 -6.88656 3.11911 0
M  V30 25680 H 2378.47 -7.50572 2.10384 0
M  V30 25681 N 2382.7 -1.10314 -1.12555 0
M  V30 25682 C 2383.93 -0.865649 -1.8759 0
M  V30 25683 C 2384.34 0.587358 -1.79852 0
M  V30 25684 O 2383.68 1.41662 -1.16951 0
M  V30 25685 C 2383.74 -1.23387 -3.37662 0
M  V30 25686 C 2383.4 -2.69365 -3.69177 0
M  V30 25687 C 2384.4 -3.67604 -3.67646 0
M  V30 25688 C 2382.09 -3.05718 -3.98549 0
M  V30 25689 C 2384.08 -5.00219 -3.95044 0
M  V30 25690 C 2381.77 -4.38522 -4.25608 0
M  V30 25691 C 2382.77 -5.35581 -4.23842 0
M  V30 25692 O 2382.45 -6.65994 -4.5023 0
M  V30 25693 H 2382.19 -0.310567 -0.600436 0
M  V30 25694 H 2384.74 -1.47107 -1.43348 0
M  V30 25695 H 2382.97 -0.571534 -3.82453 0
M  V30 25696 H 2384.66 -0.974063 -3.94039 0
M  V30 25697 H 2385.42 -3.40863 -3.45018 0
M  V30 25698 H 2381.3 -2.30796 -3.99066 0
M  V30 25699 H 2384.85 -5.75969 -3.93581 0
M  V30 25700 H 2380.74 -4.65001 -4.4771 0
M  V30 25701 H 2381.51 -6.71606 -4.67855 0
M  V30 25702 N 2384.18 1.29948 -0.891694 0
M  V30 25703 C 2385.42 1.9588 -0.513535 0
M  V30 25704 C 2385.75 1.70353 0.938626 0
M  V30 25705 O 2385.01 1.00481 1.67935 0
M  V30 25706 C 2385.3 3.49593 -0.74293 0
M  V30 25707 C 2384.97 3.95183 -2.17121 0
M  V30 25708 C 2383.63 4.07342 -2.56176 0
M  V30 25709 C 2385.98 4.18861 -3.10169 0
M  V30 25710 C 2383.31 4.40543 -3.87477 0
M  V30 25711 C 2385.66 4.53534 -4.41009 0
M  V30 25712 C 2384.33 4.63902 -4.79949 0
M  V30 25713 H 2383.6 0.716777 -0.187916 0
M  V30 25714 H 2386.25 1.54692 -1.12883 0
M  V30 25715 H 2384.55 3.91775 -0.0446549 0
M  V30 25716 H 2386.25 3.9869 -0.429837 0
M  V30 25717 H 2382.84 3.8623 -1.85808 0
M  V30 25718 H 2387.02 4.08941 -2.81213 0
M  V30 25719 H 2382.28 4.46772 -4.17379 0
M  V30 25720 H 2386.45 4.70806 -5.13142 0
M  V30 25721 H 2384.08 4.89385 -5.81727 0
M  V30 25722 N 2385.65 0.653339 1.4342 0
M  V30 25723 C 2386.9 0.167027 2.02111 0
M  V30 25724 C 2387.23 -1.21589 1.51425 0
M  V30 25725 O 2386.51 -1.81179 0.707421 0
M  V30 25726 C 2386.79 0.178011 3.5966 0
M  V30 25727 C 2386.64 1.59485 4.20576 0
M  V30 25728 C 2387.96 -0.485523 4.37414 0
M  V30 25729 H 2385.08 0.0621686 0.734373 0
M  V30 25730 H 2387.72 0.834046 1.70715 0
M  V30 25731 H 2385.87 -0.389964 3.86538 0
M  V30 25732 H 2387.55 2.21343 4.04728 0
M  V30 25733 H 2385.79 2.1421 3.77222 0
M  V30 25734 H 2386.46 1.55439 5.29663 0
M  V30 25735 H 2388.94 -0.00227214 4.161 0
M  V30 25736 H 2387.81 -0.44711 5.47076 0
M  V30 25737 H 2388.07 -1.55966 4.13675 0
M  V30 25738 N 2387.13 -1.52563 0.395266 0
M  V30 25739 C 2388.36 -2.06551 -0.18742 0
M  V30 25740 C 2388.78 -1.26459 -1.39247 0
M  V30 25741 O 2388.14 -0.291182 -1.78946 0
M  V30 25742 C 2388.19 -3.56685 -0.529922 0
M  V30 25743 O 2387.29 -3.79121 -1.623 0
M  V30 25744 H 2386.63 -0.663691 -0.020242 0
M  V30 25745 H 2389.16 -1.9666 0.564461 0
M  V30 25746 H 2389.17 -4.00229 -0.792528 0
M  V30 25747 H 2387.85 -4.14416 0.35106 0
M  V30 25748 H 2386.42 -3.47464 -1.35364 0
M  V30 25749 N 2388.61 -0.125265 -1.57101 0
M  V30 25750 C 2390.02 0.39911 -1.82384 0
M  V30 25751 C 2390.37 1.66194 -1.04279 0
M  V30 25752 O 2389.5 2.14564 -0.281307 0
M  V30 25753 C 2390.09 0.730873 -3.30823 0
M  V30 25754 C 2388.65 1.19986 -3.56764 0
M  V30 25755 C 2387.8 0.211744 -2.7649 0
M  V30 25756 H 2390.75 -0.350304 -1.54786 0
M  V30 25757 H 2390.77 1.58769 -3.45793 0
M  V30 25758 H 2390.28 -0.188413 -3.87642 0
M  V30 25759 H 2388.38 2.13583 -3.05308 0
M  V30 25760 H 2388.5 1.14085 -4.65319 0
M  V30 25761 H 2386.86 0.700042 -2.44891 0
M  V30 25762 H 2387.64 -0.70075 -3.36072 0
M  V30 25763 N 2390.09 1.56899 0.148518 0
M  V30 25764 C 2391.32 1.87424 0.876356 0
M  V30 25765 C 2391.73 0.713287 1.74807 0
M  V30 25766 O 2391.09 -0.316994 1.79726 0
M  V30 25767 C 2391.14 3.17181 1.73432 0
M  V30 25768 O 2390.86 4.28803 0.897734 0
M  V30 25769 C 2392.36 3.6121 2.56987 0
M  V30 25770 H 2389.58 0.621281 0.253478 0
M  V30 25771 H 2392.12 2.04008 0.141762 0
M  V30 25772 H 2390.28 3.02355 2.42199 0
M  V30 25773 H 2390.69 5.02991 1.48663 0
M  V30 25774 H 2392.17 4.54843 3.12765 0
M  V30 25775 H 2392.64 2.86425 3.32952 0
M  V30 25776 H 2393.25 3.78725 1.93513 0
M  V30 25777 N 2391.57 -0.417818 1.51961 0
M  V30 25778 C 2392.5 -1.51551 1.77636 0
M  V30 25779 C 2393.48 -1.58125 0.626946 0
M  V30 25780 O 2394.66 -1.73539 0.871662 0
M  V30 25781 C 2391.79 -2.89457 1.91917 0
M  V30 25782 C 2390.75 -2.97737 3.07468 0
M  V30 25783 C 2390.07 -4.37813 3.06959 0
M  V30 25784 C 2391.37 -2.70019 4.47087 0
M  V30 25785 H 2393.07 -1.30315 2.69552 0
M  V30 25786 H 2390.61 -0.625469 1.29707 0
M  V30 25787 H 2392.56 -3.66226 2.08461 0
M  V30 25788 H 2391.29 -3.11967 0.966653 0
M  V30 25789 H 2389.95 -2.23411 2.9066 0
M  V30 25790 H 2389.6 -4.5732 2.09446 0
M  V30 25791 H 2389.3 -4.4428 3.84564 0
M  V30 25792 H 2390.82 -5.16529 3.25622 0
M  V30 25793 H 2392.23 -3.36514 4.64145 0
M  V30 25794 H 2390.63 -2.87872 5.26545 0
M  V30 25795 H 2391.7 -1.65506 4.5578 0
M  V30 25796 N 2393.04 -1.42436 -0.674508 0
M  V30 25797 C 2394.29 -1.42922 -1.43456 0
M  V30 25798 C 2394.62 -0.0457653 -1.94446 0
M  V30 25799 O 2393.87 0.9459 -1.71322 0
M  V30 25800 C 2394.17 -2.40074 -2.64763 0
M  V30 25801 C 2393.84 -3.86447 -2.32313 0
M  V30 25802 C 2392.5 -4.26318 -2.23174 0
M  V30 25803 C 2394.85 -4.78776 -2.05968 0
M  V30 25804 C 2392.18 -5.56497 -1.85817 0
M  V30 25805 C 2394.53 -6.09298 -1.70114 0
M  V30 25806 C 2393.2 -6.48167 -1.59486 0
M  V30 25807 H 2392.47 -0.522987 -0.524943 0
M  V30 25808 H 2395.11 -1.75379 -0.769066 0
M  V30 25809 H 2393.42 -2.00945 -3.36346 0
M  V30 25810 H 2395.12 -2.37713 -3.22945 0
M  V30 25811 H 2391.71 -3.54881 -2.40328 0
M  V30 25812 H 2395.89 -4.48761 -2.11961 0
M  V30 25813 H 2391.15 -5.85473 -1.76157 0
M  V30 25814 H 2395.32 -6.80327 -1.48755 0
M  V30 25815 H 2392.95 -7.48948 -1.30309 0
M  V30 25816 N 2394.52 0.910841 -1.28614 0
M  V30 25817 C 2395.94 1.18974 -1.06383 0
M  V30 25818 C 2396.14 2.00584 0.191963 0
M  V30 25819 O 2395.19 2.36188 0.892828 0
M  V30 25820 C 2396.51 1.9215 -2.31298 0
M  V30 25821 C 2398.05 2.05021 -2.36507 0
M  V30 25822 C 2398.53 2.81606 -3.61196 0
M  V30 25823 N 2400.02 2.89166 -3.61853 0
M  V30 25824 C 2400.76 3.48932 -4.5501 0
M  V30 25825 N 2400.25 4.09953 -5.58489 0
M  V30 25826 N 2402.04 3.46499 -4.426 0
M  V30 25827 H 2394.2 0.366057 -2.09222 0
M  V30 25828 H 2396.46 0.224613 -0.921007 0
M  V30 25829 H 2396.16 1.39613 -3.22802 0
M  V30 25830 H 2396.04 2.92686 -2.37939 0
M  V30 25831 H 2398.43 2.56738 -1.45498 0
M  V30 25832 H 2398.51 1.03653 -2.33858 0
M  V30 25833 H 2398.15 2.30568 -4.52549 0
M  V30 25834 H 2398.08 3.83295 -3.61099 0
M  V30 25835 H 2400.57 2.45814 -2.87026 0
M  V30 25836 H 2400.88 4.53546 -6.25712 0
M  V30 25837 H 2399.23 4.08449 -5.62312 0
M  V30 25838 H 2402.42 2.98038 -3.60958 0
M  V30 25839 H 2402.59 3.92784 -5.15388 0
M  V30 25840 N 2396 1.10909 1.11969 0
M  V30 25841 C 2397.25 0.855806 1.83858 0
M  V30 25842 C 2397.58 -0.61707 1.84136 0
M  V30 25843 O 2396.85 -1.45526 1.29044 0
M  V30 25844 C 2397.14 1.41106 3.31302 0
M  V30 25845 C 2396.99 2.95116 3.39451 0
M  V30 25846 C 2398.31 1.05743 4.27208 0
M  V30 25847 H 2395.43 0.312346 0.66754 0
M  V30 25848 H 2398.07 1.37306 1.31328 0
M  V30 25849 H 2396.22 0.971116 3.76167 0
M  V30 25850 H 2397.89 3.47673 3.03185 0
M  V30 25851 H 2396.14 3.31466 2.79844 0
M  V30 25852 H 2396.81 3.29051 4.43203 0
M  V30 25853 H 2399.28 1.43713 3.90494 0
M  V30 25854 H 2398.16 1.47279 5.28772 0
M  V30 25855 H 2398.42 -0.0325181 4.42088 0
M  V30 25856 N 2397.48 -1.29474 0.898573 0
M  V30 25857 C 2398.73 -1.94884 0.519898 0
M  V30 25858 C 2399.04 -1.71627 -0.93827 0
M  V30 25859 O 2400.25 -2.31134 -1.42441 0
M  V30 25860 C 2398.7 -3.49003 0.878898 0
M  V30 25861 C 2398.31 -3.81062 2.35576 0
M  V30 25862 C 2400.05 -4.20655 0.570078 0
M  V30 25863 C 2397.96 -5.2842 2.65568 0
M  V30 25864 H 2396.89 -0.729485 0.190704 0
M  V30 25865 H 2399.54 -1.47217 1.09541 0
M  V30 25866 H 2397.92 -3.95318 0.232322 0
M  V30 25867 H 2399.1 -3.4561 3.04779 0
M  V30 25868 H 2397.41 -3.22547 2.63349 0
M  V30 25869 H 2400.01 -5.29112 0.771018 0
M  V30 25870 H 2400.35 -4.1339 -0.491331 0
M  V30 25871 H 2400.89 -3.80068 1.17444 0
M  V30 25872 H 2397.63 -5.40748 3.70502 0
M  V30 25873 H 2397.15 -5.65123 2.00987 0
M  V30 25874 H 2398.82 -5.96002 2.51775 0
M  V30 25875 N 2398.96 -0.660936 -1.43071 0
M  V30 25876 C 2400.37 -0.3292 -1.56168 0
M  V30 25877 C 2400.57 1.16626 -1.64319 0
M  V30 25878 O 2399.63 1.95132 -1.60249 0
M  V30 25879 C 2400.94 -1.04734 -2.81871 0
M  V30 25880 C 2402.49 -1.02833 -2.95625 0
M  V30 25881 C 2402.96 -1.72752 -4.24171 0
M  V30 25882 N 2404.46 -1.69553 -4.31052 0
M  V30 25883 C 2405.19 -2.20521 -5.293 0
M  V30 25884 N 2404.69 -2.7981 -6.33781 0
M  V30 25885 N 2406.48 -2.10975 -5.21005 0
M  V30 25886 H 2398.63 -1.63129 -1.36024 0
M  V30 25887 H 2400.89 -0.686466 -0.653811 0
M  V30 25888 H 2400.6 -2.10247 -2.81938 0
M  V30 25889 H 2400.47 -0.603768 -3.72337 0
M  V30 25890 H 2402.86 0.0184224 -2.95094 0
M  V30 25891 H 2402.94 -1.51066 -2.06428 0
M  V30 25892 H 2402.59 -2.77388 -4.25463 0
M  V30 25893 H 2402.52 -1.21979 -5.12278 0
M  V30 25894 H 2405.01 -1.26295 -3.56171 0
M  V30 25895 H 2405.32 -3.16357 -7.0508 0
M  V30 25896 H 2403.66 -2.83874 -6.34382 0
M  V30 25897 H 2406.86 -1.64355 -4.38298 0
M  V30 25898 H 2407.03 -2.51004 -5.97412 0
M  V30 25899 N 2400.43 1.52351 -0.403352 0
M  V30 25900 C 2401.36 2.29761 0.416165 0
M  V30 25901 C 2402.35 1.3373 1.0512 0
M  V30 25902 O 2403.53 1.62634 1.06131 0
M  V30 25903 C 2400.66 3.11478 1.53619 0
M  V30 25904 C 2399.61 4.15509 1.02645 0
M  V30 25905 C 2398.94 4.85535 2.23963 0
M  V30 25906 C 2400.24 5.22232 0.0845382 0
M  V30 25907 H 2401.93 2.98517 -0.229754 0
M  V30 25908 H 2399.48 1.43564 -0.111938 0
M  V30 25909 H 2401.43 3.64397 2.11644 0
M  V30 25910 H 2400.16 2.40481 2.2099 0
M  V30 25911 H 2398.82 3.63592 0.468646 0
M  V30 25912 H 2398.46 4.11073 2.89876 0
M  V30 25913 H 2398.16 5.55859 1.90511 0
M  V30 25914 H 2399.69 5.41264 2.82605 0
M  V30 25915 H 2401.1 5.70425 0.573409 0
M  V30 25916 H 2399.5 5.99884 -0.160889 0
M  V30 25917 H 2400.57 4.77168 -0.862454 0
M  V30 25918 N 2401.91 0.133594 1.57033 0
M  V30 25919 C 2402.88 -0.796957 2.14898 0
M  V30 25920 C 2403.88 -1.18456 1.08742 0
M  V30 25921 O 2405.07 -1.10768 1.34447 0
M  V30 25922 C 2402.2 -2.07968 2.70115 0
M  V30 25923 H 2403.39 -0.29382 2.98457 0
M  V30 25924 H 2400.94 -0.115759 1.55871 0
M  V30 25925 H 2401.68 -2.62679 1.90185 0
M  V30 25926 H 2401.46 -1.81109 3.47767 0
M  V30 25927 H 2402.95 -2.74457 3.14743 0
M  V30 25928 N 2403.39 -1.56975 -0.140195 0
M  V30 25929 C 2404.81 -1.51793 -0.493061 0
M  V30 25930 C 2405.01 -0.843148 -1.83012 0
M  V30 25931 O 2404.06 -0.416537 -2.49041 0
M  V30 25932 C 2405.38 -2.96563 -0.497092 0
M  V30 25933 C 2406.92 -3.07539 -0.582132 0
M  V30 25934 C 2407.4 -4.53828 -0.616759 0
M  V30 25935 N 2408.89 -4.58199 -0.678793 0
M  V30 25936 C 2409.62 -5.68777 -0.726682 0
M  V30 25937 N 2409.12 -6.88906 -0.733502 0
M  V30 25938 N 2410.91 -5.56828 -0.768081 0
M  V30 25939 H 2403.06 -1.99235 0.736143 0
M  V30 25940 H 2405.33 -0.908975 0.269198 0
M  V30 25941 H 2405.03 -3.49216 0.417278 0
M  V30 25942 H 2404.91 -3.52877 -1.33257 0
M  V30 25943 H 2407.29 -2.54901 -1.48692 0
M  V30 25944 H 2407.38 -2.54256 0.280625 0
M  V30 25945 H 2407.02 -5.07106 0.283901 0
M  V30 25946 H 2406.95 -5.049 -1.4961 0
M  V30 25947 H 2409.44 -3.71722 -0.680545 0
M  V30 25948 H 2409.75 -7.68934 -0.77208 0
M  V30 25949 H 2408.1 -6.91453 -0.701268 0
M  V30 25950 H 2411.29 -4.6189 -0.75997 0
M  V30 25951 H 2411.46 -6.43019 -0.801937 0
M  V30 25952 N 2404.87 0.409753 -1.5218 0
M  V30 25953 C 2406.12 1.15385 -1.65436 0
M  V30 25954 C 2406.43 1.91671 -0.39009 0
M  V30 25955 O 2407.64 2.68501 -0.402446 0
M  V30 25956 C 2406.09 2.09997 -2.92283 0
M  V30 25957 C 2405.7 1.39231 -4.25815 0
M  V30 25958 C 2407.44 2.8467 -3.14902 0
M  V30 25959 C 2405.35 2.32489 -5.43786 0
M  V30 25960 H 2404.28 0.434421 -0.616274 0
M  V30 25961 H 2406.93 0.41837 -1.78667 0
M  V30 25962 H 2405.31 2.87095 -2.72749 0
M  V30 25963 H 2406.49 0.675019 -4.55829 0
M  V30 25964 H 2404.8 0.766025 -4.09293 0
M  V30 25965 H 2407.4 3.54586 -4.00216 0
M  V30 25966 H 2407.74 3.47584 -2.29109 0
M  V30 25967 H 2408.28 2.14671 -3.34904 0
M  V30 25968 H 2405.02 1.74222 -6.31923 0
M  V30 25969 H 2404.54 3.02192 -5.18112 0
M  V30 25970 H 2406.21 2.93028 -5.7684 0
M  V30 25971 N 2406.35 1.42792 0.666944 0
M  V30 25972 C 2407.59 1.43397 1.42414 0
M  V30 25973 C 2407.92 0.0542716 1.94924 0
M  V30 25974 O 2407.19 -0.908385 1.73566 0
M  V30 25975 H 2405.77 0.527911 0.528506 0
M  V30 25976 H 2408.43 1.78281 0.787531 0
M  V30 25977 H 2407.52 2.13841 2.27329 0
M  V30 25978 N 2407.82 -0.904008 1.29095 0
M  V30 25979 C 2409.24 -1.18408 1.07013 0
M  V30 25980 C 2409.44 -2.00683 -0.181323 0
M  V30 25981 O 2408.5 -2.36658 -0.88029 0
M  V30 25982 C 2409.81 -1.9092 2.32314 0
M  V30 25983 C 2411.36 -2.03764 2.37591 0
M  V30 25984 C 2411.83 -2.79686 3.62684 0
M  V30 25985 N 2413.32 -2.87243 3.63381 0
M  V30 25986 C 2414.06 -3.46514 4.56854 0
M  V30 25987 N 2413.55 -4.06986 5.60655 0
M  V30 25988 N 2415.35 -3.44146 4.44432 0
M  V30 25989 H 2407.5 -0.354957 2.09413 0
M  V30 25990 H 2409.76 -0.219725 0.922185 0
M  V30 25991 H 2409.47 -1.37899 3.23538 0
M  V30 25992 H 2409.34 -2.9142 2.39488 0
M  V30 25993 H 2411.73 -2.55963 1.46858 0
M  V30 25994 H 2411.81 -1.02411 2.34405 0
M  V30 25995 H 2411.45 -2.28165 4.53766 0
M  V30 25996 H 2411.38 -3.81375 3.63126 0
M  V30 25997 H 2413.87 -2.44288 2.88325 0
M  V30 25998 H 2414.19 -4.50221 6.28109 0
M  V30 25999 H 2412.53 -4.05461 5.6447 0
M  V30 26000 H 2415.72 -2.9612 3.62534 0
M  V30 26001 H 2415.9 -3.90045 5.17464 0
M  V30 26002 N 2409.3 -1.11501 -1.11379 0
M  V30 26003 C 2410.55 -0.859025 -1.82493 0
M  V30 26004 C 2410.86 0.617245 -1.85606 0
M  V30 26005 O 2412.07 0.989507 -2.52826 0
M  V30 26006 C 2410.53 -1.48705 -3.27742 0
M  V30 26007 C 2410.13 -2.9974 -3.32956 0
M  V30 26008 C 2411.88 -1.31092 -4.03751 0
M  V30 26009 C 2409.79 -3.55524 -4.72606 0
M  V30 26010 H 2408.72 -0.317708 -0.683797 0
M  V30 26011 H 2411.37 -1.34033 -1.25329 0
M  V30 26012 H 2409.75 -0.933407 -3.84842 0
M  V30 26013 H 2410.92 -3.61514 -2.85734 0
M  V30 26014 H 2409.24 -3.16636 -2.70427 0
M  V30 26015 H 2411.83 -1.70201 -5.06888 0
M  V30 26016 H 2412.18 -0.253569 -4.15527 0
M  V30 26017 H 2412.71 -1.83324 -3.5304 0
M  V30 26018 H 2409.45 -4.60975 -4.66028 0
M  V30 26019 H 2408.97 -2.98522 -5.20235 0
M  V30 26020 H 2410.65 -3.54002 -5.41564 0
M  V30 26021 N 2410.78 1.28995 -0.905426 0
M  V30 26022 C 2411.71 2.29974 -0.404253 0
M  V30 26023 C 2412.69 1.61836 0.523755 0
M  V30 26024 O 2413.88 1.89305 0.433265 0
M  V30 26025 C 2411.01 3.45387 0.363981 0
M  V30 26026 C 2409.96 4.25366 -0.474123 0
M  V30 26027 C 2409.29 5.33033 0.421952 0
M  V30 26028 C 2410.59 4.9292 -1.72704 0
M  V30 26029 H 2412.28 2.72144 -1.24812 0
M  V30 26030 H 2409.83 1.30831 -0.601608 0
M  V30 26031 H 2411.78 4.1511 0.725374 0
M  V30 26032 H 2410.5 3.02076 1.24168 0
M  V30 26033 H 2409.16 3.57359 -0.817923 0
M  V30 26034 H 2408.81 4.85965 1.29796 0
M  V30 26035 H 2408.51 5.87445 -0.13516 0
M  V30 26036 H 2410.04 6.05605 0.77941 0
M  V30 26037 H 2411.45 5.55049 -1.43505 0
M  V30 26038 H 2409.85 5.57291 -2.22592 0
M  V30 26039 H 2410.92 4.17883 -2.45971 0
M  V30 26040 N 2412.26 0.668514 1.42719 0
M  V30 26041 C 2413.68 0.337478 1.55991 0
M  V30 26042 C 2413.88 -1.15753 1.64935 0
M  V30 26043 O 2412.93 -1.9428 1.61281 0
M  V30 26044 C 2414.24 1.06227 2.81312 0
M  V30 26045 C 2415.79 1.04399 2.95076 0
M  V30 26046 C 2416.27 1.74999 4.23249 0
M  V30 26047 N 2417.76 1.71836 4.30147 0
M  V30 26048 C 2418.49 2.23324 5.28123 0
M  V30 26049 N 2417.99 2.83167 6.32288 0
M  V30 26050 N 2419.78 2.13735 5.19878 0
M  V30 26051 H 2411.93 1.63848 1.35157 0
M  V30 26052 H 2414.2 0.689923 0.650162 0
M  V30 26053 H 2413.9 2.11739 2.80819 0
M  V30 26054 H 2413.78 0.623505 3.72011 0
M  V30 26055 H 2416.16 -0.00277253 2.951 0
M  V30 26056 H 2416.24 1.52159 2.05624 0
M  V30 26057 H 2415.89 2.7964 4.23986 0
M  V30 26058 H 2415.82 1.24694 5.11624 0
M  V30 26059 H 2418.31 1.28182 3.55497 0
M  V30 26060 H 2418.62 3.20092 7.03393 0
M  V30 26061 H 2416.97 2.87234 6.32868 0
M  V30 26062 H 2420.16 1.66677 4.3742 0
M  V30 26063 H 2420.33 2.54169 5.96072 0
M  V30 26064 N 2413.74 -1.52135 0.411426 0
M  V30 26065 C 2414.67 -2.29979 -0.403974 0
M  V30 26066 C 2415.65 -1.34286 -1.0441 0
M  V30 26067 O 2416.83 -1.63194 -1.05268 0
M  V30 26068 C 2413.96 -3.12288 -1.51965 0
M  V30 26069 C 2412.92 -4.16048 -1.0044 0
M  V30 26070 C 2412.24 -4.86716 -2.21385 0
M  V30 26071 C 2413.54 -5.22269 -0.0568418 0
M  V30 26072 H 2415.24 -2.98391 0.245581 0
M  V30 26073 H 2412.78 -1.43503 0.11955 0
M  V30 26074 H 2414.74 -3.65514 -2.09708 0
M  V30 26075 H 2413.46 -2.41649 -2.19711 0
M  V30 26076 H 2412.12 -3.63836 -0.449357 0
M  V30 26077 H 2411.77 -4.12605 -2.87692 0
M  V30 26078 H 2411.47 -5.56861 -1.87561 0
M  V30 26079 H 2412.99 -5.42755 -2.7973 0
M  V30 26080 H 2414.41 -5.70721 -0.54315 0
M  V30 26081 H 2412.8 -5.99791 0.1927 0
M  V30 26082 H 2413.87 -4.76704 0.887747 0
M  V30 26083 N 2415.22 -0.14192 -1.5696 0
M  V30 26084 C 2416.46 0.510393 -1.95136 0
M  V30 26085 C 2416.78 1.66347 -1.02899 0
M  V30 26086 O 2417.98 2.38007 -1.30633 0
M  V30 26087 C 2416.44 0.959366 -3.46878 0
M  V30 26088 C 2416.05 -0.166497 -4.47691 0
M  V30 26089 C 2417.79 1.58176 -3.9393 0
M  V30 26090 C 2415.7 0.300461 -5.90636 0
M  V30 26091 H 2414.63 0.194441 -0.728498 0
M  V30 26092 H 2417.28 -0.225452 -1.8211 0
M  V30 26093 H 2415.66 1.75032 -3.55218 0
M  V30 26094 H 2416.84 -0.943329 -4.51041 0
M  V30 26095 H 2415.15 -0.696977 -4.10526 0
M  V30 26096 H 2417.75 1.94266 -4.98161 0
M  V30 26097 H 2418.09 2.46882 -3.35194 0
M  V30 26098 H 2418.62 0.855795 -3.88486 0
M  V30 26099 H 2415.36 -0.551104 -6.53179 0
M  V30 26100 H 2414.88 1.04328 -5.90657 0
M  V30 26101 H 2416.56 0.754152 -6.4259 0
M  V30 26102 N 2416.69 1.57047 0.131868 0
M  V30 26103 C 2417.64 1.99396 1.16233 0
M  V30 26104 C 2418.61 0.863968 1.41862 0
M  V30 26105 O 2419.8 1.12721 1.53944 0
M  V30 26106 C 2416.94 2.3925 2.48704 0
M  V30 26107 C 2416.05 3.65607 2.3012 0
M  V30 26108 C 2415.18 3.94498 3.55731 0
M  V30 26109 C 2414.22 5.14078 3.32249 0
M  V30 26110 N 2413.36 5.38904 4.5003 0
M  V30 26111 H 2418.2 2.87222 0.794201 0
M  V30 26112 H 2415.74 1.42089 0.380682 0
M  V30 26113 H 2417.69 2.6039 3.25965 0
M  V30 26114 H 2416.32 1.54483 2.83434 0
M  V30 26115 H 2415.38 3.52157 1.43839 0
M  V30 26116 H 2416.69 4.53023 2.08738 0
M  V30 26117 H 2415.84 4.16218 4.41416 0
M  V30 26118 H 2414.58 3.05533 3.80133 0
M  V30 26119 H 2413.59 4.92217 2.44955 0
M  V30 26120 H 2414.81 6.0461 3.09231 0
M  V30 26121 H 2412.76 4.52895 4.74576 0
M  V30 26122 H 2412.67 6.20618 4.31705 0
M  V30 26123 H 2413.94 5.65133 5.36885 0
M  V30 26124 N 2418.17 -0.401677 1.52395 0
M  V30 26125 C 2419.42 -1.14567 1.6649 0
M  V30 26126 C 2419.74 -1.90834 0.40093 0
M  V30 26127 O 2419.01 -1.86981 -0.584382 0
M  V30 26128 H 2417.59 -0.425918 0.61368 0
M  V30 26129 H 2420.25 -0.457059 1.89465 0
M  V30 26130 H 2419.35 -1.85561 2.50945 0
M  V30 26131 N 2419.65 -1.43144 -0.659362 0
M  V30 26132 C 2420.61 -1.47504 -1.75429 0
M  V30 26133 C 2421.61 -0.360539 -1.56706 0
M  V30 26134 O 2422.8 -0.622031 -1.62716 0
M  V30 26135 C 2419.93 -1.32168 -3.14236 0
M  V30 26136 H 2421.13 -2.4501 -1.72946 0
M  V30 26137 H 2418.68 -1.29819 -0.870447 0
M  V30 26138 H 2419.42 -0.356457 -3.22335 0
M  V30 26139 H 2419.2 -2.12954 -3.29231 0
M  V30 26140 H 2420.69 -1.38137 -3.94091 0
M  V30 26141 N 2421.13 0.897149 -1.29572 0
M  V30 26142 C 2422.07 2.00156 -1.14919 0
M  V30 26143 C 2423.04 1.66047 -0.0418441 0
M  V30 26144 O 2424.23 1.89643 -0.209826 0
M  V30 26145 C 2421.37 3.34862 -0.834366 0
M  V30 26146 C 2420.48 3.81737 -2.0224 0
M  V30 26147 C 2419.62 5.05031 -1.64673 0
M  V30 26148 C 2418.66 5.44282 -2.80043 0
M  V30 26149 N 2417.79 6.58761 -2.42854 0
M  V30 26150 H 2422.63 2.12021 -2.09407 0
M  V30 26151 H 2420.17 1.03828 -1.04202 0
M  V30 26152 H 2422.13 4.12377 -0.632508 0
M  V30 26153 H 2420.76 3.22716 0.0736089 0
M  V30 26154 H 2419.81 3.00234 -2.33589 0
M  V30 26155 H 2421.12 4.06774 -2.8868 0
M  V30 26156 H 2420.28 5.90138 -1.40791 0
M  V30 26157 H 2419.02 4.81839 -0.75385 0
M  V30 26158 H 2418.02 4.57707 -3.04605 0
M  V30 26159 H 2419.25 5.69454 -3.69999 0
M  V30 26160 H 2417.19 6.37167 -1.56057 0
M  V30 26161 H 2417.11 6.83607 -3.22827 0
M  V30 26162 H 2418.38 7.4713 -2.22298 0
M  V30 26163 N 2422.61 1.1209 1.10786 0
M  V30 26164 C 2423.85 0.872237 1.82309 0
M  V30 26165 C 2424.17 -0.603677 1.8542 0
M  V30 26166 O 2423.44 -1.43865 1.32965 0
M  V30 26167 H 2422.02 0.319697 0.675132 0
M  V30 26168 H 2424.69 1.41466 1.34065 0
M  V30 26169 H 2423.78 1.2505 2.85953 0
M  V30 26170 N 2424.08 -1.28513 0.912254 0
M  V30 26171 C 2425.33 -1.94322 0.540538 0
M  V30 26172 C 2425.65 -1.72613 -0.920014 0
M  V30 26173 O 2426.85 -2.32631 -1.39982 0
M  V30 26174 C 2425.31 -3.48052 0.915865 0
M  V30 26175 C 2424.92 -3.78542 2.39604 0
M  V30 26176 C 2426.66 -4.20026 0.614662 0
M  V30 26177 C 2424.57 -5.25574 2.71157 0
M  V30 26178 H 2423.5 -0.727421 0.198431 0
M  V30 26179 H 2426.15 -1.46047 1.11097 0
M  V30 26180 H 2424.53 -3.95049 0.274238 0
M  V30 26181 H 2425.7 -3.42358 3.08428 0
M  V30 26182 H 2424.02 -3.19736 2.66755 0
M  V30 26183 H 2426.62 -5.28264 0.827094 0
M  V30 26184 H 2426.96 -4.13888 -0.447458 0
M  V30 26185 H 2427.49 -3.78801 1.21469 0
M  V30 26186 H 2424.23 -5.36788 3.76217 0
M  V30 26187 H 2423.75 -5.6296 2.0697 0
M  V30 26188 H 2425.43 -5.93298 2.58083 0
M  V30 26189 N 2425.56 -0.676073 -1.42362 0
M  V30 26190 C 2426.98 -0.345745 -1.5581 0
M  V30 26191 C 2427.18 1.14877 -1.65546 0
M  V30 26192 O 2426.23 1.93422 -1.62309 0
M  V30 26193 C 2427.55 -1.07718 -2.80744 0
M  V30 26194 C 2429.1 -1.05963 -2.94518 0
M  V30 26195 C 2429.57 -1.77241 -4.22315 0
M  V30 26196 N 2431.06 -1.74115 -4.2923 0
M  V30 26197 C 2431.8 -2.26122 -5.26931 0
M  V30 26198 N 2431.29 -2.86516 -6.30777 0
M  V30 26199 N 2433.09 -2.16489 -5.18738 0
M  V30 26200 H 2425.24 -1.64563 -1.34286 0
M  V30 26201 H 2427.5 -0.693361 -0.646494 0
M  V30 26202 H 2427.21 -2.13226 -2.79692 0
M  V30 26203 H 2427.08 -0.643225 -3.71675 0
M  V30 26204 H 2429.47 -0.0128774 -2.95097 0
M  V30 26205 H 2429.55 -1.53247 -2.04814 0
M  V30 26206 H 2429.19 -2.81885 -4.22497 0
M  V30 26207 H 2429.12 -1.27405 -5.10955 0
M  V30 26208 H 2431.61 -1.30065 -3.54812 0
M  V30 26209 H 2431.93 -3.23817 -7.01685 0
M  V30 26210 H 2430.27 -2.90586 -6.31335 0
M  V30 26211 H 2433.46 -1.68994 -4.3653 0
M  V30 26212 H 2433.63 -2.57326 -5.94716 0
M  V30 26213 N 2427.04 1.51915 -0.419488 0
M  V30 26214 C 2428.27 2.0634 0.1521 0
M  V30 26215 C 2428.68 1.28861 1.37986 0
M  V30 26216 O 2428.04 0.343263 1.79243 0
M  V30 26217 C 2428.09 3.58134 0.492203 0
M  V30 26218 O 2427.81 4.32683 -0.686812 0
M  V30 26219 C 2429.31 4.29012 1.1164 0
M  V30 26220 H 2426.53 0.670813 0.0158207 0
M  V30 26221 H 2429.08 1.957 -0.593428 0
M  V30 26222 H 2427.23 3.68747 1.18762 0
M  V30 26223 H 2427.65 5.22969 -0.400433 0
M  V30 26224 H 2429.12 5.36364 1.3045 0
M  V30 26225 H 2429.6 3.86152 2.09244 0
M  V30 26226 H 2430.2 4.22795 0.460884 0
M  V30 26227 N 2428.52 0.150242 1.56882 0
M  V30 26228 C 2429.45 -0.784245 2.19936 0
M  V30 26229 C 2430.43 -1.25467 1.14856 0
M  V30 26230 O 2431.61 -1.31165 1.43211 0
M  V30 26231 C 2428.74 -2.02224 2.82352 0
M  V30 26232 C 2427.7 -1.68846 3.93287 0
M  V30 26233 C 2427.02 -2.99936 4.42654 0
M  V30 26234 C 2428.32 -0.932623 5.13906 0
M  V30 26235 H 2430.02 -0.258729 2.9828 0
M  V30 26236 H 2427.56 -0.123004 1.43474 0
M  V30 26237 H 2429.52 -2.68082 3.25131 0
M  V30 26238 H 2428.24 -2.57154 2.01345 0
M  V30 26239 H 2426.9 -1.05365 3.51132 0
M  V30 26240 H 2426.55 -3.52863 3.58464 0
M  V30 26241 H 2426.25 -2.78365 5.17481 0
M  V30 26242 H 2427.77 -3.66859 4.88105 0
M  V30 26243 H 2429.19 -1.49336 5.53509 0
M  V30 26244 H 2427.58 -0.816735 5.94516 0
M  V30 26245 H 2428.65 0.0750421 4.84842 0
M  V30 26246 N 2430 -1.57115 -0.123538 0
M  V30 26247 C 2430.93 -2.03044 -1.15305 0
M  V30 26248 C 2431.91 -0.914086 -1.43452 0
M  V30 26249 O 2433.09 -1.18349 -1.53971 0
M  V30 26250 C 2430.22 -2.43093 -2.48038 0
M  V30 26251 C 2429.18 -3.58131 -2.34363 0
M  V30 26252 C 2428.5 -3.84065 -3.72019 0
M  V30 26253 C 2429.8 -4.9001 -1.80796 0
M  V30 26254 H 2431.5 -2.89301 -0.771051 0
M  V30 26255 H 2429.04 -1.3918 -0.369455 0
M  V30 26256 H 2431 -2.73828 -3.20306 0
M  V30 26257 H 2429.72 -1.53801 -2.88119 0
M  V30 26258 H 2428.38 -3.27598 -1.64545 0
M  V30 26259 H 2428.03 -2.91986 -4.09577 0
M  V30 26260 H 2427.73 -4.61496 -3.63724 0
M  V30 26261 H 2429.25 -4.17248 -4.45799 0
M  V30 26262 H 2430.66 -5.19311 -2.42877 0
M  V30 26263 H 2429.06 -5.7141 -1.83333 0
M  V30 26264 H 2430.13 -4.78824 -0.765196 0
M  V30 26265 N 2431.47 0.393589 -1.52606 0
M  V30 26266 C 2432.72 1.13907 -1.67426 0
M  V30 26267 C 2433.05 1.90089 -0.411892 0
M  V30 26268 O 2432.3 1.86094 0.605594 0
M  V30 26269 C 2432.6 2.147 -2.85725 0
M  V30 26270 C 2432.27 1.5521 -4.23345 0
M  V30 26271 C 2430.93 1.38712 -4.60774 0
M  V30 26272 C 2433.28 1.11915 -5.09043 0
M  V30 26273 C 2430.61 0.774587 -5.81564 0
M  V30 26274 C 2432.96 0.520742 -6.30453 0
M  V30 26275 C 2431.63 0.343017 -6.66618 0
M  V30 26276 H 2430.9 0.416815 -0.612655 0
M  V30 26277 H 2433.54 0.424282 -1.86741 0
M  V30 26278 H 2431.85 2.92381 -2.60808 0
M  V30 26279 H 2433.55 2.72282 -2.94386 0
M  V30 26280 H 2430.14 1.69038 -3.93858 0
M  V30 26281 H 2434.32 1.23465 -4.80698 0
M  V30 26282 H 2429.58 0.625047 -6.08197 0
M  V30 26283 H 2433.75 0.176943 -6.96175 0
M  V30 26284 H 2431.38 -0.133705 -7.60082 0
M  V30 26285 N 2432.95 1.43492 0.651762 0
M  V30 26286 C 2433.92 1.48432 1.74644 0
M  V30 26287 C 2434.92 0.368845 1.56513 0
M  V30 26288 O 2436.11 0.630651 1.62384 0
M  V30 26289 C 2433.24 1.33833 3.13531 0
M  V30 26290 H 2434.43 2.45923 1.71644 0
M  V30 26291 H 2431.98 1.30279 0.86355 0
M  V30 26292 H 2432.72 0.373546 3.22141 0
M  V30 26293 H 2432.5 2.14697 3.28097 0
M  V30 26294 H 2433.99 1.40225 3.93353 0
M  V30 26295 N 2434.43 -0.890264 1.30046 0
M  V30 26296 C 2435.36 -2.0117 1.18545 0
M  V30 26297 C 2436.34 -1.69924 0.0773655 0
M  V30 26298 O 2437.53 -1.92472 0.258484 0
M  V30 26299 C 2434.66 -3.36201 0.871 0
M  V30 26300 C 2433.61 -3.81688 1.93644 0
M  V30 26301 C 2432.94 -5.1395 1.47509 0
M  V30 26302 C 2434.24 -4.00988 3.34673 0
M  V30 26303 H 2435.93 -2.1105 2.12363 0
M  V30 26304 H 2433.48 -1.01405 1.0224 0
M  V30 26305 H 2435.43 -4.14171 0.777214 0
M  V30 26306 H 2434.15 -3.26438 -0.102868 0
M  V30 26307 H 2432.81 -3.05943 2.01977 0
M  V30 26308 H 2432.46 -5.00611 0.489639 0
M  V30 26309 H 2432.16 -5.45356 2.1877 0
M  V30 26310 H 2433.68 -5.94451 1.39499 0
M  V30 26311 H 2435.1 -4.69412 3.29128 0
M  V30 26312 H 2433.5 -4.43762 4.03974 0
M  V30 26313 H 2434.57 -3.05014 3.76954 0
M  V30 26314 N 2435.91 -1.12676 -1.1019 0
M  V30 26315 C 2436.84 -0.740663 -2.15846 0
M  V30 26316 C 2437.82 0.269393 -1.60353 0
M  V30 26317 O 2439 0.162747 -1.87796 0
M  V30 26318 C 2436.13 -0.0967005 -3.38562 0
M  V30 26319 C 2435.18 -1.07399 -4.12756 0
M  V30 26320 S 2436.01 -2.60275 -4.67993 0
M  V30 26321 C 2437.17 -1.97217 -5.94017 0
M  V30 26322 H 2437.4 -1.63562 -2.48263 0
M  V30 26323 H 2434.93 -0.946109 -1.22017 0
M  V30 26324 H 2436.89 0.268463 -4.09621 0
M  V30 26325 H 2435.55 0.775409 -3.04378 0
M  V30 26326 H 2434.74 -0.571085 -5.00754 0
M  V30 26327 H 2434.35 -1.38222 -3.47521 0
M  V30 26328 H 2436.64 -1.31645 -6.64587 0
M  V30 26329 H 2437.58 -2.83264 -6.48974 0
M  V30 26330 H 2437.99 -1.42695 -5.46167 0
M  V30 26331 N 2437.39 1.28028 -0.919057 0
M  V30 26332 C 2438.32 2.25407 -0.355926 0
M  V30 26333 C 2439.3 1.53271 0.542847 0
M  V30 26334 O 2440.48 1.82146 0.485306 0
M  V30 26335 C 2437.61 3.35127 0.490701 0
M  V30 26336 C 2436.65 4.25115 -0.343432 0
M  V30 26337 S 2437.49 5.05976 -1.75353 0
M  V30 26338 C 2438.64 6.19185 -0.914352 0
M  V30 26339 H 2438.88 2.72824 -1.18128 0
M  V30 26340 H 2436.41 1.3655 -0.72066 0
M  V30 26341 H 2438.37 3.98794 0.973334 0
M  V30 26342 H 2437.03 2.86365 1.29049 0
M  V30 26343 H 2436.22 5.03081 0.304177 0
M  V30 26344 H 2435.82 3.66198 -0.759916 0
M  V30 26345 H 2438.12 6.77342 -0.146401 0
M  V30 26346 H 2439.06 6.88205 -1.66673 0
M  V30 26347 H 2439.47 5.62621 -0.460181 0
M  V30 26348 N 2438.86 0.683613 1.42002 0
M  V30 26349 C 2440.09 0.216683 2.06265 0
M  V30 26350 C 2440.51 -1.12081 1.51061 0
M  V30 26351 O 2439.87 -1.69903 0.632668 0
M  V30 26352 C 2439.92 0.171822 3.6019 0
M  V30 26353 O 2439.02 -0.856998 4.03397 0
M  V30 26354 H 2438.37 0.108845 0.655018 0
M  V30 26355 H 2440.9 0.935109 1.8198 0
M  V30 26356 H 2440.91 -0.00135858 4.08 0
M  V30 26357 H 2439.58 1.14803 3.99741 0
M  V30 26358 H 2438.16 -0.654143 3.67118 0
M  V30 26359 N 2440.34 -1.5169 0.427538 0
M  V30 26360 C 2441.27 -2.30394 -0.379559 0
M  V30 26361 C 2442.25 -1.35385 -1.0298 0
M  V30 26362 O 2443.44 -1.64302 -1.03531 0
M  V30 26363 C 2440.57 -3.13883 -1.48644 0
M  V30 26364 C 2439.52 -4.1709 -0.960221 0
M  V30 26365 C 2438.85 -4.89037 -2.1621 0
M  V30 26366 C 2440.15 -5.223 -0.00144499 0
M  V30 26367 H 2441.84 -2.98114 0.277216 0
M  V30 26368 H 2439.39 -1.43368 0.134764 0
M  V30 26369 H 2441.34 -3.67718 -2.0582 0
M  V30 26370 H 2440.07 -2.43966 -2.17136 0
M  V30 26371 H 2438.73 -3.64292 -0.410742 0
M  V30 26372 H 2438.37 -4.15633 -2.83299 0
M  V30 26373 H 2438.07 -5.58819 -1.81644 0
M  V30 26374 H 2439.6 -5.45692 -2.73958 0
M  V30 26375 H 2441.01 -5.71265 -0.482586 0
M  V30 26376 H 2439.41 -5.99552 0.256305 0
M  V30 26377 H 2440.48 -4.75736 0.938258 0
M  V30 26378 N 2441.82 -0.15856 -1.568 0
M  V30 26379 C 2443.23 0.360334 -1.8319 0
M  V30 26380 C 2443.58 1.63944 -1.07781 0
M  V30 26381 O 2442.71 2.13919 -0.326756 0
M  V30 26382 C 2443.3 0.660537 -3.32299 0
M  V30 26383 C 2441.86 1.12391 -3.59229 0
M  V30 26384 C 2441.01 0.153048 -2.76877 0
M  V30 26385 H 2443.96 -0.383058 -1.54008 0
M  V30 26386 H 2443.98 1.51399 -3.49083 0
M  V30 26387 H 2443.49 -0.270595 -3.87156 0
M  V30 26388 H 2441.59 2.07059 -3.0977 0
M  V30 26389 H 2441.71 1.04189 -4.67634 0
M  V30 26390 H 2440.07 0.64794 -2.46321 0
M  V30 26391 H 2440.85 -0.771879 -3.3451 0
M  V30 26392 N 2443.3 1.57178 0.115204 0
M  V30 26393 C 2444.26 1.99678 1.12523 0
M  V30 26394 C 2445.26 0.887444 1.34094 0
M  V30 26395 O 2446.45 1.1534 1.30546 0
M  V30 26396 C 2443.58 2.3402 2.47886 0
M  V30 26397 H 2444.78 2.90114 0.759861 0
M  V30 26398 H 2442.33 1.52107 0.359621 0
M  V30 26399 H 2443.07 1.46475 2.89336 0
M  V30 26400 H 2442.85 3.14931 2.33583 0
M  V30 26401 H 2444.34 2.67628 3.2057 0
M  V30 26402 N 2444.78 -0.38549 1.52813 0
M  V30 26403 C 2445.71 -1.47749 1.80811 0
M  V30 26404 C 2446.69 -1.56759 0.660346 0
M  V30 26405 O 2447.87 -1.71651 0.908277 0
M  V30 26406 C 2445 -2.85321 1.98013 0
M  V30 26407 C 2443.96 -2.91148 3.13714 0
M  V30 26408 C 2443.28 -4.31204 3.16176 0
M  V30 26409 C 2444.58 -2.60475 4.52714 0
M  V30 26410 H 2446.28 -1.24568 2.72256 0
M  V30 26411 H 2443.82 -0.597816 1.31004 0
M  V30 26412 H 2445.78 -3.61722 2.16183 0
M  V30 26413 H 2444.5 -3.09846 1.03261 0
M  V30 26414 H 2443.16 -2.17195 2.95333 0
M  V30 26415 H 2442.81 -4.52774 2.191 0
M  V30 26416 H 2442.51 -4.36022 3.93901 0
M  V30 26417 H 2444.03 -5.09506 3.36505 0
M  V30 26418 H 2445.45 -3.26593 4.71179 0
M  V30 26419 H 2443.84 -2.76639 5.32533 0
M  V30 26420 H 2444.91 -1.55801 4.59188 0
M  V30 26421 N 2446.26 -1.43835 -0.644143 0
M  V30 26422 C 2447.5 -1.45932 -1.40392 0
M  V30 26423 C 2447.83 -0.0869999 -1.94305 0
M  V30 26424 O 2447.09 0.909347 -1.7329 0
M  V30 26425 C 2447.38 -2.45636 -2.59611 0
M  V30 26426 C 2447.05 -3.91288 -2.24063 0
M  V30 26427 C 2445.71 -4.30956 -2.14081 0
M  V30 26428 C 2448.06 -4.83037 -1.95766 0
M  V30 26429 C 2445.39 -5.60313 -1.73971 0
M  V30 26430 C 2447.74 -6.12769 -1.57152 0
M  V30 26431 C 2446.41 -6.51404 -1.45702 0
M  V30 26432 H 2445.68 -0.534005 -0.513732 0
M  V30 26433 H 2448.33 -1.7697 -0.731693 0
M  V30 26434 H 2446.63 -2.08034 -3.32008 0
M  V30 26435 H 2448.33 -2.4451 -3.1783 0
M  V30 26436 H 2444.92 -3.59899 -2.32746 0
M  V30 26437 H 2449.1 -4.53156 -2.02395 0
M  V30 26438 H 2444.36 -5.89078 -1.63699 0
M  V30 26439 H 2448.53 -6.83329 -1.34291 0
M  V30 26440 H 2446.16 -7.51544 -1.14393 0
M  V30 26441 N 2447.73 0.883355 -1.30517 0
M  V30 26442 C 2448.68 2.01064 -1.16945 0
M  V30 26443 C 2449.68 1.69207 -0.0809446 0
M  V30 26444 O 2450.88 1.78367 -0.241908 0
M  V30 26445 H 2447.26 0.659292 -0.361716 0
M  V30 26446 H 2449.23 2.09645 -2.12347 0
M  V30 26447 C 2447.98 3.36386 -0.879753 0
M  V30 26448 H 2447.3 3.61412 -1.70942 0
M  V30 26449 H 2448.74 4.15898 -0.824903 0
M  V30 26450 C 2447.2 3.34305 0.417351 0
M  V30 26451 O 2447.73 3.75065 1.43836 0
M  V30 26452 N 2445.93 2.87415 0.429091 0
M  V30 26453 H 2445.48 2.5444 -0.402267 0
M  V30 26454 H 2445.44 2.86405 1.29691 0
M  V30 26455 N 2449.21 1.13259 1.09591 0
M  V30 26456 C 2450.46 0.887949 1.81103 0
M  V30 26457 C 2450.77 -0.587639 1.86564 0
M  V30 26458 O 2451.98 -0.94916 2.54368 0
M  V30 26459 C 2450.44 1.539 3.25335 0
M  V30 26460 C 2450.04 3.05 3.28145 0
M  V30 26461 C 2451.79 1.37499 4.01615 0
M  V30 26462 C 2449.69 3.62998 4.6689 0
M  V30 26463 H 2448.62 0.328546 0.678656 0
M  V30 26464 H 2451.28 1.3601 1.2318 0
M  V30 26465 H 2449.66 0.994514 3.83309 0
M  V30 26466 H 2450.83 3.66014 2.79947 0
M  V30 26467 H 2449.15 3.20898 2.65355 0
M  V30 26468 H 2451.74 1.78244 5.04116 0
M  V30 26469 H 2452.09 0.319643 4.15071 0
M  V30 26470 H 2452.62 1.88918 3.50078 0
M  V30 26471 H 2449.36 4.68331 4.58635 0
M  V30 26472 H 2448.88 3.06761 5.1542 0
M  V30 26473 H 2450.56 3.62573 5.35864 0
M  V30 26474 N 2450.69 -1.27539 0.925834 0
M  V30 26475 C 2451.94 -1.94066 0.564172 0
M  V30 26476 C 2452.26 -1.73136 -0.897157 0
M  V30 26477 O 2451.53 -1.07802 -1.63571 0
M  V30 26478 H 2450.11 -0.718132 0.205658 0
M  V30 26479 H 2452.77 -1.55285 1.17782 0
M  V30 26480 H 2451.87 -3.02481 0.768863 0
M  V30 26481 N 2452.17 -0.691135 -1.41637 0
M  V30 26482 C 2453.1 -0.037289 -2.3347 0
M  V30 26483 C 2454.08 0.771921 -1.51576 0
M  V30 26484 O 2455.26 0.725788 -1.80128 0
M  V30 26485 C 2452.39 0.903005 -3.35355 0
M  V30 26486 C 2451.35 0.201213 -4.27527 0
M  V30 26487 C 2450.67 1.25556 -5.1975 0
M  V30 26488 C 2451.97 -0.92978 -5.13958 0
M  V30 26489 H 2453.67 -0.804278 -2.88395 0
M  V30 26490 H 2451.21 -0.388214 -1.38668 0
M  V30 26491 H 2453.17 1.36962 -3.98521 0
M  V30 26492 H 2451.89 1.70161 -2.7877 0
M  V30 26493 H 2450.55 -0.24533 -3.65778 0
M  V30 26494 H 2450.2 2.04658 -4.59483 0
M  V30 26495 H 2449.9 0.791026 -5.82251 0
M  V30 26496 H 2451.42 1.72278 -5.85792 0
M  V30 26497 H 2452.84 -0.543647 -5.70717 0
M  V30 26498 H 2451.23 -1.32113 -5.85377 0
M  V30 26499 H 2452.3 -1.77141 -4.51386 0
M  V30 26500 N 2453.65 1.51461 -0.435577 0
M  V30 26501 C 2454.58 2.30592 0.367336 0
M  V30 26502 C 2455.56 1.3593 1.0226 0
M  V30 26503 O 2456.74 1.64848 1.02658 0
M  V30 26504 C 2453.87 3.14667 1.46977 0
M  V30 26505 C 2452.83 4.17593 0.938088 0
M  V30 26506 C 2452.15 4.90177 2.13614 0
M  V30 26507 C 2453.45 5.22293 -0.0262539 0
M  V30 26508 H 2455.15 2.97963 -0.293022 0
M  V30 26509 H 2452.69 1.43295 -0.142365 0
M  V30 26510 H 2454.64 3.68804 2.03867 0
M  V30 26511 H 2453.37 2.45114 2.15839 0
M  V30 26512 H 2452.03 3.64504 0.391417 0
M  V30 26513 H 2451.68 4.17129 2.81091 0
M  V30 26514 H 2451.38 5.59775 1.78678 0
M  V30 26515 H 2452.9 5.47137 2.7106 0
M  V30 26516 H 2454.31 5.71513 0.452284 0
M  V30 26517 H 2452.71 5.99408 -0.288097 0
M  V30 26518 H 2453.78 4.75232 -0.963474 0
M  V30 26519 N 2455.12 0.166873 1.56714 0
M  V30 26520 C 2456.05 -0.760874 2.20755 0
M  V30 26521 C 2457.04 -1.24242 1.1618 0
M  V30 26522 O 2458.22 -1.29639 1.44594 0
M  V30 26523 C 2455.35 -1.99218 2.84481 0
M  V30 26524 C 2454.3 -1.64665 3.95056 0
M  V30 26525 C 2453.63 -2.95224 4.4581 0
M  V30 26526 C 2454.93 -0.878064 5.14866 0
M  V30 26527 H 2456.62 -0.227077 2.98538 0
M  V30 26528 H 2454.17 -0.10778 1.43596 0
M  V30 26529 H 2456.12 -2.64618 3.27956 0
M  V30 26530 H 2454.85 -2.55004 2.04061 0
M  V30 26531 H 2453.51 -1.01635 3.5223 0
M  V30 26532 H 2453.15 -3.49041 3.62187 0
M  V30 26533 H 2452.85 -2.72861 5.20404 0
M  V30 26534 H 2454.38 -3.61662 4.91969 0
M  V30 26535 H 2455.79 -1.43456 5.55061 0
M  V30 26536 H 2454.19 -0.753633 5.95349 0
M  V30 26537 H 2455.26 0.126462 4.84735 0
M  V30 26538 N 2456.6 -1.57237 -0.106866 0
M  V30 26539 C 2457.85 -1.85485 -0.812493 0
M  V30 26540 C 2458.18 -0.753719 -1.79302 0
M  V30 26541 O 2457.43 0.253819 -1.94047 0
M  V30 26542 C 2457.73 -3.20271 -1.58622 0
M  V30 26543 C 2457.4 -4.44637 -0.748889 0
M  V30 26544 C 2456.06 -4.78404 -0.51802 0
M  V30 26545 C 2458.41 -5.20935 -0.16603 0
M  V30 26546 C 2455.74 -5.85903 0.305762 0
M  V30 26547 C 2458.09 -6.29303 0.64501 0
M  V30 26548 C 2456.76 -6.61593 0.886081 0
M  V30 26549 H 2456.03 -0.678739 -0.297312 0
M  V30 26550 H 2458.67 -1.91355 -0.0743996 0
M  V30 26551 H 2456.98 -3.10032 -2.39556 0
M  V30 26552 H 2458.67 -3.39352 -2.13637 0
M  V30 26553 H 2455.26 -4.18189 -0.938932 0
M  V30 26554 H 2459.45 -4.95191 -0.331583 0
M  V30 26555 H 2454.7 -6.09339 0.501635 0
M  V30 26556 H 2458.88 -6.876 1.10357 0
M  V30 26557 H 2456.51 -7.44722 1.52622 0
M  V30 26558 N 2458.08 0.377381 -1.53015 0
M  V30 26559 C 2459.01 1.46788 -1.81592 0
M  V30 26560 C 2459.99 1.56407 -0.66865 0
M  V30 26561 O 2461.18 1.71167 -0.917367 0
M  V30 26562 C 2458.31 2.84267 -1.99524 0
M  V30 26563 C 2457.26 2.8948 -3.15254 0
M  V30 26564 C 2456.59 4.29521 -3.18459 0
M  V30 26565 C 2457.89 2.58071 -4.54089 0
M  V30 26566 H 2459.58 1.23123 -2.72912 0
M  V30 26567 H 2457.13 0.59086 -1.3132 0
M  V30 26568 H 2459.08 3.60571 -2.18098 0
M  V30 26569 H 2457.8 3.09294 -1.04903 0
M  V30 26570 H 2456.46 2.15626 -2.96481 0
M  V30 26571 H 2456.11 4.51606 -2.21498 0
M  V30 26572 H 2455.81 4.33927 -3.96208 0
M  V30 26573 H 2457.33 5.07715 -3.39202 0
M  V30 26574 H 2458.75 3.2409 -4.72904 0
M  V30 26575 H 2457.15 2.73811 -5.33992 0
M  V30 26576 H 2458.22 1.53364 -4.60008 0
M  V30 26577 N 2459.56 1.44175 0.636506 0
M  V30 26578 C 2460.8 1.46892 1.39823 0
M  V30 26579 C 2461.14 0.0990926 1.93947 0
M  V30 26580 O 2460.41 -0.882514 1.73326 0
M  V30 26581 C 2460.7 2.52494 2.56746 0
M  V30 26582 C 2460.55 3.98815 2.08007 0
M  V30 26583 C 2461.87 2.54655 3.58941 0
M  V30 26584 H 2458.99 0.534839 0.507066 0
M  V30 26585 H 2461.63 1.75823 0.720157 0
M  V30 26586 H 2459.78 2.27955 3.14593 0
M  V30 26587 H 2461.45 4.34468 1.55032 0
M  V30 26588 H 2459.69 4.10848 1.39235 0
M  V30 26589 H 2460.36 4.68344 2.92161 0
M  V30 26590 H 2462.84 2.76568 3.10885 0
M  V30 26591 H 2461.72 3.30457 4.3828 0
M  V30 26592 H 2461.98 1.58653 4.12652 0
M  V30 26593 N 2461.04 -0.876421 1.30983 0
M  V30 26594 C 2461.97 -1.98589 1.12417 0
M  V30 26595 C 2462.95 -1.62573 0.0294364 0
M  V30 26596 O 2464.13 -1.87594 0.184631 0
M  V30 26597 C 2461.26 -3.31038 0.716334 0
M  V30 26598 C 2460.3 -3.86039 1.81318 0
M  V30 26599 S 2461.14 -4.12284 3.41734 0
M  V30 26600 C 2462.29 -5.4774 3.02872 0
M  V30 26601 H 2462.53 -2.14033 2.06342 0
M  V30 26602 H 2460.06 -1.02583 1.15395 0
M  V30 26603 H 2462.02 -4.07592 0.487769 0
M  V30 26604 H 2460.68 -3.13439 -0.203694 0
M  V30 26605 H 2459.87 -4.81771 1.48029 0
M  V30 26606 H 2459.47 -3.16255 1.99646 0
M  V30 26607 H 2461.77 -6.29144 2.51364 0
M  V30 26608 H 2462.71 -5.85973 3.97544 0
M  V30 26609 H 2463.12 -5.10707 2.40496 0
M  V30 26610 N 2462.51 -1.13839 -1.08989 0
M  V30 26611 C 2463.76 -0.902914 -1.81256 0
M  V30 26612 C 2464.09 0.57077 -1.85937 0
M  V30 26613 O 2463.34 1.43862 -1.32673 0
M  V30 26614 C 2463.64 -1.44153 -3.27039 0
M  V30 26615 C 2463.31 -2.93282 -3.42485 0
M  V30 26616 C 2461.97 -3.33998 -3.46408 0
M  V30 26617 C 2464.32 -3.89206 -3.46653 0
M  V30 26618 C 2461.65 -4.69313 -3.52083 0
M  V30 26619 C 2464 -5.2437 -3.53863 0
M  V30 26620 C 2462.67 -5.64606 -3.56056 0
M  V30 26621 H 2461.94 -0.3304 -0.663262 0
M  V30 26622 H 2464.58 -1.42107 -1.28366 0
M  V30 26623 H 2462.89 -0.844165 -3.82598 0
M  V30 26624 H 2464.59 -1.23535 -3.81497 0
M  V30 26625 H 2461.18 -2.608 -3.40119 0
M  V30 26626 H 2465.36 -3.58834 -3.42859 0
M  V30 26627 H 2460.62 -4.99856 -3.52071 0
M  V30 26628 H 2464.79 -5.9851 -3.56033 0
M  V30 26629 H 2462.42 -6.69444 -3.60206 0
M  V30 26630 N 2463.99 1.27046 -0.932584 0
M  V30 26631 C 2465.24 1.93438 -0.571385 0
M  V30 26632 C 2465.55 1.74054 0.892436 0
M  V30 26633 O 2466.76 2.34829 1.36263 0
M  V30 26634 C 2465.22 3.46551 -0.971121 0
M  V30 26635 C 2464.82 3.74682 -2.45596 0
M  V30 26636 C 2466.57 4.18995 -0.681406 0
M  V30 26637 C 2464.48 5.21193 -2.79484 0
M  V30 26638 H 2463.41 0.724172 -0.209978 0
M  V30 26639 H 2466.06 1.44261 -1.13406 0
M  V30 26640 H 2464.44 3.94563 -0.337052 0
M  V30 26641 H 2465.61 3.37408 -3.13835 0
M  V30 26642 H 2463.93 3.15451 -2.71808 0
M  V30 26643 H 2466.52 5.26882 -0.911032 0
M  V30 26644 H 2466.87 4.14548 0.381555 0
M  V30 26645 H 2467.4 3.76821 -1.2748 0
M  V30 26646 H 2464.14 5.30735 -3.84709 0
M  V30 26647 H 2463.66 5.59596 -2.159 0
M  V30 26648 H 2465.34 5.89117 -2.67489 0
M  V30 26649 N 2465.47 0.698636 1.41269 0
M  V30 26650 C 2466.7 0.23968 2.05205 0
M  V30 26651 C 2467.11 -1.1173 1.52686 0
M  V30 26652 O 2466.45 -1.70997 0.671252 0
M  V30 26653 C 2466.51 0.123189 3.59289 0
M  V30 26654 C 2466.18 1.4127 4.34617 0
M  V30 26655 C 2467.17 2.35119 4.63697 0
M  V30 26656 C 2464.86 1.66693 4.73834 0
M  V30 26657 C 2466.85 3.52648 5.30959 0
M  V30 26658 C 2464.54 2.84507 5.40832 0
M  V30 26659 C 2465.54 3.77308 5.69322 0
M  V30 26660 O 2465.23 4.93058 6.3494 0
M  V30 26661 H 2464.96 0.108549 0.667228 0
M  V30 26662 H 2467.51 0.952634 1.81973 0
M  V30 26663 H 2465.74 -0.645561 3.81273 0
M  V30 26664 H 2467.43 -0.298985 4.04797 0
M  V30 26665 H 2468.2 2.16736 4.33878 0
M  V30 26666 H 2464.08 0.953215 4.51037 0
M  V30 26667 H 2467.62 4.25101 5.53114 0
M  V30 26668 H 2463.52 3.02805 5.70069 0
M  V30 26669 H 2464.29 4.92914 6.53436 0
M  V30 26670 N 2466.95 -1.51228 0.443603 0
M  V30 26671 C 2467.91 -2.26464 -0.353092 0
M  V30 26672 C 2468.91 -1.30151 -0.944315 0
M  V30 26673 O 2470.1 -1.53811 -0.817786 0
M  V30 26674 C 2467.23 -3.06117 -1.50018 0
M  V30 26675 H 2468.43 -2.98331 0.306352 0
M  V30 26676 H 2465.98 -1.55054 0.196929 0
M  V30 26677 H 2466.71 -2.38681 -2.19549 0
M  V30 26678 H 2466.5 -3.76866 -1.08235 0
M  V30 26679 H 2467.99 -3.6309 -2.06289 0
M  V30 26680 N 2468.43 -0.175182 -1.56623 0
M  V30 26681 C 2469.68 0.468887 -1.96174 0
M  V30 26682 C 2469.99 1.64127 -1.06404 0
M  V30 26683 O 2471.19 2.35182 -1.35652 0
M  V30 26684 C 2469.65 0.885572 -3.48835 0
M  V30 26685 C 2469.26 -0.261422 -4.47237 0
M  V30 26686 C 2471 1.49784 -3.97196 0
M  V30 26687 C 2468.91 0.17511 -5.91141 0
M  V30 26688 H 2467.84 0.178945 -0.732458 0
M  V30 26689 H 2470.49 -0.264029 -1.81591 0
M  V30 26690 H 2468.87 1.67458 -3.58851 0
M  V30 26691 H 2470.05 -1.03879 -4.48939 0
M  V30 26692 H 2468.36 -0.783898 -4.08955 0
M  V30 26693 H 2470.96 1.83656 -5.0217 0
M  V30 26694 H 2471.3 2.39716 -3.40355 0
M  V30 26695 H 2471.83 0.773199 -3.90213 0
M  V30 26696 H 2468.57 -0.689529 -6.51863 0
M  V30 26697 H 2468.09 0.917756 -5.92737 0
M  V30 26698 H 2469.77 0.617679 -6.44045 0
M  V30 26699 N 2469.91 1.57292 0.0985263 0
M  V30 26700 C 2471.15 1.85914 0.802645 0
M  V30 26701 C 2471.48 0.763217 1.789 0
M  V30 26702 O 2470.74 -0.243525 1.94179 0
M  V30 26703 C 2471.03 3.21108 1.56922 0
M  V30 26704 C 2470.7 4.45028 0.725298 0
M  V30 26705 C 2469.36 4.78672 0.492642 0
M  V30 26706 C 2471.71 5.21016 0.138401 0
M  V30 26707 C 2469.04 5.85732 -0.33683 0
M  V30 26708 C 2471.39 6.28952 -0.678375 0
M  V30 26709 C 2470.06 6.61113 -0.921155 0
M  V30 26710 H 2469.33 0.680306 0.293709 0
M  V30 26711 H 2471.98 1.91392 0.0642505 0
M  V30 26712 H 2470.28 3.11298 2.37909 0
M  V30 26713 H 2471.98 3.40481 2.11835 0
M  V30 26714 H 2468.57 4.18681 0.916741 0
M  V30 26715 H 2472.75 4.9536 0.305317 0
M  V30 26716 H 2468.01 6.09064 -0.533943 0
M  V30 26717 H 2472.18 6.87005 -1.14002 0
M  V30 26718 H 2469.81 7.43902 -1.56569 0
M  V30 26719 N 2471.38 -0.369261 1.53213 0
M  V30 26720 C 2472.63 -1.11009 1.68883 0
M  V30 26721 C 2472.95 -1.8994 0.441319 0
M  V30 26722 O 2472.22 -1.88178 -0.54459 0
M  V30 26723 H 2470.8 -0.412805 0.622576 0
M  V30 26724 H 2473.46 -0.416768 1.90392 0
M  V30 26725 H 2472.56 -1.80196 2.54825 0
M  V30 26726 N 2472.86 -1.4451 -0.628851 0
M  V30 26727 C 2473.79 -1.46022 -1.75365 0
M  V30 26728 C 2474.77 -0.318815 -1.59444 0
M  V30 26729 O 2475.96 -0.516131 -1.81296 0
M  V30 26730 C 2473.08 -1.29506 -3.12963 0
M  V30 26731 C 2472.13 -2.47239 -3.47527 0
M  V30 26732 S 2472.96 -4.09764 -3.44751 0
M  V30 26733 C 2474.12 -3.95676 -4.84966 0
M  V30 26734 H 2474.35 -2.41196 -1.73816 0
M  V30 26735 H 2471.88 -1.31836 -0.803663 0
M  V30 26736 H 2473.84 -1.20664 -3.92365 0
M  V30 26737 H 2472.5 -0.358396 -3.12049 0
M  V30 26738 H 2471.7 -2.31552 -4.4766 0
M  V30 26739 H 2471.3 -2.52832 -2.75593 0
M  V30 26740 H 2473.59 -3.59506 -5.74249 0
M  V30 26741 H 2474.53 -4.95647 -5.05707 0
M  V30 26742 H 2474.94 -3.27696 -4.59647 0
M  V30 26743 N 2474.34 0.869463 -1.31446 0
M  V30 26744 C 2475.56 1.66056 -1.24259 0
M  V30 26745 C 2475.99 1.87149 0.188895 0
M  V30 26746 O 2475.35 1.41362 1.13519 0
M  V30 26747 C 2475.4 3.00555 -1.99246 0
M  V30 26748 O 2474.5 3.9036 -1.33014 0
M  V30 26749 H 2473.84 0.506824 -0.428982 0
M  V30 26750 H 2476.37 1.08401 -1.73523 0
M  V30 26751 H 2476.38 3.50488 -2.0886 0
M  V30 26752 H 2475.06 2.84523 -3.03347 0
M  V30 26753 H 2473.63 3.48811 -1.31854 0
M  V30 26754 N 2475.82 1.14415 1.08383 0
M  V30 26755 C 2476.77 0.826926 2.17404 0
M  V30 26756 C 2477.76 -0.195283 1.68271 0
M  V30 26757 O 2478.97 -0.0513575 1.79927 0
M  V30 26758 H 2475.34 0.249693 0.709336 0
M  V30 26759 H 2477.31 1.7543 2.41385 0
M  V30 26760 C 2476.06 0.32104 3.46215 0
M  V30 26761 H 2475.38 1.09897 3.84399 0
M  V30 26762 H 2476.82 0.137624 4.23777 0
M  V30 26763 C 2475.28 -0.955415 3.23069 0
M  V30 26764 O 2475.81 -2.02912 3.46684 0
M  V30 26765 N 2474.02 -0.89075 2.76612 0
M  V30 26766 H 2473.57 -0.0168362 2.57594 0
M  V30 26767 H 2473.52 -1.74537 2.61504 0
M  V30 26768 N 2477.3 -1.26549 0.939309 0
M  V30 26769 C 2478.54 -1.93839 0.585881 0
M  V30 26770 C 2478.87 -1.73719 -0.874753 0
M  V30 26771 O 2478.13 -1.06645 -1.6409 0
M  V30 26772 C 2478.42 -3.46595 0.872167 0
M  V30 26773 C 2478.09 -3.86852 2.31638 0
M  V30 26774 C 2476.75 -3.97553 2.71118 0
M  V30 26775 C 2479.1 -4.07061 3.25501 0
M  V30 26776 C 2476.43 -4.25859 4.03561 0
M  V30 26777 C 2478.78 -4.36854 4.57538 0
M  V30 26778 C 2477.45 -4.4577 4.96836 0
M  V30 26779 H 2476.72 -0.709308 0.214389 0
M  V30 26780 H 2479.37 -1.50396 1.18546 0
M  V30 26781 H 2477.67 -3.91339 0.190029 0
M  V30 26782 H 2479.37 -3.9682 0.577512 0
M  V30 26783 H 2475.96 -3.79068 2.00014 0
M  V30 26784 H 2480.14 -3.98222 2.96197 0
M  V30 26785 H 2475.4 -4.30973 4.33673 0
M  V30 26786 H 2479.57 -4.51437 5.30262 0
M  V30 26787 H 2477.2 -4.67457 5.9949 0
M  V30 26788 N 2478.77 -0.706118 -1.40896 0
M  V30 26789 C 2479.74 -0.0563244 -2.29131 0
M  V30 26790 C 2480.74 0.697141 -1.44902 0
M  V30 26791 O 2481.93 0.530455 -1.65927 0
M  V30 26792 C 2479.06 0.930372 -3.27959 0
M  V30 26793 H 2480.25 -0.833334 -2.88089 0
M  V30 26794 H 2477.8 -0.470218 -1.49059 0
M  V30 26795 H 2478.54 1.73477 -2.74 0
M  V30 26796 H 2478.32 0.393098 -3.90125 0
M  V30 26797 H 2479.81 1.38249 -3.94052 0
M  V30 26798 N 2480.25 1.50991 -0.451617 0
M  V30 26799 C 2481.48 2.06317 0.10814 0
M  V30 26800 C 2481.89 1.31767 1.35772 0
M  V30 26801 O 2481.23 0.374725 1.79837 0
M  V30 26802 C 2481.29 3.5626 0.481597 0
M  V30 26803 C 2480.96 4.52162 -0.663193 0
M  V30 26804 C 2481.96 4.96582 -1.53955 0
M  V30 26805 C 2479.64 4.9509 -0.847987 0
M  V30 26806 C 2481.63 5.82616 -2.58528 0
M  V30 26807 C 2479.32 5.80912 -1.89697 0
M  V30 26808 C 2480.32 6.24574 -2.76399 0
M  V30 26809 O 2480.01 7.08689 -3.79494 0
M  V30 26810 H 2479.74 0.675982 0.00497995 0
M  V30 26811 H 2482.29 1.9538 -0.633693 0
M  V30 26812 H 2480.52 3.65029 1.27634 0
M  V30 26813 H 2482.21 3.94037 0.974164 0
M  V30 26814 H 2482.98 4.64101 -1.40839 0
M  V30 26815 H 2478.86 4.60638 -0.182661 0
M  V30 26816 H 2482.4 6.16617 -3.26234 0
M  V30 26817 H 2478.3 6.12806 -2.02828 0
M  V30 26818 H 2479.07 7.26898 -3.76247 0
M  V30 26819 N 2481.73 0.183486 1.56528 0
M  V30 26820 C 2482.98 -0.459002 1.97537 0
M  V30 26821 C 2483.31 -1.62069 1.06992 0
M  V30 26822 O 2482.58 -1.94132 0.119515 0
M  V30 26823 C 2482.87 -0.930307 3.47875 0
M  V30 26824 C 2482.72 0.232396 4.49199 0
M  V30 26825 C 2484.04 -1.79982 4.01615 0
M  V30 26826 H 2481.16 -0.165371 0.718207 0
M  V30 26827 H 2483.8 0.272072 1.88042 0
M  V30 26828 H 2481.95 -1.55327 3.56098 0
M  V30 26829 H 2483.62 0.869799 4.53026 0
M  V30 26830 H 2481.86 0.886002 4.24656 0
M  V30 26831 H 2482.54 -0.139699 5.51823 0
M  V30 26832 H 2485.01 -1.27454 3.96099 0
M  V30 26833 H 2483.89 -2.09858 5.07199 0
M  V30 26834 H 2484.15 -2.74992 3.46167 0
M  V30 26835 N 2483.21 -1.57342 -0.0901833 0
M  V30 26836 C 2484.15 -2.02407 -1.10905 0
M  V30 26837 C 2485.12 -0.901276 -1.39521 0
M  V30 26838 O 2486.31 -1.16763 -1.50901 0
M  V30 26839 C 2483.45 -2.4576 -2.42273 0
M  V30 26840 C 2482.56 -3.7158 -2.20346 0
M  V30 26841 C 2481.7 -4.03791 -3.45147 0
M  V30 26842 C 2480.74 -5.22707 -3.18503 0
M  V30 26843 N 2479.87 -5.50646 -4.35584 0
M  V30 26844 H 2484.71 -2.89227 -0.71777 0
M  V30 26845 H 2482.25 -1.43048 -0.342876 0
M  V30 26846 H 2484.21 -2.68941 -3.18946 0
M  V30 26847 H 2482.84 -1.61943 -2.79239 0
M  V30 26848 H 2481.89 -3.55847 -1.34452 0
M  V30 26849 H 2483.2 -4.58398 -1.96653 0
M  V30 26850 H 2482.36 -4.27775 -4.30225 0
M  V30 26851 H 2481.1 -3.15504 -3.71898 0
M  V30 26852 H 2480.1 -4.98538 -2.31818 0
M  V30 26853 H 2481.33 -6.12596 -2.93092 0
M  V30 26854 H 2479.27 -4.65318 -4.62401 0
M  V30 26855 H 2479.19 -6.31846 -4.15099 0
M  V30 26856 H 2480.46 -5.79169 -5.21712 0
M  V30 26857 N 2484.69 0.36113 -1.53407 0
M  V30 26858 C 2485.63 1.44262 -1.80159 0
M  V30 26859 C 2486.6 1.53014 -0.646209 0
M  V30 26860 O 2487.79 1.68832 -0.888848 0
M  V30 26861 C 2484.93 2.8115 -2.00121 0
M  V30 26862 C 2484.04 2.81329 -3.27838 0
M  V30 26863 C 2483.18 4.09822 -3.37964 0
M  V30 26864 C 2482.22 4.0416 -4.59696 0
M  V30 26865 N 2481.35 5.2431 -4.66951 0
M  V30 26866 H 2486.19 1.2075 -2.7244 0
M  V30 26867 H 2483.73 0.585272 -1.34955 0
M  V30 26868 H 2485.69 3.60678 -2.09683 0
M  V30 26869 H 2484.32 3.03052 -1.11172 0
M  V30 26870 H 2483.37 1.94008 -3.27208 0
M  V30 26871 H 2484.68 2.7302 -4.17447 0
M  V30 26872 H 2483.84 4.97767 -3.46861 0
M  V30 26873 H 2482.57 4.2089 -2.4638 0
M  V30 26874 H 2481.58 3.14601 -4.50895 0
M  V30 26875 H 2482.8 3.9469 -5.52627 0
M  V30 26876 H 2480.75 5.35955 -3.7827 0
M  V30 26877 H 2480.67 5.18187 -5.50471 0
M  V30 26878 H 2481.94 6.14075 -4.80137 0
M  V30 26879 N 2486.16 1.44842 0.621179 0
M  V30 26880 C 2487.07 1.54983 1.76117 0
M  V30 26881 C 2488.09 0.434957 1.68476 0
M  V30 26882 O 2489.27 0.693726 1.89075 0
M  V30 26883 C 2486.33 1.5007 3.12538 0
M  V30 26884 C 2485.39 2.72488 3.31736 0
M  V30 26885 C 2484.63 2.678 4.61648 0
M  V30 26886 O 2484.85 1.74361 5.43097 0
M  V30 26887 O 2483.78 3.58802 4.83265 0
M  V30 26888 H 2487.61 2.51314 1.70514 0
M  V30 26889 H 2485.19 1.272 0.783621 0
M  V30 26890 H 2487.08 1.49889 3.93842 0
M  V30 26891 H 2485.75 0.568862 3.18662 0
M  V30 26892 H 2484.66 2.78235 2.50072 0
M  V30 26893 H 2485.99 3.64752 3.3048 0
M  V30 26894 N 2487.64 -0.862479 1.31905 0
M  V30 26895 C 2488.61 -1.95193 1.20134 0
M  V30 26896 C 2489.61 -1.60302 0.126437 0
M  V30 26897 O 2490.8 -1.70088 0.376264 0
M  V30 26898 C 2487.93 -3.30242 0.845749 0
M  V30 26899 H 2489.12 -2.0706 2.16947 0
M  V30 26900 H 2486.67 -1.0517 1.15624 0
M  V30 26901 H 2487.41 -3.24075 -0.1209 0
M  V30 26902 H 2487.19 -3.56941 1.62282 0
M  V30 26903 H 2488.68 -4.10108 0.78749 0
M  V30 26904 N 2489.12 -1.14988 -1.07775 0
M  V30 26905 C 2490.37 -0.920266 -1.79932 0
M  V30 26906 C 2490.69 0.554303 -1.86956 0
M  V30 26907 O 2489.96 1.40289 -1.36733 0
M  V30 26908 H 2488.54 -0.337485 -0.666418 0
M  V30 26909 H 2491.2 -1.4497 -1.30267 0
M  V30 26910 H 2490.3 -1.32588 -2.82537 0
M  V30 26911 N 2490.6 1.26049 -0.946007 0
M  V30 26912 C 2491.85 1.92821 -0.591869 0
M  V30 26913 C 2492.16 1.74991 0.873925 0
M  V30 26914 O 2493.37 2.36261 1.33765 0
M  V30 26915 C 2491.82 3.45501 -1.00782 0
M  V30 26916 C 2491.43 3.72056 -2.49556 0
M  V30 26917 C 2493.17 4.18249 -0.725808 0
M  V30 26918 C 2491.08 5.182 -2.84997 0
M  V30 26919 H 2490.01 0.721904 -0.217647 0
M  V30 26920 H 2492.66 1.4305 -1.1493 0
M  V30 26921 H 2491.04 3.94183 -0.378882 0
M  V30 26922 H 2492.22 3.3406 -3.17396 0
M  V30 26923 H 2490.53 3.12551 -2.75138 0
M  V30 26924 H 2493.13 5.25886 -0.966864 0
M  V30 26925 H 2493.47 4.14929 0.337566 0
M  V30 26926 H 2494.01 3.75447 -1.31469 0
M  V30 26927 H 2490.75 5.26624 -3.90316 0
M  V30 26928 H 2490.27 5.57274 -2.21823 0
M  V30 26929 H 2491.94 5.86247 -2.73722 0
M  V30 26930 N 2492.08 0.71358 1.4052 0
M  V30 26931 C 2493.35 0.179465 1.94775 0
M  V30 26932 C 2493.73 -1.31441 1.65186 0
M  V30 26933 O 2493.08 -2.06961 0.968465 0
M  V30 26934 C 2493.29 0.490047 3.45542 0
M  V30 26935 C 2494.64 0.427611 4.22441 0
M  V30 26936 O 2495.66 0.425991 3.53644 0
M  V30 26937 O 2494.52 0.403387 5.45009 0
M  V30 26938 H 2491.62 0.0255338 0.826606 0
M  V30 26939 H 2494.16 0.790976 1.50139 0
M  V30 26940 H 2492.93 1.52336 3.60429 0
M  V30 26941 H 2492.56 -0.151528 3.97311 0
M  V30 26942 N 2493.55 -1.50749 0.459618 0
M  V30 26943 C 2494.83 -1.94942 -0.160336 0
M  V30 26944 C 2495.21 -1.39946 -1.58046 0
M  V30 26945 O 2494.56 -0.595668 -2.20599 0
M  V30 26946 C 2494.77 -3.48809 -0.115371 0
M  V30 26947 C 2496.12 -4.23467 -0.309952 0
M  V30 26948 O 2497.14 -3.5568 -0.192481 0
M  V30 26949 O 2496 -5.43766 -0.545935 0
M  V30 26950 H 2493.09 -0.818551 -0.11791 0
M  V30 26951 H 2495.64 -1.61562 0.519198 0
M  V30 26952 H 2494.41 -3.81355 0.876587 0
M  V30 26953 H 2494.04 -3.88693 -0.836859 0
M  V30 26954 N 2495.03 -0.191784 -1.56429 0
M  V30 26955 C 2495.97 0.769632 -2.1483 0
M  V30 26956 C 2496.94 1.21188 -1.08407 0
M  V30 26957 O 2498.13 1.29999 -1.36501 0
M  V30 26958 C 2495.25 2.03898 -2.7045 0
M  V30 26959 C 2494.3 1.73913 -3.89431 0
M  V30 26960 S 2495.13 0.890172 -5.28049 0
M  V30 26961 C 2496.29 2.16974 -5.87089 0
M  V30 26962 H 2496.52 0.273152 -2.96043 0
M  V30 26963 H 2494.06 0.0231703 -1.54383 0
M  V30 26964 H 2496.01 2.76797 -3.03139 0
M  V30 26965 H 2494.67 2.50659 -1.89285 0
M  V30 26966 H 2493.87 2.68148 -4.26747 0
M  V30 26967 H 2493.47 1.09097 -3.57734 0
M  V30 26968 H 2495.76 3.12259 -6.01249 0
M  V30 26969 H 2496.7 1.84096 -6.8375 0
M  V30 26970 H 2497.11 2.29669 -5.15667 0
M  V30 26971 N 2496.51 1.57387 0.0818378 0
M  V30 26972 C 2497.76 1.86754 0.782882 0
M  V30 26973 C 2498.09 0.782149 1.78081 0
M  V30 26974 O 2497.34 -0.222916 1.94426 0
M  V30 26975 C 2497.64 3.22754 1.53507 0
M  V30 26976 C 2497.31 4.45773 0.678056 0
M  V30 26977 C 2495.97 4.79167 0.441845 0
M  V30 26978 C 2498.32 5.21134 0.0831327 0
M  V30 26979 C 2495.65 5.85342 -0.398936 0
M  V30 26980 C 2498 6.28197 -0.745045 0
M  V30 26981 C 2496.66 6.60099 -0.991223 0
M  V30 26982 H 2495.93 0.683383 0.286477 0
M  V30 26983 H 2498.58 1.9145 0.0439472 0
M  V30 26984 H 2496.89 3.13804 2.34594 0
M  V30 26985 H 2498.58 3.42708 2.08212 0
M  V30 26986 H 2495.17 4.1963 0.872283 0
M  V30 26987 H 2499.36 4.95656 0.25276 0
M  V30 26988 H 2494.61 6.08463 -0.598512 0
M  V30 26989 H 2498.79 6.85758 -1.21283 0
M  V30 26990 H 2496.41 7.42199 -1.6445 0
M  V30 26991 N 2497.99 -0.35299 1.53596 0
M  V30 26992 C 2498.94 -1.45332 1.81608 0
M  V30 26993 C 2499.93 -1.54891 0.685951 0
M  V30 26994 O 2501.14 -1.57627 0.869123 0
M  V30 26995 H 2497.51 -0.484391 0.575212 0
M  V30 26996 H 2499.48 -1.18916 2.73681 0
M  V30 26997 C 2498.23 -2.81992 2.03411 0
M  V30 26998 H 2497.55 -2.754 2.89818 0
M  V30 26999 H 2498.99 -3.58128 2.26981 0
M  V30 27000 C 2497.45 -3.26847 0.816851 0
M  V30 27001 O 2497.98 -4.01698 0.0116562 0
M  V30 27002 N 2496.19 -2.83538 0.636732 0
M  V30 27003 H 2495.74 -2.22791 1.29313 0
M  V30 27004 H 2495.69 -3.13905 -0.17628 0
M  V30 27005 N 2499.47 -1.45169 -0.613489 0
M  V30 27006 C 2500.71 -1.48878 -1.37265 0
M  V30 27007 C 2501.04 -0.128195 -1.94077 0
M  V30 27008 O 2500.3 0.872385 -1.7518 0
M  V30 27009 C 2500.6 -2.51087 -2.54342 0
M  V30 27010 C 2500.26 -3.95953 -2.15713 0
M  V30 27011 C 2498.92 -4.354 -2.04892 0
M  V30 27012 C 2501.28 -4.87081 -1.85476 0
M  V30 27013 C 2498.6 -5.63877 -1.62047 0
M  V30 27014 C 2500.96 -6.15965 -1.44119 0
M  V30 27015 C 2499.62 -6.54348 -1.31852 0
M  V30 27016 H 2498.89 -0.544781 -0.502289 0
M  V30 27017 H 2501.54 -1.78483 -0.69399 0
M  V30 27018 H 2499.84 -2.1503 -3.2752 0
M  V30 27019 H 2501.54 -2.51196 -3.12572 0
M  V30 27020 H 2498.13 -3.64755 -2.2506 0
M  V30 27021 H 2502.31 -4.57347 -1.92737 0
M  V30 27022 H 2497.57 -5.92418 -1.51167 0
M  V30 27023 H 2501.74 -6.86024 -1.19766 0
M  V30 27024 H 2499.37 -7.53801 -0.98426 0
M  V30 27025 N 2500.95 0.855472 -1.32361 0
M  V30 27026 C 2501.86 1.99632 -1.23225 0
M  V30 27027 C 2502.87 1.73386 -0.146013 0
M  V30 27028 O 2504.05 1.98037 -0.366537 0
M  V30 27029 C 2501.11 3.33292 -0.95484 0
M  V30 27030 C 2500.17 3.72765 -2.12943 0
M  V30 27031 C 2499.41 5.00047 -1.86517 0
M  V30 27032 O 2499.63 5.64658 -0.80733 0
M  V30 27033 O 2498.56 5.36631 -2.726 0
M  V30 27034 H 2502.39 2.10276 -2.1913 0
M  V30 27035 H 2499.97 0.985999 -1.12243 0
M  V30 27036 H 2501.86 4.13412 -0.816592 0
M  V30 27037 H 2500.53 3.2369 -0.0259423 0
M  V30 27038 H 2499.44 2.93224 -2.32315 0
M  V30 27039 H 2500.77 3.87012 -3.04109 0
M  V30 27040 N 2502.42 1.15558 1.07164 0
M  V30 27041 C 2503.65 0.955551 1.83512 0
M  V30 27042 C 2504.07 -0.496178 1.82163 0
M  V30 27043 O 2503.42 -1.34417 1.23443 0
M  V30 27044 C 2503.47 1.46438 3.30512 0
M  V30 27045 O 2503.2 2.85924 3.31932 0
M  V30 27046 C 2504.7 1.3061 4.23622 0
M  V30 27047 H 2501.92 0.339254 0.57892 0
M  V30 27048 H 2504.46 1.53376 1.35263 0
M  V30 27049 H 2502.62 0.92865 3.76105 0
M  V30 27050 H 2503.03 3.09036 4.23789 0
M  V30 27051 H 2504.5 1.71056 5.24828 0
M  V30 27052 H 2504.98 0.250518 4.38485 0
M  V30 27053 H 2505.59 1.83101 3.83867 0
M  V30 27054 N 2503.9 -1.25546 0.952678 0
M  V30 27055 C 2505.15 -1.93207 0.606407 0
M  V30 27056 C 2505.48 -1.74637 -0.856279 0
M  V30 27057 O 2504.73 -1.08379 -1.62949 0
M  V30 27058 C 2505.03 -3.4565 0.908879 0
M  V30 27059 C 2504.7 -3.84373 2.35728 0
M  V30 27060 C 2503.36 -3.94655 2.75319 0
M  V30 27061 C 2505.71 -4.03585 3.298 0
M  V30 27062 C 2503.04 -4.21555 4.08055 0
M  V30 27063 C 2505.39 -4.31977 4.62146 0
M  V30 27064 C 2504.05 -4.40475 5.01536 0
M  V30 27065 H 2503.32 -0.706995 0.2219 0
M  V30 27066 H 2505.97 -1.4913 1.20135 0
M  V30 27067 H 2504.28 -3.91115 0.231525 0
M  V30 27068 H 2505.97 -3.96185 0.619567 0
M  V30 27069 H 2502.56 -3.76925 2.04024 0
M  V30 27070 H 2506.75 -3.95058 3.00404 0
M  V30 27071 H 2502 -4.26349 4.38219 0
M  V30 27072 H 2506.18 -4.45788 5.3502 0
M  V30 27073 H 2503.8 -4.61072 6.04414 0
M  V30 27074 N 2505.38 -0.721022 -1.40139 0
M  V30 27075 C 2506.63 -0.262358 -2.0039 0
M  V30 27076 C 2506.95 1.15012 -1.57471 0
M  V30 27077 O 2506.22 1.78068 -0.816614 0
M  V30 27078 H 2504.8 -0.094009 -0.741061 0
M  V30 27079 H 2507.46 -0.927866 -1.71396 0
M  V30 27080 H 2506.56 -0.299726 -3.10657 0
M  V30 27081 N 2506.86 1.50503 -0.467606 0
M  V30 27082 C 2507.81 2.30065 0.342441 0
M  V30 27083 C 2508.8 1.37202 0.993572 0
M  V30 27084 O 2510.01 1.5441 0.925075 0
M  V30 27085 H 2506.38 0.740806 0.12927 0
M  V30 27086 H 2508.35 2.96352 -0.349042 0
M  V30 27087 C 2507.1 3.17657 1.41385 0
M  V30 27088 H 2506.42 3.89019 0.922196 0
M  V30 27089 H 2507.86 3.76328 1.95328 0
M  V30 27090 C 2506.32 2.3502 2.41386 0
M  V30 27091 O 2506.85 2.03085 3.46582 0
M  V30 27092 N 2505.06 1.97666 2.13017 0
M  V30 27093 H 2504.61 2.23836 1.27495 0
M  V30 27094 H 2504.56 1.42678 2.80161 0
M  V30 27095 N 2508.34 0.200077 1.56325 0
M  V30 27096 C 2509.56 -0.445935 2.02549 0
M  V30 27097 C 2509.99 -1.54058 1.07925 0
M  V30 27098 O 2509.34 -1.81188 0.0636093 0
M  V30 27099 C 2509.39 -0.9747 3.47177 0
M  V30 27100 O 2508.5 -2.08732 3.55675 0
M  V30 27101 H 2507.84 -0.103626 0.655864 0
M  V30 27102 H 2510.37 0.312417 2.02201 0
M  V30 27103 H 2510.38 -1.29003 3.87069 0
M  V30 27104 H 2509.05 -0.173397 4.15538 0
M  V30 27105 H 2507.63 -1.78026 3.2766 0
M  V30 27106 N 2509.81 -1.57429 -0.0734901 0
M  V30 27107 C 2510.75 -1.98865 -1.11929 0
M  V30 27108 C 2511.72 -0.865291 -1.37664 0
M  V30 27109 O 2512.91 -1.12745 -1.51066 0
M  V30 27110 C 2510.04 -2.3239 -2.46399 0
M  V30 27111 C 2509.08 -3.54717 -2.36808 0
M  V30 27112 S 2509.91 -5.05618 -1.76383 0
M  V30 27113 C 2511.07 -5.42343 -3.12434 0
M  V30 27114 H 2511.3 -2.87258 -0.766161 0
M  V30 27115 H 2508.84 -1.51804 -0.281961 0
M  V30 27116 H 2510.79 -2.52381 -3.2375 0
M  V30 27117 H 2509.46 -1.44529 -2.78873 0
M  V30 27118 H 2508.65 -3.75686 -3.3597 0
M  V30 27119 H 2508.25 -3.34348 -1.67592 0
M  V30 27120 H 2510.54 -5.4031 -4.08744 0
M  V30 27121 H 2511.49 -6.43151 -2.96246 0
M  V30 27122 H 2511.89 -4.69804 -3.12962 0
M  V30 27123 N 2511.29 0.344839 -1.53781 0
M  V30 27124 C 2512.54 1.08264 -1.70181 0
M  V30 27125 C 2512.85 1.89844 -0.471033 0
M  V30 27126 O 2514.06 2.66552 -0.515964 0
M  V30 27127 C 2512.52 1.97412 -3.00926 0
M  V30 27128 C 2512.12 1.21046 -4.31337 0
M  V30 27129 C 2513.87 2.71058 -3.26693 0
M  V30 27130 C 2511.77 2.09216 -5.53157 0
M  V30 27131 H 2510.7 0.407892 -0.634145 0
M  V30 27132 H 2513.36 0.342215 -1.80281 0
M  V30 27133 H 2511.74 2.75269 -2.84681 0
M  V30 27134 H 2512.91 0.481079 -4.58282 0
M  V30 27135 H 2511.23 0.59174 -4.12174 0
M  V30 27136 H 2513.82 3.37292 -4.14895 0
M  V30 27137 H 2514.17 3.37554 -2.43645 0
M  V30 27138 H 2514.7 2.00274 -3.43708 0
M  V30 27139 H 2511.44 1.47263 -6.38744 0
M  V30 27140 H 2510.96 2.79946 -5.30463 0
M  V30 27141 H 2512.64 2.68298 -5.88749 0
M  V30 27142 N 2512.77 1.45492 0.605781 0
M  V30 27143 C 2514.01 1.51145 1.37603 0
M  V30 27144 C 2514.37 0.150108 1.91412 0
M  V30 27145 O 2515.57 0.08133 2.68677 0
M  V30 27146 C 2513.85 2.56199 2.49192 0
M  V30 27147 S 2515.4 2.81089 3.36949 0
M  V30 27148 H 2512.22 0.534283 0.469108 0
M  V30 27149 H 2514.82 1.82584 0.698813 0
M  V30 27150 H 2513.53 3.53777 2.08014 0
M  V30 27151 H 2513.06 2.26416 3.21713 0
M  V30 27152 H 2515.07 2.14605 4.47391 0
M  V30 27153 N 2514.25 -0.848441 1.32813 0
M  V30 27154 C 2515.18 -1.97297 1.24885 0
M  V30 27155 C 2516.16 -1.69592 0.131386 0
M  V30 27156 O 2517.34 -1.91552 0.319586 0
M  V30 27157 C 2514.47 -3.33259 0.977518 0
M  V30 27158 C 2513.43 -3.75335 2.05689 0
M  V30 27159 C 2512.75 -5.08997 1.63786 0
M  V30 27160 C 2514.05 -3.90137 3.47261 0
M  V30 27161 H 2515.75 -2.04187 2.1897 0
M  V30 27162 H 2513.29 -0.98101 1.05414 0
M  V30 27163 H 2515.25 -4.11488 0.908585 0
M  V30 27164 H 2513.97 -3.266 0.00103742 0
M  V30 27165 H 2512.63 -2.99362 2.11608 0
M  V30 27166 H 2512.28 -4.988 0.648656 0
M  V30 27167 H 2511.98 -5.3812 2.36009 0
M  V30 27168 H 2513.5 -5.89712 1.58341 0
M  V30 27169 H 2514.92 -4.58703 3.43896 0
M  V30 27170 H 2513.31 -4.30685 4.17888 0
M  V30 27171 H 2514.38 -2.92867 3.86467 0
M  V30 27172 N 2515.73 -1.16125 -1.06549 0
M  V30 27173 C 2516.97 -0.941158 -1.793 0
M  V30 27174 C 2517.3 0.531202 -1.87106 0
M  V30 27175 O 2516.56 1.41016 -1.35695 0
M  V30 27176 C 2516.86 -1.51057 -3.23908 0
M  V30 27177 C 2516.52 -3.00481 -3.36187 0
M  V30 27178 C 2515.18 -3.41271 -3.39246 0
M  V30 27179 C 2517.54 -3.96471 -3.38319 0
M  V30 27180 C 2514.86 -4.76675 -3.42049 0
M  V30 27181 C 2517.22 -5.31758 -3.4266 0
M  V30 27182 C 2515.88 -5.72032 -3.44 0
M  V30 27183 H 2515.15 -0.344394 -0.656105 0
M  V30 27184 H 2517.8 -1.44798 -1.25322 0
M  V30 27185 H 2516.1 -0.925129 -3.80721 0
M  V30 27186 H 2517.8 -1.31599 -3.78791 0
M  V30 27187 H 2514.39 -2.67956 -3.34511 0
M  V30 27188 H 2518.57 -3.66026 -3.3517 0
M  V30 27189 H 2513.83 -5.07212 -3.41389 0
M  V30 27190 H 2518 -6.05927 -3.43257 0
M  V30 27191 H 2515.63 -6.76934 -3.45925 0
M  V30 27192 N 2517.2 1.25039 -0.959323 0
M  V30 27193 C 2518.14 2.24926 -0.440583 0
M  V30 27194 C 2519.15 1.56569 0.446103 0
M  V30 27195 O 2520.34 1.76689 0.253626 0
M  V30 27196 C 2517.44 3.36717 0.384061 0
M  V30 27197 C 2516.61 4.34638 -0.490735 0
M  V30 27198 C 2515.67 5.25473 0.276494 0
M  V30 27199 O 2514.7 5.68262 -0.326714 0
M  V30 27200 N 2515.9 5.58913 1.56834 0
M  V30 27201 H 2518.66 2.70068 -1.29935 0
M  V30 27202 H 2516.22 1.38994 -0.830205 0
M  V30 27203 H 2518.22 3.94448 0.905159 0
M  V30 27204 H 2516.79 2.90926 1.14372 0
M  V30 27205 H 2516.01 3.75718 -1.19289 0
M  V30 27206 H 2517.29 4.97039 -1.08765 0
M  V30 27207 H 2516.69 5.26062 2.08026 0
M  V30 27208 H 2515.25 6.19208 2.0353 0
M  V30 27209 N 2518.68 0.728444 1.39755 0
M  V30 27210 C 2519.93 0.270443 1.99879 0
M  V30 27211 C 2520.24 -1.14685 1.58451 0
M  V30 27212 O 2521.45 -1.70403 2.11365 0
M  V30 27213 C 2519.91 0.432583 3.57291 0
M  V30 27214 C 2519.51 1.85734 4.07685 0
M  V30 27215 C 2521.26 0.0360253 4.24485 0
M  V30 27216 C 2519.17 1.96938 5.57646 0
M  V30 27217 H 2518.1 0.0973603 0.747688 0
M  V30 27218 H 2520.75 0.901384 1.59835 0
M  V30 27219 H 2519.13 -0.26715 3.95098 0
M  V30 27220 H 2520.3 2.58849 3.81226 0
M  V30 27221 H 2518.62 2.20652 3.53131 0
M  V30 27222 H 2521.21 0.0988423 5.34609 0
M  V30 27223 H 2521.56 -1.0078 4.03917 0
M  V30 27224 H 2522.09 0.686673 3.91829 0
M  V30 27225 H 2518.83 2.99486 5.83085 0
M  V30 27226 H 2518.35 1.28251 5.85928 0
M  V30 27227 H 2520.03 1.74748 6.22954 0
M  V30 27228 N 2520.16 -1.50253 0.475581 0
M  V30 27229 C 2521.39 -2.06763 -0.0754129 0
M  V30 27230 C 2521.8 -1.33894 -1.33109 0
M  V30 27231 O 2521.16 -0.409551 -1.77845 0
M  V30 27232 C 2521.21 -3.59714 -0.358945 0
M  V30 27233 O 2520.93 -4.29836 0.846927 0
M  V30 27234 C 2522.43 -4.3286 -0.956408 0
M  V30 27235 H 2519.65 -0.670938 0.00908704 0
M  V30 27236 H 2522.2 -1.93363 0.665652 0
M  V30 27237 H 2520.35 -3.72901 -1.04995 0
M  V30 27238 H 2520.77 -5.21123 0.594254 0
M  V30 27239 H 2522.24 -5.40836 -1.10454 0
M  V30 27240 H 2522.72 -3.93652 -1.94768 0
M  V30 27241 H 2523.32 -4.24215 -0.303648 0
M  V30 27242 N 2521.64 -0.208365 -1.56217 0
M  V30 27243 C 2522.87 0.432114 -2.02337 0
M  V30 27244 C 2523.28 1.54273 -1.08837 0
M  V30 27245 O 2522.64 1.8225 -0.0955782 0
M  V30 27246 C 2522.69 0.976077 -3.48073 0
M  V30 27247 O 2522.41 -0.090239 -4.38007 0
M  V30 27248 C 2523.91 1.69112 -4.09776 0
M  V30 27249 H 2521.13 0.107168 -0.662387 0
M  V30 27250 H 2523.68 -0.320958 -2.01966 0
M  V30 27251 H 2521.83 1.67948 -3.49102 0
M  V30 27252 H 2522.24 0.316609 -5.23544 0
M  V30 27253 H 2523.72 2.02388 -5.13559 0
M  V30 27254 H 2524.2 2.59958 -3.54004 0
M  V30 27255 H 2524.8 1.03325 -4.12558 0
M  V30 27256 N 2523.12 1.57465 0.0651402 0
M  V30 27257 C 2524.34 1.92191 0.779572 0
M  V30 27258 C 2524.77 0.805363 1.69987 0
M  V30 27259 O 2524.12 -0.241404 1.79686 0
M  V30 27260 C 2524.17 3.25892 1.54358 0
M  V30 27261 O 2523.28 3.15595 2.65469 0
M  V30 27262 H 2522.62 0.629167 0.212238 0
M  V30 27263 H 2525.15 2.04576 0.0313934 0
M  V30 27264 H 2525.16 3.59926 1.92139 0
M  V30 27265 H 2523.83 4.06733 0.868386 0
M  V30 27266 H 2522.41 2.93132 2.30496 0
M  V30 27267 N 2524.59 -0.336679 1.53962 0
M  V30 27268 C 2525.56 -1.39672 1.81726 0
M  V30 27269 C 2526.56 -1.45312 0.688558 0
M  V30 27270 O 2527.75 -1.45568 0.956854 0
M  V30 27271 C 2524.88 -2.78535 1.96548 0
M  V30 27272 H 2526.07 -1.16314 2.76426 0
M  V30 27273 H 2523.63 -0.571448 1.45479 0
M  V30 27274 H 2524.36 -3.07167 1.04015 0
M  V30 27275 H 2524.15 -2.75836 2.7867 0
M  V30 27276 H 2525.64 -3.55246 2.19522 0
M  V30 27277 N 2526.07 -1.45812 -0.598057 0
M  V30 27278 C 2527.32 -1.50028 -1.3541 0
M  V30 27279 C 2527.64 -0.147211 -1.94444 0
M  V30 27280 O 2526.91 0.82454 -1.77702 0
M  V30 27281 H 2525.49 -0.552526 -0.502717 0
M  V30 27282 H 2528.15 -1.81835 -0.701574 0
M  V30 27283 H 2527.25 -2.24444 -2.16867 0
M  V30 27284 N 2527.55 0.841385 -1.33261 0
M  V30 27285 C 2528.8 1.59855 -1.25769 0
M  V30 27286 C 2529.15 1.91597 0.175569 0
M  V30 27287 O 2528.44 1.55674 1.11697 0
M  V30 27288 C 2528.64 2.91787 -2.06386 0
M  V30 27289 C 2528.47 2.7293 -3.57406 0
M  V30 27290 C 2527.24 2.7062 -4.26723 0
M  V30 27291 C 2529.44 2.45745 -4.5179 0
M  V30 27292 N 2527.42 2.43115 -5.63709 0
M  V30 27293 C 2528.79 2.27767 -5.76647 0
M  V30 27294 C 2530.84 2.31321 -4.40902 0
M  V30 27295 C 2529.55 1.96829 -6.91846 0
M  V30 27296 C 2531.57 2.01776 -5.55914 0
M  V30 27297 C 2530.93 1.84608 -6.79779 0
M  V30 27298 H 2527.03 0.588108 -0.515416 0
M  V30 27299 H 2529.62 0.987926 -1.67774 0
M  V30 27300 H 2527.79 3.50804 -1.66706 0
M  V30 27301 H 2529.52 3.56962 -1.90684 0
M  V30 27302 H 2526.28 2.84037 -3.78973 0
M  V30 27303 H 2526.7 2.32253 -6.35915 0
M  V30 27304 H 2531.34 2.43308 -3.45776 0
M  V30 27305 H 2529.06 1.8358 -7.86971 0
M  V30 27306 H 2532.65 1.91374 -5.49424 0
M  V30 27307 H 2531.53 1.62075 -7.67269 0
M  V30 27308 N 2529.03 1.16688 1.05932 0
M  V30 27309 C 2530.31 0.860778 1.75642 0
M  V30 27310 C 2530.69 -0.640606 2.01145 0
M  V30 27311 O 2530.03 -1.58956 1.6415 0
M  V30 27312 C 2530.24 1.6875 3.0549 0
M  V30 27313 C 2531.59 1.90278 3.79578 0
M  V30 27314 O 2532.62 1.65646 3.15341 0
M  V30 27315 O 2531.48 2.31627 4.94986 0
M  V30 27316 H 2528.57 0.31799 0.763421 0
M  V30 27317 H 2531.12 1.27344 1.12168 0
M  V30 27318 H 2529.89 2.70616 2.82635 0
M  V30 27319 H 2529.51 1.27212 3.767 0
M  V30 27320 N 2530.51 -1.24529 0.96594 0
M  V30 27321 C 2531.76 -1.92173 0.625627 0
M  V30 27322 C 2532.08 -1.75903 -0.841621 0
M  V30 27323 O 2531.35 -1.12951 -1.60059 0
M  V30 27324 H 2529.93 -0.711226 0.228401 0
M  V30 27325 H 2532.59 -1.51459 1.22663 0
M  V30 27326 H 2531.68 -2.99882 0.864706 0
M  V30 27327 N 2531.99 -0.735845 -1.39367 0
M  V30 27328 C 2532.92 -0.111547 -2.33233 0
M  V30 27329 C 2533.9 0.723307 -1.53955 0
M  V30 27330 O 2535.08 0.668115 -1.82345 0
M  V30 27331 C 2532.21 0.795857 -3.38058 0
M  V30 27332 C 2531.17 0.0650968 -4.2795 0
M  V30 27333 C 2530.49 1.08957 -5.23481 0
M  V30 27334 C 2531.79 -1.09282 -5.10739 0
M  V30 27335 H 2533.49 -0.895621 -2.8569 0
M  V30 27336 H 2531.03 -0.432134 -1.37363 0
M  V30 27337 H 2532.98 1.24214 -4.02677 0
M  V30 27338 H 2531.71 1.61206 -2.84043 0
M  V30 27339 H 2530.37 -0.361575 -3.64813 0
M  V30 27340 H 2530.02 1.89936 -4.65761 0
M  V30 27341 H 2529.72 0.605386 -5.84473 0
M  V30 27342 H 2531.24 1.53554 -5.90977 0
M  V30 27343 H 2532.65 -0.72494 -5.68698 0
M  V30 27344 H 2531.05 -1.5067 -5.80877 0
M  V30 27345 H 2532.12 -1.91412 -4.45522 0
M  V30 27346 N 2533.46 1.49999 -0.483543 0
M  V30 27347 C 2534.39 2.31644 0.293788 0
M  V30 27348 C 2535.37 1.39114 0.97884 0
M  V30 27349 O 2536.56 1.68031 0.973614 0
M  V30 27350 C 2533.69 3.19183 1.36892 0
M  V30 27351 C 2532.64 4.20366 0.804759 0
M  V30 27352 C 2531.97 4.96725 1.97911 0
M  V30 27353 C 2533.27 5.21945 -0.192404 0
M  V30 27354 H 2534.96 2.9688 -0.387668 0
M  V30 27355 H 2532.51 1.42769 -0.187881 0
M  V30 27356 H 2534.46 3.75103 1.9203 0
M  V30 27357 H 2533.19 2.51857 2.07932 0
M  V30 27358 H 2531.85 3.65565 0.275254 0
M  V30 27359 H 2531.49 4.25861 2.67678 0
M  V30 27360 H 2531.19 5.65176 1.60779 0
M  V30 27361 H 2532.72 5.55483 2.53516 0
M  V30 27362 H 2534.13 5.72663 0.270232 0
M  V30 27363 H 2532.53 5.98188 -0.478648 0
M  V30 27364 H 2533.6 4.71926 -1.11418 0
M  V30 27365 N 2534.94 0.216646 1.56104 0
M  V30 27366 C 2535.9 -0.681923 2.18821 0
M  V30 27367 C 2536.9 -1.12526 1.14868 0
M  V30 27368 O 2538.09 -1.03485 1.4013 0
M  V30 27369 C 2535.23 -1.93357 2.80759 0
M  V30 27370 H 2536.42 -0.135201 2.99595 0
M  V30 27371 H 2533.97 -0.0329729 1.56265 0
M  V30 27372 H 2534.71 -2.52228 2.03842 0
M  V30 27373 H 2534.49 -1.6242 3.56878 0
M  V30 27374 H 2535.98 -2.57387 3.28849 0
M  V30 27375 N 2536.42 -1.57498 -0.0567885 0
M  V30 27376 C 2537.83 -1.76563 -0.606827 0
M  V30 27377 C 2538.18 -0.844125 -1.77113 0
M  V30 27378 O 2537.31 -0.0319291 -2.16376 0
M  V30 27379 C 2537.9 -3.20184 -1.1076 0
M  V30 27380 C 2536.46 -3.40542 -1.60338 0
M  V30 27381 C 2535.61 -2.72202 -0.529263 0
M  V30 27382 H 2538.56 -1.57793 0.16942 0
M  V30 27383 H 2538.58 -3.2517 -1.97597 0
M  V30 27384 H 2538.09 -3.87228 -0.259992 0
M  V30 27385 H 2536.19 -2.78633 -2.47374 0
M  V30 27386 H 2536.31 -4.49053 -1.66998 0
M  V30 27387 H 2534.67 -2.35181 -0.977852 0
M  V30 27388 H 2535.45 -3.41912 0.308412 0
M  V30 27389 N 2537.9 0.328509 -1.54138 0
M  V30 27390 C 2539.15 1.06453 -1.7132 0
M  V30 27391 C 2539.46 1.89333 -0.491142 0
M  V30 27392 O 2540.67 2.6599 -0.544207 0
M  V30 27393 C 2539.12 1.94209 -3.03003 0
M  V30 27394 C 2538.73 1.16464 -4.32597 0
M  V30 27395 C 2540.47 2.67577 -3.29549 0
M  V30 27396 C 2538.38 2.03337 -5.55345 0
M  V30 27397 H 2537.31 0.401143 -0.638436 0
M  V30 27398 H 2539.96 0.323074 -1.80634 0
M  V30 27399 H 2538.34 2.72234 -2.87584 0
M  V30 27400 H 2539.52 0.432445 -4.58766 0
M  V30 27401 H 2537.83 0.54799 -4.12778 0
M  V30 27402 H 2540.43 3.32872 -4.1845 0
M  V30 27403 H 2540.77 3.34951 -2.47212 0
M  V30 27404 H 2541.31 1.96617 -3.45813 0
M  V30 27405 H 2538.04 1.4048 -6.4027 0
M  V30 27406 H 2537.56 2.74303 -5.33402 0
M  V30 27407 H 2539.24 2.62039 -5.91561 0
M  V30 27408 N 2539.38 1.46127 0.590316 0
M  V30 27409 C 2540.31 1.58969 1.71029 0
M  V30 27410 C 2541.29 0.440364 1.64301 0
M  V30 27411 O 2542.47 0.665666 1.82435 0
M  V30 27412 C 2539.6 1.57246 3.09662 0
M  V30 27413 C 2538.56 2.71072 3.31216 0
M  V30 27414 C 2537.88 2.54408 4.70299 0
M  V30 27415 C 2539.18 4.12956 3.19789 0
M  V30 27416 H 2540.88 2.52721 1.60538 0
M  V30 27417 H 2538.42 1.21626 0.770912 0
M  V30 27418 H 2540.37 1.64826 3.87828 0
M  V30 27419 H 2539.1 0.600345 3.21035 0
M  V30 27420 H 2537.76 2.62949 2.55447 0
M  V30 27421 H 2537.41 1.55296 4.78427 0
M  V30 27422 H 2537.11 3.30749 4.85674 0
M  V30 27423 H 2538.63 2.63867 5.50642 0
M  V30 27424 H 2540.04 4.2223 3.87807 0
M  V30 27425 H 2538.44 4.89824 3.46688 0
M  V30 27426 H 2539.51 4.33647 2.16976 0
M  V30 27427 N 2540.85 -0.834306 1.33705 0
M  V30 27428 C 2541.8 -1.96585 1.24326 0
M  V30 27429 C 2542.8 -1.6879 0.143689 0
M  V30 27430 O 2544 -1.77346 0.307941 0
M  V30 27431 H 2540.38 -0.645413 0.385936 0
M  V30 27432 H 2542.35 -2.0162 2.19982 0
M  V30 27433 C 2541.1 -3.32889 1.00399 0
M  V30 27434 H 2540.42 -3.54819 1.84238 0
M  V30 27435 H 2541.86 -4.1255 0.978693 0
M  V30 27436 C 2540.32 -3.35624 -0.292988 0
M  V30 27437 O 2540.85 -3.80145 -1.29817 0
M  V30 27438 N 2539.05 -2.88809 -0.322123 0
M  V30 27439 H 2538.6 -2.52771 0.496424 0
M  V30 27440 H 2538.56 -2.91021 -1.18971 0
M  V30 27441 N 2542.33 -1.17248 -1.05312 0
M  V30 27442 C 2543.56 -0.98518 -1.82507 0
M  V30 27443 C 2543.98 0.461756 -1.82344 0
M  V30 27444 O 2543.34 1.33053 -1.23153 0
M  V30 27445 C 2543.39 -1.52935 -3.26563 0
M  V30 27446 O 2542.49 -0.742296 -4.05665 0
M  V30 27447 H 2541.83 -0.349879 -0.564341 0
M  V30 27448 H 2544.36 -1.55718 -1.32715 0
M  V30 27449 H 2544.37 -1.5511 -3.77366 0
M  V30 27450 H 2543.05 -2.58262 -3.25996 0
M  V30 27451 H 2541.62 -0.791858 -3.64395 0
M  V30 27452 N 2543.81 1.24015 -0.972531 0
M  V30 27453 C 2544.77 2.23421 -0.511442 0
M  V30 27454 C 2545.77 1.55882 0.394651 0
M  V30 27455 O 2546.96 1.73167 0.189438 0
M  V30 27456 C 2544.1 3.39917 0.258709 0
M  V30 27457 H 2545.29 2.65727 -1.39029 0
M  V30 27458 H 2542.84 1.36711 -0.757609 0
M  V30 27459 H 2543.58 3.03056 1.15445 0
M  V30 27460 H 2543.36 3.9014 -0.391591 0
M  V30 27461 H 2544.85 4.13689 0.570172 0
M  V30 27462 N 2545.29 0.743226 1.38974 0
M  V30 27463 C 2546.7 0.363764 1.83122 0
M  V30 27464 C 2547.05 -1.10606 1.62052 0
M  V30 27465 O 2546.18 -1.85398 1.1161 0
M  V30 27466 C 2546.77 0.653467 3.32438 0
M  V30 27467 C 2545.33 0.327404 3.74973 0
M  V30 27468 C 2544.48 0.911921 2.61876 0
M  V30 27469 H 2547.43 0.940214 1.2785 0
M  V30 27470 H 2547.45 -0.0719362 3.80432 0
M  V30 27471 H 2546.96 1.72329 3.47742 0
M  V30 27472 H 2545.06 -0.73625 3.65254 0
M  V30 27473 H 2545.17 0.815714 4.72105 0
M  V30 27474 H 2543.54 0.337988 2.52447 0
M  V30 27475 H 2544.32 1.98656 2.79983 0
M  V30 27476 N 2546.77 -1.4974 0.491491 0
M  V30 27477 C 2548.18 -1.86654 0.0413497 0
M  V30 27478 C 2548.53 -1.40464 -1.36983 0
M  V30 27479 O 2547.65 -0.77839 -2.01916 0
M  V30 27480 C 2548.25 -3.38731 0.0682618 0
M  V30 27481 C 2546.81 -3.74981 -0.326495 0
M  V30 27482 C 2545.95 -2.73707 0.444936 0
M  V30 27483 H 2548.91 -1.42193 0.704758 0
M  V30 27484 H 2548.93 -3.73446 -0.729256 0
M  V30 27485 H 2548.44 -3.72319 1.09545 0
M  V30 27486 H 2546.54 -3.47 -1.35728 0
M  V30 27487 H 2546.65 -4.79098 -0.0136568 0
M  V30 27488 H 2545.02 -2.54488 -0.104017 0
M  V30 27489 H 2545.8 -3.10139 1.47203 0
M  V30 27490 N 2548.24 -0.224922 -1.55987 0
M  V30 27491 C 2549.52 0.455049 -1.90233 0
M  V30 27492 C 2549.9 1.77497 -1.14272 0
M  V30 27493 O 2549.25 2.27094 -0.253119 0
M  V30 27494 C 2549.46 0.644698 -3.42994 0
M  V30 27495 C 2550.81 0.950596 -4.13822 0
M  V30 27496 O 2551.83 0.731362 -3.48611 0
M  V30 27497 O 2550.69 1.36685 -5.29131 0
M  V30 27498 H 2547.78 0.24107 -0.791084 0
M  V30 27499 H 2550.33 -0.267357 -1.67581 0
M  V30 27500 H 2549.1 -0.286199 -3.90252 0
M  V30 27501 H 2548.73 1.41847 -3.71437 0
M  V30 27502 N 2549.72 1.57526 0.0484352 0
M  V30 27503 C 2550.96 1.90215 0.748162 0
M  V30 27504 C 2551.33 0.821378 1.73544 0
M  V30 27505 O 2552.53 1.03203 2.48199 0
M  V30 27506 C 2550.8 3.281 1.41721 0
M  V30 27507 S 2552.36 3.82587 2.14877 0
M  V30 27508 H 2549.18 0.666236 0.248295 0
M  V30 27509 H 2551.78 1.955 0.00339752 0
M  V30 27510 H 2550.48 4.0464 0.685173 0
M  V30 27511 H 2550.01 3.26072 2.20093 0
M  V30 27512 H 2552.03 3.59753 3.41749 0
M  V30 27513 N 2551.2 -0.32033 1.5431 0
M  V30 27514 C 2552.48 -1.07632 1.63324 0
M  V30 27515 C 2552.86 -2.05821 0.469156 0
M  V30 27516 O 2552.21 -2.22119 -0.536235 0
M  V30 27517 C 2552.42 -1.77539 3.00468 0
M  V30 27518 C 2553.76 -2.30442 3.56625 0
M  V30 27519 O 2554.79 -1.87601 3.02794 0
M  V30 27520 O 2553.65 -3.08884 4.50836 0
M  V30 27521 H 2550.74 -0.496319 0.66151 0
M  V30 27522 H 2553.29 -0.319963 1.66656 0
M  V30 27523 H 2552.06 -1.06136 3.76631 0
M  V30 27524 H 2551.68 -2.59977 3.00829 0
M  V30 27525 N 2552.68 -1.46438 -0.582558 0
M  V30 27526 C 2554.09 -1.45918 -1.16468 0
M  V30 27527 C 2554.44 -0.200111 -1.95177 0
M  V30 27528 O 2553.57 0.696783 -2.04875 0
M  V30 27529 C 2554.16 -2.64371 -2.11881 0
M  V30 27530 C 2552.72 -2.66892 -2.65416 0
M  V30 27531 C 2551.87 -2.38605 -1.4129 0
M  V30 27532 H 2554.82 -1.54315 -0.370487 0
M  V30 27533 H 2554.84 -2.39898 -2.95346 0
M  V30 27534 H 2554.35 -3.55993 -1.54567 0
M  V30 27535 H 2552.45 -1.79343 -3.26599 0
M  V30 27536 H 2552.56 -3.6686 -3.08141 0
M  V30 27537 H 2550.93 -1.88666 -1.71105 0
M  V30 27538 H 2551.71 -3.32404 -0.858067 0
M  V30 27539 N 2554.16 0.827204 -1.34146 0
M  V30 27540 C 2555.43 1.56863 -1.16847 0
M  V30 27541 C 2555.81 2.09485 0.260617 0
M  V30 27542 O 2555.16 1.90532 1.26134 0
M  V30 27543 C 2555.37 2.69336 -2.21943 0
M  V30 27544 C 2556.72 3.38216 -2.56701 0
M  V30 27545 O 2557.74 2.79589 -2.207 0
M  V30 27546 O 2556.6 4.44076 -3.18526 0
M  V30 27547 H 2553.7 0.692105 -0.452681 0
M  V30 27548 H 2556.24 0.868948 -1.45765 0
M  V30 27549 H 2555.01 2.28176 -3.17886 0
M  V30 27550 H 2554.64 3.46959 -1.94178 0
M  V30 27551 N 2555.63 1.17805 1.04688 0
M  V30 27552 C 2556.86 0.994262 1.81444 0
M  V30 27553 C 2557.28 -0.457427 1.83175 0
M  V30 27554 O 2556.63 -1.31768 1.26267 0
M  V30 27555 C 2556.69 1.53416 3.27332 0
M  V30 27556 O 2556.41 2.929 3.25793 0
M  V30 27557 C 2557.91 1.39567 4.20756 0
M  V30 27558 H 2555.13 0.351457 0.571593 0
M  V30 27559 H 2557.67 1.56211 1.31979 0
M  V30 27560 H 2555.83 1.00822 3.7405 0
M  V30 27561 H 2556.24 3.17956 4.17138 0
M  V30 27562 H 2557.71 1.8215 5.21081 0
M  V30 27563 H 2558.19 0.343471 4.37855 0
M  V30 27564 H 2558.8 1.91202 3.79897 0
M  V30 27565 N 2557.11 -1.23497 0.979094 0
M  V30 27566 C 2558.36 -1.91184 0.642784 0
M  V30 27567 C 2558.67 -1.77247 -0.827222 0
M  V30 27568 O 2559.88 -2.39724 -1.27454 0
M  V30 27569 C 2558.34 -3.42707 1.09907 0
M  V30 27570 C 2557.94 -3.65309 2.59333 0
M  V30 27571 C 2559.69 -4.16178 0.836444 0
M  V30 27572 C 2557.6 -5.10461 2.98636 0
M  V30 27573 H 2556.53 -0.71588 0.236711 0
M  V30 27574 H 2559.18 -1.39953 1.18682 0
M  V30 27575 H 2557.56 -3.9304 0.483259 0
M  V30 27576 H 2558.73 -3.25528 3.26142 0
M  V30 27577 H 2557.05 -3.05146 2.83328 0
M  V30 27578 H 2559.64 -5.23137 1.10595 0
M  V30 27579 H 2559.99 -4.15678 -0.227436 0
M  V30 27580 H 2560.52 -3.7183 1.41377 0
M  V30 27581 H 2557.26 -5.16091 4.04142 0
M  V30 27582 H 2556.78 -5.51197 2.3652 0
M  V30 27583 H 2558.46 -5.78783 2.89169 0
M  V30 27584 N 2558.59 -0.750586 -1.38578 0
M  V30 27585 C 2559.54 -0.0966349 -2.27795 0
M  V30 27586 C 2560.53 0.696386 -1.45049 0
M  V30 27587 O 2561.72 0.562834 -1.67813 0
M  V30 27588 C 2558.85 0.798026 -3.33896 0
M  V30 27589 C 2557.93 -0.00168124 -4.241 0
M  V30 27590 N 2558.32 -1.03656 -4.95065 0
M  V30 27591 C 2556.62 0.225596 -4.45429 0
M  V30 27592 C 2557.32 -1.52014 -5.61486 0
M  V30 27593 N 2556.3 -0.835968 -5.37134 0
M  V30 27594 H 2560.1 -0.889277 -2.80123 0
M  V30 27595 H 2557.61 -0.586349 -1.51445 0
M  V30 27596 H 2559.61 1.28212 -3.96695 0
M  V30 27597 H 2558.27 1.58965 -2.83126 0
M  V30 27598 H 2559.28 -1.41828 -4.98102 0
M  V30 27599 H 2555.96 0.990801 -4.05573 0
M  V30 27600 H 2557.35 -2.38199 -6.2826 0
M  V30 27601 N 2560.07 1.49477 -0.499425 0
M  V30 27602 C 2561.48 1.8663 -0.0512479 0
M  V30 27603 C 2561.83 1.41189 1.36236 0
M  V30 27604 O 2560.96 0.789087 2.015 0
M  V30 27605 C 2561.55 3.3869 -0.0862246 0
M  V30 27606 C 2560.11 3.75149 0.306604 0
M  V30 27607 C 2559.26 2.73467 -0.459445 0
M  V30 27608 H 2562.21 1.41817 -0.712289 0
M  V30 27609 H 2562.23 3.73828 0.709441 0
M  V30 27610 H 2561.74 3.71733 -1.11518 0
M  V30 27611 H 2559.84 3.47715 1.33885 0
M  V30 27612 H 2559.96 4.79099 -0.0117511 0
M  V30 27613 H 2558.32 2.54539 0.0905198 0
M  V30 27614 H 2559.1 3.09354 -1.48845 0
M  V30 27615 N 2561.55 0.233191 1.55865 0
M  V30 27616 C 2562.8 -0.394558 1.98211 0
M  V30 27617 C 2563.12 -1.59461 1.12237 0
M  V30 27618 O 2562.39 -1.94856 0.202016 0
M  V30 27619 H 2560.97 -0.148765 0.732037 0
M  V30 27620 H 2563.63 0.328793 1.92107 0
M  V30 27621 H 2562.72 -0.71301 3.03846 0
M  V30 27622 N 2563.03 -1.57549 -0.0400806 0
M  V30 27623 C 2564.25 -1.93407 -0.748897 0
M  V30 27624 C 2564.68 -0.832304 -1.68684 0
M  V30 27625 O 2564.03 0.212787 -1.80047 0
M  V30 27626 C 2564.08 -3.28307 -1.49154 0
M  V30 27627 O 2563.19 -3.19778 -2.60414 0
M  V30 27628 H 2562.53 -0.632464 -0.202201 0
M  V30 27629 H 2565.06 -2.046 0.00115682 0
M  V30 27630 H 2565.07 -3.62937 -1.86389 0
M  V30 27631 H 2563.74 -4.08063 -0.803568 0
M  V30 27632 H 2562.32 -2.96762 -2.25803 0
M  V30 27633 N 2564.5 0.312142 -1.54478 0
M  V30 27634 C 2565.73 1.07232 -1.77528 0
M  V30 27635 C 2566.15 1.80543 -0.527807 0
M  V30 27636 O 2565.51 1.73647 0.521179 0
M  V30 27637 C 2565.56 2.03723 -2.97539 0
M  V30 27638 O 2564.66 3.11828 -2.69884 0
M  V30 27639 H 2564 0.308609 -0.587925 0
M  V30 27640 H 2566.53 0.352957 -2.01533 0
M  V30 27641 H 2566.54 2.46389 -3.25202 0
M  V30 27642 H 2565.22 1.49767 -3.87998 0
M  V30 27643 H 2563.8 2.73755 -2.53204 0
M  V30 27644 N 2565.98 1.46745 0.574784 0
M  V30 27645 C 2567.23 1.5269 1.33467 0
M  V30 27646 C 2567.56 0.181263 1.93352 0
M  V30 27647 O 2566.84 -0.808206 1.76913 0
M  V30 27648 C 2567.12 2.63156 2.45806 0
M  V30 27649 C 2566.97 4.07278 1.90904 0
M  V30 27650 C 2568.29 2.6965 3.47817 0
M  V30 27651 H 2565.41 0.555864 0.483925 0
M  V30 27652 H 2568.05 1.78719 0.644937 0
M  V30 27653 H 2566.2 2.41093 3.04641 0
M  V30 27654 H 2567.87 4.40653 1.36465 0
M  V30 27655 H 2566.12 4.16384 1.21684 0
M  V30 27656 H 2566.79 4.80314 2.72034 0
M  V30 27657 H 2569.26 2.89505 2.98875 0
M  V30 27658 H 2568.14 3.48749 4.23869 0
M  V30 27659 H 2568.4 1.76012 4.05552 0
M  V30 27660 N 2567.46 -0.820078 1.34583 0
M  V30 27661 C 2568.41 -1.93115 1.26393 0
M  V30 27662 C 2569.38 -1.65521 0.138583 0
M  V30 27663 O 2570.56 -1.88097 0.320037 0
M  V30 27664 C 2567.7 -3.29427 1.02818 0
M  V30 27665 C 2566.81 -3.69296 2.24153 0
M  V30 27666 C 2565.95 -4.94571 1.93838 0
M  V30 27667 C 2564.99 -5.27028 3.113 0
M  V30 27668 N 2564.13 -6.43481 2.80849 0
M  V30 27669 H 2568.97 -1.99451 2.21412 0
M  V30 27670 H 2566.5 -0.975765 1.10078 0
M  V30 27671 H 2568.46 -4.07988 0.87186 0
M  V30 27672 H 2567.09 -3.22596 0.114669 0
M  V30 27673 H 2566.14 -2.86105 2.50696 0
M  V30 27674 H 2567.45 -3.89251 3.11905 0
M  V30 27675 H 2566.61 -5.80926 1.74958 0
M  V30 27676 H 2565.35 -4.76624 1.03349 0
M  V30 27677 H 2564.35 -4.3917 3.30772 0
M  V30 27678 H 2565.58 -5.46913 4.0257 0
M  V30 27679 H 2563.52 -6.26985 1.9294 0
M  V30 27680 H 2563.44 -6.63622 3.62134 0
M  V30 27681 H 2564.71 -7.32899 2.6548 0
M  V30 27682 N 2568.94 -1.18359 -1.04062 0
M  V30 27683 C 2570.19 -0.977044 -1.76913 0
M  V30 27684 C 2570.51 0.494544 -1.88625 0
M  V30 27685 O 2569.78 1.35868 -1.41127 0
M  V30 27686 H 2568.36 -0.358516 -0.655344 0
M  V30 27687 H 2571.02 -1.49041 -1.25589 0
M  V30 27688 H 2570.11 -1.41509 -2.78175 0
M  V30 27689 N 2570.42 1.22976 -0.98563 0
M  V30 27690 C 2571.69 1.87 -0.573632 0
M  V30 27691 C 2572.07 1.88557 0.949179 0
M  V30 27692 O 2571.42 1.37089 1.82808 0
M  V30 27693 C 2571.63 3.28241 -1.1857 0
M  V30 27694 C 2572.98 4.04793 -1.2817 0
M  V30 27695 O 2574 3.3748 -1.13955 0
M  V30 27696 O 2572.86 5.25271 -1.50841 0
M  V30 27697 H 2569.96 0.803952 -0.193883 0
M  V30 27698 H 2572.5 1.30811 -1.08105 0
M  V30 27699 H 2571.27 3.21702 -2.22764 0
M  V30 27700 H 2570.9 3.92026 -0.663432 0
M  V30 27701 N 2571.89 0.757924 1.38178 0
M  V30 27702 C 2573.13 0.321004 2.01864 0
M  V30 27703 C 2573.5 -1.07824 1.58864 0
M  V30 27704 O 2574.7 -1.61452 2.14911 0
M  V30 27705 C 2572.97 0.444523 3.54625 0
M  V30 27706 S 2574.53 0.0908238 4.38706 0
M  V30 27707 H 2571.35 0.124281 0.700054 0
M  V30 27708 H 2573.95 0.989498 1.6861 0
M  V30 27709 H 2572.65 1.46377 3.83408 0
M  V30 27710 H 2572.18 -0.241004 3.92661 0
M  V30 27711 H 2574.2 -1.11818 4.83437 0
M  V30 27712 N 2573.37 -1.4921 0.507345 0
M  V30 27713 C 2574.62 -2.0207 -0.0348484 0
M  V30 27714 C 2574.94 -1.38869 -1.36896 0
M  V30 27715 O 2574.21 -0.546184 -1.88132 0
M  V30 27716 H 2572.79 -0.746831 -0.0158681 0
M  V30 27717 H 2575.45 -1.83167 0.66603 0
M  V30 27718 H 2574.55 -3.1169 -0.159862 0
M  V30 27719 N 2574.85 -0.241454 -1.55739 0
M  V30 27720 C 2575.8 0.676679 -2.22539 0
M  V30 27721 C 2576.79 1.18434 -1.21119 0
M  V30 27722 O 2578 1.14186 -1.39146 0
M  V30 27723 H 2574.37 0.236688 -0.713781 0
M  V30 27724 H 2576.34 0.0900663 -2.98264 0
M  V30 27725 C 2575.09 1.86513 -2.93442 0
M  V30 27726 H 2574.42 1.48364 -3.71252 0
M  V30 27727 H 2575.86 2.48489 -3.43553 0
M  V30 27728 C 2574.32 2.73291 -1.97012 0
M  V30 27729 O 2574.85 3.72655 -1.49971 0
M  V30 27730 N 2573.05 2.39743 -1.64231 0
M  V30 27731 H 2572.6 1.58992 -2.0268 0
M  V30 27732 H 2572.56 2.98081 -0.999761 0
M  V30 27733 N 2576.33 1.57568 0.0317248 0
M  V30 27734 C 2577.74 1.77506 0.57866 0
M  V30 27735 C 2578.09 0.872195 1.75748 0
M  V30 27736 O 2577.22 0.0663487 2.16298 0
M  V30 27737 C 2577.81 3.21905 1.05652 0
M  V30 27738 C 2576.37 3.4305 1.549 0
M  V30 27739 C 2575.52 2.7301 0.485891 0
M  V30 27740 H 2578.47 1.57504 -0.194502 0
M  V30 27741 H 2578.49 3.28273 1.92399 0
M  V30 27742 H 2578 3.87593 0.198354 0
M  V30 27743 H 2576.1 2.82534 2.4291 0
M  V30 27744 H 2576.21 4.51653 1.59833 0
M  V30 27745 H 2574.58 2.36707 0.940313 0
M  V30 27746 H 2575.36 3.41378 -0.362769 0
M  V30 27747 N 2577.81 -0.303946 1.54641 0
M  V30 27748 C 2579.03 -1.06289 1.78094 0
M  V30 27749 C 2579.46 -1.80261 0.537374 0
M  V30 27750 O 2578.81 -1.73921 -0.511963 0
M  V30 27751 C 2578.86 -2.02142 2.98615 0
M  V30 27752 O 2577.97 -3.10392 2.71534 0
M  V30 27753 H 2577.31 -0.305487 0.589554 0
M  V30 27754 H 2579.84 -0.342265 2.01717 0
M  V30 27755 H 2579.85 -2.44661 3.26504 0
M  V30 27756 H 2578.52 -1.47707 3.88787 0
M  V30 27757 H 2577.1 -2.72409 2.54652 0
M  V30 27758 N 2579.28 -1.47047 -0.566994 0
M  V30 27759 C 2580.53 -1.53396 -1.32656 0
M  V30 27760 C 2580.86 -0.191514 -1.93253 0
M  V30 27761 O 2580.14 0.798813 -1.77339 0
M  V30 27762 C 2580.42 -2.64456 -2.44407 0
M  V30 27763 C 2580.27 -4.08285 -1.88742 0
M  V30 27764 C 2581.59 -2.71491 -3.46382 0
M  V30 27765 H 2578.71 -0.558423 -0.480971 0
M  V30 27766 H 2581.35 -1.79059 -0.63545 0
M  V30 27767 H 2579.5 -2.42705 -3.03359 0
M  V30 27768 H 2581.18 -4.4137 -1.34127 0
M  V30 27769 H 2579.42 -4.17023 -1.19474 0
M  V30 27770 H 2580.09 -4.8175 -2.69483 0
M  V30 27771 H 2582.57 -2.91086 -2.97335 0
M  V30 27772 H 2581.44 -3.50992 -4.22014 0
M  V30 27773 H 2581.7 -1.7816 -4.04613 0
M  V30 27774 N 2580.76 0.812929 -1.35016 0
M  V30 27775 C 2582.01 1.56659 -1.27681 0
M  V30 27776 C 2582.33 1.9442 0.150324 0
M  V30 27777 O 2581.6 1.6309 1.08529 0
M  V30 27778 H 2580.18 0.580925 -0.469612 0
M  V30 27779 H 2582.84 0.970047 -1.69045 0
M  V30 27780 H 2581.94 2.48489 -1.88837 0
M  V30 27781 N 2582.24 1.18909 1.03433 0
M  V30 27782 C 2583.49 0.982699 1.76142 0
M  V30 27783 C 2583.8 -0.487919 1.89417 0
M  V30 27784 O 2585.01 -0.81299 2.59042 0
M  V30 27785 C 2583.46 1.70929 3.16719 0
M  V30 27786 C 2583.07 3.21965 3.11517 0
M  V30 27787 C 2584.82 1.58594 3.93761 0
M  V30 27788 C 2582.72 3.87236 4.46992 0
M  V30 27789 H 2581.65 0.364058 0.660286 0
M  V30 27790 H 2584.3 1.42349 1.15798 0
M  V30 27791 H 2582.69 1.1963 3.77498 0
M  V30 27792 H 2583.86 3.80339 2.60152 0
M  V30 27793 H 2582.18 3.34513 2.47972 0
M  V30 27794 H 2584.77 2.04715 4.93959 0
M  V30 27795 H 2585.12 0.539214 4.12793 0
M  V30 27796 H 2585.65 2.07209 3.39572 0
M  V30 27797 H 2582.39 4.91984 4.33165 0
M  V30 27798 H 2581.91 3.33651 4.98435 0
M  V30 27799 H 2583.59 3.90468 5.15891 0
M  V30 27800 N 2583.72 -1.22452 0.992137 0
M  V30 27801 C 2584.97 -1.9118 0.667568 0
M  V30 27802 C 2585.29 -1.77273 -0.800286 0
M  V30 27803 O 2584.55 -1.13508 -1.59419 0
M  V30 27804 C 2584.85 -3.42584 1.01839 0
M  V30 27805 C 2584.51 -3.76679 2.47838 0
M  V30 27806 C 2583.18 -3.85696 2.87736 0
M  V30 27807 C 2585.53 -3.92889 3.42473 0
M  V30 27808 C 2582.86 -4.08359 4.2126 0
M  V30 27809 C 2585.21 -4.17055 4.75655 0
M  V30 27810 C 2583.87 -4.24296 5.15295 0
M  V30 27811 H 2583.14 -0.699577 0.24428 0
M  V30 27812 H 2585.79 -1.45233 1.24818 0
M  V30 27813 H 2584.09 -3.90181 0.355838 0
M  V30 27814 H 2585.79 -3.94013 0.745297 0
M  V30 27815 H 2582.38 -3.70243 2.15912 0
M  V30 27816 H 2586.56 -3.85301 3.12821 0
M  V30 27817 H 2581.82 -4.12192 4.51562 0
M  V30 27818 H 2585.99 -4.28541 5.48932 0
M  V30 27819 H 2583.62 -4.4161 6.18777 0
M  V30 27820 N 2585.2 -0.765242 -1.37774 0
M  V30 27821 C 2586.44 -0.326623 -1.99849 0
M  V30 27822 C 2586.77 1.09501 -1.60747 0
M  V30 27823 O 2586.03 1.76658 -0.842052 0
M  V30 27824 C 2586.33 -0.410115 -3.55039 0
M  V30 27825 C 2585.99 -1.78907 -4.13888 0
M  V30 27826 C 2584.65 -2.16642 -4.29674 0
M  V30 27827 C 2587.01 -2.69309 -4.46231 0
M  V30 27828 C 2584.33 -3.44229 -4.75104 0
M  V30 27829 C 2586.69 -3.96298 -4.93082 0
M  V30 27830 C 2585.35 -4.34087 -5.07074 0
M  V30 27831 H 2584.62 -0.11952 -0.731297 0
M  V30 27832 H 2587.27 -0.977997 -1.64643 0
M  V30 27833 H 2585.57 0.324809 -3.90451 0
M  V30 27834 H 2587.27 -0.0521404 -4.00966 0
M  V30 27835 H 2583.86 -1.48576 -4.02024 0
M  V30 27836 H 2588.04 -2.41417 -4.33626 0
M  V30 27837 H 2583.3 -3.7341 -4.84123 0
M  V30 27838 H 2587.47 -4.66482 -5.17076 0
M  V30 27839 H 2585.1 -5.33011 -5.42036 0
M  V30 27840 N 2586.67 1.48939 -0.515251 0
M  V30 27841 C 2587.92 2.02486 0.0241794 0
M  V30 27842 C 2588.25 1.39371 1.35669 0
M  V30 27843 O 2587.5 0.523607 1.88565 0
M  V30 27844 C 2587.8 3.56779 0.210532 0
M  V30 27845 C 2587.47 4.38605 -1.04576 0
M  V30 27846 C 2586.13 4.60684 -1.3901 0
M  V30 27847 C 2588.48 4.86106 -1.88017 0
M  V30 27848 C 2585.81 5.27509 -2.56809 0
M  V30 27849 C 2588.16 5.54228 -3.04982 0
M  V30 27850 C 2586.83 5.74549 -3.39779 0
M  V30 27851 H 2586.1 0.740947 0.00884786 0
M  V30 27852 H 2588.74 1.79085 -0.678294 0
M  V30 27853 H 2587.05 3.78938 0.995653 0
M  V30 27854 H 2588.75 3.95818 0.64259 0
M  V30 27855 H 2585.34 4.21671 -0.767571 0
M  V30 27856 H 2589.52 4.68864 -1.62727 0
M  V30 27857 H 2584.78 5.41442 -2.8399 0
M  V30 27858 H 2588.95 5.90007 -3.69953 0
M  V30 27859 H 2586.58 6.26104 -4.31159 0
M  V30 27860 N 2588.15 0.249709 1.55609 0
M  V30 27861 C 2589.4 -0.374806 1.99306 0
M  V30 27862 C 2589.73 -1.57385 1.13769 0
M  V30 27863 O 2589.01 -1.93451 0.201745 0
M  V30 27864 C 2589.29 -0.781924 3.51508 0
M  V30 27865 C 2589.14 0.422707 4.47809 0
M  V30 27866 C 2590.46 -1.62786 4.08887 0
M  V30 27867 H 2587.58 -0.13476 0.724575 0
M  V30 27868 H 2590.22 0.351582 1.86719 0
M  V30 27869 H 2588.37 -1.40083 3.62366 0
M  V30 27870 H 2590.05 1.06116 4.48929 0
M  V30 27871 H 2588.29 1.06532 4.20516 0
M  V30 27872 H 2588.96 0.0944736 5.51919 0
M  V30 27873 H 2591.44 -1.10539 4.01149 0
M  V30 27874 H 2590.31 -1.88157 5.15643 0
M  V30 27875 H 2590.57 -2.60062 3.57519 0
M  V30 27876 N 2589.63 -1.57583 -0.0233682 0
M  V30 27877 C 2590.86 -1.9419 -0.728341 0
M  V30 27878 C 2591.28 -0.850148 -1.67792 0
M  V30 27879 O 2590.64 0.193678 -1.80263 0
M  V30 27880 C 2590.69 -3.2987 -1.45663 0
M  V30 27881 O 2589.79 -3.22523 -2.57008 0
M  V30 27882 H 2589.13 -0.634573 -0.195482 0
M  V30 27883 H 2591.66 -2.04587 0.0228573 0
M  V30 27884 H 2591.67 -3.64893 -1.82529 0
M  V30 27885 H 2590.35 -4.08893 -0.760242 0
M  V30 27886 H 2588.92 -2.9914 -2.22643 0
M  V30 27887 N 2591.11 0.29574 -1.548 0
M  V30 27888 C 2592.34 1.04759 -1.78071 0
M  V30 27889 C 2592.75 1.81244 -0.542879 0
M  V30 27890 O 2592.09 1.76849 0.49702 0
M  V30 27891 C 2592.15 2.07056 -2.93885 0
M  V30 27892 C 2591.82 1.49717 -4.3178 0
M  V30 27893 C 2592.81 0.924491 -5.11614 0
M  V30 27894 C 2590.5 1.53122 -4.78392 0
M  V30 27895 C 2592.49 0.393483 -6.36184 0
M  V30 27896 C 2590.18 0.996341 -6.02923 0
M  V30 27897 C 2591.18 0.428449 -6.81655 0
M  V30 27898 O 2590.87 -0.0983006 -8.0384 0
M  V30 27899 H 2590.6 0.316216 -0.597481 0
M  V30 27900 H 2593.15 0.338938 -2.02584 0
M  V30 27901 H 2591.38 2.81616 -2.65008 0
M  V30 27902 H 2593.07 2.68184 -3.04683 0
M  V30 27903 H 2593.84 0.891052 -4.76744 0
M  V30 27904 H 2589.72 1.96263 -4.17135 0
M  V30 27905 H 2593.26 -0.050424 -6.97582 0
M  V30 27906 H 2589.16 1.02694 -6.37279 0
M  V30 27907 H 2589.92 0.0145016 -8.18499 0
M  V30 27908 N 2592.59 1.47346 0.559187 0
M  V30 27909 C 2593.84 1.5313 1.31278 0
M  V30 27910 C 2594.15 0.197378 1.94602 0
M  V30 27911 O 2595.36 0.133201 2.71173 0
M  V30 27912 C 2593.81 2.69929 2.38046 0
M  V30 27913 C 2593.42 4.09843 1.80922 0
M  V30 27914 C 2595.16 2.85004 3.14599 0
M  V30 27915 C 2593.07 5.17945 2.85459 0
M  V30 27916 H 2592 0.569975 0.493604 0
M  V30 27917 H 2594.65 1.73616 0.594125 0
M  V30 27918 H 2593.03 2.4282 3.12817 0
M  V30 27919 H 2594.21 4.46847 1.12537 0
M  V30 27920 H 2592.52 3.99636 1.1696 0
M  V30 27921 H 2595.12 3.62936 3.92659 0
M  V30 27922 H 2595.46 1.93375 3.68662 0
M  V30 27923 H 2596 3.11875 2.46939 0
M  V30 27924 H 2592.73 6.11445 2.36254 0
M  V30 27925 H 2592.25 4.85461 3.52261 0
M  V30 27926 H 2593.93 5.44809 3.48987 0
M  V30 27927 N 2594.07 -0.805758 1.35445 0
M  V30 27928 C 2595.31 -1.55799 1.281 0
M  V30 27929 C 2595.63 -1.95081 -0.142393 0
M  V30 27930 O 2596.83 -2.69386 -0.338122 0
M  V30 27931 C 2595.29 -2.8117 2.24658 0
M  V30 27932 C 2594.9 -2.49123 3.72346 0
M  V30 27933 C 2596.64 -3.59177 2.26257 0
M  V30 27934 C 2594.55 -3.70791 4.60726 0
M  V30 27935 H 2593.48 -0.5848 0.475947 0
M  V30 27936 H 2596.13 -0.885632 1.60713 0
M  V30 27937 H 2594.51 -3.50121 1.85017 0
M  V30 27938 H 2595.69 -1.88173 4.20627 0
M  V30 27939 H 2594 -1.8436 3.73364 0
M  V30 27940 H 2596.6 -4.49547 2.89503 0
M  V30 27941 H 2596.94 -3.96566 1.26654 0
M  V30 27942 H 2597.47 -2.97189 2.64431 0
M  V30 27943 H 2594.21 -3.3851 5.6133 0
M  V30 27944 H 2593.73 -4.30963 4.1717 0
M  V30 27945 H 2595.41 -4.3801 4.7619 0
M  V30 27946 N 2595.54 -1.19456 -1.02801 0
M  V30 27947 C 2596.79 -0.992027 -1.75618 0
M  V30 27948 C 2597.11 0.477867 -1.89673 0
M  V30 27949 O 2598.31 0.799241 -2.59469 0
M  V30 27950 C 2596.77 -1.72606 -3.15809 0
M  V30 27951 C 2596.38 -3.23612 -3.09805 0
M  V30 27952 C 2598.12 -1.6068 -3.92915 0
M  V30 27953 C 2596.03 -3.89601 -4.44932 0
M  V30 27954 H 2594.96 -0.367555 -0.658346 0
M  V30 27955 H 2597.61 -1.42961 -1.15041 0
M  V30 27956 H 2595.99 -1.2163 -3.76858 0
M  V30 27957 H 2597.16 -3.81713 -2.58131 0
M  V30 27958 H 2595.48 -3.35823 -2.46195 0
M  V30 27959 H 2598.08 -2.07332 -4.92867 0
M  V30 27960 H 2598.42 -0.561098 -4.12501 0
M  V30 27961 H 2598.95 -2.09007 -3.38469 0
M  V30 27962 H 2595.69 -4.94274 -4.3055 0
M  V30 27963 H 2595.21 -3.36289 -4.96658 0
M  V30 27964 H 2596.89 -3.93199 -5.13813 0
M  V30 27965 N 2597.02 1.21924 -0.998617 0
M  V30 27966 C 2598.25 1.95371 -0.69605 0
M  V30 27967 C 2598.67 1.73197 0.733795 0
M  V30 27968 O 2598.03 1.01477 1.5024 0
M  V30 27969 C 2598.08 3.46029 -1.01472 0
M  V30 27970 O 2597.18 4.12235 -0.116487 0
M  V30 27971 H 2596.52 0.611001 -0.259949 0
M  V30 27972 H 2599.05 1.5486 -1.33714 0
M  V30 27973 H 2599.06 3.96571 -0.958924 0
M  V30 27974 H 2597.74 3.61493 -2.05659 0
M  V30 27975 H 2596.31 3.72201 -0.228258 0
M  V30 27976 N 2598.5 0.772537 1.37367 0
M  V30 27977 C 2599.75 0.337217 1.99672 0
M  V30 27978 C 2600.07 -1.08647 1.61326 0
M  V30 27979 O 2599.33 -1.76209 0.851408 0
M  V30 27980 C 2599.63 0.428938 3.54817 0
M  V30 27981 C 2599.29 1.81099 4.12933 0
M  V30 27982 C 2597.96 2.18918 4.28519 0
M  V30 27983 C 2600.31 2.71672 4.44797 0
M  V30 27984 C 2597.64 3.46744 4.73271 0
M  V30 27985 C 2599.99 3.98908 4.90974 0
M  V30 27986 C 2598.65 4.3677 5.04765 0
M  V30 27987 H 2597.92 0.123396 0.730653 0
M  V30 27988 H 2600.57 0.986715 1.64122 0
M  V30 27989 H 2598.87 -0.304098 3.90618 0
M  V30 27990 H 2600.57 0.0734039 4.00933 0
M  V30 27991 H 2597.16 1.50706 4.0123 0
M  V30 27992 H 2601.35 2.43713 4.3234 0
M  V30 27993 H 2596.6 3.75973 4.82135 0
M  V30 27994 H 2600.78 4.69217 5.14595 0
M  V30 27995 H 2598.4 5.35878 5.39202 0
M  V30 27996 N 2599.98 -1.48664 0.523142 0
M  V30 27997 C 2600.91 -2.32342 -0.232269 0
M  V30 27998 C 2601.89 -1.4166 -0.941612 0
M  V30 27999 O 2603.07 -1.70553 -0.928721 0
M  V30 28000 C 2600.2 -3.227 -1.28381 0
M  V30 28001 C 2599.16 -4.22352 -0.693024 0
M  V30 28002 C 2598.48 -5.01797 -1.84672 0
M  V30 28003 C 2599.78 -5.21252 0.330721 0
M  V30 28004 H 2601.48 -2.95747 0.466244 0
M  V30 28005 H 2599.02 -1.42221 0.225668 0
M  V30 28006 H 2600.98 -3.80063 -1.82018 0
M  V30 28007 H 2599.7 -2.57281 -2.01181 0
M  V30 28008 H 2598.36 -3.66166 -0.178235 0
M  V30 28009 H 2598.01 -4.32808 -2.56293 0
M  V30 28010 H 2597.71 -5.6924 -1.45737 0
M  V30 28011 H 2599.23 -5.6201 -2.38699 0
M  V30 28012 H 2600.65 -5.73178 -0.118306 0
M  V30 28013 H 2599.04 -5.96709 0.637079 0
M  V30 28014 H 2600.11 -4.68806 1.23891 0
M  V30 28015 N 2601.46 -0.257958 -1.55475 0
M  V30 28016 C 2602.7 0.364231 -1.99502 0
M  V30 28017 C 2603.03 1.5678 -1.14603 0
M  V30 28018 O 2602.31 1.93341 -0.212002 0
M  V30 28019 C 2602.59 0.763272 -3.51918 0
M  V30 28020 C 2602.45 -0.44645 -4.47579 0
M  V30 28021 C 2603.76 1.60615 -4.09745 0
M  V30 28022 H 2600.88 0.130916 -0.725279 0
M  V30 28023 H 2603.53 -0.361479 -1.8653 0
M  V30 28024 H 2601.68 1.3816 -3.63103 0
M  V30 28025 H 2603.35 -1.08495 -4.4836 0
M  V30 28026 H 2601.59 -1.0876 -4.19945 0
M  V30 28027 H 2602.26 -0.123742 -5.51861 0
M  V30 28028 H 2604.74 1.08411 -4.01729 0
M  V30 28029 H 2603.61 1.8542 -5.16634 0
M  V30 28030 H 2603.87 2.58163 -3.58893 0
M  V30 28031 N 2602.93 1.57593 0.0150108 0
M  V30 28032 C 2604.18 1.90188 0.70401 0
M  V30 28033 C 2604.51 0.857396 1.74248 0
M  V30 28034 O 2603.79 -0.125809 1.94093 0
M  V30 28035 C 2604.07 3.33398 1.36081 0
M  V30 28036 C 2603.92 4.48551 0.334902 0
M  V30 28037 C 2605.24 3.75764 2.29105 0
M  V30 28038 H 2602.36 0.691677 0.254463 0
M  V30 28039 H 2605 1.89971 -0.0332012 0
M  V30 28040 H 2603.15 3.33713 1.98916 0
M  V30 28041 H 2604.83 4.60371 -0.292615 0
M  V30 28042 H 2603.07 4.32431 -0.344401 0
M  V30 28043 H 2603.74 5.45675 0.83322 0
M  V30 28044 H 2606.22 3.76905 1.76301 0
M  V30 28045 H 2605.09 4.76748 2.72035 0
M  V30 28046 H 2605.35 3.08798 3.1638 0
M  V30 28047 N 2604.41 -0.287527 1.54955 0
M  V30 28048 C 2605.66 -1.02254 1.75134 0
M  V30 28049 C 2605.99 -1.86457 0.542891 0
M  V30 28050 O 2605.27 -1.88986 -0.459823 0
M  V30 28051 C 2605.55 -1.91728 3.04815 0
M  V30 28052 C 2605.4 -1.10615 4.35987 0
M  V30 28053 C 2606.72 -2.90681 3.30443 0
M  V30 28054 H 2603.84 -0.37033 0.637201 0
M  V30 28055 H 2606.48 -0.296079 1.87679 0
M  V30 28056 H 2604.63 -2.5367 2.94251 0
M  V30 28057 H 2606.3 -0.508555 4.58488 0
M  V30 28058 H 2604.55 -0.409195 4.31866 0
M  V30 28059 H 2605.22 -1.76503 5.23021 0
M  V30 28060 H 2607.69 -2.38871 3.40705 0
M  V30 28061 H 2606.57 -3.50439 4.22473 0
M  V30 28062 H 2606.83 -3.65049 2.49383 0
M  V30 28063 N 2605.89 -1.47641 -0.551365 0
M  V30 28064 C 2606.84 -1.60981 -1.67893 0
M  V30 28065 C 2607.83 -0.476905 -1.62548 0
M  V30 28066 O 2609.04 -0.654907 -1.67663 0
M  V30 28067 H 2605.41 -0.506722 -0.555641 0
M  V30 28068 H 2607.38 -2.55723 -1.53779 0
M  V30 28069 C 2606.13 -1.64674 -3.06232 0
M  V30 28070 H 2605.46 -2.512 -3.11028 0
M  V30 28071 H 2606.9 -1.78056 -3.84801 0
M  V30 28072 C 2605.36 -0.381173 -3.34737 0
M  V30 28073 O 2605.89 0.515226 -3.98382 0
M  V30 28074 N 2604.09 -0.259405 -2.8944 0
M  V30 28075 H 2603.64 -0.989802 -2.37825 0
M  V30 28076 H 2603.6 0.58641 -3.08883 0
M  V30 28077 N 2607.37 0.798563 -1.3587 0
M  V30 28078 C 2608.3 1.91697 -1.23804 0
M  V30 28079 C 2609.28 1.62125 -0.124171 0
M  V30 28080 O 2610.46 1.86198 -0.293689 0
M  V30 28081 C 2607.59 3.26299 -0.908121 0
M  V30 28082 C 2606.64 3.74811 -2.03516 0
M  V30 28083 S 2607.47 3.91659 -3.6519 0
M  V30 28084 C 2608.63 5.2915 -3.34292 0
M  V30 28085 H 2608.86 2.01639 -2.1847 0
M  V30 28086 H 2606.39 0.956811 -1.2118 0
M  V30 28087 H 2608.35 4.04055 -0.724577 0
M  V30 28088 H 2607.01 3.14093 0.0206032 0
M  V30 28089 H 2606.2 4.72321 -1.75866 0
M  V30 28090 H 2605.81 3.04077 -2.17745 0
M  V30 28091 H 2608.1 6.13419 -2.87618 0
M  V30 28092 H 2609.04 5.61798 -4.31031 0
M  V30 28093 H 2609.45 4.95817 -2.69863 0
M  V30 28094 N 2608.85 1.19999 1.02166 0
M  V30 28095 C 2610.08 1.03103 1.79035 0
M  V30 28096 C 2610.48 -0.423045 1.8441 0
M  V30 28097 O 2609.83 -1.30557 1.29231 0
M  V30 28098 C 2609.89 1.53287 3.25182 0
M  V30 28099 C 2609.55 3.01509 3.43425 0
M  V30 28100 C 2610.55 3.99211 3.33056 0
M  V30 28101 C 2608.24 3.40359 3.69406 0
M  V30 28102 C 2610.23 5.33755 3.48403 0
M  V30 28103 C 2607.92 4.7506 3.84398 0
M  V30 28104 C 2608.91 5.71566 3.739 0
M  V30 28105 O 2608.6 7.03825 3.8844 0
M  V30 28106 H 2608.33 0.363366 0.570036 0
M  V30 28107 H 2610.89 1.59416 1.29521 0
M  V30 28108 H 2609.12 0.913549 3.75754 0
M  V30 28109 H 2610.81 1.32487 3.83669 0
M  V30 28110 H 2611.57 3.70542 3.12927 0
M  V30 28111 H 2607.45 2.65788 3.76666 0
M  V30 28112 H 2611 6.09065 3.40126 0
M  V30 28113 H 2606.89 5.03422 4.04026 0
M  V30 28114 H 2607.66 7.11001 4.05488 0
M  V30 28115 N 2610.32 -1.21392 1.00507 0
M  V30 28116 C 2611.57 -1.89777 0.683193 0
M  V30 28117 C 2611.89 -1.78961 -0.789439 0
M  V30 28118 O 2613.09 -2.42374 -1.2234 0
M  V30 28119 C 2611.55 -3.40299 1.17152 0
M  V30 28120 C 2611.16 -3.59726 2.67023 0
M  V30 28121 C 2612.9 -4.1431 0.924534 0
M  V30 28122 C 2610.81 -5.04012 3.09396 0
M  V30 28123 H 2609.74 -0.710698 0.251842 0
M  V30 28124 H 2612.39 -1.37404 1.21624 0
M  V30 28125 H 2610.77 -3.91927 0.56652 0
M  V30 28126 H 2611.94 -3.18537 3.32973 0
M  V30 28127 H 2610.26 -2.99067 2.89737 0
M  V30 28128 H 2612.86 -5.20674 1.21667 0
M  V30 28129 H 2613.2 -4.16067 -0.139213 0
M  V30 28130 H 2613.73 -3.68747 1.49233 0
M  V30 28131 H 2610.47 -5.07402 4.14998 0
M  V30 28132 H 2609.99 -5.46056 2.48158 0
M  V30 28133 H 2611.67 -5.72519 3.01381 0
M  V30 28134 N 2611.8 -0.779811 -1.36955 0
M  V30 28135 C 2612.77 -0.177702 -2.2851 0
M  V30 28136 C 2613.77 0.619351 -1.48394 0
M  V30 28137 O 2614.96 0.441755 -1.68506 0
M  V30 28138 C 2612.09 0.75522 -3.32429 0
M  V30 28139 H 2613.28 -0.984873 -2.83267 0
M  V30 28140 H 2610.83 -0.54857 -1.46357 0
M  V30 28141 H 2611.57 1.58709 -2.82811 0
M  V30 28142 H 2611.35 0.185749 -3.9166 0
M  V30 28143 H 2612.84 1.17167 -4.00826 0
M  V30 28144 N 2613.28 1.48384 -0.531019 0
M  V30 28145 C 2614.53 2.028 0.00270571 0
M  V30 28146 C 2614.86 1.40718 1.33836 0
M  V30 28147 O 2614.13 0.55331 1.86464 0
M  V30 28148 C 2614.42 3.59888 0.123613 0
M  V30 28149 C 2614.27 4.32448 -1.23728 0
M  V30 28150 C 2615.59 4.31816 0.849892 0
M  V30 28151 H 2612.71 0.737 -0.000490713 0
M  V30 28152 H 2615.35 1.77096 -0.688249 0
M  V30 28153 H 2613.5 3.81918 0.71209 0
M  V30 28154 H 2615.17 4.21833 -1.86694 0
M  V30 28155 H 2613.42 3.93826 -1.81889 0
M  V30 28156 H 2614.09 5.40813 -1.10567 0
M  V30 28157 H 2616.56 4.14621 0.350499 0
M  V30 28158 H 2615.44 5.41415 0.90339 0
M  V30 28159 H 2615.7 3.99171 1.9004 0
M  V30 28160 N 2614.76 0.2662 1.55336 0
M  V30 28161 C 2616.01 -0.353714 1.98574 0
M  V30 28162 C 2616.32 -1.57644 1.15792 0
M  V30 28163 O 2617.53 -2.26873 1.49133 0
M  V30 28164 C 2615.98 -0.680685 3.53404 0
M  V30 28165 C 2615.59 0.521729 4.44952 0
M  V30 28166 C 2617.33 -1.26372 4.05254 0
M  V30 28167 C 2615.24 0.169839 5.91156 0
M  V30 28168 H 2614.17 -0.135936 0.741645 0
M  V30 28169 H 2616.82 0.369452 1.79742 0
M  V30 28170 H 2615.2 -1.46251 3.68004 0
M  V30 28171 H 2616.38 1.29877 4.42118 0
M  V30 28172 H 2614.69 1.021 4.03689 0
M  V30 28173 H 2617.29 -1.54065 5.12023 0
M  V30 28174 H 2617.63 -2.19465 3.53753 0
M  V30 28175 H 2618.17 -0.544378 3.94058 0
M  V30 28176 H 2614.91 1.06841 6.46734 0
M  V30 28177 H 2614.43 -0.570612 5.9708 0
M  V30 28178 H 2616.1 -0.241132 6.46551 0
M  V30 28179 N 2616.24 -1.57599 -0.0066531 0
M  V30 28180 C 2617.17 -2.11038 -0.999259 0
M  V30 28181 C 2618.15 -1.01798 -1.36276 0
M  V30 28182 O 2619.33 -1.29445 -1.44768 0
M  V30 28183 C 2616.46 -2.60822 -2.29323 0
M  V30 28184 C 2615.42 -3.74529 -2.07153 0
M  V30 28185 C 2614.74 -4.10602 -3.42505 0
M  V30 28186 C 2616.04 -5.02071 -1.4395 0
M  V30 28187 H 2617.74 -2.94224 -0.55433 0
M  V30 28188 H 2615.28 -1.41537 -0.265197 0
M  V30 28189 H 2617.24 -2.96833 -2.99112 0
M  V30 28190 H 2615.96 -1.7475 -2.75917 0
M  V30 28191 H 2614.62 -3.38901 -1.39791 0
M  V30 28192 H 2614.27 -3.21563 -3.8679 0
M  V30 28193 H 2613.97 -4.87205 -3.28489 0
M  V30 28194 H 2615.49 -4.49167 -4.1362 0
M  V30 28195 H 2616.9 -5.35896 -2.03686 0
M  V30 28196 H 2615.3 -5.83435 -1.40442 0
M  V30 28197 H 2616.37 -4.83181 -0.407908 0
M  V30 28198 N 2617.72 0.279305 -1.55105 0
M  V30 28199 C 2618.63 1.36724 -1.9064 0
M  V30 28200 C 2619.64 1.54367 -0.802926 0
M  V30 28201 O 2620.82 1.68615 -1.10141 0
M  V30 28202 C 2617.88 2.70751 -2.16552 0
M  V30 28203 C 2616.94 2.61909 -3.40151 0
M  V30 28204 C 2616.18 3.89544 -3.64817 0
M  V30 28205 O 2616.4 4.8993 -2.92103 0
M  V30 28206 O 2615.33 3.90127 -4.5835 0
M  V30 28207 H 2619.16 1.09586 -2.83239 0
M  V30 28208 H 2616.74 0.477281 -1.41571 0
M  V30 28209 H 2618.63 3.5001 -2.34671 0
M  V30 28210 H 2617.3 2.97688 -1.27136 0
M  V30 28211 H 2616.21 1.81046 -3.27373 0
M  V30 28212 H 2617.54 2.39922 -4.29765 0
M  V30 28213 N 2619.19 1.47931 0.543528 0
M  V30 28214 C 2620.14 1.61869 1.67037 0
M  V30 28215 C 2621.14 0.485519 1.62293 0
M  V30 28216 O 2622.34 0.663789 1.67314 0
M  V30 28217 H 2618.72 0.509662 0.552945 0
M  V30 28218 H 2620.69 2.56535 1.52421 0
M  V30 28219 C 2619.44 1.66296 3.05354 0
M  V30 28220 H 2618.76 2.52846 3.09692 0
M  V30 28221 H 2620.2 1.80095 3.83851 0
M  V30 28222 C 2618.66 0.39892 3.3453 0
M  V30 28223 O 2619.19 -0.494092 3.9865 0
M  V30 28224 N 2617.39 0.274751 2.89298 0
M  V30 28225 H 2616.94 1.0024 2.37297 0
M  V30 28226 H 2616.9 -0.570021 3.09189 0
M  V30 28227 N 2620.67 -0.791347 1.36292 0
M  V30 28228 C 2621.92 -1.54914 1.30414 0
M  V30 28229 C 2622.25 -1.94147 -0.117127 0
M  V30 28230 O 2621.5 -1.62805 -1.08596 0
M  V30 28231 C 2621.8 -2.83926 2.17073 0
M  V30 28232 C 2621.47 -2.6384 3.65649 0
M  V30 28233 C 2620.13 -2.5807 4.06145 0
M  V30 28234 C 2622.48 -2.45314 4.59859 0
M  V30 28235 C 2619.81 -2.31738 5.38994 0
M  V30 28236 C 2622.16 -2.2051 5.92923 0
M  V30 28237 C 2620.82 -2.13172 6.32546 0
M  V30 28238 H 2620.09 -0.56687 0.47722 0
M  V30 28239 H 2622.74 -0.913143 1.68327 0
M  V30 28240 H 2621.05 -3.51983 1.72091 0
M  V30 28241 H 2622.74 -3.41706 2.09852 0
M  V30 28242 H 2619.33 -2.69185 3.33523 0
M  V30 28243 H 2623.52 -2.48775 4.29447 0
M  V30 28244 H 2618.77 -2.24538 5.68676 0
M  V30 28245 H 2622.95 -2.0517 6.65491 0
M  V30 28246 H 2620.57 -1.92531 7.35415 0
M  V30 28247 N 2622.15 -1.2054 -1.01528 0
M  V30 28248 C 2623.37 -1.04274 -1.79281 0
M  V30 28249 C 2623.8 0.403511 -1.83721 0
M  V30 28250 O 2623.16 1.29067 -1.27324 0
M  V30 28251 C 2623.21 -1.63247 -3.21532 0
M  V30 28252 O 2622.31 -0.870979 -4.03098 0
M  V30 28253 H 2621.65 -0.367656 -0.552924 0
M  V30 28254 H 2624.18 -1.59861 -1.27694 0
M  V30 28255 H 2624.19 -1.67037 -3.7224 0
M  V30 28256 H 2622.87 -2.68502 -3.17615 0
M  V30 28257 H 2621.44 -0.907387 -3.61692 0
M  V30 28258 N 2623.63 1.20858 -1.01149 0
M  V30 28259 C 2624.87 1.90375 -0.698932 0
M  V30 28260 C 2625.21 1.78325 0.769009 0
M  V30 28261 O 2624.48 1.16412 1.55815 0
M  V30 28262 C 2624.76 3.41949 -1.12884 0
M  V30 28263 C 2624.62 3.62958 -2.65672 0
M  V30 28264 C 2625.94 4.34559 -0.69619 0
M  V30 28265 H 2623.06 0.691338 -0.255384 0
M  V30 28266 H 2625.7 1.42359 -1.25833 0
M  V30 28267 H 2623.85 3.82975 -0.652894 0
M  V30 28268 H 2625.52 3.31218 -3.2108 0
M  V30 28269 H 2623.76 3.06602 -3.06883 0
M  V30 28270 H 2624.43 4.69187 -2.90805 0
M  V30 28271 H 2626.91 4.01152 -1.10528 0
M  V30 28272 H 2625.79 5.39243 -1.02509 0
M  V30 28273 H 2626.05 4.40265 0.402388 0
M  V30 28274 N 2625.11 0.787064 1.3654 0
M  V30 28275 C 2626.07 0.189818 2.28413 0
M  V30 28276 C 2627.07 -0.611473 1.4872 0
M  V30 28277 O 2628.26 -0.432813 1.68738 0
M  V30 28278 C 2625.39 -0.73758 3.32825 0
M  V30 28279 H 2626.58 0.999881 2.82741 0
M  V30 28280 H 2624.14 0.556324 1.46064 0
M  V30 28281 H 2624.87 -1.57207 2.83648 0
M  V30 28282 H 2624.66 -0.164975 3.91753 0
M  V30 28283 H 2626.15 -1.1504 4.01442 0
M  V30 28284 N 2626.58 -1.48101 0.53888 0
M  V30 28285 C 2627.81 -2.06896 0.01235 0
M  V30 28286 C 2628.23 -1.39419 -1.2731 0
M  V30 28287 O 2627.58 -0.484613 -1.75948 0
M  V30 28288 C 2627.63 -3.60912 -0.206055 0
M  V30 28289 O 2627.36 -4.25857 1.02847 0
M  V30 28290 C 2628.86 -4.36527 -0.771956 0
M  V30 28291 H 2626.08 -0.669949 0.0375357 0
M  V30 28292 H 2628.62 -1.90366 0.747065 0
M  V30 28293 H 2626.78 -3.77018 -0.890844 0
M  V30 28294 H 2627.19 -5.18133 0.814745 0
M  V30 28295 H 2628.66 -5.45034 -0.874155 0
M  V30 28296 H 2629.14 -4.01559 -1.77897 0
M  V30 28297 H 2629.75 -4.25121 -0.123451 0
M  V30 28298 N 2628.06 -0.274434 -1.55192 0
M  V30 28299 C 2628.97 0.623433 -2.26165 0
M  V30 28300 C 2629.99 1.17066 -1.28731 0
M  V30 28301 O 2631.16 1.20109 -1.61665 0
M  V30 28302 C 2628.23 1.79135 -2.96836 0
M  V30 28303 C 2627.29 1.28086 -4.09747 0
M  V30 28304 C 2626.52 2.39311 -4.77039 0
M  V30 28305 O 2626.75 3.58652 -4.43537 0
M  V30 28306 O 2625.68 2.07506 -5.65 0
M  V30 28307 H 2629.51 0.0485127 -3.03661 0
M  V30 28308 H 2627.09 -0.0418645 -1.49341 0
M  V30 28309 H 2628.97 2.47234 -3.41252 0
M  V30 28310 H 2627.65 2.35337 -2.22257 0
M  V30 28311 H 2626.55 0.566351 -3.69788 0
M  V30 28312 H 2627.89 0.764598 -4.86225 0
M  V30 28313 N 2629.54 1.576 -0.00170483 0
M  V30 28314 C 2630.45 2.11962 1.00544 0
M  V30 28315 C 2631.47 1.06528 1.37578 0
M  V30 28316 O 2632.64 1.38439 1.46276 0
M  V30 28317 C 2629.71 2.61354 2.27804 0
M  V30 28318 C 2628.77 3.81396 1.97067 0
M  V30 28319 C 2628 4.28423 3.1826 0
M  V30 28320 O 2628.22 3.74772 4.30002 0
M  V30 28321 O 2627.16 5.20561 3.02158 0
M  V30 28322 H 2630.98 2.98239 0.573321 0
M  V30 28323 H 2628.57 1.47812 0.217229 0
M  V30 28324 H 2630.45 2.93315 3.02563 0
M  V30 28325 H 2629.13 1.78174 2.70251 0
M  V30 28326 H 2628.03 3.54406 1.19779 0
M  V30 28327 H 2629.37 4.65655 1.59456 0
M  V30 28328 N 2631.02 -0.271076 1.55251 0
M  V30 28329 C 2632.24 -1.02488 1.80308 0
M  V30 28330 C 2632.67 -1.7908 0.575489 0
M  V30 28331 O 2632.03 -1.74968 -0.474956 0
M  V30 28332 C 2632.07 -1.95762 3.02836 0
M  V30 28333 O 2631.18 -3.04563 2.78056 0
M  V30 28334 H 2630.52 -0.292913 0.595901 0
M  V30 28335 H 2633.05 -0.299401 2.02398 0
M  V30 28336 H 2633.06 -2.3768 3.3162 0
M  V30 28337 H 2631.73 -1.39427 3.91833 0
M  V30 28338 H 2630.31 -2.66946 2.60373 0
M  V30 28339 N 2632.5 -1.48217 -0.535675 0
M  V30 28340 C 2633.46 -1.61841 -1.62297 0
M  V30 28341 C 2634.46 -0.492051 -1.53087 0
M  V30 28342 O 2635.65 -0.757695 -1.56859 0
M  V30 28343 C 2632.78 -1.58324 -3.01904 0
M  V30 28344 H 2633.97 -2.58785 -1.51559 0
M  V30 28345 H 2631.53 -1.36729 -0.757293 0
M  V30 28346 H 2632.26 -0.628355 -3.18154 0
M  V30 28347 H 2632.05 -2.4009 -3.09998 0
M  V30 28348 H 2633.54 -1.7104 -3.80966 0
M  V30 28349 N 2633.97 0.784108 -1.3671 0
M  V30 28350 C 2634.88 1.92819 -1.33634 0
M  V30 28351 C 2635.9 1.72369 -0.237716 0
M  V30 28352 O 2637.08 1.95815 -0.470996 0
M  V30 28353 C 2634.14 3.27762 -1.13017 0
M  V30 28354 C 2633.2 3.60953 -2.32403 0
M  V30 28355 C 2632.44 4.89457 -2.12761 0
M  V30 28356 O 2632.66 5.59584 -1.10551 0
M  V30 28357 O 2631.59 5.21427 -3.00662 0
M  V30 28358 H 2635.42 1.98364 -2.29968 0
M  V30 28359 H 2633 0.925115 -1.17311 0
M  V30 28360 H 2634.89 4.08503 -1.03458 0
M  V30 28361 H 2633.56 3.23097 -0.197487 0
M  V30 28362 H 2632.47 2.80498 -2.47532 0
M  V30 28363 H 2633.8 3.70348 -3.24196 0
M  V30 28364 N 2635.45 1.21076 1.00888 0
M  V30 28365 C 2636.86 1.02488 1.56055 0
M  V30 28366 C 2637.21 -0.416472 1.91729 0
M  V30 28367 O 2636.34 -1.29908 1.73069 0
M  V30 28368 C 2636.93 1.85416 2.8356 0
M  V30 28369 C 2635.49 1.71172 3.35227 0
M  V30 28370 C 2634.64 1.82869 2.08457 0
M  V30 28371 H 2637.59 1.35155 0.831794 0
M  V30 28372 H 2637.61 1.36211 3.55284 0
M  V30 28373 H 2637.12 2.90314 2.57564 0
M  V30 28374 H 2635.23 0.689425 3.66166 0
M  V30 28375 H 2635.34 2.52908 4.06908 0
M  V30 28376 H 2633.7 1.26136 2.21273 0
M  V30 28377 H 2634.49 2.89266 1.84878 0
M  V30 28378 N 2636.93 -1.2032 1.01789 0
M  V30 28379 C 2637.86 -2.254 0.609664 0
M  V30 28380 C 2638.84 -1.65894 -0.375922 0
M  V30 28381 O 2640.03 -1.92437 -0.261067 0
M  V30 28382 C 2637.16 -3.47262 -0.0515384 0
M  V30 28383 C 2636.11 -4.1937 0.855169 0
M  V30 28384 C 2635.44 -5.34667 0.0596697 0
M  V30 28385 C 2636.74 -4.75369 2.16382 0
M  V30 28386 H 2638.43 -2.59801 1.48807 0
M  V30 28387 H 2635.98 -1.24883 0.716956 0
M  V30 28388 H 2637.93 -4.19955 -0.34869 0
M  V30 28389 H 2636.65 -3.12028 -0.964671 0
M  V30 28390 H 2635.31 -3.48544 1.13634 0
M  V30 28391 H 2634.96 -4.95677 -0.855153 0
M  V30 28392 H 2634.66 -5.83842 0.663508 0
M  V30 28393 H 2636.18 -6.10163 -0.230998 0
M  V30 28394 H 2637.6 -5.39874 1.92895 0
M  V30 28395 H 2636 -5.34987 2.71863 0
M  V30 28396 H 2637.07 -3.9404 2.82596 0
M  V30 28397 N 2638.41 -0.794293 -1.3612 0
M  V30 28398 C 2639.63 -0.379907 -2.03891 0
M  V30 28399 C 2640.06 0.997223 -1.5949 0
M  V30 28400 O 2639.42 1.64338 -0.765681 0
M  V30 28401 C 2639.46 -0.457505 -3.57686 0
M  V30 28402 O 2638.57 0.533728 -4.08932 0
M  V30 28403 H 2637.91 -0.160552 -0.644297 0
M  V30 28404 H 2640.44 -1.07676 -1.73974 0
M  V30 28405 H 2640.45 -0.322864 -4.06721 0
M  V30 28406 H 2639.12 -1.46206 -3.89354 0
M  V30 28407 H 2637.7 0.360344 -3.71155 0
M  V30 28408 N 2639.89 1.47813 -0.546727 0
M  V30 28409 C 2640.8 2.33656 0.210219 0
M  V30 28410 C 2641.81 1.4754 0.922387 0
M  V30 28411 O 2642.99 1.80489 0.89362 0
M  V30 28412 C 2640.05 3.24018 1.23342 0
M  V30 28413 C 2639.11 4.26018 0.529809 0
M  V30 28414 C 2638.35 5.12062 1.50426 0
M  V30 28415 O 2638.57 5.00374 2.73828 0
M  V30 28416 O 2637.5 5.92944 1.03449 0
M  V30 28417 H 2641.33 2.99661 -0.493658 0
M  V30 28418 H 2638.92 1.46202 -0.307452 0
M  V30 28419 H 2640.8 3.79864 1.82432 0
M  V30 28420 H 2639.47 2.60654 1.91941 0
M  V30 28421 H 2638.38 3.73961 -0.102013 0
M  V30 28422 H 2639.71 4.92067 -0.114536 0
M  V30 28423 N 2641.36 0.28266 1.55044 0
M  V30 28424 C 2642.64 -0.384132 1.91791 0
M  V30 28425 C 2643.02 -1.73133 1.20781 0
M  V30 28426 O 2642.37 -2.25998 0.337229 0
M  V30 28427 C 2642.58 -0.516954 3.4515 0
M  V30 28428 C 2643.93 -0.796354 4.17065 0
M  V30 28429 O 2644.95 -0.601474 3.51085 0
M  V30 28430 O 2643.81 -1.16953 5.33839 0
M  V30 28431 H 2640.9 -0.211544 0.799486 0
M  V30 28432 H 2643.45 0.329369 1.66473 0
M  V30 28433 H 2642.22 0.430841 3.88921 0
M  V30 28434 H 2641.85 -1.27963 3.76445 0
M  V30 28435 N 2642.84 -1.57597 0.0100627 0
M  V30 28436 C 2644.12 -1.82249 -0.710264 0
M  V30 28437 C 2644.5 -0.889945 -1.91424 0
M  V30 28438 O 2643.85 0.0589891 -2.28424 0
M  V30 28439 C 2644.06 -3.30995 -1.1065 0
M  V30 28440 C 2645.41 -3.96989 -1.50614 0
M  V30 28441 O 2646.43 -3.35378 -1.20001 0
M  V30 28442 O 2645.29 -5.05543 -2.07578 0
M  V30 28443 H 2642.38 -0.750811 -0.346717 0
M  V30 28444 H 2644.93 -1.69661 0.0362876 0
M  V30 28445 H 2643.7 -3.90508 -0.248758 0
M  V30 28446 H 2643.32 -3.48619 -1.91183 0
M  V30 28447 N 2644.32 0.262839 -1.55393 0
M  V30 28448 C 2645.57 0.993078 -1.76477 0
M  V30 28449 C 2645.9 1.85914 -0.571511 0
M  V30 28450 O 2645.15 1.90557 0.445699 0
M  V30 28451 C 2645.45 1.89712 -3.02893 0
M  V30 28452 C 2645.12 1.18773 -4.34976 0
M  V30 28453 C 2643.78 0.991616 -4.70872 0
M  V30 28454 C 2646.13 0.683708 -5.16696 0
M  V30 28455 C 2643.46 0.278921 -5.86037 0
M  V30 28456 C 2645.81 -0.0154439 -6.32598 0
M  V30 28457 C 2644.47 -0.223179 -6.67127 0
M  V30 28458 H 2643.74 0.363393 -0.645776 0
M  V30 28459 H 2646.39 0.264492 -1.89665 0
M  V30 28460 H 2644.7 2.69225 -2.84649 0
M  V30 28461 H 2646.39 2.46353 -3.16403 0
M  V30 28462 H 2642.98 1.3505 -4.06767 0
M  V30 28463 H 2647.17 0.822814 -4.89432 0
M  V30 28464 H 2642.42 0.107348 -6.11306 0
M  V30 28465 H 2646.6 -0.413706 -6.9517 0
M  V30 28466 H 2644.22 -0.777398 -7.56215 0
M  V30 28467 N 2645.8 1.48499 0.527807 0
M  V30 28468 C 2646.71 1.6587 1.65905 0
M  V30 28469 C 2647.72 0.541221 1.65369 0
M  V30 28470 O 2648.9 0.812566 1.84281 0
M  V30 28471 C 2645.97 1.69642 3.02361 0
M  V30 28472 C 2645.03 2.93034 3.13735 0
M  V30 28473 C 2644.26 2.96617 4.43683 0
M  V30 28474 O 2644.48 2.08547 5.30909 0
M  V30 28475 O 2643.42 3.8881 4.59468 0
M  V30 28476 H 2647.24 2.6165 1.54186 0
M  V30 28477 H 2644.83 1.31926 0.70114 0
M  V30 28478 H 2646.71 1.74632 3.83512 0
M  V30 28479 H 2645.38 0.770368 3.14399 0
M  V30 28480 H 2644.29 2.93575 2.31871 0
M  V30 28481 H 2645.62 3.85031 3.06614 0
M  V30 28482 N 2647.28 -0.776847 1.37123 0
M  V30 28483 C 2648.21 -1.89703 1.26838 0
M  V30 28484 C 2649.19 -1.61907 0.149948 0
M  V30 28485 O 2650.37 -1.85707 0.323274 0
M  V30 28486 C 2647.5 -3.24813 0.959917 0
M  V30 28487 C 2646.55 -3.71526 2.09454 0
M  V30 28488 S 2647.38 -3.85799 3.71375 0
M  V30 28489 C 2648.53 -5.23765 3.42668 0
M  V30 28490 H 2648.77 -1.98138 2.2165 0
M  V30 28491 H 2646.3 -0.937412 1.22686 0
M  V30 28492 H 2648.26 -4.02851 0.788767 0
M  V30 28493 H 2646.92 -3.14086 0.0293689 0
M  V30 28494 H 2646.11 -4.69463 1.83358 0
M  V30 28495 H 2645.71 -3.00575 2.22555 0
M  V30 28496 H 2648.01 -6.08765 2.9734 0
M  V30 28497 H 2648.95 -5.5487 4.39915 0
M  V30 28498 H 2649.36 -4.91461 2.77717 0
M  V30 28499 N 2648.76 -1.2161 -1.00244 0
M  V30 28500 C 2650 -1.03488 -1.74059 0
M  V30 28501 C 2650.33 0.431274 -1.89658 0
M  V30 28502 O 2649.59 1.33625 -1.42979 0
M  V30 28503 C 2649.88 -1.68015 -3.15446 0
M  V30 28504 C 2649.55 -3.17879 -3.19787 0
M  V30 28505 C 2648.21 -3.58774 -3.20679 0
M  V30 28506 C 2650.56 -4.13847 -3.16828 0
M  V30 28507 C 2647.89 -4.94136 -3.16301 0
M  V30 28508 C 2650.24 -5.49174 -3.13991 0
M  V30 28509 C 2648.91 -5.89462 -3.13194 0
M  V30 28510 H 2648.18 -0.378689 -0.636927 0
M  V30 28511 H 2650.83 -1.51238 -1.17471 0
M  V30 28512 H 2649.13 -1.12564 -3.75282 0
M  V30 28513 H 2650.83 -1.51493 -3.71283 0
M  V30 28514 H 2647.42 -2.85311 -3.19837 0
M  V30 28515 H 2651.6 -3.83278 -3.15297 0
M  V30 28516 H 2646.86 -5.24595 -3.14023 0
M  V30 28517 H 2651.03 -6.2327 -3.10656 0
M  V30 28518 H 2648.66 -6.94319 -3.09556 0
M  V30 28519 N 2650.23 1.19778 -1.02425 0
M  V30 28520 C 2651.46 1.9303 -0.736421 0
M  V30 28521 C 2651.87 1.75454 0.707992 0
M  V30 28522 O 2651.21 1.07074 1.49268 0
M  V30 28523 C 2651.28 3.45254 -1.00201 0
M  V30 28524 C 2650.94 3.86597 -2.43705 0
M  V30 28525 C 2651.94 3.91732 -3.41821 0
M  V30 28526 C 2649.62 4.18367 -2.77982 0
M  V30 28527 C 2651.62 4.28062 -4.72273 0
M  V30 28528 C 2649.3 4.54371 -4.08644 0
M  V30 28529 C 2650.3 4.59192 -5.056 0
M  V30 28530 O 2649.99 4.94365 -6.33923 0
M  V30 28531 H 2649.72 0.620118 -0.269127 0
M  V30 28532 H 2652.28 1.52995 -1.37046 0
M  V30 28533 H 2650.51 3.85449 -0.310815 0
M  V30 28534 H 2652.19 3.99738 -0.704558 0
M  V30 28535 H 2652.96 3.67343 -3.16677 0
M  V30 28536 H 2648.84 4.13802 -2.03198 0
M  V30 28537 H 2652.38 4.3174 -5.47947 0
M  V30 28538 H 2648.28 4.78218 -4.33564 0
M  V30 28539 H 2649.05 5.1233 -6.38326 0
M  V30 28540 N 2651.71 0.801501 1.35697 0
M  V30 28541 C 2652.62 0.209732 2.33661 0
M  V30 28542 C 2653.64 -0.644562 1.61621 0
M  V30 28543 O 2654.81 -0.557511 1.9353 0
M  V30 28544 C 2651.88 -0.635973 3.40817 0
M  V30 28545 C 2650.94 0.238222 4.28639 0
M  V30 28546 C 2650.17 -0.567214 5.30677 0
M  V30 28547 O 2650.4 -1.8023 5.41178 0
M  V30 28548 O 2649.33 0.0392394 6.01887 0
M  V30 28549 H 2653.16 1.02001 2.86059 0
M  V30 28550 H 2650.74 0.563188 1.38378 0
M  V30 28551 H 2652.62 -1.11783 4.06303 0
M  V30 28552 H 2651.3 -1.42394 2.90699 0
M  V30 28553 H 2650.2 0.767109 3.66151 0
M  V30 28554 H 2651.54 0.99 4.82141 0
M  V30 28555 N 2653.19 -1.47521 0.554558 0
M  V30 28556 C 2654.44 -2.02778 0.0295583 0
M  V30 28557 C 2654.77 -1.4283 -1.3158 0
M  V30 28558 O 2654.04 -0.582905 -1.8556 0
M  V30 28559 C 2654.33 -3.60039 -0.0663424 0
M  V30 28560 C 2654.18 -4.30425 1.30592 0
M  V30 28561 C 2655.5 -4.33113 -0.781086 0
M  V30 28562 H 2652.62 -0.736899 0.0122157 0
M  V30 28563 H 2655.26 -1.75979 0.716336 0
M  V30 28564 H 2653.41 -3.83003 -0.65124 0
M  V30 28565 H 2655.08 -4.18809 1.93382 0
M  V30 28566 H 2653.32 -3.90882 1.88131 0
M  V30 28567 H 2654 -5.38986 1.19156 0
M  V30 28568 H 2656.47 -4.15126 -0.284492 0
M  V30 28569 H 2655.35 -5.42784 -0.817142 0
M  V30 28570 H 2655.61 -4.02144 -1.83665 0
M  V30 28571 N 2654.67 -0.290879 -1.54892 0
M  V30 28572 C 2655.91 0.314749 -2.0095 0
M  V30 28573 C 2656.27 1.52297 -1.17572 0
M  V30 28574 O 2655.56 1.90071 -0.241592 0
M  V30 28575 C 2655.76 0.732335 -3.49817 0
M  V30 28576 C 2655.58 -0.433878 -4.47602 0
M  V30 28577 C 2654.35 -0.922686 -4.96804 0
M  V30 28578 C 2656.55 -1.27555 -4.98231 0
M  V30 28579 N 2654.53 -2.05672 -5.78422 0
M  V30 28580 C 2655.91 -2.25722 -5.77451 0
M  V30 28581 C 2657.96 -1.30708 -4.80437 0
M  V30 28582 C 2656.66 -3.26807 -6.40773 0
M  V30 28583 C 2658.69 -2.30646 -5.4457 0
M  V30 28584 C 2658.05 -3.27544 -6.23614 0
M  V30 28585 H 2654.15 0.0799121 -0.777906 0
M  V30 28586 H 2656.73 -0.418491 -1.90149 0
M  V30 28587 H 2654.91 1.43477 -3.60928 0
M  V30 28588 H 2656.64 1.31664 -3.82684 0
M  V30 28589 H 2653.39 -0.499343 -4.7096 0
M  V30 28590 H 2653.82 -2.62783 -6.23918 0
M  V30 28591 H 2658.46 -0.571695 -4.18917 0
M  V30 28592 H 2656.18 -4.01271 -7.01432 0
M  V30 28593 H 2659.76 -2.33847 -5.32735 0
M  V30 28594 H 2658.64 -4.0361 -6.7236 0
M  V30 28595 N 2656.15 1.57589 -0.0184203 0
M  V30 28596 C 2657.06 2.13017 0.982906 0
M  V30 28597 C 2658.07 1.07981 1.36441 0
M  V30 28598 O 2659.25 1.39982 1.448 0
M  V30 28599 C 2656.31 2.63756 2.25019 0
M  V30 28600 C 2655.37 3.83465 1.93011 0
M  V30 28601 C 2654.61 4.31775 3.13698 0
M  V30 28602 O 2654.83 3.79312 4.26003 0
M  V30 28603 O 2653.76 5.23737 2.9662 0
M  V30 28604 H 2657.59 2.98831 0.541656 0
M  V30 28605 H 2655.17 1.48034 0.201539 0
M  V30 28606 H 2657.06 2.96507 2.99435 0
M  V30 28607 H 2655.73 1.8103 2.68346 0
M  V30 28608 H 2654.64 3.55657 1.16013 0
M  V30 28609 H 2655.97 4.6732 1.54508 0
M  V30 28610 N 2657.62 -0.254594 1.5553 0
M  V30 28611 C 2658.57 -1.31508 1.89669 0
M  V30 28612 C 2659.54 -1.48199 0.750083 0
M  V30 28613 O 2660.73 -1.62308 1.00304 0
M  V30 28614 C 2657.87 -2.66696 2.19014 0
M  V30 28615 C 2656.98 -2.58077 3.46439 0
M  V30 28616 C 2656.11 -3.85566 3.65393 0
M  V30 28617 C 2655.15 -3.71533 4.86446 0
M  V30 28618 N 2654.29 -4.90897 5.01961 0
M  V30 28619 H 2659.13 -1.01695 2.80111 0
M  V30 28620 H 2656.67 -0.490914 1.38667 0
M  V30 28621 H 2658.62 -3.45377 2.34031 0
M  V30 28622 H 2657.25 -2.94674 1.31784 0
M  V30 28623 H 2656.31 -1.71007 3.39795 0
M  V30 28624 H 2657.62 -2.43614 4.35263 0
M  V30 28625 H 2656.77 -4.7269 3.80328 0
M  V30 28626 H 2655.51 -4.02918 2.74789 0
M  V30 28627 H 2654.52 -2.82792 4.71496 0
M  V30 28628 H 2655.74 -3.55683 5.78503 0
M  V30 28629 H 2653.69 -5.08624 4.14292 0
M  V30 28630 H 2653.6 -4.79035 5.8486 0
M  V30 28631 H 2654.87 -5.79541 5.21299 0
M  V30 28632 N 2659.1 -1.48777 -0.519925 0
M  V30 28633 C 2660.35 -1.57306 -1.27519 0
M  V30 28634 C 2660.68 -0.251362 -1.92869 0
M  V30 28635 O 2659.93 0.759212 -1.80373 0
M  V30 28636 C 2660.23 -2.66754 -2.37859 0
M  V30 28637 C 2659.9 -4.0887 -1.90095 0
M  V30 28638 C 2658.56 -4.47549 -1.76787 0
M  V30 28639 C 2660.91 -4.97891 -1.54124 0
M  V30 28640 C 2658.24 -5.73042 -1.25858 0
M  V30 28641 C 2660.59 -6.23883 -1.04654 0
M  V30 28642 C 2659.25 -6.61409 -0.899707 0
M  V30 28643 H 2658.52 -0.575622 -0.466626 0
M  V30 28644 H 2661.17 -1.82535 -0.579077 0
M  V30 28645 H 2659.48 -2.35423 -3.13182 0
M  V30 28646 H 2661.17 -2.70566 -2.95964 0
M  V30 28647 H 2657.76 -3.78329 -2.01407 0
M  V30 28648 H 2661.95 -4.68678 -1.63261 0
M  V30 28649 H 2657.2 -6.00832 -1.13185 0
M  V30 28650 H 2661.38 -6.92252 -0.758952 0
M  V30 28651 H 2659 -7.58535 -0.502878 0
M  V30 28652 N 2660.58 0.769564 -1.37534 0
M  V30 28653 C 2661.86 1.51766 -1.23395 0
M  V30 28654 C 2662.24 2.10402 0.171533 0
M  V30 28655 O 2661.58 1.9571 1.1794 0
M  V30 28656 C 2661.79 2.59681 -2.33167 0
M  V30 28657 C 2663.14 3.27024 -2.70815 0
M  V30 28658 O 2664.17 2.69977 -2.3236 0
M  V30 28659 O 2663.03 4.30167 -3.37074 0
M  V30 28660 H 2660.12 0.672282 -0.481628 0
M  V30 28661 H 2662.67 0.806342 -1.49319 0
M  V30 28662 H 2661.44 2.14488 -3.27277 0
M  V30 28663 H 2661.06 3.38411 -2.08719 0
M  V30 28664 N 2662.06 1.22139 0.995977 0
M  V30 28665 C 2663.47 1.04138 1.54959 0
M  V30 28666 C 2663.82 -0.396114 1.9216 0
M  V30 28667 O 2662.95 -1.28066 1.74437 0
M  V30 28668 C 2663.54 1.88413 2.81577 0
M  V30 28669 C 2662.1 1.74718 3.33393 0
M  V30 28670 C 2661.25 1.8507 2.06506 0
M  V30 28671 H 2664.2 1.3603 0.817412 0
M  V30 28672 H 2664.22 1.39972 3.53819 0
M  V30 28673 H 2663.73 2.9303 2.5447 0
M  V30 28674 H 2661.83 0.728223 3.65414 0
M  V30 28675 H 2661.94 2.57209 4.04203 0
M  V30 28676 H 2660.31 1.28476 2.19923 0
M  V30 28677 H 2661.09 2.91211 1.81799 0
M  V30 28678 N 2663.54 -1.19233 1.03059 0
M  V30 28679 C 2664.81 -1.84742 0.642641 0
M  V30 28680 C 2665.19 -1.9195 -0.878544 0
M  V30 28681 O 2664.54 -1.43779 -1.77595 0
M  V30 28682 C 2664.75 -3.23614 1.30671 0
M  V30 28683 C 2666.1 -3.99757 1.43105 0
M  V30 28684 O 2667.12 -3.33018 1.26402 0
M  V30 28685 O 2665.98 -5.1931 1.70232 0
M  V30 28686 H 2663.08 -0.796202 0.223587 0
M  V30 28687 H 2665.62 -1.26709 1.12885 0
M  V30 28688 H 2664.39 -3.13212 2.3455 0
M  V30 28689 H 2664.02 -3.89294 0.808473 0
M  V30 28690 N 2665.01 -0.808686 -1.3527 0
M  V30 28691 C 2665.98 -0.226133 -2.28082 0
M  V30 28692 C 2666.98 0.587735 -1.49674 0
M  V30 28693 O 2668.17 0.405913 -1.69405 0
M  V30 28694 C 2665.3 0.684537 -3.33956 0
M  V30 28695 H 2666.49 -1.04474 -2.81114 0
M  V30 28696 H 2664.05 -0.579491 -1.45161 0
M  V30 28697 H 2664.78 1.52675 -2.86113 0
M  V30 28698 H 2664.57 0.10263 -3.91966 0
M  V30 28699 H 2666.06 1.08639 -4.03221 0
M  V30 28700 N 2666.49 1.47225 -0.562374 0
M  V30 28701 C 2667.72 2.0685 -0.0452638 0
M  V30 28702 C 2668.14 1.41427 1.25076 0
M  V30 28703 O 2667.49 0.512544 1.75155 0
M  V30 28704 C 2667.54 3.61194 0.148611 0
M  V30 28705 O 2667.26 4.24167 -1.09609 0
M  V30 28706 C 2668.77 4.377 0.702411 0
M  V30 28707 H 2665.99 0.669267 -0.0481892 0
M  V30 28708 H 2668.53 1.89153 -0.777256 0
M  V30 28709 H 2666.68 3.78388 0.830751 0
M  V30 28710 H 2667.1 5.16772 -0.897073 0
M  V30 28711 H 2668.57 5.46356 0.787334 0
M  V30 28712 H 2669.05 4.04338 1.71486 0
M  V30 28713 H 2669.66 4.25263 0.0558025 0
M  V30 28714 N 2667.97 0.299089 1.54736 0
M  V30 28715 C 2668.9 -0.611492 2.20892 0
M  V30 28716 C 2669.92 -1.09902 1.20106 0
M  V30 28717 O 2671.1 -1.0168 1.46708 0
M  V30 28718 C 2668.2 -1.84892 2.84021 0
M  V30 28719 C 2667.38 -1.50421 4.10722 0
M  V30 28720 C 2666.44 -2.59659 4.57672 0
M  V30 28721 O 2665.46 -2.24832 5.22914 0
M  V30 28722 N 2666.66 -3.90164 4.29828 0
M  V30 28723 H 2669.43 -0.0451474 2.99666 0
M  V30 28724 H 2666.99 0.121207 1.61446 0
M  V30 28725 H 2668.98 -2.57315 3.12364 0
M  V30 28726 H 2667.55 -2.32371 2.09099 0
M  V30 28727 H 2666.77 -0.612713 3.89409 0
M  V30 28728 H 2668.06 -1.24925 4.93225 0
M  V30 28729 H 2667.46 -4.21269 3.77556 0
M  V30 28730 H 2666.02 -4.58891 4.62885 0
M  V30 28731 N 2669.45 -1.57577 0.0267774 0
M  V30 28732 C 2670.7 -1.91704 -0.652371 0
M  V30 28733 C 2671.02 -0.902967 -1.72269 0
M  V30 28734 O 2670.28 0.08845 -1.955 0
M  V30 28735 C 2670.58 -3.32562 -1.30909 0
M  V30 28736 C 2670.24 -4.49385 -0.369362 0
M  V30 28737 C 2668.91 -4.81073 -0.110707 0
M  V30 28738 C 2671.26 -5.20468 0.276063 0
M  V30 28739 C 2668.59 -5.81203 0.801218 0
M  V30 28740 C 2670.94 -6.21572 1.17603 0
M  V30 28741 C 2669.6 -6.51703 1.4436 0
M  V30 28742 H 2668.87 -0.701494 -0.238719 0
M  V30 28743 H 2671.52 -1.91298 0.0880428 0
M  V30 28744 H 2669.82 -3.29219 -2.12419 0
M  V30 28745 H 2671.52 -3.56237 -1.84109 0
M  V30 28746 H 2668.11 -4.24642 -0.581137 0
M  V30 28747 H 2672.29 -4.9622 0.0892872 0
M  V30 28748 H 2667.55 -6.02895 1.01625 0
M  V30 28749 H 2671.72 -6.75774 1.68235 0
M  V30 28750 H 2669.35 -7.29108 2.15188 0
M  V30 28751 N 2670.93 0.246342 -1.55663 0
M  V30 28752 C 2672.18 0.972223 -1.76722 0
M  V30 28753 C 2672.49 1.86464 -0.590813 0
M  V30 28754 O 2673.69 2.62731 -0.684437 0
M  V30 28755 C 2672.15 1.77874 -3.12872 0
M  V30 28756 C 2671.76 0.933691 -4.38162 0
M  V30 28757 C 2673.5 2.49732 -3.4327 0
M  V30 28758 C 2671.41 1.73613 -5.65343 0
M  V30 28759 H 2670.34 0.366737 -0.658802 0
M  V30 28760 H 2672.99 0.22687 -1.82092 0
M  V30 28761 H 2671.37 2.56607 -3.0161 0
M  V30 28762 H 2672.55 0.188655 -4.60414 0
M  V30 28763 H 2670.86 0.328415 -4.15103 0
M  V30 28764 H 2673.46 3.10223 -4.35506 0
M  V30 28765 H 2673.8 3.21376 -2.64619 0
M  V30 28766 H 2674.33 1.7801 -3.55749 0
M  V30 28767 H 2671.07 1.06343 -6.46816 0
M  V30 28768 H 2670.59 2.45643 -5.47192 0
M  V30 28769 H 2672.27 2.30313 -6.0462 0
M  V30 28770 N 2672.4 1.4905 0.512027 0
M  V30 28771 C 2673.31 1.6762 1.64136 0
M  V30 28772 C 2674.33 0.55873 1.64785 0
M  V30 28773 O 2675.51 0.832066 1.83408 0
M  V30 28774 C 2672.57 1.7284 3.00545 0
M  V30 28775 C 2671.63 2.96345 3.10609 0
M  V30 28776 C 2670.87 3.01306 4.40512 0
M  V30 28777 O 2671.09 2.14166 5.28667 0
M  V30 28778 O 2670.02 3.93661 4.55318 0
M  V30 28779 H 2673.85 2.6327 1.51402 0
M  V30 28780 H 2671.43 1.32662 0.687108 0
M  V30 28781 H 2673.32 1.7869 3.81638 0
M  V30 28782 H 2671.99 0.803671 3.13565 0
M  V30 28783 H 2670.9 2.96018 2.28745 0
M  V30 28784 H 2672.23 3.88261 3.02513 0
M  V30 28785 N 2673.88 -0.762259 1.3794 0
M  V30 28786 C 2675.13 -1.52113 1.33671 0
M  V30 28787 C 2675.46 -1.94352 -0.0759196 0
M  V30 28788 O 2674.71 -1.65072 -1.05118 0
M  V30 28789 C 2675.01 -2.79257 2.23047 0
M  V30 28790 C 2674.68 -2.56024 3.71164 0
M  V30 28791 C 2673.34 -2.49397 4.11527 0
M  V30 28792 C 2675.69 -2.35505 4.64959 0
M  V30 28793 C 2673.02 -2.20253 5.43788 0
M  V30 28794 C 2675.37 -2.07883 5.97467 0
M  V30 28795 C 2674.04 -1.99707 6.36925 0
M  V30 28796 H 2673.31 -0.55662 0.489137 0
M  V30 28797 H 2675.95 -0.877232 1.70226 0
M  V30 28798 H 2674.26 -3.48253 1.79519 0
M  V30 28799 H 2675.95 -3.37178 2.17053 0
M  V30 28800 H 2672.54 -2.6205 3.39158 0
M  V30 28801 H 2676.73 -2.39609 4.34627 0
M  V30 28802 H 2671.98 -2.12425 5.73311 0
M  V30 28803 H 2676.16 -1.91008 6.69693 0
M  V30 28804 H 2673.79 -1.76889 7.39334 0
M  V30 28805 N 2675.36 -1.22666 -0.989486 0
M  V30 28806 C 2676.59 -1.08054 -1.77029 0
M  V30 28807 C 2677.01 0.364451 -1.84536 0
M  V30 28808 O 2676.37 1.26338 -1.30033 0
M  V30 28809 C 2676.42 -1.7003 -3.17997 0
M  V30 28810 O 2675.52 -0.956286 -4.01159 0
M  V30 28811 H 2674.86 -0.379302 -0.545001 0
M  V30 28812 H 2677.39 -1.62534 -1.24274 0
M  V30 28813 H 2677.4 -1.74895 -3.68613 0
M  V30 28814 H 2676.08 -2.75179 -3.11848 0
M  V30 28815 H 2674.65 -0.983903 -3.59686 0
M  V30 28816 N 2676.84 1.18685 -1.0369 0
M  V30 28817 C 2677.79 2.22186 -0.624663 0
M  V30 28818 C 2678.76 1.62026 0.365608 0
M  V30 28819 O 2679.94 1.89014 0.260448 0
M  V30 28820 C 2677.08 3.45099 0.0101131 0
M  V30 28821 C 2676.19 4.19611 -1.02717 0
M  V30 28822 C 2675.33 5.2997 -0.361306 0
M  V30 28823 C 2674.37 5.96249 -1.38394 0
M  V30 28824 N 2673.51 6.98154 -0.743318 0
M  V30 28825 H 2678.35 2.56804 -1.51181 0
M  V30 28826 H 2675.88 1.26164 -0.756382 0
M  V30 28827 H 2677.84 4.15322 0.395455 0
M  V30 28828 H 2676.47 3.11111 0.860793 0
M  V30 28829 H 2675.52 3.48253 -1.53049 0
M  V30 28830 H 2676.83 4.65032 -1.80406 0
M  V30 28831 H 2675.99 6.06649 0.0784471 0
M  V30 28832 H 2674.73 4.85641 0.447714 0
M  V30 28833 H 2673.73 5.18314 -1.83387 0
M  V30 28834 H 2674.96 6.42662 -2.1946 0
M  V30 28835 H 2672.9 6.55984 0.0454636 0
M  V30 28836 H 2672.82 7.41808 -1.45797 0
M  V30 28837 H 2674.09 7.7881 -0.327835 0
M  V30 28838 N 2678.32 0.815849 1.34839 0
M  V30 28839 C 2679.25 0.247339 2.32186 0
M  V30 28840 C 2680.23 -0.632316 1.57911 0
M  V30 28841 O 2681.41 -0.560665 1.85931 0
M  V30 28842 C 2678.54 -0.597406 3.42123 0
M  V30 28843 C 2677.5 0.184521 4.27602 0
M  V30 28844 C 2676.82 -0.782516 5.28943 0
M  V30 28845 C 2678.12 1.38874 5.03499 0
M  V30 28846 H 2679.82 1.06066 2.79983 0
M  V30 28847 H 2677.36 0.511485 1.3461 0
M  V30 28848 H 2679.32 -1.00526 4.09234 0
M  V30 28849 H 2678.04 -1.44371 2.92958 0
M  V30 28850 H 2676.7 0.573656 3.62084 0
M  V30 28851 H 2676.35 -1.62458 4.76043 0
M  V30 28852 H 2676.05 -0.263592 5.87008 0
M  V30 28853 H 2677.57 -1.18837 5.98924 0
M  V30 28854 H 2678.99 1.05527 5.63504 0
M  V30 28855 H 2677.38 1.8428 5.71105 0
M  V30 28856 H 2678.45 2.17061 4.33604 0
M  V30 28857 N 2679.8 -1.46924 0.570174 0
M  V30 28858 C 2681.02 -2.07329 0.0542956 0
M  V30 28859 C 2681.45 -1.41809 -1.2358 0
M  V30 28860 O 2680.8 -0.49751 -1.7434 0
M  V30 28861 C 2680.85 -3.60429 -0.111112 0
M  V30 28862 O 2679.96 -3.95436 -1.17064 0
M  V30 28863 H 2679.3 -0.661536 0.0571541 0
M  V30 28864 H 2681.83 -1.88752 0.789549 0
M  V30 28865 H 2681.84 -4.06733 -0.321244 0
M  V30 28866 H 2680.51 -4.07512 0.831084 0
M  V30 28867 H 2679.09 -3.60859 -0.939966 0
M  V30 28868 N 2681.27 -0.307291 -1.54575 0
M  V30 28869 C 2682.55 0.353571 -1.92378 0
M  V30 28870 C 2682.93 1.7119 -1.2352 0
M  V30 28871 O 2682.28 2.25433 -0.373141 0
M  V30 28872 C 2682.49 0.461978 -3.45929 0
M  V30 28873 C 2683.84 0.729902 -4.18279 0
M  V30 28874 O 2684.86 0.545543 -3.51998 0
M  V30 28875 O 2683.72 1.08445 -5.35632 0
M  V30 28876 H 2680.81 0.198798 -0.802751 0
M  V30 28877 H 2683.36 -0.355812 -1.65928 0
M  V30 28878 H 2682.13 -0.49266 -3.88186 0
M  V30 28879 H 2681.75 1.21958 -3.78434 0
M  V30 28880 N 2682.75 1.57561 -0.0351337 0
M  V30 28881 C 2684 1.92047 0.642195 0
M  V30 28882 C 2684.33 0.91209 1.71788 0
M  V30 28883 O 2683.58 -0.0780809 1.95544 0
M  V30 28884 C 2683.88 3.33252 1.29143 0
M  V30 28885 C 2683.55 4.49574 0.345525 0
M  V30 28886 C 2682.21 4.81125 0.0851929 0
M  V30 28887 C 2684.56 5.20315 -0.303661 0
M  V30 28888 C 2681.89 5.8077 -0.832029 0
M  V30 28889 C 2684.24 6.2094 -1.20897 0
M  V30 28890 C 2682.9 6.50928 -1.47814 0
M  V30 28891 H 2682.17 0.70275 0.234996 0
M  V30 28892 H 2684.82 1.91248 -0.0981865 0
M  V30 28893 H 2683.13 3.30341 2.1067 0
M  V30 28894 H 2684.82 3.57209 1.82217 0
M  V30 28895 H 2681.41 4.24944 0.558609 0
M  V30 28896 H 2685.6 4.96165 -0.115602 0
M  V30 28897 H 2680.85 6.02348 -1.04821 0
M  V30 28898 H 2685.03 6.74872 -1.71816 0
M  V30 28899 H 2682.65 7.27956 -2.19052 0
M  V30 28900 N 2684.23 -0.238084 1.55791 0
M  V30 28901 C 2685.19 -1.27832 1.90241 0
M  V30 28902 C 2686.19 -1.40639 0.779577 0
M  V30 28903 O 2687.38 -1.39188 1.04749 0
M  V30 28904 C 2684.51 -2.65471 2.13864 0
M  V30 28905 H 2685.71 -0.984984 2.83263 0
M  V30 28906 H 2683.26 -0.477772 1.48819 0
M  V30 28907 H 2684 -2.9993 1.23339 0
M  V30 28908 H 2683.78 -2.57555 2.95648 0
M  V30 28909 H 2685.27 -3.40566 2.4167 0
M  V30 28910 N 2685.71 -1.4932 -0.504115 0
M  V30 28911 C 2686.67 -1.65247 -1.58827 0
M  V30 28912 C 2687.67 -0.524412 -1.52008 0
M  V30 28913 O 2688.86 -0.790797 -1.55216 0
M  V30 28914 C 2685.99 -1.64692 -2.98478 0
M  V30 28915 H 2687.19 -2.61942 -1.46036 0
M  V30 28916 H 2684.74 -1.38304 -0.72812 0
M  V30 28917 H 2685.47 -0.695699 -3.1675 0
M  V30 28918 H 2685.26 -2.46612 -3.04836 0
M  V30 28919 H 2686.75 -1.79082 -3.77252 0
M  V30 28920 N 2687.19 0.754933 -1.38342 0
M  V30 28921 C 2688.15 1.8503 -1.35265 0
M  V30 28922 C 2689.15 1.5879 -0.253421 0
M  V30 28923 O 2690.34 1.6656 -0.510235 0
M  V30 28924 C 2687.47 3.22477 -1.1055 0
M  V30 28925 H 2688.66 1.89166 -2.32715 0
M  V30 28926 H 2686.22 0.956493 -1.23616 0
M  V30 28927 H 2686.95 3.2401 -0.137009 0
M  V30 28928 H 2686.74 3.42917 -1.90133 0
M  V30 28929 H 2688.23 4.02553 -1.11089 0
M  V30 28930 N 2688.66 1.23189 0.982967 0
M  V30 28931 C 2689.59 1.03519 2.09299 0
M  V30 28932 C 2690.57 -0.0470837 1.70035 0
M  V30 28933 O 2691.76 0.117064 1.93847 0
M  V30 28934 C 2688.89 0.622851 3.41669 0
M  V30 28935 C 2687.84 1.65218 3.94825 0
M  V30 28936 C 2687.17 1.09536 5.2336 0
M  V30 28937 C 2688.47 3.04459 4.24385 0
M  V30 28938 H 2690.16 1.96363 2.26013 0
M  V30 28939 H 2687.71 0.94552 1.08609 0
M  V30 28940 H 2689.66 0.472307 4.18745 0
M  V30 28941 H 2688.39 -0.341272 3.24812 0
M  V30 28942 H 2687.05 1.79067 3.19891 0
M  V30 28943 H 2686.69 0.1223 5.02851 0
M  V30 28944 H 2686.39 1.7831 5.59892 0
M  V30 28945 H 2687.92 0.956617 6.0306 0
M  V30 28946 H 2689.33 2.93926 4.9222 0
M  V30 28947 H 2687.73 3.70447 4.72112 0
M  V30 28948 H 2688.8 3.53644 3.31759 0
M  V30 28949 N 2690.14 -1.18133 1.04318 0
M  V30 28950 C 2691.42 -1.8405 0.662199 0
M  V30 28951 C 2691.8 -1.92871 -0.858135 0
M  V30 28952 O 2691.15 -1.45655 -1.7606 0
M  V30 28953 C 2691.36 -3.2221 1.34096 0
M  V30 28954 C 2692.7 -3.98217 1.47337 0
M  V30 28955 O 2693.73 -3.31659 1.29927 0
M  V30 28956 O 2692.59 -5.17476 1.75731 0
M  V30 28957 H 2689.68 -0.793786 0.232019 0
M  V30 28958 H 2692.23 -1.25504 1.14223 0
M  V30 28959 H 2691 -3.10707 2.37859 0
M  V30 28960 H 2690.62 -3.88414 0.849717 0
M  V30 28961 N 2691.62 -0.822988 -1.34405 0
M  V30 28962 C 2693.03 -0.469911 -1.8069 0
M  V30 28963 C 2693.38 1.0097 -1.68225 0
M  V30 28964 O 2692.51 1.78575 -1.22229 0
M  V30 28965 C 2693.1 -0.846176 -3.28063 0
M  V30 28966 C 2691.66 -0.545468 -3.72427 0
M  V30 28967 C 2690.81 -1.06305 -2.56114 0
M  V30 28968 H 2693.76 -1.01315 -1.22151 0
M  V30 28969 H 2693.78 -0.149989 -3.80204 0
M  V30 28970 H 2693.29 -1.9231 -3.37103 0
M  V30 28971 H 2691.39 0.522044 -3.68925 0
M  V30 28972 H 2691.51 -1.08958 -4.66546 0
M  V30 28973 H 2689.87 -0.484598 -2.50047 0
M  V30 28974 H 2690.65 -2.14642 -2.67925 0
M  V30 28975 N 2693.1 1.4662 -0.577957 0
M  V30 28976 C 2694.51 1.86096 -0.150104 0
M  V30 28977 C 2694.86 1.48212 1.2856 0
M  V30 28978 O 2693.99 0.894788 1.97034 0
M  V30 28979 C 2694.58 3.37757 -0.265636 0
M  V30 28980 C 2693.14 3.76247 0.107314 0
M  V30 28981 C 2692.29 2.70647 -0.603758 0
M  V30 28982 H 2695.24 1.37842 -0.786462 0
M  V30 28983 H 2695.26 3.77063 0.510286 0
M  V30 28984 H 2694.77 3.65299 -1.31066 0
M  V30 28985 H 2692.87 3.54323 1.15266 0
M  V30 28986 H 2692.98 4.78363 -0.265694 0
M  V30 28987 H 2691.35 2.54661 -0.0445331 0
M  V30 28988 H 2692.13 3.01029 -1.65034 0
M  V30 28989 N 2694.58 0.315484 1.5441 0
M  V30 28990 C 2695.51 -0.546999 2.27003 0
M  V30 28991 C 2696.49 -1.12603 1.27494 0
M  V30 28992 O 2697.67 -1.15267 1.56292 0
M  V30 28993 C 2694.8 -1.71196 3.02174 0
M  V30 28994 C 2693.76 -1.26261 4.08952 0
M  V30 28995 C 2693.08 -2.51388 4.7192 0
M  V30 28996 C 2694.38 -0.383327 5.20891 0
M  V30 28997 H 2696.08 0.0585043 2.99343 0
M  V30 28998 H 2693.62 0.0295781 1.4397 0
M  V30 28999 H 2695.58 -2.32155 3.51685 0
M  V30 29000 H 2694.3 -2.34393 2.27437 0
M  V30 29001 H 2692.96 -0.675999 3.60313 0
M  V30 29002 H 2692.61 -3.12931 3.93806 0
M  V30 29003 H 2692.31 -2.22017 5.44043 0
M  V30 29004 H 2693.83 -3.13124 5.242 0
M  V30 29005 H 2695.24 -0.898983 5.66208 0
M  V30 29006 H 2693.64 -0.182752 5.99822 0
M  V30 29007 H 2694.71 0.587906 4.81323 0
M  V30 29008 N 2696.05 -1.5754 0.0434891 0
M  V30 29009 C 2696.98 -2.1411 -0.931613 0
M  V30 29010 C 2697.97 -1.06082 -1.32969 0
M  V30 29011 O 2699.15 -1.33985 -1.40576 0
M  V30 29012 C 2696.28 -2.67986 -2.20909 0
M  V30 29013 C 2695.23 -3.8093 -1.95132 0
M  V30 29014 C 2694.56 -4.21291 -3.29269 0
M  V30 29015 C 2695.86 -5.06397 -1.27904 0
M  V30 29016 H 2697.55 -2.95838 -0.460445 0
M  V30 29017 H 2695.1 -1.42309 -0.220033 0
M  V30 29018 H 2697.05 -3.06199 -2.89517 0
M  V30 29019 H 2695.78 -1.83439 -2.70218 0
M  V30 29020 H 2694.44 -3.43177 -1.28939 0
M  V30 29021 H 2694.08 -3.33706 -3.76364 0
M  V30 29022 H 2693.78 -4.97409 -3.12823 0
M  V30 29023 H 2695.31 -4.62098 -3.99121 0
M  V30 29024 H 2696.72 -5.42105 -1.86534 0
M  V30 29025 H 2695.12 -5.87607 -1.21809 0
M  V30 29026 H 2696.19 -4.84234 -0.253981 0
M  V30 29027 N 2697.53 0.229818 -1.55915 0
M  V30 29028 C 2698.78 0.953424 -1.77743 0
M  V30 29029 C 2699.09 1.85827 -0.610557 0
M  V30 29030 O 2700.3 2.61991 -0.712265 0
M  V30 29031 C 2698.76 1.74546 -3.14741 0
M  V30 29032 C 2698.36 0.887165 -4.39128 0
M  V30 29033 C 2700.11 2.46078 -3.45899 0
M  V30 29034 C 2698.02 1.67607 -5.67152 0
M  V30 29035 H 2696.95 0.359729 -0.662654 0
M  V30 29036 H 2699.6 0.207544 -1.82323 0
M  V30 29037 H 2697.98 2.53394 -3.04315 0
M  V30 29038 H 2699.15 0.139811 -4.60588 0
M  V30 29039 H 2697.47 0.28437 -4.15428 0
M  V30 29040 H 2700.06 3.05587 -4.38772 0
M  V30 29041 H 2700.41 3.18551 -2.68013 0
M  V30 29042 H 2700.94 1.74227 -3.57617 0
M  V30 29043 H 2697.68 0.994767 -6.47908 0
M  V30 29044 H 2697.2 2.39826 -5.49767 0
M  V30 29045 H 2698.88 2.23887 -6.07029 0
M  V30 29046 N 2699.01 1.49585 0.49619 0
M  V30 29047 C 2699.97 1.66087 1.57949 0
M  V30 29048 C 2700.97 0.532466 1.51728 0
M  V30 29049 O 2702.16 0.799017 1.54795 0
M  V30 29050 C 2699.3 1.66273 2.97601 0
M  V30 29051 H 2700.49 2.62713 1.44645 0
M  V30 29052 H 2698.04 1.38689 0.720775 0
M  V30 29053 H 2698.78 0.712487 3.16377 0
M  V30 29054 H 2698.56 2.48225 3.03524 0
M  V30 29055 H 2700.05 1.8108 3.76297 0
M  V30 29056 N 2700.49 -0.747586 1.3874 0
M  V30 29057 C 2701.44 -1.86144 1.36452 0
M  V30 29058 C 2702.41 -1.64554 0.226127 0
M  V30 29059 O 2703.59 -1.86136 0.419293 0
M  V30 29060 C 2700.73 -3.23514 1.20136 0
M  V30 29061 C 2699.84 -3.56895 2.43413 0
M  V30 29062 C 2698.98 -4.83601 2.19781 0
M  V30 29063 C 2698.02 -5.09786 3.38799 0
M  V30 29064 N 2697.15 -6.2769 3.14564 0
M  V30 29065 H 2701.99 -1.87434 2.31673 0
M  V30 29066 H 2699.53 -0.916043 1.15096 0
M  V30 29067 H 2701.49 -4.02793 1.0869 0
M  V30 29068 H 2700.12 -3.21535 0.285509 0
M  V30 29069 H 2699.17 -2.72414 2.65509 0
M  V30 29070 H 2700.48 -3.7217 3.321 0
M  V30 29071 H 2699.64 -5.70835 2.05506 0
M  V30 29072 H 2698.38 -4.70475 1.28469 0
M  V30 29073 H 2697.38 -4.21019 3.53586 0
M  V30 29074 H 2698.61 -5.24805 4.30995 0
M  V30 29075 H 2696.55 -6.15876 2.25904 0
M  V30 29076 H 2696.47 -6.43493 3.96802 0
M  V30 29077 H 2697.74 -7.17796 3.03956 0
M  V30 29078 N 2701.97 -1.23709 -0.97642 0
M  V30 29079 C 2703.38 -1.0659 -1.53282 0
M  V30 29080 C 2703.73 0.365492 -1.92766 0
M  V30 29081 O 2702.85 1.25274 -1.76452 0
M  V30 29082 C 2703.45 -1.92869 -2.78544 0
M  V30 29083 C 2702.01 -1.8 -3.30571 0
M  V30 29084 C 2701.15 -1.88331 -2.03535 0
M  V30 29085 H 2704.11 -1.37313 -0.795668 0
M  V30 29086 H 2704.13 -1.45583 -3.51548 0
M  V30 29087 H 2703.64 -2.97041 -2.49776 0
M  V30 29088 H 2701.74 -0.786266 -3.6421 0
M  V30 29089 H 2701.85 -2.63607 -4.0006 0
M  V30 29090 H 2700.22 -1.31958 -2.17851 0
M  V30 29091 H 2701 -2.94067 -1.77143 0
M  V30 29092 N 2703.44 1.17579 -1.04943 0
M  V30 29093 C 2704.39 2.23562 -0.642079 0
M  V30 29094 C 2705.39 1.66046 0.335423 0
M  V30 29095 O 2706.59 1.78866 0.201758 0
M  V30 29096 H 2702.97 0.727744 -0.189453 0
M  V30 29097 H 2704.94 2.5522 -1.54613 0
M  V30 29098 C 2703.69 3.47687 -0.0301662 0
M  V30 29099 H 2703.01 3.92248 -0.773408 0
M  V30 29100 H 2704.45 4.23442 0.217518 0
M  V30 29101 C 2702.91 3.1394 1.22244 0
M  V30 29102 O 2703.44 3.28486 2.31214 0
M  V30 29103 N 2701.65 2.68187 1.11912 0
M  V30 29104 H 2701.19 2.5655 0.232358 0
M  V30 29105 H 2701.15 2.45979 1.9581 0
M  V30 29106 N 2704.92 0.830104 1.33967 0
M  V30 29107 C 2705.87 0.255048 2.29386 0
M  V30 29108 C 2706.84 -0.624216 1.53925 0
M  V30 29109 O 2708.02 -0.56434 1.82263 0
M  V30 29110 C 2705.16 -0.57115 3.40341 0
M  V30 29111 C 2704.28 0.331159 4.30729 0
M  V30 29112 C 2703.41 -0.505296 5.28791 0
M  V30 29113 C 2702.45 0.39595 6.10818 0
M  V30 29114 N 2701.59 -0.401856 7.00949 0
M  V30 29115 H 2706.43 1.07409 2.7797 0
M  V30 29116 H 2703.97 0.541157 1.36784 0
M  V30 29117 H 2705.92 -1.06555 4.03363 0
M  V30 29118 H 2704.55 -1.35524 2.92973 0
M  V30 29119 H 2703.61 0.943824 3.68505 0
M  V30 29120 H 2704.92 1.02385 4.88179 0
M  V30 29121 H 2704.07 -1.06389 5.97299 0
M  V30 29122 H 2702.81 -1.23146 4.71896 0
M  V30 29123 H 2701.82 0.966624 5.41236 0
M  V30 29124 H 2703.04 1.12034 6.69795 0
M  V30 29125 H 2700.99 -1.11157 6.46514 0
M  V30 29126 H 2700.9 0.2323 7.55643 0
M  V30 29127 H 2702.17 -0.942966 7.73775 0
M  V30 29128 N 2706.4 -1.46311 0.585725 0
M  V30 29129 C 2707.65 -2.0267 0.072564 0
M  V30 29130 C 2707.98 -1.45589 -1.28521 0
M  V30 29131 O 2707.26 -0.622134 -1.84282 0
M  V30 29132 C 2707.54 -3.60099 0.0100421 0
M  V30 29133 C 2707.39 -4.27558 1.39693 0
M  V30 29134 C 2708.71 -4.34673 -0.68904 0
M  V30 29135 H 2705.83 -0.736474 0.0278436 0
M  V30 29136 H 2708.47 -1.7442 0.753503 0
M  V30 29137 H 2706.62 -3.84298 -0.569852 0
M  V30 29138 H 2708.29 -4.14613 2.02222 0
M  V30 29139 H 2706.54 -3.86804 1.9638 0
M  V30 29140 H 2707.21 -5.36337 1.30562 0
M  V30 29141 H 2709.68 -4.15636 -0.196373 0
M  V30 29142 H 2708.56 -5.44395 -0.701825 0
M  V30 29143 H 2708.82 -4.05949 -1.75094 0
M  V30 29144 N 2707.88 -0.323668 -1.54241 0
M  V30 29145 C 2708.81 0.576272 -2.21837 0
M  V30 29146 C 2709.82 1.07977 -1.21839 0
M  V30 29147 O 2711.01 0.993334 -1.48308 0
M  V30 29148 C 2708.11 1.80351 -2.86927 0
M  V30 29149 C 2707.29 1.43868 -4.13063 0
M  V30 29150 C 2706.35 2.52345 -4.61745 0
M  V30 29151 O 2705.37 2.16485 -5.26425 0
M  V30 29152 N 2706.57 3.83277 -4.35981 0
M  V30 29153 H 2709.34 -0.00253255 -2.997 0
M  V30 29154 H 2706.9 -0.146876 -1.61232 0
M  V30 29155 H 2708.89 2.52313 -3.16418 0
M  V30 29156 H 2707.46 2.29015 -2.12769 0
M  V30 29157 H 2706.68 0.550684 -3.90335 0
M  V30 29158 H 2707.97 1.17062 -4.9515 0
M  V30 29159 H 2707.37 4.15209 -3.84211 0
M  V30 29160 H 2705.92 4.51468 -4.70127 0
M  V30 29161 N 2709.36 1.57515 -0.0518432 0
M  V30 29162 C 2710.29 2.14601 0.920246 0
M  V30 29163 C 2711.27 1.06785 1.32404 0
M  V30 29164 O 2712.45 1.34728 1.39864 0
M  V30 29165 C 2709.58 2.69154 2.19485 0
M  V30 29166 C 2708.54 3.81959 1.93109 0
M  V30 29167 C 2707.86 4.23031 3.2703 0
M  V30 29168 C 2709.16 5.07068 1.25217 0
M  V30 29169 H 2710.86 2.96078 0.444749 0
M  V30 29170 H 2708.4 1.42424 0.212483 0
M  V30 29171 H 2710.36 3.0773 2.87889 0
M  V30 29172 H 2709.08 1.8487 2.69241 0
M  V30 29173 H 2707.74 3.43856 1.27117 0
M  V30 29174 H 2707.39 3.35697 3.74589 0
M  V30 29175 H 2707.09 4.99061 3.1018 0
M  V30 29176 H 2708.61 4.64209 3.96665 0
M  V30 29177 H 2710.03 5.43087 1.83656 0
M  V30 29178 H 2708.42 5.88245 1.18691 0
M  V30 29179 H 2709.49 4.84362 0.228297 0
M  V30 29180 N 2710.84 -0.221546 1.56035 0
M  V30 29181 C 2712.08 -0.943985 1.78247 0
M  V30 29182 C 2712.4 -1.855 0.620403 0
M  V30 29183 O 2713.6 -2.61609 0.726149 0
M  V30 29184 C 2712.06 -1.72874 3.15662 0
M  V30 29185 C 2711.67 -0.863865 4.39592 0
M  V30 29186 C 2713.41 -2.4424 3.47199 0
M  V30 29187 C 2711.32 -1.64597 5.68033 0
M  V30 29188 H 2710.25 -0.35621 0.664553 0
M  V30 29189 H 2712.9 -0.197872 1.8243 0
M  V30 29190 H 2711.28 -2.51776 3.05655 0
M  V30 29191 H 2712.46 -0.115383 4.60656 0
M  V30 29192 H 2710.77 -0.262334 4.15573 0
M  V30 29193 H 2713.37 -3.03256 4.40386 0
M  V30 29194 H 2713.71 -3.17125 2.69698 0
M  V30 29195 H 2714.24 -1.72328 3.58536 0
M  V30 29196 H 2710.98 -0.960393 6.48426 0
M  V30 29197 H 2710.5 -2.36907 5.51031 0
M  V30 29198 H 2712.18 -2.20665 6.08207 0
M  V30 29199 N 2712.31 -1.49846 -0.48825 0
M  V30 29200 C 2713.28 -1.66922 -1.57066 0
M  V30 29201 C 2714.28 -0.540505 -1.51444 0
M  V30 29202 O 2715.47 -0.807215 -1.54369 0
M  V30 29203 C 2712.6 -1.67849 -2.96715 0
M  V30 29204 H 2713.79 -2.63476 -1.43249 0
M  V30 29205 H 2711.34 -1.39069 -0.71341 0
M  V30 29206 H 2712.08 -0.729256 -3.15994 0
M  V30 29207 H 2711.86 -2.49831 -3.02203 0
M  V30 29208 H 2713.35 -1.83073 -3.75332 0
M  V30 29209 N 2713.79 0.740218 -1.39135 0
M  V30 29210 C 2714.72 1.86274 -1.31823 0
M  V30 29211 C 2715.7 1.61453 -0.192822 0
M  V30 29212 O 2716.89 1.84785 -0.372398 0
M  V30 29213 C 2714.01 3.22153 -1.0457 0
M  V30 29214 C 2713.06 3.65842 -2.1923 0
M  V30 29215 S 2713.89 3.75817 -3.81473 0
M  V30 29216 C 2715.05 5.14495 -3.56434 0
M  V30 29217 H 2715.28 1.92191 -2.26826 0
M  V30 29218 H 2712.81 0.904554 -1.25129 0
M  V30 29219 H 2714.77 4.00618 -0.895298 0
M  V30 29220 H 2713.43 3.13898 -0.112633 0
M  V30 29221 H 2712.63 4.64437 -1.95741 0
M  V30 29222 H 2712.23 2.94568 -2.30446 0
M  V30 29223 H 2714.52 6.00668 -3.13376 0
M  V30 29224 H 2715.46 5.43011 -4.54471 0
M  V30 29225 H 2715.87 4.83925 -2.90649 0
M  V30 29226 N 2715.27 1.24225 0.969846 0
M  V30 29227 C 2716.55 0.988693 1.68773 0
M  V30 29228 C 2716.93 -0.489636 2.05343 0
M  V30 29229 O 2716.27 -1.46342 1.75489 0
M  V30 29230 C 2716.48 1.90946 2.92131 0
M  V30 29231 C 2717.83 2.1791 3.64418 0
M  V30 29232 O 2718.86 1.88581 3.02185 0
M  V30 29233 O 2717.72 2.67706 4.76441 0
M  V30 29234 H 2714.81 0.373743 0.73773 0
M  V30 29235 H 2717.36 1.35314 1.02413 0
M  V30 29236 H 2716.13 2.90836 2.61783 0
M  V30 29237 H 2715.75 1.54805 3.66226 0
M  V30 29238 N 2716.75 -1.1702 1.05565 0
M  V30 29239 C 2717.68 -2.23347 0.681065 0
M  V30 29240 C 2718.66 -1.67006 -0.322954 0
M  V30 29241 O 2719.84 -1.9317 -0.199712 0
M  V30 29242 C 2716.97 -3.4725 0.0589663 0
M  V30 29243 C 2715.93 -4.16437 0.988155 0
M  V30 29244 C 2715.25 -5.34206 0.22974 0
M  V30 29245 C 2716.55 -4.68245 2.31396 0
M  V30 29246 H 2718.25 -2.54936 1.56997 0
M  V30 29247 H 2715.79 -1.22539 0.756324 0
M  V30 29248 H 2717.75 -4.20852 -0.214908 0
M  V30 29249 H 2716.47 -3.14939 -0.864913 0
M  V30 29250 H 2715.13 -3.44752 1.24666 0
M  V30 29251 H 2714.78 -4.98147 -0.697024 0
M  V30 29252 H 2714.48 -5.81435 0.848917 0
M  V30 29253 H 2716 -6.10589 -0.0367621 0
M  V30 29254 H 2717.42 -5.33464 2.09973 0
M  V30 29255 H 2715.81 -5.26067 2.88745 0
M  V30 29256 H 2716.88 -3.8485 2.94989 0
M  V30 29257 N 2718.23 -0.837197 -1.33524 0
M  V30 29258 C 2719.64 -0.489049 -1.80181 0
M  V30 29259 C 2719.99 0.991796 -1.69286 0
M  V30 29260 O 2719.11 1.77269 -1.24116 0
M  V30 29261 C 2719.71 -0.880924 -3.27147 0
M  V30 29262 C 2718.27 -0.584938 -3.71827 0
M  V30 29263 C 2717.41 -1.09016 -2.54972 0
M  V30 29264 H 2720.36 -1.02605 -1.2107 0
M  V30 29265 H 2720.39 -0.190306 -3.80024 0
M  V30 29266 H 2719.9 -1.95874 -3.35044 0
M  V30 29267 H 2718 0.482885 -3.69458 0
M  V30 29268 H 2718.11 -1.139 -4.65364 0
M  V30 29269 H 2716.48 -0.511091 -2.49519 0
M  V30 29270 H 2717.26 -2.17472 -2.65633 0
M  V30 29271 N 2719.7 1.45999 -0.593476 0
M  V30 29272 C 2720.64 2.27472 0.182156 0
M  V30 29273 C 2721.61 1.36284 0.886877 0
M  V30 29274 O 2722.8 1.65703 0.898598 0
M  V30 29275 C 2719.93 3.14298 1.26231 0
M  V30 29276 C 2718.97 4.21327 0.662257 0
M  V30 29277 S 2719.8 5.32978 -0.519111 0
M  V30 29278 C 2720.96 6.23372 0.561977 0
M  V30 29279 H 2721.19 2.92908 -0.509108 0
M  V30 29280 H 2718.73 1.49635 -0.380633 0
M  V30 29281 H 2720.68 3.64884 1.88069 0
M  V30 29282 H 2719.35 2.48154 1.92557 0
M  V30 29283 H 2718.54 4.81948 1.47453 0
M  V30 29284 H 2718.14 3.7381 0.119316 0
M  V30 29285 H 2720.43 6.61915 1.44482 0
M  V30 29286 H 2721.38 7.081 -0.00773223 0
M  V30 29287 H 2721.78 5.57741 0.870963 0
M  V30 29288 N 2721.18 0.331843 1.54067 0
M  V30 29289 C 2722.43 -0.268631 2.01013 0
M  V30 29290 C 2722.76 -1.51133 1.21952 0
M  V30 29291 O 2722.04 -1.92109 0.304006 0
M  V30 29292 C 2722.32 -0.594498 3.55159 0
M  V30 29293 C 2722.17 0.659487 4.44939 0
M  V30 29294 C 2723.49 -1.40883 4.16941 0
M  V30 29295 H 2720.61 -0.0961627 0.730699 0
M  V30 29296 H 2723.25 0.450063 1.84593 0
M  V30 29297 H 2721.4 -1.20678 3.69282 0
M  V30 29298 H 2723.07 1.29764 4.42673 0
M  V30 29299 H 2721.32 1.28672 4.14277 0
M  V30 29300 H 2721.99 0.386901 5.50642 0
M  V30 29301 H 2724.46 -0.891201 4.06444 0
M  V30 29302 H 2723.34 -1.60559 5.24892 0
M  V30 29303 H 2723.6 -2.40745 3.70802 0
M  V30 29304 N 2722.66 -1.57485 0.0601958 0
M  V30 29305 C 2723.89 -1.97778 -0.624381 0
M  V30 29306 C 2724.31 -0.937896 -1.63049 0
M  V30 29307 O 2723.67 0.0978527 -1.81036 0
M  V30 29308 C 2723.72 -3.37128 -1.27973 0
M  V30 29309 O 2722.82 -3.35692 -2.3955 0
M  V30 29310 H 2722.16 -0.644043 -0.16157 0
M  V30 29311 H 2724.69 -2.04178 0.131272 0
M  V30 29312 H 2724.7 -3.74056 -1.6293 0
M  V30 29313 H 2723.38 -4.12348 -0.542428 0
M  V30 29314 H 2721.95 -3.10521 -2.06473 0
M  V30 29315 N 2724.14 0.213268 -1.5615 0
M  V30 29316 C 2725.39 0.93458 -1.79193 0
M  V30 29317 C 2725.71 1.84538 -0.630145 0
M  V30 29318 O 2724.98 1.92702 0.352536 0
M  V30 29319 H 2723.56 0.348085 -0.660943 0
M  V30 29320 H 2726.22 0.223136 -1.93618 0
M  V30 29321 H 2725.32 1.53649 -2.71658 0
M  V30 29322 N 2725.62 1.50103 0.480296 0
M  V30 29323 C 2726.89 1.51144 1.24157 0
M  V30 29324 C 2727.27 0.250855 2.09604 0
M  V30 29325 O 2726.62 -0.76608 2.15275 0
M  V30 29326 C 2726.83 2.80206 2.08052 0
M  V30 29327 C 2728.18 3.30509 2.6655 0
M  V30 29328 O 2729.2 2.81465 2.18303 0
M  V30 29329 O 2728.06 4.15979 3.54435 0
M  V30 29330 H 2725.16 0.605849 0.562918 0
M  V30 29331 H 2727.7 1.62385 0.49287 0
M  V30 29332 H 2726.47 3.63433 1.45026 0
M  V30 29333 H 2726.1 2.71924 2.90074 0
M  V30 29334 N 2727.09 -0.732829 1.39526 0
M  V30 29335 C 2728.51 -1.03866 1.21177 0
M  V30 29336 C 2728.71 -2.01361 0.0748802 0
M  V30 29337 O 2727.77 -2.45918 -0.572767 0
M  V30 29338 C 2729.08 -1.59887 2.5467 0
M  V30 29339 C 2730.63 -1.71957 2.61533 0
M  V30 29340 C 2731.1 -2.31387 3.95252 0
M  V30 29341 N 2732.59 -2.38794 3.96903 0
M  V30 29342 C 2733.33 -2.8572 4.97143 0
M  V30 29343 N 2732.82 -3.32527 6.07781 0
M  V30 29344 N 2734.62 -2.84949 4.84521 0
M  V30 29345 H 2726.77 -0.0862667 2.12225 0
M  V30 29346 H 2729.03 -0.10089 0.942616 0
M  V30 29347 H 2728.74 -0.957151 3.38425 0
M  V30 29348 H 2728.61 -2.58663 2.74542 0
M  V30 29349 H 2731 -2.35251 1.7816 0
M  V30 29350 H 2731.08 -0.718284 2.45508 0
M  V30 29351 H 2730.72 -1.6872 4.79057 0
M  V30 29352 H 2730.65 -3.32197 4.08599 0
M  V30 29353 H 2733.14 -2.05714 3.17002 0
M  V30 29354 H 2733.46 -3.6685 6.80177 0
M  V30 29355 H 2731.8 -3.3053 6.11371 0
M  V30 29356 H 2734.99 -2.47706 3.97189 0
M  V30 29357 H 2735.17 -3.21206 5.62789 0
M  V30 29358 N 2728.57 -1.24737 -0.963244 0
M  V30 29359 C 2729.82 -1.08372 -1.70113 0
M  V30 29360 C 2730.13 0.376654 -1.91939 0
M  V30 29361 O 2731.34 0.660578 -2.63341 0
M  V30 29362 C 2729.8 -1.89104 -3.06215 0
M  V30 29363 C 2729.4 -3.3958 -2.92215 0
M  V30 29364 C 2731.15 -1.81282 -3.83845 0
M  V30 29365 C 2729.06 -4.12639 -4.23655 0
M  V30 29366 H 2727.99 -0.401936 -0.637937 0
M  V30 29367 H 2730.64 -1.48858 -1.07301 0
M  V30 29368 H 2729.02 -1.41436 -3.69881 0
M  V30 29369 H 2730.19 -3.9486 -2.37534 0
M  V30 29370 H 2728.51 -3.48401 -2.28047 0
M  V30 29371 H 2731.1 -2.33166 -4.81184 0
M  V30 29372 H 2731.45 -0.778967 -4.08947 0
M  V30 29373 H 2731.98 -2.26655 -3.26914 0
M  V30 29374 H 2728.72 -5.16402 -4.03744 0
M  V30 29375 H 2728.24 -3.62143 -4.78134 0
M  V30 29376 H 2729.92 -4.19882 -4.92248 0
M  V30 29377 N 2730.05 1.16459 -1.06184 0
M  V30 29378 C 2731 2.18785 -0.641657 0
M  V30 29379 C 2731.98 1.5754 0.327094 0
M  V30 29380 O 2733.18 1.76424 0.142715 0
M  V30 29381 C 2730.31 3.43288 -0.0284338 0
M  V30 29382 C 2729.39 4.11611 -1.02161 0
M  V30 29383 N 2729.78 4.55604 -2.19679 0
M  V30 29384 C 2728.08 4.3778 -0.852306 0
M  V30 29385 C 2728.78 5.08445 -2.82592 0
M  V30 29386 N 2727.76 5.01262 -2.10326 0
M  V30 29387 H 2731.56 2.50514 -1.53689 0
M  V30 29388 H 2729.07 1.32898 -0.933373 0
M  V30 29389 H 2731.07 4.15887 0.290417 0
M  V30 29390 H 2729.73 3.13047 0.862063 0
M  V30 29391 H 2730.74 4.49371 -2.57461 0
M  V30 29392 H 2727.42 4.17498 -0.0137048 0
M  V30 29393 H 2728.81 5.52531 -3.82307 0
M  V30 29394 N 2731.53 0.844266 1.33079 0
M  V30 29395 C 2732.77 0.448732 1.99414 0
M  V30 29396 C 2733.13 -0.975029 1.654 0
M  V30 29397 O 2734.33 -1.47457 2.24744 0
M  V30 29398 C 2732.6 0.669151 3.5108 0
M  V30 29399 S 2734.16 0.369641 4.3724 0
M  V30 29400 H 2730.98 0.16855 0.690733 0
M  V30 29401 H 2733.58 1.09472 1.61975 0
M  V30 29402 H 2732.29 1.70464 3.73323 0
M  V30 29403 H 2731.82 0.00920126 3.93399 0
M  V30 29404 H 2733.83 -0.808466 4.89569 0
M  V30 29405 N 2733.01 -1.45682 0.60121 0
M  V30 29406 C 2733.94 -2.33246 -0.108783 0
M  V30 29407 C 2734.92 -1.46453 -0.865197 0
M  V30 29408 O 2736.1 -1.75236 -0.837009 0
M  V30 29409 C 2733.23 -3.29052 -1.11095 0
M  V30 29410 C 2732.19 -4.25432 -0.46817 0
M  V30 29411 C 2731.51 -5.10881 -1.57813 0
M  V30 29412 C 2732.81 -5.18766 0.606561 0
M  V30 29413 H 2734.51 -2.9286 0.622358 0
M  V30 29414 H 2732.05 -1.40825 0.300739 0
M  V30 29415 H 2734.01 -3.89177 -1.61615 0
M  V30 29416 H 2732.73 -2.67584 -1.8726 0
M  V30 29417 H 2731.39 -3.66596 0.0161129 0
M  V30 29418 H 2731.04 -4.45785 -2.32991 0
M  V30 29419 H 2730.74 -5.76165 -1.15358 0
M  V30 29420 H 2732.26 -5.73873 -2.08573 0
M  V30 29421 H 2733.67 -5.72999 0.185689 0
M  V30 29422 H 2732.07 -5.92493 0.952486 0
M  V30 29423 H 2733.14 -4.6158 1.48567 0
M  V30 29424 N 2734.48 -0.340009 -1.53889 0
M  V30 29425 C 2735.76 0.312685 -1.93085 0
M  V30 29426 C 2736.14 1.68531 -1.27123 0
M  V30 29427 O 2735.49 2.24591 -0.420875 0
M  V30 29428 C 2735.7 0.388497 -3.46831 0
M  V30 29429 C 2737.05 0.641014 -4.19733 0
M  V30 29430 O 2738.07 0.470756 -3.53076 0
M  V30 29431 O 2736.93 0.970591 -5.37812 0
M  V30 29432 H 2734.02 0.181725 -0.806787 0
M  V30 29433 H 2736.57 -0.390927 -1.65136 0
M  V30 29434 H 2735.34 -0.574889 -3.87054 0
M  V30 29435 H 2734.97 1.13904 -3.80935 0
M  V30 29436 N 2735.96 1.57451 -0.0685468 0
M  V30 29437 C 2737.21 1.92542 0.600864 0
M  V30 29438 C 2737.53 0.950269 1.70966 0
M  V30 29439 O 2738.73 1.19388 2.43842 0
M  V30 29440 C 2737.19 3.42025 1.12013 0
M  V30 29441 C 2736.8 4.4798 0.042524 0
M  V30 29442 C 2738.54 3.86122 1.7638 0
M  V30 29443 C 2736.45 5.88592 0.575655 0
M  V30 29444 H 2735.38 0.718634 0.228213 0
M  V30 29445 H 2738.03 1.82963 -0.140255 0
M  V30 29446 H 2736.41 3.46666 1.91412 0
M  V30 29447 H 2737.58 4.5495 -0.7319 0
M  V30 29448 H 2735.9 4.1333 -0.504715 0
M  V30 29449 H 2738.5 4.88557 2.17293 0
M  V30 29450 H 2738.84 3.23313 2.62249 0
M  V30 29451 H 2739.37 3.8407 1.03608 0
M  V30 29452 H 2736.11 6.55039 -0.245807 0
M  V30 29453 H 2735.63 5.85147 1.31767 0
M  V30 29454 H 2737.31 6.38372 1.05309 0
M  V30 29455 N 2737.44 -0.204984 1.56261 0
M  V30 29456 C 2738.37 -1.25696 1.96781 0
M  V30 29457 C 2739.35 -1.48007 0.838335 0
M  V30 29458 O 2740.54 -1.59911 1.10192 0
M  V30 29459 C 2737.67 -2.60331 2.2988 0
M  V30 29460 C 2736.62 -2.5265 3.45473 0
M  V30 29461 C 2735.95 -3.91467 3.64222 0
M  V30 29462 C 2737.25 -2.06005 4.79957 0
M  V30 29463 H 2738.94 -0.920288 2.84905 0
M  V30 29464 H 2736.49 -0.441253 1.37073 0
M  V30 29465 H 2738.44 -3.34098 2.5682 0
M  V30 29466 H 2737.16 -2.9572 1.38627 0
M  V30 29467 H 2735.82 -1.8134 3.18609 0
M  V30 29468 H 2735.47 -4.24191 2.70316 0
M  V30 29469 H 2735.17 -3.87205 4.4198 0
M  V30 29470 H 2736.7 -4.66871 3.93528 0
M  V30 29471 H 2738.11 -2.69524 5.05994 0
M  V30 29472 H 2736.51 -2.12767 5.61115 0
M  V30 29473 H 2737.58 -1.01289 4.74203 0
M  V30 29474 N 2738.92 -1.50356 -0.472329 0
M  V30 29475 C 2740.17 -1.61283 -1.2245 0
M  V30 29476 C 2740.49 -0.312594 -1.91972 0
M  V30 29477 O 2739.75 0.701443 -1.82697 0
M  V30 29478 C 2740.05 -2.74186 -2.29252 0
M  V30 29479 C 2739.71 -4.14711 -1.76991 0
M  V30 29480 C 2738.38 -4.52946 -1.62459 0
M  V30 29481 C 2740.73 -5.02542 -1.38206 0
M  V30 29482 C 2738.06 -5.76756 -1.07564 0
M  V30 29483 C 2740.41 -6.26897 -0.847528 0
M  V30 29484 C 2739.07 -6.63936 -0.688829 0
M  V30 29485 H 2738.34 -0.590176 -0.448077 0
M  V30 29486 H 2740.99 -1.84285 -0.520712 0
M  V30 29487 H 2739.29 -2.45268 -3.05534 0
M  V30 29488 H 2740.99 -2.79845 -2.87207 0
M  V30 29489 H 2737.58 -3.84545 -1.89269 0
M  V30 29490 H 2741.77 -4.73635 -1.48268 0
M  V30 29491 H 2737.02 -6.04129 -0.940131 0
M  V30 29492 H 2741.2 -6.94316 -0.538333 0
M  V30 29493 H 2738.82 -7.59751 -0.261301 0
M  V30 29494 N 2740.4 0.725419 -1.39912 0
M  V30 29495 C 2741.36 1.82119 -1.3916 0
M  V30 29496 C 2742.36 1.58217 -0.287046 0
M  V30 29497 O 2743.55 1.6544 -0.54545 0
M  V30 29498 C 2740.68 3.2006 -1.17366 0
M  V30 29499 H 2741.88 1.84187 -2.36675 0
M  V30 29500 H 2739.43 0.930057 -1.25617 0
M  V30 29501 H 2740.16 3.23647 -0.205705 0
M  V30 29502 H 2739.95 3.38806 -1.97364 0
M  V30 29503 H 2741.44 4.00106 -1.19603 0
M  V30 29504 N 2741.88 1.25246 0.956615 0
M  V30 29505 C 2743.12 1.09877 1.70098 0
M  V30 29506 C 2743.45 -0.360587 1.91128 0
M  V30 29507 O 2742.71 -1.28226 1.4784 0
M  V30 29508 C 2743 1.79606 3.08992 0
M  V30 29509 C 2742.67 3.29529 3.07769 0
M  V30 29510 C 2741.33 3.70428 3.07142 0
M  V30 29511 C 2743.68 4.25321 3.0125 0
M  V30 29512 C 2741.01 5.05535 2.97743 0
M  V30 29513 C 2743.36 5.60449 2.93393 0
M  V30 29514 C 2742.03 6.0068 2.91101 0
M  V30 29515 H 2741.3 0.402067 0.622433 0
M  V30 29516 H 2743.95 1.55493 1.11777 0
M  V30 29517 H 2742.25 1.26415 3.70846 0
M  V30 29518 H 2743.95 1.65169 3.65404 0
M  V30 29519 H 2740.54 2.96985 3.09027 0
M  V30 29520 H 2744.72 3.94716 3.00854 0
M  V30 29521 H 2739.98 5.35888 2.94336 0
M  V30 29522 H 2744.15 6.34371 2.87309 0
M  V30 29523 H 2741.78 7.0533 2.83573 0
M  V30 29524 N 2743.35 -1.15894 1.068 0
M  V30 29525 C 2744.58 -1.9044 0.808728 0
M  V30 29526 C 2745 -1.77712 -0.637474 0
M  V30 29527 O 2744.35 -1.12525 -1.43682 0
M  V30 29528 C 2744.4 -3.40976 1.20074 0
M  V30 29529 O 2744.13 -3.53328 2.59019 0
M  V30 29530 C 2745.63 -4.32559 0.969946 0
M  V30 29531 H 2742.85 -0.603736 0.29282 0
M  V30 29532 H 2745.39 -1.46872 1.42299 0
M  V30 29533 H 2743.55 -3.82228 0.630909 0
M  V30 29534 H 2743.96 -4.46714 2.74858 0
M  V30 29535 H 2745.43 -5.36623 1.2938 0
M  V30 29536 H 2745.91 -4.39099 -0.0940438 0
M  V30 29537 H 2746.52 -3.97042 1.5244 0
M  V30 29538 N 2744.83 -0.851312 -1.32629 0
M  V30 29539 C 2745.78 -0.291509 -2.28952 0
M  V30 29540 C 2746.75 0.599649 -1.54898 0
M  V30 29541 O 2747.93 0.535272 -1.83138 0
M  V30 29542 C 2745.07 0.516932 -3.41206 0
M  V30 29543 C 2744.19 -0.399642 -4.30147 0
M  V30 29544 C 2743.32 0.421106 -5.29528 0
M  V30 29545 C 2742.36 -0.493076 -6.10111 0
M  V30 29546 N 2741.5 0.29029 -7.015 0
M  V30 29547 H 2746.34 -1.11818 -2.76226 0
M  V30 29548 H 2743.87 -0.56285 -1.35906 0
M  V30 29549 H 2745.83 1.00125 -4.05007 0
M  V30 29550 H 2744.46 1.30846 -2.95092 0
M  V30 29551 H 2743.51 -1.00233 -3.66957 0
M  V30 29552 H 2744.83 -1.10139 -4.86488 0
M  V30 29553 H 2743.98 0.968727 -5.98916 0
M  V30 29554 H 2742.72 1.15623 -4.73796 0
M  V30 29555 H 2741.72 -1.05261 -5.3963 0
M  V30 29556 H 2742.95 -1.22676 -6.67928 0
M  V30 29557 H 2740.9 1.00857 -6.482 0
M  V30 29558 H 2740.81 -0.352487 -7.55178 0
M  V30 29559 H 2742.08 0.819746 -7.75178 0
M  V30 29560 N 2746.31 1.45361 -0.608928 0
M  V30 29561 C 2747.73 1.57253 -0.272686 0
M  V30 29562 C 2747.93 1.60007 1.22474 0
M  V30 29563 O 2746.98 1.5311 2.00783 0
M  V30 29564 C 2748.29 2.85464 -0.945041 0
M  V30 29565 C 2749.84 2.9914 -0.921086 0
M  V30 29566 C 2750.32 4.30123 -1.57348 0
M  V30 29567 N 2751.81 4.36885 -1.53903 0
M  V30 29568 C 2752.54 5.36906 -2.01295 0
M  V30 29569 N 2752.04 6.43456 -2.5678 0
M  V30 29570 N 2753.83 5.28272 -1.92055 0
M  V30 29571 H 2745.98 1.41817 -1.58119 0
M  V30 29572 H 2748.25 0.678134 -0.662449 0
M  V30 29573 H 2747.95 2.89334 -1.99946 0
M  V30 29574 H 2747.83 3.74271 -0.469145 0
M  V30 29575 H 2750.21 2.94836 0.124794 0
M  V30 29576 H 2750.29 2.1174 -1.43526 0
M  V30 29577 H 2749.94 4.35186 -2.61869 0
M  V30 29578 H 2749.87 5.16342 -1.03431 0
M  V30 29579 H 2752.36 3.60493 -1.13372 0
M  V30 29580 H 2752.67 7.16027 -2.90732 0
M  V30 29581 H 2751.02 6.44204 -2.60819 0
M  V30 29582 H 2754.21 4.43938 -1.48447 0
M  V30 29583 H 2754.38 6.06073 -2.29303 0
M  V30 29584 N 2747.79 0.348166 1.53706 0
M  V30 29585 C 2749.03 -0.247296 2.01287 0
M  V30 29586 C 2749.37 -1.49831 1.23548 0
M  V30 29587 O 2748.64 -1.91776 0.324364 0
M  V30 29588 C 2748.92 -0.556795 3.55769 0
M  V30 29589 C 2748.78 0.706642 4.44215 0
M  V30 29590 C 2750.1 -1.36453 4.18412 0
M  V30 29591 H 2747.22 -0.0884073 0.731678 0
M  V30 29592 H 2749.86 0.469616 1.84105 0
M  V30 29593 H 2748.01 -1.16755 3.70541 0
M  V30 29594 H 2749.68 1.34451 4.41271 0
M  V30 29595 H 2747.92 1.33059 4.12889 0
M  V30 29596 H 2748.59 0.445282 5.50201 0
M  V30 29597 H 2751.07 -0.848042 4.07366 0
M  V30 29598 H 2749.95 -1.54983 5.26566 0
M  V30 29599 H 2750.21 -2.36799 3.73335 0
M  V30 29600 N 2749.27 -1.57412 0.0768958 0
M  V30 29601 C 2750.2 -2.16038 -0.885988 0
M  V30 29602 C 2751.18 -1.08878 -1.30689 0
M  V30 29603 O 2752.36 -1.36936 -1.37703 0
M  V30 29604 C 2749.49 -2.72611 -2.15175 0
M  V30 29605 C 2748.45 -3.84983 -1.87008 0
M  V30 29606 C 2747.77 -4.28181 -3.20258 0
M  V30 29607 C 2749.07 -5.08996 -1.17134 0
M  V30 29608 H 2750.77 -2.96748 -0.397589 0
M  V30 29609 H 2748.31 -1.42744 -0.189798 0
M  V30 29610 H 2750.26 -3.12271 -2.82957 0
M  V30 29611 H 2748.99 -1.8913 -2.66266 0
M  V30 29612 H 2747.65 -3.45835 -1.2163 0
M  V30 29613 H 2747.3 -3.41614 -3.69201 0
M  V30 29614 H 2747 -5.03933 -3.02201 0
M  V30 29615 H 2748.52 -4.7046 -3.89229 0
M  V30 29616 H 2749.93 -5.4594 -1.74993 0
M  V30 29617 H 2748.33 -5.90059 -1.09318 0
M  V30 29618 H 2749.4 -4.84664 -0.15121 0
M  V30 29619 N 2750.74 0.196695 -1.56368 0
M  V30 29620 C 2751.99 0.915522 -1.80174 0
M  V30 29621 C 2752.31 1.83859 -0.649682 0
M  V30 29622 O 2751.58 1.93065 0.332077 0
M  V30 29623 H 2750.16 0.341055 -0.664598 0
M  V30 29624 H 2752.83 0.202588 -1.93844 0
M  V30 29625 H 2751.92 1.50759 -2.73273 0
M  V30 29626 N 2752.22 1.50604 0.464349 0
M  V30 29627 C 2753.13 1.72757 1.5872 0
M  V30 29628 C 2754.15 0.610872 1.62924 0
M  V30 29629 O 2755.32 0.889995 1.80668 0
M  V30 29630 C 2752.39 1.82314 2.94894 0
M  V30 29631 C 2751.45 3.06077 3.01024 0
M  V30 29632 C 2750.68 3.15168 4.30703 0
M  V30 29633 O 2750.91 2.30877 5.21586 0
M  V30 29634 O 2749.84 4.07947 4.42564 0
M  V30 29635 H 2753.67 2.67954 1.42949 0
M  V30 29636 H 2751.25 1.34781 0.644555 0
M  V30 29637 H 2753.13 1.90741 3.7576 0
M  V30 29638 H 2751.81 0.903022 3.10849 0
M  V30 29639 H 2750.72 3.03146 2.19211 0
M  V30 29640 H 2752.05 3.97689 2.90007 0
M  V30 29641 N 2753.7 -0.717989 1.40295 0
M  V30 29642 C 2754.93 -1.51217 1.41944 0
M  V30 29643 C 2755.35 -1.88089 0.0202701 0
M  V30 29644 O 2754.71 -1.53102 -0.971051 0
M  V30 29645 C 2754.76 -2.7655 2.31415 0
M  V30 29646 O 2753.86 -3.73159 1.75574 0
M  V30 29647 H 2753.2 -0.456007 0.482652 0
M  V30 29648 H 2755.73 -0.884445 1.84496 0
M  V30 29649 H 2755.74 -3.25104 2.46518 0
M  V30 29650 H 2754.42 -2.49047 3.33089 0
M  V30 29651 H 2752.99 -3.31996 1.69804 0
M  V30 29652 N 2755.18 -1.25752 -0.94996 0
M  V30 29653 C 2756.43 -1.10558 -1.69178 0
M  V30 29654 C 2756.75 0.353265 -1.91773 0
M  V30 29655 O 2756.02 1.25025 -1.50816 0
M  V30 29656 H 2754.6 -0.40614 -0.626945 0
M  V30 29657 H 2757.26 -1.57947 -1.14188 0
M  V30 29658 H 2756.36 -1.61754 -2.66912 0
M  V30 29659 N 2756.66 1.15326 -1.07413 0
M  V30 29660 C 2757.57 2.2371 -0.706477 0
M  V30 29661 C 2758.58 1.7169 0.282556 0
M  V30 29662 O 2759.76 2.00986 0.129031 0
M  V30 29663 C 2756.82 3.46524 -0.110541 0
M  V30 29664 C 2755.88 4.1353 -1.15289 0
M  V30 29665 C 2755.12 5.30481 -0.585299 0
M  V30 29666 O 2755.34 5.67252 0.598449 0
M  V30 29667 O 2754.27 5.87011 -1.33049 0
M  V30 29668 H 2758.1 2.5749 -1.61035 0
M  V30 29669 H 2755.69 1.23061 -0.847135 0
M  V30 29670 H 2757.57 4.20828 0.219496 0
M  V30 29671 H 2756.24 3.1449 0.766648 0
M  V30 29672 H 2755.15 3.41144 -1.53529 0
M  V30 29673 H 2756.48 4.49645 -2.002 0
M  V30 29674 N 2758.13 0.858334 1.32176 0
M  V30 29675 C 2759.07 0.25039 2.26822 0
M  V30 29676 C 2760.05 -0.613754 1.50572 0
M  V30 29677 O 2761.23 -0.569746 1.79683 0
M  V30 29678 C 2758.36 -0.646497 3.32473 0
M  V30 29679 C 2757.4 0.14475 4.26254 0
M  V30 29680 S 2758.24 1.51559 5.13605 0
M  V30 29681 C 2759.39 0.624518 6.22777 0
M  V30 29682 H 2759.62 1.05272 2.78038 0
M  V30 29683 H 2757.16 0.656177 1.39763 0
M  V30 29684 H 2759.12 -1.15831 3.93819 0
M  V30 29685 H 2757.78 -1.42267 2.80034 0
M  V30 29686 H 2756.97 -0.538525 5.01115 0
M  V30 29687 H 2756.57 0.588263 3.69345 0
M  V30 29688 H 2758.86 -0.169727 6.77287 0
M  V30 29689 H 2759.81 1.34388 6.9523 0
M  V30 29690 H 2760.21 0.197227 5.64155 0
M  V30 29691 N 2759.61 -1.45036 0.616628 0
M  V30 29692 C 2760.89 -1.95544 0.046943 0
M  V30 29693 C 2761.27 -1.55891 -1.42342 0
M  V30 29694 O 2760.62 -0.825861 -2.13053 0
M  V30 29695 C 2760.83 -3.4807 0.25455 0
M  V30 29696 C 2762.18 -4.24369 0.1401 0
M  V30 29697 O 2763.2 -3.55718 0.185147 0
M  V30 29698 O 2762.06 -5.4649 0.0327995 0
M  V30 29699 H 2759.15 -0.826434 -0.0305906 0
M  V30 29700 H 2761.7 -1.55158 0.687321 0
M  V30 29701 H 2760.47 -3.69932 1.27539 0
M  V30 29702 H 2760.09 -3.95368 -0.42066 0
M  V30 29703 N 2761.09 -0.356312 -1.53519 0
M  V30 29704 C 2762.05 0.482142 -2.24071 0
M  V30 29705 C 2763.05 1.01727 -1.24532 0
M  V30 29706 O 2764.24 0.904487 -1.48878 0
M  V30 29707 C 2761.38 1.67294 -2.97028 0
M  V30 29708 H 2762.57 -0.135084 -2.99596 0
M  V30 29709 H 2760.12 -0.107852 -1.55927 0
M  V30 29710 H 2760.86 2.32851 -2.25723 0
M  V30 29711 H 2760.64 1.29629 -3.70052 0
M  V30 29712 H 2762.13 2.26734 -3.50687 0
M  V30 29713 N 2762.57 1.57369 -0.0852427 0
M  V30 29714 C 2763.5 2.16505 0.874518 0
M  V30 29715 C 2764.48 1.0957 1.30109 0
M  V30 29716 O 2765.66 1.37665 1.36975 0
M  V30 29717 C 2762.79 2.73749 2.13726 0
M  V30 29718 C 2761.75 3.85969 1.84964 0
M  V30 29719 C 2761.07 4.29873 3.17983 0
M  V30 29720 C 2762.37 5.0961 1.14433 0
M  V30 29721 H 2764.07 2.96955 0.381847 0
M  V30 29722 H 2761.61 1.42842 0.182225 0
M  V30 29723 H 2763.57 3.13768 2.81297 0
M  V30 29724 H 2762.29 1.90539 2.65259 0
M  V30 29725 H 2760.95 3.46475 1.19794 0
M  V30 29726 H 2760.6 3.43567 3.67384 0
M  V30 29727 H 2760.3 5.05528 2.99525 0
M  V30 29728 H 2761.82 4.72518 3.86729 0
M  V30 29729 H 2763.24 5.4686 1.72096 0
M  V30 29730 H 2761.63 5.9063 1.06187 0
M  V30 29731 H 2762.7 4.84738 0.125505 0
M  V30 29732 N 2764.05 -0.188399 1.5647 0
M  V30 29733 C 2765.46 -0.539505 1.50205 0
M  V30 29734 C 2765.66 -1.85518 0.786472 0
M  V30 29735 O 2764.72 -2.50204 0.339758 0
M  V30 29736 C 2766.03 -0.588051 2.94894 0
M  V30 29737 C 2767.58 -0.676426 3.05603 0
M  V30 29738 C 2768.05 -0.756022 4.51717 0
M  V30 29739 N 2769.55 -0.819371 4.55895 0
M  V30 29740 C 2770.28 -0.90124 5.66273 0
M  V30 29741 N 2769.78 -0.944998 6.86325 0
M  V30 29742 N 2771.57 -0.938946 5.54202 0
M  V30 29743 H 2763.72 0.674529 2.01405 0
M  V30 29744 H 2765.98 0.241119 0.916824 0
M  V30 29745 H 2765.69 0.309695 3.50334 0
M  V30 29746 H 2765.56 -1.44045 3.48613 0
M  V30 29747 H 2767.95 -1.5646 2.50208 0
M  V30 29748 H 2768.03 0.202307 2.54999 0
M  V30 29749 H 2767.68 0.127829 5.07739 0
M  V30 29750 H 2767.61 -1.65065 5.00061 0
M  V30 29751 H 2770.1 -0.794529 3.69453 0
M  V30 29752 H 2770.41 -1.00817 7.66196 0
M  V30 29753 H 2768.75 -0.913562 6.8897 0
M  V30 29754 H 2771.95 -0.901644 4.59334 0
M  V30 29755 H 2772.12 -0.99929 6.40249 0
M  V30 29756 N 2765.53 -1.50848 -0.456355 0
M  V30 29757 C 2766.77 -1.6181 -1.20418 0
M  V30 29758 C 2767.09 -0.330966 -1.9278 0
M  V30 29759 O 2768.29 -0.31969 -2.69611 0
M  V30 29760 C 2766.75 -2.85687 -2.18886 0
M  V30 29761 C 2766.36 -4.21333 -1.52259 0
M  V30 29762 C 2768.1 -3.05999 -2.94219 0
M  V30 29763 C 2766.01 -5.3638 -2.491 0
M  V30 29764 H 2764.94 -0.602624 -0.453167 0
M  V30 29765 H 2767.59 -1.77296 -0.473113 0
M  V30 29766 H 2765.97 -2.63792 -2.95347 0
M  V30 29767 H 2767.15 -4.53538 -0.81487 0
M  V30 29768 H 2765.46 -4.06744 -0.891523 0
M  V30 29769 H 2768.06 -3.89123 -3.66725 0
M  V30 29770 H 2768.4 -2.18312 -3.54465 0
M  V30 29771 H 2768.93 -3.28145 -2.24868 0
M  V30 29772 H 2765.67 -6.26267 -1.93571 0
M  V30 29773 H 2765.19 -5.08574 -3.17982 0
M  V30 29774 H 2766.87 -5.67556 -3.10627 0
M  V30 29775 N 2767 0.710538 -1.40674 0
M  V30 29776 C 2767.94 1.83555 -1.37259 0
M  V30 29777 C 2768.95 1.60423 -0.277161 0
M  V30 29778 O 2770.14 1.70204 -0.537861 0
M  V30 29779 C 2767.24 3.20052 -1.11445 0
M  V30 29780 C 2766.41 3.70338 -2.32741 0
M  V30 29781 C 2765.47 4.85462 -2.0301 0
M  V30 29782 O 2764.5 4.97852 -2.75921 0
M  V30 29783 N 2765.7 5.71626 -1.01115 0
M  V30 29784 H 2768.46 1.86981 -2.34218 0
M  V30 29785 H 2766.02 0.892278 -1.35093 0
M  V30 29786 H 2768.02 3.94672 -0.895334 0
M  V30 29787 H 2766.59 3.11743 -0.231361 0
M  V30 29788 H 2765.81 2.86793 -2.70451 0
M  V30 29789 H 2767.09 4.00672 -3.13591 0
M  V30 29790 H 2766.49 5.64231 -0.407402 0
M  V30 29791 H 2765.05 6.46208 -0.851933 0
M  V30 29792 N 2768.48 1.26254 0.943277 0
M  V30 29793 C 2769.41 1.0195 2.0416 0
M  V30 29794 C 2770.39 -0.0550522 1.62507 0
M  V30 29795 O 2771.58 0.0869356 1.88299 0
M  V30 29796 C 2768.7 0.543409 3.34312 0
M  V30 29797 C 2767.75 1.6102 3.94936 0
M  V30 29798 S 2768.58 3.19857 4.29479 0
M  V30 29799 C 2769.74 2.74011 5.62733 0
M  V30 29800 H 2769.97 1.94946 2.24463 0
M  V30 29801 H 2767.5 1.0991 1.08439 0
M  V30 29802 H 2769.46 0.275387 4.09575 0
M  V30 29803 H 2768.12 -0.366235 3.11958 0
M  V30 29804 H 2767.32 1.22804 4.8881 0
M  V30 29805 H 2766.92 1.82949 3.26199 0
M  V30 29806 H 2769.21 2.18344 6.41352 0
M  V30 29807 H 2770.15 3.66569 6.05833 0
M  V30 29808 H 2770.56 2.13643 5.2251 0
M  V30 29809 N 2769.96 -1.14755 1.08024 0
M  V30 29810 C 2770.87 -2.23332 0.718331 0
M  V30 29811 C 2771.89 -1.71838 -0.273447 0
M  V30 29812 O 2773.06 -2.01052 -0.11837 0
M  V30 29813 C 2770.13 -3.4646 0.128916 0
M  V30 29814 C 2769.19 -4.12913 1.17481 0
M  V30 29815 C 2768.42 -5.30163 0.613423 0
M  V30 29816 O 2768.64 -5.67561 -0.568358 0
M  V30 29817 O 2767.58 -5.86297 1.3616 0
M  V30 29818 H 2771.4 -2.56633 1.62399 0
M  V30 29819 H 2768.99 -1.2261 0.853649 0
M  V30 29820 H 2770.87 -4.20938 -0.197175 0
M  V30 29821 H 2769.55 -3.14893 -0.749959 0
M  V30 29822 H 2768.45 -3.40325 1.55336 0
M  V30 29823 H 2769.79 -4.48577 2.02582 0
M  V30 29824 N 2771.44 -0.865331 -1.31719 0
M  V30 29825 C 2772.71 -0.394823 -1.91574 0
M  V30 29826 C 2773.09 1.12268 -1.78771 0
M  V30 29827 O 2772.44 1.94916 -1.19248 0
M  V30 29828 C 2772.65 -0.871042 -3.37955 0
M  V30 29829 C 2774 -0.894457 -4.15072 0
M  V30 29830 O 2775.02 -0.816386 -3.46718 0
M  V30 29831 O 2773.88 -1.0066 -5.3715 0
M  V30 29832 H 2770.98 -0.117243 -0.818647 0
M  V30 29833 H 2773.52 -0.952938 -1.40418 0
M  V30 29834 H 2772.3 -1.9145 -3.41266 0
M  V30 29835 H 2771.92 -0.290977 -3.96534 0
M  V30 29836 N 2772.92 1.44707 -0.624311 0
M  V30 29837 C 2774.33 1.56955 -0.28935 0
M  V30 29838 C 2774.53 1.61297 1.2077 0
M  V30 29839 O 2773.59 1.55231 1.99147 0
M  V30 29840 C 2774.9 2.84445 -0.975265 0
M  V30 29841 C 2776.45 2.98147 -0.952762 0
M  V30 29842 C 2776.92 4.2843 -1.61901 0
M  V30 29843 N 2778.41 4.35228 -1.58528 0
M  V30 29844 C 2779.15 5.3474 -2.06979 0
M  V30 29845 N 2778.65 6.40697 -2.6359 0
M  V30 29846 N 2780.44 5.26205 -1.97648 0
M  V30 29847 H 2772.59 1.40132 -1.59615 0
M  V30 29848 H 2774.85 0.67107 -0.669604 0
M  V30 29849 H 2774.56 2.87197 -2.03004 0
M  V30 29850 H 2774.43 3.73752 -0.508815 0
M  V30 29851 H 2776.82 2.94952 0.0935162 0
M  V30 29852 H 2776.9 2.10206 -1.45764 0
M  V30 29853 H 2776.54 4.32384 -2.6647 0
M  V30 29854 H 2776.47 5.15216 -1.08902 0
M  V30 29855 H 2778.97 3.5927 -1.17189 0
M  V30 29856 H 2779.28 7.12903 -2.9831 0
M  V30 29857 H 2777.62 6.41401 -2.67637 0
M  V30 29858 H 2780.81 4.42339 -1.53147 0
M  V30 29859 H 2780.99 6.03606 -2.35719 0
M  V30 29860 N 2774.39 0.364449 1.53328 0
M  V30 29861 C 2775.64 -0.225599 2.01239 0
M  V30 29862 C 2775.97 -1.48867 1.25175 0
M  V30 29863 O 2775.22 -1.9284 0.333323 0
M  V30 29864 C 2775.52 -0.564599 3.52912 0
M  V30 29865 C 2775.19 0.604014 4.46836 0
M  V30 29866 C 2773.85 0.924668 4.72232 0
M  V30 29867 C 2776.2 1.387 5.02406 0
M  V30 29868 C 2773.53 2.0303 5.50451 0
M  V30 29869 C 2775.88 2.48303 5.81832 0
M  V30 29870 C 2774.55 2.80905 6.05515 0
M  V30 29871 H 2773.82 -0.0825525 0.736387 0
M  V30 29872 H 2776.46 0.496678 1.84947 0
M  V30 29873 H 2774.77 -1.36788 3.67146 0
M  V30 29874 H 2776.47 -1.03337 3.87456 0
M  V30 29875 H 2773.06 0.344058 4.27217 0
M  V30 29876 H 2777.24 1.15252 4.82733 0
M  V30 29877 H 2772.5 2.28688 5.6702 0
M  V30 29878 H 2776.67 3.09391 6.23899 0
M  V30 29879 H 2774.3 3.667 6.65909 0
M  V30 29880 N 2775.87 -1.57322 0.0935872 0
M  V30 29881 C 2776.8 -2.09597 -0.902468 0
M  V30 29882 C 2777.78 -1.00617 -1.2773 0
M  V30 29883 O 2778.97 -1.28104 -1.38281 0
M  V30 29884 C 2776.09 -2.5717 -2.20412 0
M  V30 29885 C 2775.14 -3.77793 -1.97925 0
M  V30 29886 S 2775.97 -5.21449 -1.21864 0
M  V30 29887 C 2777.13 -5.72371 -2.53263 0
M  V30 29888 H 2777.36 -2.93755 -0.457745 0
M  V30 29889 H 2774.89 -1.53936 -0.119667 0
M  V30 29890 H 2776.85 -2.85237 -2.95212 0
M  V30 29891 H 2775.51 -1.7324 -2.62005 0
M  V30 29892 H 2774.71 -4.09143 -2.94309 0
M  V30 29893 H 2774.31 -3.50212 -1.31254 0
M  V30 29894 H 2776.6 -5.80546 -3.49246 0
M  V30 29895 H 2777.54 -6.709 -2.26493 0
M  V30 29896 H 2777.95 -5.00296 -2.61466 0
M  V30 29897 N 2777.35 0.180099 -1.56568 0
M  V30 29898 C 2778.31 1.20683 -1.94854 0
M  V30 29899 C 2779.31 1.37648 -0.831237 0
M  V30 29900 O 2780.5 1.35204 -1.09843 0
M  V30 29901 C 2777.63 2.57351 -2.2357 0
M  V30 29902 H 2778.83 0.879174 -2.86724 0
M  V30 29903 H 2776.38 0.42221 -1.50489 0
M  V30 29904 H 2777.12 2.95146 -1.34386 0
M  V30 29905 H 2776.9 2.46405 -3.05003 0
M  V30 29906 H 2778.39 3.31362 -2.54143 0
M  V30 29907 N 2778.83 1.51088 0.448349 0
M  V30 29908 C 2780.05 1.67283 1.22602 0
M  V30 29909 C 2780.48 0.365078 1.84523 0
M  V30 29910 O 2779.84 -0.673612 1.68322 0
M  V30 29911 C 2779.88 2.78233 2.29388 0
M  V30 29912 O 2778.99 2.41069 3.34604 0
M  V30 29913 H 2778.33 0.558136 0.359695 0
M  V30 29914 H 2780.86 1.97593 0.530868 0
M  V30 29915 H 2780.87 3.0199 2.74346 0
M  V30 29916 H 2779.54 3.73134 1.83694 0
M  V30 29917 H 2778.12 2.27843 2.95198 0
M  V30 29918 N 2780.31 -0.703068 1.41049 0
M  V30 29919 C 2781.25 -1.8384 1.42498 0
M  V30 29920 C 2782.25 -1.66651 0.303914 0
M  V30 29921 O 2783.45 -1.73604 0.475575 0
M  V30 29922 H 2779.83 -0.605689 0.445696 0
M  V30 29923 H 2781.8 -1.79734 2.38198 0
M  V30 29924 C 2780.55 -3.21804 1.31671 0
M  V30 29925 H 2779.87 -3.35643 2.17218 0
M  V30 29926 H 2781.31 -4.01344 1.36745 0
M  V30 29927 C 2779.77 -3.36888 0.028242 0
M  V30 29928 O 2780.3 -3.90788 -0.929927 0
M  V30 29929 N 2778.51 -2.90565 -0.0453812 0
M  V30 29930 H 2778.05 -2.46889 0.73509 0
M  V30 29931 H 2778.01 -3.01036 -0.906915 0
M  V30 29932 N 2781.78 -1.26752 -0.936569 0
M  V30 29933 C 2783.2 -1.11412 -1.49814 0
M  V30 29934 C 2783.55 0.303981 -1.93831 0
M  V30 29935 O 2782.67 1.19597 -1.80348 0
M  V30 29936 C 2783.27 -2.01633 -2.72267 0
M  V30 29937 C 2781.83 -1.90425 -3.24677 0
M  V30 29938 C 2780.97 -1.94711 -1.9744 0
M  V30 29939 H 2783.92 -1.39775 -0.75158 0
M  V30 29940 H 2783.94 -1.56694 -3.46738 0
M  V30 29941 H 2783.46 -3.04837 -2.402 0
M  V30 29942 H 2781.56 -0.901738 -3.61524 0
M  V30 29943 H 2781.67 -2.76201 -3.91471 0
M  V30 29944 H 2780.03 -1.38822 -2.13543 0
M  V30 29945 H 2780.82 -2.99553 -1.67698 0
M  V30 29946 N 2783.26 1.1418 -1.08631 0
M  V30 29947 C 2784.49 1.8967 -0.839054 0
M  V30 29948 C 2784.91 1.78163 0.603301 0
M  V30 29949 O 2784.27 1.12342 1.42299 0
M  V30 29950 C 2784.32 3.37548 -1.2686 0
M  V30 29951 O 2783.42 4.10236 -0.421952 0
M  V30 29952 H 2782.76 0.590036 -0.304556 0
M  V30 29953 H 2785.29 1.44515 -1.44833 0
M  V30 29954 H 2785.3 3.88366 -1.25045 0
M  V30 29955 H 2783.98 3.45242 -2.31907 0
M  V30 29956 H 2782.56 3.69482 -0.503719 0
M  V30 29957 N 2784.74 0.872304 1.31258 0
M  V30 29958 C 2785.69 0.327897 2.28459 0
M  V30 29959 C 2786.66 -0.57493 1.55832 0
M  V30 29960 O 2787.84 -0.506069 1.83966 0
M  V30 29961 C 2784.98 -0.462584 3.41986 0
M  V30 29962 C 2784.1 0.468024 4.29457 0
M  V30 29963 C 2783.23 -0.33681 5.30131 0
M  V30 29964 C 2782.27 0.590077 6.09249 0
M  V30 29965 N 2781.41 -0.178651 7.01873 0
M  V30 29966 H 2786.25 1.16198 2.74412 0
M  V30 29967 H 2783.78 0.5844 1.34993 0
M  V30 29968 H 2785.74 -0.936688 4.06549 0
M  V30 29969 H 2784.37 -1.26135 2.97136 0
M  V30 29970 H 2783.42 1.06058 3.65316 0
M  V30 29971 H 2784.74 1.17864 4.84675 0
M  V30 29972 H 2783.89 -0.873322 6.00382 0
M  V30 29973 H 2782.63 -1.08071 4.75575 0
M  V30 29974 H 2781.63 1.13833 5.37887 0
M  V30 29975 H 2782.86 1.33287 6.65891 0
M  V30 29976 H 2780.8 -0.90532 6.49723 0
M  V30 29977 H 2780.72 0.472585 7.54521 0
M  V30 29978 H 2781.99 -0.696318 7.76384 0
M  V30 29979 N 2786.22 -1.44374 0.631976 0
M  V30 29980 C 2787.46 -2.02337 0.137005 0
M  V30 29981 C 2787.8 -1.49604 -1.23824 0
M  V30 29982 O 2787.07 -0.680447 -1.82209 0
M  V30 29983 C 2787.36 -3.59884 0.1246 0
M  V30 29984 C 2787.21 -4.22898 1.53224 0
M  V30 29985 C 2788.53 -4.36645 -0.550404 0
M  V30 29986 H 2785.65 -0.735215 0.0512599 0
M  V30 29987 H 2788.29 -1.71935 0.808612 0
M  V30 29988 H 2786.44 -3.85916 -0.447303 0
M  V30 29989 H 2788.11 -4.0797 2.1531 0
M  V30 29990 H 2786.35 -3.8036 2.08587 0
M  V30 29991 H 2787.02 -5.31912 1.47559 0
M  V30 29992 H 2789.5 -4.16051 -0.0640423 0
M  V30 29993 H 2788.38 -5.46352 -0.528275 0
M  V30 29994 H 2788.64 -4.11314 -1.6209 0
M  V30 29995 N 2787.7 -0.372575 -1.53133 0
M  V30 29996 C 2788.92 0.218062 -2.0625 0
M  V30 29997 C 2789.35 1.41109 -1.24378 0
M  V30 29998 O 2788.7 1.79359 -0.264585 0
M  V30 29999 C 2788.75 0.582814 -3.55859 0
M  V30 30000 O 2787.86 1.6791 -3.7667 0
M  V30 30001 H 2787.2 0.0300924 -0.663318 0
M  V30 30002 H 2789.73 -0.535204 -1.97476 0
M  V30 30003 H 2789.74 0.851855 -3.99008 0
M  V30 30004 H 2788.41 -0.289501 -4.14891 0
M  V30 30005 H 2786.99 1.40507 -3.45416 0
M  V30 30006 N 2789.17 1.5727 -0.101929 0
M  V30 30007 C 2790.4 1.98652 0.567533 0
M  V30 30008 C 2790.81 0.980066 1.61837 0
M  V30 30009 O 2790.16 -0.0376241 1.83661 0
M  V30 30010 C 2790.22 3.3642 1.26736 0
M  V30 30011 C 2789.88 4.55528 0.366481 0
M  V30 30012 C 2790.88 5.18449 -0.388113 0
M  V30 30013 C 2788.56 5.01505 0.28254 0
M  V30 30014 C 2790.56 6.25721 -1.21456 0
M  V30 30015 C 2788.24 6.08642 -0.547549 0
M  V30 30016 C 2789.24 6.70616 -1.29474 0
M  V30 30017 O 2788.93 7.75686 -2.11108 0
M  V30 30018 H 2788.66 0.65769 0.15627 0
M  V30 30019 H 2791.22 2.0461 -0.179948 0
M  V30 30020 H 2789.45 3.27165 2.06156 0
M  V30 30021 H 2791.14 3.62203 1.83203 0
M  V30 30022 H 2791.9 4.83855 -0.333034 0
M  V30 30023 H 2787.78 4.53025 0.853789 0
M  V30 30024 H 2791.32 6.74024 -1.79825 0
M  V30 30025 H 2787.22 6.42667 -0.604084 0
M  V30 30026 H 2787.99 7.92705 -2.03865 0
M  V30 30027 N 2790.65 -0.171793 1.56661 0
M  V30 30028 C 2791.56 -1.23266 1.99606 0
M  V30 30029 C 2792.58 -1.48469 0.907359 0
M  V30 30030 O 2793.75 -1.60627 1.21495 0
M  V30 30031 C 2790.82 -2.5519 2.34689 0
M  V30 30032 C 2789.88 -2.37854 3.57385 0
M  V30 30033 C 2789.11 -3.63487 3.90785 0
M  V30 30034 O 2789.34 -4.68644 3.2516 0
M  V30 30035 O 2788.27 -3.57626 4.84136 0
M  V30 30036 H 2792.1 -0.898141 2.90116 0
M  V30 30037 H 2789.68 -0.378622 1.44523 0
M  V30 30038 H 2791.56 -3.33013 2.58225 0
M  V30 30039 H 2790.24 -2.88222 1.47342 0
M  V30 30040 H 2789.15 -1.58064 3.39067 0
M  V30 30041 H 2790.48 -2.09747 4.45272 0
M  V30 30042 N 2792.13 -1.51324 -0.44033 0
M  V30 30043 C 2793.54 -1.56355 -1.0203 0
M  V30 30044 C 2793.89 -0.385231 -1.92381 0
M  V30 30045 O 2793.02 0.498336 -2.10584 0
M  V30 30046 C 2793.61 -2.83363 -1.85718 0
M  V30 30047 C 2792.17 -2.90975 -2.38769 0
M  V30 30048 C 2791.32 -2.50986 -1.17904 0
M  V30 30049 H 2794.27 -1.57144 -0.221716 0
M  V30 30050 H 2794.29 -2.66956 -2.71136 0
M  V30 30051 H 2793.8 -3.69104 -1.19932 0
M  V30 30052 H 2791.9 -2.09656 -3.08018 0
M  V30 30053 H 2792.02 -3.9456 -2.71771 0
M  V30 30054 H 2790.38 -2.04116 -1.52344 0
M  V30 30055 H 2791.16 -3.39069 -0.537334 0
M  V30 30056 N 2793.61 0.695578 -1.41419 0
M  V30 30057 C 2794.86 1.45127 -1.40075 0
M  V30 30058 C 2795.17 1.95596 -0.0130782 0
M  V30 30059 O 2796.38 2.71221 0.122985 0
M  V30 30060 C 2794.83 2.62429 -2.46291 0
M  V30 30061 C 2794.44 2.18746 -3.90965 0
M  V30 30062 C 2796.18 3.40062 -2.54083 0
M  V30 30063 C 2794.09 3.33006 -4.88734 0
M  V30 30064 H 2793.02 0.545129 -0.520913 0
M  V30 30065 H 2795.67 0.755121 -1.67243 0
M  V30 30066 H 2794.05 3.34312 -2.12254 0
M  V30 30067 H 2795.23 1.54153 -4.3425 0
M  V30 30068 H 2793.54 1.54107 -3.86833 0
M  V30 30069 H 2796.14 4.2512 -3.2431 0
M  V30 30070 H 2796.48 3.85247 -1.57766 0
M  V30 30071 H 2797.02 2.75236 -2.87211 0
M  V30 30072 H 2793.76 2.92833 -5.86455 0
M  V30 30073 H 2793.28 3.9645 -4.50098 0
M  V30 30074 H 2794.95 3.98784 -5.0949 0
M  V30 30075 N 2795.09 1.27247 0.929833 0
M  V30 30076 C 2796.32 1.16268 1.71142 0
M  V30 30077 C 2796.73 -0.280753 1.86701 0
M  V30 30078 O 2796.09 -1.19134 1.38251 0
M  V30 30079 C 2796.14 1.83916 3.11219 0
M  V30 30080 O 2795.86 3.22619 2.96392 0
M  V30 30081 C 2797.36 1.79035 4.05538 0
M  V30 30082 H 2794.58 0.404338 0.535492 0
M  V30 30083 H 2797.12 1.68079 1.16489 0
M  V30 30084 H 2795.28 1.36015 3.62738 0
M  V30 30085 H 2795.69 3.56268 3.84933 0
M  V30 30086 H 2797.17 2.30987 5.01347 0
M  V30 30087 H 2797.64 0.759244 4.32588 0
M  V30 30088 H 2798.25 2.26541 3.59943 0
M  V30 30089 N 2796.57 -1.13603 1.09235 0
M  V30 30090 C 2797.79 -1.88681 0.848941 0
M  V30 30091 C 2798.21 -1.79025 -0.599635 0
M  V30 30092 O 2797.57 -1.15547 -1.41263 0
M  V30 30093 C 2797.62 -3.38352 1.27279 0
M  V30 30094 O 2797.34 -3.47755 2.66455 0
M  V30 30095 C 2798.84 -4.30404 1.06148 0
M  V30 30096 H 2796.06 -0.597389 0.30556 0
M  V30 30097 H 2798.6 -1.4382 1.45382 0
M  V30 30098 H 2796.76 -3.80804 0.711843 0
M  V30 30099 H 2797.17 -4.40783 2.84272 0
M  V30 30100 H 2798.65 -5.33758 1.40734 0
M  V30 30101 H 2799.12 -4.392 -0.000883131 0
M  V30 30102 H 2799.73 -3.93719 1.60828 0
M  V30 30103 N 2798.04 -0.879253 -1.30793 0
M  V30 30104 C 2799.27 -0.509584 -2.00526 0
M  V30 30105 C 2799.69 0.900421 -1.65945 0
M  V30 30106 O 2799.04 1.59129 -0.893553 0
M  V30 30107 C 2799.09 -0.668005 -3.55274 0
M  V30 30108 O 2798.82 -2.02249 -3.88622 0
M  V30 30109 C 2800.32 -0.300572 -4.4228 0
M  V30 30110 H 2797.54 -0.19756 -0.641257 0
M  V30 30111 H 2800.08 -1.18298 -1.66811 0
M  V30 30112 H 2798.24 -0.0420524 -3.87377 0
M  V30 30113 H 2798.65 -2.03697 -4.8333 0
M  V30 30114 H 2800.12 -0.462339 -5.5006 0
M  V30 30115 H 2800.6 0.760984 -4.32557 0
M  V30 30116 H 2801.21 -0.902609 -4.15612 0
M  V30 30117 N 2799.52 1.44037 -0.639624 0
M  V30 30118 C 2800.45 2.33453 0.0469033 0
M  V30 30119 C 2801.43 1.48695 0.826064 0
M  V30 30120 O 2802.62 1.77394 0.790254 0
M  V30 30121 C 2799.75 3.31882 1.02332 0
M  V30 30122 C 2798.7 4.26523 0.355209 0
M  V30 30123 C 2798.03 5.14885 1.44212 0
M  V30 30124 C 2799.33 5.16975 -0.743889 0
M  V30 30125 H 2801.02 2.91107 -0.699786 0
M  V30 30126 H 2798.57 1.39978 -0.33797 0
M  V30 30127 H 2800.52 3.93325 1.5124 0
M  V30 30128 H 2799.24 2.72455 1.801 0
M  V30 30129 H 2797.9 3.66425 -0.113304 0
M  V30 30130 H 2797.55 4.51806 2.21089 0
M  V30 30131 H 2797.25 5.79021 1.00042 0
M  V30 30132 H 2798.78 5.79201 1.93284 0
M  V30 30133 H 2800.19 5.72305 -0.337545 0
M  V30 30134 H 2798.59 5.89759 -1.10924 0
M  V30 30135 H 2799.66 4.57478 -1.60753 0
M  V30 30136 N 2801 0.380691 1.52933 0
M  V30 30137 C 2801.95 -0.458601 2.26198 0
M  V30 30138 C 2802.92 -1.065 1.27464 0
M  V30 30139 O 2804.1 -1.09464 1.56276 0
M  V30 30140 C 2801.24 -1.58451 3.06574 0
M  V30 30141 C 2800.35 -1.00181 4.20223 0
M  V30 30142 C 2799.49 -2.09807 4.88011 0
M  V30 30143 C 2798.53 -1.49082 5.93668 0
M  V30 30144 N 2797.67 -2.52602 6.55085 0
M  V30 30145 H 2802.51 0.172648 2.97499 0
M  V30 30146 H 2800.04 0.0969684 1.4678 0
M  V30 30147 H 2802 -2.24794 3.51459 0
M  V30 30148 H 2800.63 -2.1862 2.37498 0
M  V30 30149 H 2799.68 -0.228225 3.79715 0
M  V30 30150 H 2800.99 -0.517977 4.96103 0
M  V30 30151 H 2800.15 -2.83939 5.36156 0
M  V30 30152 H 2798.89 -2.61547 4.11636 0
M  V30 30153 H 2797.89 -0.734704 5.44869 0
M  V30 30154 H 2799.12 -0.981464 6.7197 0
M  V30 30155 H 2797.06 -3.03528 5.81556 0
M  V30 30156 H 2796.98 -2.08948 7.26551 0
M  V30 30157 H 2798.25 -3.2639 7.07877 0
M  V30 30158 N 2802.48 -1.57214 0.110268 0
M  V30 30159 C 2803.89 -1.57687 -0.246352 0
M  V30 30160 C 2804.09 -1.12244 -1.67343 0
M  V30 30161 O 2803.15 -0.805825 -2.39296 0
M  V30 30162 C 2804.46 -3.00693 -0.020976 0
M  V30 30163 C 2806.01 -3.12878 -0.0875527 0
M  V30 30164 C 2806.49 -4.57868 0.11002 0
M  V30 30165 N 2807.98 -4.63167 0.0556949 0
M  V30 30166 C 2808.71 -5.73106 0.183596 0
M  V30 30167 N 2808.21 -6.91826 0.36718 0
M  V30 30168 N 2810 -5.61964 0.123788 0
M  V30 30169 H 2802.15 -1.85057 1.04249 0
M  V30 30170 H 2804.41 -0.854847 0.409805 0
M  V30 30171 H 2804.12 -3.38195 0.965263 0
M  V30 30172 H 2803.99 -3.69532 -0.756683 0
M  V30 30173 H 2806.38 -2.75239 -1.06431 0
M  V30 30174 H 2806.46 -2.46599 0.679893 0
M  V30 30175 H 2806.11 -4.96204 1.08371 0
M  V30 30176 H 2806.04 -5.22226 -0.677305 0
M  V30 30177 H 2808.53 -3.77809 -0.0830398 0
M  V30 30178 H 2808.84 -7.71454 0.455874 0
M  V30 30179 H 2807.19 -6.9383 0.403042 0
M  V30 30180 H 2810.38 -4.68096 -0.0186105 0
M  V30 30181 H 2810.55 -6.47603 0.226911 0
M  V30 30182 N 2803.96 0.163482 -1.5675 0
M  V30 30183 C 2804.9 1.20227 -1.97013 0
M  V30 30184 C 2805.87 1.43574 -0.835211 0
M  V30 30185 O 2807.06 1.56183 -1.09596 0
M  V30 30186 C 2804.2 2.53474 -2.3419 0
M  V30 30187 C 2803.31 2.37439 -3.60897 0
M  V30 30188 C 2802.45 3.63607 -3.87251 0
M  V30 30189 C 2801.48 3.42539 -5.0728 0
M  V30 30190 N 2800.62 4.60796 -5.29728 0
M  V30 30191 H 2805.46 0.851908 -2.85564 0
M  V30 30192 H 2803 0.409232 -1.41293 0
M  V30 30193 H 2804.96 3.31145 -2.53769 0
M  V30 30194 H 2803.59 2.86489 -1.48741 0
M  V30 30195 H 2802.64 1.50905 -3.49187 0
M  V30 30196 H 2803.95 2.17823 -4.48726 0
M  V30 30197 H 2803.1 4.49712 -4.0724 0
M  V30 30198 H 2801.84 3.86211 -2.97812 0
M  V30 30199 H 2800.85 2.54822 -4.87182 0
M  V30 30200 H 2802.07 3.2135 -5.98257 0
M  V30 30201 H 2800.02 4.83604 -4.43241 0
M  V30 30202 H 2799.94 4.44122 -6.11794 0
M  V30 30203 H 2801.2 5.48162 -5.54201 0
M  V30 30204 N 2805.43 1.51555 0.432299 0
M  V30 30205 C 2806.37 1.69433 1.54354 0
M  V30 30206 C 2807.38 0.574924 1.5231 0
M  V30 30207 O 2808.57 0.849397 1.56995 0
M  V30 30208 C 2805.67 1.69842 2.9327 0
M  V30 30209 C 2804.84 2.98447 3.19762 0
M  V30 30210 C 2803.9 2.90977 4.38428 0
M  V30 30211 O 2802.93 3.64915 4.36836 0
M  V30 30212 N 2804.13 2.07173 5.42273 0
M  V30 30213 H 2806.89 2.65296 1.39421 0
M  V30 30214 H 2804.45 1.49504 0.621305 0
M  V30 30215 H 2806.45 1.62405 3.70684 0
M  V30 30216 H 2805.02 0.81551 3.01775 0
M  V30 30217 H 2804.24 3.19713 2.30602 0
M  V30 30218 H 2805.52 3.83569 3.34293 0
M  V30 30219 H 2804.92 1.46487 5.46405 0
M  V30 30220 H 2803.48 2.05612 6.1852 0
M  V30 30221 N 2806.91 -0.688069 1.41786 0
M  V30 30222 C 2807.82 -1.83155 1.46599 0
M  V30 30223 C 2808.84 -1.70321 0.355892 0
M  V30 30224 O 2810.01 -1.92105 0.60477 0
M  V30 30225 C 2807.08 -3.19198 1.35327 0
M  V30 30226 C 2806.14 -3.44086 2.56717 0
M  V30 30227 C 2805.37 -4.73638 2.45973 0
M  V30 30228 O 2805.6 -5.50639 1.48837 0
M  V30 30229 O 2804.53 -4.99476 3.35868 0
M  V30 30230 H 2808.36 -1.82051 2.43086 0
M  V30 30231 H 2805.94 -0.842104 1.23406 0
M  V30 30232 H 2807.82 -4.00405 1.31354 0
M  V30 30233 H 2806.5 -3.20969 0.419592 0
M  V30 30234 H 2805.4 -2.62779 2.66266 0
M  V30 30235 H 2806.74 -3.47135 3.48939 0
M  V30 30236 N 2808.39 -1.27739 -0.923072 0
M  V30 30237 C 2809.3 -1.12688 -2.05763 0
M  V30 30238 C 2810.32 -0.0557503 -1.73911 0
M  V30 30239 O 2811.49 -0.263172 -1.99673 0
M  V30 30240 C 2808.56 -0.780422 -3.37802 0
M  V30 30241 C 2807.62 -1.93293 -3.83323 0
M  V30 30242 C 2806.85 -1.6029 -5.09061 0
M  V30 30243 O 2807.07 -0.512928 -5.68089 0
M  V30 30244 O 2806.01 -2.44357 -5.50067 0
M  V30 30245 H 2809.83 -2.07911 -2.21375 0
M  V30 30246 H 2807.42 -1.06969 -1.04297 0
M  V30 30247 H 2809.3 -0.600742 -4.17096 0
M  V30 30248 H 2807.98 0.142234 -3.23387 0
M  V30 30249 H 2806.88 -2.1677 -3.04896 0
M  V30 30250 H 2808.22 -2.83595 -4.02287 0
M  V30 30251 N 2809.87 1.13022 -1.09836 0
M  V30 30252 C 2811.11 1.84666 -0.838222 0
M  V30 30253 C 2811.45 1.83538 0.634613 0
M  V30 30254 O 2810.72 1.27649 1.46751 0
M  V30 30255 C 2811.01 3.32633 -1.37938 0
M  V30 30256 C 2810.86 3.42251 -2.91863 0
M  V30 30257 C 2812.18 4.28197 -1.01662 0
M  V30 30258 H 2809.3 0.67049 -0.305962 0
M  V30 30259 H 2811.94 1.32633 -1.36046 0
M  V30 30260 H 2810.09 3.77077 -0.935177 0
M  V30 30261 H 2811.76 3.06489 -3.44764 0
M  V30 30262 H 2810 2.82994 -3.28781 0
M  V30 30263 H 2810.67 4.46323 -3.24807 0
M  V30 30264 H 2813.15 3.91848 -1.3998 0
M  V30 30265 H 2812.03 5.30154 -1.42226 0
M  V30 30266 H 2812.29 4.42037 0.0747017 0
M  V30 30267 N 2811.35 0.886177 1.30325 0
M  V30 30268 C 2812.57 0.51946 2.00789 0
M  V30 30269 C 2813 -0.884984 1.65981 0
M  V30 30270 O 2812.35 -1.58673 0.877071 0
M  V30 30271 C 2812.4 0.70282 3.53685 0
M  V30 30272 O 2811.51 -0.250756 4.11637 0
M  V30 30273 H 2810.85 0.204555 0.631707 0
M  V30 30274 H 2813.38 1.19405 1.66143 0
M  V30 30275 H 2813.39 0.602278 4.0353 0
M  V30 30276 H 2812.06 1.7268 3.78357 0
M  V30 30277 H 2810.64 -0.103807 3.72755 0
M  V30 30278 N 2812.82 -1.43695 0.647253 0
M  V30 30279 C 2813.79 -2.29168 -0.0384698 0
M  V30 30280 C 2814.79 -1.41895 -0.756462 0
M  V30 30281 O 2815.98 -1.63592 -0.598613 0
M  V30 30282 C 2813.11 -3.23831 -1.06519 0
M  V30 30283 H 2814.3 -2.91289 0.713496 0
M  V30 30284 H 2811.86 -1.50876 0.40818 0
M  V30 30285 H 2812.59 -2.66593 -1.84659 0
M  V30 30286 H 2812.38 -3.88165 -0.554079 0
M  V30 30287 H 2813.87 -3.87998 -1.54425 0
M  V30 30288 N 2814.3 -0.388796 -1.52729 0
M  V30 30289 C 2815.27 0.434505 -2.25044 0
M  V30 30290 C 2816.27 0.990622 -1.26662 0
M  V30 30291 O 2817.46 0.872704 -1.50763 0
M  V30 30292 C 2814.59 1.60956 -3.00509 0
M  V30 30293 H 2815.78 -0.198602 -2.99242 0
M  V30 30294 H 2813.33 -0.140902 -1.55664 0
M  V30 30295 H 2814.07 2.28011 -2.30611 0
M  V30 30296 H 2813.85 1.21751 -3.72719 0
M  V30 30297 H 2815.34 2.19245 -3.55417 0
M  V30 30298 N 2815.78 1.57153 -0.118604 0
M  V30 30299 C 2817.03 1.94356 0.539304 0
M  V30 30300 C 2817.34 1.00418 1.67856 0
M  V30 30301 O 2818.55 1.27085 2.3992 0
M  V30 30302 C 2817 3.45415 1.01075 0
M  V30 30303 C 2816.61 4.47888 -0.100019 0
M  V30 30304 C 2818.36 3.91538 1.64006 0
M  V30 30305 C 2816.26 5.90125 0.388108 0
M  V30 30306 H 2815.19 0.725531 0.205234 0
M  V30 30307 H 2817.84 1.82424 -0.198392 0
M  V30 30308 H 2816.23 3.5258 1.80286 0
M  V30 30309 H 2817.4 4.52392 -0.876268 0
M  V30 30310 H 2815.72 4.11515 -0.635957 0
M  V30 30311 H 2818.31 4.95223 2.0164 0
M  V30 30312 H 2818.66 3.31492 2.51831 0
M  V30 30313 H 2819.19 3.87172 0.913371 0
M  V30 30314 H 2815.93 6.53925 -0.454078 0
M  V30 30315 H 2815.45 5.89043 1.13085 0
M  V30 30316 H 2817.13 6.41399 0.849462 0
M  V30 30317 N 2817.26 -0.155167 1.56834 0
M  V30 30318 C 2818.51 -0.867535 1.8209 0
M  V30 30319 C 2818.82 -1.82702 0.698522 0
M  V30 30320 O 2820.03 -2.58294 0.836453 0
M  V30 30321 C 2818.48 -1.59331 3.2271 0
M  V30 30322 C 2818.09 -0.676641 4.42861 0
M  V30 30323 C 2819.83 -2.29294 3.57246 0
M  V30 30324 C 2817.74 -1.40357 5.74503 0
M  V30 30325 H 2816.67 -0.327703 0.679063 0
M  V30 30326 H 2819.32 -0.120319 1.83105 0
M  V30 30327 H 2817.7 -2.38586 3.16058 0
M  V30 30328 H 2818.88 0.0801006 4.6073 0
M  V30 30329 H 2817.19 -0.0858397 4.16312 0
M  V30 30330 H 2819.79 -2.84304 4.52852 0
M  V30 30331 H 2820.13 -3.05401 2.82906 0
M  V30 30332 H 2820.67 -1.56966 3.65522 0
M  V30 30333 H 2817.41 -0.684509 6.51916 0
M  V30 30334 H 2816.93 -2.13323 5.60583 0
M  V30 30335 H 2818.6 -1.9467 6.17019 0
M  V30 30336 N 2818.74 -1.51782 -0.424256 0
M  V30 30337 C 2819.67 -1.70249 -1.53454 0
M  V30 30338 C 2820.68 -0.582993 -1.52003 0
M  V30 30339 O 2821.87 -0.857711 -1.56543 0
M  V30 30340 C 2818.97 -1.71394 -2.92365 0
M  V30 30341 C 2818.14 -3.00139 -3.18175 0
M  V30 30342 C 2817.2 -2.93298 -4.36879 0
M  V30 30343 O 2816.23 -3.67227 -4.34894 0
M  V30 30344 N 2817.43 -2.10046 -5.41166 0
M  V30 30345 H 2820.2 -2.66031 -1.38012 0
M  V30 30346 H 2817.76 -1.49831 -0.613368 0
M  V30 30347 H 2819.75 -1.64369 -3.69818 0
M  V30 30348 H 2818.32 -0.831502 -3.01338 0
M  V30 30349 H 2817.54 -3.20932 -2.28903 0
M  V30 30350 H 2818.83 -3.85337 -3.32254 0
M  V30 30351 H 2818.22 -1.49383 -5.4562 0
M  V30 30352 H 2816.78 -2.08889 -6.17421 0
M  V30 30353 N 2820.21 0.68054 -1.42149 0
M  V30 30354 C 2821.63 0.992973 -1.24949 0
M  V30 30355 C 2821.83 2.00944 -0.149562 0
M  V30 30356 O 2820.89 2.47874 0.481101 0
M  V30 30357 C 2822.2 1.50325 -2.60428 0
M  V30 30358 C 2823.75 1.62132 -2.67735 0
M  V30 30359 C 2824.22 2.16558 -4.03568 0
M  V30 30360 N 2825.71 2.23898 -4.05492 0
M  V30 30361 C 2826.45 2.67072 -5.07405 0
M  V30 30362 N 2825.94 3.0974 -6.19704 0
M  V30 30363 N 2827.74 2.6677 -4.94763 0
M  V30 30364 H 2819.89 0.00744146 -2.12399 0
M  V30 30365 H 2822.15 0.0658363 -0.945711 0
M  V30 30366 H 2821.86 0.830887 -3.41744 0
M  V30 30367 H 2821.73 2.48295 -2.83953 0
M  V30 30368 H 2824.12 2.28476 -1.86769 0
M  V30 30369 H 2824.2 0.62667 -2.48005 0
M  V30 30370 H 2823.84 1.50824 -4.84989 0
M  V30 30371 H 2823.77 3.16803 -4.20646 0
M  V30 30372 H 2826.26 1.93807 -3.24419 0
M  V30 30373 H 2826.58 3.41353 -6.93324 0
M  V30 30374 H 2824.92 3.07612 -6.23218 0
M  V30 30375 H 2828.11 2.32794 -4.06109 0
M  V30 30376 H 2828.29 3.00097 -5.74322 0
M  V30 30377 N 2821.69 1.28226 0.916285 0
M  V30 30378 C 2822.64 1.1179 2.03975 0
M  V30 30379 C 2823.63 0.0378563 1.69358 0
M  V30 30380 O 2824.84 0.196436 1.78925 0
M  V30 30381 H 2821.22 0.34482 0.668284 0
M  V30 30382 H 2823.19 2.06943 2.14981 0
M  V30 30383 C 2821.94 0.79386 3.38516 0
M  V30 30384 H 2821.26 1.61689 3.65646 0
M  V30 30385 H 2822.7 0.718792 4.17863 0
M  V30 30386 C 2821.16 -0.502294 3.33135 0
M  V30 30387 O 2821.69 -1.53335 3.71283 0
M  V30 30388 N 2819.89 -0.502097 2.8623 0
M  V30 30389 H 2819.44 0.337383 2.55381 0
M  V30 30390 H 2819.4 -1.36937 2.83012 0
M  V30 30391 N 2823.17 -1.12438 1.10433 0
M  V30 30392 C 2824.42 -1.83947 0.84675 0
M  V30 30393 C 2824.75 -1.84094 -0.627677 0
M  V30 30394 O 2824 -1.28186 -1.47874 0
M  V30 30395 C 2824.3 -3.31318 1.34028 0
M  V30 30396 C 2823.97 -3.51342 2.82612 0
M  V30 30397 C 2822.63 -3.56515 3.23188 0
M  V30 30398 C 2824.98 -3.58457 3.78362 0
M  V30 30399 C 2822.31 -3.66348 4.58264 0
M  V30 30400 C 2824.66 -3.6982 5.13241 0
M  V30 30401 C 2823.32 -3.7325 5.5339 0
M  V30 30402 H 2822.59 -0.673109 0.309848 0
M  V30 30403 H 2825.24 -1.32675 1.38093 0
M  V30 30404 H 2823.55 -3.85013 0.726114 0
M  V30 30405 H 2825.24 -3.85116 1.11745 0
M  V30 30406 H 2821.83 -3.47978 2.50218 0
M  V30 30407 H 2826.02 -3.53731 3.48121 0
M  V30 30408 H 2821.27 -3.67275 4.88793 0
M  V30 30409 H 2825.45 -3.74269 5.87278 0
M  V30 30410 H 2823.07 -3.80621 6.58051 0
M  V30 30411 N 2824.65 -0.893076 -1.29853 0
M  V30 30412 C 2826.07 -0.588225 -1.48365 0
M  V30 30413 C 2826.27 0.871986 -1.81655 0
M  V30 30414 O 2825.32 1.65265 -1.90903 0
M  V30 30415 C 2826.63 -1.50835 -2.60133 0
M  V30 30416 C 2828.18 -1.51284 -2.74011 0
M  V30 30417 C 2828.66 -2.41909 -3.88901 0
M  V30 30418 N 2830.15 -2.39918 -3.96224 0
M  V30 30419 C 2830.88 -3.06747 -4.84452 0
M  V30 30420 N 2830.38 -3.8283 -5.77419 0
M  V30 30421 N 2832.17 -2.95938 -4.77888 0
M  V30 30422 H 2824.32 -1.83759 -1.06519 0
M  V30 30423 H 2826.59 -0.787027 -0.528481 0
M  V30 30424 H 2826.29 -2.54844 -2.42379 0
M  V30 30425 H 2826.17 -1.22394 -3.56791 0
M  V30 30426 H 2828.55 -0.48023 -2.91166 0
M  V30 30427 H 2828.63 -1.8376 -1.77949 0
M  V30 30428 H 2828.28 -3.4526 -3.72502 0
M  V30 30429 H 2828.21 -2.06746 -4.84318 0
M  V30 30430 H 2830.7 -1.84634 -3.29725 0
M  V30 30431 H 2831.01 -4.30894 -6.41522 0
M  V30 30432 H 2829.36 -3.86938 -5.77325 0
M  V30 30433 H 2832.55 -2.36019 -4.04244 0
M  V30 30434 H 2832.72 -3.48296 -5.46438 0
M  V30 30435 N 2826.13 1.4335 -0.654865 0
M  V30 30436 C 2827.37 2.0367 -0.172549 0
M  V30 30437 C 2827.73 1.50556 1.19151 0
M  V30 30438 O 2828.93 2.02531 1.76733 0
M  V30 30439 C 2827.2 3.56926 -0.184044 0
M  V30 30440 S 2828.76 4.38196 0.230185 0
M  V30 30441 H 2825.58 0.707267 -0.0727628 0
M  V30 30442 H 2828.18 1.75393 -0.863568 0
M  V30 30443 H 2826.89 3.93085 -1.17952 0
M  V30 30444 H 2826.42 3.89848 0.527459 0
M  V30 30445 H 2828.43 4.73967 1.46866 0
M  V30 30446 N 2827.61 0.39689 1.52521 0
M  V30 30447 C 2828.84 -0.182449 2.05793 0
M  V30 30448 C 2829.24 -1.40434 1.26787 0
M  V30 30449 O 2828.59 -1.81071 0.309649 0
M  V30 30450 C 2828.65 -0.609718 3.54292 0
M  V30 30451 C 2828.31 0.499754 4.54259 0
M  V30 30452 C 2829.31 1.35953 5.01809 0
M  V30 30453 C 2826.99 0.668951 4.97826 0
M  V30 30454 C 2828.99 2.37356 5.91558 0
M  V30 30455 C 2826.68 1.68631 5.87373 0
M  V30 30456 C 2827.67 2.53703 6.34132 0
M  V30 30457 O 2827.36 3.53699 7.21909 0
M  V30 30458 H 2827.09 -0.0293465 0.675363 0
M  V30 30459 H 2829.65 0.562845 1.97538 0
M  V30 30460 H 2827.88 -1.40711 3.60191 0
M  V30 30461 H 2829.57 -1.11558 3.90269 0
M  V30 30462 H 2830.33 1.24016 4.68876 0
M  V30 30463 H 2826.21 0.0164781 4.60997 0
M  V30 30464 H 2829.76 3.03793 6.27977 0
M  V30 30465 H 2825.65 1.80604 6.1972 0
M  V30 30466 H 2826.42 3.49797 7.39989 0
M  V30 30467 N 2829.08 -1.57088 0.126936 0
M  V30 30468 C 2830.01 -2.18748 -0.816808 0
M  V30 30469 C 2830.99 -1.12981 -1.27159 0
M  V30 30470 O 2832.18 -1.41248 -1.33277 0
M  V30 30471 C 2829.31 -2.79319 -2.06393 0
M  V30 30472 C 2828.26 -3.90738 -1.74666 0
M  V30 30473 C 2827.59 -4.38153 -3.06474 0
M  V30 30474 C 2828.89 -5.12465 -1.00881 0
M  V30 30475 H 2830.58 -2.97863 -0.30298 0
M  V30 30476 H 2828.13 -1.43275 -0.144289 0
M  V30 30477 H 2830.08 -3.21115 -2.72879 0
M  V30 30478 H 2828.81 -1.97505 -2.60114 0
M  V30 30479 H 2827.47 -3.49529 -1.10566 0
M  V30 30480 H 2827.11 -3.53187 -3.58145 0
M  V30 30481 H 2826.81 -5.13292 -2.86016 0
M  V30 30482 H 2828.34 -4.82605 -3.74065 0
M  V30 30483 H 2829.75 -5.51231 -1.57536 0
M  V30 30484 H 2828.15 -5.93238 -0.904902 0
M  V30 30485 H 2829.22 -4.849 0.00305858 0
M  V30 30486 N 2830.56 0.146848 -1.56914 0
M  V30 30487 C 2831.49 1.18306 -2.0131 0
M  V30 30488 C 2832.47 1.44793 -0.89269 0
M  V30 30489 O 2833.66 1.55711 -1.16051 0
M  V30 30490 C 2830.79 2.5162 -2.39384 0
M  V30 30491 C 2829.74 2.39654 -3.54612 0
M  V30 30492 C 2829.07 3.77679 -3.785 0
M  V30 30493 C 2830.37 1.8805 -4.87273 0
M  V30 30494 H 2832.06 0.813913 -2.88125 0
M  V30 30495 H 2829.61 0.390075 -1.38616 0
M  V30 30496 H 2831.56 3.24336 -2.69043 0
M  V30 30497 H 2830.28 2.90371 -1.49507 0
M  V30 30498 H 2828.94 1.6939 -3.25119 0
M  V30 30499 H 2828.59 4.13866 -2.85874 0
M  V30 30500 H 2828.29 3.70535 -4.56046 0
M  V30 30501 H 2829.82 4.51944 -4.10584 0
M  V30 30502 H 2831.23 2.50559 -5.15648 0
M  V30 30503 H 2829.63 1.91795 -5.68625 0
M  V30 30504 H 2830.7 0.836193 -4.77636 0
M  V30 30505 N 2832.04 1.52005 0.4162 0
M  V30 30506 C 2832.99 1.74841 1.50663 0
M  V30 30507 C 2833.96 0.590626 1.55244 0
M  V30 30508 O 2835.14 0.827405 1.71926 0
M  V30 30509 C 2832.28 1.89856 2.88182 0
M  V30 30510 C 2831.39 3.17483 2.92965 0
M  V30 30511 C 2830.53 3.2297 4.21739 0
M  V30 30512 C 2829.57 4.44827 4.2047 0
M  V30 30513 N 2828.71 4.47746 5.40803 0
M  V30 30514 H 2833.55 2.6791 1.30493 0
M  V30 30515 H 2831.08 1.32758 0.633544 0
M  V30 30516 H 2833.04 1.96544 3.68003 0
M  V30 30517 H 2831.67 1.00174 3.06863 0
M  V30 30518 H 2830.72 3.20001 2.05678 0
M  V30 30519 H 2832.03 4.07333 2.87891 0
M  V30 30520 H 2831.19 3.28691 5.09948 0
M  V30 30521 H 2829.93 2.31046 4.29499 0
M  V30 30522 H 2828.93 4.3926 3.30652 0
M  V30 30523 H 2830.16 5.38039 4.14356 0
M  V30 30524 H 2828.1 3.58702 5.49244 0
M  V30 30525 H 2828.02 5.31432 5.37695 0
M  V30 30526 H 2829.29 4.57687 6.30985 0
M  V30 30527 N 2833.52 -0.672992 1.42508 0
M  V30 30528 C 2834.45 -1.79852 1.42078 0
M  V30 30529 C 2835.46 -1.59632 0.319597 0
M  V30 30530 O 2836.65 -1.68718 0.582799 0
M  V30 30531 C 2833.75 -3.16984 1.19892 0
M  V30 30532 C 2832.92 -3.64037 2.42478 0
M  V30 30533 C 2831.98 -4.79909 2.1581 0
M  V30 30534 O 2831.01 -4.90361 2.89024 0
M  V30 30535 N 2832.21 -5.68744 1.16235 0
M  V30 30536 H 2834.98 -1.80706 2.39093 0
M  V30 30537 H 2832.54 -0.856147 1.37411 0
M  V30 30538 H 2834.53 -3.92159 0.99966 0
M  V30 30539 H 2833.1 -3.1102 0.313933 0
M  V30 30540 H 2832.32 -2.79521 2.77959 0
M  V30 30541 H 2833.61 -3.92217 3.24104 0
M  V30 30542 H 2833.01 -5.62953 0.556855 0
M  V30 30543 H 2831.56 -6.43723 1.02296 0
M  V30 30544 N 2835 -1.2871 -0.909472 0
M  V30 30545 C 2836.41 -1.0651 -1.1886 0
M  V30 30546 C 2836.61 0.189828 -2.00604 0
M  V30 30547 O 2835.67 0.890314 -2.36283 0
M  V30 30548 C 2836.98 -2.31503 -1.91903 0
M  V30 30549 C 2838.53 -2.36725 -2.04769 0
M  V30 30550 C 2839 -3.61495 -2.81221 0
M  V30 30551 N 2840.49 -3.6216 -2.88781 0
M  V30 30552 C 2841.23 -4.55381 -3.48447 0
M  V30 30553 N 2840.73 -5.58925 -4.09359 0
M  V30 30554 N 2842.52 -4.42969 -3.46027 0
M  V30 30555 H 2834.67 -2.09261 -0.363831 0
M  V30 30556 H 2836.93 -0.921245 -0.223633 0
M  V30 30557 H 2836.64 -3.2295 -1.39269 0
M  V30 30558 H 2836.51 -2.3825 -2.92432 0
M  V30 30559 H 2838.9 -1.45771 -2.56583 0
M  V30 30560 H 2838.98 -2.33969 -1.03404 0
M  V30 30561 H 2838.62 -4.52794 -2.30086 0
M  V30 30562 H 2838.55 -3.61506 -3.82911 0
M  V30 30563 H 2841.05 -2.87287 -2.45508 0
M  V30 30564 H 2841.36 -6.26195 -4.5288 0
M  V30 30565 H 2839.7 -5.62746 -4.0785 0
M  V30 30566 H 2842.89 -3.61275 -2.97654 0
M  V30 30567 H 2843.07 -5.15806 -3.92235 0
M  V30 30568 N 2836.47 1.1185 -1.11028 0
M  V30 30569 C 2837.4 2.19843 -0.786851 0
M  V30 30570 C 2838.38 1.68357 0.242905 0
M  V30 30571 O 2839.57 1.93903 0.107321 0
M  V30 30572 C 2836.7 3.46573 -0.224577 0
M  V30 30573 C 2835.65 4.11248 -1.18572 0
M  V30 30574 C 2834.98 5.32502 -0.484355 0
M  V30 30575 C 2836.28 4.56671 -2.53473 0
M  V30 30576 H 2837.97 2.47155 -1.68982 0
M  V30 30577 H 2835.52 1.18791 -0.813927 0
M  V30 30578 H 2837.47 4.21398 0.0138694 0
M  V30 30579 H 2836.2 3.18707 0.713666 0
M  V30 30580 H 2834.86 3.38412 -1.40972 0
M  V30 30581 H 2834.5 5.00905 0.458558 0
M  V30 30582 H 2834.2 5.76723 -1.12536 0
M  V30 30583 H 2835.73 6.10069 -0.2546 0
M  V30 30584 H 2837.14 5.22839 -2.35186 0
M  V30 30585 H 2835.54 5.11691 -3.13516 0
M  V30 30586 H 2836.61 3.70338 -3.13014 0
M  V30 30587 N 2837.95 0.89995 1.29378 0
M  V30 30588 C 2838.9 0.376283 2.27712 0
M  V30 30589 C 2839.87 -0.541746 1.57017 0
M  V30 30590 O 2841.05 -0.466933 1.84998 0
M  V30 30591 C 2838.19 -0.389939 3.4289 0
M  V30 30592 C 2837.31 0.559013 4.28368 0
M  V30 30593 C 2836.44 -0.224285 5.30726 0
M  V30 30594 C 2835.48 0.719175 6.0786 0
M  V30 30595 N 2834.62 -0.0297335 7.02094 0
M  V30 30596 H 2839.46 1.21993 2.71886 0
M  V30 30597 H 2836.99 0.612903 1.33723 0
M  V30 30598 H 2838.95 -0.850242 4.08444 0
M  V30 30599 H 2837.58 -1.19804 2.99745 0
M  V30 30600 H 2836.63 1.13783 3.62984 0
M  V30 30601 H 2837.95 1.28119 4.82065 0
M  V30 30602 H 2837.1 -0.745775 6.02099 0
M  V30 30603 H 2835.84 -0.97959 4.77761 0
M  V30 30604 H 2834.84 1.25216 5.35351 0
M  V30 30605 H 2836.07 1.47381 6.62914 0
M  V30 30606 H 2834.02 -0.767301 6.51497 0
M  V30 30607 H 2833.93 0.632524 7.53349 0
M  V30 30608 H 2835.2 -0.531479 7.77686 0
M  V30 30609 N 2839.43 -1.43001 0.662458 0
M  V30 30610 C 2840.38 -2.32573 -0.0353041 0
M  V30 30611 C 2841.37 -1.49133 -0.803479 0
M  V30 30612 O 2842.58 -1.65284 -0.712836 0
M  V30 30613 H 2838.95 -0.751393 -0.0302062 0
M  V30 30614 H 2840.92 -2.89137 0.737737 0
M  V30 30615 C 2839.67 -3.33559 -0.981517 0
M  V30 30616 H 2839 -3.97796 -0.399845 0
M  V30 30617 H 2840.44 -3.98847 -1.43866 0
M  V30 30618 C 2838.9 -2.64867 -2.082 0
M  V30 30619 O 2839.43 -2.47119 -3.16694 0
M  V30 30620 N 2837.63 -2.24091 -1.85018 0
M  V30 30621 H 2837.18 -2.38726 -0.967867 0
M  V30 30622 H 2837.14 -1.78461 -2.58842 0
M  V30 30623 N 2840.91 -0.404973 -1.52308 0
M  V30 30624 C 2842.16 0.173494 -2.00952 0
M  V30 30625 C 2842.47 1.46578 -1.29515 0
M  V30 30626 O 2843.68 2.12525 -1.68954 0
M  V30 30627 C 2842.13 0.359738 -3.58098 0
M  V30 30628 C 2841.74 -0.920215 -4.38447 0
M  V30 30629 C 2843.48 0.893721 -4.14985 0
M  V30 30630 C 2841.39 -0.701388 -5.87226 0
M  V30 30631 H 2840.32 0.0686112 -0.750872 0
M  V30 30632 H 2842.97 -0.52978 -1.75686 0
M  V30 30633 H 2841.35 1.12524 -3.79677 0
M  V30 30634 H 2842.53 -1.69155 -4.2863 0
M  V30 30635 H 2840.84 -1.38031 -3.92857 0
M  V30 30636 H 2843.44 1.0734 -5.23815 0
M  V30 30637 H 2843.78 1.86724 -3.72075 0
M  V30 30638 H 2844.32 0.187383 -3.97358 0
M  V30 30639 H 2841.06 -1.64635 -6.34488 0
M  V30 30640 H 2840.58 0.0307234 -5.99792 0
M  V30 30641 H 2842.25 -0.341959 -6.46096 0
M  V30 30642 N 2842.39 1.57018 -0.135265 0
M  V30 30643 C 2843.61 2.00532 0.529308 0
M  V30 30644 C 2844.04 1.01462 1.58389 0
M  V30 30645 O 2843.39 -0.0113668 1.81296 0
M  V30 30646 C 2843.44 3.4285 1.11742 0
M  V30 30647 O 2842.55 3.46739 2.23261 0
M  V30 30648 H 2841.89 0.651018 0.130658 0
M  V30 30649 H 2844.42 2.0332 -0.228539 0
M  V30 30650 H 2844.43 3.81403 1.44898 0
M  V30 30651 H 2843.1 4.14466 0.345074 0
M  V30 30652 H 2841.68 3.20019 1.91422 0
M  V30 30653 N 2843.86 -0.138524 1.5699 0
M  V30 30654 C 2845.09 -0.868377 1.88345 0
M  V30 30655 C 2845.51 -1.73559 0.72519 0
M  V30 30656 O 2844.87 -1.78364 -0.324961 0
M  V30 30657 C 2844.92 -1.69393 3.18337 0
M  V30 30658 O 2844.02 -2.79902 3.02868 0
M  V30 30659 H 2843.37 -0.241356 0.618582 0
M  V30 30660 H 2845.9 -0.12679 2.04207 0
M  V30 30661 H 2845.91 -2.0872 3.50571 0
M  V30 30662 H 2844.58 -1.05717 4.0224 0
M  V30 30663 H 2843.16 -2.43919 2.8206 0
M  V30 30664 N 2845.34 -1.52224 -0.408133 0
M  V30 30665 C 2846.29 -1.7625 -1.51785 0
M  V30 30666 C 2847.28 -0.629665 -1.57263 0
M  V30 30667 O 2848.49 -0.811732 -1.60658 0
M  V30 30668 H 2844.87 -0.557376 -0.504813 0
M  V30 30669 H 2846.84 -2.69216 -1.28705 0
M  V30 30670 C 2845.59 -1.93112 -2.89142 0
M  V30 30671 H 2844.91 -2.79702 -2.85669 0
M  V30 30672 H 2846.35 -2.13923 -3.66078 0
M  V30 30673 C 2844.81 -0.698489 -3.2958 0
M  V30 30674 O 2845.34 0.133167 -4.01479 0
M  V30 30675 N 2843.54 -0.5341 -2.8565 0
M  V30 30676 H 2843.09 -1.21198 -2.27308 0
M  V30 30677 H 2843.05 0.289332 -3.13066 0
M  V30 30678 N 2846.82 0.665425 -1.42863 0
M  V30 30679 C 2848.05 1.45135 -1.47035 0
M  V30 30680 C 2848.46 1.89018 -0.0830309 0
M  V30 30681 O 2847.8 1.59318 0.914523 0
M  V30 30682 C 2847.86 2.72655 -2.34307 0
M  V30 30683 C 2847.53 2.5079 -3.82039 0
M  V30 30684 C 2848.52 2.1479 -4.73457 0
M  V30 30685 C 2846.21 2.65493 -4.26402 0
M  V30 30686 C 2848.2 1.93775 -6.07232 0
M  V30 30687 C 2845.89 2.44093 -5.60234 0
M  V30 30688 C 2846.89 2.08288 -6.50465 0
M  V30 30689 O 2846.58 1.87102 -7.81824 0
M  V30 30690 H 2846.31 0.452764 -0.501977 0
M  V30 30691 H 2848.86 0.824197 -1.88139 0
M  V30 30692 H 2847.09 3.37886 -1.88069 0
M  V30 30693 H 2848.78 3.34568 -2.29824 0
M  V30 30694 H 2849.55 2.03018 -4.40464 0
M  V30 30695 H 2845.43 2.92339 -3.56453 0
M  V30 30696 H 2848.97 1.65752 -6.77622 0
M  V30 30697 H 2844.87 2.55464 -5.92797 0
M  V30 30698 H 2845.64 2.01625 -7.93278 0
M  V30 30699 N 2848.3 1.29191 0.902633 0
M  V30 30700 C 2849.25 1.13947 2.02778 0
M  V30 30701 C 2850.24 0.0558168 1.69308 0
M  V30 30702 O 2851.45 0.215403 1.78707 0
M  V30 30703 H 2847.82 0.351889 0.664589 0
M  V30 30704 H 2849.79 2.09212 2.12774 0
M  V30 30705 C 2848.54 0.829719 3.37655 0
M  V30 30706 H 2847.86 1.65558 3.6391 0
M  V30 30707 H 2849.3 0.763072 4.17077 0
M  V30 30708 C 2847.76 -0.466932 3.33649 0
M  V30 30709 O 2848.29 -1.49388 3.72889 0
M  V30 30710 N 2846.5 -0.47171 2.86746 0
M  V30 30711 H 2846.05 0.364451 2.55009 0
M  V30 30712 H 2846 -1.33928 2.84448 0
M  V30 30713 N 2849.78 -1.1126 1.1162 0
M  V30 30714 C 2850.72 -2.17355 0.776238 0
M  V30 30715 C 2851.69 -1.6416 -0.253123 0
M  V30 30716 O 2852.88 -1.90359 -0.129621 0
M  V30 30717 C 2850.02 -3.44348 0.227642 0
M  V30 30718 C 2849.13 -4.11538 1.31379 0
M  V30 30719 C 2848.27 -5.26222 0.725533 0
M  V30 30720 C 2847.31 -5.85299 1.7914 0
M  V30 30721 N 2846.44 -6.91375 1.2225 0
M  V30 30722 H 2851.28 -2.4578 1.68512 0
M  V30 30723 H 2848.82 -1.20653 0.841496 0
M  V30 30724 H 2850.78 -4.17059 -0.10841 0
M  V30 30725 H 2849.41 -3.16302 -0.64443 0
M  V30 30726 H 2848.46 -3.36882 1.76676 0
M  V30 30727 H 2849.77 -4.515 2.12013 0
M  V30 30728 H 2848.93 -6.05749 0.339647 0
M  V30 30729 H 2847.66 -4.87571 -0.112103 0
M  V30 30730 H 2846.67 -5.04449 2.18657 0
M  V30 30731 H 2847.89 -6.26017 2.6321 0
M  V30 30732 H 2845.84 -6.54739 0.406538 0
M  V30 30733 H 2845.76 -7.30002 1.96553 0
M  V30 30734 H 2847.03 -7.74702 0.863562 0
M  V30 30735 N 2851.25 -0.906798 -1.28899 0
M  V30 30736 C 2852.16 -0.394747 -2.31255 0
M  V30 30737 C 2853.18 0.514092 -1.66232 0
M  V30 30738 O 2854.36 0.401959 -1.97348 0
M  V30 30739 C 2851.42 0.363131 -3.44793 0
M  V30 30740 C 2850.48 -0.578087 -4.2539 0
M  V30 30741 C 2849.72 0.143717 -5.33506 0
M  V30 30742 O 2849.94 1.36656 -5.53788 0
M  V30 30743 O 2848.87 -0.517406 -5.99672 0
M  V30 30744 H 2852.7 -1.2441 -2.77048 0
M  V30 30745 H 2850.28 -0.67137 -1.33465 0
M  V30 30746 H 2852.17 0.79143 -4.13901 0
M  V30 30747 H 2850.84 1.18843 -3.01095 0
M  V30 30748 H 2849.75 -1.05564 -3.58897 0
M  V30 30749 H 2851.08 -1.37 -4.72749 0
M  V30 30750 N 2852.73 1.42648 -0.670032 0
M  V30 30751 C 2853.7 2.292 0.00200631 0
M  V30 30752 C 2854.7 1.43081 0.733792 0
M  V30 30753 O 2855.89 1.64523 0.572511 0
M  V30 30754 C 2853.02 3.25485 1.01353 0
M  V30 30755 H 2854.21 2.90117 -0.759747 0
M  V30 30756 H 2851.76 1.50208 -0.432131 0
M  V30 30757 H 2852.5 2.69497 1.80394 0
M  V30 30758 H 2852.28 3.88998 0.492255 0
M  V30 30759 H 2853.77 3.90406 1.48233 0
M  V30 30760 N 2854.21 0.413044 1.52091 0
M  V30 30761 C 2855.46 -0.162835 2.01042 0
M  V30 30762 C 2855.77 -1.45889 1.30291 0
M  V30 30763 O 2856.98 -2.11626 1.70078 0
M  V30 30764 C 2855.44 -0.340743 3.58283 0
M  V30 30765 C 2855.04 0.943454 4.37953 0
M  V30 30766 C 2856.79 -0.871701 4.15454 0
M  V30 30767 C 2854.69 0.73252 5.86846 0
M  V30 30768 H 2853.62 -0.0646281 0.751225 0
M  V30 30769 H 2856.28 0.53909 1.75403 0
M  V30 30770 H 2854.66 -1.10509 3.80268 0
M  V30 30771 H 2855.83 1.71425 4.27727 0
M  V30 30772 H 2854.15 1.40112 3.92119 0
M  V30 30773 H 2856.74 -1.04561 5.24377 0
M  V30 30774 H 2857.09 -1.84748 3.7306 0
M  V30 30775 H 2857.62 -0.166308 3.97452 0
M  V30 30776 H 2854.36 1.67997 6.33606 0
M  V30 30777 H 2853.88 0.00108549 5.998 0
M  V30 30778 H 2855.56 0.376219 6.45905 0
M  V30 30779 N 2855.69 -1.56945 0.143591 0
M  V30 30780 C 2856.64 -2.16588 -0.797395 0
M  V30 30781 C 2857.61 -1.09778 -1.24652 0
M  V30 30782 O 2858.79 -1.37803 -1.31966 0
M  V30 30783 C 2855.93 -2.78899 -2.03248 0
M  V30 30784 C 2855.04 -4.0009 -1.62947 0
M  V30 30785 C 2854.18 -4.50411 -2.81609 0
M  V30 30786 C 2853.22 -5.64076 -2.37665 0
M  V30 30787 N 2852.36 -6.0903 -3.49324 0
M  V30 30788 H 2857.2 -2.96663 -0.28197 0
M  V30 30789 H 2854.73 -1.46547 -0.127468 0
M  V30 30790 H 2856.69 -3.13168 -2.75648 0
M  V30 30791 H 2855.32 -2.01473 -2.52207 0
M  V30 30792 H 2854.37 -3.71822 -0.803257 0
M  V30 30793 H 2855.68 -4.82448 -1.26671 0
M  V30 30794 H 2854.84 -4.86717 -3.62203 0
M  V30 30795 H 2853.58 -3.67053 -3.21128 0
M  V30 30796 H 2852.58 -5.27349 -1.5551 0
M  V30 30797 H 2853.81 -6.49216 -1.99236 0
M  V30 30798 H 2851.75 -5.28608 -3.88471 0
M  V30 30799 H 2851.67 -6.86305 -3.17052 0
M  V30 30800 H 2852.94 -6.49981 -4.30285 0
M  V30 30801 N 2857.17 0.130197 -1.57061 0
M  V30 30802 C 2858.42 0.83828 -1.83895 0
M  V30 30803 C 2858.74 1.80938 -0.727078 0
M  V30 30804 O 2858.01 1.943 0.249893 0
M  V30 30805 H 2856.59 0.312561 -0.678465 0
M  V30 30806 H 2859.25 0.120189 -1.94529 0
M  V30 30807 H 2858.34 1.39033 -2.79421 0
M  V30 30808 N 2858.65 1.52438 0.400055 0
M  V30 30809 C 2860.06 1.41443 0.739334 0
M  V30 30810 C 2860.26 0.526087 1.94511 0
M  V30 30811 O 2859.32 -0.00468063 2.525 0
M  V30 30812 C 2860.63 2.84117 0.984774 0
M  V30 30813 C 2862.18 2.93521 1.08693 0
M  V30 30814 C 2862.65 4.37184 1.36507 0
M  V30 30815 N 2864.14 4.40459 1.43353 0
M  V30 30816 C 2864.88 5.48689 1.66518 0
M  V30 30817 N 2864.38 6.67022 1.87227 0
M  V30 30818 N 2866.17 5.36216 1.68607 0
M  V30 30819 H 2858.32 2.08723 -0.39352 0
M  V30 30820 H 2860.58 0.941143 -0.113817 0
M  V30 30821 H 2860.29 3.51284 0.171035 0
M  V30 30822 H 2860.16 3.25708 1.90248 0
M  V30 30823 H 2862.55 2.2653 1.89125 0
M  V30 30824 H 2862.63 2.55375 0.147387 0
M  V30 30825 H 2862.27 5.04738 0.565893 0
M  V30 30826 H 2862.2 4.72874 2.31728 0
M  V30 30827 H 2864.7 3.55164 1.29102 0
M  V30 30828 H 2865.01 7.45284 2.04379 0
M  V30 30829 H 2863.35 6.7007 1.84474 0
M  V30 30830 H 2866.54 4.42744 1.51972 0
M  V30 30831 H 2866.72 6.20635 1.86321 0
M  V30 30832 N 2860.12 -0.657839 1.43214 0
M  V30 30833 C 2861.37 -1.41362 1.43874 0
M  V30 30834 C 2861.69 -1.95492 0.0649324 0
M  V30 30835 O 2862.89 -2.71452 -0.0510319 0
M  V30 30836 C 2861.35 -2.55806 2.53162 0
M  V30 30837 C 2860.96 -2.08304 3.96628 0
M  V30 30838 C 2862.7 -3.33206 2.6301 0
M  V30 30839 C 2860.61 -3.19932 4.97391 0
M  V30 30840 H 2859.54 -0.531126 0.535183 0
M  V30 30841 H 2862.19 -0.710514 1.69186 0
M  V30 30842 H 2860.57 -3.28566 2.21043 0
M  V30 30843 H 2861.74 -1.42585 4.38185 0
M  V30 30844 H 2860.06 -1.43797 3.90783 0
M  V30 30845 H 2862.66 -4.16372 3.35468 0
M  V30 30846 H 2863 -3.80929 1.67925 0
M  V30 30847 H 2863.53 -2.67524 2.94407 0
M  V30 30848 H 2860.27 -2.77182 5.94012 0
M  V30 30849 H 2859.79 -3.84377 4.6045 0
M  V30 30850 H 2861.47 -3.85136 5.19884 0
M  V30 30851 N 2861.6 -1.29668 -0.895769 0
M  V30 30852 C 2862.88 -1.08541 -1.62721 0
M  V30 30853 C 2863.26 0.369083 -2.07848 0
M  V30 30854 O 2862.61 1.35861 -1.83723 0
M  V30 30855 C 2862.82 -2.07653 -2.80502 0
M  V30 30856 C 2864.16 -2.38786 -3.51093 0
M  V30 30857 O 2865.19 -2.05879 -2.90676 0
M  V30 30858 O 2864.05 -2.95028 -4.60023 0
M  V30 30859 H 2861.14 -0.416119 -0.714685 0
M  V30 30860 H 2863.69 -1.41054 -0.943492 0
M  V30 30861 H 2862.46 -3.05604 -2.44381 0
M  V30 30862 H 2862.08 -1.75893 -3.56577 0
M  V30 30863 N 2863.08 1.10667 -1.12208 0
M  V30 30864 C 2864.01 2.18996 -0.810124 0
M  V30 30865 C 2864.99 1.68605 0.225035 0
M  V30 30866 O 2866.18 1.94006 0.0867489 0
M  V30 30867 C 2863.31 3.46315 -0.261323 0
M  V30 30868 C 2862.26 4.09967 -1.22927 0
M  V30 30869 C 2861.59 5.31958 -0.540806 0
M  V30 30870 C 2862.89 4.53957 -2.58303 0
M  V30 30871 H 2864.58 2.45349 -1.71594 0
M  V30 30872 H 2862.13 1.17921 -0.826481 0
M  V30 30873 H 2864.08 4.21389 -0.0308262 0
M  V30 30874 H 2862.8 3.19446 0.679823 0
M  V30 30875 H 2861.46 3.36897 -1.44553 0
M  V30 30876 H 2861.11 5.01364 0.405404 0
M  V30 30877 H 2860.81 5.75497 -1.18647 0
M  V30 30878 H 2862.33 6.09765 -0.319291 0
M  V30 30879 H 2863.75 5.20315 -2.40718 0
M  V30 30880 H 2862.14 5.08337 -3.18925 0
M  V30 30881 H 2863.21 3.66997 -3.16925 0
M  V30 30882 N 2864.56 0.913621 1.28416 0
M  V30 30883 C 2865.97 0.593268 1.77023 0
M  V30 30884 C 2866.32 -0.89141 1.74781 0
M  V30 30885 O 2865.44 -1.69731 1.3424 0
M  V30 30886 C 2866.04 1.07016 3.21454 0
M  V30 30887 C 2864.6 0.800729 3.67784 0
M  V30 30888 C 2863.75 1.23696 2.48183 0
M  V30 30889 H 2866.7 1.0949 1.14881 0
M  V30 30890 H 2866.72 0.411547 3.78268 0
M  V30 30891 H 2866.23 2.15075 3.23054 0
M  V30 30892 H 2864.33 -0.266659 3.71645 0
M  V30 30893 H 2864.44 1.40838 4.57932 0
M  V30 30894 H 2862.81 0.655699 2.46115 0
M  V30 30895 H 2863.59 2.32589 2.52502 0
M  V30 30896 N 2866.04 -1.4229 0.677588 0
M  V30 30897 C 2867.28 -2.00724 0.198209 0
M  V30 30898 C 2867.6 -1.54214 -1.20323 0
M  V30 30899 O 2868.8 -2.05084 -1.77912 0
M  V30 30900 C 2867.26 -3.58618 0.303495 0
M  V30 30901 C 2866.87 -4.14116 1.70916 0
M  V30 30902 C 2868.61 -4.24339 -0.117029 0
M  V30 30903 C 2866.52 -5.64384 1.76706 0
M  V30 30904 H 2865.45 -0.750712 0.0703422 0
M  V30 30905 H 2868.1 -1.62981 0.843176 0
M  V30 30906 H 2866.48 -3.93878 -0.409413 0
M  V30 30907 H 2867.66 -3.9031 2.44938 0
M  V30 30908 H 2865.97 -3.60857 2.07778 0
M  V30 30909 H 2868.57 -5.34617 -0.0939531 0
M  V30 30910 H 2868.91 -4.00021 -1.15276 0
M  V30 30911 H 2869.44 -3.94049 0.544969 0
M  V30 30912 H 2866.18 -5.93503 2.78271 0
M  V30 30913 H 2865.7 -5.90171 1.07044 0
M  V30 30914 H 2867.38 -6.28849 1.52177 0
M  V30 30915 N 2867.51 -0.421104 -1.5187 0
M  V30 30916 C 2868.46 0.398468 -2.27334 0
M  V30 30917 C 2869.43 1.03083 -1.30243 0
M  V30 30918 O 2870.62 1.05283 -1.59123 0
M  V30 30919 C 2867.76 1.50267 -3.10667 0
M  V30 30920 C 2866.87 0.890048 -4.22732 0
M  V30 30921 C 2866 1.96794 -4.93402 0
M  V30 30922 C 2865.04 1.33289 -5.97411 0
M  V30 30923 N 2864.18 2.35144 -6.61552 0
M  V30 30924 H 2869.02 -0.251464 -2.96937 0
M  V30 30925 H 2866.56 -0.13585 -1.46471 0
M  V30 30926 H 2868.51 2.15397 -3.57295 0
M  V30 30927 H 2867.14 2.12246 -2.43211 0
M  V30 30928 H 2866.2 0.12747 -3.80186 0
M  V30 30929 H 2867.51 0.386262 -4.97302 0
M  V30 30930 H 2866.66 2.69624 -5.43496 0
M  V30 30931 H 2865.4 2.50542 -4.18426 0
M  V30 30932 H 2864.41 0.589983 -5.46625 0
M  V30 30933 H 2865.63 0.802958 -6.74336 0
M  V30 30934 H 2863.58 2.88002 -5.89399 0
M  V30 30935 H 2863.49 1.89612 -7.31836 0
M  V30 30936 H 2864.76 3.07507 -7.16282 0
M  V30 30937 N 2868.99 1.56866 -0.151912 0
M  V30 30938 C 2869.92 2.14145 0.81697 0
M  V30 30939 C 2870.94 1.09212 1.20733 0
M  V30 30940 O 2872.13 1.36471 1.15056 0
M  V30 30941 C 2869.23 2.6533 2.1084 0
M  V30 30942 C 2868.4 3.94715 1.88464 0
M  V30 30943 C 2867.46 4.3116 3.01641 0
M  V30 30944 O 2866.48 4.99395 2.73118 0
M  V30 30945 N 2867.69 3.9114 4.2894 0
M  V30 30946 H 2870.45 2.97906 0.327395 0
M  V30 30947 H 2868.01 1.61869 0.0315028 0
M  V30 30948 H 2870 2.8672 2.85611 0
M  V30 30949 H 2868.57 1.86266 2.51045 0
M  V30 30950 H 2867.79 3.819 0.977021 0
M  V30 30951 H 2869.08 4.79255 1.70857 0
M  V30 30952 H 2868.48 3.36169 4.5498 0
M  V30 30953 H 2867.04 4.17572 5.00477 0
M  V30 30954 N 2870.47 -0.121866 1.57128 0
M  V30 30955 C 2871.75 -0.860296 1.75665 0
M  V30 30956 C 2872.13 -1.98201 0.726619 0
M  V30 30957 O 2871.48 -2.27129 -0.24995 0
M  V30 30958 C 2871.69 -1.37962 3.20573 0
M  V30 30959 C 2873.03 -1.8331 3.82992 0
M  V30 30960 O 2874.06 -1.47648 3.24158 0
M  V30 30961 O 2872.92 -2.49159 4.86397 0
M  V30 30962 H 2870.01 -0.408336 0.71916 0
M  V30 30963 H 2872.56 -0.105829 1.6937 0
M  V30 30964 H 2871.33 -0.574702 3.87057 0
M  V30 30965 H 2870.95 -2.19688 3.31395 0
M  V30 30966 N 2871.95 -1.52648 -0.391965 0
M  V30 30967 C 2872.88 -1.71961 -1.50016 0
M  V30 30968 C 2873.86 -0.567391 -1.52379 0
M  V30 30969 O 2875.04 -0.796836 -1.7083 0
M  V30 30970 C 2872.17 -1.77453 -2.88493 0
M  V30 30971 C 2871.22 -2.99174 -3.03969 0
M  V30 30972 S 2872.05 -4.59207 -2.75479 0
M  V30 30973 C 2873.21 -4.6751 -4.16155 0
M  V30 30974 H 2873.44 -2.65687 -1.33408 0
M  V30 30975 H 2870.97 -1.42903 -0.584649 0
M  V30 30976 H 2872.93 -1.81302 -3.68293 0
M  V30 30977 H 2871.59 -0.848241 -3.0243 0
M  V30 30978 H 2870.78 -2.99549 -4.05322 0
M  V30 30979 H 2870.39 -2.93301 -2.32057 0
M  V30 30980 H 2872.68 -4.45943 -5.1004 0
M  V30 30981 H 2873.62 -5.69505 -4.20796 0
M  V30 30982 H 2874.03 -3.96379 -4.01926 0
M  V30 30983 N 2873.43 0.650235 -1.43561 0
M  V30 30984 C 2874.68 1.40597 -1.44621 0
M  V30 30985 C 2874.99 1.95455 -0.0752989 0
M  V30 30986 O 2876.19 2.71475 0.0366354 0
M  V30 30987 C 2874.65 2.5446 -2.54515 0
M  V30 30988 C 2874.26 2.06197 -3.97727 0
M  V30 30989 C 2876 3.31806 -2.64773 0
M  V30 30990 C 2873.91 3.17289 -4.99081 0
M  V30 30991 H 2872.84 0.528281 -0.537992 0
M  V30 30992 H 2875.49 0.701531 -1.69561 0
M  V30 30993 H 2873.87 3.2739 -2.22783 0
M  V30 30994 H 2875.05 1.4026 -4.38935 0
M  V30 30995 H 2873.36 1.41722 -3.9154 0
M  V30 30996 H 2875.96 4.14587 -3.37671 0
M  V30 30997 H 2876.3 3.80033 -1.69943 0
M  V30 30998 H 2876.83 2.65959 -2.95822 0
M  V30 30999 H 2873.57 2.74027 -5.95474 0
M  V30 31000 H 2873.09 3.81929 -4.62482 0
M  V30 31001 H 2874.77 3.82373 -5.21919 0
M  V30 31002 N 2874.9 1.30141 0.88888 0
M  V30 31003 C 2876.15 1.18106 1.63505 0
M  V30 31004 C 2876.47 -0.264107 1.93809 0
M  V30 31005 O 2877.67 -0.505919 2.66745 0
M  V30 31006 C 2876.13 2.06636 2.94669 0
M  V30 31007 C 2875.74 3.56039 2.7192 0
M  V30 31008 C 2877.48 2.03353 3.72623 0
M  V30 31009 C 2875.39 4.36637 3.98876 0
M  V30 31010 H 2874.32 0.438445 0.613418 0
M  V30 31011 H 2876.97 1.54861 0.9844 0
M  V30 31012 H 2875.35 1.6276 3.61006 0
M  V30 31013 H 2876.52 4.08037 2.14109 0
M  V30 31014 H 2874.84 3.61104 2.07347 0
M  V30 31015 H 2877.44 2.60824 4.66771 0
M  V30 31016 H 2877.78 1.01607 4.0371 0
M  V30 31017 H 2878.31 2.45329 3.13143 0
M  V30 31018 H 2875.05 5.39063 3.7295 0
M  V30 31019 H 2874.57 3.89404 4.56207 0
M  V30 31020 H 2876.25 4.47867 4.66931 0
M  V30 31021 N 2876.38 -1.1007 1.12794 0
M  V30 31022 C 2877.66 -1.78631 0.796898 0
M  V30 31023 C 2878.04 -1.98705 -0.712704 0
M  V30 31024 O 2877.39 -1.58313 -1.6477 0
M  V30 31025 C 2877.6 -3.11375 1.57627 0
M  V30 31026 C 2878.95 -3.86191 1.7647 0
M  V30 31027 O 2879.97 -3.21107 1.5417 0
M  V30 31028 O 2878.83 -5.03015 2.13632 0
M  V30 31029 H 2875.92 -0.774388 0.290261 0
M  V30 31030 H 2878.47 -1.16686 1.23218 0
M  V30 31031 H 2877.24 -2.92207 2.60251 0
M  V30 31032 H 2876.86 -3.81041 1.13549 0
M  V30 31033 N 2877.86 -0.920419 -1.2793 0
M  V30 31034 C 2878.81 -0.412462 -2.27085 0
M  V30 31035 C 2879.78 0.516697 -1.57859 0
M  V30 31036 O 2880.96 0.437443 -1.85718 0
M  V30 31037 C 2878.1 0.335339 -3.43467 0
M  V30 31038 C 2877.22 -0.627092 -4.27424 0
M  V30 31039 C 2876.35 0.139823 -5.31016 0
M  V30 31040 C 2875.39 -0.815789 -6.06639 0
M  V30 31041 N 2874.53 -0.0819673 -7.02052 0
M  V30 31042 H 2879.37 -1.26303 -2.6991 0
M  V30 31043 H 2876.9 -0.634099 -1.32731 0
M  V30 31044 H 2878.86 0.785154 -4.09745 0
M  V30 31045 H 2877.49 1.1502 -3.01613 0
M  V30 31046 H 2876.54 -1.19544 -3.61128 0
M  V30 31047 H 2877.86 -1.35772 -4.79966 0
M  V30 31048 H 2877.01 0.649892 -6.03209 0
M  V30 31049 H 2875.75 0.903459 -4.79259 0
M  V30 31050 H 2874.75 -1.33717 -5.33291 0
M  V30 31051 H 2875.98 -1.57909 -6.60486 0
M  V30 31052 H 2873.92 0.663556 -6.52635 0
M  V30 31053 H 2873.84 -0.752295 -7.52248 0
M  V30 31054 H 2875.11 0.407688 -7.78433 0
M  V30 31055 N 2879.34 1.41929 -0.685124 0
M  V30 31056 C 2880.27 2.33484 -0.0273917 0
M  V30 31057 C 2881.25 1.51248 0.778339 0
M  V30 31058 O 2882.43 1.79818 0.733417 0
M  V30 31059 C 2879.56 3.34969 0.917213 0
M  V30 31060 C 2878.52 4.27438 0.219334 0
M  V30 31061 C 2877.84 5.19213 1.27758 0
M  V30 31062 C 2879.14 5.14347 -0.907984 0
M  V30 31063 H 2880.84 2.88733 -0.792045 0
M  V30 31064 H 2878.38 1.38832 -0.382332 0
M  V30 31065 H 2880.34 3.97937 1.3865 0
M  V30 31066 H 2879.06 2.78046 1.71341 0
M  V30 31067 H 2877.72 3.65879 -0.229822 0
M  V30 31068 H 2877.37 4.58611 2.06604 0
M  V30 31069 H 2877.07 5.81911 0.815701 0
M  V30 31070 H 2878.59 5.85057 1.7476 0
M  V30 31071 H 2880.01 5.70942 -0.519448 0
M  V30 31072 H 2878.4 5.85932 -1.29631 0
M  V30 31073 H 2879.47 4.52133 -1.75226 0
M  V30 31074 N 2880.82 0.429152 1.51644 0
M  V30 31075 C 2881.76 -0.400881 2.29119 0
M  V30 31076 C 2882.76 -1.02817 1.34629 0
M  V30 31077 O 2883.96 -0.964071 1.52005 0
M  V30 31078 H 2880.34 -0.148082 0.737276 0
M  V30 31079 H 2882.31 0.27351 2.97144 0
M  V30 31080 C 2881.06 -1.49423 3.13955 0
M  V30 31081 H 2880.38 -1.0209 3.86546 0
M  V30 31082 H 2881.82 -2.04842 3.71235 0
M  V30 31083 C 2880.28 -2.47289 2.28801 0
M  V30 31084 O 2880.81 -3.51638 1.94199 0
M  V30 31085 N 2879.02 -2.17979 1.92181 0
M  V30 31086 H 2878.56 -1.33151 2.20519 0
M  V30 31087 H 2878.52 -2.83702 1.35502 0
M  V30 31088 N 2882.29 -1.56783 0.160229 0
M  V30 31089 C 2883.54 -1.96155 -0.48659 0
M  V30 31090 C 2883.86 -1.04676 -1.64523 0
M  V30 31091 O 2883.13 -0.110899 -1.95586 0
M  V30 31092 H 2881.71 -0.7243 -0.182752 0
M  V30 31093 H 2884.38 -1.93431 0.238821 0
M  V30 31094 H 2883.47 -3.00189 -0.853973 0
M  V30 31095 N 2883.77 0.113531 -1.57191 0
M  V30 31096 C 2884.72 1.15796 -2.01728 0
M  V30 31097 C 2885.72 1.42554 -0.91513 0
M  V30 31098 O 2886.92 1.42452 -1.10033 0
M  V30 31099 H 2883.3 0.390557 -0.642627 0
M  V30 31100 H 2885.27 0.755876 -2.88668 0
M  V30 31101 C 2884.02 2.47503 -2.44208 0
M  V30 31102 H 2883.34 2.27753 -3.28586 0
M  V30 31103 H 2884.78 3.1913 -2.79163 0
M  V30 31104 C 2883.24 3.10476 -1.3079 0
M  V30 31105 O 2883.77 3.96778 -0.626877 0
M  V30 31106 N 2881.97 2.70438 -1.06357 0
M  V30 31107 H 2881.52 2.00352 -1.61916 0
M  V30 31108 H 2881.48 3.12901 -0.306669 0
M  V30 31109 N 2885.25 1.52854 0.383864 0
M  V30 31110 C 2886.48 1.72332 1.15397 0
M  V30 31111 C 2886.9 0.443012 1.82809 0
M  V30 31112 O 2886.26 -0.601615 1.71027 0
M  V30 31113 C 2886.31 2.87712 2.17381 0
M  V30 31114 O 2885.41 2.55044 3.24078 0
M  V30 31115 H 2884.75 0.572889 0.335699 0
M  V30 31116 H 2887.28 1.99667 0.446585 0
M  V30 31117 H 2887.29 3.13355 2.61291 0
M  V30 31118 H 2885.97 3.8059 1.67703 0
M  V30 31119 H 2884.54 2.40158 2.85269 0
M  V30 31120 N 2886.73 -0.642612 1.43904 0
M  V30 31121 C 2887.96 -1.42985 1.49542 0
M  V30 31122 C 2888.37 -1.88439 0.116621 0
M  V30 31123 O 2887.73 -1.60142 -0.875257 0
M  V30 31124 C 2887.78 -2.65781 2.45036 0
M  V30 31125 O 2887.5 -2.22225 3.77555 0
M  V30 31126 C 2889 -3.5903 2.60024 0
M  V30 31127 H 2886.22 -0.438899 0.507552 0
M  V30 31128 H 2888.77 -0.786909 1.88754 0
M  V30 31129 H 2886.92 -3.26192 2.08991 0
M  V30 31130 H 2887.34 -3.01752 4.29006 0
M  V30 31131 H 2888.81 -4.41829 3.30894 0
M  V30 31132 H 2889.29 -4.07081 1.64868 0
M  V30 31133 H 2889.89 -3.04495 2.96923 0
M  V30 31134 N 2888.21 -1.30611 -0.881966 0
M  V30 31135 C 2889.62 -1.17666 -1.44954 0
M  V30 31136 C 2889.97 0.221497 -1.94946 0
M  V30 31137 O 2889.09 1.1184 -1.85259 0
M  V30 31138 C 2889.69 -2.13 -2.6347 0
M  V30 31139 C 2888.25 -2.04025 -3.16308 0
M  V30 31140 C 2887.4 -2.0291 -1.89004 0
M  V30 31141 H 2890.35 -1.42837 -0.69162 0
M  V30 31142 H 2890.37 -1.71259 -3.3978 0
M  V30 31143 H 2889.88 -3.1475 -2.27054 0
M  V30 31144 H 2887.98 -1.05426 -3.57374 0
M  V30 31145 H 2888.09 -2.92556 -3.79404 0
M  V30 31146 H 2886.46 -1.47754 -2.07463 0
M  V30 31147 H 2887.24 -3.06396 -1.54842 0
M  V30 31148 N 2889.69 1.0947 -1.13376 0
M  V30 31149 C 2890.6 2.1965 -0.824068 0
M  V30 31150 C 2891.61 1.72947 0.191149 0
M  V30 31151 O 2892.79 2.01388 0.022311 0
M  V30 31152 C 2889.85 3.45451 -0.29407 0
M  V30 31153 C 2888.91 4.06837 -1.37047 0
M  V30 31154 C 2888.15 5.26633 -0.865672 0
M  V30 31155 O 2888.37 5.69627 0.29692 0
M  V30 31156 O 2887.3 5.79133 -1.63978 0
M  V30 31157 H 2891.13 2.48592 -1.74458 0
M  V30 31158 H 2888.71 1.18397 -0.911176 0
M  V30 31159 H 2890.6 4.214 -0.00388446 0
M  V30 31160 H 2889.27 3.18112 0.598865 0
M  V30 31161 H 2888.18 3.32527 -1.71397 0
M  V30 31162 H 2889.51 4.38401 -2.23754 0
M  V30 31163 N 2891.16 0.92719 1.2744 0
M  V30 31164 C 2892.11 0.424499 2.26863 0
M  V30 31165 C 2893.08 -0.508319 1.58131 0
M  V30 31166 O 2894.27 -0.427587 1.85947 0
M  V30 31167 C 2891.41 -0.317119 3.4364 0
M  V30 31168 C 2890.52 0.64975 4.27086 0
M  V30 31169 C 2889.65 -0.11166 5.31083 0
M  V30 31170 C 2888.69 0.847949 6.06198 0
M  V30 31171 N 2887.83 0.119198 7.01999 0
M  V30 31172 H 2892.67 1.27732 2.69237 0
M  V30 31173 H 2890.21 0.64113 1.32393 0
M  V30 31174 H 2892.16 -0.763413 4.10156 0
M  V30 31175 H 2890.79 -1.13419 3.02219 0
M  V30 31176 H 2889.85 1.21457 3.60489 0
M  V30 31177 H 2891.16 1.38315 4.79239 0
M  V30 31178 H 2890.31 -0.617894 6.03545 0
M  V30 31179 H 2889.05 -0.87803 4.79731 0
M  V30 31180 H 2888.06 1.36544 5.32575 0
M  V30 31181 H 2889.28 1.61409 6.59639 0
M  V30 31182 H 2887.23 -0.628936 6.52978 0
M  V30 31183 H 2887.14 0.792178 7.51838 0
M  V30 31184 H 2888.41 -0.3664 7.78638 0
M  V30 31185 N 2892.64 -1.41564 0.692641 0
M  V30 31186 C 2893.87 -2.05603 0.231315 0
M  V30 31187 C 2894.28 -1.52113 -1.11835 0
M  V30 31188 O 2893.64 -0.66816 -1.69829 0
M  V30 31189 C 2893.69 -3.61065 0.177189 0
M  V30 31190 O 2893.41 -4.12576 1.47353 0
M  V30 31191 C 2894.91 -4.42246 -0.305482 0
M  V30 31192 H 2892.13 -0.662211 0.10825 0
M  V30 31193 H 2894.68 -1.81387 0.944401 0
M  V30 31194 H 2892.83 -3.84331 -0.486701 0
M  V30 31195 H 2893.25 -5.06596 1.3587 0
M  V30 31196 H 2894.72 -5.51226 -0.292233 0
M  V30 31197 H 2895.2 -4.18135 -1.34386 0
M  V30 31198 H 2895.8 -4.24039 0.327304 0
M  V30 31199 N 2894.12 -0.437188 -1.51415 0
M  V30 31200 C 2895.4 0.189258 -1.94682 0
M  V30 31201 C 2895.78 1.60106 -1.37584 0
M  V30 31202 O 2895.12 2.21459 -0.562854 0
M  V30 31203 C 2895.33 0.167139 -3.486 0
M  V30 31204 C 2896.68 0.372782 -4.2296 0
M  V30 31205 O 2897.71 0.24526 -3.55355 0
M  V30 31206 O 2896.57 0.626598 -5.42896 0
M  V30 31207 H 2893.66 0.130049 -0.816711 0
M  V30 31208 H 2896.21 -0.495156 -1.62315 0
M  V30 31209 H 2894.98 -0.819878 -3.82614 0
M  V30 31210 H 2894.6 0.894469 -3.87408 0
M  V30 31211 N 2895.6 1.56696 -0.168541 0
M  V30 31212 C 2896.85 1.9641 0.476181 0
M  V30 31213 C 2897.17 1.05547 1.63966 0
M  V30 31214 O 2896.44 0.12127 1.95524 0
M  V30 31215 H 2895.02 0.725259 0.178908 0
M  V30 31216 H 2897.68 1.93302 -0.249076 0
M  V30 31217 H 2896.77 3.00638 0.838041 0
M  V30 31218 N 2897.08 -0.105193 1.57249 0
M  V30 31219 C 2898.3 -0.828231 1.90145 0
M  V30 31220 C 2898.73 -1.71981 0.761841 0
M  V30 31221 O 2898.08 -1.79013 -0.287054 0
M  V30 31222 C 2898.13 -1.62602 3.21859 0
M  V30 31223 O 2897.24 -2.73414 3.08737 0
M  V30 31224 H 2896.58 -0.228181 0.623562 0
M  V30 31225 H 2899.11 -0.0834466 2.0443 0
M  V30 31226 H 2899.12 -2.01237 3.54919 0
M  V30 31227 H 2897.79 -0.971616 4.04391 0
M  V30 31228 H 2896.37 -2.37881 2.87171 0
M  V30 31229 N 2898.55 -1.53055 -0.375752 0
M  V30 31230 C 2899.78 -1.72942 -1.14481 0
M  V30 31231 C 2900.2 -0.4527 -1.82571 0
M  V30 31232 O 2899.56 0.592537 -1.71344 0
M  V30 31233 C 2899.61 -2.88861 -2.15852 0
M  V30 31234 O 2898.71 -2.56759 -3.22721 0
M  V30 31235 H 2898.06 -0.574662 -0.332656 0
M  V30 31236 H 2900.59 -1.99901 -0.43599 0
M  V30 31237 H 2900.6 -3.14736 -2.59625 0
M  V30 31238 H 2899.27 -3.81474 -1.65683 0
M  V30 31239 H 2897.85 -2.41668 -2.83991 0
M  V30 31240 N 2900.03 0.634971 -1.44242 0
M  V30 31241 C 2901.26 1.42684 -1.50519 0
M  V30 31242 C 2901.68 1.87651 -0.129897 0
M  V30 31243 O 2901.04 1.58503 0.880136 0
M  V30 31244 C 2901.09 2.62587 -2.47145 0
M  V30 31245 O 2900.19 3.62288 -1.97032 0
M  V30 31246 H 2899.53 0.427092 -0.508418 0
M  V30 31247 H 2902.06 0.775374 -1.89339 0
M  V30 31248 H 2902.07 3.10178 -2.65054 0
M  V30 31249 H 2900.75 2.29203 -3.47043 0
M  V30 31250 H 2899.33 3.21531 -1.88871 0
M  V30 31251 N 2901.51 1.31076 0.875027 0
M  V30 31252 C 2902.74 1.23422 1.66056 0
M  V30 31253 C 2903.15 -0.201314 1.87724 0
M  V30 31254 O 2902.51 -1.13163 1.4318 0
M  V30 31255 C 2902.56 1.96951 3.03138 0
M  V30 31256 O 2902.28 3.349 2.82442 0
M  V30 31257 C 2903.78 1.96074 3.9758 0
M  V30 31258 H 2901 0.426686 0.517861 0
M  V30 31259 H 2903.55 1.72868 1.09255 0
M  V30 31260 H 2901.7 1.51278 3.56642 0
M  V30 31261 H 2902.12 3.72273 3.69476 0
M  V30 31262 H 2903.59 2.52043 4.91099 0
M  V30 31263 H 2904.07 0.942036 4.28978 0
M  V30 31264 H 2904.67 2.41604 3.50011 0
M  V30 31265 N 2902.99 -1.08867 1.13955 0
M  V30 31266 C 2904.22 -1.84911 0.928203 0
M  V30 31267 C 2904.63 -1.81407 -0.523165 0
M  V30 31268 O 2903.99 -1.21434 -1.36235 0
M  V30 31269 C 2904.04 -3.32649 1.41515 0
M  V30 31270 O 2903.76 -3.3614 2.80965 0
M  V30 31271 C 2905.26 -4.25514 1.24307 0
M  V30 31272 H 2902.48 -0.583892 0.330622 0
M  V30 31273 H 2905.03 -1.37525 1.51351 0
M  V30 31274 H 2903.18 -3.77442 0.872715 0
M  V30 31275 H 2903.59 -4.2833 3.02711 0
M  V30 31276 H 2905.07 -5.27309 1.63246 0
M  V30 31277 H 2905.55 -4.38809 0.185397 0
M  V30 31278 H 2906.15 -3.86543 1.77382 0
M  V30 31279 N 2904.47 -0.933936 -1.26946 0
M  V30 31280 C 2905.69 -0.593624 -1.98723 0
M  V30 31281 C 2906.12 0.822772 -1.69151 0
M  V30 31282 O 2905.47 1.55309 -0.935357 0
M  V30 31283 C 2905.52 -0.833604 -3.50832 0
M  V30 31284 O 2904.63 0.0978064 -4.12284 0
M  V30 31285 H 2903.97 -0.22786 -0.623679 0
M  V30 31286 H 2906.5 -1.25489 -1.61597 0
M  V30 31287 H 2906.51 -0.75163 -4.01017 0
M  V30 31288 H 2905.18 -1.86604 -3.71688 0
M  V30 31289 H 2903.76 -0.0346098 -3.72884 0
M  V30 31290 N 2905.94 1.41194 -0.700139 0
M  V30 31291 C 2907.36 1.84154 -0.307281 0
M  V30 31292 C 2907.71 1.58574 1.15537 0
M  V30 31293 O 2906.83 1.05856 1.88742 0
M  V30 31294 C 2907.43 3.34291 -0.550931 0
M  V30 31295 C 2905.99 3.75803 -0.211943 0
M  V30 31296 C 2905.13 2.64557 -0.830961 0
M  V30 31297 H 2908.08 1.30681 -0.900454 0
M  V30 31298 H 2908.1 3.80031 0.188887 0
M  V30 31299 H 2907.62 3.52877 -1.61554 0
M  V30 31300 H 2905.72 3.62817 0.848219 0
M  V30 31301 H 2905.83 4.7439 -0.670153 0
M  V30 31302 H 2904.19 2.53367 -0.260199 0
M  V30 31303 H 2904.98 2.8596 -1.89953 0
M  V30 31304 N 2907.42 0.445212 1.51181 0
M  V30 31305 C 2908.83 -0.0160671 1.86693 0
M  V30 31306 C 2909.18 -1.41237 1.36185 0
M  V30 31307 O 2908.31 -2.04214 0.715931 0
M  V30 31308 C 2908.9 -0.0359323 3.38781 0
M  V30 31309 C 2907.46 -0.441649 3.738 0
M  V30 31310 C 2906.61 0.360559 2.74946 0
M  V30 31311 H 2909.56 0.6607 1.44293 0
M  V30 31312 H 2909.58 -0.843748 3.71027 0
M  V30 31313 H 2909.09 0.980444 3.75512 0
M  V30 31314 H 2907.2 -1.46334 3.42662 0
M  V30 31315 H 2907.31 -0.160976 4.78829 0
M  V30 31316 H 2905.67 -0.182225 2.54047 0
M  V30 31317 H 2906.46 1.37596 3.14519 0
M  V30 31318 N 2908.9 -1.56605 0.176849 0
M  V30 31319 C 2910.13 -2.01865 -0.475954 0
M  V30 31320 C 2910.55 -1.05626 -1.55643 0
M  V30 31321 O 2909.91 -0.0367048 -1.81263 0
M  V30 31322 C 2909.96 -3.45692 -1.02613 0
M  V30 31323 O 2909.06 -3.52537 -2.13989 0
M  V30 31324 H 2908.4 -0.654253 -0.113351 0
M  V30 31325 H 2910.93 -2.02642 0.282365 0
M  V30 31326 H 2910.94 -3.85111 -1.34735 0
M  V30 31327 H 2909.62 -4.15235 -0.235065 0
M  V30 31328 H 2908.19 -3.24981 -1.8287 0
M  V30 31329 N 2910.38 0.0968524 -1.57302 0
M  V30 31330 C 2911.61 0.81308 -1.89928 0
M  V30 31331 C 2912.02 1.72887 -0.76855 0
M  V30 31332 O 2911.36 1.81727 0.268517 0
M  V30 31333 C 2911.42 1.68077 -3.1779 0
M  V30 31334 C 2911.09 0.936982 -4.47291 0
M  V30 31335 C 2912.08 0.267595 -5.19211 0
M  V30 31336 C 2909.77 0.911584 -4.93959 0
M  V30 31337 C 2911.76 -0.417241 -6.36033 0
M  V30 31338 C 2909.45 0.222961 -6.10693 0
M  V30 31339 C 2910.45 -0.440275 -6.81579 0
M  V30 31340 O 2910.13 -1.11786 -7.9609 0
M  V30 31341 H 2909.87 0.237817 -0.632787 0
M  V30 31342 H 2912.42 0.0790457 -2.05248 0
M  V30 31343 H 2910.65 2.45699 -2.98611 0
M  V30 31344 H 2912.34 2.2734 -3.36261 0
M  V30 31345 H 2913.11 0.278689 -4.84199 0
M  V30 31346 H 2908.98 1.41726 -4.38674 0
M  V30 31347 H 2912.53 -0.935492 -6.91299 0
M  V30 31348 H 2908.43 0.209707 -6.45159 0
M  V30 31349 H 2909.19 -1.02458 -8.12062 0
M  V30 31350 N 2911.86 1.53252 0.36763 0
M  V30 31351 C 2913.13 1.59937 1.12603 0
M  V30 31352 C 2913.51 0.405643 2.07166 0
M  V30 31353 O 2912.86 -0.604284 2.20365 0
M  V30 31354 C 2913.07 2.94867 1.86694 0
M  V30 31355 C 2914.42 3.4937 2.413 0
M  V30 31356 O 2915.44 2.96882 1.96823 0
M  V30 31357 O 2914.3 4.41124 3.22602 0
M  V30 31358 H 2911.4 0.645936 0.516426 0
M  V30 31359 H 2913.94 1.65594 0.371059 0
M  V30 31360 H 2912.71 3.73189 1.17668 0
M  V30 31361 H 2912.34 2.92692 2.69104 0
M  V30 31362 N 2913.34 -0.627313 1.44577 0
M  V30 31363 C 2914.56 -1.41884 1.51273 0
M  V30 31364 C 2914.99 -1.87579 0.139847 0
M  V30 31365 O 2914.34 -1.58968 -0.871718 0
M  V30 31366 C 2914.39 -2.61273 2.48534 0
M  V30 31367 O 2913.5 -3.61238 1.9895 0
M  V30 31368 H 2912.84 -0.42439 0.510676 0
M  V30 31369 H 2915.37 -0.765322 1.89747 0
M  V30 31370 H 2915.38 -3.08768 2.66695 0
M  V30 31371 H 2914.05 -2.2736 3.48253 0
M  V30 31372 H 2912.63 -3.20525 1.90574 0
M  V30 31373 N 2914.81 -1.31539 -0.868063 0
M  V30 31374 C 2916.06 -1.21513 -1.62365 0
M  V30 31375 C 2916.39 0.225786 -1.92883 0
M  V30 31376 O 2915.67 1.15925 -1.56178 0
M  V30 31377 C 2915.95 -2.06134 -2.95264 0
M  V30 31378 C 2915.8 -3.58534 -2.71612 0
M  V30 31379 C 2917.12 -1.91219 -3.96388 0
M  V30 31380 H 2914.24 -0.442772 -0.58917 0
M  V30 31381 H 2916.88 -1.61348 -1.00333 0
M  V30 31382 H 2915.03 -1.7229 -3.48207 0
M  V30 31383 H 2916.71 -4.02524 -2.25327 0
M  V30 31384 H 2914.95 -3.8187 -2.05811 0
M  V30 31385 H 2915.62 -4.13053 -3.66185 0
M  V30 31386 H 2918.1 -2.2084 -3.5266 0
M  V30 31387 H 2916.97 -2.52726 -4.87258 0
M  V30 31388 H 2917.23 -0.876029 -4.33334 0
M  V30 31389 N 2916.29 1.08262 -1.1453 0
M  V30 31390 C 2917.52 1.84416 -0.937996 0
M  V30 31391 C 2917.93 1.81682 0.513538 0
M  V30 31392 O 2917.29 1.22155 1.35589 0
M  V30 31393 C 2917.34 3.31894 -1.43277 0
M  V30 31394 O 2917.06 3.34646 -2.82744 0
M  V30 31395 C 2918.56 4.24849 -1.26562 0
M  V30 31396 H 2915.78 0.58213 -0.333714 0
M  V30 31397 H 2918.33 1.3672 -1.52078 0
M  V30 31398 H 2916.48 3.76974 -0.892719 0
M  V30 31399 H 2916.9 4.26718 -3.04978 0
M  V30 31400 H 2918.37 5.26436 -1.6604 0
M  V30 31401 H 2918.85 4.38704 -0.208666 0
M  V30 31402 H 2919.45 3.85597 -1.7943 0
M  V30 31403 N 2917.77 0.940655 1.26449 0
M  V30 31404 C 2918.72 0.448537 2.264 0
M  V30 31405 C 2919.69 -0.491518 1.58661 0
M  V30 31406 O 2920.87 -0.407841 1.8639 0
M  V30 31407 C 2918.01 -0.280654 3.43957 0
M  V30 31408 C 2917.12 0.695012 4.26373 0
M  V30 31409 C 2916.26 -0.0553253 5.31171 0
M  V30 31410 C 2915.3 0.912197 6.05265 0
M  V30 31411 N 2914.44 0.193647 7.01833 0
M  V30 31412 H 2919.28 1.30581 2.67867 0
M  V30 31413 H 2916.81 0.655136 1.31706 0
M  V30 31414 H 2918.77 -0.719868 4.10943 0
M  V30 31415 H 2917.4 -1.10207 3.03405 0
M  V30 31416 H 2916.45 1.25274 3.59181 0
M  V30 31417 H 2917.76 1.4339 4.77745 0
M  V30 31418 H 2916.92 -0.553845 6.04167 0
M  V30 31419 H 2915.66 -0.827099 4.80635 0
M  V30 31420 H 2914.66 1.42185 5.31097 0
M  V30 31421 H 2915.89 1.68397 6.5789 0
M  V30 31422 H 2913.83 -0.559644 6.53608 0
M  V30 31423 H 2913.75 0.871876 7.50956 0
M  V30 31424 H 2915.02 -0.283795 7.78983 0
M  V30 31425 N 2919.25 -1.40821 0.707617 0
M  V30 31426 C 2920.66 -1.83988 0.317043 0
M  V30 31427 C 2921.01 -1.59185 -1.14694 0
M  V30 31428 O 2920.13 -1.06855 -1.88178 0
M  V30 31429 C 2920.73 -3.33994 0.568651 0
M  V30 31430 C 2919.29 -3.75685 0.23187 0
M  V30 31431 C 2918.44 -2.64112 0.844979 0
M  V30 31432 H 2921.39 -1.30202 0.907372 0
M  V30 31433 H 2921.41 -3.80126 -0.168731 0
M  V30 31434 H 2920.92 -3.52015 1.63423 0
M  V30 31435 H 2919.02 -3.63261 -0.828966 0
M  V30 31436 H 2919.13 -4.74028 0.695302 0
M  V30 31437 H 2917.5 -2.53226 0.273632 0
M  V30 31438 H 2918.28 -2.84948 1.91467 0
M  V30 31439 N 2920.73 -0.453223 -1.50943 0
M  V30 31440 C 2922 0.168599 -1.94872 0
M  V30 31441 C 2922.38 1.58637 -1.39274 0
M  V30 31442 O 2921.73 2.2085 -0.586311 0
M  V30 31443 C 2921.94 0.130156 -3.48757 0
M  V30 31444 C 2923.29 0.3279 -4.23332 0
M  V30 31445 O 2924.31 0.207557 -3.55595 0
M  V30 31446 O 2923.17 0.568981 -5.4353 0
M  V30 31447 H 2920.27 0.121379 -0.818044 0
M  V30 31448 H 2922.81 -0.512344 -1.61781 0
M  V30 31449 H 2921.58 -0.860413 -3.81723 0
M  V30 31450 H 2921.21 0.853329 -3.88335 0
M  V30 31451 N 2922.2 1.56509 -0.185151 0
M  V30 31452 C 2923.15 2.18626 0.73969 0
M  V30 31453 C 2924.12 1.13044 1.21698 0
M  V30 31454 O 2925.31 1.41254 1.28266 0
M  V30 31455 C 2922.45 2.84189 1.95782 0
M  V30 31456 C 2921.56 4.0427 1.52282 0
M  V30 31457 C 2920.69 4.57719 2.69568 0
M  V30 31458 C 2919.73 5.70179 2.22626 0
M  V30 31459 N 2918.87 6.18077 3.33054 0
M  V30 31460 H 2923.71 2.97306 0.203216 0
M  V30 31461 H 2921.25 1.46833 0.0885688 0
M  V30 31462 H 2923.2 3.20366 2.67248 0
M  V30 31463 H 2921.83 2.08089 2.46777 0
M  V30 31464 H 2920.89 3.73821 0.704392 0
M  V30 31465 H 2922.2 4.85637 1.13835 0
M  V30 31466 H 2921.35 4.9615 3.49171 0
M  V30 31467 H 2920.09 3.75438 3.11283 0
M  V30 31468 H 2919.1 5.31286 1.41474 0
M  V30 31469 H 2920.32 6.54271 1.81953 0
M  V30 31470 H 2918.27 5.38722 3.74319 0
M  V30 31471 H 2918.18 6.9447 2.98744 0
M  V30 31472 H 2919.45 6.6116 4.12901 0
M  V30 31473 N 2923.68 -0.0885089 1.57351 0
M  V30 31474 C 2924.59 -1.12512 2.05859 0
M  V30 31475 C 2925.61 -1.4345 0.984783 0
M  V30 31476 O 2926.78 -1.53961 1.29839 0
M  V30 31477 C 2923.85 -2.42391 2.47886 0
M  V30 31478 C 2922.91 -2.18576 3.6949 0
M  V30 31479 C 2922.14 -3.42261 4.09503 0
M  V30 31480 O 2922.37 -4.50749 3.49544 0
M  V30 31481 O 2921.3 -3.3146 5.02412 0
M  V30 31482 H 2925.13 -0.743094 2.94469 0
M  V30 31483 H 2922.71 -0.301481 1.46327 0
M  V30 31484 H 2924.59 -3.18857 2.75515 0
M  V30 31485 H 2923.27 -2.80007 1.62412 0
M  V30 31486 H 2922.17 -1.39869 3.46969 0
M  V30 31487 H 2923.51 -1.85849 4.55764 0
M  V30 31488 N 2925.16 -1.53445 -0.359498 0
M  V30 31489 C 2926.11 -1.80312 -1.4407 0
M  V30 31490 C 2927.08 -0.647837 -1.52945 0
M  V30 31491 O 2928.26 -0.890644 -1.68737 0
M  V30 31492 C 2925.4 -2.0042 -2.80937 0
M  V30 31493 C 2924.51 -3.28137 -2.8098 0
M  V30 31494 C 2923.65 -3.384 -4.09462 0
M  V30 31495 C 2922.69 -4.60126 -4.03671 0
M  V30 31496 N 2921.83 -4.67509 -5.23813 0
M  V30 31497 H 2926.67 -2.72568 -1.2046 0
M  V30 31498 H 2924.2 -1.35018 -0.583836 0
M  V30 31499 H 2926.16 -2.10067 -3.60455 0
M  V30 31500 H 2924.79 -1.11494 -3.02934 0
M  V30 31501 H 2923.84 -3.27414 -1.9366 0
M  V30 31502 H 2925.15 -4.17737 -2.72575 0
M  V30 31503 H 2924.31 -3.47391 -4.97398 0
M  V30 31504 H 2923.05 -2.46827 -4.20628 0
M  V30 31505 H 2922.05 -4.5123 -3.14121 0
M  V30 31506 H 2923.28 -5.53046 -3.94102 0
M  V30 31507 H 2921.22 -3.7884 -5.35552 0
M  V30 31508 H 2921.14 -5.51022 -5.17601 0
M  V30 31509 H 2922.41 -4.80791 -6.13564 0
M  V30 31510 N 2926.64 0.619637 -1.44908 0
M  V30 31511 C 2927.88 1.37895 -1.48294 0
M  V30 31512 C 2928.21 1.9413 -0.119967 0
M  V30 31513 O 2927.47 1.74808 0.879804 0
M  V30 31514 C 2927.77 2.55404 -2.50007 0
M  V30 31515 C 2927.43 2.1739 -3.95035 0
M  V30 31516 C 2926.09 2.06736 -4.34527 0
M  V30 31517 C 2928.45 1.87539 -4.8629 0
M  V30 31518 C 2925.77 1.64436 -5.63185 0
M  V30 31519 C 2928.13 1.46729 -6.15348 0
M  V30 31520 C 2926.79 1.34624 -6.53783 0
M  V30 31521 H 2926.06 0.504594 -0.542647 0
M  V30 31522 H 2928.71 0.70155 -1.78187 0
M  V30 31523 H 2927.01 3.28429 -2.13639 0
M  V30 31524 H 2928.71 3.13634 -2.49869 0
M  V30 31525 H 2925.3 2.26604 -3.63797 0
M  V30 31526 H 2929.48 1.94674 -4.56526 0
M  V30 31527 H 2924.74 1.53677 -5.91771 0
M  V30 31528 H 2928.91 1.22673 -6.8551 0
M  V30 31529 H 2926.54 1.01621 -7.53377 0
M  V30 31530 N 2928.12 1.31997 0.861075 0
M  V30 31531 C 2929.03 1.22377 2.00152 0
M  V30 31532 C 2930.04 0.138662 1.73447 0
M  V30 31533 O 2931.22 0.358139 1.9819 0
M  V30 31534 C 2928.28 0.940703 3.33694 0
M  V30 31535 C 2927.34 2.11361 3.73664 0
M  V30 31536 C 2926.58 1.84395 5.00833 0
M  V30 31537 O 2926.8 0.783386 5.64995 0
M  V30 31538 O 2925.73 2.70323 5.37782 0
M  V30 31539 H 2929.56 2.18236 2.11203 0
M  V30 31540 H 2927.15 1.11824 0.990748 0
M  V30 31541 H 2929.03 0.799059 4.13755 0
M  V30 31542 H 2927.7 0.0122205 3.23698 0
M  V30 31543 H 2926.61 2.3107 2.94207 0
M  V30 31544 H 2927.94 3.02466 3.88298 0
M  V30 31545 N 2929.59 -1.07653 1.15103 0
M  V30 31546 C 2930.54 -2.14775 0.844995 0
M  V30 31547 C 2931.51 -1.64882 -0.200769 0
M  V30 31548 O 2932.7 -1.90675 -0.0689943 0
M  V30 31549 C 2929.84 -3.4345 0.337079 0
M  V30 31550 C 2928.95 -4.0715 1.44405 0
M  V30 31551 C 2928.08 -5.23647 0.892579 0
M  V30 31552 C 2927.12 -5.79304 1.9767 0
M  V30 31553 N 2926.26 -6.87136 1.44183 0
M  V30 31554 H 2931.1 -2.40294 1.76246 0
M  V30 31555 H 2928.64 -1.17915 0.879455 0
M  V30 31556 H 2930.6 -4.17193 0.0243293 0
M  V30 31557 H 2929.23 -3.18192 -0.543475 0
M  V30 31558 H 2928.28 -3.31091 1.87305 0
M  V30 31559 H 2929.59 -4.44526 2.26269 0
M  V30 31560 H 2928.74 -6.04361 0.532189 0
M  V30 31561 H 2927.48 -4.87681 0.0430712 0
M  V30 31562 H 2926.49 -4.97238 2.34595 0
M  V30 31563 H 2927.71 -6.17326 2.82993 0
M  V30 31564 H 2925.66 -6.53114 0.614632 0
M  V30 31565 H 2925.58 -7.23379 2.19678 0
M  V30 31566 H 2926.84 -7.71562 1.10959 0
M  V30 31567 N 2931.07 -0.947348 -1.25949 0
M  V30 31568 C 2932.35 -0.515857 -1.88675 0
M  V30 31569 C 2932.73 1.00671 -1.85549 0
M  V30 31570 O 2932.08 1.86938 -1.31402 0
M  V30 31571 C 2932.29 -1.08421 -3.31732 0
M  V30 31572 C 2933.64 -1.15662 -4.08543 0
M  V30 31573 O 2934.66 -1.03523 -3.40825 0
M  V30 31574 O 2933.52 -1.34617 -5.29661 0
M  V30 31575 H 2930.61 -0.169069 -0.809534 0
M  V30 31576 H 2933.16 -1.04031 -1.34073 0
M  V30 31577 H 2931.93 -2.12766 -3.284 0
M  V30 31578 H 2931.55 -0.542568 -3.93881 0
M  V30 31579 N 2932.55 1.40444 -0.715075 0
M  V30 31580 C 2933.5 2.30716 -0.0621798 0
M  V30 31581 C 2934.47 1.4816 0.750845 0
M  V30 31582 O 2935.65 1.76901 0.714897 0
M  V30 31583 C 2932.79 3.34367 0.853977 0
M  V30 31584 C 2931.91 4.31989 0.0304806 0
M  V30 31585 C 2931.04 5.22707 0.94607 0
M  V30 31586 C 2930.08 6.11989 0.116633 0
M  V30 31587 N 2929.22 6.95127 0.987072 0
M  V30 31588 H 2934.06 2.85984 -0.83769 0
M  V30 31589 H 2931.59 1.40833 -0.424784 0
M  V30 31590 H 2933.55 3.9303 1.39939 0
M  V30 31591 H 2932.18 2.80603 1.59567 0
M  V30 31592 H 2931.23 3.75111 -0.63211 0
M  V30 31593 H 2932.55 4.95035 -0.611702 0
M  V30 31594 H 2931.7 5.863 1.56003 0
M  V30 31595 H 2930.44 4.59935 1.62207 0
M  V30 31596 H 2929.44 5.47427 -0.510272 0
M  V30 31597 H 2930.67 6.76821 -0.555861 0
M  V30 31598 H 2928.61 6.34943 1.64874 0
M  V30 31599 H 2928.53 7.54936 0.400913 0
M  V30 31600 H 2929.8 7.63169 1.58723 0
M  V30 31601 N 2934.03 0.461222 1.507 0
M  V30 31602 C 2935.44 0.00373509 1.867 0
M  V30 31603 C 2935.79 -1.39785 1.37676 0
M  V30 31604 O 2934.92 -2.03443 0.737551 0
M  V30 31605 C 2935.51 1.97394e-06 3.388 0
M  V30 31606 C 2934.07 -0.401978 3.74247 0
M  V30 31607 C 2933.22 0.3897 2.74548 0
M  V30 31608 H 2936.17 0.675967 1.43584 0
M  V30 31609 H 2936.19 -0.804348 3.71901 0
M  V30 31610 H 2935.7 1.02022 3.74451 0
M  V30 31611 H 2933.8 -1.42691 3.44195 0
M  V30 31612 H 2933.91 -0.11018 4.78973 0
M  V30 31613 H 2932.28 -0.155269 2.54226 0
M  V30 31614 H 2933.06 1.40924 3.13042 0
M  V30 31615 N 2935.51 -1.56408 0.193449 0
M  V30 31616 C 2936.42 -2.22621 -0.740073 0
M  V30 31617 C 2937.43 -1.22476 -1.23594 0
M  V30 31618 O 2938.61 -1.55208 -1.28345 0
M  V30 31619 C 2935.67 -2.8713 -1.94312 0
M  V30 31620 C 2934.73 -4.0254 -1.49198 0
M  V30 31621 C 2933.97 -4.63964 -2.63768 0
M  V30 31622 O 2934.19 -4.24308 -3.81208 0
M  V30 31623 O 2933.12 -5.53458 -2.36575 0
M  V30 31624 H 2936.95 -3.02999 -0.206184 0
M  V30 31625 H 2934.54 -1.49357 -0.0357676 0
M  V30 31626 H 2936.42 -3.27949 -2.64627 0
M  V30 31627 H 2935.09 -2.09732 -2.46564 0
M  V30 31628 H 2934 -3.66347 -0.757673 0
M  V30 31629 H 2935.33 -4.81597 -1.01614 0
M  V30 31630 N 2936.98 0.0801629 -1.57396 0
M  V30 31631 C 2937.93 1.09614 -2.03109 0
M  V30 31632 C 2938.9 1.38945 -0.910142 0
M  V30 31633 O 2940.09 1.50154 -1.17721 0
M  V30 31634 C 2937.23 2.40703 -2.47297 0
M  V30 31635 C 2936.34 2.17975 -3.72976 0
M  V30 31636 C 2935.47 3.42569 -4.05981 0
M  V30 31637 C 2934.51 3.15168 -5.24724 0
M  V30 31638 N 2933.65 4.32069 -5.53409 0
M  V30 31639 H 2938.49 0.699339 -2.89678 0
M  V30 31640 H 2936.03 0.33376 -1.43264 0
M  V30 31641 H 2937.99 3.17227 -2.70966 0
M  V30 31642 H 2936.62 2.78202 -1.63718 0
M  V30 31643 H 2935.67 1.32183 -3.56696 0
M  V30 31644 H 2936.98 1.9373 -4.59641 0
M  V30 31645 H 2936.13 4.27493 -4.30505 0
M  V30 31646 H 2934.87 3.69882 -3.17866 0
M  V30 31647 H 2933.88 2.28639 -5.00004 0
M  V30 31648 H 2935.1 2.89186 -6.1445 0
M  V30 31649 H 2933.05 4.59429 -4.68253 0
M  V30 31650 H 2932.97 4.11067 -6.34476 0
M  V30 31651 H 2934.23 5.18014 -5.82479 0
M  V30 31652 N 2938.46 1.53634 0.351355 0
M  V30 31653 C 2939.37 1.84055 1.45468 0
M  V30 31654 C 2940.39 0.730043 1.57944 0
M  V30 31655 O 2941.56 1.02156 1.73569 0
M  V30 31656 C 2938.63 2.03686 2.80558 0
M  V30 31657 C 2937.69 3.27563 2.77491 0
M  V30 31658 C 2936.92 3.46248 4.06138 0
M  V30 31659 O 2937.15 2.68931 5.03023 0
M  V30 31660 O 2936.08 4.39652 4.11084 0
M  V30 31661 H 2939.91 2.77819 1.2268 0
M  V30 31662 H 2937.49 1.39191 0.542802 0
M  V30 31663 H 2939.37 2.18089 3.60576 0
M  V30 31664 H 2938.05 1.13111 3.03294 0
M  V30 31665 H 2936.96 3.18571 1.96121 0
M  V30 31666 H 2938.29 4.18105 2.59709 0
M  V30 31667 N 2939.94 -0.611943 1.45234 0
M  V30 31668 C 2941.17 -1.40272 1.5277 0
M  V30 31669 C 2941.59 -1.87421 0.159734 0
M  V30 31670 O 2940.95 -1.59883 -0.854808 0
M  V30 31671 C 2941 -2.58622 2.51291 0
M  V30 31672 O 2940.1 -3.59107 2.0277 0
M  V30 31673 H 2939.44 -0.418949 0.515148 0
M  V30 31674 H 2941.97 -0.745154 1.90548 0
M  V30 31675 H 2941.98 -3.05922 2.69955 0
M  V30 31676 H 2940.66 -2.23653 3.50645 0
M  V30 31677 H 2939.23 -3.18485 1.93963 0
M  V30 31678 N 2941.42 -1.32452 -0.854063 0
M  V30 31679 C 2942.37 -1.21438 -1.96269 0
M  V30 31680 C 2943.34 -0.0964142 -1.6582 0
M  V30 31681 O 2944.52 -0.272063 -1.8885 0
M  V30 31682 C 2941.66 -0.94401 -3.31937 0
M  V30 31683 C 2940.77 -2.14682 -3.74881 0
M  V30 31684 C 2939.91 -1.81188 -4.99344 0
M  V30 31685 C 2938.95 -2.97786 -5.3478 0
M  V30 31686 N 2938.08 -2.64382 -6.5042 0
M  V30 31687 H 2942.92 -2.16264 -2.05021 0
M  V30 31688 H 2940.46 -1.07559 -1.00346 0
M  V30 31689 H 2942.42 -0.767747 -4.10075 0
M  V30 31690 H 2941.05 -0.032533 -3.22784 0
M  V30 31691 H 2940.1 -2.43333 -2.92392 0
M  V30 31692 H 2941.41 -3.01898 -3.97063 0
M  V30 31693 H 2940.57 -1.60117 -5.8519 0
M  V30 31694 H 2939.31 -0.911861 -4.791 0
M  V30 31695 H 2938.31 -3.19488 -4.47445 0
M  V30 31696 H 2939.54 -3.88521 -5.56981 0
M  V30 31697 H 2937.48 -1.76921 -6.31692 0
M  V30 31698 H 2937.4 -3.45128 -6.72624 0
M  V30 31699 H 2938.67 -2.46742 -7.39418 0
M  V30 31700 N 2942.9 1.07041 -1.15672 0
M  V30 31701 C 2944.15 1.79342 -0.931705 0
M  V30 31702 C 2944.47 1.87305 0.542388 0
M  V30 31703 O 2943.74 1.37624 1.39415 0
M  V30 31704 H 2942.32 0.664256 -0.341721 0
M  V30 31705 H 2944.98 1.29342 -1.45797 0
M  V30 31706 H 2944.07 2.81687 -1.34384 0
M  V30 31707 N 2944.38 0.954014 1.25445 0
M  V30 31708 C 2945.32 0.472524 2.25911 0
M  V30 31709 C 2946.29 -0.474662 1.59173 0
M  V30 31710 O 2947.48 -0.388049 1.86812 0
M  V30 31711 C 2944.62 -0.244157 3.44235 0
M  V30 31712 C 2943.73 0.740196 4.25611 0
M  V30 31713 C 2942.87 0.00101564 5.312 0
M  V30 31714 C 2941.9 0.976342 6.04263 0
M  V30 31715 N 2941.04 0.268075 7.01588 0
M  V30 31716 H 2945.88 1.33415 2.66467 0
M  V30 31717 H 2943.42 0.669068 1.31003 0
M  V30 31718 H 2945.38 -0.676242 4.11683 0
M  V30 31719 H 2944.01 -1.06983 3.04556 0
M  V30 31720 H 2943.06 1.29076 3.57832 0
M  V30 31721 H 2944.37 1.48449 4.76198 0
M  V30 31722 H 2943.52 -0.489734 6.0472 0
M  V30 31723 H 2942.26 -0.776074 4.81486 0
M  V30 31724 H 2941.27 1.4781 5.29559 0
M  V30 31725 H 2942.49 1.75365 6.56067 0
M  V30 31726 H 2940.44 -0.490288 6.54165 0
M  V30 31727 H 2940.36 0.951475 7.49989 0
M  V30 31728 H 2941.62 -0.201157 7.7924 0
M  V30 31729 N 2945.85 -1.40063 0.722513 0
M  V30 31730 C 2946.76 -2.34478 0.0756396 0
M  V30 31731 C 2947.78 -1.57667 -0.736018 0
M  V30 31732 O 2948.96 -1.90021 -0.667374 0
M  V30 31733 C 2946.02 -3.36618 -0.830015 0
M  V30 31734 C 2945.08 -4.29299 -0.00752338 0
M  V30 31735 C 2944.31 -5.2656 -0.870046 0
M  V30 31736 O 2944.54 -5.29974 -2.10912 0
M  V30 31737 O 2943.47 -6.01125 -0.305348 0
M  V30 31738 H 2947.3 -2.91428 0.854597 0
M  V30 31739 H 2944.88 -1.41375 0.483057 0
M  V30 31740 H 2946.76 -3.99239 -1.34857 0
M  V30 31741 H 2945.44 -2.82071 -1.588 0
M  V30 31742 H 2944.35 -3.69941 0.556264 0
M  V30 31743 H 2945.68 -4.87017 0.712397 0
M  V30 31744 N 2947.33 -0.469207 -1.50453 0
M  V30 31745 C 2948.58 0.0865615 -2.02615 0
M  V30 31746 C 2948.91 1.3954 -1.35064 0
M  V30 31747 O 2948.19 1.88592 -0.475734 0
M  V30 31748 C 2948.47 0.272322 -3.59069 0
M  V30 31749 C 2948.32 -1.0574 -4.37195 0
M  V30 31750 C 2949.64 1.02772 -4.27932 0
M  V30 31751 H 2946.76 0.0299848 -0.73639 0
M  V30 31752 H 2949.4 -0.61443 -1.79791 0
M  V30 31753 H 2947.55 0.869404 -3.78647 0
M  V30 31754 H 2949.22 -1.69092 -4.29192 0
M  V30 31755 H 2947.47 -1.65449 -4.0101 0
M  V30 31756 H 2948.14 -0.881092 -5.44923 0
M  V30 31757 H 2950.61 0.521646 -4.12817 0
M  V30 31758 H 2949.49 1.12649 -5.37216 0
M  V30 31759 H 2949.75 2.06383 -3.90971 0
M  V30 31760 N 2948.81 1.56303 -0.201741 0
M  V30 31761 C 2950.23 1.58855 0.153997 0
M  V30 31762 C 2950.43 1.2181 1.60514 0
M  V30 31763 O 2949.48 0.943971 2.34191 0
M  V30 31764 C 2950.79 3.00303 -0.154372 0
M  V30 31765 C 2952.34 3.12856 -0.0950128 0
M  V30 31766 C 2952.82 4.56448 -0.376783 0
M  V30 31767 N 2954.31 4.62054 -0.32564 0
M  V30 31768 C 2955.04 5.71061 -0.51742 0
M  V30 31769 N 2954.54 6.88509 -0.76991 0
M  V30 31770 N 2956.33 5.60286 -0.451219 0
M  V30 31771 H 2948.48 1.78664 -1.14861 0
M  V30 31772 H 2950.75 0.8295 -0.458948 0
M  V30 31773 H 2950.45 3.31992 -1.1608 0
M  V30 31774 H 2950.33 3.73315 0.539948 0
M  V30 31775 H 2952.71 2.80976 0.902026 0
M  V30 31776 H 2952.79 2.42216 -0.822511 0
M  V30 31777 H 2952.44 4.89041 -1.37117 0
M  V30 31778 H 2952.37 5.25287 0.37168 0
M  V30 31779 H 2954.86 3.7765 -0.137375 0
M  V30 31780 H 2955.17 7.67484 -0.904879 0
M  V30 31781 H 2953.52 6.903 -0.80688 0
M  V30 31782 H 2956.71 4.67409 -0.254335 0
M  V30 31783 H 2956.88 6.45178 -0.604095 0
M  V30 31784 N 2950.29 -0.0718147 1.57436 0
M  V30 31785 C 2951.2 -1.10323 2.07041 0
M  V30 31786 C 2952.21 -1.42398 0.999943 0
M  V30 31787 O 2953.39 -1.52575 1.31464 0
M  V30 31788 C 2950.45 -2.39748 2.50443 0
M  V30 31789 C 2949.52 -2.14644 3.71788 0
M  V30 31790 C 2948.75 -3.37899 4.1311 0
M  V30 31791 O 2948.97 -4.47016 3.54306 0
M  V30 31792 O 2947.91 -3.26113 5.05899 0
M  V30 31793 H 2951.73 -0.71182 2.9524 0
M  V30 31794 H 2949.32 -0.285945 1.46638 0
M  V30 31795 H 2951.2 -3.15917 2.78881 0
M  V30 31796 H 2949.87 -2.78269 1.65373 0
M  V30 31797 H 2948.78 -1.36181 3.48433 0
M  V30 31798 H 2950.11 -1.81004 4.5771 0
M  V30 31799 N 2951.77 -1.53818 -0.343203 0
M  V30 31800 C 2952.71 -1.82529 -1.44173 0
M  V30 31801 C 2953.71 -0.695799 -1.54451 0
M  V30 31802 O 2954.91 -0.879142 -1.5707 0
M  V30 31803 H 2951.29 -0.578285 -0.480719 0
M  V30 31804 H 2953.26 -2.74433 -1.17171 0
M  V30 31805 C 2952.01 -2.05202 -2.80691 0
M  V30 31806 H 2951.33 -2.91566 -2.73549 0
M  V30 31807 H 2952.77 -2.29257 -3.56675 0
M  V30 31808 C 2951.23 -0.837646 -3.26321 0
M  V30 31809 O 2951.76 -0.0372337 -4.01683 0
M  V30 31810 N 2949.97 -0.654773 -2.83127 0
M  V30 31811 H 2949.51 -1.30729 -2.21963 0
M  V30 31812 H 2949.47 0.156289 -3.14011 0
M  V30 31813 N 2953.24 0.604233 -1.45557 0
M  V30 31814 C 2954.18 1.72868 -1.50497 0
M  V30 31815 C 2955.19 1.57925 -0.395396 0
M  V30 31816 O 2956.38 1.65745 -0.662633 0
M  V30 31817 C 2953.48 3.10903 -1.34879 0
M  V30 31818 C 2952.65 3.52054 -2.5957 0
M  V30 31819 C 2951.71 4.69066 -2.38461 0
M  V30 31820 O 2950.74 4.76013 -3.1209 0
M  V30 31821 N 2951.94 5.6255 -1.43239 0
M  V30 31822 H 2954.7 1.69092 -2.47443 0
M  V30 31823 H 2952.26 0.789611 -1.41339 0
M  V30 31824 H 2954.26 3.86943 -1.18563 0
M  V30 31825 H 2952.83 3.09168 -0.461967 0
M  V30 31826 H 2952.05 2.65941 -2.90979 0
M  V30 31827 H 2953.33 3.76307 -3.42448 0
M  V30 31828 H 2952.73 5.59655 -0.824813 0
M  V30 31829 H 2951.29 6.38109 -1.32893 0
M  V30 31830 N 2954.72 1.32903 0.847027 0
M  V30 31831 C 2955.67 1.22477 1.95622 0
M  V30 31832 C 2956.64 0.105207 1.65766 0
M  V30 31833 O 2957.82 0.282075 1.88703 0
M  V30 31834 C 2954.96 0.9616 3.31432 0
M  V30 31835 C 2954.08 2.16667 3.73737 0
M  V30 31836 C 2953.21 1.83834 4.98376 0
M  V30 31837 C 2952.25 3.00618 5.33193 0
M  V30 31838 N 2951.39 2.67827 6.49009 0
M  V30 31839 H 2956.23 2.17348 2.03872 0
M  V30 31840 H 2953.76 1.0809 0.997745 0
M  V30 31841 H 2955.72 0.789484 4.09662 0
M  V30 31842 H 2954.35 0.0496505 3.22762 0
M  V30 31843 H 2953.4 2.44881 2.91097 0
M  V30 31844 H 2954.72 3.04 3.95456 0
M  V30 31845 H 2953.87 1.63218 5.84333 0
M  V30 31846 H 2952.61 0.937256 4.78609 0
M  V30 31847 H 2951.61 3.21857 4.45745 0
M  V30 31848 H 2952.84 3.9147 5.54913 0
M  V30 31849 H 2950.79 1.80269 6.30745 0
M  V30 31850 H 2950.7 3.4869 6.70784 0
M  V30 31851 H 2951.97 2.5066 7.38099 0
M  V30 31852 O 2956.24 -0.984584 1.28016 0
M  V30 31853 H 2956.93 -1.60826 1.07957 0
M  V30 END ATOM
M  V30 BEGIN BOND
M  V30 END BOND
M  V30 END CTAB
M  END
$$$$
