drugbank_target|O00555 Voltage-dependent P/Q-type calcium channel subunit alpha-1A (DB00252; DB00653; DB00825; DB09089; DB09231; DB09232; DB09236; DB09238; DB13746)
 OpenBabel12092119303D

  0  0  0     0  0            999 V3000
M  V30 BEGIN CTAB
M  V30 COUNTS 39438 39942 0 0 0
M  V30 BEGIN ATOM
M  V30 1 H -0.908 1.98254 -0.117106 0
M  V30 2 N 0 1.576 0 0
M  V30 3 C 0.933 2.03868 1.02534 0
M  V30 4 C 1.911 0.928543 1.3348 0
M  V30 5 O 3.095 1.19667 1.45644 0
M  V30 6 C 0.222 2.43627 2.35294 0
M  V30 7 C -0.732 3.65373 2.2001 0
M  V30 8 S 0.101 5.13292 1.52614 0
M  V30 9 C 1.257 5.56322 2.86805 0
M  V30 10 H 1.49 2.90518 0.631377 0
M  V30 11 H -0.977 1.52953 0.210867 0
M  V30 12 H 0.981 2.67203 3.11629 0
M  V30 13 H -0.358 1.57376 2.7183 0
M  V30 14 H -1.165 3.90944 3.18086 0
M  V30 15 H -1.563 3.418 1.51819 0
M  V30 16 H 0.729 5.58782 3.83104 0
M  V30 17 H 1.672 6.56266 2.65933 0
M  V30 18 H 2.08 4.83886 2.90714 0
M  V30 19 N 1.4781 -0.272755 1.55222 0
M  V30 20 C 2.4411 -1.32041 1.87344 0
M  V30 21 C 3.4411 -1.42342 0.74803 0
M  V30 22 O 4.6311 -1.41488 1.0162 0
M  V30 23 C 1.7631 -2.70173 2.07893 0
M  V30 24 H 2.9561 -1.04789 2.80997 0
M  V30 25 H 0.5091 -0.51083 1.47717 0
M  V30 26 H 1.2441 -3.02605 1.16622 0
M  V30 27 H 1.0291 -2.64082 2.89833 0
M  V30 28 H 2.5191 -3.45869 2.34017 0
M  V30 29 N 2.9562 -1.48159 -0.537278 0
M  V30 30 C 4.3722 -1.34118 -0.865129 0
M  V30 31 C 4.5722 -0.346678 -1.98495 0
M  V30 32 O 3.6282 0.234715 -2.51407 0
M  V30 33 C 4.9412 -2.73963 -1.23954 0
M  V30 34 C 6.4892 -2.82397 -1.34984 0
M  V30 35 C 6.9642 -4.22928 -1.75772 0
M  V30 36 N 8.4552 -4.25566 -1.82887 0
M  V30 37 C 9.1902 -5.31235 -2.15817 0
M  V30 38 N 8.6862 -6.47189 -2.47222 0
M  V30 39 N 10.4792 -5.18624 -2.16761 0
M  V30 40 H 2.6302 -2.1144 0.201715 0
M  V30 41 H 4.8932 -0.947598 0.0275949 0
M  V30 42 H 4.5992 -3.48264 -0.490381 0
M  V30 43 H 4.4732 -3.0702 -2.19132 0
M  V30 44 H 6.8602 -2.08356 -2.08978 0
M  V30 45 H 6.9412 -2.5297 -0.379448 0
M  V30 46 H 6.5852 -4.97482 -1.02341 0
M  V30 47 H 6.5152 -4.49794 -2.73848 0
M  V30 48 H 9.0062 -3.41924 -1.60924 0
M  V30 49 H 9.3192 -7.23564 -2.71433 0
M  V30 50 H 7.6642 -6.50476 -2.44757 0
M  V30 51 H 10.8552 -4.27056 -1.91679 0
M  V30 52 H 11.0282 -6.01078 -2.42093 0
M  V30 53 N 4.4343 0.785586 -1.36625 0
M  V30 54 C 5.6813 1.54362 -1.31067 0
M  V30 55 C 6.0093 1.94195 0.10893 0
M  V30 56 O 5.2643 1.63262 1.07908 0
M  V30 57 C 5.5633 2.83007 -2.1827 0
M  V30 58 C 5.2293 2.62294 -3.6676 0
M  V30 59 C 3.8913 2.56353 -4.0723 0
M  V30 60 C 6.2433 2.43371 -4.6089 0
M  V30 61 C 3.5713 2.29461 -5.39967 0
M  V30 62 C 5.9233 2.18005 -5.93849 0
M  V30 63 C 4.5873 2.105 -6.3344 0
M  V30 64 H 3.8573 0.564851 -0.479609 0
M  V30 65 H 6.5043 0.906028 -1.68711 0
M  V30 66 H 4.8093 3.51253 -1.73576 0
M  V30 67 H 6.5063 3.40817 -2.11292 0
M  V30 68 H 3.0963 2.67774 -3.34656 0
M  V30 69 H 7.2803 2.46959 -4.30494 0
M  V30 70 H 2.5363 2.22135 -5.69619 0
M  V30 71 H 6.7103 2.02359 -6.66351 0
M  V30 72 H 4.3373 1.89425 -7.36222 0
M  V30 73 N 5.9124 1.20967 1.01018 0
M  V30 74 C 7.1604 1.02172 1.74371 0
M  V30 75 C 7.4814 -0.446414 1.89821 0
M  V30 76 O 6.7514 -1.32234 1.44537 0
M  V30 77 H 5.3314 0.375066 0.646014 0
M  V30 78 H 7.9934 1.52187 1.21758 0
M  V30 79 H 7.0894 1.48538 2.74487 0
M  V30 80 N 7.3905 -1.2043 1.01659 0
M  V30 81 C 8.6675 -1.8548 0.621004 0
M  V30 82 C 9.0475 -1.9091 -0.900919 0
M  V30 83 O 8.3955 -1.41694 -1.79263 0
M  V30 84 C 8.6055 -3.25119 1.2688 0
M  V30 85 C 9.9535 -4.01403 1.38423 0
M  V30 86 O 10.9775 -3.34473 1.22501 0
M  V30 87 O 9.8365 -5.21265 1.64151 0
M  V30 88 H 6.9305 -0.798761 0.214266 0
M  V30 89 H 9.4765 -1.28019 1.11396 0
M  V30 90 H 8.2485 -3.15932 2.30873 0
M  V30 91 H 7.8715 -3.90212 0.762917 0
M  V30 92 N 8.8686 -0.792821 -1.36206 0
M  V30 93 C 9.7786 -0.194808 -2.3379 0
M  V30 94 C 10.7946 0.654869 -1.61206 0
M  V30 95 O 11.9706 0.569856 -1.9317 0
M  V30 96 C 9.0356 0.657721 -3.40404 0
M  V30 97 C 8.0966 -0.210849 -4.28782 0
M  V30 98 C 7.3296 0.601086 -5.30304 0
M  V30 99 O 7.5526 1.83682 -5.40016 0
M  V30 100 O 6.4866 -0.000808277 -6.019 0
M  V30 101 H 10.3126 -1.00172 -2.86704 0
M  V30 102 H 7.8976 -0.554341 -1.38735 0
M  V30 103 H 9.7796 1.14375 -4.05581 0
M  V30 104 H 8.4546 1.44247 -2.89784 0
M  V30 105 H 7.3616 -0.743714 -3.66633 0
M  V30 106 H 8.6946 -0.959195 -4.82763 0
M  V30 107 N 10.3467 1.47872 -0.545128 0
M  V30 108 C 11.2797 2.2675 0.256885 0
M  V30 109 C 12.2577 1.33293 0.931228 0
M  V30 110 O 13.4417 1.62657 0.95262 0
M  V30 111 C 10.5687 3.09976 1.36501 0
M  V30 112 C 9.6147 4.1892 0.800496 0
M  V30 113 S 10.4477 5.34397 -0.343505 0
M  V30 114 C 11.6037 6.21186 0.766733 0
M  V30 115 H 11.8367 2.94425 -0.412479 0
M  V30 116 H 9.3697 1.50806 -0.331204 0
M  V30 117 H 11.3277 3.585 1.9997 0
M  V30 118 H 9.9887 2.41686 2.00616 0
M  V30 119 H 9.1817 4.76836 1.63227 0
M  V30 120 H 8.7837 3.73215 0.242217 0
M  V30 121 H 11.0757 6.56804 1.66178 0
M  V30 122 H 12.0187 7.07742 0.225204 0
M  V30 123 H 12.4267 5.54574 1.05396 0
M  V30 124 N 11.8248 0.280983 1.55075 0
M  V30 125 C 13.2358 -0.215629 1.85451 0
M  V30 126 C 13.5868 -1.54991 1.203 0
M  V30 127 O 12.7118 -2.10699 0.493435 0
M  V30 128 C 13.3068 -0.398026 3.36454 0
M  V30 129 C 11.8658 -0.838866 3.66933 0
M  V30 130 C 11.0128 0.064458 2.77225 0
M  V30 131 H 13.9638 0.502601 1.50531 0
M  V30 132 H 13.9848 -1.23569 3.59876 0
M  V30 133 H 13.4968 0.573241 3.83843 0
M  V30 134 H 11.5978 -1.8214 3.25048 0
M  V30 135 H 11.7108 -0.672123 4.74362 0
M  V30 136 H 10.0748 -0.452863 2.50642 0
M  V30 137 H 10.8578 1.03172 3.2743 0
M  V30 138 N 13.3029 -1.57598 0.00835791 0
M  V30 139 C 14.2659 -2.07884 -0.965242 0
M  V30 140 C 15.2659 -0.989825 -1.26725 0
M  V30 141 O 16.4559 -1.25218 -1.21104 0
M  V30 142 C 13.5879 -2.52731 -2.28779 0
M  V30 143 H 14.7809 -2.95178 -0.530112 0
M  V30 144 H 12.3339 -1.54458 -0.239283 0
M  V30 145 H 13.0689 -1.68705 -2.76964 0
M  V30 146 H 12.8539 -3.32272 -2.08177 0
M  V30 147 H 14.3439 -2.91933 -2.98605 0
M  V30 148 N 14.781 0.264519 -1.55364 0
M  V30 149 C 16.197 0.61215 -1.47394 0
M  V30 150 C 16.397 1.89134 -0.695018 0
M  V30 151 O 15.453 2.51563 -0.217275 0
M  V30 152 C 16.766 0.731235 -2.91674 0
M  V30 153 C 18.314 0.82473 -3.01939 0
M  V30 154 C 18.789 0.975522 -4.4749 0
M  V30 155 N 20.28 1.04083 -4.51354 0
M  V30 156 C 21.015 1.17646 -5.61201 0
M  V30 157 N 20.511 1.27874 -6.80896 0
M  V30 158 N 22.304 1.20823 -5.48961 0
M  V30 159 H 14.455 -0.575456 -2.04456 0
M  V30 160 H 16.718 -0.196099 -0.927496 0
M  V30 161 H 16.424 -0.138392 -3.51428 0
M  V30 162 H 16.298 1.60883 -3.41169 0
M  V30 163 H 18.685 1.68482 -2.42276 0
M  V30 164 H 18.766 -0.0776479 -2.55682 0
M  V30 165 H 18.41 0.120058 -5.07758 0
M  V30 166 H 18.34 1.89268 -4.91412 0
M  V30 167 H 20.831 0.973846 -3.65136 0
M  V30 168 H 21.144 1.38081 -7.60364 0
M  V30 169 H 19.489 1.24863 -6.83692 0
M  V30 170 H 22.68 1.12469 -4.54388 0
M  V30 171 H 22.853 1.31049 -6.3461 0
M  V30 172 N 16.2591 1.48442 0.529413 0
M  V30 173 C 17.4891 1.59919 1.30804 0
M  V30 174 C 17.8971 0.258792 1.87422 0
M  V30 175 O 17.2401 -0.762096 1.67146 0
M  V30 176 C 17.3021 2.58693 2.49636 0
M  V30 177 C 16.9661 4.03745 2.14101 0
M  V30 178 C 17.9631 4.9141 1.6974 0
M  V30 179 C 15.6481 4.49285 2.24607 0
M  V30 180 C 17.6421 6.22645 1.36351 0
M  V30 181 C 15.3291 5.8054 1.9083 0
M  V30 182 C 16.3271 6.67043 1.46773 0
M  V30 183 O 16.0151 7.95856 1.1344 0
M  V30 184 H 15.7471 0.541981 0.404021 0
M  V30 185 H 18.3011 1.95 0.645309 0
M  V30 186 H 16.5311 2.18734 3.18892 0
M  V30 187 H 18.2201 2.59999 3.11698 0
M  V30 188 H 18.9861 4.57465 1.61094 0
M  V30 189 H 14.8651 3.82142 2.57854 0
M  V30 190 H 18.4091 6.90119 1.01891 0
M  V30 191 H 14.3061 6.14022 1.99117 0
M  V30 192 H 15.0741 8.08613 1.26832 0
M  V30 193 N 17.7372 -0.778329 1.37039 0
M  V30 194 C 18.9852 -1.53361 1.31623 0
M  V30 195 C 19.3062 -1.94739 -0.100831 0
M  V30 196 O 18.5762 -1.65797 -1.04347 0
M  V30 197 H 17.1562 -0.568794 0.484234 0
M  V30 198 H 19.8182 -0.926742 1.71457 0
M  V30 199 H 18.9142 -2.43606 1.95096 0
M  V30 200 N 19.2153 -1.21501 -1.00376 0
M  V30 201 C 20.4633 -1.03095 -1.73827 0
M  V30 202 C 20.7843 0.436341 -1.90055 0
M  V30 203 O 20.0543 1.31466 -1.45236 0
M  V30 204 H 18.6343 -0.378487 -0.644016 0
M  V30 205 H 21.2963 -1.52831 -1.20949 0
M  V30 206 H 20.3923 -1.49991 -2.73695 0
M  V30 207 N 20.6934 1.19889 -1.02296 0
M  V30 208 C 21.9414 1.89046 -0.714558 0
M  V30 209 C 22.2624 1.79636 0.758681 0
M  V30 210 O 21.5324 1.20292 1.54618 0
M  V30 211 H 20.1124 0.699802 -0.261317 0
M  V30 212 H 22.7744 1.45574 -1.29592 0
M  V30 213 H 21.8704 2.95524 -1.0036 0
M  V30 214 N 22.1715 0.800033 1.35784 0
M  V30 215 C 23.4195 0.376597 1.9856 0
M  V30 216 C 23.7405 -1.05812 1.63795 0
M  V30 217 O 23.0105 -1.73103 0.917171 0
M  V30 218 H 21.5905 0.136261 0.734467 0
M  V30 219 H 24.2525 1.02442 1.65806 0
M  V30 220 H 23.3485 0.477002 3.08433 0
M  V30 221 N 23.6496 -1.47581 0.552962 0
M  V30 222 C 24.8746 -2.07378 0.0300593 0
M  V30 223 C 25.2996 -1.40355 -1.25229 0
M  V30 224 O 24.6576 -0.477099 -1.7491 0
M  V30 225 C 24.7056 -3.60274 -0.153231 0
M  V30 226 O 23.8096 -3.94041 -1.21678 0
M  V30 227 H 23.1506 -0.662158 0.0494182 0
M  V30 228 H 25.6806 -1.89662 0.767434 0
M  V30 229 H 25.6906 -4.0633 -0.368761 0
M  V30 230 H 24.3656 -4.08455 0.783397 0
M  V30 231 H 22.9426 -3.59735 -0.982079 0
M  V30 232 N 25.1277 -0.289203 -1.54924 0
M  V30 233 C 26.3757 0.322879 -1.99504 0
M  V30 234 C 26.6967 1.55313 -1.1791 0
M  V30 235 O 25.9667 1.94001 -0.272097 0
M  V30 236 H 24.5467 0.122291 -0.736922 0
M  V30 237 H 27.2087 -0.397802 -1.90797 0
M  V30 238 H 26.3047 0.603061 -3.06218 0
M  V30 239 N 26.6058 1.57591 -0.0167156 0
M  V30 240 C 27.5688 2.08393 0.954204 0
M  V30 241 C 28.5688 0.996531 1.26198 0
M  V30 242 O 29.7588 1.25858 1.20438 0
M  V30 243 C 26.8908 2.5394 2.27436 0
M  V30 244 H 28.0838 2.95455 0.514451 0
M  V30 245 H 25.6368 1.54582 0.231089 0
M  V30 246 H 26.3718 1.70171 2.76066 0
M  V30 247 H 26.1568 3.33371 2.06412 0
M  V30 248 H 27.6468 2.93512 2.97053 0
M  V30 249 N 28.0839 -0.256276 1.55502 0
M  V30 250 C 29.0469 -1.30047 1.88734 0
M  V30 251 C 30.0469 -1.4154 0.763086 0
M  V30 252 O 31.2369 -1.40403 1.03115 0
M  V30 253 C 28.3689 -2.67953 2.10747 0
M  V30 254 H 29.5619 -1.01802 2.82093 0
M  V30 255 H 27.1149 -0.495134 1.4825 0
M  V30 256 H 27.8499 -3.01351 1.19825 0
M  V30 257 H 27.6349 -2.60993 2.92617 0
M  V30 258 H 29.1249 -3.43368 2.37673 0
M  V30 259 N 29.562 -1.4872 -0.521534 0
M  V30 260 C 30.525 -1.63379 -1.60748 0
M  V30 261 C 31.525 -0.50661 -1.52611 0
M  V30 262 O 32.715 -0.772601 -1.5613 0
M  V30 263 C 29.847 -1.61192 -3.00383 0
M  V30 264 H 31.04 -2.60217 -1.49087 0
M  V30 265 H 28.593 -1.37444 -0.744235 0
M  V30 266 H 29.328 -0.65863 -3.17541 0
M  V30 267 H 29.113 -2.43032 -3.07698 0
M  V30 268 H 30.603 -1.7466 -3.7932 0
M  V30 269 N 31.0401 0.771051 -1.3745 0
M  V30 270 C 32.2881 1.52661 -1.32435 0
M  V30 271 C 32.6091 1.9479 0.0905024 0
M  V30 272 O 31.8791 1.66348 1.03466 0
M  V30 273 H 30.4591 0.566218 -0.487244 0
M  V30 274 H 33.1211 0.917636 -1.71946 0
M  V30 275 H 32.2171 2.42568 -1.96385 0
M  V30 276 N 32.5182 1.22032 0.997298 0
M  V30 277 C 33.7642 1.04376 1.73878 0
M  V30 278 C 34.0972 -0.420716 1.89588 0
M  V30 279 O 33.3722 -1.31202 1.43583 0
M  V30 280 C 33.6552 1.75047 3.14691 0
M  V30 281 C 33.5082 3.29062 3.06656 0
M  V30 282 C 34.8272 1.49928 4.13775 0
M  V30 283 H 31.9462 0.380578 0.631133 0
M  V30 284 H 34.5882 1.50312 1.16217 0
M  V30 285 H 32.7382 1.35996 3.63919 0
M  V30 286 H 34.4102 3.7753 2.65083 0
M  V30 287 H 32.6532 3.58967 2.43568 0
M  V30 288 H 33.3242 3.73683 4.06282 0
M  V30 289 H 35.8002 1.83842 3.73285 0
M  V30 290 H 34.6762 2.01878 5.10428 0
M  V30 291 H 34.9372 0.430929 4.39995 0
M  V30 292 N 33.9963 -1.19345 1.0293 0
M  V30 293 C 35.2423 -1.89318 0.727083 0
M  V30 294 C 35.5753 -1.79446 -0.742483 0
M  V30 295 O 34.8503 -1.1871 -1.54072 0
M  V30 296 C 35.1333 -3.40238 1.17942 0
M  V30 297 C 34.9863 -3.58979 2.71024 0
M  V30 298 C 36.3053 -4.33479 0.760548 0
M  V30 299 H 33.4243 -0.687475 0.265606 0
M  V30 300 H 36.0663 -1.40477 1.2793 0
M  V30 301 H 34.2163 -3.81964 0.709608 0
M  V30 302 H 35.8883 -3.26421 3.25955 0
M  V30 303 H 34.1313 -3.02018 3.11396 0
M  V30 304 H 34.8023 -4.64823 2.9773 0
M  V30 305 H 37.2783 -3.99469 1.16464 0
M  V30 306 H 36.1543 -5.37664 1.10493 0
M  V30 307 H 36.4153 -4.40813 -0.337063 0
M  V30 308 N 35.4744 -0.807222 -1.35358 0
M  V30 309 C 36.7204 -0.388463 -1.99045 0
M  V30 310 C 37.0534 1.04184 -1.63888 0
M  V30 311 O 36.3284 1.72292 -0.902535 0
M  V30 312 C 36.6114 -0.572783 -3.55515 0
M  V30 313 C 36.4644 -2.04807 -4.00468 0
M  V30 314 C 37.7834 0.00114064 -4.401 0
M  V30 315 H 34.9024 -0.142619 -0.723069 0
M  V30 316 H 37.5444 -1.01687 -1.60498 0
M  V30 317 H 35.6944 -0.0378425 -3.88482 0
M  V30 318 H 37.3664 -2.64544 -3.77908 0
M  V30 319 H 35.6094 -2.54427 -3.51353 0
M  V30 320 H 36.2804 -2.12792 -5.09337 0
M  V30 321 H 38.7564 -0.455716 -4.13597 0
M  V30 322 H 37.6324 -0.157737 -5.48673 0
M  V30 323 H 37.8934 1.09488 -4.28328 0
M  V30 324 N 36.9525 1.47285 -0.560781 0
M  V30 325 C 38.2005 2.02064 -0.0379868 0
M  V30 326 C 38.5215 1.43711 1.31803 0
M  V30 327 O 37.7915 0.61362 1.86042 0
M  V30 328 H 36.3715 0.746918 -0.0110531 0
M  V30 329 H 39.0335 1.80648 -0.731598 0
M  V30 330 H 38.1295 3.12064 0.0474463 0
M  V30 331 N 38.4306 0.297415 1.54768 0
M  V30 332 C 39.6556 -0.318435 2.04941 0
M  V30 333 C 40.0806 -1.4701 1.17345 0
M  V30 334 O 39.4386 -1.80436 0.176758 0
M  V30 335 C 39.4866 -0.755749 3.52592 0
M  V30 336 O 38.5906 -1.86088 3.68028 0
M  V30 337 H 37.9316 -0.062421 0.661059 0
M  V30 338 H 40.4616 0.438215 1.99852 0
M  V30 339 H 40.4716 -1.04552 3.94376 0
M  V30 340 H 39.1466 0.0867233 4.1581 0
M  V30 341 H 37.7236 -1.57193 3.38149 0
M  V30 342 N 39.9087 -1.5758 0.0250728 0
M  V30 343 C 41.1567 -1.91255 -0.653151 0
M  V30 344 C 41.4777 -0.901691 -1.729 0
M  V30 345 O 40.7477 0.0573785 -1.95816 0
M  V30 346 H 39.3277 -0.705942 -0.244243 0
M  V30 347 H 41.9897 -1.94767 0.0719209 0
M  V30 348 H 41.0857 -2.91752 -1.10847 0
M  V30 349 N 41.3868 0.248026 -1.55636 0
M  V30 350 C 42.6348 0.974295 -1.77065 0
M  V30 351 C 42.9558 1.85897 -0.588849 0
M  V30 352 O 42.2258 1.91868 0.395407 0
M  V30 353 H 40.8058 0.362733 -0.653019 0
M  V30 354 H 43.4678 0.266244 -1.93073 0
M  V30 355 H 42.5638 1.59667 -2.68166 0
M  V30 356 N 42.8649 1.48995 0.513639 0
M  V30 357 C 44.1129 1.57531 1.26604 0
M  V30 358 C 44.4339 0.258236 1.93283 0
M  V30 359 O 43.7039 -0.721502 1.8213 0
M  V30 360 H 42.2839 0.580387 0.470276 0
M  V30 361 H 44.9459 1.85552 0.596373 0
M  V30 362 H 44.0419 2.36486 2.03669 0
M  V30 363 N 44.343 -0.763751 1.37857 0
M  V30 364 C 45.759 -1.06542 1.18832 0
M  V30 365 C 45.959 -2.01478 0.0299722 0
M  V30 366 O 45.015 -2.4458 -0.627447 0
M  V30 367 C 46.328 -1.65525 2.51042 0
M  V30 368 C 47.876 -1.77745 2.57635 0
M  V30 369 C 48.351 -2.4014 3.89996 0
M  V30 370 N 49.842 -2.47582 3.91481 0
M  V30 371 C 50.577 -2.96732 4.9065 0
M  V30 372 N 50.073 -3.45993 6.00217 0
M  V30 373 N 51.866 -2.95679 4.78048 0
M  V30 374 H 44.017 -0.133556 2.1198 0
M  V30 375 H 46.28 -0.121879 0.940133 0
M  V30 376 H 45.986 -1.03236 3.36207 0
M  V30 377 H 45.86 -2.64719 2.68707 0
M  V30 378 H 48.247 -2.39164 1.72872 0
M  V30 379 H 48.328 -0.772836 2.43846 0
M  V30 380 H 47.972 -1.79358 4.75177 0
M  V30 381 H 47.902 -3.41223 4.01092 0
M  V30 382 H 50.393 -2.1273 3.12337 0
M  V30 383 H 50.706 -3.81922 6.7183 0
M  V30 384 H 49.051 -3.44077 6.03851 0
M  V30 385 H 52.242 -2.56499 3.91568 0
M  V30 386 H 52.415 -3.33672 5.55488 0
M  V30 387 N 45.8211 -1.22559 -0.990812 0
M  V30 388 C 47.0691 -1.04933 -1.72724 0
M  V30 389 C 47.3901 0.416158 -1.90508 0
M  V30 390 O 46.6601 1.29918 -1.46622 0
M  V30 391 H 45.2401 -0.385296 -0.639965 0
M  V30 392 H 47.9021 -1.54105 -1.19322 0
M  V30 393 H 46.9981 -1.52886 -2.72089 0
M  V30 394 N 47.2992 1.18797 -1.03562 0
M  V30 395 C 48.2622 2.20464 -0.626769 0
M  V30 396 C 49.2622 1.57721 0.313173 0
M  V30 397 O 50.4522 1.73917 0.0992615 0
M  V30 398 C 47.5842 3.40802 0.0818498 0
M  V30 399 H 48.7772 2.58149 -1.5264 0
M  V30 400 H 46.3302 1.32593 -0.827578 0
M  V30 401 H 47.0652 3.08642 0.995518 0
M  V30 402 H 46.8502 3.8758 -0.593652 0
M  V30 403 H 48.3402 4.16092 0.354584 0
M  V30 404 N 48.7773 0.814389 1.34928 0
M  V30 405 C 50.0253 0.397636 1.9815 0
M  V30 406 C 50.3463 -1.04069 1.64908 0
M  V30 407 O 49.6163 -1.72121 0.93548 0
M  V30 408 H 48.1963 0.144043 0.732981 0
M  V30 409 H 50.8583 1.04195 1.6471 0
M  V30 410 H 49.9543 0.509688 3.0791 0
M  V30 411 N 50.2554 -1.46986 0.568584 0
M  V30 412 C 51.5034 -2.02041 0.0487022 0
M  V30 413 C 51.8244 -1.44408 -1.31039 0
M  V30 414 O 51.0944 -0.623477 -1.85714 0
M  V30 415 H 49.6744 -0.746849 0.015014 0
M  V30 416 H 52.3364 -1.80257 0.741168 0
M  V30 417 H 51.4324 -3.12085 -0.0308961 0
M  V30 418 N 51.7335 -0.305618 -1.54608 0
M  V30 419 C 52.9585 0.307562 -2.05107 0
M  V30 420 C 53.3835 1.46385 -1.18123 0
M  V30 421 O 52.7415 1.8034 -0.186324 0
M  V30 422 C 52.7895 0.73704 -3.52987 0
M  V30 423 O 51.8935 1.84134 -3.6901 0
M  V30 424 H 51.2345 0.0589143 -0.661381 0
M  V30 425 H 53.7645 -0.448807 -1.99617 0
M  V30 426 H 53.7745 1.02459 -3.94925 0
M  V30 427 H 52.4495 -0.108773 -4.15758 0
M  V30 428 H 51.0265 1.55398 -3.38978 0
M  V30 429 N 53.2116 1.57565 -0.0334293 0
M  V30 430 C 54.6276 1.56297 0.322997 0
M  V30 431 C 54.8276 1.03945 1.7262 0
M  V30 432 O 53.8836 0.688109 2.42943 0
M  V30 433 C 55.1966 3.00232 0.167664 0
M  V30 434 C 56.7446 3.12078 0.240107 0
M  V30 435 C 57.2196 4.57859 0.113513 0
M  V30 436 N 58.7106 4.62887 0.170359 0
M  V30 437 C 59.4456 5.73319 0.0962517 0
M  V30 438 N 58.9416 6.92794 -0.0291881 0
M  V30 439 N 60.7346 5.61898 0.150551 0
M  V30 440 H 52.8856 1.89923 -0.950956 0
M  V30 441 H 55.1486 0.873824 -0.367608 0
M  V30 442 H 54.8546 3.42501 -0.799102 0
M  V30 443 H 54.7286 3.654 0.936083 0
M  V30 444 H 57.1156 2.69718 1.19733 0
M  V30 445 H 57.1966 2.49623 -0.558763 0
M  V30 446 H 56.8406 5.009 -0.840314 0
M  V30 447 H 56.7706 5.18299 0.931302 0
M  V30 448 H 59.2616 3.76954 0.26728 0
M  V30 449 H 59.5746 7.7276 -0.0789252 0
M  V30 450 H 57.9196 6.94971 -0.0640299 0
M  V30 451 H 61.1106 4.67448 0.246981 0
M  V30 452 H 61.2836 6.47938 0.0893365 0
M  V30 453 N 54.6897 -0.239769 1.55765 0
M  V30 454 C 55.6217 -1.32001 1.87372 0
M  V30 455 C 56.6347 -1.43944 0.760522 0
M  V30 456 O 57.8237 -1.45167 1.0387 0
M  V30 457 C 54.9237 -2.69779 2.05115 0
M  V30 458 C 54.0967 -2.80014 3.36022 0
M  V30 459 C 53.1557 -3.98684 3.4342 0
M  V30 460 O 52.1817 -3.87877 4.16582 0
M  V30 461 N 53.3837 -5.12176 2.73232 0
M  V30 462 H 56.1487 -1.0522 2.80622 0
M  V30 463 H 53.7097 -0.429857 1.56089 0
M  V30 464 H 55.7017 -3.47517 2.07399 0
M  V30 465 H 54.2717 -2.89237 1.18577 0
M  V30 466 H 53.4917 -1.88896 3.45994 0
M  V30 467 H 54.7797 -2.83808 4.22292 0
M  V30 468 H 54.1777 -5.2385 2.13536 0
M  V30 469 H 52.7347 -5.88022 2.81199 0
M  V30 470 N 56.1678 -1.49265 -0.50573 0
M  V30 471 C 57.4158 -1.582 -1.25766 0
M  V30 472 C 57.7368 -0.268482 -1.93143 0
M  V30 473 O 57.0068 0.711833 -1.8251 0
M  V30 474 H 55.5868 -0.582873 -0.467191 0
M  V30 475 H 58.2488 -1.85865 -0.586525 0
M  V30 476 H 57.3448 -2.37563 -2.02412 0
M  V30 477 N 57.6459 0.756429 -1.3826 0
M  V30 478 C 58.8939 1.51248 -1.34047 0
M  V30 479 C 59.2149 1.94875 0.0698372 0
M  V30 480 O 58.4849 1.67436 1.01696 0
M  V30 481 H 57.0649 0.561018 -0.493222 0
M  V30 482 H 59.7269 0.899347 -1.7291 0
M  V30 483 H 58.8229 2.40472 -1.98947 0
M  V30 484 N 59.124 1.23083 0.984299 0
M  V30 485 C 60.056 0.96636 2.07832 0
M  V30 486 C 61.069 -0.0582135 1.62696 0
M  V30 487 O 62.258 0.176843 1.77622 0
M  V30 488 C 59.358 0.433397 3.36117 0
M  V30 489 C 58.531 1.51722 4.10243 0
M  V30 490 C 57.59 0.989821 5.16807 0
M  V30 491 O 56.616 1.67794 5.43906 0
M  V30 492 N 57.818 -0.184367 5.80207 0
M  V30 493 H 60.583 1.90824 2.31098 0
M  V30 494 H 58.144 1.13888 1.1507 0
M  V30 495 H 60.136 0.065699 4.04647 0
M  V30 496 H 58.706 -0.413806 3.09849 0
M  V30 497 H 57.926 2.05786 3.36223 0
M  V30 498 H 59.214 2.24619 4.56534 0
M  V30 499 H 58.612 -0.760062 5.60571 0
M  V30 500 H 57.169 -0.493366 6.4993 0
M  V30 501 N 60.6021 -1.18246 1.0419 0
M  V30 502 C 62.0131 -1.69914 0.773698 0
M  V30 503 C 62.3641 -1.83085 -0.705297 0
M  V30 504 O 61.4891 -1.51123 -1.5489 0
M  V30 505 C 62.0841 -3.08619 1.39784 0
M  V30 506 C 60.6431 -3.57494 1.17792 0
M  V30 507 C 59.7901 -2.34013 1.48773 0
M  V30 508 H 62.7411 -1.02904 1.20816 0
M  V30 509 H 62.7621 -3.71958 0.801714 0
M  V30 510 H 62.2741 -2.99001 2.47426 0
M  V30 511 H 60.3751 -3.72406 0.120295 0
M  V30 512 H 60.4881 -4.40852 1.87581 0
M  V30 513 H 58.8521 -2.37986 0.907463 0
M  V30 514 H 59.6351 -2.27013 2.57527 0
M  V30 515 N 62.0802 -0.821533 -1.34494 0
M  V30 516 C 63.3282 -0.408139 -1.97936 0
M  V30 517 C 63.6492 1.03193 -1.65457 0
M  V30 518 O 62.9192 1.71622 -0.944595 0
M  V30 519 H 61.4992 -0.147928 -0.732206 0
M  V30 520 H 64.1612 -1.05067 -1.64155 0
M  V30 521 H 63.2572 -0.52601 -3.07635 0
M  V30 522 N 63.5583 1.46682 -0.576371 0
M  V30 523 C 64.5213 2.28707 0.150239 0
M  V30 524 C 65.5213 1.38035 0.824794 0
M  V30 525 O 66.7113 1.60476 0.677719 0
M  V30 526 C 63.8433 3.18248 1.22192 0
M  V30 527 H 65.0363 2.94423 -0.570521 0
M  V30 528 H 62.5893 1.52688 -0.334078 0
M  V30 529 H 63.3243 2.57265 1.97447 0
M  V30 530 H 63.1093 3.85 0.742812 0
M  V30 531 H 64.5993 3.80001 1.73172 0
M  V30 532 N 65.0364 0.313813 1.54444 0
M  V30 533 C 65.9684 -0.590425 2.21465 0
M  V30 534 C 66.9814 -1.08753 1.21147 0
M  V30 535 O 68.1704 -1.00278 1.4767 0
M  V30 536 C 65.2704 -1.82179 2.85769 0
M  V30 537 C 64.4434 -1.46502 4.12136 0
M  V30 538 C 63.5024 -2.55288 4.60124 0
M  V30 539 O 62.5284 -2.19842 5.25032 0
M  V30 540 N 63.7304 -3.86053 4.33525 0
M  V30 541 H 66.4954 -0.0166033 2.99695 0
M  V30 542 H 64.0564 0.136578 1.61323 0
M  V30 543 H 66.0484 -2.54328 3.14801 0
M  V30 544 H 64.6184 -2.30369 2.11303 0
M  V30 545 H 63.8384 -0.575595 3.89975 0
M  V30 546 H 65.1264 -1.20221 4.94393 0
M  V30 547 H 64.5244 -4.17654 3.81552 0
M  V30 548 H 63.0814 -4.54461 4.67235 0
M  V30 549 N 66.5145 -1.57545 0.0417849 0
M  V30 550 C 67.9305 -1.56467 -0.314704 0
M  V30 551 C 68.1305 -1.04859 -1.72066 0
M  V30 552 O 67.1865 -0.700983 -2.42575 0
M  V30 553 C 68.4995 -3.00317 -0.15174 0
M  V30 554 C 70.0475 -3.12201 -0.223553 0
M  V30 555 C 70.5225 -4.57913 -0.0892295 0
M  V30 556 N 72.0135 -4.6297 -0.145808 0
M  V30 557 C 72.7485 -5.73362 -0.0658459 0
M  V30 558 N 72.2445 -6.92769 0.0659282 0
M  V30 559 N 74.0375 -5.6197 -0.12075 0
M  V30 560 H 66.1885 -1.89416 0.961014 0
M  V30 561 H 68.4515 -0.871862 0.372237 0
M  V30 562 H 68.1575 -3.42073 0.817254 0
M  V30 563 H 68.0315 -3.65892 -0.916692 0
M  V30 564 H 70.4185 -2.70349 -1.18301 0
M  V30 565 H 70.4995 -2.49323 0.571994 0
M  V30 566 H 70.1435 -5.00448 0.866867 0
M  V30 567 H 70.0735 -5.18786 -0.903802 0
M  V30 568 H 72.5645 -3.7709 -0.247286 0
M  V30 569 H 72.8775 -7.72707 0.119905 0
M  V30 570 H 71.2225 -6.94927 0.100885 0
M  V30 571 H 74.4135 -4.67572 -0.222187 0
M  V30 572 H 74.5865 -6.47977 -0.0549735 0
M  V30 573 N 67.9926 0.231505 -1.5589 0
M  V30 574 C 68.9256 1.31369 -1.86595 0
M  V30 575 C 69.9036 1.45671 -0.722397 0
M  V30 576 O 71.0876 1.61642 -0.969743 0
M  V30 577 C 68.2146 2.68529 -2.06421 0
M  V30 578 C 67.2606 2.71295 -3.29092 0
M  V30 579 S 68.0936 2.26358 -4.85306 0
M  V30 580 C 69.2496 3.65414 -5.08157 0
M  V30 581 H 69.4826 1.05128 -2.78092 0
M  V30 582 H 67.0156 0.433259 -1.48197 0
M  V30 583 H 68.9736 3.47499 -2.18528 0
M  V30 584 H 67.6346 2.91999 -1.15738 0
M  V30 585 H 66.8276 3.72063 -3.39978 0
M  V30 586 H 66.4296 2.0038 -3.15791 0
M  V30 587 H 68.7216 4.6103 -4.96445 0
M  V30 588 H 69.6646 3.5945 -6.10083 0
M  V30 589 H 70.0726 3.5864 -4.35933 0
M  V30 590 N 69.4707 1.49531 0.497807 0
M  V30 591 C 70.7007 1.62657 1.27382 0
M  V30 592 C 71.1087 0.298488 1.86831 0
M  V30 593 O 70.4517 -0.72647 1.68725 0
M  V30 594 C 70.5137 2.6393 2.44093 0
M  V30 595 C 70.1777 4.08195 2.05489 0
M  V30 596 C 71.1747 4.949 1.59279 0
M  V30 597 C 68.8597 4.53948 2.15026 0
M  V30 598 C 70.8537 6.25397 1.23113 0
M  V30 599 C 68.5407 5.84458 1.78473 0
M  V30 600 C 69.5387 6.70006 1.32591 0
M  V30 601 O 69.2267 7.98083 0.965327 0
M  V30 602 H 68.9587 0.550429 0.392434 0
M  V30 603 H 71.5127 1.96325 0.603801 0
M  V30 604 H 69.7427 2.25449 3.14181 0
M  V30 605 H 71.4317 2.66552 3.06113 0
M  V30 606 H 72.1977 4.60779 1.51354 0
M  V30 607 H 68.0767 3.87525 2.4969 0
M  V30 608 H 71.6207 6.92125 0.872299 0
M  V30 609 H 67.5177 6.18107 1.86048 0
M  V30 610 H 68.2857 8.11122 1.09652 0
M  V30 611 N 70.9488 -0.749086 1.3866 0
M  V30 612 C 71.8958 -1.86291 1.36251 0
M  V30 613 C 72.8658 -1.64578 0.224347 0
M  V30 614 O 74.0508 -1.86181 0.417279 0
M  V30 615 C 71.1908 -3.23644 1.19786 0
M  V30 616 C 70.3038 -3.57158 2.43027 0
M  V30 617 C 69.4388 -4.83838 2.19258 0
M  V30 618 C 68.4778 -5.10152 3.38247 0
M  V30 619 N 67.6148 -6.28029 3.13884 0
M  V30 620 H 72.4548 -1.87685 2.3147 0
M  V30 621 H 69.9918 -0.917287 1.14997 0
M  V30 622 H 71.9498 -4.0291 1.08254 0
M  V30 623 H 70.5798 -3.21566 0.282031 0
M  V30 624 H 69.6318 -2.72701 2.65214 0
M  V30 625 H 70.9438 -3.7253 3.31697 0
M  V30 626 H 70.0978 -5.71057 2.04888 0
M  V30 627 H 68.8368 -4.70614 1.2796 0
M  V30 628 H 67.8418 -4.21401 3.53131 0
M  V30 629 H 69.0668 -5.25271 4.30427 0
M  V30 630 H 67.0128 -6.1612 2.25238 0
M  V30 631 H 66.9298 -6.43922 3.96106 0
M  V30 632 H 68.1978 -7.18124 3.03179 0
M  V30 633 N 72.4269 -1.23603 -0.977757 0
M  V30 634 C 73.3589 -0.977369 -2.07317 0
M  V30 635 C 74.3719 0.0495845 -1.62724 0
M  V30 636 O 75.5609 -0.186261 -1.77526 0
M  V30 637 C 72.6609 -0.451216 -3.35883 0
M  V30 638 C 71.8339 -1.53896 -4.09432 0
M  V30 639 C 70.8929 -1.01721 -5.16274 0
M  V30 640 O 69.9189 -1.70676 -5.43009 0
M  V30 641 N 71.1209 0.153594 -5.80297 0
M  V30 642 H 73.8859 -1.92047 -2.30082 0
M  V30 643 H 71.4469 -1.14497 -1.14465 0
M  V30 644 H 73.4389 -0.0871574 -4.04606 0
M  V30 645 H 72.0089 0.397368 -3.10064 0
M  V30 646 H 71.2289 -2.07566 -3.35127 0
M  V30 647 H 72.5169 -2.27037 -4.55337 0
M  V30 648 H 71.9149 0.730323 -5.60966 0
M  V30 649 H 70.4719 0.458892 -6.50183 0
M  V30 650 N 73.905 1.17692 -1.04816 0
M  V30 651 C 75.13 1.92327 -0.776207 0
M  V30 652 C 75.555 1.76082 0.661581 0
M  V30 653 O 74.913 1.076 1.45917 0
M  V30 654 C 74.961 3.41539 -1.15687 0
M  V30 655 O 74.065 4.11402 -0.286775 0
M  V30 656 H 73.406 0.599735 -0.284981 0
M  V30 657 H 75.936 1.49201 -1.4 0
M  V30 658 H 75.946 3.92269 -1.12202 0
M  V30 659 H 74.621 3.52684 -2.20425 0
M  V30 660 H 73.198 3.70939 -0.381903 0
M  V30 661 N 75.3831 0.828654 1.34056 0
M  V30 662 C 76.3161 0.199763 2.27324 0
M  V30 663 C 77.2941 -0.647168 1.49166 0
M  V30 664 O 78.4781 -0.609661 1.78369 0
M  V30 665 C 75.6051 -0.720455 3.30949 0
M  V30 666 C 74.6511 0.0496888 4.26471 0
M  V30 667 S 75.4841 1.40072 5.16856 0
M  V30 668 C 76.6401 0.485527 6.24014 0
M  V30 669 H 76.8731 0.990478 2.80316 0
M  V30 670 H 74.4061 0.624857 1.41191 0
M  V30 671 H 76.3641 -1.24581 3.91139 0
M  V30 672 H 75.0251 -1.48474 2.76793 0
M  V30 673 H 74.2181 -0.650104 4.9979 0
M  V30 674 H 73.8201 0.505779 3.70564 0
M  V30 675 H 76.1121 -0.320672 6.76741 0
M  V30 676 H 77.0551 1.18856 6.98054 0
M  V30 677 H 77.4631 0.0714109 5.64455 0
M  V30 678 N 76.8612 -1.46375 0.584142 0
M  V30 679 C 77.8242 -2.28784 -0.138108 0
M  V30 680 C 78.8242 -1.38471 -0.817462 0
M  V30 681 O 80.0142 -1.60833 -0.669199 0
M  V30 682 C 77.1462 -3.18892 -1.20503 0
M  V30 683 H 78.3392 -2.94117 0.586127 0
M  V30 684 H 75.8922 -1.52509 0.342171 0
M  V30 685 H 76.6272 -2.58309 -1.96079 0
M  V30 686 H 76.4122 -3.85388 -0.722384 0
M  V30 687 H 77.9022 -3.80914 -1.71155 0
M  V30 688 N 78.3393 -0.321999 -1.54275 0
M  V30 689 C 79.2713 0.578671 -2.21775 0
M  V30 690 C 80.2843 1.08109 -1.21722 0
M  V30 691 O 81.4733 0.994938 -1.482 0
M  V30 692 C 78.5733 1.80661 -2.86731 0
M  V30 693 C 77.7463 1.44314 -4.12907 0
M  V30 694 C 76.8053 2.52845 -4.61472 0
M  V30 695 O 75.8313 2.17054 -5.2619 0
M  V30 696 N 77.0333 3.83748 -4.35566 0
M  V30 697 H 79.7983 0.000709447 -2.997 0
M  V30 698 H 77.3593 -0.145132 -1.61248 0
M  V30 699 H 79.3513 2.52655 -3.16145 0
M  V30 700 H 77.9213 2.29245 -2.12521 0
M  V30 701 H 77.1413 0.554906 -3.90275 0
M  V30 702 H 78.4293 1.17598 -4.95023 0
M  V30 703 H 77.8273 4.15625 -3.83761 0
M  V30 704 H 76.3843 4.51977 -4.69638 0
M  V30 705 N 79.8174 1.5752 -0.0501392 0
M  V30 706 C 81.2334 1.56631 0.306402 0
M  V30 707 C 81.4334 1.0577 1.71508 0
M  V30 708 O 80.4894 0.713837 2.422 0
M  V30 709 C 81.8024 3.00393 0.135811 0
M  V30 710 C 83.3504 3.12315 0.206993 0
M  V30 711 C 83.8254 4.57954 0.064944 0
M  V30 712 N 85.3164 4.63041 0.121254 0
M  V30 713 C 86.0514 5.73389 0.0354381 0
M  V30 714 N 85.5474 6.92724 -0.102666 0
M  V30 715 N 87.3404 5.62026 0.090946 0
M  V30 716 H 79.4914 1.88903 -0.971046 0
M  V30 717 H 81.7544 0.869876 -0.376855 0
M  V30 718 H 81.4604 3.41635 -0.835384 0
M  V30 719 H 81.3344 3.66373 0.897275 0
M  V30 720 H 83.7214 2.70973 1.16866 0
M  V30 721 H 83.8024 2.49016 -0.585208 0
M  V30 722 H 83.4464 4.99981 -0.893394 0
M  V30 723 H 83.3764 5.19258 0.876277 0
M  V30 724 H 85.8674 3.77216 0.227284 0
M  V30 725 H 86.1804 7.72633 -0.160882 0
M  V30 726 H 84.5254 6.94864 -0.137737 0
M  V30 727 H 87.7164 4.67684 0.197388 0
M  V30 728 H 87.8894 6.47997 0.0206089 0
M  V30 729 N 81.2955 -0.223234 1.56011 0
M  V30 730 C 82.2585 -1.26014 1.9145 0
M  V30 731 C 83.2585 -1.3989 0.792937 0
M  V30 732 O 84.4485 -1.38184 1.0607 0
M  V30 733 C 81.5805 -2.63422 2.16383 0
M  V30 734 H 82.7735 -0.95796 2.84189 0
M  V30 735 H 80.3265 -0.463576 1.49267 0
M  V30 736 H 81.0615 -2.98741 1.2619 0
M  V30 737 H 80.8465 -2.54728 2.98088 0
M  V30 738 H 82.3365 -3.38249 2.44903 0
M  V30 739 N 82.7736 -1.49793 -0.48987 0
M  V30 740 C 84.1896 -1.36803 -0.822022 0
M  V30 741 C 84.3896 -0.409652 -1.97292 0
M  V30 742 O 83.4456 0.154614 -2.52026 0
M  V30 743 C 84.7586 -2.77768 -1.15175 0
M  V30 744 C 86.3066 -2.86549 -1.25931 0
M  V30 745 C 86.7816 -4.28306 -1.62228 0
M  V30 746 N 88.2726 -4.31169 -1.69256 0
M  V30 747 C 89.0076 -5.37832 -1.98807 0
M  V30 748 N 88.5036 -6.54726 -2.26507 0
M  V30 749 N 90.2966 -5.25258 -2.00152 0
M  V30 750 H 82.4476 -2.10691 0.268881 0
M  V30 751 H 84.7106 -0.946241 0.057728 0
M  V30 752 H 84.4166 -3.49648 -0.379335 0
M  V30 753 H 84.2906 -3.13836 -2.09253 0
M  V30 754 H 86.6776 -2.14899 -2.02243 0
M  V30 755 H 86.7586 -2.54049 -0.298776 0
M  V30 756 H 86.4026 -5.00486 -0.864622 0
M  V30 757 H 86.3326 -4.58279 -2.594 0
M  V30 758 H 88.8236 -3.4687 -1.49965 0
M  V30 759 H 89.1366 -7.31833 -2.48276 0
M  V30 760 H 87.4816 -6.57933 -2.23939 0
M  V30 761 H 90.6726 -4.32938 -1.77996 0
M  V30 762 H 90.8456 -6.08476 -2.22848 0
M  V30 763 N 84.2517 0.741722 -1.39055 0
M  V30 764 C 85.4797 1.53098 -1.39171 0
M  V30 765 C 85.8947 1.88794 0.0155099 0
M  V30 766 O 85.2517 1.53626 0.985159 0
M  V30 767 C 85.3027 2.82274 -2.2584 0
M  V30 768 O 85.0237 2.48097 -3.61081 0
M  V30 769 C 86.5247 3.76343 -2.34266 0
M  V30 770 H 83.7447 0.473335 -0.4756 0
M  V30 771 H 86.2887 0.917045 -1.82785 0
M  V30 772 H 84.4437 3.40015 -1.85656 0
M  V30 773 H 84.8577 3.31029 -4.06842 0
M  V30 774 H 86.3317 4.63898 -2.9917 0
M  V30 775 H 86.8087 4.17619 -1.35982 0
M  V30 776 H 87.4147 3.24523 -2.74891 0
M  V30 777 N 85.7298 1.2412 0.971189 0
M  V30 778 C 86.6628 0.97373 2.06382 0
M  V30 779 C 87.6408 -0.0912662 1.62344 0
M  V30 780 O 88.8248 0.0449365 1.88446 0
M  V30 781 C 85.9518 0.468746 3.35441 0
M  V30 782 C 84.9978 1.52176 3.98428 0
M  V30 783 S 85.8308 3.10203 4.36503 0
M  V30 784 C 86.9868 2.61398 5.68702 0
M  V30 785 H 87.2198 1.89893 2.28753 0
M  V30 786 H 84.7528 1.07466 1.10862 0
M  V30 787 H 86.7108 0.184012 4.10087 0
M  V30 788 H 85.3718 -0.435688 3.11064 0
M  V30 789 H 84.5648 1.11876 4.91426 0
M  V30 790 H 84.1668 1.75632 3.30196 0
M  V30 791 H 86.4588 2.03992 6.4606 0
M  V30 792 H 87.4018 3.52972 6.13854 0
M  V30 793 H 87.8098 2.01941 5.27143 0
M  V30 794 N 87.2079 -1.17134 1.05439 0
M  V30 795 C 88.1709 -2.19439 0.661764 0
M  V30 796 C 89.1709 -1.58199 -0.288042 0
M  V30 797 O 90.3609 -1.74053 -0.0715803 0
M  V30 798 C 87.4929 -3.40889 -0.0276209 0
M  V30 799 H 88.6859 -2.55688 1.56728 0
M  V30 800 H 86.2389 -1.31259 0.848567 0
M  V30 801 H 86.9739 -3.10187 -0.94629 0
M  V30 802 H 86.7589 -3.86586 0.655238 0
M  V30 803 H 88.2489 -4.16603 -0.288342 0
M  V30 804 N 88.686 -0.835752 -1.33615 0
M  V30 805 C 89.616 -0.281739 -2.31794 0
M  V30 806 C 90.597 0.608833 -1.58831 0
M  V30 807 O 91.782 0.533035 -1.86741 0
M  V30 808 C 88.912 0.546612 -3.42971 0
M  V30 809 C 87.866 -0.247904 -4.27281 0
M  V30 810 C 87.192 0.704001 -5.30045 0
M  V30 811 C 88.492 -1.46324 -5.01385 0
M  V30 812 H 90.186 -1.10206 -2.78379 0
M  V30 813 H 87.732 -0.531388 -1.33837 0
M  V30 814 H 89.685 0.944467 -4.1068 0
M  V30 815 H 88.409 1.40011 -2.95067 0
M  V30 816 H 87.068 -0.627281 -3.61194 0
M  V30 817 H 86.716 1.55381 -4.78399 0
M  V30 818 H 86.416 0.176524 -5.87335 0
M  V30 819 H 87.94 1.09944 -6.0062 0
M  V30 820 H 89.354 -1.13871 -5.61877 0
M  V30 821 H 87.751 -1.92728 -5.6831 0
M  V30 822 H 88.821 -2.23467 -4.30338 0
M  V30 823 N 90.1641 1.46063 -0.591896 0
M  V30 824 C 91.3941 2.06418 -0.0867676 0
M  V30 825 C 91.8021 1.43975 1.22751 0
M  V30 826 O 91.1451 0.542531 1.75506 0
M  V30 827 C 91.2071 3.59213 0.143725 0
M  V30 828 C 90.8711 4.439 -1.08635 0
M  V30 829 C 91.8681 4.79864 -2.00067 0
M  V30 830 C 89.5531 4.84896 -1.31077 0
M  V30 831 C 91.5471 5.55661 -3.12282 0
M  V30 832 C 89.2341 5.6045 -2.43596 0
M  V30 833 C 90.2321 5.95747 -3.34027 0
M  V30 834 O 89.9201 6.69772 -4.4459 0
M  V30 835 H 89.6521 0.673443 -0.0587447 0
M  V30 836 H 92.2061 1.88539 -0.814994 0
M  V30 837 H 90.4361 3.75433 0.926668 0
M  V30 838 H 92.1251 4.01463 0.5985 0
M  V30 839 H 92.8911 4.48763 -1.83947 0
M  V30 840 H 88.7701 4.56867 -0.61594 0
M  V30 841 H 92.3141 5.8313 -3.82891 0
M  V30 842 H 88.2111 5.90965 -2.59674 0
M  V30 843 H 88.9791 6.88207 -4.43073 0
M  V30 844 N 91.6422 0.330177 1.54103 0
M  V30 845 C 92.5902 -0.548226 2.26047 0
M  V30 846 C 93.5842 -1.11309 1.27698 0
M  V30 847 O 94.7902 -1.06036 1.45452 0
M  V30 848 H 91.1652 -0.195456 0.726155 0
M  V30 849 H 93.1362 0.0807567 2.98291 0
M  V30 850 C 91.8852 -1.69415 3.03634 0
M  V30 851 H 91.2082 -1.26876 3.79134 0
M  V30 852 H 92.6482 -2.28423 3.5721 0
M  V30 853 C 91.1072 -2.61569 2.12328 0
M  V30 854 O 91.6372 -3.63462 1.7105 0
M  V30 855 N 89.8432 -2.29952 1.77681 0
M  V30 856 H 89.3902 -1.47134 2.11446 0
M  V30 857 H 89.3482 -2.91871 1.16869 0
M  V30 858 N 93.1203 -1.57491 0.0584922 0
M  V30 859 C 94.5313 -1.80526 -0.476138 0
M  V30 860 C 94.8823 -0.971334 -1.70469 0
M  V30 861 O 94.0073 -0.190012 -2.15564 0
M  V30 862 C 94.6023 -3.27424 -0.870587 0
M  V30 863 C 93.1613 -3.51351 -1.35015 0
M  V30 864 C 92.3083 -2.75343 -0.32887 0
M  V30 865 H 95.2593 -1.56133 0.284312 0
M  V30 866 H 95.2803 -3.38745 -1.73299 0
M  V30 867 H 94.7923 -3.88093 0.0237627 0
M  V30 868 H 92.8933 -2.95971 -2.26345 0
M  V30 869 H 93.0063 -4.60059 -1.33726 0
M  V30 870 H 91.3703 -2.417 -0.803321 0
M  V30 871 H 92.1533 -3.38743 0.557521 0
M  V30 872 N 94.5984 0.214957 -1.56127 0
M  V30 873 C 95.8474 0.936451 -1.78643 0
M  V30 874 C 96.1604 1.85237 -0.628229 0
M  V30 875 O 97.3664 2.613 -0.737186 0
M  V30 876 C 95.8224 1.7154 -3.16389 0
M  V30 877 C 95.4304 0.845299 -4.39953 0
M  V30 878 C 97.1744 2.42772 -3.48227 0
M  V30 879 C 95.0814 1.62198 -5.68723 0
M  V30 880 H 94.0114 0.353401 -0.666051 0
M  V30 881 H 96.6624 0.190169 -1.82512 0
M  V30 882 H 95.0444 2.50484 -3.06715 0
M  V30 883 H 96.2184 0.0959353 -4.607 0
M  V30 884 H 94.5334 0.244789 -4.1568 0
M  V30 885 H 97.1304 3.01394 -4.41663 0
M  V30 886 H 97.4734 3.15984 -2.71035 0
M  V30 887 H 98.0064 1.70813 -3.5926 0
M  V30 888 H 94.7454 0.933011 -6.48826 0
M  V30 889 H 94.2654 2.34579 -5.52026 0
M  V30 890 H 95.9444 2.18095 -6.09133 0
M  V30 891 N 96.0765 1.50051 0.48192 0
M  V30 892 C 97.4875 1.5348 1.06305 0
M  V30 893 C 97.8385 0.331997 1.93371 0
M  V30 894 O 96.9635 -0.556256 2.09129 0
M  V30 895 C 97.5585 2.7813 1.93466 0
M  V30 896 C 96.1175 2.84275 2.46707 0
M  V30 897 C 95.2645 2.47637 1.24785 0
M  V30 898 H 98.2155 1.56472 0.264995 0
M  V30 899 H 98.2365 2.59372 2.78399 0
M  V30 900 H 97.7485 3.65654 1.30072 0
M  V30 901 H 95.8495 2.01077 3.13686 0
M  V30 902 H 95.9625 3.8691 2.82555 0
M  V30 903 H 94.3265 1.99835 1.57918 0
M  V30 904 H 95.1095 3.37457 0.630694 0
M  V30 905 N 97.5546 -0.734337 1.39446 0
M  V30 906 C 98.8006 -1.49613 1.36908 0
M  V30 907 C 99.1336 -1.94169 -0.0347829 0
M  V30 908 O 98.4086 -1.66833 -0.999847 0
M  V30 909 C 98.6916 -2.73534 2.34203 0
M  V30 910 C 98.5446 -2.34993 3.83534 0
M  V30 911 C 99.8636 -3.75635 2.29317 0
M  V30 912 H 96.9826 -0.542714 0.498629 0
M  V30 913 H 99.6246 -0.839597 1.70443 0
M  V30 914 H 97.7746 -3.29553 2.05736 0
M  V30 915 H 99.4466 -1.84601 4.22753 0
M  V30 916 H 97.6896 -1.67213 4.00278 0
M  V30 917 H 98.3606 -3.23738 4.47099 0
M  V30 918 H 100.837 -3.29203 2.54489 0
M  V30 919 H 99.7126 -4.60008 2.99472 0
M  V30 920 H 99.9736 -4.22603 1.29842 0
M  V30 921 N 99.0327 -1.24633 -0.964593 0
M  V30 922 C 100.449 -1.01239 -1.2338 0
M  V30 923 C 100.649 0.2769 -1.99588 0
M  V30 924 O 99.7047 0.992241 -2.32187 0
M  V30 925 C 101.018 -2.22937 -2.01791 0
M  V30 926 C 102.566 -2.27594 -2.14872 0
M  V30 927 C 103.041 -3.48921 -2.96678 0
M  V30 928 N 104.532 -3.49257 -3.04259 0
M  V30 929 C 105.267 -4.39795 -3.67924 0
M  V30 930 N 104.763 -5.40591 -4.33281 0
M  V30 931 N 106.556 -4.275 -3.64966 0
M  V30 932 H 98.7067 -2.0748 -0.454502 0
M  V30 933 H 100.97 -0.910647 -0.26349 0
M  V30 934 H 100.676 -3.16587 -1.53184 0
M  V30 935 H 100.55 -2.25306 -3.02518 0
M  V30 936 H 102.937 -1.34473 -2.6268 0
M  V30 937 H 103.018 -2.2925 -1.13482 0
M  V30 938 H 102.662 -4.42359 -2.49562 0
M  V30 939 H 102.592 -3.4451 -3.98272 0
M  V30 940 H 105.083 -2.76337 -2.57771 0
M  V30 941 H 105.396 -6.05904 -4.79687 0
M  V30 942 H 103.741 -5.44475 -4.3194 0
M  V30 943 H 106.932 -3.47987 -3.13086 0
M  V30 944 H 107.105 -4.98258 -4.14298 0
M  V30 945 N 100.511 1.16574 -1.06058 0
M  V30 946 C 101.443 2.2045 -0.627239 0
M  V30 947 C 102.456 1.59752 0.313534 0
M  V30 948 O 103.645 1.78192 0.104896 0
M  V30 949 C 100.745 3.3875 0.100974 0
M  V30 950 C 99.9178 4.29008 -0.852687 0
M  V30 951 C 98.9768 5.25944 -0.164152 0
M  V30 952 O 98.0028 5.63535 -0.801047 0
M  V30 953 N 99.2048 5.70075 1.09518 0
M  V30 954 H 101.97 2.58249 -1.52077 0
M  V30 955 H 99.5308 1.3156 -0.943594 0
M  V30 956 H 101.523 4.00638 0.57194 0
M  V30 957 H 100.093 2.99476 0.89628 0
M  V30 958 H 99.3128 3.64419 -1.50308 0
M  V30 959 H 100.601 4.86195 -1.49972 0
M  V30 960 H 99.9988 5.41624 1.6328 0
M  V30 961 H 98.5558 6.34067 1.51006 0
M  V30 962 N 101.989 0.842826 1.3317 0
M  V30 963 C 102.937 0.267495 2.31057 0
M  V30 964 C 103.931 -0.602682 1.58316 0
M  V30 965 O 105.137 -0.491803 1.73151 0
M  V30 966 H 101.512 0.0677813 0.748939 0
M  V30 967 H 103.483 1.10754 2.77085 0
M  V30 968 C 102.232 -0.539331 3.43492 0
M  V30 969 H 101.555 0.12095 3.99617 0
M  V30 970 H 102.995 -0.90767 4.14171 0
M  V30 971 C 101.454 -1.71981 2.89697 0
M  V30 972 O 101.984 -2.81862 2.86211 0
M  V30 973 N 100.19 -1.54299 2.46252 0
M  V30 974 H 99.7369 -0.649143 2.49287 0
M  V30 975 H 99.6949 -2.33431 2.10612 0
M  V30 976 N 103.467 -1.45747 0.599634 0
M  V30 977 C 104.707 -2.04181 0.0946309 0
M  V30 978 C 105.071 -1.45895 -1.24815 0
M  V30 979 O 106.272 -1.95633 -1.8434 0
M  V30 980 C 104.543 -3.57368 0.047581 0
M  V30 981 S 106.102 -4.36997 -0.397387 0
M  V30 982 H 102.92 -0.70953 0.0456954 0
M  V30 983 H 105.522 -1.78564 0.795946 0
M  V30 984 H 104.226 -3.97303 1.02852 0
M  V30 985 H 103.757 -3.87549 -0.675977 0
M  V30 986 H 105.772 -4.68012 -1.64862 0
M  V30 987 N 104.945 -0.338344 -1.53925 0
M  V30 988 C 105.875 0.51328 -2.27789 0
M  V30 989 C 106.856 1.107 -1.29149 0
M  V30 990 O 108.041 1.12937 -1.57984 0
M  V30 991 C 105.171 1.66697 -3.04679 0
M  V30 992 C 104.125 1.20183 -4.1078 0
M  V30 993 C 103.451 2.44363 -4.75595 0
M  V30 994 C 104.751 0.30605 -5.21403 0
M  V30 995 H 106.445 -0.102883 -2.99223 0
M  V30 996 H 103.991 -0.0509219 -1.4391 0
M  V30 997 H 105.944 2.26915 -3.55088 0
M  V30 998 H 104.668 2.30995 -2.30887 0
M  V30 999 H 103.327 0.622499 -3.61276 0
M  V30 1000 H 102.975 3.07057 -3.98403 0
M  V30 1001 H 102.675 2.13925 -5.47275 0
M  V30 1002 H 104.199 3.05317 -5.28786 0
M  V30 1003 H 105.613 0.814929 -5.67478 0
M  V30 1004 H 104.01 0.0937929 -6.00027 0
M  V30 1005 H 105.08 -0.65921 -4.80398 0
M  V30 1006 N 106.423 1.57458 -0.0668435 0
M  V30 1007 C 107.651 1.97624 0.612565 0
M  V30 1008 C 108.066 0.94502 1.63447 0
M  V30 1009 O 107.423 -0.0689276 1.8237 0
M  V30 1010 C 107.474 3.37869 1.28555 0
M  V30 1011 O 107.195 4.3704 0.304557 0
M  V30 1012 C 108.696 3.92882 2.05325 0
M  V30 1013 H 105.916 0.650045 0.166381 0
M  V30 1014 H 108.46 2.04035 -0.137782 0
M  V30 1015 H 106.615 3.3256 1.98702 0
M  V30 1016 H 107.029 5.18565 0.786779 0
M  V30 1017 H 108.503 4.93247 2.47812 0
M  V30 1018 H 108.98 3.29156 2.9078 0
M  V30 1019 H 109.586 4.01577 1.40056 0
M  V30 1020 N 107.901 -0.206675 1.56239 0
M  V30 1021 C 109.147 -0.930218 1.80208 0
M  V30 1022 C 109.48 -1.83387 0.638981 0
M  V30 1023 O 108.755 -1.91119 -0.361066 0
M  V30 1024 C 109.038 -1.75641 3.1436 0
M  V30 1025 C 108.891 -0.878257 4.41142 0
M  V30 1026 C 110.21 -2.73129 3.45092 0
M  V30 1027 H 107.329 -0.336742 0.655571 0
M  V30 1028 H 109.971 -0.198222 1.88963 0
M  V30 1029 H 108.121 -2.38048 3.07027 0
M  V30 1030 H 109.793 -0.269787 4.6051 0
M  V30 1031 H 108.036 -0.184385 4.33408 0
M  V30 1032 H 108.707 -1.49106 5.3148 0
M  V30 1033 H 111.183 -2.20856 3.52649 0
M  V30 1034 H 110.059 -3.28028 4.40101 0
M  V30 1035 H 110.32 -3.51606 2.68003 0
M  V30 1036 N 109.379 -1.50304 -0.473955 0
M  V30 1037 C 110.327 -1.69482 -1.59307 0
M  V30 1038 C 111.321 -0.560669 -1.59853 0
M  V30 1039 O 112.527 -0.741087 -1.64036 0
M  V30 1040 H 108.902 -0.534892 -0.528578 0
M  V30 1041 H 110.873 -2.63364 -1.40293 0
M  V30 1042 C 109.622 -1.80354 -2.97267 0
M  V30 1043 H 108.945 -2.67012 -2.97564 0
M  V30 1044 H 110.385 -1.97798 -3.75036 0
M  V30 1045 C 108.844 -0.55448 -3.32306 0
M  V30 1046 O 109.374 0.307661 -4.0052 0
M  V30 1047 N 107.58 -0.409354 -2.87702 0
M  V30 1048 H 107.127 -1.11196 -2.32364 0
M  V30 1049 H 107.085 0.425223 -3.11511 0
M  V30 1050 N 110.857 0.726932 -1.39834 0
M  V30 1051 C 112.273 1.03354 -1.21615 0
M  V30 1052 C 112.473 2.01327 -0.08338 0
M  V30 1053 O 111.529 2.46158 0.56238 0
M  V30 1054 C 112.842 1.58811 -2.55342 0
M  V30 1055 C 114.39 1.70851 -2.62257 0
M  V30 1056 C 114.865 2.29716 -3.96225 0
M  V30 1057 N 116.356 2.37116 -3.97907 0
M  V30 1058 C 117.091 2.83619 -4.98345 0
M  V30 1059 N 116.587 3.29958 -6.09179 0
M  V30 1060 N 118.38 2.82901 -4.8572 0
M  V30 1061 H 110.531 0.0773069 -2.12259 0
M  V30 1062 H 112.794 0.0969102 -0.943034 0
M  V30 1063 H 112.5 0.942855 -3.38826 0
M  V30 1064 H 112.374 2.57502 -2.75632 0
M  V30 1065 H 114.761 2.34497 -1.79152 0
M  V30 1066 H 114.842 0.707913 -2.45809 0
M  V30 1067 H 114.486 1.66696 -4.79765 0
M  V30 1068 H 114.416 3.30469 -4.09997 0
M  V30 1069 H 116.907 2.04374 -3.17868 0
M  V30 1070 H 117.22 3.63976 -6.8172 0
M  V30 1071 H 115.565 3.27946 -6.12761 0
M  V30 1072 H 118.756 2.46027 -3.98231 0
M  V30 1073 H 118.929 3.18827 -5.6414 0
M  V30 1074 N 112.336 1.25143 0.95797 0
M  V30 1075 C 113.561 1.12521 1.74223 0
M  V30 1076 C 113.986 -0.317402 1.85403 0
M  V30 1077 O 113.344 -1.2299 1.33204 0
M  V30 1078 C 113.392 1.78062 3.1357 0
M  V30 1079 O 112.496 1.058 3.98598 0
M  V30 1080 H 111.837 0.39304 0.535178 0
M  V30 1081 H 114.367 1.65641 1.201 0
M  V30 1082 H 114.377 1.84213 3.64046 0
M  V30 1083 H 113.052 2.83021 3.04749 0
M  V30 1084 H 111.629 1.07506 3.57067 0
M  V30 1085 N 113.814 -1.1601 1.06675 0
M  V30 1086 C 114.744 -2.22688 0.702307 0
M  V30 1087 C 115.725 -1.67306 -0.307032 0
M  V30 1088 O 116.91 -1.93352 -0.181305 0
M  V30 1089 C 114.04 -3.47178 0.092038 0
M  V30 1090 C 112.994 -4.15477 1.02777 0
M  V30 1091 C 112.32 -5.33963 0.28061 0
M  V30 1092 C 113.62 -4.66019 2.35846 0
M  V30 1093 H 115.314 -2.53429 1.59419 0
M  V30 1094 H 112.86 -1.21813 0.767961 0
M  V30 1095 H 114.813 -4.21037 -0.174814 0
M  V30 1096 H 113.537 -3.15749 -0.834877 0
M  V30 1097 H 112.196 -3.43549 1.27944 0
M  V30 1098 H 111.844 -4.98788 -0.649545 0
M  V30 1099 H 111.544 -5.806 0.904258 0
M  V30 1100 H 113.068 -6.10596 0.021396 0
M  V30 1101 H 114.482 -5.3144 2.15045 0
M  V30 1102 H 112.879 -5.23293 2.93743 0
M  V30 1103 H 113.949 -3.82023 2.98641 0
M  V30 1104 N 115.292 -0.849877 -1.32721 0
M  V30 1105 C 116.539 -0.450923 -1.97416 0
M  V30 1106 C 116.867 0.992376 -1.67279 0
M  V30 1107 O 116.122 1.71048 -0.950845 0
M  V30 1108 C 116.421 -0.631272 -3.51781 0
M  V30 1109 C 116.087 -2.04432 -4.01894 0
M  V30 1110 C 114.749 -2.4308 -4.1529 0
M  V30 1111 C 117.101 -2.96679 -4.28522 0
M  V30 1112 C 114.429 -3.73257 -4.52654 0
M  V30 1113 C 116.781 -4.26349 -4.67343 0
M  V30 1114 C 115.445 -4.64939 -4.78945 0
M  V30 1115 H 114.715 -0.165004 -0.722395 0
M  V30 1116 H 117.362 -1.07901 -1.58207 0
M  V30 1117 H 115.667 0.0800767 -3.91718 0
M  V30 1118 H 117.364 -0.302709 -3.99856 0
M  V30 1119 H 113.954 -1.73419 -3.91949 0
M  V30 1120 H 118.138 -2.68054 -4.17685 0
M  V30 1121 H 113.394 -4.02946 -4.59831 0
M  V30 1122 H 117.568 -4.97895 -4.86902 0
M  V30 1123 H 115.195 -5.65855 -5.07654 0
M  V30 1124 N 116.77 1.45427 -0.607355 0
M  V30 1125 C 117.7 2.3329 0.0989352 0
M  V30 1126 C 118.681 1.46816 0.859007 0
M  V30 1127 O 119.866 1.75588 0.829604 0
M  V30 1128 C 116.996 3.29518 1.09705 0
M  V30 1129 C 115.95 4.25626 0.450206 0
M  V30 1130 C 115.276 5.11542 1.55655 0
M  V30 1131 C 116.576 5.18505 -0.628455 0
M  V30 1132 H 118.27 2.92595 -0.634716 0
M  V30 1133 H 115.816 1.40696 -0.306681 0
M  V30 1134 H 117.769 3.89855 1.59971 0
M  V30 1135 H 116.493 2.68372 1.86129 0
M  V30 1136 H 115.152 3.66586 -0.0315886 0
M  V30 1137 H 114.8 4.46765 2.31107 0
M  V30 1138 H 114.5 5.76647 1.12925 0
M  V30 1139 H 116.024 5.74748 2.06148 0
M  V30 1140 H 117.438 5.72916 -0.209877 0
M  V30 1141 H 115.835 5.92085 -0.977489 0
M  V30 1142 H 116.905 4.60948 -1.50514 0
M  V30 1143 N 118.248 0.346503 1.53744 0
M  V30 1144 C 119.495 -0.249104 2.00962 0
M  V30 1145 C 119.823 -1.5032 1.23426 0
M  V30 1146 O 119.078 -1.93217 0.310761 0
M  V30 1147 C 119.377 -0.605809 3.52228 0
M  V30 1148 C 119.043 0.551747 4.47512 0
M  V30 1149 C 117.705 0.86941 4.73281 0
M  V30 1150 C 120.057 1.32818 5.03993 0
M  V30 1151 C 117.385 1.96582 5.52786 0
M  V30 1152 C 119.737 2.41486 5.84694 0
M  V30 1153 C 118.401 2.73808 6.08757 0
M  V30 1154 H 117.671 -0.0911538 0.735372 0
M  V30 1155 H 120.318 0.475027 1.85515 0
M  V30 1156 H 118.623 -1.4107 3.65522 0
M  V30 1157 H 120.32 -1.07858 3.86222 0
M  V30 1158 H 116.91 0.294102 4.2759 0
M  V30 1159 H 121.094 1.09602 4.84047 0
M  V30 1160 H 116.35 2.22045 5.69654 0
M  V30 1161 H 120.524 3.02078 6.27473 0
M  V30 1162 H 118.151 3.58892 6.7015 0
M  V30 1163 N 119.726 -1.57421 0.075193 0
M  V30 1164 C 120.951 -1.98364 -0.605515 0
M  V30 1165 C 121.376 -0.953383 -1.62149 0
M  V30 1166 O 120.734 0.0806053 -1.81121 0
M  V30 1167 C 120.782 -3.38332 -1.24756 0
M  V30 1168 O 119.886 -3.37959 -2.36342 0
M  V30 1169 H 119.227 -0.645553 -0.155428 0
M  V30 1170 H 121.757 -2.04044 0.150714 0
M  V30 1171 H 121.767 -3.75591 -1.5936 0
M  V30 1172 H 120.442 -4.12846 -0.503129 0
M  V30 1173 H 119.019 -3.12474 -2.03506 0
M  V30 1174 N 121.204 0.198386 -1.56346 0
M  V30 1175 C 122.114 1.2664 -1.97483 0
M  V30 1176 C 123.13 1.49989 -0.882002 0
M  V30 1177 O 124.306 1.62668 -1.18748 0
M  V30 1178 C 121.371 2.59141 -2.30319 0
M  V30 1179 C 120.432 2.43892 -3.53292 0
M  V30 1180 C 119.665 3.70074 -3.84553 0
M  V30 1181 O 119.888 4.74101 -3.1715 0
M  V30 1182 O 118.822 3.658 -4.7799 0
M  V30 1183 H 122.648 0.947304 -2.88548 0
M  V30 1184 H 120.233 0.403123 -1.43859 0
M  V30 1185 H 122.115 3.37352 -2.5253 0
M  V30 1186 H 120.79 2.90684 -1.42423 0
M  V30 1187 H 119.697 1.63803 -3.36332 0
M  V30 1188 H 121.03 2.17282 -4.41644 0
M  V30 1189 N 122.682 1.50554 0.465978 0
M  V30 1190 C 123.959 1.5232 1.22712 0
M  V30 1191 C 124.339 0.270807 2.09356 0
M  V30 1192 O 123.687 -0.745541 2.15995 0
M  V30 1193 C 123.897 2.82175 2.05374 0
M  V30 1194 C 125.245 3.33033 2.6339 0
M  V30 1195 O 126.269 2.83531 2.15612 0
M  V30 1196 O 125.128 4.19336 3.50456 0
M  V30 1197 H 122.222 0.611183 0.557122 0
M  V30 1198 H 124.768 1.62847 0.477381 0
M  V30 1199 H 123.54 3.64797 1.41558 0
M  V30 1200 H 123.163 2.74675 2.87471 0
M  V30 1201 N 124.16 -0.719506 1.40217 0
M  V30 1202 C 125.108 -1.85493 1.40339 0
M  V30 1203 C 126.102 -1.66995 0.284415 0
M  V30 1204 O 127.308 -1.74148 0.455252 0
M  V30 1205 H 123.683 -0.610857 0.438586 0
M  V30 1206 H 125.654 -1.82506 2.36081 0
M  V30 1207 C 124.403 -3.23321 1.27901 0
M  V30 1208 H 123.726 -3.38159 2.1328 0
M  V30 1209 H 125.166 -4.02914 1.32045 0
M  V30 1210 C 123.625 -3.36898 -0.0111355 0
M  V30 1211 O 124.155 -3.89674 -0.975538 0
M  V30 1212 N 122.361 -2.90492 -0.0793393 0
M  V30 1213 H 121.908 -2.47731 0.706183 0
M  V30 1214 H 121.866 -2.99955 -0.942038 0
M  V30 1215 N 125.638 -1.25649 -0.95132 0
M  V30 1216 C 126.884 -1.10757 -1.69884 0
M  V30 1217 C 127.217 0.350061 -1.91019 0
M  V30 1218 O 126.492 1.25783 -1.48354 0
M  V30 1219 C 126.775 -1.86606 -3.07978 0
M  V30 1220 C 126.628 -3.40217 -2.94232 0
M  V30 1221 C 127.947 -1.65182 -4.07925 0
M  V30 1222 H 125.066 -0.40374 -0.616574 0
M  V30 1223 H 127.708 -1.54521 -1.10558 0
M  V30 1224 H 125.858 -1.49409 -3.58621 0
M  V30 1225 H 127.53 -3.87108 -2.50889 0
M  V30 1226 H 125.773 -3.67759 -2.30078 0
M  V30 1227 H 126.444 -3.88505 -3.92133 0
M  V30 1228 H 128.92 -1.9757 -3.66204 0
M  V30 1229 H 127.796 -2.20683 -5.02583 0
M  V30 1230 H 128.057 -0.593933 -4.38092 0
M  V30 1231 N 127.117 1.15442 -1.07289 0
M  V30 1232 C 128.363 1.86489 -0.796846 0
M  V30 1233 C 128.696 1.82078 0.675371 0
M  V30 1234 O 127.971 1.24346 1.4956 0
M  V30 1235 C 128.254 3.35626 -1.30489 0
M  V30 1236 C 128.107 3.48673 -2.84161 0
M  V30 1237 C 129.426 4.30357 -0.920907 0
M  V30 1238 H 126.545 0.677144 -0.290939 0
M  V30 1239 H 129.187 1.35633 -1.33056 0
M  V30 1240 H 127.337 3.79068 -0.850883 0
M  V30 1241 H 129.009 3.14099 -3.37846 0
M  V30 1242 H 127.252 2.90253 -3.22391 0
M  V30 1243 H 127.923 4.53453 -3.14777 0
M  V30 1244 H 130.399 3.94871 -1.3121 0
M  V30 1245 H 129.275 5.33193 -1.30372 0
M  V30 1246 H 129.536 4.4176 0.173226 0
M  V30 1247 N 128.595 0.856903 1.32268 0
M  V30 1248 C 130.011 0.547061 1.49931 0
M  V30 1249 C 130.211 -0.921781 1.7918 0
M  V30 1250 O 129.267 -1.70469 1.8627 0
M  V30 1251 C 130.58 1.43599 2.64196 0
M  V30 1252 C 132.128 1.43665 2.78081 0
M  V30 1253 C 132.603 2.31085 3.95428 0
M  V30 1254 N 134.094 2.28893 4.02694 0
M  V30 1255 C 134.829 2.93262 4.92732 0
M  V30 1256 N 134.325 3.66751 5.87763 0
M  V30 1257 N 136.118 2.82638 4.85873 0
M  V30 1258 H 128.269 1.8075 1.11549 0
M  V30 1259 H 130.532 0.772144 0.549997 0
M  V30 1260 H 130.238 2.48058 2.49319 0
M  V30 1261 H 130.112 1.12502 3.60032 0
M  V30 1262 H 132.499 0.399701 2.92381 0
M  V30 1263 H 132.58 1.7878 1.82952 0
M  V30 1264 H 132.224 3.34849 3.81888 0
M  V30 1265 H 132.154 1.93302 4.89839 0
M  V30 1266 H 134.645 1.75466 3.34694 0
M  V30 1267 H 134.958 4.13027 6.53168 0
M  V30 1268 H 133.303 3.70859 5.87783 0
M  V30 1269 H 136.494 2.24774 4.10602 0
M  V30 1270 H 136.667 3.33084 5.55841 0
M  V30 1271 N 130.073 -1.45103 0.615059 0
M  V30 1272 C 131.02 -2.30586 -0.0993978 0
M  V30 1273 C 131.99 -1.42544 -0.852669 0
M  V30 1274 O 133.175 -1.71465 -0.836917 0
M  V30 1275 C 130.315 -3.27572 -1.08583 0
M  V30 1276 C 129.428 -4.30717 -0.332656 0
M  V30 1277 C 128.563 -5.14807 -1.30947 0
M  V30 1278 C 127.602 -6.09673 -0.544538 0
M  V30 1279 N 126.739 -6.86517 -1.47101 0
M  V30 1280 H 131.579 -2.91144 0.635542 0
M  V30 1281 H 129.116 -1.4346 0.325206 0
M  V30 1282 H 131.074 -3.82276 -1.67095 0
M  V30 1283 H 129.704 -2.68751 -1.78809 0
M  V30 1284 H 128.756 -3.78615 0.368107 0
M  V30 1285 H 130.068 -4.98102 0.263842 0
M  V30 1286 H 129.222 -5.73948 -1.96643 0
M  V30 1287 H 127.961 -4.47458 -1.9399 0
M  V30 1288 H 126.966 -5.49656 0.126003 0
M  V30 1289 H 128.191 -6.79052 0.080947 0
M  V30 1290 H 126.137 -6.21851 -2.08895 0
M  V30 1291 H 126.054 -7.50281 -0.928137 0
M  V30 1292 H 127.322 -7.50194 -2.11731 0
M  V30 1293 N 131.551 -0.354651 -1.53558 0
M  V30 1294 C 132.781 0.239167 -2.05211 0
M  V30 1295 C 133.189 1.43879 -1.22863 0
M  V30 1296 O 132.532 1.81857 -0.259565 0
M  V30 1297 C 132.594 0.707251 -3.52474 0
M  V30 1298 C 132.258 -0.374212 -4.55465 0
M  V30 1299 C 133.255 -1.22054 -5.0537 0
M  V30 1300 C 130.94 -0.531323 -4.99482 0
M  V30 1301 C 132.934 -2.20942 -5.97882 0
M  V30 1302 C 130.621 -1.52358 -5.91802 0
M  V30 1303 C 131.619 -2.36108 -6.40892 0
M  V30 1304 O 131.307 -3.33643 -7.31394 0
M  V30 1305 H 131.039 0.0479716 -0.674296 0
M  V30 1306 H 133.593 -0.508121 -1.99016 0
M  V30 1307 H 131.823 1.50596 -3.56171 0
M  V30 1308 H 133.512 1.22285 -3.87042 0
M  V30 1309 H 134.278 -1.1103 -4.7212 0
M  V30 1310 H 130.157 0.110738 -4.60867 0
M  V30 1311 H 133.701 -2.86348 -6.36121 0
M  V30 1312 H 129.598 -1.63434 -6.24467 0
M  V30 1313 H 130.366 -3.29244 -7.4936 0
M  V30 1314 N 133.029 1.57378 -0.0835403 0
M  V30 1315 C 133.992 2.12252 0.864959 0
M  V30 1316 C 134.992 1.04916 1.21858 0
M  V30 1317 O 136.182 1.30853 1.14991 0
M  V30 1318 C 133.314 2.63358 2.16461 0
M  V30 1319 H 134.507 2.97371 0.388676 0
M  V30 1320 H 132.06 1.55423 0.165317 0
M  V30 1321 H 132.795 1.81727 2.686 0
M  V30 1322 H 132.58 3.41826 1.92087 0
M  V30 1323 H 134.07 3.05847 2.84337 0
M  V30 1324 N 134.507 -0.190092 1.56449 0
M  V30 1325 C 135.454 -1.23557 1.94942 0
M  V30 1326 C 136.424 -1.44972 0.810696 0
M  V30 1327 O 137.609 -1.58023 1.06927 0
M  V30 1328 C 134.749 -2.57416 2.2985 0
M  V30 1329 C 133.862 -2.43537 3.5681 0
M  V30 1330 C 132.997 -3.70134 3.81017 0
M  V30 1331 C 132.036 -3.51109 5.01387 0
M  V30 1332 N 131.173 -4.6973 5.21822 0
M  V30 1333 H 136.013 -0.900304 2.84075 0
M  V30 1334 H 133.55 -0.43318 1.40577 0
M  V30 1335 H 135.508 -3.35409 2.48106 0
M  V30 1336 H 134.138 -2.88975 1.43852 0
M  V30 1337 H 133.19 -1.56816 3.46573 0
M  V30 1338 H 134.502 -2.25415 4.4496 0
M  V30 1339 H 133.656 -4.56566 3.9954 0
M  V30 1340 H 132.395 -3.91215 2.91207 0
M  V30 1341 H 131.4 -2.63063 4.82782 0
M  V30 1342 H 132.625 -3.31468 5.9271 0
M  V30 1343 H 130.571 -4.91065 4.34961 0
M  V30 1344 H 130.488 -4.54452 6.0416 0
M  V30 1345 H 131.756 -5.57499 5.44808 0
M  V30 1346 N 135.985 -1.50799 -0.457987 0
M  V30 1347 C 136.932 -1.70617 -1.5543 0
M  V30 1348 C 137.902 -0.547562 -1.56815 0
M  V30 1349 O 139.087 -0.779647 -1.74144 0
M  V30 1350 C 136.227 -1.81831 -2.93311 0
M  V30 1351 C 135.34 -3.09278 -3.01615 0
M  V30 1352 C 134.475 -3.11209 -4.30491 0
M  V30 1353 C 133.514 -4.33055 -4.32585 0
M  V30 1354 N 132.651 -4.32652 -5.52952 0
M  V30 1355 H 137.491 -2.64207 -1.37836 0
M  V30 1356 H 135.028 -1.30959 -0.669937 0
M  V30 1357 H 136.986 -1.86314 -3.73287 0
M  V30 1358 H 135.616 -0.916685 -3.0951 0
M  V30 1359 H 134.668 -3.14203 -2.1443 0
M  V30 1360 H 135.98 -3.99233 -2.99022 0
M  V30 1361 H 135.134 -3.14494 -5.18824 0
M  V30 1362 H 133.873 -2.19106 -4.35711 0
M  V30 1363 H 132.878 -4.29969 -3.42647 0
M  V30 1364 H 134.103 -5.264 -4.29046 0
M  V30 1365 H 132.049 -3.43409 -5.58933 0
M  V30 1366 H 131.966 -5.16392 -5.52155 0
M  V30 1367 H 133.234 -4.40101 -6.43375 0
M  V30 1368 N 137.463 0.71206 -1.40597 0
M  V30 1369 C 138.712 1.46754 -1.38369 0
M  V30 1370 C 139.025 1.95598 0.0097839 0
M  V30 1371 O 140.231 2.71059 0.154677 0
M  V30 1372 C 138.687 2.65289 -2.43207 0
M  V30 1373 C 138.295 2.23301 -3.88382 0
M  V30 1374 C 140.039 3.43008 -2.50091 0
M  V30 1375 C 137.946 3.38696 -4.84808 0
M  V30 1376 H 136.876 0.55118 -0.514506 0
M  V30 1377 H 139.527 0.774616 -1.66349 0
M  V30 1378 H 137.909 3.36769 -2.08332 0
M  V30 1379 H 139.083 1.59218 -4.32419 0
M  V30 1380 H 137.398 1.58618 -3.85006 0
M  V30 1381 H 139.995 4.28881 -3.1932 0
M  V30 1382 H 140.338 3.87065 -1.53253 0
M  V30 1383 H 140.871 2.78574 -2.83974 0
M  V30 1384 H 137.61 2.99668 -5.82992 0
M  V30 1385 H 137.13 4.01683 -4.45433 0
M  V30 1386 H 138.809 4.04712 -5.04794 0
M  V30 1387 N 138.941 1.26152 0.944643 0
M  V30 1388 C 140.169 1.14259 1.72489 0
M  V30 1389 C 140.584 -0.302555 1.8636 0
M  V30 1390 O 139.941 -1.20741 1.36849 0
M  V30 1391 C 139.992 1.80266 3.13347 0
M  V30 1392 O 139.713 3.19133 3.00143 0
M  V30 1393 C 141.214 1.74283 4.07603 0
M  V30 1394 H 138.434 0.398051 0.540181 0
M  V30 1395 H 140.978 1.66706 1.18446 0
M  V30 1396 H 139.133 1.31766 3.64303 0
M  V30 1397 H 139.547 3.51744 3.89071 0
M  V30 1398 H 141.021 2.25111 5.04013 0
M  V30 1399 H 141.498 0.708631 4.33446 0
M  V30 1400 H 142.104 2.22319 3.62567 0
M  V30 1401 N 140.419 -1.14872 1.07899 0
M  V30 1402 C 141.329 -2.2341 0.715915 0
M  V30 1403 C 142.345 -1.71808 -0.275306 0
M  V30 1404 O 143.521 -2.01039 -0.120545 0
M  V30 1405 C 140.586 -3.46474 0.125168 0
M  V30 1406 C 139.647 -4.13039 1.17034 0
M  V30 1407 C 138.88 -5.30229 0.607688 0
M  V30 1408 O 139.103 -5.675 -0.574497 0
M  V30 1409 O 138.037 -5.86444 1.35526 0
M  V30 1410 H 141.863 -2.56808 1.62121 0
M  V30 1411 H 139.448 -1.22702 0.852322 0
M  V30 1412 H 141.33 -4.20917 -0.201729 0
M  V30 1413 H 140.005 -3.14811 -0.753364 0
M  V30 1414 H 138.912 -3.40493 1.54968 0
M  V30 1415 H 140.245 -4.48796 2.02097 0
M  V30 1416 N 141.898 -0.863906 -1.31812 0
M  V30 1417 C 143.144 -0.481841 -1.9761 0
M  V30 1418 C 143.499 0.954048 -1.6708 0
M  V30 1419 O 142.792 1.66182 -0.953624 0
M  V30 1420 C 142.986 -0.668547 -3.51091 0
M  V30 1421 C 142.815 -2.12103 -3.96538 0
M  V30 1422 C 141.585 -2.76141 -4.23171 0
M  V30 1423 C 143.783 -3.09265 -4.10925 0
M  V30 1424 N 141.765 -4.12205 -4.54929 0
M  V30 1425 C 143.136 -4.30341 -4.46326 0
M  V30 1426 C 145.191 -3.05337 -3.93286 0
M  V30 1427 C 143.894 -5.48 -4.65928 0
M  V30 1428 C 145.92 -4.22248 -4.14078 0
M  V30 1429 C 145.282 -5.42085 -4.49804 0
M  V30 1430 H 141.381 -0.225238 -0.74886 0
M  V30 1431 H 143.965 -1.11723 -1.59455 0
M  V30 1432 H 142.136 -0.0627898 -3.88349 0
M  V30 1433 H 143.868 -0.255467 -4.03893 0
M  V30 1434 H 140.623 -2.27125 -4.15585 0
M  V30 1435 H 141.047 -4.82416 -4.74978 0
M  V30 1436 H 145.689 -2.138 -3.64759 0
M  V30 1437 H 143.407 -6.40059 -4.93305 0
M  V30 1438 H 146.993 -4.20654 -4.01922 0
M  V30 1439 H 145.873 -6.31044 -4.65567 0
M  V30 1440 N 143.376 1.44774 -0.622745 0
M  V30 1441 C 144.787 1.85546 -0.207226 0
M  V30 1442 C 145.138 1.52093 1.23944 0
M  V30 1443 O 144.263 0.95492 1.94191 0
M  V30 1444 C 144.858 3.36781 -0.369313 0
M  V30 1445 C 143.417 3.76399 -0.00836847 0
M  V30 1446 C 142.564 2.68664 -0.686651 0
M  V30 1447 H 145.515 1.3536 -0.828454 0
M  V30 1448 H 145.536 3.78453 0.394162 0
M  V30 1449 H 145.048 3.61098 -1.42231 0
M  V30 1450 H 143.149 3.57698 1.04322 0
M  V30 1451 H 143.262 4.7732 -0.412584 0
M  V30 1452 H 141.626 2.54404 -0.122777 0
M  V30 1453 H 142.409 2.95815 -1.74208 0
M  V30 1454 N 144.854 0.36279 1.53368 0
M  V30 1455 C 146.265 -0.117022 1.86333 0
M  V30 1456 C 146.616 -1.48397 1.28347 0
M  V30 1457 O 145.741 -2.07787 0.604428 0
M  V30 1458 C 146.336 -0.21912 3.38091 0
M  V30 1459 C 144.895 -0.643184 3.70864 0
M  V30 1460 C 144.042 0.211318 2.76494 0
M  V30 1461 H 146.993 0.581687 1.47655 0
M  V30 1462 H 147.014 -1.04319 3.6592 0
M  V30 1463 H 146.526 0.775902 3.80265 0
M  V30 1464 H 144.627 -1.64654 3.34245 0
M  V30 1465 H 144.74 -0.41973 4.77258 0
M  V30 1466 H 143.104 -0.319367 2.5269 0
M  V30 1467 H 143.887 1.20383 3.21501 0
M  V30 1468 N 146.332 -1.57332 0.0918853 0
M  V30 1469 C 147.579 -1.94236 -0.572577 0
M  V30 1470 C 147.907 -0.973398 -1.6839 0
M  V30 1471 O 147.162 0.00756912 -1.95699 0
M  V30 1472 C 147.461 -3.37689 -1.17051 0
M  V30 1473 C 147.127 -4.50527 -0.183304 0
M  V30 1474 C 145.789 -4.81119 0.0882276 0
M  V30 1475 C 148.141 -5.18883 0.49095 0
M  V30 1476 C 145.469 -5.77395 1.04076 0
M  V30 1477 C 147.821 -6.1618 1.43193 0
M  V30 1478 C 146.485 -6.45179 1.71173 0
M  V30 1479 H 145.755 -0.710762 -0.209521 0
M  V30 1480 H 148.402 -1.9077 0.167036 0
M  V30 1481 H 146.707 -3.37718 -1.9863 0
M  V30 1482 H 148.404 -3.63543 -1.69227 0
M  V30 1483 H 144.994 -4.26681 -0.405124 0
M  V30 1484 H 149.178 -4.95427 0.294312 0
M  V30 1485 H 144.434 -5.98179 1.26457 0
M  V30 1486 H 148.608 -6.68243 1.96023 0
M  V30 1487 H 146.235 -7.1959 2.4514 0
M  V30 1488 N 147.81 0.181792 -1.56548 0
M  V30 1489 C 148.72 1.24538 -1.98815 0
M  V30 1490 C 149.736 1.49045 -0.897861 0
M  V30 1491 O 150.912 1.61399 -1.20467 0
M  V30 1492 C 147.977 2.56683 -2.33055 0
M  V30 1493 C 147.038 2.40131 -3.55859 0
M  V30 1494 C 146.271 3.65975 -3.88456 0
M  V30 1495 O 146.494 4.70711 -3.22161 0
M  V30 1496 O 145.428 3.6071 -4.81842 0
M  V30 1497 H 149.254 0.916647 -2.89536 0
M  V30 1498 H 146.839 0.387842 -1.44278 0
M  V30 1499 H 148.721 3.34655 -2.56094 0
M  V30 1500 H 147.396 2.89157 -1.45498 0
M  V30 1501 H 146.303 1.60226 -3.38051 0
M  V30 1502 H 147.636 2.12585 -4.43924 0
M  V30 1503 N 149.288 1.51039 0.449983 0
M  V30 1504 C 150.518 1.66627 1.22143 0
M  V30 1505 C 150.926 0.357776 1.85786 0
M  V30 1506 O 150.269 -0.672424 1.70951 0
M  V30 1507 C 150.331 2.71562 2.35573 0
M  V30 1508 C 149.995 4.14526 1.92399 0
M  V30 1509 C 150.992 4.99717 1.43453 0
M  V30 1510 C 148.677 4.60559 2.00475 0
M  V30 1511 C 150.671 6.28998 1.03155 0
M  V30 1512 C 148.358 5.8984 1.59788 0
M  V30 1513 C 149.356 6.73886 1.11208 0
M  V30 1514 O 149.044 8.0075 0.710935 0
M  V30 1515 H 148.776 0.562635 0.374724 0
M  V30 1516 H 151.33 1.98146 0.541036 0
M  V30 1517 H 149.56 2.3533 3.06849 0
M  V30 1518 H 151.249 2.76156 2.97478 0
M  V30 1519 H 152.015 4.65361 1.36618 0
M  V30 1520 H 147.894 3.95273 2.37235 0
M  V30 1521 H 151.438 6.9455 0.651663 0
M  V30 1522 H 147.335 6.23713 1.66289 0
M  V30 1523 H 148.103 8.142 0.837913 0
M  V30 1524 N 150.766 -0.704594 1.40972 0
M  V30 1525 C 151.699 -1.82861 1.36518 0
M  V30 1526 C 152.677 -1.6091 0.23382 0
M  V30 1527 O 153.861 -1.83778 0.419271 0
M  V30 1528 C 150.988 -3.1939 1.12729 0
M  V30 1529 C 150.034 -3.60148 2.28463 0
M  V30 1530 S 150.867 -3.65994 3.90907 0
M  V30 1531 C 152.023 -5.05264 3.69403 0
M  V30 1532 H 152.256 -1.86361 2.3164 0
M  V30 1533 H 149.789 -0.872439 1.27389 0
M  V30 1534 H 151.747 -3.98211 0.996893 0
M  V30 1535 H 150.408 -3.1351 0.192427 0
M  V30 1536 H 149.601 -4.59309 2.07489 0
M  V30 1537 H 149.203 -2.88612 2.37863 0
M  V30 1538 H 151.495 -5.92504 3.28551 0
M  V30 1539 H 152.438 -5.31278 4.68134 0
M  V30 1540 H 152.846 -4.76377 3.02862 0
M  V30 1541 N 152.244 -1.26651 -0.937939 0
M  V30 1542 C 153.493 -1.11775 -1.67897 0
M  V30 1543 C 153.806 0.33794 -1.92659 0
M  V30 1544 O 155.012 0.607434 -2.64618 0
M  V30 1545 C 153.468 -1.9523 -3.02346 0
M  V30 1546 C 153.076 -3.45393 -2.8532 0
M  V30 1547 C 154.82 -1.88972 -3.80118 0
M  V30 1548 C 152.727 -4.21083 -4.15263 0
M  V30 1549 H 151.657 -0.414696 -0.629717 0
M  V30 1550 H 154.308 -1.50988 -1.04283 0
M  V30 1551 H 152.69 -1.48853 -3.66959 0
M  V30 1552 H 153.864 -3.99561 -2.29537 0
M  V30 1553 H 152.179 -3.52921 -2.20988 0
M  V30 1554 H 154.776 -2.42805 -4.76392 0
M  V30 1555 H 155.119 -0.86113 -4.07296 0
M  V30 1556 H 155.652 -2.33189 -3.22285 0
M  V30 1557 H 152.391 -5.24425 -3.93267 0
M  V30 1558 H 151.911 -3.71695 -4.70747 0
M  V30 1559 H 153.59 -4.29706 -4.83696 0
M  V30 1560 N 153.722 1.14298 -1.08507 0
M  V30 1561 C 154.652 2.21542 -0.737646 0
M  V30 1562 C 155.633 1.67773 0.280377 0
M  V30 1563 O 156.818 1.93616 0.150521 0
M  V30 1564 C 153.948 3.46988 -0.147259 0
M  V30 1565 C 152.902 4.13789 -1.09374 0
M  V30 1566 C 152.228 5.33449 -0.365524 0
M  V30 1567 C 153.528 4.62208 -2.4323 0
M  V30 1568 H 155.222 2.5086 -1.6343 0
M  V30 1569 H 152.768 1.20576 -0.787243 0
M  V30 1570 H 154.721 4.21262 0.107808 0
M  V30 1571 H 153.445 3.17037 0.784538 0
M  V30 1572 H 152.104 3.4147 -1.33393 0
M  V30 1573 H 151.752 4.99759 0.57011 0
M  V30 1574 H 151.452 5.79088 -0.996512 0
M  V30 1575 H 152.976 6.10485 -0.118534 0
M  V30 1576 H 154.39 5.27952 -2.23472 0
M  V30 1577 H 152.787 5.18553 -3.02031 0
M  V30 1578 H 153.857 3.77224 -3.04681 0
M  V30 1579 N 155.201 0.870884 1.31352 0
M  V30 1580 C 156.164 0.332243 2.26779 0
M  V30 1581 C 157.164 -0.517302 1.52252 0
M  V30 1582 O 158.354 -0.326477 1.71113 0
M  V30 1583 C 155.486 -0.528066 3.36785 0
M  V30 1584 H 156.679 1.17469 2.75937 0
M  V30 1585 H 154.232 0.64655 1.423 0
M  V30 1586 H 154.967 -1.39167 2.92922 0
M  V30 1587 H 154.752 0.0802582 3.92018 0
M  V30 1588 H 156.242 -0.897179 4.07849 0
M  V30 1589 N 156.679 -1.44442 0.630414 0
M  V30 1590 C 157.907 -2.06414 0.141671 0
M  V30 1591 C 158.322 -1.47105 -1.18345 0
M  V30 1592 O 157.679 -0.593662 -1.72574 0
M  V30 1593 C 157.73 -3.61494 0.0199784 0
M  V30 1594 O 157.451 -4.18594 1.29269 0
M  V30 1595 C 158.952 -4.40499 -0.497544 0
M  V30 1596 H 156.172 -0.666292 0.0793452 0
M  V30 1597 H 158.716 -1.85323 0.864614 0
M  V30 1598 H 156.871 -3.8185 -0.653402 0
M  V30 1599 H 157.285 -5.12026 1.13707 0
M  V30 1600 H 158.759 -5.49433 -0.531708 0
M  V30 1601 H 159.236 -4.11895 -1.52445 0
M  V30 1602 H 159.842 -4.25061 0.142562 0
M  V30 1603 N 158.157 -0.370918 -1.53173 0
M  V30 1604 C 159.406 0.218249 -2.00516 0
M  V30 1605 C 159.719 1.49429 -1.26215 0
M  V30 1606 O 160.925 2.16239 -1.64174 0
M  V30 1607 C 159.381 0.43948 -3.57207 0
M  V30 1608 C 158.989 -0.822244 -4.4039 0
M  V30 1609 C 160.733 0.986012 -4.1289 0
M  V30 1610 C 158.64 -0.570304 -5.88644 0
M  V30 1611 H 157.57 0.0853333 -0.749156 0
M  V30 1612 H 160.221 -0.490483 -1.76823 0
M  V30 1613 H 158.603 1.20961 -3.77074 0
M  V30 1614 H 159.777 -1.59557 -4.32294 0
M  V30 1615 H 158.092 -1.29238 -3.95836 0
M  V30 1616 H 160.689 1.18991 -5.21292 0
M  V30 1617 H 161.032 1.94972 -3.6782 0
M  V30 1618 H 161.565 0.27592 -3.96842 0
M  V30 1619 H 158.304 -1.50449 -6.38001 0
M  V30 1620 H 157.824 0.164427 -5.99575 0
M  V30 1621 H 159.503 -0.19784 -6.46697 0
M  V30 1622 N 159.635 1.57281 -0.100228 0
M  V30 1623 C 160.884 1.93713 0.561984 0
M  V30 1624 C 161.197 0.984492 1.69018 0
M  V30 1625 O 162.403 1.24273 2.41389 0
M  V30 1626 C 160.859 3.4421 1.05106 0
M  V30 1627 C 160.467 4.47975 -0.0476628 0
M  V30 1628 C 162.211 3.89595 1.68571 0
M  V30 1629 C 160.118 5.89631 0.457055 0
M  V30 1630 H 159.048 0.723082 0.2137 0
M  V30 1631 H 161.699 1.82644 -0.177057 0
M  V30 1632 H 160.081 3.50449 1.84395 0
M  V30 1633 H 161.255 4.53385 -0.823333 0
M  V30 1634 H 159.57 4.1223 -0.587816 0
M  V30 1635 H 162.167 4.92832 2.07414 0
M  V30 1636 H 162.51 3.28526 2.55688 0
M  V30 1637 H 163.043 3.86078 0.958562 0
M  V30 1638 H 159.782 6.54411 -0.377616 0
M  V30 1639 H 159.302 5.87681 1.19962 0
M  V30 1640 H 160.981 6.40363 0.92437 0
M  V30 1641 N 161.113 -0.173488 1.56642 0
M  V30 1642 C 162.076 -1.19859 1.95362 0
M  V30 1643 C 163.076 -1.37296 0.83704 0
M  V30 1644 O 164.266 -1.34739 1.10413 0
M  V30 1645 C 161.398 -2.56405 2.24654 0
M  V30 1646 H 162.591 -0.867062 2.87092 0
M  V30 1647 H 160.144 -0.415853 1.50666 0
M  V30 1648 H 160.879 -2.94576 1.35631 0
M  V30 1649 H 160.664 -2.45115 3.06041 0
M  V30 1650 H 162.154 -3.30287 2.5554 0
M  V30 1651 N 162.591 -1.51276 -0.441967 0
M  V30 1652 C 163.539 -1.72823 -1.55676 0
M  V30 1653 C 164.533 -0.59445 -1.58627 0
M  V30 1654 O 165.739 -0.775715 -1.62427 0
M  V30 1655 H 162.114 -0.545983 -0.517113 0
M  V30 1656 H 164.085 -2.6628 -1.34675 0
M  V30 1657 C 162.834 -1.86619 -2.93375 0
M  V30 1658 H 162.157 -2.73264 -2.91834 0
M  V30 1659 H 163.597 -2.05709 -3.70756 0
M  V30 1660 C 162.056 -0.624842 -3.31055 0
M  V30 1661 O 162.586 0.222636 -4.01083 0
M  V30 1662 N 160.792 -0.470288 -2.86769 0
M  V30 1663 H 160.339 -1.161 -2.29953 0
M  V30 1664 H 160.297 0.359051 -3.12343 0
M  V30 1665 N 164.069 0.697108 -1.41344 0
M  V30 1666 C 165.309 1.46939 -1.42085 0
M  V30 1667 C 165.673 1.9198 -0.0280397 0
M  V30 1668 O 166.874 2.6865 0.0897504 0
M  V30 1669 C 165.145 2.64985 -2.39828 0
M  V30 1670 S 166.704 3.54147 -2.59085 0
M  V30 1671 H 163.522 0.502146 -0.503359 0
M  V30 1672 H 166.124 0.813546 -1.77769 0
M  V30 1673 H 164.828 2.30098 -3.39828 0
M  V30 1674 H 164.359 3.35464 -2.05493 0
M  V30 1675 H 166.374 4.60137 -1.85711 0
M  V30 1676 N 165.547 1.27147 0.931209 0
M  V30 1677 C 166.796 1.12664 1.67302 0
M  V30 1678 C 167.109 -0.327718 1.92835 0
M  V30 1679 O 168.315 -0.593392 2.64936 0
M  V30 1680 C 166.771 1.9683 3.01307 0
M  V30 1681 C 166.379 3.46901 2.83485 0
M  V30 1682 C 168.123 1.90985 3.79111 0
M  V30 1683 C 166.03 4.23279 4.13024 0
M  V30 1684 H 164.96 0.41803 0.627509 0
M  V30 1685 H 167.611 1.51539 1.03481 0
M  V30 1686 H 165.993 1.50797 3.66164 0
M  V30 1687 H 167.167 4.00773 2.27415 0
M  V30 1688 H 165.482 3.54088 2.19113 0
M  V30 1689 H 168.079 2.45328 4.75098 0
M  V30 1690 H 168.422 0.882718 4.06834 0
M  V30 1691 H 168.955 2.34895 3.21044 0
M  V30 1692 H 165.694 5.26503 3.90481 0
M  V30 1693 H 165.214 3.74186 4.6877 0
M  V30 1694 H 166.893 4.32265 4.81411 0
M  V30 1695 N 167.025 -1.13721 1.09112 0
M  V30 1696 C 168.271 -1.85198 0.826414 0
M  V30 1697 C 168.604 -1.83129 -0.646319 0
M  V30 1698 O 167.879 -1.2671 -1.47563 0
M  V30 1699 C 168.162 -3.33507 1.35812 0
M  V30 1700 C 168.015 -3.44108 2.89672 0
M  V30 1701 C 169.334 -4.28838 0.989256 0
M  V30 1702 H 166.453 -0.67243 0.301675 0
M  V30 1703 H 169.095 -1.33499 1.35197 0
M  V30 1704 H 167.245 -3.77666 0.911082 0
M  V30 1705 H 168.917 -3.08684 3.428 0
M  V30 1706 H 167.16 -2.85087 3.26967 0
M  V30 1707 H 167.831 -4.48388 3.21951 0
M  V30 1708 H 170.307 -3.92734 1.37475 0
M  V30 1709 H 169.183 -5.31051 1.38838 0
M  V30 1710 H 169.444 -4.4198 -0.102924 0
M  V30 1711 N 168.503 -0.877838 -1.30888 0
M  V30 1712 C 169.433 -0.35534 -2.3078 0
M  V30 1713 C 170.414 0.557994 -1.60687 0
M  V30 1714 O 171.599 0.473355 -1.88343 0
M  V30 1715 C 168.729 0.437221 -3.44537 0
M  V30 1716 C 167.683 -0.383715 -4.26276 0
M  V30 1717 C 167.009 0.535014 -5.32017 0
M  V30 1718 C 168.309 -1.62201 -4.96476 0
M  V30 1719 H 170.003 -1.19007 -2.74732 0
M  V30 1720 H 167.549 -0.573698 -1.32078 0
M  V30 1721 H 169.502 0.813334 -4.13477 0
M  V30 1722 H 168.226 1.30553 -2.99372 0
M  V30 1723 H 166.885 -0.741874 -3.59015 0
M  V30 1724 H 166.533 1.40083 -4.831 0
M  V30 1725 H 166.233 -0.0104211 -5.87599 0
M  V30 1726 H 167.757 0.907799 -6.03814 0
M  V30 1727 H 169.171 -1.31689 -5.5797 0
M  V30 1728 H 167.568 -2.10711 -5.61891 0
M  V30 1729 H 168.638 -2.37044 -4.23011 0
M  V30 1730 N 169.982 1.44106 -0.638065 0
M  V30 1731 C 170.945 2.29138 0.0531013 0
M  V30 1732 C 171.945 1.41409 0.765506 0
M  V30 1733 O 173.135 1.63206 0.609046 0
M  V30 1734 C 170.267 3.23144 1.08584 0
M  V30 1735 H 171.46 2.91739 -0.694883 0
M  V30 1736 H 169.013 1.51134 -0.398538 0
M  V30 1737 H 169.748 2.65408 1.86357 0
M  V30 1738 H 169.533 3.87804 0.578852 0
M  V30 1739 H 171.023 3.87004 1.56899 0
M  V30 1740 N 171.46 0.379036 1.52974 0
M  V30 1741 C 172.39 -0.452706 2.29069 0
M  V30 1742 C 173.371 -1.07237 1.32039 0
M  V30 1743 O 174.556 -1.08708 1.60923 0
M  V30 1744 C 171.686 -1.5856 3.08992 0
M  V30 1745 C 170.64 -1.0925 4.13822 0
M  V30 1746 C 169.966 -2.31668 4.81907 0
M  V30 1747 C 171.266 -0.167702 5.22031 0
M  V30 1748 H 172.96 0.182181 2.98845 0
M  V30 1749 H 170.506 0.0890592 1.43724 0
M  V30 1750 H 172.459 -2.1742 3.6098 0
M  V30 1751 H 171.183 -2.24792 2.36931 0
M  V30 1752 H 169.842 -0.526494 3.628 0
M  V30 1753 H 169.49 -2.96386 4.06404 0
M  V30 1754 H 169.19 -1.9934 5.52754 0
M  V30 1755 H 170.714 -2.91189 5.36695 0
M  V30 1756 H 172.128 -0.664186 5.6944 0
M  V30 1757 H 170.525 0.0653265 6.00064 0
M  V30 1758 H 171.595 0.786347 4.78482 0
M  V30 1759 N 172.938 -1.57226 0.108567 0
M  V30 1760 C 173.848 -2.18292 -0.859401 0
M  V30 1761 C 174.864 -1.15612 -1.30038 0
M  V30 1762 O 176.04 -1.48039 -1.36552 0
M  V30 1763 C 173.105 -2.762 -2.09558 0
M  V30 1764 C 172.166 -3.93881 -1.70752 0
M  V30 1765 C 171.399 -4.49018 -2.88477 0
M  V30 1766 O 171.622 -4.03068 -4.036 0
M  V30 1767 O 170.556 -5.39852 -2.66164 0
M  V30 1768 H 174.382 -3.01441 -0.369769 0
M  V30 1769 H 171.967 -1.48945 -0.1165 0
M  V30 1770 H 173.849 -3.13156 -2.81978 0
M  V30 1771 H 172.524 -1.96089 -2.57548 0
M  V30 1772 H 171.431 -3.61713 -0.954714 0
M  V30 1773 H 172.764 -4.75396 -1.27513 0
M  V30 1774 N 174.416 0.165178 -1.56732 0
M  V30 1775 C 175.348 1.22911 -1.93457 0
M  V30 1776 C 176.361 1.40152 -0.828333 0
M  V30 1777 O 177.55 1.40046 -1.10677 0
M  V30 1778 C 174.65 2.59686 -2.17753 0
M  V30 1779 C 173.823 2.63663 -3.48999 0
M  V30 1780 C 172.882 3.81845 -3.62051 0
M  V30 1781 O 171.908 3.67559 -4.34613 0
M  V30 1782 N 173.11 4.98557 -2.97357 0
M  V30 1783 H 175.875 0.917118 -2.85323 0
M  V30 1784 H 173.436 0.354895 -1.57962 0
M  V30 1785 H 175.428 3.37225 -2.23743 0
M  V30 1786 H 173.998 2.83251 -1.32242 0
M  V30 1787 H 173.218 1.72173 -3.54612 0
M  V30 1788 H 174.506 2.63336 -4.35352 0
M  V30 1789 H 173.904 5.13065 -2.38287 0
M  V30 1790 H 172.461 5.73936 -3.08934 0
M  V30 1791 N 175.894 1.51508 0.433938 0
M  V30 1792 C 176.844 1.69451 1.52546 0
M  V30 1793 C 177.828 0.548474 1.51263 0
M  V30 1794 O 179.02 0.804529 1.57659 0
M  V30 1795 C 176.149 1.82604 2.90707 0
M  V30 1796 C 175.235 3.03002 2.96733 0
M  V30 1797 N 175.626 4.26121 2.72496 0
M  V30 1798 C 173.924 3.02327 3.27894 0
M  V30 1799 C 174.625 5.07407 2.84452 0
M  V30 1800 N 173.601 4.42126 3.16269 0
M  V30 1801 H 177.403 2.62305 1.32564 0
M  V30 1802 H 174.917 1.49202 0.641297 0
M  V30 1803 H 176.914 1.93569 3.69238 0
M  V30 1804 H 175.574 0.909339 3.11707 0
M  V30 1805 H 176.585 4.55009 2.4736 0
M  V30 1806 H 173.262 2.20301 3.54646 0
M  V30 1807 H 174.652 6.15422 2.69639 0
M  V30 1808 N 177.372 -0.689602 1.41712 0
M  V30 1809 C 178.302 -1.81577 1.46806 0
M  V30 1810 C 179.283 -1.66945 0.326105 0
M  V30 1811 O 180.468 -1.86588 0.538377 0
M  V30 1812 C 177.598 -3.19762 1.35535 0
M  V30 1813 C 176.552 -3.49107 2.47605 0
M  V30 1814 C 175.878 -4.86711 2.21397 0
M  V30 1815 C 177.178 -3.47483 3.89939 0
M  V30 1816 H 178.872 -1.7757 2.41058 0
M  V30 1817 H 176.418 -0.852887 1.16025 0
M  V30 1818 H 178.371 -3.98263 1.3771 0
M  V30 1819 H 177.095 -3.24409 0.377708 0
M  V30 1820 H 175.754 -2.72959 2.44722 0
M  V30 1821 H 175.402 -4.8799 1.21961 0
M  V30 1822 H 175.102 -5.0731 2.96497 0
M  V30 1823 H 176.626 -5.67515 2.25297 0
M  V30 1824 H 178.04 -4.1598 3.94505 0
M  V30 1825 H 176.437 -3.79615 4.64771 0
M  V30 1826 H 177.507 -2.46341 4.17665 0
M  V30 1827 N 178.85 -1.27639 -0.924453 0
M  V30 1828 C 180.261 -1.12834 -1.48746 0
M  V30 1829 C 180.612 0.285505 -1.94112 0
M  V30 1830 O 179.737 1.17874 -1.81479 0
M  V30 1831 C 180.332 -2.04217 -2.70334 0
M  V30 1832 C 178.891 -1.93509 -3.22848 0
M  V30 1833 C 178.038 -1.96583 -1.95577 0
M  V30 1834 H 180.989 -1.40484 -0.738233 0
M  V30 1835 H 181.01 -1.59989 -3.4523 0
M  V30 1836 H 180.522 -3.07111 -2.37285 0
M  V30 1837 H 178.623 -0.936131 -3.60649 0
M  V30 1838 H 178.736 -2.79917 -3.88823 0
M  V30 1839 H 177.1 -1.4085 -2.12211 0
M  V30 1840 H 177.883 -3.01137 -1.64837 0
M  V30 1841 N 180.328 1.1314 -1.09713 0
M  V30 1842 C 181.605 1.80762 -0.747302 0
M  V30 1843 C 181.985 1.96663 0.767265 0
M  V30 1844 O 181.333 1.53706 1.69076 0
M  V30 1845 C 181.543 3.15606 -1.48975 0
M  V30 1846 C 182.891 3.90914 -1.65746 0
M  V30 1847 O 183.915 3.25239 -1.45251 0
M  V30 1848 O 182.774 5.08718 -1.9967 0
M  V30 1849 H 179.868 0.782103 -0.268782 0
M  V30 1850 H 182.414 1.20041 -1.19951 0
M  V30 1851 H 181.186 2.99278 -2.52088 0
M  V30 1852 H 180.809 3.84029 -1.02991 0
M  V30 1853 N 181.806 0.884767 1.30421 0
M  V30 1854 C 183.083 0.423185 1.90967 0
M  V30 1855 C 183.463 -1.09605 1.80416 0
M  V30 1856 O 182.811 -1.93126 1.22125 0
M  V30 1857 C 183.021 0.921056 3.36627 0
M  V30 1858 C 184.369 0.955903 4.137 0
M  V30 1859 O 185.393 0.867706 3.4547 0
M  V30 1860 O 184.252 1.08614 5.35598 0
M  V30 1861 H 181.346 0.129369 0.816819 0
M  V30 1862 H 183.892 0.973653 1.3899 0
M  V30 1863 H 182.664 1.96489 3.3839 0
M  V30 1864 H 182.287 0.349741 3.96059 0
M  V30 1865 N 183.284 -1.43765 0.645699 0
M  V30 1866 C 184.561 -1.9541 0.0862963 0
M  V30 1867 C 184.941 -1.58725 -1.39175 0
M  V30 1868 O 184.289 -0.868581 -2.11348 0
M  V30 1869 C 184.499 -3.47488 0.324565 0
M  V30 1870 C 185.847 -4.24001 0.225497 0
M  V30 1871 O 186.871 -3.55274 0.256715 0
M  V30 1872 O 185.73 -5.46313 0.142801 0
M  V30 1873 H 182.824 -0.826882 -0.0139483 0
M  V30 1874 H 185.37 -1.53743 0.718415 0
M  V30 1875 H 184.142 -3.67289 1.3496 0
M  V30 1876 H 183.765 -3.96135 -0.340987 0
M  V30 1877 N 184.763 -0.387143 -1.52771 0
M  V30 1878 C 185.71 0.449048 -2.26389 0
M  V30 1879 C 186.68 1.05961 -1.27912 0
M  V30 1880 O 187.865 1.08804 -1.56737 0
M  V30 1881 C 185.005 1.57155 -3.0724 0
M  V30 1882 C 184.118 0.984066 -4.20643 0
M  V30 1883 C 183.253 2.07745 -4.88892 0
M  V30 1884 C 182.292 1.46574 -5.94292 0
M  V30 1885 N 181.429 2.49834 -6.56146 0
M  V30 1886 H 186.269 -0.185205 -2.97424 0
M  V30 1887 H 183.806 -0.103164 -1.46738 0
M  V30 1888 H 185.764 2.23309 -3.52405 0
M  V30 1889 H 184.394 2.17615 -2.38419 0
M  V30 1890 H 183.446 0.212193 -3.79808 0
M  V30 1891 H 184.758 0.497029 -4.96318 0
M  V30 1892 H 183.912 2.81673 -5.3735 0
M  V30 1893 H 182.651 2.59807 -4.12737 0
M  V30 1894 H 181.656 0.711696 -5.45174 0
M  V30 1895 H 182.881 0.953088 -6.72379 0
M  V30 1896 H 180.827 3.0107 -5.82832 0
M  V30 1897 H 180.744 2.05879 -7.27427 0
M  V30 1898 H 182.012 3.23399 -7.09249 0
M  V30 1899 N 186.241 1.57166 -0.116904 0
M  V30 1900 C 187.469 1.99473 0.549383 0
M  V30 1901 C 187.884 0.996541 1.60357 0
M  V30 1902 O 187.241 -0.0108731 1.82497 0
M  V30 1903 C 187.292 3.41788 1.17741 0
M  V30 1904 O 187.013 4.37788 0.165362 0
M  V30 1905 C 188.514 3.99216 1.92722 0
M  V30 1906 H 185.734 0.655009 0.145616 0
M  V30 1907 H 188.278 2.03494 -0.202625 0
M  V30 1908 H 186.433 3.38713 1.88021 0
M  V30 1909 H 186.847 5.20806 0.621403 0
M  V30 1910 H 188.321 5.00882 2.31995 0
M  V30 1911 H 188.798 3.3824 2.80161 0
M  V30 1912 H 189.404 4.0583 1.27209 0
M  V30 1913 N 187.719 -0.156864 1.56817 0
M  V30 1914 C 189.13 -0.717916 1.72345 0
M  V30 1915 C 189.481 -1.82124 0.729747 0
M  V30 1916 O 188.606 -2.16141 -0.105781 0
M  V30 1917 C 189.201 -1.30904 3.12489 0
M  V30 1918 C 187.76 -1.81676 3.29653 0
M  V30 1919 C 186.907 -0.701349 2.68284 0
M  V30 1920 H 189.858 0.0686989 1.58551 0
M  V30 1921 H 189.879 -2.17882 3.11942 0
M  V30 1922 H 189.391 -0.505796 3.8479 0
M  V30 1923 H 187.492 -2.64598 2.62333 0
M  V30 1924 H 187.605 -1.95226 4.3752 0
M  V30 1925 H 185.969 -1.12548 2.28484 0
M  V30 1926 H 186.752 0.0902846 3.43181 0
M  V30 1927 N 189.197 -1.51736 -0.425897 0
M  V30 1928 C 190.13 -1.68574 -1.53812 0
M  V30 1929 C 191.108 -0.53328 -1.53606 0
M  V30 1930 O 192.292 -0.758555 -1.72564 0
M  V30 1931 C 189.419 -1.70977 -2.92377 0
M  V30 1932 C 188.465 -2.92324 -3.10563 0
M  V30 1933 S 189.298 -4.52952 -2.85648 0
M  V30 1934 C 190.454 -4.58117 -4.26474 0
M  V30 1935 H 190.687 -2.62647 -1.39298 0
M  V30 1936 H 188.22 -1.41564 -0.616361 0
M  V30 1937 H 190.178 -1.73047 -3.72243 0
M  V30 1938 H 188.839 -0.78061 -3.04245 0
M  V30 1939 H 188.032 -2.90439 -4.11899 0
M  V30 1940 H 187.634 -2.88055 -2.38538 0
M  V30 1941 H 189.926 -4.34462 -5.19855 0
M  V30 1942 H 190.869 -5.59983 -4.33388 0
M  V30 1943 H 191.277 -3.8732 -4.10662 0
M  V30 1944 N 190.675 0.682077 -1.42076 0
M  V30 1945 C 191.9 1.47558 -1.45744 0
M  V30 1946 C 192.325 1.87977 -0.0680981 0
M  V30 1947 O 191.683 1.55522 0.9318 0
M  V30 1948 C 191.731 2.70575 -2.38373 0
M  V30 1949 O 190.835 3.68573 -1.85007 0
M  V30 1950 H 190.176 0.443585 -0.494093 0
M  V30 1951 H 192.706 0.837238 -1.86686 0
M  V30 1952 H 192.716 3.18729 -2.54707 0
M  V30 1953 H 191.391 2.40495 -3.39315 0
M  V30 1954 H 189.968 3.2757 -1.78192 0
M  V30 1955 N 192.153 1.28127 0.917671 0
M  V30 1956 C 193.063 1.13556 2.05286 0
M  V30 1957 C 194.079 0.0630914 1.73886 0
M  V30 1958 O 195.255 0.271598 1.9956 0
M  V30 1959 C 192.32 0.794676 3.3747 0
M  V30 1960 C 191.381 1.94909 3.82504 0
M  V30 1961 C 190.614 1.62437 5.0838 0
M  V30 1962 O 190.837 0.536905 5.67867 0
M  V30 1963 O 189.771 2.46677 5.4903 0
M  V30 1964 H 193.597 2.08844 2.20495 0
M  V30 1965 H 191.182 1.07409 1.03845 0
M  V30 1966 H 193.064 0.618344 4.16839 0
M  V30 1967 H 191.739 -0.128581 3.23445 0
M  V30 1968 H 190.646 2.18055 3.03978 0
M  V30 1969 H 191.979 2.85291 4.01086 0
M  V30 1970 N 193.631 -1.12557 1.10312 0
M  V30 1971 C 195.047 -1.36036 0.834649 0
M  V30 1972 C 195.247 -1.93946 -0.546539 0
M  V30 1973 O 194.303 -2.16484 -1.29966 0
M  V30 1974 C 195.616 -2.30312 1.9333 0
M  V30 1975 C 197.164 -2.43906 1.9616 0
M  V30 1976 C 197.639 -3.41496 3.05195 0
M  V30 1977 N 199.13 -3.49053 3.04494 0
M  V30 1978 C 199.865 -4.24471 3.85502 0
M  V30 1979 N 199.361 -5.02966 4.76442 0
M  V30 1980 N 201.154 -4.19864 3.73725 0
M  V30 1981 H 193.305 -0.733246 1.99342 0
M  V30 1982 H 195.568 -0.385234 0.866198 0
M  V30 1983 H 195.274 -1.94933 2.92735 0
M  V30 1984 H 195.148 -3.30421 1.81939 0
M  V30 1985 H 197.535 -2.78567 0.973886 0
M  V30 1986 H 197.616 -1.4369 2.11629 0
M  V30 1987 H 197.26 -3.07565 4.04186 0
M  V30 1988 H 197.19 -4.41539 2.86968 0
M  V30 1989 H 199.681 -2.93053 2.38596 0
M  V30 1990 H 199.994 -5.57846 5.34815 0
M  V30 1991 H 198.339 -5.02167 4.80472 0
M  V30 1992 H 201.53 -3.57623 3.02032 0
M  V30 1993 H 201.703 -4.78386 4.37093 0
M  V30 1994 N 195.109 -0.891671 -1.2995 0
M  V30 1995 C 196.039 -0.379797 -2.30391 0
M  V30 1996 C 197.02 0.540919 -1.6127 0
M  V30 1997 O 198.205 0.453352 -1.88834 0
M  V30 1998 C 195.335 0.400654 -3.44981 0
M  V30 1999 C 194.289 -0.428905 -4.25846 0
M  V30 2000 C 193.615 0.478557 -5.32554 0
M  V30 2001 C 194.915 -1.67458 -4.94727 0
M  V30 2002 H 196.609 -1.21914 -2.73454 0
M  V30 2003 H 194.155 -0.587675 -1.31462 0
M  V30 2004 H 196.108 0.769434 -4.14316 0
M  V30 2005 H 194.832 1.27371 -3.0074 0
M  V30 2006 H 193.491 -0.779911 -3.58208 0
M  V30 2007 H 193.139 1.34951 -4.84559 0
M  V30 2008 H 192.839 -0.0727433 -5.87555 0
M  V30 2009 H 194.363 0.843705 -6.04743 0
M  V30 2010 H 195.777 -1.376 -5.56542 0
M  V30 2011 H 194.174 -2.16659 -5.59624 0
M  V30 2012 H 195.244 -2.41518 -4.20473 0
M  V30 2013 N 196.587 1.43421 -0.653314 0
M  V30 2014 C 197.864 1.95361 -0.0966581 0
M  V30 2015 C 198.244 1.59461 1.38331 0
M  V30 2016 O 197.592 0.879777 2.10884 0
M  V30 2017 C 197.802 3.47311 -0.342988 0
M  V30 2018 C 199.15 4.23875 -0.24798 0
M  V30 2019 O 200.174 3.55133 -0.275553 0
M  V30 2020 O 199.033 5.4623 -0.171771 0
M  V30 2021 H 196.127 0.826945 0.00956291 0
M  V30 2022 H 198.673 1.5336 -0.726558 0
M  V30 2023 H 197.445 3.66569 -1.36906 0
M  V30 2024 H 197.068 3.9631 0.319975 0
M  V30 2025 N 198.065 0.39524 1.52563 0
M  V30 2026 C 199.342 -0.242908 1.94086 0
M  V30 2027 C 199.722 -1.63841 1.33114 0
M  V30 2028 O 199.07 -2.22928 0.501529 0
M  V30 2029 C 199.28 -0.26327 3.48006 0
M  V30 2030 C 200.628 -0.489354 4.21771 0
M  V30 2031 O 201.652 -0.343226 3.54543 0
M  V30 2032 O 200.511 -0.776169 5.4096 0
M  V30 2033 H 197.605 -0.152536 0.812811 0
M  V30 2034 H 200.151 0.450178 1.6362 0
M  V30 2035 H 198.923 0.713985 3.84731 0
M  V30 2036 H 198.546 -1.00103 3.84792 0
M  V30 2037 N 199.544 -1.57102 0.125237 0
M  V30 2038 C 200.772 -1.99761 -0.538797 0
M  V30 2039 C 201.187 -1.00503 -1.59827 0
M  V30 2040 O 200.544 0.00119474 -1.825 0
M  V30 2041 C 200.595 -3.42408 -1.15927 0
M  V30 2042 O 200.316 -4.37869 -0.142143 0
M  V30 2043 C 201.817 -4.00232 -1.90602 0
M  V30 2044 H 199.037 -0.655772 -0.14214 0
M  V30 2045 H 201.581 -2.03383 0.213413 0
M  V30 2046 H 199.736 -3.39706 -1.86223 0
M  V30 2047 H 200.15 -5.21128 -0.593775 0
M  V30 2048 H 201.624 -5.02105 -2.29335 0
M  V30 2049 H 202.101 -3.39721 -2.78363 0
M  V30 2050 H 202.707 -4.06499 -1.25055 0
M  V30 2051 N 201.022 0.148545 -1.56898 0
M  V30 2052 C 201.932 1.20293 -2.01412 0
M  V30 2053 C 202.948 1.47107 -0.929273 0
M  V30 2054 O 204.124 1.58807 -1.23863 0
M  V30 2055 C 201.189 2.51682 -2.38447 0
M  V30 2056 C 200.25 2.32529 -3.60872 0
M  V30 2057 C 199.483 3.57653 -3.96132 0
M  V30 2058 O 199.706 4.63771 -3.32073 0
M  V30 2059 O 198.64 3.50408 -4.89385 0
M  V30 2060 H 202.466 0.855025 -2.91416 0
M  V30 2061 H 200.051 0.357151 -1.45068 0
M  V30 2062 H 201.933 3.29147 -2.63135 0
M  V30 2063 H 200.608 2.86006 -1.51599 0
M  V30 2064 H 199.515 1.53019 -3.41373 0
M  V30 2065 H 200.848 2.03121 -4.48333 0
M  V30 2066 N 202.5 1.5196 0.417844 0
M  V30 2067 C 203.911 1.57851 0.997 0
M  V30 2068 C 204.262 0.413714 1.91789 0
M  V30 2069 O 203.387 -0.467057 2.113 0
M  V30 2070 C 203.982 2.86085 1.81496 0
M  V30 2071 C 202.541 2.94483 2.34428 0
M  V30 2072 C 201.688 2.52707 1.14169 0
M  V30 2073 H 204.639 1.57455 0.198392 0
M  V30 2074 H 204.66 2.70947 2.67148 0
M  V30 2075 H 204.172 3.70842 1.14446 0
M  V30 2076 H 202.273 2.142 3.04875 0
M  V30 2077 H 202.386 3.98546 2.65891 0
M  V30 2078 H 200.75 2.06353 1.49301 0
M  V30 2079 H 201.533 3.39828 0.486999 0
M  V30 2080 N 203.978 -0.674533 1.42435 0
M  V30 2081 C 205.208 -1.46071 1.46105 0
M  V30 2082 C 205.616 -1.89067 0.0709605 0
M  V30 2083 O 204.959 -1.58731 -0.924677 0
M  V30 2084 C 205.021 -2.74145 2.32561 0
M  V30 2085 C 204.685 -2.53224 3.8043 0
M  V30 2086 C 205.682 -2.17809 4.72075 0
M  V30 2087 C 203.367 -2.6821 4.24698 0
M  V30 2088 C 205.361 -1.97648 6.05982 0
M  V30 2089 C 203.048 -2.47665 5.58664 0
M  V30 2090 C 204.046 -2.12437 6.49122 0
M  V30 2091 O 203.734 -1.9209 7.80613 0
M  V30 2092 H 203.466 -0.455959 0.499076 0
M  V30 2093 H 206.02 -0.836193 1.87609 0
M  V30 2094 H 204.25 -3.3908 1.85908 0
M  V30 2095 H 205.939 -3.36028 2.27683 0
M  V30 2096 H 206.705 -2.05826 4.39159 0
M  V30 2097 H 202.584 -2.94609 3.54579 0
M  V30 2098 H 206.128 -1.70075 6.7655 0
M  V30 2099 H 202.025 -2.59244 5.91154 0
M  V30 2100 H 202.793 -2.06686 7.91974 0
M  V30 2101 N 205.456 -1.28612 -0.910864 0
M  V30 2102 C 206.703 -1.15934 -1.66029 0
M  V30 2103 C 207.031 0.291483 -1.92303 0
M  V30 2104 O 206.286 1.22816 -1.52364 0
M  V30 2105 C 206.585 -1.90624 -3.0232 0
M  V30 2106 C 206.251 -3.40405 -2.95695 0
M  V30 2107 C 204.913 -3.81255 -2.93595 0
M  V30 2108 C 207.265 -4.359 -2.85728 0
M  V30 2109 C 204.593 -5.15936 -2.79334 0
M  V30 2110 C 206.945 -5.70657 -2.73007 0
M  V30 2111 C 205.609 -6.10779 -2.69267 0
M  V30 2112 H 204.879 -0.424234 -0.607541 0
M  V30 2113 H 207.526 -1.5942 -1.06101 0
M  V30 2114 H 205.831 -1.39696 -3.6605 0
M  V30 2115 H 207.528 -1.78228 -3.59215 0
M  V30 2116 H 204.118 -3.07927 -2.98125 0
M  V30 2117 H 208.302 -4.053 -2.86436 0
M  V30 2118 H 203.558 -5.46146 -2.74835 0
M  V30 2119 H 207.732 -6.44311 -2.64264 0
M  V30 2120 H 205.359 -7.1509 -2.57974 0
M  V30 2121 N 206.934 1.1197 -1.10907 0
M  V30 2122 C 208.183 1.82947 -0.849302 0
M  V30 2123 C 208.496 1.85275 0.627112 0
M  V30 2124 O 209.702 2.52296 1.00295 0
M  V30 2125 C 208.158 3.28529 -1.46959 0
M  V30 2126 C 207.766 3.34546 -2.97965 0
M  V30 2127 C 209.51 4.04443 -1.28942 0
M  V30 2128 C 207.417 4.74491 -3.53004 0
M  V30 2129 H 206.347 0.685477 -0.314065 0
M  V30 2130 H 208.998 1.2604 -1.33365 0
M  V30 2131 H 207.38 3.85333 -0.912917 0
M  V30 2132 H 208.554 2.87654 -3.59989 0
M  V30 2133 H 206.869 2.72108 -3.15192 0
M  V30 2134 H 209.466 5.07787 -1.67502 0
M  V30 2135 H 209.809 4.15656 -0.231456 0
M  V30 2136 H 210.342 3.5401 -1.81443 0
M  V30 2137 H 207.081 4.68474 -4.58489 0
M  V30 2138 H 206.601 5.21816 -2.9575 0
M  V30 2139 H 208.28 5.4344 -3.51115 0
M  V30 2140 N 208.412 0.89855 1.29475 0
M  V30 2141 C 209.66 0.522847 1.9522 0
M  V30 2142 C 209.981 -0.93371 1.71192 0
M  V30 2143 O 209.251 -1.65823 1.04305 0
M  V30 2144 H 207.831 0.190366 0.722336 0
M  V30 2145 H 210.493 1.14459 1.5775 0
M  V30 2146 H 209.589 0.704476 3.04045 0
M  V30 2147 N 209.89 -1.43072 0.660911 0
M  V30 2148 C 211.139 -2.00942 0.174735 0
M  V30 2149 C 211.452 -1.52797 -1.22117 0
M  V30 2150 O 212.658 -2.02991 -1.80297 0
M  V30 2151 C 211.114 -3.58948 0.261559 0
M  V30 2152 C 210.722 -4.16085 1.66064 0
M  V30 2153 C 212.466 -4.24173 -0.166617 0
M  V30 2154 C 210.373 -5.6641 1.70098 0
M  V30 2155 H 209.303 -0.751483 0.0615631 0
M  V30 2156 H 211.954 -1.63955 0.824069 0
M  V30 2157 H 210.336 -3.93372 -0.455421 0
M  V30 2158 H 211.51 -3.93147 2.40359 0
M  V30 2159 H 209.825 -3.6326 2.03546 0
M  V30 2160 H 212.422 -5.34471 -0.156433 0
M  V30 2161 H 212.765 -3.98647 -1.19943 0
M  V30 2162 H 213.298 -3.94659 0.498875 0
M  V30 2163 H 210.037 -5.96715 2.71315 0
M  V30 2164 H 209.557 -5.91382 1.00139 0
M  V30 2165 H 211.236 -6.30585 1.44816 0
M  V30 2166 N 211.368 -0.403325 -1.52352 0
M  V30 2167 C 212.615 0.174347 -2.01748 0
M  V30 2168 C 212.943 1.45636 -1.2892 0
M  V30 2169 O 212.198 1.9193 -0.382258 0
M  V30 2170 C 212.497 0.474665 -3.54234 0
M  V30 2171 C 212.163 -0.717458 -4.45155 0
M  V30 2172 C 210.825 -1.04447 -4.69728 0
M  V30 2173 C 213.177 -1.51432 -4.98716 0
M  V30 2174 C 210.505 -2.16963 -5.45109 0
M  V30 2175 C 212.857 -2.6302 -5.75329 0
M  V30 2176 C 211.521 -2.96213 -5.98175 0
M  V30 2177 H 210.791 0.0637981 -0.738248 0
M  V30 2178 H 213.438 -0.543553 -1.83624 0
M  V30 2179 H 211.743 1.27406 -3.70506 0
M  V30 2180 H 213.44 0.934496 -3.89959 0
M  V30 2181 H 210.03 -0.452596 -4.26204 0
M  V30 2182 H 214.214 -1.27491 -4.79645 0
M  V30 2183 H 209.47 -2.43034 -5.61021 0
M  V30 2184 H 213.644 -3.25158 -6.15829 0
M  V30 2185 H 211.271 -3.83516 -6.56368 0
M  V30 2186 N 212.846 1.57033 -0.133567 0
M  V30 2187 C 214.086 1.97575 0.523789 0
M  V30 2188 C 214.45 1.01605 1.62912 0
M  V30 2189 O 215.651 1.3114 2.3464 0
M  V30 2190 C 213.922 3.42256 1.02935 0
M  V30 2191 S 215.481 4.04817 1.69319 0
M  V30 2192 H 212.299 0.690427 0.169799 0
M  V30 2193 H 214.901 1.94234 -0.222101 0
M  V30 2194 H 213.605 4.09842 0.213917 0
M  V30 2195 H 213.136 3.4928 1.81017 0
M  V30 2196 H 215.151 3.96767 2.97977 0
M  V30 2197 N 214.325 -0.140222 1.56975 0
M  V30 2198 C 215.572 -0.851687 1.83719 0
M  V30 2199 C 215.9 -1.80862 0.715485 0
M  V30 2200 O 215.155 -1.93464 -0.294956 0
M  V30 2201 C 215.454 -1.65386 3.16832 0
M  V30 2202 C 215.12 -0.843112 4.42947 0
M  V30 2203 C 213.782 -0.619464 4.77196 0
M  V30 2204 C 216.134 -0.276582 5.20466 0
M  V30 2205 C 213.462 0.181312 5.8642 0
M  V30 2206 C 215.814 0.51127 6.30531 0
M  V30 2207 C 214.478 0.745432 6.63325 0
M  V30 2208 H 213.748 -0.311654 0.672274 0
M  V30 2209 H 216.395 -0.115006 1.91154 0
M  V30 2210 H 214.7 -2.46084 3.04877 0
M  V30 2211 H 216.397 -2.20793 3.34741 0
M  V30 2212 H 212.987 -1.0275 4.16101 0
M  V30 2213 H 217.171 -0.436632 4.94376 0
M  V30 2214 H 212.427 0.372165 6.10266 0
M  V30 2215 H 216.601 0.957354 6.89788 0
M  V30 2216 H 214.228 1.36778 7.47794 0
M  V30 2217 N 215.803 -1.52179 -0.40978 0
M  V30 2218 C 216.713 -1.78364 -1.52392 0
M  V30 2219 C 217.729 -0.669183 -1.60617 0
M  V30 2220 O 218.905 -0.954518 -1.77344 0
M  V30 2221 C 215.97 -1.92822 -2.88133 0
M  V30 2222 C 215.031 -3.16725 -2.898 0
M  V30 2223 C 214.264 -3.30483 -4.19067 0
M  V30 2224 O 214.487 -2.49522 -5.12928 0
M  V30 2225 O 213.421 -4.2363 -4.27576 0
M  V30 2226 H 217.247 -2.72931 -1.33201 0
M  V30 2227 H 214.832 -1.37016 -0.59557 0
M  V30 2228 H 216.714 -2.04157 -3.68643 0
M  V30 2229 H 215.389 -1.01444 -3.07393 0
M  V30 2230 H 214.296 -3.10848 -2.08146 0
M  V30 2231 H 215.629 -4.07881 -2.75489 0
M  V30 2232 N 217.281 0.66697 -1.42791 0
M  V30 2233 C 218.244 1.76211 -1.46568 0
M  V30 2234 C 219.244 1.56896 -0.352196 0
M  V30 2235 O 220.434 1.63044 -0.613364 0
M  V30 2236 C 217.566 3.14935 -1.30494 0
M  V30 2237 H 218.759 1.74247 -2.44086 0
M  V30 2238 H 216.312 0.877342 -1.29354 0
M  V30 2239 H 217.047 3.2252 -0.339301 0
M  V30 2240 H 216.832 3.30359 -2.11199 0
M  V30 2241 H 218.322 3.94821 -1.36038 0
M  V30 2242 N 218.759 1.29093 0.90403 0
M  V30 2243 C 220.007 1.16583 1.65085 0
M  V30 2244 C 220.328 -0.283933 1.92922 0
M  V30 2245 O 219.598 -1.19509 1.55224 0
M  V30 2246 H 218.178 0.428467 0.611903 0
M  V30 2247 H 220.84 1.61959 1.08422 0
M  V30 2248 H 219.936 1.71266 2.6091 0
M  V30 2249 N 220.237 -1.11381 1.11499 0
M  V30 2250 C 221.486 -1.82494 0.858993 0
M  V30 2251 C 221.799 -1.85605 -0.617278 0
M  V30 2252 O 223.005 -2.52824 -0.989552 0
M  V30 2253 C 221.461 -3.27745 1.48699 0
M  V30 2254 C 221.069 -3.32961 2.99735 0
M  V30 2255 C 222.813 -4.03754 1.31085 0
M  V30 2256 C 220.72 -4.72612 3.55516 0
M  V30 2257 H 219.65 -0.683802 0.317696 0
M  V30 2258 H 222.301 -1.25331 1.34031 0
M  V30 2259 H 220.683 -3.84844 0.933339 0
M  V30 2260 H 221.857 -2.85741 3.61509 0
M  V30 2261 H 220.172 -2.70433 3.16631 0
M  V30 2262 H 222.769 -5.06891 1.70192 0
M  V30 2263 H 223.112 -4.15527 0.253496 0
M  V30 2264 H 223.645 -3.53043 1.83318 0
M  V30 2265 H 220.384 -4.66036 4.60967 0
M  V30 2266 H 219.904 -5.2024 2.98513 0
M  V30 2267 H 221.583 -5.4157 3.53992 0
M  V30 2268 N 221.715 -0.905404 -1.28997 0
M  V30 2269 C 222.662 -0.385892 -2.27551 0
M  V30 2270 C 223.632 0.535113 -1.57244 0
M  V30 2271 O 224.817 0.459119 -1.85194 0
M  V30 2272 C 221.957 0.375461 -3.43051 0
M  V30 2273 C 221.07 -0.577092 -4.28128 0
M  V30 2274 C 220.205 0.201879 -5.30816 0
M  V30 2275 C 219.244 -0.744829 -6.07551 0
M  V30 2276 N 218.381 9.42587e-05 -7.021 0
M  V30 2277 H 223.221 -1.23139 -2.71368 0
M  V30 2278 H 220.758 -0.618542 -1.33463 0
M  V30 2279 H 222.716 0.832992 -4.088 0
M  V30 2280 H 221.346 1.18537 -3.00248 0
M  V30 2281 H 220.398 -1.15315 -3.62501 0
M  V30 2282 H 221.71 -1.30152 -4.8152 0
M  V30 2283 H 220.864 0.720351 -6.02408 0
M  V30 2284 H 219.603 0.959413 -4.7817 0
M  V30 2285 H 218.608 -1.27475 -5.34818 0
M  V30 2286 H 219.833 -1.50178 -6.62286 0
M  V30 2287 H 217.779 0.739791 -6.51815 0
M  V30 2288 H 217.696 -0.664321 -7.53076 0
M  V30 2289 H 218.964 0.498644 -7.77903 0
M  V30 2290 N 223.193 1.4272 -0.668489 0
M  V30 2291 C 224.442 2.00846 -0.185389 0
M  V30 2292 C 224.755 1.53442 1.21305 0
M  V30 2293 O 225.961 2.03944 1.79218 0
M  V30 2294 C 224.417 3.58805 -0.280591 0
M  V30 2295 C 224.025 4.15198 -1.68268 0
M  V30 2296 C 225.769 4.24255 0.14412 0
M  V30 2297 C 223.676 5.655 -1.73099 0
M  V30 2298 H 222.606 0.751145 -0.0655475 0
M  V30 2299 H 225.257 1.63516 -0.832752 0
M  V30 2300 H 223.639 3.93608 0.434553 0
M  V30 2301 H 224.813 3.91866 -2.42441 0
M  V30 2302 H 223.128 3.62176 -2.05469 0
M  V30 2303 H 225.725 5.34547 0.128086 0
M  V30 2304 H 226.068 3.99277 1.17827 0
M  V30 2305 H 226.601 3.94389 -0.519798 0
M  V30 2306 H 223.34 5.95268 -2.74475 0
M  V30 2307 H 222.86 5.90842 -1.03274 0
M  V30 2308 H 224.539 6.29808 -1.48158 0
M  V30 2309 N 224.671 0.411399 1.52136 0
M  V30 2310 C 225.92 -0.165009 2.01024 0
M  V30 2311 C 226.233 -1.4603 1.30133 0
M  V30 2312 O 227.439 -2.1181 1.69849 0
M  V30 2313 C 225.895 -0.344618 3.58246 0
M  V30 2314 C 225.503 0.938716 4.38055 0
M  V30 2315 C 227.247 -0.876195 4.15359 0
M  V30 2316 C 225.154 0.726172 5.86925 0
M  V30 2317 H 224.084 -0.0654407 0.751155 0
M  V30 2318 H 226.735 0.537192 1.75461 0
M  V30 2319 H 225.117 -1.10921 3.80148 0
M  V30 2320 H 226.291 1.70963 4.27912 0
M  V30 2321 H 224.606 1.39688 3.92271 0
M  V30 2322 H 227.203 -1.05128 5.24263 0
M  V30 2323 H 227.546 -1.85152 3.7286 0
M  V30 2324 H 228.079 -0.170607 3.97434 0
M  V30 2325 H 224.818 1.67312 6.33788 0
M  V30 2326 H 224.338 -0.00540283 5.998 0
M  V30 2327 H 226.017 0.369231 6.45946 0
M  V30 2328 N 226.149 -1.5696 0.141893 0
M  V30 2329 C 227.112 -2.15316 -0.785587 0
M  V30 2330 C 228.112 -1.09366 -1.1788 0
M  V30 2331 O 229.302 -1.35031 -1.10056 0
M  V30 2332 C 226.434 -2.71211 -2.06537 0
M  V30 2333 H 227.627 -2.98608 -0.278041 0
M  V30 2334 H 225.18 -1.5593 -0.107519 0
M  V30 2335 H 225.915 -1.91571 -2.6167 0
M  V30 2336 H 225.7 -3.4872 -1.79268 0
M  V30 2337 H 227.19 -3.16189 -2.72789 0
M  V30 2338 N 227.627 0.131896 -1.57047 0
M  V30 2339 C 228.557 1.16384 -2.02428 0
M  V30 2340 C 229.538 1.43936 -0.90644 0
M  V30 2341 O 230.723 1.54599 -1.17528 0
M  V30 2342 C 227.853 2.49328 -2.4177 0
M  V30 2343 C 226.807 2.36266 -3.56879 0
M  V30 2344 C 226.133 3.74057 -3.8208 0
M  V30 2345 C 227.433 1.834 -4.89042 0
M  V30 2346 H 229.127 0.786433 -2.88887 0
M  V30 2347 H 226.673 0.376855 -1.38981 0
M  V30 2348 H 228.626 3.21759 -2.7212 0
M  V30 2349 H 227.35 2.88934 -1.52266 0
M  V30 2350 H 226.009 1.66286 -3.26718 0
M  V30 2351 H 225.657 4.11125 -2.89803 0
M  V30 2352 H 225.357 3.66174 -4.59554 0
M  V30 2353 H 226.881 4.48012 -4.1487 0
M  V30 2354 H 228.295 2.45636 -5.18011 0
M  V30 2355 H 226.692 1.8637 -5.70426 0
M  V30 2356 H 227.762 0.790662 -4.7841 0
M  V30 2357 N 229.106 1.52395 0.401703 0
M  V30 2358 C 230.354 1.66488 1.14569 0
M  V30 2359 C 230.675 0.400897 1.90835 0
M  V30 2360 O 229.945 -0.584415 1.8698 0
M  V30 2361 H 228.525 0.613672 0.425929 0
M  V30 2362 H 231.187 1.89464 0.457093 0
M  V30 2363 H 230.283 2.50942 1.85566 0
M  V30 2364 N 230.584 -0.659388 1.43143 0
M  V30 2365 C 231.831 -1.41935 1.44433 0
M  V30 2366 C 232.159 -1.94387 0.0663522 0
M  V30 2367 O 231.414 -1.72314 -0.927706 0
M  V30 2368 C 231.713 -2.62206 2.42864 0
M  V30 2369 C 231.379 -2.28208 3.88886 0
M  V30 2370 C 230.041 -2.18647 4.28657 0
M  V30 2371 C 232.393 -2.00887 4.8093 0
M  V30 2372 C 229.721 -1.79914 5.58433 0
M  V30 2373 C 232.073 -1.63653 6.11065 0
M  V30 2374 C 230.737 -1.52614 6.49819 0
M  V30 2375 H 230.007 -0.519376 0.528517 0
M  V30 2376 H 232.654 -0.750453 1.76183 0
M  V30 2377 H 230.959 -3.34199 2.04495 0
M  V30 2378 H 232.656 -3.2041 2.41119 0
M  V30 2379 H 229.246 -2.36557 3.57406 0
M  V30 2380 H 233.43 -2.07198 4.5098 0
M  V30 2381 H 228.686 -1.69948 5.87305 0
M  V30 2382 H 232.86 -1.41543 6.81864 0
M  V30 2383 H 230.487 -1.22371 7.50286 0
M  V30 2384 N 232.062 -1.29571 -0.897171 0
M  V30 2385 C 233.025 -1.14913 -1.98312 0
M  V30 2386 C 234.025 -0.0838629 -1.60581 0
M  V30 2387 O 235.215 -0.331006 -1.71026 0
M  V30 2388 C 232.347 -0.757835 -3.3237 0
M  V30 2389 H 233.54 -2.11377 -2.12743 0
M  V30 2390 H 231.093 -1.12793 -1.08201 0
M  V30 2391 H 231.828 0.206837 -3.2364 0
M  V30 2392 H 231.613 -1.52755 -3.61121 0
M  V30 2393 H 233.103 -0.678408 -4.12053 0
M  V30 2394 N 233.54 1.10788 -1.12088 0
M  V30 2395 C 234.787 1.82671 -0.873931 0
M  V30 2396 C 235.115 1.85004 0.600311 0
M  V30 2397 O 234.37 1.30365 1.45957 0
M  V30 2398 C 234.669 3.29294 -1.38926 0
M  V30 2399 C 234.335 3.47113 -2.87791 0
M  V30 2400 C 232.997 3.51684 -3.28439 0
M  V30 2401 C 235.349 3.52808 -3.83635 0
M  V30 2402 C 232.677 3.59513 -4.63646 0
M  V30 2403 C 235.029 3.62169 -5.18668 0
M  V30 2404 C 233.693 3.65003 -5.58864 0
M  V30 2405 H 232.963 0.668441 -0.319794 0
M  V30 2406 H 235.61 1.30613 -1.40045 0
M  V30 2407 H 233.915 3.83894 -0.783122 0
M  V30 2408 H 235.612 3.83416 -1.17443 0
M  V30 2409 H 232.202 3.4423 -2.5535 0
M  V30 2410 H 236.386 3.4853 -3.53328 0
M  V30 2411 H 231.642 3.59987 -4.94185 0
M  V30 2412 H 235.816 3.6552 -5.92763 0
M  V30 2413 H 233.443 3.70822 -6.63623 0
M  V30 2414 N 235.018 0.912232 1.28515 0
M  V30 2415 C 235.968 0.370649 2.24967 0
M  V30 2416 C 236.952 -0.516375 1.52389 0
M  V30 2417 O 238.144 -0.356345 1.73376 0
M  V30 2418 C 235.273 -0.389526 3.41083 0
M  V30 2419 C 234.359 0.51313 4.20984 0
M  V30 2420 N 234.75 1.62604 4.78951 0
M  V30 2421 C 233.048 0.313235 4.44899 0
M  V30 2422 C 233.749 2.18619 5.39055 0
M  V30 2423 N 232.725 1.47765 5.23132 0
M  V30 2424 H 236.527 1.22061 2.67354 0
M  V30 2425 H 234.041 0.764712 1.43269 0
M  V30 2426 H 236.038 -0.794353 4.09262 0
M  V30 2427 H 234.698 -1.2366 3.0023 0
M  V30 2428 H 235.709 2.00864 4.77362 0
M  V30 2429 H 232.386 -0.494452 4.14562 0
M  V30 2430 H 233.776 3.12228 5.94948 0
M  V30 2431 N 236.496 -1.42363 0.676048 0
M  V30 2432 C 237.443 -2.308 -0.00150904 0
M  V30 2433 C 238.413 -1.46032 -0.791444 0
M  V30 2434 O 239.598 -1.74861 -0.76344 0
M  V30 2435 C 236.738 -3.31883 -0.945919 0
M  V30 2436 C 235.851 -4.31741 -0.149675 0
M  V30 2437 C 234.986 -5.19898 -1.08995 0
M  V30 2438 C 234.025 -6.11434 -0.285465 0
M  V30 2439 N 233.162 -6.92138 -1.17851 0
M  V30 2440 H 238.002 -2.88187 0.758455 0
M  V30 2441 H 235.539 -1.41952 0.38576 0
M  V30 2442 H 237.497 -3.89019 -1.50731 0
M  V30 2443 H 236.127 -2.76093 -1.6725 0
M  V30 2444 H 235.179 -3.76713 0.528359 0
M  V30 2445 H 236.491 -4.96534 0.474866 0
M  V30 2446 H 235.645 -5.81772 -1.72123 0
M  V30 2447 H 234.384 -4.55284 -1.74837 0
M  V30 2448 H 233.389 -5.48627 0.359018 0
M  V30 2449 H 234.614 -6.78097 0.368883 0
M  V30 2450 H 232.56 -6.30152 -1.82332 0
M  V30 2451 H 232.477 -7.53542 -0.609082 0
M  V30 2452 H 233.745 -7.58499 -1.79722 0
M  V30 2453 N 237.974 -0.419461 -1.51915 0
M  V30 2454 C 239.222 0.152637 -2.01523 0
M  V30 2455 C 239.543 1.44762 -1.30649 0
M  V30 2456 O 238.813 1.90997 -0.435535 0
M  V30 2457 H 237.393 0.0593966 -0.744635 0
M  V30 2458 H 240.055 -0.558073 -1.86739 0
M  V30 2459 H 239.151 0.341369 -3.10227 0
M  V30 2460 N 239.452 1.56882 -0.150215 0
M  V30 2461 C 240.677 2.01027 0.510184 0
M  V30 2462 C 241.102 1.02966 1.57415 0
M  V30 2463 O 240.46 0.00590158 1.81299 0
M  V30 2464 C 240.508 3.43899 1.08472 0
M  V30 2465 O 239.612 3.4885 2.19948 0
M  V30 2466 H 238.953 0.652233 0.124451 0
M  V30 2467 H 241.483 2.03093 -0.247894 0
M  V30 2468 H 241.493 3.82766 1.41259 0
M  V30 2469 H 240.168 4.14776 0.305582 0
M  V30 2470 H 238.745 3.21827 1.88366 0
M  V30 2471 N 240.93 -0.123565 1.57115 0
M  V30 2472 C 242.16 -0.845233 1.88519 0
M  V30 2473 C 242.568 -1.74168 0.739064 0
M  V30 2474 O 241.911 -1.81244 -0.299355 0
M  V30 2475 C 241.973 -1.73452 3.14888 0
M  V30 2476 C 241.637 -1.01285 4.45635 0
M  V30 2477 C 242.634 -0.355774 5.18681 0
M  V30 2478 C 240.319 -0.99538 4.92339 0
M  V30 2479 C 242.313 0.309114 6.3665 0
M  V30 2480 C 240 -0.32669 6.10226 0
M  V30 2481 C 240.998 0.324406 6.82229 0
M  V30 2482 O 240.686 0.982437 7.97874 0
M  V30 2483 H 240.418 -0.248534 0.628655 0
M  V30 2484 H 242.972 -0.113907 2.05084 0
M  V30 2485 H 241.202 -2.50737 2.94394 0
M  V30 2486 H 242.891 -2.33021 3.32349 0
M  V30 2487 H 243.657 -0.360918 4.83655 0
M  V30 2488 H 239.536 -1.49159 4.36202 0
M  V30 2489 H 243.08 0.8179 6.92789 0
M  V30 2490 H 238.977 -0.319294 6.4471 0
M  V30 2491 H 239.745 0.886454 8.13686 0
M  V30 2492 N 242.408 -1.52605 -0.393616 0
M  V30 2493 C 243.338 -1.80022 -1.48709 0
M  V30 2494 C 244.319 -0.651995 -1.57108 0
M  V30 2495 O 245.504 -0.89913 -1.72132 0
M  V30 2496 C 242.634 -1.96492 -2.86371 0
M  V30 2497 C 241.588 -3.12161 -2.92813 0
M  V30 2498 C 240.914 -3.13877 -4.3288 0
M  V30 2499 C 242.214 -4.51322 -2.6288 0
M  V30 2500 H 243.908 -2.71589 -1.26015 0
M  V30 2501 H 241.454 -1.30684 -0.604778 0
M  V30 2502 H 243.407 -2.14255 -3.62867 0
M  V30 2503 H 242.131 -1.01611 -3.10391 0
M  V30 2504 H 240.79 -2.94173 -2.18764 0
M  V30 2505 H 240.438 -2.16687 -4.53933 0
M  V30 2506 H 240.138 -3.91576 -4.38112 0
M  V30 2507 H 241.662 -3.33789 -5.1129 0
M  V30 2508 H 243.076 -4.69435 -3.29096 0
M  V30 2509 H 241.473 -5.31053 -2.79468 0
M  V30 2510 H 242.543 -4.58353 -1.58242 0
M  V30 2511 N 243.887 0.651787 -1.4349 0
M  V30 2512 C 245.303 0.96762 -1.26922 0
M  V30 2513 C 245.503 2.00602 -0.189982 0
M  V30 2514 O 244.559 2.48793 0.431107 0
M  V30 2515 C 245.872 1.45052 -2.63401 0
M  V30 2516 C 247.42 1.5671 -2.70945 0
M  V30 2517 C 247.895 2.0839 -4.07845 0
M  V30 2518 N 249.386 2.1569 -4.09917 0
M  V30 2519 C 250.121 2.56804 -5.12679 0
M  V30 2520 N 249.617 2.97203 -6.25813 0
M  V30 2521 N 251.41 2.56756 -5.00033 0
M  V30 2522 H 243.561 -0.0353158 -2.12371 0
M  V30 2523 H 245.824 0.0467858 -0.946845 0
M  V30 2524 H 245.53 0.761926 -3.43348 0
M  V30 2525 H 245.404 2.42529 -2.88894 0
M  V30 2526 H 247.791 2.2467 -1.9133 0
M  V30 2527 H 247.872 0.57662 -2.49216 0
M  V30 2528 H 247.516 1.41031 -4.87927 0
M  V30 2529 H 247.446 3.08271 -4.26938 0
M  V30 2530 H 249.937 1.87237 -3.28254 0
M  V30 2531 H 250.25 3.27328 -7.00055 0
M  V30 2532 H 248.595 2.95004 -6.29283 0
M  V30 2533 H 251.786 2.24572 -4.10713 0
M  V30 2534 H 251.959 2.88475 -5.80247 0
M  V30 2535 N 245.365 1.30045 0.890287 0
M  V30 2536 C 246.313 1.15873 2.01683 0
M  V30 2537 C 247.307 0.0719403 1.69247 0
M  V30 2538 O 248.513 0.232414 1.78493 0
M  V30 2539 H 244.888 0.358203 0.661207 0
M  V30 2540 H 246.859 2.11229 2.10772 0
M  V30 2541 C 245.608 0.861842 3.36849 0
M  V30 2542 H 244.931 1.69016 3.62317 0
M  V30 2543 H 246.371 0.802762 4.16331 0
M  V30 2544 C 244.83 -0.435132 3.34078 0
M  V30 2545 O 245.36 -1.4583 3.74295 0
M  V30 2546 N 243.566 -0.444377 2.87182 0
M  V30 2547 H 243.113 0.388723 2.5465 0
M  V30 2548 H 243.071 -1.31213 2.85711 0
M  V30 2549 N 246.843 -1.10192 1.12674 0
M  V30 2550 C 248.091 -1.81845 0.881861 0
M  V30 2551 C 248.412 -1.85737 -0.593867 0
M  V30 2552 O 247.682 -1.33724 -1.4316 0
M  V30 2553 H 246.262 -0.673432 0.323261 0
M  V30 2554 H 248.924 -1.33316 1.42172 0
M  V30 2555 H 248.02 -2.85288 1.2656 0
M  V30 2556 N 248.321 -0.919034 -1.28029 0
M  V30 2557 C 249.567 -0.565221 -1.95389 0
M  V30 2558 C 249.922 0.882325 -1.70976 0
M  V30 2559 O 249.215 1.61988 -1.02325 0
M  V30 2560 C 249.409 -0.816855 -3.4794 0
M  V30 2561 C 249.238 -2.28731 -3.87185 0
M  V30 2562 C 248.008 -2.93841 -4.11079 0
M  V30 2563 C 250.206 -3.26415 -3.97439 0
M  V30 2564 N 248.188 -4.31129 -4.37037 0
M  V30 2565 C 249.559 -4.48884 -4.27672 0
M  V30 2566 C 251.614 -3.21742 -3.79982 0
M  V30 2567 C 250.317 -5.67268 -4.42266 0
M  V30 2568 C 252.343 -4.39431 -3.95796 0
M  V30 2569 C 251.705 -5.60675 -4.26407 0
M  V30 2570 H 247.804 -0.256797 -0.738633 0
M  V30 2571 H 250.388 -1.18386 -1.54573 0
M  V30 2572 H 248.559 -0.227445 -3.87733 0
M  V30 2573 H 250.291 -0.426542 -4.02446 0
M  V30 2574 H 247.046 -2.44547 -4.05578 0
M  V30 2575 H 247.47 -5.02127 -4.5409 0
M  V30 2576 H 252.112 -2.29079 -3.55363 0
M  V30 2577 H 249.83 -6.60406 -4.65714 0
M  V30 2578 H 253.416 -4.37323 -3.83719 0
M  V30 2579 H 252.296 -6.50223 -4.38383 0
M  V30 2580 N 249.799 1.42003 -0.683588 0
M  V30 2581 C 250.747 2.326 0.000815408 0
M  V30 2582 C 251.741 1.50308 0.781278 0
M  V30 2583 O 252.947 1.66322 0.688251 0
M  V30 2584 H 249.322 0.751758 0.0190616 0
M  V30 2585 H 251.293 2.88011 -0.780528 0
M  V30 2586 C 250.042 3.34978 0.93195 0
M  V30 2587 H 249.365 3.98345 0.340817 0
M  V30 2588 H 250.805 4.00936 1.37936 0
M  V30 2589 C 249.264 2.67925 2.04249 0
M  V30 2590 O 249.794 2.51788 3.12995 0
M  V30 2591 N 248 2.2681 1.81675 0
M  V30 2592 H 247.547 2.40135 0.932363 0
M  V30 2593 H 247.505 1.8228 2.56167 0
M  V30 2594 N 251.277 0.427512 1.51691 0
M  V30 2595 C 252.523 -0.142439 2.02299 0
M  V30 2596 C 252.856 -1.43214 1.31162 0
M  V30 2597 O 252.131 -1.89833 0.423511 0
M  V30 2598 C 252.414 -0.371301 3.58181 0
M  V30 2599 C 252.267 0.936358 4.39946 0
M  V30 2600 C 253.586 -1.14542 4.24933 0
M  V30 2601 H 250.705 -0.0502937 0.735282 0
M  V30 2602 H 253.347 0.564584 1.81418 0
M  V30 2603 H 251.497 -0.973559 3.76104 0
M  V30 2604 H 253.169 1.57184 4.33694 0
M  V30 2605 H 251.412 1.5432 4.05423 0
M  V30 2606 H 252.083 0.730388 5.47147 0
M  V30 2607 H 254.559 -0.635362 4.11221 0
M  V30 2608 H 253.435 -1.27431 5.33903 0
M  V30 2609 H 253.696 -2.17093 3.85127 0
M  V30 2610 N 252.755 -1.56801 0.158532 0
M  V30 2611 C 253.688 -2.13148 -0.815065 0
M  V30 2612 C 254.666 -1.0581 -1.23462 0
M  V30 2613 O 255.85 -1.3371 -1.32868 0
M  V30 2614 C 252.977 -2.6606 -2.09594 0
M  V30 2615 C 252.023 -3.85651 -1.82141 0
M  V30 2616 S 252.856 -5.26041 -1.00207 0
M  V30 2617 C 254.012 -5.8235 -2.29389 0
M  V30 2618 H 254.245 -2.95396 -0.335937 0
M  V30 2619 H 251.778 -1.54299 -0.0559391 0
M  V30 2620 H 253.736 -2.97195 -2.8317 0
M  V30 2621 H 252.397 -1.83921 -2.54621 0
M  V30 2622 H 251.59 -4.20958 -2.77147 0
M  V30 2623 H 251.192 -3.55338 -1.16667 0
M  V30 2624 H 253.484 -5.94485 -3.24952 0
M  V30 2625 H 254.427 -6.79688 -1.9857 0
M  V30 2626 H 254.835 -5.10675 -2.40564 0
M  V30 2627 N 254.233 0.115231 -1.57178 0
M  V30 2628 C 255.51 0.852873 -1.76027 0
M  V30 2629 C 255.89 1.97892 -0.73498 0
M  V30 2630 O 255.238 2.27232 0.24036 0
M  V30 2631 C 255.448 1.36608 -3.21153 0
M  V30 2632 C 256.796 1.81692 -3.83762 0
M  V30 2633 O 257.82 1.46278 -3.24779 0
M  V30 2634 O 256.679 2.47104 -4.87444 0
M  V30 2635 H 253.773 0.405296 -0.720877 0
M  V30 2636 H 256.319 0.0986785 -1.69413 0
M  V30 2637 H 255.091 0.558357 -3.87296 0
M  V30 2638 H 254.714 2.18287 -3.3232 0
M  V30 2639 N 255.711 1.52812 0.385517 0
M  V30 2640 C 256.958 1.68026 1.1302 0
M  V30 2641 C 257.286 0.421934 1.89868 0
M  V30 2642 O 256.541 -0.595749 1.86412 0
M  V30 2643 C 256.84 2.86856 2.13187 0
M  V30 2644 C 256.506 4.24159 1.5297 0
M  V30 2645 C 255.168 4.61501 1.36274 0
M  V30 2646 C 257.52 5.09627 1.09223 0
M  V30 2647 C 254.848 5.81966 0.743837 0
M  V30 2648 C 257.2 6.30719 0.487411 0
M  V30 2649 C 255.864 6.6679 0.307777 0
M  V30 2650 H 255.134 0.614849 0.413571 0
M  V30 2651 H 257.781 1.86962 0.414405 0
M  V30 2652 H 256.086 2.6235 2.90998 0
M  V30 2653 H 257.783 2.95821 2.70722 0
M  V30 2654 H 254.373 3.94746 1.66954 0
M  V30 2655 H 258.557 4.81343 1.20922 0
M  V30 2656 H 253.813 6.08519 0.592891 0
M  V30 2657 H 257.987 6.96259 0.140143 0
M  V30 2658 H 255.614 7.60001 -0.173879 0
M  V30 2659 N 257.189 -0.644168 1.43834 0
M  V30 2660 C 258.435 -1.40603 1.46146 0
M  V30 2661 C 258.768 -1.93997 0.0887717 0
M  V30 2662 O 258.043 -1.72854 -0.891724 0
M  V30 2663 C 258.326 -2.58086 2.51124 0
M  V30 2664 C 258.179 -2.10126 3.97702 0
M  V30 2665 C 259.498 -3.60291 2.52742 0
M  V30 2666 H 256.617 -0.509905 0.532134 0
M  V30 2667 H 259.259 -0.729502 1.75437 0
M  V30 2668 H 257.409 -3.15801 2.26278 0
M  V30 2669 H 259.081 -1.57342 4.33637 0
M  V30 2670 H 257.324 -1.41419 4.10101 0
M  V30 2671 H 257.995 -2.94649 4.66783 0
M  V30 2672 H 260.471 -3.12352 2.7491 0
M  V30 2673 H 259.347 -4.40032 3.28121 0
M  V30 2674 H 259.608 -4.1349 1.56455 0
M  V30 2675 N 258.668 -1.30515 -0.883378 0
M  V30 2676 C 259.914 -1.19607 -1.63774 0
M  V30 2677 C 260.247 0.248314 -1.92606 0
M  V30 2678 O 259.522 1.17742 -1.54813 0
M  V30 2679 C 259.805 -2.02669 -2.97653 0
M  V30 2680 C 259.658 -3.55335 -2.75784 0
M  V30 2681 C 260.977 -1.86573 -3.98596 0
M  V30 2682 H 258.096 -0.435856 -0.594305 0
M  V30 2683 H 260.738 -1.60165 -1.02212 0
M  V30 2684 H 258.888 -1.68208 -3.50197 0
M  V30 2685 H 260.56 -3.99863 -2.30016 0
M  V30 2686 H 258.803 -3.79438 -2.1026 0
M  V30 2687 H 259.474 -4.08745 -3.70988 0
M  V30 2688 H 261.95 -2.16703 -3.55217 0
M  V30 2689 H 260.826 -2.47014 -4.90179 0
M  V30 2690 H 261.087 -0.825321 -4.34328 0
M  V30 2691 N 260.146 1.09593 -1.13257 0
M  V30 2692 C 261.392 1.82003 -0.89458 0
M  V30 2693 C 261.725 1.85402 0.577906 0
M  V30 2694 O 261 1.32099 1.42759 0
M  V30 2695 C 261.283 3.28237 -1.48096 0
M  V30 2696 C 261.136 3.3312 -3.02244 0
M  V30 2697 C 262.455 4.24871 -1.14774 0
M  V30 2698 H 259.574 0.66077 -0.326424 0
M  V30 2699 H 262.216 1.28389 -1.40058 0
M  V30 2700 H 260.366 3.74024 -1.05062 0
M  V30 2701 H 262.038 2.95748 -3.54021 0
M  V30 2702 H 260.281 2.72756 -3.37323 0
M  V30 2703 H 260.952 4.3613 -3.38371 0
M  V30 2704 H 263.428 3.87361 -1.51957 0
M  V30 2705 H 262.304 5.25532 -1.58452 0
M  V30 2706 H 262.565 4.42058 -0.0611849 0
M  V30 2707 N 261.624 0.925811 1.2754 0
M  V30 2708 C 262.554 0.440748 2.29303 0
M  V30 2709 C 263.535 -0.497971 1.62648 0
M  V30 2710 O 264.72 -0.403126 1.8997 0
M  V30 2711 C 261.85 -0.309048 3.45922 0
M  V30 2712 C 260.804 0.54166 4.24559 0
M  V30 2713 C 260.13 -0.337191 5.33636 0
M  V30 2714 C 261.43 1.80516 4.90114 0
M  V30 2715 H 263.124 1.29121 2.70126 0
M  V30 2716 H 260.67 0.622323 1.29858 0
M  V30 2717 H 262.623 -0.659315 4.1621 0
M  V30 2718 H 261.347 -1.19352 3.04011 0
M  V30 2719 H 260.006 0.874609 3.56014 0
M  V30 2720 H 259.654 -1.22056 4.87966 0
M  V30 2721 H 259.354 0.228497 5.87156 0
M  V30 2722 H 260.878 -0.683072 6.06767 0
M  V30 2723 H 262.292 1.52307 5.52698 0
M  V30 2724 H 260.689 2.3142 5.53683 0
M  V30 2725 H 261.759 2.52581 4.13921 0
M  V30 2726 N 263.102 -1.41638 0.69111 0
M  V30 2727 C 264.33 -2.05628 0.22909 0
M  V30 2728 C 264.745 -1.51992 -1.11999 0
M  V30 2729 O 264.102 -0.666322 -1.69901 0
M  V30 2730 C 264.153 -3.61084 0.173283 0
M  V30 2731 O 263.874 -4.12735 1.46907 0
M  V30 2732 C 265.375 -4.42213 -0.310266 0
M  V30 2733 H 262.595 -0.662327 0.107534 0
M  V30 2734 H 265.139 -1.81489 0.942438 0
M  V30 2735 H 263.294 -3.84278 -0.490858 0
M  V30 2736 H 263.708 -5.06743 1.35322 0
M  V30 2737 H 265.182 -5.51194 -0.298196 0
M  V30 2738 H 265.659 -4.1799 -1.34838 0
M  V30 2739 H 266.265 -4.24074 0.322716 0
M  V30 2740 N 264.58 -0.43555 -1.51462 0
M  V30 2741 C 265.828 0.131254 -2.01673 0
M  V30 2742 C 266.149 1.43368 -1.32177 0
M  V30 2743 O 265.419 1.90524 -0.455769 0
M  V30 2744 H 263.999 0.0514954 -0.745223 0
M  V30 2745 H 266.661 -0.577847 -1.86137 0
M  V30 2746 H 265.757 0.308446 -3.10572 0
M  V30 2747 N 266.058 1.56714 -0.166846 0
M  V30 2748 C 267.307 1.95922 0.479318 0
M  V30 2749 C 267.62 1.05529 1.6469 0
M  V30 2750 O 268.826 1.34399 2.35901 0
M  V30 2751 C 267.282 3.48359 0.90412 0
M  V30 2752 C 266.89 4.47369 -0.237621 0
M  V30 2753 C 268.634 3.96394 1.51896 0
M  V30 2754 C 266.541 5.91039 0.206561 0
M  V30 2755 H 265.471 0.731495 0.18284 0
M  V30 2756 H 268.122 1.81728 -0.254363 0
M  V30 2757 H 266.504 3.57955 1.69365 0
M  V30 2758 H 267.678 4.49485 -1.01489 0
M  V30 2759 H 265.993 4.09366 -0.762128 0
M  V30 2760 H 268.59 5.01186 1.86325 0
M  V30 2761 H 268.933 3.39075 2.41524 0
M  V30 2762 H 269.466 3.89796 0.79395 0
M  V30 2763 H 266.205 6.52221 -0.654834 0
M  V30 2764 H 265.725 5.9224 0.949282 0
M  V30 2765 H 267.404 6.43707 0.651939 0
M  V30 2766 N 267.536 -0.106894 1.57237 0
M  V30 2767 C 268.466 -1.13148 2.04254 0
M  V30 2768 C 269.447 -1.42476 0.929224 0
M  V30 2769 O 270.632 -1.52709 1.19973 0
M  V30 2770 C 267.762 -2.4545 2.45706 0
M  V30 2771 C 266.716 -2.30558 3.60592 0
M  V30 2772 C 266.042 -3.67931 3.87983 0
M  V30 2773 C 267.342 -1.75597 4.91897 0
M  V30 2774 H 269.036 -0.740374 2.90101 0
M  V30 2775 H 266.582 -0.354696 1.39563 0
M  V30 2776 H 268.535 -3.17389 2.77205 0
M  V30 2777 H 267.259 -2.86475 1.56843 0
M  V30 2778 H 265.918 -1.61067 3.29322 0
M  V30 2779 H 265.566 -4.06462 2.96306 0
M  V30 2780 H 265.266 -3.58817 4.65322 0
M  V30 2781 H 266.79 -4.41356 4.21945 0
M  V30 2782 H 268.204 -2.37364 5.21854 0
M  V30 2783 H 266.601 -1.77272 5.73319 0
M  V30 2784 H 267.671 -0.714451 4.79608 0
M  V30 2785 N 269.014 -1.53014 -0.377408 0
M  V30 2786 C 269.977 -1.77957 -1.44444 0
M  V30 2787 C 270.977 -0.649763 -1.47087 0
M  V30 2788 O 272.167 -0.917897 -1.48055 0
M  V30 2789 C 269.299 -1.89089 -2.83651 0
M  V30 2790 H 270.492 -2.73243 -1.23606 0
M  V30 2791 H 268.045 -1.43912 -0.609844 0
M  V30 2792 H 268.78 -0.958293 -3.09818 0
M  V30 2793 H 268.565 -2.71254 -2.83132 0
M  V30 2794 H 270.055 -2.1002 -3.60945 0
M  V30 2795 N 270.492 0.636531 -1.44174 0
M  V30 2796 C 271.72 1.42353 -1.50144 0
M  V30 2797 C 272.135 1.88389 -0.124575 0
M  V30 2798 O 271.492 1.6051 0.868489 0
M  V30 2799 C 271.543 2.64744 -2.46156 0
M  V30 2800 O 271.264 2.20629 -3.7849 0
M  V30 2801 C 272.765 3.57929 -2.61537 0
M  V30 2802 H 269.985 0.436752 -0.5094 0
M  V30 2803 H 272.529 0.778933 -1.89084 0
M  V30 2804 H 270.684 3.25307 -2.10366 0
M  V30 2805 H 271.098 2.99938 -4.30276 0
M  V30 2806 H 272.572 4.40428 -3.32757 0
M  V30 2807 H 273.049 4.06382 -1.66585 0
M  V30 2808 H 273.655 3.03238 -2.98206 0
M  V30 2809 N 271.97 1.30982 0.876444 0
M  V30 2810 C 273.216 1.20474 1.63138 0
M  V30 2811 C 273.549 -0.238096 1.92735 0
M  V30 2812 O 272.824 -1.1692 1.55435 0
M  V30 2813 C 273.107 2.04244 2.96574 0
M  V30 2814 C 272.96 3.56793 2.73896 0
M  V30 2815 C 274.279 1.88684 3.97601 0
M  V30 2816 H 271.398 0.439001 0.591985 0
M  V30 2817 H 274.04 1.60704 1.01361 0
M  V30 2818 H 272.19 1.70063 3.493 0
M  V30 2819 H 273.862 4.01077 2.27892 0
M  V30 2820 H 272.105 3.80548 2.08245 0
M  V30 2821 H 272.776 4.10706 3.68815 0
M  V30 2822 H 275.252 2.18584 3.54062 0
M  V30 2823 H 274.128 2.4961 4.88862 0
M  V30 2824 H 274.389 0.848343 4.33884 0
M  V30 2825 N 273.449 -1.08991 1.13837 0
M  V30 2826 C 274.697 -1.80899 0.901098 0
M  V30 2827 C 275.018 -1.86356 -0.574134 0
M  V30 2828 O 274.288 -1.35235 -1.41733 0
M  V30 2829 H 272.868 -0.669966 0.330386 0
M  V30 2830 H 275.53 -1.318 1.43578 0
M  V30 2831 H 274.626 -2.83929 1.29578 0
M  V30 2832 N 274.927 -0.932562 -1.27047 0
M  V30 2833 C 276.155 -0.592031 -1.98249 0
M  V30 2834 C 276.57 0.831062 -1.69525 0
M  V30 2835 O 275.927 1.55299 -0.958561 0
M  V30 2836 C 275.978 -0.814279 -3.5221 0
M  V30 2837 O 275.699 -2.18139 -3.7993 0
M  V30 2838 C 277.2 -0.483121 -4.4066 0
M  V30 2839 H 274.42 -0.223896 -0.632544 0
M  V30 2840 H 276.964 -1.25091 -1.61779 0
M  V30 2841 H 275.119 -0.20213 -3.86872 0
M  V30 2842 H 275.533 -2.235 -4.74498 0
M  V30 2843 H 277.007 -0.689298 -5.47679 0
M  V30 2844 H 277.484 0.581546 -4.35333 0
M  V30 2845 H 278.09 -1.07362 -4.11526 0
M  V30 2846 N 276.405 1.4127 -0.698611 0
M  V30 2847 C 277.315 2.34573 -0.0357891 0
M  V30 2848 C 278.331 1.56393 0.762701 0
M  V30 2849 O 279.507 1.8886 0.699564 0
M  V30 2850 C 276.572 3.35159 0.887089 0
M  V30 2851 C 275.633 4.29225 0.0804634 0
M  V30 2852 C 274.866 5.25006 0.959387 0
M  V30 2853 O 275.089 5.26314 2.19886 0
M  V30 2854 O 274.023 6.00519 0.407439 0
M  V30 2855 H 277.849 2.92838 -0.804957 0
M  V30 2856 H 275.434 1.42175 -0.458966 0
M  V30 2857 H 277.316 3.9689 1.41621 0
M  V30 2858 H 275.991 2.79333 1.6357 0
M  V30 2859 H 274.898 3.70833 -0.493328 0
M  V30 2860 H 276.231 4.88157 -0.629547 0
M  V30 2861 N 277.883 0.443576 1.51229 0
M  V30 2862 C 279.13 -0.120796 2.02139 0
M  V30 2863 C 279.458 -1.42166 1.32736 0
M  V30 2864 O 278.713 -1.90849 0.43301 0
M  V30 2865 C 279.012 -0.380579 3.55368 0
M  V30 2866 C 278.678 0.83523 4.43097 0
M  V30 2867 C 277.34 1.16864 4.66794 0
M  V30 2868 C 279.692 1.64601 4.94526 0
M  V30 2869 C 277.02 2.31339 5.39165 0
M  V30 2870 C 279.372 2.78181 5.68153 0
M  V30 2871 C 278.036 3.11969 5.90112 0
M  V30 2872 H 277.306 -0.0442023 0.73968 0
M  V30 2873 H 279.953 0.592046 1.82118 0
M  V30 2874 H 278.258 -1.17538 3.73754 0
M  V30 2875 H 279.955 -0.830777 3.923 0
M  V30 2876 H 276.545 0.565437 4.24854 0
M  V30 2877 H 280.729 1.40163 4.76097 0
M  V30 2878 H 275.985 2.57823 5.5438 0
M  V30 2879 H 280.159 3.41371 6.06992 0
M  V30 2880 H 277.786 4.00784 6.45969 0
M  V30 2881 N 279.361 -1.56624 0.175154 0
M  V30 2882 C 280.638 -1.88688 -0.515373 0
M  V30 2883 C 281.018 -1.08564 -1.81044 0
M  V30 2884 O 280.366 -0.180703 -2.27784 0
M  V30 2885 C 280.576 -3.40768 -0.753552 0
M  V30 2886 C 281.924 -4.10587 -1.08184 0
M  V30 2887 O 282.948 -3.46106 -0.841961 0
M  V30 2888 O 281.807 -5.24512 -1.53459 0
M  V30 2889 H 278.901 -0.78301 -0.26613 0
M  V30 2890 H 281.447 -1.68347 0.213877 0
M  V30 2891 H 280.219 -3.90965 0.161829 0
M  V30 2892 H 279.842 -3.66733 -1.53598 0
M  V30 2893 N 280.839 0.0985539 -1.57292 0
M  V30 2894 C 281.769 1.12064 -2.04851 0
M  V30 2895 C 282.75 1.41981 -0.936767 0
M  V30 2896 O 283.935 1.52071 -1.20781 0
M  V30 2897 C 281.065 2.44144 -2.47004 0
M  V30 2898 C 280.019 2.28643 -3.6181 0
M  V30 2899 C 279.345 3.65869 -3.89929 0
M  V30 2900 C 280.645 1.72986 -4.92822 0
M  V30 2901 H 282.339 0.724979 -2.9049 0
M  V30 2902 H 279.885 0.34729 -1.39749 0
M  V30 2903 H 281.838 3.15914 -2.78884 0
M  V30 2904 H 280.562 2.85639 -1.5836 0
M  V30 2905 H 279.221 1.59318 -3.30172 0
M  V30 2906 H 278.869 4.04885 -2.98458 0
M  V30 2907 H 278.569 3.56344 -4.67218 0
M  V30 2908 H 280.093 4.39112 -4.2428 0
M  V30 2909 H 281.507 2.34593 -5.23105 0
M  V30 2910 H 279.904 1.74229 -5.74251 0
M  V30 2911 H 280.974 0.689007 -4.7998 0
M  V30 2912 N 282.317 1.53212 0.369288 0
M  V30 2913 C 283.733 1.42902 0.710712 0
M  V30 2914 C 283.933 0.565135 1.93413 0
M  V30 2915 O 282.989 0.0461484 2.52458 0
M  V30 2916 C 284.302 2.86042 0.927382 0
M  V30 2917 C 285.85 2.9565 1.02762 0
M  V30 2918 C 286.325 4.39843 1.27679 0
M  V30 2919 N 287.816 4.43256 1.34457 0
M  V30 2920 C 288.551 5.51929 1.55439 0
M  V30 2921 N 288.047 6.70655 1.73762 0
M  V30 2922 N 289.84 5.39502 1.57779 0
M  V30 2923 H 281.991 2.07888 -0.435457 0
M  V30 2924 H 284.254 0.938661 -0.132739 0
M  V30 2925 H 283.96 3.51557 0.100287 0
M  V30 2926 H 283.834 3.29472 1.83653 0
M  V30 2927 H 286.221 2.30291 1.84527 0
M  V30 2928 H 286.302 2.5562 0.0959504 0
M  V30 2929 H 285.946 5.05774 0.464175 0
M  V30 2930 H 285.876 4.77443 2.22162 0
M  V30 2931 H 288.367 3.5769 1.21926 0
M  V30 2932 H 288.68 7.49248 1.89335 0
M  V30 2933 H 287.025 6.73648 1.70948 0
M  V30 2934 H 290.216 4.45713 1.43029 0
M  V30 2935 H 290.389 6.2426 1.7379 0
M  V30 2936 N 283.795 -0.628877 1.44509 0
M  V30 2937 C 285.023 -1.41554 1.50897 0
M  V30 2938 C 285.438 -1.8832 0.134564 0
M  V30 2939 O 284.795 -1.60969 -0.859965 0
M  V30 2940 C 284.846 -2.63435 2.47556 0
M  V30 2941 O 284.567 -2.18619 3.79654 0
M  V30 2942 C 286.068 -3.56537 2.63431 0
M  V30 2943 H 283.288 -0.434044 0.511709 0
M  V30 2944 H 285.832 -0.768895 1.89495 0
M  V30 2945 H 283.987 -3.24187 2.12089 0
M  V30 2946 H 284.401 -2.97652 4.31861 0
M  V30 2947 H 285.875 -4.38657 3.35088 0
M  V30 2948 H 286.352 -4.05493 1.68738 0
M  V30 2949 H 286.958 -3.01653 2.9981 0
M  V30 2950 N 285.273 -1.31445 -0.869486 0
M  V30 2951 C 286.203 -1.21727 -1.99261 0
M  V30 2952 C 287.184 -0.104359 -1.6978 0
M  V30 2953 O 288.369 -0.289038 -1.92037 0
M  V30 2954 C 285.499 -0.924317 -3.34774 0
M  V30 2955 C 284.453 -1.99685 -3.78563 0
M  V30 2956 C 283.779 -1.55658 -5.11541 0
M  V30 2957 C 285.079 -3.41003 -3.95619 0
M  V30 2958 H 286.773 -2.1569 -2.07649 0
M  V30 2959 H 284.319 -1.03839 -0.997675 0
M  V30 2960 H 286.272 -0.842934 -4.12883 0
M  V30 2961 H 284.996 0.0509793 -3.2656 0
M  V30 2962 H 283.655 -2.06813 -3.02694 0
M  V30 2963 H 283.303 -0.569132 -4.9977 0
M  V30 2964 H 283.003 -2.27409 -5.41811 0
M  V30 2965 H 284.527 -1.48928 -5.92159 0
M  V30 2966 H 285.941 -3.36547 -4.64122 0
M  V30 2967 H 284.338 -4.10975 -4.37286 0
M  V30 2968 H 285.408 -3.81754 -2.98985 0
M  V30 2969 N 286.751 1.08385 -1.14413 0
M  V30 2970 C 288.167 1.32844 -0.884563 0
M  V30 2971 C 288.367 1.95841 0.474181 0
M  V30 2972 O 287.423 2.21158 1.21842 0
M  V30 2973 C 288.736 2.22978 -2.01745 0
M  V30 2974 C 290.284 2.36458 -2.05077 0
M  V30 2975 C 290.759 3.29934 -3.1766 0
M  V30 2976 N 292.25 3.37511 -3.17239 0
M  V30 2977 C 292.985 4.09871 -4.0099 0
M  V30 2978 N 292.481 4.84936 -4.94781 0
M  V30 2979 N 294.274 4.05704 -3.89051 0
M  V30 2980 H 286.425 0.658756 -2.01926 0
M  V30 2981 H 288.688 0.352821 -0.879899 0
M  V30 2982 H 288.394 1.83934 -2.99769 0
M  V30 2983 H 288.268 3.23441 -1.94077 0
M  V30 2984 H 290.655 2.7476 -1.0766 0
M  V30 2985 H 290.736 1.35736 -2.16816 0
M  V30 2986 H 290.38 2.92352 -4.15322 0
M  V30 2987 H 290.31 4.30584 -3.03158 0
M  V30 2988 H 292.801 2.83996 -2.49308 0
M  V30 2989 H 293.114 5.37612 -5.55151 0
M  V30 2990 H 291.459 4.83988 -4.98779 0
M  V30 2991 H 294.65 3.46167 -3.15097 0
M  V30 2992 H 294.823 4.61834 -4.54547 0
M  V30 2993 N 288.23 0.939286 1.26551 0
M  V30 2994 C 289.193 0.451987 2.24699 0
M  V30 2995 C 290.193 -0.435869 1.5478 0
M  V30 2996 O 291.383 -0.235314 1.72603 0
M  V30 2997 C 288.515 -0.348801 3.39111 0
M  V30 2998 H 289.708 1.3193 2.69322 0
M  V30 2999 H 287.261 0.721072 1.38673 0
M  V30 3000 H 287.996 -1.23444 2.99887 0
M  V30 3001 H 287.781 0.287945 3.91041 0
M  V30 3002 H 289.271 -0.679726 4.12031 0
M  V30 3003 N 289.708 -1.40897 0.706093 0
M  V30 3004 C 290.954 -2.01352 0.241889 0
M  V30 3005 C 291.287 -1.55832 -1.15888 0
M  V30 3006 O 290.562 -0.774145 -1.7843 0
M  V30 3007 C 290.845 -3.58752 0.311311 0
M  V30 3008 C 290.698 -4.1437 1.74978 0
M  V30 3009 C 292.017 -4.38914 -0.322922 0
M  V30 3010 H 289.136 -0.731562 0.0893687 0
M  V30 3011 H 291.778 -1.67504 0.896802 0
M  V30 3012 H 289.928 -3.87718 -0.246302 0
M  V30 3013 H 291.6 -3.96239 2.36205 0
M  V30 3014 H 289.843 -3.69016 2.28057 0
M  V30 3015 H 290.514 -5.23532 1.74981 0
M  V30 3016 H 292.99 -4.15822 0.152089 0
M  V30 3017 H 291.866 -5.48358 -0.243855 0
M  V30 3018 H 292.127 -4.19176 -1.40513 0
M  V30 3019 N 291.186 -0.45159 -1.50991 0
M  V30 3020 C 292.602 -0.104647 -1.59257 0
M  V30 3021 C 292.802 1.38728 -1.4614 0
M  V30 3022 O 291.858 2.15866 -1.30989 0
M  V30 3023 C 293.171 -0.637468 -2.93865 0
M  V30 3024 C 294.719 -0.599166 -3.07212 0
M  V30 3025 C 295.194 -1.1092 -4.44366 0
M  V30 3026 N 296.685 -1.06778 -4.50725 0
M  V30 3027 C 297.42 -1.43314 -5.55201 0
M  V30 3028 N 296.916 -1.87204 -6.67028 0
M  V30 3029 N 298.709 -1.3504 -5.45638 0
M  V30 3030 H 290.86 -1.42214 -1.57762 0
M  V30 3031 H 293.123 -0.586921 -0.744465 0
M  V30 3032 H 292.829 -1.68187 -3.08879 0
M  V30 3033 H 292.703 -0.0702139 -3.77135 0
M  V30 3034 H 295.09 0.436277 -2.91857 0
M  V30 3035 H 295.171 -1.20299 -2.25747 0
M  V30 3036 H 294.815 -2.14318 -4.60467 0
M  V30 3037 H 294.745 -0.481773 -5.24392 0
M  V30 3038 H 297.236 -0.745643 -3.70471 0
M  V30 3039 H 297.549 -2.13282 -7.42786 0
M  V30 3040 H 295.894 -1.91142 -6.68199 0
M  V30 3041 H 299.085 -1.00607 -4.57161 0
M  V30 3042 H 299.258 -1.63841 -6.26945 0
M  V30 3043 N 292.664 1.56529 -0.183458 0
M  V30 3044 C 293.91 1.97537 0.459036 0
M  V30 3045 C 294.243 1.06989 1.62071 0
M  V30 3046 O 293.518 0.11948 1.94133 0
M  V30 3047 C 293.801 3.47874 0.930368 0
M  V30 3048 C 293.654 4.492 -0.232317 0
M  V30 3049 C 294.973 4.01612 1.79989 0
M  V30 3050 H 292.092 0.718204 0.165383 0
M  V30 3051 H 294.734 1.88042 -0.272038 0
M  V30 3052 H 292.884 3.56095 1.55333 0
M  V30 3053 H 294.556 4.53027 -0.86972 0
M  V30 3054 H 292.799 4.24657 -0.885928 0
M  V30 3055 H 293.47 5.51823 0.139796 0
M  V30 3056 H 295.946 3.96097 1.27461 0
M  V30 3057 H 294.822 5.07195 2.09867 0
M  V30 3058 H 295.083 3.46163 2.74998 0
M  V30 3059 N 294.142 -0.090211 1.57342 0
M  V30 3060 C 295.072 -1.10976 2.05443 0
M  V30 3061 C 296.053 -1.41482 0.944284 0
M  V30 3062 O 297.238 -1.51428 1.21586 0
M  V30 3063 C 294.368 -2.42831 2.48295 0
M  V30 3064 C 293.322 -2.26721 3.63018 0
M  V30 3065 C 292.648 -3.63796 3.91863 0
M  V30 3066 C 293.948 -1.7037 4.93732 0
M  V30 3067 H 295.642 -0.709564 2.9087 0
M  V30 3068 H 293.188 -0.339874 1.39932 0
M  V30 3069 H 295.141 -3.14431 2.80555 0
M  V30 3070 H 293.865 -2.84795 1.59873 0
M  V30 3071 H 292.524 -1.57565 3.31012 0
M  V30 3072 H 292.172 -4.03297 3.00601 0
M  V30 3073 H 291.872 -3.53861 4.69101 0
M  V30 3074 H 293.396 -4.36855 4.26603 0
M  V30 3075 H 294.81 -2.31816 5.24342 0
M  V30 3076 H 293.207 -1.71181 5.75167 0
M  V30 3077 H 294.277 -0.663542 4.80339 0
M  V30 3078 N 295.62 -1.53406 -0.361157 0
M  V30 3079 C 297.036 -1.43277 -0.703124 0
M  V30 3080 C 297.236 -0.575384 -1.9311 0
M  V30 3081 O 296.292 -0.0595362 -2.5243 0
M  V30 3082 C 297.605 -2.8653 -0.9122 0
M  V30 3083 C 299.153 -2.96191 -1.01193 0
M  V30 3084 C 299.628 -4.40514 -1.25345 0
M  V30 3085 N 301.119 -4.43962 -1.32105 0
M  V30 3086 C 301.854 -5.52746 -1.5251 0
M  V30 3087 N 301.35 -6.71567 -1.70203 0
M  V30 3088 N 303.143 -5.40331 -1.54916 0
M  V30 3089 H 295.294 -2.07654 0.446475 0
M  V30 3090 H 297.557 -0.937944 0.137715 0
M  V30 3091 H 297.263 -3.51605 -0.0816414 0
M  V30 3092 H 297.137 -3.30441 -1.81903 0
M  V30 3093 H 299.524 -2.31266 -1.83303 0
M  V30 3094 H 299.605 -2.55667 -0.0823929 0
M  V30 3095 H 299.249 -5.06014 -0.437346 0
M  V30 3096 H 299.179 -4.78614 -2.19627 0
M  V30 3097 H 301.67 -3.58332 -1.20028 0
M  V30 3098 H 301.983 -7.50241 -1.85359 0
M  V30 3099 H 300.328 -6.74545 -1.67373 0
M  V30 3100 H 303.519 -4.46465 -1.40663 0
M  V30 3101 H 303.692 -6.25173 -1.70477 0
M  V30 3102 N 297.098 0.621204 -1.44841 0
M  V30 3103 C 298.509 1.20298 -1.42777 0
M  V30 3104 C 298.86 1.95639 -0.148259 0
M  V30 3105 O 297.985 2.02955 0.750892 0
M  V30 3106 C 298.58 2.1882 -2.58657 0
M  V30 3107 C 297.139 2.72403 -2.59756 0
M  V30 3108 C 296.286 1.4757 -2.34773 0
M  V30 3109 H 299.237 0.411297 -1.53278 0
M  V30 3110 H 299.258 3.01607 -2.31977 0
M  V30 3111 H 298.77 1.63957 -3.51766 0
M  V30 3112 H 296.871 3.31242 -1.70615 0
M  V30 3113 H 296.984 3.17765 -3.58556 0
M  V30 3114 H 295.348 1.76051 -1.8406 0
M  V30 3115 H 296.131 0.945954 -3.3001 0
M  V30 3116 N 298.576 1.31904 0.862503 0
M  V30 3117 C 299.506 1.22782 1.98612 0
M  V30 3118 C 300.487 0.113362 1.69722 0
M  V30 3119 O 301.672 0.299218 1.91881 0
M  V30 3120 C 298.802 0.942058 3.34279 0
M  V30 3121 C 297.756 2.0169 3.77499 0
M  V30 3122 C 297.082 1.58369 5.10709 0
M  V30 3123 C 298.382 3.43096 3.93805 0
M  V30 3124 H 300.076 2.16788 2.06502 0
M  V30 3125 H 297.622 1.04366 0.992154 0
M  V30 3126 H 299.575 0.864818 4.1243 0
M  V30 3127 H 298.299 -0.0336603 3.26583 0
M  V30 3128 H 296.958 2.08416 3.01593 0
M  V30 3129 H 296.606 0.595628 4.99461 0
M  V30 3130 H 296.306 2.30279 5.40597 0
M  V30 3131 H 297.83 1.52067 5.91361 0
M  V30 3132 H 299.244 3.39003 4.62331 0
M  V30 3133 H 297.641 4.13288 4.35101 0
M  V30 3134 H 298.711 3.83334 2.96957 0
M  V30 3135 N 300.054 -1.07777 1.14986 0
M  V30 3136 C 301.001 -2.14867 0.842672 0
M  V30 3137 C 301.971 -1.6486 -0.202552 0
M  V30 3138 O 303.156 -1.90668 -0.0710568 0
M  V30 3139 C 300.296 -3.43486 0.333363 0
M  V30 3140 C 299.409 -4.07306 1.43965 0
M  V30 3141 C 298.544 -5.23744 0.886914 0
M  V30 3142 C 297.583 -5.79517 1.97043 0
M  V30 3143 N 296.72 -6.87291 1.4344 0
M  V30 3144 H 301.56 -2.40485 1.75986 0
M  V30 3145 H 299.097 -1.1801 0.878179 0
M  V30 3146 H 301.055 -4.17195 0.0198163 0
M  V30 3147 H 299.685 -3.18133 -0.546916 0
M  V30 3148 H 298.737 -3.31293 1.86946 0
M  V30 3149 H 300.049 -4.44771 2.25788 0
M  V30 3150 H 299.203 -6.04419 0.525651 0
M  V30 3151 H 297.942 -4.87685 0.0377957 0
M  V30 3152 H 296.947 -4.97491 2.34057 0
M  V30 3153 H 298.172 -6.17632 2.82325 0
M  V30 3154 H 296.118 -6.5318 0.607567 0
M  V30 3155 H 296.035 -7.23617 2.18895 0
M  V30 3156 H 297.303 -7.71682 1.10124 0
M  V30 3157 N 301.532 -0.945985 -1.26051 0
M  V30 3158 C 302.462 -0.477172 -2.28572 0
M  V30 3159 C 303.443 0.472032 -1.63419 0
M  V30 3160 O 304.628 0.372853 -1.90587 0
M  V30 3161 C 301.758 0.253975 -3.4637 0
M  V30 3162 C 300.712 -0.609135 -4.23643 0
M  V30 3163 C 300.038 0.252252 -5.34105 0
M  V30 3164 C 301.338 -1.8829 -4.8718 0
M  V30 3165 H 303.032 -1.33402 -2.68038 0
M  V30 3166 H 300.578 -0.642904 -1.28852 0
M  V30 3167 H 302.531 0.593016 -4.17207 0
M  V30 3168 H 301.255 1.145 -3.05871 0
M  V30 3169 H 299.914 -0.931138 -3.54578 0
M  V30 3170 H 299.562 1.14278 -4.89846 0
M  V30 3171 H 299.262 -0.32188 -5.86718 0
M  V30 3172 H 300.786 0.586454 -6.07777 0
M  V30 3173 H 302.2 -1.61081 -5.50205 0
M  V30 3174 H 300.597 -2.40199 -5.49931 0
M  V30 3175 H 301.667 -2.59134 -4.09851 0
M  V30 3176 N 303.011 1.40521 -0.713556 0
M  V30 3177 C 304.257 2.01221 -0.252564 0
M  V30 3178 C 304.59 1.56444 1.1506 0
M  V30 3179 O 303.865 0.783597 1.78017 0
M  V30 3180 C 304.148 3.58582 -0.330332 0
M  V30 3181 C 304.001 4.13437 -1.77173 0
M  V30 3182 C 305.32 4.39079 0.299641 0
M  V30 3183 H 302.439 0.731077 -0.0932471 0
M  V30 3184 H 305.081 1.67026 -0.905673 0
M  V30 3185 H 303.231 3.87844 0.225737 0
M  V30 3186 H 304.903 3.9498 -2.38303 0
M  V30 3187 H 303.146 3.67801 -2.3001 0
M  V30 3188 H 303.817 5.22597 -1.77755 0
M  V30 3189 H 306.293 4.15735 -0.174139 0
M  V30 3190 H 305.169 5.4848 0.214771 0
M  V30 3191 H 305.43 4.19915 1.38288 0
M  V30 3192 N 304.489 0.459591 1.5075 0
M  V30 3193 C 305.714 -0.0996819 2.0716 0
M  V30 3194 C 306.139 -1.33761 1.32249 0
M  V30 3195 O 305.497 -1.77551 0.366786 0
M  V30 3196 C 305.545 -0.378226 3.58611 0
M  V30 3197 O 304.649 -1.46081 3.85661 0
M  V30 3198 H 303.99 0.00791392 0.663953 0
M  V30 3199 H 306.52 0.647329 1.9409 0
M  V30 3200 H 306.53 -0.622135 4.03229 0
M  V30 3201 H 305.205 0.526439 4.12555 0
M  V30 3202 H 303.782 -1.20511 3.5289 0
M  V30 3203 N 305.967 -1.56429 0.191757 0
M  V30 3204 C 307.215 -1.97095 -0.447006 0
M  V30 3205 C 307.536 -1.07967 -1.62383 0
M  V30 3206 O 306.806 -0.150248 -1.95323 0
M  V30 3207 H 305.386 -0.727832 -0.168135 0
M  V30 3208 H 308.048 -1.92911 0.27771 0
M  V30 3209 H 307.144 -3.01848 -0.793371 0
M  V30 3210 N 307.445 0.0818655 -1.57387 0
M  V30 3211 C 308.694 0.781681 -1.85937 0
M  V30 3212 C 309.007 1.79246 -0.782957 0
M  V30 3213 O 310.213 2.54112 -0.955987 0
M  V30 3214 C 308.669 1.44109 -3.29789 0
M  V30 3215 C 308.277 0.469396 -4.45534 0
M  V30 3216 C 310.021 2.12386 -3.67549 0
M  V30 3217 C 307.928 1.13415 -5.80423 0
M  V30 3218 H 306.858 0.295682 -0.693605 0
M  V30 3219 H 309.509 0.0348051 -1.83467 0
M  V30 3220 H 307.891 2.23588 -3.2684 0
M  V30 3221 H 309.065 -0.294856 -4.59856 0
M  V30 3222 H 307.38 -0.108383 -4.16259 0
M  V30 3223 H 309.977 2.62878 -4.65617 0
M  V30 3224 H 310.32 2.91877 -2.96839 0
M  V30 3225 H 310.853 1.39751 -3.72444 0
M  V30 3226 H 307.592 0.379771 -6.54399 0
M  V30 3227 H 307.112 1.8695 -5.69921 0
M  V30 3228 H 308.791 1.65686 -6.25426 0
M  V30 3229 N 308.923 1.53595 0.353017 0
M  V30 3230 C 310.334 1.61937 0.929153 0
M  V30 3231 C 310.685 0.494686 1.89861 0
M  V30 3232 O 309.81 -0.377017 2.1309 0
M  V30 3233 C 310.405 2.93526 1.69199 0
M  V30 3234 C 308.964 3.04161 2.21727 0
M  V30 3235 C 308.111 2.57322 1.03348 0
M  V30 3236 H 311.062 1.58155 0.131431 0
M  V30 3237 H 311.083 2.82034 2.55416 0
M  V30 3238 H 310.595 3.75362 0.986144 0
M  V30 3239 H 308.696 2.26938 2.95516 0
M  V30 3240 H 308.809 4.09465 2.48748 0
M  V30 3241 H 307.173 2.12499 1.40414 0
M  V30 3242 H 307.956 3.41588 0.342428 0
M  V30 3243 N 310.401 -0.613514 1.45168 0
M  V30 3244 C 311.626 -1.40437 1.52618 0
M  V30 3245 C 312.051 -1.87438 0.157707 0
M  V30 3246 O 311.409 -1.59791 -0.856537 0
M  V30 3247 C 311.457 -2.58894 2.51011 0
M  V30 3248 O 310.561 -3.59326 2.02382 0
M  V30 3249 H 309.902 -0.419506 0.514695 0
M  V30 3250 H 312.432 -0.747215 1.90467 0
M  V30 3251 H 312.442 -3.06214 2.69624 0
M  V30 3252 H 311.117 -2.24032 3.50403 0
M  V30 3253 H 309.694 -3.18695 1.93618 0
M  V30 3254 N 311.879 -1.3236 -0.855495 0
M  V30 3255 C 312.809 -1.23833 -1.97958 0
M  V30 3256 C 313.79 -0.122361 -1.69659 0
M  V30 3257 O 314.975 -0.30939 -1.9172 0
M  V30 3258 C 312.105 -0.959772 -3.33775 0
M  V30 3259 C 311.059 -2.03689 -3.76424 0
M  V30 3260 C 310.385 -1.61075 -5.09862 0
M  V30 3261 C 311.685 -3.4518 -3.9198 0
M  V30 3262 H 313.379 -2.1788 -2.0535 0
M  V30 3263 H 310.925 -1.04891 -0.986605 0
M  V30 3264 H 312.878 -0.886678 -4.11966 0
M  V30 3265 H 311.602 0.0163404 -3.26596 0
M  V30 3266 H 310.261 -2.10012 -3.00484 0
M  V30 3267 H 309.909 -0.622107 -4.99138 0
M  V30 3268 H 309.609 -2.33143 -5.39368 0
M  V30 3269 H 311.133 -1.55201 -5.90546 0
M  V30 3270 H 312.547 -3.4145 -4.60526 0
M  V30 3271 H 310.944 -4.1559 -4.32903 0
M  V30 3272 H 312.014 -3.84903 -2.94919 0
M  V30 3273 N 313.357 1.07166 -1.15556 0
M  V30 3274 C 314.289 2.14341 -0.811815 0
M  V30 3275 C 315.302 1.61835 0.177015 0
M  V30 3276 O 316.491 1.78439 -0.0464996 0
M  V30 3277 C 313.591 3.38387 -0.186481 0
M  V30 3278 C 312.764 4.20238 -1.21321 0
M  V30 3279 C 311.823 5.2266 -0.609302 0
M  V30 3280 O 310.849 5.54719 -1.27576 0
M  V30 3281 N 312.051 5.77306 0.608099 0
M  V30 3282 H 314.816 2.44431 -1.73417 0
M  V30 3283 H 312.377 1.23089 -1.0517 0
M  V30 3284 H 314.369 4.04044 0.230339 0
M  V30 3285 H 312.939 3.05994 0.639249 0
M  V30 3286 H 312.159 3.50369 -1.80652 0
M  V30 3287 H 313.447 4.71736 -1.90638 0
M  V30 3288 H 312.845 5.53513 1.1679 0
M  V30 3289 H 311.402 6.44583 0.96725 0
M  V30 3290 N 314.835 0.952656 1.25548 0
M  V30 3291 C 316.081 0.607272 1.93494 0
M  V30 3292 C 316.414 -0.853245 1.74452 0
M  V30 3293 O 315.689 -1.61194 1.08843 0
M  V30 3294 C 315.972 0.96435 3.46947 0
M  V30 3295 C 315.825 2.48045 3.75225 0
M  V30 3296 C 317.144 0.487987 4.37386 0
M  V30 3297 H 314.263 0.222096 0.702739 0
M  V30 3298 H 316.905 1.18895 1.48203 0
M  V30 3299 H 315.055 0.469361 3.85654 0
M  V30 3300 H 316.727 3.04905 3.46166 0
M  V30 3301 H 314.97 2.919 3.209 0
M  V30 3302 H 315.641 2.6808 4.82532 0
M  V30 3303 H 318.117 0.912558 4.0597 0
M  V30 3304 H 316.993 0.766547 5.43521 0
M  V30 3305 H 317.254 -0.612063 4.37843 0
M  V30 3306 N 316.313 -1.40141 0.720998 0
M  V30 3307 C 317.559 -2.01084 0.263231 0
M  V30 3308 C 317.892 -1.57052 -1.14229 0
M  V30 3309 O 317.167 -0.793027 -1.77599 0
M  V30 3310 C 317.45 -3.58401 0.349344 0
M  V30 3311 C 317.303 -4.12491 1.79363 0
M  V30 3312 C 318.622 -4.39231 -0.276351 0
M  V30 3313 H 315.741 -0.730572 0.0971228 0
M  V30 3314 H 318.383 -1.66543 0.914518 0
M  V30 3315 H 316.533 -3.87958 -0.205165 0
M  V30 3316 H 318.205 -3.93711 2.40394 0
M  V30 3317 H 316.448 -3.66576 2.31958 0
M  V30 3318 H 317.119 -5.21646 1.80524 0
M  V30 3319 H 319.595 -4.15637 0.196184 0
M  V30 3320 H 318.471 -5.48586 -0.185681 0
M  V30 3321 H 318.732 -4.20643 -1.36059 0
M  V30 3322 N 317.792 -0.46758 -1.50504 0
M  V30 3323 C 318.722 0.318381 -2.31319 0
M  V30 3324 C 319.703 0.993564 -1.38066 0
M  V30 3325 O 320.888 0.991411 -1.66987 0
M  V30 3326 C 318.018 1.40275 -3.17711 0
M  V30 3327 C 316.972 0.849373 -4.19487 0
M  V30 3328 C 316.298 2.03177 -4.94594 0
M  V30 3329 C 317.598 -0.136942 -5.2212 0
M  V30 3330 H 319.292 -0.356106 -2.97275 0
M  V30 3331 H 316.838 -0.172703 -1.42961 0
M  V30 3332 H 318.791 1.96004 -3.73042 0
M  V30 3333 H 317.515 2.10596 -2.49634 0
M  V30 3334 H 316.174 0.314076 -3.65252 0
M  V30 3335 H 315.822 2.72187 -4.22993 0
M  V30 3336 H 315.522 1.66774 -5.63436 0
M  V30 3337 H 317.046 2.59403 -5.52759 0
M  V30 3338 H 318.46 0.331056 -5.72343 0
M  V30 3339 H 316.857 -0.41507 -5.98663 0
M  V30 3340 H 317.927 -1.06398 -4.73083 0
M  V30 3341 N 319.27 1.56325 -0.20005 0
M  V30 3342 C 320.217 2.1932 0.718833 0
M  V30 3343 C 321.187 1.14198 1.20615 0
M  V30 3344 O 322.372 1.42469 1.26914 0
M  V30 3345 C 319.512 2.86041 1.93066 0
M  V30 3346 C 318.625 4.05702 1.48425 0
M  V30 3347 C 317.76 4.60266 2.65196 0
M  V30 3348 C 316.799 5.72273 2.17185 0
M  V30 3349 N 315.936 6.21221 3.27152 0
M  V30 3350 H 320.776 2.97486 0.17489 0
M  V30 3351 H 318.313 1.46911 0.0745794 0
M  V30 3352 H 320.271 3.22897 2.64184 0
M  V30 3353 H 318.901 2.1043 2.44783 0
M  V30 3354 H 317.953 3.74475 0.668755 0
M  V30 3355 H 319.265 4.86699 1.09204 0
M  V30 3356 H 318.419 4.99453 3.4443 0
M  V30 3357 H 317.158 3.78386 3.07693 0
M  V30 3358 H 316.163 5.3261 1.36407 0
M  V30 3359 H 317.388 6.55974 1.75713 0
M  V30 3360 H 315.334 5.42263 3.69171 0
M  V30 3361 H 315.251 6.97284 2.92116 0
M  V30 3362 H 316.519 6.65063 4.06585 0
M  V30 3363 N 320.748 -0.0735177 1.57428 0
M  V30 3364 C 321.973 -0.789787 1.91774 0
M  V30 3365 C 322.398 -1.70413 0.796306 0
M  V30 3366 O 321.756 -1.79555 -0.250961 0
M  V30 3367 C 321.804 -1.5609 3.25067 0
M  V30 3368 O 320.908 -2.67144 3.14178 0
M  V30 3369 H 320.249 -0.215582 0.628029 0
M  V30 3370 H 322.779 -0.0422781 2.04556 0
M  V30 3371 H 322.789 -1.94052 3.58898 0
M  V30 3372 H 321.464 -0.890015 4.06265 0
M  V30 3373 H 320.041 -2.32052 2.91901 0
M  V30 3374 N 322.226 -1.5378 -0.344866 0
M  V30 3375 C 323.475 -1.7018 -1.08267 0
M  V30 3376 C 323.788 -0.471 -1.89845 0
M  V30 3377 O 324.994 -0.515917 -2.66553 0
M  V30 3378 C 323.45 -3.00923 -1.97417 0
M  V30 3379 C 323.058 -4.31335 -1.21053 0
M  V30 3380 C 324.802 -3.26688 -2.71063 0
M  V30 3381 C 322.709 -5.53153 -2.09225 0
M  V30 3382 H 321.639 -0.634138 -0.407903 0
M  V30 3383 H 324.29 -1.8028 -0.342246 0
M  V30 3384 H 322.672 -2.84676 -2.75274 0
M  V30 3385 H 323.846 -4.58281 -0.481159 0
M  V30 3386 H 322.161 -4.12173 -0.591813 0
M  V30 3387 H 324.758 -4.1489 -3.37299 0
M  V30 3388 H 325.101 -2.43639 -3.37558 0
M  V30 3389 H 325.634 -3.43705 -2.0028 0
M  V30 3390 H 322.373 -6.38741 -1.47274 0
M  V30 3391 H 321.893 -5.30458 -2.79955 0
M  V30 3392 H 323.572 -5.88744 -2.68308 0
M  V30 3393 N 323.704 0.605807 -1.45491 0
M  V30 3394 C 324.637 1.73022 -1.48791 0
M  V30 3395 C 325.615 1.58917 -0.344112 0
M  V30 3396 O 326.799 1.80453 -0.544876 0
M  V30 3397 C 323.926 3.10865 -1.34463 0
M  V30 3398 C 322.972 3.43554 -2.5273 0
M  V30 3399 S 323.805 3.38196 -4.15191 0
M  V30 3400 C 324.961 4.78616 -4.03333 0
M  V30 3401 H 325.194 1.69961 -2.43928 0
M  V30 3402 H 322.727 0.782611 -1.33096 0
M  V30 3403 H 324.685 3.90398 -1.26884 0
M  V30 3404 H 323.346 3.1144 -0.40794 0
M  V30 3405 H 322.539 4.43924 -2.38637 0
M  V30 3406 H 322.141 2.71541 -2.5718 0
M  V30 3407 H 324.433 5.68463 -3.68587 0
M  V30 3408 H 325.376 4.97767 -5.03621 0
M  V30 3409 H 325.784 4.54381 -3.34959 0
M  V30 3410 N 325.182 1.32811 0.848464 0
M  V30 3411 C 326.129 1.22265 1.95755 0
M  V30 3412 C 327.099 0.103413 1.65778 0
M  V30 3413 O 328.284 0.280033 1.88734 0
M  V30 3414 C 325.424 0.958014 3.31536 0
M  V30 3415 C 324.537 2.16262 3.73971 0
M  V30 3416 C 323.672 1.83295 4.98575 0
M  V30 3417 C 322.711 3.00041 5.33518 0
M  V30 3418 N 321.848 2.67125 6.49299 0
M  V30 3419 H 326.688 2.17128 2.04107 0
M  V30 3420 H 324.225 1.07982 0.998913 0
M  V30 3421 H 326.183 0.785052 4.09747 0
M  V30 3422 H 324.813 0.046159 3.22767 0
M  V30 3423 H 323.865 2.44565 2.91362 0
M  V30 3424 H 325.177 3.03572 3.95785 0
M  V30 3425 H 324.331 1.62586 5.84509 0
M  V30 3426 H 323.07 0.932078 4.7871 0
M  V30 3427 H 322.075 3.21374 4.46093 0
M  V30 3428 H 323.3 3.90869 5.55336 0
M  V30 3429 H 321.246 1.79586 6.3094 0
M  V30 3430 H 321.163 3.47965 6.71161 0
M  V30 3431 H 322.431 2.49861 7.3837 0
M  V30 3432 N 326.66 -1.06551 1.16123 0
M  V30 3433 C 327.623 -2.12132 0.867906 0
M  V30 3434 C 328.623 -1.60224 -0.135944 0
M  V30 3435 O 329.813 -1.73943 0.0946422 0
M  V30 3436 C 326.945 -3.396 0.297419 0
M  V30 3437 H 328.138 -2.39586 1.80385 0
M  V30 3438 H 325.691 -1.22574 0.969812 0
M  V30 3439 H 326.426 -3.17794 -0.64633 0
M  V30 3440 H 326.211 -3.78581 1.02073 0
M  V30 3441 H 327.701 -4.17455 0.110052 0
M  V30 3442 N 328.138 -0.959301 -1.25041 0
M  V30 3443 C 329.071 -0.427418 -2.24161 0
M  V30 3444 C 330.049 0.493837 -1.54919 0
M  V30 3445 O 331.233 0.427144 -1.83597 0
M  V30 3446 C 328.36 0.383893 -3.36517 0
M  V30 3447 C 327.406 -0.478431 -4.23808 0
M  V30 3448 S 328.239 -1.91353 -5.00144 0
M  V30 3449 C 329.395 -1.11077 -6.15965 0
M  V30 3450 H 329.628 -1.26743 -2.6893 0
M  V30 3451 H 327.161 -0.763714 -1.34189 0
M  V30 3452 H 329.119 0.846039 -4.01687 0
M  V30 3453 H 327.78 1.19878 -2.90324 0
M  V30 3454 H 326.973 0.14406 -5.03794 0
M  V30 3455 H 326.575 -0.87597 -3.63597 0
M  V30 3456 H 328.867 -0.361699 -6.76534 0
M  V30 3457 H 329.81 -1.88472 -6.82557 0
M  V30 3458 H 330.218 -0.638843 -5.60873 0
M  V30 3459 N 329.616 1.39756 -0.72842 0
M  V30 3460 C 330.865 1.99879 -0.270407 0
M  V30 3461 C 331.178 1.58449 1.14688 0
M  V30 3462 O 332.384 2.11362 1.70407 0
M  V30 3463 C 330.84 3.57292 -0.43252 0
M  V30 3464 C 330.448 4.07688 -1.85727 0
M  V30 3465 C 332.192 4.24485 -0.0359507 0
M  V30 3466 C 330.099 5.5765 -1.96928 0
M  V30 3467 H 329.029 0.747689 -0.0973472 0
M  V30 3468 H 331.68 1.59837 -0.901355 0
M  V30 3469 H 330.062 3.95097 0.267219 0
M  V30 3470 H 331.236 3.81231 -2.58843 0
M  V30 3471 H 329.551 3.53135 -2.20646 0
M  V30 3472 H 332.148 5.34609 -0.0987484 0
M  V30 3473 H 332.491 4.03915 1.00787 0
M  V30 3474 H 333.024 3.9183 -0.686604 0
M  V30 3475 H 329.763 5.8309 -2.99476 0
M  V30 3476 H 329.283 5.8593 -1.28241 0
M  V30 3477 H 330.962 6.22957 -1.74737 0
M  V30 3478 N 331.094 0.475555 1.50254 0
M  V30 3479 C 332.505 0.0215174 1.86688 0
M  V30 3480 C 332.856 -1.38467 1.39001 0
M  V30 3481 O 331.981 -2.02732 0.756894 0
M  V30 3482 C 332.576 0.0322715 3.38785 0
M  V30 3483 C 331.135 -0.366314 3.74613 0
M  V30 3484 C 330.282 0.415832 2.74164 0
M  V30 3485 H 333.233 0.689612 1.42934 0
M  V30 3486 H 333.254 -0.76889 3.7265 0
M  V30 3487 H 332.766 1.05584 3.73462 0
M  V30 3488 H 330.867 -1.39406 3.45538 0
M  V30 3489 H 330.98 -0.064555 4.79057 0
M  V30 3490 H 329.344 -0.131048 2.54363 0
M  V30 3491 H 330.127 1.43899 3.11686 0
M  V30 3492 N 332.573 -1.56217 0.208337 0
M  V30 3493 C 333.503 -2.22694 -0.702116 0
M  V30 3494 C 334.484 -1.19432 -1.2112 0
M  V30 3495 O 335.669 -1.47978 -1.25762 0
M  V30 3496 C 332.799 -2.8966 -1.9161 0
M  V30 3497 C 331.753 -3.9928 -1.5414 0
M  V30 3498 C 331.079 -4.53476 -2.83308 0
M  V30 3499 C 332.379 -5.17012 -0.741339 0
M  V30 3500 H 334.073 -2.99034 -0.147898 0
M  V30 3501 H 331.619 -1.43831 -0.0696951 0
M  V30 3502 H 333.572 -3.34852 -2.55836 0
M  V30 3503 H 332.296 -2.10746 -2.49507 0
M  V30 3504 H 330.955 -3.54799 -0.922668 0
M  V30 3505 H 330.603 -3.71308 -3.39322 0
M  V30 3506 H 330.303 -5.27451 -2.58976 0
M  V30 3507 H 331.827 -5.01378 -3.485 0
M  V30 3508 H 333.241 -5.58667 -1.28699 0
M  V30 3509 H 331.638 -5.97137 -0.595627 0
M  V30 3510 H 332.708 -4.8423 0.254851 0
M  V30 3511 N 334.051 0.0651679 -1.57465 0
M  V30 3512 C 334.981 1.07693 -2.07182 0
M  V30 3513 C 335.962 1.39962 -0.966673 0
M  V30 3514 O 337.147 1.49475 -1.2398 0
M  V30 3515 C 334.277 2.3885 -2.52127 0
M  V30 3516 C 333.231 2.20917 -3.66579 0
M  V30 3517 C 332.557 3.57515 -3.97601 0
M  V30 3518 C 333.857 1.62493 -4.9638 0
M  V30 3519 H 335.551 0.663199 -2.91962 0
M  V30 3520 H 333.097 0.317569 -1.40455 0
M  V30 3521 H 335.05 3.09928 -2.85522 0
M  V30 3522 H 333.774 2.82215 -1.64384 0
M  V30 3523 H 332.433 1.52279 -3.33477 0
M  V30 3524 H 332.081 3.98463 -3.06979 0
M  V30 3525 H 331.781 3.46353 -4.74672 0
M  V30 3526 H 333.305 4.30013 -4.33499 0
M  V30 3527 H 334.719 2.23445 -5.27963 0
M  V30 3528 H 333.116 1.62009 -5.77818 0
M  V30 3529 H 334.186 0.587041 -4.81333 0
M  V30 3530 N 335.529 1.53961 0.336706 0
M  V30 3531 C 336.461 1.78751 1.4346 0
M  V30 3532 C 337.474 0.669019 1.48418 0
M  V30 3533 O 338.663 0.945884 1.51378 0
M  V30 3534 C 335.763 1.87844 2.82078 0
M  V30 3535 C 334.936 3.17854 3.00479 0
M  V30 3536 C 333.995 3.17816 4.19379 0
M  V30 3537 O 333.021 3.91511 4.13168 0
M  V30 3538 N 334.223 2.40669 5.2826 0
M  V30 3539 H 336.988 2.73493 1.22563 0
M  V30 3540 H 334.549 1.53096 0.526625 0
M  V30 3541 H 336.541 1.85261 3.59806 0
M  V30 3542 H 335.111 1.00257 2.96086 0
M  V30 3543 H 334.331 3.33504 2.10163 0
M  V30 3544 H 335.619 4.03718 3.0966 0
M  V30 3545 H 335.017 1.8036 5.36178 0
M  V30 3546 H 333.574 2.43877 6.04456 0
M  V30 3547 N 337.007 -0.598083 1.45811 0
M  V30 3548 C 338.256 -1.35295 1.49594 0
M  V30 3549 C 338.569 -1.95057 0.145679 0
M  V30 3550 O 339.775 -2.71431 0.0612099 0
M  V30 3551 C 338.231 -2.45124 2.63519 0
M  V30 3552 C 337.839 -1.91732 4.04899 0
M  V30 3553 C 339.583 -3.2205 2.76558 0
M  V30 3554 C 337.49 -2.991 5.1019 0
M  V30 3555 H 336.42 -0.508552 0.556679 0
M  V30 3556 H 339.071 -0.639977 1.71978 0
M  V30 3557 H 337.453 -3.19149 2.34435 0
M  V30 3558 H 338.627 -1.24352 4.43704 0
M  V30 3559 H 336.942 -1.27522 3.96393 0
M  V30 3560 H 339.539 -4.0215 3.52391 0
M  V30 3561 H 339.882 -3.73663 1.83526 0
M  V30 3562 H 340.415 -2.55127 3.05213 0
M  V30 3563 H 337.154 -2.52393 6.04961 0
M  V30 3564 H 336.674 -3.65017 4.75944 0
M  V30 3565 H 338.353 -3.63318 5.35359 0
M  V30 3566 N 338.485 -1.33259 -0.841409 0
M  V30 3567 C 339.733 -1.24326 -1.59334 0
M  V30 3568 C 340.054 0.191564 -1.94057 0
M  V30 3569 O 339.324 1.11967 -1.60749 0
M  V30 3570 H 337.904 -0.457174 -0.590763 0
M  V30 3571 H 340.566 -1.66947 -1.00571 0
M  V30 3572 H 339.662 -1.8352 -2.52442 0
M  V30 3573 N 339.963 1.05934 -1.16686 0
M  V30 3574 C 340.893 2.1546 -0.899949 0
M  V30 3575 C 341.874 1.69391 0.155154 0
M  V30 3576 O 343.059 1.94199 0.00648693 0
M  V30 3577 C 340.189 3.44939 -0.404241 0
M  V30 3578 C 339.143 4.04536 -1.39767 0
M  V30 3579 C 338.469 5.29268 -0.760216 0
M  V30 3580 C 339.769 4.42893 -2.76845 0
M  V30 3581 H 341.463 2.38046 -1.81588 0
M  V30 3582 H 339.009 1.14404 -0.874514 0
M  V30 3583 H 340.962 4.20901 -0.204971 0
M  V30 3584 H 339.686 3.21983 0.547206 0
M  V30 3585 H 338.345 3.30635 -1.58355 0
M  V30 3586 H 337.993 5.02611 0.197831 0
M  V30 3587 H 337.693 5.70101 -1.42332 0
M  V30 3588 H 339.217 6.07924 -0.57105 0
M  V30 3589 H 340.631 5.09921 -2.62019 0
M  V30 3590 H 339.028 4.94721 -3.39663 0
M  V30 3591 H 340.098 3.53584 -3.31823 0
M  V30 3592 N 341.441 0.965919 1.2453 0
M  V30 3593 C 342.371 0.513476 2.27784 0
M  V30 3594 C 343.352 -0.445974 1.6415 0
M  V30 3595 O 344.537 -0.342485 1.91156 0
M  V30 3596 C 341.667 -0.198839 3.4673 0
M  V30 3597 C 340.621 0.676456 4.2262 0
M  V30 3598 C 339.947 -0.167248 5.34438 0
M  V30 3599 C 341.247 1.96017 4.84123 0
M  V30 3600 H 342.941 1.3765 2.65881 0
M  V30 3601 H 340.487 0.663321 1.27813 0
M  V30 3602 H 342.44 -0.526567 4.18097 0
M  V30 3603 H 341.164 -1.0962 3.07654 0
M  V30 3604 H 339.823 0.98743 3.53052 0
M  V30 3605 H 339.471 -1.0647 4.91603 0
M  V30 3606 H 339.171 0.415181 5.86131 0
M  V30 3607 H 340.695 -0.489688 6.08633 0
M  V30 3608 H 342.109 1.69814 5.47573 0
M  V30 3609 H 340.506 2.48918 5.4604 0
M  V30 3610 H 341.576 2.65622 4.05676 0
M  V30 3611 N 342.919 -1.39368 0.735821 0
M  V30 3612 C 343.849 -2.33234 0.111506 0
M  V30 3613 C 344.83 -1.53954 -0.723334 0
M  V30 3614 O 346.015 -1.82344 -0.668147 0
M  V30 3615 C 343.145 -3.38057 -0.795917 0
M  V30 3616 C 342.099 -4.2795 -0.065172 0
M  V30 3617 C 341.425 -5.23479 -1.08967 0
M  V30 3618 C 342.725 -5.10741 1.09273 0
M  V30 3619 H 344.419 -2.85692 0.895571 0
M  V30 3620 H 341.965 -1.37364 0.432109 0
M  V30 3621 H 343.918 -4.02675 -1.24221 0
M  V30 3622 H 342.642 -2.8404 -1.61211 0
M  V30 3623 H 341.301 -3.64813 0.361511 0
M  V30 3624 H 340.949 -4.65758 -1.89944 0
M  V30 3625 H 340.649 -5.84472 -0.605489 0
M  V30 3626 H 342.173 -5.90974 -1.53565 0
M  V30 3627 H 343.587 -5.68699 0.724841 0
M  V30 3628 H 341.984 -5.8088 1.50659 0
M  V30 3629 H 343.054 -4.45525 1.91404 0
M  V30 3630 N 344.397 -0.483516 -1.5 0
M  V30 3631 C 345.644 0.0671597 -2.02389 0
M  V30 3632 C 345.972 1.38597 -1.36459 0
M  V30 3633 O 345.227 1.89634 -0.483458 0
M  V30 3634 C 345.526 0.286226 -3.56252 0
M  V30 3635 C 345.192 -0.952416 -4.40726 0
M  V30 3636 C 343.854 -1.29199 -4.63531 0
M  V30 3637 C 346.206 -1.77655 -4.89988 0
M  V30 3638 C 343.534 -2.45553 -5.32842 0
M  V30 3639 C 345.886 -2.93147 -5.60578 0
M  V30 3640 C 344.55 -3.27505 -5.81633 0
M  V30 3641 H 343.82 0.0245755 -0.740592 0
M  V30 3642 H 346.467 -0.640124 -1.80485 0
M  V30 3643 H 344.772 1.07587 -3.76739 0
M  V30 3644 H 346.469 0.726473 -3.94365 0
M  V30 3645 H 343.059 -0.677881 -4.23205 0
M  V30 3646 H 347.243 -1.52737 -4.72213 0
M  V30 3647 H 342.499 -2.72431 -5.47349 0
M  V30 3648 H 346.673 -3.57344 -5.97727 0
M  V30 3649 H 344.3 -4.1777 -6.35116 0
M  V30 3650 N 345.875 1.56104 -0.216619 0
M  V30 3651 C 347.122 1.98172 0.416416 0
M  V30 3652 C 347.45 1.10413 1.60122 0
M  V30 3653 O 346.705 0.147967 1.9514 0
M  V30 3654 C 347.004 3.45923 0.898464 0
M  V30 3655 C 346.67 4.50559 -0.175288 0
M  V30 3656 C 345.332 4.78897 -0.470271 0
M  V30 3657 C 347.684 5.1334 -0.901728 0
M  V30 3658 C 345.012 5.67299 -1.4963 0
M  V30 3659 C 347.364 6.02853 -1.91705 0
M  V30 3660 C 346.028 6.29537 -2.21901 0
M  V30 3661 H 345.298 0.725164 0.152377 0
M  V30 3662 H 347.945 1.88839 -0.318103 0
M  V30 3663 H 346.25 3.52434 1.71165 0
M  V30 3664 H 347.947 3.75841 1.39803 0
M  V30 3665 H 344.537 4.28551 0.0647806 0
M  V30 3666 H 348.721 4.91521 -0.687072 0
M  V30 3667 H 343.977 5.86239 -1.73592 0
M  V30 3668 H 348.151 6.50552 -2.48505 0
M  V30 3669 H 345.778 6.97835 -3.01548 0
M  V30 3670 N 347.353 -0.0568162 1.57498 0
M  V30 3671 C 348.316 -1.05038 2.03715 0
M  V30 3672 C 349.316 -1.30709 0.936577 0
M  V30 3673 O 350.506 -1.26178 1.20103 0
M  V30 3674 C 347.638 -2.39034 2.43055 0
M  V30 3675 H 348.831 -0.651715 2.92733 0
M  V30 3676 H 346.384 -0.302947 1.53336 0
M  V30 3677 H 347.119 -2.83703 1.57108 0
M  V30 3678 H 346.904 -2.21739 3.2338 0
M  V30 3679 H 348.394 -3.10421 2.79336 0
M  V30 3680 N 348.832 -1.54138 -0.328536 0
M  V30 3681 C 350.081 -1.71318 -1.06456 0
M  V30 3682 C 350.394 -0.491109 -1.89334 0
M  V30 3683 O 351.6 -0.54416 -2.65991 0
M  V30 3684 C 350.056 -3.03 -1.94214 0
M  V30 3685 C 349.664 -4.32595 -1.16471 0
M  V30 3686 C 351.408 -3.29544 -2.67583 0
M  V30 3687 C 349.315 -5.55341 -2.03347 0
M  V30 3688 H 348.245 -0.638429 -0.401155 0
M  V30 3689 H 350.896 -1.80633 -0.323106 0
M  V30 3690 H 349.278 -2.87579 -2.72239 0
M  V30 3691 H 350.452 -4.58766 -0.432525 0
M  V30 3692 H 348.767 -4.12777 -0.548063 0
M  V30 3693 H 351.364 -4.18444 -3.3288 0
M  V30 3694 H 351.707 -2.47206 -3.34955 0
M  V30 3695 H 352.24 -3.45809 -1.96623 0
M  V30 3696 H 348.979 -6.40268 -1.40491 0
M  V30 3697 H 348.499 -5.33397 -2.74313 0
M  V30 3698 H 350.178 -5.91557 -2.62049 0
M  V30 3699 N 350.31 0.590341 -1.46126 0
M  V30 3700 C 351.24 1.71032 -1.58966 0
M  V30 3701 C 352.221 1.64302 -0.440335 0
M  V30 3702 O 353.406 1.82436 -0.665634 0
M  V30 3703 C 350.536 3.09665 -1.57241 0
M  V30 3704 C 349.49 3.31221 -2.71066 0
M  V30 3705 C 348.816 4.70303 -2.54399 0
M  V30 3706 C 350.116 3.19796 -4.1295 0
M  V30 3707 H 351.81 1.60543 -2.52718 0
M  V30 3708 H 349.356 0.770933 -1.21625 0
M  V30 3709 H 351.309 3.87831 -1.64819 0
M  V30 3710 H 350.033 3.21036 -0.600289 0
M  V30 3711 H 348.692 2.55452 -2.62944 0
M  V30 3712 H 348.34 4.78429 -1.55288 0
M  V30 3713 H 348.04 4.85679 -3.30741 0
M  V30 3714 H 349.564 5.50647 -2.63857 0
M  V30 3715 H 350.978 3.87815 -4.22223 0
M  V30 3716 H 349.375 3.46696 -4.89818 0
M  V30 3717 H 350.445 2.16983 -4.33643 0
M  V30 3718 N 351.788 1.33704 0.83433 0
M  V30 3719 C 353.037 1.24763 1.58484 0
M  V30 3720 C 353.35 -0.183775 1.94735 0
M  V30 3721 O 354.556 -0.395234 2.68608 0
M  V30 3722 C 353.012 2.18638 2.85876 0
M  V30 3723 C 352.62 3.66974 2.56971 0
M  V30 3724 C 354.364 2.18581 3.63899 0
M  V30 3725 C 352.271 4.5275 3.80488 0
M  V30 3726 H 351.201 0.463425 0.594772 0
M  V30 3727 H 353.852 1.58797 0.919551 0
M  V30 3728 H 352.234 1.77542 3.5397 0
M  V30 3729 H 353.408 4.16538 1.9706 0
M  V30 3730 H 351.723 3.69366 1.92244 0
M  V30 3731 H 354.32 2.79894 4.55591 0
M  V30 3732 H 354.663 1.18207 3.99165 0
M  V30 3733 H 355.196 2.58062 3.02735 0
M  V30 3734 H 351.935 5.54017 3.5035 0
M  V30 3735 H 351.455 4.07927 4.39722 0
M  V30 3736 H 353.134 4.66784 4.4802 0
M  V30 3737 N 353.266 -1.05314 1.17247 0
M  V30 3738 C 354.513 -1.78293 0.960091 0
M  V30 3739 C 354.841 -1.87658 -0.51136 0
M  V30 3740 O 354.096 -1.3718 -1.39571 0
M  V30 3741 C 354.395 -3.2229 1.54479 0
M  V30 3742 C 354.061 -3.32987 3.04024 0
M  V30 3743 C 352.723 -3.35613 3.44844 0
M  V30 3744 C 355.075 -3.34102 4.00031 0
M  V30 3745 C 352.403 -3.36982 4.8027 0
M  V30 3746 C 354.755 -3.3701 5.35357 0
M  V30 3747 C 353.419 -3.37923 5.75642 0
M  V30 3748 H 352.689 -0.652422 0.351322 0
M  V30 3749 H 355.336 -1.23782 1.46117 0
M  V30 3750 H 353.641 -3.7972 0.965391 0
M  V30 3751 H 355.338 -3.77376 1.35603 0
M  V30 3752 H 351.928 -3.31655 2.71483 0
M  V30 3753 H 356.112 -3.31276 3.69554 0
M  V30 3754 H 351.368 -3.35999 5.10798 0
M  V30 3755 H 355.542 -3.36822 6.09528 0
M  V30 3756 H 353.169 -3.38738 6.80559 0
M  V30 3757 N 354.744 -0.972509 -1.24016 0
M  V30 3758 C 355.707 -0.511403 -2.23422 0
M  V30 3759 C 356.707 0.394679 -1.55881 0
M  V30 3760 O 357.897 0.189469 -1.73167 0
M  V30 3761 C 355.029 0.258769 -3.39916 0
M  V30 3762 H 356.222 -1.39024 -2.6573 0
M  V30 3763 H 353.775 -0.757585 -1.36713 0
M  V30 3764 H 354.51 1.1545 -3.03054 0
M  V30 3765 H 354.295 -0.391522 -3.9014 0
M  V30 3766 H 355.785 0.570244 -4.13688 0
M  V30 3767 N 356.222 1.38976 -0.743202 0
M  V30 3768 C 357.471 1.99581 -0.291592 0
M  V30 3769 C 357.784 1.59656 1.13001 0
M  V30 3770 O 358.99 2.13157 1.68156 0
M  V30 3771 C 357.446 3.56813 -0.470391 0
M  V30 3772 C 357.054 4.05695 -1.90041 0
M  V30 3773 C 358.798 4.24423 -0.0809709 0
M  V30 3774 C 356.705 5.5553 -2.02832 0
M  V30 3775 H 355.635 0.746615 -0.105272 0
M  V30 3776 H 358.286 1.58872 -0.918258 0
M  V30 3777 H 356.668 3.95359 0.225299 0
M  V30 3778 H 357.842 3.78464 -2.62872 0
M  V30 3779 H 356.157 3.50775 -2.24379 0
M  V30 3780 H 358.754 5.34474 -0.155445 0
M  V30 3781 H 359.097 4.04962 0.96497 0
M  V30 3782 H 359.63 3.9108 -0.728124 0
M  V30 3783 H 356.369 5.79881 -3.05643 0
M  V30 3784 H 355.889 5.84537 -1.34448 0
M  V30 3785 H 357.568 6.21069 -1.81335 0
M  V30 3786 N 357.7 0.491464 1.49741 0
M  V30 3787 C 358.949 -0.0582189 2.01616 0
M  V30 3788 C 359.262 -1.38927 1.3769 0
M  V30 3789 O 360.468 -2.02509 1.80838 0
M  V30 3790 C 358.924 -0.154235 3.59569 0
M  V30 3791 C 358.532 1.1696 4.32463 0
M  V30 3792 C 360.276 -0.65479 4.1942 0
M  V30 3793 C 358.183 1.03627 5.8225 0
M  V30 3794 H 357.113 -0.0255317 0.753568 0
M  V30 3795 H 359.764 0.629445 1.72367 0
M  V30 3796 H 358.146 -0.906138 3.85493 0
M  V30 3797 H 359.32 1.93405 4.18248 0
M  V30 3798 H 357.635 1.60285 3.84315 0
M  V30 3799 H 360.232 -0.771903 5.29099 0
M  V30 3800 H 360.575 -1.65127 3.8215 0
M  V30 3801 H 361.108 0.040304 3.9778 0
M  V30 3802 H 357.847 2.00672 6.24028 0
M  V30 3803 H 357.367 0.312546 5.98985 0
M  V30 3804 H 359.046 0.711114 6.4308 0
M  V30 3805 N 359.178 -1.55987 0.224894 0
M  V30 3806 C 360.426 -1.97998 -0.405099 0
M  V30 3807 C 360.747 -1.11387 -1.60056 0
M  V30 3808 O 360.017 -0.191645 -1.9496 0
M  V30 3809 H 358.597 -0.731235 -0.152658 0
M  V30 3810 H 361.259 -1.92279 0.318567 0
M  V30 3811 H 360.355 -3.03463 -0.729167 0
M  V30 3812 N 360.656 0.0484629 -1.57525 0
M  V30 3813 C 361.586 1.0549 -2.08313 0
M  V30 3814 C 362.567 1.38929 -0.981463 0
M  V30 3815 O 363.752 1.48151 -1.25558 0
M  V30 3816 C 360.882 2.36162 -2.54646 0
M  V30 3817 C 359.836 2.17016 -3.68901 0
M  V30 3818 C 359.162 3.53278 -4.01371 0
M  V30 3819 C 360.462 1.57219 -4.98076 0
M  V30 3820 H 362.156 0.632195 -2.92649 0
M  V30 3821 H 359.702 0.302654 -1.40784 0
M  V30 3822 H 361.655 3.06882 -2.88793 0
M  V30 3823 H 360.379 2.80456 -1.67368 0
M  V30 3824 H 359.038 1.48733 -3.35073 0
M  V30 3825 H 358.686 3.95185 -3.11188 0
M  V30 3826 H 358.386 3.41299 -4.78318 0
M  V30 3827 H 359.91 4.25391 -4.38035 0
M  V30 3828 H 361.324 2.17832 -5.30304 0
M  V30 3829 H 359.721 1.55871 -5.79503 0
M  V30 3830 H 360.791 0.535956 -4.81929 0
M  V30 3831 N 362.134 1.5431 0.320358 0
M  V30 3832 C 363.044 1.86946 1.41734 0
M  V30 3833 C 364.06 0.761689 1.56443 0
M  V30 3834 O 365.236 1.05629 1.71477 0
M  V30 3835 C 362.301 2.09293 2.76401 0
M  V30 3836 C 361.362 3.33082 2.70841 0
M  V30 3837 C 360.595 3.54353 3.99086 0
M  V30 3838 O 360.818 2.79002 4.97508 0
M  V30 3839 O 359.752 4.47838 4.0215 0
M  V30 3840 H 363.578 2.80232 1.17062 0
M  V30 3841 H 361.163 1.40255 0.514673 0
M  V30 3842 H 363.045 2.25303 3.56113 0
M  V30 3843 H 361.72 1.19194 3.00956 0
M  V30 3844 H 360.627 3.22454 1.89668 0
M  V30 3845 H 361.96 4.23249 2.5124 0
M  V30 3846 N 363.613 -0.582584 1.46437 0
M  V30 3847 C 364.86 -1.34079 1.51753 0
M  V30 3848 C 365.188 -1.93762 0.169299 0
M  V30 3849 O 364.443 -1.76989 -0.835062 0
M  V30 3850 C 364.742 -2.48964 2.56421 0
M  V30 3851 C 364.408 -2.07273 4.00436 0
M  V30 3852 C 363.07 -1.95618 4.39644 0
M  V30 3853 C 365.422 -1.75111 4.90903 0
M  V30 3854 C 362.75 -1.5006 5.67185 0
M  V30 3855 C 365.102 -1.31032 6.18881 0
M  V30 3856 C 363.766 -1.17954 6.56996 0
M  V30 3857 H 363.036 -0.49063 0.555304 0
M  V30 3858 H 365.683 -0.656007 1.79913 0
M  V30 3859 H 363.988 -3.22889 2.21923 0
M  V30 3860 H 365.685 -3.07178 2.57765 0
M  V30 3861 H 362.275 -2.17279 3.69443 0
M  V30 3862 H 366.459 -1.83001 4.61329 0
M  V30 3863 H 361.715 -1.38577 5.95488 0
M  V30 3864 H 365.889 -1.052 6.88408 0
M  V30 3865 H 363.516 -0.824279 7.55718 0
M  V30 3866 N 365.091 -1.34144 -0.827227 0
M  V30 3867 C 366.321 -1.29138 -1.61267 0
M  V30 3868 C 366.729 0.137597 -1.88699 0
M  V30 3869 O 366.072 1.09379 -1.47587 0
M  V30 3870 C 366.134 -2.0097 -2.9808 0
M  V30 3871 C 365.798 -3.50242 -2.93563 0
M  V30 3872 C 366.795 -4.4523 -2.68452 0
M  V30 3873 C 364.48 -3.92592 -3.13331 0
M  V30 3874 C 366.474 -5.80542 -2.63154 0
M  V30 3875 C 364.161 -5.28005 -3.07658 0
M  V30 3876 C 365.159 -6.21792 -2.82602 0
M  V30 3877 O 364.847 -7.54723 -2.76853 0
M  V30 3878 H 364.579 -0.445851 -0.508127 0
M  V30 3879 H 367.133 -1.77263 -1.03763 0
M  V30 3880 H 365.363 -1.47451 -3.57484 0
M  V30 3881 H 367.052 -1.89309 -3.5905 0
M  V30 3882 H 367.818 -4.13832 -2.52919 0
M  V30 3883 H 363.697 -3.19994 -3.31851 0
M  V30 3884 H 367.241 -6.53717 -2.43516 0
M  V30 3885 H 363.138 -5.59023 -3.22743 0
M  V30 3886 H 363.906 -7.64409 -2.92611 0
M  V30 3887 N 366.569 1.04691 -1.17803 0
M  V30 3888 C 367.502 2.12068 -0.842765 0
M  V30 3889 C 368.48 1.61455 0.192608 0
M  V30 3890 O 369.664 1.88359 0.072995 0
M  V30 3891 C 366.791 3.37715 -0.258063 0
M  V30 3892 C 365.837 4.07164 -1.26962 0
M  V30 3893 S 366.67 4.55047 -2.82299 0
M  V30 3894 C 367.826 5.83935 -2.25323 0
M  V30 3895 H 368.059 2.4018 -1.75217 0
M  V30 3896 H 365.592 1.17366 -1.00323 0
M  V30 3897 H 367.55 4.10435 0.0727935 0
M  V30 3898 H 366.211 3.0773 0.629357 0
M  V30 3899 H 365.404 4.9746 -0.809263 0
M  V30 3900 H 365.006 3.40533 -1.54639 0
M  V30 3901 H 367.298 6.57552 -1.63192 0
M  V30 3902 H 368.241 6.34725 -3.13894 0
M  V30 3903 H 368.649 5.3874 -1.68582 0
M  V30 3904 N 368.047 0.979072 1.23499 0
M  V30 3905 C 369.295 0.645941 1.91499 0
M  V30 3906 C 369.616 -0.822948 1.76784 0
M  V30 3907 O 368.886 -1.58854 1.14639 0
M  V30 3908 H 367.466 0.235919 0.708767 0
M  V30 3909 H 370.128 1.2426 1.50152 0
M  V30 3910 H 369.224 0.896411 2.9895 0
M  V30 3911 N 369.525 -1.3858 0.750561 0
M  V30 3912 C 370.472 -2.30483 0.120835 0
M  V30 3913 C 371.442 -1.50022 -0.712923 0
M  V30 3914 O 372.627 -1.78662 -0.669676 0
M  V30 3915 C 369.767 -3.36431 -0.768666 0
M  V30 3916 C 368.88 -4.31927 0.0793922 0
M  V30 3917 C 368.015 -5.24944 -0.81283 0
M  V30 3918 C 367.054 -6.12088 0.0390447 0
M  V30 3919 N 366.191 -6.97412 -0.809969 0
M  V30 3920 H 371.031 -2.83761 0.91015 0
M  V30 3921 H 368.568 -1.39707 0.460463 0
M  V30 3922 H 370.526 -3.96462 -1.29898 0
M  V30 3923 H 369.156 -2.8457 -1.5238 0
M  V30 3924 H 368.208 -3.73382 0.727303 0
M  V30 3925 H 369.52 -4.93319 0.737401 0
M  V30 3926 H 368.674 -5.90078 -1.41042 0
M  V30 3927 H 367.413 -4.63911 -1.50458 0
M  V30 3928 H 366.418 -5.45952 0.649328 0
M  V30 3929 H 367.643 -6.75189 0.727809 0
M  V30 3930 H 365.589 -6.38931 -1.48672 0
M  V30 3931 H 365.506 -7.55712 -0.208789 0
M  V30 3932 H 366.774 -7.66959 -1.39263 0
M  V30 3933 N 371.003 -0.499398 -1.49478 0
M  V30 3934 C 372.25 0.0456899 -2.02448 0
M  V30 3935 C 372.578 1.37142 -1.37921 0
M  V30 3936 O 371.833 1.89111 -0.503544 0
M  V30 3937 C 372.132 0.248424 -3.56536 0
M  V30 3938 C 371.798 -0.999107 -4.39692 0
M  V30 3939 C 370.46 -1.34108 -4.62135 0
M  V30 3940 C 372.812 -1.82842 -4.88076 0
M  V30 3941 C 370.14 -2.51191 -5.30208 0
M  V30 3942 C 372.492 -2.99076 -5.57437 0
M  V30 3943 C 371.156 -3.33655 -5.78127 0
M  V30 3944 H 370.426 0.0167191 -0.740811 0
M  V30 3945 H 373.073 -0.65923 -1.79795 0
M  V30 3946 H 371.378 1.03586 -3.77859 0
M  V30 3947 H 373.075 0.684605 -3.95113 0
M  V30 3948 H 369.665 -0.722729 -4.22463 0
M  V30 3949 H 373.849 -1.57737 -4.70566 0
M  V30 3950 H 369.105 -2.78221 -5.44429 0
M  V30 3951 H 373.279 -3.63664 -5.93904 0
M  V30 3952 H 370.906 -4.24483 -6.30649 0
M  V30 3953 N 372.481 1.55866 -0.233164 0
M  V30 3954 C 373.431 2.17442 0.685774 0
M  V30 3955 C 374.415 1.12617 1.14918 0
M  V30 3956 O 375.607 1.3857 1.10124 0
M  V30 3957 C 372.736 2.86685 1.88856 0
M  V30 3958 C 371.822 3.98749 1.4443 0
M  V30 3959 N 372.213 5.00744 0.713364 0
M  V30 3960 C 370.511 4.11052 1.73068 0
M  V30 3961 C 371.212 5.79673 0.485205 0
M  V30 3962 N 370.188 5.33454 1.04536 0
M  V30 3963 H 373.99 2.93659 0.119022 0
M  V30 3964 H 371.504 1.62362 -0.0348995 0
M  V30 3965 H 373.501 3.29218 2.55776 0
M  V30 3966 H 372.161 2.11967 2.45967 0
M  V30 3967 H 373.172 5.16613 0.364861 0
M  V30 3968 H 369.849 3.47495 2.31416 0
M  V30 3969 H 371.239 6.71829 -0.097365 0
M  V30 3970 N 373.959 -0.0401083 1.57549 0
M  V30 3971 C 375.187 -0.745196 1.93014 0
M  V30 3972 C 375.602 -1.6948 0.831984 0
M  V30 3973 O 374.959 -1.81482 -0.192463 0
M  V30 3974 C 375.01 -1.51176 3.28372 0
M  V30 3975 O 374.731 -0.600284 4.33968 0
M  V30 3976 C 376.232 -2.315 3.78051 0
M  V30 3977 H 373.452 -0.210088 0.637263 0
M  V30 3978 H 375.996 -0.000924689 2.045 0
M  V30 3979 H 374.151 -2.20801 3.18317 0
M  V30 3980 H 374.565 -1.13669 5.12035 0
M  V30 3981 H 376.039 -2.80697 4.75303 0
M  V30 3982 H 376.516 -3.12436 3.08675 0
M  V30 3983 H 377.122 -1.66971 3.91153 0
M  V30 3984 N 375.437 -1.54477 -0.31217 0
M  V30 3985 C 376.665 -1.77205 -1.068 0
M  V30 3986 C 377.08 -0.526114 -1.81321 0
M  V30 3987 O 376.437 0.503647 -1.75413 0
M  V30 3988 C 376.488 -2.97253 -2.05725 0
M  V30 3989 O 376.209 -4.1703 -1.34228 0
M  V30 3990 C 377.71 -3.32281 -2.93435 0
M  V30 3991 H 374.93 -0.591287 -0.317208 0
M  V30 3992 H 377.474 -2.01398 -0.354834 0
M  V30 3993 H 375.629 -2.753 -2.72559 0
M  V30 3994 H 376.043 -4.84636 -2.00571 0
M  V30 3995 H 377.517 -4.19551 -3.58721 0
M  V30 3996 H 377.994 -2.49945 -3.61143 0
M  V30 3997 H 378.6 -3.56353 -2.32147 0
M  V30 3998 N 376.915 0.57481 -1.46744 0
M  V30 3999 C 378.155 1.34369 -1.54027 0
M  V30 4000 C 378.519 1.91051 -0.190642 0
M  V30 4001 O 379.72 2.68444 -0.138255 0
M  V30 4002 C 377.991 2.43706 -2.61423 0
M  V30 4003 S 379.55 3.30915 -2.88167 0
M  V30 4004 H 376.368 0.45768 -0.544105 0
M  V30 4005 H 378.97 0.659959 -1.84024 0
M  V30 4006 H 377.674 2.0047 -3.58106 0
M  V30 4007 H 377.205 3.16842 -2.33184 0
M  V30 4008 H 379.22 4.42742 -2.24039 0
M  V30 4009 N 378.394 1.34581 0.820102 0
M  V30 4010 C 379.641 1.27096 1.57648 0
M  V30 4011 C 379.969 -0.158317 1.93855 0
M  V30 4012 O 379.224 -1.12028 1.60463 0
M  V30 4013 C 379.523 2.10997 2.8847 0
M  V30 4014 C 379.189 3.59966 2.71543 0
M  V30 4015 C 377.851 4.00575 2.66634 0
M  V30 4016 C 380.203 4.54548 2.55021 0
M  V30 4017 C 377.531 5.33953 2.43128 0
M  V30 4018 C 379.883 5.88109 2.33047 0
M  V30 4019 C 378.547 6.27878 2.26552 0
M  V30 4020 H 377.817 0.465078 0.576874 0
M  V30 4021 H 380.464 1.6635 0.948671 0
M  V30 4022 H 378.769 1.6458 3.55557 0
M  V30 4023 H 380.466 2.0255 3.46084 0
M  V30 4024 H 377.056 3.27733 2.76205 0
M  V30 4025 H 381.24 4.24069 2.57835 0
M  V30 4026 H 376.496 5.63781 2.3656 0
M  V30 4027 H 380.67 6.60985 2.19251 0
M  V30 4028 H 378.297 7.31162 2.081 0
M  V30 4029 N 379.872 -1.04064 1.18357 0
M  V30 4030 C 380.782 -2.15569 0.925596 0
M  V30 4031 C 381.798 -1.7365 -0.110295 0
M  V30 4032 O 382.974 -2.01273 0.0716218 0
M  V30 4033 C 380.039 -3.43704 0.454836 0
M  V30 4034 C 379.1 -4.00004 1.55869 0
M  V30 4035 C 378.333 -5.22023 1.1103 0
M  V30 4036 O 378.556 -5.70392 -0.0309756 0
M  V30 4037 O 377.49 -5.70856 1.90805 0
M  V30 4038 H 381.316 -2.40187 1.8586 0
M  V30 4039 H 378.901 -1.1402 0.965394 0
M  V30 4040 H 380.783 -4.20923 0.200382 0
M  V30 4041 H 379.458 -3.20559 -0.449876 0
M  V30 4042 H 378.365 -3.24172 1.86716 0
M  V30 4043 H 379.698 -4.2749 2.43953 0
M  V30 4044 N 381.35 -0.985608 -1.22978 0
M  V30 4045 C 382.26 -0.538548 -2.28335 0
M  V30 4046 C 383.276 0.409163 -1.69121 0
M  V30 4047 O 384.452 0.277797 -1.99475 0
M  V30 4048 C 381.517 0.146867 -3.46389 0
M  V30 4049 C 380.578 -0.842896 -4.20944 0
M  V30 4050 C 379.811 -0.190095 -5.33361 0
M  V30 4051 O 380.034 1.01767 -5.61248 0
M  V30 4052 O 378.968 -0.891289 -5.95264 0
M  V30 4053 H 382.794 -1.41487 -2.68729 0
M  V30 4054 H 380.379 -0.753495 -1.29007 0
M  V30 4055 H 382.261 0.531125 -4.1804 0
M  V30 4056 H 380.936 0.997871 -3.07935 0
M  V30 4057 H 379.843 -1.27795 -3.51595 0
M  V30 4058 H 381.176 -1.66287 -4.6326 0
M  V30 4059 N 382.828 1.3818 -0.7579 0
M  V30 4060 C 384.076 1.99624 -0.315361 0
M  V30 4061 C 384.397 1.60464 1.10799 0
M  V30 4062 O 383.667 0.863507 1.75842 0
M  V30 4063 H 382.247 0.73831 -0.113611 0
M  V30 4064 H 384.909 1.68878 -0.972952 0
M  V30 4065 H 384.005 3.09754 -0.381931 0
M  V30 4066 N 384.306 0.507319 1.49211 0
M  V30 4067 C 385.534 -0.0315749 2.06876 0
M  V30 4068 C 385.949 -1.30241 1.36685 0
M  V30 4069 O 385.306 -1.76937 0.447152 0
M  V30 4070 C 385.357 -0.282627 3.60393 0
M  V30 4071 O 385.078 0.937835 4.27944 0
M  V30 4072 C 386.579 -0.864453 4.3479 0
M  V30 4073 H 383.799 0.0233048 0.670595 0
M  V30 4074 H 386.343 0.706484 1.91909 0
M  V30 4075 H 384.498 -0.97068 3.75042 0
M  V30 4076 H 384.912 0.704567 5.19746 0
M  V30 4077 H 386.386 -0.989664 5.43056 0
M  V30 4078 H 386.863 -1.86382 3.97692 0
M  V30 4079 H 387.469 -0.213672 4.24763 0
M  V30 4080 N 385.784 -1.5574 0.241426 0
M  V30 4081 C 387.061 -1.90704 -0.434881 0
M  V30 4082 C 387.441 -1.16145 -1.76277 0
M  V30 4083 O 386.789 -0.277152 -2.26813 0
M  V30 4084 C 386.999 -3.43657 -0.608343 0
M  V30 4085 C 388.347 -4.14806 -0.906725 0
M  V30 4086 O 389.371 -3.49366 -0.694408 0
M  V30 4087 O 388.23 -5.30548 -1.31075 0
M  V30 4088 H 385.324 -0.793592 -0.23268 0
M  V30 4089 H 387.87 -1.67288 0.285086 0
M  V30 4090 H 386.642 -3.89927 0.327505 0
M  V30 4091 H 386.265 -3.72918 -1.37906 0
M  V30 4092 N 387.262 0.0317525 -1.57568 0
M  V30 4093 C 388.539 0.758366 -1.803 0
M  V30 4094 C 388.919 1.93718 -0.838845 0
M  V30 4095 O 388.267 2.28187 0.119571 0
M  V30 4096 C 388.477 1.19392 -3.27943 0
M  V30 4097 C 389.825 1.61094 -3.92854 0
M  V30 4098 O 390.849 1.28857 -3.32076 0
M  V30 4099 O 389.708 2.20918 -4.99858 0
M  V30 4100 H 386.802 0.366514 -0.741348 0
M  V30 4101 H 389.348 0.00873765 -1.69698 0
M  V30 4102 H 388.12 0.352275 -3.89711 0
M  V30 4103 H 387.743 2.00365 -3.43424 0
M  V30 4104 N 388.74 1.54641 0.303973 0
M  V30 4105 C 389.989 1.7299 1.03717 0
M  V30 4106 C 390.302 0.521168 1.88529 0
M  V30 4107 O 391.508 0.586408 2.65092 0
M  V30 4108 C 389.964 3.06051 1.89369 0
M  V30 4109 C 389.572 4.34393 1.09574 0
M  V30 4110 C 391.316 3.3376 2.62306 0
M  V30 4111 C 389.223 5.58506 1.94486 0
M  V30 4112 H 388.153 0.64473 0.390947 0
M  V30 4113 H 390.804 1.81124 0.294328 0
M  V30 4114 H 389.186 2.91874 2.67629 0
M  V30 4115 H 390.36 4.59396 0.359485 0
M  V30 4116 H 388.675 4.13597 0.482324 0
M  V30 4117 H 391.272 4.23687 3.26181 0
M  V30 4118 H 391.615 2.52503 3.3098 0
M  V30 4119 H 392.148 3.48894 1.91097 0
M  V30 4120 H 388.887 6.42422 1.30287 0
M  V30 4121 H 388.407 5.37694 2.65792 0
M  V30 4122 H 390.086 5.95651 2.52605 0
M  V30 4123 N 390.218 -0.567019 1.47046 0
M  V30 4124 C 391.15 -1.68985 1.54844 0
M  V30 4125 C 392.163 -1.56869 0.435431 0
M  V30 4126 O 393.352 -1.64006 0.70457 0
M  V30 4127 C 390.452 -3.07373 1.42742 0
M  V30 4128 C 389.625 -3.45339 2.6844 0
M  V30 4129 C 388.684 -4.62849 2.50314 0
M  V30 4130 O 387.71 -4.67922 3.24095 0
M  V30 4131 N 388.912 -5.58726 1.57499 0
M  V30 4132 H 391.677 -1.62745 2.51663 0
M  V30 4133 H 389.238 -0.753411 1.43302 0
M  V30 4134 H 391.23 -3.83803 1.28365 0
M  V30 4135 H 389.8 -3.07893 0.540445 0
M  V30 4136 H 389.02 -2.58455 2.97648 0
M  V30 4137 H 390.308 -3.67476 3.51907 0
M  V30 4138 H 389.706 -5.57376 0.966876 0
M  V30 4139 H 388.263 -6.34523 1.49078 0
M  V30 4140 N 391.696 -1.35014 -0.812953 0
M  V30 4141 C 392.944 -1.27678 -1.56661 0
M  V30 4142 C 393.265 0.150359 -1.94419 0
M  V30 4143 O 392.535 1.08532 -1.63088 0
M  V30 4144 H 391.115 -0.469602 -0.580933 0
M  V30 4145 H 393.777 -1.69043 -0.970076 0
M  V30 4146 H 392.873 -1.88833 -2.48492 0
M  V30 4147 N 393.175 1.03435 -1.18907 0
M  V30 4148 C 394.085 2.15075 -0.937015 0
M  V30 4149 C 395.101 1.73706 0.101085 0
M  V30 4150 O 396.277 2.01232 -0.0822948 0
M  V30 4151 C 393.342 3.43458 -0.473057 0
M  V30 4152 C 392.403 3.99172 -1.57989 0
M  V30 4153 C 391.636 5.21427 -1.13797 0
M  V30 4154 O 391.859 5.704 0.000725941 0
M  V30 4155 O 390.793 5.69837 -1.9383 0
M  V30 4156 H 394.619 2.39198 -1.87131 0
M  V30 4157 H 392.204 1.13506 -0.971427 0
M  V30 4158 H 394.086 4.20811 -0.222702 0
M  V30 4159 H 392.761 3.20793 0.432869 0
M  V30 4160 H 391.668 3.23178 -1.88433 0
M  V30 4161 H 393.001 4.2619 -2.46217 0
M  V30 4162 N 394.653 0.992116 1.22453 0
M  V30 4163 C 395.878 0.685644 1.95739 0
M  V30 4164 C 396.303 -0.743 1.72804 0
M  V30 4165 O 395.661 -1.50778 1.00676 0
M  V30 4166 C 395.709 0.996293 3.46564 0
M  V30 4167 O 394.813 0.0945512 4.12292 0
M  V30 4168 H 394.154 0.256694 0.612376 0
M  V30 4169 H 396.684 1.32888 1.5557 0
M  V30 4170 H 396.694 0.93781 3.97076 0
M  V30 4171 H 395.369 2.03733 3.62582 0
M  V30 4172 H 393.946 0.208451 3.72317 0
M  V30 4173 N 396.131 -1.37776 0.765217 0
M  V30 4174 C 397.542 -1.82521 0.392819 0
M  V30 4175 C 397.893 -1.63789 -1.08017 0
M  V30 4176 O 397.018 -1.14542 -1.83601 0
M  V30 4177 C 397.613 -3.31358 0.706214 0
M  V30 4178 C 396.172 -3.74406 0.386952 0
M  V30 4179 C 395.319 -2.60394 0.953422 0
M  V30 4180 H 398.27 -1.2634 0.960412 0
M  V30 4181 H 398.291 -3.80498 -0.0114706 0
M  V30 4182 H 397.803 -3.44959 1.77833 0
M  V30 4183 H 395.904 -3.66377 -0.678112 0
M  V30 4184 H 396.017 -4.70749 0.890636 0
M  V30 4185 H 394.381 -2.51878 0.378064 0
M  V30 4186 H 395.164 -2.76791 2.03081 0
M  V30 4187 N 397.609 -0.515225 -1.4894 0
M  V30 4188 C 398.572 0.244681 -2.2789 0
M  V30 4189 C 399.572 0.881166 -1.34507 0
M  V30 4190 O 400.762 0.743497 -1.57537 0
M  V30 4191 C 397.894 1.35247 -3.12923 0
M  V30 4192 H 399.087 -0.448289 -2.96531 0
M  V30 4193 H 396.64 -0.270656 -1.53939 0
M  V30 4194 H 397.375 2.07916 -2.48881 0
M  V30 4195 H 397.16 0.901374 -3.81599 0
M  V30 4196 H 398.65 1.88737 -3.72516 0
M  V30 4197 N 399.087 1.5561 -0.249682 0
M  V30 4198 C 400.498 1.84979 0.252949 0
M  V30 4199 C 400.849 1.17153 1.57384 0
M  V30 4200 O 399.974 0.450884 2.11651 0
M  V30 4201 C 400.569 3.35584 0.465732 0
M  V30 4202 C 399.128 3.65169 0.912624 0
M  V30 4203 C 398.275 2.77299 -0.00859085 0
M  V30 4204 H 401.226 1.51513 -0.47217 0
M  V30 4205 H 401.247 3.57313 1.30795 0
M  V30 4206 H 400.759 3.8492 -0.49579 0
M  V30 4207 H 398.86 3.21312 1.88652 0
M  V30 4208 H 398.973 4.72912 0.767559 0
M  V30 4209 H 397.337 2.49678 0.50327 0
M  V30 4210 H 398.12 3.29442 -0.965537 0
M  V30 4211 N 400.565 -0.0233959 1.57583 0
M  V30 4212 C 401.805 -0.71784 1.9138 0
M  V30 4213 C 402.169 -1.72216 0.848853 0
M  V30 4214 O 403.37 -2.46527 1.07134 0
M  V30 4215 C 401.641 -1.36489 3.30311 0
M  V30 4216 S 403.2 -2.0877 3.85954 0
M  V30 4217 H 400.018 -0.237676 0.670098 0
M  V30 4218 H 402.62 0.0276709 1.9548 0
M  V30 4219 H 401.324 -0.620782 4.05678 0
M  V30 4220 H 400.855 -2.14883 3.29528 0
M  V30 4221 H 402.87 -3.35988 3.65139 0
M  V30 4222 N 402.043 -1.548 -0.295768 0
M  V30 4223 C 403.291 -1.73985 -1.02828 0
M  V30 4224 C 403.612 -0.531406 -1.87619 0
M  V30 4225 O 402.882 0.454221 -1.90561 0
M  V30 4226 H 401.462 -0.641556 -0.382642 0
M  V30 4227 H 404.124 -1.92163 -0.325489 0
M  V30 4228 H 403.22 -2.63129 -1.67838 0
M  V30 4229 N 403.521 0.559213 -1.47345 0
M  V30 4230 C 404.749 1.34194 -1.57479 0
M  V30 4231 C 405.164 1.87463 -0.224261 0
M  V30 4232 O 404.521 1.64888 0.782185 0
M  V30 4233 C 404.572 2.51324 -2.59843 0
M  V30 4234 O 404.293 2.00256 -3.89653 0
M  V30 4235 C 405.794 3.43563 -2.80142 0
M  V30 4236 H 403.014 0.409136 -0.531835 0
M  V30 4237 H 405.558 0.677609 -1.92947 0
M  V30 4238 H 403.713 3.13699 -2.27314 0
M  V30 4239 H 404.127 2.76708 -4.4557 0
M  V30 4240 H 405.601 4.2217 -3.55635 0
M  V30 4241 H 406.078 3.9698 -1.87892 0
M  V30 4242 H 406.684 2.87005 -3.1386 0
M  V30 4243 N 404.999 1.35443 0.805782 0
M  V30 4244 C 405.909 1.30546 1.94923 0
M  V30 4245 C 406.925 0.210233 1.72725 0
M  V30 4246 O 408.101 0.43975 1.9654 0
M  V30 4247 C 405.166 1.07782 3.29521 0
M  V30 4248 C 404.227 2.26625 3.64609 0
M  V30 4249 C 403.46 2.04938 4.92784 0
M  V30 4250 O 403.683 1.01624 5.61274 0
M  V30 4251 O 402.617 2.9232 5.26149 0
M  V30 4252 H 406.443 2.26779 2.02002 0
M  V30 4253 H 404.028 1.15823 0.943682 0
M  V30 4254 H 405.91 0.969392 4.10098 0
M  V30 4255 H 404.585 0.146003 3.23371 0
M  V30 4256 H 403.492 2.43033 2.84404 0
M  V30 4257 H 404.825 3.18257 3.75464 0
M  V30 4258 N 406.477 -1.02803 1.19454 0
M  V30 4259 C 407.387 -2.14575 0.948408 0
M  V30 4260 C 408.403 -1.73757 -0.091871 0
M  V30 4261 O 409.579 -2.01185 0.0929654 0
M  V30 4262 C 406.644 -3.43202 0.491265 0
M  V30 4263 C 405.705 -3.98328 1.60103 0
M  V30 4264 C 404.938 -5.20816 1.16561 0
M  V30 4265 O 405.161 -5.70392 0.0295238 0
M  V30 4266 O 404.095 -5.68801 1.96849 0
M  V30 4267 H 407.921 -2.38202 1.88397 0
M  V30 4268 H 405.506 -1.12989 0.977433 0
M  V30 4269 H 407.388 -4.20687 0.245015 0
M  V30 4270 H 406.063 -3.21018 -0.415851 0
M  V30 4271 H 404.97 -3.22174 1.90144 0
M  V30 4272 H 406.303 -4.24879 2.48473 0
M  V30 4273 N 407.956 -0.998596 -1.21925 0
M  V30 4274 C 409.367 -0.711939 -1.72593 0
M  V30 4275 C 409.718 0.770842 -1.80423 0
M  V30 4276 O 408.843 1.60237 -1.4544 0
M  V30 4277 C 409.438 -1.28567 -3.13458 0
M  V30 4278 C 407.997 -1.04828 -3.61508 0
M  V30 4279 C 407.144 -1.4024 -2.39224 0
M  V30 4280 H 410.095 -1.17027 -1.07193 0
M  V30 4281 H 410.116 -0.667098 -3.74607 0
M  V30 4282 H 409.628 -2.36486 -3.07727 0
M  V30 4283 H 407.729 0.0140383 -3.72597 0
M  V30 4284 H 407.842 -1.71566 -4.47328 0
M  V30 4285 H 406.206 -0.821077 -2.41103 0
M  V30 4286 H 406.989 -2.49176 -2.36149 0
M  V30 4287 N 409.434 1.37368 -0.772513 0
M  V30 4288 C 410.397 2.28601 -0.165541 0
M  V30 4289 C 411.397 1.48062 0.627238 0
M  V30 4290 O 412.587 1.68268 0.450715 0
M  V30 4291 C 409.719 3.32023 0.772897 0
M  V30 4292 H 410.912 2.83787 -0.969787 0
M  V30 4293 H 408.465 1.46647 -0.540775 0
M  V30 4294 H 409.2 2.81962 1.60212 0
M  V30 4295 H 408.985 3.91555 0.206585 0
M  V30 4296 H 410.475 4.00197 1.19298 0
M  V30 4297 N 410.912 0.523116 1.48665 0
M  V30 4298 C 412.328 0.180511 1.58576 0
M  V30 4299 C 412.528 -1.31597 1.52592 0
M  V30 4300 O 411.584 -2.0937 1.4114 0
M  V30 4301 C 412.897 0.776949 2.90489 0
M  V30 4302 C 414.445 0.745058 3.04003 0
M  V30 4303 C 414.92 1.31995 4.38567 0
M  V30 4304 N 416.411 1.28162 4.45117 0
M  V30 4305 C 417.146 1.6964 5.47731 0
M  V30 4306 N 416.642 2.18816 6.57337 0
M  V30 4307 N 418.435 1.6092 5.38573 0
M  V30 4308 H 410.586 1.4958 1.50797 0
M  V30 4309 H 412.849 0.621772 0.715614 0
M  V30 4310 H 412.555 1.82732 3.00503 0
M  V30 4311 H 412.429 0.25007 3.7637 0
M  V30 4312 H 414.816 -0.296532 2.93606 0
M  V30 4313 H 414.897 1.30933 2.1975 0
M  V30 4314 H 414.541 2.36043 4.49718 0
M  V30 4315 H 414.471 0.731418 5.21496 0
M  V30 4316 H 416.962 0.92155 3.66491 0
M  V30 4317 H 417.275 2.48478 7.31764 0
M  V30 4318 H 415.62 2.22805 6.58318 0
M  V30 4319 H 418.811 1.22304 4.5184 0
M  V30 4320 H 418.984 1.93567 6.18414 0
M  V30 4321 N 412.39 -1.55475 0.257931 0
M  V30 4322 C 413.618 -2.03609 -0.367559 0
M  V30 4323 C 414.033 -1.13687 -1.50734 0
M  V30 4324 O 413.39 -0.153479 -1.81853 0
M  V30 4325 C 413.441 -3.51001 -0.864908 0
M  V30 4326 O 413.162 -4.37499 0.229465 0
M  V30 4327 C 414.663 -4.14946 -1.55997 0
M  V30 4328 H 411.883 -0.665459 -0.0860521 0
M  V30 4329 H 414.427 -2.00843 0.385014 0
M  V30 4330 H 412.582 -3.54266 -1.56762 0
M  V30 4331 H 412.996 -5.24286 -0.14998 0
M  V30 4332 H 414.47 -5.19735 -1.85956 0
M  V30 4333 H 414.947 -3.6209 -2.4857 0
M  V30 4334 H 415.553 -4.15635 -0.901543 0
M  V30 4335 N 413.868 0.0150385 -1.57593 0
M  V30 4336 C 415.108 0.70768 -1.91758 0
M  V30 4337 C 415.472 1.71764 -0.857974 0
M  V30 4338 O 416.673 2.45956 -1.0844 0
M  V30 4339 C 414.944 1.34736 -3.3103 0
M  V30 4340 S 416.503 2.06721 -3.87056 0
M  V30 4341 H 413.321 0.234119 -0.671349 0
M  V30 4342 H 415.923 -0.0380373 -1.95463 0
M  V30 4343 H 414.627 0.59926 -4.06001 0
M  V30 4344 H 414.158 2.13133 -3.30663 0
M  V30 4345 H 416.173 3.34047 -3.66915 0
M  V30 4346 N 415.346 1.54954 0.287554 0
M  V30 4347 C 416.757 1.65732 0.859634 0
M  V30 4348 C 417.108 0.574767 1.87592 0
M  V30 4349 O 416.233 -0.286299 2.14498 0
M  V30 4350 C 416.828 3.00438 1.56597 0
M  V30 4351 C 415.387 3.13292 2.08627 0
M  V30 4352 C 414.534 2.61473 0.923416 0
M  V30 4353 H 417.485 1.5857 0.0642338 0
M  V30 4354 H 417.506 2.92613 2.43224 0
M  V30 4355 H 417.018 3.79207 0.826053 0
M  V30 4356 H 415.119 2.39268 2.85625 0
M  V30 4357 H 415.232 4.19647 2.31157 0
M  V30 4358 H 413.596 2.18264 1.31275 0
M  V30 4359 H 414.379 3.42733 0.197241 0
M  V30 4360 N 416.824 -0.551391 1.4764 0
M  V30 4361 C 417.772 -1.67896 1.60978 0
M  V30 4362 C 418.766 -1.62549 0.476877 0
M  V30 4363 O 419.972 -1.67664 0.654878 0
M  V30 4364 H 416.347 -0.555649 0.506713 0
M  V30 4365 H 418.318 -1.53784 2.55721 0
M  V30 4366 C 417.067 -3.06234 1.64669 0
M  V30 4367 H 416.39 -3.11033 2.51194 0
M  V30 4368 H 417.83 -3.84804 1.7805 0
M  V30 4369 C 416.289 -3.34737 0.381115 0
M  V30 4370 O 416.819 -3.98381 -0.515297 0
M  V30 4371 N 415.025 -2.8944 0.259354 0
M  V30 4372 H 414.572 -2.37827 0.98976 0
M  V30 4373 H 414.53 -3.08882 -0.586464 0
M  V30 4374 N 418.302 -1.35869 -0.798587 0
M  V30 4375 C 419.55 -1.29332 -1.55298 0
M  V30 4376 C 419.871 0.129729 -1.94568 0
M  V30 4377 O 419.141 1.06796 -1.6423 0
M  V30 4378 H 417.721 -0.475737 -0.57592 0
M  V30 4379 H 420.383 -1.70062 -0.952093 0
M  V30 4380 H 419.479 -1.91458 -2.46476 0
M  V30 4381 N 419.78 1.02168 -1.19998 0
M  V30 4382 C 421.008 1.79296 -1.03249 0
M  V30 4383 C 421.423 1.84103 0.418502 0
M  V30 4384 O 420.78 1.29031 1.29063 0
M  V30 4385 C 420.831 3.24007 -1.60319 0
M  V30 4386 O 420.552 3.19512 -2.99739 0
M  V30 4387 C 422.053 4.17704 -1.48453 0
M  V30 4388 H 419.273 0.564016 -0.363493 0
M  V30 4389 H 421.817 1.28639 -1.58973 0
M  V30 4390 H 419.972 3.7183 -1.08727 0
M  V30 4391 H 420.386 4.10306 -3.26725 0
M  V30 4392 H 421.86 5.17104 -1.93153 0
M  V30 4393 H 422.337 4.37029 -0.436193 0
M  V30 4394 H 422.943 3.7576 -1.99211 0
M  V30 4395 N 421.258 1.00505 1.21394 0
M  V30 4396 C 422.205 0.565496 2.23765 0
M  V30 4397 C 423.175 -0.408466 1.60999 0
M  V30 4398 O 424.36 -0.310503 1.88257 0
M  V30 4399 C 421.5 -0.101667 3.4495 0
M  V30 4400 C 420.613 0.915479 4.22188 0
M  V30 4401 C 419.748 0.220574 5.30742 0
M  V30 4402 C 418.787 1.22527 5.99711 0
M  V30 4403 N 417.924 0.557831 6.9988 0
M  V30 4404 H 422.764 1.44314 2.60725 0
M  V30 4405 H 420.301 0.722643 1.28126 0
M  V30 4406 H 422.259 -0.505504 4.14126 0
M  V30 4407 H 420.889 -0.94303 3.08718 0
M  V30 4408 H 419.941 1.43756 3.52191 0
M  V30 4409 H 421.253 1.68005 4.69655 0
M  V30 4410 H 420.407 -0.239368 6.06228 0
M  V30 4411 H 419.146 -0.576401 4.84282 0
M  V30 4412 H 418.151 1.69571 5.22997 0
M  V30 4413 H 419.376 2.02332 6.48258 0
M  V30 4414 H 417.322 -0.219486 6.55633 0
M  V30 4415 H 417.239 1.26065 7.45415 0
M  V30 4416 H 418.507 0.121095 7.79406 0
M  V30 4417 N 422.737 -1.36956 0.779787 0
M  V30 4418 C 423.977 -2.01328 0.353043 0
M  V30 4419 C 424.341 -1.60558 -1.05286 0
M  V30 4420 O 425.542 -2.1745 -1.58016 0
M  V30 4421 C 423.813 -3.53874 0.500822 0
M  V30 4422 S 425.372 -4.38506 0.16053 0
M  V30 4423 H 422.19 -0.69799 0.13539 0
M  V30 4424 H 424.792 -1.67016 1.01617 0
M  V30 4425 H 423.496 -3.81034 1.52451 0
M  V30 4426 H 423.027 -3.92994 -0.178574 0
M  V30 4427 H 425.042 -4.85153 -1.04121 0
M  V30 4428 N 424.215 -0.530993 -1.48385 0
M  V30 4429 C 425.147 0.268353 -2.27624 0
M  V30 4430 C 426.16 0.903525 -1.35426 0
M  V30 4431 O 427.349 0.781796 -1.60469 0
M  V30 4432 C 424.449 1.39535 -3.08842 0
M  V30 4433 C 423.622 0.861913 -4.28824 0
M  V30 4434 C 422.681 1.87016 -4.91845 0
M  V30 4435 O 421.707 1.4267 -5.5103 0
M  V30 4436 N 422.909 3.20238 -4.84178 0
M  V30 4437 H 425.674 -0.41123 -2.96865 0
M  V30 4438 H 423.235 -0.365387 -1.57723 0
M  V30 4439 H 425.227 2.06803 -3.47871 0
M  V30 4440 H 423.797 1.97859 -2.42014 0
M  V30 4441 H 423.017 0.0132126 -3.94198 0
M  V30 4442 H 424.305 0.484415 -5.06489 0
M  V30 4443 H 423.703 3.58932 -4.37246 0
M  V30 4444 H 422.26 3.83136 -5.27305 0
M  V30 4445 N 425.693 1.55336 -0.266172 0
M  V30 4446 C 427.104 1.85236 0.233315 0
M  V30 4447 C 427.455 1.18816 1.56132 0
M  V30 4448 O 426.58 0.473307 2.11161 0
M  V30 4449 C 427.175 3.36059 0.430113 0
M  V30 4450 C 425.734 3.66116 0.873842 0
M  V30 4451 C 424.881 2.77274 -0.0380016 0
M  V30 4452 H 427.832 1.51004 -0.488214 0
M  V30 4453 H 427.853 3.58681 1.26998 0
M  V30 4454 H 427.365 3.84373 -0.536588 0
M  V30 4455 H 425.466 3.23295 1.85233 0
M  V30 4456 H 425.579 4.73699 0.717358 0
M  V30 4457 H 423.943 2.50198 0.476759 0
M  V30 4458 H 424.726 3.284 -1.00042 0
M  V30 4459 N 427.171 -0.0066808 1.57599 0
M  V30 4460 C 428.401 -0.703066 1.94269 0
M  V30 4461 C 428.809 -1.68206 0.866222 0
M  V30 4462 O 428.152 -1.82966 -0.164087 0
M  V30 4463 C 428.214 -1.49616 3.26887 0
M  V30 4464 C 427.878 -0.679494 4.5192 0
M  V30 4465 C 428.875 0.0299508 5.19891 0
M  V30 4466 C 426.56 -0.627433 4.98366 0
M  V30 4467 C 428.554 0.780514 6.32603 0
M  V30 4468 C 426.241 0.126861 6.10968 0
M  V30 4469 C 427.239 0.829574 6.77943 0
M  V30 4470 O 426.927 1.57157 7.88389 0
M  V30 4471 H 426.659 -0.201217 0.645359 0
M  V30 4472 H 429.213 0.0385326 2.05364 0
M  V30 4473 H 427.443 -2.28209 3.12182 0
M  V30 4474 H 429.132 -2.07726 3.48719 0
M  V30 4475 H 429.898 -0.00115963 4.85 0
M  V30 4476 H 425.777 -1.16392 4.46065 0
M  V30 4477 H 429.321 1.32954 6.84813 0
M  V30 4478 H 425.218 0.159815 6.45302 0
M  V30 4479 H 425.986 1.48758 8.04868 0
M  V30 4480 N 428.649 -1.55105 -0.279332 0
M  V30 4481 C 429.895 -1.76597 -1.00921 0
M  V30 4482 C 430.25 -0.556831 -1.84166 0
M  V30 4483 O 429.543 0.450573 -1.86227 0
M  V30 4484 C 429.737 -3.0086 -1.92919 0
M  V30 4485 C 429.566 -4.33744 -1.18728 0
M  V30 4486 C 428.336 -4.9712 -0.905545 0
M  V30 4487 C 430.534 -5.11009 -0.580857 0
M  V30 4488 N 428.516 -6.13749 -0.136169 0
M  V30 4489 C 429.887 -6.19976 0.0546661 0
M  V30 4490 C 431.942 -4.95502 -0.488067 0
M  V30 4491 C 430.645 -7.15123 0.774028 0
M  V30 4492 C 432.671 -5.90999 0.217688 0
M  V30 4493 C 432.033 -6.9935 0.841975 0
M  V30 4494 H 428.132 -0.698553 -0.351493 0
M  V30 4495 H 430.716 -1.92595 -0.285531 0
M  V30 4496 H 428.887 -2.86249 -2.62519 0
M  V30 4497 H 430.619 -3.10784 -2.59221 0
M  V30 4498 H 427.374 -4.57903 -1.20921 0
M  V30 4499 H 427.798 -6.7659 0.235665 0
M  V30 4500 H 432.44 -4.11841 -0.956406 0
M  V30 4501 H 430.158 -7.9831 1.25407 0
M  V30 4502 H 433.744 -5.81078 0.289717 0
M  V30 4503 H 432.624 -7.71973 1.37939 0
M  V30 4504 N 430.127 0.543554 -1.4793 0
M  V30 4505 C 431.037 1.67657 -1.64098 0
M  V30 4506 C 432.053 1.65934 -0.523622 0
M  V30 4507 O 433.229 1.85133 -0.792943 0
M  V30 4508 C 430.294 3.04146 -1.66421 0
M  V30 4509 C 429.355 3.16831 -2.89684 0
M  V30 4510 C 428.588 4.46809 -2.91886 0
M  V30 4511 O 428.811 5.33095 -2.02895 0
M  V30 4512 O 427.745 4.63573 -3.83906 0
M  V30 4513 H 431.571 1.56957 -2.59997 0
M  V30 4514 H 429.156 0.715116 -1.31173 0
M  V30 4515 H 431.038 3.85346 -1.70548 0
M  V30 4516 H 429.713 3.152 -0.736923 0
M  V30 4517 H 428.62 2.34977 -2.91095 0
M  V30 4518 H 429.953 3.10687 -3.81752 0
M  V30 4519 N 431.605 1.3629 0.791371 0
M  V30 4520 C 432.853 1.30154 1.5461 0
M  V30 4521 C 433.174 -0.119409 1.94634 0
M  V30 4522 O 432.444 -1.05924 1.64794 0
M  V30 4523 H 431.024 0.478784 0.573389 0
M  V30 4524 H 433.686 1.70565 0.94306 0
M  V30 4525 H 432.782 1.92762 2.45457 0
M  V30 4526 N 433.083 -1.0153 1.20538 0
M  V30 4527 C 434.494 -1.56598 1.01657 0
M  V30 4528 C 434.845 -1.91505 -0.426668 0
M  V30 4529 O 433.97 -1.72375 -1.30827 0
M  V30 4530 C 434.565 -2.84542 1.83905 0
M  V30 4531 C 433.124 -3.36133 1.69386 0
M  V30 4532 C 432.271 -2.09427 1.81757 0
M  V30 4533 H 435.222 -0.838974 1.34711 0
M  V30 4534 H 435.243 -3.56004 1.34319 0
M  V30 4535 H 434.755 -2.59105 2.8894 0
M  V30 4536 H 432.856 -3.66528 0.669933 0
M  V30 4537 H 432.969 -4.08248 2.50739 0
M  V30 4538 H 431.333 -2.21941 1.24957 0
M  V30 4539 H 432.116 -1.86414 2.88279 0
M  V30 4540 N 434.561 -1.01147 -1.20859 0
M  V30 4541 C 435.509 -0.57059 -2.25493 0
M  V30 4542 C 436.503 0.388109 -1.64894 0
M  V30 4543 O 437.709 0.258592 -1.78133 0
M  V30 4544 H 434.084 -0.166191 -0.733406 0
M  V30 4545 H 436.055 -1.46411 -2.60012 0
M  V30 4546 C 434.804 0.0805241 -3.47607 0
M  V30 4547 H 434.127 -0.648156 -3.94511 0
M  V30 4548 H 435.567 0.352197 -4.22535 0
M  V30 4549 C 434.026 1.32175 -3.09889 0
M  V30 4550 O 434.556 2.41553 -3.20959 0
M  V30 4551 N 432.762 1.20392 -2.64488 0
M  V30 4552 H 432.309 0.313905 -2.5568 0
M  V30 4553 H 432.267 2.03541 -2.39621 0
M  V30 4554 N 436.039 1.36541 -0.78704 0
M  V30 4555 C 436.987 2.31965 -0.171724 0
M  V30 4556 C 437.981 1.55689 0.667631 0
M  V30 4557 O 439.187 1.70969 0.562981 0
M  V30 4558 H 435.562 0.751101 -0.0367545 0
M  V30 4559 H 437.533 2.81428 -0.992017 0
M  V30 4560 C 436.282 3.40968 0.680904 0
M  V30 4561 H 435.605 3.99775 0.0443961 0
M  V30 4562 H 437.045 4.10063 1.07815 0
M  V30 4563 C 435.504 2.82338 1.83813 0
M  V30 4564 O 436.034 2.74311 2.93456 0
M  V30 4565 N 434.24 2.39661 1.6435 0
M  V30 4566 H 433.787 2.46389 0.751668 0
M  V30 4567 H 433.745 2.00779 2.4194 0
M  V30 4568 N 437.518 0.538854 1.48102 0
M  V30 4569 C 438.766 0.00798599 2.02098 0
M  V30 4570 C 439.087 -1.33922 1.41739 0
M  V30 4571 O 438.357 -1.86932 0.585934 0
M  V30 4572 H 436.937 -3.62179e-05 0.747 0
M  V30 4573 H 439.599 0.7047 1.81714 0
M  V30 4574 H 438.695 -0.0937672 3.11959 0
M  V30 4575 N 438.996 -1.55193 0.274407 0
M  V30 4576 C 440.245 -1.98758 -0.343213 0
M  V30 4577 C 440.558 -1.16624 -1.5703 0
M  V30 4578 O 441.764 -1.5033 -2.26082 0
M  V30 4579 C 440.22 -3.53759 -0.661996 0
M  V30 4580 C 439.828 -4.4467 0.54524 0
M  V30 4581 C 441.572 -4.05916 -1.24228 0
M  V30 4582 C 439.479 -5.91058 0.201084 0
M  V30 4583 H 438.409 -0.742353 -0.132014 0
M  V30 4584 H 441.06 -1.79545 0.378948 0
M  V30 4585 H 439.442 -3.68772 -1.44304 0
M  V30 4586 H 440.616 -4.41426 1.32212 0
M  V30 4587 H 438.931 -4.03143 1.04232 0
M  V30 4588 H 441.528 -5.12831 -1.51357 0
M  V30 4589 H 441.871 -3.54908 -2.17592 0
M  V30 4590 H 442.404 -3.9434 -0.523542 0
M  V30 4591 H 439.143 -6.46161 1.10258 0
M  V30 4592 H 438.663 -5.97373 -0.539045 0
M  V30 4593 H 440.342 -6.46669 -0.206954 0
M  V30 4594 N 440.474 -0.00167713 -1.576 0
M  V30 4595 C 441.702 0.693759 -1.94922 0
M  V30 4596 C 442.117 1.67215 -0.876626 0
M  V30 4597 O 441.474 1.81929 0.144279 0
M  V30 4598 C 441.525 1.42416 -3.32265 0
M  V30 4599 O 441.246 0.485014 -4.35407 0
M  V30 4600 C 442.747 2.21395 -3.84056 0
M  V30 4601 H 439.967 0.193118 -0.642609 0
M  V30 4602 H 442.511 -0.0532952 -2.04431 0
M  V30 4603 H 440.666 2.12284 -3.24059 0
M  V30 4604 H 441.08 1.00053 -5.14868 0
M  V30 4605 H 442.554 2.67996 -4.82578 0
M  V30 4606 H 443.031 3.04142 -3.16851 0
M  V30 4607 H 443.637 1.56542 -3.95443 0
M  V30 4608 N 441.952 1.55251 0.271103 0
M  V30 4609 C 442.884 1.84675 1.35749 0
M  V30 4610 C 443.897 0.731366 1.45447 0
M  V30 4611 O 445.086 1.00924 1.4723 0
M  V30 4612 C 442.186 1.99638 2.73857 0
M  V30 4613 C 441.359 3.30312 2.86727 0
M  V30 4614 C 440.418 3.35318 4.05522 0
M  V30 4615 O 439.444 4.08682 3.96191 0
M  V30 4616 N 440.646 2.62857 5.17577 0
M  V30 4617 H 443.411 2.78445 1.10853 0
M  V30 4618 H 440.972 1.55191 0.461218 0
M  V30 4619 H 442.964 2.00355 3.51625 0
M  V30 4620 H 441.534 1.12725 2.91568 0
M  V30 4621 H 440.754 3.42118 1.95829 0
M  V30 4622 H 442.042 4.16488 2.92258 0
M  V30 4623 H 441.44 2.02939 5.28046 0
M  V30 4624 H 439.997 2.69295 5.93568 0
M  V30 4625 N 443.43 -0.535701 1.48216 0
M  V30 4626 C 444.677 -1.29183 1.55942 0
M  V30 4627 C 445.005 -1.93125 0.230857 0
M  V30 4628 O 444.26 -1.79556 -0.778331 0
M  V30 4629 C 444.559 -2.4068 2.64212 0
M  V30 4630 C 444.225 -1.94428 4.06827 0
M  V30 4631 C 442.887 -1.81532 4.45645 0
M  V30 4632 C 445.239 -1.59405 4.96225 0
M  V30 4633 C 442.567 -1.31939 5.71672 0
M  V30 4634 C 444.919 -1.11276 6.22736 0
M  V30 4635 C 443.583 -0.969924 6.60416 0
M  V30 4636 H 442.853 -0.472715 0.570632 0
M  V30 4637 H 445.5 -0.598437 1.81909 0
M  V30 4638 H 443.805 -3.15666 2.32083 0
M  V30 4639 H 445.502 -2.98822 2.67407 0
M  V30 4640 H 442.092 -2.05415 3.76168 0
M  V30 4641 H 446.276 -1.68231 4.66917 0
M  V30 4642 H 441.532 -1.19562 5.99596 0
M  V30 4643 H 445.706 -0.832453 6.91407 0
M  V30 4644 H 443.333 -0.583436 7.57958 0
M  V30 4645 N 444.908 -1.36708 -0.784132 0
M  V30 4646 C 446.185 -1.21776 -1.53069 0
M  V30 4647 C 446.565 0.193876 -2.10208 0
M  V30 4648 O 445.913 1.20012 -1.94446 0
M  V30 4649 C 446.123 -2.30395 -2.62143 0
M  V30 4650 C 447.471 -2.67325 -3.29882 0
M  V30 4651 O 448.495 -2.29478 -2.7243 0
M  V30 4652 O 447.354 -3.32485 -4.33724 0
M  V30 4653 H 444.448 -0.474459 -0.677361 0
M  V30 4654 H 446.994 -1.48454 -0.82216 0
M  V30 4655 H 445.766 -3.2498 -2.17953 0
M  V30 4656 H 445.389 -2.05112 -3.40609 0
M  V30 4657 N 446.386 1.0089 -1.21074 0
M  V30 4658 C 447.334 2.11707 -0.963476 0
M  V30 4659 C 448.328 1.69172 0.0879032 0
M  V30 4660 O 449.534 1.79889 -0.0631415 0
M  V30 4661 H 445.909 0.692026 -0.294287 0
M  V30 4662 H 447.88 2.29743 -1.90422 0
M  V30 4663 C 446.629 3.43473 -0.540509 0
M  V30 4664 H 445.952 3.76634 -1.34114 0
M  V30 4665 H 447.392 4.22044 -0.406777 0
M  V30 4666 C 445.851 3.2849 0.748079 0
M  V30 4667 O 446.381 3.58883 1.8046 0
M  V30 4668 N 444.587 2.81715 0.713081 0
M  V30 4669 H 444.134 2.5718 -0.146973 0
M  V30 4670 H 444.092 2.72071 1.57558 0
M  V30 4671 N 447.864 1.01787 1.20321 0
M  V30 4672 C 449.113 0.703249 1.89043 0
M  V30 4673 C 449.426 -0.770445 1.79787 0
M  V30 4674 O 450.632 -1.19767 2.43656 0
M  V30 4675 C 449.088 1.20749 3.3904 0
M  V30 4676 C 448.696 2.70817 3.56878 0
M  V30 4677 C 450.44 0.968352 4.13308 0
M  V30 4678 C 448.347 3.14716 5.00708 0
M  V30 4679 H 447.277 0.259354 0.707991 0
M  V30 4680 H 449.928 1.23072 1.36108 0
M  V30 4681 H 448.31 0.607989 3.91305 0
M  V30 4682 H 449.484 3.36327 3.14993 0
M  V30 4683 H 447.799 2.92888 2.95983 0
M  V30 4684 H 450.396 1.27173 5.19356 0
M  V30 4685 H 450.739 -0.095149 4.16191 0
M  V30 4686 H 451.272 1.53129 3.67146 0
M  V30 4687 H 448.011 4.20347 5.02979 0
M  V30 4688 H 447.531 2.53927 5.43398 0
M  V30 4689 H 449.21 3.07426 5.69296 0
M  V30 4690 N 449.342 -1.36122 0.79427 0
M  V30 4691 C 450.272 -2.32551 0.210328 0
M  V30 4692 C 451.253 -1.56884 -0.657386 0
M  V30 4693 O 452.438 -1.85014 -0.590207 0
M  V30 4694 C 449.568 -3.41128 -0.651819 0
M  V30 4695 C 448.522 -4.27842 0.116395 0
M  V30 4696 C 447.848 -5.2763 -0.86666 0
M  V30 4697 C 449.148 -5.05647 1.30837 0
M  V30 4698 H 450.842 -2.81636 1.01594 0
M  V30 4699 H 448.388 -1.35407 0.489981 0
M  V30 4700 H 450.341 -4.07581 -1.07031 0
M  V30 4701 H 449.065 -2.90622 -1.49019 0
M  V30 4702 H 447.724 -3.62952 0.515915 0
M  V30 4703 H 447.372 -4.73395 -1.70019 0
M  V30 4704 H 447.072 -5.86514 -0.35705 0
M  V30 4705 H 448.596 -5.96955 -1.28361 0
M  V30 4706 H 450.01 -5.65113 0.965393 0
M  V30 4707 H 448.407 -5.73967 1.75161 0
M  V30 4708 H 449.477 -4.37006 2.10128 0
M  V30 4709 N 450.82 -0.546701 -1.47814 0
M  V30 4710 C 452.067 -0.0187407 -2.02491 0
M  V30 4711 C 452.395 1.32685 -1.42215 0
M  V30 4712 O 451.65 1.87413 -0.563454 0
M  V30 4713 C 451.949 0.134869 -3.57145 0
M  V30 4714 C 451.615 -1.13849 -4.3629 0
M  V30 4715 C 450.277 -1.48743 -4.57634 0
M  V30 4716 C 452.629 -1.98277 -4.82012 0
M  V30 4717 C 449.957 -2.67932 -5.21948 0
M  V30 4718 C 452.309 -3.16659 -5.4764 0
M  V30 4719 C 450.973 -3.51879 -5.67219 0
M  V30 4720 H 450.243 -0.0068577 -0.740968 0
M  V30 4721 H 452.89 -0.716097 -1.77607 0
M  V30 4722 H 451.195 0.915118 -3.80963 0
M  V30 4723 H 452.892 0.558556 -3.97091 0
M  V30 4724 H 449.482 -0.856767 -4.19949 0
M  V30 4725 H 453.666 -1.72628 -4.6531 0
M  V30 4726 H 448.922 -2.95401 -5.35302 0
M  V30 4727 H 453.096 -3.82374 -5.82033 0
M  V30 4728 H 450.723 -4.44331 -6.16825 0
M  V30 4729 N 452.299 1.55045 -0.282633 0
M  V30 4730 C 453.262 2.21515 0.588539 0
M  V30 4731 C 454.262 1.19535 1.07554 0
M  V30 4732 O 455.452 1.44391 0.974514 0
M  V30 4733 C 452.584 2.88704 1.8128 0
M  V30 4734 H 453.777 2.99899 0.00806397 0
M  V30 4735 H 451.33 1.56265 -0.0333067 0
M  V30 4736 H 452.065 2.14352 2.43359 0
M  V30 4737 H 451.85 3.63443 1.47144 0
M  V30 4738 H 453.34 3.39465 2.43214 0
M  V30 4739 N 453.777 0.010035 1.57597 0
M  V30 4740 C 455.023 -0.673697 1.91283 0
M  V30 4741 C 455.356 -1.72863 0.884979 0
M  V30 4742 O 454.631 -1.94268 -0.0949487 0
M  V30 4743 C 454.914 -1.30766 3.35518 0
M  V30 4744 C 454.767 -0.263578 4.49027 0
M  V30 4745 C 456.086 -2.23105 3.79358 0
M  V30 4746 H 453.205 -0.243439 0.695634 0
M  V30 4747 H 455.847 0.0633864 1.89894 0
M  V30 4748 H 453.997 -1.93588 3.36832 0
M  V30 4749 H 455.669 0.365738 4.59848 0
M  V30 4750 H 453.912 0.413077 4.31829 0
M  V30 4751 H 454.583 -0.746398 5.4693 0
M  V30 4752 H 457.059 -1.70289 3.79659 0
M  V30 4753 H 455.935 -2.64424 4.81011 0
M  V30 4754 H 456.196 -3.11433 3.13787 0
M  V30 4755 N 455.255 -1.55392 -0.262866 0
M  V30 4756 C 456.185 -1.91978 -1.32917 0
M  V30 4757 C 457.166 -0.7828 -1.51017 0
M  V30 4758 O 458.351 -1.04178 -1.63892 0
M  V30 4759 C 455.481 -2.20055 -2.68687 0
M  V30 4760 C 454.435 -3.35854 -2.65304 0
M  V30 4761 C 453.761 -3.49435 -4.04721 0
M  V30 4762 C 455.061 -4.71977 -2.23685 0
M  V30 4763 H 456.755 -2.81292 -1.02544 0
M  V30 4764 H 454.301 -1.3534 -0.491846 0
M  V30 4765 H 456.254 -2.44237 -3.43404 0
M  V30 4766 H 454.978 -1.27551 -3.00663 0
M  V30 4767 H 453.637 -3.11655 -1.93045 0
M  V30 4768 H 453.285 -2.54379 -4.33936 0
M  V30 4769 H 452.985 -4.27297 -4.0335 0
M  V30 4770 H 454.509 -3.7592 -4.81161 0
M  V30 4771 H 455.923 -4.95637 -2.88127 0
M  V30 4772 H 454.32 -5.52828 -2.33456 0
M  V30 4773 H 455.39 -4.70115 -1.18827 0
M  V30 4774 N 456.733 0.527833 -1.48498 0
M  V30 4775 C 457.961 1.30823 -1.6029 0
M  V30 4776 C 458.376 1.86945 -0.263974 0
M  V30 4777 O 457.733 1.6651 0.747034 0
M  V30 4778 C 457.784 2.45756 -2.65116 0
M  V30 4779 O 457.505 1.91946 -3.93813 0
M  V30 4780 C 459.006 3.37543 -2.87367 0
M  V30 4781 H 456.226 0.397763 -0.540394 0
M  V30 4782 H 458.77 0.636529 -1.94341 0
M  V30 4783 H 456.925 3.08806 -2.33917 0
M  V30 4784 H 457.339 2.67195 -4.51339 0
M  V30 4785 H 458.813 4.14532 -3.6451 0
M  V30 4786 H 459.29 3.92905 -1.9627 0
M  V30 4787 H 459.896 2.80283 -3.19878 0
M  V30 4788 N 458.211 1.37122 0.776871 0
M  V30 4789 C 459.457 1.32243 1.53752 0
M  V30 4790 C 459.79 -0.0944745 1.9397 0
M  V30 4791 O 459.065 -1.05068 1.6368 0
M  V30 4792 C 459.348 2.25681 2.80607 0
M  V30 4793 C 459.201 3.76127 2.46676 0
M  V30 4794 C 460.52 2.17657 3.82509 0
M  V30 4795 H 457.639 0.481704 0.557791 0
M  V30 4796 H 460.281 1.6778 0.891612 0
M  V30 4797 H 458.431 1.95505 3.35723 0
M  V30 4798 H 460.103 4.16877 1.97513 0
M  V30 4799 H 458.346 3.94946 1.79443 0
M  V30 4800 H 459.017 4.36933 3.37333 0
M  V30 4801 H 461.493 2.44245 3.36873 0
M  V30 4802 H 460.369 2.85185 4.69 0
M  V30 4803 H 460.63 1.16785 4.26396 0
M  V30 4804 N 459.689 -1.00246 1.21608 0
M  V30 4805 C 460.936 -1.74061 1.03485 0
M  V30 4806 C 461.264 -1.89658 -0.431308 0
M  V30 4807 O 460.519 -1.42976 -1.33627 0
M  V30 4808 C 460.818 -3.15448 1.68009 0
M  V30 4809 C 460.484 -3.19792 3.17874 0
M  V30 4810 C 459.146 -3.20685 3.58768 0
M  V30 4811 C 461.498 -3.16835 4.13842 0
M  V30 4812 C 458.826 -3.16309 4.94131 0
M  V30 4813 C 461.178 -3.14001 5.49169 0
M  V30 4814 C 459.842 -3.13204 5.89457 0
M  V30 4815 H 459.112 -0.636934 0.378677 0
M  V30 4816 H 461.759 -1.17473 1.51236 0
M  V30 4817 H 460.064 -3.75284 1.12557 0
M  V30 4818 H 461.761 -3.71285 1.51487 0
M  V30 4819 H 458.351 -3.19842 2.85305 0
M  V30 4820 H 462.535 -3.15303 3.83272 0
M  V30 4821 H 457.791 -3.14032 5.24589 0
M  V30 4822 H 461.965 -3.10667 6.23265 0
M  V30 4823 H 459.592 -3.09568 6.94314 0
M  V30 4824 N 461.167 -1.02423 -1.1978 0
M  V30 4825 C 462.099 -0.559152 -2.22275 0
M  V30 4826 C 463.112 0.36251 -1.58713 0
M  V30 4827 O 464.301 0.159641 -1.77785 0
M  V30 4828 C 461.401 0.205094 -3.38279 0
M  V30 4829 C 460.574 -0.720361 -4.31427 0
M  V30 4830 C 459.633 -0.00234368 -5.262 0
M  V30 4831 O 458.659 -0.627378 -5.65732 0
M  V30 4832 N 459.861 1.26996 -5.66438 0
M  V30 4833 H 462.626 -1.44064 -2.62804 0
M  V30 4834 H 460.187 -0.902692 -1.34399 0
M  V30 4835 H 462.179 0.694868 -3.9869 0
M  V30 4836 H 460.749 0.987947 -2.96578 0
M  V30 4837 H 459.969 -1.39031 -3.68869 0
M  V30 4838 H 461.257 -1.3495 -4.90577 0
M  V30 4839 H 460.655 1.79858 -5.36347 0
M  V30 4840 H 459.212 1.70432 -6.29123 0
M  V30 4841 N 462.645 1.35699 -0.801477 0
M  V30 4842 C 463.885 2.00741 -0.385027 0
M  V30 4843 C 464.249 1.62213 1.02718 0
M  V30 4844 O 465.45 2.19936 1.54537 0
M  V30 4845 C 463.721 3.53032 -0.557057 0
M  V30 4846 S 465.28 4.38195 -0.230272 0
M  V30 4847 H 462.098 0.695748 -0.146477 0
M  V30 4848 H 464.7 1.65378 -1.04261 0
M  V30 4849 H 463.404 3.7856 -1.58494 0
M  V30 4850 H 462.935 3.93229 0.116029 0
M  V30 4851 H 464.95 4.86748 0.963895 0
M  V30 4852 N 464.123 0.554532 1.47522 0
M  V30 4853 C 465.372 0.0273458 2.01681 0
M  V30 4854 C 465.685 -1.32962 1.43459 0
M  V30 4855 O 466.891 -1.94657 1.89265 0
M  V30 4856 C 465.347 -0.00159057 3.599 0
M  V30 4857 C 464.955 1.35197 4.27113 0
M  V30 4858 C 466.699 -0.476311 4.21819 0
M  V30 4859 C 464.606 1.28229 5.77331 0
M  V30 4860 H 463.536 0.00645269 0.753972 0
M  V30 4861 H 466.187 0.701985 1.69542 0
M  V30 4862 H 464.569 -0.741821 3.8899 0
M  V30 4863 H 465.743 2.1097 4.09668 0
M  V30 4864 H 464.058 1.76441 3.77171 0
M  V30 4865 H 466.655 -0.5468 5.31897 0
M  V30 4866 H 466.998 -1.4877 3.8881 0
M  V30 4867 H 467.531 0.20898 3.97251 0
M  V30 4868 H 464.27 2.26959 6.14955 0
M  V30 4869 H 463.79 0.566314 5.97121 0
M  V30 4870 H 465.469 0.983226 6.39485 0
M  V30 4871 N 465.601 -1.54893 0.290851 0
M  V30 4872 C 466.829 -2.04343 -0.324288 0
M  V30 4873 C 467.244 -1.16859 -1.48289 0
M  V30 4874 O 466.601 -0.192018 -1.81487 0
M  V30 4875 C 466.652 -3.52756 -0.79026 0
M  V30 4876 O 466.373 -4.36913 0.322213 0
M  V30 4877 C 467.874 -4.18161 -1.4716 0
M  V30 4878 H 465.094 -0.667135 -0.0719173 0
M  V30 4879 H 467.638 -1.99981 0.427529 0
M  V30 4880 H 465.793 -3.57511 -1.49213 0
M  V30 4881 H 466.207 -5.24486 -0.0387372 0
M  V30 4882 H 467.681 -5.23562 -1.7489 0
M  V30 4883 H 468.158 -3.67282 -2.40834 0
M  V30 4884 H 468.764 -4.17454 -0.813178 0
M  V30 4885 N 467.08 -0.0183926 -1.57589 0
M  V30 4886 C 468.013 1.00148 -2.0505 0
M  V30 4887 C 468.991 1.32387 -0.944058 0
M  V30 4888 O 470.175 1.44237 -1.21358 0
M  V30 4889 C 467.302 2.32435 -2.46357 0
M  V30 4890 C 466.348 2.15731 -3.67916 0
M  V30 4891 S 467.181 1.46613 -5.15039 0
M  V30 4892 C 468.337 2.80293 -5.59631 0
M  V30 4893 H 468.57 0.597429 -2.91235 0
M  V30 4894 H 466.103 0.193002 -1.53189 0
M  V30 4895 H 468.061 3.0849 -2.70822 0
M  V30 4896 H 466.722 2.69975 -1.60537 0
M  V30 4897 H 465.915 3.13502 -3.9463 0
M  V30 4898 H 465.517 1.4782 -3.43548 0
M  V30 4899 H 467.809 3.76557 -5.63215 0
M  V30 4900 H 468.752 2.58256 -6.59325 0
M  V30 4901 H 469.16 2.85047 -4.87246 0
M  V30 4902 N 468.558 1.5553 0.254621 0
M  V30 4903 C 469.468 1.92789 1.33677 0
M  V30 4904 C 470.484 0.827356 1.53071 0
M  V30 4905 O 471.66 1.12807 1.66843 0
M  V30 4906 C 468.725 2.20827 2.67275 0
M  V30 4907 C 467.786 3.4427 2.5647 0
M  V30 4908 C 467.019 3.70961 3.83697 0
M  V30 4909 O 467.242 2.99852 4.85227 0
M  V30 4910 O 466.176 4.64491 3.82794 0
M  V30 4911 H 470.002 2.84945 1.05071 0
M  V30 4912 H 467.587 1.42312 0.454723 0
M  V30 4913 H 469.469 2.40204 3.46237 0
M  V30 4914 H 468.144 1.31851 2.9563 0
M  V30 4915 H 467.051 3.30209 1.75821 0
M  V30 4916 H 468.384 4.33524 2.33062 0
M  V30 4917 N 470.036 -0.519951 1.48776 0
M  V30 4918 C 471.284 -1.2727 1.56993 0
M  V30 4919 C 471.605 -1.9339 0.25004 0
M  V30 4920 O 470.875 -1.81822 -0.729216 0
M  V30 4921 H 469.455 -0.472732 0.578389 0
M  V30 4922 H 472.117 -0.604234 1.85297 0
M  V30 4923 H 471.213 -2.04669 2.3562 0
M  V30 4924 N 471.514 -1.37532 -0.769588 0
M  V30 4925 C 472.76 -1.34063 -1.52966 0
M  V30 4926 C 473.115 0.0737942 -1.92258 0
M  V30 4927 O 472.408 1.03291 -1.61374 0
M  V30 4928 C 472.602 -2.21558 -2.8044 0
M  V30 4929 C 472.431 -3.71367 -2.53608 0
M  V30 4930 C 471.201 -4.40464 -2.47628 0
M  V30 4931 C 473.399 -4.64177 -2.21459 0
M  V30 4932 N 471.381 -5.758 -2.12902 0
M  V30 4933 C 472.752 -5.87907 -1.9689 0
M  V30 4934 C 474.807 -4.52541 -2.07633 0
M  V30 4935 C 473.51 -7.01304 -1.59892 0
M  V30 4936 C 475.536 -5.65825 -1.72034 0
M  V30 4937 C 474.898 -6.88606 -1.48327 0
M  V30 4938 H 470.997 -0.545856 -0.559969 0
M  V30 4939 H 473.581 -1.72773 -0.897634 0
M  V30 4940 H 471.752 -1.85061 -3.41478 0
M  V30 4941 H 473.484 -2.09332 -3.46356 0
M  V30 4942 H 470.239 -3.93491 -2.63556 0
M  V30 4943 H 470.663 -6.47328 -1.9823 0
M  V30 4944 H 475.305 -3.58183 -2.24643 0
M  V30 4945 H 473.023 -7.95594 -1.4162 0
M  V30 4946 H 476.609 -5.58793 -1.61991 0
M  V30 4947 H 475.489 -7.74779 -1.21189 0
M  V30 4948 N 472.992 0.995999 -1.22138 0
M  V30 4949 C 474.22 1.77066 -1.07029 0
M  V30 4950 C 474.635 1.8495 0.379357 0
M  V30 4951 O 473.992 1.3174 1.26297 0
M  V30 4952 C 474.043 3.20533 -1.67155 0
M  V30 4953 O 473.764 3.13082 -3.06449 0
M  V30 4954 C 475.265 4.14461 -1.5728 0
M  V30 4955 H 472.485 0.556179 -0.375374 0
M  V30 4956 H 475.029 1.25238 -1.61666 0
M  V30 4957 H 473.184 3.6944 -1.16589 0
M  V30 4958 H 473.598 4.03283 -3.35355 0
M  V30 4959 H 475.072 5.1289 -2.04078 0
M  V30 4960 H 475.549 4.36005 -0.528795 0
M  V30 4961 H 476.155 3.71449 -2.07136 0
M  V30 4962 N 474.47 1.03057 1.19235 0
M  V30 4963 C 475.747 0.642608 1.84743 0
M  V30 4964 C 476.127 -0.878577 1.91948 0
M  V30 4965 O 475.475 -1.77597 1.43776 0
M  V30 4966 C 475.685 1.30665 3.23616 0
M  V30 4967 C 477.033 1.43098 3.9976 0
M  V30 4968 O 478.057 1.26396 3.3302 0
M  V30 4969 O 476.916 1.70223 5.19313 0
M  V30 4970 H 474.01 0.223573 0.796206 0
M  V30 4971 H 476.556 1.12883 1.26711 0
M  V30 4972 H 475.328 2.34544 3.13217 0
M  V30 4973 H 474.951 0.808405 3.89295 0
M  V30 4974 N 475.948 -1.35272 0.808662 0
M  V30 4975 C 476.878 -2.32315 0.234981 0
M  V30 4976 C 477.859 -1.57572 -0.64071 0
M  V30 4977 O 479.044 -1.8563 -0.570551 0
M  V30 4978 C 476.174 -3.41801 -0.615601 0
M  V30 4979 C 475.128 -4.27694 0.161767 0
M  V30 4980 C 474.454 -5.28519 -0.810649 0
M  V30 4981 C 475.754 -5.04231 1.36193 0
M  V30 4982 H 477.448 -2.80543 1.04575 0
M  V30 4983 H 474.994 -1.3488 0.504315 0
M  V30 4984 H 476.947 -4.08693 -1.02702 0
M  V30 4985 H 475.671 -2.92186 -1.45928 0
M  V30 4986 H 474.33 -3.62384 0.554382 0
M  V30 4987 H 473.978 -4.75171 -1.64988 0
M  V30 4988 H 473.678 -5.8686 -0.294822 0
M  V30 4989 H 475.202 -5.98283 -1.22023 0
M  V30 4990 H 476.616 -5.64058 1.02528 0
M  V30 4991 H 475.013 -5.72077 1.81239 0
M  V30 4992 H 476.083 -4.34753 2.14751 0
M  V30 4993 N 477.426 -0.562348 -1.47226 0
M  V30 4994 C 478.356 0.170627 -2.32876 0
M  V30 4995 C 479.337 0.903748 -1.44106 0
M  V30 4996 O 480.522 0.883206 -1.72954 0
M  V30 4997 C 477.652 1.19786 -3.25989 0
M  V30 4998 C 476.606 0.580875 -4.2404 0
M  V30 4999 C 475.932 1.71311 -5.06514 0
M  V30 5000 C 477.232 -0.468714 -5.20193 0
M  V30 5001 H 478.926 -0.544441 -2.94408 0
M  V30 5002 H 476.472 -0.263271 -1.41573 0
M  V30 5003 H 478.425 1.71884 -3.84752 0
M  V30 5004 H 477.149 1.94294 -2.62521 0
M  V30 5005 H 475.808 0.0811538 -3.6651 0
M  V30 5006 H 475.456 2.44736 -4.39447 0
M  V30 5007 H 475.156 1.30604 -5.72902 0
M  V30 5008 H 476.68 2.23725 -5.68137 0
M  V30 5009 H 478.094 -0.0336028 -5.7329 0
M  V30 5010 H 476.491 -0.794957 -5.94811 0
M  V30 5011 H 477.561 -1.36269 -4.65359 0
M  V30 5012 N 478.904 1.54736 -0.299062 0
M  V30 5013 C 480.134 2.04215 0.312992 0
M  V30 5014 C 480.542 1.17596 1.48215 0
M  V30 5015 O 479.885 0.193835 1.82674 0
M  V30 5016 C 479.947 3.49696 0.833862 0
M  V30 5017 C 479.611 4.56518 -0.20977 0
M  V30 5018 C 480.608 5.09442 -1.03756 0
M  V30 5019 C 478.293 5.01073 -0.35091 0
M  V30 5020 C 480.287 6.05459 -1.99244 0
M  V30 5021 C 477.974 5.9691 -1.30924 0
M  V30 5022 C 478.972 6.48987 -2.1285 0
M  V30 5023 O 478.66 7.42947 -3.07059 0
M  V30 5024 H 478.392 0.672128 0.0722494 0
M  V30 5025 H 480.946 2.00718 -0.436043 0
M  V30 5026 H 479.176 3.5051 1.63339 0
M  V30 5027 H 480.865 3.82381 1.36159 0
M  V30 5028 H 481.631 4.75816 -0.939376 0
M  V30 5029 H 477.51 4.60168 0.276813 0
M  V30 5030 H 481.054 6.46031 -2.63229 0
M  V30 5031 H 476.951 6.29953 -1.40815 0
M  V30 5032 H 477.719 7.60743 -3.02015 0
M  V30 5033 N 480.382 0.0267497 1.57577 0
M  V30 5034 C 481.33 -0.973923 2.11229 0
M  V30 5035 C 482.324 -1.33849 1.03831 0
M  V30 5036 O 483.53 -1.321 1.22269 0
M  V30 5037 H 479.905 -0.331844 0.674821 0
M  V30 5038 H 481.876 -0.496092 2.94247 0
M  V30 5039 C 480.625 -2.24798 2.65257 0
M  V30 5040 H 479.948 -1.9762 3.47543 0
M  V30 5041 H 481.388 -2.93031 3.06445 0
M  V30 5042 C 479.847 -2.97611 1.57891 0
M  V30 5043 O 480.377 -3.89629 0.97735 0
M  V30 5044 N 478.583 -2.59905 1.29992 0
M  V30 5045 H 478.13 -1.85154 1.79097 0
M  V30 5046 H 478.088 -3.08932 0.583798 0
M  V30 5047 N 481.861 -1.55662 -0.24637 0
M  V30 5048 C 483.086 -1.81914 -0.996093 0
M  V30 5049 C 483.511 -0.603875 -1.78143 0
M  V30 5050 O 482.869 0.447091 -1.75701 0
M  V30 5051 C 482.917 -3.05908 -1.90925 0
M  V30 5052 O 482.021 -2.82861 -3.00105 0
M  V30 5053 H 481.362 -0.600481 -0.283406 0
M  V30 5054 H 483.892 -2.02848 -0.267199 0
M  V30 5055 H 483.902 -3.35356 -2.3238 0
M  V30 5056 H 482.577 -3.93999 -1.33183 0
M  V30 5057 H 481.154 -2.64583 -2.62775 0
M  V30 5058 N 483.339 0.512053 -1.4905 0
M  V30 5059 C 484.287 1.63568 -1.65373 0
M  V30 5060 C 485.281 1.61228 -0.519806 0
M  V30 5061 O 486.487 1.65869 -0.699101 0
M  V30 5062 H 482.862 0.542019 -0.521267 0
M  V30 5063 H 484.833 1.4695 -2.59708 0
M  V30 5064 C 483.582 3.01761 -1.7273 0
M  V30 5065 H 482.905 3.04263 -2.59353 0
M  V30 5066 H 484.345 3.79948 -1.8819 0
M  V30 5067 C 482.804 3.33609 -0.46973 0
M  V30 5068 O 483.334 3.99607 0.409492 0
M  V30 5069 N 481.54 2.88651 -0.336003 0
M  V30 5070 H 481.087 2.35119 -1.05247 0
M  V30 5071 H 481.045 3.10328 0.504363 0
M  V30 5072 N 484.817 1.37938 0.762283 0
M  V30 5073 C 486.094 1.24196 1.51112 0
M  V30 5074 C 486.474 -0.160409 2.1049 0
M  V30 5075 O 485.822 -1.16904 1.96331 0
M  V30 5076 C 486.032 2.34537 2.58445 0
M  V30 5077 C 487.38 2.7254 3.25588 0
M  V30 5078 O 488.404 2.33783 2.68745 0
M  V30 5079 O 487.263 3.39343 4.28379 0
M  V30 5080 H 484.357 0.485175 0.669727 0
M  V30 5081 H 486.903 1.49743 0.798438 0
M  V30 5082 H 485.675 3.28406 2.12756 0
M  V30 5083 H 485.298 2.10505 3.37303 0
M  V30 5084 N 486.295 -0.989507 1.22664 0
M  V30 5085 C 487.258 -2.06183 1.00106 0
M  V30 5086 C 488.258 -1.60765 -0.0337726 0
M  V30 5087 O 489.448 -1.72989 0.205072 0
M  V30 5088 C 486.58 -3.37021 0.51279 0
M  V30 5089 H 487.773 -2.27629 1.95256 0
M  V30 5090 H 485.326 -1.16158 1.0458 0
M  V30 5091 H 486.061 -3.21261 -0.442917 0
M  V30 5092 H 485.846 -3.71323 1.25942 0
M  V30 5093 H 487.336 -4.1591 0.375315 0
M  V30 5094 N 487.773 -1.03688 -1.18687 0
M  V30 5095 C 488.998 -0.757819 -1.93059 0
M  V30 5096 C 489.423 0.678353 -1.75442 0
M  V30 5097 O 488.781 1.46938 -1.06203 0
M  V30 5098 C 488.829 -1.12423 -3.42627 0
M  V30 5099 O 487.933 -0.247505 -4.11657 0
M  V30 5100 H 487.274 -0.279245 -0.602427 0
M  V30 5101 H 489.804 -1.3857 -1.5053 0
M  V30 5102 H 489.814 -1.08454 -3.93322 0
M  V30 5103 H 488.489 -2.17049 -3.54771 0
M  V30 5104 H 487.066 -0.34649 -3.71287 0
M  V30 5105 N 489.251 1.34841 -0.815825 0
M  V30 5106 C 490.499 1.98107 -0.399744 0
M  V30 5107 C 490.82 1.65019 1.03894 0
M  V30 5108 O 490.09 0.937311 1.72021 0
M  V30 5109 H 488.67 0.732827 -0.144823 0
M  V30 5110 H 491.332 1.64599 -1.0437 0
M  V30 5111 H 490.428 3.07856 -0.512965 0
M  V30 5112 N 490.729 0.570148 1.46925 0
M  V30 5113 C 491.677 -0.183181 2.31878 0
M  V30 5114 C 492.671 -0.896721 1.43719 0
M  V30 5115 O 493.877 -0.816536 1.60414 0
M  V30 5116 H 490.252 -0.077944 0.74795 0
M  V30 5117 H 492.223 0.552312 2.93244 0
M  V30 5118 C 490.972 -1.19172 3.2664 0
M  V30 5119 H 490.295 -0.652088 3.94446 0
M  V30 5120 H 491.735 -1.68946 3.88887 0
M  V30 5121 C 490.194 -2.24627 2.51086 0
M  V30 5122 O 490.724 -3.31773 2.26472 0
M  V30 5123 N 488.93 -1.98898 2.11867 0
M  V30 5124 H 488.477 -1.11777 2.32086 0
M  V30 5125 H 488.435 -2.6967 1.61634 0
M  V30 5126 N 492.207 -1.54576 0.307264 0
M  V30 5127 C 493.435 -2.04675 -0.302597 0
M  V30 5128 C 493.85 -1.18425 -1.47041 0
M  V30 5129 O 493.207 -0.211257 -1.81273 0
M  V30 5130 C 493.258 -3.53575 -0.752801 0
M  V30 5131 O 492.979 -4.36547 0.368536 0
M  V30 5132 C 494.48 -4.19699 -1.42717 0
M  V30 5133 H 491.7 -0.66786 -0.0648374 0
M  V30 5134 H 494.244 -1.99516 0.448716 0
M  V30 5135 H 492.399 -3.59074 -1.45412 0
M  V30 5136 H 492.813 -5.24497 0.0168937 0
M  V30 5137 H 494.287 -5.25388 -1.69327 0
M  V30 5138 H 494.764 -3.69815 -2.36925 0
M  V30 5139 H 495.37 -4.18293 -0.768856 0
M  V30 5140 N 493.685 -0.035106 -1.57561 0
M  V30 5141 C 494.931 0.637362 -1.93156 0
M  V30 5142 C 495.286 1.69391 -0.912392 0
M  V30 5143 O 494.579 1.91469 0.070735 0
M  V30 5144 C 494.773 1.29149 -3.3325 0
M  V30 5145 C 494.602 0.29983 -4.48699 0
M  V30 5146 C 493.372 -0.102454 -5.05196 0
M  V30 5147 C 495.57 -0.448297 -5.12342 0
M  V30 5148 N 493.552 -1.08866 -6.0417 0
M  V30 5149 C 494.923 -1.28807 -6.06472 0
M  V30 5150 C 496.978 -0.508351 -4.95298 0
M  V30 5151 C 495.681 -2.18248 -6.85391 0
M  V30 5152 C 497.707 -1.39013 -5.7483 0
M  V30 5153 C 497.069 -2.21766 -6.6858 0
M  V30 5154 H 493.168 0.205358 -0.754554 0
M  V30 5155 H 495.752 -0.103682 -1.94424 0
M  V30 5156 H 493.923 2.00264 -3.3279 0
M  V30 5157 H 495.655 1.92147 -3.56177 0
M  V30 5158 H 492.41 0.273223 -4.72811 0
M  V30 5159 H 492.834 -1.57817 -6.58348 0
M  V30 5160 H 497.476 0.117197 -4.22638 0
M  V30 5161 H 495.194 -2.81855 -7.57353 0
M  V30 5162 H 498.78 -1.44096 -5.63673 0
M  V30 5163 H 497.66 -2.88892 -7.29048 0
M  V30 5164 N 495.163 1.55791 0.238111 0
M  V30 5165 C 496.111 1.91885 1.31464 0
M  V30 5166 C 497.105 0.798929 1.49377 0
M  V30 5167 O 498.311 0.983626 1.50747 0
M  V30 5168 H 494.686 0.609551 0.440399 0
M  V30 5169 H 496.657 2.81747 0.982925 0
M  V30 5170 C 495.406 2.23763 2.6613 0
M  V30 5171 H 494.729 3.09444 2.53149 0
M  V30 5172 H 496.169 2.52915 3.40309 0
M  V30 5173 C 494.628 1.05699 3.1989 0
M  V30 5174 O 495.158 0.309524 4.00506 0
M  V30 5175 N 493.364 0.845251 2.78036 0
M  V30 5176 H 492.911 1.4548 2.12588 0
M  V30 5177 H 492.869 0.0569973 3.14348 0
M  V30 5178 N 496.642 -0.504142 1.49319 0
M  V30 5179 C 497.888 -1.25767 1.59857 0
M  V30 5180 C 498.243 -1.90348 0.280262 0
M  V30 5181 O 497.536 -1.77588 -0.719241 0
M  V30 5182 C 497.73 -2.35021 2.69258 0
M  V30 5183 C 497.559 -1.81154 4.11598 0
M  V30 5184 C 496.329 -1.62596 4.78425 0
M  V30 5185 C 498.527 -1.3252 4.96934 0
M  V30 5186 N 496.509 -1.03625 6.05091 0
M  V30 5187 C 497.88 -0.856633 6.14054 0
M  V30 5188 C 499.935 -1.21063 4.82958 0
M  V30 5189 C 498.638 -0.284841 7.18736 0
M  V30 5190 C 500.664 -0.652815 5.87786 0
M  V30 5191 C 500.026 -0.194461 7.04132 0
M  V30 5192 H 496.125 -0.450293 0.639343 0
M  V30 5193 H 498.709 -0.565344 1.86311 0
M  V30 5194 H 496.88 -3.01719 2.44581 0
M  V30 5195 H 498.612 -3.02061 2.69335 0
M  V30 5196 H 495.367 -1.86873 4.35173 0
M  V30 5197 H 495.791 -0.76076 6.72712 0
M  V30 5198 H 500.433 -1.551 3.93324 0
M  V30 5199 H 498.151 0.0677979 8.08072 0
M  V30 5200 H 501.737 -0.566994 5.79031 0
M  V30 5201 H 500.617 0.230442 7.83861 0
M  V30 5202 N 498.12 -1.38341 -0.754957 0
M  V30 5203 C 499.05 -1.38176 -1.88227 0
M  V30 5204 C 500.031 -0.247873 -1.68284 0
M  V30 5205 O 501.216 -0.45075 -1.88896 0
M  V30 5206 C 498.346 -1.20471 -3.25736 0
M  V30 5207 C 497.3 -2.3105 -3.60278 0
M  V30 5208 C 496.626 -1.98452 -4.96509 0
M  V30 5209 C 497.926 -3.73305 -3.65295 0
M  V30 5210 H 499.62 -2.32512 -1.88622 0
M  V30 5211 H 497.166 -1.1192 -0.906082 0
M  V30 5212 H 499.119 -1.18982 -4.04254 0
M  V30 5213 H 497.843 -0.225965 -3.25817 0
M  V30 5214 H 496.502 -2.31723 -2.84078 0
M  V30 5215 H 496.15 -0.990641 -4.93148 0
M  V30 5216 H 495.85 -2.7251 -5.20588 0
M  V30 5217 H 497.374 -1.98578 -5.77407 0
M  V30 5218 H 498.788 -3.7467 -4.3393 0
M  V30 5219 H 497.185 -4.46557 -4.00883 0
M  V30 5220 H 498.255 -4.05719 -2.65556 0
M  V30 5221 N 499.598 0.982988 -1.23187 0
M  V30 5222 C 500.828 1.75666 -1.08743 0
M  V30 5223 C 501.236 1.85662 0.364195 0
M  V30 5224 O 500.579 1.33317 1.26382 0
M  V30 5225 C 500.641 3.20144 -1.63549 0
M  V30 5226 C 500.305 3.33665 -3.12277 0
M  V30 5227 C 501.302 3.20194 -4.096 0
M  V30 5228 C 498.987 3.58397 -3.51933 0
M  V30 5229 C 500.981 3.31256 -5.44563 0
M  V30 5230 C 498.668 3.69098 -4.87042 0
M  V30 5231 C 499.666 3.55537 -5.83166 0
M  V30 5232 O 499.354 3.65864 -7.1582 0
M  V30 5233 H 499.086 0.558194 -0.381307 0
M  V30 5234 H 501.64 1.24387 -1.63454 0
M  V30 5235 H 499.87 3.72659 -1.03256 0
M  V30 5236 H 501.559 3.79262 -1.4462 0
M  V30 5237 H 502.325 3.00987 -3.80305 0
M  V30 5238 H 498.204 3.68025 -2.77631 0
M  V30 5239 H 501.748 3.20588 -6.19572 0
M  V30 5240 H 497.645 3.87814 -5.16014 0
M  V30 5241 H 498.413 3.82675 -7.23534 0
M  V30 5242 N 501.076 1.04316 1.18135 0
M  V30 5243 C 502.323 0.74802 1.88178 0
M  V30 5244 C 502.651 -0.72441 1.80506 0
M  V30 5245 O 501.906 -1.54463 1.20165 0
M  V30 5246 C 502.205 1.16271 3.37958 0
M  V30 5247 C 501.871 2.63585 3.65833 0
M  V30 5248 C 500.533 3.03829 3.73151 0
M  V30 5249 C 502.885 3.58822 3.78016 0
M  V30 5250 C 500.213 4.38194 3.90132 0
M  V30 5251 C 502.565 4.92909 3.96514 0
M  V30 5252 C 501.229 5.3282 4.02068 0
M  V30 5253 H 500.499 0.27372 0.688592 0
M  V30 5254 H 503.146 1.30863 1.39811 0
M  V30 5255 H 501.451 0.520938 3.88321 0
M  V30 5256 H 503.148 0.911672 3.90499 0
M  V30 5257 H 499.738 2.31414 3.60757 0
M  V30 5258 H 503.922 3.28875 3.71692 0
M  V30 5259 H 499.178 4.68631 3.92677 0
M  V30 5260 H 503.352 5.66606 4.04883 0
M  V30 5261 H 500.979 6.36943 4.14979 0
M  V30 5262 N 502.554 -1.34406 0.822964 0
M  V30 5263 C 503.803 -1.97542 0.407458 0
M  V30 5264 C 504.116 -1.65973 -1.035 0
M  V30 5265 O 505.322 -2.22598 -1.55442 0
M  V30 5266 C 503.778 -3.53463 0.677623 0
M  V30 5267 C 503.386 -3.93925 2.1337 0
M  V30 5268 C 505.13 -4.23229 0.328284 0
M  V30 5269 C 503.037 -5.42759 2.34876 0
M  V30 5270 H 501.967 -0.739207 0.148623 0
M  V30 5271 H 504.618 -1.53248 1.00932 0
M  V30 5272 H 503 -3.96 0.00558965 0
M  V30 5273 H 504.174 -3.62494 2.8449 0
M  V30 5274 H 502.489 -3.37097 2.44448 0
M  V30 5275 H 505.086 -5.32659 0.466794 0
M  V30 5276 H 505.429 -4.09899 -0.727224 0
M  V30 5277 H 505.962 -3.86169 0.954896 0
M  V30 5278 H 502.701 -5.61075 3.38932 0
M  V30 5279 H 502.221 -5.75704 1.68299 0
M  V30 5280 H 503.9 -6.0944 2.17236 0
M  V30 5281 N 504.032 -0.577932 -1.46621 0
M  V30 5282 C 505.443 -0.150071 -1.86096 0
M  V30 5283 C 505.794 1.28563 -1.48209 0
M  V30 5284 O 504.919 1.97036 -0.894754 0
M  V30 5285 C 505.514 -0.265576 -3.37758 0
M  V30 5286 C 504.073 0.10738 -3.76247 0
M  V30 5287 C 503.22 -0.603711 -2.70649 0
M  V30 5288 H 506.171 -0.786438 -1.37844 0
M  V30 5289 H 506.192 0.510352 -3.77062 0
M  V30 5290 H 505.704 -1.3106 -3.65301 0
M  V30 5291 H 503.805 1.15272 -3.54321 0
M  V30 5292 H 503.918 -0.26561 -4.78363 0
M  V30 5293 H 502.282 -0.0444884 -2.54661 0
M  V30 5294 H 503.065 -1.65029 -3.01032 0
M  V30 5295 N 505.51 1.54411 -0.315457 0
M  V30 5296 C 506.44 2.27002 0.547039 0
M  V30 5297 C 507.421 1.27492 1.12605 0
M  V30 5298 O 508.606 1.5629 1.15269 0
M  V30 5299 C 505.736 3.02171 1.71201 0
M  V30 5300 C 504.69 4.0895 1.26268 0
M  V30 5301 C 504.016 4.71915 2.51396 0
M  V30 5302 C 505.316 5.20891 0.383419 0
M  V30 5303 H 507.01 2.99343 -0.0584517 0
M  V30 5304 H 504.556 1.4397 -0.0295527 0
M  V30 5305 H 506.509 3.51681 2.32161 0
M  V30 5306 H 505.233 2.27433 2.34397 0
M  V30 5307 H 503.892 3.60312 0.676062 0
M  V30 5308 H 503.54 3.93801 3.12937 0
M  V30 5309 H 503.24 5.44039 2.22026 0
M  V30 5310 H 504.764 5.24195 3.13133 0
M  V30 5311 H 506.178 5.66206 0.899082 0
M  V30 5312 H 504.575 5.99821 0.182857 0
M  V30 5313 H 505.645 4.81324 -0.587821 0
M  V30 5314 N 506.988 0.0434614 1.5754 0
M  V30 5315 C 508.237 -0.631454 1.91561 0
M  V30 5316 C 508.55 -1.72457 0.92292 0
M  V30 5317 O 509.756 -2.45712 1.15489 0
M  V30 5318 C 508.212 -1.17447 3.40197 0
M  V30 5319 C 507.82 -0.113867 4.47855 0
M  V30 5320 C 509.564 -1.82507 3.83264 0
M  V30 5321 C 507.471 -0.669326 5.876 0
M  V30 5322 H 506.401 -0.239629 0.714908 0
M  V30 5323 H 509.052 0.111097 1.83163 0
M  V30 5324 H 507.434 -1.96909 3.43574 0
M  V30 5325 H 508.608 0.659348 4.56058 0
M  V30 5326 H 506.923 0.438821 4.14081 0
M  V30 5327 H 509.52 -2.25047 4.85034 0
M  V30 5328 H 509.863 -2.67365 3.19095 0
M  V30 5329 H 510.396 -1.09712 3.82372 0
M  V30 5330 H 507.135 0.141449 6.55347 0
M  V30 5331 H 506.655 -1.4107 5.82974 0
M  V30 5332 H 508.334 -1.15463 6.36614 0
M  V30 5333 N 508.466 -1.55915 -0.229846 0
M  V30 5334 C 509.715 -1.77742 -0.953455 0
M  V30 5335 C 510.028 -0.610524 -1.85828 0
M  V30 5336 O 511.234 -0.712219 -2.61992 0
M  V30 5337 C 509.69 -3.14738 -1.74551 0
M  V30 5338 C 509.298 -4.39126 -0.887242 0
M  V30 5339 C 511.042 -3.45895 -2.46084 0
M  V30 5340 C 508.949 -5.67149 -1.67617 0
M  V30 5341 H 507.879 -0.662648 -0.359741 0
M  V30 5342 H 510.53 -1.82322 -0.207576 0
M  V30 5343 H 508.912 -3.04311 -2.53399 0
M  V30 5344 H 510.086 -4.60588 -0.139892 0
M  V30 5345 H 508.401 -4.15427 -0.284443 0
M  V30 5346 H 510.998 -4.38767 -3.05594 0
M  V30 5347 H 511.341 -2.68007 -3.18556 0
M  V30 5348 H 511.874 -3.57614 -1.74233 0
M  V30 5349 H 508.613 -6.47906 -0.994881 0
M  V30 5350 H 508.133 -5.49763 -2.39836 0
M  V30 5351 H 509.812 -6.07025 -2.23898 0
M  V30 5352 N 509.944 0.496216 -1.49584 0
M  V30 5353 C 511.193 1.24668 -1.58558 0
M  V30 5354 C 511.506 1.9359 -0.279703 0
M  V30 5355 O 512.712 2.70365 -0.248048 0
M  V30 5356 C 511.168 2.26388 -2.79779 0
M  V30 5357 C 510.776 1.63384 -4.17145 0
M  V30 5358 C 512.52 3.02233 -2.98086 0
M  V30 5359 C 510.427 2.63243 -5.29582 0
M  V30 5360 H 509.357 0.468995 -0.590389 0
M  V30 5361 H 512.008 0.519985 -1.75978 0
M  V30 5362 H 510.39 3.02241 -2.55863 0
M  V30 5363 H 511.564 0.93491 -4.51216 0
M  V30 5364 H 509.879 0.999121 -4.04236 0
M  V30 5365 H 512.476 3.76919 -3.79257 0
M  V30 5366 H 512.819 3.60132 -2.08831 0
M  V30 5367 H 513.352 2.33495 -3.22063 0
M  V30 5368 H 510.091 2.10119 -6.20911 0
M  V30 5369 H 509.611 3.31363 -4.99959 0
M  V30 5370 H 511.29 3.25575 -5.59115 0
M  V30 5371 N 511.423 1.38739 0.74761 0
M  V30 5372 C 512.671 1.35007 1.50391 0
M  V30 5373 C 512.992 -0.0574274 1.94915 0
M  V30 5374 O 512.262 -1.00628 1.6808 0
M  V30 5375 H 510.842 0.496784 0.557866 0
M  V30 5376 H 513.504 1.73479 0.888319 0
M  V30 5377 H 512.6 2.00474 2.392 0
M  V30 5378 N 512.901 -0.976442 1.23707 0
M  V30 5379 C 514.126 -1.75875 1.09922 0
M  V30 5380 C 514.551 -1.84911 -0.34489 0
M  V30 5381 O 513.909 -1.31363 -1.24954 0
M  V30 5382 C 513.957 -3.16179 1.73388 0
M  V30 5383 O 513.061 -4.00124 0.99871 0
M  V30 5384 H 512.402 -0.540954 0.385052 0
M  V30 5385 H 514.932 -1.22546 1.6384 0
M  V30 5386 H 514.942 -3.66741 1.78788 0
M  V30 5387 H 513.617 -3.08917 2.78466 0
M  V30 5388 H 512.194 -3.58624 1.02193 0
M  V30 5389 N 514.379 -1.04941 -1.1758 0
M  V30 5390 C 515.626 -0.757989 -1.87779 0
M  V30 5391 C 515.954 0.714827 -1.80888 0
M  V30 5392 O 515.209 1.53824 -1.20982 0
M  V30 5393 C 515.508 -1.18062 -3.37337 0
M  V30 5394 C 515.174 -2.65521 -3.6443 0
M  V30 5395 C 513.836 -3.05804 -3.71534 0
M  V30 5396 C 516.188 -3.60822 -3.76108 0
M  V30 5397 C 513.516 -4.40256 -3.87803 0
M  V30 5398 C 515.868 -4.95005 -3.93895 0
M  V30 5399 C 514.532 -5.34945 -3.99237 0
M  V30 5400 H 513.802 -0.277368 -0.68713 0
M  V30 5401 H 516.449 -1.31603 -1.39115 0
M  V30 5402 H 514.754 -0.541525 -3.8804 0
M  V30 5403 H 516.451 -0.932368 -3.9001 0
M  V30 5404 H 513.041 -2.33324 -3.59524 0
M  V30 5405 H 517.225 -3.30841 -3.69943 0
M  V30 5406 H 512.481 -4.70707 -3.90186 0
M  V30 5407 H 516.655 -5.68746 -4.01872 0
M  V30 5408 H 514.282 -6.39135 -4.11596 0
M  V30 5409 N 515.857 1.33968 -0.830081 0
M  V30 5410 C 517.104 1.98063 -0.421566 0
M  V30 5411 C 517.432 1.65787 1.0171 0
M  V30 5412 O 516.687 0.925348 1.72441 0
M  V30 5413 C 516.986 3.52679 -0.57898 0
M  V30 5414 C 516.652 4.04884 -1.98443 0
M  V30 5415 C 515.314 4.18852 -2.36888 0
M  V30 5416 C 517.666 4.32879 -2.90285 0
M  V30 5417 C 514.994 4.58145 -3.66497 0
M  V30 5418 C 517.346 4.7362 -4.19364 0
M  V30 5419 C 516.01 4.85794 -4.57778 0
M  V30 5420 H 515.28 0.724765 -0.154262 0
M  V30 5421 H 517.927 1.59792 -1.05541 0
M  V30 5422 H 516.232 3.91556 0.138219 0
M  V30 5423 H 517.929 4.00261 -0.243317 0
M  V30 5424 H 514.519 3.9448 -1.67581 0
M  V30 5425 H 518.703 4.21619 -2.61823 0
M  V30 5426 H 513.959 4.65762 -3.96075 0
M  V30 5427 H 518.133 4.9424 -4.90612 0
M  V30 5428 H 515.76 5.15998 -5.58256 0
M  V30 5429 N 517.335 0.585699 1.46312 0
M  V30 5430 C 518.268 -0.194257 2.27372 0
M  V30 5431 C 519.246 -0.894116 1.3581 0
M  V30 5432 O 520.43 -0.907402 1.65222 0
M  V30 5433 C 517.557 -1.27901 3.13622 0
M  V30 5434 C 516.603 -0.684666 4.20969 0
M  V30 5435 S 517.436 0.490745 5.33247 0
M  V30 5436 C 518.592 -0.595137 6.23064 0
M  V30 5437 H 518.825 0.493515 2.93175 0
M  V30 5438 H 516.358 0.372666 1.49835 0
M  V30 5439 H 518.316 -1.90008 3.63878 0
M  V30 5440 H 516.977 -1.93875 2.47126 0
M  V30 5441 H 516.17 -1.50015 4.81156 0
M  V30 5442 H 515.772 -0.139204 3.73741 0
M  V30 5443 H 518.064 -1.48002 6.61137 0
M  V30 5444 H 519.007 -0.0299446 7.08094 0
M  V30 5445 H 519.415 -0.900627 5.57269 0
M  V30 5446 N 518.813 -1.54241 0.323641 0
M  V30 5447 C 519.743 -2.27289 -0.534993 0
M  V30 5448 C 520.724 -1.28087 -1.11927 0
M  V30 5449 O 521.909 -1.56899 -1.14439 0
M  V30 5450 C 519.039 -3.03075 -1.69596 0
M  V30 5451 C 517.993 -4.09614 -1.24098 0
M  V30 5452 C 517.319 -4.73242 -2.4889 0
M  V30 5453 C 518.619 -5.21087 -0.355789 0
M  V30 5454 H 520.313 -2.99308 0.0743257 0
M  V30 5455 H 517.859 -1.43952 0.0371874 0
M  V30 5456 H 519.812 -3.52907 -2.30293 0
M  V30 5457 H 518.536 -2.28673 -2.33187 0
M  V30 5458 H 517.195 -3.60666 -0.656945 0
M  V30 5459 H 516.843 -3.95455 -3.10845 0
M  V30 5460 H 516.543 -5.45209 -2.19138 0
M  V30 5461 H 518.067 -5.25848 -3.10348 0
M  V30 5462 H 519.481 -5.66675 -0.869042 0
M  V30 5463 H 517.878 -5.9991 -0.151045 0
M  V30 5464 H 518.948 -4.81005 0.613339 0
M  V30 5465 N 520.291 -0.0518155 -1.57515 0
M  V30 5466 C 521.239 0.940195 -2.12751 0
M  V30 5467 C 522.233 1.3218 -1.05948 0
M  V30 5468 O 523.439 1.30138 -1.24355 0
M  V30 5469 H 519.814 0.321066 -0.680015 0
M  V30 5470 H 521.785 0.449217 -2.94999 0
M  V30 5471 C 520.534 2.2055 -2.68799 0
M  V30 5472 H 519.857 1.92066 -3.50643 0
M  V30 5473 H 521.297 2.88119 -3.11068 0
M  V30 5474 C 519.756 2.95061 -1.62605 0
M  V30 5475 O 520.286 3.88025 -1.03921 0
M  V30 5476 N 518.492 2.57804 -1.34111 0
M  V30 5477 H 518.039 1.82281 -1.8202 0
M  V30 5478 H 517.997 3.07964 -0.632872 0
M  V30 5479 N 521.769 1.56035 0.221574 0
M  V30 5480 C 522.699 1.95434 1.2778 0
M  V30 5481 C 523.68 0.822564 1.48889 0
M  V30 5482 O 524.865 1.08486 1.61072 0
M  V30 5483 C 521.995 2.27102 2.62759 0
M  V30 5484 C 520.949 3.4277 2.56306 0
M  V30 5485 C 520.275 3.60043 3.95314 0
M  V30 5486 C 521.575 4.77742 2.11093 0
M  V30 5487 H 523.269 2.83912 0.950504 0
M  V30 5488 H 520.815 1.36596 0.455791 0
M  V30 5489 H 522.768 2.53256 3.36807 0
M  V30 5490 H 521.492 1.35478 2.97176 0
M  V30 5491 H 520.151 3.16664 1.84715 0
M  V30 5492 H 519.799 2.65794 4.27039 0
M  V30 5493 H 519.499 4.37841 3.91879 0
M  V30 5494 H 521.023 3.88545 4.71025 0
M  V30 5495 H 522.437 5.03102 2.74885 0
M  V30 5496 H 520.834 5.58823 2.18716 0
M  V30 5497 H 521.904 4.731 1.06321 0
M  V30 5498 N 523.247 -0.488276 1.49845 0
M  V30 5499 C 524.493 -1.24341 1.6021 0
M  V30 5500 C 524.826 -1.91967 0.293651 0
M  V30 5501 O 524.101 -1.81323 -0.703718 0
M  V30 5502 C 524.384 -2.3005 2.77036 0
M  V30 5503 C 524.237 -1.66842 4.17713 0
M  V30 5504 C 525.556 -3.31509 2.89464 0
M  V30 5505 H 522.675 -0.450704 0.583125 0
M  V30 5506 H 525.317 -0.539673 1.82174 0
M  V30 5507 H 523.467 -2.90071 2.58439 0
M  V30 5508 H 525.139 -1.1055 4.47858 0
M  V30 5509 H 523.382 -0.972079 4.22768 0
M  V30 5510 H 524.053 -2.43576 4.95353 0
M  V30 5511 H 526.529 -2.81493 3.06433 0
M  V30 5512 H 525.405 -4.02822 3.72861 0
M  V30 5513 H 525.666 -3.94603 1.99351 0
M  V30 5514 N 524.725 -1.39134 -0.740242 0
M  V30 5515 C 525.655 -1.40165 -1.86751 0
M  V30 5516 C 526.636 -0.265708 -1.68012 0
M  V30 5517 O 527.821 -0.47076 -1.88408 0
M  V30 5518 C 524.951 -1.2392 -3.2444 0
M  V30 5519 C 523.905 -2.34858 -3.57807 0
M  V30 5520 C 523.231 -2.03707 -4.94376 0
M  V30 5521 C 524.531 -3.77159 -3.61315 0
M  V30 5522 H 526.225 -2.345 -1.86145 0
M  V30 5523 H 523.771 -1.12875 -0.89416 0
M  V30 5524 H 525.724 -1.23263 -4.02969 0
M  V30 5525 H 524.448 -0.26051 -3.25559 0
M  V30 5526 H 523.107 -2.34723 -2.81604 0
M  V30 5527 H 522.755 -1.04289 -4.9207 0
M  V30 5528 H 522.455 -2.78016 -5.17669 0
M  V30 5529 H 523.979 -2.04691 -5.75268 0
M  V30 5530 H 525.393 -3.79252 -4.29931 0
M  V30 5531 H 523.79 -4.50784 -3.96124 0
M  V30 5532 H 524.86 -4.08513 -2.61238 0
M  V30 5533 N 526.204 0.969867 -1.24223 0
M  V30 5534 C 527.452 1.70918 -1.0785 0
M  V30 5535 C 527.773 1.91186 0.383763 0
M  V30 5536 O 527.043 1.48806 1.27411 0
M  V30 5537 H 525.623 0.633334 -0.396103 0
M  V30 5538 H 528.285 1.16689 -1.56108 0
M  V30 5539 H 527.381 2.69455 -1.57482 0
M  V30 5540 N 527.682 1.05563 1.17022 0
M  V30 5541 C 528.928 0.769074 1.87652 0
M  V30 5542 C 529.261 -0.702326 1.81055 0
M  V30 5543 O 528.536 -1.5139 1.22112 0
M  V30 5544 C 528.819 1.25492 3.37526 0
M  V30 5545 C 528.672 2.78953 3.52853 0
M  V30 5546 C 529.991 0.856919 4.31677 0
M  V30 5547 H 527.11 0.280854 0.681388 0
M  V30 5548 H 529.752 1.31027 1.37593 0
M  V30 5549 H 527.902 0.794516 3.80289 0
M  V30 5550 H 529.574 3.33146 3.19079 0
M  V30 5551 H 527.817 3.18046 2.95007 0
M  V30 5552 H 528.488 3.08011 4.58076 0
M  V30 5553 H 530.964 1.25334 3.96775 0
M  V30 5554 H 529.84 1.22443 5.35069 0
M  V30 5555 H 530.101 -0.238787 4.41455 0
M  V30 5556 N 529.16 -1.33526 0.837174 0
M  V30 5557 C 530.09 -2.31764 0.284206 0
M  V30 5558 C 531.071 -1.58896 -0.607142 0
M  V30 5559 O 532.256 -1.86798 -0.531047 0
M  V30 5560 C 529.386 -3.43029 -0.542962 0
M  V30 5561 C 528.34 -4.27255 0.252451 0
M  V30 5562 C 527.666 -5.3012 -0.69836 0
M  V30 5563 C 528.966 -5.01229 1.46858 0
M  V30 5564 H 530.66 -2.78262 1.10502 0
M  V30 5565 H 528.206 -1.3378 0.532812 0
M  V30 5566 H 530.159 -4.1078 -0.940096 0
M  V30 5567 H 528.883 -2.95216 -1.39697 0
M  V30 5568 H 527.542 -3.61127 0.631124 0
M  V30 5569 H 527.19 -4.78564 -1.54872 0
M  V30 5570 H 526.89 -5.87353 -0.170274 0
M  V30 5571 H 528.414 -6.00737 -1.09305 0
M  V30 5572 H 529.828 -5.61756 1.14469 0
M  V30 5573 H 528.225 -5.68104 1.93333 0
M  V30 5574 H 529.295 -4.301 2.23924 0
M  V30 5575 N 530.638 -0.59345 -1.46 0
M  V30 5576 C 531.863 -0.0872365 -2.07216 0
M  V30 5577 C 532.288 1.2131 -1.43755 0
M  V30 5578 O 531.646 1.73528 -0.525152 0
M  V30 5579 C 531.694 0.0538197 -3.6056 0
M  V30 5580 O 530.798 1.10765 -3.97247 0
M  V30 5581 H 530.139 -0.0676598 -0.660544 0
M  V30 5582 H 532.669 -0.819445 -1.87473 0
M  V30 5583 H 532.679 0.256567 -4.07193 0
M  V30 5584 H 531.354 -0.895739 -4.0614 0
M  V30 5585 H 529.931 0.882501 -3.62307 0
M  V30 5586 N 532.116 1.54067 -0.331816 0
M  V30 5587 C 533.364 2.00319 0.267739 0
M  V30 5588 C 533.685 1.22148 1.52003 0
M  V30 5589 O 532.955 0.325494 1.93177 0
M  V30 5590 H 531.535 0.740014 0.101922 0
M  V30 5591 H 534.197 1.89628 -0.450267 0
M  V30 5592 H 533.293 3.07765 0.518385 0
M  V30 5593 N 533.594 0.0601682 1.57485 0
M  V30 5594 C 534.504 -0.926121 2.15546 0
M  V30 5595 C 535.52 -1.33532 1.11558 0
M  V30 5596 O 536.696 -1.4104 1.4377 0
M  V30 5597 C 533.761 -2.17952 2.69625 0
M  V30 5598 C 532.822 -1.82783 3.88444 0
M  V30 5599 C 532.055 -3.02148 4.39935 0
M  V30 5600 O 532.278 -4.15803 3.90466 0
M  V30 5601 O 531.212 -2.82639 5.31412 0
M  V30 5602 H 535.038 -0.462289 3.00161 0
M  V30 5603 H 532.623 -0.162246 1.48516 0
M  V30 5604 H 534.505 -2.91474 3.04337 0
M  V30 5605 H 533.18 -2.63456 1.88077 0
M  V30 5606 H 532.087 -1.06549 3.58606 0
M  V30 5607 H 533.42 -1.42072 4.7125 0
M  V30 5608 N 535.072 -1.5615 -0.213296 0
M  V30 5609 C 536.319 -1.79546 -0.936462 0
M  V30 5610 C 536.647 -0.630337 -1.84003 0
M  V30 5611 O 535.902 0.384883 -1.91878 0
M  V30 5612 C 536.201 -3.08772 -1.79985 0
M  V30 5613 C 535.867 -4.38532 -1.04882 0
M  V30 5614 C 534.529 -4.73787 -0.841393 0
M  V30 5615 C 536.881 -5.18609 -0.51907 0
M  V30 5616 C 534.209 -5.86627 -0.0924403 0
M  V30 5617 C 536.561 -6.32229 0.216581 0
M  V30 5618 C 535.225 -6.6608 0.435191 0
M  V30 5619 H 534.495 -0.657004 -0.342676 0
M  V30 5620 H 537.142 -1.9041 -0.204051 0
M  V30 5621 H 535.447 -2.93065 -2.60038 0
M  V30 5622 H 537.144 -3.24077 -2.36168 0
M  V30 5623 H 533.734 -4.10855 -1.22048 0
M  V30 5624 H 537.918 -4.91801 -0.666775 0
M  V30 5625 H 533.174 -6.11338 0.087081 0
M  V30 5626 H 537.348 -6.93503 0.634538 0
M  V30 5627 H 534.975 -7.5336 1.01746 0
M  V30 5628 N 536.55 0.480323 -1.50102 0
M  V30 5629 C 537.513 1.56181 -1.6775 0
M  V30 5630 C 538.513 1.51156 -0.548503 0
M  V30 5631 O 539.703 1.5394 -0.815363 0
M  V30 5632 C 536.835 2.95823 -1.69415 0
M  V30 5633 H 538.028 1.41855 -2.6423 0
M  V30 5634 H 535.581 0.70605 -1.39444 0
M  V30 5635 H 536.316 3.15604 -0.745948 0
M  V30 5636 H 536.101 3.00878 -2.51425 0
M  V30 5637 H 537.591 3.74359 -1.85054 0
M  V30 5638 N 538.028 1.39524 0.732853 0
M  V30 5639 C 538.975 1.38416 1.84688 0
M  V30 5640 C 539.945 0.243539 1.64305 0
M  V30 5641 O 541.13 0.438979 1.85681 0
M  V30 5642 C 538.27 1.23555 3.22224 0
M  V30 5643 C 537.383 2.47179 3.54298 0
M  V30 5644 C 536.518 2.2489 4.81246 0
M  V30 5645 C 535.557 3.44178 5.0617 0
M  V30 5646 N 534.694 3.21192 6.24323 0
M  V30 5647 H 539.534 2.33645 1.84971 0
M  V30 5648 H 537.071 1.16059 0.903804 0
M  V30 5649 H 539.029 1.12949 4.0162 0
M  V30 5650 H 537.659 0.31954 3.21215 0
M  V30 5651 H 536.711 2.68379 2.69587 0
M  V30 5652 H 538.023 3.36022 3.68633 0
M  V30 5653 H 537.177 2.11538 5.68627 0
M  V30 5654 H 535.916 1.33443 4.69089 0
M  V30 5655 H 534.921 3.58025 4.17251 0
M  V30 5656 H 536.146 4.36528 5.20212 0
M  V30 5657 H 534.092 2.32413 6.1345 0
M  V30 5658 H 534.009 4.03594 6.39256 0
M  V30 5659 H 535.277 3.1154 7.14537 0
M  V30 5660 N 539.506 -0.963266 1.24736 0
M  V30 5661 C 540.416 -2.09246 1.06082 0
M  V30 5662 C 541.432 -1.74 0.000363101 0
M  V30 5663 O 542.608 -2.0041 0.199479 0
M  V30 5664 C 539.673 -3.40115 0.672498 0
M  V30 5665 C 538.734 -3.89282 1.80993 0
M  V30 5666 C 537.967 -5.13905 1.44004 0
M  V30 5667 O 538.19 -5.69434 0.331835 0
M  V30 5668 O 537.124 -5.57566 2.26723 0
M  V30 5669 H 540.95 -2.27881 2.00759 0
M  V30 5670 H 538.535 -1.07649 1.03595 0
M  V30 5671 H 540.417 -4.18797 0.467668 0
M  V30 5672 H 539.092 -3.22771 -0.245102 0
M  V30 5673 H 537.999 -3.11642 2.06955 0
M  V30 5674 H 539.332 -4.1111 2.70646 0
M  V30 5675 N 540.985 -1.06182 -1.16461 0
M  V30 5676 C 542.401 -0.785065 -1.38956 0
M  V30 5677 C 542.601 0.616103 -1.9185 0
M  V30 5678 O 541.657 1.37686 -2.11657 0
M  V30 5679 C 542.97 -1.84902 -2.37132 0
M  V30 5680 C 544.518 -1.8724 -2.50819 0
M  V30 5681 C 544.993 -2.92686 -3.52277 0
M  V30 5682 N 546.484 -2.91712 -3.59803 0
M  V30 5683 C 547.219 -3.69949 -4.38093 0
M  V30 5684 N 546.715 -4.58 -5.19815 0
M  V30 5685 N 548.508 -3.58346 -4.33064 0
M  V30 5686 H 540.659 -1.96569 -0.804634 0
M  V30 5687 H 542.922 -0.851747 -0.416211 0
M  V30 5688 H 542.628 -2.85518 -2.0536 0
M  V30 5689 H 542.502 -1.69908 -3.36766 0
M  V30 5690 H 544.889 -0.872827 -2.81897 0
M  V30 5691 H 544.97 -2.06311 -1.51226 0
M  V30 5692 H 544.614 -3.92835 -3.21937 0
M  V30 5693 H 544.544 -2.70864 -4.51598 0
M  V30 5694 H 547.035 -2.27876 -3.01464 0
M  V30 5695 H 547.348 -5.14357 -5.76764 0
M  V30 5696 H 545.693 -4.62056 -5.19162 0
M  V30 5697 H 548.884 -2.88943 -3.68279 0
M  V30 5698 H 549.057 -4.19563 -4.93833 0
M  V30 5699 N 542.463 1.3308 -0.844243 0
M  V30 5700 C 543.373 2.32876 -0.283922 0
M  V30 5701 C 544.389 1.63589 0.592846 0
M  V30 5702 O 545.565 1.95205 0.495693 0
M  V30 5703 C 542.63 3.42667 0.527283 0
M  V30 5704 C 541.691 4.27664 -0.374394 0
M  V30 5705 C 540.924 5.32212 0.39819 0
M  V30 5706 O 541.147 5.46635 1.62932 0
M  V30 5707 O 540.081 6.01458 -0.2306 0
M  V30 5708 H 543.907 2.82671 -1.11045 0
M  V30 5709 H 541.492 1.36518 -0.606903 0
M  V30 5710 H 543.374 4.09652 0.988078 0
M  V30 5711 H 542.049 2.95079 1.33078 0
M  V30 5712 H 540.956 3.63526 -0.883144 0
M  V30 5713 H 542.289 4.78749 -1.1428 0
M  V30 5714 N 543.941 0.601185 1.45683 0
M  V30 5715 C 545.357 0.264315 1.57396 0
M  V30 5716 C 545.557 -1.23324 1.59353 0
M  V30 5717 O 544.613 -2.01594 1.52039 0
M  V30 5718 C 545.926 0.929839 2.85962 0
M  V30 5719 C 547.474 0.905156 2.99626 0
M  V30 5720 C 547.949 1.55057 4.30954 0
M  V30 5721 N 549.44 1.51576 4.37697 0
M  V30 5722 C 550.175 1.98436 5.37969 0
M  V30 5723 N 549.671 2.53352 6.44813 0
M  V30 5724 N 551.464 1.89242 5.29286 0
M  V30 5725 H 543.615 1.57363 1.42656 0
M  V30 5726 H 545.878 0.658831 0.681649 0
M  V30 5727 H 545.584 1.98404 2.90394 0
M  V30 5728 H 545.458 0.449224 3.74515 0
M  V30 5729 H 547.845 -0.14048 2.94765 0
M  V30 5730 H 547.926 1.42397 2.12501 0
M  V30 5731 H 547.57 2.5955 4.36573 0
M  V30 5732 H 547.5 1.00682 5.16886 0
M  V30 5733 H 549.991 1.11452 3.61091 0
M  V30 5734 H 550.304 2.86918 7.17564 0
M  V30 5735 H 548.649 2.57388 6.45582 0
M  V30 5736 H 551.84 1.46083 4.44722 0
M  V30 5737 H 552.013 2.26075 6.07284 0
M  V30 5738 N 545.419 -1.53889 0.339982 0
M  V30 5739 C 546.665 -2.01152 -0.258003 0
M  V30 5740 C 546.998 -1.22749 -1.50487 0
M  V30 5741 O 546.273 -0.314156 -1.91946 0
M  V30 5742 C 546.556 -3.55468 -0.575717 0
M  V30 5743 C 546.409 -4.44584 0.682996 0
M  V30 5744 C 547.728 -4.1768 -1.38677 0
M  V30 5745 H 544.847 -0.731198 -0.0922992 0
M  V30 5746 H 547.489 -1.84352 0.459814 0
M  V30 5747 H 545.639 -3.69914 -1.18725 0
M  V30 5748 H 547.311 -4.41981 1.32102 0
M  V30 5749 H 545.554 -4.13592 1.3086 0
M  V30 5750 H 546.225 -5.5043 0.416001 0
M  V30 5751 H 548.701 -4.0691 -0.869705 0
M  V30 5752 H 547.577 -5.25734 -1.57783 0
M  V30 5753 H 547.838 -3.72069 -2.38782 0
M  V30 5754 N 546.897 -0.0685191 -1.57451 0
M  V30 5755 C 547.807 0.914677 -2.16034 0
M  V30 5756 C 548.823 1.32938 -1.12265 0
M  V30 5757 O 549.999 1.40275 -1.44516 0
M  V30 5758 C 547.064 2.16519 -2.70777 0
M  V30 5759 C 546.125 1.80721 -3.89408 0
M  V30 5760 C 545.358 2.9981 -4.41531 0
M  V30 5761 O 545.581 4.13727 -3.92666 0
M  V30 5762 O 544.515 2.79817 -5.32903 0
M  V30 5763 H 548.341 0.446364 -3.00402 0
M  V30 5764 H 545.926 0.154367 -1.486 0
M  V30 5765 H 547.808 2.89856 -3.05878 0
M  V30 5766 H 546.483 2.62454 -1.89471 0
M  V30 5767 H 545.39 1.04646 -3.59166 0
M  V30 5768 H 546.723 1.39571 -4.71997 0
M  V30 5769 N 548.375 1.56261 0.205012 0
M  V30 5770 C 549.323 1.94631 1.27364 0
M  V30 5771 C 550.317 0.830434 1.47649 0
M  V30 5772 O 551.523 1.01538 1.48627 0
M  V30 5773 H 547.898 0.618755 0.427371 0
M  V30 5774 H 549.869 2.83768 0.922941 0
M  V30 5775 C 548.618 2.29358 2.61324 0
M  V30 5776 H 547.941 3.14744 2.46528 0
M  V30 5777 H 549.381 2.60076 3.34868 0
M  V30 5778 C 547.84 1.12461 3.17575 0
M  V30 5779 O 548.37 0.394407 3.99759 0
M  V30 5780 N 546.576 0.904036 2.7618 0
M  V30 5781 H 546.123 1.49956 2.09454 0
M  V30 5782 H 546.081 0.123662 3.14157 0
M  V30 5783 N 549.853 -0.472356 1.50355 0
M  V30 5784 C 551.269 -0.806001 1.37753 0
M  V30 5785 C 551.469 -1.968 0.432649 0
M  V30 5786 O 550.525 -2.52189 -0.12519 0
M  V30 5787 C 551.838 -1.11926 2.79093 0
M  V30 5788 C 553.386 -1.22579 2.87999 0
M  V30 5789 C 553.861 -1.57218 4.3017 0
M  V30 5790 N 555.352 -1.64212 4.33115 0
M  V30 5791 C 556.087 -1.92517 5.40116 0
M  V30 5792 N 555.583 -2.1885 6.57325 0
M  V30 5793 N 557.376 -1.94008 5.27558 0
M  V30 5794 H 549.527 0.293451 2.10363 0
M  V30 5795 H 551.79 0.0687672 0.945503 0
M  V30 5796 H 551.496 -0.338504 3.50067 0
M  V30 5797 H 551.37 -2.05577 3.16256 0
M  V30 5798 H 553.757 -1.99722 2.17245 0
M  V30 5799 H 553.838 -0.269107 2.54381 0
M  V30 5800 H 553.482 -0.806154 5.01461 0
M  V30 5801 H 553.412 -2.54034 4.61275 0
M  V30 5802 H 555.903 -1.45906 3.48597 0
M  V30 5803 H 556.216 -2.39718 7.3468 0
M  V30 5804 H 554.561 -2.16245 6.60502 0
M  V30 5805 H 557.752 -1.72931 4.34986 0
M  V30 5806 H 557.925 -2.15731 6.11035 0
M  V30 5807 N 551.331 -1.39911 -0.725443 0
M  V30 5808 C 552.747 -1.21725 -1.03224 0
M  V30 5809 C 552.947 -0.0855224 -2.01318 0
M  V30 5810 O 552.003 0.55976 -2.46217 0
M  V30 5811 C 553.316 -2.55511 -1.58539 0
M  V30 5812 C 554.864 -2.62439 -1.70572 0
M  V30 5813 C 555.339 -3.9647 -2.29294 0
M  V30 5814 N 556.83 -3.98159 -2.36692 0
M  V30 5815 C 557.565 -4.98647 -2.83088 0
M  V30 5816 N 557.061 -6.0953 -3.2931 0
M  V30 5817 N 558.854 -4.8602 -2.82384 0
M  V30 5818 H 551.005 -2.12267 -0.075048 0
M  V30 5819 H 553.268 -0.943136 -0.0959066 0
M  V30 5820 H 552.974 -3.38926 -0.939249 0
M  V30 5821 H 552.848 -2.75905 -2.57208 0
M  V30 5822 H 555.235 -1.79401 -2.34306 0
M  V30 5823 H 555.316 -2.45885 -0.705297 0
M  V30 5824 H 554.96 -4.79942 -1.66186 0
M  V30 5825 H 554.89 -4.10349 -3.30032 0
M  V30 5826 H 557.381 -3.18085 -2.04035 0
M  V30 5827 H 557.694 -6.82106 -3.6325 0
M  V30 5828 H 556.039 -6.1311 -3.27294 0
M  V30 5829 H 559.23 -3.98493 -2.45603 0
M  V30 5830 H 559.403 -5.64478 -3.18226 0
M  V30 5831 N 552.809 0.956637 -1.25245 0
M  V30 5832 C 553.772 2.03457 -1.05537 0
M  V30 5833 C 554.772 1.60798 -0.00886317 0
M  V30 5834 O 555.962 1.72384 -0.250865 0
M  V30 5835 C 553.094 3.35543 -0.601965 0
M  V30 5836 H 554.287 2.22372 -2.01223 0
M  V30 5837 H 551.84 1.13344 -1.07623 0
M  V30 5838 H 552.575 3.22323 0.357584 0
M  V30 5839 H 552.36 3.67854 -1.35743 0
M  V30 5840 H 553.85 4.14769 -0.485454 0
M  V30 5841 N 554.287 1.06798 1.15896 0
M  V30 5842 C 555.534 0.787767 1.86549 0
M  V30 5843 C 555.862 -0.685959 1.82002 0
M  V30 5844 O 555.117 -1.5188 1.23414 0
M  V30 5845 C 555.416 1.23414 3.35416 0
M  V30 5846 C 555.082 2.71285 3.6016 0
M  V30 5847 C 553.744 3.11676 3.66622 0
M  V30 5848 C 556.096 3.6676 3.7032 0
M  V30 5849 C 553.424 4.4637 3.8075 0
M  V30 5850 C 555.776 5.01209 3.8597 0
M  V30 5851 C 554.44 5.41229 3.90676 0
M  V30 5852 H 553.71 0.288264 0.682631 0
M  V30 5853 H 556.357 1.338 1.37003 0
M  V30 5854 H 554.662 0.60319 3.87129 0
M  V30 5855 H 556.359 0.994298 3.88477 0
M  V30 5856 H 552.949 2.39015 3.55767 0
M  V30 5857 H 557.133 3.36685 3.64633 0
M  V30 5858 H 552.389 4.76855 3.82648 0
M  V30 5859 H 556.563 5.75067 3.92773 0
M  V30 5860 H 554.19 6.45602 4.01375 0
M  V30 5861 N 555.766 -1.3263 0.851289 0
M  V30 5862 C 556.696 -2.31449 0.308771 0
M  V30 5863 C 557.677 -1.59531 -0.590255 0
M  V30 5864 O 558.862 -1.87351 -0.511205 0
M  V30 5865 C 555.992 -3.43586 -0.506548 0
M  V30 5866 C 554.946 -4.26963 0.297753 0
M  V30 5867 C 554.272 -5.30831 -0.642094 0
M  V30 5868 C 555.572 -4.99643 1.52166 0
M  V30 5869 H 557.266 -2.77074 1.13447 0
M  V30 5870 H 554.812 -1.33207 0.546971 0
M  V30 5871 H 556.765 -4.11754 -0.896474 0
M  V30 5872 H 555.489 -2.96681 -1.36558 0
M  V30 5873 H 554.148 -3.60437 0.669391 0
M  V30 5874 H 553.796 -4.8018 -1.49788 0
M  V30 5875 H 553.496 -5.87501 -0.107968 0
M  V30 5876 H 555.02 -6.01862 -1.02927 0
M  V30 5877 H 556.434 -5.6051 1.20421 0
M  V30 5878 H 554.831 -5.66022 1.99347 0
M  V30 5879 H 555.901 -4.27701 2.28474 0
M  V30 5880 N 557.244 -0.608902 -1.45362 0
M  V30 5881 C 558.191 0.109172 -2.30542 0
M  V30 5882 C 559.161 0.858704 -1.42181 0
M  V30 5883 O 560.346 0.844178 -1.71109 0
M  V30 5884 C 557.486 1.09971 -3.27109 0
M  V30 5885 C 556.599 0.350911 -4.30572 0
M  V30 5886 C 555.734 1.33129 -5.14247 0
M  V30 5887 C 554.773 0.570377 -6.09437 0
M  V30 5888 N 553.91 1.5001 -6.85887 0
M  V30 5889 H 558.75 -0.623195 -2.91411 0
M  V30 5890 H 556.287 -0.319122 -1.43597 0
M  V30 5891 H 558.245 1.68714 -3.81564 0
M  V30 5892 H 556.875 1.79947 -2.67991 0
M  V30 5893 H 555.927 -0.352054 -3.78767 0
M  V30 5894 H 557.239 -0.242725 -4.98209 0
M  V30 5895 H 556.393 1.99074 -5.73109 0
M  V30 5896 H 555.132 1.95885 -4.46632 0
M  V30 5897 H 554.137 -0.102702 -5.49704 0
M  V30 5898 H 555.362 -0.0521607 -6.7908 0
M  V30 5899 H 553.308 2.11529 -6.2096 0
M  V30 5900 H 553.225 0.959934 -7.49881 0
M  V30 5901 H 554.493 2.14909 -7.49289 0
M  V30 5902 N 558.722 1.53707 -0.348139 0
M  V30 5903 C 559.652 2.28111 0.498766 0
M  V30 5904 C 560.633 1.29851 1.09876 0
M  V30 5905 O 561.818 1.587 1.11928 0
M  V30 5906 C 558.948 3.05735 1.64753 0
M  V30 5907 C 557.902 4.11537 1.17565 0
M  V30 5908 C 557.228 4.77142 2.4133 0
M  V30 5909 C 558.528 5.21587 0.272844 0
M  V30 5910 H 560.222 2.99152 -0.121934 0
M  V30 5911 H 557.768 1.43875 -0.0600842 0
M  V30 5912 H 559.721 3.56526 2.24649 0
M  V30 5913 H 558.445 2.32354 2.2952 0
M  V30 5914 H 557.104 3.61665 0.599483 0
M  V30 5915 H 556.752 4.0035 3.04514 0
M  V30 5916 H 556.452 5.48626 2.10436 0
M  V30 5917 H 557.976 5.30719 3.01943 0
M  V30 5918 H 559.39 5.67986 0.778779 0
M  V30 5919 H 557.787 6.00074 0.0555849 0
M  V30 5920 H 558.857 4.79969 -0.689785 0
M  V30 5921 N 560.2 0.0768682 1.57412 0
M  V30 5922 C 561.616 -0.279772 1.57129 0
M  V30 5923 C 561.816 -1.69688 1.08666 0
M  V30 5924 O 560.872 -2.40953 0.754843 0
M  V30 5925 C 562.185 -0.0848055 3.0058 0
M  V30 5926 C 563.733 -0.153954 3.12621 0
M  V30 5927 C 564.208 0.0127946 4.57998 0
M  V30 5928 N 565.699 -0.0426435 4.6318 0
M  V30 5929 C 566.434 0.0618892 5.73367 0
M  V30 5930 N 565.93 0.220229 6.9245 0
M  V30 5931 N 567.723 0.00446072 5.621 0
M  V30 5932 H 559.874 1.00297 1.87228 0
M  V30 5933 H 562.137 0.391565 0.863354 0
M  V30 5934 H 561.843 0.89325 3.40168 0
M  V30 5935 H 561.717 -0.834961 3.67843 0
M  V30 5936 H 564.104 -1.1225 2.72917 0
M  V30 5937 H 564.185 0.627389 2.47987 0
M  V30 5938 H 563.829 0.978128 4.98392 0
M  V30 5939 H 563.759 -0.788016 5.20671 0
M  V30 5940 H 566.25 -0.163226 3.77547 0
M  V30 5941 H 566.563 0.291999 7.72248 0
M  V30 5942 H 564.908 0.255658 6.9453 0
M  V30 5943 H 568.099 -0.117979 4.67951 0
M  V30 5944 H 568.272 0.0893796 6.47938 0
M  V30 5945 N 561.678 -1.56367 -0.196722 0
M  V30 5946 C 563.094 -1.49916 -0.54749 0
M  V30 5947 C 563.294 -0.77659 -1.85934 0
M  V30 5948 O 562.35 -0.32644 -2.50381 0
M  V30 5949 C 563.663 -2.94577 -0.603734 0
M  V30 5950 C 565.211 -3.05239 -0.692677 0
M  V30 5951 C 565.686 -4.51308 -0.780046 0
M  V30 5952 N 567.177 -4.55453 -0.843616 0
M  V30 5953 C 567.912 -5.65786 -0.931358 0
M  V30 5954 N 567.408 -6.85812 -0.981503 0
M  V30 5955 N 569.201 -5.53695 -0.968421 0
M  V30 5956 H 561.352 -2.01761 0.663803 0
M  V30 5957 H 563.615 -0.918094 0.236238 0
M  V30 5958 H 563.321 -3.50494 0.29105 0
M  V30 5959 H 563.195 -3.47841 -1.45898 0
M  V30 5960 H 565.582 -2.49372 -1.57789 0
M  V30 5961 H 565.663 -2.55103 0.188736 0
M  V30 5962 H 565.307 -5.078 0.100811 0
M  V30 5963 H 565.237 -4.99176 -1.67724 0
M  V30 5964 H 567.728 -3.69025 -0.814176 0
M  V30 5965 H 568.041 -7.65648 -1.04892 0
M  V30 5966 H 566.386 -6.88474 -0.950208 0
M  V30 5967 H 569.577 -4.58848 -0.926072 0
M  V30 5968 H 569.75 -6.39708 -1.03334 0
M  V30 5969 N 563.156 0.464375 -1.50603 0
M  V30 5970 C 564.088 1.57916 -1.66118 0
M  V30 5971 C 565.101 1.53497 -0.54246 0
M  V30 5972 O 566.29 1.58763 -0.815877 0
M  V30 5973 C 563.39 2.96809 -1.63577 0
M  V30 5974 C 562.563 3.26026 -2.91592 0
M  V30 5975 C 561.622 4.44506 -2.81604 0
M  V30 5976 O 560.648 4.44484 -3.55559 0
M  V30 5977 N 561.85 5.46549 -1.95614 0
M  V30 5978 H 564.615 1.45022 -2.62276 0
M  V30 5979 H 562.176 0.652903 -1.48151 0
M  V30 5980 H 564.168 3.74048 -1.54499 0
M  V30 5981 H 562.738 3.03438 -0.751262 0
M  V30 5982 H 561.958 2.37337 -3.14746 0
M  V30 5983 H 563.246 3.42361 -3.76386 0
M  V30 5984 H 562.644 5.49391 -1.34854 0
M  V30 5985 H 561.201 6.22746 -1.92435 0
M  V30 5986 N 564.634 1.40294 0.718013 0
M  V30 5987 C 565.566 1.36281 1.84283 0
M  V30 5988 C 566.579 0.268621 1.60569 0
M  V30 5989 O 567.768 0.528798 1.70487 0
M  V30 5990 C 564.868 1.09741 3.2064 0
M  V30 5991 C 564.041 2.30767 3.71571 0
M  V30 5992 C 563.1 2.00424 4.86535 0
M  V30 5993 O 562.126 2.73268 4.99313 0
M  V30 5994 N 563.328 0.980724 5.72156 0
M  V30 5995 H 566.093 2.3322 1.88225 0
M  V30 5996 H 563.654 1.34616 0.899453 0
M  V30 5997 H 565.646 0.874322 3.95143 0
M  V30 5998 H 564.216 0.214771 3.11861 0
M  V30 5999 H 563.436 2.68921 2.88228 0
M  V30 6000 H 564.724 3.11455 4.02335 0
M  V30 6001 H 564.122 0.377375 5.6444 0
M  V30 6002 H 562.679 0.817538 6.46653 0
M  V30 6003 N 566.112 -0.949982 1.2575 0
M  V30 6004 C 567.044 -2.05088 1.02331 0
M  V30 6005 C 568.057 -1.62795 -0.0133247 0
M  V30 6006 O 569.246 -1.77067 0.225759 0
M  V30 6007 C 566.346 -3.34794 0.525924 0
M  V30 6008 C 565.519 -4.05903 1.62978 0
M  V30 6009 C 564.578 -5.1388 1.13196 0
M  V30 6010 O 563.604 -5.39072 1.82729 0
M  V30 6011 N 564.806 -5.80495 -0.0242926 0
M  V30 6012 H 567.571 -2.25747 1.97125 0
M  V30 6013 H 565.132 -1.11886 1.17018 0
M  V30 6014 H 567.124 -4.04312 0.177263 0
M  V30 6015 H 565.694 -3.10872 -0.328202 0
M  V30 6016 H 564.914 -3.3042 2.1498 0
M  V30 6017 H 566.202 -4.50166 2.37124 0
M  V30 6018 H 565.6 -5.62454 -0.605184 0
M  V30 6019 H 564.157 -6.51043 -0.313947 0
M  V30 6020 N 567.59 -1.07411 -1.15328 0
M  V30 6021 C 568.839 -0.792643 -1.85473 0
M  V30 6022 C 569.152 0.683789 -1.83259 0
M  V30 6023 O 570.358 1.08005 -2.49093 0
M  V30 6024 C 568.814 -1.36787 -3.32892 0
M  V30 6025 C 568.422 -2.87536 -3.43551 0
M  V30 6026 C 570.166 -1.16444 -4.08217 0
M  V30 6027 C 568.073 -3.38247 -4.85122 0
M  V30 6028 H 567.003 -0.292838 -0.694811 0
M  V30 6029 H 569.654 -1.29426 -1.30082 0
M  V30 6030 H 568.036 -0.793993 -3.87958 0
M  V30 6031 H 569.21 -3.50973 -2.98588 0
M  V30 6032 H 567.525 -3.06676 -2.81672 0
M  V30 6033 H 570.122 -1.51808 -5.12697 0
M  V30 6034 H 570.465 -0.10353 -4.16171 0
M  V30 6035 H 570.998 -1.70472 -3.59422 0
M  V30 6036 H 567.737 -4.43866 -4.82351 0
M  V30 6037 H 567.257 -2.79564 -5.30664 0
M  V30 6038 H 568.936 -3.34238 -5.5398 0
M  V30 6039 N 569.068 1.32177 -0.85831 0
M  V30 6040 C 569.978 2.32561 -0.308606 0
M  V30 6041 C 570.994 1.64209 0.575462 0
M  V30 6042 O 572.17 1.95719 0.474961 0
M  V30 6043 C 569.235 3.43207 0.490909 0
M  V30 6044 C 568.296 4.27243 -0.419733 0
M  V30 6045 C 567.529 5.32605 0.341719 0
M  V30 6046 O 567.752 5.48332 1.57125 0
M  V30 6047 O 566.686 6.0118 -0.294379 0
M  V30 6048 H 570.512 2.81477 -1.14037 0
M  V30 6049 H 568.097 1.35866 -0.621349 0
M  V30 6050 H 569.979 4.10677 0.944574 0
M  V30 6051 H 568.654 2.96474 1.29941 0
M  V30 6052 H 567.561 3.62569 -0.921652 0
M  V30 6053 H 568.894 4.7751 -1.19352 0
M  V30 6054 N 570.547 0.616602 1.45037 0
M  V30 6055 C 571.963 0.280994 1.57107 0
M  V30 6056 C 572.163 -1.21627 1.60653 0
M  V30 6057 O 571.219 -1.9997 1.54169 0
M  V30 6058 C 572.532 0.960116 2.8496 0
M  V30 6059 C 574.08 0.936884 2.98649 0
M  V30 6060 C 574.555 1.59619 4.29285 0
M  V30 6061 N 576.046 1.5621 4.36065 0
M  V30 6062 C 576.781 2.04131 5.35834 0
M  V30 6063 N 576.277 2.60177 6.4209 0
M  V30 6064 N 578.07 1.94845 5.27249 0
M  V30 6065 H 570.221 1.58867 1.40979 0
M  V30 6066 H 572.484 0.666024 0.674623 0
M  V30 6067 H 572.19 2.01473 2.88273 0
M  V30 6068 H 572.064 0.488921 3.74018 0
M  V30 6069 H 574.451 -0.109209 2.94898 0
M  V30 6070 H 574.532 1.44643 2.10979 0
M  V30 6071 H 574.176 2.64166 4.33796 0
M  V30 6072 H 574.106 1.06159 5.15789 0
M  V30 6073 H 576.597 1.15276 3.59889 0
M  V30 6074 H 576.91 2.94513 7.1448 0
M  V30 6075 H 575.255 2.64221 6.42816 0
M  V30 6076 H 578.446 1.50792 4.43147 0
M  V30 6077 H 578.619 2.32504 6.04852 0
M  V30 6078 N 572.025 -1.5352 0.356285 0
M  V30 6079 C 572.935 -2.29151 -0.502712 0
M  V30 6080 C 573.951 -1.34753 -1.1008 0
M  V30 6081 O 575.127 -1.67803 -1.11374 0
M  V30 6082 C 572.192 -3.05911 -1.63154 0
M  V30 6083 C 571.253 -4.15958 -1.06194 0
M  V30 6084 C 570.486 -4.8905 -2.13696 0
M  V30 6085 O 570.709 -4.61919 -3.34645 0
M  V30 6086 O 569.643 -5.75202 -1.77275 0
M  V30 6087 H 573.469 -3.03492 0.112466 0
M  V30 6088 H 571.054 -1.4891 0.120942 0
M  V30 6089 H 572.936 -3.53874 -2.28804 0
M  V30 6090 H 571.611 -2.34415 -2.23229 0
M  V30 6091 H 570.518 -3.7227 -0.369603 0
M  V30 6092 H 571.851 -4.89593 -0.505872 0
M  V30 6093 N 573.503 -0.0852151 -1.57369 0
M  V30 6094 C 574.433 0.874556 -2.16503 0
M  V30 6095 C 575.414 1.30111 -1.09568 0
M  V30 6096 O 576.599 1.36977 -1.37662 0
M  V30 6097 C 573.729 2.13731 -2.73745 0
M  V30 6098 C 572.683 1.84971 -3.85966 0
M  V30 6099 C 572.009 3.17991 -4.29867 0
M  V30 6100 C 573.309 1.14442 -5.09608 0
M  V30 6101 H 575.003 0.381899 -2.96954 0
M  V30 6102 H 572.549 0.18225 -1.42842 0
M  V30 6103 H 574.502 2.81302 -3.13763 0
M  V30 6104 H 573.226 2.65263 -1.90534 0
M  V30 6105 H 571.885 1.19801 -3.46473 0
M  V30 6106 H 571.533 3.6739 -3.4356 0
M  V30 6107 H 571.233 2.99534 -5.05523 0
M  V30 6108 H 572.757 3.86737 -4.72511 0
M  V30 6109 H 574.171 1.72105 -5.46857 0
M  V30 6110 H 572.568 1.06197 -5.90629 0
M  V30 6111 H 573.638 0.12559 -4.84737 0
M  V30 6112 N 574.981 1.5647 0.188427 0
M  V30 6113 C 575.929 1.95971 1.25293 0
M  V30 6114 C 576.923 0.846047 1.4676 0
M  V30 6115 O 578.129 1.03109 1.47542 0
M  V30 6116 H 574.504 0.623253 0.420784 0
M  V30 6117 H 576.475 2.84731 0.892792 0
M  V30 6118 C 575.224 2.32116 2.58877 0
M  V30 6119 H 574.547 3.17341 2.43176 0
M  V30 6120 H 575.987 2.63613 3.3209 0
M  V30 6121 C 574.446 1.15823 3.16365 0
M  V30 6122 O 574.976 0.436785 3.99318 0
M  V30 6123 N 573.182 0.933278 2.75206 0
M  V30 6124 H 572.729 1.52169 2.07852 0
M  V30 6125 H 572.687 0.156976 3.14008 0
M  V30 6126 N 576.459 -0.456382 1.50847 0
M  V30 6127 C 577.707 -1.20497 1.62249 0
M  V30 6128 C 578.028 -1.92156 0.331839 0
M  V30 6129 O 577.298 -1.84751 -0.651443 0
M  V30 6130 H 575.878 -0.447775 0.597918 0
M  V30 6131 H 578.54 -0.525099 1.87693 0
M  V30 6132 H 577.636 -1.94492 2.44089 0
M  V30 6133 N 577.937 -1.40673 -0.710563 0
M  V30 6134 C 579.167 -1.4234 -1.49742 0
M  V30 6135 C 579.575 -0.022821 -1.89186 0
M  V30 6136 O 578.918 0.964773 -1.56326 0
M  V30 6137 C 578.98 -2.25509 -2.79975 0
M  V30 6138 C 578.644 -3.73862 -2.62824 0
M  V30 6139 C 579.641 -4.66379 -2.29752 0
M  V30 6140 C 577.326 -4.17735 -2.78932 0
M  V30 6141 C 579.32 -6.00756 -2.13006 0
M  V30 6142 C 577.007 -5.5218 -2.61802 0
M  V30 6143 C 578.005 -6.43505 -2.28888 0
M  V30 6144 O 577.693 -7.75472 -2.11894 0
M  V30 6145 H 577.425 -0.487311 -0.468513 0
M  V30 6146 H 579.979 -1.8542 -0.883668 0
M  V30 6147 H 578.209 -1.77218 -3.43701 0
M  V30 6148 H 579.898 -2.19058 -3.41714 0
M  V30 6149 H 580.664 -4.33778 -2.16936 0
M  V30 6150 H 576.543 -3.46967 -3.03537 0
M  V30 6151 H 580.087 -6.72003 -1.87237 0
M  V30 6152 H 575.984 -5.84365 -2.74204 0
M  V30 6153 H 576.752 -7.86458 -2.26775 0
M  V30 6154 N 579.415 0.9433 -1.26252 0
M  V30 6155 C 580.348 2.04162 -1.01946 0
M  V30 6156 C 581.326 1.62507 0.0550808 0
M  V30 6157 O 582.51 1.883 -0.0869025 0
M  V30 6158 C 579.637 3.34313 -0.54335 0
M  V30 6159 C 578.683 3.94939 -1.61013 0
M  V30 6160 S 579.516 4.29484 -3.19849 0
M  V30 6161 C 580.672 5.62738 -2.74001 0
M  V30 6162 H 580.905 2.24466 -1.94942 0
M  V30 6163 H 578.438 1.08441 -1.09909 0
M  V30 6164 H 580.396 4.09576 -0.275315 0
M  V30 6165 H 579.057 3.11957 0.36629 0
M  V30 6166 H 578.25 4.88812 -1.22795 0
M  V30 6167 H 577.852 3.26202 -1.82943 0
M  V30 6168 H 580.144 6.41356 -2.18333 0
M  V30 6169 H 581.087 6.05839 -3.66558 0
M  V30 6170 H 581.495 5.22514 -2.13634 0
M  V30 6171 N 580.893 1.08022 1.14757 0
M  V30 6172 C 581.803 0.718292 2.23333 0
M  V30 6173 C 582.819 -0.273477 1.71837 0
M  V30 6174 O 583.995 -0.118406 2.01052 0
M  V30 6175 C 581.06 0.128855 3.4646 0
M  V30 6176 C 580.121 1.17473 4.12915 0
M  V30 6177 C 579.354 0.61333 5.30164 0
M  V30 6178 O 579.577 -0.568458 5.6756 0
M  V30 6179 O 578.511 1.3615 5.86299 0
M  V30 6180 H 582.337 1.62394 2.56636 0
M  V30 6181 H 579.922 0.853628 1.22611 0
M  V30 6182 H 581.804 -0.197249 4.20938 0
M  V30 6183 H 580.479 -0.750014 3.14891 0
M  V30 6184 H 579.386 1.5533 3.40328 0
M  V30 6185 H 580.719 2.02574 4.48581 0
M  V30 6186 N 582.371 -1.3172 0.865308 0
M  V30 6187 C 583.617 -1.97559 0.483944 0
M  V30 6188 C 583.972 -1.67181 -0.95227 0
M  V30 6189 O 583.265 -0.955392 -1.66081 0
M  V30 6190 C 583.459 -3.5102 0.672283 0
M  V30 6191 C 583.288 -3.96312 2.12525 0
M  V30 6192 C 582.058 -4.22877 2.76591 0
M  V30 6193 C 584.256 -4.10596 3.09702 0
M  V30 6194 N 582.238 -4.5449 4.12689 0
M  V30 6195 C 583.609 -4.45867 4.30816 0
M  V30 6196 C 585.664 -3.92961 3.05755 0
M  V30 6197 C 584.367 -4.65344 5.48495 0
M  V30 6198 C 586.393 -4.13628 4.22688 0
M  V30 6199 C 585.755 -4.49227 5.42563 0
M  V30 6200 H 581.854 -0.74862 0.226035 0
M  V30 6201 H 584.438 -1.59336 1.11893 0
M  V30 6202 H 582.609 -3.88342 0.0669224 0
M  V30 6203 H 584.341 -4.03865 0.259765 0
M  V30 6204 H 581.096 -4.15343 2.27567 0
M  V30 6205 H 581.52 -4.74464 4.82921 0
M  V30 6206 H 586.162 -3.64531 2.14188 0
M  V30 6207 H 583.88 -4.92624 6.40584 0
M  V30 6208 H 587.466 -4.01474 4.21082 0
M  V30 6209 H 586.346 -4.64895 6.31539 0
M  V30 6210 N 583.85 -0.624285 -1.44708 0
M  V30 6211 C 585.099 -0.123539 -2.01321 0
M  V30 6212 C 585.412 1.25966 -1.49639 0
M  V30 6213 O 586.618 1.85405 -1.98336 0
M  V30 6214 C 585.074 -0.170124 -3.59498 0
M  V30 6215 C 584.682 -1.55421 -4.20176 0
M  V30 6216 C 586.426 0.274513 -4.23611 0
M  V30 6217 C 584.332 -1.55628 -5.70556 0
M  V30 6218 H 583.263 -0.0424183 -0.752806 0
M  V30 6219 H 585.913 -0.782076 -1.65999 0
M  V30 6220 H 584.296 0.555385 -3.92086 0
M  V30 6221 H 585.47 -2.30276 -3.99136 0
M  V30 6222 H 583.784 -1.94235 -3.68323 0
M  V30 6223 H 586.382 0.292402 -5.339 0
M  V30 6224 H 586.725 1.3005 -3.95465 0
M  V30 6225 H 587.258 -0.398275 -3.95801 0
M  V30 6226 H 583.997 -2.56041 -6.03426 0
M  V30 6227 H 583.517 -0.850563 -5.93739 0
M  V30 6228 H 585.196 -1.28721 -6.34066 0
M  V30 6229 N 585.328 1.53329 -0.364422 0
M  V30 6230 C 586.553 2.06132 0.229033 0
M  V30 6231 C 586.978 1.23625 1.41769 0
M  V30 6232 O 586.336 0.255038 1.79497 0
M  V30 6233 C 586.384 3.55544 0.60174 0
M  V30 6234 O 585.488 3.75771 1.69912 0
M  V30 6235 H 584.829 0.663148 0.0336213 0
M  V30 6236 H 587.359 1.97758 -0.524689 0
M  V30 6237 H 587.369 3.98549 0.873073 0
M  V30 6238 H 586.044 4.15039 -0.267421 0
M  V30 6239 H 584.621 3.44663 1.42343 0
M  V30 6240 N 586.806 0.0935595 1.57322 0
M  V30 6241 C 587.753 -0.865935 2.1394 0
M  V30 6242 C 588.723 -1.28083 1.05754 0
M  V30 6243 O 589.908 -1.36285 1.33533 0
M  V30 6244 C 587.048 -2.12023 2.72287 0
M  V30 6245 C 586.161 -1.756 3.94701 0
M  V30 6246 C 585.296 -2.95804 4.41218 0
M  V30 6247 C 584.335 -2.555 5.56225 0
M  V30 6248 N 583.472 -3.68534 5.97601 0
M  V30 6249 H 588.312 -0.376261 2.95615 0
M  V30 6250 H 585.849 -0.174052 1.46067 0
M  V30 6251 H 587.807 -2.85477 3.04235 0
M  V30 6252 H 586.437 -2.58492 1.93343 0
M  V30 6253 H 585.489 -0.921208 3.69077 0
M  V30 6254 H 586.801 -1.41964 4.78171 0
M  V30 6255 H 585.955 -3.77513 4.74941 0
M  V30 6256 H 584.694 -3.32649 3.56645 0
M  V30 6257 H 583.699 -1.72218 5.22131 0
M  V30 6258 H 584.924 -2.19801 6.42545 0
M  V30 6259 H 582.87 -4.051 5.15974 0
M  V30 6260 H 582.787 -3.38737 6.75865 0
M  V30 6261 H 584.055 -4.50757 6.35955 0
M  V30 6262 N 588.284 -1.56567 -0.180126 0
M  V30 6263 C 589.247 -1.94852 -1.20686 0
M  V30 6264 C 590.247 -0.831212 -1.3765 0
M  V30 6265 O 591.437 -1.09841 -1.35206 0
M  V30 6266 C 588.569 -2.23565 -2.57355 0
M  V30 6267 H 589.762 -2.86722 -0.879225 0
M  V30 6268 H 587.315 -1.50489 -0.422237 0
M  V30 6269 H 588.05 -1.34381 -2.95148 0
M  V30 6270 H 587.835 -3.04999 -2.46411 0
M  V30 6271 H 589.325 -2.54137 -3.31367 0
M  V30 6272 N 589.762 0.448376 -1.51087 0
M  V30 6273 C 590.672 1.56882 -1.74428 0
M  V30 6274 C 591.688 1.62268 -0.62809 0
M  V30 6275 O 592.864 1.79716 -0.909075 0
M  V30 6276 C 589.929 2.92947 -1.85426 0
M  V30 6277 C 588.99 2.97766 -3.09247 0
M  V30 6278 C 588.223 4.27341 -3.19711 0
M  V30 6279 O 588.446 5.19112 -2.36387 0
M  V30 6280 O 587.38 4.38219 -4.12611 0
M  V30 6281 H 591.206 1.40104 -2.69452 0
M  V30 6282 H 588.791 0.630247 -1.35456 0
M  V30 6283 H 590.673 3.73719 -1.94709 0
M  V30 6284 H 589.348 3.09876 -0.935887 0
M  V30 6285 H 588.255 2.15989 -3.0545 0
M  V30 6286 H 589.588 2.8578 -4.00738 0
M  V30 6287 N 591.24 1.41047 0.703093 0
M  V30 6288 C 592.15 1.44645 1.84703 0
M  V30 6289 C 593.166 0.337778 1.7069 0
M  V30 6290 O 594.342 0.584327 1.92737 0
M  V30 6291 C 591.407 1.31928 3.20618 0
M  V30 6292 C 590.468 2.53047 3.46794 0
M  V30 6293 C 589.701 2.40927 4.76224 0
M  V30 6294 O 589.924 1.42978 5.5219 0
M  V30 6295 O 588.858 3.30543 5.03016 0
M  V30 6296 H 592.684 2.41139 1.84624 0
M  V30 6297 H 590.269 1.22504 0.855167 0
M  V30 6298 H 592.151 1.27092 4.01778 0
M  V30 6299 H 590.826 0.385469 3.21397 0
M  V30 6300 H 589.733 2.6346 2.65593 0
M  V30 6301 H 591.066 3.45231 3.50822 0
M  V30 6302 N 592.718 -0.936591 1.26751 0
M  V30 6303 C 593.964 -1.6858 1.12733 0
M  V30 6304 C 594.297 -1.91414 -0.327745 0
M  V30 6305 O 593.572 -1.49812 -1.24043 0
M  V30 6306 C 593.855 -3.05779 1.90187 0
M  V30 6307 C 593.708 -2.90242 3.43627 0
M  V30 6308 C 595.027 -4.0597 1.69931 0
M  V30 6309 H 592.146 -0.61182 0.410908 0
M  V30 6310 H 594.788 -1.08747 1.55801 0
M  V30 6311 H 592.938 -3.56853 1.53584 0
M  V30 6312 H 594.61 -2.46354 3.9001 0
M  V30 6313 H 592.853 -2.2577 3.70419 0
M  V30 6314 H 593.524 -3.87572 3.93055 0
M  V30 6315 H 596 -3.63874 2.0183 0
M  V30 6316 H 594.876 -4.99974 2.26534 0
M  V30 6317 H 595.137 -4.37369 0.64502 0
M  V30 6318 N 594.196 -1.08629 -1.14182 0
M  V30 6319 C 595.445 -0.812271 -1.84621 0
M  V30 6320 C 595.758 0.664313 -1.83973 0
M  V30 6321 O 596.964 1.05357 -2.50224 0
M  V30 6322 C 595.42 -1.4031 -3.31423 0
M  V30 6323 C 595.028 -2.91164 -3.40481 0
M  V30 6324 C 596.772 -1.20767 -4.06959 0
M  V30 6325 C 594.679 -3.43373 -4.81507 0
M  V30 6326 H 593.609 -0.30019 -0.691666 0
M  V30 6327 H 596.26 -1.30798 -1.28701 0
M  V30 6328 H 594.642 -0.835096 -3.87094 0
M  V30 6329 H 595.816 -3.5412 -2.94848 0
M  V30 6330 H 594.131 -3.09646 -2.78403 0
M  V30 6331 H 596.728 -1.57237 -5.11058 0
M  V30 6332 H 597.071 -0.147664 -4.16038 0
M  V30 6333 H 597.604 -1.74274 -3.57594 0
M  V30 6334 H 594.343 -4.48958 -4.77616 0
M  V30 6335 H 593.863 -2.85176 -5.27669 0
M  V30 6336 H 595.542 -3.40095 -5.50404 0
M  V30 6337 N 595.674 1.31259 -0.872281 0
M  V30 6338 C 596.604 2.30929 -0.345554 0
M  V30 6339 C 597.585 1.60449 0.5648 0
M  V30 6340 O 598.77 1.8814 0.481335 0
M  V30 6341 C 595.9 3.44348 0.451823 0
M  V30 6342 C 594.854 4.26435 -0.365641 0
M  V30 6343 C 594.18 5.31785 0.557562 0
M  V30 6344 C 595.48 4.97159 -1.60095 0
M  V30 6345 H 597.174 2.75234 -1.17841 0
M  V30 6346 H 594.72 1.3232 -0.568094 0
M  V30 6347 H 596.673 4.13128 0.830854 0
M  V30 6348 H 595.397 2.98816 1.31821 0
M  V30 6349 H 594.056 3.59326 -0.726649 0
M  V30 6350 H 593.704 4.82502 1.4213 0
M  V30 6351 H 593.404 5.87598 0.0144878 0
M  V30 6352 H 594.928 6.03424 0.933387 0
M  V30 6353 H 596.342 5.58523 -1.29323 0
M  V30 6354 H 594.739 5.62779 -2.08327 0
M  V30 6355 H 595.809 4.24012 -2.35249 0
M  V30 6356 N 597.152 0.631951 1.44375 0
M  V30 6357 C 598.115 -0.0628142 2.29114 0
M  V30 6358 C 599.115 -0.771494 1.41084 0
M  V30 6359 O 600.305 -0.615959 1.62947 0
M  V30 6360 C 597.437 -1.09953 3.22681 0
M  V30 6361 H 598.63 0.682509 2.92031 0
M  V30 6362 H 596.183 0.392128 1.51301 0
M  V30 6363 H 596.918 -1.87481 2.64616 0
M  V30 6364 H 596.703 -0.595286 3.87555 0
M  V30 6365 H 598.193 -1.58538 3.86336 0
M  V30 6366 N 598.631 -1.53133 0.372548 0
M  V30 6367 C 599.541 -2.29671 -0.478379 0
M  V30 6368 C 600.557 -1.35913 -1.08644 0
M  V30 6369 O 601.733 -1.68975 -1.09588 0
M  V30 6370 C 598.798 -3.07625 -1.599 0
M  V30 6371 C 597.859 -4.17061 -1.01776 0
M  V30 6372 C 597.092 -4.91289 -2.08497 0
M  V30 6373 O 597.315 -4.65442 -3.29727 0
M  V30 6374 O 596.249 -5.7705 -1.71164 0
M  V30 6375 H 600.075 -3.03355 0.144649 0
M  V30 6376 H 597.66 -1.48773 0.136729 0
M  V30 6377 H 599.542 -3.56281 -2.25038 0
M  V30 6378 H 598.217 -2.3677 -2.2073 0
M  V30 6379 H 597.124 -3.72641 -0.330098 0
M  V30 6380 H 598.457 -4.90102 -0.453915 0
M  V30 6381 N 600.109 -0.101901 -1.5727 0
M  V30 6382 C 601.386 0.602832 -1.86079 0
M  V30 6383 C 601.766 1.85912 -1 0
M  V30 6384 O 601.114 2.28379 -0.0742488 0
M  V30 6385 C 601.324 0.911694 -3.36881 0
M  V30 6386 C 602.672 1.2722 -4.05093 0
M  V30 6387 O 603.696 1.0025 -3.41802 0
M  V30 6388 O 602.555 1.7776 -5.16782 0
M  V30 6389 H 599.649 0.302366 -0.769743 0
M  V30 6390 H 602.195 -0.135113 -1.69161 0
M  V30 6391 H 600.967 0.0207256 -3.91295 0
M  V30 6392 H 600.59 1.70538 -3.59169 0
M  V30 6393 N 601.587 1.56661 0.17182 0
M  V30 6394 C 602.497 1.99604 1.2327 0
M  V30 6395 C 603.513 0.907333 1.4847 0
M  V30 6396 O 604.689 1.21492 1.60629 0
M  V30 6397 C 601.754 2.34685 2.55194 0
M  V30 6398 C 600.815 3.57381 2.3786 0
M  V30 6399 C 600.048 3.90779 3.63494 0
M  V30 6400 O 600.271 3.25152 4.6865 0
M  V30 6401 O 599.205 4.84129 3.57634 0
M  V30 6402 H 603.031 2.90114 0.898192 0
M  V30 6403 H 600.616 1.44522 0.378647 0
M  V30 6404 H 602.498 2.5822 3.33017 0
M  V30 6405 H 601.173 1.47336 2.88225 0
M  V30 6406 H 600.08 3.39064 1.5807 0
M  V30 6407 H 601.413 4.45268 2.09754 0
M  V30 6408 N 603.065 -0.440357 1.51323 0
M  V30 6409 C 604.293 -1.21255 1.67645 0
M  V30 6410 C 604.708 -1.85088 0.37252 0
M  V30 6411 O 604.065 -1.70582 -0.648683 0
M  V30 6412 C 604.116 -2.29881 2.78993 0
M  V30 6413 O 603.837 -1.68659 4.04334 0
M  V30 6414 C 605.338 -3.20214 3.06558 0
M  V30 6415 H 602.558 -0.36558 0.562666 0
M  V30 6416 H 605.102 -0.52214 1.97722 0
M  V30 6417 H 603.257 -2.94643 2.51524 0
M  V30 6418 H 603.671 -2.40426 4.6615 0
M  V30 6419 H 605.145 -3.92575 3.88058 0
M  V30 6420 H 605.622 -3.80794 2.18844 0
M  V30 6421 H 606.228 -2.61156 3.35675 0
M  V30 6422 N 604.543 -1.41418 -0.695603 0
M  V30 6423 C 605.82 -1.31264 -1.45014 0
M  V30 6424 C 606.2 0.0597994 -2.11015 0
M  V30 6425 O 605.548 1.07403 -2.01685 0
M  V30 6426 C 605.758 -2.466 -2.4696 0
M  V30 6427 C 607.106 -2.87763 -3.12214 0
M  V30 6428 O 608.13 -2.46339 -2.57285 0
M  V30 6429 O 606.989 -3.59395 -4.11701 0
M  V30 6430 H 604.083 -0.516576 -0.645816 0
M  V30 6431 H 606.629 -1.53382 -0.726084 0
M  V30 6432 H 605.401 -3.38183 -1.96845 0
M  V30 6433 H 605.024 -2.26358 -3.26876 0
M  V30 6434 N 606.021 0.929856 -1.27246 0
M  V30 6435 C 607.269 1.674 -1.13233 0
M  V30 6436 C 607.59 1.92311 0.322744 0
M  V30 6437 O 606.86 1.52784 1.22612 0
M  V30 6438 H 605.44 0.620411 -0.416052 0
M  V30 6439 H 608.102 1.11663 -1.59741 0
M  V30 6440 H 607.198 2.64308 -1.65975 0
M  V30 6441 N 607.499 1.09233 1.13605 0
M  V30 6442 C 608.409 0.741939 2.22559 0
M  V30 6443 C 609.425 -0.255236 1.72118 0
M  V30 6444 O 610.601 -0.0970747 2.01166 0
M  V30 6445 C 607.666 0.165595 3.46304 0
M  V30 6446 C 606.727 1.21846 4.11645 0
M  V30 6447 C 605.96 0.669526 5.29484 0
M  V30 6448 O 606.183 -0.508228 5.68131 0
M  V30 6449 O 605.117 1.42361 5.84822 0
M  V30 6450 H 608.943 1.65107 2.54899 0
M  V30 6451 H 606.528 0.866584 1.21699 0
M  V30 6452 H 608.41 -0.152592 4.21124 0
M  V30 6453 H 607.085 -0.716573 3.15669 0
M  V30 6454 H 605.992 1.58931 3.38662 0
M  V30 6455 H 607.325 2.07321 4.46407 0
M  V30 6456 N 608.977 -1.30795 0.87923 0
M  V30 6457 C 609.909 -2.27241 0.299025 0
M  V30 6458 C 610.922 -1.53472 -0.543166 0
M  V30 6459 O 612.111 -1.74756 -0.363651 0
M  V30 6460 C 609.211 -3.33655 -0.593931 0
M  V30 6461 C 608.384 -4.36857 0.2179 0
M  V30 6462 C 607.443 -5.22715 -0.604646 0
M  V30 6463 O 606.469 -5.69192 -0.0293838 0
M  V30 6464 N 607.671 -5.48008 -1.91488 0
M  V30 6465 H 610.436 -2.77667 1.12788 0
M  V30 6466 H 607.997 -1.43914 0.741637 0
M  V30 6467 H 609.989 -3.88013 -1.15012 0
M  V30 6468 H 608.559 -2.83202 -1.32346 0
M  V30 6469 H 607.779 -3.82444 0.955536 0
M  V30 6470 H 609.067 -5.02869 0.774614 0
M  V30 6471 H 608.465 -5.1202 -2.40525 0
M  V30 6472 H 607.022 -6.05264 -2.41864 0
M  V30 6473 N 610.455 -0.639598 -1.44038 0
M  V30 6474 C 611.871 -0.305953 -1.5664 0
M  V30 6475 C 612.071 1.19055 -1.62567 0
M  V30 6476 O 611.127 1.97492 -1.57331 0
M  V30 6477 C 612.44 -1.00533 -2.83397 0
M  V30 6478 C 613.988 -0.984278 -2.97121 0
M  V30 6479 C 614.463 -1.66428 -4.26691 0
M  V30 6480 N 615.954 -1.63127 -4.33525 0
M  V30 6481 C 616.689 -2.12629 -5.32519 0
M  V30 6482 N 616.185 -2.70359 -6.3787 0
M  V30 6483 N 617.978 -2.03208 -5.24083 0
M  V30 6484 H 610.129 -1.6109 -1.38434 0
M  V30 6485 H 612.392 -0.676672 -0.663942 0
M  V30 6486 H 612.098 -2.06034 -2.85032 0
M  V30 6487 H 611.972 -0.548362 -3.73193 0
M  V30 6488 H 614.359 0.0622792 -2.95034 0
M  V30 6489 H 614.44 -1.47981 -2.08651 0
M  V30 6490 H 614.084 -2.71034 -4.29538 0
M  V30 6491 H 614.014 -1.14351 -5.14034 0
M  V30 6492 H 616.505 -1.20987 -3.58009 0
M  V30 6493 H 616.818 -3.05842 -7.09704 0
M  V30 6494 H 615.163 -2.74414 -6.38531 0
M  V30 6495 H 618.354 -1.57823 -4.40692 0
M  V30 6496 H 618.527 -2.42097 -6.01077 0
M  V30 6497 N 611.933 1.52934 -0.380664 0
M  V30 6498 C 612.883 2.22989 0.475399 0
M  V30 6499 C 613.867 1.23058 1.03661 0
M  V30 6500 O 615.059 1.48436 0.964146 0
M  V30 6501 C 612.188 3.0338 1.60671 0
M  V30 6502 C 611.274 4.107 1.05766 0
M  V30 6503 N 611.665 5.05264 0.232837 0
M  V30 6504 C 609.963 4.25676 1.33101 0
M  V30 6505 C 610.664 5.81658 -0.0695134 0
M  V30 6506 N 609.64 5.40989 0.532144 0
M  V30 6507 H 613.442 2.93456 -0.161418 0
M  V30 6508 H 610.956 1.61291 -0.189495 0
M  V30 6509 H 612.953 3.52098 2.23232 0
M  V30 6510 H 611.613 2.34446 2.24644 0
M  V30 6511 H 612.624 5.17739 -0.129204 0
M  V30 6512 H 609.301 3.6797 1.97241 0
M  V30 6513 H 610.691 6.67843 -0.737269 0
M  V30 6514 N 613.412 0.11024 1.57214 0
M  V30 6515 C 614.823 -0.416527 1.81994 0
M  V30 6516 C 615.174 -1.67183 1.02686 0
M  V30 6517 O 614.299 -2.14823 0.260782 0
M  V30 6518 C 614.894 -0.762466 3.30109 0
M  V30 6519 C 613.453 -1.23391 3.556 0
M  V30 6520 C 612.6 -0.238166 2.76275 0
M  V30 6521 H 615.551 0.335491 1.55113 0
M  V30 6522 H 615.572 -1.62068 3.44259 0
M  V30 6523 H 615.084 0.151346 3.87805 0
M  V30 6524 H 613.185 -2.16492 3.03253 0
M  V30 6525 H 613.298 -1.18528 4.64207 0
M  V30 6526 H 611.662 -0.723421 2.4421 0
M  V30 6527 H 612.445 0.668591 3.36727 0
M  V30 6528 N 614.89 -1.56749 -0.16351 0
M  V30 6529 C 616.137 -1.82434 -0.878866 0
M  V30 6530 C 616.465 -0.688557 -1.81904 0
M  V30 6531 O 615.72 0.323644 -1.93005 0
M  V30 6532 C 616.019 -3.14342 -1.70071 0
M  V30 6533 C 615.685 -4.41647 -0.908775 0
M  V30 6534 C 614.347 -4.76224 -0.690236 0
M  V30 6535 C 616.699 -5.19998 -0.353815 0
M  V30 6536 C 614.027 -5.86624 0.0942374 0
M  V30 6537 C 616.379 -6.3122 0.41761 0
M  V30 6538 C 615.043 -6.64358 0.646879 0
M  V30 6539 H 614.313 -0.667574 -0.3216 0
M  V30 6540 H 616.96 -1.90963 -0.14337 0
M  V30 6541 H 615.265 -3.0119 -2.50583 0
M  V30 6542 H 616.962 -3.31426 -2.25738 0
M  V30 6543 H 613.552 -4.1453 -1.08916 0
M  V30 6544 H 617.736 -4.93673 -0.509975 0
M  V30 6545 H 612.992 -6.10751 0.281529 0
M  V30 6546 H 617.166 -6.91133 0.854849 0
M  V30 6547 H 614.793 -7.49742 1.25662 0
M  V30 6548 N 616.368 0.432326 -1.51554 0
M  V30 6549 C 617.645 1.19288 -1.55015 0
M  V30 6550 C 618.025 2.08701 -0.317375 0
M  V30 6551 O 617.373 2.17602 0.697243 0
M  V30 6552 C 617.583 1.99037 -2.86679 0
M  V30 6553 C 618.931 2.55907 -3.38817 0
M  V30 6554 O 619.955 2.09243 -2.88263 0
M  V30 6555 O 618.814 3.41029 -4.27038 0
M  V30 6556 H 615.908 0.543369 -0.623441 0
M  V30 6557 H 618.454 0.440988 -1.6387 0
M  V30 6558 H 617.226 1.33397 -3.6786 0
M  V30 6559 H 616.849 2.81281 -2.8101 0
M  V30 6560 N 617.846 1.41785 0.688094 0
M  V30 6561 C 619.094 1.41264 1.4453 0
M  V30 6562 C 619.415 0.0252946 1.94984 0
M  V30 6563 O 618.685 -0.934081 1.72197 0
M  V30 6564 H 617.265 0.519998 0.536294 0
M  V30 6565 H 619.927 1.7709 0.813941 0
M  V30 6566 H 619.023 2.10439 2.30482 0
M  V30 6567 N 619.324 -0.923095 1.27737 0
M  V30 6568 C 620.287 -2.00587 1.10894 0
M  V30 6569 C 621.287 -1.60718 0.0514927 0
M  V30 6570 O 622.477 -1.71658 0.296481 0
M  V30 6571 C 619.609 -3.33829 0.690717 0
M  V30 6572 H 620.802 -2.16959 2.07048 0
M  V30 6573 H 618.355 -1.10451 1.1059 0
M  V30 6574 H 619.09 -3.23157 -0.272 0
M  V30 6575 H 618.875 -3.64125 1.45448 0
M  V30 6576 H 620.365 -4.13336 0.595252 0
M  V30 6577 N 620.802 -1.09834 -1.13024 0
M  V30 6578 C 621.732 -0.763451 -2.20666 0
M  V30 6579 C 622.713 0.260778 -1.68089 0
M  V30 6580 O 623.898 0.127915 -1.93778 0
M  V30 6581 C 621.028 -0.187744 -3.46792 0
M  V30 6582 C 619.982 -1.14196 -4.12484 0
M  V30 6583 C 619.308 -0.427755 -5.32986 0
M  V30 6584 C 620.608 -2.48607 -4.59338 0
M  V30 6585 H 622.302 -1.66347 -2.48936 0
M  V30 6586 H 619.848 -0.801261 -1.19649 0
M  V30 6587 H 621.801 0.0586375 -4.21359 0
M  V30 6588 H 620.525 0.747485 -3.17931 0
M  V30 6589 H 619.184 -1.37369 -3.3989 0
M  V30 6590 H 618.832 0.511747 -5.0039 0
M  V30 6591 H 618.532 -1.06403 -5.77886 0
M  V30 6592 H 620.056 -0.189772 -6.10305 0
M  V30 6593 H 621.47 -2.29618 -5.25308 0
M  V30 6594 H 619.867 -3.08062 -5.14993 0
M  V30 6595 H 620.937 -3.09062 -3.73642 0
M  V30 6596 N 622.28 1.30327 -0.886154 0
M  V30 6597 C 623.696 1.48676 -0.580323 0
M  V30 6598 C 623.896 1.81189 0.881639 0
M  V30 6599 O 622.952 1.90021 1.66278 0
M  V30 6600 C 624.265 2.60932 -1.49449 0
M  V30 6601 C 625.813 2.74812 -1.49824 0
M  V30 6602 C 626.288 3.90183 -2.39836 0
M  V30 6603 N 627.779 3.97495 -2.37806 0
M  V30 6604 C 628.514 4.86078 -3.04165 0
M  V30 6605 N 628.01 5.79448 -3.79753 0
M  V30 6606 N 629.803 4.79456 -2.93391 0
M  V30 6607 H 621.954 1.07495 -1.8319 0
M  V30 6608 H 624.217 0.532661 -0.784204 0
M  V30 6609 H 623.923 2.43731 -2.5355 0
M  V30 6610 H 623.797 3.57437 -1.20494 0
M  V30 6611 H 626.184 2.91418 -0.464731 0
M  V30 6612 H 626.265 1.78924 -1.82811 0
M  V30 6613 H 625.909 3.74334 -3.43273 0
M  V30 6614 H 625.839 4.85411 -2.04166 0
M  V30 6615 H 628.33 3.30703 -1.82877 0
M  V30 6616 H 628.643 6.43805 -4.27475 0
M  V30 6617 H 626.988 5.79376 -3.8386 0
M  V30 6618 H 630.179 4.05494 -2.33864 0
M  V30 6619 H 630.352 5.48283 -3.45383 0
M  V30 6620 N 623.758 0.647228 1.43697 0
M  V30 6621 C 625.174 0.314256 1.56476 0
M  V30 6622 C 625.374 -1.18191 1.63196 0
M  V30 6623 O 624.43 -1.96655 1.58376 0
M  V30 6624 C 625.743 1.02034 2.82859 0
M  V30 6625 C 627.291 1.00002 2.96595 0
M  V30 6626 C 627.766 1.68689 4.25803 0
M  V30 6627 N 629.257 1.65424 4.32654 0
M  V30 6628 C 629.992 2.1545 5.31384 0
M  V30 6629 N 629.488 2.73738 6.36427 0
M  V30 6630 N 631.281 2.05985 5.22998 0
M  V30 6631 H 623.432 1.61821 1.37578 0
M  V30 6632 H 625.695 0.680184 0.660344 0
M  V30 6633 H 625.401 2.07542 2.83935 0
M  V30 6634 H 625.275 0.568146 3.72897 0
M  V30 6635 H 627.662 -0.0466319 2.95063 0
M  V30 6636 H 627.743 1.49086 2.07863 0
M  V30 6637 H 627.387 2.73308 4.28095 0
M  V30 6638 H 627.317 1.17076 5.13421 0
M  V30 6639 H 629.808 1.22884 3.57363 0
M  V30 6640 H 630.121 3.09602 7.08072 0
M  V30 6641 H 628.466 2.77796 6.37067 0
M  V30 6642 H 631.657 1.60157 4.39849 0
M  V30 6643 H 631.83 2.45281 5.99784 0
M  V30 6644 N 625.236 -1.5273 0.388769 0
M  V30 6645 C 626.464 -2.05992 -0.193677 0
M  V30 6646 C 626.879 -1.26053 -1.40557 0
M  V30 6647 O 626.236 -0.307049 -1.79898 0
M  V30 6648 C 626.287 -3.57068 -0.564321 0
M  V30 6649 O 626.008 -4.3398 0.599422 0
M  V30 6650 C 627.509 -4.26674 -1.20269 0
M  V30 6651 H 624.729 -0.670358 -0.0293445 0
M  V30 6652 H 627.273 -1.96857 0.553844 0
M  V30 6653 H 625.428 -3.66277 -1.26174 0
M  V30 6654 H 625.842 -5.2367 0.294895 0
M  V30 6655 H 627.316 -5.33625 -1.4124 0
M  V30 6656 H 627.793 -3.81854 -2.16989 0
M  V30 6657 H 628.399 -4.2178 -0.546047 0
M  V30 6658 N 626.714 -0.118576 -1.57153 0
M  V30 6659 C 627.942 0.54726 -1.99531 0
M  V30 6660 C 628.357 1.60251 -0.998246 0
M  V30 6661 O 627.714 1.82498 0.00893106 0
M  V30 6662 C 627.765 1.17378 -3.41913 0
M  V30 6663 O 627.486 0.160703 -4.37805 0
M  V30 6664 C 628.987 1.92297 -3.9942 0
M  V30 6665 H 626.207 0.144919 -0.655164 0
M  V30 6666 H 628.751 -0.20479 -2.03472 0
M  V30 6667 H 626.906 1.87661 -3.38913 0
M  V30 6668 H 627.32 0.61586 -5.20872 0
M  V30 6669 H 628.794 2.31462 -5.01128 0
M  V30 6670 H 629.271 2.79801 -3.38538 0
M  V30 6671 H 629.877 1.26777 -4.05965 0
M  V30 6672 N 628.193 1.56834 0.155195 0
M  V30 6673 C 629.442 1.82088 0.867567 0
M  V30 6674 C 629.755 0.69849 1.82703 0
M  V30 6675 O 630.961 0.836407 2.58295 0
M  V30 6676 C 629.417 3.22707 1.59336 0
M  V30 6677 C 629.025 4.42859 0.676719 0
M  V30 6678 C 630.769 3.57242 2.293 0
M  V30 6679 C 628.676 5.74501 1.40367 0
M  V30 6680 H 627.606 0.679057 0.327715 0
M  V30 6681 H 630.257 1.83105 0.120351 0
M  V30 6682 H 628.639 3.16054 2.38591 0
M  V30 6683 H 629.813 4.60731 -0.0800196 0
M  V30 6684 H 628.128 4.16311 0.0859129 0
M  V30 6685 H 630.725 4.52847 2.84312 0
M  V30 6686 H 631.068 2.82901 3.05406 0
M  V30 6687 H 631.601 3.6552 1.56972 0
M  V30 6688 H 628.34 6.51915 0.684623 0
M  V30 6689 H 627.86 5.60579 2.13332 0
M  V30 6690 H 629.539 6.17016 1.94681 0
M  V30 6691 N 629.671 -0.424282 1.51781 0
M  V30 6692 C 630.618 -1.51591 1.74037 0
M  V30 6693 C 631.588 -1.55556 0.582358 0
M  V30 6694 O 632.773 -1.72364 0.818245 0
M  V30 6695 C 629.913 -2.89188 1.8832 0
M  V30 6696 C 629.026 -2.9465 3.1592 0
M  V30 6697 C 628.161 -4.23452 3.20721 0
M  V30 6698 C 627.2 -4.22831 4.42584 0
M  V30 6699 N 626.337 -5.43178 4.44862 0
M  V30 6700 H 631.177 -1.31917 2.67212 0
M  V30 6701 H 628.714 -0.640599 1.32419 0
M  V30 6702 H 630.672 -3.69044 1.94583 0
M  V30 6703 H 629.302 -3.07392 0.985402 0
M  V30 6704 H 628.354 -2.07378 3.18902 0
M  V30 6705 H 629.666 -2.90055 4.05795 0
M  V30 6706 H 628.82 -5.1169 3.25973 0
M  V30 6707 H 627.559 -4.30722 2.28757 0
M  V30 6708 H 626.564 -3.32984 4.37495 0
M  V30 6709 H 627.789 -4.17213 5.35826 0
M  V30 6710 H 625.735 -5.51145 3.55775 0
M  V30 6711 H 625.652 -5.40515 5.28563 0
M  V30 6712 H 626.92 -6.33412 4.54324 0
M  V30 6713 N 631.149 -1.42148 -0.680565 0
M  V30 6714 C 632.096 -1.45175 -1.79424 0
M  V30 6715 C 633.066 -0.304352 -1.63288 0
M  V30 6716 O 634.251 -0.507591 -1.83924 0
M  V30 6717 C 631.391 -1.35429 -3.17416 0
M  V30 6718 C 630.504 -2.60158 -3.4488 0
M  V30 6719 C 629.639 -2.42596 -4.72568 0
M  V30 6720 C 628.678 -3.62727 -4.93047 0
M  V30 6721 N 627.815 -3.44143 -6.11973 0
M  V30 6722 H 632.655 -2.40349 -1.76172 0
M  V30 6723 H 630.192 -1.19334 -0.860107 0
M  V30 6724 H 632.15 -1.27777 -3.97151 0
M  V30 6725 H 630.78 -0.438536 -3.19807 0
M  V30 6726 H 629.832 -2.78199 -2.5944 0
M  V30 6727 H 631.144 -3.49473 -3.55908 0
M  V30 6728 H 630.298 -2.32497 -5.60384 0
M  V30 6729 H 629.037 -1.50761 -4.63813 0
M  V30 6730 H 628.042 -3.73264 -4.03676 0
M  V30 6731 H 629.267 -4.55534 -5.03652 0
M  V30 6732 H 627.213 -2.5502 -6.04401 0
M  V30 6733 H 627.13 -4.27041 -6.23836 0
M  V30 6734 H 628.398 -3.37845 -7.02482 0
M  V30 6735 N 632.627 0.916307 -1.28225 0
M  V30 6736 C 633.852 1.7043 -1.18188 0
M  V30 6737 C 634.277 1.86346 0.256274 0
M  V30 6738 O 633.635 1.37175 1.18544 0
M  V30 6739 C 633.683 3.07546 -1.88275 0
M  V30 6740 O 632.787 3.94904 -1.18848 0
M  V30 6741 H 632.128 0.521967 -0.410423 0
M  V30 6742 H 634.658 1.14589 -1.69501 0
M  V30 6743 H 634.668 3.57793 -1.96082 0
M  V30 6744 H 633.343 2.95279 -2.92887 0
M  V30 6745 H 631.92 3.53339 -1.19187 0
M  V30 6746 N 634.105 1.10431 1.1244 0
M  V30 6747 C 635.052 0.753103 2.18167 0
M  V30 6748 C 636.022 -0.270549 1.63882 0
M  V30 6749 O 637.207 -0.149837 1.90211 0
M  V30 6750 C 634.347 0.191046 3.44571 0
M  V30 6751 C 633.46 1.26999 4.12911 0
M  V30 6752 C 632.595 0.669586 5.26963 0
M  V30 6753 C 631.634 1.72912 5.87169 0
M  V30 6754 N 630.771 1.14898 6.92635 0
M  V30 6755 H 635.611 1.65892 2.47556 0
M  V30 6756 H 633.148 0.828631 1.21541 0
M  V30 6757 H 635.106 -0.152712 4.1692 0
M  V30 6758 H 633.736 -0.677997 3.15599 0
M  V30 6759 H 632.788 1.73087 3.3874 0
M  V30 6760 H 634.1 2.07204 4.53727 0
M  V30 6761 H 633.254 0.275274 6.06075 0
M  V30 6762 H 631.993 -0.163895 4.87425 0
M  V30 6763 H 630.998 2.13286 5.06744 0
M  V30 6764 H 632.223 2.56544 6.28778 0
M  V30 6765 H 630.169 0.336956 6.55134 0
M  V30 6766 H 630.086 1.88786 7.32049 0
M  V30 6767 H 631.354 0.78121 7.75576 0
M  V30 6768 N 635.583 -1.29855 0.893053 0
M  V30 6769 C 636.811 -1.99976 0.530788 0
M  V30 6770 C 637.226 -1.66889 -0.882799 0
M  V30 6771 O 636.583 -0.910352 -1.58173 0
M  V30 6772 C 636.634 -3.54547 0.705587 0
M  V30 6773 O 636.355 -3.86458 2.06353 0
M  V30 6774 C 637.856 -4.41937 0.347387 0
M  V30 6775 H 635.076 -0.639129 0.204339 0
M  V30 6776 H 637.62 -1.65549 1.20057 0
M  V30 6777 H 635.775 -3.87311 0.0830685 0
M  V30 6778 H 636.189 -4.81146 2.08803 0
M  V30 6779 H 637.663 -5.4954 0.520557 0
M  V30 6780 H 638.14 -4.33339 -0.715139 0
M  V30 6781 H 638.746 -4.14633 0.946567 0
M  V30 6782 N 637.061 -0.65484 -1.43351 0
M  V30 6783 C 638.338 -0.0987371 -1.95351 0
M  V30 6784 C 638.718 1.38161 -1.59608 0
M  V30 6785 O 638.066 2.10791 -0.882021 0
M  V30 6786 C 638.276 -0.346684 -3.47274 0
M  V30 6787 C 639.624 -0.25249 -4.23849 0
M  V30 6788 O 640.648 -0.279332 -3.55103 0
M  V30 6789 O 639.507 -0.177584 -5.46211 0
M  V30 6790 H 636.601 0.0086829 -0.826954 0
M  V30 6791 H 639.147 -0.728189 -1.53282 0
M  V30 6792 H 637.919 -1.37296 -3.66423 0
M  V30 6793 H 637.542 0.315757 -3.96344 0
M  V30 6794 N 638.539 1.52521 -0.396863 0
M  V30 6795 C 639.469 2.29582 0.425941 0
M  V30 6796 C 640.45 1.33281 1.05689 0
M  V30 6797 O 641.635 1.62181 1.06823 0
M  V30 6798 C 638.765 3.10821 1.54943 0
M  V30 6799 C 637.719 4.15069 1.04413 0
M  V30 6800 C 637.045 4.84578 2.26028 0
M  V30 6801 C 638.345 5.22191 0.106767 0
M  V30 6802 H 640.039 2.98612 -0.217045 0
M  V30 6803 H 637.585 1.43611 -0.105826 0
M  V30 6804 H 639.538 3.63492 2.13193 0
M  V30 6805 H 638.262 2.39538 2.22011 0
M  V30 6806 H 636.921 3.63389 0.484118 0
M  V30 6807 H 636.569 4.09835 2.91623 0
M  V30 6808 H 636.269 5.55043 1.92876 0
M  V30 6809 H 637.793 5.40056 2.84906 0
M  V30 6810 H 639.207 5.70176 0.597685 0
M  V30 6811 H 637.604 5.99947 -0.135352 0
M  V30 6812 H 638.674 4.77531 -0.842134 0
M  V30 6813 N 640.017 0.126909 1.57088 0
M  V30 6814 C 640.947 -0.816847 2.18746 0
M  V30 6815 C 641.928 -1.27161 1.12979 0
M  V30 6816 O 643.113 -1.33279 1.41246 0
M  V30 6817 C 640.243 -2.06398 2.79315 0
M  V30 6818 C 639.197 -1.74673 3.90735 0
M  V30 6819 C 638.523 -3.06482 4.38147 0
M  V30 6820 C 639.823 -1.0089 5.12463 0
M  V30 6821 H 641.517 -0.303032 2.97863 0
M  V30 6822 H 639.063 -0.144314 1.43275 0
M  V30 6823 H 641.016 -2.72885 3.2111 0
M  V30 6824 H 639.74 -2.60118 1.975 0
M  V30 6825 H 638.399 -1.10572 3.49527 0
M  V30 6826 H 638.047 -3.58152 3.5318 0
M  V30 6827 H 637.747 -2.86025 5.13287 0
M  V30 6828 H 639.271 -3.74073 4.82599 0
M  V30 6829 H 640.685 -1.57546 5.51228 0
M  V30 6830 H 639.082 -0.905006 5.93237 0
M  V30 6831 H 640.152 0.00297335 4.849 0
M  V30 6832 N 641.495 -1.56914 -0.146875 0
M  V30 6833 C 642.443 -1.99224 -1.20053 0
M  V30 6834 C 643.437 -0.884661 -1.44465 0
M  V30 6835 O 644.643 -1.06984 -1.44756 0
M  V30 6836 H 641.018 -0.634191 -0.404112 0
M  V30 6837 H 642.989 -2.86998 -0.816987 0
M  V30 6838 C 641.738 -2.38899 -2.52632 0
M  V30 6839 H 641.061 -3.23677 -2.34677 0
M  V30 6840 H 642.501 -2.72326 -3.24984 0
M  V30 6841 C 640.96 -1.2417 -3.13183 0
M  V30 6842 O 641.49 -0.542503 -3.9802 0
M  V30 6843 N 639.696 -1.00592 -2.72635 0
M  V30 6844 H 639.243 -1.57627 -2.03744 0
M  V30 6845 H 639.201 -0.240174 -3.13481 0
M  V30 6846 N 642.974 0.416227 -1.52004 0
M  V30 6847 C 644.385 0.995319 -1.57957 0
M  V30 6848 C 644.736 1.91744 -0.415754 0
M  V30 6849 O 643.861 2.11349 0.464808 0
M  V30 6850 C 644.456 1.81191 -2.86278 0
M  V30 6851 C 643.015 2.34115 -2.94732 0
M  V30 6852 C 642.162 1.139 -2.52828 0
M  V30 6853 H 645.113 0.196716 -1.57476 0
M  V30 6854 H 645.134 2.66859 -2.71231 0
M  V30 6855 H 644.646 1.14051 -3.70963 0
M  V30 6856 H 642.747 3.04647 -2.14525 0
M  V30 6857 H 642.86 2.65466 -3.98829 0
M  V30 6858 H 641.224 1.49081 -2.06511 0
M  V30 6859 H 642.007 0.483383 -3.3988 0
M  V30 6860 N 644.452 1.42507 0.673017 0
M  V30 6861 C 645.362 1.4853 1.81593 0
M  V30 6862 C 646.378 0.373907 1.69935 0
M  V30 6863 O 647.554 0.625078 1.91454 0
M  V30 6864 C 644.619 1.387 3.17747 0
M  V30 6865 C 643.68 2.60346 3.41348 0
M  V30 6866 C 642.913 2.50975 4.71007 0
M  V30 6867 O 643.136 1.54659 5.49033 0
M  V30 6868 O 642.07 3.41138 4.95892 0
M  V30 6869 H 645.896 2.45001 1.79467 0
M  V30 6870 H 643.481 1.2429 0.82899 0
M  V30 6871 H 645.363 1.35586 3.98992 0
M  V30 6872 H 644.038 0.453555 3.20507 0
M  V30 6873 H 642.945 2.69034 2.59945 0
M  V30 6874 H 644.278 3.52595 3.43421 0
M  V30 6875 N 645.93 -0.909495 1.28709 0
M  V30 6876 C 646.84 -2.04558 1.14861 0
M  V30 6877 C 647.856 -1.73842 0.0741621 0
M  V30 6878 O 649.032 -1.99383 0.2843 0
M  V30 6879 C 646.097 -3.36957 0.816148 0
M  V30 6880 C 645.158 -3.81255 1.97341 0
M  V30 6881 C 644.391 -5.07335 1.65671 0
M  V30 6882 O 644.614 -5.67514 0.573053 0
M  V30 6883 O 643.548 -5.47449 2.50167 0
M  V30 6884 H 647.374 -2.19161 2.10243 0
M  V30 6885 H 644.959 -1.03159 1.08068 0
M  V30 6886 H 646.841 -4.16436 0.644873 0
M  V30 6887 H 645.516 -3.2352 -0.107983 0
M  V30 6888 H 644.423 -3.02584 2.19986 0
M  V30 6889 H 645.756 -3.99261 2.87839 0
M  V30 6890 N 647.408 -1.11026 -1.11852 0
M  V30 6891 C 648.371 -0.768006 -2.1595 0
M  V30 6892 C 649.371 0.210538 -1.59416 0
M  V30 6893 O 650.561 -0.0133978 -1.74195 0
M  V30 6894 C 647.693 -0.138678 -3.40618 0
M  V30 6895 H 648.886 -1.69012 -2.4774 0
M  V30 6896 H 646.439 -0.911578 -1.26964 0
M  V30 6897 H 647.174 0.793872 -3.14433 0
M  V30 6898 H 646.959 -0.843012 -3.8293 0
M  V30 6899 H 648.449 0.0848039 -4.17514 0
M  V30 6900 N 648.886 1.2938 -0.899927 0
M  V30 6901 C 649.796 2.31462 -0.382437 0
M  V30 6902 C 650.812 1.65956 0.522929 0
M  V30 6903 O 651.988 1.97131 0.412454 0
M  V30 6904 C 649.053 3.44595 0.381472 0
M  V30 6905 C 648.114 4.25692 -0.555444 0
M  V30 6906 C 647.347 5.33422 0.172102 0
M  V30 6907 O 647.57 5.53053 1.396 0
M  V30 6908 O 646.504 5.99939 -0.485491 0
M  V30 6909 H 650.33 2.77706 -1.22934 0
M  V30 6910 H 647.915 1.33821 -0.664259 0
M  V30 6911 H 649.797 4.13474 0.813442 0
M  V30 6912 H 648.472 3.00458 1.20443 0
M  V30 6913 H 647.379 3.59453 -1.03653 0
M  V30 6914 H 648.712 4.73471 -1.34483 0
M  V30 6915 N 650.364 0.662433 1.43002 0
M  V30 6916 C 651.641 0.109096 1.95296 0
M  V30 6917 C 652.021 -1.37313 1.60338 0
M  V30 6918 O 651.369 -2.1032 0.893187 0
M  V30 6919 C 651.579 0.365096 3.47085 0
M  V30 6920 C 652.927 0.274964 4.23709 0
M  V30 6921 O 653.951 0.29816 3.5495 0
M  V30 6922 O 652.81 0.206549 5.4611 0
M  V30 6923 H 649.904 -0.00429724 0.826989 0
M  V30 6924 H 652.45 0.736308 1.52894 0
M  V30 6925 H 651.222 1.39237 3.65689 0
M  V30 6926 H 650.845 -0.294733 3.96506 0
M  V30 6927 N 651.842 -1.52309 0.404946 0
M  V30 6928 C 652.774 -2.24579 -0.45791 0
M  V30 6929 C 653.787 -1.2739 -1.01369 0
M  V30 6930 O 654.976 -1.53363 -0.91335 0
M  V30 6931 C 652.076 -2.9608 -1.64893 0
M  V30 6932 C 651.249 -4.20106 -1.21777 0
M  V30 6933 C 650.308 -4.74468 -2.27523 0
M  V30 6934 O 649.334 -5.37157 -1.88285 0
M  V30 6935 N 650.536 -4.55678 -3.59635 0
M  V30 6936 H 653.301 -2.99265 0.161341 0
M  V30 6937 H 650.862 -1.60228 0.232107 0
M  V30 6938 H 652.854 -3.29344 -2.35191 0
M  V30 6939 H 651.424 -2.24606 -2.17419 0
M  V30 6940 H 650.644 -3.92704 -0.343071 0
M  V30 6941 H 651.932 -5.00658 -0.906596 0
M  V30 6942 H 651.33 -4.05673 -3.94266 0
M  V30 6943 H 649.887 -4.9339 -4.25922 0
M  V30 6944 N 653.32 -0.135238 -1.57019 0
M  V30 6945 C 654.25 0.805235 -2.19176 0
M  V30 6946 C 655.231 1.2656 -1.13651 0
M  V30 6947 O 656.416 1.32528 -1.4195 0
M  V30 6948 C 653.546 2.04914 -2.80406 0
M  V30 6949 C 652.5 1.72598 -3.91655 0
M  V30 6950 C 651.826 3.04154 -4.39766 0
M  V30 6951 C 653.126 0.981709 -5.12991 0
M  V30 6952 H 654.82 0.287232 -2.98019 0
M  V30 6953 H 652.366 0.136714 -1.4335 0
M  V30 6954 H 654.319 2.71178 -3.22553 0
M  V30 6955 H 653.043 2.59067 -1.98877 0
M  V30 6956 H 651.702 1.08717 -3.50109 0
M  V30 6957 H 651.35 3.56274 -3.55075 0
M  V30 6958 H 651.05 2.83299 -5.14796 0
M  V30 6959 H 652.574 3.71509 -4.84576 0
M  V30 6960 H 653.988 1.5462 -5.52056 0
M  V30 6961 H 652.385 0.873533 -5.93708 0
M  V30 6962 H 653.455 -0.0286887 -4.84892 0
M  V30 6963 N 654.798 1.5699 0.138552 0
M  V30 6964 C 655.761 1.97984 1.15478 0
M  V30 6965 C 656.761 0.867416 1.35398 0
M  V30 6966 O 657.951 1.13387 1.32246 0
M  V30 6967 C 655.083 2.3031 2.51337 0
M  V30 6968 H 656.276 2.88953 0.802896 0
M  V30 6969 H 653.829 1.51555 0.382189 0
M  V30 6970 H 654.564 1.42159 2.91481 0
M  V30 6971 H 654.349 3.11425 2.38237 0
M  V30 6972 H 655.839 2.62834 3.24512 0
M  V30 6973 N 656.276 -0.40816 1.52223 0
M  V30 6974 C 657.553 -1.16807 1.56893 0
M  V30 6975 C 657.933 -2.08169 0.350537 0
M  V30 6976 O 657.281 -2.18684 -0.662536 0
M  V30 6977 C 657.491 -1.94451 2.8981 0
M  V30 6978 C 658.839 -2.50484 3.42845 0
M  V30 6979 O 659.863 -2.0463 2.91556 0
M  V30 6980 O 658.722 -3.34192 4.3241 0
M  V30 6981 H 655.816 -0.533382 0.632007 0
M  V30 6982 H 658.362 -0.414862 1.64551 0
M  V30 6983 H 657.134 -1.27527 3.69936 0
M  V30 6984 H 656.757 -2.76775 2.85449 0
M  V30 6985 N 657.755 -1.42862 -0.66545 0
M  V30 6986 C 659.004 -1.43119 -1.42126 0
M  V30 6987 C 659.317 -0.0545297 -1.95524 0
M  V30 6988 O 660.523 0.0654747 -2.71421 0
M  V30 6989 C 658.979 -2.51797 -2.5715 0
M  V30 6990 C 658.587 -3.95514 -2.10411 0
M  V30 6991 C 660.331 -2.61233 -3.346 0
M  V30 6992 C 658.238 -4.95682 -3.22573 0
M  V30 6993 H 657.168 -0.532349 -0.533966 0
M  V30 6994 H 659.819 -1.68806 -0.719506 0
M  V30 6995 H 658.201 -2.19292 -3.29738 0
M  V30 6996 H 659.375 -4.3742 -1.44915 0
M  V30 6997 H 657.69 -3.90012 -1.45874 0
M  V30 6998 H 660.287 -3.33248 -4.18151 0
M  V30 6999 H 660.63 -1.65896 -3.81817 0
M  V30 7000 H 661.163 -2.9298 -2.69087 0
M  V30 7001 H 657.902 -5.92529 -2.80338 0
M  V30 7002 H 657.422 -4.58399 -3.86821 0
M  V30 7003 H 659.101 -5.17828 -3.87896 0
M  V30 7004 N 659.233 0.902656 -1.29189 0
M  V30 7005 C 660.196 1.98797 -1.14071 0
M  V30 7006 C 661.196 1.60615 -0.0770549 0
M  V30 7007 O 662.386 1.71165 -0.323753 0
M  V30 7008 C 659.518 3.32688 -0.743739 0
M  V30 7009 H 660.711 2.13637 -2.10473 0
M  V30 7010 H 658.264 1.08678 -1.12334 0
M  V30 7011 H 658.999 3.23549 0.220554 0
M  V30 7012 H 658.784 3.61765 -1.51223 0
M  V30 7013 H 660.274 4.12337 -0.660935 0
M  V30 7014 N 660.711 1.11618 1.11262 0
M  V30 7015 C 661.936 0.889013 1.8738 0
M  V30 7016 C 662.361 -0.555884 1.79698 0
M  V30 7017 O 661.719 -1.39272 1.16073 0
M  V30 7018 C 661.767 1.35759 3.34069 0
M  V30 7019 O 660.871 0.530499 4.08974 0
M  V30 7020 H 660.212 0.320082 0.581759 0
M  V30 7021 H 662.742 1.48611 1.40627 0
M  V30 7022 H 662.752 1.35291 3.84916 0
M  V30 7023 H 661.427 2.40973 3.38976 0
M  V30 7024 H 660.004 0.601439 3.68018 0
M  V30 7025 N 662.189 -1.289 0.906776 0
M  V30 7026 C 663.435 -1.95558 0.53712 0
M  V30 7027 C 663.768 -1.71262 -0.915582 0
M  V30 7028 O 663.043 -1.02961 -1.65013 0
M  V30 7029 C 663.326 -3.50198 0.838645 0
M  V30 7030 C 663.179 -3.83923 2.34357 0
M  V30 7031 C 664.498 -4.38861 0.329988 0
M  V30 7032 H 661.617 -0.710289 0.196617 0
M  V30 7033 H 664.259 -1.52392 1.13475 0
M  V30 7034 H 662.409 -3.87096 0.330024 0
M  V30 7035 H 664.081 -3.56933 2.92227 0
M  V30 7036 H 662.324 -3.31215 2.80141 0
M  V30 7037 H 662.995 -4.91883 2.5051 0
M  V30 7038 H 665.471 -4.08996 0.765609 0
M  V30 7039 H 664.347 -5.45931 0.570105 0
M  V30 7040 H 664.608 -4.35352 -0.769511 0
M  V30 7041 N 663.667 -0.670007 -1.42649 0
M  V30 7042 C 664.915 -0.18991 -2.01206 0
M  V30 7043 C 665.236 1.20617 -1.53221 0
M  V30 7044 O 664.506 1.80898 -0.751856 0
M  V30 7045 H 663.086 -0.0672189 -0.743969 0
M  V30 7046 H 665.748 -0.865442 -1.74631 0
M  V30 7047 H 664.844 -0.187481 -3.11536 0
M  V30 7048 N 665.145 1.52092 -0.413018 0
M  V30 7049 C 666.37 2.06756 0.163338 0
M  V30 7050 C 666.795 1.28073 1.37764 0
M  V30 7051 O 666.153 0.312015 1.78595 0
M  V30 7052 C 666.201 3.57278 0.488322 0
M  V30 7053 O 665.305 3.80986 1.57871 0
M  V30 7054 H 664.646 0.663882 0.0125068 0
M  V30 7055 H 667.176 1.95988 -0.587339 0
M  V30 7056 H 667.186 4.01125 0.745836 0
M  V30 7057 H 665.861 4.13978 -0.399327 0
M  V30 7058 H 664.438 3.49017 1.31306 0
M  V30 7059 N 666.623 0.143563 1.56945 0
M  V30 7060 C 668.034 -0.37783 1.82837 0
M  V30 7061 C 668.385 -1.64967 1.06209 0
M  V30 7062 O 667.51 -2.14221 0.306291 0
M  V30 7063 C 668.105 -0.692274 3.31652 0
M  V30 7064 C 666.664 -1.1582 3.58138 0
M  V30 7065 C 665.811 -0.17951 2.76718 0
M  V30 7066 H 668.762 0.368317 1.54367 0
M  V30 7067 H 668.783 -1.54729 3.47619 0
M  V30 7068 H 668.295 0.233572 3.87397 0
M  V30 7069 H 666.396 -2.10011 3.07776 0
M  V30 7070 H 666.509 -1.08655 4.66616 0
M  V30 7071 H 664.873 -0.671458 2.4569 0
M  V30 7072 H 665.656 0.739865 3.35233 0
M  V30 7073 N 668.101 -1.57061 -0.130224 0
M  V30 7074 C 669.348 -1.84257 -0.839972 0
M  V30 7075 C 669.676 -0.726986 -1.80403 0
M  V30 7076 O 668.931 0.282632 -1.93648 0
M  V30 7077 C 669.23 -3.17878 -1.63365 0
M  V30 7078 C 668.896 -4.43475 -0.814891 0
M  V30 7079 C 667.558 -4.77581 -0.589066 0
M  V30 7080 C 669.91 -5.20631 -0.243437 0
M  V30 7081 C 667.238 -5.86292 0.218648 0
M  V30 7082 C 669.59 -6.30192 0.551408 0
M  V30 7083 C 668.254 -6.62837 0.787653 0
M  V30 7084 H 667.524 -0.674245 -0.307367 0
M  V30 7085 H 670.171 -1.91224 -0.102832 0
M  V30 7086 H 668.476 -3.06437 -2.44138 0
M  V30 7087 H 670.173 -3.3614 -2.18658 0
M  V30 7088 H 666.763 -4.16747 -1.00098 0
M  V30 7089 H 670.947 -4.94644 -0.405145 0
M  V30 7090 H 666.203 -6.10017 0.411016 0
M  V30 7091 H 670.377 -6.89165 1.00126 0
M  V30 7092 H 668.004 -7.46908 1.41537 0
M  V30 7093 N 669.579 0.400081 -1.52437 0
M  V30 7094 C 670.542 1.4707 -1.75793 0
M  V30 7095 C 671.542 1.48036 -0.627856 0
M  V30 7096 O 672.732 1.49401 -0.895817 0
M  V30 7097 C 669.864 2.86427 -1.84858 0
M  V30 7098 H 671.057 1.27649 -2.71377 0
M  V30 7099 H 668.61 0.631141 -1.42991 0
M  V30 7100 H 669.345 3.11207 -0.912194 0
M  V30 7101 H 669.13 2.87128 -2.6702 0
M  V30 7102 H 670.62 3.64023 -2.04638 0
M  V30 7103 N 671.057 1.43213 0.657864 0
M  V30 7104 C 672.473 1.26511 0.972992 0
M  V30 7105 C 672.673 0.181477 2.00681 0
M  V30 7106 O 671.729 -0.441649 2.48608 0
M  V30 7107 C 673.042 2.62784 1.46168 0
M  V30 7108 C 674.59 2.70278 1.57857 0
M  V30 7109 C 675.065 4.06958 2.10117 0
M  V30 7110 N 676.556 4.08999 2.17426 0
M  V30 7111 C 677.291 5.11585 2.58975 0
M  V30 7112 N 676.787 6.24548 2.99853 0
M  V30 7113 N 678.58 4.9894 2.58873 0
M  V30 7114 H 670.731 2.12384 -0.0263129 0
M  V30 7115 H 672.994 0.946638 0.0507992 0
M  V30 7116 H 672.7 3.43022 0.776474 0
M  V30 7117 H 672.574 2.87863 2.43751 0
M  V30 7118 H 674.961 1.90376 2.25479 0
M  V30 7119 H 675.042 2.4897 0.587179 0
M  V30 7120 H 674.686 4.87325 1.43098 0
M  V30 7121 H 674.616 4.25628 3.10078 0
M  V30 7122 H 677.107 3.27457 1.88627 0
M  V30 7123 H 677.42 6.98661 3.30292 0
M  V30 7124 H 675.765 6.28027 2.97669 0
M  V30 7125 H 678.956 4.09757 2.26311 0
M  V30 7126 H 679.129 5.79019 2.90932 0
M  V30 7127 N 672.536 -0.895792 1.29666 0
M  V30 7128 C 673.499 -1.98189 1.15124 0
M  V30 7129 C 674.499 -1.60572 0.0855717 0
M  V30 7130 O 675.689 -1.70991 0.332826 0
M  V30 7131 C 672.821 -3.32289 0.761372 0
M  V30 7132 H 674.014 -2.12518 2.11603 0
M  V30 7133 H 671.567 -1.0808 1.12908 0
M  V30 7134 H 672.302 -3.23662 -0.203393 0
M  V30 7135 H 672.087 -3.60958 1.53139 0
M  V30 7136 H 673.577 -4.1198 0.682792 0
M  V30 7137 N 674.014 -1.12206 -1.10668 0
M  V30 7138 C 675.239 -0.898938 -1.86906 0
M  V30 7139 C 675.664 0.546346 -1.79991 0
M  V30 7140 O 675.022 1.38655 -1.1681 0
M  V30 7141 C 675.07 -1.37529 -3.33344 0
M  V30 7142 O 674.174 -0.55218 -4.08687 0
M  V30 7143 H 673.515 -0.323163 -0.580053 0
M  V30 7144 H 676.045 -1.49355 -1.39837 0
M  V30 7145 H 676.055 -1.3733 -3.84193 0
M  V30 7146 H 674.73 -2.42767 -3.37693 0
M  V30 7147 H 673.307 -0.620947 -3.67694 0
M  V30 7148 N 675.492 1.28418 -0.913599 0
M  V30 7149 C 676.741 1.94265 -0.542572 0
M  V30 7150 C 677.054 1.72709 0.918207 0
M  V30 7151 O 678.26 2.32778 1.39738 0
M  V30 7152 C 676.716 3.47956 -0.919507 0
M  V30 7153 C 676.324 3.78291 -2.4 0
M  V30 7154 C 678.068 4.19962 -0.619057 0
M  V30 7155 C 675.975 5.2529 -2.71707 0
M  V30 7156 H 674.905 0.727213 -0.199192 0
M  V30 7157 H 677.556 1.45931 -1.11249 0
M  V30 7158 H 675.938 3.9502 -0.278372 0
M  V30 7159 H 677.112 3.42035 -3.08786 0
M  V30 7160 H 675.427 3.19456 -2.67089 0
M  V30 7161 H 678.024 5.28178 -0.832623 0
M  V30 7162 H 678.367 4.13935 0.443126 0
M  V30 7163 H 678.9 3.78674 -1.21865 0
M  V30 7164 H 675.639 5.36394 -3.76778 0
M  V30 7165 H 675.159 5.62743 -2.07559 0
M  V30 7166 H 676.838 5.93027 -2.58703 0
M  V30 7167 N 676.97 0.677563 1.42291 0
M  V30 7168 C 677.917 0.000947061 2.308 0
M  V30 7169 C 678.887 -0.789889 1.46116 0
M  V30 7170 O 680.072 -0.761578 1.74942 0
M  V30 7171 C 677.212 -0.942387 3.31984 0
M  V30 7172 C 676.325 -0.14508 4.31756 0
M  V30 7173 C 675.46 -1.08442 5.20013 0
M  V30 7174 C 674.499 -0.278958 6.11464 0
M  V30 7175 N 673.636 -1.17115 6.92263 0
M  V30 7176 H 678.476 0.761521 2.88106 0
M  V30 7177 H 676.013 0.38727 1.41911 0
M  V30 7178 H 677.971 -1.50317 3.89179 0
M  V30 7179 H 676.601 -1.66956 2.76271 0
M  V30 7180 H 675.653 0.532368 3.76656 0
M  V30 7181 H 676.965 0.48015 4.96484 0
M  V30 7182 H 676.119 -1.71504 5.81955 0
M  V30 7183 H 674.858 -1.74353 4.55469 0
M  V30 7184 H 673.863 0.364856 5.48588 0
M  V30 7185 H 675.088 0.376099 6.78058 0
M  V30 7186 H 673.034 -1.81661 6.30345 0
M  V30 7187 H 672.951 -0.601063 7.53607 0
M  V30 7188 H 674.219 -1.78915 7.58689 0
M  V30 7189 N 678.448 -1.51871 0.421078 0
M  V30 7190 C 679.673 -2.0684 -0.152371 0
M  V30 7191 C 680.098 -1.28802 -1.37083 0
M  V30 7192 O 679.456 -0.321482 -1.78427 0
M  V30 7193 C 679.504 -3.57532 -0.469368 0
M  V30 7194 O 678.608 -3.81818 -1.55848 0
M  V30 7195 H 677.949 -0.663939 -0.00898586 0
M  V30 7196 H 680.479 -1.95674 0.597724 0
M  V30 7197 H 680.489 -4.01515 -0.724553 0
M  V30 7198 H 679.164 -4.13761 0.421276 0
M  V30 7199 H 677.741 -3.49709 -1.29453 0
M  V30 7200 N 679.926 -0.151884 -1.56866 0
M  V30 7201 C 680.889 0.771861 -2.15812 0
M  V30 7202 C 681.889 1.17181 -1.10115 0
M  V30 7203 O 683.079 1.09194 -1.35729 0
M  V30 7204 C 680.211 2.04806 -2.7252 0
M  V30 7205 H 681.404 0.259021 -2.98779 0
M  V30 7206 H 678.957 0.097588 -1.55995 0
M  V30 7207 H 679.692 2.60445 -1.93233 0
M  V30 7208 H 679.477 1.77044 -3.49854 0
M  V30 7209 H 680.967 2.70771 -3.1792 0
M  V30 7210 N 681.404 1.57128 0.121893 0
M  V30 7211 C 682.351 2.0013 1.14964 0
M  V30 7212 C 683.321 0.872959 1.4131 0
M  V30 7213 O 684.506 1.13696 1.53225 0
M  V30 7214 C 681.646 2.40824 2.4718 0
M  V30 7215 C 680.759 3.67061 2.27794 0
M  V30 7216 C 679.894 3.96749 3.53219 0
M  V30 7217 C 678.933 5.16178 3.28978 0
M  V30 7218 N 678.07 5.41751 4.46599 0
M  V30 7219 H 682.91 2.8772 0.775947 0
M  V30 7220 H 680.447 1.42328 0.371652 0
M  V30 7221 H 682.405 2.62454 3.24305 0
M  V30 7222 H 681.035 1.56279 2.82448 0
M  V30 7223 H 680.087 3.53063 1.416 0
M  V30 7224 H 681.399 4.5434 2.05857 0
M  V30 7225 H 680.553 4.19012 4.38764 0
M  V30 7226 H 679.292 3.07941 3.78185 0
M  V30 7227 H 678.297 4.93762 2.41824 0
M  V30 7228 H 679.522 6.06561 3.05386 0
M  V30 7229 H 677.468 4.55899 4.71691 0
M  V30 7230 H 677.385 6.23347 4.27756 0
M  V30 7231 H 678.653 5.68531 5.33285 0
M  V30 7232 N 682.882 -0.391992 1.52647 0
M  V30 7233 C 683.812 -1.48517 1.8018 0
M  V30 7234 C 684.793 -1.57039 0.653667 0
M  V30 7235 O 685.978 -1.72036 0.900962 0
M  V30 7236 C 683.108 -2.86161 1.96797 0
M  V30 7237 C 682.062 -2.92481 3.12472 0
M  V30 7238 C 681.388 -4.32546 3.14338 0
M  V30 7239 C 682.688 -2.624 4.51601 0
M  V30 7240 H 684.382 -1.25726 2.71723 0
M  V30 7241 H 681.928 -0.603387 1.30749 0
M  V30 7242 H 683.881 -3.62639 2.14641 0
M  V30 7243 H 682.605 -3.10283 1.01941 0
M  V30 7244 H 681.264 -2.18451 2.94406 0
M  V30 7245 H 680.912 -4.53703 2.1717 0
M  V30 7246 H 680.612 -4.37695 3.92042 0
M  V30 7247 H 682.136 -5.10934 3.34333 0
M  V30 7248 H 683.55 -3.28596 4.69785 0
M  V30 7249 H 681.947 -2.78903 5.3135 0
M  V30 7250 H 683.017 -1.57754 4.58521 0
M  V30 7251 N 684.36 -1.4356 -0.65026 0
M  V30 7252 C 685.27 -1.514 -1.79207 0
M  V30 7253 C 686.286 -0.400895 -1.69319 0
M  V30 7254 O 687.462 -0.655458 -1.90436 0
M  V30 7255 C 684.527 -1.43737 -3.155 0
M  V30 7256 C 683.588 -2.65743 -3.37163 0
M  V30 7257 C 682.821 -2.58436 -4.66954 0
M  V30 7258 O 683.044 -1.63374 -5.46503 0
M  V30 7259 O 681.978 -3.48984 -4.90402 0
M  V30 7260 H 685.804 -2.47825 -1.75547 0
M  V30 7261 H 683.389 -1.25594 -0.809111 0
M  V30 7262 H 685.271 -1.41916 -3.96784 0
M  V30 7263 H 683.946 -0.504488 -3.19745 0
M  V30 7264 H 682.853 -2.73136 -2.55632 0
M  V30 7265 H 684.186 -3.58014 -3.37768 0
M  V30 7266 N 685.838 0.888903 -1.30139 0
M  V30 7267 C 686.786 2.0156 -1.16088 0
M  V30 7268 C 687.78 1.69239 -0.0737413 0
M  V30 7269 O 688.986 1.78468 -0.234313 0
M  V30 7270 H 685.361 0.660825 -0.358907 0
M  V30 7271 H 687.332 2.10547 -2.11453 0
M  V30 7272 C 686.081 3.36758 -0.865426 0
M  V30 7273 H 685.404 3.62137 -1.69402 0
M  V30 7274 H 686.844 4.16246 -0.807192 0
M  V30 7275 C 685.303 3.34124 0.431577 0
M  V30 7276 O 685.833 3.7445 1.45431 0
M  V30 7277 N 684.039 2.87229 0.441321 0
M  V30 7278 H 683.586 2.54609 -0.391433 0
M  V30 7279 H 683.544 2.8585 1.30909 0
M  V30 7280 N 687.317 1.12792 1.10072 0
M  V30 7281 C 688.542 0.908838 1.86427 0
M  V30 7282 C 688.967 -0.536793 1.80278 0
M  V30 7283 O 688.325 -1.38033 1.17543 0
M  V30 7284 C 688.373 1.39295 3.3261 0
M  V30 7285 O 687.477 0.573846 4.08388 0
M  V30 7286 H 686.818 0.326234 0.578331 0
M  V30 7287 H 689.348 1.50094 1.39043 0
M  V30 7288 H 689.358 1.39366 3.83459 0
M  V30 7289 H 688.033 2.44555 3.36401 0
M  V30 7290 H 686.61 0.640438 3.67359 0
M  V30 7291 N 688.795 -1.27931 0.920396 0
M  V30 7292 C 690.023 -1.98805 0.573087 0
M  V30 7293 C 690.438 -1.68724 -0.847201 0
M  V30 7294 O 689.795 -0.943699 -1.56207 0
M  V30 7295 C 689.846 -3.52971 0.780633 0
M  V30 7296 O 689.567 -3.81994 2.14504 0
M  V30 7297 C 691.068 -4.411 0.44105 0
M  V30 7298 H 688.288 -0.634651 0.21785 0
M  V30 7299 H 690.832 -1.62965 1.23542 0
M  V30 7300 H 688.987 -3.87048 0.165204 0
M  V30 7301 H 689.401 -4.76609 2.18962 0
M  V30 7302 H 690.875 -5.48312 0.637006 0
M  V30 7303 H 691.352 -4.34758 -0.62306 0
M  V30 7304 H 691.958 -4.12532 1.0343 0
M  V30 7305 N 690.273 -0.685099 -1.4193 0
M  V30 7306 C 691.52 -0.211658 -2.01391 0
M  V30 7307 C 691.848 1.18526 -1.54214 0
M  V30 7308 O 691.103 1.81189 -0.739519 0
M  V30 7309 C 691.402 -0.206154 -3.56805 0
M  V30 7310 C 691.068 -1.54915 -4.23453 0
M  V30 7311 C 689.73 -1.91684 -4.41373 0
M  V30 7312 C 692.082 -2.43317 -4.60919 0
M  V30 7313 C 689.41 -3.16461 -4.94034 0
M  V30 7314 C 691.762 -3.67415 -5.14965 0
M  V30 7315 C 690.426 -4.04341 -5.31098 0
M  V30 7316 H 689.696 -0.0774511 -0.736941 0
M  V30 7317 H 692.343 -0.882121 -1.69973 0
M  V30 7318 H 690.648 0.547841 -3.87951 0
M  V30 7319 H 692.345 0.17753 -4.00607 0
M  V30 7320 H 688.935 -1.25314 -4.09871 0
M  V30 7321 H 693.119 -2.16192 -4.46738 0
M  V30 7322 H 688.375 -3.45078 -5.04709 0
M  V30 7323 H 692.549 -4.3611 -5.42938 0
M  V30 7324 H 690.176 -5.01101 -5.71666 0
M  V30 7325 N 691.751 1.51645 -0.429126 0
M  V30 7326 C 692.998 2.02015 0.140079 0
M  V30 7327 C 693.326 1.31374 1.43427 0
M  V30 7328 O 692.581 0.414779 1.91254 0
M  V30 7329 C 692.88 3.54989 0.414472 0
M  V30 7330 C 692.546 4.43874 -0.792911 0
M  V30 7331 C 691.208 4.67887 -1.12404 0
M  V30 7332 C 693.56 4.96074 -1.59875 0
M  V30 7333 C 690.888 5.41348 -2.26184 0
M  V30 7334 C 693.24 5.70782 -2.72747 0
M  V30 7335 C 691.904 5.93062 -3.06324 0
M  V30 7336 H 691.174 0.739225 0.0512585 0
M  V30 7337 H 693.821 1.82675 -0.574641 0
M  V30 7338 H 692.126 3.72615 1.21099 0
M  V30 7339 H 693.823 3.91489 0.868173 0
M  V30 7340 H 690.413 4.25374 -0.524871 0
M  V30 7341 H 694.597 4.77412 -1.35614 0
M  V30 7342 H 689.853 5.56815 -2.52522 0
M  V30 7343 H 694.027 6.10221 -3.35564 0
M  V30 7344 H 691.654 6.49764 -3.94602 0
M  V30 7345 N 693.229 0.160201 1.56784 0
M  V30 7346 C 694.179 -0.786461 2.14007 0
M  V30 7347 C 695.163 -1.20046 1.07134 0
M  V30 7348 O 696.355 -1.16468 1.33283 0
M  V30 7349 C 693.484 -2.02024 2.77563 0
M  V30 7350 C 692.57 -1.62874 3.91578 0
M  V30 7351 N 692.961 -0.946176 4.96871 0
M  V30 7352 C 691.259 -1.92054 4.02531 0
M  V30 7353 C 691.96 -0.755084 5.76778 0
M  V30 7354 N 690.936 -1.29307 5.27997 0
M  V30 7355 H 694.738 -0.255879 2.92784 0
M  V30 7356 H 692.252 -0.0408778 1.62349 0
M  V30 7357 H 694.249 -2.70855 3.16928 0
M  V30 7358 H 692.909 -2.55587 2.00263 0
M  V30 7359 H 693.92 -0.605455 5.14349 0
M  V30 7360 H 690.597 -2.47374 3.36322 0
M  V30 7361 H 691.987 -0.216138 6.71552 0
M  V30 7362 N 694.707 -1.5719 -0.113559 0
M  V30 7363 C 695.654 -2.00736 -1.13901 0
M  V30 7364 C 696.624 -0.88044 -1.40846 0
M  V30 7365 O 697.809 -1.14507 -1.5262 0
M  V30 7366 C 694.949 -2.42132 -2.45899 0
M  V30 7367 C 694.062 -3.68264 -2.25844 0
M  V30 7368 C 693.197 -3.98617 -3.5111 0
M  V30 7369 C 692.236 -5.17915 -3.26236 0
M  V30 7370 N 691.373 -5.44111 -4.4372 0
M  V30 7371 H 696.213 -2.88128 -0.760677 0
M  V30 7372 H 693.75 -1.42523 -0.364099 0
M  V30 7373 H 695.708 -2.6417 -3.22908 0
M  V30 7374 H 694.338 -1.57775 -2.81615 0
M  V30 7375 H 693.39 -3.53809 -1.39726 0
M  V30 7376 H 694.702 -4.55425 -2.03444 0
M  V30 7377 H 693.856 -4.21333 -4.36536 0
M  V30 7378 H 692.595 -3.09942 -3.76546 0
M  V30 7379 H 691.6 -4.95038 -2.39202 0
M  V30 7380 H 692.825 -6.08172 -3.02165 0
M  V30 7381 H 690.771 -4.58394 -4.69266 0
M  V30 7382 H 690.688 -6.25606 -4.24444 0
M  V30 7383 H 691.956 -5.71351 -5.30263 0
M  V30 7384 N 696.185 0.383891 -1.52853 0
M  V30 7385 C 697.132 1.46924 -1.77995 0
M  V30 7386 C 698.102 1.53958 -0.623396 0
M  V30 7387 O 699.287 1.70134 -0.863657 0
M  V30 7388 C 696.427 2.84093 -1.95921 0
M  V30 7389 C 695.54 2.86171 -3.23621 0
M  V30 7390 C 694.675 4.14799 -3.31836 0
M  V30 7391 C 693.714 4.10948 -4.53639 0
M  V30 7392 N 692.851 5.31192 -4.59107 0
M  V30 7393 H 697.691 1.24786 -2.70615 0
M  V30 7394 H 695.228 0.605265 -1.34071 0
M  V30 7395 H 697.186 3.63755 -2.04299 0
M  V30 7396 H 695.816 3.04671 -1.06656 0
M  V30 7397 H 694.868 1.9885 -3.24288 0
M  V30 7398 H 696.18 2.79194 -4.13343 0
M  V30 7399 H 695.334 5.02867 -3.39425 0
M  V30 7400 H 694.073 4.24505 -2.40097 0
M  V30 7401 H 693.078 3.21268 -4.46169 0
M  V30 7402 H 694.303 4.0286 -5.467 0
M  V30 7403 H 692.249 5.41518 -3.70262 0
M  V30 7404 H 692.166 5.26311 -5.42708 0
M  V30 7405 H 693.434 6.21143 -4.70958 0
M  V30 7406 N 697.663 1.43903 0.642637 0
M  V30 7407 C 698.573 1.52349 1.78401 0
M  V30 7408 C 699.589 0.409869 1.69104 0
M  V30 7409 O 700.765 0.665548 1.90085 0
M  V30 7410 C 697.83 1.45408 3.14734 0
M  V30 7411 C 696.891 2.67528 3.35749 0
M  V30 7412 C 696.124 2.60909 4.65577 0
M  V30 7413 O 696.347 1.6627 5.45628 0
M  V30 7414 O 695.281 3.5158 4.88544 0
M  V30 7415 H 699.107 2.48752 1.7423 0
M  V30 7416 H 696.692 1.26021 0.802439 0
M  V30 7417 H 698.574 1.44019 3.96026 0
M  V30 7418 H 697.249 0.521437 3.19473 0
M  V30 7419 H 696.156 2.74487 2.5418 0
M  V30 7420 H 697.489 3.598 3.35864 0
M  V30 7421 N 699.141 -0.881989 1.30609 0
M  V30 7422 C 700.557 -1.16576 1.09005 0
M  V30 7423 C 700.757 -2.00961 -0.14727 0
M  V30 7424 O 699.813 -2.38117 -0.840036 0
M  V30 7425 C 701.126 -1.86954 2.35518 0
M  V30 7426 C 702.674 -1.99706 2.41011 0
M  V30 7427 C 703.149 -2.73497 3.67374 0
M  V30 7428 N 704.64 -2.8104 3.68199 0
M  V30 7429 C 705.375 -3.38718 4.62664 0
M  V30 7430 N 704.871 -3.97421 5.67475 0
M  V30 7431 N 706.664 -3.36561 4.50203 0
M  V30 7432 H 698.815 -0.319398 2.09985 0
M  V30 7433 H 701.078 -0.204058 0.925778 0
M  V30 7434 H 700.784 -1.32393 3.2583 0
M  V30 7435 H 700.658 -2.87317 2.44395 0
M  V30 7436 H 703.045 -2.53436 1.51176 0
M  V30 7437 H 703.126 -0.984218 2.36108 0
M  V30 7438 H 702.77 -2.20438 4.57569 0
M  V30 7439 H 702.7 -3.75163 3.6954 0
M  V30 7440 H 705.191 -2.39365 2.92426 0
M  V30 7441 H 705.504 -4.39507 6.35652 0
M  V30 7442 H 703.849 -3.95832 5.71264 0
M  V30 7443 H 707.04 -2.8993 3.67503 0
M  V30 7444 H 707.213 -3.81215 5.24003 0
M  V30 7445 N 700.619 -1.13374 -1.09472 0
M  V30 7446 C 702.035 -0.871846 -1.33682 0
M  V30 7447 C 702.235 0.492847 -1.9538 0
M  V30 7448 O 701.291 1.23946 -2.19985 0
M  V30 7449 C 702.604 -1.99608 -2.24893 0
M  V30 7450 C 704.152 -2.02812 -2.38404 0
M  V30 7451 C 704.627 -3.14497 -3.3295 0
M  V30 7452 N 706.118 -3.14004 -3.40523 0
M  V30 7453 C 706.853 -3.97061 -4.13679 0
M  V30 7454 N 706.349 -4.90131 -4.89636 0
M  V30 7455 N 708.142 -3.85162 -4.09398 0
M  V30 7456 H 700.293 -2.01288 -0.677995 0
M  V30 7457 H 702.556 -0.876492 -0.361201 0
M  V30 7458 H 702.262 -2.98 -1.86786 0
M  V30 7459 H 702.136 -1.90981 -3.25278 0
M  V30 7460 H 704.523 -1.05034 -2.75775 0
M  V30 7461 H 704.604 -2.15511 -1.37799 0
M  V30 7462 H 704.248 -4.12514 -2.96302 0
M  V30 7463 H 704.178 -2.99035 -4.33458 0
M  V30 7464 H 706.669 -2.46587 -2.86362 0
M  V30 7465 H 706.982 -5.49996 -5.42885 0
M  V30 7466 H 705.327 -4.94138 -4.88726 0
M  V30 7467 H 708.518 -3.11779 -3.49158 0
M  V30 7468 H 708.691 -4.5012 -4.6615 0
M  V30 7469 N 702.098 1.27442 -0.927168 0
M  V30 7470 C 703.031 2.25177 -0.370232 0
M  V30 7471 C 704.009 1.53612 0.533103 0
M  V30 7472 O 705.193 1.8245 0.47373 0
M  V30 7473 C 702.32 3.35431 0.469411 0
M  V30 7474 C 701.366 4.24888 -0.370419 0
M  V30 7475 S 702.199 5.04852 -1.78562 0
M  V30 7476 C 703.355 6.18592 -0.953651 0
M  V30 7477 H 703.588 2.72069 -1.19858 0
M  V30 7478 H 701.121 1.36089 -0.729316 0
M  V30 7479 H 703.079 3.99404 0.947992 0
M  V30 7480 H 701.74 2.87179 1.27228 0
M  V30 7481 H 700.933 5.03264 0.272226 0
M  V30 7482 H 700.535 3.65709 -0.783153 0
M  V30 7483 H 702.827 6.77235 -0.189408 0
M  V30 7484 H 703.77 6.87132 -1.7104 0
M  V30 7485 H 704.178 5.62318 -0.495897 0
M  V30 7486 N 703.576 0.692616 1.41565 0
M  V30 7487 C 704.992 0.363878 1.55397 0
M  V30 7488 C 705.192 -1.1294 1.66874 0
M  V30 7489 O 704.248 -1.91517 1.64552 0
M  V30 7490 C 705.561 1.10982 2.7947 0
M  V30 7491 C 707.109 1.09387 2.93263 0
M  V30 7492 C 707.584 1.8215 4.20221 0
M  V30 7493 N 709.075 1.79105 4.27172 0
M  V30 7494 C 709.81 2.32247 5.2426 0
M  V30 7495 N 709.306 2.93847 6.27396 0
M  V30 7496 N 711.099 2.22519 5.1618 0
M  V30 7497 H 703.25 1.66116 1.3236 0
M  V30 7498 H 705.513 0.700848 0.63837 0
M  V30 7499 H 705.219 2.1647 2.77188 0
M  V30 7500 H 705.093 0.686492 3.709 0
M  V30 7501 H 707.48 0.0472638 2.95062 0
M  V30 7502 H 707.561 1.55623 2.03015 0
M  V30 7503 H 707.205 2.86789 4.19183 0
M  V30 7504 H 707.135 1.33351 5.09436 0
M  V30 7505 H 709.626 1.34191 3.53272 0
M  V30 7506 H 709.939 3.31972 6.97864 0
M  V30 7507 H 708.284 2.97924 6.27906 0
M  V30 7508 H 711.475 1.7407 4.34531 0
M  V30 7509 H 711.648 2.64239 5.91677 0
M  V30 7510 N 705.054 -1.51416 0.437162 0
M  V30 7511 C 706.301 -2.02086 -0.129364 0
M  V30 7512 C 706.629 -1.32133 -1.42728 0
M  V30 7513 O 705.884 -0.424916 -1.91031 0
M  V30 7514 C 706.183 -3.55203 -0.39564 0
M  V30 7515 C 705.849 -4.43447 0.81644 0
M  V30 7516 C 704.511 -4.67285 1.14884 0
M  V30 7517 C 706.863 -4.95219 1.62503 0
M  V30 7518 C 704.191 -5.40141 2.29052 0
M  V30 7519 C 706.543 -5.69327 2.7577 0
M  V30 7520 C 705.207 -5.91429 3.09464 0
M  V30 7521 H 704.477 -0.739486 -0.0473375 0
M  V30 7522 H 707.124 -1.82368 0.584321 0
M  V30 7523 H 705.429 -3.73252 -1.19121 0
M  V30 7524 H 707.126 -3.91944 -0.847399 0
M  V30 7525 H 703.716 -4.2509 0.547422 0
M  V30 7526 H 707.9 -4.76686 1.38144 0
M  V30 7527 H 703.156 -5.55468 2.55471 0
M  V30 7528 H 707.33 -6.08433 3.38795 0
M  V30 7529 H 704.957 -6.47662 3.98042 0
M  V30 7530 N 706.532 -0.168513 -1.56696 0
M  V30 7531 C 707.762 0.482802 -2.0088 0
M  V30 7532 C 708.17 1.57537 -1.0478 0
M  V30 7533 O 707.513 1.83656 -0.0402746 0
M  V30 7534 C 707.575 1.1236 -3.4149 0
M  V30 7535 C 707.239 0.173027 -4.56672 0
M  V30 7536 C 708.236 -0.607565 -5.16338 0
M  V30 7537 C 705.921 0.0696691 -5.02252 0
M  V30 7538 C 707.915 -1.47874 -6.2001 0
M  V30 7539 C 705.602 -0.805096 -6.05773 0
M  V30 7540 C 706.6 -1.57789 -6.64524 0
M  V30 7541 O 706.288 -2.43804 -7.66038 0
M  V30 7542 H 706.02 0.128246 -0.663723 0
M  V30 7543 H 708.574 -0.266532 -2.03663 0
M  V30 7544 H 706.804 1.921 -3.35611 0
M  V30 7545 H 708.493 1.67683 -3.69645 0
M  V30 7546 H 709.259 -0.53787 -4.82008 0
M  V30 7547 H 705.138 0.660957 -4.56237 0
M  V30 7548 H 708.682 -2.0824 -6.65794 0
M  V30 7549 H 704.579 -0.876005 -6.39528 0
M  V30 7550 H 705.347 -2.37289 -7.83349 0
M  V30 7551 N 708.01 1.57248 0.105221 0
M  V30 7552 C 709.259 1.84756 0.809198 0
M  V30 7553 C 709.572 0.756262 1.80389 0
M  V30 7554 O 710.778 0.918158 2.55504 0
M  V30 7555 C 709.234 3.27613 1.48989 0
M  V30 7556 C 708.842 4.44788 0.535484 0
M  V30 7557 C 710.586 3.64356 2.17819 0
M  V30 7558 C 708.493 5.78676 1.22019 0
M  V30 7559 H 707.423 0.689139 0.305946 0
M  V30 7560 H 710.074 1.83395 0.0620371 0
M  V30 7561 H 708.456 3.23485 2.28415 0
M  V30 7562 H 709.63 4.60243 -0.226557 0
M  V30 7563 H 707.945 4.16374 -0.0465769 0
M  V30 7564 H 710.542 4.61663 2.69761 0
M  V30 7565 H 710.885 2.92474 2.96251 0
M  V30 7566 H 711.418 3.70328 1.45264 0
M  V30 7567 H 708.157 6.53763 0.476875 0
M  V30 7568 H 707.677 5.67083 1.9539 0
M  V30 7569 H 709.356 6.22897 1.74952 0
M  V30 7570 N 709.488 -0.375779 1.53054 0
M  V30 7571 C 710.904 -0.716764 1.426 0
M  V30 7572 C 711.104 -1.93651 0.556931 0
M  V30 7573 O 710.16 -2.52475 0.0354461 0
M  V30 7574 C 711.473 -0.939499 2.85646 0
M  V30 7575 C 713.021 -1.04015 2.95212 0
M  V30 7576 C 713.496 -1.29543 4.39298 0
M  V30 7577 N 714.987 -1.36335 4.42682 0
M  V30 7578 C 715.722 -1.57778 5.51266 0
M  V30 7579 N 715.218 -1.76604 6.69913 0
M  V30 7580 N 717.011 -1.60065 5.38828 0
M  V30 7581 H 709.162 0.42664 2.08071 0
M  V30 7582 H 711.425 0.128758 0.939215 0
M  V30 7583 H 711.131 -0.115189 3.51511 0
M  V30 7584 H 711.005 -1.85048 3.2869 0
M  V30 7585 H 713.392 -1.85501 2.29507 0
M  V30 7586 H 713.473 -0.106785 2.55577 0
M  V30 7587 H 713.117 -0.485611 5.05573 0
M  V30 7588 H 713.047 -2.24184 4.76497 0
M  V30 7589 H 715.538 -1.23441 3.5717 0
M  V30 7590 H 715.851 -1.9251 7.48438 0
M  V30 7591 H 714.196 -1.73802 6.72917 0
M  V30 7592 H 717.387 -1.44917 4.45103 0
M  V30 7593 H 717.56 -1.76435 6.23518 0
M  V30 7594 N 710.966 -1.44241 -0.634997 0
M  V30 7595 C 712.382 -1.28043 -0.952742 0
M  V30 7596 C 712.582 -0.21338 -2.00367 0
M  V30 7597 O 711.638 0.402042 -2.49279 0
M  V30 7598 C 712.951 -2.65076 -1.41968 0
M  V30 7599 C 714.499 -2.72755 -1.53537 0
M  V30 7600 C 714.974 -4.10249 -2.03616 0
M  V30 7601 N 716.465 -4.12406 -2.10892 0
M  V30 7602 C 717.2 -5.15641 -2.50803 0
M  V30 7603 N 716.696 -6.29239 -2.89879 0
M  V30 7604 N 718.489 -5.02995 -2.50903 0
M  V30 7605 H 710.64 -2.12315 0.060098 0
M  V30 7606 H 712.903 -0.947326 -0.0357325 0
M  V30 7607 H 712.609 -3.44213 -0.721804 0
M  V30 7608 H 712.483 -2.91704 -2.39141 0
M  V30 7609 H 714.87 -1.93939 -2.22422 0
M  V30 7610 H 714.951 -2.49872 -0.547496 0
M  V30 7611 H 714.595 -4.8954 -1.35327 0
M  V30 7612 H 714.525 -4.30507 -3.03268 0
M  V30 7613 H 717.016 -3.30417 -1.83393 0
M  V30 7614 H 717.329 -7.03827 -3.19135 0
M  V30 7615 H 715.674 -6.32683 -2.8764 0
M  V30 7616 H 718.865 -4.13306 -2.19763 0
M  V30 7617 H 719.038 -5.83574 -2.81683 0
M  V30 7618 N 712.444 0.87505 -1.31075 0
M  V30 7619 C 713.377 1.98471 -1.12625 0
M  V30 7620 C 714.355 1.6257 -0.0311379 0
M  V30 7621 O 715.539 1.87574 -0.186594 0
M  V30 7622 C 712.666 3.30963 -0.719799 0
M  V30 7623 C 711.712 3.85849 -1.81722 0
M  V30 7624 S 712.545 4.11926 -3.42165 0
M  V30 7625 C 713.701 5.47423 -3.03445 0
M  V30 7626 H 713.934 2.13817 -2.06566 0
M  V30 7627 H 711.467 1.02463 -1.15502 0
M  V30 7628 H 713.425 4.07541 -0.492035 0
M  V30 7629 H 712.086 3.1346 0.200413 0
M  V30 7630 H 711.279 4.81616 -1.48533 0
M  V30 7631 H 710.881 3.16046 -1.99977 0
M  V30 7632 H 713.173 6.28881 -2.52023 0
M  V30 7633 H 714.116 5.85557 -3.98157 0
M  V30 7634 H 714.524 5.10455 -2.41031 0
M  V30 7635 N 713.922 1.13953 1.08869 0
M  V30 7636 C 715.168 0.906151 1.8143 0
M  V30 7637 C 715.501 -0.566089 1.85766 0
M  V30 7638 O 714.776 -1.41915 1.33006 0
M  V30 7639 C 715.059 1.50183 3.27287 0
M  V30 7640 C 714.912 3.04359 3.31189 0
M  V30 7641 C 716.231 1.17477 4.24131 0
M  V30 7642 H 713.35 0.330624 0.658678 0
M  V30 7643 H 715.992 1.40873 1.27495 0
M  V30 7644 H 714.142 1.07442 3.73348 0
M  V30 7645 H 715.814 3.55896 2.93488 0
M  V30 7646 H 714.057 3.39053 2.70602 0
M  V30 7647 H 714.728 3.41141 4.33966 0
M  V30 7648 H 717.204 1.5442 3.86385 0
M  V30 7649 H 716.08 1.61795 5.24513 0
M  V30 7650 H 716.341 0.0893312 4.4201 0
M  V30 7651 N 715.4 -1.26948 0.933913 0
M  V30 7652 C 716.347 -2.26635 0.436484 0
M  V30 7653 C 717.317 -1.58397 -0.499953 0
M  V30 7654 O 718.502 -1.86171 -0.417753 0
M  V30 7655 C 715.642 -3.43803 -0.298951 0
M  V30 7656 C 714.755 -4.26736 0.672316 0
M  V30 7657 C 713.89 -5.31134 -0.0835872 0
M  V30 7658 C 712.929 -6.05742 0.879979 0
M  V30 7659 N 712.066 -7.01926 0.156301 0
M  V30 7660 H 716.906 -2.68558 1.29154 0
M  V30 7661 H 714.443 -1.32052 0.648118 0
M  V30 7662 H 716.401 -4.10554 -0.741723 0
M  V30 7663 H 715.031 -3.02814 -1.1182 0
M  V30 7664 H 714.083 -3.59842 1.23361 0
M  V30 7665 H 715.395 -4.78502 1.40846 0
M  V30 7666 H 714.549 -6.03863 -0.585984 0
M  V30 7667 H 713.288 -4.80188 -0.852661 0
M  V30 7668 H 712.293 -5.31846 1.39357 0
M  V30 7669 H 713.518 -6.58777 1.64894 0
M  V30 7670 H 711.464 -6.53301 -0.594413 0
M  V30 7671 H 711.381 -7.51409 0.831906 0
M  V30 7672 H 712.649 -7.78821 -0.325239 0
M  V30 7673 N 716.879 -0.700114 -1.41195 0
M  V30 7674 C 718.107 -0.242179 -2.05478 0
M  V30 7675 C 718.522 1.11029 -1.52702 0
M  V30 7676 O 717.879 1.69473 -0.677127 0
M  V30 7677 C 717.93 -0.196271 -3.60967 0
M  V30 7678 O 717.651 -1.49532 -4.11791 0
M  V30 7679 C 719.152 0.282102 -4.42401 0
M  V30 7680 H 716.372 -0.111749 -0.661629 0
M  V30 7681 H 718.916 -0.953975 -1.80885 0
M  V30 7682 H 717.071 0.46638 -3.84582 0
M  V30 7683 H 717.485 -1.38545 -5.05871 0
M  V30 7684 H 718.959 0.263093 -5.51373 0
M  V30 7685 H 719.436 1.32174 -4.1884 0
M  V30 7686 H 720.042 -0.349712 -4.2386 0
M  V30 7687 N 718.357 1.51182 -0.445186 0
M  V30 7688 C 719.289 2.25714 0.398206 0
M  V30 7689 C 720.302 1.30032 0.979562 0
M  V30 7690 O 721.491 1.55731 0.872368 0
M  V30 7691 C 718.591 3.00348 1.56985 0
M  V30 7692 C 717.764 4.23187 1.10596 0
M  V30 7693 C 716.823 4.80334 2.14863 0
M  V30 7694 O 715.849 5.4196 1.73977 0
M  V30 7695 N 717.051 4.65053 3.47427 0
M  V30 7696 H 719.816 2.98732 -0.240629 0
M  V30 7697 H 717.377 1.59556 -0.274507 0
M  V30 7698 H 719.369 3.35464 2.26376 0
M  V30 7699 H 717.939 2.30291 2.11387 0
M  V30 7700 H 717.159 3.93476 0.238832 0
M  V30 7701 H 718.447 5.02886 0.773537 0
M  V30 7702 H 717.845 4.15984 3.83372 0
M  V30 7703 H 716.402 5.04509 4.12691 0
M  V30 7704 N 719.835 0.176821 1.56605 0
M  V30 7705 C 720.798 -0.737429 2.17013 0
M  V30 7706 C 721.798 -1.15414 1.11965 0
M  V30 7707 O 722.988 -1.0702 1.37449 0
M  V30 7708 C 720.12 -2.00445 2.75744 0
M  V30 7709 H 721.313 -0.211455 2.99154 0
M  V30 7710 H 718.866 -0.0727582 1.56131 0
M  V30 7711 H 719.601 -2.57338 1.97352 0
M  V30 7712 H 719.386 -1.71456 3.52626 0
M  V30 7713 H 720.876 -2.65679 3.22187 0
M  V30 7714 N 721.313 -1.57302 -0.09688 0
M  V30 7715 C 722.56 -1.85997 -0.800699 0
M  V30 7716 C 722.888 -0.765089 -1.7882 0
M  V30 7717 O 722.143 0.241492 -1.94204 0
M  V30 7718 C 722.442 -3.21272 -1.56586 0
M  V30 7719 C 722.108 -4.45104 -0.72064 0
M  V30 7720 C 720.77 -4.78723 -0.487632 0
M  V30 7721 C 723.122 -5.2103 -0.132948 0
M  V30 7722 C 720.45 -5.85697 0.34296 0
M  V30 7723 C 722.802 -6.28881 0.684957 0
M  V30 7724 C 721.466 -6.61017 0.928073 0
M  V30 7725 H 720.736 -0.680613 -0.292997 0
M  V30 7726 H 723.383 -1.91399 -0.0622474 0
M  V30 7727 H 721.688 -3.11547 -2.37583 0
M  V30 7728 H 723.385 -3.40702 -2.11478 0
M  V30 7729 H 719.975 -4.18777 -0.912359 0
M  V30 7730 H 724.159 -4.95392 -0.300132 0
M  V30 7731 H 719.415 -6.09008 0.540317 0
M  V30 7732 H 723.589 -6.86886 1.14721 0
M  V30 7733 H 721.216 -7.43738 1.57348 0
M  V30 7734 N 722.791 0.367657 -1.53252 0
M  V30 7735 C 724.021 1.12955 -1.72988 0
M  V30 7736 C 724.429 1.8358 -0.457708 0
M  V30 7737 O 723.772 1.74336 0.579006 0
M  V30 7738 C 723.834 2.20545 -2.83902 0
M  V30 7739 C 723.498 1.69704 -4.24323 0
M  V30 7740 C 724.495 1.16223 -5.06743 0
M  V30 7741 C 722.18 1.7528 -4.70725 0
M  V30 7742 C 724.174 0.689935 -6.33655 0
M  V30 7743 C 721.861 1.27662 -5.97617 0
M  V30 7744 C 722.859 0.746083 -6.78913 0
M  V30 7745 O 722.547 0.276925 -8.03423 0
M  V30 7746 H 722.279 0.343753 -0.582074 0
M  V30 7747 H 724.833 0.433106 -2.00782 0
M  V30 7748 H 723.063 2.93676 -2.51577 0
M  V30 7749 H 724.752 2.82111 -2.91836 0
M  V30 7750 H 725.518 1.11256 -4.72067 0
M  V30 7751 H 721.397 2.15515 -4.07522 0
M  V30 7752 H 724.941 0.275164 -6.97057 0
M  V30 7753 H 720.838 1.32322 -6.31792 0
M  V30 7754 H 721.606 0.396445 -8.17539 0
M  V30 7755 N 724.269 1.44576 0.627338 0
M  V30 7756 C 725.515 1.4877 1.38705 0
M  V30 7757 C 725.87 0.119976 1.92026 0
M  V30 7758 O 725.163 -0.865341 1.70946 0
M  V30 7759 C 725.357 2.48644 2.56731 0
M  V30 7760 C 725.186 3.94994 2.14965 0
M  V30 7761 C 723.956 4.63139 2.02065 0
M  V30 7762 C 726.154 4.841 1.73643 0
M  V30 7763 N 724.136 5.94296 1.53902 0
M  V30 7764 C 725.507 6.0473 1.36753 0
M  V30 7765 C 727.562 4.71131 1.61058 0
M  V30 7766 C 726.265 7.13831 0.885353 0
M  V30 7767 C 728.291 5.8026 1.14244 0
M  V30 7768 C 727.653 7.00034 0.783067 0
M  V30 7769 H 723.752 0.599415 0.50222 0
M  V30 7770 H 726.336 1.80926 0.719285 0
M  V30 7771 H 724.507 2.18472 3.2113 0
M  V30 7772 H 726.239 2.4311 3.23542 0
M  V30 7773 H 722.994 4.18007 2.22637 0
M  V30 7774 H 723.418 6.63985 1.32108 0
M  V30 7775 H 728.06 3.78964 1.87473 0
M  V30 7776 H 725.778 8.05804 0.608716 0
M  V30 7777 H 729.364 5.72254 1.0496 0
M  V30 7778 H 728.244 7.8304 0.426381 0
M  V30 7779 N 725.747 -0.868086 1.31537 0
M  V30 7780 C 726.975 -1.65402 1.24298 0
M  V30 7781 C 727.39 -1.87827 -0.191389 0
M  V30 7782 O 726.747 -1.43776 -1.12404 0
M  V30 7783 C 726.798 -3.02093 1.9855 0
M  V30 7784 O 726.519 -2.80668 3.36388 0
M  V30 7785 C 728.02 -3.96538 1.98173 0
M  V30 7786 H 725.24 -0.515598 0.429417 0
M  V30 7787 H 727.784 -1.0834 1.73444 0
M  V30 7788 H 725.939 -3.55838 1.53161 0
M  V30 7789 H 726.353 -3.67504 3.74221 0
M  V30 7790 H 727.827 -4.8976 2.54635 0
M  V30 7791 H 728.304 -4.28474 0.964697 0
M  V30 7792 H 728.91 -3.48729 2.4345 0
M  V30 7793 N 727.225 -1.14528 -1.08264 0
M  V30 7794 C 728.471 -0.91576 -1.80947 0
M  V30 7795 C 728.804 0.55623 -1.86064 0
M  V30 7796 O 728.079 1.41207 -1.33756 0
M  V30 7797 C 728.362 -1.51917 -3.26486 0
M  V30 7798 C 728.215 -3.06111 -3.2957 0
M  V30 7799 C 729.534 -1.19724 -4.23502 0
M  V30 7800 H 726.653 -0.334113 -0.656915 0
M  V30 7801 H 729.295 -1.41547 -1.26746 0
M  V30 7802 H 727.445 -1.0942 -3.72773 0
M  V30 7803 H 729.117 -3.57448 -2.91597 0
M  V30 7804 H 727.36 -3.40483 -2.688 0
M  V30 7805 H 728.031 -3.43438 -4.32151 0
M  V30 7806 H 730.507 -1.56467 -3.85561 0
M  V30 7807 H 729.383 -1.64575 -5.23647 0
M  V30 7808 H 729.644 -0.112771 -4.41956 0
M  V30 7809 N 728.703 1.26451 -0.940633 0
M  V30 7810 C 729.633 2.28773 -0.467479 0
M  V30 7811 C 730.614 1.63218 0.478955 0
M  V30 7812 O 731.799 1.90427 0.380929 0
M  V30 7813 C 728.929 3.46259 0.268656 0
M  V30 7814 C 727.883 4.23898 -0.591171 0
M  V30 7815 C 727.209 5.33993 0.274891 0
M  V30 7816 C 728.509 4.87974 -1.86223 0
M  V30 7817 H 730.203 2.68601 -1.32265 0
M  V30 7818 H 727.749 1.29123 -0.637436 0
M  V30 7819 H 729.702 4.16951 0.610696 0
M  V30 7820 H 728.426 3.05383 1.15796 0
M  V30 7821 H 727.085 3.54969 -0.916098 0
M  V30 7822 H 726.733 4.89358 1.16353 0
M  V30 7823 H 726.433 5.86849 -0.297006 0
M  V30 7824 H 727.957 6.07523 0.612213 0
M  V30 7825 H 729.371 5.50883 -1.58747 0
M  V30 7826 H 727.768 5.50945 -2.37866 0
M  V30 7827 H 728.838 4.10945 -2.57394 0
M  V30 7828 N 730.181 0.707592 1.40822 0
M  V30 7829 C 731.406 0.251626 2.05868 0
M  V30 7830 C 731.831 -1.09503 1.5294 0
M  V30 7831 O 731.189 -1.68806 0.661385 0
M  V30 7832 C 731.237 0.23287 3.59847 0
M  V30 7833 O 730.341 -0.788477 4.04792 0
M  V30 7834 H 729.682 0.119936 0.653078 0
M  V30 7835 H 732.212 0.96583 1.80369 0
M  V30 7836 H 732.222 0.0678204 4.07944 0
M  V30 7837 H 730.897 1.21565 3.97737 0
M  V30 7838 H 729.474 -0.591802 3.68174 0
M  V30 7839 N 731.66 -1.50943 0.453197 0
M  V30 7840 C 732.59 -2.31005 -0.34044 0
M  V30 7841 C 733.571 -1.37112 -1.00669 0
M  V30 7842 O 734.756 -1.66033 -1.0073 0
M  V30 7843 C 731.886 -3.16358 -1.433 0
M  V30 7844 C 730.84 -4.18658 -0.889363 0
M  V30 7845 C 730.166 -4.92633 -2.07887 0
M  V30 7846 C 731.466 -5.22227 0.0871142 0
M  V30 7847 H 733.16 -2.97601 0.327723 0
M  V30 7848 H 730.706 -1.43119 0.159054 0
M  V30 7849 H 732.659 -3.71155 -1.99555 0
M  V30 7850 H 731.383 -2.47613 -2.12968 0
M  V30 7851 H 730.042 -3.64936 -0.348915 0
M  V30 7852 H 729.69 -4.20376 -2.76211 0
M  V30 7853 H 729.39 -5.61819 -1.72143 0
M  V30 7854 H 730.914 -5.50258 -2.64666 0
M  V30 7855 H 732.328 -5.72001 -0.385656 0
M  V30 7856 H 730.725 -5.99032 0.357926 0
M  V30 7857 H 731.795 -4.74077 1.01879 0
M  V30 7858 N 733.138 -0.185124 -1.56509 0
M  V30 7859 C 734.384 0.456934 -1.97585 0
M  V30 7860 C 734.717 1.61957 -1.07161 0
M  V30 7861 O 733.992 1.9412 -0.121546 0
M  V30 7862 C 734.275 0.926666 -3.47973 0
M  V30 7863 C 734.128 -0.237097 -4.49175 0
M  V30 7864 C 735.447 1.79561 -4.01803 0
M  V30 7865 H 732.566 0.164619 -0.71838 0
M  V30 7866 H 735.208 -0.274039 -1.88013 0
M  V30 7867 H 733.358 1.54954 -3.56261 0
M  V30 7868 H 735.03 -0.87454 -4.52934 0
M  V30 7869 H 733.273 -0.890446 -4.24563 0
M  V30 7870 H 733.944 0.133924 -5.51838 0
M  V30 7871 H 736.42 1.27039 -3.96232 0
M  V30 7872 H 735.296 2.09327 -5.07418 0
M  V30 7873 H 735.557 2.74629 -3.46455 0
M  V30 7874 N 734.616 1.57351 0.0885366 0
M  V30 7875 C 735.579 2.01557 1.09121 0
M  V30 7876 C 736.579 0.910052 1.3257 0
M  V30 7877 O 737.769 1.17537 1.28572 0
M  V30 7878 C 734.901 2.38189 2.43883 0
M  V30 7879 H 736.094 2.91361 0.710562 0
M  V30 7880 H 733.647 1.52694 0.333779 0
M  V30 7881 H 734.382 1.5136 2.86811 0
M  V30 7882 H 734.167 3.18846 2.28209 0
M  V30 7883 H 735.657 2.73025 3.15986 0
M  V30 7884 N 736.094 -0.359525 1.53444 0
M  V30 7885 C 737.024 -1.44662 1.8329 0
M  V30 7886 C 738.005 -1.55617 0.68683 0
M  V30 7887 O 739.19 -1.70086 0.93725 0
M  V30 7888 C 736.32 -2.81923 2.02822 0
M  V30 7889 C 735.274 -2.85787 3.18606 0
M  V30 7890 C 734.6 -4.25781 3.23442 0
M  V30 7891 C 735.9 -2.52762 4.57065 0
M  V30 7892 H 737.594 -1.19934 2.74329 0
M  V30 7893 H 735.14 -0.575517 1.31999 0
M  V30 7894 H 737.093 -3.58005 2.22285 0
M  V30 7895 H 735.817 -3.08051 1.085 0
M  V30 7896 H 734.476 -2.12157 2.98973 0
M  V30 7897 H 734.124 -4.48994 2.26745 0
M  V30 7898 H 733.824 -4.29281 4.01238 0
M  V30 7899 H 735.348 -5.03727 3.45096 0
M  V30 7900 H 736.762 -3.18557 4.76649 0
M  V30 7901 H 735.159 -2.67569 5.37147 0
M  V30 7902 H 736.229 -1.47993 4.61764 0
M  V30 7903 N 737.572 -1.44907 -0.619662 0
M  V30 7904 C 738.52 -1.52971 -1.75222 0
M  V30 7905 C 739.514 -0.400531 -1.64597 0
M  V30 7906 O 740.72 -0.575952 -1.70537 0
M  V30 7907 H 737.095 -0.480241 -0.578682 0
M  V30 7908 H 739.066 -2.48269 -1.65545 0
M  V30 7909 C 737.815 -1.50204 -3.13583 0
M  V30 7910 H 737.138 -2.36412 -3.22412 0
M  V30 7911 H 738.578 -1.59905 -3.92691 0
M  V30 7912 C 737.037 -0.22455 -3.36151 0
M  V30 7913 O 737.567 0.700574 -3.95544 0
M  V30 7914 N 735.773 -0.124052 -2.90335 0
M  V30 7915 H 735.32 -0.87774 -2.42185 0
M  V30 7916 H 735.278 0.729914 -3.0581 0
M  V30 7917 N 739.05 0.861098 -1.31996 0
M  V30 7918 C 740.278 1.6474 -1.25173 0
M  V30 7919 C 740.693 1.87926 0.181425 0
M  V30 7920 O 740.05 1.4437 1.1164 0
M  V30 7921 C 740.101 3.01036 -2.0015 0
M  V30 7922 O 739.822 2.7888 -3.37872 0
M  V30 7923 C 741.323 3.95481 -2.00273 0
M  V30 7924 H 738.543 0.513314 -0.432146 0
M  V30 7925 H 741.087 1.07419 -1.74016 0
M  V30 7926 H 739.242 3.55021 -1.55046 0
M  V30 7927 H 739.656 3.65514 -3.76165 0
M  V30 7928 H 741.13 4.88403 -2.57229 0
M  V30 7929 H 741.607 4.27957 -0.987407 0
M  V30 7930 H 742.213 3.47433 -2.45296 0
M  V30 7931 N 740.528 1.15101 1.07655 0
M  V30 7932 C 741.458 0.867864 2.16773 0
M  V30 7933 C 742.439 -0.180283 1.69142 0
M  V30 7934 O 743.624 -0.0353152 1.94168 0
M  V30 7935 C 740.754 0.35299 3.45501 0
M  V30 7936 C 739.708 1.33746 4.06566 0
M  V30 7937 C 739.034 0.681562 5.30338 0
M  V30 7938 C 740.334 2.7024 4.46954 0
M  V30 7939 H 742.028 1.78034 2.40716 0
M  V30 7940 H 739.574 0.857435 1.15689 0
M  V30 7941 H 741.527 0.142465 4.21159 0
M  V30 7942 H 740.251 -0.594945 3.21135 0
M  V30 7943 H 738.91 1.53429 3.32949 0
M  V30 7944 H 738.558 -0.272422 5.02262 0
M  V30 7945 H 738.258 1.33853 5.72151 0
M  V30 7946 H 739.782 0.48074 6.08705 0
M  V30 7947 H 741.196 2.5442 5.13754 0
M  V30 7948 H 739.593 3.32282 4.99709 0
M  V30 7949 H 740.663 3.26537 3.58471 0
M  V30 7950 N 742.006 -1.2595 0.947325 0
M  V30 7951 C 743.246 -1.95218 0.605743 0
M  V30 7952 C 743.61 -1.72624 -0.84054 0
M  V30 7953 O 744.811 -2.35748 -1.29136 0
M  V30 7954 C 743.082 -3.44654 0.94596 0
M  V30 7955 S 744.641 -4.32922 0.715849 0
M  V30 7956 H 741.459 -0.675159 0.222894 0
M  V30 7957 H 744.061 -1.52766 1.21995 0
M  V30 7958 H 742.765 -3.586 1.99585 0
M  V30 7959 H 742.296 -3.92082 0.321718 0
M  V30 7960 H 744.311 -4.94445 -0.416959 0
M  V30 7961 N 743.484 -0.715051 -1.40445 0
M  V30 7962 C 744.73 -0.254705 -2.01194 0
M  V30 7963 C 745.063 1.14894 -1.56567 0
M  V30 7964 O 744.338 1.77933 -0.785491 0
M  V30 7965 C 744.621 -0.334148 -3.58546 0
M  V30 7966 C 744.474 -1.77613 -4.13248 0
M  V30 7967 C 745.793 0.294968 -4.3911 0
M  V30 7968 H 742.912 -0.094025 -0.730978 0
M  V30 7969 H 745.554 -0.907449 -1.66929 0
M  V30 7970 H 743.704 0.221609 -3.87867 0
M  V30 7971 H 745.376 -2.38723 -3.94727 0
M  V30 7972 H 743.619 -2.30402 -3.67556 0
M  V30 7973 H 744.29 -1.78311 -5.22407 0
M  V30 7974 H 746.766 -0.178563 -4.15717 0
M  V30 7975 H 745.642 0.208934 -5.48502 0
M  V30 7976 H 745.903 1.37841 -4.20062 0
M  V30 7977 N 744.962 1.50701 -0.461195 0
M  V30 7978 C 745.925 2.2686 0.326679 0
M  V30 7979 C 746.925 1.31243 0.929085 0
M  V30 7980 O 748.115 1.54754 0.799807 0
M  V30 7981 C 745.247 3.07844 1.46441 0
M  V30 7982 H 746.44 2.97954 -0.341095 0
M  V30 7983 H 743.993 1.54814 -0.214984 0
M  V30 7984 H 744.728 2.41223 2.16753 0
M  V30 7985 H 744.513 3.78101 1.03836 0
M  V30 7986 H 746.003 3.65469 2.02044 0
M  V30 7987 N 746.441 0.193421 1.56409 0
M  V30 7988 C 747.69 -0.445995 1.96707 0
M  V30 7989 C 748.003 -1.62876 1.08309 0
M  V30 7990 O 749.209 -2.33586 1.38383 0
M  V30 7991 C 747.665 -0.844863 3.49843 0
M  V30 7992 C 747.273 0.31352 4.46902 0
M  V30 7993 C 749.017 -1.45146 3.98915 0
M  V30 7994 C 746.924 -0.106214 5.91305 0
M  V30 7995 H 745.854 -0.170398 0.734493 0
M  V30 7996 H 748.505 0.285172 1.81271 0
M  V30 7997 H 746.887 -1.63265 3.60778 0
M  V30 7998 H 748.061 1.09103 4.47698 0
M  V30 7999 H 746.376 0.8315 4.08014 0
M  V30 8000 H 748.973 -1.77792 5.04276 0
M  V30 8001 H 749.316 -2.35734 3.43126 0
M  V30 8002 H 749.849 -0.727675 3.91088 0
M  V30 8003 H 746.588 0.765442 6.51016 0
M  V30 8004 H 746.108 -0.848623 5.93766 0
M  V30 8005 H 747.787 -0.542588 6.44721 0
M  V30 8006 N 747.919 -1.57396 -0.0801906 0
M  V30 8007 C 749.165 -1.87113 -0.782083 0
M  V30 8008 C 749.498 -0.78458 -1.77646 0
M  V30 8009 O 748.773 0.205993 -1.93406 0
M  V30 8010 C 749.056 -3.27483 -1.49756 0
M  V30 8011 C 748.909 -4.46782 -0.520171 0
M  V30 8012 C 750.228 -3.65965 -2.44454 0
M  V30 8013 H 747.347 -0.680559 -0.282858 0
M  V30 8014 H 749.989 -1.89946 -0.0454139 0
M  V30 8015 H 748.139 -3.25199 -2.12551 0
M  V30 8016 H 749.811 -4.61187 0.101919 0
M  V30 8017 H 748.054 -4.33485 0.165219 0
M  V30 8018 H 748.725 -5.41761 -1.05824 0
M  V30 8019 H 751.201 -3.69289 -1.91742 0
M  V30 8020 H 750.077 -4.65086 -2.91524 0
M  V30 8021 H 750.338 -2.95446 -3.28883 0
M  V30 8022 N 749.397 0.351382 -1.53633 0
M  V30 8023 C 750.347 1.4316 -1.77452 0
M  V30 8024 C 751.331 1.48076 -0.62946 0
M  V30 8025 O 752.523 1.53078 -0.888599 0
M  V30 8026 C 749.652 2.80409 -1.98055 0
M  V30 8027 C 748.738 2.79915 -3.18604 0
M  V30 8028 N 749.129 2.49057 -4.40232 0
M  V30 8029 C 747.427 3.11067 -3.19614 0
M  V30 8030 C 748.128 2.566 -5.22045 0
M  V30 8031 N 747.104 2.919 -4.5858 0
M  V30 8032 H 750.906 1.18188 -2.69089 0
M  V30 8033 H 748.42 0.559684 -1.52451 0
M  V30 8034 H 750.417 3.58231 -2.13251 0
M  V30 8035 H 749.077 3.06334 -1.07655 0
M  V30 8036 H 750.088 2.22395 -4.67719 0
M  V30 8037 H 746.765 3.42215 -2.39154 0
M  V30 8038 H 748.155 2.35968 -6.29101 0
M  V30 8039 N 750.875 1.45233 0.611969 0
M  V30 8040 C 752.105 1.52318 1.39581 0
M  V30 8041 C 752.513 0.153093 1.8858 0
M  V30 8042 O 751.856 -0.854792 1.62601 0
M  V30 8043 C 751.918 2.4426 2.63775 0
M  V30 8044 C 751.582 3.91079 2.36445 0
M  V30 8045 C 752.579 4.81099 1.97079 0
M  V30 8046 C 750.264 4.35958 2.49492 0
M  V30 8047 C 752.258 6.14002 1.71115 0
M  V30 8048 C 749.945 5.68903 2.23142 0
M  V30 8049 C 750.943 6.57744 1.84015 0
M  V30 8050 O 750.631 7.88226 1.5797 0
M  V30 8051 H 750.363 0.518428 0.43383 0
M  V30 8052 H 752.917 1.91067 0.753837 0
M  V30 8053 H 751.147 2.00474 3.30677 0
M  V30 8054 H 752.836 2.42077 3.25812 0
M  V30 8055 H 753.602 4.47692 1.86539 0
M  V30 8056 H 749.481 3.67053 2.78914 0
M  V30 8057 H 753.025 6.83305 1.405 0
M  V30 8058 H 748.922 6.01866 2.33297 0
M  V30 8059 H 749.69 8.00211 1.72058 0
M  V30 8060 N 752.353 -0.854086 1.3245 0
M  V30 8061 C 753.301 -1.98411 1.21391 0
M  V30 8062 C 754.295 -1.68984 0.118586 0
M  V30 8063 O 755.501 -1.77784 0.281549 0
M  V30 8064 H 751.876 -0.651077 0.376301 0
M  V30 8065 H 753.847 -2.04867 2.16961 0
M  V30 8066 C 752.596 -3.34345 0.954407 0
M  V30 8067 H 751.919 -3.57518 1.78944 0
M  V30 8068 H 753.359 -4.13959 0.917269 0
M  V30 8069 C 751.818 -3.35151 -0.342838 0
M  V30 8070 O 752.348 -3.78174 -1.35452 0
M  V30 8071 N 750.554 -2.88298 -0.365012 0
M  V30 8072 H 750.101 -2.53481 0.4588 0
M  V30 8073 H 750.059 -2.8922 -1.23284 0
M  V30 8074 N 753.831 -1.1567 -1.07043 0
M  V30 8075 C 754.763 -0.814095 -2.14255 0
M  V30 8076 C 755.776 0.175293 -1.61854 0
M  V30 8077 O 756.965 -0.0483984 -1.78434 0
M  V30 8078 C 754.065 -0.190082 -3.38367 0
M  V30 8079 C 753.238 -1.21768 -4.20109 0
M  V30 8080 C 752.297 -0.614863 -5.22595 0
M  V30 8081 O 751.323 -1.28167 -5.54583 0
M  V30 8082 N 752.525 0.601955 -5.77371 0
M  V30 8083 H 755.29 -1.73677 -2.44247 0
M  V30 8084 H 752.851 -1.05301 -1.22977 0
M  V30 8085 H 754.843 0.22604 -4.04068 0
M  V30 8086 H 753.413 0.635992 -3.06062 0
M  V30 8087 H 752.633 -1.81025 -3.50177 0
M  V30 8088 H 753.921 -1.9114 -4.71533 0
M  V30 8089 H 753.319 1.162 -5.53637 0
M  V30 8090 H 751.876 0.96039 -6.44686 0
M  V30 8091 N 755.309 1.25446 -0.953992 0
M  V30 8092 C 756.72 1.75047 -0.649255 0
M  V30 8093 C 757.071 1.77527 0.835385 0
M  V30 8094 O 756.196 1.39569 1.65377 0
M  V30 8095 C 756.791 3.17889 -1.17183 0
M  V30 8096 C 755.35 3.65052 -0.917267 0
M  V30 8097 C 754.497 2.44124 -1.31525 0
M  V30 8098 H 757.448 1.11342 -1.13087 0
M  V30 8099 H 757.469 3.76768 -0.531616 0
M  V30 8100 H 756.981 3.16052 -2.25239 0
M  V30 8101 H 755.082 3.72305 0.148354 0
M  V30 8102 H 755.195 4.53222 -1.55328 0
M  V30 8103 H 753.559 2.43906 -0.733624 0
M  V30 8104 H 754.342 2.44979 -2.405 0
M  V30 8105 N 756.787 0.722489 1.40064 0
M  V30 8106 C 757.697 0.0755984 2.34478 0
M  V30 8107 C 758.713 -0.736046 1.57665 0
M  V30 8108 O 759.889 -0.667407 1.9002 0
M  V30 8109 C 756.954 -0.830075 3.36616 0
M  V30 8110 C 756.015 -0.00759884 4.29299 0
M  V30 8111 C 755.248 -0.870139 5.26559 0
M  V30 8112 O 755.471 -2.10921 5.2997 0
M  V30 8113 O 754.405 -0.305454 6.01124 0
M  V30 8114 H 758.231 0.854545 2.9143 0
M  V30 8115 H 755.816 0.483032 1.41376 0
M  V30 8116 H 757.698 -1.34864 3.99236 0
M  V30 8117 H 756.373 -1.58805 2.82069 0
M  V30 8118 H 755.28 0.556199 3.69942 0
M  V30 8119 H 756.613 0.712312 4.87018 0
M  V30 8120 N 758.265 -1.50454 0.469181 0
M  V30 8121 C 759.511 -2.03248 -0.0787241 0
M  V30 8122 C 759.866 -1.34499 -1.37578 0
M  V30 8123 O 759.159 -0.461173 -1.85967 0
M  V30 8124 C 759.353 -3.55963 -0.320207 0
M  V30 8125 C 759.182 -4.3951 0.951893 0
M  V30 8126 C 757.952 -4.82689 1.49465 0
M  V30 8127 C 760.15 -4.79999 1.84677 0
M  V30 8128 N 758.132 -5.50553 2.71597 0
M  V30 8129 C 759.503 -5.47254 2.91398 0
M  V30 8130 C 761.558 -4.61959 1.85738 0
M  V30 8131 C 760.261 -5.98381 3.99166 0
M  V30 8132 C 762.287 -5.14024 2.92461 0
M  V30 8133 C 761.649 -5.81253 3.97901 0
M  V30 8134 H 757.748 -0.78192 0.0111715 0
M  V30 8135 H 760.332 -1.83986 0.636961 0
M  V30 8136 H 758.503 -3.75174 -1.00493 0
M  V30 8137 H 760.235 -3.95407 -0.862285 0
M  V30 8138 H 756.99 -4.61948 1.0441 0
M  V30 8139 H 757.414 -5.89093 3.33615 0
M  V30 8140 H 762.056 -4.09416 1.05539 0
M  V30 8141 H 759.774 -6.49961 4.80183 0
M  V30 8142 H 763.36 -5.01897 2.94263 0
M  V30 8143 H 762.24 -6.20814 4.79123 0
M  V30 8144 N 759.743 -0.201713 -1.56304 0
M  V30 8145 C 760.673 0.71155 -2.22394 0
M  V30 8146 C 761.654 1.21625 -1.18917 0
M  V30 8147 O 762.839 1.26388 -1.47444 0
M  V30 8148 C 759.969 1.92837 -2.88845 0
M  V30 8149 C 758.923 1.55831 -3.98623 0
M  V30 8150 C 758.249 2.85228 -4.52271 0
M  V30 8151 C 759.549 0.763249 -5.16693 0
M  V30 8152 H 761.243 0.160573 -2.98969 0
M  V30 8153 H 758.789 0.0757916 -1.438 0
M  V30 8154 H 760.742 2.57253 -3.33764 0
M  V30 8155 H 759.466 2.50398 -2.09686 0
M  V30 8156 H 758.125 0.9377 -3.54405 0
M  V30 8157 H 757.773 3.40893 -3.69866 0
M  V30 8158 H 757.473 2.6121 -5.26349 0
M  V30 8159 H 758.997 3.50622 -4.99897 0
M  V30 8160 H 760.411 1.31066 -5.58117 0
M  V30 8161 H 758.808 0.620935 -5.96879 0
M  V30 8162 H 759.878 -0.234322 -4.84334 0
M  V30 8163 N 761.222 1.57436 0.0718424 0
M  V30 8164 C 762.447 1.91858 0.787745 0
M  V30 8165 C 762.872 0.798119 1.70328 0
M  V30 8166 O 762.23 -0.24905 1.79581 0
M  V30 8167 C 762.278 3.25232 1.55744 0
M  V30 8168 O 761.382 3.14462 2.6681 0
M  V30 8169 H 760.723 0.628258 0.214914 0
M  V30 8170 H 763.253 2.04561 0.0401012 0
M  V30 8171 H 763.263 3.59105 1.9367 0
M  V30 8172 H 761.938 4.0636 0.885691 0
M  V30 8173 H 760.515 2.92148 2.31741 0
M  V30 8174 N 762.7 -0.34323 1.53817 0
M  V30 8175 C 763.977 -1.10047 1.61706 0
M  V30 8176 C 764.357 -2.06495 0.438514 0
M  V30 8177 O 763.705 -2.21297 -0.569188 0
M  V30 8178 C 763.915 -1.81985 2.97796 0
M  V30 8179 C 765.263 -2.35717 3.53161 0
M  V30 8180 O 766.287 -1.9208 2.99973 0
M  V30 8181 O 765.146 -3.15551 4.46195 0
M  V30 8182 H 762.24 -0.506096 0.654061 0
M  V30 8183 H 764.786 -0.344697 1.66162 0
M  V30 8184 H 763.558 -1.11722 3.75012 0
M  V30 8185 H 763.181 -2.64419 2.96931 0
M  V30 8186 N 764.178 -1.45556 -0.604258 0
M  V30 8187 C 765.425 -1.49746 -1.36317 0
M  V30 8188 C 765.753 -0.140516 -1.93992 0
M  V30 8189 O 765.008 0.861244 -1.7573 0
M  V30 8190 C 765.307 -2.52697 -2.52743 0
M  V30 8191 C 764.973 -3.97315 -2.13195 0
M  V30 8192 C 763.635 -4.36692 -2.02123 0
M  V30 8193 C 765.987 -4.88249 -1.8238 0
M  V30 8194 C 763.315 -5.64895 -1.58463 0
M  V30 8195 C 765.667 -6.16867 -1.40205 0
M  V30 8196 C 764.331 -6.55172 -1.27694 0
M  V30 8197 H 763.601 -0.54796 -0.49882 0
M  V30 8198 H 766.248 -1.7892 -0.682643 0
M  V30 8199 H 764.553 -2.17105 -3.26148 0
M  V30 8200 H 766.25 -2.53176 -3.10971 0
M  V30 8201 H 762.84 -3.66176 -2.22739 0
M  V30 8202 H 767.024 -4.58561 -1.89829 0
M  V30 8203 H 762.28 -5.93365 -1.47402 0
M  V30 8204 H 766.454 -6.86771 -1.15408 0
M  V30 8205 H 764.081 -7.54411 -0.936375 0
M  V30 8206 N 765.656 0.84705 -1.32902 0
M  V30 8207 C 766.586 1.97166 -1.25091 0
M  V30 8208 C 767.567 1.69578 -0.133161 0
M  V30 8209 O 768.752 1.91519 -0.321591 0
M  V30 8210 C 765.882 3.33157 -0.981006 0
M  V30 8211 C 764.836 3.75119 -2.06082 0
M  V30 8212 C 764.162 5.08826 -1.64318 0
M  V30 8213 C 765.462 3.89774 -3.47669 0
M  V30 8214 H 767.156 2.03958 -2.19184 0
M  V30 8215 H 764.702 0.979907 -1.05517 0
M  V30 8216 H 766.655 4.11393 -0.912891 0
M  V30 8217 H 765.379 3.266 -0.00445559 0
M  V30 8218 H 764.038 2.9914 -2.11921 0
M  V30 8219 H 763.686 4.98732 -0.653876 0
M  V30 8220 H 763.386 5.37873 -2.36572 0
M  V30 8221 H 764.91 5.89546 -1.58958 0
M  V30 8222 H 766.324 4.58343 -3.44376 0
M  V30 8223 H 764.721 4.30248 -4.18338 0
M  V30 8224 H 765.791 2.92463 -3.86773 0
M  V30 8225 N 767.134 1.16236 1.06428 0
M  V30 8226 C 768.364 0.965782 1.82637 0
M  V30 8227 C 768.772 -0.489284 1.82764 0
M  V30 8228 O 768.115 -1.35133 1.24438 0
M  V30 8229 C 768.177 1.41458 3.30499 0
M  V30 8230 C 767.841 2.88926 3.54077 0
M  V30 8231 C 768.838 3.86939 3.47238 0
M  V30 8232 C 766.523 3.26814 3.81442 0
M  V30 8233 C 768.517 5.20841 3.67428 0
M  V30 8234 C 766.204 4.60886 4.01282 0
M  V30 8235 C 767.202 5.57708 3.94272 0
M  V30 8236 O 766.89 6.89357 4.13573 0
M  V30 8237 H 766.622 0.342569 0.582772 0
M  V30 8238 H 769.176 1.54641 1.35187 0
M  V30 8239 H 767.406 0.777426 3.78805 0
M  V30 8240 H 769.095 1.18563 3.88198 0
M  V30 8241 H 769.861 3.59014 3.26089 0
M  V30 8242 H 765.74 2.5203 3.86008 0
M  V30 8243 H 769.284 5.96401 3.61873 0
M  V30 8244 H 765.181 4.88522 4.21921 0
M  V30 8245 H 765.949 6.95913 4.30869 0
M  V30 8246 N 768.612 -1.24939 0.960631 0
M  V30 8247 C 769.842 -1.96595 0.635123 0
M  V30 8248 C 770.25 -1.71538 -0.798206 0
M  V30 8249 O 769.593 -0.991727 -1.5463 0
M  V30 8250 C 769.655 -3.49994 0.821248 0
M  V30 8251 C 769.319 -3.98738 2.23287 0
M  V30 8252 C 770.316 -4.08965 3.21004 0
M  V30 8253 C 768.001 -4.32247 2.55867 0
M  V30 8254 C 769.995 -4.52025 4.49391 0
M  V30 8255 C 767.682 -4.74991 3.84482 0
M  V30 8256 C 768.68 -4.84844 4.81056 0
M  V30 8257 O 768.368 -5.26638 6.07378 0
M  V30 8258 H 768.1 -0.633265 0.23654 0
M  V30 8259 H 770.654 -1.5991 1.28911 0
M  V30 8260 H 768.884 -3.86543 0.110105 0
M  V30 8261 H 770.573 -4.02859 0.495892 0
M  V30 8262 H 771.339 -3.83302 2.97161 0
M  V30 8263 H 767.218 -4.23801 1.81421 0
M  V30 8264 H 770.762 -4.5963 5.24773 0
M  V30 8265 H 766.659 -5.00101 4.08129 0
M  V30 8266 H 767.427 -5.44807 6.10842 0
M  V30 8267 N 770.09 -0.729906 -1.39679 0
M  V30 8268 C 771.053 -0.0951668 -2.29002 0
M  V30 8269 C 772.053 0.672471 -1.46063 0
M  V30 8270 O 773.243 0.502245 -1.66803 0
M  V30 8271 C 770.375 0.874631 -3.29489 0
M  V30 8272 H 771.568 -0.882062 -2.86635 0
M  V30 8273 H 769.121 -0.495424 -1.4824 0
M  V30 8274 H 769.856 1.68807 -2.76902 0
M  V30 8275 H 769.641 0.326893 -3.90735 0
M  V30 8276 H 771.131 1.31548 -3.96339 0
M  V30 8277 N 771.568 1.50203 -0.477153 0
M  V30 8278 C 772.478 2.32421 0.319027 0
M  V30 8279 C 773.494 1.43075 0.990233 0
M  V30 8280 O 774.67 1.76123 0.976873 0
M  V30 8281 C 771.735 3.17909 1.38328 0
M  V30 8282 C 770.796 4.23082 0.728036 0
M  V30 8283 C 770.029 5.04484 1.74158 0
M  V30 8284 O 770.252 4.8705 2.96881 0
M  V30 8285 O 769.186 5.8747 1.31006 0
M  V30 8286 H 773.012 3.01638 -0.353281 0
M  V30 8287 H 770.597 1.47478 -0.238891 0
M  V30 8288 H 772.479 3.70937 1.9996 0
M  V30 8289 H 771.154 2.51413 2.03895 0
M  V30 8290 H 770.061 3.7403 0.07261 0
M  V30 8291 H 771.394 4.92065 0.115216 0
M  V30 8292 N 773.046 0.209999 1.56195 0
M  V30 8293 C 774.293 -0.424813 1.97994 0
M  V30 8294 C 774.621 -1.60589 1.09733 0
M  V30 8295 O 773.876 -1.95201 0.139693 0
M  V30 8296 C 774.175 -0.91312 3.45539 0
M  V30 8297 C 773.841 0.156187 4.50629 0
M  V30 8298 C 772.503 0.449966 4.79092 0
M  V30 8299 C 774.855 0.879959 5.13718 0
M  V30 8300 C 772.183 1.47223 5.67928 0
M  V30 8301 C 774.535 1.89148 6.0366 0
M  V30 8302 C 773.199 2.1923 6.30472 0
M  V30 8303 H 772.469 -0.15545 0.724511 0
M  V30 8304 H 775.116 0.310095 1.88973 0
M  V30 8305 H 773.421 -1.72658 3.51705 0
M  V30 8306 H 775.118 -1.41395 3.75245 0
M  V30 8307 H 771.708 -0.0829466 4.2852 0
M  V30 8308 H 775.892 0.66623 4.91808 0
M  V30 8309 H 771.148 1.71105 5.86969 0
M  V30 8310 H 775.322 2.45745 6.516 0
M  V30 8311 H 772.949 2.98587 6.99107 0
M  V30 8312 N 774.524 -1.57472 -0.0634922 0
M  V30 8313 C 775.773 -1.86837 -0.759928 0
M  V30 8314 C 776.086 -0.803823 -1.7832 0
M  V30 8315 O 777.292 -0.985578 -2.52979 0
M  V30 8316 C 775.748 -3.31448 -1.4025 0
M  V30 8317 C 775.356 -4.46052 -0.417368 0
M  V30 8318 C 777.1 -3.70003 -2.08082 0
M  V30 8319 C 775.007 -5.81707 -1.06633 0
M  V30 8320 H 773.937 -0.697009 -0.287567 0
M  V30 8321 H 776.588 -1.83495 -0.0133914 0
M  V30 8322 H 774.97 -3.29427 -2.19759 0
M  V30 8323 H 776.144 -4.5948 0.348503 0
M  V30 8324 H 774.459 -4.16104 0.156955 0
M  V30 8325 H 777.056 -4.68653 -2.57426 0
M  V30 8326 H 777.399 -3.00226 -2.88393 0
M  V30 8327 H 777.932 -3.7405 -1.35394 0
M  V30 8328 H 774.671 -6.54798 -0.303374 0
M  V30 8329 H 774.191 -5.72064 -1.80286 0
M  V30 8330 H 775.87 -6.27317 -1.58376 0
M  V30 8331 N 776.003 0.335068 -1.53997 0
M  V30 8332 C 777.25 1.07435 -1.71651 0
M  V30 8333 C 777.578 1.88378 -0.48413 0
M  V30 8334 O 776.833 1.8827 0.534139 0
M  V30 8335 C 777.132 2.0364 -2.9371 0
M  V30 8336 C 776.798 1.38942 -4.28959 0
M  V30 8337 C 775.46 1.21027 -4.65732 0
M  V30 8338 C 777.812 0.924083 -5.12943 0
M  V30 8339 C 775.14 0.552097 -5.84097 0
M  V30 8340 C 777.492 0.27978 -6.31981 0
M  V30 8341 C 776.156 0.0883843 -6.67441 0
M  V30 8342 H 775.426 0.393133 -0.628114 0
M  V30 8343 H 778.073 0.352712 -1.88224 0
M  V30 8344 H 776.378 2.82215 -2.71775 0
M  V30 8345 H 778.075 2.6085 -3.04562 0
M  V30 8346 H 774.665 1.53885 -4.00022 0
M  V30 8347 H 778.849 1.05032 -4.85059 0
M  V30 8348 H 774.105 0.392502 -6.10139 0
M  V30 8349 H 778.279 -0.0888479 -6.96343 0
M  V30 8350 H 775.906 -0.423657 -7.59019 0
M  V30 8351 N 777.481 1.45874 0.596531 0
M  V30 8352 C 778.411 1.5824 1.71705 0
M  V30 8353 C 779.392 0.433366 1.64487 0
M  V30 8354 O 780.577 0.657895 1.82717 0
M  V30 8355 C 777.707 1.55927 3.10329 0
M  V30 8356 C 776.661 2.69659 3.32367 0
M  V30 8357 C 775.987 2.52403 4.71377 0
M  V30 8358 C 777.287 4.11591 3.21544 0
M  V30 8359 H 778.981 2.52035 1.61613 0
M  V30 8360 H 776.527 1.21297 0.776082 0
M  V30 8361 H 778.48 1.63173 3.88526 0
M  V30 8362 H 777.204 0.586674 3.21288 0
M  V30 8363 H 775.863 2.61859 2.56564 0
M  V30 8364 H 775.511 1.53258 4.79083 0
M  V30 8365 H 775.211 3.28679 4.87077 0
M  V30 8366 H 776.735 2.6152 5.5176 0
M  V30 8367 H 778.149 4.20576 3.89601 0
M  V30 8368 H 776.546 4.88344 3.4877 0
M  V30 8369 H 777.616 4.32719 2.1882 0
M  V30 8370 N 778.959 -0.83999 1.33349 0
M  V30 8371 C 780.207 -1.59202 1.24496 0
M  V30 8372 C 780.528 -1.94077 -0.189499 0
M  V30 8373 O 779.798 -1.60868 -1.11796 0
M  V30 8374 H 778.378 -0.590276 0.457802 0
M  V30 8375 H 781.04 -1.00394 1.67054 0
M  V30 8376 H 780.136 -2.52247 1.83788 0
M  V30 8377 N 780.437 -1.16799 -1.0581 0
M  V30 8378 C 781.367 -0.902241 -2.15364 0
M  V30 8379 C 782.348 0.153351 -1.69407 0
M  V30 8380 O 783.533 0.00442032 -1.94199 0
M  V30 8381 C 780.663 -0.407911 -3.44896 0
M  V30 8382 C 779.617 -1.40197 -4.04387 0
M  V30 8383 C 778.943 -0.765848 -5.29187 0
M  V30 8384 C 780.243 -2.77316 -4.42598 0
M  V30 8385 H 781.937 -1.81841 -2.37853 0
M  V30 8386 H 779.483 -0.875731 -1.14311 0
M  V30 8387 H 781.436 -0.20945 -4.20879 0
M  V30 8388 H 780.16 0.54378 -3.22041 0
M  V30 8389 H 778.819 -1.58707 -3.30466 0
M  V30 8390 H 778.467 0.192482 -5.02632 0
M  V30 8391 H 778.167 -1.42939 -5.69949 0
M  V30 8392 H 779.691 -0.577519 -6.07863 0
M  V30 8393 H 781.105 -2.62561 -5.09642 0
M  V30 8394 H 779.502 -3.4019 -4.94359 0
M  V30 8395 H 780.572 -3.32199 -3.53231 0
M  V30 8396 N 781.915 1.24427 -0.967243 0
M  V30 8397 C 783.162 1.92487 -0.62888 0
M  V30 8398 C 783.49 1.75623 0.835871 0
M  V30 8399 O 782.745 1.1027 1.61675 0
M  V30 8400 C 783.044 3.44568 -0.949096 0
M  V30 8401 C 782.71 3.816 -2.40192 0
M  V30 8402 C 781.372 3.9142 -2.799 0
M  V30 8403 C 783.724 3.99715 -3.34481 0
M  V30 8404 C 781.052 4.16771 -4.12939 0
M  V30 8405 C 783.404 4.26562 -4.67148 0
M  V30 8406 C 782.068 4.34601 -5.06634 0
M  V30 8407 H 781.338 0.704361 -0.230124 0
M  V30 8408 H 783.985 1.4772 -1.21864 0
M  V30 8409 H 782.29 3.90819 -0.277085 0
M  V30 8410 H 783.987 3.95436 -0.665692 0
M  V30 8411 H 780.577 3.74522 -2.08402 0
M  V30 8412 H 784.761 3.91531 -3.04987 0
M  V30 8413 H 780.017 4.21214 -4.43158 0
M  V30 8414 H 784.191 4.39523 -5.40178 0
M  V30 8415 H 781.818 4.53998 -6.09746 0
M  V30 8416 N 783.393 0.737304 1.3929 0
M  V30 8417 C 784.326 0.0475454 2.2815 0
M  V30 8418 C 785.304 -0.745314 1.44512 0
M  V30 8419 O 786.488 -0.727387 1.739 0
M  V30 8420 C 783.615 -0.939803 3.254 0
M  V30 8421 C 782.661 -0.235153 4.25851 0
M  V30 8422 S 783.494 1.05252 5.25055 0
M  V30 8423 C 784.65 0.0678242 6.25863 0
M  V30 8424 H 784.883 0.801117 2.86303 0
M  V30 8425 H 782.416 0.529197 1.45048 0
M  V30 8426 H 784.374 -1.50417 3.81949 0
M  V30 8427 H 783.035 -1.66623 2.66262 0
M  V30 8428 H 782.228 -0.982336 4.94334 0
M  V30 8429 H 781.83 0.257245 3.73114 0
M  V30 8430 H 784.122 -0.771779 6.7309 0
M  V30 8431 H 785.065 0.719858 7.04431 0
M  V30 8432 H 785.473 -0.305604 5.63672 0
M  V30 8433 N 784.871 -1.49948 0.485112 0
M  V30 8434 C 786.096 -2.073 -0.0645059 0
M  V30 8435 C 786.521 -1.345 -1.31497 0
M  V30 8436 O 785.879 -0.39687 -1.76903 0
M  V30 8437 C 785.927 -3.59201 -0.317304 0
M  V30 8438 O 785.031 -3.88085 -1.39514 0
M  V30 8439 H 784.372 -0.663723 0.0191822 0
M  V30 8440 H 786.902 -1.92963 0.680179 0
M  V30 8441 H 786.912 -4.04227 -0.553604 0
M  V30 8442 H 785.587 -4.11602 0.596387 0
M  V30 8443 H 784.164 -3.54885 -1.14504 0
M  V30 8444 N 786.349 -0.21828 -1.56081 0
M  V30 8445 C 787.259 0.704602 -2.23769 0
M  V30 8446 C 788.275 1.21633 -1.24425 0
M  V30 8447 O 789.451 1.25862 -1.57228 0
M  V30 8448 C 786.516 1.89725 -2.90182 0
M  V30 8449 C 785.577 1.42782 -4.0486 0
M  V30 8450 C 784.81 2.56361 -4.68097 0
M  V30 8451 O 785.033 3.74417 -4.30312 0
M  V30 8452 O 783.967 2.2775 -5.57148 0
M  V30 8453 H 787.793 0.158007 -3.03289 0
M  V30 8454 H 785.378 0.0120279 -1.49395 0
M  V30 8455 H 787.26 2.59382 -3.32113 0
M  V30 8456 H 785.935 2.432 -2.13624 0
M  V30 8457 H 784.842 0.699359 -3.67505 0
M  V30 8458 H 786.175 0.939474 -4.83151 0
M  V30 8459 N 787.827 1.57504 0.0551401 0
M  V30 8460 C 788.76 2.00155 1.09604 0
M  V30 8461 C 789.738 0.881274 1.36647 0
M  V30 8462 O 790.922 1.14498 1.49742 0
M  V30 8463 C 788.049 2.35246 2.43674 0
M  V30 8464 C 787.095 3.57452 2.32659 0
M  V30 8465 S 787.928 5.07639 1.7048 0
M  V30 8466 C 789.084 5.45947 3.06093 0
M  V30 8467 H 789.317 2.88131 0.732635 0
M  V30 8468 H 786.85 1.52122 0.264252 0
M  V30 8469 H 788.808 2.56136 3.20787 0
M  V30 8470 H 787.469 1.47769 2.7717 0
M  V30 8471 H 786.662 3.79576 3.31569 0
M  V30 8472 H 786.264 3.36279 1.63685 0
M  V30 8473 H 788.556 5.45036 4.0242 0
M  V30 8474 H 789.499 6.4656 2.88732 0
M  V30 8475 H 789.907 4.73419 3.07466 0
M  V30 8476 N 789.305 -0.326896 1.54172 0
M  V30 8477 C 790.552 -1.06523 1.72218 0
M  V30 8478 C 790.88 -1.88119 0.494114 0
M  V30 8479 O 790.135 -1.8855 -0.524147 0
M  V30 8480 C 790.434 -2.0208 2.94785 0
M  V30 8481 C 790.1 -1.36665 4.2969 0
M  V30 8482 C 788.762 -1.18556 4.66367 0
M  V30 8483 C 791.114 -0.896868 5.13425 0
M  V30 8484 C 788.442 -0.521113 5.84381 0
M  V30 8485 C 790.794 -0.246261 6.3212 0
M  V30 8486 C 789.458 -0.052987 6.67479 0
M  V30 8487 H 788.728 -0.389796 0.63019 0
M  V30 8488 H 791.375 -0.342725 1.88408 0
M  V30 8489 H 789.68 -2.8077 2.73268 0
M  V30 8490 H 791.377 -2.59231 3.05941 0
M  V30 8491 H 787.967 -1.51762 4.00832 0
M  V30 8492 H 792.151 -1.02458 4.85609 0
M  V30 8493 H 787.407 -0.36014 6.10338 0
M  V30 8494 H 791.581 0.125775 6.96286 0
M  V30 8495 H 789.208 0.463903 7.58783 0
M  V30 8496 N 790.784 -1.46188 -0.588786 0
M  V30 8497 C 792.033 -1.50452 -1.34339 0
M  V30 8498 C 792.346 -0.158096 -1.9496 0
M  V30 8499 O 793.552 -0.0784918 -2.71387 0
M  V30 8500 C 792.008 -2.65074 -2.43441 0
M  V30 8501 C 791.616 -4.06111 -1.8915 0
M  V30 8502 C 793.36 -2.78603 -3.20282 0
M  V30 8503 C 791.267 -5.12084 -2.95845 0
M  V30 8504 H 790.197 -0.559905 -0.504997 0
M  V30 8505 H 792.848 -1.72382 -0.629014 0
M  V30 8506 H 791.23 -2.36462 -3.1765 0
M  V30 8507 H 792.404 -4.44487 -1.21524 0
M  V30 8508 H 790.719 -3.97197 -1.24995 0
M  V30 8509 H 793.316 -3.54944 -3.99898 0
M  V30 8510 H 793.659 -1.85902 -3.72486 0
M  V30 8511 H 794.192 -3.06832 -2.53178 0
M  V30 8512 H 790.931 -6.06556 -2.48535 0
M  V30 8513 H 790.451 -4.78259 -3.61979 0
M  V30 8514 H 792.13 -5.37661 -3.59902 0
M  V30 8515 N 792.262 0.832906 -1.33792 0
M  V30 8516 C 793.209 1.94314 -1.24541 0
M  V30 8517 C 794.179 1.65646 -0.122753 0
M  V30 8518 O 795.364 1.88394 -0.30204 0
M  V30 8519 C 792.504 3.30395 -0.996641 0
M  V30 8520 C 791.617 3.71422 -2.20612 0
M  V30 8521 C 790.752 4.96401 -1.89101 0
M  V30 8522 C 789.791 5.2998 -3.06247 0
M  V30 8523 N 788.928 6.46137 -2.74685 0
M  V30 8524 H 793.768 2.01559 -2.19495 0
M  V30 8525 H 791.305 0.986243 -1.09141 0
M  V30 8526 H 793.263 4.08803 -0.832817 0
M  V30 8527 H 791.893 3.22691 -0.0838242 0
M  V30 8528 H 790.945 2.88488 -2.47949 0
M  V30 8529 H 792.257 3.92215 -3.0817 0
M  V30 8530 H 791.411 5.82572 -1.69396 0
M  V30 8531 H 790.15 4.7759 -0.987882 0
M  V30 8532 H 789.155 4.42312 -3.26559 0
M  V30 8533 H 790.38 5.50737 -3.97323 0
M  V30 8534 H 788.326 6.28801 -1.86938 0
M  V30 8535 H 788.243 6.67054 -3.55774 0
M  V30 8536 H 789.511 7.35403 -2.58461 0
M  V30 8537 N 793.74 1.17359 1.05189 0
M  V30 8538 C 794.673 0.833768 2.12423 0
M  V30 8539 C 795.651 -0.19945 1.61372 0
M  V30 8540 O 796.835 -0.080979 1.88326 0
M  V30 8541 C 793.962 0.243745 3.37822 0
M  V30 8542 C 793.008 1.25235 4.07699 0
M  V30 8543 S 793.841 2.80368 4.56239 0
M  V30 8544 C 794.997 2.22846 5.84885 0
M  V30 8545 H 795.23 1.74197 2.40921 0
M  V30 8546 H 792.763 0.998242 1.1779 0
M  V30 8547 H 794.721 -0.0901915 4.10401 0
M  V30 8548 H 793.382 -0.642396 3.07461 0
M  V30 8549 H 792.575 0.788168 4.97799 0
M  V30 8550 H 792.177 1.53194 3.41185 0
M  V30 8551 H 794.469 1.60403 6.58238 0
M  V30 8552 H 795.412 3.112 6.3605 0
M  V30 8553 H 795.82 1.66296 5.39449 0
M  V30 8554 N 795.218 -1.23913 0.973828 0
M  V30 8555 C 796.448 -1.95911 0.655938 0
M  V30 8556 C 796.856 -1.72375 -0.779967 0
M  V30 8557 O 796.199 -1.00807 -1.5357 0
M  V30 8558 C 796.261 -3.49103 0.858324 0
M  V30 8559 C 795.925 -3.96347 2.27504 0
M  V30 8560 C 796.922 -4.05537 3.25324 0
M  V30 8561 C 794.607 -4.29509 2.60437 0
M  V30 8562 C 796.601 -4.47233 4.5416 0
M  V30 8563 C 794.288 -4.70887 3.89498 0
M  V30 8564 C 795.286 -4.79714 4.86172 0
M  V30 8565 O 794.974 -5.20166 6.1293 0
M  V30 8566 H 794.706 -0.630721 0.243244 0
M  V30 8567 H 797.26 -1.58534 1.30599 0
M  V30 8568 H 795.49 -3.86405 0.151097 0
M  V30 8569 H 797.179 -4.02311 0.538592 0
M  V30 8570 H 797.945 -3.80128 3.0121 0
M  V30 8571 H 793.824 -4.21853 1.85906 0
M  V30 8572 H 797.368 -4.54038 5.29618 0
M  V30 8573 H 793.265 -4.95744 4.1341 0
M  V30 8574 H 794.033 -5.38298 6.16586 0
M  V30 8575 N 796.696 -0.74468 -1.38897 0
M  V30 8576 C 797.944 -0.296298 -1.99916 0
M  V30 8577 C 798.265 1.12325 -1.59399 0
M  V30 8578 O 797.535 1.76658 -0.846689 0
M  V30 8579 H 796.115 -0.106561 -0.73936 0
M  V30 8580 H 798.777 -0.956793 -1.69798 0
M  V30 8581 H 797.873 -0.352356 -3.10105 0
M  V30 8582 N 798.174 1.49689 -0.493057 0
M  V30 8583 C 799.104 2.31826 0.279073 0
M  V30 8584 C 800.085 1.39733 0.969987 0
M  V30 8585 O 801.27 1.68646 0.962925 0
M  V30 8586 C 798.4 3.20046 1.34862 0
M  V30 8587 C 797.354 4.20869 0.77805 0
M  V30 8588 C 796.68 4.97971 1.94753 0
M  V30 8589 C 797.98 5.21813 -0.225543 0
M  V30 8590 H 799.674 2.96627 -0.406512 0
M  V30 8591 H 797.22 1.42647 -0.196943 0
M  V30 8592 H 799.173 3.76315 1.89645 0
M  V30 8593 H 797.897 2.53172 2.06328 0
M  V30 8594 H 796.556 3.65733 0.252036 0
M  V30 8595 H 796.204 4.27552 2.64969 0
M  V30 8596 H 795.904 5.66186 1.57187 0
M  V30 8597 H 797.428 5.57082 2.49984 0
M  V30 8598 H 798.842 5.72823 0.233864 0
M  V30 8599 H 797.239 5.97872 -0.516622 0
M  V30 8600 H 798.309 4.71209 -1.14412 0
M  V30 8601 N 799.652 0.226554 1.55963 0
M  V30 8602 C 800.9 -0.402991 1.98041 0
M  V30 8603 C 801.221 -1.59938 1.11557 0
M  V30 8604 O 800.491 -1.9494 0.193719 0
M  V30 8605 H 799.071 -0.15188 0.731397 0
M  V30 8606 H 801.733 0.320613 1.92245 0
M  V30 8607 H 800.829 -0.725937 3.0354 0
M  V30 8608 N 801.13 -1.57531 -0.0467866 0
M  V30 8609 C 802.358 -1.92696 -0.753371 0
M  V30 8610 C 802.773 -0.824792 -1.69831 0
M  V30 8611 O 802.13 0.200155 -1.81399 0
M  V30 8612 C 802.181 -3.27728 -1.52566 0
M  V30 8613 O 801.902 -4.3371 -0.618674 0
M  V30 8614 C 803.403 -3.77066 -2.33101 0
M  V30 8615 H 800.623 -0.636367 -0.212788 0
M  V30 8616 H 803.167 -2.04498 -0.00959361 0
M  V30 8617 H 801.322 -3.17378 -2.22148 0
M  V30 8618 H 801.736 -5.11548 -1.15839 0
M  V30 8619 H 803.21 -4.74109 -2.82709 0
M  V30 8620 H 803.687 -3.07348 -3.13741 0
M  V30 8621 H 804.293 -3.90442 -1.68628 0
M  V30 8622 N 802.608 0.318715 -1.54344 0
M  V30 8623 C 804.024 0.663345 -1.45162 0
M  V30 8624 C 804.224 1.9145 -0.62842 0
M  V30 8625 O 803.28 2.5217 -0.129126 0
M  V30 8626 C 804.593 0.832836 -2.88937 0
M  V30 8627 C 806.141 0.929866 -2.98869 0
M  V30 8628 C 806.616 1.13149 -4.43803 0
M  V30 8629 N 808.107 1.19811 -4.47437 0
M  V30 8630 C 808.842 1.37209 -5.56742 0
M  V30 8631 N 808.338 1.51619 -6.76006 0
M  V30 8632 N 810.131 1.39956 -5.44398 0
M  V30 8633 H 802.282 -0.50357 -2.06344 0
M  V30 8634 H 804.545 -0.163528 -0.933789 0
M  V30 8635 H 804.251 -0.0153519 -3.51697 0
M  V30 8636 H 804.125 1.72721 -3.35332 0
M  V30 8637 H 806.512 1.76855 -2.36233 0
M  V30 8638 H 806.593 0.0118561 -2.55797 0
M  V30 8639 H 806.237 0.297636 -5.07027 0
M  V30 8640 H 806.167 2.06345 -4.84489 0
M  V30 8641 H 808.658 1.101 -3.61506 0
M  V30 8642 H 808.971 1.64599 -7.55067 0
M  V30 8643 H 807.316 1.48708 -6.78904 0
M  V30 8644 H 810.507 1.28298 -4.50175 0
M  V30 8645 H 810.68 1.53172 -6.29637 0
M  V30 8646 N 804.086 1.46499 0.581025 0
M  V30 8647 C 805.497 1.4604 1.16315 0
M  V30 8648 C 805.848 0.202154 1.95156 0
M  V30 8649 O 804.973 -0.694638 2.04948 0
M  V30 8650 C 805.568 2.64593 2.11604 0
M  V30 8651 C 804.127 2.6717 2.65136 0
M  V30 8652 C 803.274 2.38753 1.4104 0
M  V30 8653 H 806.225 1.54354 0.368871 0
M  V30 8654 H 806.246 2.40207 2.95095 0
M  V30 8655 H 805.758 3.56154 1.54194 0
M  V30 8656 H 803.859 1.79685 3.26411 0
M  V30 8657 H 803.972 3.67182 3.07757 0
M  V30 8658 H 802.336 1.88845 1.70908 0
M  V30 8659 H 803.119 3.32493 0.854588 0
M  V30 8660 N 805.565 -0.825799 1.34232 0
M  V30 8661 C 806.795 -1.61129 1.29309 0
M  V30 8662 C 807.203 -1.88714 -0.135589 0
M  V30 8663 O 806.546 -1.47703 -1.09222 0
M  V30 8664 C 806.608 -2.97866 2.01287 0
M  V30 8665 C 806.272 -2.9319 3.50555 0
M  V30 8666 C 807.269 -2.67978 4.45515 0
M  V30 8667 C 804.954 -3.12913 3.92926 0
M  V30 8668 C 806.948 -2.62536 5.80822 0
M  V30 8669 C 804.635 -3.07096 5.28333 0
M  V30 8670 C 805.633 -2.8194 6.22092 0
M  V30 8671 O 805.321 -2.7605 7.55018 0
M  V30 8672 H 805.053 -0.507652 0.446391 0
M  V30 8673 H 807.607 -1.03575 1.77374 0
M  V30 8674 H 805.837 -3.57327 1.47832 0
M  V30 8675 H 807.526 -3.58848 1.89691 0
M  V30 8676 H 808.292 -2.52478 4.14101 0
M  V30 8677 H 804.171 -3.3151 3.20347 0
M  V30 8678 H 807.715 -2.42821 6.53975 0
M  V30 8679 H 803.612 -3.22148 5.59367 0
M  V30 8680 H 804.38 -2.91798 7.6472 0
M  V30 8681 N 807.043 -1.17915 -1.04565 0
M  V30 8682 C 808.29 -0.971424 -1.77678 0
M  V30 8683 C 808.618 0.499401 -1.87979 0
M  V30 8684 O 807.873 1.38695 -1.38066 0
M  V30 8685 C 808.172 -1.56528 -3.213 0
M  V30 8686 C 807.838 -3.06138 -3.31044 0
M  V30 8687 C 806.5 -3.46974 -3.33411 0
M  V30 8688 C 808.852 -4.02151 -3.31548 0
M  V30 8689 C 806.18 -4.82406 -3.33918 0
M  V30 8690 C 808.532 -5.37492 -3.33595 0
M  V30 8691 C 807.196 -5.77782 -3.34251 0
M  V30 8692 H 806.466 -0.355469 -0.650171 0
M  V30 8693 H 809.113 -1.46902 -1.22849 0
M  V30 8694 H 807.418 -0.98955 -3.79098 0
M  V30 8695 H 809.115 -1.38003 -3.76505 0
M  V30 8696 H 805.705 -2.73589 -3.29919 0
M  V30 8697 H 809.889 -3.71656 -3.28916 0
M  V30 8698 H 805.145 -5.12927 -3.3274 0
M  V30 8699 H 809.319 -6.1166 -3.32934 0
M  V30 8700 H 806.946 -6.82702 -3.34397 0
M  V30 8701 N 808.521 1.23394 -0.980386 0
M  V30 8702 C 809.471 2.22634 -0.491747 0
M  V30 8703 C 810.455 1.54958 0.433222 0
M  V30 8704 O 811.647 1.75049 0.262078 0
M  V30 8705 C 808.776 3.4269 0.204531 0
M  V30 8706 C 807.862 4.17594 -0.740007 0
M  V30 8707 N 808.253 4.69458 -1.88263 0
M  V30 8708 C 806.551 4.42554 -0.553335 0
M  V30 8709 C 807.252 5.26446 -2.47446 0
M  V30 8710 N 806.228 5.14377 -1.75834 0
M  V30 8711 H 810.03 2.60363 -1.36339 0
M  V30 8712 H 807.544 1.38924 -0.841059 0
M  V30 8713 H 809.541 4.12959 0.571901 0
M  V30 8714 H 808.201 3.06477 1.07246 0
M  V30 8715 H 809.212 4.65803 -2.26381 0
M  V30 8716 H 805.889 4.16629 0.269573 0
M  V30 8717 H 807.279 5.77195 -3.43941 0
M  V30 8718 N 809.999 0.752036 1.385 0
M  V30 8719 C 811.224 0.316993 2.04963 0
M  V30 8720 C 811.649 -1.04582 1.56346 0
M  V30 8721 O 811.007 -1.66616 0.714755 0
M  V30 8722 C 811.055 0.347235 3.58924 0
M  V30 8723 O 810.159 -0.659296 4.07096 0
M  V30 8724 H 809.5 0.140652 0.648932 0
M  V30 8725 H 812.03 1.02272 1.77205 0
M  V30 8726 H 812.04 0.19757 4.07521 0
M  V30 8727 H 810.715 1.34157 3.93668 0
M  V30 8728 H 809.292 -0.474371 3.6987 0
M  V30 8729 N 811.477 -1.49425 0.500989 0
M  V30 8730 C 812.702 -2.07356 -0.0425154 0
M  V30 8731 C 813.127 -1.35887 -1.30063 0
M  V30 8732 O 812.485 -0.41561 -1.76472 0
M  V30 8733 C 812.533 -3.59518 -0.279188 0
M  V30 8734 O 811.637 -3.89542 -1.3539 0
M  V30 8735 H 810.978 -0.663482 0.0262207 0
M  V30 8736 H 813.508 -1.92231 0.700607 0
M  V30 8737 H 813.518 -4.04791 -0.5107 0
M  V30 8738 H 812.193 -4.10946 0.640009 0
M  V30 8739 H 810.77 -3.56079 -1.10734 0
M  V30 8740 N 812.955 -0.234822 -1.55841 0
M  V30 8741 C 814.202 0.39326 -1.98645 0
M  V30 8742 C 814.53 1.58823 -1.12274 0
M  V30 8743 O 813.785 1.94954 -0.170731 0
M  V30 8744 C 814.084 0.858032 -3.46947 0
M  V30 8745 C 813.75 -0.227858 -4.50324 0
M  V30 8746 C 812.412 -0.526128 -4.78315 0
M  V30 8747 C 814.764 -0.961576 -5.12253 0
M  V30 8748 C 812.092 -1.5624 -5.65514 0
M  V30 8749 C 814.444 -1.98728 -6.00575 0
M  V30 8750 C 813.108 -2.29233 -6.26904 0
M  V30 8751 H 812.378 0.143904 -0.726892 0
M  V30 8752 H 815.025 -0.34012 -1.88455 0
M  V30 8753 H 813.33 1.67041 -3.54408 0
M  V30 8754 H 815.027 1.35407 -3.77447 0
M  V30 8755 H 811.617 0.0147624 -4.28597 0
M  V30 8756 H 815.801 -0.744388 -4.90686 0
M  V30 8757 H 811.057 -1.80422 -5.84173 0
M  V30 8758 H 815.231 -2.5608 -6.47608 0
M  V30 8759 H 812.858 -3.09671 -6.94268 0
M  V30 8760 N 814.433 1.57553 0.0384317 0
M  V30 8761 C 815.381 2.07021 1.06043 0
M  V30 8762 C 816.375 0.982078 1.38028 0
M  V30 8763 O 817.581 1.16702 1.37042 0
M  V30 8764 H 813.956 0.660522 0.359464 0
M  V30 8765 H 815.927 2.91944 0.617339 0
M  V30 8766 C 814.676 2.55734 2.35574 0
M  V30 8767 H 813.999 3.39074 2.11822 0
M  V30 8768 H 815.439 2.94066 3.05452 0
M  V30 8769 C 813.898 1.45449 3.03885 0
M  V30 8770 O 814.428 0.815402 3.93337 0
M  V30 8771 N 812.634 1.19134 2.65058 0
M  V30 8772 H 812.181 1.71288 1.92401 0
M  V30 8773 H 812.139 0.455554 3.11082 0
M  V30 8774 N 815.911 -0.310526 1.54511 0
M  V30 8775 C 817.151 -1.05498 1.7507 0
M  V30 8776 C 817.515 -1.84814 0.520381 0
M  V30 8777 O 818.716 -2.61937 0.603547 0
M  V30 8778 C 816.987 -1.94466 2.99863 0
M  V30 8779 S 818.546 -2.75686 3.41383 0
M  V30 8780 H 815.364 -0.355951 0.615483 0
M  V30 8781 H 817.966 -0.329464 1.92704 0
M  V30 8782 H 816.67 -1.35055 3.87541 0
M  V30 8783 H 816.201 -2.71401 2.84789 0
M  V30 8784 H 818.216 -3.96971 2.97706 0
M  V30 8785 N 817.389 -1.46805 -0.573248 0
M  V30 8786 C 818.636 -1.52604 -1.3311 0
M  V30 8787 C 818.964 -0.181633 -1.9365 0
M  V30 8788 O 818.219 0.823775 -1.77517 0
M  V30 8789 C 818.518 -2.58001 -2.47326 0
M  V30 8790 C 818.184 -4.01747 -2.04719 0
M  V30 8791 C 816.846 -4.40881 -1.92814 0
M  V30 8792 C 819.198 -4.92008 -1.71982 0
M  V30 8793 C 816.526 -5.68129 -1.46445 0
M  V30 8794 C 818.878 -6.19703 -1.27089 0
M  V30 8795 C 817.542 -6.57733 -1.13768 0
M  V30 8796 H 816.812 -0.558417 -0.487084 0
M  V30 8797 H 819.459 -1.80327 -0.644538 0
M  V30 8798 H 817.764 -2.23974 -3.2147 0
M  V30 8799 H 819.461 -2.59715 -3.05531 0
M  V30 8800 H 816.051 -3.70819 -2.14922 0
M  V30 8801 H 820.235 -4.62485 -1.8006 0
M  V30 8802 H 815.491 -5.96359 -1.34783 0
M  V30 8803 H 819.665 -6.89064 -1.00814 0
M  V30 8804 H 817.292 -7.56228 -0.776142 0
M  V30 8805 N 818.867 0.818669 -1.34668 0
M  V30 8806 C 820.144 1.56118 -1.17841 0
M  V30 8807 C 820.524 2.09646 0.24731 0
M  V30 8808 O 819.872 1.91329 1.24922 0
M  V30 8809 C 820.082 2.67922 -2.23649 0
M  V30 8810 C 821.43 3.36579 -2.58843 0
M  V30 8811 O 822.454 2.78182 -2.22471 0
M  V30 8812 O 821.313 4.42045 -3.21339 0
M  V30 8813 H 818.407 0.689216 -0.457067 0
M  V30 8814 H 820.953 0.859674 -1.46314 0
M  V30 8815 H 819.725 2.26153 -3.19328 0
M  V30 8816 H 819.348 3.45719 -1.96377 0
M  V30 8817 N 820.346 1.18468 1.03938 0
M  V30 8818 C 821.586 0.991823 1.78724 0
M  V30 8819 C 821.95 -0.470115 1.86156 0
M  V30 8820 O 823.151 -0.782451 2.5716 0
M  V30 8821 C 821.422 1.63018 3.18056 0
M  V30 8822 S 822.981 1.58527 4.09163 0
M  V30 8823 H 819.799 0.356137 0.615376 0
M  V30 8824 H 822.401 1.50634 1.24618 0
M  V30 8825 H 821.105 2.68642 3.10258 0
M  V30 8826 H 820.636 1.11601 3.77238 0
M  V30 8827 H 822.651 0.602059 4.92534 0
M  V30 8828 N 821.824 -1.22873 0.986916 0
M  V30 8829 C 823.072 -1.91084 0.658121 0
M  V30 8830 C 823.393 -1.77304 -0.811675 0
M  V30 8831 O 822.663 -1.15649 -1.58121 0
M  V30 8832 H 821.243 -0.707251 0.240427 0
M  V30 8833 H 823.905 -1.49357 1.25213 0
M  V30 8834 H 823.001 -2.98373 0.915428 0
M  V30 8835 N 823.302 -0.75937 -1.38099 0
M  V30 8836 C 824.548 -0.318584 -2.00282 0
M  V30 8837 C 824.881 1.09854 -1.60143 0
M  V30 8838 O 824.156 1.75344 -0.841702 0
M  V30 8839 C 824.439 -0.448047 -3.57302 0
M  V30 8840 C 824.292 -1.9067 -4.07388 0
M  V30 8841 C 825.611 0.155119 -4.39827 0
M  V30 8842 H 822.73 -0.117233 -0.727616 0
M  V30 8843 H 825.372 -0.960097 -1.63958 0
M  V30 8844 H 823.522 0.0981003 -3.88376 0
M  V30 8845 H 825.194 -2.5116 -3.86932 0
M  V30 8846 H 823.437 -2.41979 -3.6004 0
M  V30 8847 H 824.108 -1.94841 -5.1647 0
M  V30 8848 H 826.584 -0.31073 -4.14938 0
M  V30 8849 H 825.46 0.0343264 -5.48889 0
M  V30 8850 H 825.721 1.24407 -4.24235 0
M  V30 8851 N 824.78 1.49157 -0.508906 0
M  V30 8852 C 826.029 2.0167 0.0346854 0
M  V30 8853 C 826.342 1.39302 1.37311 0
M  V30 8854 O 827.548 1.83189 2.00385 0
M  V30 8855 C 826.004 3.59725 0.112261 0
M  V30 8856 C 825.612 4.31069 -1.21999 0
M  V30 8857 C 827.356 4.20155 0.605798 0
M  V30 8858 C 825.263 5.81001 -1.10415 0
M  V30 8859 H 824.193 0.753814 0.0167355 0
M  V30 8860 H 826.844 1.7162 -0.649518 0
M  V30 8861 H 825.226 3.86525 0.861087 0
M  V30 8862 H 826.4 4.15962 -1.98273 0
M  V30 8863 H 824.715 3.82418 -1.64759 0
M  V30 8864 H 827.312 5.29964 0.710102 0
M  V30 8865 H 827.655 3.84051 1.60656 0
M  V30 8866 H 828.188 3.97705 -0.0867239 0
M  V30 8867 H 824.927 6.21643 -2.07941 0
M  V30 8868 H 824.447 5.9858 -0.382428 0
M  V30 8869 H 826.126 6.42207 -0.786116 0
M  V30 8870 N 826.258 0.243083 1.55714 0
M  V30 8871 C 827.507 -0.383188 1.98027 0
M  V30 8872 C 827.82 -1.59347 1.13436 0
M  V30 8873 O 829.026 -2.29065 1.45745 0
M  V30 8874 C 827.482 -0.733135 3.52354 0
M  V30 8875 C 827.09 0.455539 4.45678 0
M  V30 8876 C 828.834 -1.32381 4.03331 0
M  V30 8877 C 826.741 0.0819591 5.91343 0
M  V30 8878 H 825.671 -0.146944 0.739543 0
M  V30 8879 H 828.322 0.342697 1.80272 0
M  V30 8880 H 826.704 -1.51704 3.65789 0
M  V30 8881 H 827.878 1.23291 4.44 0
M  V30 8882 H 826.193 0.960886 4.05162 0
M  V30 8883 H 828.79 -1.61658 5.09677 0
M  V30 8884 H 829.133 -2.24698 3.50452 0
M  V30 8885 H 829.666 -0.602885 3.93205 0
M  V30 8886 H 826.405 0.972171 6.48251 0
M  V30 8887 H 825.925 -0.659291 5.96166 0
M  V30 8888 H 827.604 -0.3372 6.46121 0
M  V30 8889 N 827.736 -1.57571 -0.0300757 0
M  V30 8890 C 828.984 -1.88852 -0.719666 0
M  V30 8891 C 829.305 -0.840645 -1.75949 0
M  V30 8892 O 828.575 0.125854 -1.95495 0
M  V30 8893 H 827.155 -0.696965 -0.268792 0
M  V30 8894 H 829.817 -1.949 0.00373285 0
M  V30 8895 H 828.913 -2.87695 -1.20987 0
M  V30 8896 N 829.214 0.302327 -1.54673 0
M  V30 8897 C 830.439 1.06103 -1.78205 0
M  V30 8898 C 830.864 1.80204 -0.53926 0
M  V30 8899 O 830.222 1.73975 0.510142 0
M  V30 8900 C 830.27 2.01829 -2.98827 0
M  V30 8901 O 829.374 3.10108 -2.71858 0
M  V30 8902 H 828.715 0.30487 -0.589873 0
M  V30 8903 H 831.245 0.340153 -2.01753 0
M  V30 8904 H 831.255 2.44319 -3.2676 0
M  V30 8905 H 829.93 1.473 -3.88942 0
M  V30 8906 H 828.507 2.72142 -2.54937 0
M  V30 8907 N 830.692 1.47107 0.565454 0
M  V30 8908 C 831.941 1.5257 1.31929 0
M  V30 8909 C 832.254 0.189092 1.94684 0
M  V30 8910 O 833.46 0.121657 2.71227 0
M  V30 8911 C 831.916 2.68914 2.39193 0
M  V30 8912 C 831.524 4.09069 1.82665 0
M  V30 8913 C 833.268 2.83663 3.1581 0
M  V30 8914 C 831.175 5.16726 2.87661 0
M  V30 8915 H 830.105 0.567869 0.496025 0
M  V30 8916 H 832.756 1.73361 0.60151 0
M  V30 8917 H 831.138 2.41486 3.13848 0
M  V30 8918 H 832.312 4.46364 1.14438 0
M  V30 8919 H 830.627 3.99135 1.1866 0
M  V30 8920 H 833.224 3.61261 3.94201 0
M  V30 8921 H 833.567 1.91804 3.69482 0
M  V30 8922 H 834.1 3.10821 2.48265 0
M  V30 8923 H 830.839 6.10433 2.38854 0
M  V30 8924 H 830.359 4.83957 3.54324 0
M  V30 8925 H 832.038 5.43319 3.51303 0
M  V30 8926 N 832.17 -0.811516 1.35101 0
M  V30 8927 C 833.417 -1.56835 1.28098 0
M  V30 8928 C 833.745 -1.93951 -0.14597 0
M  V30 8929 O 833 -1.61173 -1.11004 0
M  V30 8930 C 833.299 -2.87121 2.1283 0
M  V30 8931 C 832.965 -2.69245 3.61688 0
M  V30 8932 C 831.627 -2.64078 4.02264 0
M  V30 8933 C 833.979 -2.52122 4.56162 0
M  V30 8934 C 831.307 -2.39724 5.3549 0
M  V30 8935 C 833.659 -2.29298 5.89581 0
M  V30 8936 C 832.323 -2.2255 6.29307 0
M  V30 8937 H 831.593 -0.5739 0.468742 0
M  V30 8938 H 834.24 -0.93806 1.66951 0
M  V30 8939 H 832.545 -3.54502 1.66841 0
M  V30 8940 H 834.242 -3.44788 2.0475 0
M  V30 8941 H 830.832 -2.74112 3.29485 0
M  V30 8942 H 835.016 -2.5513 4.25702 0
M  V30 8943 H 830.272 -2.32965 5.65276 0
M  V30 8944 H 834.446 -2.15038 6.62368 0
M  V30 8945 H 832.073 -2.0344 7.32473 0
M  V30 8946 N 833.648 -1.19017 -1.03309 0
M  V30 8947 C 834.558 -0.939303 -2.14975 0
M  V30 8948 C 835.574 0.0992359 -1.73717 0
M  V30 8949 O 836.75 -0.0844362 -2.01223 0
M  V30 8950 C 833.815 -0.476712 -3.43407 0
M  V30 8951 C 832.876 -1.58413 -3.99003 0
M  V30 8952 C 832.109 -1.14352 -5.21305 0
M  V30 8953 O 832.332 -0.00534408 -5.704 0
M  V30 8954 O 831.266 -1.94436 -5.6963 0
M  V30 8955 H 835.092 -1.87386 -2.38998 0
M  V30 8956 H 832.677 -0.972635 -1.13403 0
M  V30 8957 H 834.559 -0.22718 -4.20787 0
M  V30 8958 H 833.234 0.429455 -3.20839 0
M  V30 8959 H 832.141 -1.88777 -3.22977 0
M  V30 8960 H 833.474 -2.4667 -4.25928 0
M  V30 8961 N 835.127 1.22348 -0.993418 0
M  V30 8962 C 836.373 1.91393 -0.67056 0
M  V30 8963 C 836.706 1.77163 0.795428 0
M  V30 8964 O 835.981 1.14084 1.57528 0
M  V30 8965 C 836.264 3.43589 -1.0779 0
M  V30 8966 C 836.117 3.66867 -2.60248 0
M  V30 8967 C 837.436 4.35545 -0.631527 0
M  V30 8968 H 834.555 0.695057 -0.24508 0
M  V30 8969 H 837.197 1.44213 -1.23703 0
M  V30 8970 H 835.347 3.83903 -0.595902 0
M  V30 8971 H 837.019 3.35954 -3.16121 0
M  V30 8972 H 835.262 3.1113 -3.02293 0
M  V30 8973 H 835.933 4.73457 -2.838 0
M  V30 8974 H 838.409 4.0275 -1.04554 0
M  V30 8975 H 837.285 5.40707 -0.944831 0
M  V30 8976 H 837.546 4.39618 0.467779 0
M  V30 8977 N 836.605 0.766683 1.37694 0
M  V30 8978 C 837.854 0.325425 1.99057 0
M  V30 8979 C 838.167 -1.10275 1.61551 0
M  V30 8980 O 839.373 -1.64513 2.1598 0
M  V30 8981 C 837.829 0.530886 3.55963 0
M  V30 8982 C 837.437 1.96899 4.02411 0
M  V30 8983 C 839.181 0.152997 4.24224 0
M  V30 8984 C 837.088 2.12232 5.52007 0
M  V30 8985 H 836.018 0.117929 0.744721 0
M  V30 8986 H 838.669 0.945091 1.5729 0
M  V30 8987 H 837.051 -0.158162 3.95684 0
M  V30 8988 H 838.225 2.69258 3.73948 0
M  V30 8989 H 836.54 2.303 3.46916 0
M  V30 8990 H 839.137 0.24614 5.34133 0
M  V30 8991 H 839.48 -0.896096 4.06541 0
M  V30 8992 H 840.013 0.794398 3.89787 0
M  V30 8993 H 836.752 3.15442 5.7461 0
M  V30 8994 H 836.272 1.4435 5.82171 0
M  V30 8995 H 837.951 1.9185 6.17902 0
M  V30 8996 N 838.083 -1.48885 0.516809 0
M  V30 8997 C 839.329 -2.03395 -0.0140225 0
M  V30 8998 C 839.684 -1.38808 -1.33229 0
M  V30 8999 O 838.977 -0.520104 -1.84406 0
M  V30 9000 C 839.171 -3.56801 -0.206798 0
M  V30 9001 C 839 -4.36259 1.09124 0
M  V30 9002 C 837.77 -4.77689 1.64745 0
M  V30 9003 C 839.968 -4.73881 1.99854 0
M  V30 9004 N 837.95 -5.41634 2.88975 0
M  V30 9005 C 839.321 -5.37707 3.08661 0
M  V30 9006 C 841.376 -4.55816 2.00341 0
M  V30 9007 C 840.079 -5.85379 4.18001 0
M  V30 9008 C 842.105 -5.04459 3.08666 0
M  V30 9009 C 841.467 -5.68299 4.16191 0
M  V30 9010 H 837.566 -0.781169 0.036042 0
M  V30 9011 H 840.15 -1.81867 0.695173 0
M  V30 9012 H 838.321 -3.78181 -0.885064 0
M  V30 9013 H 840.053 -3.9795 -0.736053 0
M  V30 9014 H 836.808 -4.58392 1.19054 0
M  V30 9015 H 837.232 -5.78181 3.52187 0
M  V30 9016 H 841.874 -4.05851 1.18511 0
M  V30 9017 H 839.592 -6.34356 5.00618 0
M  V30 9018 H 843.178 -4.92281 3.10082 0
M  V30 9019 H 842.058 -6.05257 4.98631 0
M  V30 9020 N 839.561 -0.251338 -1.55583 0
M  V30 9021 C 840.524 0.63305 -2.20284 0
M  V30 9022 C 841.524 1.09941 -1.17344 0
M  V30 9023 O 842.714 1.00341 -1.42399 0
M  V30 9024 C 839.846 1.8706 -2.84993 0
M  V30 9025 H 841.039 0.0684846 -2.99822 0
M  V30 9026 H 838.592 -0.00181653 -1.563 0
M  V30 9027 H 839.327 2.47629 -2.09405 0
M  V30 9028 H 839.112 1.54436 -3.60405 0
M  V30 9029 H 840.602 2.50004 -3.34496 0
M  V30 9030 N 841.039 1.57585 0.0217189 0
M  V30 9031 C 842.285 1.89887 0.712099 0
M  V30 9032 C 842.618 0.849971 1.74611 0
M  V30 9033 O 841.893 -0.13407 1.94037 0
M  V30 9034 C 842.176 3.32815 1.37499 0
M  V30 9035 C 842.029 4.48405 0.353993 0
M  V30 9036 C 843.348 3.74786 2.30703 0
M  V30 9037 H 840.467 0.690588 0.257405 0
M  V30 9038 H 843.109 1.89983 -0.0251145 0
M  V30 9039 H 841.259 3.32863 2.00335 0
M  V30 9040 H 842.931 4.60491 -0.273015 0
M  V30 9041 H 841.174 4.32573 -0.32599 0
M  V30 9042 H 841.845 5.45316 0.85644 0
M  V30 9043 H 844.321 3.76151 1.77904 0
M  V30 9044 H 843.197 4.75585 2.74061 0
M  V30 9045 H 843.458 3.07449 3.17691 0
M  V30 9046 N 842.517 -0.29412 1.54831 0
M  V30 9047 C 843.766 -1.02614 1.73647 0
M  V30 9048 C 844.079 -1.88193 0.533162 0
M  V30 9049 O 845.285 -2.64713 0.603275 0
M  V30 9050 C 843.741 -1.87417 3.07251 0
M  V30 9051 C 843.349 -1.06806 4.35082 0
M  V30 9052 C 845.093 -2.60176 3.35423 0
M  V30 9053 C 843 -1.90926 5.59733 0
M  V30 9054 H 841.93 -0.386834 0.647206 0
M  V30 9055 H 844.581 -0.282789 1.81308 0
M  V30 9056 H 842.963 -2.65765 2.93572 0
M  V30 9057 H 844.137 -0.330226 4.59615 0
M  V30 9058 H 842.452 -0.455979 4.13896 0
M  V30 9059 H 845.049 -3.23476 4.25755 0
M  V30 9060 H 845.392 -3.29365 2.54606 0
M  V30 9061 H 845.925 -1.88871 3.50103 0
M  V30 9062 H 842.664 -1.26194 6.43238 0
M  V30 9063 H 842.184 -2.62363 5.39375 0
M  V30 9064 H 843.863 -2.48807 5.97247 0
M  V30 9065 N 843.995 -1.47404 -0.557645 0
M  V30 9066 C 844.942 -1.59859 -1.66475 0
M  V30 9067 C 845.912 -0.441644 -1.60121 0
M  V30 9068 O 847.097 -0.661641 -1.78961 0
M  V30 9069 C 844.237 -1.61843 -3.04797 0
M  V30 9070 C 843.35 -2.8845 -3.2159 0
M  V30 9071 C 842.485 -2.81773 -4.50308 0
M  V30 9072 C 841.524 -4.03208 -4.60532 0
M  V30 9073 N 840.661 -3.94769 -5.80604 0
M  V30 9074 H 845.501 -2.54415 -1.55168 0
M  V30 9075 H 843.038 -1.26194 -0.755876 0
M  V30 9076 H 844.996 -1.60976 -3.84893 0
M  V30 9077 H 843.626 -0.707997 -3.1494 0
M  V30 9078 H 842.678 -2.99186 -2.34929 0
M  V30 9079 H 843.99 -3.78379 -3.25009 0
M  V30 9080 H 843.144 -2.79153 -5.38663 0
M  V30 9081 H 841.883 -1.89527 -4.49367 0
M  V30 9082 H 840.888 -4.06133 -3.70589 0
M  V30 9083 H 842.113 -4.9658 -4.63233 0
M  V30 9084 H 840.059 -3.05326 -5.80613 0
M  V30 9085 H 839.976 -4.78375 -5.854 0
M  V30 9086 H 841.244 -3.96165 -6.71322 0
M  V30 9087 N 845.473 0.80434 -1.35529 0
M  V30 9088 C 846.884 1.37849 -1.25915 0
M  V30 9089 C 847.235 1.95905 0.107495 0
M  V30 9090 O 846.36 1.91462 1.00852 0
M  V30 9091 C 846.955 2.50608 -2.27994 0
M  V30 9092 C 845.514 3.03879 -2.22114 0
M  V30 9093 C 844.661 1.76856 -2.13582 0
M  V30 9094 H 847.612 0.607192 -1.46625 0
M  V30 9095 H 847.633 3.29221 -1.90772 0
M  V30 9096 H 847.145 2.08323 -3.27449 0
M  V30 9097 H 845.246 3.50622 -1.26077 0
M  V30 9098 H 845.359 3.61707 -3.14173 0
M  V30 9099 H 843.723 1.98498 -1.59595 0
M  V30 9100 H 844.506 1.36721 -3.14901 0
M  V30 9101 N 846.951 1.19563 1.02676 0
M  V30 9102 C 848.199 0.997593 1.75763 0
M  V30 9103 C 848.52 -0.47253 1.89188 0
M  V30 9104 O 847.79 -1.34214 1.42701 0
M  V30 9105 H 846.37 0.366128 0.651122 0
M  V30 9106 H 849.032 1.50495 1.23844 0
M  V30 9107 H 848.128 1.44741 2.76508 0
M  V30 9108 N 848.429 -1.21819 0.999893 0
M  V30 9109 C 849.657 -1.94758 0.698359 0
M  V30 9110 C 850.072 -1.73771 -0.738183 0
M  V30 9111 O 849.429 -1.04113 -1.49889 0
M  V30 9112 C 849.48 -3.47292 1.00353 0
M  V30 9113 O 849.201 -3.67579 2.38363 0
M  V30 9114 C 850.702 -4.37403 0.72068 0
M  V30 9115 H 847.922 -0.619512 0.257771 0
M  V30 9116 H 850.466 -1.54778 1.33656 0
M  V30 9117 H 848.621 -3.85213 0.411018 0
M  V30 9118 H 849.035 -4.61719 2.48829 0
M  V30 9119 H 850.509 -5.43151 0.984422 0
M  V30 9120 H 850.986 -4.3784 -0.345309 0
M  V30 9121 H 851.592 -4.05119 1.29456 0
M  V30 9122 N 849.908 -0.773975 -1.37286 0
M  V30 9123 C 851.133 -0.349561 -2.04433 0
M  V30 9124 C 851.558 1.02082 -1.5799 0
M  V30 9125 O 850.916 1.65458 -0.741172 0
M  V30 9126 C 850.964 -0.404292 -3.58326 0
M  V30 9127 O 850.068 0.594447 -4.08093 0
M  V30 9128 H 849.409 -0.150959 -0.646612 0
M  V30 9129 H 851.939 -1.05079 -1.75555 0
M  V30 9130 H 851.949 -0.262378 -4.07155 0
M  V30 9131 H 850.624 -1.40403 -3.91484 0
M  V30 9132 H 849.201 0.415468 -3.70578 0
M  V30 9133 N 851.386 1.48609 -0.524698 0
M  V30 9134 C 852.633 2.02497 0.0113214 0
M  V30 9135 C 852.961 1.40229 1.34781 0
M  V30 9136 O 852.216 0.53557 1.88229 0
M  V30 9137 C 852.515 3.56906 0.187873 0
M  V30 9138 C 852.181 4.37932 -1.07359 0
M  V30 9139 C 850.843 4.59792 -1.41933 0
M  V30 9140 C 853.195 4.84902 -1.911 0
M  V30 9141 C 850.523 5.25868 -2.60154 0
M  V30 9142 C 852.875 5.52281 -3.08495 0
M  V30 9143 C 851.539 5.7238 -3.4342 0
M  V30 9144 H 850.809 0.740988 0.0041428 0
M  V30 9145 H 853.456 1.78651 -0.689652 0
M  V30 9146 H 851.761 3.79563 0.971572 0
M  V30 9147 H 853.458 3.96218 0.617443 0
M  V30 9148 H 850.048 4.21175 -0.794331 0
M  V30 9149 H 854.232 4.67821 -1.65701 0
M  V30 9150 H 849.488 5.39628 -2.87422 0
M  V30 9151 H 853.662 5.87645 -3.73692 0
M  V30 9152 H 851.289 6.23354 -4.35126 0
M  V30 9153 N 852.864 0.259585 1.55447 0
M  V30 9154 C 854.112 -0.360893 1.98852 0
M  V30 9155 C 854.433 -1.57535 1.14924 0
M  V30 9156 O 853.703 -1.94485 0.235025 0
M  V30 9157 H 852.283 -0.136332 0.734454 0
M  V30 9158 H 854.945 0.361319 1.91522 0
M  V30 9159 H 854.041 -0.661388 3.05012 0
M  V30 9160 N 854.342 -1.57594 -0.0133615 0
M  V30 9161 C 855.591 -1.8916 -0.700103 0
M  V30 9162 C 855.904 -0.860147 -1.75673 0
M  V30 9163 O 857.11 -1.06556 -2.49716 0
M  V30 9164 C 855.566 -3.35742 -1.29635 0
M  V30 9165 C 855.174 -4.47154 -0.275249 0
M  V30 9166 C 856.918 -3.76436 -1.96205 0
M  V30 9167 C 854.825 -5.84805 -0.880726 0
M  V30 9168 H 853.755 -0.705805 -0.265247 0
M  V30 9169 H 856.406 -1.83445 0.044993 0
M  V30 9170 H 854.788 -3.36252 -2.09167 0
M  V30 9171 H 855.962 -4.58139 0.494506 0
M  V30 9172 H 854.277 -4.15394 0.289256 0
M  V30 9173 H 856.874 -4.76606 -2.42386 0
M  V30 9174 H 857.217 -3.09249 -2.78695 0
M  V30 9175 H 857.75 -3.78168 -1.23426 0
M  V30 9176 H 854.489 -6.55431 -0.0949013 0
M  V30 9177 H 854.009 -5.7751 -1.61995 0
M  V30 9178 H 855.688 -6.32038 -1.38338 0
M  V30 9179 N 855.82 0.285905 -1.54985 0
M  V30 9180 C 857.045 1.04207 -1.7932 0
M  V30 9181 C 857.47 1.79622 -0.558343 0
M  V30 9182 O 856.828 1.74506 0.491661 0
M  V30 9183 C 856.876 1.98648 -3.0095 0
M  V30 9184 O 855.98 3.07207 -2.75132 0
M  V30 9185 H 855.321 0.298596 -0.593074 0
M  V30 9186 H 857.851 0.318736 -2.02102 0
M  V30 9187 H 857.861 2.4084 -3.29333 0
M  V30 9188 H 856.536 1.43167 -3.90482 0
M  V30 9189 H 855.113 2.69423 -2.57809 0
M  V30 9190 N 857.298 1.47698 0.54982 0
M  V30 9191 C 858.544 1.54931 1.30859 0
M  V30 9192 C 858.877 0.214021 1.93017 0
M  V30 9193 O 858.152 -0.778093 1.78258 0
M  V30 9194 C 858.435 2.67286 2.41309 0
M  V30 9195 C 858.288 4.10457 1.83971 0
M  V30 9196 C 859.607 2.75509 3.43195 0
M  V30 9197 H 856.726 0.56399 0.474431 0
M  V30 9198 H 859.368 1.79787 0.614541 0
M  V30 9199 H 857.518 2.46224 3.0051 0
M  V30 9200 H 859.19 4.42903 1.28974 0
M  V30 9201 H 857.433 4.18387 1.14606 0
M  V30 9202 H 858.104 4.84857 2.63851 0
M  V30 9203 H 860.58 2.94531 2.93923 0
M  V30 9204 H 859.456 3.55886 4.17895 0
M  V30 9205 H 859.717 1.82863 4.02509 0
M  V30 9206 N 858.776 -0.797141 1.35954 0
M  V30 9207 C 859.706 -1.92387 1.32323 0
M  V30 9208 C 860.687 -1.68967 0.196007 0
M  V30 9209 O 861.872 -1.90193 0.39245 0
M  V30 9210 C 859.002 -3.29286 1.10398 0
M  V30 9211 C 857.956 -3.67212 2.19862 0
M  V30 9212 C 857.282 -5.02377 1.8309 0
M  V30 9213 C 858.582 -3.76602 3.61896 0
M  V30 9214 H 860.276 -1.95683 2.26602 0
M  V30 9215 H 857.822 -0.94007 1.09081 0
M  V30 9216 H 859.775 -4.07721 1.06495 0
M  V30 9217 H 858.499 -3.26358 0.125668 0
M  V30 9218 H 857.158 -2.91069 2.22878 0
M  V30 9219 H 856.806 -4.95961 0.838527 0
M  V30 9220 H 856.506 -5.28722 2.56372 0
M  V30 9221 H 858.03 -5.8324 1.80729 0
M  V30 9222 H 859.444 -4.45246 3.6115 0
M  V30 9223 H 857.841 -4.14425 4.34018 0
M  V30 9224 H 858.911 -2.77906 3.97361 0
M  V30 9225 N 860.254 -1.20106 -1.0204 0
M  V30 9226 C 861.67 -0.955099 -1.27867 0
M  V30 9227 C 861.87 0.367595 -1.98119 0
M  V30 9228 O 860.926 1.09705 -2.27423 0
M  V30 9229 C 862.239 -2.13507 -2.11744 0
M  V30 9230 C 863.787 -2.17563 -2.25023 0
M  V30 9231 C 864.262 -3.35035 -3.12275 0
M  V30 9232 N 865.753 -3.35024 -3.19864 0
M  V30 9233 C 866.488 -4.22566 -3.8759 0
M  V30 9234 N 865.984 -5.20278 -4.57474 0
M  V30 9235 N 867.777 -4.10418 -3.84075 0
M  V30 9236 H 859.928 -2.05193 -0.54861 0
M  V30 9237 H 862.191 -0.897689 -0.304728 0
M  V30 9238 H 861.897 -3.09275 -1.67456 0
M  V30 9239 H 861.771 -2.11281 -3.12474 0
M  V30 9240 H 864.158 -1.22359 -2.68537 0
M  V30 9241 H 864.239 -2.23838 -1.23815 0
M  V30 9242 H 863.883 -4.30522 -2.69468 0
M  V30 9243 H 863.813 -3.25996 -4.13563 0
M  V30 9244 H 866.304 -2.64299 -2.701 0
M  V30 9245 H 866.617 -5.83408 -5.06809 0
M  V30 9246 H 864.962 -5.24219 -4.56311 0
M  V30 9247 H 868.153 -3.33353 -3.28623 0
M  V30 9248 H 868.326 -4.78854 -4.36581 0
M  V30 9249 N 861.732 1.21287 -1.00634 0
M  V30 9250 C 862.695 2.21927 -0.572821 0
M  V30 9251 C 863.695 1.5691 0.351541 0
M  V30 9252 O 864.885 1.73623 0.141643 0
M  V30 9253 C 862.017 3.40501 0.164932 0
M  V30 9254 H 863.21 2.61795 -1.463 0
M  V30 9255 H 860.763 1.34571 -0.794998 0
M  V30 9256 H 861.498 3.06123 1.07049 0
M  V30 9257 H 861.283 3.88912 -0.498962 0
M  V30 9258 H 862.773 4.15103 0.455945 0
M  V30 9259 N 863.21 0.781244 1.36873 0
M  V30 9260 C 864.14 0.188128 2.32741 0
M  V30 9261 C 865.121 -0.672326 1.56249 0
M  V30 9262 O 866.306 -0.607835 1.84442 0
M  V30 9263 C 863.436 -0.684341 3.40491 0
M  V30 9264 C 862.39 0.0755641 4.27933 0
M  V30 9265 C 861.716 -0.916968 5.26779 0
M  V30 9266 C 863.016 1.26006 5.06873 0
M  V30 9267 H 864.71 0.989016 2.82593 0
M  V30 9268 H 862.256 0.477038 1.35869 0
M  V30 9269 H 864.209 -1.10915 4.06541 0
M  V30 9270 H 862.933 -1.51785 2.89187 0
M  V30 9271 H 861.592 0.481258 3.63427 0
M  V30 9272 H 861.24 -1.74528 4.71751 0
M  V30 9273 H 860.94 -0.413 5.86147 0
M  V30 9274 H 862.464 -1.34052 5.95703 0
M  V30 9275 H 863.878 0.911425 5.66009 0
M  V30 9276 H 862.275 1.69676 5.75613 0
M  V30 9277 H 863.345 2.05948 4.38991 0
M  V30 9278 N 864.689 -1.48329 0.532571 0
M  V30 9279 C 866.105 -1.58458 0.190605 0
M  V30 9280 C 866.305 -1.53427 -1.30623 0
M  V30 9281 O 865.361 -1.4247 -2.08467 0
M  V30 9282 C 866.674 -2.89989 0.79543 0
M  V30 9283 C 868.222 -3.03523 0.7644 0
M  V30 9284 C 868.697 -4.37718 1.34785 0
M  V30 9285 N 870.188 -4.44292 1.30993 0
M  V30 9286 C 870.923 -5.4664 1.73124 0
M  V30 9287 N 870.419 -6.5593 2.22997 0
M  V30 9288 N 872.212 -5.37538 1.64346 0
M  V30 9289 H 864.363 -1.49842 1.50537 0
M  V30 9290 H 866.626 -0.71164 0.626316 0
M  V30 9291 H 866.332 -2.99333 1.84642 0
M  V30 9292 H 866.206 -3.76203 0.27403 0
M  V30 9293 H 868.593 -2.93789 -0.277831 0
M  V30 9294 H 868.674 -2.18912 1.3233 0
M  V30 9295 H 868.318 -4.48206 2.38902 0
M  V30 9296 H 868.248 -5.21019 0.764609 0
M  V30 9297 H 870.739 -3.65897 0.944868 0
M  V30 9298 H 871.052 -7.30167 2.53133 0
M  V30 9299 H 869.397 -6.56886 2.26992 0
M  V30 9300 H 872.588 -4.51052 1.25178 0
M  V30 9301 H 872.761 -6.17169 1.97501 0
M  V30 9302 N 866.167 -0.267825 -1.55308 0
M  V30 9303 C 867.097 0.616585 -2.25212 0
M  V30 9304 C 868.078 1.16472 -1.23969 0
M  V30 9305 O 869.263 1.20021 -1.52672 0
M  V30 9306 C 866.393 1.80412 -2.96764 0
M  V30 9307 C 865.347 1.38784 -4.04874 0
M  V30 9308 C 864.673 2.65789 -4.63961 0
M  V30 9309 C 865.973 0.543415 -5.19465 0
M  V30 9310 H 867.667 0.0336257 -2.99381 0
M  V30 9311 H 865.213 0.0147328 -1.43992 0
M  V30 9312 H 867.166 2.42866 -3.44375 0
M  V30 9313 H 865.89 2.4128 -2.20118 0
M  V30 9314 H 864.549 0.786541 -3.58063 0
M  V30 9315 H 864.197 3.24899 -3.83992 0
M  V30 9316 H 863.897 2.38651 -5.36954 0
M  V30 9317 H 865.421 3.29104 -5.14318 0
M  V30 9318 H 866.835 1.07277 -5.63174 0
M  V30 9319 H 865.232 0.367219 -5.98975 0
M  V30 9320 H 866.302 -0.439534 -4.82904 0
M  V30 9321 N 867.645 1.57599 0.00500368 0
M  V30 9322 C 868.575 2.11143 0.99705 0
M  V30 9323 C 869.556 1.0194 1.3617 0
M  V30 9324 O 870.741 1.29596 1.44632 0
M  V30 9325 C 867.871 2.61062 2.2905 0
M  V30 9326 C 866.825 3.74745 2.0676 0
M  V30 9327 C 866.151 4.10961 3.42075 0
M  V30 9328 C 867.451 5.02222 1.43424 0
M  V30 9329 H 869.145 2.94281 0.551251 0
M  V30 9330 H 866.691 1.41565 0.263715 0
M  V30 9331 H 868.644 2.97146 2.98801 0
M  V30 9332 H 867.368 1.75038 2.75734 0
M  V30 9333 H 866.027 3.39047 1.39436 0
M  V30 9334 H 865.675 3.21968 3.86453 0
M  V30 9335 H 865.375 4.87549 3.27979 0
M  V30 9336 H 866.899 4.49599 4.1315 0
M  V30 9337 H 868.313 5.36109 2.03125 0
M  V30 9338 H 866.71 5.83581 1.39831 0
M  V30 9339 H 867.78 4.83224 0.40285 0
M  V30 9340 N 869.123 -0.277682 1.55134 0
M  V30 9341 C 870.539 -0.624625 1.46869 0
M  V30 9342 C 870.739 -1.89717 0.678958 0
M  V30 9343 O 869.795 -2.51739 0.195939 0
M  V30 9344 C 871.108 -0.755937 2.91043 0
M  V30 9345 C 872.656 -0.850299 3.01229 0
M  V30 9346 C 873.131 -1.01343 4.46647 0
M  V30 9347 N 874.622 -1.07906 4.50456 0
M  V30 9348 C 875.357 -1.224 5.60184 0
M  V30 9349 N 874.853 -1.33642 6.79788 0
M  V30 9350 N 876.646 -1.25473 5.47917 0
M  V30 9351 H 868.797 0.558102 2.04937 0
M  V30 9352 H 871.06 0.188228 0.929125 0
M  V30 9353 H 870.766 0.108593 3.51532 0
M  V30 9354 H 870.64 -1.6377 3.39793 0
M  V30 9355 H 873.027 -1.7053 2.40839 0
M  V30 9356 H 873.108 0.0559681 2.55739 0
M  V30 9357 H 872.752 -0.163102 5.07638 0
M  V30 9358 H 872.682 -1.93427 4.89789 0
M  V30 9359 H 875.173 -1.00477 3.64298 0
M  V30 9360 H 875.486 -1.44522 7.59166 0
M  V30 9361 H 873.831 -1.30655 6.82608 0
M  V30 9362 H 877.022 -1.16317 4.53418 0
M  V30 9363 H 877.195 -1.36424 6.33476 0
M  V30 9364 N 870.601 -1.47988 -0.541979 0
M  V30 9365 C 871.85 -1.5465 -1.29485 0
M  V30 9366 C 872.163 -0.220041 -1.94358 0
M  V30 9367 O 873.369 -0.164792 -2.70999 0
M  V30 9368 C 871.825 -2.72685 -2.34885 0
M  V30 9369 C 871.433 -4.11923 -1.76134 0
M  V30 9370 C 873.177 -2.88651 -3.11257 0
M  V30 9371 C 871.084 -5.21237 -2.79404 0
M  V30 9372 H 870.014 -0.575688 -0.486928 0
M  V30 9373 H 872.665 -1.74296 -0.573853 0
M  V30 9374 H 871.047 -2.46448 -3.09966 0
M  V30 9375 H 872.221 -4.48128 -1.07322 0
M  V30 9376 H 870.536 -4.00972 -1.12295 0
M  V30 9377 H 873.133 -3.67487 -3.88404 0
M  V30 9378 H 873.476 -1.97658 -3.66384 0
M  V30 9379 H 874.009 -3.14731 -2.43288 0
M  V30 9380 H 870.748 -6.14156 -2.29113 0
M  V30 9381 H 870.268 -4.89533 -3.4658 0
M  V30 9382 H 871.947 -5.48839 -3.42615 0
M  V30 9383 N 872.079 0.78992 -1.36375 0
M  V30 9384 C 873.326 1.54777 -1.30576 0
M  V30 9385 C 873.654 1.94159 0.115095 0
M  V30 9386 O 872.909 1.62918 1.08426 0
M  V30 9387 C 873.208 2.83698 -2.17371 0
M  V30 9388 C 872.874 2.63457 -3.65925 0
M  V30 9389 C 871.536 2.57645 -4.06415 0
M  V30 9390 C 873.888 2.44833 -4.60115 0
M  V30 9391 C 871.216 2.31174 -5.39236 0
M  V30 9392 C 873.568 2.19889 -5.93154 0
M  V30 9393 C 872.232 2.1251 -6.32768 0
M  V30 9394 H 871.502 0.566371 -0.477813 0
M  V30 9395 H 874.149 0.91138 -1.68422 0
M  V30 9396 H 872.454 3.51802 -1.72459 0
M  V30 9397 H 874.151 3.41487 -2.10209 0
M  V30 9398 H 870.741 2.68836 -3.33804 0
M  V30 9399 H 874.925 2.48325 -4.29707 0
M  V30 9400 H 870.181 2.23942 -5.68911 0
M  V30 9401 H 874.355 2.04473 -6.65705 0
M  V30 9402 H 871.982 1.91761 -7.35616 0
M  V30 9403 N 873.557 1.20646 1.01402 0
M  V30 9404 C 874.504 0.957618 2.09996 0
M  V30 9405 C 875.474 -0.113115 1.65714 0
M  V30 9406 O 876.659 0.032142 1.90773 0
M  V30 9407 C 873.799 0.5186 3.41181 0
M  V30 9408 C 872.912 1.65777 3.98926 0
M  V30 9409 C 872.047 1.16881 5.18182 0
M  V30 9410 C 871.086 2.2809 5.68015 0
M  V30 9411 N 870.223 1.80392 6.7853 0
M  V30 9412 H 875.063 1.88732 2.30617 0
M  V30 9413 H 872.6 0.940703 1.13089 0
M  V30 9414 H 874.558 0.245367 4.16478 0
M  V30 9415 H 873.188 -0.3741 3.20625 0
M  V30 9416 H 872.24 2.04586 3.207 0
M  V30 9417 H 873.552 2.49507 4.31912 0
M  V30 9418 H 872.706 0.851694 6.00692 0
M  V30 9419 H 871.445 0.301434 4.86768 0
M  V30 9420 H 870.45 2.60614 4.84108 0
M  V30 9421 H 871.675 3.15308 6.01463 0
M  V30 9422 H 869.621 0.959856 6.4894 0
M  V30 9423 H 869.538 2.57701 7.10722 0
M  V30 9424 H 870.806 1.51688 7.64598 0
M  V30 9425 N 875.035 -1.20752 1.01276 0
M  V30 9426 C 876.281 -1.90302 0.700924 0
M  V30 9427 C 876.614 -1.78406 -0.767142 0
M  V30 9428 O 875.889 -1.16575 -1.55694 0
M  V30 9429 C 876.172 -3.41831 1.13242 0
M  V30 9430 C 876.025 -3.6268 2.66051 0
M  V30 9431 C 877.344 -4.34486 0.700738 0
M  V30 9432 H 874.463 -0.69107 0.256107 0
M  V30 9433 H 877.105 -1.42227 1.25982 0
M  V30 9434 H 875.255 -3.82906 0.656902 0
M  V30 9435 H 876.927 -3.30882 3.21426 0
M  V30 9436 H 875.17 -3.06281 3.07204 0
M  V30 9437 H 875.841 -4.68882 2.91296 0
M  V30 9438 H 878.317 -4.01036 1.10948 0
M  V30 9439 H 877.193 -5.39136 1.03073 0
M  V30 9440 H 877.454 -4.40307 -0.39778 0
M  V30 9441 N 876.513 -0.788492 -1.36457 0
M  V30 9442 C 877.741 -0.372365 -2.03522 0
M  V30 9443 C 878.156 1.01093 -1.59454 0
M  V30 9444 O 877.513 1.64824 -0.783535 0
M  V30 9445 C 877.564 -0.425435 -3.58988 0
M  V30 9446 O 877.285 -1.75418 -4.01448 0
M  V30 9447 C 878.786 0.000180167 -4.433 0
M  V30 9448 H 876.006 -0.1536 -0.653183 0
M  V30 9449 H 878.55 -1.06708 -1.74452 0
M  V30 9450 H 876.705 0.220856 -3.8677 0
M  V30 9451 H 877.119 -1.70437 -4.96036 0
M  V30 9452 H 878.593 -0.0880919 -5.5193 0
M  V30 9453 H 879.07 1.05269 -4.26398 0
M  V30 9454 H 879.676 -0.618563 -4.20778 0
M  V30 9455 N 877.991 1.48044 -0.54043 0
M  V30 9456 C 878.938 2.29781 0.216597 0
M  V30 9457 C 879.908 1.38021 0.924094 0
M  V30 9458 O 881.093 1.66985 0.923078 0
M  V30 9459 C 878.233 3.21623 1.2511 0
M  V30 9460 C 877.346 4.28467 0.551384 0
M  V30 9461 C 876.481 5.07477 1.56972 0
M  V30 9462 C 875.52 6.06113 0.854048 0
M  V30 9463 N 874.657 6.78143 1.81842 0
M  V30 9464 H 879.497 2.94001 -0.486578 0
M  V30 9465 H 877.034 1.44929 -0.251789 0
M  V30 9466 H 878.992 3.73279 1.8633 0
M  V30 9467 H 877.622 2.59305 1.92252 0
M  V30 9468 H 876.674 3.79997 -0.174982 0
M  V30 9469 H 877.986 4.98799 -0.0100542 0
M  V30 9470 H 877.14 5.63199 2.25592 0
M  V30 9471 H 875.879 4.37008 2.16507 0
M  V30 9472 H 874.884 5.49585 0.153838 0
M  V30 9473 H 876.109 6.78584 0.264675 0
M  V30 9474 H 874.055 6.10417 2.40265 0
M  V30 9475 H 873.972 7.44587 1.3087 0
M  V30 9476 H 875.24 7.38448 2.49628 0
M  V30 9477 N 879.47 0.276058 1.55163 0
M  V30 9478 C 880.7 -0.343274 2.03728 0
M  V30 9479 C 881.108 -1.49945 1.15383 0
M  V30 9480 O 880.451 -1.82942 0.166696 0
M  V30 9481 C 880.513 -0.885683 3.48419 0
M  V30 9482 C 880.177 0.141976 4.56779 0
M  V30 9483 C 881.174 0.961816 5.10926 0
M  V30 9484 C 878.859 0.276487 5.01538 0
M  V30 9485 C 880.853 1.90234 6.0835 0
M  V30 9486 C 878.54 1.22049 5.98788 0
M  V30 9487 C 879.538 2.03192 6.52075 0
M  V30 9488 O 879.226 2.95996 7.47423 0
M  V30 9489 H 878.958 -0.0822192 0.670981 0
M  V30 9490 H 881.512 0.406199 2.01343 0
M  V30 9491 H 879.742 -1.68524 3.48047 0
M  V30 9492 H 881.431 -1.4182 3.80318 0
M  V30 9493 H 882.197 0.868637 4.77158 0
M  V30 9494 H 878.076 -0.345095 4.59707 0
M  V30 9495 H 881.62 2.5361 6.49867 0
M  V30 9496 H 877.517 1.31448 6.31974 0
M  V30 9497 H 878.285 2.90688 7.65142 0
M  V30 9498 N 880.948 -1.576 0.00335426 0
M  V30 9499 C 882.194 -1.91833 -0.676149 0
M  V30 9500 C 882.549 -0.878079 -1.71194 0
M  V30 9501 O 881.842 0.109297 -1.91288 0
M  V30 9502 C 882.036 -3.3058 -1.35837 0
M  V30 9503 C 881.865 -4.48004 -0.390171 0
M  V30 9504 C 880.635 -5.053 0.000648493 0
M  V30 9505 C 882.833 -5.13142 0.344982 0
M  V30 9506 N 880.815 -6.06241 0.966709 0
M  V30 9507 C 882.186 -6.08944 1.16562 0
M  V30 9508 C 884.241 -4.96222 0.408457 0
M  V30 9509 C 882.944 -6.89649 2.04395 0
M  V30 9510 C 884.97 -5.77514 1.27403 0
M  V30 9511 C 884.332 -6.72912 2.08251 0
M  V30 9512 H 880.431 -0.750263 -0.220519 0
M  V30 9513 H 883.015 -1.94593 0.0644891 0
M  V30 9514 H 881.186 -3.28687 -2.06928 0
M  V30 9515 H 882.918 -3.52233 -1.99284 0
M  V30 9516 H 879.673 -4.72165 -0.368428 0
M  V30 9517 H 880.097 -6.61394 1.44521 0
M  V30 9518 H 884.739 -4.22316 -0.202324 0
M  V30 9519 H 882.457 -7.62878 2.66539 0
M  V30 9520 H 886.043 -5.66462 1.3271 0
M  V30 9521 H 884.923 -7.34721 2.74145 0
M  V30 9522 N 882.426 0.269451 -1.5528 0
M  V30 9523 C 883.389 1.31642 -1.87625 0
M  V30 9524 C 884.389 1.42182 -0.751058 0
M  V30 9525 O 885.579 1.41272 -1.01921 0
M  V30 9526 C 882.711 2.6973 -2.08467 0
M  V30 9527 H 883.904 1.0419 -2.81219 0
M  V30 9528 H 881.457 0.507685 -1.47825 0
M  V30 9529 H 882.192 3.02356 -1.17266 0
M  V30 9530 H 881.977 2.63465 -2.90394 0
M  V30 9531 H 883.467 3.4537 -2.34753 0
M  V30 9532 N 883.904 1.48273 0.534124 0
M  V30 9533 C 885.129 1.59988 1.31979 0
M  V30 9534 C 885.554 0.258824 1.86311 0
M  V30 9535 O 884.912 -0.768885 1.64188 0
M  V30 9536 C 884.96 2.64642 2.44943 0
M  V30 9537 O 884.064 2.21515 3.47858 0
M  V30 9538 H 883.405 0.536625 0.391063 0
M  V30 9539 H 885.935 1.94229 0.643135 0
M  V30 9540 H 885.945 2.85786 2.91187 0
M  V30 9541 H 884.62 3.62004 2.04758 0
M  V30 9542 H 883.197 2.10567 3.0776 0
M  V30 9543 N 885.382 -0.782676 1.36792 0
M  V30 9544 C 886.312 -1.90973 1.34356 0
M  V30 9545 C 887.293 -1.6875 0.213917 0
M  V30 9546 O 888.478 -1.89766 0.412601 0
M  V30 9547 C 885.608 -3.28097 1.13884 0
M  V30 9548 C 884.562 -3.6486 2.23744 0
M  V30 9549 C 883.888 -5.00406 1.88408 0
M  V30 9550 C 885.188 -3.72742 3.6587 0
M  V30 9551 H 886.882 -1.93268 2.28665 0
M  V30 9552 H 884.428 -0.928447 1.10072 0
M  V30 9553 H 886.381 -4.06569 1.10813 0
M  V30 9554 H 885.105 -3.26206 0.160275 0
M  V30 9555 H 883.764 -2.88689 2.25952 0
M  V30 9556 H 883.412 -4.95044 0.891083 0
M  V30 9557 H 883.112 -5.25973 2.61966 0
M  V30 9558 H 884.636 -5.81291 1.86905 0
M  V30 9559 H 886.05 -4.4139 3.65852 0
M  V30 9560 H 884.447 -4.09798 4.38389 0
M  V30 9561 H 885.517 -2.73676 4.00287 0
M  V30 9562 N 886.86 -1.21182 -1.00761 0
M  V30 9563 C 888.276 -0.968607 -1.26847 0
M  V30 9564 C 888.476 0.346561 -1.98497 0
M  V30 9565 O 887.532 1.07287 -2.28573 0
M  V30 9566 C 888.845 -2.1574 -2.09467 0
M  V30 9567 C 890.393 -2.19937 -2.22703 0
M  V30 9568 C 890.868 -3.38328 -3.08704 0
M  V30 9569 N 892.359 -3.38398 -3.16293 0
M  V30 9570 C 893.094 -4.26653 -3.83086 0
M  V30 9571 N 892.59 -5.25101 -4.5193 0
M  V30 9572 N 894.383 -4.14469 -3.797 0
M  V30 9573 H 886.534 -2.05763 -0.526816 0
M  V30 9574 H 888.797 -0.90087 -0.29519 0
M  V30 9575 H 888.503 -3.11034 -1.64167 0
M  V30 9576 H 888.377 -2.14584 -3.10216 0
M  V30 9577 H 890.764 -1.25201 -2.67224 0
M  V30 9578 H 890.845 -2.25139 -1.21433 0
M  V30 9579 H 890.489 -4.33356 -2.64886 0
M  V30 9580 H 890.419 -3.30364 -4.10082 0
M  V30 9581 H 892.91 -2.67149 -2.67282 0
M  V30 9582 H 893.223 -5.8875 -5.00592 0
M  V30 9583 H 891.568 -5.29029 -4.50726 0
M  V30 9584 H 894.759 -3.3682 -3.25069 0
M  V30 9585 H 894.932 -4.83458 -4.31477 0
M  V30 9586 N 888.338 1.20213 -1.01915 0
M  V30 9587 C 889.286 2.25125 -0.584936 0
M  V30 9588 C 890.28 1.65138 0.377602 0
M  V30 9589 O 891.486 1.78294 0.247245 0
M  V30 9590 H 887.861 0.732333 -0.170858 0
M  V30 9591 H 889.832 2.59075 -1.48063 0
M  V30 9592 C 888.581 3.47651 0.058389 0
M  V30 9593 H 887.904 3.9409 -0.673263 0
M  V30 9594 H 889.344 4.2275 0.325285 0
M  V30 9595 C 887.803 3.10725 1.30199 0
M  V30 9596 O 888.333 3.22491 2.39505 0
M  V30 9597 N 886.539 2.6525 1.18706 0
M  V30 9598 H 886.086 2.55875 0.297618 0
M  V30 9599 H 886.044 2.40913 2.02011 0
M  V30 9600 N 889.816 0.795718 1.36037 0
M  V30 9601 C 890.746 0.212803 2.32528 0
M  V30 9602 C 891.727 -0.655716 1.56953 0
M  V30 9603 O 892.912 -0.588238 1.85077 0
M  V30 9604 C 890.042 -0.648189 3.41198 0
M  V30 9605 C 888.996 0.120948 4.27829 0
M  V30 9606 C 888.322 -0.861044 5.27722 0
M  V30 9607 C 889.622 1.31375 5.05508 0
M  V30 9608 H 891.316 1.01893 2.81528 0
M  V30 9609 H 888.862 0.491422 1.35355 0
M  V30 9610 H 890.815 -1.06597 4.07695 0
M  V30 9611 H 889.539 -1.48709 2.9078 0
M  V30 9612 H 888.198 0.519777 3.62897 0
M  V30 9613 H 887.846 -1.69515 4.73575 0
M  V30 9614 H 887.546 -0.350808 5.86552 0
M  V30 9615 H 889.07 -1.27726 5.97092 0
M  V30 9616 H 890.484 0.971406 5.6501 0
M  V30 9617 H 888.881 1.75772 5.73781 0
M  V30 9618 H 889.951 2.10593 4.36782 0
M  V30 9619 N 891.294 -1.47756 0.548274 0
M  V30 9620 C 892.54 -2.02789 0.0209265 0
M  V30 9621 C 892.873 -1.42268 -1.32187 0
M  V30 9622 O 892.148 -0.575001 -1.85806 0
M  V30 9623 C 892.431 -3.60007 -0.0816674 0
M  V30 9624 C 892.284 -4.30977 1.28759 0
M  V30 9625 C 893.603 -4.32777 -0.799515 0
M  V30 9626 H 890.722 -0.736944 0.00907884 0
M  V30 9627 H 893.364 -1.76282 0.708839 0
M  V30 9628 H 891.514 -3.82722 -0.667537 0
M  V30 9629 H 893.186 -4.19629 1.91597 0
M  V30 9630 H 891.429 -3.9168 1.86466 0
M  V30 9631 H 892.1 -5.39488 1.16861 0
M  V30 9632 H 894.576 -4.15001 -0.30216 0
M  V30 9633 H 893.452 -5.42431 -0.840239 0
M  V30 9634 H 893.713 -4.01358 -1.85375 0
M  V30 9635 N 892.772 -0.284283 -1.55015 0
M  V30 9636 C 894.018 0.330352 -2.00091 0
M  V30 9637 C 894.351 1.54814 -1.17244 0
M  V30 9638 O 893.626 1.92954 -0.244753 0
M  V30 9639 C 893.909 0.703492 -3.53161 0
M  V30 9640 C 893.762 -0.522275 -4.46758 0
M  V30 9641 C 895.081 1.53645 -4.12409 0
M  V30 9642 H 892.2 0.118599 -0.727395 0
M  V30 9643 H 894.842 -0.393054 -1.8589 0
M  V30 9644 H 892.992 1.31983 -3.65394 0
M  V30 9645 H 894.664 -1.16082 -4.46456 0
M  V30 9646 H 892.907 -1.15865 -4.1804 0
M  V30 9647 H 893.578 -0.217295 -5.51572 0
M  V30 9648 H 896.054 1.01583 -4.0351 0
M  V30 9649 H 894.93 1.76633 -5.19704 0
M  V30 9650 H 895.191 2.5204 -3.63219 0
M  V30 9651 N 894.251 1.57596 -0.0117121 0
M  V30 9652 C 895.476 1.95764 0.684938 0
M  V30 9653 C 895.901 0.887285 1.65858 0
M  V30 9654 O 895.259 -0.153508 1.80649 0
M  V30 9655 C 895.307 3.33031 1.38285 0
M  V30 9656 O 894.411 3.28163 2.49765 0
M  V30 9657 H 893.752 0.638767 0.181309 0
M  V30 9658 H 896.282 2.04486 -0.0683883 0
M  V30 9659 H 896.292 3.68866 1.74362 0
M  V30 9660 H 894.967 4.10483 0.669043 0
M  V30 9661 H 893.544 3.04021 2.15929 0
M  V30 9662 N 895.729 -0.261212 1.5542 0
M  V30 9663 C 896.659 -1.32712 1.92119 0
M  V30 9664 C 897.64 -1.50934 0.784406 0
M  V30 9665 O 898.825 -1.63781 1.04352 0
M  V30 9666 C 895.955 -2.68453 2.20341 0
M  V30 9667 C 894.909 -2.64947 3.36136 0
M  V30 9668 C 894.235 -4.04349 3.49865 0
M  V30 9669 C 895.535 -2.23182 4.72215 0
M  V30 9670 H 897.229 -1.02245 2.81401 0
M  V30 9671 H 894.775 -0.490406 1.35392 0
M  V30 9672 H 896.728 -3.43144 2.44603 0
M  V30 9673 H 895.452 -3.00527 1.27871 0
M  V30 9674 H 894.111 -1.92714 3.11861 0
M  V30 9675 H 893.759 -4.33665 2.5484 0
M  V30 9676 H 893.459 -4.02895 4.27726 0
M  V30 9677 H 894.983 -4.80761 3.76432 0
M  V30 9678 H 896.397 -2.87599 4.95943 0
M  V30 9679 H 894.794 -2.32867 5.53076 0
M  V30 9680 H 895.864 -1.18327 4.70241 0
M  V30 9681 N 897.207 -1.48554 -0.526253 0
M  V30 9682 C 898.137 -1.66252 -1.63959 0
M  V30 9683 C 899.118 -0.511351 -1.62232 0
M  V30 9684 O 900.303 -0.744322 -1.7937 0
M  V30 9685 C 897.433 -1.70556 -3.02536 0
M  V30 9686 C 896.387 -2.8521 -3.19123 0
M  V30 9687 C 895.713 -2.74606 -4.58798 0
M  V30 9688 C 897.013 -4.26463 -3.0154 0
M  V30 9689 H 898.707 -2.59459 -1.49404 0
M  V30 9690 H 896.253 -1.24862 -0.717326 0
M  V30 9691 H 898.206 -1.81524 -3.80298 0
M  V30 9692 H 896.93 -0.739297 -3.18123 0
M  V30 9693 H 895.589 -2.73802 -2.43779 0
M  V30 9694 H 895.237 -1.75941 -4.71226 0
M  V30 9695 H 894.937 -3.51544 -4.70841 0
M  V30 9696 H 896.461 -2.87548 -5.38655 0
M  V30 9697 H 897.875 -4.38685 -3.69091 0
M  V30 9698 H 896.272 -5.04428 -3.25073 0
M  V30 9699 H 897.342 -4.42667 -1.97925 0
M  V30 9700 N 898.685 0.775411 -1.37205 0
M  V30 9701 C 899.633 1.90996 -1.32752 0
M  V30 9702 C 900.627 1.68006 -0.216907 0
M  V30 9703 O 901.833 1.7584 -0.384723 0
M  V30 9704 H 898.208 0.62803 -0.413621 0
M  V30 9705 H 900.179 1.91869 -2.28536 0
M  V30 9706 C 898.928 3.28211 -1.14772 0
M  V30 9707 H 898.251 3.46477 -1.99484 0
M  V30 9708 H 899.691 4.07907 -1.15706 0
M  V30 9709 C 898.15 3.3658 0.146852 0
M  V30 9710 O 898.68 3.85428 1.13173 0
M  V30 9711 N 896.886 2.89936 0.196305 0
M  V30 9712 H 896.433 2.50375 -0.605807 0
M  V30 9713 H 896.391 2.95916 1.06212 0
M  V30 9714 N 900.163 1.21714 1.00117 0
M  V30 9715 C 901.388 1.06357 1.78054 0
M  V30 9716 C 901.813 -0.382075 1.84179 0
M  V30 9717 O 901.171 -1.27575 1.28819 0
M  V30 9718 C 901.219 1.66982 3.19608 0
M  V30 9719 O 900.323 0.917892 4.02055 0
M  V30 9720 H 899.664 0.374074 0.548602 0
M  V30 9721 H 902.194 1.61338 1.25822 0
M  V30 9722 H 902.204 1.71363 3.70268 0
M  V30 9723 H 900.879 2.72185 3.14465 0
M  V30 9724 H 899.456 0.949473 3.6061 0
M  V30 9725 N 901.641 -1.19671 1.02551 0
M  V30 9726 C 902.574 -2.21522 0.547998 0
M  V30 9727 C 903.552 -1.57363 -0.409349 0
M  V30 9728 O 904.736 -1.85638 -0.327248 0
M  V30 9729 C 901.863 -3.38101 -0.201375 0
M  V30 9730 C 900.909 -4.20601 0.706886 0
M  V30 9731 S 901.742 -4.89066 2.18116 0
M  V30 9732 C 902.898 -6.09058 1.4422 0
M  V30 9733 H 903.131 -2.61684 1.41099 0
M  V30 9734 H 900.664 -1.29864 0.835153 0
M  V30 9735 H 902.622 -4.05674 -0.627607 0
M  V30 9736 H 901.283 -2.96381 -1.04005 0
M  V30 9737 H 900.476 -5.03836 0.128554 0
M  V30 9738 H 900.078 -3.58329 1.07129 0
M  V30 9739 H 902.37 -6.73588 0.726975 0
M  V30 9740 H 903.313 -6.71368 2.25102 0
M  V30 9741 H 903.721 -5.56599 0.941176 0
M  V30 9742 N 903.119 -0.802921 -1.35613 0
M  V30 9743 C 904.066 -0.20874 -2.29854 0
M  V30 9744 C 905.036 0.655128 -1.52634 0
M  V30 9745 O 906.221 0.600979 -1.81088 0
M  V30 9746 C 903.361 0.639663 -3.3912 0
M  V30 9747 C 902.474 -0.244234 -4.31309 0
M  V30 9748 C 901.609 0.611825 -5.27665 0
M  V30 9749 C 900.648 -0.272698 -6.11492 0
M  V30 9750 N 899.785 0.543122 -6.99996 0
M  V30 9751 H 904.625 -1.01782 -2.80079 0
M  V30 9752 H 902.162 -0.513465 -1.37848 0
M  V30 9753 H 904.12 1.14668 -4.01132 0
M  V30 9754 H 902.75 1.41404 -2.9018 0
M  V30 9755 H 901.802 -0.869322 -3.70334 0
M  V30 9756 H 903.114 -0.925202 -4.90144 0
M  V30 9757 H 902.268 1.18412 -5.95032 0
M  V30 9758 H 901.007 1.32637 -4.69317 0
M  V30 9759 H 900.012 -0.857287 -5.43075 0
M  V30 9760 H 901.237 -0.985051 -6.71918 0
M  V30 9761 H 899.183 1.24171 -6.44141 0
M  V30 9762 H 899.1 -0.0798767 -7.55958 0
M  V30 9763 H 900.368 1.09881 -7.71717 0
M  V30 9764 N 904.597 1.47463 -0.556102 0
M  V30 9765 C 905.822 2.07371 -0.0344729 0
M  V30 9766 C 906.247 1.40621 1.2493 0
M  V30 9767 O 905.605 0.48082 1.74808 0
M  V30 9768 C 905.653 3.60306 0.145563 0
M  V30 9769 O 904.757 3.94299 1.20839 0
M  V30 9770 H 904.098 0.662052 -0.0508274 0
M  V30 9771 H 906.628 1.89498 -0.771469 0
M  V30 9772 H 906.638 4.06408 0.360112 0
M  V30 9773 H 905.313 4.08288 -0.792089 0
M  V30 9774 H 903.89 3.59944 0.97442 0
M  V30 9775 N 906.075 0.2925 1.54862 0
M  V30 9776 C 907.324 -0.319994 1.99146 0
M  V30 9777 C 907.637 -1.55658 1.18448 0
M  V30 9778 O 908.843 -2.24312 1.52959 0
M  V30 9779 C 907.299 -0.620665 3.54508 0
M  V30 9780 C 906.907 0.597098 4.44003 0
M  V30 9781 C 908.651 -1.19482 4.07338 0
M  V30 9782 C 906.558 0.270049 5.90783 0
M  V30 9783 H 905.488 -0.123342 0.743843 0
M  V30 9784 H 908.139 0.399876 1.7909 0
M  V30 9785 H 906.521 -1.3999 3.7043 0
M  V30 9786 H 907.695 1.37354 4.39853 0
M  V30 9787 H 906.01 1.0893 4.019 0
M  V30 9788 H 908.607 -1.45362 5.14562 0
M  V30 9789 H 908.95 -2.13435 3.57423 0
M  V30 9790 H 909.483 -0.477485 3.94924 0
M  V30 9791 H 906.222 1.17791 6.4483 0
M  V30 9792 H 905.742 -0.469292 5.97961 0
M  V30 9793 H 907.421 -0.131471 6.46866 0
M  V30 9794 N 907.553 -1.57587 0.0200696 0
M  V30 9795 C 908.802 -1.90602 -0.659822 0
M  V30 9796 C 909.115 -0.897216 -1.73808 0
M  V30 9797 O 910.321 -1.11829 -2.47399 0
M  V30 9798 C 908.777 -3.38416 -1.22484 0
M  V30 9799 C 908.385 -4.47637 -0.180339 0
M  V30 9800 C 910.129 -3.80513 -1.88176 0
M  V30 9801 C 908.036 -5.86542 -0.756482 0
M  V30 9802 H 906.966 -0.711272 -0.250216 0
M  V30 9803 H 909.617 -1.83308 0.0838942 0
M  V30 9804 H 907.999 -3.40613 -2.01987 0
M  V30 9805 H 909.173 -4.56987 0.591573 0
M  V30 9806 H 907.488 -4.14687 0.377302 0
M  V30 9807 H 910.085 -4.8164 -2.32222 0
M  V30 9808 H 910.428 -3.15091 -2.72073 0
M  V30 9809 H 910.961 -3.80701 -1.15377 0
M  V30 9810 H 907.7 -6.55485 0.0441468 0
M  V30 9811 H 907.22 -5.80816 -1.49709 0
M  V30 9812 H 908.899 -6.3483 -1.249 0
M  V30 9813 N 909.032 0.252966 -1.55557 0
M  V30 9814 C 910.257 1.0038 -1.8149 0
M  V30 9815 C 910.682 1.78397 -0.596318 0
M  V30 9816 O 910.04 1.7551 0.454535 0
M  V30 9817 C 910.088 1.9222 -3.05096 0
M  V30 9818 O 909.192 3.01302 -2.81587 0
M  V30 9819 H 908.533 0.285949 -0.599274 0
M  V30 9820 H 911.063 0.275795 -2.02733 0
M  V30 9821 H 911.073 2.338 -3.34368 0
M  V30 9822 H 909.748 1.34852 -3.93431 0
M  V30 9823 H 908.325 2.63894 -2.63466 0
M  V30 9824 N 910.51 1.48831 0.518367 0
M  V30 9825 C 911.44 1.67119 1.63075 0
M  V30 9826 C 912.421 0.519948 1.61958 0
M  V30 9827 O 913.606 0.753824 1.78972 0
M  V30 9828 C 910.736 1.72158 3.01627 0
M  V30 9829 C 909.69 2.86898 3.17606 0
M  V30 9830 C 909.016 2.77035 4.57335 0
M  V30 9831 C 910.316 4.28057 2.99274 0
M  V30 9832 H 912.01 2.60248 1.48025 0
M  V30 9833 H 909.556 1.2524 0.710694 0
M  V30 9834 H 911.509 1.83539 3.7933 0
M  V30 9835 H 910.233 0.756157 3.17726 0
M  V30 9836 H 908.892 2.75091 2.42323 0
M  V30 9837 H 908.54 1.78438 4.70286 0
M  V30 9838 H 908.24 3.54036 4.6897 0
M  V30 9839 H 909.764 2.904 5.37122 0
M  V30 9840 H 911.178 4.40636 3.6676 0
M  V30 9841 H 909.575 5.06145 3.22393 0
M  V30 9842 H 910.645 4.4371 1.95574 0
M  V30 9843 N 911.988 -0.768124 1.37614 0
M  V30 9844 C 912.918 -1.89537 1.36374 0
M  V30 9845 C 913.899 -1.68513 0.231803 0
M  V30 9846 O 915.084 -1.89318 0.432705 0
M  V30 9847 C 912.214 -3.26871 1.17358 0
M  V30 9848 C 911.168 -3.62466 2.27602 0
M  V30 9849 C 910.494 -4.9838 1.93705 0
M  V30 9850 C 911.794 -3.68841 3.69802 0
M  V30 9851 H 913.488 -1.90832 2.30702 0
M  V30 9852 H 911.034 -0.91672 1.11051 0
M  V30 9853 H 912.987 -4.05371 1.15119 0
M  V30 9854 H 911.711 -3.26018 0.194865 0
M  V30 9855 H 910.37 -2.86276 2.29002 0
M  V30 9856 H 910.018 -4.94071 0.943539 0
M  V30 9857 H 909.718 -5.23165 2.6753 0
M  V30 9858 H 911.242 -5.79276 1.93059 0
M  V30 9859 H 912.656 -4.37485 3.70513 0
M  V30 9860 H 911.053 -4.05126 4.42711 0
M  V30 9861 H 912.123 -2.69415 4.03167 0
M  V30 9862 N 913.466 -1.22244 -0.994698 0
M  V30 9863 C 914.713 -1.04591 -1.73398 0
M  V30 9864 C 915.041 0.419223 -1.89928 0
M  V30 9865 O 914.296 1.32714 -1.43824 0
M  V30 9866 C 914.595 -1.70014 -3.14372 0
M  V30 9867 C 914.261 -3.19903 -3.17762 0
M  V30 9868 C 912.923 -3.60803 -3.18394 0
M  V30 9869 C 915.275 -4.15851 -3.14194 0
M  V30 9870 C 912.603 -4.96135 -3.13157 0
M  V30 9871 C 914.955 -5.51157 -3.10498 0
M  V30 9872 C 913.619 -5.91439 -3.09445 0
M  V30 9873 H 912.889 -0.382725 -0.63451 0
M  V30 9874 H 915.536 -1.51981 -1.16508 0
M  V30 9875 H 913.841 -1.14945 -3.7456 0
M  V30 9876 H 915.538 -1.53848 -3.70313 0
M  V30 9877 H 912.128 -2.87336 -3.18019 0
M  V30 9878 H 916.312 -3.85272 -3.12857 0
M  V30 9879 H 911.568 -5.26578 -3.10685 0
M  V30 9880 H 915.742 -6.2523 -3.06692 0
M  V30 9881 H 913.369 -6.96271 -3.05141 0
M  V30 9882 N 914.944 1.19125 -1.03184 0
M  V30 9883 C 915.874 2.24675 -0.635889 0
M  V30 9884 C 916.855 1.66321 0.356565 0
M  V30 9885 O 918.04 1.92728 0.238625 0
M  V30 9886 C 915.17 3.47298 0.011069 0
M  V30 9887 C 914.124 4.18345 -0.903979 0
M  V30 9888 C 913.45 5.34561 -0.12197 0
M  V30 9889 C 914.75 4.72816 -2.21907 0
M  V30 9890 H 916.444 2.5805 -1.51825 0
M  V30 9891 H 913.99 1.24039 -0.73146 0
M  V30 9892 H 915.943 4.20333 0.299729 0
M  V30 9893 H 914.667 3.13131 0.928245 0
M  V30 9894 H 913.326 3.47196 -1.17688 0
M  V30 9895 H 912.974 4.9664 0.797334 0
M  V30 9896 H 912.674 5.83029 -0.731498 0
M  V30 9897 H 914.198 6.10391 0.159881 0
M  V30 9898 H 915.612 5.3759 -1.99173 0
M  V30 9899 H 914.009 5.31782 -2.78078 0
M  V30 9900 H 915.079 3.9072 -2.87168 0
M  V30 9901 N 916.422 0.810101 1.35185 0
M  V30 9902 C 917.352 0.237453 2.32289 0
M  V30 9903 C 918.333 -0.639032 1.5764 0
M  V30 9904 O 919.518 -0.568575 1.8569 0
M  V30 9905 C 916.648 -0.611964 3.41866 0
M  V30 9906 C 915.602 0.166318 4.27677 0
M  V30 9907 C 914.928 -0.805024 5.28605 0
M  V30 9908 C 916.228 1.36729 5.04086 0
M  V30 9909 H 917.922 1.04874 2.80432 0
M  V30 9910 H 915.468 0.505751 1.34826 0
M  V30 9911 H 917.421 -1.02267 4.08802 0
M  V30 9912 H 916.145 -1.45617 2.92341 0
M  V30 9913 H 914.804 0.558238 3.62325 0
M  V30 9914 H 914.452 -1.64483 4.75347 0
M  V30 9915 H 914.152 -0.288577 5.86891 0
M  V30 9916 H 915.676 -1.21386 5.98413 0
M  V30 9917 H 917.09 1.03128 5.63948 0
M  V30 9918 H 915.487 1.81848 5.71884 0
M  V30 9919 H 916.557 2.15214 4.34524 0
M  V30 9920 N 917.9 -1.47166 0.563914 0
M  V30 9921 C 919.147 -2.02456 0.042371 0
M  V30 9922 C 919.475 -1.43753 -1.31016 0
M  V30 9923 O 918.73 -0.585287 -1.86743 0
M  V30 9924 C 919.029 -3.57279 -0.0931797 0
M  V30 9925 C 918.695 -4.34932 1.18933 0
M  V30 9926 C 917.357 -4.55867 1.54073 0
M  V30 9927 C 919.709 -4.79665 2.03889 0
M  V30 9928 C 917.037 -5.18785 2.74005 0
M  V30 9929 C 919.389 -5.43907 3.23029 0
M  V30 9930 C 918.053 -5.63074 3.58475 0
M  V30 9931 H 917.323 -0.740838 0.0155047 0
M  V30 9932 H 919.97 -1.76759 0.736776 0
M  V30 9933 H 918.275 -3.82005 -0.870596 0
M  V30 9934 H 919.972 -3.97716 -0.512176 0
M  V30 9935 H 916.562 -4.18921 0.905718 0
M  V30 9936 H 920.746 -4.63264 1.78046 0
M  V30 9937 H 916.002 -5.31818 3.01628 0
M  V30 9938 H 920.176 -5.77531 3.89141 0
M  V30 9939 H 917.803 -6.11598 4.515 0
M  V30 9940 N 919.378 -0.300708 -1.54705 0
M  V30 9941 C 920.308 0.568675 -2.26469 0
M  V30 9942 C 921.289 1.13817 -1.26411 0
M  V30 9943 O 922.474 1.16756 -1.55183 0
M  V30 9944 C 919.604 1.74077 -3.00524 0
M  V30 9945 C 918.558 1.30165 -4.07727 0
M  V30 9946 C 917.884 2.55888 -4.69495 0
M  V30 9947 C 919.184 0.433106 -5.20501 0
M  V30 9948 H 920.878 -0.0298851 -2.99385 0
M  V30 9949 H 918.424 -0.0158135 -1.43991 0
M  V30 9950 H 920.377 2.35506 -3.49449 0
M  V30 9951 H 919.101 2.36556 -2.25186 0
M  V30 9952 H 917.76 0.710414 -3.59651 0
M  V30 9953 H 917.408 3.16681 -3.90797 0
M  V30 9954 H 917.108 2.27207 -5.41895 0
M  V30 9955 H 918.632 3.18121 -5.21183 0
M  V30 9956 H 920.046 0.95307 -5.65322 0
M  V30 9957 H 918.443 0.240085 -5.9962 0
M  V30 9958 H 919.513 -0.541866 -4.81863 0
M  V30 9959 N 920.856 1.57574 -0.0284266 0
M  V30 9960 C 922.103 1.91772 0.650364 0
M  V30 9961 C 922.431 0.904769 1.72175 0
M  V30 9962 O 921.686 -0.0864038 1.95509 0
M  V30 9963 C 921.985 3.32699 1.3056 0
M  V30 9964 C 921.651 4.49423 0.364658 0
M  V30 9965 C 920.313 4.81084 0.105672 0
M  V30 9966 C 922.665 5.20439 -0.28151 0
M  V30 9967 C 919.993 5.81119 -0.8073 0
M  V30 9968 C 922.345 6.21449 -1.18253 0
M  V30 9969 C 921.009 6.51551 -1.45042 0
M  V30 9970 H 920.279 0.701744 0.237985 0
M  V30 9971 H 922.926 1.91288 -0.0900448 0
M  V30 9972 H 921.231 3.29441 2.12075 0
M  V30 9973 H 922.928 3.5643 1.83736 0
M  V30 9974 H 919.518 4.24703 0.576692 0
M  V30 9975 H 923.702 4.9621 -0.0944806 0
M  V30 9976 H 918.958 6.02788 -1.02256 0
M  V30 9977 H 923.132 6.75597 -1.68942 0
M  V30 9978 H 920.759 7.28882 -2.15951 0
M  V30 9979 N 922.334 -0.244713 1.55689 0
M  V30 9980 C 923.583 -0.970373 1.76824 0
M  V30 9981 C 923.896 -1.86402 0.592764 0
M  V30 9982 O 925.102 -2.62659 0.687186 0
M  V30 9983 C 923.558 -1.77547 3.13058 0
M  V30 9984 C 923.166 -0.929104 4.3826 0
M  V30 9985 C 924.91 -2.49373 3.43531 0
M  V30 9986 C 922.817 -1.73021 5.65524 0
M  V30 9987 H 921.747 -0.366048 0.659185 0
M  V30 9988 H 924.398 -0.224964 1.82116 0
M  V30 9989 H 922.78 -2.56291 3.01879 0
M  V30 9990 H 923.954 -0.183836 4.60433 0
M  V30 9991 H 922.269 -0.324071 4.15137 0
M  V30 9992 H 924.866 -3.09767 4.35831 0
M  V30 9993 H 925.209 -3.21099 2.64955 0
M  V30 9994 H 925.742 -1.77637 3.55935 0
M  V30 9995 H 922.481 -1.05666 6.46927 0
M  V30 9996 H 922.001 -2.45071 5.47449 0
M  V30 9997 H 923.68 -2.2968 6.0486 0
M  V30 9998 N 923.813 -1.49104 -0.510467 0
M  V30 9999 C 925.059 -1.58346 -1.26705 0
M  V30 10000 C 925.392 -0.265121 -1.92382 0
M  V30 10001 O 924.667 0.730558 -1.80258 0
M  V30 10002 C 924.95 -2.7359 -2.34137 0
M  V30 10003 C 924.803 -4.1519 -1.73024 0
M  V30 10004 C 926.122 -2.84511 -3.3577 0
M  V30 10005 H 923.241 -0.57637 -0.459311 0
M  V30 10006 H 925.883 -1.81353 -0.566658 0
M  V30 10007 H 924.033 -2.54105 -2.93876 0
M  V30 10008 H 925.705 -4.46167 -1.17186 0
M  V30 10009 H 923.948 -4.21279 -1.03473 0
M  V30 10010 H 924.619 -4.91683 -2.50903 0
M  V30 10011 H 927.095 -3.0222 -2.86011 0
M  V30 10012 H 925.971 -3.6684 -4.08313 0
M  V30 10013 H 926.232 -1.93471 -3.97519 0
M  V30 10014 N 925.291 0.760815 -1.38019 0
M  V30 10015 C 926.537 1.52198 -1.34028 0
M  V30 10016 C 926.87 1.94067 0.0718309 0
M  V30 10017 O 926.145 1.64895 1.0315 0
M  V30 10018 C 926.428 2.77954 -2.2894 0
M  V30 10019 C 926.281 2.42269 -3.7898 0
M  V30 10020 C 927.6 3.79943 -2.22107 0
M  V30 10021 H 924.719 0.552131 -0.488181 0
M  V30 10022 H 927.361 0.871971 -1.6881 0
M  V30 10023 H 925.511 3.33419 -1.9941 0
M  V30 10024 H 927.183 1.92635 -4.19153 0
M  V30 10025 H 925.426 1.74822 -3.97014 0
M  V30 10026 H 926.097 3.32211 -4.4084 0
M  V30 10027 H 928.573 3.34 -2.4816 0
M  V30 10028 H 927.449 4.6564 -2.90639 0
M  V30 10029 H 927.71 4.25004 -1.21753 0
M  V30 10030 N 926.769 1.22769 0.988202 0
M  V30 10031 C 928.016 1.05509 1.72841 0
M  V30 10032 C 928.344 -0.409145 1.90148 0
M  V30 10033 O 927.599 -1.3195 1.44526 0
M  V30 10034 C 927.898 1.71679 3.13466 0
M  V30 10035 C 927.564 3.21584 3.16061 0
M  V30 10036 C 926.226 3.62486 3.16476 0
M  V30 10037 C 928.578 4.17511 3.11984 0
M  V30 10038 C 925.906 4.97789 3.10521 0
M  V30 10039 C 928.258 5.52796 3.0757 0
M  V30 10040 C 926.922 5.93072 3.06304 0
M  V30 10041 H 926.192 0.386085 0.632471 0
M  V30 10042 H 928.839 1.52596 1.157 0
M  V30 10043 H 927.144 1.1693 3.73945 0
M  V30 10044 H 928.841 1.55809 3.69492 0
M  V30 10045 H 925.431 2.89019 3.1649 0
M  V30 10046 H 929.615 3.86926 3.10809 0
M  V30 10047 H 924.871 5.28218 3.07888 0
M  V30 10048 H 929.045 6.26848 3.03372 0
M  V30 10049 H 926.672 6.97879 3.01444 0
M  V30 10050 N 928.247 -1.18576 1.03814 0
M  V30 10051 C 929.21 -2.2033 0.63146 0
M  V30 10052 C 930.21 -1.57787 -0.309816 0
M  V30 10053 O 931.4 -1.73938 -0.0955598 0
M  V30 10054 C 928.532 -3.40818 -0.0745963 0
M  V30 10055 H 929.725 -2.57824 1.53189 0
M  V30 10056 H 927.278 -1.32416 0.830398 0
M  V30 10057 H 928.013 -3.08853 -0.988947 0
M  V30 10058 H 927.798 -3.87453 0.6019 0
M  V30 10059 H 929.288 -4.16166 -0.345727 0
M  V30 10060 N 929.725 -0.817259 -1.34754 0
M  V30 10061 C 930.655 -0.249769 -2.3216 0
M  V30 10062 C 931.636 0.630663 -1.57977 0
M  V30 10063 O 932.821 0.558719 -1.85989 0
M  V30 10064 C 929.951 0.593825 -3.42186 0
M  V30 10065 C 928.905 -0.188997 -4.27583 0
M  V30 10066 C 928.231 0.776979 -5.29025 0
M  V30 10067 C 929.531 -1.39401 -5.03354 0
M  V30 10068 H 931.225 -1.06359 -2.79872 0
M  V30 10069 H 928.771 -0.512894 -1.34556 0
M  V30 10070 H 930.724 1.00097 -4.09339 0
M  V30 10071 H 929.448 1.44064 -2.93109 0
M  V30 10072 H 928.107 -0.577445 -3.62024 0
M  V30 10073 H 927.755 1.61959 -4.76212 0
M  V30 10074 H 927.455 0.257448 -5.87036 0
M  V30 10075 H 928.979 1.18211 -5.99048 0
M  V30 10076 H 930.393 -1.06117 -5.63393 0
M  V30 10077 H 928.79 -1.84878 -5.70912 0
M  V30 10078 H 929.86 -2.17515 -4.33377 0
M  V30 10079 N 931.203 1.46865 -0.571711 0
M  V30 10080 C 932.133 2.3298 0.155795 0
M  V30 10081 C 933.114 1.44678 0.894553 0
M  V30 10082 O 934.299 1.73513 0.872176 0
M  V30 10083 C 931.429 3.26745 1.17708 0
M  V30 10084 C 930.383 4.24401 0.553863 0
M  V30 10085 C 929.709 5.07595 1.68083 0
M  V30 10086 C 931.009 5.19884 -0.501827 0
M  V30 10087 H 932.703 2.94056 -0.563176 0
M  V30 10088 H 930.249 1.41402 -0.27228 0
M  V30 10089 H 932.202 3.85838 1.6943 0
M  V30 10090 H 930.926 2.63753 1.92618 0
M  V30 10091 H 929.585 3.66554 0.057815 0
M  V30 10092 H 929.233 4.40996 2.41933 0
M  V30 10093 H 928.933 5.73722 1.26953 0
M  V30 10094 H 930.457 5.6955 2.20103 0
M  V30 10095 H 931.871 5.73257 -0.0701057 0
M  V30 10096 H 930.268 5.94293 -0.832815 0
M  V30 10097 H 931.338 4.64482 -1.39229 0
M  V30 10098 N 932.681 0.308908 1.54543 0
M  V30 10099 C 933.929 -0.297447 1.99899 0
M  V30 10100 C 934.25 -1.53799 1.19878 0
M  V30 10101 O 933.52 -1.93639 0.29678 0
M  V30 10102 H 932.1 -0.112897 0.738419 0
M  V30 10103 H 934.762 0.422067 1.90275 0
M  V30 10104 H 933.858 -0.564016 3.06961 0
M  V30 10105 N 934.159 -1.57557 0.0367827 0
M  V30 10106 C 935.092 -2.06205 -0.977479 0
M  V30 10107 C 936.07 -0.959444 -1.31276 0
M  V30 10108 O 937.254 -1.23033 -1.42811 0
M  V30 10109 C 934.381 -2.49053 -2.29544 0
M  V30 10110 C 933.427 -3.70409 -2.11423 0
M  V30 10111 S 934.26 -5.16715 -1.40593 0
M  V30 10112 C 935.416 -5.62864 -2.73742 0
M  V30 10113 H 935.649 -2.91913 -0.5634 0
M  V30 10114 H 933.182 -1.53404 -0.175111 0
M  V30 10115 H 935.14 -2.74403 -3.05308 0
M  V30 10116 H 933.801 -1.63677 -2.68083 0
M  V30 10117 H 932.994 -3.98262 -3.08875 0
M  V30 10118 H 932.596 -3.4525 -1.438 0
M  V30 10119 H 934.888 -5.67571 -3.69958 0
M  V30 10120 H 935.831 -6.62294 -2.50544 0
M  V30 10121 H 936.239 -4.90539 -2.79341 0
M  V30 10122 N 935.637 0.236453 -1.55816 0
M  V30 10123 C 936.569 1.31602 -1.87653 0
M  V30 10124 C 937.582 1.43782 -0.763584 0
M  V30 10125 O 938.771 1.44945 -1.04178 0
M  V30 10126 C 935.871 2.69342 -2.05689 0
M  V30 10127 C 935.044 2.79298 -3.36617 0
M  V30 10128 C 934.103 3.97952 -3.44268 0
M  V30 10129 O 933.129 3.86989 -4.17406 0
M  V30 10130 N 934.331 5.11594 -2.74321 0
M  V30 10131 H 937.096 1.04623 -2.80845 0
M  V30 10132 H 934.657 0.426534 -1.5618 0
M  V30 10133 H 936.649 3.47074 -2.08138 0
M  V30 10134 H 935.219 2.88984 -1.19192 0
M  V30 10135 H 934.439 1.8816 -3.46395 0
M  V30 10136 H 935.727 2.82908 -4.22895 0
M  V30 10137 H 935.125 5.23394 -2.14651 0
M  V30 10138 H 933.682 5.87422 -2.8245 0
M  V30 10139 N 937.115 1.49373 0.502552 0
M  V30 10140 C 938.045 1.68839 1.61294 0
M  V30 10141 C 939.026 0.537096 1.61398 0
M  V30 10142 O 940.211 0.772764 1.78163 0
M  V30 10143 C 937.341 1.75347 2.99784 0
M  V30 10144 C 936.295 2.90251 3.14545 0
M  V30 10145 C 935.621 2.8187 4.54371 0
M  V30 10146 C 936.921 4.31207 2.94717 0
M  V30 10147 H 938.615 2.61803 1.45257 0
M  V30 10148 H 936.161 1.25987 0.697371 0
M  V30 10149 H 938.114 1.87552 3.77362 0
M  V30 10150 H 936.838 0.789814 3.16906 0
M  V30 10151 H 935.497 2.77646 2.39392 0
M  V30 10152 H 935.145 1.83416 4.68367 0
M  V30 10153 H 934.845 3.5899 4.65188 0
M  V30 10154 H 936.369 2.96081 5.34012 0
M  V30 10155 H 937.783 4.44501 3.62065 0
M  V30 10156 H 936.18 5.09536 3.17007 0
M  V30 10157 H 937.25 4.45759 1.90857 0
M  V30 10158 N 938.594 -0.753485 1.38421 0
M  V30 10159 C 939.841 -1.51261 1.34634 0
M  V30 10160 C 940.169 -1.94396 -0.0635771 0
M  V30 10161 O 939.424 -1.65736 -1.04068 0
M  V30 10162 C 939.723 -2.77836 2.24816 0
M  V30 10163 C 939.389 -2.53662 3.72782 0
M  V30 10164 C 938.051 -2.46779 4.13103 0
M  V30 10165 C 940.403 -2.32548 4.66445 0
M  V30 10166 C 937.731 -2.16796 5.45176 0
M  V30 10167 C 940.083 -2.04085 5.98775 0
M  V30 10168 C 938.747 -1.95658 6.3818 0
M  V30 10169 H 938.017 -0.553503 0.492661 0
M  V30 10170 H 940.664 -0.866406 1.7078 0
M  V30 10171 H 938.969 -3.47106 1.81726 0
M  V30 10172 H 940.666 -3.35793 2.19189 0
M  V30 10173 H 937.256 -2.59891 3.40815 0
M  V30 10174 H 941.44 -2.36845 4.3614 0
M  V30 10175 H 936.696 -2.0878 5.74648 0
M  V30 10176 H 940.87 -1.86751 6.70893 0
M  V30 10177 H 938.497 -1.7219 7.40442 0
M  V30 10178 N 940.072 -1.23292 -0.981677 0
M  V30 10179 C 941.32 -1.06214 -1.71939 0
M  V30 10180 C 941.641 0.401989 -1.90812 0
M  V30 10181 O 940.911 1.28825 -1.47584 0
M  V30 10182 H 939.491 -0.390042 -0.637084 0
M  V30 10183 H 942.153 -1.54988 -1.18173 0
M  V30 10184 H 941.249 -1.54904 -2.70945 0
M  V30 10185 N 941.55 1.18024 -1.04442 0
M  V30 10186 C 942.798 1.87727 -0.74854 0
M  V30 10187 C 943.119 1.80975 0.726156 0
M  V30 10188 O 942.389 1.23061 1.52423 0
M  V30 10189 H 940.969 0.694974 -0.273897 0
M  V30 10190 H 943.631 1.43213 -1.32197 0
M  V30 10191 H 942.727 2.93665 -1.05674 0
M  V30 10192 N 943.028 0.824394 1.34319 0
M  V30 10193 C 943.96 0.204805 2.28283 0
M  V30 10194 C 944.973 -0.606162 1.51094 0
M  V30 10195 O 946.162 -0.435602 1.73103 0
M  V30 10196 C 943.262 -0.73139 3.30914 0
M  V30 10197 C 942.435 0.0370723 4.37384 0
M  V30 10198 C 941.494 -0.820272 5.19767 0
M  V30 10199 O 940.52 -0.264721 5.68584 0
M  V30 10200 N 941.722 -2.13984 5.39621 0
M  V30 10201 H 944.487 1.0121 2.82093 0
M  V30 10202 H 942.048 0.681494 1.46858 0
M  V30 10203 H 944.04 -1.30958 3.82926 0
M  V30 10204 H 942.61 -1.43943 2.77487 0
M  V30 10205 H 941.83 0.796578 3.86068 0
M  V30 10206 H 943.118 0.566014 5.05642 0
M  V30 10207 H 942.516 -2.61492 5.01636 0
M  V30 10208 H 941.073 -2.66685 5.94746 0
M  V30 10209 N 944.506 -1.46559 0.579492 0
M  V30 10210 C 945.753 -2.02399 0.0638418 0
M  V30 10211 C 946.081 -1.45135 -1.29484 0
M  V30 10212 O 945.336 -0.605061 -1.86112 0
M  V30 10213 C 945.635 -3.57357 -0.0552803 0
M  V30 10214 C 945.301 -4.33646 1.23539 0
M  V30 10215 C 943.963 -4.54207 1.589 0
M  V30 10216 C 946.315 -4.77476 2.08965 0
M  V30 10217 C 943.643 -5.1585 2.79492 0
M  V30 10218 C 945.995 -5.4045 3.2878 0
M  V30 10219 C 944.659 -5.5924 3.64427 0
M  V30 10220 H 943.929 -0.740632 0.0233614 0
M  V30 10221 H 946.576 -1.75968 0.755482 0
M  V30 10222 H 944.881 -3.82907 -0.83003 0
M  V30 10223 H 946.578 -3.98237 -0.469964 0
M  V30 10224 H 943.168 -4.17937 0.9501 0
M  V30 10225 H 947.352 -4.61349 1.8295 0
M  V30 10226 H 942.608 -5.28589 3.07252 0
M  V30 10227 H 946.782 -5.73371 3.95245 0
M  V30 10228 H 944.409 -6.06775 4.57961 0
M  V30 10229 N 945.984 -0.3171 -1.54377 0
M  V30 10230 C 946.932 0.567371 -2.25574 0
M  V30 10231 C 947.926 1.12387 -1.2675 0
M  V30 10232 O 949.132 1.07266 -1.44548 0
M  V30 10233 H 945.507 0.201605 -0.724472 0
M  V30 10234 H 947.478 -0.0554644 -2.98348 0
M  V30 10235 C 946.227 1.71984 -3.02187 0
M  V30 10236 H 945.55 1.30086 -3.78044 0
M  V30 10237 H 946.99 2.31443 -3.5526 0
M  V30 10238 C 945.449 2.6336 -2.10103 0
M  V30 10239 O 945.979 3.64899 -1.67962 0
M  V30 10240 N 944.185 2.3145 -1.75725 0
M  V30 10241 H 943.732 1.48921 -2.10191 0
M  V30 10242 H 943.69 2.92852 -1.14391 0
M  V30 10243 N 947.462 1.57535 -0.0451378 0
M  V30 10244 C 948.709 1.92451 0.629987 0
M  V30 10245 C 949.037 0.92298 1.71206 0
M  V30 10246 O 948.292 -0.0656626 1.9559 0
M  V30 10247 C 948.591 3.34065 1.27024 0
M  V30 10248 C 948.257 4.49785 0.316971 0
M  V30 10249 C 946.919 4.81169 0.0546406 0
M  V30 10250 C 949.271 5.20111 -0.336693 0
M  V30 10251 C 946.599 5.8023 -0.86889 0
M  V30 10252 C 948.951 6.2016 -1.24838 0
M  V30 10253 C 947.615 6.49976 -1.51944 0
M  V30 10254 H 946.885 0.704228 0.230529 0
M  V30 10255 H 949.532 1.91182 -0.110328 0
M  V30 10256 H 947.837 3.31672 2.08568 0
M  V30 10257 H 949.534 3.58359 1.79945 0
M  V30 10258 H 946.124 4.2529 0.531614 0
M  V30 10259 H 950.308 4.96082 -0.147105 0
M  V30 10260 H 945.564 6.0167 -1.08643 0
M  V30 10261 H 949.738 6.73767 -1.76098 0
M  V30 10262 H 947.365 7.26551 -2.2367 0
M  V30 10263 N 948.94 -0.228186 1.55939 0
M  V30 10264 C 950.217 -0.977492 1.69424 0
M  V30 10265 C 950.597 -2.02674 0.590479 0
M  V30 10266 O 949.945 -2.2491 -0.403467 0
M  V30 10267 C 950.155 -1.59394 3.10475 0
M  V30 10268 C 951.503 -2.08871 3.69673 0
M  V30 10269 O 952.527 -1.693 3.13394 0
M  V30 10270 O 951.386 -2.81584 4.68372 0
M  V30 10271 H 948.48 -0.456185 0.6898 0
M  V30 10272 H 951.026 -0.220492 1.68261 0
M  V30 10273 H 949.798 -0.835971 3.82266 0
M  V30 10274 H 949.421 -2.41665 3.15727 0
M  V30 10275 N 950.418 -1.49637 -0.494624 0
M  V30 10276 C 951.328 -1.69522 -1.62172 0
M  V30 10277 C 952.344 -0.577894 -1.64123 0
M  V30 10278 O 953.52 -0.853382 -1.82426 0
M  V30 10279 C 950.585 -1.7633 -2.9851 0
M  V30 10280 C 949.646 -2.99944 -3.07135 0
M  V30 10281 C 948.879 -3.06419 -4.36971 0
M  V30 10282 O 949.102 -2.20312 -5.26136 0
M  V30 10283 O 948.036 -3.9894 -4.507 0
M  V30 10284 H 951.862 -2.65017 -1.48324 0
M  V30 10285 H 949.447 -1.33454 -0.671603 0
M  V30 10286 H 951.329 -1.83125 -3.7953 0
M  V30 10287 H 950.004 -0.840155 -3.12607 0
M  V30 10288 H 948.911 -2.98664 -2.2528 0
M  V30 10289 H 950.244 -3.9176 -2.97968 0
M  V30 10290 N 951.896 0.746133 -1.38819 0
M  V30 10291 C 953.144 1.50247 -1.35167 0
M  V30 10292 C 953.465 1.94921 0.0553531 0
M  V30 10293 O 952.735 1.68187 1.00449 0
M  V30 10294 H 951.315 0.557337 -0.497377 0
M  V30 10295 H 953.977 0.886472 -1.73573 0
M  V30 10296 H 953.073 2.38986 -2.00728 0
M  V30 10297 N 953.375 1.23811 0.975125 0
M  V30 10298 C 954.603 1.10019 1.75224 0
M  V30 10299 C 955.018 -0.34791 1.85567 0
M  V30 10300 O 954.375 -1.24043 1.33864 0
M  V30 10301 C 954.426 1.72572 3.1765 0
M  V30 10302 O 954.147 3.11719 3.07836 0
M  V30 10303 C 955.648 1.64292 4.11732 0
M  V30 10304 H 952.868 0.38476 0.549728 0
M  V30 10305 H 955.412 1.63768 1.22476 0
M  V30 10306 H 953.567 1.22843 3.67408 0
M  V30 10307 H 953.981 3.42152 3.97533 0
M  V30 10308 H 955.455 2.12754 5.09352 0
M  V30 10309 H 955.932 0.602722 4.35045 0
M  V30 10310 H 956.538 2.13411 3.6788 0
M  V30 10311 N 954.853 -1.17469 1.05066 0
M  V30 10312 C 956.264 -1.69334 0.786304 0
M  V30 10313 C 956.615 -1.83604 -0.691671 0
M  V30 10314 O 955.74 -1.52269 -1.53763 0
M  V30 10315 C 956.335 -3.07572 1.42074 0
M  V30 10316 C 954.894 -3.56609 1.20446 0
M  V30 10317 C 954.041 -2.329 1.50508 0
M  V30 10318 H 956.992 -1.02003 1.21577 0
M  V30 10319 H 957.013 -3.71352 0.829334 0
M  V30 10320 H 956.525 -2.97154 2.49642 0
M  V30 10321 H 954.626 -3.72306 0.147968 0
M  V30 10322 H 954.739 -4.39446 1.90852 0
M  V30 10323 H 953.103 -2.37305 0.925124 0
M  V30 10324 H 953.886 -2.25093 2.59207 0
M  V30 10325 N 956.331 -0.831506 -1.3388 0
M  V30 10326 C 957.742 -0.481375 -1.80388 0
M  V30 10327 C 958.093 0.998993 -1.68863 0
M  V30 10328 O 957.218 1.77795 -1.2336 0
M  V30 10329 C 957.813 -0.86699 -3.27519 0
M  V30 10330 C 956.372 -0.569105 -3.72073 0
M  V30 10331 C 955.519 -1.07929 -2.55434 0
M  V30 10332 H 958.47 -1.02089 -1.21505 0
M  V30 10333 H 958.491 -0.174128 -3.80101 0
M  V30 10334 H 958.003 -1.94447 -3.35875 0
M  V30 10335 H 956.104 0.498607 -3.69249 0
M  V30 10336 H 956.217 -1.11918 -4.65845 0
M  V30 10337 H 954.581 -0.500465 -2.49735 0
M  V30 10338 H 955.364 -2.16339 -2.66556 0
M  V30 10339 N 957.809 1.4625 -0.587256 0
M  V30 10340 C 959.037 2.06744 -0.08033 0
M  V30 10341 C 959.452 1.43527 1.2266 0
M  V30 10342 O 958.809 0.542168 1.74261 0
M  V30 10343 C 958.86 3.61394 0.0873469 0
M  V30 10344 O 958.581 4.22247 -1.16785 0
M  V30 10345 C 960.082 4.38828 0.628095 0
M  V30 10346 H 957.302 0.668354 -0.0595301 0
M  V30 10347 H 959.846 1.87808 -0.809217 0
M  V30 10348 H 958.001 3.79742 0.766473 0
M  V30 10349 H 958.415 5.15176 -0.984565 0
M  V30 10350 H 959.889 5.47613 0.694583 0
M  V30 10351 H 960.366 4.07188 1.64606 0
M  V30 10352 H 960.972 4.25297 -0.0163115 0
M  V30 10353 N 959.287 0.325282 1.54207 0
M  V30 10354 C 960.235 -0.5554 2.25872 0
M  V30 10355 C 961.229 -1.11714 1.27344 0
M  V30 10356 O 962.435 -1.06498 1.45115 0
M  V30 10357 H 958.81 -0.19776 0.725531 0
M  V30 10358 H 960.781 0.0712858 2.98315 0
M  V30 10359 C 959.53 -1.70379 3.03095 0
M  V30 10360 H 958.853 -1.2808 3.78729 0
M  V30 10361 H 960.293 -2.29556 3.56483 0
M  V30 10362 C 958.752 -2.62242 2.11496 0
M  V30 10363 O 959.282 -3.64003 1.69895 0
M  V30 10364 N 957.488 -2.30515 1.7695 0
M  V30 10365 H 957.035 -1.47805 2.10978 0
M  V30 10366 H 956.993 -2.92241 1.15942 0
M  V30 10367 N 960.765 -1.57509 0.0534917 0
M  V30 10368 C 962.012 -1.92782 -0.619772 0
M  V30 10369 C 962.34 -0.932046 -1.70714 0
M  V30 10370 O 961.595 0.0552891 -1.95622 0
M  V30 10371 C 961.894 -3.34734 -1.25251 0
M  V30 10372 C 961.56 -4.49946 -0.293113 0
M  V30 10373 C 960.222 -4.81191 -0.0291223 0
M  V30 10374 C 962.574 -5.19925 0.364271 0
M  V30 10375 C 959.902 -5.79761 0.899649 0
M  V30 10376 C 962.254 -6.19489 1.28125 0
M  V30 10377 C 960.918 -6.49161 1.55389 0
M  V30 10378 H 960.188 -0.705441 -0.226791 0
M  V30 10379 H 962.835 -1.91121 0.120466 0
M  V30 10380 H 961.14 -3.32774 -2.06807 0
M  V30 10381 H 962.837 -3.59308 -1.78042 0
M  V30 10382 H 959.427 -4.25566 -0.509053 0
M  V30 10383 H 963.611 -4.95997 0.173411 0
M  V30 10384 H 958.867 -6.01085 1.11833 0
M  V30 10385 H 963.041 -6.72824 1.79669 0
M  V30 10386 H 960.668 -7.25354 2.2752 0
M  V30 10387 N 962.243 0.219913 -1.56058 0
M  V30 10388 C 963.52 0.968493 -1.6994 0
M  V30 10389 C 963.9 2.02358 -0.601219 0
M  V30 10390 O 963.248 2.25121 0.391534 0
M  V30 10391 C 963.458 1.57745 -3.11316 0
M  V30 10392 C 964.806 2.06908 -3.70775 0
M  V30 10393 O 965.83 1.67636 -3.14288 0
M  V30 10394 O 964.689 2.79096 -4.69859 0
M  V30 10395 H 961.783 0.452521 -0.692209 0
M  V30 10396 H 964.329 0.211566 -1.68376 0
M  V30 10397 H 963.101 0.815687 -3.82704 0
M  V30 10398 H 962.724 2.39987 -3.17005 0
M  V30 10399 N 963.721 1.49897 0.486681 0
M  V30 10400 C 964.949 1.63837 1.26353 0
M  V30 10401 C 965.364 0.315428 1.86146 0
M  V30 10402 O 964.721 -0.700831 1.68507 0
M  V30 10403 C 964.772 2.71792 2.38351 0
M  V30 10404 O 964.493 3.98956 1.81013 0
M  V30 10405 C 965.994 2.96566 3.2949 0
M  V30 10406 H 963.214 0.551158 0.382709 0
M  V30 10407 H 965.758 1.96023 0.582694 0
M  V30 10408 H 963.913 2.42344 3.02238 0
M  V30 10409 H 964.327 4.58536 2.54647 0
M  V30 10410 H 965.801 3.75803 4.04322 0
M  V30 10411 H 966.278 2.07031 3.87343 0
M  V30 10412 H 966.884 3.27485 2.71355 0
M  V30 10413 N 965.199 -0.738761 1.39212 0
M  V30 10414 C 966.446 -1.49824 1.36231 0
M  V30 10415 C 966.774 -1.94453 -0.0429552 0
M  V30 10416 O 966.029 -1.6683 -1.02304 0
M  V30 10417 C 966.328 -2.75435 2.2775 0
M  V30 10418 C 965.994 -2.49694 3.75451 0
M  V30 10419 C 964.656 -2.42383 4.15697 0
M  V30 10420 C 967.008 -2.27587 4.68885 0
M  V30 10421 C 964.336 -2.11001 5.47444 0
M  V30 10422 C 966.688 -1.97723 6.00906 0
M  V30 10423 C 965.352 -1.88879 6.4022 0
M  V30 10424 H 964.622 -0.548247 0.498504 0
M  V30 10425 H 967.269 -0.848244 1.71689 0
M  V30 10426 H 965.574 -3.45159 1.85398 0
M  V30 10427 H 967.271 -3.33449 2.22739 0
M  V30 10428 H 963.861 -2.56261 3.43552 0
M  V30 10429 H 968.045 -2.32206 4.38628 0
M  V30 10430 H 963.301 -2.02673 5.76831 0
M  V30 10431 H 967.475 -1.79625 6.72836 0
M  V30 10432 H 965.102 -1.64327 7.42227 0
M  V30 10433 N 966.677 -1.24326 -0.968545 0
M  V30 10434 C 968.088 -1.07561 -1.52603 0
M  V30 10435 C 968.439 0.353245 -1.92994 0
M  V30 10436 O 967.564 1.24151 -1.77244 0
M  V30 10437 C 968.159 -1.94634 -2.77314 0
M  V30 10438 C 966.718 -1.82095 -3.29421 0
M  V30 10439 C 965.865 -1.8962 -2.02335 0
M  V30 10440 H 968.816 -1.37815 -0.786932 0
M  V30 10441 H 968.837 -1.47812 -3.50616 0
M  V30 10442 H 968.349 -2.98621 -2.47885 0
M  V30 10443 H 966.45 -0.809376 -3.63703 0
M  V30 10444 H 966.563 -2.66142 -3.98378 0
M  V30 10445 H 964.927 -1.33339 -2.17009 0
M  V30 10446 H 965.71 -2.95185 -1.75273 0
M  V30 10447 N 968.156 1.1691 -1.05688 0
M  V30 10448 C 969.119 2.19297 -0.666433 0
M  V30 10449 C 970.119 1.5826 0.284674 0
M  V30 10450 O 971.309 1.74068 0.0678757 0
M  V30 10451 C 968.441 3.40894 0.0203656 0
M  V30 10452 H 969.634 2.55354 -1.57272 0
M  V30 10453 H 967.187 1.31078 -0.851359 0
M  V30 10454 H 967.922 3.10388 0.939686 0
M  V30 10455 H 967.707 3.86446 -0.663464 0
M  V30 10456 H 969.197 4.16664 0.279475 0
M  V30 10457 N 969.634 0.838594 1.33437 0
M  V30 10458 C 970.597 0.276843 2.27522 0
M  V30 10459 C 971.597 -0.554275 1.50945 0
M  V30 10460 O 972.787 -0.368107 1.70266 0
M  V30 10461 C 969.919 -0.610036 3.35397 0
M  V30 10462 H 971.112 1.10705 2.78719 0
M  V30 10463 H 968.665 0.611657 1.43835 0
M  V30 10464 H 969.4 -1.46269 2.89441 0
M  V30 10465 H 969.185 -0.0153615 3.92097 0
M  V30 10466 H 970.675 -0.996368 4.05539 0
M  V30 10467 N 971.112 -1.45937 0.595003 0
M  V30 10468 C 972.361 -2.01529 0.0829531 0
M  V30 10469 C 972.674 -1.47071 -1.28955 0
M  V30 10470 O 973.88 -1.94561 -1.89363 0
M  V30 10471 C 972.336 -3.59767 0.0976597 0
M  V30 10472 C 971.944 -4.23223 1.46924 0
M  V30 10473 C 973.688 -4.22972 -0.359805 0
M  V30 10474 C 971.595 -5.73576 1.44101 0
M  V30 10475 H 970.525 -0.753508 0.0272425 0
M  V30 10476 H 973.176 -1.67541 0.748473 0
M  V30 10477 H 971.558 -3.90888 -0.634268 0
M  V30 10478 H 972.732 -4.03695 2.22187 0
M  V30 10479 H 971.047 -3.72161 1.86775 0
M  V30 10480 H 973.644 -5.33202 -0.39991 0
M  V30 10481 H 973.987 -3.92765 -1.37991 0
M  V30 10482 H 974.52 -3.96523 0.31845 0
M  V30 10483 H 971.259 -6.08462 2.43831 0
M  V30 10484 H 970.779 -5.95332 0.730767 0
M  V30 10485 H 972.458 -6.36531 1.1592 0
M  V30 10486 N 972.59 -0.333456 -1.54032 0
M  V30 10487 C 973.523 0.570776 -2.20947 0
M  V30 10488 C 974.501 1.10811 -1.18994 0
M  V30 10489 O 975.685 1.17027 -1.47773 0
M  V30 10490 C 972.812 1.7842 -2.87896 0
M  V30 10491 C 971.858 1.37722 -4.03652 0
M  V30 10492 S 972.691 0.405548 -5.33962 0
M  V30 10493 C 973.847 1.62603 -6.0441 0
M  V30 10494 H 974.08 0.0023936 -2.973 0
M  V30 10495 H 971.613 -0.117531 -1.53952 0
M  V30 10496 H 973.571 2.48038 -3.27089 0
M  V30 10497 H 972.232 2.32378 -2.11327 0
M  V30 10498 H 971.425 2.28167 -4.49395 0
M  V30 10499 H 971.027 0.760628 -3.66184 0
M  V30 10500 H 973.319 2.56202 -6.2719 0
M  V30 10501 H 974.262 1.21058 -6.97675 0
M  V30 10502 H 974.67 1.8175 -5.34441 0
M  V30 10503 N 974.068 1.57479 -0.061844 0
M  V30 10504 C 975.296 1.97429 0.618837 0
M  V30 10505 C 975.711 0.939826 1.63746 0
M  V30 10506 O 975.068 -0.0747173 1.82347 0
M  V30 10507 C 975.119 3.3746 1.29628 0
M  V30 10508 O 974.84 4.36941 0.318431 0
M  V30 10509 C 976.341 3.92228 2.06572 0
M  V30 10510 H 973.561 0.649513 0.168444 0
M  V30 10511 H 976.105 2.04078 -0.131303 0
M  V30 10512 H 974.26 3.31928 1.99757 0
M  V30 10513 H 974.674 5.18313 0.803239 0
M  V30 10514 H 976.148 4.92458 2.49377 0
M  V30 10515 H 976.625 3.28231 2.91824 0
M  V30 10516 H 977.231 4.01131 1.4133 0
M  V30 10517 N 975.546 -0.211634 1.56173 0
M  V30 10518 C 976.792 -0.935935 1.79911 0
M  V30 10519 C 977.125 -1.83589 0.633155 0
M  V30 10520 O 976.4 -1.91004 -0.367132 0
M  V30 10521 C 976.683 -1.76638 3.13801 0
M  V30 10522 C 976.536 -0.892259 4.40861 0
M  V30 10523 C 977.855 -2.74224 3.44223 0
M  V30 10524 H 974.974 -0.338822 0.654499 0
M  V30 10525 H 977.616 -0.20422 1.88899 0
M  V30 10526 H 975.766 -2.39021 3.0627 0
M  V30 10527 H 977.438 -0.284407 4.60422 0
M  V30 10528 H 975.681 -0.198145 4.33347 0
M  V30 10529 H 976.352 -1.50793 5.31004 0
M  V30 10530 H 978.828 -2.21975 3.51946 0
M  V30 10531 H 977.704 -3.29424 4.39057 0
M  V30 10532 H 977.965 -3.52455 2.66885 0
M  V30 10533 N 977.024 -1.50153 -0.478725 0
M  V30 10534 C 978.271 -1.6076 -1.23136 0
M  V30 10535 C 978.599 -0.30442 -1.92103 0
M  V30 10536 O 977.854 0.709213 -1.82397 0
M  V30 10537 C 978.153 -2.73208 -2.30417 0
M  V30 10538 C 977.819 -4.13953 -1.78755 0
M  V30 10539 C 976.481 -4.52251 -1.64386 0
M  V30 10540 C 978.833 -5.01949 -1.40344 0
M  V30 10541 C 976.161 -5.76292 -1.10018 0
M  V30 10542 C 978.513 -6.2653 -0.874206 0
M  V30 10543 C 977.177 -6.63637 -0.717085 0
M  V30 10544 H 976.447 -0.588264 -0.450585 0
M  V30 10545 H 979.094 -1.84061 -0.528551 0
M  V30 10546 H 977.399 -2.43965 -3.06575 0
M  V30 10547 H 979.096 -2.7862 -2.88395 0
M  V30 10548 H 975.686 -3.83736 -1.90904 0
M  V30 10549 H 979.87 -4.73 -1.50283 0
M  V30 10550 H 975.126 -6.03723 -0.965838 0
M  V30 10551 H 979.3 -6.94081 -0.567883 0
M  V30 10552 H 976.927 -7.59633 -0.293639 0
M  V30 10553 N 978.502 0.731368 -1.39602 0
M  V30 10554 C 979.434 1.85575 -1.34516 0
M  V30 10555 C 980.447 1.60818 -0.253287 0
M  V30 10556 O 981.636 1.70984 -0.512505 0
M  V30 10557 C 978.736 3.21673 -1.06676 0
M  V30 10558 C 977.909 3.73757 -2.27211 0
M  V30 10559 C 976.968 4.88426 -1.95773 0
M  V30 10560 O 975.994 5.01898 -2.68491 0
M  V30 10561 N 977.196 5.73065 -0.926083 0
M  V30 10562 H 979.961 1.90442 -2.31413 0
M  V30 10563 H 977.522 0.912258 -1.33752 0
M  V30 10564 H 979.514 3.95959 -0.836577 0
M  V30 10565 H 978.084 3.12052 -0.185003 0
M  V30 10566 H 977.304 2.90781 -2.66158 0
M  V30 10567 H 978.592 4.05289 -3.07601 0
M  V30 10568 H 977.99 5.64774 -0.323497 0
M  V30 10569 H 976.547 6.47403 -0.755795 0
M  V30 10570 N 979.98 1.24838 0.961938 0
M  V30 10571 C 981.229 1.0855 1.69999 0
M  V30 10572 C 981.542 -0.374645 1.91979 0
M  V30 10573 O 982.748 -0.657822 2.6341 0
M  V30 10574 C 981.204 1.89424 3.06017 0
M  V30 10575 C 980.812 3.39885 2.9186 0
M  V30 10576 C 982.556 1.81684 3.83655 0
M  V30 10577 C 980.463 4.13082 4.23223 0
M  V30 10578 H 979.393 0.402603 0.637516 0
M  V30 10579 H 982.044 1.4897 1.07146 0
M  V30 10580 H 980.426 1.41823 3.69733 0
M  V30 10581 H 981.6 3.95108 2.37121 0
M  V30 10582 H 979.915 3.4864 2.27683 0
M  V30 10583 H 982.512 2.3367 4.80939 0
M  V30 10584 H 982.855 0.783247 4.08865 0
M  V30 10585 H 983.388 2.26997 3.26676 0
M  V30 10586 H 980.127 5.16824 4.03204 0
M  V30 10587 H 979.647 3.62644 4.77755 0
M  V30 10588 H 981.326 4.20397 4.91808 0
M  V30 10589 N 981.458 -1.16348 1.06306 0
M  V30 10590 C 982.388 -2.2291 0.695234 0
M  V30 10591 C 983.369 -1.67208 -0.312343 0
M  V30 10592 O 984.554 -1.93293 -0.187442 0
M  V30 10593 C 981.684 -3.47205 0.0810149 0
M  V30 10594 C 980.638 -4.15801 1.01458 0
M  V30 10595 C 979.964 -5.3405 0.263656 0
M  V30 10596 C 981.264 -4.66766 2.34365 0
M  V30 10597 H 982.958 -2.53934 1.58613 0
M  V30 10598 H 980.504 -1.22056 0.76409 0
M  V30 10599 H 982.457 -4.2098 -0.18818 0
M  V30 10600 H 981.181 -3.15482 -0.844897 0
M  V30 10601 H 979.84 -3.43954 1.26852 0
M  V30 10602 H 979.488 -4.9858 -0.665378 0
M  V30 10603 H 979.188 -5.80885 0.88582 0
M  V30 10604 H 980.712 -6.106 0.00200994 0
M  V30 10605 H 982.126 -5.3212 2.13356 0
M  V30 10606 H 980.523 -5.24223 2.9208 0
M  V30 10607 H 981.593 -3.82969 2.97426 0
M  V30 10608 N 982.937 -0.845659 -1.3299 0
M  V30 10609 C 984.165 -0.45835 -2.01759 0
M  V30 10610 C 984.58 0.94239 -1.63598 0
M  V30 10611 O 983.937 1.61353 -0.852738 0
M  V30 10612 C 983.988 -0.577311 -3.5686 0
M  V30 10613 O 983.709 -1.92287 -3.93646 0
M  V30 10614 C 985.21 -0.187839 -4.42902 0
M  V30 10615 H 982.43 -0.181165 -0.646081 0
M  V30 10616 H 984.974 -1.14011 -1.6977 0
M  V30 10617 H 983.129 0.0566146 -3.87359 0
M  V30 10618 H 983.543 -1.91322 -4.88361 0
M  V30 10619 H 985.017 -0.322105 -5.51059 0
M  V30 10620 H 985.494 0.870896 -4.30479 0
M  V30 10621 H 986.1 -0.796473 -4.17776 0
M  V30 10622 N 984.415 1.45619 -0.602734 0
M  V30 10623 C 985.663 2.01873 -0.095844 0
M  V30 10624 C 985.984 1.47427 1.27633 0
M  V30 10625 O 985.254 0.666652 1.84208 0
M  V30 10626 H 983.834 0.746295 -0.0324408 0
M  V30 10627 H 986.496 1.78478 -0.783037 0
M  V30 10628 H 985.592 3.12072 -0.0419507 0
M  V30 10629 N 985.893 0.34162 1.53853 0
M  V30 10630 C 986.803 -0.524555 2.2866 0
M  V30 10631 C 987.819 -1.1136 1.33697 0
M  V30 10632 O 988.995 -1.1297 1.66732 0
M  V30 10633 C 986.06 -1.66065 3.04341 0
M  V30 10634 C 985.121 -1.10158 4.14926 0
M  V30 10635 C 984.354 -2.18353 4.86988 0
M  V30 10636 O 984.577 -3.39038 4.58704 0
M  V30 10637 O 983.511 -1.82756 5.73484 0
M  V30 10638 H 987.337 0.0835014 3.03585 0
M  V30 10639 H 984.922 0.106727 1.49018 0
M  V30 10640 H 986.804 -2.3217 3.51674 0
M  V30 10641 H 985.479 -2.25456 2.32275 0
M  V30 10642 H 984.386 -0.405109 3.719 0
M  V30 10643 H 985.719 -0.552567 4.89088 0
M  V30 10644 N 987.371 -1.57444 0.0701946 0
M  V30 10645 C 988.648 -1.84826 -0.6402 0
M  V30 10646 C 989.028 -0.962344 -1.87889 0
M  V30 10647 O 988.376 -0.0282209 -2.28483 0
M  V30 10648 C 988.586 -3.34976 -0.979382 0
M  V30 10649 C 989.934 -4.02448 -1.35355 0
M  V30 10650 O 990.958 -3.39713 -1.07116 0
M  V30 10651 O 989.817 -5.13096 -1.88136 0
M  V30 10652 H 986.911 -0.763494 -0.317813 0
M  V30 10653 H 989.457 -1.69399 0.101004 0
M  V30 10654 H 988.229 -3.91173 -0.0995576 0
M  V30 10655 H 987.852 -3.5566 -1.7774 0
M  V30 10656 N 988.849 0.203349 -1.56283 0
M  V30 10657 C 990.095 0.921876 -1.81309 0
M  V30 10658 C 990.45 1.81231 -0.645994 0
M  V30 10659 O 989.743 1.88203 0.359206 0
M  V30 10660 C 989.937 1.78016 -3.09912 0
M  V30 10661 C 989.766 0.974308 -4.39019 0
M  V30 10662 C 988.536 0.662001 -5.00945 0
M  V30 10663 C 990.734 0.330925 -5.13234 0
M  V30 10664 N 988.716 -0.163344 -6.13683 0
M  V30 10665 C 990.087 -0.356989 -6.18971 0
M  V30 10666 C 992.142 0.245809 -4.97293 0
M  V30 10667 C 990.845 -1.1219 -7.10497 0
M  V30 10668 C 992.871 -0.505684 -5.89234 0
M  V30 10669 C 992.233 -1.18207 -6.94411 0
M  V30 10670 H 988.332 0.317003 -0.714866 0
M  V30 10671 H 990.916 0.191255 -1.93758 0
M  V30 10672 H 989.087 2.48245 -2.98712 0
M  V30 10673 H 990.819 2.43754 -3.23057 0
M  V30 10674 H 987.574 0.984437 -4.63256 0
M  V30 10675 H 987.998 -0.565386 -6.74635 0
M  V30 10676 H 992.64 0.754396 -4.16015 0
M  V30 10677 H 990.358 -1.64195 -7.91243 0
M  V30 10678 H 993.944 -0.572788 -5.78974 0
M  V30 10679 H 992.824 -1.75427 -7.64327 0
M  V30 10680 N 990.327 1.50405 0.470755 0
M  V30 10681 C 991.275 1.6982 1.58946 0
M  V30 10682 C 992.269 0.56407 1.59733 0
M  V30 10683 O 993.475 0.744576 1.63878 0
M  V30 10684 H 989.85 0.536016 0.527438 0
M  V30 10685 H 991.821 2.63662 1.39732 0
M  V30 10686 C 990.57 1.80986 2.96883 0
M  V30 10687 H 989.893 2.67645 2.96996 0
M  V30 10688 H 991.333 1.98596 3.74614 0
M  V30 10689 C 989.792 0.561551 3.32187 0
M  V30 10690 O 990.322 -0.299136 4.00585 0
M  V30 10691 N 988.528 0.415476 2.87615 0
M  V30 10692 H 988.075 1.11691 2.32127 0
M  V30 10693 H 988.033 -0.418592 3.11601 0
M  V30 10694 N 991.805 -0.723954 1.39988 0
M  V30 10695 C 992.715 -1.86829 1.41887 0
M  V30 10696 C 993.731 -1.71173 0.312401 0
M  V30 10697 O 994.907 -1.93583 0.555651 0
M  V30 10698 C 991.972 -3.22541 1.27154 0
M  V30 10699 C 991.033 -3.50512 2.47871 0
M  V30 10700 C 990.266 -4.79749 2.33831 0
M  V30 10701 O 990.489 -5.54251 1.34765 0
M  V30 10702 O 989.423 -5.07868 3.23039 0
M  V30 10703 H 993.249 -1.88183 2.38371 0
M  V30 10704 H 990.834 -0.873259 1.21221 0
M  V30 10705 H 992.716 -4.0362 1.21114 0
M  V30 10706 H 991.391 -3.21933 0.337715 0
M  V30 10707 H 990.298 -2.69475 2.59488 0
M  V30 10708 H 991.631 -3.55909 3.39985 0
M  V30 10709 N 993.283 -1.25346 -0.955304 0
M  V30 10710 C 994.529 -1.10218 -1.70235 0
M  V30 10711 C 994.862 0.356124 -1.90907 0
M  V30 10712 O 994.137 1.26253 -1.47954 0
M  V30 10713 C 994.42 -1.85627 -3.08569 0
M  V30 10714 C 994.273 -3.39281 -2.95311 0
M  V30 10715 C 995.592 -1.63886 -4.08448 0
M  V30 10716 H 992.711 -0.401781 -0.617852 0
M  V30 10717 H 995.353 -1.5417 -1.11048 0
M  V30 10718 H 993.503 -1.48269 -3.59094 0
M  V30 10719 H 995.175 -3.8631 -2.52116 0
M  V30 10720 H 993.418 -3.67027 -2.31244 0
M  V30 10721 H 994.089 -3.87258 -3.93364 0
M  V30 10722 H 996.565 -1.96406 -3.6683 0
M  V30 10723 H 995.441 -2.19087 -5.03281 0
M  V30 10724 H 995.702 -0.580021 -4.38279 0
M  V30 10725 N 994.761 1.15782 -1.06922 0
M  V30 10726 C 995.694 2.19336 -0.629837 0
M  V30 10727 C 996.672 1.58774 0.350663 0
M  V30 10728 O 997.856 1.86724 0.258124 0
M  V30 10729 C 994.983 3.38615 0.0757526 0
M  V30 10730 C 994.029 4.17688 -0.862503 0
M  V30 10731 S 994.862 4.80634 -2.36117 0
M  V30 10732 C 996.018 6.03286 -1.66725 0
M  V30 10733 H 996.251 2.56267 -1.50714 0
M  V30 10734 H 993.784 1.26674 -0.882776 0
M  V30 10735 H 995.742 4.07724 0.476611 0
M  V30 10736 H 994.403 3.00037 0.929332 0
M  V30 10737 H 993.596 5.03012 -0.315461 0
M  V30 10738 H 993.198 3.54106 -1.20354 0
M  V30 10739 H 995.49 6.70426 -0.976472 0
M  V30 10740 H 996.433 6.62551 -2.49864 0
M  V30 10741 H 996.841 5.52722 -1.14711 0
M  V30 10742 N 996.239 0.8527 1.3254 0
M  V30 10743 C 997.469 0.468363 2.01221 0
M  V30 10744 C 997.877 -0.938966 1.64256 0
M  V30 10745 O 997.22 -1.62387 0.858837 0
M  V30 10746 C 997.282 0.525457 3.55639 0
M  V30 10747 C 996.946 1.89133 4.16026 0
M  V30 10748 C 997.943 2.85652 4.34395 0
M  V30 10749 C 995.628 2.18795 4.52144 0
M  V30 10750 C 997.622 4.09985 4.88048 0
M  V30 10751 C 995.309 3.43381 5.05502 0
M  V30 10752 C 996.307 4.38792 5.23403 0
M  V30 10753 O 995.995 5.61173 5.75622 0
M  V30 10754 H 995.727 0.182712 0.65084 0
M  V30 10755 H 998.281 1.15076 1.70138 0
M  V30 10756 H 996.511 -0.213779 3.86109 0
M  V30 10757 H 998.2 0.156999 4.05596 0
M  V30 10758 H 998.966 2.6404 4.06827 0
M  V30 10759 H 994.845 1.45317 4.37498 0
M  V30 10760 H 998.389 4.84465 5.01936 0
M  V30 10761 H 994.286 3.64844 5.32503 0
M  V30 10762 H 995.054 5.63104 5.94017 0
M  V30 10763 N 997.718 -1.45297 0.610449 0
M  V30 10764 C 998.995 -1.95562 0.0386189 0
M  V30 10765 C 999.375 -1.55284 -1.43004 0
M  V30 10766 O 998.723 -0.816785 -2.13403 0
M  V30 10767 C 998.933 -3.48176 0.239731 0
M  V30 10768 C 1000.28 -4.24425 0.122035 0
M  V30 10769 O 1001.3 -3.55794 0.170003 0
M  V30 10770 O 1000.16 -5.46499 0.00953695 0
M  V30 10771 H 997.258 -0.826296 -0.0341081 0
M  V30 10772 H 999.804 -1.55449 0.68071 0
M  V30 10773 H 998.576 -3.70471 1.25963 0
M  V30 10774 H 998.199 -3.95186 -0.437486 0
M  V30 10775 N 999.196 -0.349774 -1.5367 0
M  V30 10776 C 1000.44 0.244343 -2.00617 0
M  V30 10777 C 1000.76 1.50567 -1.23914 0
M  V30 10778 O 1000.03 1.92784 -0.348016 0
M  V30 10779 H 998.615 0.0932792 -0.741153 0
M  V30 10780 H 1001.28 -0.472367 -1.89089 0
M  V30 10781 H 1000.37 0.482433 -3.08349 0
M  V30 10782 N 1000.67 1.57404 -0.0785433 0
M  V30 10783 C 1001.92 1.9292 0.588626 0
M  V30 10784 C 1002.24 0.961106 1.70359 0
M  V30 10785 O 1003.44 1.20934 2.43079 0
M  V30 10786 C 1001.9 3.42729 1.09839 0
M  V30 10787 C 1001.51 4.47998 0.0140773 0
M  V30 10788 C 1003.25 3.87235 1.73924 0
M  V30 10789 C 1001.16 5.88945 0.538269 0
M  V30 10790 H 1000.09 0.720069 0.223645 0
M  V30 10791 H 1002.74 1.8287 -0.15187 0
M  V30 10792 H 1001.12 3.47875 1.89207 0
M  V30 10793 H 1002.29 4.54476 -0.760773 0
M  V30 10794 H 1000.61 4.13001 -0.53095 0
M  V30 10795 H 1003.21 4.89927 2.14186 0
M  V30 10796 H 1003.55 3.24971 2.60191 0
M  V30 10797 H 1004.08 3.84721 1.01168 0
M  V30 10798 H 1000.82 6.5487 -0.287395 0
M  V30 10799 H 1000.34 5.85972 1.28049 0
M  V30 10800 H 1002.02 6.39028 1.01253 0
M  V30 10801 N 1002.15 -0.195058 1.56388 0
M  V30 10802 C 1003.1 -1.24175 1.94549 0
M  V30 10803 C 1004.07 -1.45229 0.806089 0
M  V30 10804 O 1005.25 -1.58362 1.06425 0
M  V30 10805 C 1002.39 -2.58145 2.29031 0
M  V30 10806 C 1001.51 -2.44669 3.56035 0
M  V30 10807 C 1000.64 -3.71342 3.7984 0
M  V30 10808 C 999.681 -3.52699 5.0027 0
M  V30 10809 N 998.818 -4.71385 5.20328 0
M  V30 10810 H 1003.66 -0.909319 2.83788 0
M  V30 10811 H 1001.19 -0.437641 1.40439 0
M  V30 10812 H 1003.15 -3.36195 2.4704 0
M  V30 10813 H 1001.78 -2.8943 1.42933 0
M  V30 10814 H 1000.83 -1.57916 3.46073 0
M  V30 10815 H 1002.15 -2.26827 4.44242 0
M  V30 10816 H 1001.3 -4.57832 3.98088 0
M  V30 10817 H 1000.04 -3.92138 2.89964 0
M  V30 10818 H 999.045 -2.64594 4.81944 0
M  V30 10819 H 1000.27 -3.33349 5.91655 0
M  V30 10820 H 998.216 -4.92444 4.33399 0
M  V30 10821 H 998.133 -4.56368 6.02714 0
M  V30 10822 H 999.401 -5.59226 5.43035 0
M  V30 10823 N 1003.63 -1.50653 -0.462772 0
M  V30 10824 C 1004.85 -1.66103 -1.24196 0
M  V30 10825 C 1005.28 -0.347421 -1.84864 0
M  V30 10826 O 1004.64 0.689673 -1.6767 0
M  V30 10827 C 1004.69 -2.76027 -2.32037 0
M  V30 10828 O 1003.79 -2.37859 -3.36893 0
M  V30 10829 H 1003.13 -0.554672 -0.365014 0
M  V30 10830 H 1005.66 -1.97076 -0.549734 0
M  V30 10831 H 1005.67 -2.99354 -2.77221 0
M  V30 10832 H 1004.35 -3.71361 -1.87253 0
M  V30 10833 H 1002.92 -2.2501 -2.97363 0
M  V30 10834 N 1005.11 0.71652 -1.4037 0
M  V30 10835 C 1006.04 1.84138 -1.36477 0
M  V30 10836 C 1007.05 1.6054 -0.27033 0
M  V30 10837 O 1008.24 1.70431 -0.530612 0
M  V30 10838 C 1005.34 3.20523 -1.10082 0
M  V30 10839 C 1004.52 3.71326 -2.31162 0
M  V30 10840 C 1003.57 4.86322 -2.00942 0
M  V30 10841 O 1002.6 4.99022 -2.73799 0
M  V30 10842 N 1003.8 5.72051 -0.986812 0
M  V30 10843 H 1006.57 1.87977 -2.3342 0
M  V30 10844 H 1004.13 0.89802 -1.34712 0
M  V30 10845 H 1006.12 3.95049 -0.878526 0
M  V30 10846 H 1004.69 3.11838 -0.21809 0
M  V30 10847 H 1003.91 2.87941 -2.69227 0
M  V30 10848 H 1005.2 4.02003 -3.11883 0
M  V30 10849 H 1004.6 5.64399 -0.383381 0
M  V30 10850 H 1003.15 6.46565 -0.824419 0
M  V30 10851 N 1006.59 1.25851 0.948643 0
M  V30 10852 C 1007.83 1.10735 1.69062 0
M  V30 10853 C 1008.16 -0.351257 1.9181 0
M  V30 10854 O 1007.43 -1.24867 1.50947 0
M  V30 10855 H 1006.01 0.406796 0.626519 0
M  V30 10856 H 1008.67 1.58066 1.14022 0
M  V30 10857 H 1007.76 1.62033 2.66743 0
M  V30 10858 N 1008.06 -1.15214 1.07534 0
M  V30 10859 C 1009.31 -1.85676 0.79805 0
M  V30 10860 C 1009.63 -1.82837 -0.677919 0
M  V30 10861 O 1008.9 -1.27059 -1.49107 0
M  V30 10862 H 1007.48 -0.687468 0.292227 0
M  V30 10863 H 1010.15 -1.39658 1.35947 0
M  V30 10864 H 1009.24 -2.9076 1.13423 0
M  V30 10865 N 1009.54 -0.859717 -1.32086 0
M  V30 10866 C 1010.79 -0.466271 -1.97367 0
M  V30 10867 C 1011.12 0.976728 -1.6785 0
M  V30 10868 O 1010.4 1.68618 -0.969449 0
M  V30 10869 C 1010.68 -0.711851 -3.52994 0
M  V30 10870 C 1010.53 -2.20364 -3.92122 0
M  V30 10871 C 1011.85 -0.17156 -4.39765 0
M  V30 10872 H 1008.97 -0.170883 -0.716916 0
M  V30 10873 H 1011.61 -1.07907 -1.56384 0
M  V30 10874 H 1009.76 -0.190258 -3.88034 0
M  V30 10875 H 1011.43 -2.7917 -3.67236 0
M  V30 10876 H 1009.68 -2.68019 -3.41099 0
M  V30 10877 H 1010.35 -2.32615 -5.00594 0
M  V30 10878 H 1012.82 -0.617665 -4.1149 0
M  V30 10879 H 1011.7 -0.372921 -5.47632 0
M  V30 10880 H 1011.96 0.925959 -4.32294 0
M  V30 10881 N 1011.02 1.44971 -0.618145 0
M  V30 10882 C 1011.95 2.28815 0.132751 0
M  V30 10883 C 1012.97 1.40551 0.821535 0
M  V30 10884 O 1014.15 1.64827 0.685155 0
M  V30 10885 C 1011.25 3.1658 1.20955 0
M  V30 10886 C 1010.43 4.33184 0.605821 0
M  V30 10887 C 1009.49 5.0208 1.57488 0
M  V30 10888 O 1008.51 5.58528 1.09706 0
M  V30 10889 N 1009.71 5.02335 2.9093 0
M  V30 10890 H 1012.48 2.939 -0.58674 0
M  V30 10891 H 1010.04 1.55276 -0.458375 0
M  V30 10892 H 1012.03 3.59535 1.85787 0
M  V30 10893 H 1010.6 2.53333 1.83143 0
M  V30 10894 H 1009.82 3.93581 -0.220827 0
M  V30 10895 H 1011.11 5.08471 0.182883 0
M  V30 10896 H 1010.51 4.57783 3.32342 0
M  V30 10897 H 1009.07 5.49119 3.51157 0
M  V30 10898 N 1012.5 0.357919 1.53482 0
M  V30 10899 C 1013.75 -0.2337 2.00744 0
M  V30 10900 C 1014.07 -1.49908 1.2471 0
M  V30 10901 O 1013.34 -1.92597 0.358235 0
M  V30 10902 H 1011.92 -0.0893474 0.741637 0
M  V30 10903 H 1014.58 0.482388 1.88836 0
M  V30 10904 H 1013.68 -0.466073 3.086 0
M  V30 10905 N 1013.98 -1.5736 0.0868897 0
M  V30 10906 C 1015.22 -1.9367 -0.577598 0
M  V30 10907 C 1015.55 -0.968844 -1.69229 0
M  V30 10908 O 1014.82 -0.0195061 -1.9589 0
M  V30 10909 H 1013.4 -0.714983 -0.216353 0
M  V30 10910 H 1016.06 -1.94335 0.148294 0
M  V30 10911 H 1015.15 -2.95877 -0.993128 0
M  V30 10912 N 1015.45 0.186762 -1.56489 0
M  V30 10913 C 1016.39 1.25971 -1.9028 0
M  V30 10914 C 1017.37 1.43543 -0.763822 0
M  V30 10915 O 1018.55 1.58799 -1.01564 0
M  V30 10916 C 1015.68 2.62507 -2.14028 0
M  V30 10917 C 1014.72 2.61758 -3.36727 0
M  V30 10918 S 1015.56 2.12366 -4.9159 0
M  V30 10919 C 1016.71 3.5071 -5.18414 0
M  V30 10920 H 1016.94 0.971203 -2.80989 0
M  V30 10921 H 1014.48 0.390636 -1.49377 0
M  V30 10922 H 1016.44 3.41098 -2.28391 0
M  V30 10923 H 1015.1 2.88564 -1.24054 0
M  V30 10924 H 1014.29 3.62173 -3.50495 0
M  V30 10925 H 1013.89 1.91254 -3.214 0
M  V30 10926 H 1016.18 4.46622 -5.09445 0
M  V30 10927 H 1017.13 3.41829 -6.20128 0
M  V30 10928 H 1017.53 3.46008 -4.46026 0
M  V30 10929 N 1016.93 1.50896 0.454776 0
M  V30 10930 C 1018.18 1.6294 1.20741 0
M  V30 10931 C 1018.51 0.336339 1.91265 0
M  V30 10932 O 1017.79 -0.663153 1.82846 0
M  V30 10933 C 1018.07 2.82092 2.23822 0
M  V30 10934 C 1017.92 4.21326 1.57495 0
M  V30 10935 C 1019.24 2.96777 3.24979 0
M  V30 10936 H 1016.36 0.59302 0.437603 0
M  V30 10937 H 1019 1.83331 0.498959 0
M  V30 10938 H 1017.15 2.64837 2.84243 0
M  V30 10939 H 1018.82 4.50209 1.00546 0
M  V30 10940 H 1017.07 4.24829 0.877664 0
M  V30 10941 H 1017.74 5.00656 2.32482 0
M  V30 10942 H 1020.21 3.12627 2.74597 0
M  V30 10943 H 1019.09 3.81742 3.94416 0
M  V30 10944 H 1019.35 2.08091 3.90065 0
M  V30 10945 N 1018.41 -0.709066 1.40748 0
M  V30 10946 C 1019.66 -1.46901 1.39378 0
M  V30 10947 C 1019.99 -1.945 -0.0016993 0
M  V30 10948 O 1019.24 -1.68963 -0.987426 0
M  V30 10949 C 1019.54 -2.70543 2.33541 0
M  V30 10950 C 1019.21 -2.41674 3.80663 0
M  V30 10951 C 1017.87 -2.33511 4.20745 0
M  V30 10952 C 1020.22 -2.1759 4.73607 0
M  V30 10953 C 1017.55 -1.99342 5.51797 0
M  V30 10954 C 1019.9 -1.84933 6.04965 0
M  V30 10955 C 1018.56 -1.75256 6.44082 0
M  V30 10956 H 1017.83 -0.537549 0.510021 0
M  V30 10957 H 1020.48 -0.811635 1.7345 0
M  V30 10958 H 1018.79 -3.41149 1.92677 0
M  V30 10959 H 1020.48 -3.2865 2.29761 0
M  V30 10960 H 1017.07 -2.48917 3.4891 0
M  V30 10961 H 1021.26 -2.22849 4.43454 0
M  V30 10962 H 1016.51 -1.90392 5.81 0
M  V30 10963 H 1020.69 -1.65313 6.76494 0
M  V30 10964 H 1018.31 -1.48547 7.45545 0
M  V30 10965 N 1019.89 -1.26353 -0.941956 0
M  V30 10966 C 1021.11 -1.14731 -1.72776 0
M  V30 10967 C 1021.54 0.293766 -1.85792 0
M  V30 10968 O 1020.9 1.21284 -1.34759 0
M  V30 10969 C 1020.95 -1.82041 -3.11277 0
M  V30 10970 O 1020.05 -1.10867 -3.97218 0
M  V30 10971 H 1019.39 -0.399823 -0.53013 0
M  V30 10972 H 1021.92 -1.67157 -1.17981 0
M  V30 10973 H 1021.93 -1.88834 -3.61671 0
M  V30 10974 H 1020.61 -2.86879 -3.0112 0
M  V30 10975 H 1019.18 -1.12044 -3.55669 0
M  V30 10976 N 1021.37 1.14642 -1.08144 0
M  V30 10977 C 1022.62 1.84964 -0.804437 0
M  V30 10978 C 1022.93 1.8369 0.672106 0
M  V30 10979 O 1024.14 2.49775 1.06417 0
M  V30 10980 C 1022.59 3.32015 -1.38904 0
M  V30 10981 C 1022.2 3.41713 -2.89718 0
M  V30 10982 C 1023.94 4.07467 -1.19041 0
M  V30 10983 C 1021.85 4.82958 -3.41329 0
M  V30 10984 H 1020.78 0.692932 -0.297256 0
M  V30 10985 H 1023.43 1.29255 -1.30251 0
M  V30 10986 H 1021.81 3.87445 -0.818679 0
M  V30 10987 H 1022.99 2.96347 -3.52867 0
M  V30 10988 H 1021.3 2.79713 -3.08463 0
M  V30 10989 H 1023.9 5.1172 -1.55069 0
M  V30 10990 H 1024.24 4.16097 -0.130027 0
M  V30 10991 H 1024.78 3.58329 -1.72757 0
M  V30 10992 H 1021.51 4.79515 -4.46929 0
M  V30 10993 H 1021.03 5.28873 -2.82937 0
M  V30 10994 H 1022.71 5.51841 -3.37759 0
M  V30 10995 N 1022.85 0.866709 1.31628 0
M  V30 10996 C 1024.08 0.489679 2.00713 0
M  V30 10997 C 1024.48 -0.921492 1.65243 0
M  V30 10998 O 1023.83 -1.61467 0.876012 0
M  V30 10999 C 1023.89 0.563148 3.55062 0
M  V30 11000 C 1023.55 1.93535 4.13996 0
M  V30 11001 C 1024.55 2.90243 4.31341 0
M  V30 11002 C 1022.23 2.23578 4.49798 0
M  V30 11003 C 1024.23 4.15138 4.83673 0
M  V30 11004 C 1021.92 3.48723 5.01832 0
M  V30 11005 C 1022.91 4.44319 5.18719 0
M  V30 11006 O 1022.6 5.67247 5.69637 0
M  V30 11007 H 1022.33 0.189605 0.648865 0
M  V30 11008 H 1024.89 1.16874 1.68907 0
M  V30 11009 H 1023.12 -0.172815 3.86314 0
M  V30 11010 H 1024.81 0.200009 4.05407 0
M  V30 11011 H 1025.57 2.6834 4.04003 0
M  V30 11012 H 1021.45 1.49949 4.35932 0
M  V30 11013 H 1025 4.89762 4.96769 0
M  V30 11014 H 1020.89 3.70471 5.28603 0
M  V30 11015 H 1021.66 5.69372 5.88011 0
M  V30 11016 N 1024.32 -1.44642 0.625825 0
M  V30 11017 C 1025.57 -2.02094 0.128201 0
M  V30 11018 C 1025.9 -1.49181 -1.24801 0
M  V30 11019 O 1025.15 -0.663965 -1.84092 0
M  V30 11020 C 1025.45 -3.57352 0.0584381 0
M  V30 11021 C 1025.12 -4.29496 1.37272 0
M  V30 11022 C 1023.78 -4.48922 1.7327 0
M  V30 11023 C 1026.13 -4.70586 2.2405 0
M  V30 11024 C 1023.46 -5.06697 2.95762 0
M  V30 11025 C 1025.81 -5.29717 3.45807 0
M  V30 11026 C 1024.48 -5.47363 3.82034 0
M  V30 11027 H 1023.75 -0.739514 0.0469122 0
M  V30 11028 H 1026.39 -1.73475 0.811083 0
M  V30 11029 H 1024.7 -3.85354 -0.707791 0
M  V30 11030 H 1026.4 -3.9953 -0.34303 0
M  V30 11031 H 1022.99 -4.14702 1.08258 0
M  V30 11032 H 1027.17 -4.55295 1.97535 0
M  V30 11033 H 1022.43 -5.18546 3.23913 0
M  V30 11034 H 1026.6 -5.60507 4.13286 0
M  V30 11035 H 1024.23 -5.91898 4.77033 0
M  V30 11036 N 1025.8 -0.366053 -1.5329 0
M  V30 11037 C 1027.05 0.224614 -2.00445 0
M  V30 11038 C 1027.36 1.49829 -1.2574 0
M  V30 11039 O 1028.57 2.16759 -1.63487 0
M  V30 11040 C 1027.03 0.450818 -3.57065 0
M  V30 11041 C 1026.63 -0.808257 -4.40649 0
M  V30 11042 C 1028.38 0.999116 -4.12575 0
M  V30 11043 C 1026.28 -0.551612 -5.88822 0
M  V30 11044 H 1025.21 0.0877114 -0.748881 0
M  V30 11045 H 1027.87 -0.484866 -1.76978 0
M  V30 11046 H 1026.25 1.22157 -3.76688 0
M  V30 11047 H 1027.42 -1.58184 -4.32798 0
M  V30 11048 H 1025.74 -1.27981 -3.96245 0
M  V30 11049 H 1028.33 1.20646 -5.20911 0
M  V30 11050 H 1028.68 1.96139 -3.67199 0
M  V30 11051 H 1029.21 0.288518 -3.96752 0
M  V30 11052 H 1025.95 -1.48423 -6.38475 0
M  V30 11053 H 1025.47 0.183462 -5.99519 0
M  V30 11054 H 1027.15 -0.177307 -6.46757 0
M  V30 11055 N 1027.28 1.57312 -0.0952337 0
M  V30 11056 C 1028.53 1.94646 0.569284 0
M  V30 11057 C 1028.86 0.977152 1.67825 0
M  V30 11058 O 1028.13 0.0102318 1.94497 0
M  V30 11059 C 1028.42 3.42098 1.12433 0
M  V30 11060 C 1028.27 4.49795 0.0204016 0
M  V30 11061 C 1029.59 3.90866 2.02266 0
M  V30 11062 H 1026.71 0.707779 0.205469 0
M  V30 11063 H 1029.35 1.89274 -0.16597 0
M  V30 11064 H 1027.5 3.46807 1.75092 0
M  V30 11065 H 1029.17 4.57198 -0.613845 0
M  V30 11066 H 1027.41 4.28964 -0.645965 0
M  V30 11067 H 1028.09 5.50166 0.449579 0
M  V30 11068 H 1030.56 3.88311 1.49512 0
M  V30 11069 H 1029.44 4.94604 2.38029 0
M  V30 11070 H 1029.7 3.30167 2.9401 0
M  V30 11071 N 1028.76 -0.17846 1.56586 0
M  V30 11072 C 1029.69 -1.22342 1.98884 0
M  V30 11073 C 1030.67 -1.46564 0.86331 0
M  V30 11074 O 1031.85 -1.58019 1.12887 0
M  V30 11075 C 1028.98 -2.56396 2.34261 0
M  V30 11076 C 1027.94 -2.46756 3.49708 0
M  V30 11077 C 1027.26 -3.85235 3.70807 0
M  V30 11078 C 1028.56 -1.97838 4.83381 0
M  V30 11079 H 1030.26 -0.871848 2.86425 0
M  V30 11080 H 1027.8 -0.417948 1.37801 0
M  V30 11081 H 1029.76 -3.29695 2.62448 0
M  V30 11082 H 1028.48 -2.93327 1.43621 0
M  V30 11083 H 1027.14 -1.75912 3.21637 0
M  V30 11084 H 1026.79 -4.19547 2.7747 0
M  V30 11085 H 1026.49 -3.79655 4.48481 0
M  V30 11086 H 1028.01 -4.60131 4.01387 0
M  V30 11087 H 1029.43 -2.60906 5.10491 0
M  V30 11088 H 1027.82 -2.03223 5.64642 0
M  V30 11089 H 1028.89 -0.932339 4.75852 0
M  V30 11090 N 1030.24 -1.51135 -0.446768 0
M  V30 11091 C 1031.46 -1.67129 -1.21965 0
M  V30 11092 C 1031.88 -0.36467 -1.85245 0
M  V30 11093 O 1031.24 0.655908 -1.70306 0
M  V30 11094 C 1031.29 -2.78016 -2.31061 0
M  V30 11095 O 1031.01 -4.03615 -1.70371 0
M  V30 11096 C 1032.51 -3.05197 -3.21511 0
M  V30 11097 H 1029.73 -0.561111 -0.367961 0
M  V30 11098 H 1032.27 -1.97499 -0.530517 0
M  V30 11099 H 1030.43 -2.50272 -2.95707 0
M  V30 11100 H 1030.84 -4.65126 -2.424 0
M  V30 11101 H 1032.32 -3.8639 -3.94216 0
M  V30 11102 H 1032.79 -2.17228 -3.81718 0
M  V30 11103 H 1033.4 -3.34565 -2.62577 0
M  V30 11104 N 1031.71 0.701592 -1.41122 0
M  V30 11105 C 1032.64 1.82815 -1.45262 0
M  V30 11106 C 1033.62 1.67215 -0.311939 0
M  V30 11107 O 1034.81 1.87038 -0.522538 0
M  V30 11108 C 1031.94 3.20899 -1.32819 0
M  V30 11109 C 1030.89 3.51194 -2.44636 0
M  V30 11110 C 1030.22 4.8857 -2.17263 0
M  V30 11111 C 1031.52 3.50777 -3.86979 0
M  V30 11112 H 1033.21 1.79608 -2.39544 0
M  V30 11113 H 1030.76 0.862693 -1.15298 0
M  V30 11114 H 1032.71 3.99417 -1.34329 0
M  V30 11115 H 1031.44 3.24717 -0.350191 0
M  V30 11116 H 1030.1 2.75024 -2.42399 0
M  V30 11117 H 1029.74 4.89007 -1.17819 0
M  V30 11118 H 1029.44 5.09805 -2.92186 0
M  V30 11119 H 1030.97 5.69405 -2.20478 0
M  V30 11120 H 1032.38 4.19309 -3.90964 0
M  V30 11121 H 1030.78 3.83542 -4.61536 0
M  V30 11122 H 1031.85 2.49873 -4.15562 0
M  V30 11123 N 1033.19 1.2685 0.935242 0
M  V30 11124 C 1034.44 1.12745 1.68211 0
M  V30 11125 C 1034.77 -0.328128 1.91712 0
M  V30 11126 O 1034.02 -1.25701 1.49993 0
M  V30 11127 C 1034.32 1.8482 3.05903 0
M  V30 11128 C 1033.99 3.347 3.02137 0
M  V30 11129 C 1032.65 3.75583 3.00817 0
M  V30 11130 C 1035 4.30368 2.93995 0
M  V30 11131 C 1032.33 5.10511 2.89129 0
M  V30 11132 C 1034.68 5.65343 2.83848 0
M  V30 11133 C 1033.34 6.0553 2.80874 0
M  V30 11134 H 1032.61 0.412563 0.615527 0
M  V30 11135 H 1035.26 1.57366 1.09124 0
M  V30 11136 H 1033.57 1.32685 3.68649 0
M  V30 11137 H 1035.26 1.71341 3.62551 0
M  V30 11138 H 1031.85 3.02182 3.03947 0
M  V30 11139 H 1036.04 3.9976 2.94118 0
M  V30 11140 H 1031.29 5.40802 2.85208 0
M  V30 11141 H 1035.47 6.39151 2.76512 0
M  V30 11142 H 1033.09 7.10037 2.71573 0
M  V30 11143 N 1034.67 -1.14067 1.0875 0
M  V30 11144 C 1035.92 -1.84819 0.817698 0
M  V30 11145 C 1036.24 -1.83545 -0.658488 0
M  V30 11146 O 1035.51 -1.28633 -1.47751 0
M  V30 11147 H 1034.09 -0.68433 0.299502 0
M  V30 11148 H 1036.75 -1.38208 1.37421 0
M  V30 11149 H 1035.85 -2.89541 1.16501 0
M  V30 11150 N 1036.15 -0.873678 -1.31166 0
M  V30 11151 C 1037.1 -0.321349 -2.3037 0
M  V30 11152 C 1038.09 0.565568 -1.5968 0
M  V30 11153 O 1039.3 0.451257 -1.74252 0
M  V30 11154 H 1035.67 -0.0852425 -0.747153 0
M  V30 11155 H 1037.64 -1.17191 -2.74425 0
M  V30 11156 C 1036.39 0.459016 -3.44657 0
M  V30 11157 H 1035.71 -0.214185 -3.99226 0
M  V30 11158 H 1037.15 0.810758 -4.16176 0
M  V30 11159 C 1035.61 1.65173 -2.93632 0
M  V30 11160 O 1036.14 2.75105 -2.92711 0
M  V30 11161 N 1034.35 1.4851 -2.49786 0
M  V30 11162 H 1033.9 0.590785 -2.50734 0
M  V30 11163 H 1033.85 2.28452 -2.16002 0
M  V30 11164 N 1037.63 1.44308 -0.633487 0
M  V30 11165 C 1038.86 2.06085 -0.145852 0
M  V30 11166 C 1039.26 1.47432 1.18577 0
M  V30 11167 O 1038.61 0.592575 1.7388 0
M  V30 11168 C 1038.67 3.59477 0.0407848 0
M  V30 11169 C 1038.33 4.40607 -1.21304 0
M  V30 11170 C 1039.33 4.73937 -2.13728 0
M  V30 11171 C 1037.02 4.80943 -1.44911 0
M  V30 11172 C 1039.01 5.46489 -3.28068 0
M  V30 11173 C 1036.7 5.53243 -2.59548 0
M  V30 11174 C 1037.69 5.85936 -3.50953 0
M  V30 11175 O 1037.38 6.56764 -4.6359 0
M  V30 11176 H 1037.11 0.671484 -0.0780085 0
M  V30 11177 H 1039.67 1.86128 -0.868658 0
M  V30 11178 H 1037.9 3.77933 0.818761 0
M  V30 11179 H 1039.59 4.03013 0.483273 0
M  V30 11180 H 1040.35 4.43311 -1.96725 0
M  V30 11181 H 1036.23 4.54915 -0.746537 0
M  V30 11182 H 1039.78 5.71924 -3.99435 0
M  V30 11183 H 1035.67 5.83285 -2.76493 0
M  V30 11184 H 1036.44 6.75234 -4.62602 0
M  V30 11185 N 1039.1 0.374177 1.53094 0
M  V30 11186 C 1040.33 -0.213325 2.05797 0
M  V30 11187 C 1040.75 -1.41753 1.24706 0
M  V30 11188 O 1040.1 -1.80183 0.289868 0
M  V30 11189 C 1040.16 -0.598367 3.56513 0
M  V30 11190 O 1039.88 0.557983 4.34532 0
M  V30 11191 C 1041.38 -1.24334 4.25507 0
M  V30 11192 H 1038.6 -0.0357398 0.670048 0
M  V30 11193 H 1041.14 0.535035 1.97377 0
M  V30 11194 H 1039.3 -1.29663 3.65056 0
M  V30 11195 H 1039.71 0.244911 5.23928 0
M  V30 11196 H 1041.18 -1.46325 5.32253 0
M  V30 11197 H 1041.66 -2.20622 3.79766 0
M  V30 11198 H 1042.27 -0.586269 4.2124 0
M  V30 11199 N 1040.58 -1.57259 0.103575 0
M  V30 11200 C 1041.51 -2.17509 -0.84923 0
M  V30 11201 C 1042.49 -1.11079 -1.28824 0
M  V30 11202 O 1043.68 -1.39252 -1.35361 0
M  V30 11203 C 1040.81 -2.76221 -2.10522 0
M  V30 11204 C 1039.76 -3.88098 -1.80454 0
M  V30 11205 C 1039.09 -4.33549 -3.12952 0
M  V30 11206 C 1040.39 -5.10909 -1.08486 0
M  V30 11207 H 1042.08 -2.9738 -0.347217 0
M  V30 11208 H 1039.63 -1.43045 -0.165568 0
M  V30 11209 H 1041.58 -3.17024 -2.77621 0
M  V30 11210 H 1040.31 -1.93617 -2.63021 0
M  V30 11211 H 1038.96 -3.47847 -1.15749 0
M  V30 11212 H 1038.61 -3.47825 -3.63355 0
M  V30 11213 H 1038.31 -5.08984 -2.93614 0
M  V30 11214 H 1039.84 -4.76992 -3.81196 0
M  V30 11215 H 1041.25 -5.48828 -1.65711 0
M  V30 11216 H 1039.65 -5.91828 -0.992973 0
M  V30 11217 H 1040.72 -4.84851 -0.0690108 0
M  V30 11218 N 1042.06 0.170153 -1.56679 0
M  V30 11219 C 1042.99 1.21285 -1.9953 0
M  V30 11220 C 1043.97 1.46104 -0.871071 0
M  V30 11221 O 1045.16 1.57419 -1.13724 0
M  V30 11222 C 1042.29 2.5515 -2.35618 0
M  V30 11223 C 1041.24 2.44898 -3.51011 0
M  V30 11224 C 1040.57 3.83263 -3.72845 0
M  V30 11225 C 1041.87 1.95271 -4.84424 0
M  V30 11226 H 1043.56 0.856646 -2.86883 0
M  V30 11227 H 1041.11 0.410634 -1.38021 0
M  V30 11228 H 1043.06 3.28299 -2.64193 0
M  V30 11229 H 1041.78 2.92561 -1.45175 0
M  V30 11230 H 1040.44 1.74203 -3.22566 0
M  V30 11231 H 1040.09 4.18069 -2.79691 0
M  V30 11232 H 1039.79 3.77272 -4.50488 0
M  V30 11233 H 1041.31 4.57996 -4.03822 0
M  V30 11234 H 1042.73 2.58195 -5.11867 0
M  V30 11235 H 1041.13 2.00225 -5.65712 0
M  V30 11236 H 1042.2 0.90709 -4.7634 0
M  V30 11237 N 1043.54 1.5137 0.438746 0
M  V30 11238 C 1044.49 1.73154 1.55308 0
M  V30 11239 C 1045.48 0.597825 1.58501 0
M  V30 11240 O 1046.69 0.77917 1.62262 0
M  V30 11241 H 1043.06 0.547083 0.51595 0
M  V30 11242 H 1045.03 2.66566 1.34108 0
M  V30 11243 C 1043.78 1.87242 2.92977 0
M  V30 11244 H 1043.1 2.73884 2.91252 0
M  V30 11245 H 1044.54 2.06497 3.70317 0
M  V30 11246 C 1043 0.631887 3.30921 0
M  V30 11247 O 1043.53 -0.214099 4.01129 0
M  V30 11248 N 1041.74 0.47639 2.86669 0
M  V30 11249 H 1041.29 1.16589 2.29706 0
M  V30 11250 H 1041.24 -0.352403 3.12419 0
M  V30 11251 N 1045.02 -0.694098 1.41492 0
M  V30 11252 C 1046.26 -1.4563 1.41137 0
M  V30 11253 C 1046.6 -1.94189 0.0208428 0
M  V30 11254 O 1045.87 -1.69628 -0.951655 0
M  V30 11255 C 1046.15 -2.66714 2.41941 0
M  V30 11256 C 1046.01 -2.23912 3.90107 0
M  V30 11257 C 1047.33 -3.68913 2.39981 0
M  V30 11258 H 1044.44 -0.52821 0.513968 0
M  V30 11259 H 1047.09 -0.790437 1.72778 0
M  V30 11260 H 1045.24 -3.23525 2.1509 0
M  V30 11261 H 1046.91 -1.72417 4.27867 0
M  V30 11262 H 1045.15 -1.5568 4.04903 0
M  V30 11263 H 1045.82 -3.108 4.56188 0
M  V30 11264 H 1048.3 -3.21779 2.63813 0
M  V30 11265 H 1047.17 -4.51242 3.12524 0
M  V30 11266 H 1047.44 -4.18711 1.41892 0
M  V30 11267 N 1046.49 -1.27344 -0.928501 0
M  V30 11268 C 1047.74 -1.13635 -1.6761 0
M  V30 11269 C 1048.07 0.317957 -1.91884 0
M  V30 11270 O 1047.32 1.24904 -1.50657 0
M  V30 11271 C 1047.62 -1.86439 -3.04918 0
M  V30 11272 C 1047.29 -3.36298 -3.00358 0
M  V30 11273 C 1045.95 -3.77173 -2.98821 0
M  V30 11274 C 1048.3 -4.31921 -2.91708 0
M  V30 11275 C 1045.63 -5.12037 -2.86417 0
M  V30 11276 C 1047.98 -5.66841 -2.80846 0
M  V30 11277 C 1046.65 -6.07011 -2.77659 0
M  V30 11278 H 1045.92 -0.415821 -0.61333 0
M  V30 11279 H 1048.56 -1.57943 -1.08288 0
M  V30 11280 H 1046.87 -1.34638 -3.6794 0
M  V30 11281 H 1048.57 -1.73261 -3.61637 0
M  V30 11282 H 1045.16 -3.0379 -3.0234 0
M  V30 11283 H 1049.34 -4.01314 -2.91994 0
M  V30 11284 H 1044.6 -5.42307 -2.82336 0
M  V30 11285 H 1048.77 -6.40608 -2.73119 0
M  V30 11286 H 1046.4 -7.11467 -2.67804 0
M  V30 11287 N 1047.97 1.13488 -1.09353 0
M  V30 11288 C 1048.9 2.20988 -0.75409 0
M  V30 11289 C 1049.88 1.67977 0.267901 0
M  V30 11290 O 1051.07 1.93722 0.136128 0
M  V30 11291 C 1048.2 3.46869 -0.173042 0
M  V30 11292 C 1047.15 4.12965 -1.12446 0
M  V30 11293 C 1046.48 5.33163 -0.405157 0
M  V30 11294 C 1047.78 4.60388 -2.46658 0
M  V30 11295 H 1049.47 2.49639 -1.6529 0
M  V30 11296 H 1047.02 1.19987 -0.796182 0
M  V30 11297 H 1048.97 4.21331 0.0764988 0
M  V30 11298 H 1047.7 3.17611 0.760956 0
M  V30 11299 H 1046.35 3.40469 -1.35927 0
M  V30 11300 H 1046 5.00169 0.532955 0
M  V30 11301 H 1045.7 5.78332 -1.03952 0
M  V30 11302 H 1047.23 6.1038 -0.163899 0
M  V30 11303 H 1048.64 5.26276 -2.27389 0
M  V30 11304 H 1047.04 5.16294 -3.05876 0
M  V30 11305 H 1048.11 3.74949 -3.07476 0
M  V30 11306 N 1049.45 0.880621 1.30701 0
M  V30 11307 C 1050.41 0.349087 2.26526 0
M  V30 11308 C 1051.41 -0.505973 1.52632 0
M  V30 11309 O 1052.6 -0.313751 1.71351 0
M  V30 11310 C 1049.74 -0.503023 3.37168 0
M  V30 11311 H 1050.93 1.19516 2.75056 0
M  V30 11312 H 1048.48 0.657107 1.41816 0
M  V30 11313 H 1049.22 -1.36986 2.93948 0
M  V30 11314 H 1049 0.109389 3.91947 0
M  V30 11315 H 1050.49 -0.866845 4.08504 0
M  V30 11316 N 1050.93 -1.4397 0.641131 0
M  V30 11317 C 1052.18 -2.01163 0.147026 0
M  V30 11318 C 1052.49 -1.51099 -1.24211 0
M  V30 11319 O 1053.7 -2.00487 -1.83078 0
M  V30 11320 C 1052.15 -3.59275 0.212068 0
M  V30 11321 C 1051.76 -4.18334 1.60314 0
M  V30 11322 C 1053.51 -4.23903 -0.225057 0
M  V30 11323 C 1051.41 -5.68701 1.62276 0
M  V30 11324 H 1050.34 -0.75226 0.051201 0
M  V30 11325 H 1052.99 -1.65075 0.801396 0
M  V30 11326 H 1051.38 -3.92708 -0.509589 0
M  V30 11327 H 1052.55 -3.96422 2.34918 0
M  V30 11328 H 1050.86 -3.66031 1.9852 0
M  V30 11329 H 1053.46 -5.34205 -0.230074 0
M  V30 11330 H 1053.8 -3.96956 -1.25426 0
M  V30 11331 H 1054.34 -3.95309 0.44444 0
M  V30 11332 H 1051.08 -6.00397 2.63066 0
M  V30 11333 H 1050.6 -5.92705 0.919797 0
M  V30 11334 H 1052.28 -6.32521 1.36112 0
M  V30 11335 N 1052.41 -0.382291 -1.52893 0
M  V30 11336 C 1053.37 0.44408 -2.24857 0
M  V30 11337 C 1054.37 0.996004 -1.26239 0
M  V30 11338 O 1055.56 0.879114 -1.5039 0
M  V30 11339 C 1052.69 1.62234 -2.99822 0
M  V30 11340 H 1053.89 -0.185862 -2.99324 0
M  V30 11341 H 1051.44 -0.134275 -1.55722 0
M  V30 11342 H 1052.17 2.28991 -2.29638 0
M  V30 11343 H 1051.96 1.23336 -3.72197 0
M  V30 11344 H 1053.45 2.20756 -3.54481 0
M  V30 11345 N 1053.89 1.57202 -0.111913 0
M  V30 11346 C 1055.13 1.95239 0.548607 0
M  V30 11347 C 1055.46 0.994897 1.6678 0
M  V30 11348 O 1054.74 0.0308603 1.94476 0
M  V30 11349 C 1055.02 3.43271 1.08798 0
M  V30 11350 C 1054.88 4.49792 -0.0273064 0
M  V30 11351 C 1056.19 3.92989 1.98109 0
M  V30 11352 H 1053.31 0.709919 0.197951 0
M  V30 11353 H 1055.96 1.89087 -0.186036 0
M  V30 11354 H 1054.11 3.48644 1.71404 0
M  V30 11355 H 1055.78 4.56521 -0.662302 0
M  V30 11356 H 1054.02 4.28254 -0.691426 0
M  V30 11357 H 1054.69 5.50612 0.391201 0
M  V30 11358 H 1057.17 3.89875 1.45385 0
M  V30 11359 H 1056.04 4.97101 2.32769 0
M  V30 11360 H 1056.3 3.33267 2.90492 0
M  V30 11361 N 1055.36 -0.161842 1.56767 0
M  V30 11362 C 1056.64 -0.904754 1.73417 0
M  V30 11363 C 1057.02 -1.99987 0.675908 0
M  V30 11364 O 1056.37 -2.26419 -0.307712 0
M  V30 11365 C 1056.58 -1.46082 3.16956 0
M  V30 11366 C 1057.93 -1.93004 3.78199 0
M  V30 11367 O 1058.95 -1.55856 3.20293 0
M  V30 11368 O 1057.81 -2.61465 4.79894 0
M  V30 11369 H 1054.9 -0.426518 0.708528 0
M  V30 11370 H 1057.45 -0.148928 1.69045 0
M  V30 11371 H 1056.22 -0.673087 3.85468 0
M  V30 11372 H 1055.84 -2.28056 3.25693 0
M  V30 11373 N 1056.84 -1.516 -0.430713 0
M  V30 11374 C 1057.79 -1.73975 -1.54387 0
M  V30 11375 C 1058.78 -0.606222 -1.58181 0
M  V30 11376 O 1059.99 -0.787764 -1.61846 0
M  V30 11377 H 1056.36 -0.549811 -0.513041 0
M  V30 11378 H 1058.34 -2.67274 -1.32692 0
M  V30 11379 C 1057.08 -1.88794 -2.9198 0
M  V30 11380 H 1056.41 -2.75425 -2.89795 0
M  V30 11381 H 1057.85 -2.08458 -3.69217 0
M  V30 11382 C 1056.31 -0.649427 -3.30581 0
M  V30 11383 O 1056.84 0.192823 -4.01237 0
M  V30 11384 N 1055.04 -0.491586 -2.86412 0
M  V30 11385 H 1054.59 -1.17806 -2.29084 0
M  V30 11386 H 1054.55 0.33583 -3.12601 0
M  V30 11387 N 1058.32 0.686584 -1.41858 0
M  V30 11388 C 1059.25 1.81264 -1.47193 0
M  V30 11389 C 1060.23 1.66875 -0.329657 0
M  V30 11390 O 1061.42 1.86473 -0.542347 0
M  V30 11391 C 1058.55 3.19472 -1.36216 0
M  V30 11392 C 1057.5 3.4858 -2.48347 0
M  V30 11393 C 1056.83 4.86239 -2.22432 0
M  V30 11394 C 1058.13 3.46653 -3.90678 0
M  V30 11395 H 1059.82 1.77057 -2.41436 0
M  V30 11396 H 1057.37 0.850415 -1.16206 0
M  V30 11397 H 1059.32 3.97969 -1.38558 0
M  V30 11398 H 1058.04 3.24327 -0.384611 0
M  V30 11399 H 1056.7 2.72437 -2.45303 0
M  V30 11400 H 1056.35 4.8773 -1.22999 0
M  V30 11401 H 1056.05 5.06677 -2.97577 0
M  V30 11402 H 1057.57 5.67034 -2.26505 0
M  V30 11403 H 1058.99 4.15139 -3.95389 0
M  V30 11404 H 1057.38 3.78625 -4.65578 0
M  V30 11405 H 1058.45 2.45451 -4.18189 0
M  V30 11406 N 1059.8 1.27835 0.921735 0
M  V30 11407 C 1060.76 1.11108 2.00469 0
M  V30 11408 C 1061.76 0.053203 1.60712 0
M  V30 11409 O 1062.95 0.298308 1.71627 0
M  V30 11410 C 1060.08 0.694269 3.33755 0
M  V30 11411 H 1061.28 2.07279 2.16738 0
M  V30 11412 H 1058.83 1.10708 1.10333 0
M  V30 11413 H 1059.56 -0.268561 3.23186 0
M  V30 11414 H 1059.35 1.45836 3.6397 0
M  V30 11415 H 1060.84 0.59965 4.13272 0
M  V30 11416 N 1061.28 -1.12907 1.09954 0
M  V30 11417 C 1062.22 -2.20561 0.73863 0
M  V30 11418 C 1063.22 -1.67347 -0.262944 0
M  V30 11419 O 1064.42 -1.79574 -0.123834 0
M  V30 11420 H 1060.8 -0.718823 0.220901 0
M  V30 11421 H 1062.77 -2.4826 1.65559 0
M  V30 11422 C 1061.52 -3.47227 0.181239 0
M  V30 11423 H 1060.84 -3.88516 0.943144 0
M  V30 11424 H 1062.28 -4.23987 -0.0332888 0
M  V30 11425 C 1060.74 -3.18956 -1.08485 0
M  V30 11426 O 1061.27 -3.38224 -2.1672 0
M  V30 11427 N 1059.48 -2.72797 -1.00151 0
M  V30 11428 H 1059.02 -2.57317 -0.120645 0
M  V30 11429 H 1058.98 -2.54256 -1.84935 0
M  V30 11430 N 1062.75 -0.88754 -1.30232 0
M  V30 11431 C 1063.72 -0.361095 -2.26338 0
M  V30 11432 C 1064.72 0.497871 -1.52898 0
M  V30 11433 O 1065.91 0.30466 -1.71515 0
M  V30 11434 C 1063.04 0.485135 -3.3743 0
M  V30 11435 H 1064.23 -1.20973 -2.74419 0
M  V30 11436 H 1061.78 -0.664619 -1.41466 0
M  V30 11437 H 1062.52 1.35425 -2.9467 0
M  V30 11438 H 1062.3 -0.130173 -3.91884 0
M  V30 11439 H 1063.79 0.845169 -4.08958 0
M  V30 11440 N 1064.23 1.43628 -0.648757 0
M  V30 11441 C 1065.16 2.29045 0.0841858 0
M  V30 11442 C 1066.18 1.42262 0.791537 0
M  V30 11443 O 1067.37 1.66243 0.650039 0
M  V30 11444 C 1064.47 3.19075 1.14212 0
M  V30 11445 C 1063.64 4.34372 0.513799 0
M  V30 11446 C 1062.7 5.05307 1.46803 0
M  V30 11447 O 1061.72 5.60729 0.978346 0
M  V30 11448 N 1062.93 5.08393 2.80209 0
M  V30 11449 H 1065.69 2.9259 -0.648948 0
M  V30 11450 H 1063.25 1.54268 -0.491209 0
M  V30 11451 H 1065.24 3.63395 1.78119 0
M  V30 11452 H 1063.81 2.57161 1.77728 0
M  V30 11453 H 1063.03 3.93024 -0.304262 0
M  V30 11454 H 1064.32 5.08745 0.0749871 0
M  V30 11455 H 1063.72 4.64729 3.22557 0
M  V30 11456 H 1062.28 5.56445 3.3943 0
M  V30 11457 N 1065.71 0.390394 1.52688 0
M  V30 11458 C 1066.62 -0.451543 2.30213 0
M  V30 11459 C 1067.64 -1.07051 1.37172 0
M  V30 11460 O 1068.81 -1.07609 1.70242 0
M  V30 11461 C 1065.88 -1.56299 3.0947 0
M  V30 11462 C 1064.94 -0.969017 4.18221 0
M  V30 11463 C 1064.17 -2.0275 4.93688 0
M  V30 11464 O 1064.39 -3.24273 4.69258 0
M  V30 11465 O 1063.33 -1.64418 5.79008 0
M  V30 11466 H 1067.15 0.180042 3.03166 0
M  V30 11467 H 1064.74 0.154082 1.48603 0
M  V30 11468 H 1066.62 -2.20864 3.58883 0
M  V30 11469 H 1065.3 -2.17952 2.3933 0
M  V30 11470 H 1064.2 -0.286587 3.73001 0
M  V30 11471 H 1065.54 -0.396687 4.90599 0
M  V30 11472 N 1067.19 -1.57141 0.120249 0
M  V30 11473 C 1068.12 -2.18398 -0.826112 0
M  V30 11474 C 1069.1 -1.12439 -1.27638 0
M  V30 11475 O 1070.28 -1.40679 -1.33877 0
M  V30 11476 C 1067.41 -2.78438 -2.0758 0
M  V30 11477 C 1066.37 -3.89991 -1.76327 0
M  V30 11478 C 1065.69 -4.36844 -3.08336 0
M  V30 11479 C 1066.99 -5.12031 -1.03062 0
M  V30 11480 H 1068.69 -2.97731 -0.315656 0
M  V30 11481 H 1066.23 -1.43213 -0.150387 0
M  V30 11482 H 1068.19 -3.19951 -2.74243 0
M  V30 11483 H 1066.91 -1.96396 -2.60953 0
M  V30 11484 H 1065.57 -3.49055 -1.12053 0
M  V30 11485 H 1065.22 -3.51659 -3.59646 0
M  V30 11486 H 1064.92 -5.1207 -2.88199 0
M  V30 11487 H 1066.44 -4.81009 -3.76116 0
M  V30 11488 H 1067.86 -5.50555 -1.59881 0
M  V30 11489 H 1066.25 -5.92848 -0.930146 0
M  V30 11490 H 1067.32 -4.84897 -0.017582 0
M  V30 11491 N 1068.67 0.153526 -1.5685 0
M  V30 11492 C 1069.89 0.882335 -1.87143 0
M  V30 11493 C 1070.31 1.75034 -0.707702 0
M  V30 11494 O 1069.67 1.79624 0.32273 0
M  V30 11495 C 1069.72 1.74444 -3.16625 0
M  V30 11496 O 1069.44 0.911419 -4.28515 0
M  V30 11497 C 1070.94 2.58139 -3.60388 0
M  V30 11498 H 1068.16 0.25546 -0.620469 0
M  V30 11499 H 1070.7 0.148275 -2.03962 0
M  V30 11500 H 1068.86 2.43163 -3.0158 0
M  V30 11501 H 1069.27 1.50268 -5.02513 0
M  V30 11502 H 1070.75 3.14215 -4.53842 0
M  V30 11503 H 1071.22 3.33865 -2.85361 0
M  V30 11504 H 1071.83 1.94721 -3.78105 0
M  V30 11505 N 1070.14 1.51827 0.422667 0
M  V30 11506 C 1071.09 1.74198 1.51406 0
M  V30 11507 C 1072.06 0.584013 1.55494 0
M  V30 11508 O 1073.25 0.820079 1.72277 0
M  V30 11509 C 1070.39 1.88627 2.88988 0
M  V30 11510 C 1069.5 3.16233 2.94314 0
M  V30 11511 C 1068.63 3.21172 4.2311 0
M  V30 11512 C 1067.67 4.43033 4.2236 0
M  V30 11513 N 1066.81 4.4544 5.42704 0
M  V30 11514 H 1071.65 2.67352 1.31632 0
M  V30 11515 H 1069.19 1.32487 0.63919 0
M  V30 11516 H 1071.15 1.94976 3.68837 0
M  V30 11517 H 1069.78 0.988673 3.07287 0
M  V30 11518 H 1068.83 3.19123 2.07039 0
M  V30 11519 H 1070.14 4.06104 2.89623 0
M  V30 11520 H 1069.29 3.26517 5.11343 0
M  V30 11521 H 1068.03 2.29216 4.30478 0
M  V30 11522 H 1067.04 4.37849 3.32518 0
M  V30 11523 H 1068.26 5.3627 4.16643 0
M  V30 11524 H 1066.21 3.56361 5.50766 0
M  V30 11525 H 1066.13 5.29138 5.39953 0
M  V30 11526 H 1067.39 4.54997 6.32928 0
M  V30 11527 N 1071.62 -0.679052 1.4222 0
M  V30 11528 C 1072.9 -1.43473 1.32947 0
M  V30 11529 C 1073.28 -2.11071 -0.0351689 0
M  V30 11530 O 1072.63 -2.02925 -1.05042 0
M  V30 11531 C 1072.84 -2.44065 2.49466 0
M  V30 11532 C 1074.19 -3.08834 2.91387 0
M  V30 11533 O 1075.21 -2.54392 2.49325 0
M  V30 11534 O 1074.07 -4.07478 3.64175 0
M  V30 11535 H 1071.16 -0.639743 0.524078 0
M  V30 11536 H 1073.71 -0.708134 1.54219 0
M  V30 11537 H 1072.48 -1.92884 3.40457 0
M  V30 11538 H 1072.1 -3.24212 2.30158 0
M  V30 11539 N 1073.1 -1.28322 -0.914942 0
M  V30 11540 C 1074.01 -1.13993 -2.05043 0
M  V30 11541 C 1075.03 -0.0667921 -1.73872 0
M  V30 11542 O 1076.2 -0.275845 -1.99502 0
M  V30 11543 C 1073.27 -0.801856 -3.373 0
M  V30 11544 C 1072.33 -1.95723 -3.82088 0
M  V30 11545 C 1071.56 -1.63519 -5.08033 0
M  V30 11546 O 1071.78 -0.54899 -5.67752 0
M  V30 11547 O 1070.72 -2.47844 -5.48504 0
M  V30 11548 H 1074.54 -2.09313 -2.2005 0
M  V30 11549 H 1072.13 -1.0763 -1.03616 0
M  V30 11550 H 1074.01 -0.627214 -4.16706 0
M  V30 11551 H 1072.69 0.121696 -3.23471 0
M  V30 11552 H 1071.59 -2.18702 -3.03514 0
M  V30 11553 H 1072.93 -2.86144 -4.00478 0
M  V30 11554 N 1074.58 1.12322 -1.10551 0
M  V30 11555 C 1075.51 2.17819 -0.713263 0
M  V30 11556 C 1076.52 1.6086 0.250604 0
M  V30 11557 O 1077.71 1.78466 0.0348909 0
M  V30 11558 C 1074.81 3.38885 -0.0320325 0
M  V30 11559 C 1073.99 4.25332 -1.02038 0
M  V30 11560 C 1073.04 5.24895 -0.370412 0
M  V30 11561 O 1072.07 5.59958 -1.02157 0
M  V30 11562 N 1073.27 5.73934 0.870633 0
M  V30 11563 H 1076.04 2.52083 -1.62094 0
M  V30 11564 H 1073.6 1.27755 -0.994492 0
M  V30 11565 H 1075.59 4.02574 0.414285 0
M  V30 11566 H 1074.16 3.02762 0.778072 0
M  V30 11567 H 1073.38 3.5824 -1.64492 0
M  V30 11568 H 1074.67 4.79936 -1.68936 0
M  V30 11569 H 1074.07 5.47614 1.419 0
M  V30 11570 H 1072.62 6.39504 1.26008 0
M  V30 11571 N 1076.06 0.894434 1.2976 0
M  V30 11572 C 1076.97 0.372622 2.31622 0
M  V30 11573 C 1077.98 -0.52996 1.65733 0
M  V30 11574 O 1079.16 -0.420807 1.96955 0
M  V30 11575 C 1076.22 -0.396076 3.4443 0
M  V30 11576 C 1075.28 0.537394 4.25923 0
M  V30 11577 C 1074.52 -0.194713 5.33345 0
M  V30 11578 O 1074.74 -1.41943 5.52457 0
M  V30 11579 O 1073.67 0.460055 6.00139 0
M  V30 11580 H 1077.5 1.21756 2.78225 0
M  V30 11581 H 1075.09 0.65858 1.34101 0
M  V30 11582 H 1076.97 -0.830962 4.13126 0
M  V30 11583 H 1075.64 -1.21716 2.99945 0
M  V30 11584 H 1074.55 1.02129 3.5989 0
M  V30 11585 H 1075.88 1.32475 4.74037 0
M  V30 11586 N 1077.53 -1.43282 0.656365 0
M  V30 11587 C 1078.44 -2.34576 -0.033864 0
M  V30 11588 C 1079.46 -1.5406 -0.808793 0
M  V30 11589 O 1080.64 -1.867 -0.755322 0
M  V30 11590 C 1077.7 -3.32378 -0.986197 0
M  V30 11591 C 1076.76 -4.28797 -0.207851 0
M  V30 11592 C 1076 -5.21927 -1.11482 0
M  V30 11593 O 1076.22 -5.19554 -2.35414 0
M  V30 11594 O 1075.15 -5.99045 -0.585536 0
M  V30 11595 H 1078.98 -2.95099 0.717668 0
M  V30 11596 H 1076.56 -1.43475 0.416556 0
M  V30 11597 H 1078.45 -3.9251 -1.53341 0
M  V30 11598 H 1077.12 -2.74354 -1.7179 0
M  V30 11599 H 1076.03 -3.72134 0.383022 0
M  V30 11600 H 1077.36 -4.89811 0.48435 0
M  V30 11601 N 1079.01 -0.398486 -1.52479 0
M  V30 11602 C 1079.92 0.439328 -2.3045 0
M  V30 11603 C 1080.94 1.06322 -1.37738 0
M  V30 11604 O 1082.12 1.06704 -1.7081 0
M  V30 11605 C 1079.18 1.54655 -3.10294 0
M  V30 11606 C 1078.24 0.946824 -4.18729 0
M  V30 11607 C 1077.47 2.00129 -4.94757 0
M  V30 11608 O 1077.7 3.2178 -4.70971 0
M  V30 11609 O 1076.63 1.61345 -5.79872 0
M  V30 11610 H 1080.46 -0.196118 -3.03066 0
M  V30 11611 H 1078.04 -0.161961 -1.4852 0
M  V30 11612 H 1079.92 2.18958 -3.60049 0
M  V30 11613 H 1078.6 2.1668 -2.40482 0
M  V30 11614 H 1077.51 0.266802 -3.73147 0
M  V30 11615 H 1078.84 0.370664 -4.90802 0
M  V30 11616 N 1080.49 1.57075 -0.12858 0
M  V30 11617 C 1081.4 2.19369 0.831533 0
M  V30 11618 C 1082.42 1.17258 1.28555 0
M  V30 11619 O 1083.59 1.49766 1.34656 0
M  V30 11620 C 1080.66 2.78846 2.06024 0
M  V30 11621 C 1079.72 3.96024 1.65722 0
M  V30 11622 C 1078.95 4.52655 2.82735 0
M  V30 11623 O 1079.18 4.08175 3.98434 0
M  V30 11624 O 1078.11 5.43198 2.59268 0
M  V30 11625 H 1081.94 3.01887 0.331352 0
M  V30 11626 H 1079.52 1.49081 0.0975226 0
M  V30 11627 H 1081.4 3.16721 2.77967 0
M  V30 11628 H 1080.08 1.99353 2.5503 0
M  V30 11629 H 1078.98 3.62899 0.908574 0
M  V30 11630 H 1080.32 4.76981 1.21449 0
M  V30 11631 N 1081.97 -0.145205 1.5693 0
M  V30 11632 C 1082.93 -1.16316 1.97492 0
M  V30 11633 C 1083.93 -1.35764 0.861668 0
M  V30 11634 O 1085.12 -1.32726 1.12825 0
M  V30 11635 C 1082.25 -2.52311 2.29242 0
M  V30 11636 H 1083.45 -0.815138 2.8861 0
M  V30 11637 H 1081 -0.38861 1.51392 0
M  V30 11638 H 1081.74 -2.92081 1.40922 0
M  V30 11639 H 1081.52 -2.39555 3.10412 0
M  V30 11640 H 1083.01 -3.25624 2.61456 0
M  V30 11641 N 1083.45 -1.52049 -0.414609 0
M  V30 11642 C 1084.41 -1.74382 -1.4874 0
M  V30 11643 C 1085.41 -0.613701 -1.48628 0
M  V30 11644 O 1086.6 -0.88152 -1.50249 0
M  V30 11645 C 1083.73 -1.82116 -2.88178 0
M  V30 11646 H 1084.93 -2.70147 -1.30233 0
M  V30 11647 H 1082.48 -1.42382 -0.644756 0
M  V30 11648 H 1083.21 -0.882457 -3.12063 0
M  V30 11649 H 1083 -2.64268 -2.89663 0
M  V30 11650 H 1084.49 -2.01155 -3.65959 0
M  V30 11651 N 1084.93 0.6715 -1.42579 0
M  V30 11652 C 1085.87 1.80623 -1.46554 0
M  V30 11653 C 1086.87 1.65934 -0.340932 0
M  V30 11654 O 1088.07 1.72502 -0.514098 0
M  V30 11655 H 1084.45 0.595619 -0.459067 0
M  V30 11656 H 1086.42 1.74388 -2.42139 0
M  V30 11657 C 1085.17 3.18794 -1.38801 0
M  V30 11658 H 1084.49 3.30725 -2.24635 0
M  V30 11659 H 1085.93 3.98201 -1.45645 0
M  V30 11660 C 1084.39 3.36742 -0.103219 0
M  V30 11661 O 1084.92 3.92761 0.842715 0
M  V30 11662 N 1083.13 2.90594 -0.0193034 0
M  V30 11663 H 1082.67 2.45192 -0.78986 0
M  V30 11664 H 1082.63 3.0298 0.839686 0
M  V30 11665 N 1086.4 1.28806 0.908124 0
M  V30 11666 C 1087.34 1.09018 2.01613 0
M  V30 11667 C 1088.35 0.0402059 1.6275 0
M  V30 11668 O 1089.54 0.283853 1.76229 0
M  V30 11669 C 1086.64 0.635712 3.32884 0
M  V30 11670 C 1085.81 1.76235 4.00325 0
M  V30 11671 C 1084.87 1.3003 5.09881 0
M  V30 11672 O 1083.9 2.00354 5.32773 0
M  V30 11673 N 1085.1 0.166575 5.80261 0
M  V30 11674 H 1087.86 2.0444 2.19144 0
M  V30 11675 H 1085.42 1.20633 1.07978 0
M  V30 11676 H 1087.42 0.310097 4.0351 0
M  V30 11677 H 1085.99 -0.225816 3.11783 0
M  V30 11678 H 1085.21 2.25727 3.23173 0
M  V30 11679 H 1086.49 2.51796 4.42127 0
M  V30 11680 H 1085.89 -0.419934 5.64139 0
M  V30 11681 H 1084.45 -0.0997281 6.51724 0
M  V30 11682 N 1087.88 -1.11734 1.11145 0
M  V30 11683 C 1088.83 -2.17683 0.766979 0
M  V30 11684 C 1089.8 -1.64051 -0.260108 0
M  V30 11685 O 1090.98 -1.90302 -0.137723 0
M  V30 11686 C 1088.12 -3.44442 0.212982 0
M  V30 11687 C 1087.24 -4.12094 1.29626 0
M  V30 11688 C 1086.37 -5.26526 0.703127 0
M  V30 11689 C 1085.41 -5.86057 1.76647 0
M  V30 11690 N 1084.55 -6.91889 1.19306 0
M  V30 11691 H 1089.39 -2.46495 1.67465 0
M  V30 11692 H 1086.92 -1.21011 0.836353 0
M  V30 11693 H 1088.88 -4.17009 -0.126162 0
M  V30 11694 H 1087.51 -3.16025 -0.657888 0
M  V30 11695 H 1086.56 -3.37631 1.75241 0
M  V30 11696 H 1087.88 -4.52398 2.10089 0
M  V30 11697 H 1087.03 -6.05888 0.313859 0
M  V30 11698 H 1085.77 -4.87519 -0.132856 0
M  V30 11699 H 1084.77 -5.05375 2.16508 0
M  V30 11700 H 1086 -6.27132 2.60543 0
M  V30 11701 H 1083.95 -6.54906 0.378664 0
M  V30 11702 H 1083.86 -7.30832 1.93443 0
M  V30 11703 H 1085.13 -7.75062 0.830578 0
M  V30 11704 N 1089.36 -0.901303 -1.29284 0
M  V30 11705 C 1090.29 -0.396909 -2.30102 0
M  V30 11706 C 1091.27 0.528919 -1.61668 0
M  V30 11707 O 1092.46 0.439306 -1.89166 0
M  V30 11708 C 1089.59 0.375006 -3.45269 0
M  V30 11709 C 1088.54 -0.46054 -4.25515 0
M  V30 11710 C 1087.87 0.438967 -5.32895 0
M  V30 11711 C 1089.17 -1.7113 -4.93469 0
M  V30 11712 H 1090.86 -1.23943 -2.72541 0
M  V30 11713 H 1088.41 -0.597428 -1.31022 0
M  V30 11714 H 1090.36 0.738622 -4.14876 0
M  V30 11715 H 1089.08 1.25132 -3.01678 0
M  V30 11716 H 1087.74 -0.80651 -3.57618 0
M  V30 11717 H 1087.39 1.31346 -4.85548 0
M  V30 11718 H 1087.09 -0.116406 -5.87485 0
M  V30 11719 H 1088.61 0.79874 -6.05353 0
M  V30 11720 H 1090.03 -1.41732 -5.55504 0
M  V30 11721 H 1088.42 -2.20811 -5.57999 0
M  V30 11722 H 1089.49 -2.44636 -4.18666 0
M  V30 11723 N 1090.84 1.42931 -0.663954 0
M  V30 11724 C 1091.8 2.29197 0.0117626 0
M  V30 11725 C 1092.8 1.42767 0.739875 0
M  V30 11726 O 1093.99 1.64278 0.579509 0
M  V30 11727 C 1091.12 3.2505 1.02738 0
M  V30 11728 H 1092.32 2.90438 -0.747391 0
M  V30 11729 H 1089.87 1.5039 -0.425733 0
M  V30 11730 H 1090.6 2.68726 1.8154 0
M  V30 11731 H 1090.39 3.88785 0.508809 0
M  V30 11732 H 1091.88 3.89771 1.49893 0
M  V30 11733 N 1092.32 0.406567 1.52266 0
M  V30 11734 C 1093.25 -0.411314 2.29849 0
M  V30 11735 C 1094.23 -1.04838 1.33952 0
M  V30 11736 O 1095.41 -1.05788 1.62857 0
M  V30 11737 C 1092.54 -1.52961 3.11802 0
M  V30 11738 C 1091.5 -1.01768 4.15725 0
M  V30 11739 C 1090.82 -2.22938 4.86007 0
M  V30 11740 C 1092.12 -0.073515 5.22248 0
M  V30 11741 H 1093.82 0.236054 2.98468 0
M  V30 11742 H 1091.36 0.114968 1.4354 0
M  V30 11743 H 1093.31 -2.10874 3.64843 0
M  V30 11744 H 1092.04 -2.20482 2.40947 0
M  V30 11745 H 1090.7 -0.46097 3.6369 0
M  V30 11746 H 1090.35 -2.89007 4.11684 0
M  V30 11747 H 1090.05 -1.89338 5.5626 0
M  V30 11748 H 1091.57 -2.81462 5.41859 0
M  V30 11749 H 1092.98 -0.561367 5.70545 0
M  V30 11750 H 1091.38 0.173551 5.99849 0
M  V30 11751 H 1092.45 0.872524 4.76985 0
M  V30 11752 N 1093.79 -1.57004 0.136909 0
M  V30 11753 C 1094.73 -2.13355 -0.837405 0
M  V30 11754 C 1095.74 -1.08053 -1.21772 0
M  V30 11755 O 1096.93 -1.35365 -1.16355 0
M  V30 11756 C 1094.03 -2.63302 -2.13366 0
M  V30 11757 C 1093.2 -3.92896 -1.92228 0
M  V30 11758 C 1092.26 -4.28257 -3.05749 0
M  V30 11759 O 1091.29 -4.96761 -2.7788 0
M  V30 11760 N 1092.49 -3.87021 -4.3266 0
M  V30 11761 H 1095.25 -2.9758 -0.35586 0
M  V30 11762 H 1092.81 -1.61832 -0.0469758 0
M  V30 11763 H 1094.81 -2.83977 -2.88339 0
M  V30 11764 H 1093.38 -1.83858 -2.52814 0
M  V30 11765 H 1092.6 -3.80949 -1.01349 0
M  V30 11766 H 1093.88 -4.776 -1.75431 0
M  V30 11767 H 1093.28 -3.31804 -4.58173 0
M  V30 11768 H 1091.84 -4.12768 -5.04446 0
M  V30 11769 N 1095.27 0.136881 -1.57004 0
M  V30 11770 C 1096.22 1.16869 -1.99023 0
M  V30 11771 C 1097.19 1.42137 -0.859435 0
M  V30 11772 O 1098.37 1.54303 -1.12229 0
M  V30 11773 C 1095.51 2.49466 -2.38455 0
M  V30 11774 C 1094.63 2.31286 -3.64871 0
M  V30 11775 C 1093.76 3.56989 -3.9336 0
M  V30 11776 C 1092.8 3.33889 -5.13015 0
M  V30 11777 N 1091.94 4.51748 -5.37464 0
M  V30 11778 H 1096.78 0.803366 -2.86967 0
M  V30 11779 H 1094.32 0.385216 -1.41967 0
M  V30 11780 H 1096.27 3.26794 -2.59348 0
M  V30 11781 H 1094.9 2.83926 -1.53577 0
M  V30 11782 H 1093.96 1.44962 -3.51696 0
M  V30 11783 H 1095.27 2.10183 -4.52355 0
M  V30 11784 H 1094.42 4.42742 -4.14806 0
M  V30 11785 H 1093.16 3.81106 -3.04318 0
M  V30 11786 H 1092.17 2.46525 -4.91432 0
M  V30 11787 H 1093.39 3.1116 -6.03619 0
M  V30 11788 H 1091.34 4.76019 -4.51377 0
M  V30 11789 H 1091.25 4.33684 -6.19237 0
M  V30 11790 H 1092.52 5.38686 -5.63416 0
M  V30 11791 N 1096.75 1.52266 0.40654 0
M  V30 11792 C 1097.71 1.75168 1.47814 0
M  V30 11793 C 1098.71 0.621575 1.48301 0
M  V30 11794 O 1099.9 0.889476 1.4978 0
M  V30 11795 C 1097.04 1.83642 2.87208 0
M  V30 11796 H 1098.23 2.70834 1.28798 0
M  V30 11797 H 1095.78 1.42722 0.637196 0
M  V30 11798 H 1096.52 0.898994 3.1159 0
M  V30 11799 H 1096.3 2.65801 2.88257 0
M  V30 11800 H 1097.79 2.03093 3.64888 0
M  V30 11801 N 1098.23 -0.663929 1.42933 0
M  V30 11802 C 1099.18 -1.77717 1.47259 0
M  V30 11803 C 1100.15 -1.62922 0.323387 0
M  V30 11804 O 1101.33 -1.83319 0.529021 0
M  V30 11805 C 1098.47 -3.15814 1.39124 0
M  V30 11806 C 1097.58 -3.4182 2.64165 0
M  V30 11807 C 1096.72 -4.69705 2.48094 0
M  V30 11808 C 1095.76 -4.88781 3.68456 0
M  V30 11809 N 1094.89 -6.07915 3.51261 0
M  V30 11810 H 1099.73 -1.73355 2.42388 0
M  V30 11811 H 1097.27 -0.846121 1.2033 0
M  V30 11812 H 1099.23 -3.95633 1.32403 0
M  V30 11813 H 1097.86 -3.19274 0.475829 0
M  V30 11814 H 1096.91 -2.56176 2.81208 0
M  V30 11815 H 1098.22 -3.51805 3.53602 0
M  V30 11816 H 1097.38 -5.57632 2.39021 0
M  V30 11817 H 1096.12 -4.62022 1.56164 0
M  V30 11818 H 1095.12 -3.99292 3.7795 0
M  V30 11819 H 1096.35 -4.98301 4.61381 0
M  V30 11820 H 1094.29 -6.01384 2.62057 0
M  V30 11821 H 1094.21 -6.1881 4.34293 0
M  V30 11822 H 1095.48 -6.98492 3.4602 0
M  V30 11823 N 1099.71 -1.29285 -0.901281 0
M  V30 11824 C 1100.62 -1.16161 -2.03823 0
M  V30 11825 C 1101.63 -0.0852298 -1.73791 0
M  V30 11826 O 1102.81 -0.29699 -1.99198 0
M  V30 11827 C 1099.87 -0.837586 -3.3643 0
M  V30 11828 C 1098.93 -1.99764 -3.7999 0
M  V30 11829 C 1098.17 -1.68898 -5.0627 0
M  V30 11830 O 1098.39 -0.609177 -5.67138 0
M  V30 11831 O 1097.32 -2.53648 -5.45845 0
M  V30 11832 H 1101.15 -2.11635 -2.17817 0
M  V30 11833 H 1098.74 -1.08722 -1.02468 0
M  V30 11834 H 1100.62 -0.671376 -4.16017 0
M  V30 11835 H 1099.29 0.0873811 -3.23582 0
M  V30 11836 H 1098.2 -2.21908 -3.01177 0
M  V30 11837 H 1099.53 -2.90376 -3.9742 0
M  V30 11838 N 1101.18 1.11143 -1.11736 0
M  V30 11839 C 1102.43 1.83219 -0.869413 0
M  V30 11840 C 1102.76 1.84588 0.603402 0
M  V30 11841 O 1102.04 1.30119 1.44566 0
M  V30 11842 C 1102.32 3.30247 -1.43559 0
M  V30 11843 C 1102.17 3.37253 -2.97624 0
M  V30 11844 C 1103.49 4.26412 -1.08907 0
M  V30 11845 H 1100.61 0.665205 -0.317286 0
M  V30 11846 H 1103.25 1.30307 -1.38275 0
M  V30 11847 H 1101.4 3.75437 -0.998978 0
M  V30 11848 H 1103.08 3.00599 -3.49911 0
M  V30 11849 H 1101.32 2.77378 -3.33532 0
M  V30 11850 H 1101.99 4.40752 -3.32328 0
M  V30 11851 H 1104.47 3.89418 -1.46604 0
M  V30 11852 H 1103.34 5.27666 -1.51195 0
M  V30 11853 H 1103.6 4.421 -0.000259009 0
M  V30 11854 N 1102.66 0.908147 1.28804 0
M  V30 11855 C 1103.63 0.397058 2.25735 0
M  V30 11856 C 1104.63 -0.473483 1.53671 0
M  V30 11857 O 1105.82 -0.277335 1.71978 0
M  V30 11858 C 1102.95 -0.431392 3.38159 0
M  V30 11859 H 1104.14 1.25323 2.72459 0
M  V30 11860 H 1101.69 0.687041 1.4039 0
M  V30 11861 H 1102.43 -1.3072 2.96787 0
M  V30 11862 H 1102.21 0.192502 3.91627 0
M  V30 11863 H 1103.7 -0.78 4.10251 0
M  V30 11864 N 1104.14 -1.42577 0.671525 0
M  V30 11865 C 1105.05 -2.34598 -0.00898225 0
M  V30 11866 C 1106.07 -1.54909 -0.792407 0
M  V30 11867 O 1107.24 -1.87491 -0.735477 0
M  V30 11868 C 1104.31 -3.33405 -0.950888 0
M  V30 11869 C 1103.37 -4.28993 -0.16236 0
M  V30 11870 C 1102.6 -5.2308 -1.0594 0
M  V30 11871 O 1102.82 -5.22022 -2.2989 0
M  V30 11872 O 1101.76 -5.99632 -0.521966 0
M  V30 11873 H 1105.58 -2.94321 0.748927 0
M  V30 11874 H 1103.17 -1.43025 0.43175 0
M  V30 11875 H 1105.05 -3.94115 -1.49169 0
M  V30 11876 H 1103.73 -2.7616 -1.68871 0
M  V30 11877 H 1102.63 -3.71707 0.42247 0
M  V30 11878 H 1103.97 -4.8927 0.536274 0
M  V30 11879 N 1105.62 -0.414636 -1.52048 0
M  V30 11880 C 1106.86 0.159585 -2.02171 0
M  V30 11881 C 1107.2 1.44321 -1.29943 0
M  V30 11882 O 1106.47 1.90185 -0.407402 0
M  V30 11883 C 1106.76 0.401655 -3.57853 0
M  V30 11884 C 1106.61 -0.899026 -4.40724 0
M  V30 11885 C 1107.93 1.1814 -4.23947 0
M  V30 11886 H 1105.05 0.0565257 -0.734829 0
M  V30 11887 H 1107.69 -0.549183 -1.8189 0
M  V30 11888 H 1105.84 1.00541 -3.75265 0
M  V30 11889 H 1107.51 -1.53502 -4.35011 0
M  V30 11890 H 1105.75 -1.50877 -4.06717 0
M  V30 11891 H 1106.42 -0.683974 -5.47746 0
M  V30 11892 H 1108.9 0.670203 -4.10667 0
M  V30 11893 H 1107.78 1.31953 -5.32804 0
M  V30 11894 H 1108.04 2.2035 -3.83273 0
M  V30 11895 N 1107.1 1.56929 -0.145233 0
M  V30 11896 C 1108.32 2.00864 0.516564 0
M  V30 11897 C 1108.75 1.02466 1.57741 0
M  V30 11898 O 1108.1 0.000145439 1.813 0
M  V30 11899 C 1108.15 3.43552 1.09563 0
M  V30 11900 O 1107.26 3.4815 2.21055 0
M  V30 11901 H 1106.6 0.651835 0.126521 0
M  V30 11902 H 1109.13 2.0317 -0.241445 0
M  V30 11903 H 1109.14 3.82316 1.42473 0
M  V30 11904 H 1107.81 4.14677 0.318749 0
M  V30 11905 H 1106.39 3.21228 1.89387 0
M  V30 11906 N 1108.58 -0.128553 1.57075 0
M  V30 11907 C 1109.99 -0.686713 1.73612 0
M  V30 11908 C 1110.34 -1.80778 0.762478 0
M  V30 11909 O 1109.46 -2.16297 -0.0667779 0
M  V30 11910 C 1110.06 -1.25246 3.148 0
M  V30 11911 C 1108.62 -1.757 3.32876 0
M  V30 11912 C 1107.76 -0.652844 2.69506 0
M  V30 11913 H 1110.71 0.0972859 1.58402 0
M  V30 11914 H 1110.74 -2.1222 3.15821 0
M  V30 11915 H 1110.25 -0.436308 3.8564 0
M  V30 11916 H 1108.35 -2.59824 2.67063 0
M  V30 11917 H 1108.46 -1.87302 4.4097 0
M  V30 11918 H 1106.83 -1.08408 2.30477 0
M  V30 11919 H 1107.61 0.15217 3.42963 0
M  V30 11920 N 1110.05 -1.5248 -0.398459 0
M  V30 11921 C 1110.98 -1.79549 -1.49279 0
M  V30 11922 C 1111.96 -0.647004 -1.57315 0
M  V30 11923 O 1113.15 -0.893661 -1.72416 0
M  V30 11924 C 1110.28 -1.95582 -2.86993 0
M  V30 11925 C 1109.23 -3.1123 -2.93803 0
M  V30 11926 C 1108.56 -3.12501 -4.33874 0
M  V30 11927 C 1109.86 -4.50485 -2.64312 0
M  V30 11928 H 1111.55 -2.71187 -1.26877 0
M  V30 11929 H 1109.1 -1.30492 -0.608924 0
M  V30 11930 H 1111.05 -2.13102 -3.63546 0
M  V30 11931 H 1109.78 -1.00625 -3.10712 0
M  V30 11932 H 1108.44 -2.93477 -2.19697 0
M  V30 11933 H 1108.08 -2.15245 -4.54619 0
M  V30 11934 H 1107.78 -3.90183 -4.39353 0
M  V30 11935 H 1109.31 -3.32164 -5.12347 0
M  V30 11936 H 1110.72 -4.68387 -3.30585 0
M  V30 11937 H 1109.12 -5.30163 -2.81153 0
M  V30 11938 H 1110.19 -4.57848 -1.59696 0
M  V30 11939 N 1111.53 0.65634 -1.43283 0
M  V30 11940 C 1112.76 1.44906 -1.48382 0
M  V30 11941 C 1113.18 1.87823 -0.101993 0
M  V30 11942 O 1112.54 1.57178 0.903597 0
M  V30 11943 C 1112.59 2.66231 -2.43215 0
M  V30 11944 O 1111.69 3.65176 -1.91625 0
M  V30 11945 H 1111.03 0.434601 -0.502014 0
M  V30 11946 H 1113.56 0.803429 -1.88165 0
M  V30 11947 H 1113.57 3.14083 -2.60414 0
M  V30 11948 H 1112.25 2.34336 -3.43598 0
M  V30 11949 H 1110.82 3.24302 -1.84072 0
M  V30 11950 N 1113.01 1.29761 0.894412 0
M  V30 11951 C 1113.97 1.15335 1.98067 0
M  V30 11952 C 1114.97 0.0872804 1.60563 0
M  V30 11953 O 1116.16 0.334645 1.70955 0
M  V30 11954 C 1113.29 0.764907 3.32208 0
M  V30 11955 H 1114.49 2.11829 2.12293 0
M  V30 11956 H 1112.04 1.13023 1.0796 0
M  V30 11957 H 1112.78 -0.199948 3.23683 0
M  V30 11958 H 1112.56 1.53523 3.60795 0
M  V30 11959 H 1114.05 0.687176 4.11907 0
M  V30 11960 N 1114.49 -1.10549 1.12324 0
M  V30 11961 C 1115.45 -2.15039 0.793156 0
M  V30 11962 C 1116.45 -1.59651 -0.19192 0
M  V30 11963 O 1117.64 -1.74167 0.0337262 0
M  V30 11964 C 1114.77 -3.40433 0.17842 0
M  V30 11965 H 1115.97 -2.4575 1.71892 0
M  V30 11966 H 1113.52 -1.25892 0.926333 0
M  V30 11967 H 1114.25 -3.15338 -0.757122 0
M  V30 11968 H 1114.04 -3.81921 0.887645 0
M  V30 11969 H 1115.53 -4.17584 -0.0360724 0
M  V30 11970 N 1115.97 -0.914965 -1.28321 0
M  V30 11971 C 1116.91 -0.394477 -2.29231 0
M  V30 11972 C 1117.91 0.514481 -1.61398 0
M  V30 11973 O 1119.11 0.395591 -1.75599 0
M  V30 11974 H 1115.49 -0.108969 -0.744063 0
M  V30 11975 H 1117.46 -1.25862 -2.70557 0
M  V30 11976 C 1116.21 0.349134 -3.45943 0
M  V30 11977 H 1115.53 -0.341087 -3.98342 0
M  V30 11978 H 1116.97 0.677944 -4.18545 0
M  V30 11979 C 1115.43 1.55747 -2.98738 0
M  V30 11980 O 1115.96 2.65654 -3.01315 0
M  V30 11981 N 1114.17 1.40488 -2.54384 0
M  V30 11982 H 1113.71 0.510716 -2.52487 0
M  V30 11983 H 1113.67 2.21464 -2.23161 0
M  V30 11984 N 1117.44 1.42219 -0.679077 0
M  V30 11985 C 1118.38 2.28152 0.0468359 0
M  V30 11986 C 1119.35 1.41307 0.804433 0
M  V30 11987 O 1120.54 1.70744 0.798673 0
M  V30 11988 C 1117.67 3.21236 1.07355 0
M  V30 11989 C 1116.71 4.24515 0.411042 0
M  V30 11990 S 1117.54 5.28958 -0.834506 0
M  V30 11991 C 1118.7 6.25608 0.191029 0
M  V30 11992 H 1118.93 2.89371 -0.682045 0
M  V30 11993 H 1116.47 1.47112 -0.468767 0
M  V30 11994 H 1118.42 3.75402 1.66082 0
M  V30 11995 H 1117.09 2.59145 1.7749 0
M  V30 11996 H 1116.28 4.89849 1.1859 0
M  V30 11997 H 1115.88 3.73859 -0.102742 0
M  V30 11998 H 1118.17 6.69323 1.04944 0
M  V30 11999 H 1119.12 7.06806 -0.427959 0
M  V30 12000 H 1119.52 5.61926 0.538422 0
M  V30 12001 N 1118.92 0.422693 1.51826 0
M  V30 12002 C 1120.15 -0.15017 2.06856 0
M  V30 12003 C 1120.57 -1.36946 1.28948 0
M  V30 12004 O 1119.93 -1.78393 0.32338 0
M  V30 12005 C 1119.98 -0.465563 3.57582 0
M  V30 12006 O 1119.08 -1.55442 3.81984 0
M  V30 12007 H 1118.42 -0.00827931 0.663948 0
M  V30 12008 H 1120.95 0.599806 1.95611 0
M  V30 12009 H 1120.96 -0.720279 4.01592 0
M  V30 12010 H 1119.64 0.425679 4.13716 0
M  V30 12011 H 1118.21 -1.29081 3.49846 0
M  V30 12012 N 1120.4 -1.5685 0.153553 0
M  V30 12013 C 1121.65 -1.95509 -0.495911 0
M  V30 12014 C 1121.96 -1.04129 -1.65579 0
M  V30 12015 O 1123.17 -1.32394 -2.37032 0
M  V30 12016 C 1121.62 -3.47579 -0.933622 0
M  V30 12017 C 1121.23 -4.47555 0.199684 0
M  V30 12018 C 1122.98 -3.95092 -1.55251 0
M  V30 12019 C 1120.88 -5.90843 -0.256663 0
M  V30 12020 H 1119.81 -0.729919 -0.189035 0
M  V30 12021 H 1122.46 -1.81938 0.238947 0
M  V30 12022 H 1120.85 -3.56506 -1.72394 0
M  V30 12023 H 1122.02 -4.50329 0.976744 0
M  V30 12024 H 1120.33 -4.09997 0.727394 0
M  V30 12025 H 1122.93 -4.99588 -1.90567 0
M  V30 12026 H 1123.27 -3.37015 -2.4439 0
M  V30 12027 H 1123.81 -3.89109 -0.826969 0
M  V30 12028 H 1120.55 -6.52753 0.599515 0
M  V30 12029 H 1120.07 -5.91414 -0.999458 0
M  V30 12030 H 1121.75 -6.43131 -0.70649 0
M  V30 12031 N 1121.88 0.120221 -1.57141 0
M  V30 12032 C 1122.84 1.13159 -1.99318 0
M  V30 12033 C 1123.84 1.34376 -0.883158 0
M  V30 12034 O 1125.03 1.30914 -1.14922 0
M  V30 12035 C 1122.16 2.48632 -2.33227 0
M  V30 12036 H 1123.36 0.769119 -2.8987 0
M  V30 12037 H 1120.91 0.364475 -1.51991 0
M  V30 12038 H 1121.64 2.89802 -1.45551 0
M  V30 12039 H 1121.43 2.34587 -3.14184 0
M  V30 12040 H 1122.92 3.21423 -2.66603 0
M  V30 12041 N 1123.36 1.52689 0.390367 0
M  V30 12042 C 1124.6 1.67914 1.13722 0
M  V30 12043 C 1124.94 0.417159 1.89667 0
M  V30 12044 O 1124.21 -0.585005 1.85494 0
M  V30 12045 C 1124.49 2.91331 2.11656 0
M  V30 12046 C 1124.35 4.27626 1.39484 0
M  V30 12047 C 1125.67 3.10293 3.12099 0
M  V30 12048 H 1122.78 0.611047 0.412057 0
M  V30 12049 H 1125.43 1.85283 0.420753 0
M  V30 12050 H 1123.58 2.76654 2.72754 0
M  V30 12051 H 1125.25 4.54068 0.813607 0
M  V30 12052 H 1123.49 4.28169 0.69669 0
M  V30 12053 H 1124.16 5.10066 2.11038 0
M  V30 12054 H 1126.64 3.23992 2.6109 0
M  V30 12055 H 1125.51 3.98127 3.7787 0
M  V30 12056 H 1125.78 2.24448 3.80888 0
M  V30 12057 N 1124.83 -0.648732 1.43629 0
M  V30 12058 C 1125.78 -1.76145 1.49136 0
M  V30 12059 C 1126.75 -1.62569 0.340649 0
M  V30 12060 O 1127.94 -1.82748 0.548435 0
M  V30 12061 C 1125.08 -3.14321 1.42466 0
M  V30 12062 C 1124.19 -3.38999 2.67776 0
M  V30 12063 C 1123.32 -4.67047 2.53062 0
M  V30 12064 C 1122.36 -4.84845 3.7362 0
M  V30 12065 N 1121.5 -6.04155 3.57689 0
M  V30 12066 H 1126.34 -1.70774 2.44213 0
M  V30 12067 H 1123.88 -0.833311 1.2122 0
M  V30 12068 H 1125.84 -3.94206 1.36592 0
M  V30 12069 H 1124.47 -3.18751 0.509666 0
M  V30 12070 H 1123.52 -2.53179 2.83909 0
M  V30 12071 H 1124.83 -3.48035 3.57314 0
M  V30 12072 H 1123.98 -5.55066 2.44922 0
M  V30 12073 H 1122.72 -4.60339 1.61056 0
M  V30 12074 H 1121.73 -3.95261 3.82163 0
M  V30 12075 H 1122.95 -4.9338 4.6664 0
M  V30 12076 H 1120.9 -5.9857 2.6842 0
M  V30 12077 H 1120.82 -6.14169 4.40832 0
M  V30 12078 H 1122.08 -6.94782 3.53409 0
M  V30 12079 N 1126.31 -1.30234 -0.887518 0
M  V30 12080 C 1127.22 -1.18316 -2.02579 0
M  V30 12081 C 1128.24 -0.103658 -1.73691 0
M  V30 12082 O 1129.41 -0.3181 -1.98872 0
M  V30 12083 C 1126.48 -0.873222 -3.35523 0
M  V30 12084 C 1125.54 -2.03783 -3.7785 0
M  V30 12085 C 1124.77 -1.74258 -5.0445 0
M  V30 12086 O 1125 -0.669295 -5.6646 0
M  V30 12087 O 1123.93 -2.59423 -5.43124 0
M  V30 12088 H 1127.76 -2.13933 -2.15561 0
M  V30 12089 H 1125.34 -1.09803 -1.0131 0
M  V30 12090 H 1127.22 -0.715463 -4.15282 0
M  V30 12091 H 1125.9 0.053056 -3.23657 0
M  V30 12092 H 1124.81 -2.2509 -2.98806 0
M  V30 12093 H 1126.14 -2.94574 -3.94318 0
M  V30 12094 N 1127.79 1.09952 -1.12909 0
M  V30 12095 C 1128.72 2.16257 -0.759305 0
M  V30 12096 C 1129.74 1.61355 0.216427 0
M  V30 12097 O 1130.92 1.785 -0.00297224 0
M  V30 12098 C 1128.02 3.38741 -0.103908 0
M  V30 12099 C 1127.2 4.23072 -1.11037 0
M  V30 12100 C 1126.26 5.23991 -0.481667 0
M  V30 12101 O 1125.28 5.57665 -1.14011 0
M  V30 12102 N 1126.48 5.75652 0.748698 0
M  V30 12103 H 1129.25 2.48588 -1.67405 0
M  V30 12104 H 1126.81 1.25617 -1.02137 0
M  V30 12105 H 1128.8 4.03362 0.328799 0
M  V30 12106 H 1127.37 3.04344 0.713677 0
M  V30 12107 H 1126.59 3.5467 -1.72054 0
M  V30 12108 H 1127.88 4.76244 -1.79078 0
M  V30 12109 H 1127.28 5.505 1.30253 0
M  V30 12110 H 1125.84 6.42033 1.12415 0
M  V30 12111 N 1129.27 0.921757 1.27833 0
M  V30 12112 C 1130.2 0.373575 2.26135 0
M  V30 12113 C 1131.21 -0.492414 1.55174 0
M  V30 12114 O 1132.4 -0.305998 1.75858 0
M  V30 12115 C 1129.5 -0.483911 3.35427 0
M  V30 12116 C 1128.68 0.361411 4.35904 0
M  V30 12117 C 1127.73 -0.432461 5.2442 0
M  V30 12118 O 1126.76 0.15777 5.68981 0
M  V30 12119 N 1127.96 -1.73367 5.54007 0
M  V30 12120 H 1130.73 1.21856 2.73809 0
M  V30 12121 H 1128.29 0.788552 1.41398 0
M  V30 12122 H 1130.28 -1.02193 3.91585 0
M  V30 12123 H 1128.85 -1.22963 2.874 0
M  V30 12124 H 1128.07 1.08076 3.79095 0
M  V30 12125 H 1129.36 0.939528 5.0005 0
M  V30 12126 H 1128.76 -2.23561 5.19651 0
M  V30 12127 H 1127.31 -2.21834 6.12889 0
M  V30 12128 N 1130.75 -1.41857 0.686609 0
M  V30 12129 C 1131.69 -2.30795 0.015643 0
M  V30 12130 C 1132.66 -1.46616 -0.780569 0
M  V30 12131 O 1133.85 -1.75423 -0.750424 0
M  V30 12132 C 1130.99 -3.32577 -0.921229 0
M  V30 12133 C 1130.1 -4.3184 -0.117585 0
M  V30 12134 C 1129.24 -5.20693 -1.05128 0
M  V30 12135 C 1128.28 -6.11629 -0.240018 0
M  V30 12136 N 1127.41 -6.92995 -1.12704 0
M  V30 12137 H 1132.25 -2.87615 0.77985 0
M  V30 12138 H 1129.79 -1.41661 0.396298 0
M  V30 12139 H 1131.75 -3.90129 -1.47836 0
M  V30 12140 H 1130.38 -2.77328 -1.65193 0
M  V30 12141 H 1129.43 -3.7631 0.55634 0
M  V30 12142 H 1130.74 -4.96168 0.511753 0
M  V30 12143 H 1129.9 -5.83035 -1.67795 0
M  V30 12144 H 1128.63 -4.5657 -1.71449 0
M  V30 12145 H 1127.64 -5.48345 0.399779 0
M  V30 12146 H 1128.86 -6.77805 0.419266 0
M  V30 12147 H 1126.81 -6.31489 -1.77644 0
M  V30 12148 H 1126.73 -7.53974 -0.553065 0
M  V30 12149 H 1128 -7.59813 -1.7408 0
M  V30 12150 N 1132.22 -0.430739 -1.51599 0
M  V30 12151 C 1133.17 0.398482 -2.29161 0
M  V30 12152 C 1134.17 1.02676 -1.34737 0
M  V30 12153 O 1135.37 0.96248 -1.52106 0
M  V30 12154 H 1131.75 0.14731 -0.737431 0
M  V30 12155 H 1133.72 -0.276619 -2.97115 0
M  V30 12156 C 1132.47 1.49094 -3.14112 0
M  V30 12157 H 1131.79 1.01685 -3.86652 0
M  V30 12158 H 1133.23 2.04453 -3.7145 0
M  V30 12159 C 1131.69 2.47049 -2.29059 0
M  V30 12160 O 1132.22 3.51435 -1.94567 0
M  V30 12161 N 1130.43 2.17778 -1.92409 0
M  V30 12162 H 1129.97 1.3292 -2.20658 0
M  V30 12163 H 1129.93 2.8356 -1.35798 0
M  V30 12164 N 1133.7 1.56767 -0.161869 0
M  V30 12165 C 1134.63 2.1466 0.803356 0
M  V30 12166 C 1135.65 1.09977 1.20037 0
M  V30 12167 O 1136.84 1.37199 1.14187 0
M  V30 12168 C 1133.94 2.66663 2.09151 0
M  V30 12169 C 1133.11 3.95904 1.85953 0
M  V30 12170 C 1132.17 4.33067 2.98897 0
M  V30 12171 O 1131.19 5.01119 2.69942 0
M  V30 12172 N 1132.4 3.93856 4.26448 0
M  V30 12173 H 1135.16 2.98108 0.308472 0
M  V30 12174 H 1132.72 1.61886 0.0212238 0
M  V30 12175 H 1134.71 2.88528 2.83784 0
M  V30 12176 H 1133.28 1.87856 2.49857 0
M  V30 12177 H 1132.5 3.82513 0.952751 0
M  V30 12178 H 1133.79 4.8033 1.67811 0
M  V30 12179 H 1133.19 3.39051 4.52836 0
M  V30 12180 H 1131.75 4.20741 4.97815 0
M  V30 12181 N 1135.18 -0.111886 1.57202 0
M  V30 12182 C 1136.13 -1.13688 2.00858 0
M  V30 12183 C 1137.1 -1.40752 0.881939 0
M  V30 12184 O 1138.28 -1.52498 1.14669 0
M  V30 12185 C 1135.42 -2.45641 2.42393 0
M  V30 12186 C 1134.54 -2.25452 3.68504 0
M  V30 12187 C 1133.67 -3.50686 3.9899 0
M  V30 12188 C 1132.71 -3.25685 5.18262 0
M  V30 12189 N 1131.85 -4.4314 5.44583 0
M  V30 12190 H 1136.69 -0.757611 2.88209 0
M  V30 12191 H 1134.22 -0.362582 1.42561 0
M  V30 12192 H 1136.18 -3.22627 2.64514 0
M  V30 12193 H 1134.81 -2.81447 1.58074 0
M  V30 12194 H 1133.86 -1.39349 3.53958 0
M  V30 12195 H 1135.18 -2.0296 4.55641 0
M  V30 12196 H 1134.33 -4.36087 4.21797 0
M  V30 12197 H 1133.07 -3.76216 3.10343 0
M  V30 12198 H 1132.07 -2.38675 4.95292 0
M  V30 12199 H 1133.3 -3.01518 6.08493 0
M  V30 12200 H 1131.24 -4.68778 4.58893 0
M  V30 12201 H 1131.16 -4.23778 6.26058 0
M  V30 12202 H 1132.43 -5.29654 5.71915 0
M  V30 12203 N 1136.66 -1.52894 -0.382264 0
M  V30 12204 C 1138.07 -1.60135 -0.959887 0
M  V30 12205 C 1138.42 -0.458363 -1.90771 0
M  V30 12206 O 1137.55 0.417614 -2.12332 0
M  V30 12207 C 1138.14 -2.90243 -1.74769 0
M  V30 12208 C 1136.7 -2.99874 -2.27491 0
M  V30 12209 C 1135.85 -2.55302 -1.0824 0
M  V30 12210 H 1138.8 -1.57875 -0.161589 0
M  V30 12211 H 1138.82 -2.77108 -2.60751 0
M  V30 12212 H 1138.33 -3.73412 -1.0576 0
M  V30 12213 H 1136.43 -2.21258 -2.99793 0
M  V30 12214 H 1136.54 -4.04643 -2.56516 0
M  V30 12215 H 1134.91 -2.09781 -1.44444 0
M  V30 12216 H 1135.69 -3.40872 -0.407553 0
M  V30 12217 N 1138.14 0.641106 -1.43971 0
M  V30 12218 C 1139.1 1.73539 -1.49723 0
M  V30 12219 C 1140.1 1.56235 -0.380438 0
M  V30 12220 O 1141.29 1.61912 -0.642673 0
M  V30 12221 C 1138.42 3.1253 -1.36153 0
M  V30 12222 H 1139.62 1.69816 -2.47189 0
M  V30 12223 H 1137.17 0.853867 -1.30915 0
M  V30 12224 H 1137.9 3.21856 -0.39742 0
M  V30 12225 H 1137.69 3.26496 -2.17124 0
M  V30 12226 H 1139.18 3.92303 -1.43138 0
M  V30 12227 N 1139.62 1.30703 0.880598 0
M  V30 12228 C 1140.56 1.17455 1.98678 0
M  V30 12229 C 1141.53 0.0629569 1.65981 0
M  V30 12230 O 1142.72 0.233926 1.89361 0
M  V30 12231 C 1139.86 0.876882 3.33774 0
M  V30 12232 C 1138.97 2.07078 3.79134 0
M  V30 12233 C 1138.11 1.71082 5.02896 0
M  V30 12234 C 1137.14 2.86942 5.40676 0
M  V30 12235 N 1136.28 2.51212 6.55619 0
M  V30 12236 H 1141.12 2.12086 2.09341 0
M  V30 12237 H 1138.66 1.05514 1.02495 0
M  V30 12238 H 1140.62 0.684899 4.1154 0
M  V30 12239 H 1139.25 -0.0325633 3.22784 0
M  V30 12240 H 1138.3 2.37388 2.97239 0
M  V30 12241 H 1139.61 2.9383 4.0307 0
M  V30 12242 H 1138.76 1.48284 5.883 0
M  V30 12243 H 1137.5 0.815064 4.80841 0
M  V30 12244 H 1136.51 3.10401 4.53797 0
M  V30 12245 H 1137.73 3.77211 5.64703 0
M  V30 12246 H 1135.68 1.64147 6.35131 0
M  V30 12247 H 1135.6 3.31495 6.79446 0
M  V30 12248 H 1136.86 2.31781 7.44243 0
M  V30 12249 N 1141.09 -1.09351 1.1349 0
M  V30 12250 C 1142.32 -1.85844 0.92069 0
M  V30 12251 C 1142.74 -1.80616 -0.525303 0
M  V30 12252 O 1142.1 -1.1842 -1.37282 0
M  V30 12253 C 1142.15 -3.31716 1.4141 0
M  V30 12254 O 1141.25 -4.08014 0.599838 0
M  V30 12255 H 1140.59 -0.576242 0.32991 0
M  V30 12256 H 1143.12 -1.38084 1.50976 0
M  V30 12257 H 1143.13 -3.82564 1.41805 0
M  V30 12258 H 1141.81 -3.34837 2.46692 0
M  V30 12259 H 1140.39 -3.66944 0.663816 0
M  V30 12260 N 1142.57 -0.928524 -1.27343 0
M  V30 12261 C 1143.82 -0.570235 -1.94618 0
M  V30 12262 C 1144.15 0.886381 -1.72792 0
M  V30 12263 O 1143.43 1.63242 -1.05747 0
M  V30 12264 C 1143.71 -0.897964 -3.48724 0
M  V30 12265 C 1143.56 -2.40839 -3.7989 0
M  V30 12266 C 1144.88 -0.404429 -4.38238 0
M  V30 12267 H 1142 -0.208645 -0.70685 0
M  V30 12268 H 1144.64 -1.16045 -1.50444 0
M  V30 12269 H 1142.79 -0.395679 -3.8648 0
M  V30 12270 H 1144.46 -2.98243 -3.51921 0
M  V30 12271 H 1142.71 -2.85723 -3.26412 0
M  V30 12272 H 1143.38 -2.58823 -4.8756 0
M  V30 12273 H 1145.85 -0.834918 -4.07637 0
M  V30 12274 H 1144.73 -0.662684 -5.44885 0
M  V30 12275 H 1144.99 0.695507 -4.36595 0
M  V30 12276 N 1144.05 1.41491 -0.694123 0
M  V30 12277 C 1145.3 2.02055 -0.233559 0
M  V30 12278 C 1145.65 1.53987 1.1535 0
M  V30 12279 O 1144.94 0.740611 1.76707 0
M  V30 12280 C 1145.14 3.56666 -0.228869 0
M  V30 12281 C 1144.97 4.1974 -1.61394 0
M  V30 12282 C 1143.74 4.54095 -2.21643 0
M  V30 12283 C 1145.93 4.46043 -2.56028 0
M  V30 12284 N 1143.92 5.02449 -3.5273 0
M  V30 12285 C 1145.29 4.96156 -3.71792 0
M  V30 12286 C 1147.34 4.28053 -2.54313 0
M  V30 12287 C 1146.05 5.3017 -4.8612 0
M  V30 12288 C 1148.07 4.63155 -3.67752 0
M  V30 12289 C 1147.43 5.13438 -4.82246 0
M  V30 12290 H 1143.53 0.77098 -0.130821 0
M  V30 12291 H 1146.12 1.72057 -0.91129 0
M  V30 12292 H 1144.29 3.8614 0.418344 0
M  V30 12293 H 1146.02 4.03949 0.246387 0
M  V30 12294 H 1142.77 4.40501 -1.73943 0
M  V30 12295 H 1143.2 5.31033 -4.1992 0
M  V30 12296 H 1147.84 3.88416 -1.67011 0
M  V30 12297 H 1145.56 5.68731 -5.74083 0
M  V30 12298 H 1149.14 4.50895 -3.67675 0
M  V30 12299 H 1148.02 5.4009 -5.6857 0
M  V30 12300 N 1145.53 0.438773 1.51369 0
M  V30 12301 C 1146.44 -0.378074 2.31534 0
M  V30 12302 C 1147.45 -1.02632 1.40508 0
M  V30 12303 O 1148.63 -1.02138 1.73579 0
M  V30 12304 C 1145.69 -1.46374 3.14286 0
M  V30 12305 C 1144.76 -0.835473 4.21092 0
M  V30 12306 C 1143.99 -1.86941 4.99889 0
M  V30 12307 O 1144.21 -3.0918 4.79337 0
M  V30 12308 O 1143.15 -1.45914 5.83946 0
M  V30 12309 H 1146.97 0.276401 3.0244 0
M  V30 12310 H 1144.56 0.201281 1.48038 0
M  V30 12311 H 1146.44 -2.09335 3.65728 0
M  V30 12312 H 1145.11 -2.10227 2.46143 0
M  V30 12313 H 1144.02 -0.167775 3.73724 0
M  V30 12314 H 1145.35 -0.240406 4.91613 0
M  V30 12315 N 1147.01 -1.56678 0.170181 0
M  V30 12316 C 1147.94 -2.15083 -0.791961 0
M  V30 12317 C 1148.95 -1.10612 -1.19452 0
M  V30 12318 O 1150.14 -1.37803 -1.13457 0
M  V30 12319 C 1147.24 -2.67769 -2.07733 0
M  V30 12320 C 1146.41 -3.96885 -1.83851 0
M  V30 12321 C 1145.47 -4.34646 -2.96596 0
M  V30 12322 O 1144.5 -5.02543 -2.67281 0
M  V30 12323 N 1145.7 -3.96112 -4.24353 0
M  V30 12324 H 1148.46 -2.98268 -0.292658 0
M  V30 12325 H 1146.03 -1.61895 -0.0126383 0
M  V30 12326 H 1148.02 -2.90029 -2.8225 0
M  V30 12327 H 1146.59 -1.89179 -2.48858 0
M  V30 12328 H 1145.81 -3.83013 -0.932452 0
M  V30 12329 H 1147.1 -4.81213 -1.65261 0
M  V30 12330 H 1146.49 -3.41448 -4.51032 0
M  V30 12331 H 1145.05 -4.23375 -4.95577 0
M  V30 12332 N 1148.48 0.103547 -1.57259 0
M  V30 12333 C 1149.9 0.457527 -1.52901 0
M  V30 12334 C 1150.1 1.80995 -0.8856 0
M  V30 12335 O 1149.16 2.48001 -0.474504 0
M  V30 12336 C 1150.47 0.427793 -2.97641 0
M  V30 12337 C 1152.02 0.51025 -3.08813 0
M  V30 12338 C 1152.49 0.51075 -4.55143 0
M  V30 12339 N 1153.98 0.571748 -4.59658 0
M  V30 12340 C 1154.72 0.593836 -5.70317 0
M  V30 12341 N 1154.21 0.572638 -6.90429 0
M  V30 12342 N 1156.01 0.638011 -5.58467 0
M  V30 12343 H 1148.16 -0.782408 -1.97464 0
M  V30 12344 H 1150.42 -0.290324 -0.90245 0
M  V30 12345 H 1150.13 -0.498608 -3.48148 0
M  V30 12346 H 1150 1.24991 -3.55889 0
M  V30 12347 H 1152.39 1.42707 -2.583 0
M  V30 12348 H 1152.47 -0.339846 -2.53532 0
M  V30 12349 H 1152.11 -0.40209 -5.06306 0
M  V30 12350 H 1152.04 1.37794 -5.08252 0
M  V30 12351 H 1154.53 0.593668 -3.73208 0
M  V30 12352 H 1154.85 0.592542 -7.70525 0
M  V30 12353 H 1153.19 0.539818 -6.929 0
M  V30 12354 H 1156.38 0.652042 -4.63536 0
M  V30 12355 H 1156.56 0.651756 -6.44714 0
M  V30 12356 N 1149.96 1.53094 0.37415 0
M  V30 12357 C 1151.19 1.72758 1.13852 0
M  V30 12358 C 1151.6 0.452638 1.83294 0
M  V30 12359 O 1150.96 -0.573906 1.73241 0
M  V30 12360 C 1151.01 2.88724 2.17534 0
M  V30 12361 O 1150.73 4.11284 1.5092 0
M  V30 12362 C 1152.23 3.2019 3.06584 0
M  V30 12363 H 1149.45 0.578028 0.340771 0
M  V30 12364 H 1152 1.99805 0.435683 0
M  V30 12365 H 1150.15 2.64096 2.83429 0
M  V30 12366 H 1150.57 4.76162 2.19932 0
M  V30 12367 H 1152.04 4.04759 3.75332 0
M  V30 12368 H 1152.52 2.35193 3.70919 0
M  V30 12369 H 1153.12 3.46712 2.46315 0
M  V30 12370 N 1151.44 -0.633461 1.44309 0
M  V30 12371 C 1152.66 -1.42527 1.50668 0
M  V30 12372 C 1153.09 -1.87637 0.131861 0
M  V30 12373 O 1152.45 -1.58595 -0.878477 0
M  V30 12374 C 1152.5 -2.62328 2.47419 0
M  V30 12375 O 1151.6 -3.62081 1.97411 0
M  V30 12376 H 1150.94 -0.426559 0.508864 0
M  V30 12377 H 1153.47 -0.773392 1.8942 0
M  V30 12378 H 1153.48 -3.09901 2.65378 0
M  V30 12379 H 1152.16 -2.2884 3.47283 0
M  V30 12380 H 1150.73 -3.21333 1.89208 0
M  V30 12381 N 1152.92 -1.31168 -0.873655 0
M  V30 12382 C 1153.83 -1.20458 -2.01313 0
M  V30 12383 C 1154.84 -0.122074 -1.73571 0
M  V30 12384 O 1156.02 -0.339176 -1.98523 0
M  V30 12385 C 1153.09 -0.90876 -3.34578 0
M  V30 12386 C 1152.15 -2.07779 -3.75668 0
M  V30 12387 C 1151.38 -1.79599 -5.02573 0
M  V30 12388 O 1151.6 -0.729338 -5.65718 0
M  V30 12389 O 1150.54 -2.65169 -5.40341 0
M  V30 12390 H 1154.36 -2.16207 -2.13279 0
M  V30 12391 H 1151.95 -1.10871 -1.00139 0
M  V30 12392 H 1153.83 -0.759469 -4.145 0
M  V30 12393 H 1152.5 0.0187249 -3.23695 0
M  V30 12394 H 1151.41 -2.28247 -2.96402 0
M  V30 12395 H 1152.74 -2.9874 -3.91172 0
M  V30 12396 N 1154.4 1.08748 -1.14068 0
M  V30 12397 C 1155.33 2.14886 -0.768052 0
M  V30 12398 C 1156.31 1.60682 0.248979 0
M  V30 12399 O 1157.49 1.87988 0.138852 0
M  V30 12400 C 1154.62 3.38412 -0.139747 0
M  V30 12401 C 1153.66 4.11357 -1.12639 0
M  V30 12402 S 1154.5 4.64645 -2.66206 0
M  V30 12403 C 1155.65 5.91461 -2.04755 0
M  V30 12404 H 1155.89 2.46163 -1.66706 0
M  V30 12405 H 1153.42 1.20804 -0.961549 0
M  V30 12406 H 1155.38 4.09929 0.21635 0
M  V30 12407 H 1154.04 3.0534 0.736638 0
M  V30 12408 H 1153.23 4.99987 -0.634719 0
M  V30 12409 H 1152.83 3.45735 -1.4263 0
M  V30 12410 H 1155.13 6.62859 -1.40086 0
M  V30 12411 H 1156.07 6.45319 -2.91494 0
M  V30 12412 H 1156.48 5.44308 -1.49629 0
M  V30 12413 N 1155.87 0.935264 1.26849 0
M  V30 12414 C 1157.29 0.636661 1.46352 0
M  V30 12415 C 1157.49 -0.811823 1.84423 0
M  V30 12416 O 1156.55 -1.58902 1.9623 0
M  V30 12417 C 1157.86 1.59301 2.55036 0
M  V30 12418 C 1159.41 1.60207 2.68892 0
M  V30 12419 C 1159.88 2.54558 3.80742 0
M  V30 12420 N 1161.37 2.52809 3.88126 0
M  V30 12421 C 1162.11 3.225 4.74111 0
M  V30 12422 N 1161.6 4.01598 5.64527 0
M  V30 12423 N 1163.4 3.11481 4.67906 0
M  V30 12424 H 1155.55 1.8716 1.00423 0
M  V30 12425 H 1157.81 0.803968 0.502334 0
M  V30 12426 H 1157.52 2.62671 2.33874 0
M  V30 12427 H 1157.39 1.34052 3.52576 0
M  V30 12428 H 1159.78 0.575649 2.89431 0
M  V30 12429 H 1159.86 1.89508 1.71815 0
M  V30 12430 H 1159.5 3.57314 3.60956 0
M  V30 12431 H 1159.43 2.22549 4.77263 0
M  V30 12432 H 1161.92 1.9537 3.2348 0
M  V30 12433 H 1162.24 4.51742 6.27016 0
M  V30 12434 H 1160.58 4.057 5.64298 0
M  V30 12435 H 1163.77 2.49175 3.9627 0
M  V30 12436 H 1163.95 3.66064 5.34697 0
M  V30 12437 N 1157.35 -1.41121 0.701616 0
M  V30 12438 C 1158.3 -2.30765 0.040121 0
M  V30 12439 C 1159.27 -1.47436 -0.764975 0
M  V30 12440 O 1160.45 -1.76209 -0.731775 0
M  V30 12441 C 1157.59 -3.33535 -0.885903 0
M  V30 12442 C 1156.71 -4.3194 -0.0717765 0
M  V30 12443 C 1155.84 -5.21779 -0.995996 0
M  V30 12444 C 1154.88 -6.11849 -0.175133 0
M  V30 12445 N 1154.02 -6.94151 -1.05348 0
M  V30 12446 H 1158.86 -2.86772 0.810312 0
M  V30 12447 H 1156.4 -1.41233 0.411301 0
M  V30 12448 H 1158.35 -3.91675 -1.4369 0
M  V30 12449 H 1156.98 -2.79065 -1.62243 0
M  V30 12450 H 1156.04 -3.75698 0.596221 0
M  V30 12451 H 1157.35 -4.95597 0.56435 0
M  V30 12452 H 1156.5 -5.84782 -1.61601 0
M  V30 12453 H 1155.24 -4.58363 -1.66597 0
M  V30 12454 H 1154.25 -5.4789 0.457916 0
M  V30 12455 H 1155.47 -6.77322 0.491133 0
M  V30 12456 H 1153.42 -6.33338 -1.70936 0
M  V30 12457 H 1153.33 -7.54518 -0.473065 0
M  V30 12458 H 1154.6 -7.61617 -1.66012 0
M  V30 12459 N 1158.83 -0.446794 -1.51134 0
M  V30 12460 C 1159.76 0.395804 -2.25757 0
M  V30 12461 C 1160.78 0.978178 -1.30137 0
M  V30 12462 O 1161.96 0.87071 -1.55823 0
M  V30 12463 C 1159.06 1.56665 -3.00515 0
M  V30 12464 C 1158.24 1.10146 -4.23305 0
M  V30 12465 C 1157.3 2.14352 -4.80562 0
M  V30 12466 O 1156.32 1.73401 -5.42145 0
M  V30 12467 N 1157.52 3.46932 -4.65423 0
M  V30 12468 H 1160.29 -0.243808 -2.98707 0
M  V30 12469 H 1157.85 -0.276205 -1.59527 0
M  V30 12470 H 1159.84 2.26019 -3.35704 0
M  V30 12471 H 1158.41 2.11142 -2.30516 0
M  V30 12472 H 1157.63 0.234644 -3.93501 0
M  V30 12473 H 1158.92 0.768185 -5.02968 0
M  V30 12474 H 1158.32 3.82929 -4.16391 0
M  V30 12475 H 1156.88 4.12154 -5.04948 0
M  V30 12476 N 1160.31 1.56586 -0.178487 0
M  V30 12477 C 1161.26 2.19631 0.765822 0
M  V30 12478 C 1162.25 1.16247 1.23219 0
M  V30 12479 O 1163.46 1.34431 1.19701 0
M  V30 12480 H 1159.83 0.703661 0.265264 0
M  V30 12481 H 1161.8 2.97659 0.210207 0
M  V30 12482 C 1160.55 2.85686 1.98188 0
M  V30 12483 H 1159.87 3.64971 1.63206 0
M  V30 12484 H 1161.31 3.33259 2.62134 0
M  V30 12485 C 1159.77 1.85837 2.81009 0
M  V30 12486 O 1160.3 1.3483 3.78396 0
M  V30 12487 N 1158.51 1.54435 2.46167 0
M  V30 12488 H 1158.06 1.96107 1.67032 0
M  V30 12489 H 1158.01 0.878808 3.01868 0
M  V30 12490 N 1161.79 -0.095206 1.57312 0
M  V30 12491 C 1162.72 -1.11627 2.05089 0
M  V30 12492 C 1163.7 -1.41782 0.939787 0
M  V30 12493 O 1164.88 -1.51813 1.21105 0
M  V30 12494 C 1162.01 -2.43618 2.47523 0
M  V30 12495 C 1160.97 -2.27872 3.62296 0
M  V30 12496 C 1160.29 -3.65038 3.90706 0
M  V30 12497 C 1161.59 -1.71936 4.93189 0
M  V30 12498 H 1163.29 -0.718795 2.90644 0
M  V30 12499 H 1160.83 -0.344315 1.39823 0
M  V30 12500 H 1162.79 -3.1532 2.79556 0
M  V30 12501 H 1161.51 -2.85301 1.58968 0
M  V30 12502 H 1160.17 -1.58615 3.3051 0
M  V30 12503 H 1159.82 -4.04249 2.99319 0
M  V30 12504 H 1159.52 -3.55349 4.67976 0
M  V30 12505 H 1161.04 -4.38208 4.25213 0
M  V30 12506 H 1162.45 -2.33479 5.23603 0
M  V30 12507 H 1160.85 -1.73006 5.74621 0
M  V30 12508 H 1161.92 -0.678789 4.80125 0
M  V30 12509 N 1163.26 -1.53291 -0.366026 0
M  V30 12510 C 1164.19 -1.82675 -1.45437 0
M  V30 12511 C 1165.18 -0.680227 -1.55907 0
M  V30 12512 O 1166.36 -0.930032 -1.70482 0
M  V30 12513 C 1163.49 -2.01626 -2.8278 0
M  V30 12514 C 1162.44 -3.17391 -2.87135 0
M  V30 12515 C 1161.77 -3.21634 -4.27148 0
M  V30 12516 C 1163.07 -4.5599 -2.54697 0
M  V30 12517 H 1164.76 -2.73818 -1.21096 0
M  V30 12518 H 1162.31 -1.31754 -0.581108 0
M  V30 12519 H 1164.26 -2.20765 -3.58944 0
M  V30 12520 H 1162.99 -1.07193 -3.08508 0
M  V30 12521 H 1161.65 -2.98071 -2.13422 0
M  V30 12522 H 1161.29 -2.2484 -4.49951 0
M  V30 12523 H 1160.99 -3.99414 -4.30978 0
M  V30 12524 H 1162.52 -3.42957 -5.05186 0
M  V30 12525 H 1163.93 -4.75294 -3.20575 0
M  V30 12526 H 1162.33 -5.36008 -2.69844 0
M  V30 12527 H 1163.4 -4.61133 -1.49949 0
M  V30 12528 N 1164.74 0.6258 -1.44643 0
M  V30 12529 C 1165.71 1.71941 -1.51555 0
M  V30 12530 C 1166.71 1.55822 -0.396988 0
M  V30 12531 O 1167.9 1.61221 -0.65981 0
M  V30 12532 C 1165.03 3.11068 -1.39461 0
M  V30 12533 H 1166.22 1.67185 -2.48976 0
M  V30 12534 H 1163.77 0.839934 -1.31814 0
M  V30 12535 H 1164.51 3.21416 -0.431534 0
M  V30 12536 H 1164.29 3.24175 -2.20574 0
M  V30 12537 H 1165.78 3.90762 -1.4729 0
M  V30 12538 N 1166.22 1.31629 0.866686 0
M  V30 12539 C 1167.45 1.24609 1.65793 0
M  V30 12540 C 1167.87 -0.184944 1.87189 0
M  V30 12541 O 1167.23 -1.1322 1.41601 0
M  V30 12542 C 1167.28 1.9988 3.00134 0
M  V30 12543 O 1166.38 1.33838 3.90079 0
M  V30 12544 H 1165.72 0.430051 0.505917 0
M  V30 12545 H 1168.25 1.73752 1.08035 0
M  V30 12546 H 1168.26 2.09599 3.50046 0
M  V30 12547 H 1166.94 3.03947 2.83882 0
M  V30 12548 H 1165.51 1.3259 3.48532 0
M  V30 12549 N 1167.7 -1.08142 1.14644 0
M  V30 12550 C 1169.12 -1.32656 0.887388 0
M  V30 12551 C 1169.32 -1.95942 -0.470012 0
M  V30 12552 O 1168.37 -2.21417 -1.21371 0
M  V30 12553 C 1169.68 -2.22549 2.02219 0
M  V30 12554 C 1171.23 -2.36021 2.0558 0
M  V30 12555 C 1171.71 -3.29257 3.18361 0
M  V30 12556 N 1173.2 -3.36835 3.17957 0
M  V30 12557 C 1173.93 -4.09017 4.01862 0
M  V30 12558 N 1173.43 -4.83882 4.95812 0
M  V30 12559 N 1175.22 -4.04875 3.89913 0
M  V30 12560 H 1167.37 -0.654457 2.02066 0
M  V30 12561 H 1169.64 -0.350947 0.880648 0
M  V30 12562 H 1169.34 -1.83296 3.00159 0
M  V30 12563 H 1169.22 -3.23027 1.94765 0
M  V30 12564 H 1171.6 -2.74531 1.08245 0
M  V30 12565 H 1171.68 -1.35275 2.17105 0
M  V30 12566 H 1171.33 -2.91468 4.15944 0
M  V30 12567 H 1171.26 -4.29938 3.04074 0
M  V30 12568 H 1173.75 -2.83465 2.49912 0
M  V30 12569 H 1174.06 -5.3643 5.56294 0
M  V30 12570 H 1172.41 -4.82926 4.99808 0
M  V30 12571 H 1175.6 -3.45496 3.15833 0
M  V30 12572 H 1175.77 -4.60866 4.55529 0
M  V30 12573 N 1169.18 -0.941978 -1.26351 0
M  V30 12574 C 1170.09 -0.45833 -2.30079 0
M  V30 12575 C 1171.1 0.468084 -1.67586 0
M  V30 12576 O 1172.28 0.347418 -1.98381 0
M  V30 12577 C 1169.34 0.26797 -3.45663 0
M  V30 12578 C 1168.41 -0.695102 -4.23635 0
M  V30 12579 C 1167.64 -0.003369 -5.337 0
M  V30 12580 O 1167.86 1.21342 -5.57344 0
M  V30 12581 O 1166.8 -0.682476 -5.98018 0
M  V30 12582 H 1170.62 -1.31998 -2.73514 0
M  V30 12583 H 1168.21 -0.707897 -1.31564 0
M  V30 12584 H 1170.09 0.677061 -4.15925 0
M  V30 12585 H 1168.76 1.105 -3.04256 0
M  V30 12586 H 1167.67 -1.15415 -3.55851 0
M  V30 12587 H 1169 -1.49977 -4.68794 0
M  V30 12588 N 1170.66 1.40747 -0.709091 0
M  V30 12589 C 1171.62 2.29118 -0.0611607 0
M  V30 12590 C 1172.62 1.45049 0.694081 0
M  V30 12591 O 1173.81 1.66039 0.526952 0
M  V30 12592 C 1170.94 3.28154 0.923447 0
M  V30 12593 H 1172.13 2.87913 -0.839413 0
M  V30 12594 H 1169.69 1.4896 -0.473363 0
M  V30 12595 H 1170.42 2.74366 1.72899 0
M  V30 12596 H 1170.21 3.90207 0.384862 0
M  V30 12597 H 1171.7 3.94343 1.37417 0
M  V30 12598 N 1172.13 0.454803 1.50895 0
M  V30 12599 C 1173.06 -0.337982 2.31041 0
M  V30 12600 C 1174.04 -1.00523 1.37219 0
M  V30 12601 O 1175.23 -1.00553 1.66141 0
M  V30 12602 C 1172.36 -1.42964 3.1651 0
M  V30 12603 C 1171.31 -0.884907 4.18752 0
M  V30 12604 C 1170.64 -2.07363 4.92854 0
M  V30 12605 C 1171.94 0.0926716 5.22218 0
M  V30 12606 H 1173.63 0.33089 2.97566 0
M  V30 12607 H 1171.18 0.160577 1.43102 0
M  V30 12608 H 1173.13 -1.9916 3.71367 0
M  V30 12609 H 1171.86 -2.12705 2.47839 0
M  V30 12610 H 1170.52 -0.345031 3.64973 0
M  V30 12611 H 1170.16 -2.75764 4.2067 0
M  V30 12612 H 1169.86 -1.71545 5.62002 0
M  V30 12613 H 1171.39 -2.6408 5.5054 0
M  V30 12614 H 1172.8 -0.379568 5.72042 0
M  V30 12615 H 1171.2 0.3643 5.98993 0
M  V30 12616 H 1172.27 1.02383 4.73968 0
M  V30 12617 N 1173.61 -1.56489 0.186789 0
M  V30 12618 C 1174.84 -2.01429 -0.459326 0
M  V30 12619 C 1175.25 -1.06611 -1.56303 0
M  V30 12620 O 1174.59 -0.0617053 -1.83596 0
M  V30 12621 C 1174.65 -3.42778 -1.08367 0
M  V30 12622 C 1174.32 -4.56843 -0.119719 0
M  V30 12623 C 1175.32 -5.15594 0.667782 0
M  V30 12624 C 1173 -5.02299 -0.0110494 0
M  V30 12625 C 1174.99 -6.18242 1.551 0
M  V30 12626 C 1172.68 -6.04793 0.875738 0
M  V30 12627 C 1173.68 -6.62637 1.65534 0
M  V30 12628 O 1173.37 -7.63141 2.52728 0
M  V30 12629 H 1173.1 -0.665175 -0.120492 0
M  V30 12630 H 1175.65 -2.03338 0.290283 0
M  V30 12631 H 1173.88 -3.3783 -1.8817 0
M  V30 12632 H 1175.57 -3.71577 -1.63357 0
M  V30 12633 H 1176.34 -4.81348 0.594085 0
M  V30 12634 H 1172.22 -4.56977 -0.607667 0
M  V30 12635 H 1175.76 -6.63319 2.15995 0
M  V30 12636 H 1171.66 -6.38462 0.950581 0
M  V30 12637 H 1172.43 -7.80527 2.46415 0
M  V30 12638 N 1175.09 0.086862 -1.5736 0
M  V30 12639 C 1176.04 1.12359 -2.03662 0
M  V30 12640 C 1177.03 1.40982 -0.939169 0
M  V30 12641 O 1178.24 1.40566 -1.12433 0
M  V30 12642 H 1174.61 0.379605 -0.649156 0
M  V30 12643 H 1176.58 0.706822 -2.89908 0
M  V30 12644 C 1175.33 2.43327 -2.48369 0
M  V30 12645 H 1174.66 2.22148 -3.324 0
M  V30 12646 H 1176.1 3.14351 -2.84534 0
M  V30 12647 C 1174.55 3.08214 -1.36036 0
M  V30 12648 O 1175.08 3.95659 -0.694063 0
M  V30 12649 N 1173.29 2.68596 -1.10927 0
M  V30 12650 H 1172.84 1.97578 -1.6529 0
M  V30 12651 H 1172.8 3.12336 -0.359679 0
M  V30 12652 N 1176.57 1.53483 0.357892 0
M  V30 12653 C 1177.48 1.83434 1.4625 0
M  V30 12654 C 1178.49 0.723313 1.58254 0
M  V30 12655 O 1179.67 1.01416 1.74002 0
M  V30 12656 C 1176.73 2.0249 2.81423 0
M  V30 12657 C 1175.8 3.26378 2.78883 0
M  V30 12658 C 1175.03 3.44516 4.07608 0
M  V30 12659 O 1175.25 2.66787 5.04163 0
M  V30 12660 O 1174.19 4.37898 4.12952 0
M  V30 12661 H 1178.01 2.77294 1.23861 0
M  V30 12662 H 1175.6 1.38958 0.548722 0
M  V30 12663 H 1177.48 2.16552 3.61501 0
M  V30 12664 H 1176.15 1.11819 3.03773 0
M  V30 12665 H 1175.06 3.17733 1.97475 0
M  V30 12666 H 1176.39 4.16996 2.61486 0
M  V30 12667 N 1178.05 -0.61812 1.44973 0
M  V30 12668 C 1178.98 -1.74277 1.47318 0
M  V30 12669 C 1179.96 -1.59203 0.330627 0
M  V30 12670 O 1181.14 -1.80909 0.529558 0
M  V30 12671 C 1178.27 -3.11994 1.31823 0
M  V30 12672 C 1177.31 -3.45685 2.49809 0
M  V30 12673 S 1178.15 -3.41704 4.12309 0
M  V30 12674 C 1179.3 -4.82019 3.9926 0
M  V30 12675 H 1179.54 -1.72023 2.42478 0
M  V30 12676 H 1177.07 -0.793867 1.32428 0
M  V30 12677 H 1179.03 -3.9146 1.2357 0
M  V30 12678 H 1177.69 -3.11774 0.381521 0
M  V30 12679 H 1176.88 -4.45931 2.34864 0
M  V30 12680 H 1176.48 -2.73711 2.54869 0
M  V30 12681 H 1178.77 -5.71567 3.63754 0
M  V30 12682 H 1179.72 -5.02019 4.99382 0
M  V30 12683 H 1180.13 -4.57205 3.31095 0
M  V30 12684 N 1179.52 -1.32087 -0.859693 0
M  V30 12685 C 1180.8 -1.12984 -1.59668 0
M  V30 12686 C 1181.18 0.311661 -2.08787 0
M  V30 12687 O 1180.53 1.30746 -1.87397 0
M  V30 12688 C 1180.74 -2.15305 -2.74672 0
M  V30 12689 C 1182.09 -2.48371 -3.44379 0
M  V30 12690 O 1183.11 -2.13811 -2.84891 0
M  V30 12691 O 1181.97 -3.07594 -4.51717 0
M  V30 12692 H 1179.06 -0.435657 -0.702945 0
M  V30 12693 H 1181.61 -1.43601 -0.90426 0
M  V30 12694 H 1180.38 -3.12223 -2.35866 0
M  V30 12695 H 1180 -1.85653 -3.51594 0
M  V30 12696 N 1181 1.07532 -1.15215 0
M  V30 12697 C 1182.41 1.61567 -0.935568 0
M  V30 12698 C 1182.76 1.89085 0.523557 0
M  V30 12699 O 1181.89 1.65495 1.39429 0
M  V30 12700 C 1182.48 2.93531 -1.69189 0
M  V30 12701 C 1181.04 3.44316 -1.52063 0
M  V30 12702 C 1180.19 2.18404 -1.70866 0
M  V30 12703 H 1183.14 0.906431 -1.30267 0
M  V30 12704 H 1183.16 3.62377 -1.16031 0
M  V30 12705 H 1182.67 2.73471 -2.75381 0
M  V30 12706 H 1180.77 3.69462 -0.482567 0
M  V30 12707 H 1180.89 4.20478 -2.29642 0
M  V30 12708 H 1179.25 2.28012 -1.13502 0
M  V30 12709 H 1180.03 2.00841 -2.7842 0
M  V30 12710 N 1182.48 0.948665 1.2585 0
M  V30 12711 C 1183.76 0.517832 1.88621 0
M  V30 12712 C 1184.14 -1.00477 1.85654 0
M  V30 12713 O 1183.49 -1.868 1.31598 0
M  V30 12714 C 1183.7 1.08768 3.31618 0
M  V30 12715 C 1185.04 1.16089 4.08422 0
M  V30 12716 O 1186.07 1.0388 3.40716 0
M  V30 12717 O 1184.93 1.35172 5.29519 0
M  V30 12718 H 1182.02 0.169916 0.809356 0
M  V30 12719 H 1184.57 1.04171 1.33964 0
M  V30 12720 H 1183.34 2.13109 3.28177 0
M  V30 12721 H 1182.96 0.54669 3.93824 0
M  V30 12722 N 1183.96 -1.40369 0.716545 0
M  V30 12723 C 1184.87 -2.34508 0.065658 0
M  V30 12724 C 1185.88 -1.57352 -0.742723 0
M  V30 12725 O 1187.06 -1.89735 -0.675456 0
M  V30 12726 C 1184.13 -3.36262 -0.844337 0
M  V30 12727 C 1183.19 -4.29292 -0.0257971 0
M  V30 12728 C 1182.42 -5.26185 -0.892452 0
M  V30 12729 O 1182.64 -5.29071 -2.13166 0
M  V30 12730 O 1181.58 -6.0099 -0.330933 0
M  V30 12731 H 1185.4 -2.91789 0.842184 0
M  V30 12732 H 1182.99 -1.41579 0.477034 0
M  V30 12733 H 1184.87 -3.98661 -1.36555 0
M  V30 12734 H 1183.54 -2.81393 -1.59999 0
M  V30 12735 H 1182.45 -3.70175 0.540512 0
M  V30 12736 H 1183.78 -4.87316 0.69166 0
M  V30 12737 N 1185.44 -0.462799 -1.50652 0
M  V30 12738 C 1186.85 -0.11648 -1.59174 0
M  V30 12739 C 1187.05 1.37638 -1.47167 0
M  V30 12740 O 1186.11 2.14886 -1.3259 0
M  V30 12741 C 1187.42 -0.659289 -2.93383 0
M  V30 12742 C 1188.97 -0.62198 -3.06758 0
M  V30 12743 C 1189.44 -1.14219 -4.43529 0
M  V30 12744 N 1190.94 -1.10125 -4.49919 0
M  V30 12745 C 1191.67 -1.47436 -5.54121 0
M  V30 12746 N 1191.17 -1.92156 -6.65618 0
M  V30 12747 N 1192.96 -1.39091 -5.44619 0
M  V30 12748 H 1185.11 -1.43383 -1.56701 0
M  V30 12749 H 1187.37 -0.592438 -0.740082 0
M  V30 12750 H 1187.08 -1.70477 -3.07621 0
M  V30 12751 H 1186.95 -0.0982388 -3.77072 0
M  V30 12752 H 1189.34 0.414576 -2.92173 0
M  V30 12753 H 1189.42 -1.21974 -2.24847 0
M  V30 12754 H 1189.07 -2.17734 -4.58862 0
M  V30 12755 H 1189 -0.52073 -5.24019 0
M  V30 12756 H 1191.49 -0.773154 -3.69906 0
M  V30 12757 H 1191.8 -2.18796 -7.4118 0
M  V30 12758 H 1190.14 -1.96103 -6.6676 0
M  V30 12759 H 1193.34 -1.04001 -4.564 0
M  V30 12760 H 1193.51 -1.68496 -6.2571 0
M  V30 12761 N 1186.91 1.56388 -0.195085 0
M  V30 12762 C 1188.16 1.98634 0.437717 0
M  V30 12763 C 1188.52 1.07985 1.59239 0
M  V30 12764 O 1187.81 0.124261 1.91197 0
M  V30 12765 C 1188 3.44651 0.946051 0
M  V30 12766 C 1187.83 4.49423 -0.157828 0
M  V30 12767 C 1186.6 5.01538 -0.615457 0
M  V30 12768 C 1188.8 5.05132 -0.966773 0
M  V30 12769 N 1186.78 5.89974 -1.69716 0
M  V30 12770 C 1188.15 5.90238 -1.89788 0
M  V30 12771 C 1190.21 4.87565 -1.00919 0
M  V30 12772 C 1188.91 6.59655 -2.86788 0
M  V30 12773 C 1190.94 5.57722 -1.96724 0
M  V30 12774 C 1190.3 6.42574 -2.88579 0
M  V30 12775 H 1186.4 0.77152 0.127594 0
M  V30 12776 H 1188.98 1.92363 -0.300777 0
M  V30 12777 H 1187.15 3.51423 1.65399 0
M  V30 12778 H 1188.88 3.73863 1.54946 0
M  V30 12779 H 1185.64 4.73139 -0.208806 0
M  V30 12780 H 1186.06 6.38896 -2.23921 0
M  V30 12781 H 1190.71 4.2164 -0.313023 0
M  V30 12782 H 1188.42 7.24779 -3.57381 0
M  V30 12783 H 1192.01 5.46106 -2.00647 0
M  V30 12784 H 1190.89 6.95906 -3.61503 0
M  V30 12785 N 1188.39 -0.0785156 1.57404 0
M  V30 12786 C 1189.34 -1.09402 2.03224 0
M  V30 12787 C 1190.31 -1.38849 0.911596 0
M  V30 12788 O 1191.49 -1.50031 1.17878 0
M  V30 12789 C 1188.63 -2.40444 2.47549 0
M  V30 12790 C 1187.75 -2.17585 3.73203 0
M  V30 12791 C 1186.88 -3.42143 4.06339 0
M  V30 12792 C 1185.92 -3.14619 5.25054 0
M  V30 12793 N 1185.06 -4.31489 5.5386 0
M  V30 12794 H 1189.9 -0.696307 2.89751 0
M  V30 12795 H 1187.44 -0.332261 1.43298 0
M  V30 12796 H 1189.39 -3.16944 2.71298 0
M  V30 12797 H 1188.02 -2.78031 1.64009 0
M  V30 12798 H 1187.08 -1.3181 3.56834 0
M  V30 12799 H 1188.39 -1.93249 4.59844 0
M  V30 12800 H 1187.54 -4.27042 4.30953 0
M  V30 12801 H 1186.28 -3.69549 3.18253 0
M  V30 12802 H 1185.29 -2.28116 5.00243 0
M  V30 12803 H 1186.51 -2.88543 6.14752 0
M  V30 12804 H 1184.46 -4.58939 4.68734 0
M  V30 12805 H 1184.37 -4.10403 6.34906 0
M  V30 12806 H 1185.64 -5.17404 5.83021 0
M  V30 12807 N 1189.87 -1.5367 -0.349747 0
M  V30 12808 C 1190.83 -1.80533 -1.41211 0
M  V30 12809 C 1191.83 -0.676188 -1.45892 0
M  V30 12810 O 1193.02 -0.944453 -1.46375 0
M  V30 12811 C 1190.16 -1.94175 -2.80195 0
M  V30 12812 H 1191.35 -2.75428 -1.18658 0
M  V30 12813 H 1188.9 -1.44988 -0.583787 0
M  V30 12814 H 1189.64 -1.01402 -3.08039 0
M  V30 12815 H 1189.42 -2.76316 -2.78194 0
M  V30 12816 H 1190.91 -2.16496 -3.57098 0
M  V30 12817 N 1191.35 0.610423 -1.45298 0
M  V30 12818 C 1192.31 1.70324 -1.5337 0
M  V30 12819 C 1193.31 1.55393 -0.413492 0
M  V30 12820 O 1194.5 1.60512 -0.676872 0
M  V30 12821 C 1191.63 3.09572 -1.42752 0
M  V30 12822 H 1192.83 1.64535 -2.50736 0
M  V30 12823 H 1190.38 0.825906 -1.32697 0
M  V30 12824 H 1191.11 3.2094 -0.465601 0
M  V30 12825 H 1190.9 3.21817 -2.24 0
M  V30 12826 H 1192.39 3.89178 -1.51427 0
M  V30 12827 N 1192.83 1.32541 0.852676 0
M  V30 12828 C 1194.06 1.26037 1.63702 0
M  V30 12829 C 1194.46 -0.173583 1.88402 0
M  V30 12830 O 1193.81 -1.12175 1.45473 0
M  V30 12831 C 1193.87 1.95245 3.01861 0
M  V30 12832 C 1193.53 3.44576 3.00193 0
M  V30 12833 C 1194.53 4.40026 2.76899 0
M  V30 12834 C 1192.22 3.86541 3.20766 0
M  V30 12835 C 1194.21 5.75414 2.74185 0
M  V30 12836 C 1191.9 5.22038 3.17678 0
M  V30 12837 C 1192.89 6.16286 2.94416 0
M  V30 12838 O 1192.58 7.49303 2.91206 0
M  V30 12839 H 1192.31 0.436073 0.516543 0
M  V30 12840 H 1194.87 1.75251 1.07127 0
M  V30 12841 H 1193.1 1.40603 3.60233 0
M  V30 12842 H 1194.79 1.82423 3.62597 0
M  V30 12843 H 1195.55 4.0893 2.6077 0
M  V30 12844 H 1191.43 3.13603 3.37897 0
M  V30 12845 H 1194.98 6.4895 2.55947 0
M  V30 12846 H 1190.87 5.52762 3.33353 0
M  V30 12847 H 1191.64 7.58686 3.07146 0
M  V30 12848 N 1194.3 -1.0692 1.15784 0
M  V30 12849 C 1195.53 -1.8331 0.959422 0
M  V30 12850 C 1195.95 -1.82268 -0.492332 0
M  V30 12851 O 1195.3 -1.23727 -1.34156 0
M  V30 12852 C 1195.36 -3.30202 1.47135 0
M  V30 12853 O 1195.08 -3.31328 2.86624 0
M  V30 12854 C 1196.58 -4.23346 1.31504 0
M  V30 12855 H 1193.8 -0.578202 0.340475 0
M  V30 12856 H 1196.34 -1.34939 1.53661 0
M  V30 12857 H 1194.5 -3.75908 0.936587 0
M  V30 12858 H 1194.91 -4.23135 3.0993 0
M  V30 12859 H 1196.38 -5.24465 1.72163 0
M  V30 12860 H 1196.86 -4.38431 0.259773 0
M  V30 12861 H 1197.47 -3.8348 1.83911 0
M  V30 12862 N 1195.78 -0.955326 -1.25345 0
M  V30 12863 C 1197.2 -0.659863 -1.4532 0
M  V30 12864 C 1197.4 0.78238 -1.85691 0
M  V30 12865 O 1196.45 1.5576 -1.98734 0
M  V30 12866 C 1197.77 -1.63339 -2.5247 0
M  V30 12867 C 1199.32 -1.64464 -2.66309 0
M  V30 12868 C 1199.79 -2.60583 -3.76644 0
M  V30 12869 N 1201.28 -2.58951 -3.84055 0
M  V30 12870 C 1202.02 -3.30002 -4.6892 0
M  V30 12871 N 1201.51 -4.10528 -5.58067 0
M  V30 12872 N 1203.31 -3.18886 -4.62891 0
M  V30 12873 H 1195.46 -1.88734 -0.97433 0
M  V30 12874 H 1197.72 -0.811858 -0.48948 0
M  V30 12875 H 1197.43 -2.66358 -2.29665 0
M  V30 12876 H 1197.3 -1.39644 -3.50399 0
M  V30 12877 H 1199.69 -0.621622 -2.88479 0
M  V30 12878 H 1199.77 -1.92218 -1.68778 0
M  V30 12879 H 1199.41 -3.63011 -3.55226 0
M  V30 12880 H 1199.34 -2.30113 -4.73662 0
M  V30 12881 H 1201.83 -2.00491 -3.20331 0
M  V30 12882 H 1202.15 -4.6166 -6.1975 0
M  V30 12883 H 1200.49 -4.14626 -5.57773 0
M  V30 12884 H 1203.68 -2.55447 -3.92255 0
M  V30 12885 H 1203.85 -3.74524 -5.28806 0
M  V30 12886 N 1197.26 1.39987 -0.723979 0
M  V30 12887 C 1198.21 2.27938 -0.0531058 0
M  V30 12888 C 1199.2 1.43693 0.723965 0
M  V30 12889 O 1200.39 1.66707 0.594785 0
M  V30 12890 C 1197.52 3.32311 0.861659 0
M  V30 12891 C 1196.6 4.24026 0.079327 0
M  V30 12892 N 1196.99 4.96954 -0.941805 0
M  V30 12893 C 1195.29 4.44917 0.310637 0
M  V30 12894 C 1195.99 5.64287 -1.41261 0
M  V30 12895 N 1194.97 5.38632 -0.733217 0
M  V30 12896 H 1198.77 2.81771 -0.835608 0
M  V30 12897 H 1196.28 1.52538 -0.557315 0
M  V30 12898 H 1198.28 3.94174 1.35766 0
M  V30 12899 H 1196.94 2.80038 1.64344 0
M  V30 12900 H 1197.95 5.0072 -1.32288 0
M  V30 12901 H 1194.63 4.03606 1.06809 0
M  V30 12902 H 1196.02 6.32695 -2.26155 0
M  V30 12903 N 1198.74 0.470782 1.50404 0
M  V30 12904 C 1199.67 -0.313458 2.31386 0
M  V30 12905 C 1200.65 -0.990623 1.38278 0
M  V30 12906 O 1201.84 -0.987854 1.67198 0
M  V30 12907 C 1198.97 -1.39599 3.18009 0
M  V30 12908 C 1197.92 -0.840443 4.19667 0
M  V30 12909 C 1197.25 -2.02124 4.95025 0
M  V30 12910 C 1198.55 0.148055 5.2209 0
M  V30 12911 H 1200.24 0.362432 2.97198 0
M  V30 12912 H 1197.79 0.175745 1.42924 0
M  V30 12913 H 1199.74 -1.9521 3.73458 0
M  V30 12914 H 1198.46 -2.10064 2.50081 0
M  V30 12915 H 1197.12 -0.306302 3.65318 0
M  V30 12916 H 1196.77 -2.71286 4.23571 0
M  V30 12917 H 1196.47 -1.65574 5.6379 0
M  V30 12918 H 1197.99 -2.58226 5.5331 0
M  V30 12919 H 1199.41 -0.318874 5.72413 0
M  V30 12920 H 1197.8 0.427811 5.98573 0
M  V30 12921 H 1198.87 1.07404 4.72855 0
M  V30 12922 N 1200.22 -1.56282 0.203376 0
M  V30 12923 C 1201.63 -1.58871 -0.152335 0
M  V30 12924 C 1201.83 -1.21978 -1.60386 0
M  V30 12925 O 1200.89 -0.946422 -2.34092 0
M  V30 12926 C 1202.2 -3.00287 0.157515 0
M  V30 12927 C 1203.75 -3.12846 0.098287 0
M  V30 12928 C 1204.23 -4.56408 0.38156 0
M  V30 12929 N 1205.72 -4.6202 0.330475 0
M  V30 12930 C 1206.45 -5.71006 0.523397 0
M  V30 12931 N 1205.95 -6.88428 0.777115 0
M  V30 12932 N 1207.74 -5.60238 0.457082 0
M  V30 12933 H 1199.89 -1.78543 1.15048 0
M  V30 12934 H 1202.15 -0.829019 0.459816 0
M  V30 12935 H 1201.86 -3.3187 1.16427 0
M  V30 12936 H 1201.73 -3.73372 -0.536041 0
M  V30 12937 H 1204.12 -2.8107 -0.899085 0
M  V30 12938 H 1204.2 -2.42129 0.825045 0
M  V30 12939 H 1203.85 -4.88897 1.37629 0
M  V30 12940 H 1203.78 -5.25325 -0.366182 0
M  V30 12941 H 1206.27 -3.77636 0.141327 0
M  V30 12942 H 1206.58 -7.67389 0.912911 0
M  V30 12943 H 1204.93 -6.90215 0.814104 0
M  V30 12944 H 1208.12 -4.67382 0.259226 0
M  V30 12945 H 1208.29 -6.45114 0.610848 0
M  V30 12946 N 1201.7 0.070167 -1.57444 0
M  V30 12947 C 1203.11 0.621805 -1.76041 0
M  V30 12948 C 1203.46 1.77824 -0.829047 0
M  V30 12949 O 1202.58 2.16396 -0.0135453 0
M  V30 12950 C 1203.18 1.13476 -3.19231 0
M  V30 12951 C 1201.74 1.63225 -3.39167 0
M  V30 12952 C 1200.88 0.552369 -2.71743 0
M  V30 12953 H 1203.83 -0.156009 -1.57931 0
M  V30 12954 H 1203.86 2.00352 -3.2348 0
M  V30 12955 H 1203.37 0.29288 -3.86993 0
M  V30 12956 H 1201.47 2.49733 -2.76522 0
M  V30 12957 H 1201.58 1.70807 -4.47618 0
M  V30 12958 H 1199.95 0.997797 -2.34342 0
M  V30 12959 H 1200.73 -0.279354 -3.42162 0
M  V30 12960 N 1203.17 1.53854 0.341593 0
M  V30 12961 C 1204.45 1.61823 1.09875 0
M  V30 12962 C 1204.83 0.440711 2.06448 0
M  V30 12963 O 1204.18 -0.566833 2.21358 0
M  V30 12964 C 1204.39 2.9799 1.81668 0
M  V30 12965 C 1205.74 3.53411 2.35341 0
M  V30 12966 O 1206.76 3.00177 1.91761 0
M  V30 12967 O 1205.62 4.4653 3.15076 0
M  V30 12968 H 1202.71 0.654599 0.5054 0
M  V30 12969 H 1205.26 1.66199 0.342929 0
M  V30 12970 H 1204.03 3.7513 1.11323 0
M  V30 12971 H 1203.65 2.97213 2.64103 0
M  V30 12972 N 1204.65 -0.602709 1.4562 0
M  V30 12973 C 1205.58 -1.72705 1.49159 0
M  V30 12974 C 1206.56 -1.58843 0.347494 0
M  V30 12975 O 1207.75 -1.80337 0.548716 0
M  V30 12976 C 1204.87 -3.10579 1.35125 0
M  V30 12977 C 1203.92 -3.43016 2.53461 0
M  V30 12978 S 1204.75 -3.37311 4.1591 0
M  V30 12979 C 1205.91 -4.77757 4.0435 0
M  V30 12980 H 1206.14 -1.69441 2.44289 0
M  V30 12981 H 1203.67 -0.779776 1.33262 0
M  V30 12982 H 1205.63 -3.90127 1.27715 0
M  V30 12983 H 1204.29 -3.11352 0.414568 0
M  V30 12984 H 1203.49 -4.43415 2.39581 0
M  V30 12985 H 1203.09 -2.70993 2.57757 0
M  V30 12986 H 1205.38 -5.67677 3.69796 0
M  V30 12987 H 1206.32 -4.96694 5.04679 0
M  V30 12988 H 1206.73 -4.53667 3.35926 0
M  V30 12989 N 1206.13 -1.32992 -0.845635 0
M  V30 12990 C 1207.08 -1.22682 -1.95494 0
M  V30 12991 C 1208.05 -0.106942 -1.65755 0
M  V30 12992 O 1209.23 -0.28405 -1.88674 0
M  V30 12993 C 1206.37 -0.965068 -3.31331 0
M  V30 12994 C 1205.48 -2.17058 -3.7351 0
M  V30 12995 C 1204.62 -1.84355 -4.98183 0
M  V30 12996 C 1203.66 -3.01176 -5.32878 0
M  V30 12997 N 1202.8 -2.68506 -6.48729 0
M  V30 12998 H 1207.64 -2.17562 -2.03644 0
M  V30 12999 H 1205.17 -1.08194 -0.996613 0
M  V30 13000 H 1207.13 -0.793771 -4.09579 0
M  V30 13001 H 1205.76 -0.0530285 -3.22756 0
M  V30 13002 H 1204.81 -2.45185 -2.90841 0
M  V30 13003 H 1206.12 -3.04413 -3.95138 0
M  V30 13004 H 1205.28 -1.6383 -5.84162 0
M  V30 13005 H 1204.02 -0.942264 -4.78511 0
M  V30 13006 H 1203.02 -3.22323 -4.45408 0
M  V30 13007 H 1204.25 -3.9205 -5.54503 0
M  V30 13008 H 1202.19 -1.80929 -6.30556 0
M  V30 13009 H 1202.11 -3.49392 -6.70419 0
M  V30 13010 H 1203.38 -2.51432 -7.37836 0
M  V30 13011 N 1207.61 1.06304 -1.1635 0
M  V30 13012 C 1208.84 1.82799 -0.96913 0
M  V30 13013 C 1209.25 1.82526 0.482659 0
M  V30 13014 O 1208.61 1.24437 1.33498 0
M  V30 13015 C 1208.66 3.29417 -1.48884 0
M  V30 13016 O 1208.38 3.29803 -2.88377 0
M  V30 13017 C 1209.88 4.22642 -1.33748 0
M  V30 13018 H 1207.1 0.576388 -0.343537 0
M  V30 13019 H 1209.64 1.34122 -1.54375 0
M  V30 13020 H 1207.8 3.75406 -0.956509 0
M  V30 13021 H 1208.21 4.21486 -3.1217 0
M  V30 13022 H 1209.69 5.23545 -1.74942 0
M  V30 13023 H 1210.16 4.38287 -0.283021 0
M  V30 13024 H 1210.77 3.82499 -1.85942 0
M  V30 13025 N 1209.09 0.96196 1.24836 0
M  V30 13026 C 1210.04 0.458643 2.23339 0
M  V30 13027 C 1211.02 -0.456178 1.54298 0
M  V30 13028 O 1212.21 -0.288036 1.74641 0
M  V30 13029 C 1209.34 -0.255381 3.42349 0
M  V30 13030 C 1208.43 0.677934 4.18646 0
M  V30 13031 N 1208.82 1.81273 4.72201 0
M  V30 13032 C 1207.12 0.487577 4.43327 0
M  V30 13033 C 1207.82 2.39604 5.30061 0
M  V30 13034 N 1206.79 1.68179 5.1693 0
M  V30 13035 H 1210.59 1.32459 2.62358 0
M  V30 13036 H 1208.11 0.820343 1.40158 0
M  V30 13037 H 1210.11 -0.633142 4.12064 0
M  V30 13038 H 1208.77 -1.11784 3.04852 0
M  V30 13039 H 1209.78 2.19441 4.69112 0
M  V30 13040 H 1206.45 -0.331392 4.16183 0
M  V30 13041 H 1207.84 3.35334 5.82237 0
M  V30 13042 N 1210.56 -1.39601 0.731392 0
M  V30 13043 C 1211.49 -2.33268 0.1041 0
M  V30 13044 C 1212.47 -1.53724 -0.728219 0
M  V30 13045 O 1213.66 -1.82131 -0.673933 0
M  V30 13046 C 1210.79 -3.37802 -0.806646 0
M  V30 13047 C 1209.74 -4.27928 -0.0787588 0
M  V30 13048 C 1209.07 -5.23131 -1.10628 0
M  V30 13049 C 1210.37 -5.11086 1.07651 0
M  V30 13050 H 1212.06 -2.85975 0.886496 0
M  V30 13051 H 1209.61 -1.375 0.427746 0
M  V30 13052 H 1211.56 -4.02278 -1.25499 0
M  V30 13053 H 1210.29 -2.83527 -1.62112 0
M  V30 13054 H 1208.95 -3.64926 0.349926 0
M  V30 13055 H 1208.59 -4.65152 -1.91422 0
M  V30 13056 H 1208.29 -5.84277 -0.624043 0
M  V30 13057 H 1209.82 -5.90483 -1.5544 0
M  V30 13058 H 1211.23 -5.68927 0.706781 0
M  V30 13059 H 1209.63 -5.81356 1.48814 0
M  V30 13060 H 1210.7 -4.46131 1.89988 0
M  V30 13061 N 1212.04 -0.478751 -1.50152 0
M  V30 13062 C 1213.32 0.135533 -1.9513 0
M  V30 13063 C 1213.7 1.56253 -1.41944 0
M  V30 13064 O 1213.05 2.19824 -0.623673 0
M  V30 13065 C 1213.26 0.0710037 -3.48928 0
M  V30 13066 C 1214.61 0.256075 -4.23827 0
M  V30 13067 O 1215.63 0.147234 -3.55896 0
M  V30 13068 O 1214.49 0.476741 -5.44417 0
M  V30 13069 H 1211.58 0.107491 -0.819985 0
M  V30 13070 H 1214.13 -0.539701 -1.60889 0
M  V30 13071 H 1212.9 -0.925012 -3.80209 0
M  V30 13072 H 1212.52 0.787362 -3.89726 0
M  V30 13073 N 1213.52 1.56172 -0.211661 0
M  V30 13074 C 1214.94 1.5895 0.143907 0
M  V30 13075 C 1215.14 1.22826 1.59737 0
M  V30 13076 O 1214.19 0.958823 2.33587 0
M  V30 13077 C 1215.51 3.00199 -0.173438 0
M  V30 13078 C 1217.05 3.12789 -0.114877 0
M  V30 13079 C 1217.53 4.56199 -0.405759 0
M  V30 13080 N 1219.02 4.61838 -0.354973 0
M  V30 13081 C 1219.75 5.70721 -0.553671 0
M  V30 13082 N 1219.25 6.88006 -0.813613 0
M  V30 13083 N 1221.04 5.59988 -0.486787 0
M  V30 13084 H 1213.19 1.77931 -1.15993 0
M  V30 13085 H 1215.46 0.826569 -0.464206 0
M  V30 13086 H 1215.16 3.31248 -1.18186 0
M  V30 13087 H 1215.04 3.73651 0.516232 0
M  V30 13088 H 1217.42 2.81543 0.884166 0
M  V30 13089 H 1217.51 2.41688 -0.837875 0
M  V30 13090 H 1217.15 4.88161 -1.40219 0
M  V30 13091 H 1217.08 5.25512 0.338318 0
M  V30 13092 H 1219.57 3.77555 -0.161352 0
M  V30 13093 H 1219.88 7.66894 -0.953594 0
M  V30 13094 H 1218.23 6.89774 -0.850696 0
M  V30 13095 H 1221.42 4.67238 -0.284009 0
M  V30 13096 H 1221.59 6.44781 -0.645051 0
M  V30 13097 N 1215 -0.0618163 1.57479 0
M  V30 13098 C 1216.41 -0.612461 1.76368 0
M  V30 13099 C 1216.76 -1.77381 0.838466 0
M  V30 13100 O 1215.89 -2.16386 0.0250211 0
M  V30 13101 C 1216.48 -1.11782 3.19829 0
M  V30 13102 C 1215.04 -1.61424 3.40028 0
M  V30 13103 C 1214.19 -0.53795 2.72032 0
M  V30 13104 H 1217.14 0.164382 1.57846 0
M  V30 13105 H 1217.16 -1.98634 3.24538 0
M  V30 13106 H 1216.67 -0.272353 3.87143 0
M  V30 13107 H 1214.77 -2.48263 2.77842 0
M  V30 13108 H 1214.88 -1.68431 4.48517 0
M  V30 13109 H 1213.25 -0.985355 2.34868 0
M  V30 13110 H 1214.03 0.297495 3.42009 0
M  V30 13111 N 1216.48 -1.54033 -0.333429 0
M  V30 13112 C 1217.41 -1.85719 -1.4153 0
M  V30 13113 C 1218.39 -0.713144 -1.54429 0
M  V30 13114 O 1219.57 -0.965984 -1.68471 0
M  V30 13115 C 1216.7 -2.07578 -2.78439 0
M  V30 13116 C 1215.66 -3.23411 -2.80338 0
M  V30 13117 C 1214.98 -3.30622 -4.2023 0
M  V30 13118 C 1216.28 -4.6129 -2.44968 0
M  V30 13119 H 1217.98 -2.76325 -1.15261 0
M  V30 13120 H 1215.52 -1.32957 -0.55303 0
M  V30 13121 H 1217.48 -2.28329 -3.5418 0
M  V30 13122 H 1216.2 -1.13713 -3.06165 0
M  V30 13123 H 1214.86 -3.02531 -2.07052 0
M  V30 13124 H 1214.51 -2.34333 -4.45081 0
M  V30 13125 H 1214.21 -4.08466 -4.22409 0
M  V30 13126 H 1215.73 -3.53596 -4.97798 0
M  V30 13127 H 1217.14 -4.81987 -3.10421 0
M  V30 13128 H 1215.54 -5.41611 -2.58414 0
M  V30 13129 H 1216.61 -4.6421 -1.40134 0
M  V30 13130 N 1217.95 0.594978 -1.45938 0
M  V30 13131 C 1219.2 1.35561 -1.50834 0
M  V30 13132 C 1219.53 1.93584 -0.154566 0
M  V30 13133 O 1218.81 1.75781 0.832541 0
M  V30 13134 C 1219.09 2.49414 -2.5974 0
M  V30 13135 C 1218.94 1.96506 -4.04605 0
M  V30 13136 C 1220.26 3.51505 -2.64825 0
M  V30 13137 H 1217.38 0.491549 -0.549134 0
M  V30 13138 H 1220.02 0.669536 -1.77812 0
M  V30 13139 H 1218.17 3.07939 -2.36866 0
M  V30 13140 H 1219.85 1.42533 -4.38728 0
M  V30 13141 H 1218.09 1.27418 -4.14665 0
M  V30 13142 H 1218.76 2.78636 -4.76515 0
M  V30 13143 H 1221.24 3.02841 -2.85353 0
M  V30 13144 H 1220.11 4.28641 -3.42867 0
M  V30 13145 H 1220.37 4.07942 -1.70399 0
M  V30 13146 N 1219.43 1.33438 0.838571 0
M  V30 13147 C 1220.68 1.25097 1.5962 0
M  V30 13148 C 1221.01 -0.182798 1.93338 0
M  V30 13149 O 1220.29 -1.1242 1.5872 0
M  V30 13150 C 1220.57 2.12655 2.90603 0
M  V30 13151 C 1220.42 3.64491 2.63565 0
M  V30 13152 C 1221.74 1.99994 3.92033 0
M  V30 13153 H 1218.86 0.455776 0.579169 0
M  V30 13154 H 1221.5 1.63542 0.967169 0
M  V30 13155 H 1219.65 1.79998 3.44286 0
M  V30 13156 H 1221.32 4.0744 2.16312 0
M  V30 13157 H 1219.57 3.86356 1.9726 0
M  V30 13158 H 1220.24 4.21101 3.569 0
M  V30 13159 H 1222.71 2.28635 3.47657 0
M  V30 13160 H 1221.59 2.63509 4.81512 0
M  V30 13161 H 1221.85 0.972263 4.31277 0
M  V30 13162 N 1220.91 -1.05686 1.16912 0
M  V30 13163 C 1222.19 -1.7546 0.864483 0
M  V30 13164 C 1222.57 -2.0128 -0.636359 0
M  V30 13165 O 1221.92 -1.64485 -1.58609 0
M  V30 13166 C 1222.13 -3.05134 1.69395 0
M  V30 13167 C 1223.47 -3.79176 1.91079 0
M  V30 13168 O 1224.5 -3.1499 1.66312 0
M  V30 13169 O 1223.36 -4.94496 2.32671 0
M  V30 13170 H 1220.45 -0.762748 0.319601 0
M  V30 13171 H 1223 -1.11899 1.27581 0
M  V30 13172 H 1221.77 -2.82063 2.71212 0
M  V30 13173 H 1221.39 -3.76431 1.28007 0
M  V30 13174 N 1222.39 -0.968567 -1.24324 0
M  V30 13175 C 1223.8 -0.66964 -1.74278 0
M  V30 13176 C 1224.15 0.81461 -1.7849 0
M  V30 13177 O 1223.28 1.63736 -1.4149 0
M  V30 13178 C 1223.87 -1.20885 -3.165 0
M  V30 13179 C 1222.43 -0.959808 -3.63957 0
M  V30 13180 C 1221.58 -1.34365 -2.42573 0
M  V30 13181 H 1224.53 -1.14379 -1.10015 0
M  V30 13182 H 1224.55 -0.57555 -3.76122 0
M  V30 13183 H 1224.06 -2.28912 -3.13402 0
M  V30 13184 H 1222.16 0.104894 -3.72452 0
M  V30 13185 H 1222.27 -1.60606 -4.51378 0
M  V30 13186 H 1220.64 -0.762039 -2.43033 0
M  V30 13187 H 1221.42 -2.43343 -2.42155 0
M  V30 13188 N 1223.87 1.39211 -0.738786 0
M  V30 13189 C 1224.8 2.29117 -0.0616489 0
M  V30 13190 C 1225.81 1.47008 0.699462 0
M  V30 13191 O 1227 1.70041 0.542998 0
M  V30 13192 C 1224.1 3.25692 0.936893 0
M  V30 13193 C 1223.27 4.3676 0.236515 0
M  V30 13194 C 1222.33 5.1362 1.1437 0
M  V30 13195 O 1221.36 5.65816 0.619762 0
M  V30 13196 N 1222.56 5.25184 2.4731 0
M  V30 13197 H 1225.33 2.8787 -0.833711 0
M  V30 13198 H 1222.89 1.50832 -0.588323 0
M  V30 13199 H 1224.88 3.73987 1.54648 0
M  V30 13200 H 1223.45 2.67943 1.61014 0
M  V30 13201 H 1222.67 3.90293 -0.553594 0
M  V30 13202 H 1223.96 5.08192 -0.248707 0
M  V30 13203 H 1223.35 4.84302 2.92349 0
M  V30 13204 H 1221.91 5.76905 3.03355 0
M  V30 13205 N 1225.34 0.486708 1.49896 0
M  V30 13206 C 1226.25 -0.304222 2.32619 0
M  V30 13207 C 1227.27 -0.981103 1.43702 0
M  V30 13208 O 1228.45 -0.965639 1.76741 0
M  V30 13209 C 1225.51 -1.36301 3.18783 0
M  V30 13210 C 1224.57 -0.701082 4.23537 0
M  V30 13211 C 1223.81 -1.70943 5.05583 0
M  V30 13212 O 1224.03 -2.93773 4.88931 0
M  V30 13213 O 1222.96 -1.27263 5.88292 0
M  V30 13214 H 1226.79 0.37248 3.01407 0
M  V30 13215 H 1224.37 0.248277 1.47323 0
M  V30 13216 H 1226.26 -1.97594 3.72202 0
M  V30 13217 H 1224.93 -2.0229 2.52706 0
M  V30 13218 H 1223.84 -0.0487926 3.74068 0
M  V30 13219 H 1225.17 -0.0838817 4.92129 0
M  V30 13220 N 1226.82 -1.56058 0.219941 0
M  V30 13221 C 1227.77 -2.21585 -0.707321 0
M  V30 13222 C 1228.77 -1.19473 -1.20094 0
M  V30 13223 O 1229.97 -1.37557 -1.16095 0
M  V30 13224 H 1226.35 -0.710447 -0.246515 0
M  V30 13225 H 1228.32 -2.98111 -0.131214 0
M  V30 13226 C 1227.07 -2.90841 -1.90544 0
M  V30 13227 H 1226.39 -3.6917 -1.53472 0
M  V30 13228 H 1227.83 -3.40092 -2.53206 0
M  V30 13229 C 1226.29 -1.93223 -2.75983 0
M  V30 13230 O 1226.82 -1.44815 -3.74689 0
M  V30 13231 N 1225.02 -1.60907 -2.41986 0
M  V30 13232 H 1224.57 -2.00467 -1.61774 0
M  V30 13233 H 1224.53 -0.958534 -2.99432 0
M  V30 13234 N 1228.3 0.053464 -1.57509 0
M  V30 13235 C 1229.72 0.408651 -1.5428 0
M  V30 13236 C 1229.92 1.78086 -0.942735 0
M  V30 13237 O 1228.97 2.46366 -0.553163 0
M  V30 13238 C 1230.29 0.332884 -2.98852 0
M  V30 13239 C 1231.83 0.411745 -3.1028 0
M  V30 13240 C 1232.31 0.365691 -4.56538 0
M  V30 13241 N 1233.8 0.425222 -4.61244 0
M  V30 13242 C 1234.54 0.412093 -5.71917 0
M  V30 13243 N 1234.03 0.352693 -6.91902 0
M  V30 13244 N 1235.82 0.460016 -5.60214 0
M  V30 13245 H 1227.98 -0.844834 -1.94875 0
M  V30 13246 H 1230.24 -0.318888 -0.892757 0
M  V30 13247 H 1229.94 -0.609116 -3.46385 0
M  V30 13248 H 1229.82 1.13605 -3.59686 0
M  V30 13249 H 1232.21 1.34417 -2.62709 0
M  V30 13250 H 1232.29 -0.420333 -2.52323 0
M  V30 13251 H 1231.93 -0.562963 -5.0477 0
M  V30 13252 H 1231.86 1.21555 -5.12379 0
M  V30 13253 H 1234.35 0.474634 -3.74908 0
M  V30 13254 H 1234.66 0.347105 -7.7202 0
M  V30 13255 H 1233.01 0.319104 -6.94267 0
M  V30 13256 H 1236.2 0.504242 -4.65376 0
M  V30 13257 H 1236.37 0.446315 -6.46461 0
M  V30 13258 N 1229.78 1.54207 0.325255 0
M  V30 13259 C 1230.73 1.84197 1.42036 0
M  V30 13260 C 1231.72 0.71375 1.53629 0
M  V30 13261 O 1232.93 0.897385 1.56035 0
M  V30 13262 H 1229.3 0.583848 0.473947 0
M  V30 13263 H 1231.27 2.7578 1.13965 0
M  V30 13264 C 1230.02 2.08459 2.78281 0
M  V30 13265 H 1229.35 2.94734 2.70133 0
M  V30 13266 H 1230.79 2.33398 3.5398 0
M  V30 13267 C 1229.24 0.875615 3.25322 0
M  V30 13268 O 1229.77 0.0840387 4.01612 0
M  V30 13269 N 1227.98 0.687721 2.82345 0
M  V30 13270 H 1227.53 1.33307 2.20425 0
M  V30 13271 H 1227.49 -0.119687 3.14172 0
M  V30 13272 N 1231.26 -0.58723 1.46251 0
M  V30 13273 C 1232.21 -1.71771 1.56836 0
M  V30 13274 C 1233.2 -1.63664 0.437096 0
M  V30 13275 O 1234.41 -1.69212 0.613797 0
M  V30 13276 H 1230.78 -0.567841 0.493012 0
M  V30 13277 H 1232.75 -1.59974 2.51895 0
M  V30 13278 C 1231.5 -3.10159 1.57152 0
M  V30 13279 H 1230.82 -3.17066 2.43535 0
M  V30 13280 H 1232.26 -3.89032 1.68613 0
M  V30 13281 C 1230.72 -3.35567 0.299374 0
M  V30 13282 O 1231.25 -3.97006 -0.612291 0
M  V30 13283 N 1229.46 -2.89987 0.188695 0
M  V30 13284 H 1229.01 -2.4017 0.93147 0
M  V30 13285 H 1228.96 -3.0736 -0.661612 0
M  V30 13286 N 1232.74 -1.33881 -0.831482 0
M  V30 13287 C 1233.68 -1.24741 -1.96322 0
M  V30 13288 C 1234.68 -0.147251 -1.68759 0
M  V30 13289 O 1235.88 -0.311684 -1.77281 0
M  V30 13290 H 1232.26 -0.387298 -0.644596 0
M  V30 13291 H 1234.23 -2.20407 -2.01155 0
M  V30 13292 C 1232.98 -1.01102 -3.32677 0
M  V30 13293 H 1232.3 -1.84986 -3.54429 0
M  V30 13294 H 1233.74 -0.987398 -4.12343 0
M  V30 13295 C 1232.2 0.285903 -3.35685 0
M  V30 13296 O 1232.73 1.29014 -3.80419 0
M  V30 13297 N 1230.94 0.316026 -2.88877 0
M  V30 13298 H 1230.48 -0.501758 -2.52666 0
M  V30 13299 H 1230.44 1.18357 -2.91271 0
M  V30 13300 N 1234.21 1.05064 -1.1747 0
M  V30 13301 C 1235.44 1.81761 -0.988464 0
M  V30 13302 C 1235.86 1.83028 0.463272 0
M  V30 13303 O 1235.21 1.25846 1.32171 0
M  V30 13304 C 1235.26 3.2782 -1.5237 0
M  V30 13305 O 1234.99 3.26726 -2.91859 0
M  V30 13306 C 1236.49 4.212 -1.38223 0
M  V30 13307 H 1233.71 0.572712 -0.349631 0
M  V30 13308 H 1236.25 1.32477 -1.55789 0
M  V30 13309 H 1234.41 3.7437 -0.996272 0
M  V30 13310 H 1234.82 4.18151 -3.16623 0
M  V30 13311 H 1236.29 5.2166 -1.80485 0
M  V30 13312 H 1236.77 4.37962 -0.329491 0
M  V30 13313 H 1237.38 3.80506 -1.89988 0
M  V30 13314 N 1235.69 0.975146 1.23809 0
M  V30 13315 C 1236.64 0.503396 2.27087 0
M  V30 13316 C 1237.63 -0.43689 1.63669 0
M  V30 13317 O 1238.84 -0.31136 1.77287 0
M  V30 13318 H 1235.21 0.144346 0.738017 0
M  V30 13319 H 1237.19 1.38627 2.64244 0
M  V30 13320 C 1235.93 -0.183682 3.47214 0
M  V30 13321 H 1235.26 0.530753 3.96261 0
M  V30 13322 H 1236.7 -0.477479 4.21303 0
M  V30 13323 C 1235.16 -1.41317 3.05829 0
M  V30 13324 O 1235.69 -2.50975 3.13647 0
M  V30 13325 N 1233.89 -1.28191 2.60798 0
M  V30 13326 H 1233.44 -0.38967 2.54636 0
M  V30 13327 H 1233.4 -2.10565 2.33473 0
M  V30 13328 N 1237.17 -1.38817 0.746158 0
M  V30 13329 C 1238.12 -2.30521 0.113517 0
M  V30 13330 C 1239.09 -1.49795 -0.717682 0
M  V30 13331 O 1240.27 -1.78448 -0.675345 0
M  V30 13332 C 1237.41 -3.36185 -0.779343 0
M  V30 13333 C 1236.52 -4.3195 0.0656784 0
M  V30 13334 C 1235.66 -5.24684 -0.829492 0
M  V30 13335 C 1234.7 -6.12097 0.0196112 0
M  V30 13336 N 1233.84 -6.97152 -0.832107 0
M  V30 13337 H 1238.68 -2.84048 0.901136 0
M  V30 13338 H 1236.21 -1.39853 0.456025 0
M  V30 13339 H 1238.17 -3.96048 -1.31156 0
M  V30 13340 H 1236.8 -2.84085 -1.53282 0
M  V30 13341 H 1235.85 -3.73611 0.715445 0
M  V30 13342 H 1237.16 -4.93551 0.721735 0
M  V30 13343 H 1236.32 -5.89627 -1.42915 0
M  V30 13344 H 1235.06 -4.63431 -1.5193 0
M  V30 13345 H 1234.06 -5.46156 0.631991 0
M  V30 13346 H 1235.29 -6.75416 0.706369 0
M  V30 13347 H 1233.23 -6.38456 -1.507 0
M  V30 13348 H 1233.15 -7.55642 -0.232782 0
M  V30 13349 H 1234.42 -7.66513 -1.41697 0
M  V30 13350 N 1238.65 -0.49465 -1.49636 0
M  V30 13351 C 1239.87 0.051305 -2.07337 0
M  V30 13352 C 1240.3 1.30637 -1.35335 0
M  V30 13353 O 1239.66 1.76647 -0.408126 0
M  V30 13354 C 1239.7 0.294425 -3.59396 0
M  V30 13355 O 1238.81 1.3704 -3.88965 0
M  V30 13356 H 1238.15 -0.023408 -0.663587 0
M  V30 13357 H 1240.68 -0.692451 -1.92526 0
M  V30 13358 H 1240.69 0.527854 -4.04571 0
M  V30 13359 H 1239.36 -0.622583 -4.11214 0
M  V30 13360 H 1237.94 1.12242 -3.55607 0
M  V30 13361 N 1240.13 1.55939 -0.228214 0
M  V30 13362 C 1241.54 1.59094 0.12704 0
M  V30 13363 C 1241.74 1.24514 1.58425 0
M  V30 13364 O 1240.8 0.983544 2.32557 0
M  V30 13365 C 1242.11 2.99999 -0.205268 0
M  V30 13366 C 1243.66 3.1265 -0.148046 0
M  V30 13367 C 1244.13 4.55743 -0.454122 0
M  V30 13368 N 1245.62 4.61435 -0.403937 0
M  V30 13369 C 1246.36 5.70101 -0.614173 0
M  V30 13370 N 1245.86 6.87104 -0.88654 0
M  V30 13371 N 1247.65 5.5944 -0.546153 0
M  V30 13372 H 1239.8 1.7669 -1.17874 0
M  V30 13373 H 1242.06 0.821599 -0.472947 0
M  V30 13374 H 1241.77 3.29976 -1.21692 0
M  V30 13375 H 1241.64 3.74177 0.476573 0
M  V30 13376 H 1244.03 2.82465 0.854255 0
M  V30 13377 H 1244.11 2.40786 -0.863462 0
M  V30 13378 H 1243.75 4.86646 -1.45389 0
M  V30 13379 H 1243.68 5.25841 0.282561 0
M  V30 13380 H 1246.18 3.77363 -0.201388 0
M  V30 13381 H 1246.49 7.65839 -1.03488 0
M  V30 13382 H 1244.83 6.88833 -0.923808 0
M  V30 13383 H 1248.02 4.6691 -0.33355 0
M  V30 13384 H 1248.2 6.44061 -0.713402 0
M  V30 13385 N 1241.6 -0.0451101 1.57535 0
M  V30 13386 C 1242.57 -1.03521 2.0449 0
M  V30 13387 C 1243.57 -1.30009 0.946265 0
M  V30 13388 O 1244.76 -1.25282 1.21038 0
M  V30 13389 C 1241.89 -2.37221 2.44824 0
M  V30 13390 H 1243.08 -0.629943 2.93209 0
M  V30 13391 H 1240.64 -0.291544 1.53557 0
M  V30 13392 H 1241.37 -2.82528 1.59212 0
M  V30 13393 H 1241.16 -2.19329 3.25018 0
M  V30 13394 H 1242.65 -3.08337 2.81635 0
M  V30 13395 N 1243.08 -1.54377 -0.317073 0
M  V30 13396 C 1244.05 -1.83488 -1.37349 0
M  V30 13397 C 1245.05 -0.706981 -1.44424 0
M  V30 13398 O 1246.24 -0.975289 -1.44339 0
M  V30 13399 C 1243.37 -2.00074 -2.76013 0
M  V30 13400 H 1244.56 -2.77883 -1.12789 0
M  V30 13401 H 1242.11 -1.46194 -0.552902 0
M  V30 13402 H 1242.85 -1.07913 -3.05819 0
M  V30 13403 H 1242.63 -2.82155 -2.7227 0
M  V30 13404 H 1244.12 -2.24022 -3.52426 0
M  V30 13405 N 1244.56 0.579466 -1.4656 0
M  V30 13406 C 1245.47 1.71609 -1.59961 0
M  V30 13407 C 1246.49 1.67162 -0.483002 0
M  V30 13408 O 1247.66 1.87012 -0.747561 0
M  V30 13409 C 1244.73 3.08114 -1.58954 0
M  V30 13410 C 1243.79 3.238 -2.81872 0
M  V30 13411 C 1243.02 4.53794 -2.80904 0
M  V30 13412 O 1243.24 5.37884 -1.89835 0
M  V30 13413 O 1242.18 4.72796 -3.72488 0
M  V30 13414 H 1246 1.6325 -2.56092 0
M  V30 13415 H 1243.59 0.746891 -1.2939 0
M  V30 13416 H 1245.47 3.8939 -1.611 0
M  V30 13417 H 1244.15 3.16903 -0.65984 0
M  V30 13418 H 1243.05 2.42006 -2.85279 0
M  V30 13419 H 1244.39 3.19904 -3.74062 0
M  V30 13420 N 1246.04 1.3432 0.824371 0
M  V30 13421 C 1247.45 1.23855 1.39703 0
M  V30 13422 C 1247.8 -0.136566 1.95724 0
M  V30 13423 O 1246.93 -1.03683 1.89944 0
M  V30 13424 C 1247.52 2.24249 2.53965 0
M  V30 13425 C 1246.08 2.17578 3.07143 0
M  V30 13426 C 1245.23 2.10933 1.80008 0
M  V30 13427 H 1248.18 1.45707 0.628891 0
M  V30 13428 H 1248.2 1.85864 3.32016 0
M  V30 13429 H 1247.71 3.24321 2.13161 0
M  V30 13430 H 1245.81 1.20858 3.52455 0
M  V30 13431 H 1245.92 3.08769 3.66331 0
M  V30 13432 H 1244.29 1.56631 2.00845 0
M  V30 13433 H 1245.07 3.12836 1.4138 0
M  V30 13434 N 1247.52 -1.0444 1.18026 0
M  V30 13435 C 1248.74 -1.81234 0.998089 0
M  V30 13436 C 1249.16 -1.83271 -0.453559 0
M  V30 13437 O 1248.52 -1.26545 -1.31502 0
M  V30 13438 C 1248.57 -3.27007 1.54106 0
M  V30 13439 O 1248.29 -3.25174 2.93587 0
M  V30 13440 C 1249.79 -4.20461 1.40455 0
M  V30 13441 H 1247.01 -0.57085 0.352663 0
M  V30 13442 H 1249.55 -1.31649 1.56489 0
M  V30 13443 H 1247.71 -3.73837 1.01611 0
M  V30 13444 H 1248.12 -4.16466 3.18836 0
M  V30 13445 H 1249.6 -5.20695 1.83249 0
M  V30 13446 H 1250.07 -4.37781 0.352713 0
M  V30 13447 H 1250.68 -3.79493 1.92004 0
M  V30 13448 N 1248.99 -0.981699 -1.2329 0
M  V30 13449 C 1250.24 -0.652266 -1.92024 0
M  V30 13450 C 1250.57 0.812297 -1.76396 0
M  V30 13451 O 1249.85 1.5861 -1.12575 0
M  V30 13452 C 1250.13 -1.04506 -3.44602 0
M  V30 13453 C 1249.98 -2.56735 -3.69333 0
M  V30 13454 C 1251.3 -0.589937 -4.36128 0
M  V30 13455 H 1248.42 -0.238437 -0.697364 0
M  V30 13456 H 1251.06 -1.22322 -1.45387 0
M  V30 13457 H 1249.21 -0.559242 -3.84454 0
M  V30 13458 H 1250.89 -3.12901 -3.38955 0
M  V30 13459 H 1249.13 -2.9931 -3.14 0
M  V30 13460 H 1249.8 -2.79269 -4.76144 0
M  V30 13461 H 1252.28 -1.00706 -4.0373 0
M  V30 13462 H 1251.15 -0.893192 -5.41584 0
M  V30 13463 H 1251.41 0.509707 -4.39152 0
M  V30 13464 N 1250.47 1.3842 -0.753509 0
M  V30 13465 C 1251.75 1.94181 -0.235142 0
M  V30 13466 C 1252.13 1.68881 1.26659 0
M  V30 13467 O 1251.48 1.02731 2.04104 0
M  V30 13468 C 1251.69 3.43998 -0.588751 0
M  V30 13469 C 1253.04 4.21044 -0.548352 0
M  V30 13470 O 1254.06 3.52279 -0.52704 0
M  V30 13471 O 1252.92 5.43631 -0.559221 0
M  V30 13472 H 1250.01 0.825536 -0.0491834 0
M  V30 13473 H 1252.56 1.47813 -0.833626 0
M  V30 13474 H 1251.33 3.55921 -1.6259 0
M  V30 13475 H 1250.95 3.97582 0.0377429 0
M  V30 13476 N 1251.95 0.502579 1.49372 0
M  V30 13477 C 1252.88 -0.311743 2.2707 0
M  V30 13478 C 1253.9 -0.929204 1.33677 0
M  V30 13479 O 1255.08 -0.812277 1.58948 0
M  V30 13480 C 1252.18 -1.45404 3.06122 0
M  V30 13481 C 1251.36 -0.943591 4.27101 0
M  V30 13482 C 1250.42 -1.96368 4.88186 0
M  V30 13483 O 1249.44 -1.5316 5.48207 0
M  V30 13484 N 1250.64 -3.29419 4.77978 0
M  V30 13485 H 1253.41 0.354503 2.97596 0
M  V30 13486 H 1250.97 0.335222 1.58392 0
M  V30 13487 H 1252.96 -2.13404 3.43862 0
M  V30 13488 H 1251.53 -2.02441 2.38194 0
M  V30 13489 H 1250.75 -0.0884372 3.94101 0
M  V30 13490 H 1252.04 -0.580983 5.05472 0
M  V30 13491 H 1251.44 -3.67211 4.30317 0
M  V30 13492 H 1250 -3.93129 5.19897 0
M  V30 13493 N 1253.43 -1.55816 0.23648 0
M  V30 13494 C 1254.84 -1.59159 -0.118601 0
M  V30 13495 C 1255.04 -1.25352 -1.57763 0
M  V30 13496 O 1254.1 -0.995863 -2.32032 0
M  V30 13497 C 1255.41 -2.99885 0.221175 0
M  V30 13498 C 1256.96 -3.12567 0.164624 0
M  V30 13499 C 1257.44 -4.55496 0.478285 0
M  V30 13500 N 1258.93 -4.61215 0.428402 0
M  V30 13501 C 1259.66 -5.69768 0.644398 0
M  V30 13502 N 1259.16 -6.86624 0.922966 0
M  V30 13503 N 1260.95 -5.59143 0.575814 0
M  V30 13504 H 1253.1 -1.76063 1.18809 0
M  V30 13505 H 1255.37 -0.819079 0.477297 0
M  V30 13506 H 1255.07 -3.29326 1.2344 0
M  V30 13507 H 1254.95 -3.74425 -0.456723 0
M  V30 13508 H 1257.33 -2.82914 -0.839263 0
M  V30 13509 H 1257.41 -2.40325 0.876219 0
M  V30 13510 H 1257.06 -4.85868 1.47968 0
M  V30 13511 H 1256.99 -5.25984 -0.254671 0
M  V30 13512 H 1259.48 -3.77251 0.221398 0
M  V30 13513 H 1259.79 -7.6528 1.07548 0
M  V30 13514 H 1258.14 -6.88333 0.960325 0
M  V30 13515 H 1261.33 -4.66727 0.358307 0
M  V30 13516 H 1261.5 -6.43674 0.747548 0
M  V30 13517 N 1254.91 0.036755 -1.57557 0
M  V30 13518 C 1255.84 1.03939 -2.09091 0
M  V30 13519 C 1256.82 1.38196 -0.991761 0
M  V30 13520 O 1258 1.47214 -1.26656 0
M  V30 13521 C 1255.13 2.34263 -2.56394 0
M  V30 13522 C 1254.09 2.14269 -3.70504 0
M  V30 13523 C 1253.41 3.50286 -4.03985 0
M  V30 13524 C 1254.71 1.53514 -4.9923 0
M  V30 13525 H 1256.41 0.610429 -2.93111 0
M  V30 13526 H 1253.95 0.292183 -1.41005 0
M  V30 13527 H 1255.91 3.04727 -2.91066 0
M  V30 13528 H 1254.63 2.79205 -1.69447 0
M  V30 13529 H 1253.29 1.46239 -3.36169 0
M  V30 13530 H 1252.94 3.92861 -3.14116 0
M  V30 13531 H 1252.64 3.37735 -4.80842 0
M  V30 13532 H 1254.16 4.22124 -4.41184 0
M  V30 13533 H 1255.57 2.13885 -5.31908 0
M  V30 13534 H 1253.97 1.51561 -5.80646 0
M  V30 13535 H 1255.04 0.500126 -4.82314 0
M  V30 13536 N 1256.39 1.54543 0.308881 0
M  V30 13537 C 1257.63 1.73107 1.043 0
M  V30 13538 C 1257.95 0.515481 1.88063 0
M  V30 13539 O 1257.22 -0.47036 1.90169 0
M  V30 13540 H 1255.8 0.638289 0.388068 0
M  V30 13541 H 1258.47 1.9188 0.341769 0
M  V30 13542 H 1257.56 2.61697 1.70063 0
M  V30 13543 N 1257.86 -0.571685 1.46866 0
M  V30 13544 C 1258.8 -1.69475 1.54307 0
M  V30 13545 C 1259.81 -1.57006 0.430449 0
M  V30 13546 O 1261 -1.64229 0.69936 0
M  V30 13547 C 1258.1 -3.07824 1.41766 0
M  V30 13548 C 1257.27 -3.46189 2.67342 0
M  V30 13549 C 1256.33 -4.63642 2.48843 0
M  V30 13550 O 1255.36 -4.68949 3.22608 0
M  V30 13551 N 1256.56 -5.59223 1.55724 0
M  V30 13552 H 1259.32 -1.63543 2.51145 0
M  V30 13553 H 1256.88 -0.757957 1.43062 0
M  V30 13554 H 1258.88 -3.84208 1.27146 0
M  V30 13555 H 1257.45 -3.08063 0.530667 0
M  V30 13556 H 1256.67 -2.59399 2.96826 0
M  V30 13557 H 1257.95 -3.68591 3.50739 0
M  V30 13558 H 1257.35 -5.5768 0.949175 0
M  V30 13559 H 1255.91 -6.34993 1.47063 0
M  V30 13560 N 1259.34 -1.34755 -0.817236 0
M  V30 13561 C 1260.27 -1.22648 -1.93624 0
M  V30 13562 C 1261.29 -0.152226 -1.62087 0
M  V30 13563 O 1262.48 -0.404578 -1.73855 0
M  V30 13564 C 1259.58 -0.863519 -3.27714 0
M  V30 13565 C 1258.75 -2.03394 -3.87233 0
M  V30 13566 C 1257.81 -1.64846 -4.99712 0
M  V30 13567 O 1256.83 -2.3658 -5.17705 0
M  V30 13568 N 1258.04 -0.565909 -5.77735 0
M  V30 13569 H 1260.8 -2.19051 -2.0454 0
M  V30 13570 H 1258.36 -1.27785 -0.994113 0
M  V30 13571 H 1260.35 -0.58733 -4.00415 0
M  V30 13572 H 1258.92 0.0104987 -3.12598 0
M  V30 13573 H 1258.14 -2.47454 -3.06856 0
M  V30 13574 H 1259.43 -2.81655 -4.23731 0
M  V30 13575 H 1258.83 0.030313 -5.65692 0
M  V30 13576 H 1257.39 -0.349467 -6.50862 0
M  V30 13577 N 1260.82 1.03812 -1.18578 0
M  V30 13578 C 1262.24 1.29271 -0.936011 0
M  V30 13579 C 1262.44 1.97551 0.396965 0
M  V30 13580 O 1261.49 2.25769 1.13069 0
M  V30 13581 C 1262.8 2.1489 -2.1034 0
M  V30 13582 C 1264.35 2.28228 -2.14198 0
M  V30 13583 C 1264.83 3.17214 -3.30362 0
M  V30 13584 N 1266.32 3.24802 -3.30239 0
M  V30 13585 C 1267.05 3.9382 -4.16765 0
M  V30 13586 N 1266.55 4.65147 -5.1343 0
M  V30 13587 N 1268.34 3.90125 -4.04671 0
M  V30 13588 H 1260.49 0.579011 -2.04356 0
M  V30 13589 H 1262.76 0.318021 -0.893066 0
M  V30 13590 H 1262.46 1.72029 -3.06755 0
M  V30 13591 H 1262.34 3.15576 -2.06619 0
M  V30 13592 H 1264.72 2.70324 -1.18359 0
M  V30 13593 H 1264.8 1.27124 -2.21976 0
M  V30 13594 H 1264.45 2.75829 -4.26475 0
M  V30 13595 H 1264.38 4.18356 -3.19821 0
M  V30 13596 H 1266.87 2.73994 -2.60261 0
M  V30 13597 H 1267.18 5.15414 -5.7582 0
M  V30 13598 H 1265.53 4.64043 -5.17387 0
M  V30 13599 H 1268.72 3.33536 -3.28438 0
M  V30 13600 H 1268.89 4.43641 -4.7232 0
M  V30 13601 N 1262.3 0.988223 1.22768 0
M  V30 13602 C 1263.26 0.539813 2.22752 0
M  V30 13603 C 1264.26 -0.374796 1.56371 0
M  V30 13604 O 1265.45 -0.167402 1.73394 0
M  V30 13605 C 1262.58 -0.215461 3.40218 0
M  V30 13606 H 1263.78 1.42397 2.63938 0
M  V30 13607 H 1261.33 0.774933 1.35737 0
M  V30 13608 H 1262.06 -1.11581 3.045 0
M  V30 13609 H 1261.85 0.441173 3.8961 0
M  V30 13610 H 1263.34 -0.517517 4.14381 0
M  V30 13611 N 1263.78 -1.38018 0.760839 0
M  V30 13612 C 1264.69 -2.34181 0.140232 0
M  V30 13613 C 1265.7 -1.59635 -0.692287 0
M  V30 13614 O 1266.88 -1.91788 -0.614752 0
M  V30 13615 C 1263.94 -3.38778 -0.73693 0
M  V30 13616 C 1263 -4.29157 0.110792 0
M  V30 13617 C 1262.24 -5.28758 -0.724599 0
M  V30 13618 O 1262.46 -5.35585 -1.96226 0
M  V30 13619 O 1261.39 -6.01738 -0.139565 0
M  V30 13620 H 1265.22 -2.88962 0.934588 0
M  V30 13621 H 1262.8 -1.3999 0.521835 0
M  V30 13622 H 1264.69 -4.02804 -1.23803 0
M  V30 13623 H 1263.36 -2.86341 -1.50966 0
M  V30 13624 H 1262.27 -3.68268 0.658007 0
M  V30 13625 H 1263.6 -4.84869 0.846346 0
M  V30 13626 N 1265.25 -0.510493 -1.49103 0
M  V30 13627 C 1266.53 0.0941122 -1.95373 0
M  V30 13628 C 1266.91 1.53207 -1.45227 0
M  V30 13629 O 1266.26 2.18452 -0.670161 0
M  V30 13630 C 1266.47 -0.00302507 -3.49 0
M  V30 13631 C 1267.82 0.166117 -4.24275 0
M  V30 13632 O 1268.84 0.0717097 -3.56128 0
M  V30 13633 O 1267.7 0.361155 -5.45305 0
M  V30 13634 H 1264.79 0.0900741 -0.82208 0
M  V30 13635 H 1267.34 -0.573707 -1.59708 0
M  V30 13636 H 1266.11 -1.00545 -3.78162 0
M  V30 13637 H 1265.73 0.704518 -3.91308 0
M  V30 13638 N 1266.73 1.55688 -0.24474 0
M  V30 13639 C 1267.98 1.98891 0.380603 0
M  V30 13640 C 1268.31 1.13283 1.58105 0
M  V30 13641 O 1267.56 0.183141 1.94841 0
M  V30 13642 C 1267.86 3.47487 0.835923 0
M  V30 13643 C 1267.53 4.5017 -0.256528 0
M  V30 13644 C 1266.19 4.7797 -0.556573 0
M  V30 13645 C 1268.54 5.1163 -0.994174 0
M  V30 13646 C 1265.87 5.64508 -1.59838 0
M  V30 13647 C 1268.22 5.99297 -2.02548 0
M  V30 13648 C 1266.88 6.25432 -2.3322 0
M  V30 13649 H 1266.15 0.727794 0.139273 0
M  V30 13650 H 1268.8 1.88235 -0.352113 0
M  V30 13651 H 1267.11 3.55464 1.64781 0
M  V30 13652 H 1268.8 3.78301 1.33001 0
M  V30 13653 H 1265.39 4.28598 -0.0125284 0
M  V30 13654 H 1269.58 4.90202 -0.775617 0
M  V30 13655 H 1264.83 5.83012 -1.84138 0
M  V30 13656 H 1269.01 6.45964 -2.60198 0
M  V30 13657 H 1266.63 6.92282 -3.14085 0
M  V30 13658 N 1268.21 -0.0283989 1.57574 0
M  V30 13659 C 1269.14 -1.02828 2.09639 0
M  V30 13660 C 1270.12 -1.37668 0.999076 0
M  V30 13661 O 1271.31 -1.4654 1.27435 0
M  V30 13662 C 1268.44 -2.329 2.57633 0
M  V30 13663 C 1267.39 -2.12301 3.71635 0
M  V30 13664 C 1266.72 -3.48138 4.05837 0
M  V30 13665 C 1268.02 -1.50864 5.00037 0
M  V30 13666 H 1269.71 -0.594876 2.93431 0
M  V30 13667 H 1267.26 -0.284701 1.41158 0
M  V30 13668 H 1269.21 -3.03179 2.92678 0
M  V30 13669 H 1267.93 -2.78302 1.70926 0
M  V30 13670 H 1266.59 -1.44454 3.3694 0
M  V30 13671 H 1266.24 -3.9119 3.16195 0
M  V30 13672 H 1265.94 -3.3518 4.82626 0
M  V30 13673 H 1267.46 -4.19779 4.43417 0
M  V30 13674 H 1268.88 -2.11062 5.33035 0
M  V30 13675 H 1267.27 -1.48479 5.81441 0
M  V30 13676 H 1268.34 -0.474541 4.82572 0
M  V30 13677 N 1269.69 -1.54705 -0.300681 0
M  V30 13678 C 1271.1 -1.45926 -0.646359 0
M  V30 13679 C 1271.3 -0.65072 -1.90704 0
M  V30 13680 O 1270.36 -0.158547 -2.52002 0
M  V30 13681 C 1271.67 -2.89889 -0.799059 0
M  V30 13682 C 1273.22 -2.99934 -0.894923 0
M  V30 13683 C 1273.7 -4.45093 -1.07962 0
M  V30 13684 N 1275.19 -4.48804 -1.14581 0
M  V30 13685 C 1275.92 -5.58305 -1.30702 0
M  V30 13686 N 1275.42 -6.77729 -1.43719 0
M  V30 13687 N 1277.21 -5.45994 -1.33593 0
M  V30 13688 H 1269.36 -2.05742 0.527617 0
M  V30 13689 H 1271.62 -0.931817 0.174415 0
M  V30 13690 H 1271.33 -3.51655 0.0563954 0
M  V30 13691 H 1271.2 -3.37325 -1.68796 0
M  V30 13692 H 1273.59 -2.38281 -1.74086 0
M  V30 13693 H 1273.67 -2.55794 0.0179973 0
M  V30 13694 H 1273.32 -5.0734 -0.238444 0
M  V30 13695 H 1273.25 -4.86864 -2.00677 0
M  V30 13696 H 1275.74 -3.62766 -1.05874 0
M  V30 13697 H 1276.05 -7.56937 -1.55776 0
M  V30 13698 H 1274.4 -6.80594 -1.40774 0
M  V30 13699 H 1277.59 -4.51641 -1.23035 0
M  V30 13700 H 1277.76 -6.31381 -1.45813 0
M  V30 13701 N 1271.17 0.563888 -1.47167 0
M  V30 13702 C 1272.11 1.67151 -1.59152 0
M  V30 13703 C 1273.08 1.60307 -0.434852 0
M  V30 13704 O 1274.27 1.7924 -0.654049 0
M  V30 13705 C 1271.41 3.0548 -1.60549 0
M  V30 13706 C 1270.52 3.2281 -2.87085 0
M  V30 13707 C 1269.66 4.51498 -2.79862 0
M  V30 13708 C 1268.7 4.62237 -4.01252 0
M  V30 13709 N 1267.83 5.82273 -3.92305 0
M  V30 13710 H 1272.67 1.56245 -2.53755 0
M  V30 13711 H 1270.21 0.761219 -1.25872 0
M  V30 13712 H 1272.17 3.85572 -1.59343 0
M  V30 13713 H 1270.8 3.15237 -0.69464 0
M  V30 13714 H 1269.85 2.36196 -2.98188 0
M  V30 13715 H 1271.16 3.2661 -3.76997 0
M  V30 13716 H 1270.32 5.39842 -2.76867 0
M  V30 13717 H 1269.05 4.50166 -1.87621 0
M  V30 13718 H 1268.06 3.72307 -4.04558 0
M  V30 13719 H 1269.28 4.65334 -4.94612 0
M  V30 13720 H 1267.23 5.81902 -3.02862 0
M  V30 13721 H 1267.15 5.87422 -4.7589 0
M  V30 13722 H 1268.42 6.72996 -3.93315 0
M  V30 13723 N 1272.64 1.35187 0.810078 0
M  V30 13724 C 1273.58 1.23673 1.92971 0
M  V30 13725 C 1274.59 0.160819 1.62004 0
M  V30 13726 O 1275.78 0.413793 1.73638 0
M  V30 13727 C 1272.88 0.880887 3.27252 0
M  V30 13728 C 1272.05 2.05444 3.86149 0
M  V30 13729 C 1271.11 1.67494 4.98831 0
M  V30 13730 O 1270.14 2.39322 5.16443 0
M  V30 13731 N 1271.34 0.596539 5.77427 0
M  V30 13732 H 1274.1 2.20133 2.03376 0
M  V30 13733 H 1271.66 1.2831 0.987322 0
M  V30 13734 H 1273.66 0.608556 4.00098 0
M  V30 13735 H 1272.23 0.00607926 3.12599 0
M  V30 13736 H 1271.45 2.49077 3.05539 0
M  V30 13737 H 1272.73 2.83898 4.22231 0
M  V30 13738 H 1272.13 -0.000312591 5.657 0
M  V30 13739 H 1270.69 0.383979 6.50668 0
M  V30 13740 N 1274.12 -1.03182 1.19127 0
M  V30 13741 C 1275.09 -2.09559 0.928307 0
M  V30 13742 C 1276.09 -1.60548 -0.0899992 0
M  V30 13743 O 1277.28 -1.736 0.144422 0
M  V30 13744 C 1274.41 -3.38609 0.394561 0
M  V30 13745 H 1275.6 -2.34321 1.87173 0
M  V30 13746 H 1273.15 -1.19746 1.00452 0
M  V30 13747 H 1273.89 -3.19515 -0.555046 0
M  V30 13748 H 1273.67 -3.75502 1.12873 0
M  V30 13749 H 1275.16 -4.16969 0.229569 0
M  V30 13750 N 1275.6 -0.99472 -1.22242 0
M  V30 13751 C 1277.02 -0.705762 -1.43147 0
M  V30 13752 C 1277.22 0.722908 -1.88086 0
M  V30 13753 O 1276.27 1.49359 -2.03588 0
M  V30 13754 C 1277.59 -1.71288 -2.47145 0
M  V30 13755 C 1279.13 -1.72853 -2.60942 0
M  V30 13756 C 1279.61 -2.72433 -3.68163 0
M  V30 13757 N 1281.1 -2.71039 -3.75623 0
M  V30 13758 C 1281.83 -3.44753 -4.58184 0
M  V30 13759 N 1281.33 -4.28075 -5.44724 0
M  V30 13760 N 1283.12 -3.33451 -4.52512 0
M  V30 13761 H 1275.27 -1.91738 -0.913792 0
M  V30 13762 H 1277.54 -0.82702 -0.463403 0
M  V30 13763 H 1277.24 -2.7353 -2.21075 0
M  V30 13764 H 1277.12 -1.50721 -3.45779 0
M  V30 13765 H 1279.5 -0.713085 -2.86355 0
M  V30 13766 H 1279.59 -1.9749 -1.62577 0
M  V30 13767 H 1279.23 -3.74129 -3.43497 0
M  V30 13768 H 1279.16 -2.45066 -4.66101 0
M  V30 13769 H 1281.65 -2.10581 -3.1379 0
M  V30 13770 H 1281.96 -4.81143 -6.04749 0
M  V30 13771 H 1280.31 -4.32161 -5.44299 0
M  V30 13772 H 1283.5 -2.67797 -3.8393 0
M  V30 13773 H 1283.67 -3.91158 -5.16623 0
M  V30 13774 N 1277.08 1.37613 -0.768148 0
M  V30 13775 C 1278.31 2.03756 -0.341615 0
M  V30 13776 C 1278.72 1.58063 1.03984 0
M  V30 13777 O 1278.06 0.755609 1.6744 0
M  V30 13778 C 1278.12 3.58229 -0.302032 0
M  V30 13779 C 1277.79 4.27039 -1.62747 0
M  V30 13780 C 1278.78 4.51408 -2.57928 0
M  V30 13781 C 1276.47 4.64941 -1.90092 0
M  V30 13782 C 1278.46 5.12731 -3.78663 0
M  V30 13783 C 1276.15 5.25986 -3.11098 0
M  V30 13784 C 1277.15 5.49818 -4.05203 0
M  V30 13785 O 1276.83 6.09588 -5.24078 0
M  V30 13786 H 1276.57 0.660992 -0.141655 0
M  V30 13787 H 1279.12 1.77001 -1.04211 0
M  V30 13788 H 1277.35 3.84016 0.454811 0
M  V30 13789 H 1279.04 4.05784 0.0969452 0
M  V30 13790 H 1279.81 4.22542 -2.38083 0
M  V30 13791 H 1275.68 4.45729 -1.17674 0
M  V30 13792 H 1279.23 5.31249 -4.52129 0
M  V30 13793 H 1275.13 5.54276 -3.3083 0
M  V30 13794 H 1275.89 6.28068 -5.24855 0
M  V30 13795 N 1278.56 0.518393 1.4883 0
M  V30 13796 C 1279.51 -0.270295 2.26392 0
M  V30 13797 C 1280.49 -0.9202 1.31989 0
M  V30 13798 O 1281.68 -0.824923 1.56601 0
M  V30 13799 C 1278.81 -1.32368 3.16755 0
M  V30 13800 C 1277.9 -0.679143 4.18627 0
M  V30 13801 N 1278.29 0.228392 5.05284 0
M  V30 13802 C 1276.59 -0.937712 4.36031 0
M  V30 13803 C 1277.29 0.599076 5.78607 0
M  V30 13804 N 1276.26 -0.0371273 5.43587 0
M  V30 13805 H 1280.07 0.428066 2.90766 0
M  V30 13806 H 1277.58 0.335632 1.58894 0
M  V30 13807 H 1279.58 -1.9023 3.70969 0
M  V30 13808 H 1278.24 -2.02354 2.53935 0
M  V30 13809 H 1279.25 0.600292 5.14409 0
M  V30 13810 H 1275.92 -1.62901 3.84408 0
M  V30 13811 H 1277.31 1.34256 6.5835 0
M  V30 13812 N 1280.03 -1.55556 0.252993 0
M  V30 13813 C 1281.31 -1.91022 -0.420696 0
M  V30 13814 C 1281.69 -1.17452 -1.75409 0
M  V30 13815 O 1281.04 -0.294 -2.26601 0
M  V30 13816 C 1281.25 -3.441 -0.582787 0
M  V30 13817 C 1282.6 -4.15468 -0.875873 0
M  V30 13818 O 1283.62 -3.49872 -0.668425 0
M  V30 13819 O 1282.48 -5.31508 -1.27128 0
M  V30 13820 H 1279.57 -0.7953 -0.226776 0
M  V30 13821 H 1282.12 -1.67072 0.297511 0
M  V30 13822 H 1280.89 -3.89673 0.356474 0
M  V30 13823 H 1280.52 -3.73933 -1.3513 0
M  V30 13824 N 1281.51 0.0200419 -1.57587 0
M  V30 13825 C 1282.93 0.375834 -1.55112 0
M  V30 13826 C 1283.13 1.76047 -0.980297 0
M  V30 13827 O 1282.18 2.45138 -0.605297 0
M  V30 13828 C 1283.5 0.269418 -2.99491 0
M  V30 13829 C 1285.05 0.345838 -3.11084 0
M  V30 13830 C 1285.52 0.268771 -4.57211 0
M  V30 13831 N 1287.01 0.32729 -4.62042 0
M  V30 13832 C 1287.75 0.290688 -5.72663 0
M  V30 13833 N 1287.24 0.205851 -6.92494 0
M  V30 13834 N 1289.04 0.341082 -5.61064 0
M  V30 13835 H 1281.19 -0.885979 -1.93039 0
M  V30 13836 H 1283.45 -0.337753 -0.885792 0
M  V30 13837 H 1283.16 -0.682452 -3.45015 0
M  V30 13838 H 1283.03 1.0595 -3.62014 0
M  V30 13839 H 1285.42 1.28814 -2.65501 0
M  V30 13840 H 1285.5 -0.47376 -2.51375 0
M  V30 13841 H 1285.14 -0.669906 -5.03463 0
M  V30 13842 H 1285.07 1.10659 -5.14842 0
M  V30 13843 H 1287.56 0.395004 -3.7583 0
M  V30 13844 H 1287.88 0.18327 -7.72583 0
M  V30 13845 H 1286.22 0.171768 -6.94788 0
M  V30 13846 H 1289.41 0.405415 -4.66341 0
M  V30 13847 H 1289.58 0.309091 -6.47262 0
M  V30 13848 N 1282.99 1.54862 0.292472 0
M  V30 13849 C 1283.95 1.8565 1.34413 0
M  V30 13850 C 1284.95 0.729868 1.43281 0
M  V30 13851 O 1286.14 0.998128 1.42769 0
M  V30 13852 C 1283.28 2.0444 2.72795 0
M  V30 13853 H 1284.47 2.79642 1.08354 0
M  V30 13854 H 1282.02 1.47055 0.529574 0
M  V30 13855 H 1282.76 1.12765 3.04063 0
M  V30 13856 H 1282.54 2.86451 2.67747 0
M  V30 13857 H 1284.03 2.296 3.48817 0
M  V30 13858 N 1284.47 -0.556076 1.47464 0
M  V30 13859 C 1285.88 -0.882115 1.33007 0
M  V30 13860 C 1286.08 -1.9892 0.321407 0
M  V30 13861 O 1285.14 -2.51088 -0.266668 0
M  V30 13862 C 1286.45 -1.27428 2.72365 0
M  V30 13863 C 1288 -1.38564 2.80658 0
M  V30 13864 C 1288.48 -1.81136 4.20659 0
M  V30 13865 N 1289.97 -1.88284 4.23206 0
M  V30 13866 C 1290.7 -2.22555 5.28447 0
M  V30 13867 N 1290.2 -2.55432 6.43993 0
M  V30 13868 N 1291.99 -2.23339 5.15826 0
M  V30 13869 H 1284.14 0.17481 2.11679 0
M  V30 13870 H 1286.41 0.0155421 0.947873 0
M  V30 13871 H 1286.11 -0.53463 3.47613 0
M  V30 13872 H 1285.99 -2.23019 3.04208 0
M  V30 13873 H 1288.37 -2.1161 2.05682 0
M  V30 13874 H 1288.45 -0.411588 2.52467 0
M  V30 13875 H 1288.1 -1.08659 4.96141 0
M  V30 13876 H 1288.03 -2.79546 4.46275 0
M  V30 13877 H 1290.52 -1.65259 3.3985 0
M  V30 13878 H 1290.83 -2.80612 7.20053 0
M  V30 13879 H 1289.18 -2.5301 6.47311 0
M  V30 13880 H 1292.37 -1.97094 4.24584 0
M  V30 13881 H 1292.54 -2.49717 5.97951 0
M  V30 13882 N 1285.95 -1.35615 -0.802897 0
M  V30 13883 C 1287.22 -1.19655 -1.54732 0
M  V30 13884 C 1287.6 0.222827 -2.09921 0
M  V30 13885 O 1286.95 1.2268 -1.92774 0
M  V30 13886 C 1287.16 -2.26761 -2.65293 0
M  V30 13887 C 1288.51 -2.62754 -3.33535 0
M  V30 13888 O 1289.53 -2.25702 -2.75567 0
M  V30 13889 O 1288.39 -3.26476 -4.38264 0
M  V30 13890 H 1285.49 -0.465079 -0.683835 0
M  V30 13891 H 1288.03 -1.47307 -0.84254 0
M  V30 13892 H 1286.81 -3.21946 -2.22411 0
M  V30 13893 H 1286.43 -2.00399 -3.43404 0
M  V30 13894 N 1287.43 1.02549 -1.19673 0
M  V30 13895 C 1288.84 1.57454 -1.00325 0
M  V30 13896 C 1289.19 1.91136 0.442889 0
M  V30 13897 O 1288.31 1.7126 1.32284 0
M  V30 13898 C 1288.91 2.86091 -1.81486 0
M  V30 13899 C 1287.47 3.37557 -1.6653 0
M  V30 13900 C 1286.61 2.1096 -1.79975 0
M  V30 13901 H 1289.56 0.850364 -1.33994 0
M  V30 13902 H 1289.59 3.5713 -1.31296 0
M  V30 13903 H 1289.1 2.61546 -2.86733 0
M  V30 13904 H 1287.2 3.67083 -0.638834 0
M  V30 13905 H 1287.31 4.1036 -2.47269 0
M  V30 13906 H 1285.68 2.22993 -1.23071 0
M  V30 13907 H 1286.46 1.88852 -2.86688 0
M  V30 13908 N 1288.9 1.00119 1.21713 0
M  V30 13909 C 1290.13 0.700172 1.95224 0
M  V30 13910 C 1290.55 -0.730138 1.73351 0
M  V30 13911 O 1289.91 -1.50026 1.01794 0
M  V30 13912 C 1289.96 1.02202 3.45814 0
M  V30 13913 O 1289.06 0.125188 4.1221 0
M  V30 13914 H 1288.4 0.261238 0.610451 0
M  V30 13915 H 1290.93 1.34041 1.54578 0
M  V30 13916 H 1290.94 0.967293 3.96368 0
M  V30 13917 H 1289.62 2.06422 3.61058 0
M  V30 13918 H 1288.2 0.236114 3.72152 0
M  V30 13919 N 1290.38 -1.37203 0.775435 0
M  V30 13920 C 1291.63 -1.99207 0.340756 0
M  V30 13921 C 1291.95 -1.61861 -1.08747 0
M  V30 13922 O 1291.22 -0.88583 -1.74728 0
M  V30 13923 H 1289.8 -0.736803 0.123004 0
M  V30 13924 H 1292.46 -1.67625 0.994379 0
M  V30 13925 H 1291.56 -3.09243 0.421346 0
M  V30 13926 N 1291.86 -0.526279 -1.48553 0
M  V30 13927 C 1293.08 0.00731432 -2.07399 0
M  V30 13928 C 1293.51 1.27737 -1.38075 0
M  V30 13929 O 1292.87 1.75741 -0.445503 0
M  V30 13930 C 1292.92 0.218126 -3.5994 0
M  V30 13931 O 1292.02 1.28759 -3.91784 0
M  V30 13932 H 1291.36 -0.0374784 -0.662941 0
M  V30 13933 H 1293.89 -0.733133 -1.91014 0
M  V30 13934 H 1293.9 0.44192 -4.056 0
M  V30 13935 H 1292.58 -0.709668 -4.09801 0
M  V30 13936 H 1291.15 1.04674 -3.57907 0
M  V30 13937 N 1293.34 1.5542 -0.261239 0
M  V30 13938 C 1294.3 2.20683 0.619011 0
M  V30 13939 C 1295.3 1.18042 1.09192 0
M  V30 13940 O 1296.49 1.43035 0.99432 0
M  V30 13941 C 1293.62 2.86179 1.85242 0
M  V30 13942 H 1294.82 2.99859 0.0493924 0
M  V30 13943 H 1292.37 1.56296 -0.0117687 0
M  V30 13944 H 1293.1 2.10978 2.4629 0
M  V30 13945 H 1292.89 3.61381 1.52138 0
M  V30 13946 H 1294.38 3.36081 2.47869 0
M  V30 13947 N 1294.82 -0.0116844 1.57596 0
M  V30 13948 C 1296.06 -0.697577 1.89679 0
M  V30 13949 C 1296.38 -1.74956 0.861122 0
M  V30 13950 O 1295.65 -1.95629 -0.103031 0
M  V30 13951 H 1294.23 -0.26064 0.700054 0
M  V30 13952 H 1296.9 0.0264782 1.94882 0
M  V30 13953 H 1295.99 -1.17621 2.89088 0
M  V30 13954 N 1296.29 -1.55015 -0.284256 0
M  V30 13955 C 1297.22 -1.90128 -1.3555 0
M  V30 13956 C 1298.2 -0.761914 -1.52082 0
M  V30 13957 O 1299.39 -1.01909 -1.65312 0
M  V30 13958 C 1296.52 -2.16332 -2.71695 0
M  V30 13959 C 1295.47 -3.32166 -2.69907 0
M  V30 13960 C 1294.8 -3.43824 -4.09498 0
M  V30 13961 C 1296.1 -4.6885 -2.30168 0
M  V30 13962 H 1297.79 -2.79852 -1.06411 0
M  V30 13963 H 1295.34 -1.34649 -0.510451 0
M  V30 13964 H 1297.29 -2.39482 -3.46737 0
M  V30 13965 H 1296.02 -1.23395 -3.02392 0
M  V30 13966 H 1294.68 -3.08965 -1.97322 0
M  V30 13967 H 1294.32 -2.48375 -4.374 0
M  V30 13968 H 1294.02 -4.21698 -4.092 0
M  V30 13969 H 1295.55 -3.69254 -4.86296 0
M  V30 13970 H 1296.96 -4.91619 -2.9493 0
M  V30 13971 H 1295.36 -5.49558 -2.41052 0
M  V30 13972 H 1296.43 -4.68433 -1.25294 0
M  V30 13973 N 1297.77 0.548248 -1.47757 0
M  V30 13974 C 1299.05 1.3092 -1.45325 0
M  V30 13975 C 1299.43 2.1053 -0.155008 0
M  V30 13976 O 1298.78 2.11558 0.863455 0
M  V30 13977 C 1298.99 2.20614 -2.70426 0
M  V30 13978 C 1300.33 2.81345 -3.18009 0
M  V30 13979 O 1301.36 2.30911 -2.71216 0
M  V30 13980 O 1300.22 3.73036 -3.99383 0
M  V30 13981 H 1297.31 0.58996 -0.579548 0
M  V30 13982 H 1299.86 0.56641 -1.59968 0
M  V30 13983 H 1298.63 1.61449 -3.56441 0
M  V30 13984 H 1298.25 3.02173 -2.58413 0
M  V30 13985 N 1299.25 1.36039 0.795694 0
M  V30 13986 C 1300.21 1.29709 1.88966 0
M  V30 13987 C 1301.21 0.206142 1.59473 0
M  V30 13988 O 1302.4 0.460534 1.68002 0
M  V30 13989 C 1299.53 1.00922 3.25619 0
M  V30 13990 H 1300.73 2.26993 1.95995 0
M  V30 13991 H 1298.28 1.2072 0.992791 0
M  V30 13992 H 1299.02 0.0407027 3.24274 0
M  V30 13993 H 1298.8 1.79863 3.48413 0
M  V30 13994 H 1300.29 0.990826 4.05675 0
M  V30 13995 N 1300.73 -1.01913 1.20215 0
M  V30 13996 C 1302.14 -1.27766 0.956459 0
M  V30 13997 C 1302.34 -1.98158 -0.365486 0
M  V30 13998 O 1301.4 -2.27539 -1.09463 0
M  V30 13999 C 1302.71 -2.11516 2.13732 0
M  V30 14000 C 1304.26 -2.24792 2.17802 0
M  V30 14001 C 1304.74 -3.11919 3.35367 0
M  V30 14002 N 1306.23 -3.19507 3.35364 0
M  V30 14003 C 1306.96 -3.8714 4.22978 0
M  V30 14004 N 1306.46 -4.5692 5.20765 0
M  V30 14005 N 1308.25 -3.83638 4.10827 0
M  V30 14006 H 1300.4 -0.546426 2.05251 0
M  V30 14007 H 1302.67 -0.303772 0.898012 0
M  V30 14008 H 1302.37 -1.67127 3.09453 0
M  V30 14009 H 1302.25 -3.12249 2.11614 0
M  V30 14010 H 1304.63 -2.68407 1.22645 0
M  V30 14011 H 1304.71 -1.23576 2.2397 0
M  V30 14012 H 1304.36 -2.6901 4.30809 0
M  V30 14013 H 1304.29 -4.13215 3.26436 0
M  V30 14014 H 1306.78 -2.69819 2.64587 0
M  V30 14015 H 1307.09 -5.06188 5.83947 0
M  V30 14016 H 1305.44 -4.55753 5.24704 0
M  V30 14017 H 1308.63 -3.28268 3.33703 0
M  V30 14018 H 1308.8 -4.36071 4.79318 0
M  V30 14019 N 1302.21 -1.00763 -1.2118 0
M  V30 14020 C 1303.62 -0.720905 -1.42391 0
M  V30 14021 C 1303.82 0.702918 -1.88842 0
M  V30 14022 O 1302.88 1.47191 -2.05161 0
M  V30 14023 C 1304.19 -1.739 -2.45315 0
M  V30 14024 C 1305.74 -1.75611 -2.59094 0
M  V30 14025 C 1306.21 -2.76323 -3.65253 0
M  V30 14026 N 1307.71 -2.75007 -3.72727 0
M  V30 14027 C 1308.44 -3.49594 -4.54502 0
M  V30 14028 N 1307.94 -4.33828 -5.40153 0
M  V30 14029 N 1309.73 -3.38232 -4.4895 0
M  V30 14030 H 1301.88 -1.92697 -0.893404 0
M  V30 14031 H 1304.14 -0.831888 -0.454606 0
M  V30 14032 H 1303.85 -2.75859 -2.18162 0
M  V30 14033 H 1303.72 -1.5438 -3.44161 0
M  V30 14034 H 1306.11 -0.743416 -2.85582 0
M  V30 14035 H 1306.19 -1.99203 -1.60474 0
M  V30 14036 H 1305.84 -3.77751 -3.39509 0
M  V30 14037 H 1305.77 -2.49996 -4.63476 0
M  V30 14038 H 1308.26 -2.13897 -3.11539 0
M  V30 14039 H 1308.57 -4.8753 -5.99612 0
M  V30 14040 H 1306.91 -4.3791 -5.39685 0
M  V30 14041 H 1310.11 -2.71855 -3.81068 0
M  V30 14042 H 1310.28 -3.96615 -5.12445 0
M  V30 14043 N 1303.68 1.3679 -0.7827 0
M  V30 14044 C 1305.1 1.82006 -0.41603 0
M  V30 14045 C 1305.45 1.65151 1.05922 0
M  V30 14046 O 1304.57 1.1687 1.82127 0
M  V30 14047 C 1305.17 3.30432 -0.748353 0
M  V30 14048 C 1303.73 3.73883 -0.4346 0
M  V30 14049 C 1302.87 2.59159 -0.986505 0
M  V30 14050 H 1305.82 1.25107 -0.976423 0
M  V30 14051 H 1305.84 3.80482 -0.036985 0
M  V30 14052 H 1305.36 3.42667 -1.82212 0
M  V30 14053 H 1303.46 3.67211 0.631401 0
M  V30 14054 H 1303.57 4.69577 -0.950511 0
M  V30 14055 H 1301.93 2.51377 -0.410108 0
M  V30 14056 H 1302.72 2.74182 -2.06589 0
M  V30 14057 N 1305.16 0.53415 1.48272 0
M  V30 14058 C 1306.41 0.00971554 2.03398 0
M  V30 14059 C 1306.76 -1.316 1.40353 0
M  V30 14060 O 1306.06 -1.83786 0.541589 0
M  V30 14061 C 1306.25 -0.165144 3.57018 0
M  V30 14062 C 1306.08 1.14208 4.34956 0
M  V30 14063 C 1304.85 1.70309 4.75734 0
M  V30 14064 C 1307.05 2.05371 4.71516 0
M  V30 14065 N 1305.03 2.95276 5.38224 0
M  V30 14066 C 1306.4 3.14915 5.34068 0
M  V30 14067 C 1308.46 2.05647 4.53447 0
M  V30 14068 C 1307.16 4.24804 5.8046 0
M  V30 14069 C 1309.18 3.14533 5.00823 0
M  V30 14070 C 1308.55 4.22795 5.63404 0
M  V30 14071 H 1304.65 0.0451562 0.780695 0
M  V30 14072 H 1307.23 0.71635 1.81043 0
M  V30 14073 H 1305.4 -0.840869 3.79189 0
M  V30 14074 H 1307.13 -0.68956 3.98782 0
M  V30 14075 H 1303.89 1.24395 4.56971 0
M  V30 14076 H 1304.31 3.58911 5.74031 0
M  V30 14077 H 1308.95 1.23239 4.0444 0
M  V30 14078 H 1306.67 5.07987 6.2847 0
M  V30 14079 H 1310.26 3.15806 4.88629 0
M  V30 14080 H 1309.14 5.05661 5.99397 0
M  V30 14081 N 1306.64 -1.55279 0.269478 0
M  V30 14082 C 1307.6 -2.21008 -0.607299 0
M  V30 14083 C 1308.6 -1.18619 -1.08564 0
M  V30 14084 O 1309.79 -1.4356 -0.986721 0
M  V30 14085 C 1306.93 -2.87157 -1.83721 0
M  V30 14086 H 1308.12 -2.99881 -0.0334894 0
M  V30 14087 H 1305.67 -1.56287 0.0200573 0
M  V30 14088 H 1306.41 -2.12281 -2.45168 0
M  V30 14089 H 1306.19 -3.62183 -1.5022 0
M  V30 14090 H 1307.68 -3.37391 -2.46083 0
M  V30 14091 N 1308.12 0.00332656 -1.576 0
M  V30 14092 C 1309.37 0.687508 -1.90047 0
M  V30 14093 C 1309.69 1.74497 -0.870388 0
M  V30 14094 O 1308.96 1.95681 0.0926544 0
M  V30 14095 H 1307.54 0.256924 -0.701426 0
M  V30 14096 H 1310.2 -0.0368129 -1.94865 0
M  V30 14097 H 1309.3 1.16086 -2.89707 0
M  V30 14098 N 1309.6 1.55164 0.276031 0
M  V30 14099 C 1310.82 1.7998 1.03063 0
M  V30 14100 C 1311.25 0.569769 1.79263 0
M  V30 14101 O 1310.6 -0.48054 1.74816 0
M  V30 14102 C 1310.65 3.02209 1.96728 0
M  V30 14103 O 1309.76 2.77083 3.05449 0
M  V30 14104 H 1309.1 0.594963 0.294814 0
M  V30 14105 H 1311.63 2.02301 0.305861 0
M  V30 14106 H 1311.64 3.3086 2.38738 0
M  V30 14107 H 1310.31 3.91386 1.40677 0
M  V30 14108 H 1308.89 2.5952 2.67776 0
M  V30 14109 N 1311.07 -0.540404 1.48045 0
M  V30 14110 C 1312.01 -1.66164 1.57867 0
M  V30 14111 C 1313.02 -1.56058 0.463655 0
M  V30 14112 O 1314.21 -1.62709 0.734038 0
M  V30 14113 C 1311.31 -3.04748 1.48263 0
M  V30 14114 C 1310.48 -3.40441 2.74625 0
M  V30 14115 C 1309.54 -4.58259 2.58621 0
M  V30 14116 O 1308.57 -4.62 3.32482 0
M  V30 14117 N 1309.77 -5.55794 1.67551 0
M  V30 14118 H 1312.53 -1.58179 2.54557 0
M  V30 14119 H 1310.09 -0.727441 1.44637 0
M  V30 14120 H 1312.09 -3.81425 1.35267 0
M  V30 14121 H 1310.66 -3.06868 0.595892 0
M  V30 14122 H 1309.88 -2.53044 3.02262 0
M  V30 14123 H 1311.16 -3.61069 3.58478 0
M  V30 14124 H 1310.56 -5.55541 1.06725 0
M  V30 14125 H 1309.12 -6.3173 1.60499 0
M  V30 14126 N 1312.55 -1.36459 -0.788468 0
M  V30 14127 C 1313.46 -1.33017 -1.93245 0
M  V30 14128 C 1314.48 -0.232212 -1.72444 0
M  V30 14129 O 1315.65 -0.464743 -1.95965 0
M  V30 14130 C 1312.72 -1.1197 -3.28121 0
M  V30 14131 C 1311.78 -2.3125 -3.61693 0
M  V30 14132 C 1311.01 -2.11197 -4.90134 0
M  V30 14133 O 1311.24 -1.08764 -5.59934 0
M  V30 14134 O 1310.17 -2.98996 -5.22384 0
M  V30 14135 H 1314 -2.29333 -1.99098 0
M  V30 14136 H 1311.58 -1.17016 -0.928856 0
M  V30 14137 H 1313.46 -1.02154 -4.08831 0
M  V30 14138 H 1312.14 -0.187171 -3.23158 0
M  V30 14139 H 1311.05 -2.46635 -2.81286 0
M  V30 14140 H 1312.38 -3.23012 -3.71381 0
M  V30 14141 N 1314.03 1.01274 -1.20754 0
M  V30 14142 C 1314.99 2.08056 -0.961528 0
M  V30 14143 C 1315.99 1.60671 0.0644461 0
M  V30 14144 O 1317.18 1.73349 -0.172022 0
M  V30 14145 C 1314.32 3.37938 -0.448381 0
M  V30 14146 H 1315.51 2.31314 -1.90877 0
M  V30 14147 H 1313.06 1.18133 -1.02344 0
M  V30 14148 H 1313.8 3.20357 0.504144 0
M  V30 14149 H 1313.58 3.73659 -1.18833 0
M  V30 14150 H 1315.07 4.16551 -0.295876 0
M  V30 14151 N 1315.51 1.01404 1.20644 0
M  V30 14152 C 1316.42 0.591693 2.27016 0
M  V30 14153 C 1317.44 -0.36958 1.7003 0
M  V30 14154 O 1318.61 -0.231165 2.00069 0
M  V30 14155 C 1315.68 -0.0659827 3.46637 0
M  V30 14156 C 1314.74 0.940911 4.18862 0
M  V30 14157 C 1313.97 0.314526 5.32772 0
M  V30 14158 O 1314.19 -0.886404 5.63471 0
M  V30 14159 O 1313.13 1.02998 5.93022 0
M  V30 14160 H 1316.95 1.4772 2.65353 0
M  V30 14161 H 1314.54 0.783399 1.27213 0
M  V30 14162 H 1316.42 -0.433412 4.19165 0
M  V30 14163 H 1315.1 -0.925729 3.10181 0
M  V30 14164 H 1314 1.35966 3.48517 0
M  V30 14165 H 1315.34 1.77054 4.59252 0
M  V30 14166 N 1316.99 -1.36373 0.789944 0
M  V30 14167 C 1317.92 -2.32616 0.202944 0
M  V30 14168 C 1318.9 -1.56674 -0.662364 0
M  V30 14169 O 1320.08 -1.84826 -0.596078 0
M  V30 14170 C 1317.21 -3.4092 -0.662646 0
M  V30 14171 C 1316.17 -4.27877 0.102811 0
M  V30 14172 C 1315.49 -5.27352 -0.883407 0
M  V30 14173 C 1316.79 -5.0606 1.29231 0
M  V30 14174 H 1318.49 -2.81958 1.00699 0
M  V30 14175 H 1316.03 -1.35562 0.48568 0
M  V30 14176 H 1317.99 -4.07239 -1.08324 0
M  V30 14177 H 1316.71 -2.90147 -1.4994 0
M  V30 14178 H 1315.37 -3.63114 0.504389 0
M  V30 14179 H 1315.02 -4.72853 -1.71521 0
M  V30 14180 H 1314.72 -5.86398 -0.375669 0
M  V30 14181 H 1316.24 -5.96545 -1.30256 0
M  V30 14182 H 1317.66 -5.65417 0.947446 0
M  V30 14183 H 1316.05 -5.74521 1.73338 0
M  V30 14184 H 1317.12 -4.37671 2.08739 0
M  V30 14185 N 1318.47 -0.542005 -1.47987 0
M  V30 14186 C 1319.69 -0.0146835 -2.07395 0
M  V30 14187 C 1320.12 1.26266 -1.39422 0
M  V30 14188 O 1319.47 1.75259 -0.464118 0
M  V30 14189 C 1319.52 0.179937 -3.60151 0
M  V30 14190 O 1318.63 1.24596 -3.93128 0
M  V30 14191 H 1317.97 -0.0445076 -0.662507 0
M  V30 14192 H 1320.5 -0.753352 -1.90226 0
M  V30 14193 H 1320.51 0.398876 -4.06046 0
M  V30 14194 H 1319.18 -0.753093 -4.09025 0
M  V30 14195 H 1317.76 1.00872 -3.58997 0
M  V30 14196 N 1319.94 1.55134 -0.277709 0
M  V30 14197 C 1321.36 1.59417 0.0763615 0
M  V30 14198 C 1321.56 1.29491 1.54384 0
M  V30 14199 O 1320.62 1.05703 2.2931 0
M  V30 14200 C 1321.93 2.99194 -0.300607 0
M  V30 14201 C 1323.48 3.1202 -0.247438 0
M  V30 14202 C 1323.95 4.54068 -0.598884 0
M  V30 14203 N 1325.44 4.59917 -0.550534 0
M  V30 14204 C 1326.18 5.67859 -0.795235 0
M  V30 14205 N 1325.67 6.83936 -1.10469 0
M  V30 14206 N 1327.47 5.5742 -0.723859 0
M  V30 14207 H 1319.62 1.72851 -1.23435 0
M  V30 14208 H 1321.88 0.806137 -0.498846 0
M  V30 14209 H 1321.59 3.25937 -1.32129 0
M  V30 14210 H 1321.46 3.75504 0.35729 0
M  V30 14211 H 1323.85 2.8504 0.763959 0
M  V30 14212 H 1323.93 2.37917 -0.939629 0
M  V30 14213 H 1323.57 4.81774 -1.60798 0
M  V30 14214 H 1323.5 5.26474 0.115126 0
M  V30 14215 H 1325.99 3.76531 -0.321341 0
M  V30 14216 H 1326.31 7.62159 -1.278 0
M  V30 14217 H 1324.65 6.85545 -1.14249 0
M  V30 14218 H 1327.84 4.65613 -0.481925 0
M  V30 14219 H 1328.02 6.41465 -0.917944 0
M  V30 14220 N 1321.42 0.00503138 1.57599 0
M  V30 14221 C 1322.33 -1.00097 2.12174 0
M  V30 14222 C 1323.35 -1.37353 1.06818 0
M  V30 14223 O 1324.52 -1.45984 1.38747 0
M  V30 14224 C 1321.59 -2.27252 2.61835 0
M  V30 14225 C 1320.65 -1.96262 3.81811 0
M  V30 14226 C 1319.88 -3.17355 4.29094 0
M  V30 14227 O 1320.11 -4.2921 3.75679 0
M  V30 14228 O 1319.04 -3.01059 5.21198 0
M  V30 14229 H 1322.87 -0.567024 2.9836 0
M  V30 14230 H 1320.45 -0.214109 1.47858 0
M  V30 14231 H 1322.33 -3.01944 2.93952 0
M  V30 14232 H 1321.01 -2.69875 1.78744 0
M  V30 14233 H 1319.91 -1.19031 3.54658 0
M  V30 14234 H 1321.25 -1.58473 4.65991 0
M  V30 14235 N 1322.9 -1.55308 -0.267798 0
M  V30 14236 C 1324.15 -1.75811 -0.996734 0
M  V30 14237 C 1324.47 -0.565161 -1.8663 0
M  V30 14238 O 1323.74 0.419775 -1.9135 0
M  V30 14239 H 1322.32 -0.648353 -0.371008 0
M  V30 14240 H 1324.98 -1.92719 -0.290775 0
M  V30 14241 H 1324.08 -2.66113 -1.63064 0
M  V30 14242 N 1324.38 0.532545 -1.4833 0
M  V30 14243 C 1325.79 1.11451 -1.49785 0
M  V30 14244 C 1326.14 1.94386 -0.266207 0
M  V30 14245 O 1325.26 2.07121 0.62688 0
M  V30 14246 C 1325.86 2.0279 -2.71407 0
M  V30 14247 C 1324.42 2.56209 -2.75742 0
M  V30 14248 C 1323.57 1.33114 -2.43261 0
M  V30 14249 H 1326.52 0.317924 -1.55483 0
M  V30 14250 H 1326.54 2.87038 -2.49779 0
M  V30 14251 H 1326.05 1.42401 -3.61031 0
M  V30 14252 H 1324.15 3.20327 -1.9032 0
M  V30 14253 H 1324.26 2.95518 -3.77102 0
M  V30 14254 H 1322.63 1.64607 -1.94362 0
M  V30 14255 H 1323.41 0.744809 -3.35123 0
M  V30 14256 N 1325.86 1.36875 0.78122 0
M  V30 14257 C 1327.09 1.34537 1.56791 0
M  V30 14258 C 1327.49 -0.0734709 1.89057 0
M  V30 14259 O 1326.84 -1.04307 1.51215 0
M  V30 14260 C 1326.9 2.10971 2.91087 0
M  V30 14261 C 1326.56 3.60005 2.81506 0
M  V30 14262 C 1327.56 4.54085 2.53185 0
M  V30 14263 C 1325.24 4.03001 2.99826 0
M  V30 14264 C 1327.24 5.89139 2.43298 0
M  V30 14265 C 1324.93 5.38144 2.89559 0
M  V30 14266 C 1325.92 6.31026 2.61335 0
M  V30 14267 O 1325.61 7.63685 2.51077 0
M  V30 14268 H 1325.34 0.46284 0.492702 0
M  V30 14269 H 1327.9 1.80683 0.976869 0
M  V30 14270 H 1326.13 1.595 3.52274 0
M  V30 14271 H 1327.82 2.01387 3.52418 0
M  V30 14272 H 1328.58 4.22178 2.38727 0
M  V30 14273 H 1324.46 3.31073 3.20799 0
M  V30 14274 H 1328.01 6.61605 2.21188 0
M  V30 14275 H 1323.9 5.69656 3.03583 0
M  V30 14276 H 1324.67 7.739 2.66498 0
M  V30 14277 N 1327.33 -1.00632 1.21289 0
M  V30 14278 C 1328.58 -1.74044 1.02728 0
M  V30 14279 C 1328.9 -1.89963 -0.440351 0
M  V30 14280 O 1328.17 -1.44958 -1.31772 0
M  V30 14281 H 1326.75 -0.644813 0.377127 0
M  V30 14282 H 1329.41 -1.21272 1.52575 0
M  V30 14283 H 1328.51 -2.74011 1.49413 0
M  V30 14284 N 1328.81 -1.02043 -1.20104 0
M  V30 14285 C 1330.23 -0.735967 -1.41618 0
M  V30 14286 C 1330.43 0.68285 -1.89577 0
M  V30 14287 O 1329.48 1.45007 -2.06711 0
M  V30 14288 C 1330.8 -1.76492 -2.43457 0
M  V30 14289 C 1332.34 -1.78349 -2.57217 0
M  V30 14290 C 1332.82 -2.80181 -3.62302 0
M  V30 14291 N 1334.31 -2.78945 -3.69789 0
M  V30 14292 C 1335.05 -3.54395 -4.50768 0
M  V30 14293 N 1334.54 -4.39533 -5.35521 0
M  V30 14294 N 1336.33 -3.42974 -4.45337 0
M  V30 14295 H 1328.49 -1.93634 -0.872916 0
M  V30 14296 H 1330.75 -0.836663 -0.445757 0
M  V30 14297 H 1330.45 -2.78158 -2.15223 0
M  V30 14298 H 1330.33 -1.58022 -3.42504 0
M  V30 14299 H 1332.72 -0.773665 -2.84778 0
M  V30 14300 H 1332.8 -2.00894 -1.58352 0
M  V30 14301 H 1332.44 -3.81331 -3.35484 0
M  V30 14302 H 1332.37 -2.54898 -4.60798 0
M  V30 14303 H 1334.86 -2.17189 -3.09253 0
M  V30 14304 H 1335.17 -4.93863 -5.94407 0
M  V30 14305 H 1333.52 -4.43609 -5.3501 0
M  V30 14306 H 1336.71 -2.75881 -3.78163 0
M  V30 14307 H 1336.88 -4.02028 -5.0821 0
M  V30 14308 N 1330.29 1.35952 -0.797165 0
M  V30 14309 C 1331.2 2.33726 -0.202271 0
M  V30 14310 C 1332.22 1.61415 0.649719 0
M  V30 14311 O 1333.39 1.93351 0.563686 0
M  V30 14312 C 1330.46 3.40612 0.64685 0
M  V30 14313 C 1329.52 4.28712 -0.224536 0
M  V30 14314 C 1328.75 5.30493 0.584153 0
M  V30 14315 O 1328.97 5.40599 1.81957 0
M  V30 14316 O 1327.91 6.01897 -0.0200239 0
M  V30 14317 H 1331.73 2.86383 -1.01087 0
M  V30 14318 H 1329.32 1.38557 -0.558768 0
M  V30 14319 H 1331.2 4.05944 1.1308 0
M  V30 14320 H 1329.88 2.90243 1.43321 0
M  V30 14321 H 1328.78 3.66394 -0.755415 0
M  V30 14322 H 1330.12 4.82454 -0.974603 0
M  V30 14323 N 1331.77 0.549846 1.47697 0
M  V30 14324 C 1332.99 0.0256819 2.07384 0
M  V30 14325 C 1333.42 -1.25525 1.4009 0
M  V30 14326 O 1332.78 -1.7501 0.473406 0
M  V30 14327 C 1332.82 -0.160835 3.60241 0
M  V30 14328 O 1331.93 -1.22509 3.93783 0
M  V30 14329 H 1331.27 0.0480204 0.662261 0
M  V30 14330 H 1333.8 0.763429 1.89823 0
M  V30 14331 H 1333.81 -0.377337 4.06251 0
M  V30 14332 H 1332.48 0.774774 4.0862 0
M  V30 14333 H 1331.06 -0.98967 3.59527 0
M  V30 14334 N 1333.25 -1.54984 0.285932 0
M  V30 14335 C 1334.52 -1.91872 -0.380083 0
M  V30 14336 C 1334.9 -1.21146 -1.72878 0
M  V30 14337 O 1334.25 -0.341999 -2.25926 0
M  V30 14338 C 1334.46 -3.45258 -0.509667 0
M  V30 14339 C 1335.81 -4.17232 -0.787549 0
M  V30 14340 O 1336.83 -3.51211 -0.594062 0
M  V30 14341 O 1335.69 -5.34085 -1.15826 0
M  V30 14342 H 1332.79 -0.799931 -0.209856 0
M  V30 14343 H 1335.33 -1.66403 0.332882 0
M  V30 14344 H 1334.1 -3.88829 0.439049 0
M  V30 14345 H 1333.73 -3.76715 -1.27168 0
M  V30 14346 N 1334.72 -0.0133892 -1.57594 0
M  V30 14347 C 1335.67 0.982482 -2.05746 0
M  V30 14348 C 1336.66 1.29508 -0.954801 0
M  V30 14349 O 1337.85 1.28382 -1.21848 0
M  V30 14350 C 1334.98 2.27012 -2.57527 0
M  V30 14351 C 1334.07 1.98658 -3.74694 0
M  V30 14352 N 1334.46 1.40512 -4.85891 0
M  V30 14353 C 1332.75 2.28732 -3.82881 0
M  V30 14354 C 1333.46 1.28933 -5.67231 0
M  V30 14355 N 1332.43 1.77951 -5.13648 0
M  V30 14356 H 1336.23 0.527626 -2.89125 0
M  V30 14357 H 1333.75 0.192001 -1.61261 0
M  V30 14358 H 1335.74 2.99212 -2.90306 0
M  V30 14359 H 1334.4 2.73139 -1.75572 0
M  V30 14360 H 1335.42 1.08217 -5.06468 0
M  V30 14361 H 1332.09 2.77641 -3.11804 0
M  V30 14362 H 1333.48 0.841051 -6.66615 0
M  V30 14363 N 1336.2 1.55448 0.259558 0
M  V30 14364 C 1337.15 1.85637 1.32374 0
M  V30 14365 C 1338.14 0.716256 1.44078 0
M  V30 14366 O 1339.33 0.977907 1.47533 0
M  V30 14367 C 1336.46 2.14353 2.68156 0
M  V30 14368 C 1335.54 3.34659 2.60508 0
M  V30 14369 N 1335.93 4.54241 2.22484 0
M  V30 14370 C 1334.23 3.37517 2.91545 0
M  V30 14371 C 1334.93 5.36358 2.25157 0
M  V30 14372 N 1333.91 4.751 2.64162 0
M  V30 14373 H 1337.71 2.75631 1.02005 0
M  V30 14374 H 1335.23 1.55505 0.468194 0
M  V30 14375 H 1337.22 2.34141 3.4494 0
M  V30 14376 H 1335.88 1.25651 2.99403 0
M  V30 14377 H 1336.89 4.80096 1.94237 0
M  V30 14378 H 1333.57 2.59048 3.27414 0
M  V30 14379 H 1334.96 6.42 1.98206 0
M  V30 14380 N 1337.68 -0.524672 1.4861 0
M  V30 14381 C 1338.64 -1.61092 1.63039 0
M  V30 14382 C 1339.64 -1.52718 0.503387 0
M  V30 14383 O 1340.83 -1.56293 0.769304 0
M  V30 14384 C 1337.97 -3.00722 1.60558 0
M  V30 14385 H 1339.16 -1.49636 2.59902 0
M  V30 14386 H 1336.71 -0.747135 1.37287 0
M  V30 14387 H 1337.45 -3.1768 0.651926 0
M  V30 14388 H 1337.23 -3.0821 2.42382 0
M  V30 14389 H 1338.72 -3.79688 1.73859 0
M  V30 14390 N 1339.16 -1.37287 -0.77395 0
M  V30 14391 C 1340.57 -1.18039 -1.0742 0
M  V30 14392 C 1340.77 -0.0150339 -2.01494 0
M  V30 14393 O 1339.83 0.645562 -2.44108 0
M  V30 14394 C 1341.14 -2.49808 -1.67382 0
M  V30 14395 C 1342.69 -2.5631 -1.7965 0
M  V30 14396 C 1343.17 -3.88204 -2.43025 0
M  V30 14397 N 1344.66 -3.89634 -2.50478 0
M  V30 14398 C 1345.39 -4.88437 -3.00361 0
M  V30 14399 N 1344.89 -5.97635 -3.50434 0
M  V30 14400 N 1346.68 -4.75843 -2.99215 0
M  V30 14401 H 1338.83 -2.11875 -0.149269 0
M  V30 14402 H 1341.1 -0.939203 -0.128846 0
M  V30 14403 H 1340.8 -3.35433 -1.05726 0
M  V30 14404 H 1340.68 -2.66737 -2.66704 0
M  V30 14405 H 1343.06 -1.71094 -2.40439 0
M  V30 14406 H 1343.14 -2.43266 -0.790894 0
M  V30 14407 H 1342.79 -4.73834 -1.82876 0
M  V30 14408 H 1342.72 -3.98551 -3.44187 0
M  V30 14409 H 1345.21 -3.10751 -2.15039 0
M  V30 14410 H 1345.52 -6.6898 -3.86893 0
M  V30 14411 H 1343.87 -6.01283 -3.48545 0
M  V30 14412 H 1347.06 -3.89656 -2.59395 0
M  V30 14413 H 1347.23 -5.52999 -3.37781 0
M  V30 14414 N 1340.64 0.999871 -1.21821 0
M  V30 14415 C 1341.55 2.12303 -0.99823 0
M  V30 14416 C 1342.56 1.73924 0.0512923 0
M  V30 14417 O 1343.74 2.00914 -0.139895 0
M  V30 14418 C 1340.8 3.41962 -0.571232 0
M  V30 14419 C 1339.86 3.94483 -1.69356 0
M  V30 14420 C 1339.1 5.17954 -1.28685 0
M  V30 14421 O 1339.32 5.70168 -0.162641 0
M  V30 14422 O 1338.25 5.64051 -2.10071 0
M  V30 14423 H 1342.08 2.3374 -1.93905 0
M  V30 14424 H 1339.67 1.10677 -1.00354 0
M  V30 14425 H 1341.55 4.20001 -0.343134 0
M  V30 14426 H 1340.22 3.21901 0.340814 0
M  V30 14427 H 1339.13 3.17648 -1.97612 0
M  V30 14428 H 1340.46 4.18964 -2.58322 0
M  V30 14429 N 1342.11 1.02678 1.19562 0
M  V30 14430 C 1343.36 0.72059 1.88817 0
M  V30 14431 C 1343.68 -0.752942 1.79877 0
M  V30 14432 O 1342.95 -1.54233 1.20785 0
M  V30 14433 H 1341.53 0.26355 0.698964 0
M  V30 14434 H 1344.2 1.30056 1.4516 0
M  V30 14435 H 1343.29 1.01303 2.95202 0
M  V30 14436 N 1343.59 -1.35528 0.804364 0
M  V30 14437 C 1344.82 -2.03604 0.395013 0
M  V30 14438 C 1345.24 -1.60225 -0.985371 0
M  V30 14439 O 1344.6 -0.777844 -1.63766 0
M  V30 14440 C 1344.65 -3.57337 0.484011 0
M  V30 14441 O 1343.75 -4.09316 -0.503395 0
M  V30 14442 H 1343.09 -0.643089 0.165325 0
M  V30 14443 H 1345.62 -1.73171 1.08963 0
M  V30 14444 H 1345.63 -4.0647 0.353009 0
M  V30 14445 H 1344.31 -3.8826 1.49088 0
M  V30 14446 H 1342.89 -3.71412 -0.332817 0
M  V30 14447 N 1345.07 -0.557671 -1.47404 0
M  V30 14448 C 1346 0.178019 -2.3282 0
M  V30 14449 C 1346.98 0.908318 -1.43818 0
M  V30 14450 O 1348.17 0.888693 -1.72673 0
M  V30 14451 C 1345.3 1.2082 -3.25607 0
M  V30 14452 C 1344.25 0.594335 -4.23853 0
M  V30 14453 C 1343.58 1.72919 -5.05968 0
M  V30 14454 C 1344.88 -0.452196 -5.20339 0
M  V30 14455 H 1346.57 -0.535091 -2.9458 0
M  V30 14456 H 1344.12 -0.258775 -1.41656 0
M  V30 14457 H 1346.07 1.73104 -3.84204 0
M  V30 14458 H 1344.79 1.95126 -2.61903 0
M  V30 14459 H 1343.45 0.0927898 -3.66483 0
M  V30 14460 H 1343.1 2.4613 -4.38668 0
M  V30 14461 H 1342.8 1.32422 -5.72484 0
M  V30 14462 H 1344.33 2.25527 -5.67424 0
M  V30 14463 H 1345.74 -0.0154011 -5.73298 0
M  V30 14464 H 1344.14 -0.776068 -5.95061 0
M  V30 14465 H 1345.21 -1.34791 -4.65789 0
M  V30 14466 N 1346.55 1.54831 -0.294147 0
M  V30 14467 C 1347.46 2.26939 0.594621 0
M  V30 14468 C 1348.48 1.30209 1.15419 0
M  V30 14469 O 1349.65 1.6318 1.18044 0
M  V30 14470 C 1346.72 2.9909 1.75345 0
M  V30 14471 C 1345.78 4.11342 1.22865 0
M  V30 14472 C 1345.01 4.80043 2.33225 0
M  V30 14473 O 1345.23 4.48062 3.52983 0
M  V30 14474 O 1344.17 5.67593 2.00304 0
M  V30 14475 H 1347.99 3.03698 0.00989235 0
M  V30 14476 H 1345.58 1.49276 -0.0608528 0
M  V30 14477 H 1347.46 3.44369 2.42875 0
M  V30 14478 H 1346.14 2.25232 2.32492 0
M  V30 14479 H 1345.04 3.70478 0.519279 0
M  V30 14480 H 1346.38 4.87158 0.702703 0
M  V30 14481 N 1348.03 0.0217466 1.57585 0
M  V30 14482 C 1348.96 -0.99116 2.06661 0
M  V30 14483 C 1349.97 -1.29346 0.988604 0
M  V30 14484 O 1351.16 -1.25941 1.26496 0
M  V30 14485 C 1348.26 -2.32047 2.46997 0
M  V30 14486 C 1347.43 -2.20441 3.77789 0
M  V30 14487 C 1346.49 -3.36243 4.04755 0
M  V30 14488 O 1345.52 -3.13458 4.75114 0
M  V30 14489 N 1346.72 -4.598 3.54351 0
M  V30 14490 H 1349.49 -0.572486 2.94181 0
M  V30 14491 H 1347.05 -0.165175 1.61055 0
M  V30 14492 H 1349.04 -3.0833 2.62135 0
M  V30 14493 H 1347.61 -2.65581 1.64881 0
M  V30 14494 H 1346.83 -1.28931 3.72519 0
M  V30 14495 H 1348.12 -2.09882 4.63494 0
M  V30 14496 H 1347.52 -4.81207 2.97416 0
M  V30 14497 H 1346.07 -5.33276 3.7478 0
M  V30 14498 N 1349.51 -1.55583 -0.251311 0
M  V30 14499 C 1350.92 -1.67693 -0.820719 0
M  V30 14500 C 1351.27 -0.618393 -1.862 0
M  V30 14501 O 1350.39 0.236158 -2.15108 0
M  V30 14502 C 1350.99 -3.04011 -1.49542 0
M  V30 14503 C 1349.55 -3.18075 -2.01259 0
M  V30 14504 C 1348.69 -2.63557 -0.862138 0
M  V30 14505 H 1351.64 -1.58677 -0.0272072 0
M  V30 14506 H 1351.67 -2.9821 -2.36328 0
M  V30 14507 H 1351.18 -3.81032 -0.737323 0
M  V30 14508 H 1349.28 -2.45869 -2.79963 0
M  V30 14509 H 1349.39 -4.24927 -2.213 0
M  V30 14510 H 1347.76 -2.21268 -1.26145 0
M  V30 14511 H 1348.54 -3.431 -0.117196 0
M  V30 14512 N 1350.98 0.516783 -1.48886 0
M  V30 14513 C 1352.23 1.26936 -1.57263 0
M  V30 14514 C 1352.55 1.93337 -0.254156 0
M  V30 14515 O 1351.82 1.81977 0.725345 0
M  V30 14516 H 1350.4 0.4715 -0.579393 0
M  V30 14517 H 1353.06 0.600289 -1.85425 0
M  V30 14518 H 1352.16 2.04167 -2.36055 0
M  V30 14519 N 1352.46 1.37696 0.766659 0
M  V30 14520 C 1353.71 1.33185 1.52539 0
M  V30 14521 C 1354.04 -0.0821239 1.94327 0
M  V30 14522 O 1353.29 -1.05645 1.64735 0
M  V30 14523 C 1353.59 2.22154 2.79968 0
M  V30 14524 C 1353.26 3.70344 2.57208 0
M  V30 14525 C 1351.92 4.10729 2.50709 0
M  V30 14526 C 1354.27 4.64205 2.36988 0
M  V30 14527 C 1351.6 5.43082 2.21988 0
M  V30 14528 C 1353.95 5.96801 2.0979 0
M  V30 14529 C 1352.61 6.36284 2.01739 0
M  V30 14530 H 1351.88 0.487357 0.558179 0
M  V30 14531 H 1354.53 1.69945 0.882662 0
M  V30 14532 H 1352.84 1.78406 3.48825 0
M  V30 14533 H 1354.53 2.15975 3.37869 0
M  V30 14534 H 1351.12 3.38319 2.63131 0
M  V30 14535 H 1355.31 4.3386 2.40996 0
M  V30 14536 H 1350.56 5.7263 2.14254 0
M  V30 14537 H 1354.74 6.6908 1.93145 0
M  V30 14538 H 1352.36 7.38765 1.79248 0
M  V30 14539 N 1353.94 -0.993397 1.22349 0
M  V30 14540 C 1355.19 -1.73635 1.05936 0
M  V30 14541 C 1355.54 -1.88166 -0.401414 0
M  V30 14542 O 1354.83 -1.41338 -1.2936 0
M  V30 14543 C 1355.03 -3.14191 1.70349 0
M  V30 14544 C 1354.86 -3.13367 3.22539 0
M  V30 14545 C 1353.63 -3.19289 3.91641 0
M  V30 14546 C 1355.82 -2.97559 4.1948 0
M  V30 14547 N 1353.81 -3.08213 5.30922 0
M  V30 14548 C 1355.18 -2.94506 5.45588 0
M  V30 14549 C 1357.23 -2.81947 4.10378 0
M  V30 14550 C 1355.94 -2.7744 6.63641 0
M  V30 14551 C 1357.96 -2.66241 5.28081 0
M  V30 14552 C 1357.32 -2.63875 6.53107 0
M  V30 14553 H 1353.42 -0.64505 0.44208 0
M  V30 14554 H 1356.01 -1.17981 1.54882 0
M  V30 14555 H 1354.18 -3.6809 1.23954 0
M  V30 14556 H 1355.91 -3.77046 1.47032 0
M  V30 14557 H 1352.66 -3.26951 3.42637 0
M  V30 14558 H 1353.09 -3.05986 6.03905 0
M  V30 14559 H 1357.73 -2.82574 3.14502 0
M  V30 14560 H 1355.45 -2.75558 7.59666 0
M  V30 14561 H 1359.03 -2.55144 5.2287 0
M  V30 14562 H 1357.91 -2.5187 7.42652 0
M  V30 14563 N 1355.42 -1.03311 -1.19015 0
M  V30 14564 C 1356.33 -0.627735 -2.26046 0
M  V30 14565 C 1357.34 0.342483 -1.70596 0
M  V30 14566 O 1358.52 0.199307 -2.00411 0
M  V30 14567 C 1355.58 0.0108274 -3.46698 0
M  V30 14568 C 1354.65 -1.00743 -4.17312 0
M  V30 14569 C 1353.88 -0.399245 -5.32205 0
M  V30 14570 O 1354.1 0.796649 -5.64809 0
M  V30 14571 O 1353.04 -1.12419 -5.91308 0
M  V30 14572 H 1356.86 -1.51923 -2.6297 0
M  V30 14573 H 1354.45 -0.803538 -1.25951 0
M  V30 14574 H 1356.33 0.366672 -4.19802 0
M  V30 14575 H 1355 0.876265 -3.11614 0
M  V30 14576 H 1353.91 -1.41494 -3.4631 0
M  V30 14577 H 1355.24 -1.84338 -4.56377 0
M  V30 14578 N 1356.9 1.35099 -0.81154 0
M  V30 14579 C 1358.14 1.98233 -0.393453 0
M  V30 14580 C 1358.46 1.64688 1.04417 0
M  V30 14581 O 1357.73 0.931845 1.72318 0
M  V30 14582 H 1356.31 0.733283 -0.142496 0
M  V30 14583 H 1358.98 1.6493 -1.03847 0
M  V30 14584 H 1358.07 3.08017 -0.503188 0
M  V30 14585 N 1358.37 0.56548 1.47106 0
M  V30 14586 C 1359.28 -0.180488 2.33905 0
M  V30 14587 C 1360.3 -0.90355 1.48701 0
M  V30 14588 O 1361.48 -0.870595 1.81611 0
M  V30 14589 C 1358.54 -1.19212 3.2556 0
M  V30 14590 C 1357.6 -0.475589 4.26658 0
M  V30 14591 C 1356.83 -1.43902 5.13934 0
M  V30 14592 O 1357.06 -2.67443 5.03816 0
M  V30 14593 O 1355.99 -0.958998 5.94211 0
M  V30 14594 H 1359.82 0.531726 2.99009 0
M  V30 14595 H 1357.4 0.32602 1.45799 0
M  V30 14596 H 1359.28 -1.77586 3.82153 0
M  V30 14597 H 1357.96 -1.8861 2.63074 0
M  V30 14598 H 1356.87 0.149561 3.73801 0
M  V30 14599 H 1358.2 0.177103 4.91881 0
M  V30 14600 N 1359.85 -1.54672 0.302354 0
M  V30 14601 C 1360.82 -2.22246 -0.560283 0
M  V30 14602 C 1361.82 -1.20895 -1.06023 0
M  V30 14603 O 1363.01 -1.45621 -0.956047 0
M  V30 14604 C 1360.14 -2.9099 -1.77589 0
M  V30 14605 H 1361.33 -2.99885 0.0301274 0
M  V30 14606 H 1358.88 -1.56209 0.0532036 0
M  V30 14607 H 1359.62 -2.17433 -2.4061 0
M  V30 14608 H 1359.4 -3.65288 -1.42503 0
M  V30 14609 H 1360.89 -3.42535 -2.38871 0
M  V30 14610 N 1361.33 -0.0301034 -1.57571 0
M  V30 14611 C 1362.24 0.967086 -2.1374 0
M  V30 14612 C 1363.26 1.35636 -1.0899 0
M  V30 14613 O 1364.43 1.43758 -1.41052 0
M  V30 14614 C 1361.5 2.23058 -2.65417 0
M  V30 14615 C 1360.56 1.90163 -3.84885 0
M  V30 14616 C 1359.79 3.10488 -4.34088 0
M  V30 14617 O 1360.01 4.23179 -3.8246 0
M  V30 14618 O 1358.95 2.92729 -5.25921 0
M  V30 14619 H 1362.77 0.519486 -2.99224 0
M  V30 14620 H 1360.36 0.190559 -1.4818 0
M  V30 14621 H 1362.24 2.97229 -2.98719 0
M  V30 14622 H 1360.92 2.66997 -1.83015 0
M  V30 14623 H 1359.82 1.13373 -3.56507 0
M  V30 14624 H 1361.16 1.51039 -4.68453 0
M  V30 14625 N 1362.81 1.55714 0.243056 0
M  V30 14626 C 1364.22 1.48224 0.591754 0
M  V30 14627 C 1364.42 0.72105 1.88157 0
M  V30 14628 O 1363.48 0.251966 2.5124 0
M  V30 14629 C 1364.79 2.92655 0.690918 0
M  V30 14630 C 1366.34 3.03048 0.782988 0
M  V30 14631 C 1366.82 4.48794 0.913682 0
M  V30 14632 N 1368.31 4.52748 0.978454 0
M  V30 14633 C 1369.04 5.62771 1.09891 0
M  V30 14634 N 1368.54 6.82596 1.18467 0
M  V30 14635 N 1370.33 5.50576 1.13237 0
M  V30 14636 H 1362.48 2.03642 -0.603614 0
M  V30 14637 H 1364.75 0.924702 -0.208878 0
M  V30 14638 H 1364.45 3.51203 -0.186871 0
M  V30 14639 H 1364.33 3.43357 1.5616 0
M  V30 14640 H 1366.71 2.44578 1.65123 0
M  V30 14641 H 1366.79 2.55551 -0.112921 0
M  V30 14642 H 1366.44 5.07875 0.0499835 0
M  V30 14643 H 1366.37 4.93976 1.82469 0
M  V30 14644 H 1368.86 3.66445 0.92337 0
M  V30 14645 H 1369.17 7.62197 1.27576 0
M  V30 14646 H 1367.52 6.85349 1.15418 0
M  V30 14647 H 1370.71 4.55897 1.06188 0
M  V30 14648 H 1370.88 6.36358 1.2228 0
M  V30 14649 N 1364.29 -0.50888 1.49158 0
M  V30 14650 C 1365.53 -1.261 1.57934 0
M  V30 14651 C 1365.86 -1.93199 0.264405 0
M  V30 14652 O 1365.13 -1.82359 -0.715684 0
M  V30 14653 H 1363.71 -0.468421 0.581886 0
M  V30 14654 H 1366.37 -0.590447 1.85741 0
M  V30 14655 H 1365.46 -2.02913 2.37135 0
M  V30 14656 N 1365.76 -1.381 -0.759346 0
M  V30 14657 C 1366.71 -1.34866 -1.87296 0
M  V30 14658 C 1367.68 -0.212139 -1.6474 0
M  V30 14659 O 1368.87 -0.403464 -1.86485 0
M  V30 14660 C 1366.01 -1.17383 -3.24523 0
M  V30 14661 C 1365.12 -2.40372 -3.5895 0
M  V30 14662 C 1364.25 -2.15665 -4.8545 0
M  V30 14663 C 1363.29 -3.34455 -5.12646 0
M  V30 14664 N 1362.43 -3.0922 -6.30339 0
M  V30 14665 H 1367.27 -2.30072 -1.89396 0
M  V30 14666 H 1364.81 -1.14314 -0.925788 0
M  V30 14667 H 1366.77 -1.05264 -4.03702 0
M  V30 14668 H 1365.4 -0.258182 -3.21766 0
M  V30 14669 H 1364.45 -2.63185 -2.74659 0
M  V30 14670 H 1365.76 -3.28926 -3.74978 0
M  V30 14671 H 1364.91 -2.00649 -5.7256 0
M  V30 14672 H 1363.65 -1.24467 -4.7155 0
M  V30 14673 H 1362.66 -3.49997 -4.24007 0
M  V30 14674 H 1363.88 -4.26521 -5.28448 0
M  V30 14675 H 1361.83 -2.20664 -6.17773 0
M  V30 14676 H 1361.75 -3.91321 -6.46841 0
M  V30 14677 H 1363.01 -2.97847 -7.20352 0
M  V30 14678 N 1367.24 0.986894 -1.22875 0
M  V30 14679 C 1368.21 2.0597 -1.00544 0
M  V30 14680 C 1369.21 1.60771 0.0303509 0
M  V30 14681 O 1370.4 1.72945 -0.208753 0
M  V30 14682 C 1367.53 3.36911 -0.519962 0
M  V30 14683 H 1368.72 2.27213 -1.9574 0
M  V30 14684 H 1366.27 1.15935 -1.04827 0
M  V30 14685 H 1367.01 3.21355 0.436078 0
M  V30 14686 H 1366.79 3.71054 -1.26732 0
M  V30 14687 H 1368.28 4.15829 -0.384166 0
M  V30 14688 N 1368.72 1.0394 1.18466 0
M  V30 14689 C 1369.97 0.740576 1.88042 0
M  V30 14690 C 1370.29 -0.733822 1.80666 0
M  V30 14691 O 1369.56 -1.52943 1.22414 0
M  V30 14692 H 1368.14 0.270949 0.696129 0
M  V30 14693 H 1370.8 1.31588 1.43772 0
M  V30 14694 H 1369.9 1.04429 2.94111 0
M  V30 14695 N 1370.2 -1.34667 0.818693 0
M  V30 14696 C 1371.48 -1.92838 0.327521 0
M  V30 14697 C 1371.86 -1.74732 -1.18457 0
M  V30 14698 O 1371.2 -1.12352 -1.98971 0
M  V30 14699 C 1371.41 -3.40797 0.752207 0
M  V30 14700 C 1372.76 -4.17948 0.748613 0
M  V30 14701 O 1373.79 -3.49364 0.694517 0
M  V30 14702 O 1372.64 -5.40344 0.817958 0
M  V30 14703 H 1369.74 -0.822249 0.0885148 0
M  V30 14704 H 1372.28 -1.43668 0.9032 0
M  V30 14705 H 1371.06 -3.47759 1.79387 0
M  V30 14706 H 1370.68 -3.97309 0.151992 0
M  V30 14707 N 1371.68 -0.573274 -1.46804 0
M  V30 14708 C 1373.09 -0.144162 -1.86143 0
M  V30 14709 C 1373.44 1.29033 -1.47801 0
M  V30 14710 O 1372.56 1.97319 -0.888494 0
M  V30 14711 C 1373.16 -0.254851 -3.3784 0
M  V30 14712 C 1371.72 0.119325 -3.76211 0
M  V30 14713 C 1370.86 -0.595115 -2.70839 0
M  V30 14714 H 1373.82 -0.782057 -1.38093 0
M  V30 14715 H 1373.84 0.522321 -3.76898 0
M  V30 14716 H 1373.35 -1.29899 -3.65715 0
M  V30 14717 H 1371.45 1.16396 -3.53953 0
M  V30 14718 H 1371.56 -0.250421 -4.78445 0
M  V30 14719 H 1369.93 -0.0364028 -2.54674 0
M  V30 14720 H 1370.71 -1.64072 -3.01555 0
M  V30 14721 N 1373.15 1.5451 -0.310553 0
M  V30 14722 C 1374.1 2.2059 0.576555 0
M  V30 14723 C 1375.09 1.18205 1.09163 0
M  V30 14724 O 1376.28 1.43887 1.03081 0
M  V30 14725 C 1373.41 2.95741 1.74334 0
M  V30 14726 C 1372.5 4.05452 1.24378 0
M  V30 14727 N 1372.89 5.03677 0.462921 0
M  V30 14728 C 1371.18 4.19166 1.52367 0
M  V30 14729 C 1371.89 5.81371 0.195709 0
M  V30 14730 N 1370.86 5.38001 0.778203 0
M  V30 14731 H 1374.66 2.93887 -0.0274771 0
M  V30 14732 H 1372.18 1.61987 -0.115773 0
M  V30 14733 H 1374.17 3.41556 2.39051 0
M  V30 14734 H 1372.83 2.23962 2.35098 0
M  V30 14735 H 1373.85 5.1779 0.106943 0
M  V30 14736 H 1370.52 3.58597 2.1381 0
M  V30 14737 H 1371.91 6.70509 -0.432064 0
M  V30 14738 N 1374.63 0.0384594 1.57553 0
M  V30 14739 C 1376.05 -0.318006 1.564 0
M  V30 14740 C 1376.25 -1.72287 1.04496 0
M  V30 14741 O 1375.31 -2.42722 0.695861 0
M  V30 14742 C 1376.62 -0.158079 3.00284 0
M  V30 14743 C 1378.17 -0.230143 3.12153 0
M  V30 14744 C 1378.64 -0.0988948 4.57893 0
M  V30 14745 N 1380.13 -0.15558 4.62939 0
M  V30 14746 C 1380.87 -0.077948 5.73347 0
M  V30 14747 N 1380.36 0.0513054 6.92781 0
M  V30 14748 N 1382.16 -0.132612 5.61944 0
M  V30 14749 H 1374.31 0.957014 1.89618 0
M  V30 14750 H 1376.57 0.370396 0.872646 0
M  V30 14751 H 1376.28 0.810032 3.42245 0
M  V30 14752 H 1376.15 -0.924413 3.65697 0
M  V30 14753 H 1378.54 -1.18872 2.70099 0
M  V30 14754 H 1378.62 0.56673 2.49443 0
M  V30 14755 H 1378.26 0.856301 5.00629 0
M  V30 14756 H 1378.19 -0.91475 5.18594 0
M  V30 14757 H 1380.68 -0.255245 3.77037 0
M  V30 14758 H 1381 0.103595 7.72731 0
M  V30 14759 H 1379.34 0.0862166 6.94947 0
M  V30 14760 H 1382.53 -0.232056 4.67524 0
M  V30 14761 H 1382.71 -0.0686506 6.47964 0
M  V30 14762 N 1376.11 -1.55841 -0.234795 0
M  V30 14763 C 1377.53 -1.48536 -0.583885 0
M  V30 14764 C 1377.73 -0.731018 -1.87772 0
M  V30 14765 O 1376.78 -0.265287 -2.51103 0
M  V30 14766 C 1378.1 -2.93017 -0.675389 0
M  V30 14767 C 1379.64 -3.03459 -0.766906 0
M  V30 14768 C 1380.12 -4.49272 -0.889868 0
M  V30 14769 N 1381.61 -4.5326 -0.95443 0
M  V30 14770 C 1382.35 -5.63346 -1.06905 0
M  V30 14771 N 1381.84 -6.83215 -1.14845 0
M  V30 14772 N 1383.63 -5.51169 -1.10315 0
M  V30 14773 H 1375.79 -2.0332 0.614405 0
M  V30 14774 H 1378.05 -0.923581 0.213779 0
M  V30 14775 H 1377.75 -3.51099 0.205493 0
M  V30 14776 H 1377.63 -3.4418 -1.54337 0
M  V30 14777 H 1380.02 -2.4545 -1.63823 0
M  V30 14778 H 1380.1 -2.55487 0.126472 0
M  V30 14779 H 1379.74 -5.07895 -0.0230489 0
M  V30 14780 H 1379.67 -4.94937 -1.79847 0
M  V30 14781 H 1382.16 -3.6693 -0.903923 0
M  V30 14782 H 1382.47 -7.62863 -1.23532 0
M  V30 14783 H 1380.82 -6.85952 -1.11781 0
M  V30 14784 H 1384.01 -4.56453 -1.03769 0
M  V30 14785 H 1384.18 -6.36998 -1.18903 0
M  V30 14786 N 1377.59 0.500963 -1.49426 0
M  V30 14787 C 1378.54 1.59939 -1.62492 0
M  V30 14788 C 1379.52 1.53555 -0.480584 0
M  V30 14789 O 1380.72 1.61085 -0.733538 0
M  V30 14790 C 1377.84 2.98549 -1.6948 0
M  V30 14791 C 1376.93 3.09929 -2.89491 0
M  V30 14792 N 1377.32 2.91198 -4.13567 0
M  V30 14793 C 1375.62 3.41029 -2.87428 0
M  V30 14794 C 1376.32 3.06761 -4.94239 0
M  V30 14795 N 1375.3 3.35639 -4.27606 0
M  V30 14796 H 1379.1 1.44111 -2.56143 0
M  V30 14797 H 1376.61 0.707088 -1.46199 0
M  V30 14798 H 1378.61 3.7749 -1.76938 0
M  V30 14799 H 1377.27 3.15446 -0.769658 0
M  V30 14800 H 1378.28 2.67373 -4.43545 0
M  V30 14801 H 1374.96 3.64103 -2.04293 0
M  V30 14802 H 1376.35 2.96772 -6.02807 0
M  V30 14803 N 1379.07 1.38501 0.752011 0
M  V30 14804 C 1380.31 1.34995 1.51341 0
M  V30 14805 C 1380.65 -0.0594724 1.94109 0
M  V30 14806 O 1379.92 -1.02098 1.65548 0
M  V30 14807 C 1380.2 2.30705 2.76491 0
M  V30 14808 C 1380.06 3.80515 2.39851 0
M  V30 14809 C 1381.38 2.24521 3.78521 0
M  V30 14810 H 1378.5 0.491687 0.549011 0
M  V30 14811 H 1381.14 1.69361 0.861205 0
M  V30 14812 H 1379.29 2.01529 3.32142 0
M  V30 14813 H 1380.96 4.20371 1.89962 0
M  V30 14814 H 1379.2 3.98119 1.7229 0
M  V30 14815 H 1379.87 4.42946 3.29397 0
M  V30 14816 H 1382.35 2.50282 3.32413 0
M  V30 14817 H 1381.23 2.93598 4.63779 0
M  V30 14818 H 1381.49 1.24457 4.2422 0
M  V30 14819 N 1380.55 -0.980364 1.23396 0
M  V30 14820 C 1381.5 -2.05753 0.982323 0
M  V30 14821 C 1382.48 -1.6074 -0.0716939 0
M  V30 14822 O 1383.67 -1.76442 0.140438 0
M  V30 14823 C 1380.8 -3.38442 0.575481 0
M  V30 14824 C 1379.89 -3.90054 1.6649 0
M  V30 14825 N 1380.28 -4.14744 2.89519 0
M  V30 14826 C 1378.58 -4.18588 1.53949 0
M  V30 14827 C 1379.28 -4.56877 3.60053 0
M  V30 14828 N 1378.25 -4.61309 2.87567 0
M  V30 14829 H 1382.05 -2.22801 1.91669 0
M  V30 14830 H 1379.57 -1.16314 1.13335 0
M  V30 14831 H 1381.57 -4.15197 0.376477 0
M  V30 14832 H 1380.23 -3.22788 -0.351844 0
M  V30 14833 H 1381.24 -4.02566 3.25824 0
M  V30 14834 H 1377.91 -4.11937 0.679275 0
M  V30 14835 H 1379.3 -4.84498 4.65523 0
M  V30 14836 N 1382.02 -1.04567 -1.17913 0
M  V30 14837 C 1383.44 -0.76584 -1.40025 0
M  V30 14838 C 1383.64 0.642484 -1.90983 0
M  V30 14839 O 1382.7 1.40589 -2.0974 0
M  V30 14840 C 1384.01 -1.81616 -2.39658 0
M  V30 14841 C 1385.56 -1.83765 -2.53376 0
M  V30 14842 C 1386.03 -2.87803 -3.56277 0
M  V30 14843 N 1387.52 -2.86726 -3.63789 0
M  V30 14844 C 1388.26 -3.63876 -4.4315 0
M  V30 14845 N 1387.75 -4.50793 -5.26077 0
M  V30 14846 N 1389.55 -3.52344 -4.37962 0
M  V30 14847 H 1381.7 -1.95442 -0.831647 0
M  V30 14848 H 1383.96 -0.84593 -0.42791 0
M  V30 14849 H 1383.67 -2.8266 -2.09275 0
M  V30 14850 H 1383.54 -1.65251 -3.39075 0
M  V30 14851 H 1385.93 -0.833896 -2.83073 0
M  V30 14852 H 1386.01 -2.04208 -1.54055 0
M  V30 14853 H 1385.65 -3.88361 -3.2732 0
M  V30 14854 H 1385.58 -2.64614 -4.55288 0
M  V30 14855 H 1388.07 -2.237 -3.04576 0
M  V30 14856 H 1388.39 -5.0636 -5.83798 0
M  V30 14857 H 1386.73 -4.54858 -5.2548 0
M  V30 14858 H 1389.92 -2.8384 -3.72226 0
M  V30 14859 H 1390.1 -4.12718 -4.99568 0
M  V30 14860 N 1383.5 1.34231 -0.825823 0
M  V30 14861 C 1384.43 2.28261 -0.207234 0
M  V30 14862 C 1385.45 1.51159 0.604554 0
M  V30 14863 O 1386.64 1.7315 0.43376 0
M  V30 14864 C 1383.74 3.30991 0.727868 0
M  V30 14865 C 1382.91 4.3738 -0.0417267 0
M  V30 14866 C 1381.97 5.19854 0.81474 0
M  V30 14867 O 1380.99 5.68612 0.25867 0
M  V30 14868 N 1382.2 5.39849 2.1341 0
M  V30 14869 H 1384.96 2.81986 -1.0151 0
M  V30 14870 H 1382.52 1.46785 -0.683056 0
M  V30 14871 H 1384.51 3.83065 1.3055 0
M  V30 14872 H 1383.08 2.7764 1.43647 0
M  V30 14873 H 1382.3 3.85983 -0.800686 0
M  V30 14874 H 1383.59 5.05581 -0.571395 0
M  V30 14875 H 1382.99 5.01914 2.60958 0
M  V30 14876 H 1381.55 5.95029 2.66052 0
M  V30 14877 N 1384.98 0.581051 1.46498 0
M  V30 14878 C 1386.23 0.0658652 2.01993 0
M  V30 14879 C 1386.55 -1.29807 1.45516 0
M  V30 14880 O 1385.82 -1.85177 0.639233 0
M  V30 14881 H 1384.4 0.0213584 0.746695 0
M  V30 14882 H 1387.06 0.756456 1.79621 0
M  V30 14883 H 1386.16 -0.00438128 3.121 0
M  V30 14884 N 1386.46 -1.54343 0.318742 0
M  V30 14885 C 1387.71 -2.00084 -0.284713 0
M  V30 14886 C 1388.03 -1.20855 -1.53033 0
M  V30 14887 O 1387.3 -0.309104 -1.93446 0
M  V30 14888 H 1385.88 -0.739123 -0.108193 0
M  V30 14889 H 1388.54 -1.90002 0.434174 0
M  V30 14890 H 1387.63 -3.07314 -0.544459 0
M  V30 14891 N 1387.94 -0.0468143 -1.5753 0
M  V30 14892 C 1389.16 0.641161 -1.97241 0
M  V30 14893 C 1389.59 1.6384 -0.92401 0
M  V30 14894 O 1388.94 1.80946 0.113229 0
M  V30 14895 C 1388.99 1.30832 -3.36029 0
M  V30 14896 O 1388.1 2.42394 -3.33645 0
M  V30 14897 H 1387.44 0.167035 -0.642647 0
M  V30 14898 H 1389.97 -0.113921 -2.04283 0
M  V30 14899 H 1389.98 1.66102 -3.72658 0
M  V30 14900 H 1388.65 0.57744 -4.11872 0
M  V30 14901 H 1387.23 2.09104 -3.08756 0
M  V30 14902 N 1389.41 1.55964 0.226527 0
M  V30 14903 C 1390.83 1.48844 0.575999 0
M  V30 14904 C 1391.03 0.740966 1.87382 0
M  V30 14905 O 1390.09 0.278599 2.50958 0
M  V30 14906 C 1391.4 2.93371 0.65984 0
M  V30 14907 C 1392.95 3.03862 0.750802 0
M  V30 14908 C 1393.42 4.49738 0.86603 0
M  V30 14909 N 1394.91 4.5376 0.930379 0
M  V30 14910 C 1395.65 5.63905 1.03916 0
M  V30 14911 N 1395.14 6.83814 1.1122 0
M  V30 14912 N 1396.94 5.51746 1.07391 0
M  V30 14913 H 1389.09 2.02991 -0.625179 0
M  V30 14914 H 1391.35 0.922435 -0.218674 0
M  V30 14915 H 1391.06 3.50985 -0.22411 0
M  V30 14916 H 1390.93 3.44994 1.52509 0
M  V30 14917 H 1393.32 2.46316 1.6252 0
M  V30 14918 H 1393.4 2.55416 -0.140019 0
M  V30 14919 H 1393.04 5.079 -0.00388632 0
M  V30 14920 H 1392.97 4.95884 1.77219 0
M  V30 14921 H 1395.46 3.67404 0.884451 0
M  V30 14922 H 1395.78 7.63507 1.19484 0
M  V30 14923 H 1394.12 6.86535 1.08142 0
M  V30 14924 H 1397.31 4.56997 1.01347 0
M  V30 14925 H 1397.49 6.37619 1.15523 0
M  V30 14926 N 1390.89 -0.493031 1.4969 0
M  V30 14927 C 1391.8 -1.61991 1.69694 0
M  V30 14928 C 1392.82 -1.64061 0.579641 0
M  V30 14929 O 1393.99 -1.82335 0.855323 0
M  V30 14930 C 1391.06 -2.98323 1.76648 0
M  V30 14931 C 1390.12 -3.06816 3.00271 0
M  V30 14932 C 1389.35 -4.36644 3.06883 0
M  V30 14933 O 1389.58 -5.25901 2.20872 0
M  V30 14934 O 1388.51 -4.50275 3.99419 0
M  V30 14935 H 1392.34 -1.48042 2.65174 0
M  V30 14936 H 1389.92 -0.670182 1.33525 0
M  V30 14937 H 1391.8 -3.79335 1.83529 0
M  V30 14938 H 1390.48 -3.12517 0.843482 0
M  V30 14939 H 1389.39 -2.24962 2.98903 0
M  V30 14940 H 1390.72 -2.97551 3.92077 0
M  V30 14941 N 1392.37 -1.38898 -0.744656 0
M  V30 14942 C 1393.6 -1.3903 -1.53901 0
M  V30 14943 C 1394.02 0.0156607 -1.88093 0
M  V30 14944 O 1393.38 1.00012 -1.51219 0
M  V30 14945 C 1393.43 -2.2609 -2.80919 0
M  V30 14946 O 1392.53 -1.68414 -3.76444 0
M  V30 14947 H 1391.87 -0.473854 -0.465144 0
M  V30 14948 H 1394.4 -1.82773 -0.919525 0
M  V30 14949 H 1394.41 -2.40264 -3.29754 0
M  V30 14950 H 1393.09 -3.28271 -2.55364 0
M  V30 14951 H 1391.66 -1.63431 -3.35179 0
M  V30 14952 N 1393.85 0.973806 -1.23914 0
M  V30 14953 C 1395.26 1.24128 -1.00322 0
M  V30 14954 C 1395.46 1.99378 0.29169 0
M  V30 14955 O 1394.52 2.31445 1.00943 0
M  V30 14956 C 1395.83 2.03438 -2.21435 0
M  V30 14957 C 1397.38 2.16553 -2.25995 0
M  V30 14958 C 1397.86 2.99257 -3.46712 0
M  V30 14959 N 1399.35 3.0684 -3.46992 0
M  V30 14960 C 1400.08 3.71174 -4.37055 0
M  V30 14961 N 1399.58 4.37277 -5.37364 0
M  V30 14962 N 1401.37 3.68126 -4.24782 0
M  V30 14963 H 1393.52 0.469872 -2.07138 0
M  V30 14964 H 1395.79 0.270234 -0.908668 0
M  V30 14965 H 1395.49 1.55527 -3.15443 0
M  V30 14966 H 1395.37 3.0418 -2.23057 0
M  V30 14967 H 1397.75 2.6367 -1.32522 0
M  V30 14968 H 1397.83 1.15179 -2.28402 0
M  V30 14969 H 1397.48 2.52835 -4.40496 0
M  V30 14970 H 1397.41 4.00815 -3.41547 0
M  V30 14971 H 1399.9 2.59813 -2.74419 0
M  V30 14972 H 1400.21 4.84166 -6.02331 0
M  V30 14973 H 1398.56 4.35965 -5.41257 0
M  V30 14974 H 1401.75 3.15657 -3.45656 0
M  V30 14975 H 1401.92 4.17981 -4.95173 0
M  V30 14976 N 1395.33 1.05191 1.17357 0
M  V30 14977 C 1396.55 0.782343 1.92079 0
M  V30 14978 C 1396.98 -0.655957 1.76292 0
M  V30 14979 O 1396.33 -1.45573 1.08065 0
M  V30 14980 C 1396.38 1.16777 3.41168 0
M  V30 14981 O 1395.49 0.299908 4.11308 0
M  V30 14982 H 1394.83 0.286894 0.598822 0
M  V30 14983 H 1397.36 1.40476 1.48754 0
M  V30 14984 H 1397.37 1.13454 3.91909 0
M  V30 14985 H 1396.04 2.2155 3.51978 0
M  V30 14986 H 1394.62 0.393744 3.70815 0
M  V30 14987 N 1396.8 -1.33791 0.83293 0
M  V30 14988 C 1398.05 -1.97582 0.42494 0
M  V30 14989 C 1398.37 -1.66328 -1.01784 0
M  V30 14990 O 1397.64 -0.959141 -1.70814 0
M  V30 14991 H 1396.22 -0.730923 0.154143 0
M  V30 14992 H 1398.89 -1.63257 1.06458 0
M  V30 14993 H 1397.98 -3.07177 0.552127 0
M  V30 14994 N 1398.28 -0.588812 -1.46187 0
M  V30 14995 C 1399.51 -0.0806571 -2.07243 0
M  V30 14996 C 1399.93 1.21766 -1.43369 0
M  V30 14997 O 1399.29 1.73694 -0.51964 0
M  V30 14998 C 1399.34 0.065267 -3.60541 0
M  V30 14999 O 1398.44 1.12026 -3.96893 0
M  V30 15000 H 1397.78 -0.0655622 -0.660755 0
M  V30 15001 H 1400.31 -0.813489 -1.87733 0
M  V30 15002 H 1400.32 0.269494 -4.07109 0
M  V30 15003 H 1399 -0.88284 -4.06422 0
M  V30 15004 H 1397.58 0.894 -3.62025 0
M  V30 15005 N 1399.76 1.54172 -0.326923 0
M  V30 15006 C 1401.17 1.86009 0.160446 0
M  V30 15007 C 1401.52 1.24851 1.51349 0
M  V30 15008 O 1400.65 0.555804 2.09141 0
M  V30 15009 C 1401.24 3.37488 0.297909 0
M  V30 15010 C 1399.8 3.69263 0.7295 0
M  V30 15011 C 1398.95 2.76911 -0.146778 0
M  V30 15012 H 1401.9 1.48972 -0.547093 0
M  V30 15013 H 1401.92 3.63388 1.12825 0
M  V30 15014 H 1401.43 3.81971 -0.687007 0
M  V30 15015 H 1399.53 3.30314 1.72404 0
M  V30 15016 H 1399.65 4.76149 0.53092 0
M  V30 15017 H 1398.01 2.51876 0.378212 0
M  V30 15018 H 1398.79 3.24221 -1.12852 0
M  V30 15019 N 1401.24 0.0551678 1.57503 0
M  V30 15020 C 1402.65 -0.3014 1.56728 0
M  V30 15021 C 1402.85 -1.71169 1.06317 0
M  V30 15022 O 1401.91 -2.4197 0.721566 0
M  V30 15023 C 1403.22 -0.12622 3.00435 0
M  V30 15024 C 1404.77 -0.197022 3.12379 0
M  V30 15025 C 1405.25 -0.0503235 4.57972 0
M  V30 15026 N 1406.74 -0.106471 4.63078 0
M  V30 15027 C 1407.47 -0.0171325 5.73397 0
M  V30 15028 N 1406.97 0.124781 6.92688 0
M  V30 15029 N 1408.76 -0.0730028 5.62053 0
M  V30 15030 H 1400.91 0.977072 1.88592 0
M  V30 15031 H 1403.18 0.37963 0.868668 0
M  V30 15032 H 1402.88 0.846286 3.41366 0
M  V30 15033 H 1402.76 -0.885574 3.66657 0
M  V30 15034 H 1405.14 -1.16 2.71345 0
M  V30 15035 H 1405.22 0.593155 2.48828 0
M  V30 15036 H 1404.87 0.909352 4.99693 0
M  V30 15037 H 1404.8 -0.859695 5.19535 0
M  V30 15038 H 1407.29 -0.215241 3.77287 0
M  V30 15039 H 1407.6 0.185548 7.72577 0
M  V30 15040 H 1405.95 0.15992 6.94816 0
M  V30 15041 H 1409.14 -0.182456 4.67744 0
M  V30 15042 H 1409.31 7.85052e-05 6.48 0
M  V30 15043 N 1402.72 -1.56081 -0.218252 0
M  V30 15044 C 1403.94 -1.83334 -0.958964 0
M  V30 15045 C 1404.36 -0.63472 -1.77811 0
M  V30 15046 O 1403.72 0.396729 -1.78136 0
M  V30 15047 C 1403.77 -3.09141 -1.87387 0
M  V30 15048 O 1403.49 -4.24379 -1.08783 0
M  V30 15049 C 1404.99 -3.49405 -2.7282 0
M  V30 15050 H 1402.21 -0.609375 -0.280898 0
M  V30 15051 H 1404.75 -2.03174 -0.232486 0
M  V30 15052 H 1402.91 -2.91267 -2.55426 0
M  V30 15053 H 1403.32 -4.9587 -1.70919 0
M  V30 15054 H 1404.8 -4.40461 -3.32713 0
M  V30 15055 H 1405.27 -2.71311 -3.45379 0
M  V30 15056 H 1405.88 -3.6973 -2.1019 0
M  V30 15057 N 1404.2 0.485086 -1.49949 0
M  V30 15058 C 1405.44 1.23571 -1.5992 0
M  V30 15059 C 1405.76 1.92754 -0.295108 0
M  V30 15060 O 1405.03 1.83474 0.686582 0
M  V30 15061 H 1403.61 0.459104 -0.589264 0
M  V30 15062 H 1406.28 0.560822 -1.86657 0
M  V30 15063 H 1405.37 1.99114 -2.40333 0
M  V30 15064 N 1405.67 1.39291 0.737279 0
M  V30 15065 C 1406.64 1.37607 1.83294 0
M  V30 15066 C 1407.64 0.273594 1.58455 0
M  V30 15067 O 1408.83 0.531375 1.65898 0
M  V30 15068 C 1405.96 1.14642 3.21045 0
M  V30 15069 H 1407.15 2.35102 1.86191 0
M  V30 15070 H 1404.7 1.24822 0.940696 0
M  V30 15071 H 1405.44 0.178202 3.2381 0
M  V30 15072 H 1405.22 1.94479 3.40471 0
M  V30 15073 H 1406.71 1.162 4.01108 0
M  V30 15074 N 1407.15 -0.967221 1.24429 0
M  V30 15075 C 1408.43 -1.68564 0.992253 0
M  V30 15076 C 1408.81 -2.05446 -0.485301 0
M  V30 15077 O 1408.16 -1.75798 -1.45971 0
M  V30 15078 C 1408.37 -2.91728 1.91562 0
M  V30 15079 C 1409.71 -3.63957 2.18678 0
M  V30 15080 O 1410.74 -3.01786 1.89219 0
M  V30 15081 O 1409.6 -4.75875 2.68711 0
M  V30 15082 H 1406.69 -0.736939 0.375299 0
M  V30 15083 H 1409.24 -1.02127 1.35529 0
M  V30 15084 H 1408.01 -2.61168 2.91388 0
M  V30 15085 H 1407.63 -3.65898 1.55577 0
M  V30 15086 N 1408.63 -1.05812 -1.16797 0
M  V30 15087 C 1409.88 -0.770398 -1.8684 0
M  V30 15088 C 1410.2 0.704986 -1.8181 0
M  V30 15089 O 1409.47 1.50977 -1.24832 0
M  V30 15090 H 1408.05 -0.281989 -0.691731 0
M  V30 15091 H 1410.71 -1.33859 -1.41661 0
M  V30 15092 H 1409.81 -1.09094 -2.92412 0
M  V30 15093 N 1410.11 1.33347 -0.840014 0
M  V30 15094 C 1411.02 2.32965 -0.276527 0
M  V30 15095 C 1412.03 1.634 0.598037 0
M  V30 15096 O 1413.21 1.95046 0.501888 0
M  V30 15097 C 1410.27 3.42498 0.53816 0
M  V30 15098 C 1409.34 4.27781 -0.360814 0
M  V30 15099 C 1408.57 5.32083 0.415085 0
M  V30 15100 O 1408.79 5.46115 1.64666 0
M  V30 15101 O 1407.73 6.01528 -0.211503 0
M  V30 15102 H 1411.55 2.83022 -1.10147 0
M  V30 15103 H 1409.14 1.3671 -0.602566 0
M  V30 15104 H 1411.02 4.09336 1.00108 0
M  V30 15105 H 1409.69 2.94655 1.34015 0
M  V30 15106 H 1408.6 3.63805 -0.871598 0
M  V30 15107 H 1409.93 4.7911 -1.1276 0
M  V30 15108 N 1411.59 0.596556 1.45873 0
M  V30 15109 C 1412.54 -0.14991 2.27507 0
M  V30 15110 C 1413.52 -0.848942 1.36681 0
M  V30 15111 O 1414.71 -0.740752 1.60754 0
M  V30 15112 C 1411.84 -1.15391 3.23326 0
M  V30 15113 C 1410.93 -0.456283 4.21638 0
M  V30 15114 N 1411.32 0.495911 5.03363 0
M  V30 15115 C 1409.62 -0.705263 4.40389 0
M  V30 15116 C 1410.32 0.904941 5.74618 0
M  V30 15117 N 1409.29 0.251069 5.4302 0
M  V30 15118 H 1413.09 0.581593 2.88088 0
M  V30 15119 H 1410.61 0.419386 1.56891 0
M  V30 15120 H 1412.61 -1.70299 3.80531 0
M  V30 15121 H 1411.27 -1.88609 2.64305 0
M  V30 15122 H 1412.28 0.872126 5.10504 0
M  V30 15123 H 1408.95 -1.42296 3.92502 0
M  V30 15124 H 1410.34 1.68965 6.50308 0
M  V30 15125 N 1413.06 -1.53996 0.335095 0
M  V30 15126 C 1414.48 -1.59591 -0.0171422 0
M  V30 15127 C 1414.68 -1.35132 -1.49471 0
M  V30 15128 O 1413.74 -1.14141 -2.25229 0
M  V30 15129 C 1415.05 -2.97872 0.411443 0
M  V30 15130 C 1416.6 -3.10887 0.363072 0
M  V30 15131 C 1417.07 -4.51532 0.766995 0
M  V30 15132 N 1418.56 -4.57557 0.72085 0
M  V30 15133 C 1419.3 -5.64516 1.00544 0
M  V30 15134 N 1418.79 -6.79365 1.35777 0
M  V30 15135 N 1420.59 -5.54349 0.930243 0
M  V30 15136 H 1412.74 -1.68151 1.29766 0
M  V30 15137 H 1415 -0.787067 0.528422 0
M  V30 15138 H 1414.71 -3.20809 1.44134 0
M  V30 15139 H 1414.58 -3.76571 -0.217678 0
M  V30 15140 H 1416.97 -2.87679 -0.657642 0
M  V30 15141 H 1417.05 -2.34266 1.02728 0
M  V30 15142 H 1416.69 -4.75474 1.78568 0
M  V30 15143 H 1416.62 -5.26539 0.0803511 0
M  V30 15144 H 1419.11 -3.75079 0.460867 0
M  V30 15145 H 1419.43 -7.56891 1.55999 0
M  V30 15146 H 1417.77 -6.80833 1.39614 0
M  V30 15147 H 1420.96 -4.63503 0.654402 0
M  V30 15148 H 1421.14 -6.37616 1.15539 0
M  V30 15149 N 1414.54 -0.0635198 -1.57472 0
M  V30 15150 C 1415.96 0.293084 -1.56886 0
M  V30 15151 C 1416.16 1.70603 -1.07224 0
M  V30 15152 O 1415.21 2.41584 -0.734388 0
M  V30 15153 C 1416.53 0.110286 -3.00498 0
M  V30 15154 C 1418.07 0.180453 -3.12479 0
M  V30 15155 C 1418.55 0.0260354 -4.57993 0
M  V30 15156 N 1420.04 0.0819109 -4.63128 0
M  V30 15157 C 1420.78 -0.0132764 -5.73398 0
M  V30 15158 N 1420.27 -0.161514 -6.92612 0
M  V30 15159 N 1422.06 0.0431948 -5.62083 0
M  V30 15160 H 1414.22 -0.98706 -1.88072 0
M  V30 15161 H 1416.48 -0.384232 -0.866643 0
M  V30 15162 H 1416.18 -0.864378 -3.40913 0
M  V30 15163 H 1416.06 0.866117 -3.67122 0
M  V30 15164 H 1418.45 1.1456 -2.71956 0
M  V30 15165 H 1418.53 -0.606342 -2.4851 0
M  V30 15166 H 1418.17 -0.935839 -4.99204 0
M  V30 15167 H 1418.1 0.832131 -5.19984 0
M  V30 15168 H 1420.59 0.195229 -3.77395 0
M  V30 15169 H 1420.9 -0.226517 -7.72468 0
M  V30 15170 H 1419.25 -0.196766 -6.94721 0
M  V30 15171 H 1422.44 0.157648 -4.67834 0
M  V30 15172 H 1422.61 -0.0344435 -6.47991 0
M  V30 15173 N 1416.02 1.56195 0.209972 0
M  V30 15174 C 1416.97 1.89755 1.26401 0
M  V30 15175 C 1417.95 0.761731 1.41727 0
M  V30 15176 O 1419.15 1.02435 1.44347 0
M  V30 15177 C 1416.27 2.22775 2.61201 0
M  V30 15178 C 1415.36 3.42777 2.49729 0
M  V30 15179 N 1415.75 4.61089 2.0792 0
M  V30 15180 C 1414.05 3.46621 2.8066 0
M  V30 15181 C 1414.75 5.43249 2.07979 0
M  V30 15182 N 1413.73 4.83263 2.48913 0
M  V30 15183 H 1417.53 2.78736 0.93184 0
M  V30 15184 H 1415.04 1.56915 0.418485 0
M  V30 15185 H 1417.04 2.44997 3.37316 0
M  V30 15186 H 1415.7 1.35112 2.95254 0
M  V30 15187 H 1416.71 4.86033 1.78865 0
M  V30 15188 H 1413.39 2.69334 3.19007 0
M  V30 15189 H 1414.78 6.47981 1.77681 0
M  V30 15190 N 1417.5 -0.477127 1.50204 0
M  V30 15191 C 1418.91 -0.81037 1.37496 0
M  V30 15192 C 1419.11 -1.96937 0.426399 0
M  V30 15193 O 1418.17 -2.52148 -0.133197 0
M  V30 15194 C 1419.48 -1.12811 2.78737 0
M  V30 15195 C 1421.03 -1.23492 2.87608 0
M  V30 15196 C 1421.51 -1.58583 4.29669 0
M  V30 15197 N 1423 -1.65586 4.32591 0
M  V30 15198 C 1423.73 -1.94231 5.39502 0
M  V30 15199 N 1423.23 -2.20936 6.56627 0
M  V30 15200 N 1425.02 -1.95682 5.26939 0
M  V30 15201 H 1417.17 0.286771 2.10455 0
M  V30 15202 H 1419.43 0.0657649 0.945716 0
M  V30 15203 H 1419.14 -0.349616 3.49958 0
M  V30 15204 H 1419.01 -2.0658 3.15602 0
M  V30 15205 H 1421.4 -2.0041 2.1661 0
M  V30 15206 H 1421.48 -0.277182 2.54294 0
M  V30 15207 H 1421.13 -0.822071 5.01203 0
M  V30 15208 H 1421.06 -2.55497 4.60466 0
M  V30 15209 H 1423.55 -1.47012 3.48132 0
M  V30 15210 H 1423.86 -2.42049 7.33916 0
M  V30 15211 H 1422.21 -2.18341 6.59812 0
M  V30 15212 H 1425.4 -1.74311 4.34434 0
M  V30 15213 H 1425.57 -2.1767 6.10347 0
M  V30 15214 N 1418.98 -1.3968 -0.729882 0
M  V30 15215 C 1419.94 -1.38577 -1.82562 0
M  V30 15216 C 1420.94 -0.281994 -1.58308 0
M  V30 15217 O 1422.13 -0.540165 -1.65614 0
M  V30 15218 C 1419.26 -1.16343 -3.20433 0
M  V30 15219 H 1420.45 -2.36086 -1.84942 0
M  V30 15220 H 1418.01 -1.25319 -0.934063 0
M  V30 15221 H 1418.74 -0.195372 -3.23711 0
M  V30 15222 H 1418.53 -1.96282 -3.39435 0
M  V30 15223 H 1420.02 -1.18325 -4.00486 0
M  V30 15224 N 1420.45 0.960609 -1.2494 0
M  V30 15225 C 1421.4 2.04164 -1.01493 0
M  V30 15226 C 1422.39 1.60834 0.0461124 0
M  V30 15227 O 1423.58 1.76196 -0.168491 0
M  V30 15228 C 1420.71 3.37484 -0.629251 0
M  V30 15229 C 1419.8 3.87356 -1.72674 0
M  V30 15230 N 1420.19 4.10085 -2.9608 0
M  V30 15231 C 1418.48 4.16086 -1.60589 0
M  V30 15232 C 1419.19 4.51091 -3.67276 0
M  V30 15233 N 1418.16 4.56676 -2.9487 0
M  V30 15234 H 1421.96 2.19723 -1.95189 0
M  V30 15235 H 1419.48 1.14496 -1.15171 0
M  V30 15236 H 1421.47 4.14545 -0.442484 0
M  V30 15237 H 1420.13 3.23307 0.300446 0
M  V30 15238 H 1421.15 3.97331 -3.32187 0
M  V30 15239 H 1417.82 4.10804 -0.744725 0
M  V30 15240 H 1419.21 4.77031 -4.73172 0
M  V30 15241 N 1421.93 1.0643 1.16234 0
M  V30 15242 C 1423.35 0.78802 1.38789 0
M  V30 15243 C 1423.55 -0.612019 1.91981 0
M  V30 15244 O 1422.6 -1.37235 2.1195 0
M  V30 15245 C 1423.92 1.85406 2.36738 0
M  V30 15246 C 1425.47 1.87773 2.5042 0
M  V30 15247 C 1425.94 2.93435 3.51653 0
M  V30 15248 N 1427.43 2.92477 3.59181 0
M  V30 15249 C 1428.17 3.7088 4.37305 0
M  V30 15250 N 1427.66 4.59106 5.18839 0
M  V30 15251 N 1429.46 3.59267 4.32301 0
M  V30 15252 H 1421.61 1.9674 0.800449 0
M  V30 15253 H 1423.87 0.852631 0.414397 0
M  V30 15254 H 1423.58 2.85954 2.04751 0
M  V30 15255 H 1423.45 1.70625 3.36403 0
M  V30 15256 H 1425.84 0.878825 2.8171 0
M  V30 15257 H 1425.92 2.06633 1.50787 0
M  V30 15258 H 1425.56 3.93519 3.211 0
M  V30 15259 H 1425.49 2.71824 4.5102 0
M  V30 15260 H 1427.98 2.28517 3.00979 0
M  V30 15261 H 1428.3 5.15583 5.75668 0
M  V30 15262 H 1426.64 4.6316 5.18177 0
M  V30 15263 H 1429.83 2.89726 3.67663 0
M  V30 15264 H 1430 4.20613 4.92939 0
M  V30 15265 N 1423.41 -1.329 0.847073 0
M  V30 15266 C 1424.83 -1.50333 0.53593 0
M  V30 15267 C 1425.03 -1.78492 -0.93504 0
M  V30 15268 O 1424.08 -1.85001 -1.71846 0
M  V30 15269 C 1425.4 -2.65254 1.41636 0
M  V30 15270 C 1426.94 -2.79139 1.416 0
M  V30 15271 C 1427.42 -3.97131 2.28147 0
M  V30 15272 N 1428.91 -4.0438 2.25901 0
M  V30 15273 C 1429.64 -4.94893 2.89601 0
M  V30 15274 N 1429.14 -5.90466 3.62383 0
M  V30 15275 N 1430.93 -4.87955 2.79028 0
M  V30 15276 H 1423.08 -1.12886 1.79918 0
M  V30 15277 H 1425.35 -0.555707 0.768045 0
M  V30 15278 H 1425.05 -2.51151 2.46203 0
M  V30 15279 H 1424.93 -3.60856 1.09829 0
M  V30 15280 H 1427.31 -2.92669 0.378013 0
M  V30 15281 H 1427.4 -1.84273 1.77418 0
M  V30 15282 H 1427.04 -3.8436 3.32009 0
M  V30 15283 H 1426.97 -4.91258 1.89665 0
M  V30 15284 H 1429.46 -3.35986 1.72979 0
M  V30 15285 H 1429.77 -6.56212 4.08174 0
M  V30 15286 H 1428.12 -5.90516 3.66491 0
M  V30 15287 H 1431.31 -4.12258 2.21723 0
M  V30 15288 H 1431.48 -5.58295 3.28954 0
M  V30 15289 N 1424.89 -0.604284 -1.45555 0
M  V30 15290 C 1426.3 -0.183613 -1.85795 0
M  V30 15291 C 1426.65 1.25869 -1.50504 0
M  V30 15292 O 1425.78 1.9539 -0.930148 0
M  V30 15293 C 1426.37 -0.326455 -3.37224 0
M  V30 15294 C 1424.93 0.0394987 -3.76379 0
M  V30 15295 C 1424.08 -0.65243 -2.69516 0
M  V30 15296 H 1427.03 -0.811173 -1.36403 0
M  V30 15297 H 1427.05 0.442258 -3.77921 0
M  V30 15298 H 1426.56 -1.37627 -3.62878 0
M  V30 15299 H 1424.66 1.08862 -3.56342 0
M  V30 15300 H 1424.77 -0.35185 -4.77806 0
M  V30 15301 H 1423.14 -0.0904148 -2.54539 0
M  V30 15302 H 1423.92 -1.70432 -2.98007 0
M  V30 15303 N 1426.37 1.53816 -0.343257 0
M  V30 15304 C 1427.61 2.00512 0.252845 0
M  V30 15305 C 1427.94 1.23274 1.51091 0
M  V30 15306 O 1427.21 0.339841 1.9293 0
M  V30 15307 H 1425.79 0.740751 0.0964202 0
M  V30 15308 H 1428.45 1.89288 -0.464347 0
M  V30 15309 H 1427.54 3.08142 0.495499 0
M  V30 15310 N 1427.84 0.0718701 1.57436 0
M  V30 15311 C 1428.75 -0.910077 2.16229 0
M  V30 15312 C 1429.77 -1.32699 1.12548 0
M  V30 15313 O 1430.95 -1.39967 1.44814 0
M  V30 15314 C 1428.01 -2.15942 2.71238 0
M  V30 15315 C 1427.07 -1.79891 3.89792 0
M  V30 15316 C 1426.31 -2.9887 4.42168 0
M  V30 15317 O 1426.53 -4.1289 3.93545 0
M  V30 15318 O 1425.46 -2.78682 5.33498 0
M  V30 15319 H 1429.29 -0.439969 3.00496 0
M  V30 15320 H 1426.87 -0.151204 1.48633 0
M  V30 15321 H 1428.76 -2.89204 3.06494 0
M  V30 15322 H 1427.43 -2.62051 1.90029 0
M  V30 15323 H 1426.34 -1.03881 3.59388 0
M  V30 15324 H 1427.67 -1.38566 4.72293 0
M  V30 15325 N 1429.32 -1.56304 -0.201686 0
M  V30 15326 C 1430.23 -1.97215 -1.27057 0
M  V30 15327 C 1431.25 -0.878834 -1.50175 0
M  V30 15328 O 1432.42 -1.18405 -1.62918 0
M  V30 15329 C 1429.49 -2.29772 -2.59626 0
M  V30 15330 C 1428.55 -3.52776 -2.44637 0
M  V30 15331 C 1427.78 -3.83771 -3.70885 0
M  V30 15332 O 1428.01 -3.16149 -4.7477 0
M  V30 15333 O 1426.94 -4.77216 -3.66808 0
M  V30 15334 H 1430.77 -2.88347 -0.953393 0
M  V30 15335 H 1428.35 -1.43773 -0.406158 0
M  V30 15336 H 1430.23 -2.51817 -3.37885 0
M  V30 15337 H 1428.91 -1.41809 -2.90984 0
M  V30 15338 H 1427.82 -3.35986 -1.64512 0
M  V30 15339 H 1429.15 -4.41184 -2.18214 0
M  V30 15340 N 1430.8 0.469154 -1.50455 0
M  V30 15341 C 1432.05 1.21868 -1.61222 0
M  V30 15342 C 1432.37 1.9243 -0.315535 0
M  V30 15343 O 1431.64 1.84192 0.667083 0
M  V30 15344 H 1430.22 0.452828 -0.594101 0
M  V30 15345 H 1432.88 0.540993 -1.87241 0
M  V30 15346 H 1431.98 1.96554 -2.42431 0
M  V30 15347 N 1432.28 1.40065 0.722464 0
M  V30 15348 C 1433.69 1.33876 1.30131 0
M  V30 15349 C 1434.04 0.00899369 1.96198 0
M  V30 15350 O 1433.17 -0.893082 1.97112 0
M  V30 15351 C 1433.76 2.42469 2.36631 0
M  V30 15352 C 1432.32 2.39762 2.90157 0
M  V30 15353 C 1431.47 2.23704 1.63865 0
M  V30 15354 H 1434.42 1.49971 0.519077 0
M  V30 15355 H 1434.44 2.0998 3.17315 0
M  V30 15356 H 1433.95 3.39239 1.88517 0
M  V30 15357 H 1432.05 1.46669 3.42519 0
M  V30 15358 H 1432.16 3.35092 3.42419 0
M  V30 15359 H 1430.53 1.71098 1.88674 0
M  V30 15360 H 1431.31 3.22462 1.17785 0
M  V30 15361 N 1433.76 -0.95397 1.25448 0
M  V30 15362 C 1434.67 -2.08452 1.07634 0
M  V30 15363 C 1435.68 -1.73995 0.013294 0
M  V30 15364 O 1436.86 -2.00256 0.214367 0
M  V30 15365 C 1433.92 -3.39606 0.697756 0
M  V30 15366 C 1432.99 -3.87926 1.83881 0
M  V30 15367 C 1432.22 -5.12821 1.47819 0
M  V30 15368 O 1432.44 -5.69172 0.374143 0
M  V30 15369 O 1431.38 -5.55866 2.3086 0
M  V30 15370 H 1435.2 -2.26382 2.02447 0
M  V30 15371 H 1432.79 -1.06877 1.04392 0
M  V30 15372 H 1434.67 -4.18438 0.498778 0
M  V30 15373 H 1433.34 -3.22944 -0.221108 0
M  V30 15374 H 1432.25 -3.10095 2.09265 0
M  V30 15375 H 1433.58 -4.09087 2.73694 0
M  V30 15376 N 1435.24 -1.07045 -1.15668 0
M  V30 15377 C 1436.51 -0.704942 -1.82455 0
M  V30 15378 C 1436.89 0.812921 -1.9482 0
M  V30 15379 O 1436.24 1.72615 -1.49721 0
M  V30 15380 C 1436.45 -1.41574 -3.18995 0
M  V30 15381 C 1437.8 -1.56584 -3.94673 0
M  V30 15382 O 1438.82 -1.37626 -3.28538 0
M  V30 15383 O 1437.68 -1.87751 -5.13237 0
M  V30 15384 H 1434.78 -0.250469 -0.788159 0
M  V30 15385 H 1437.32 -1.17118 -1.22806 0
M  V30 15386 H 1436.09 -2.4504 -3.05075 0
M  V30 15387 H 1435.72 -0.940071 -3.86327 0
M  V30 15388 N 1436.71 1.32449 -0.85411 0
M  V30 15389 C 1437.66 2.2889 -0.296341 0
M  V30 15390 C 1438.63 1.55024 0.596378 0
M  V30 15391 O 1439.82 1.8325 0.531406 0
M  V30 15392 C 1436.96 3.41315 0.509729 0
M  V30 15393 C 1436.07 4.30062 -0.40872 0
M  V30 15394 C 1435.2 5.29616 0.409928 0
M  V30 15395 C 1434.24 6.10005 -0.505953 0
M  V30 15396 N 1433.38 7.01559 0.275483 0
M  V30 15397 H 1438.22 2.75989 -1.12401 0
M  V30 15398 H 1435.76 1.35787 -0.565717 0
M  V30 15399 H 1437.71 4.05218 0.992697 0
M  V30 15400 H 1436.34 2.95367 1.30223 0
M  V30 15401 H 1435.4 3.66745 -1.01007 0
M  V30 15402 H 1436.71 4.86255 -1.11165 0
M  V30 15403 H 1435.86 5.99119 0.956083 0
M  V30 15404 H 1434.6 4.74039 1.14623 0
M  V30 15405 H 1433.61 5.39406 -1.064 0
M  V30 15406 H 1434.83 6.67667 -1.24086 0
M  V30 15407 H 1432.78 6.48412 0.994887 0
M  V30 15408 H 1432.69 7.55102 -0.368426 0
M  V30 15409 H 1433.96 7.75349 0.803382 0
M  V30 15410 N 1438.19 0.611994 1.45232 0
M  V30 15411 C 1439.15 -0.0943825 2.29006 0
M  V30 15412 C 1440.15 -0.790863 1.40007 0
M  V30 15413 O 1441.34 -0.638356 1.62082 0
M  V30 15414 C 1438.48 -1.1439 3.21135 0
M  V30 15415 H 1439.67 0.6422 2.92943 0
M  V30 15416 H 1437.22 0.37124 1.51827 0
M  V30 15417 H 1437.96 -1.9111 2.62007 0
M  V30 15418 H 1437.74 -0.648638 3.86698 0
M  V30 15419 H 1439.23 -1.63848 3.84114 0
M  V30 15420 N 1439.67 -1.53632 0.351409 0
M  V30 15421 C 1440.58 -2.2899 -0.509985 0
M  V30 15422 C 1441.6 -1.34403 -1.10507 0
M  V30 15423 O 1442.77 -1.67448 -1.11906 0
M  V30 15424 C 1439.84 -3.05392 -1.64124 0
M  V30 15425 C 1438.9 -4.15619 -1.07514 0
M  V30 15426 C 1438.13 -4.88369 -2.15248 0
M  V30 15427 O 1438.35 -4.60854 -3.3611 0
M  V30 15428 O 1437.29 -5.74636 -1.79101 0
M  V30 15429 H 1441.11 -3.03526 0.10283 0
M  V30 15430 H 1438.7 -1.48947 0.116214 0
M  V30 15431 H 1440.58 -3.53146 -2.29926 0
M  V30 15432 H 1439.26 -2.33705 -2.23972 0
M  V30 15433 H 1438.16 -3.7215 -0.381421 0
M  V30 15434 H 1439.5 -4.8943 -0.521413 0
M  V30 15435 N 1441.15 -0.0802183 -1.57396 0
M  V30 15436 C 1442.56 0.276428 -1.57188 0
M  V30 15437 C 1442.76 1.69456 -1.09027 0
M  V30 15438 O 1441.82 2.40792 -0.75997 0
M  V30 15439 C 1443.13 0.0784079 -3.00598 0
M  V30 15440 C 1444.68 0.1473 -3.12653 0
M  V30 15441 C 1445.16 -0.0225423 -4.57994 0
M  V30 15442 N 1446.65 0.0327854 -4.63188 0
M  V30 15443 C 1447.38 -0.0740922 -5.73352 0
M  V30 15444 N 1446.88 -0.234966 -6.92401 0
M  V30 15445 N 1448.67 -0.0164241 -5.62098 0
M  V30 15446 H 1440.82 -1.00695 -1.87014 0
M  V30 15447 H 1443.08 -0.393402 -0.862519 0
M  V30 15448 H 1442.79 -0.900488 -3.39977 0
M  V30 15449 H 1442.66 0.82713 -3.6802 0
M  V30 15450 H 1445.05 1.11669 -2.73156 0
M  V30 15451 H 1445.13 -0.632666 -2.47853 0
M  V30 15452 H 1444.78 -0.988733 -4.98183 0
M  V30 15453 H 1444.71 0.776933 -5.20837 0
M  V30 15454 H 1447.2 0.15519 -3.77581 0
M  V30 15455 H 1447.51 -0.308435 -7.72184 0
M  V30 15456 H 1445.86 -0.270439 -6.94474 0
M  V30 15457 H 1449.05 0.108019 -4.67975 0
M  V30 15458 H 1449.22 -0.10317 -6.47918 0
M  V30 15459 N 1442.63 1.56409 0.193394 0
M  V30 15460 C 1444.04 1.50032 0.544298 0
M  V30 15461 C 1444.24 0.780546 1.85768 0
M  V30 15462 O 1443.3 0.331769 2.50311 0
M  V30 15463 C 1444.61 2.94705 0.597463 0
M  V30 15464 C 1446.16 3.05386 0.686179 0
M  V30 15465 C 1446.63 4.51473 0.770439 0
M  V30 15466 N 1448.12 4.55631 0.833921 0
M  V30 15467 C 1448.86 5.65982 0.919314 0
M  V30 15468 N 1448.36 6.8602 0.966904 0
M  V30 15469 N 1450.15 5.539 0.956634 0
M  V30 15470 H 1442.3 2.01619 -0.668096 0
M  V30 15471 H 1444.56 0.917589 -0.238191 0
M  V30 15472 H 1444.27 3.50431 -0.298509 0
M  V30 15473 H 1444.14 3.48151 1.45157 0
M  V30 15474 H 1446.53 2.49708 1.57258 0
M  V30 15475 H 1446.61 2.55062 -0.194165 0
M  V30 15476 H 1446.25 5.07777 -0.111619 0
M  V30 15477 H 1446.18 4.99531 1.66661 0
M  V30 15478 H 1448.68 3.69198 0.80632 0
M  V30 15479 H 1448.99 7.6587 1.03262 0
M  V30 15480 H 1447.33 6.88674 0.935552 0
M  V30 15481 H 1450.52 4.59044 0.916304 0
M  V30 15482 H 1450.7 6.39926 1.01972 0
M  V30 15483 N 1444.1 -0.461169 1.50702 0
M  V30 15484 C 1445.07 -1.54032 1.69725 0
M  V30 15485 C 1446.07 -1.50445 0.567707 0
M  V30 15486 O 1447.26 -1.52889 0.834901 0
M  V30 15487 C 1444.39 -2.93642 1.73168 0
M  V30 15488 H 1445.58 -1.38478 2.66015 0
M  V30 15489 H 1443.13 -0.688235 1.40332 0
M  V30 15490 H 1443.87 -3.14629 0.786078 0
M  V30 15491 H 1443.65 -2.97652 2.55236 0
M  V30 15492 H 1445.14 -3.71972 1.89807 0
M  V30 15493 N 1445.58 -1.40446 -0.715026 0
M  V30 15494 C 1447 -1.22488 -1.02317 0
M  V30 15495 C 1447.2 -0.100481 -2.01249 0
M  V30 15496 O 1446.25 0.541447 -2.46626 0
M  V30 15497 C 1447.57 -2.56682 -1.56636 0
M  V30 15498 C 1449.11 -2.63699 -1.68617 0
M  V30 15499 C 1449.59 -3.98163 -2.26342 0
M  V30 15500 N 1451.08 -3.99907 -2.33727 0
M  V30 15501 C 1451.82 -5.00737 -2.79375 0
M  V30 15502 N 1451.31 -6.11961 -3.24771 0
M  V30 15503 N 1453.1 -4.88106 -2.78764 0
M  V30 15504 H 1445.26 -2.12317 -0.0592712 0
M  V30 15505 H 1447.52 -0.943823 -0.088895 0
M  V30 15506 H 1447.22 -3.39615 -0.914036 0
M  V30 15507 H 1447.1 -2.77809 -2.55151 0
M  V30 15508 H 1449.49 -1.81138 -2.32966 0
M  V30 15509 H 1449.57 -2.46402 -0.687004 0
M  V30 15510 H 1449.21 -4.81164 -1.62614 0
M  V30 15511 H 1449.14 -4.1279 -3.26974 0
M  V30 15512 H 1451.63 -3.19592 -2.01666 0
M  V30 15513 H 1451.94 -6.84787 -3.58171 0
M  V30 15514 H 1450.29 -6.15525 -3.22729 0
M  V30 15515 H 1453.48 -4.00307 -2.42635 0
M  V30 15516 H 1453.65 -5.66828 -3.14023 0
M  V30 15517 N 1447.06 0.947303 -1.25952 0
M  V30 15518 C 1448.01 2.03076 -1.03653 0
M  V30 15519 C 1448.99 1.60874 0.0290512 0
M  V30 15520 O 1450.19 1.76008 -0.187169 0
M  V30 15521 C 1447.31 3.36797 -0.66501 0
M  V30 15522 C 1446.4 3.85502 -1.76773 0
M  V30 15523 N 1446.79 4.06922 -3.00413 0
M  V30 15524 C 1445.09 4.14359 -1.64993 0
M  V30 15525 C 1445.79 4.4717 -3.7204 0
M  V30 15526 N 1444.77 4.53523 -2.99697 0
M  V30 15527 H 1448.57 2.17641 -1.97509 0
M  V30 15528 H 1446.08 1.13268 -1.16379 0
M  V30 15529 H 1448.08 4.14053 -0.486427 0
M  V30 15530 H 1446.74 3.23607 0.266138 0
M  V30 15531 H 1447.75 3.93786 -3.36383 0
M  V30 15532 H 1444.43 4.09991 -0.788254 0
M  V30 15533 H 1445.82 4.71985 -4.78205 0
M  V30 15534 N 1448.54 1.07657 1.15099 0
M  V30 15535 C 1449.95 0.802696 1.37945 0
M  V30 15536 C 1450.15 -0.591622 1.92619 0
M  V30 15537 O 1449.21 -1.34979 2.13394 0
M  V30 15538 C 1450.52 1.87907 2.34759 0
M  V30 15539 C 1452.07 1.90418 2.48415 0
M  V30 15540 C 1452.55 2.97148 3.48521 0
M  V30 15541 N 1454.04 2.96271 3.56059 0
M  V30 15542 C 1454.77 3.75498 4.33346 0
M  V30 15543 N 1454.27 4.64583 5.1394 0
M  V30 15544 N 1456.06 3.63831 4.28466 0
M  V30 15545 H 1448.21 1.97578 0.779537 0
M  V30 15546 H 1450.48 0.856978 0.405331 0
M  V30 15547 H 1450.18 2.8811 2.01707 0
M  V30 15548 H 1450.06 1.74183 3.34575 0
M  V30 15549 H 1452.44 0.908655 2.80762 0
M  V30 15550 H 1452.52 2.0822 1.48586 0
M  V30 15551 H 1452.17 3.96903 3.16908 0
M  V30 15552 H 1452.1 2.76593 4.48112 0
M  V30 15553 H 1454.59 2.31697 2.98538 0
M  V30 15554 H 1454.9 5.2166 5.70167 0
M  V30 15555 H 1453.25 4.6863 5.13236 0
M  V30 15556 H 1456.44 2.93609 3.6457 0
M  V30 15557 H 1456.61 4.25818 4.8845 0
M  V30 15558 N 1450.02 -1.31994 0.861122 0
M  V30 15559 C 1450.93 -2.32495 0.313555 0
M  V30 15560 C 1451.94 -1.64331 -0.571966 0
M  V30 15561 O 1453.12 -1.9582 -0.470794 0
M  V30 15562 C 1450.18 -3.43311 -0.483603 0
M  V30 15563 C 1449.24 -4.27153 0.428825 0
M  V30 15564 C 1448.48 -5.32676 -0.330383 0
M  V30 15565 O 1448.7 -5.48665 -1.55957 0
M  V30 15566 O 1447.63 -6.01116 0.307174 0
M  V30 15567 H 1451.46 -2.81234 1.14636 0
M  V30 15568 H 1449.05 -1.35734 0.624239 0
M  V30 15569 H 1450.93 -4.10877 -0.935831 0
M  V30 15570 H 1449.6 -2.9675 -1.2931 0
M  V30 15571 H 1448.51 -3.62372 0.929366 0
M  V30 15572 H 1449.84 -4.77255 1.20368 0
M  V30 15573 N 1451.49 -0.619688 -1.44906 0
M  V30 15574 C 1452.74 -0.119397 -2.01747 0
M  V30 15575 C 1453.06 1.25904 -1.48907 0
M  V30 15576 O 1452.33 1.83417 -0.688104 0
M  V30 15577 H 1450.91 -0.0411482 -0.745866 0
M  V30 15578 H 1453.58 -0.803813 -1.77552 0
M  V30 15579 H 1452.67 -0.078368 -3.12002 0
M  V30 15580 N 1452.97 1.53444 -0.359552 0
M  V30 15581 C 1454.2 2.06058 0.235576 0
M  V30 15582 C 1454.62 1.23175 1.42161 0
M  V30 15583 O 1453.98 0.249338 1.79577 0
M  V30 15584 C 1454.03 3.55351 0.613025 0
M  V30 15585 O 1453.13 3.75229 1.71104 0
M  V30 15586 H 1452.47 0.663038 0.0357266 0
M  V30 15587 H 1455 1.97923 -0.518408 0
M  V30 15588 H 1455.01 3.9827 0.885722 0
M  V30 15589 H 1453.69 4.15122 -0.254243 0
M  V30 15590 H 1452.27 3.4421 1.43437 0
M  V30 15591 N 1454.45 0.0885642 1.57351 0
M  V30 15592 C 1455.87 -0.268088 1.57332 0
M  V30 15593 C 1456.07 -1.68875 1.09924 0
M  V30 15594 O 1455.12 -2.40385 0.772729 0
M  V30 15595 C 1456.44 -0.0624654 3.00635 0
M  V30 15596 C 1457.98 -0.130717 3.12727 0
M  V30 15597 C 1458.46 0.0468305 4.57976 0
M  V30 15598 N 1459.95 -0.00822093 4.63199 0
M  V30 15599 C 1460.68 0.104497 5.73305 0
M  V30 15600 N 1460.18 0.271682 6.92267 0
M  V30 15601 N 1461.97 0.0462333 5.62081 0
M  V30 15602 H 1454.12 1.01686 1.86477 0
M  V30 15603 H 1456.39 0.397971 0.86042 0
M  V30 15604 H 1456.09 0.918505 3.39494 0
M  V30 15605 H 1455.97 -0.807602 3.68453 0
M  V30 15606 H 1458.35 -1.10219 2.73744 0
M  V30 15607 H 1458.44 0.645801 2.47514 0
M  V30 15608 H 1458.08 1.01514 4.97652 0
M  V30 15609 H 1458.01 -0.7493 5.21242 0
M  V30 15610 H 1460.5 -0.135164 3.77658 0
M  V30 15611 H 1460.81 0.349381 7.7201 0
M  V30 15612 H 1459.16 0.307265 6.9432 0
M  V30 15613 H 1462.35 -0.0831995 4.68026 0
M  V30 15614 H 1462.52 0.137529 6.47854 0
M  V30 15615 N 1455.93 -1.56509 -0.185096 0
M  V30 15616 C 1457.34 -1.71024 -0.748856 0
M  V30 15617 C 1457.69 -0.69681 -1.83409 0
M  V30 15618 O 1456.82 0.144711 -2.15916 0
M  V30 15619 C 1457.41 -3.1008 -1.36513 0
M  V30 15620 C 1455.97 -3.26325 -1.87587 0
M  V30 15621 C 1455.12 -2.66977 -0.749579 0
M  V30 15622 H 1458.07 -1.58649 0.0401175 0
M  V30 15623 H 1458.09 -3.07965 -2.23468 0
M  V30 15624 H 1457.6 -3.83816 -0.575051 0
M  V30 15625 H 1455.7 -2.57522 -2.69283 0
M  V30 15626 H 1455.81 -4.33931 -2.03078 0
M  V30 15627 H 1454.18 -2.26419 -1.16647 0
M  V30 15628 H 1454.96 -3.43288 0.0284301 0
M  V30 15629 N 1457.41 0.45317 -1.50944 0
M  V30 15630 C 1458.37 1.5313 -1.7054 0
M  V30 15631 C 1459.37 1.50142 -0.575678 0
M  V30 15632 O 1460.56 1.52444 -0.842997 0
M  V30 15633 C 1457.69 2.92719 -1.74723 0
M  V30 15634 H 1458.88 1.37066 -2.66745 0
M  V30 15635 H 1456.44 0.680783 -1.40695 0
M  V30 15636 H 1457.17 3.14208 -0.802753 0
M  V30 15637 H 1456.96 2.96295 -2.56811 0
M  V30 15638 H 1458.45 3.7096 -1.91777 0
M  V30 15639 N 1458.88 1.40823 0.707568 0
M  V30 15640 C 1460.3 1.23029 1.01666 0
M  V30 15641 C 1460.5 0.111152 2.01193 0
M  V30 15642 O 1459.56 -0.52836 2.4691 0
M  V30 15643 C 1460.87 2.57509 1.55272 0
M  V30 15644 C 1462.42 2.6459 1.67216 0
M  V30 15645 C 1462.89 3.99357 2.24227 0
M  V30 15646 N 1464.38 4.01141 2.31603 0
M  V30 15647 C 1465.12 5.02211 2.76715 0
M  V30 15648 N 1464.61 6.13674 3.21521 0
M  V30 15649 N 1466.41 4.89577 2.76172 0
M  V30 15650 H 1458.56 2.12346 0.0480107 0
M  V30 15651 H 1460.82 0.944281 0.0838885 0
M  V30 15652 H 1460.53 3.40095 0.896012 0
M  V30 15653 H 1460.4 2.79158 2.53674 0
M  V30 15654 H 1462.79 1.8237 2.32002 0
M  V30 15655 H 1462.87 2.46763 0.673927 0
M  V30 15656 H 1462.51 4.8202 1.6006 0
M  V30 15657 H 1462.44 4.14518 3.2478 0
M  V30 15658 H 1464.93 3.20657 1.99968 0
M  V30 15659 H 1465.25 6.86677 3.54534 0
M  V30 15660 H 1463.59 6.17228 3.1946 0
M  V30 15661 H 1466.78 4.01588 2.40509 0
M  V30 15662 H 1466.96 5.68485 3.11012 0
M  V30 15663 N 1460.36 -0.94061 1.26453 0
M  V30 15664 C 1461.61 -1.68354 1.11809 0
M  V30 15665 C 1461.93 -1.9203 -0.339037 0
M  V30 15666 O 1461.2 -1.51739 -1.23903 0
M  V30 15667 H 1459.78 -0.623916 0.410777 0
M  V30 15668 H 1462.44 -1.13014 1.58789 0
M  V30 15669 H 1461.54 -2.65706 1.63728 0
M  V30 15670 N 1461.84 -1.08266 -1.14527 0
M  V30 15671 C 1463.09 -0.809856 -1.85164 0
M  V30 15672 C 1463.41 0.666263 -1.83265 0
M  V30 15673 O 1462.68 1.48295 -1.28006 0
M  V30 15674 H 1461.26 -0.296598 -0.685594 0
M  V30 15675 H 1463.92 -1.36834 -1.38789 0
M  V30 15676 H 1463.02 -1.15272 -2.90032 0
M  V30 15677 N 1463.32 1.31536 -0.86811 0
M  V30 15678 C 1464.23 2.32326 -0.32588 0
M  V30 15679 C 1465.25 1.64632 0.563243 0
M  V30 15680 O 1466.42 1.96067 0.460403 0
M  V30 15681 C 1463.49 3.43562 0.46539 0
M  V30 15682 C 1462.55 4.26919 -0.451472 0
M  V30 15683 C 1461.78 5.32844 0.302129 0
M  V30 15684 O 1462 5.49485 1.53045 0
M  V30 15685 O 1460.94 6.00944 -0.339048 0
M  V30 15686 H 1464.76 2.80622 -1.16126 0
M  V30 15687 H 1462.35 1.35401 -0.631428 0
M  V30 15688 H 1464.23 4.11368 0.914028 0
M  V30 15689 H 1462.91 2.97432 1.27734 0
M  V30 15690 H 1461.81 3.61874 -0.948571 0
M  V30 15691 H 1463.15 4.7661 -1.22897 0
M  V30 15692 N 1464.8 0.627364 1.44575 0
M  V30 15693 C 1466.05 0.130094 2.01681 0
M  V30 15694 C 1466.37 -1.25112 1.49572 0
M  V30 15695 O 1465.64 -1.8305 0.697822 0
M  V30 15696 H 1464.22 0.0451032 0.745637 0
M  V30 15697 H 1466.88 0.813218 1.77124 0
M  V30 15698 H 1465.97 0.0949131 3.11956 0
M  V30 15699 N 1466.28 -1.53251 0.367684 0
M  V30 15700 C 1467.19 -2.29518 -0.485669 0
M  V30 15701 C 1468.2 -1.35568 -1.09075 0
M  V30 15702 O 1469.38 -1.68626 -1.10124 0
M  V30 15703 C 1466.44 -3.07115 -1.60876 0
M  V30 15704 C 1465.5 -4.16736 -1.031 0
M  V30 15705 C 1464.74 -4.90624 -2.10056 0
M  V30 15706 O 1464.96 -4.64393 -3.31203 0
M  V30 15707 O 1463.89 -5.76503 -1.72996 0
M  V30 15708 H 1467.72 -3.034 0.135017 0
M  V30 15709 H 1465.3 -1.48816 0.132005 0
M  V30 15710 H 1467.19 -3.55564 -2.26168 0
M  V30 15711 H 1465.86 -2.36068 -2.21481 0
M  V30 15712 H 1464.77 -3.72534 -0.341928 0
M  V30 15713 H 1466.1 -4.89956 -0.469473 0
M  V30 15714 N 1467.75 -0.0969077 -1.57302 0
M  V30 15715 C 1469 0.565254 -1.94034 0
M  V30 15716 C 1469.32 1.68609 -0.9796 0
M  V30 15717 O 1468.59 1.95874 -0.0319788 0
M  V30 15718 H 1467.17 0.211796 -0.716346 0
M  V30 15719 H 1469.83 -0.160665 -1.94237 0
M  V30 15720 H 1468.93 0.974268 -2.96504 0
M  V30 15721 N 1469.23 1.56605 0.176793 0
M  V30 15722 C 1470.14 1.99211 1.23903 0
M  V30 15723 C 1471.16 0.902614 1.48758 0
M  V30 15724 O 1472.33 1.20982 1.61014 0
M  V30 15725 C 1469.4 2.33873 2.55938 0
M  V30 15726 C 1468.46 3.56624 2.38994 0
M  V30 15727 C 1467.69 3.89623 3.64733 0
M  V30 15728 O 1467.92 3.23662 4.6968 0
M  V30 15729 O 1466.85 4.82992 3.5917 0
M  V30 15730 H 1470.68 2.89827 0.907398 0
M  V30 15731 H 1468.26 1.44401 0.383234 0
M  V30 15732 H 1470.14 2.57161 3.33836 0
M  V30 15733 H 1468.82 1.46421 2.88691 0
M  V30 15734 H 1467.72 3.38561 1.59146 0
M  V30 15735 H 1469.06 4.446 2.11167 0
M  V30 15736 N 1470.71 -0.445159 1.51182 0
M  V30 15737 C 1471.96 -1.19288 1.6314 0
M  V30 15738 C 1472.28 -1.91904 0.346109 0
M  V30 15739 O 1471.55 -1.8523 -0.637695 0
M  V30 15740 H 1470.13 -0.443319 0.601229 0
M  V30 15741 H 1472.79 -0.511136 1.88078 0
M  V30 15742 H 1471.89 -1.92672 2.45528 0
M  V30 15743 N 1472.19 -1.41197 -0.700089 0
M  V30 15744 C 1473.6 -1.3593 -1.27985 0
M  V30 15745 C 1473.95 -0.0402059 -1.96159 0
M  V30 15746 O 1473.07 0.861611 -1.98508 0
M  V30 15747 C 1473.67 -2.46203 -2.32743 0
M  V30 15748 C 1472.23 -2.44348 -2.86306 0
M  V30 15749 C 1471.38 -2.26283 -1.60285 0
M  V30 15750 H 1474.33 -1.50778 -0.495152 0
M  V30 15751 H 1474.35 -2.15001 -3.13934 0
M  V30 15752 H 1473.86 -3.42195 -1.83096 0
M  V30 15753 H 1471.96 -1.521 -3.40142 0
M  V30 15754 H 1472.07 -3.40497 -3.37044 0
M  V30 15755 H 1470.44 -1.74078 -1.85928 0
M  V30 15756 H 1471.22 -3.24295 -1.1264 0
M  V30 15757 N 1473.67 0.933891 -1.2695 0
M  V30 15758 C 1474.94 1.65874 -1.0366 0
M  V30 15759 C 1475.32 2.0666 0.43066 0
M  V30 15760 O 1474.67 1.79606 1.41259 0
M  V30 15761 C 1474.88 2.86546 -1.99229 0
M  V30 15762 C 1476.23 3.58031 -2.28251 0
M  V30 15763 O 1477.25 2.96663 -1.97154 0
M  V30 15764 O 1476.11 4.68583 -2.81233 0
M  V30 15765 H 1473.21 0.72673 -0.394706 0
M  V30 15766 H 1475.75 0.984975 -1.38189 0
M  V30 15767 H 1474.52 2.53351 -2.9821 0
M  V30 15768 H 1474.15 3.61645 -1.65224 0
M  V30 15769 N 1475.14 1.08871 1.13951 0
M  V30 15770 C 1476.39 0.819665 1.84732 0
M  V30 15771 C 1476.71 -0.656535 1.83615 0
M  V30 15772 O 1475.98 -1.47614 1.28791 0
M  V30 15773 H 1474.56 0.30023 0.684011 0
M  V30 15774 H 1477.22 1.37568 1.38062 0
M  V30 15775 H 1476.32 1.16809 2.89417 0
M  V30 15776 N 1476.62 -1.31073 0.875073 0
M  V30 15777 C 1477.87 -1.9613 0.487584 0
M  V30 15778 C 1478.19 -1.69482 -0.964407 0
M  V30 15779 O 1477.46 -1.013 -1.67676 0
M  V30 15780 H 1476.04 -0.725649 0.177319 0
M  V30 15781 H 1478.7 -1.59787 1.11598 0
M  V30 15782 H 1477.8 -3.05265 0.649574 0
M  V30 15783 N 1478.1 -0.635022 -1.4424 0
M  V30 15784 C 1479.01 0.0686832 -2.34499 0
M  V30 15785 C 1480.03 0.831574 -1.52843 0
M  V30 15786 O 1481.2 0.782954 -1.85558 0
M  V30 15787 C 1478.27 1.03543 -3.30877 0
M  V30 15788 C 1477.33 0.271484 -4.28441 0
M  V30 15789 C 1476.56 1.19218 -5.20214 0
M  V30 15790 O 1476.78 2.43101 -5.16002 0
M  V30 15791 O 1475.72 0.6744 -5.9811 0
M  V30 15792 H 1479.54 -0.673781 -2.96132 0
M  V30 15793 H 1477.13 -0.395211 -1.44078 0
M  V30 15794 H 1479.01 1.59151 -3.90191 0
M  V30 15795 H 1477.69 1.75844 -2.71773 0
M  V30 15796 H 1476.59 -0.327736 -3.72662 0
M  V30 15797 H 1477.93 -0.411584 -4.90476 0
M  V30 15798 N 1479.58 1.53054 -0.375806 0
M  V30 15799 C 1480.99 1.5958 -0.0251765 0
M  V30 15800 C 1481.19 1.39047 1.45836 0
M  V30 15801 O 1480.25 1.20073 2.22123 0
M  V30 15802 C 1481.56 2.96676 -0.490274 0
M  V30 15803 C 1483.11 3.09815 -0.44537 0
M  V30 15804 C 1483.59 4.4934 -0.886442 0
M  V30 15805 N 1485.08 4.55484 -0.84191 0
M  V30 15806 C 1485.81 5.61652 -1.15476 0
M  V30 15807 N 1485.31 6.75526 -1.53741 0
M  V30 15808 N 1487.1 5.51688 -1.07689 0
M  V30 15809 H 1479.25 1.64651 -1.34178 0
M  V30 15810 H 1481.52 0.77278 -0.549104 0
M  V30 15811 H 1481.22 3.16874 -1.52589 0
M  V30 15812 H 1481.1 3.77016 0.11776 0
M  V30 15813 H 1483.48 2.89321 0.581138 0
M  V30 15814 H 1483.56 2.3146 -1.08903 0
M  V30 15815 H 1483.21 4.70573 -1.91111 0
M  V30 15816 H 1483.14 5.26141 -0.219925 0
M  V30 15817 H 1485.63 3.73725 -0.56015 0
M  V30 15818 H 1485.94 7.52489 -1.76012 0
M  V30 15819 H 1484.29 6.76892 -1.57616 0
M  V30 15820 H 1487.48 4.61605 -0.777062 0
M  V30 15821 H 1487.65 6.34329 -1.32403 0
M  V30 15822 N 1481.06 0.105248 1.57248 0
M  V30 15823 C 1482.47 -0.251385 1.57608 0
M  V30 15824 C 1482.67 -1.677 1.11709 0
M  V30 15825 O 1481.73 -2.39552 0.798182 0
M  V30 15826 C 1483.04 -0.0305755 3.00684 0
M  V30 15827 C 1484.59 -0.0975409 3.12848 0
M  V30 15828 C 1485.06 0.0954024 4.57901 0
M  V30 15829 N 1486.56 0.040908 4.63182 0
M  V30 15830 C 1487.29 0.165298 5.73162 0
M  V30 15831 N 1486.79 0.345091 6.9194 0
M  V30 15832 N 1488.58 0.105847 5.62 0
M  V30 15833 H 1480.73 1.03658 1.85388 0
M  V30 15834 H 1482.99 0.407074 0.856151 0
M  V30 15835 H 1482.7 0.954461 3.38501 0
M  V30 15836 H 1482.57 -0.768477 3.69289 0
M  V30 15837 H 1484.96 -1.07309 2.74898 0
M  V30 15838 H 1485.04 0.672017 2.46815 0
M  V30 15839 H 1484.69 1.06786 4.96547 0
M  V30 15840 H 1484.62 -0.693974 5.22007 0
M  V30 15841 H 1487.11 -0.0951009 3.7778 0
M  V30 15842 H 1487.42 0.431243 7.71596 0
M  V30 15843 H 1485.76 0.38089 6.93955 0
M  V30 15844 H 1488.96 -0.0335544 4.68088 0
M  V30 15845 H 1489.13 0.206235 6.47672 0
M  V30 15846 N 1482.53 -1.56697 -0.168486 0
M  V30 15847 C 1483.95 -1.50879 -0.52036 0
M  V30 15848 C 1484.15 -0.810001 -1.84503 0
M  V30 15849 O 1483.21 -0.371549 -2.49751 0
M  V30 15850 C 1484.52 -2.95618 -0.550502 0
M  V30 15851 C 1486.07 -3.06439 -0.637508 0
M  V30 15852 C 1486.54 -4.52642 -0.698516 0
M  V30 15853 N 1488.03 -4.569 -0.761328 0
M  V30 15854 C 1488.77 -5.67373 -0.829155 0
M  V30 15855 N 1488.26 -6.87471 -0.857642 0
M  V30 15856 N 1490.06 -5.55352 -0.868392 0
M  V30 15857 H 1482.21 -2.00531 0.700087 0
M  V30 15858 H 1484.47 -0.913683 0.252759 0
M  V30 15859 H 1484.18 -3.49912 0.354222 0
M  V30 15860 H 1484.05 -3.50416 -1.396 0
M  V30 15861 H 1486.44 -2.52178 -1.53266 0
M  V30 15862 H 1486.52 -2.54721 0.234719 0
M  V30 15863 H 1486.16 -5.07535 0.192387 0
M  V30 15864 H 1486.09 -5.0212 -1.58693 0
M  V30 15865 H 1488.58 -3.70434 -0.747482 0
M  V30 15866 H 1488.9 -7.67416 -0.910648 0
M  V30 15867 H 1487.24 -6.90076 -0.825872 0
M  V30 15868 H 1490.43 -4.60444 -0.843158 0
M  V30 15869 H 1490.61 -6.41468 -0.917789 0
M  V30 15870 N 1484.01 0.437135 -1.51416 0
M  V30 15871 C 1485.43 0.773631 -1.39596 0
M  V30 15872 C 1485.63 1.95737 -0.478463 0
M  V30 15873 O 1484.68 2.52413 0.0662971 0
M  V30 15874 C 1486 1.05381 -2.8163 0
M  V30 15875 C 1487.55 1.15824 -2.90782 0
M  V30 15876 C 1488.02 1.47135 -4.33722 0
M  V30 15877 N 1489.51 1.54059 -4.3683 0
M  V30 15878 C 1490.25 1.79858 -5.44462 0
M  V30 15879 N 1489.74 2.03449 -6.62254 0
M  V30 15880 N 1491.54 1.81642 -5.31942 0
M  V30 15881 H 1483.69 -0.342468 -2.09621 0
M  V30 15882 H 1485.95 -0.0908158 -0.94364 0
M  V30 15883 H 1485.66 0.256708 -3.50762 0
M  V30 15884 H 1485.53 1.98139 -3.20968 0
M  V30 15885 H 1487.92 1.94597 -2.21847 0
M  V30 15886 H 1488 0.209663 -2.54939 0
M  V30 15887 H 1487.64 0.688897 -5.03206 0
M  V30 15888 H 1487.57 2.43199 -4.67078 0
M  V30 15889 H 1490.06 1.3773 -3.51907 0
M  V30 15890 H 1490.38 2.22506 -7.40075 0
M  V30 15891 H 1488.72 2.00771 -6.65369 0
M  V30 15892 H 1491.91 1.62731 -4.38903 0
M  V30 15893 H 1492.08 2.01411 -6.15904 0
M  V30 15894 N 1485.49 1.41566 0.692592 0
M  V30 15895 C 1486.44 1.40114 1.79867 0
M  V30 15896 C 1487.42 0.275064 1.58531 0
M  V30 15897 O 1488.62 0.515959 1.69313 0
M  V30 15898 C 1485.75 1.28865 3.18196 0
M  V30 15899 C 1484.83 2.46347 3.45216 0
M  V30 15900 N 1485.22 3.71808 3.42918 0
M  V30 15901 C 1483.52 2.40224 3.75777 0
M  V30 15902 C 1484.22 4.49743 3.68926 0
M  V30 15903 N 1483.2 3.79898 3.88817 0
M  V30 15904 H 1487 2.35032 1.76457 0
M  V30 15905 H 1484.51 1.35663 0.892705 0
M  V30 15906 H 1486.51 1.25907 3.97433 0
M  V30 15907 H 1485.17 0.349339 3.22815 0
M  V30 15908 H 1486.18 4.04652 3.2323 0
M  V30 15909 H 1482.86 1.54781 3.87749 0
M  V30 15910 H 1484.25 5.58683 3.7326 0
M  V30 15911 N 1486.97 -0.927146 1.27443 0
M  V30 15912 C 1488.38 -1.20319 1.0486 0
M  V30 15913 C 1488.58 -2.00323 -0.217491 0
M  V30 15914 O 1487.64 -2.35032 -0.922833 0
M  V30 15915 C 1488.95 -1.9508 2.28833 0
M  V30 15916 C 1490.5 -2.08016 2.33877 0
M  V30 15917 C 1490.98 -2.86183 3.5758 0
M  V30 15918 N 1492.47 -2.93751 3.58141 0
M  V30 15919 C 1493.2 -3.54698 4.5053 0
M  V30 15920 N 1492.7 -4.17032 5.53223 0
M  V30 15921 N 1494.49 -3.52107 4.38152 0
M  V30 15922 H 1486.64 -0.392671 2.08739 0
M  V30 15923 H 1488.91 -0.236323 0.918072 0
M  V30 15924 H 1488.61 -1.43712 3.20998 0
M  V30 15925 H 1488.49 -2.95692 2.34193 0
M  V30 15926 H 1490.87 -2.5857 1.42217 0
M  V30 15927 H 1490.95 -1.06622 2.3252 0
M  V30 15928 H 1490.6 -2.36312 4.49576 0
M  V30 15929 H 1490.53 -3.87863 3.56188 0
M  V30 15930 H 1493.02 -2.49449 2.83872 0
M  V30 15931 H 1493.33 -4.61477 6.19886 0
M  V30 15932 H 1491.68 -4.15576 5.57065 0
M  V30 15933 H 1494.87 -3.02611 3.57134 0
M  V30 15934 H 1495.04 -3.99315 5.10344 0
M  V30 15935 N 1488.45 -1.09474 -1.13372 0
M  V30 15936 C 1489.4 -0.704018 -2.16858 0
M  V30 15937 C 1490.38 0.281867 -1.58412 0
M  V30 15938 O 1491.57 0.0921582 -1.7676 0
M  V30 15939 C 1488.7 -0.126682 -3.43066 0
M  V30 15940 C 1487.79 -1.13901 -4.08518 0
M  V30 15941 N 1488.18 -2.3263 -4.49129 0
M  V30 15942 C 1486.48 -0.977263 -4.35162 0
M  V30 15943 C 1487.18 -2.9703 -5.00148 0
M  V30 15944 N 1486.15 -2.24588 -4.95037 0
M  V30 15945 H 1489.96 -1.60796 -2.46012 0
M  V30 15946 H 1487.47 -0.97103 -1.30172 0
M  V30 15947 H 1489.47 0.171257 -4.16548 0
M  V30 15948 H 1488.13 0.772105 -3.15386 0
M  V30 15949 H 1489.14 -2.70218 -4.41817 0
M  V30 15950 H 1485.81 -0.1332 -4.17287 0
M  V30 15951 H 1487.2 -3.97966 -5.41362 0
M  V30 15952 N 1489.92 1.30607 -0.882012 0
M  V30 15953 C 1491.17 1.95869 -0.497978 0
M  V30 15954 C 1491.49 1.69991 0.955405 0
M  V30 15955 O 1490.76 1.02188 1.67136 0
M  V30 15956 H 1489.34 0.724699 -0.181165 0
M  V30 15957 H 1492.01 1.59193 -1.12444 0
M  V30 15958 H 1491.1 3.04917 -0.665754 0
M  V30 15959 N 1491.4 0.642663 1.43901 0
M  V30 15960 C 1492.37 -0.0457858 2.29154 0
M  V30 15961 C 1493.37 -0.760988 1.41653 0
M  V30 15962 O 1494.56 -0.603832 1.634 0
M  V30 15963 C 1491.69 -1.07552 3.23489 0
M  V30 15964 H 1492.88 0.704193 2.91515 0
M  V30 15965 H 1490.43 0.403361 1.51006 0
M  V30 15966 H 1491.17 -1.85509 2.66002 0
M  V30 15967 H 1490.95 -0.566468 3.87987 0
M  V30 15968 H 1492.44 -1.55663 3.87503 0
M  V30 15969 N 1492.88 -1.52852 0.383918 0
M  V30 15970 C 1494.29 -1.86477 -0.0912997 0
M  V30 15971 C 1494.64 -1.30382 -1.46611 0
M  V30 15972 O 1493.77 -0.633042 -2.06934 0
M  V30 15973 C 1494.36 -3.38361 -0.172447 0
M  V30 15974 C 1492.92 -3.71716 -0.591948 0
M  V30 15975 C 1492.07 -2.76176 0.24945 0
M  V30 15976 H 1495.02 -1.46839 0.602006 0
M  V30 15977 H 1495.04 -3.67325 -0.992603 0
M  V30 15978 H 1494.55 -3.79158 0.8283 0
M  V30 15979 H 1492.65 -3.36486 -1.60026 0
M  V30 15980 H 1492.77 -4.77792 -0.353835 0
M  V30 15981 H 1491.13 -2.53106 -0.284469 0
M  V30 15982 H 1491.91 -3.19809 1.24808 0
M  V30 15983 N 1494.36 -0.113586 -1.5719 0
M  V30 15984 C 1495.32 0.824258 -2.13866 0
M  V30 15985 C 1496.32 1.19831 -1.07224 0
M  V30 15986 O 1497.51 1.12471 -1.33026 0
M  V30 15987 C 1494.64 2.11391 -2.67445 0
M  V30 15988 H 1495.84 0.331803 -2.98059 0
M  V30 15989 H 1493.39 0.135599 -1.55711 0
M  V30 15990 H 1494.13 2.65079 -1.86824 0
M  V30 15991 H 1493.91 1.85523 -3.45433 0
M  V30 15992 H 1495.4 2.78443 -3.11222 0
M  V30 15993 N 1495.84 1.56784 0.160173 0
M  V30 15994 C 1497.07 1.86767 0.89026 0
M  V30 15995 C 1497.48 0.700276 1.75333 0
M  V30 15996 O 1496.84 -0.330342 1.79485 0
M  V30 15997 C 1496.89 3.15883 1.75784 0
M  V30 15998 O 1496.61 4.28124 0.929575 0
M  V30 15999 C 1498.11 3.5929 2.59664 0
M  V30 16000 H 1495.33 0.61938 0.258088 0
M  V30 16001 H 1497.87 2.03897 0.156919 0
M  V30 16002 H 1496.03 3.00546 2.4444 0
M  V30 16003 H 1496.44 5.01872 1.52397 0
M  V30 16004 H 1497.92 4.52506 3.16136 0
M  V30 16005 H 1498.39 2.83943 3.35072 0
M  V30 16006 H 1499 3.77277 1.96323 0
M  V30 16007 N 1497.32 -0.429099 1.51646 0
M  V30 16008 C 1498.55 -1.19832 1.68297 0
M  V30 16009 C 1498.95 -1.85275 0.383378 0
M  V30 16010 O 1498.3 -1.71862 -0.648771 0
M  V30 16011 C 1498.36 -2.31803 2.74786 0
M  V30 16012 C 1498.02 -1.8666 4.17141 0
M  V30 16013 C 1499.02 -1.36544 5.01649 0
M  V30 16014 C 1496.7 -1.94101 4.63282 0
M  V30 16015 C 1498.7 -0.944655 6.30361 0
M  V30 16016 C 1496.39 -1.51634 5.91988 0
M  V30 16017 C 1497.38 -1.01899 6.75356 0
M  V30 16018 O 1497.07 -0.600375 8.01655 0
M  V30 16019 H 1496.8 -0.366924 0.567752 0
M  V30 16020 H 1499.36 -0.513643 1.98874 0
M  V30 16021 H 1497.59 -3.03573 2.39542 0
M  V30 16022 H 1499.28 -2.93639 2.80234 0
M  V30 16023 H 1500.04 -1.30184 4.67201 0
M  V30 16024 H 1495.92 -2.31758 3.98509 0
M  V30 16025 H 1499.47 -0.555763 6.95383 0
M  V30 16026 H 1495.36 -1.57667 6.25948 0
M  V30 16027 H 1496.13 -0.725485 8.15278 0
M  V30 16028 N 1498.79 -1.41931 -0.685074 0
M  V30 16029 C 1499.7 -1.46985 -1.82846 0
M  V30 16030 C 1500.72 -0.359487 -1.70246 0
M  V30 16031 O 1501.9 -0.608824 -1.91977 0
M  V30 16032 C 1498.96 -1.36001 -3.18912 0
M  V30 16033 C 1498.02 -2.57442 -3.43543 0
M  V30 16034 C 1497.25 -2.46972 -4.73118 0
M  V30 16035 O 1497.48 -1.49999 -5.50324 0
M  V30 16036 O 1496.41 -3.36922 -4.98766 0
M  V30 16037 H 1500.24 -2.4347 -1.81538 0
M  V30 16038 H 1497.82 -1.23583 -0.839497 0
M  V30 16039 H 1499.7 -1.32198 -4.00127 0
M  V30 16040 H 1498.38 -0.426366 -3.2088 0
M  V30 16041 H 1497.29 -2.66821 -2.62217 0
M  V30 16042 H 1498.62 -3.49671 -3.46398 0
M  V30 16043 N 1500.27 0.920374 -1.27933 0
M  V30 16044 C 1501.52 1.66554 -1.14474 0
M  V30 16045 C 1501.84 1.92545 0.308444 0
M  V30 16046 O 1501.11 1.53691 1.21473 0
M  V30 16047 H 1499.69 0.617302 -0.420651 0
M  V30 16048 H 1502.35 1.10473 -1.60567 0
M  V30 16049 H 1501.45 2.63067 -1.67935 0
M  V30 16050 N 1501.75 1.10074 1.1279 0
M  V30 16051 C 1503.03 0.753069 1.80522 0
M  V30 16052 C 1503.41 -0.760982 1.96907 0
M  V30 16053 O 1502.75 -1.68584 1.54245 0
M  V30 16054 C 1502.96 1.49982 3.15129 0
M  V30 16055 C 1504.31 1.66993 3.90382 0
M  V30 16056 O 1505.34 1.46289 3.24774 0
M  V30 16057 O 1504.2 2.01293 5.08078 0
M  V30 16058 H 1501.29 0.271277 0.781241 0
M  V30 16059 H 1503.84 1.20333 1.19658 0
M  V30 16060 H 1502.61 2.53043 2.98471 0
M  V30 16061 H 1502.23 1.04217 3.83699 0
M  V30 16062 N 1503.23 -1.30138 0.888926 0
M  V30 16063 C 1504.19 -2.26299 0.363504 0
M  V30 16064 C 1505.19 -1.52951 -0.496244 0
M  V30 16065 O 1506.38 -1.71548 -0.302834 0
M  V30 16066 C 1503.51 -3.37482 -0.481544 0
M  V30 16067 H 1504.71 -2.7429 1.21265 0
M  V30 16068 H 1502.26 -1.41395 0.666124 0
M  V30 16069 H 1502.99 -2.94814 -1.35112 0
M  V30 16070 H 1502.78 -3.9187 0.134344 0
M  V30 16071 H 1504.27 -4.09048 -0.840816 0
M  V30 16072 N 1504.71 -0.650285 -1.43559 0
M  V30 16073 C 1506.12 -0.317586 -1.56408 0
M  V30 16074 C 1506.32 1.17844 -1.63447 0
M  V30 16075 O 1505.38 1.96318 -1.58794 0
M  V30 16076 C 1506.69 -1.02636 -2.82642 0
M  V30 16077 C 1508.24 -1.00633 -2.96381 0
M  V30 16078 C 1508.71 -1.69595 -4.25443 0
M  V30 16079 N 1510.2 -1.66345 -4.323 0
M  V30 16080 C 1510.94 -2.16581 -5.30924 0
M  V30 16081 N 1510.44 -2.75092 -6.35843 0
M  V30 16082 N 1512.23 -2.07098 -5.22558 0
M  V30 16083 H 1504.38 -1.62114 -1.37233 0
M  V30 16084 H 1506.64 -0.681588 -0.658895 0
M  V30 16085 H 1506.35 -2.08146 -2.83493 0
M  V30 16086 H 1506.22 -0.576081 -3.72775 0
M  V30 16087 H 1508.61 0.0403519 -2.95072 0
M  V30 16088 H 1508.69 -1.49528 -2.07545 0
M  V30 16089 H 1508.33 -2.74218 -4.27512 0
M  V30 16090 H 1508.26 -1.18168 -5.1317 0
M  V30 16091 H 1510.76 -1.23644 -3.571 0
M  V30 16092 H 1511.07 -3.11108 -7.07412 0
M  V30 16093 H 1509.41 -2.79152 -6.36474 0
M  V30 16094 H 1512.6 -1.61093 -4.39507 0
M  V30 16095 H 1512.78 -2.46557 -5.99261 0
M  V30 16096 N 1506.18 1.52647 -0.392018 0
M  V30 16097 C 1507.6 1.59544 -0.0421007 0
M  V30 16098 C 1507.8 1.40586 1.44353 0
M  V30 16099 O 1506.86 1.22422 2.20837 0
M  V30 16100 C 1508.17 2.9614 -0.521713 0
M  V30 16101 C 1509.72 3.09325 -0.478205 0
M  V30 16102 C 1510.19 4.48374 -0.93405 0
M  V30 16103 N 1511.68 4.54566 -0.890173 0
M  V30 16104 C 1512.42 5.60395 -1.21427 0
M  V30 16105 N 1511.91 6.73858 -1.60897 0
M  V30 16106 N 1513.71 5.50515 -1.13534 0
M  V30 16107 H 1505.86 1.63219 -1.35917 0
M  V30 16108 H 1508.12 0.766913 -0.557269 0
M  V30 16109 H 1507.83 3.15238 -1.55942 0
M  V30 16110 H 1507.7 3.7712 0.0777658 0
M  V30 16111 H 1510.09 2.89921 0.550418 0
M  V30 16112 H 1510.17 2.30292 -1.11352 0
M  V30 16113 H 1509.81 4.68519 -1.96092 0
M  V30 16114 H 1509.74 5.25878 -0.275717 0
M  V30 16115 H 1512.23 3.7311 -0.599758 0
M  V30 16116 H 1512.55 7.5058 -1.83983 0
M  V30 16117 H 1510.89 6.75182 -1.64786 0
M  V30 16118 H 1514.08 4.60755 -0.825977 0
M  V30 16119 H 1514.26 6.32889 -1.39124 0
M  V30 16120 N 1507.66 0.121921 1.57128 0
M  V30 16121 C 1508.57 -0.840825 2.19014 0
M  V30 16122 C 1509.59 -1.29051 1.16712 0
M  V30 16123 O 1510.76 -1.35289 1.49194 0
M  V30 16124 C 1507.83 -2.07204 2.7797 0
M  V30 16125 C 1506.89 -1.67399 3.95318 0
M  V30 16126 C 1506.12 -2.84652 4.51452 0
M  V30 16127 O 1506.35 -4.00161 4.06482 0
M  V30 16128 O 1505.28 -2.61568 5.42094 0
M  V30 16129 H 1509.11 -0.344146 3.01744 0
M  V30 16130 H 1506.69 -0.103841 1.49039 0
M  V30 16131 H 1508.57 -2.79307 3.1554 0
M  V30 16132 H 1507.25 -2.55872 1.9827 0
M  V30 16133 H 1506.16 -0.92395 3.62511 0
M  V30 16134 H 1507.49 -1.2347 4.76462 0
M  V30 16135 N 1509.14 -1.56867 -0.151857 0
M  V30 16136 C 1510.42 -1.7399 -0.893694 0
M  V30 16137 C 1510.8 -0.688628 -1.99552 0
M  V30 16138 O 1510.15 0.293289 -2.2661 0
M  V30 16139 C 1510.36 -3.1788 -1.44061 0
M  V30 16140 C 1511.7 -3.7942 -1.90592 0
M  V30 16141 O 1512.73 -3.21279 -1.53813 0
M  V30 16142 O 1511.59 -4.81549 -2.58404 0
M  V30 16143 H 1508.68 -0.711229 -0.421998 0
M  V30 16144 H 1511.23 -1.69137 -0.138162 0
M  V30 16145 H 1510 -3.85888 -0.648529 0
M  V30 16146 H 1509.62 -3.27139 -2.25978 0
M  V30 16147 N 1510.62 0.421051 -1.51871 0
M  V30 16148 C 1511.57 1.5122 -1.74359 0
M  V30 16149 C 1512.54 1.55432 -0.585667 0
M  V30 16150 O 1513.72 1.7219 -0.821912 0
M  V30 16151 C 1510.86 2.88787 -1.88935 0
M  V30 16152 C 1509.97 2.93977 -3.16546 0
M  V30 16153 C 1509.11 4.22768 -3.21622 0
M  V30 16154 C 1508.15 4.21888 -4.43483 0
M  V30 16155 N 1507.28 5.4223 -4.46017 0
M  V30 16156 H 1512.12 1.31348 -2.67492 0
M  V30 16157 H 1509.66 0.637779 -1.32555 0
M  V30 16158 H 1511.62 3.68629 -1.95368 0
M  V30 16159 H 1510.25 3.07181 -0.991942 0
M  V30 16160 H 1509.3 2.06699 -3.19343 0
M  V30 16161 H 1510.61 2.8919 -4.06412 0
M  V30 16162 H 1509.77 5.10995 -3.27061 0
M  V30 16163 H 1508.51 4.30234 -2.29674 0
M  V30 16164 H 1507.51 3.32052 -4.38202 0
M  V30 16165 H 1508.74 4.16072 -5.36713 0
M  V30 16166 H 1506.68 5.50386 -3.56947 0
M  V30 16167 H 1506.6 5.39389 -5.29713 0
M  V30 16168 H 1507.87 6.32443 -4.55671 0
M  V30 16169 N 1512.1 1.42293 0.677538 0
M  V30 16170 C 1513.01 1.47953 1.82063 0
M  V30 16171 C 1514.02 0.36851 1.70053 0
M  V30 16172 O 1515.2 0.618996 1.91652 0
M  V30 16173 C 1512.26 1.3769 3.18186 0
M  V30 16174 C 1511.32 2.59261 3.42173 0
M  V30 16175 C 1510.56 2.49478 4.71801 0
M  V30 16176 O 1510.78 1.52915 5.49521 0
M  V30 16177 O 1509.71 3.39562 4.96972 0
M  V30 16178 H 1513.54 2.4443 1.80244 0
M  V30 16179 H 1511.13 1.24027 0.832932 0
M  V30 16180 H 1513.01 1.34319 3.9942 0
M  V30 16181 H 1511.68 0.443377 3.20649 0
M  V30 16182 H 1510.59 2.68207 2.60798 0
M  V30 16183 H 1511.92 3.51503 3.44538 0
M  V30 16184 N 1513.57 -0.913576 1.28419 0
M  V30 16185 C 1514.99 -1.192 1.0613 0
M  V30 16186 C 1515.19 -2.00542 -0.196232 0
M  V30 16187 O 1514.25 -2.35998 -0.897853 0
M  V30 16188 C 1515.56 -1.92642 2.30889 0
M  V30 16189 C 1517.11 -2.05524 2.3607 0
M  V30 16190 C 1517.58 -2.82374 3.60595 0
M  V30 16191 N 1519.07 -2.89935 3.61236 0
M  V30 16192 C 1519.81 -3.49899 4.54266 0
M  V30 16193 N 1519.3 -4.11141 5.57615 0
M  V30 16194 N 1521.1 -3.4744 4.41862 0
M  V30 16195 H 1513.25 -0.370509 2.09143 0
M  V30 16196 H 1515.51 -0.226573 0.920526 0
M  V30 16197 H 1515.22 -1.40299 3.22504 0
M  V30 16198 H 1515.09 -2.93191 2.37316 0
M  V30 16199 H 1517.48 -2.57047 1.44951 0
M  V30 16200 H 1517.56 -1.0415 2.33637 0
M  V30 16201 H 1517.2 -2.3153 4.52058 0
M  V30 16202 H 1517.13 -3.84063 3.60282 0
M  V30 16203 H 1519.62 -2.46424 2.86502 0
M  V30 16204 H 1519.94 -4.54877 6.24746 0
M  V30 16205 H 1518.28 -4.09645 5.61441 0
M  V30 16206 H 1521.47 -2.98806 3.60323 0
M  V30 16207 H 1521.65 -3.9388 5.14551 0
M  V30 16208 N 1515.05 -1.1067 -1.12204 0
M  V30 16209 C 1516.47 -0.838988 -1.35769 0
M  V30 16210 C 1516.67 0.540345 -1.9412 0
M  V30 16211 O 1515.72 1.29274 -2.16897 0
M  V30 16212 C 1517.04 -1.94065 -2.29694 0
M  V30 16213 C 1518.59 -1.96938 -2.43279 0
M  V30 16214 C 1519.06 -3.06284 -3.4052 0
M  V30 16215 N 1520.55 -3.05607 -3.48079 0
M  V30 16216 C 1521.29 -3.86855 -4.23238 0
M  V30 16217 N 1520.78 -4.78046 -5.01442 0
M  V30 16218 N 1522.58 -3.75064 -4.18669 0
M  V30 16219 H 1514.73 -1.99575 -0.726878 0
M  V30 16220 H 1516.99 -0.867423 -0.382467 0
M  V30 16221 H 1516.7 -2.93356 -1.93997 0
M  V30 16222 H 1516.57 -1.82992 -3.29839 0
M  V30 16223 H 1518.96 -0.982774 -2.78254 0
M  V30 16224 H 1519.04 -2.12087 -1.43014 0
M  V30 16225 H 1518.68 -4.05165 -3.06273 0
M  V30 16226 H 1518.61 -2.88376 -4.40621 0
M  V30 16227 H 1521.1 -2.39531 -2.9229 0
M  V30 16228 H 1521.42 -5.36594 -5.56136 0
M  V30 16229 H 1519.76 -4.82073 -5.0063 0
M  V30 16230 H 1522.95 -3.03172 -3.56657 0
M  V30 16231 H 1523.12 -4.38618 -4.76988 0
M  V30 16232 N 1516.53 1.29665 -0.895815 0
M  V30 16233 C 1517.48 2.2542 -0.34201 0
M  V30 16234 C 1518.46 1.5172 0.535712 0
M  V30 16235 O 1519.66 1.72909 0.378364 0
M  V30 16236 C 1516.79 3.4056 0.43287 0
M  V30 16237 C 1515.87 4.21603 -0.459552 0
M  V30 16238 N 1516.26 4.8098 -1.565 0
M  V30 16239 C 1514.56 4.45261 -0.256632 0
M  V30 16240 C 1515.26 5.41792 -2.11746 0
M  V30 16241 N 1514.24 5.24968 -1.411 0
M  V30 16242 H 1518.04 2.68885 -1.18651 0
M  V30 16243 H 1515.55 1.4423 -0.74643 0
M  V30 16244 H 1517.55 4.08219 0.846334 0
M  V30 16245 H 1516.21 2.98633 1.27468 0
M  V30 16246 H 1517.22 4.79877 -1.94777 0
M  V30 16247 H 1513.9 4.13899 0.547131 0
M  V30 16248 H 1515.29 5.9887 -3.04637 0
M  V30 16249 N 1518.01 0.657889 1.43212 0
M  V30 16250 C 1519.42 0.325876 1.56238 0
M  V30 16251 C 1519.62 -1.16975 1.6407 0
M  V30 16252 O 1518.68 -1.95473 1.59833 0
M  V30 16253 C 1519.99 1.04134 2.82093 0
M  V30 16254 C 1521.54 1.02204 2.95844 0
M  V30 16255 C 1522.02 1.71849 4.24537 0
M  V30 16256 N 1523.51 1.68635 4.31412 0
M  V30 16257 C 1524.24 2.19393 5.29768 0
M  V30 16258 N 1523.74 2.7846 6.34375 0
M  V30 16259 N 1525.53 2.09866 5.21452 0
M  V30 16260 H 1517.68 1.62839 1.36371 0
M  V30 16261 H 1519.95 0.685072 0.655271 0
M  V30 16262 H 1519.65 2.09647 2.82385 0
M  V30 16263 H 1519.53 0.595842 3.72464 0
M  V30 16264 H 1521.91 -0.0247029 2.9509 0
M  V30 16265 H 1521.99 1.50627 2.06749 0
M  V30 16266 H 1521.64 2.76482 4.26052 0
M  V30 16267 H 1521.57 1.20888 5.12536 0
M  V30 16268 H 1524.06 1.25536 3.56439 0
M  V30 16269 H 1524.37 3.14855 7.05752 0
M  V30 16270 H 1522.72 2.82523 6.34985 0
M  V30 16271 H 1525.91 1.63422 4.38647 0
M  V30 16272 H 1526.08 2.49732 5.97945 0
M  V30 16273 N 1519.49 -1.52437 0.400108 0
M  V30 16274 C 1520.9 -1.5952 0.0505611 0
M  V30 16275 C 1521.1 -1.4135 -1.43606 0
M  V30 16276 O 1520.16 -1.23591 -2.20185 0
M  V30 16277 C 1521.47 -2.95859 0.537411 0
M  V30 16278 C 1523.02 -3.09067 0.494603 0
M  V30 16279 C 1523.49 -4.47873 0.957815 0
M  V30 16280 N 1524.99 -4.54087 0.914267 0
M  V30 16281 C 1525.72 -5.59744 1.24397 0
M  V30 16282 N 1525.22 -6.72995 1.64469 0
M  V30 16283 N 1527.01 -5.49905 1.16452 0
M  V30 16284 H 1519.16 -1.62496 1.36781 0
M  V30 16285 H 1521.42 -0.763947 0.561328 0
M  V30 16286 H 1521.13 -3.14407 1.57611 0
M  V30 16287 H 1521 -3.77156 -0.0577652 0
M  V30 16288 H 1523.39 -2.90209 -0.535035 0
M  V30 16289 H 1523.47 -2.29698 1.12572 0
M  V30 16290 H 1523.12 -4.67473 1.98574 0
M  V30 16291 H 1523.05 -5.25724 0.303602 0
M  V30 16292 H 1525.54 -3.72787 0.619536 0
M  V30 16293 H 1525.85 -7.49594 1.87961 0
M  V30 16294 H 1524.19 -6.74298 1.68364 0
M  V30 16295 H 1527.39 -4.60311 0.850401 0
M  V30 16296 H 1527.56 -6.32142 1.42478 0
M  V30 16297 N 1520.96 -0.130252 -1.57061 0
M  V30 16298 C 1522.38 0.226279 -1.57988 0
M  V30 16299 C 1522.58 1.65902 -1.14363 0
M  V30 16300 O 1521.64 2.38252 -0.836191 0
M  V30 16301 C 1522.95 -0.0172647 -3.00695 0
M  V30 16302 C 1524.5 0.0477572 -3.12964 0
M  V30 16303 C 1524.97 -0.168238 -4.57691 0
M  V30 16304 N 1526.46 -0.114591 -4.63058 0
M  V30 16305 C 1527.2 -0.256462 -5.72826 0
M  V30 16306 N 1526.69 -0.455129 -6.91303 0
M  V30 16307 N 1528.49 -0.195243 -5.61761 0
M  V30 16308 H 1520.64 -1.06594 -1.83716 0
M  V30 16309 H 1522.9 -0.420643 -0.849567 0
M  V30 16310 H 1522.61 -1.00819 -3.3694 0
M  V30 16311 H 1522.48 0.709629 -3.70465 0
M  V30 16312 H 1524.87 1.02922 -2.7657 0
M  V30 16313 H 1524.95 -0.711198 -2.45714 0
M  V30 16314 H 1524.59 -1.14673 -4.94785 0
M  V30 16315 H 1524.52 0.610839 -5.23045 0
M  V30 16316 H 1527.01 0.0349873 -3.77884 0
M  V30 16317 H 1527.33 -0.553943 -7.70812 0
M  V30 16318 H 1525.67 -0.491244 -6.93262 0
M  V30 16319 H 1528.86 -0.0409186 -4.68082 0
M  V30 16320 H 1529.04 -0.309248 -6.47262 0
M  V30 16321 N 1522.44 1.56945 0.143535 0
M  V30 16322 C 1523.39 1.98526 1.17711 0
M  V30 16323 C 1524.36 0.853402 1.425 0
M  V30 16324 O 1525.55 1.11574 1.54777 0
M  V30 16325 C 1522.69 2.37395 2.50475 0
M  V30 16326 C 1521.8 3.63887 2.32831 0
M  V30 16327 C 1520.93 3.91844 3.58653 0
M  V30 16328 C 1519.97 5.11595 3.36061 0
M  V30 16329 N 1519.11 5.35545 4.54022 0
M  V30 16330 H 1523.95 2.86624 0.815524 0
M  V30 16331 H 1521.49 1.41802 0.391231 0
M  V30 16332 H 1523.44 2.5796 3.27891 0
M  V30 16333 H 1522.07 1.52372 2.84575 0
M  V30 16334 H 1521.13 3.51078 1.46452 0
M  V30 16335 H 1522.44 4.51459 2.12098 0
M  V30 16336 H 1521.59 4.12926 4.44497 0
M  V30 16337 H 1520.33 3.027 3.82393 0
M  V30 16338 H 1519.34 4.90383 2.48606 0
M  V30 16339 H 1520.56 6.02295 3.13716 0
M  V30 16340 H 1518.51 4.49355 4.77929 0
M  V30 16341 H 1518.42 6.17393 4.36305 0
M  V30 16342 H 1519.69 5.61127 5.4107 0
M  V30 16343 N 1523.92 -0.412991 1.52093 0
M  V30 16344 C 1524.83 -1.52768 1.78042 0
M  V30 16345 C 1525.85 -1.60758 0.665791 0
M  V30 16346 O 1527.02 -1.77545 0.950772 0
M  V30 16347 C 1524.09 -2.8854 1.92213 0
M  V30 16348 C 1523.15 -2.90468 3.16112 0
M  V30 16349 C 1522.38 -4.19763 3.29598 0
M  V30 16350 O 1522.61 -5.13454 2.48438 0
M  V30 16351 O 1521.54 -4.2847 4.22726 0
M  V30 16352 H 1525.37 -1.33777 2.72649 0
M  V30 16353 H 1522.95 -0.598461 1.3689 0
M  V30 16354 H 1524.83 -3.69073 2.03379 0
M  V30 16355 H 1523.51 -3.07607 1.00795 0
M  V30 16356 H 1522.41 -2.08801 3.10408 0
M  V30 16357 H 1523.75 -2.76349 4.07298 0
M  V30 16358 N 1525.4 -1.4265 -0.669982 0
M  V30 16359 C 1526.35 -1.46746 -1.80467 0
M  V30 16360 C 1527.34 -0.342698 -1.65897 0
M  V30 16361 O 1528.55 -0.515933 -1.72447 0
M  V30 16362 H 1524.92 -0.4597 -0.59513 0
M  V30 16363 H 1526.89 -2.42325 -1.7413 0
M  V30 16364 C 1525.64 -1.39141 -3.18646 0
M  V30 16365 H 1524.97 -2.24987 -3.30486 0
M  V30 16366 H 1526.41 -1.46068 -3.98045 0
M  V30 16367 C 1524.86 -0.106802 -3.36731 0
M  V30 16368 O 1525.39 0.838535 -3.9285 0
M  V30 16369 N 1523.6 -0.0223958 -2.90591 0
M  V30 16370 H 1523.15 -0.792469 -2.45108 0
M  V30 16371 H 1523.11 0.836462 -3.03069 0
M  V30 16372 N 1526.88 0.906753 -1.28902 0
M  V30 16373 C 1527.81 2.01497 -1.09233 0
M  V30 16374 C 1528.82 1.62746 -0.0419378 0
M  V30 16375 O 1530.01 1.76198 -0.285728 0
M  V30 16376 C 1527.11 3.32816 -0.639255 0
M  V30 16377 C 1526.28 4.00137 -1.76661 0
M  V30 16378 C 1525.34 5.09742 -1.30573 0
M  V30 16379 O 1524.37 5.32559 -2.00921 0
M  V30 16380 N 1525.57 5.80243 -0.17275 0
M  V30 16381 H 1528.34 2.18927 -2.04673 0
M  V30 16382 H 1525.9 1.0785 -1.20748 0
M  V30 16383 H 1527.89 4.03477 -0.31439 0
M  V30 16384 H 1526.46 3.11807 0.222498 0
M  V30 16385 H 1525.68 3.22933 -2.26071 0
M  V30 16386 H 1526.97 4.41859 -2.52266 0
M  V30 16387 H 1526.37 5.64184 0.413931 0
M  V30 16388 H 1524.92 6.51734 0.0927926 0
M  V30 16389 N 1528.36 1.11264 1.11616 0
M  V30 16390 C 1529.6 0.858664 1.82952 0
M  V30 16391 C 1529.92 -0.617439 1.84967 0
M  V30 16392 O 1529.19 -1.44849 1.31893 0
M  V30 16393 H 1527.77 0.314671 0.677489 0
M  V30 16394 H 1530.44 1.40466 1.35113 0
M  V30 16395 H 1529.53 1.22921 2.86874 0
M  V30 16396 N 1529.83 -1.29188 0.902679 0
M  V30 16397 C 1531.06 -2.00113 0.544953 0
M  V30 16398 C 1531.48 -1.67093 -0.863805 0
M  V30 16399 O 1530.84 -0.897179 -1.57545 0
M  V30 16400 C 1530.89 -3.52762 0.747741 0
M  V30 16401 O 1529.99 -4.11923 -0.198388 0
M  V30 16402 H 1529.33 -0.629054 0.212572 0
M  V30 16403 H 1531.86 -1.64611 1.21508 0
M  V30 16404 H 1531.87 -4.02732 0.653546 0
M  V30 16405 H 1530.55 -3.76131 1.77478 0
M  V30 16406 H 1529.13 -3.72857 -0.0563959 0
M  V30 16407 N 1531.31 -0.665475 -1.42861 0
M  V30 16408 C 1532.56 -0.183521 -2.01265 0
M  V30 16409 C 1532.88 1.21103 -1.52837 0
M  V30 16410 O 1532.15 1.81135 -0.746109 0
M  V30 16411 H 1530.73 -0.0648565 -0.744179 0
M  V30 16412 H 1533.39 -0.859893 -1.74905 0
M  V30 16413 H 1532.49 -0.177589 -3.11594 0
M  V30 16414 N 1532.79 1.52222 -0.408187 0
M  V30 16415 C 1534.04 2.02102 0.168154 0
M  V30 16416 C 1534.37 1.2933 1.4487 0
M  V30 16417 O 1533.64 0.399336 1.90356 0
M  V30 16418 C 1533.93 3.57679 0.416821 0
M  V30 16419 C 1533.78 4.41101 -0.880335 0
M  V30 16420 C 1535.1 4.23442 1.19936 0
M  V30 16421 H 1532.22 0.734583 0.0596402 0
M  V30 16422 H 1534.86 1.82121 -0.541467 0
M  V30 16423 H 1533.01 3.74835 1.02131 0
M  V30 16424 H 1534.68 4.35658 -1.51656 0
M  V30 16425 H 1532.92 4.07353 -1.49152 0
M  V30 16426 H 1533.6 5.48031 -0.660748 0
M  V30 16427 H 1536.07 4.10379 0.687605 0
M  V30 16428 H 1534.95 5.32239 1.3421 0
M  V30 16429 H 1535.21 3.82335 2.21973 0
M  V30 16430 N 1534.27 0.138579 1.5699 0
M  V30 16431 C 1535.68 -0.383633 1.82716 0
M  V30 16432 C 1536.03 -1.65304 1.05684 0
M  V30 16433 O 1535.15 -2.14318 0.299488 0
M  V30 16434 C 1535.75 -0.7028 3.3143 0
M  V30 16435 C 1534.31 -1.16957 3.57768 0
M  V30 16436 C 1533.46 -0.188295 2.7666 0
M  V30 16437 H 1536.41 0.363415 1.54483 0
M  V30 16438 H 1536.43 -1.55832 3.47126 0
M  V30 16439 H 1535.94 0.221271 3.87469 0
M  V30 16440 H 1534.04 -2.10987 3.07108 0
M  V30 16441 H 1534.15 -1.10136 4.66269 0
M  V30 16442 H 1532.52 -0.679255 2.45475 0
M  V30 16443 H 1533.3 0.729218 3.35466 0
M  V30 16444 N 1535.75 -1.57019 -0.13521 0
M  V30 16445 C 1536.99 -1.84262 -0.847071 0
M  V30 16446 C 1537.32 -0.721946 -1.80282 0
M  V30 16447 O 1536.6 0.273535 -1.92567 0
M  V30 16448 C 1536.88 -3.22043 -1.61123 0
M  V30 16449 C 1536.74 -4.44689 -0.67617 0
M  V30 16450 C 1538.05 -3.57188 -2.57108 0
M  V30 16451 H 1535.17 -0.670246 -0.306496 0
M  V30 16452 H 1537.82 -1.89671 -0.111843 0
M  V30 16453 H 1535.97 -3.17563 -2.23799 0
M  V30 16454 H 1537.64 -4.61262 -0.0595009 0
M  V30 16455 H 1535.88 -4.33798 0.0134526 0
M  V30 16456 H 1536.55 -5.37727 -1.24714 0
M  V30 16457 H 1539.03 -3.62354 -2.04545 0
M  V30 16458 H 1537.9 -4.54602 -3.07617 0
M  V30 16459 H 1538.16 -2.83758 -3.39019 0
M  V30 16460 N 1537.22 0.404919 -1.52309 0
M  V30 16461 C 1538.45 1.17764 -1.70723 0
M  V30 16462 C 1538.87 1.83403 -0.417744 0
M  V30 16463 O 1538.23 1.70181 0.625157 0
M  V30 16464 C 1538.28 2.2133 -2.84685 0
M  V30 16465 O 1537.38 3.27566 -2.50548 0
M  V30 16466 H 1536.73 0.343572 -0.568203 0
M  V30 16467 H 1539.26 0.474093 -1.99031 0
M  V30 16468 H 1539.27 2.6559 -3.09719 0
M  V30 16469 H 1537.94 1.72939 -3.78239 0
M  V30 16470 H 1536.52 2.88556 -2.36199 0
M  V30 16471 N 1538.7 1.43003 0.662408 0
M  V30 16472 C 1539.95 1.43848 1.41958 0
M  V30 16473 C 1540.27 0.06046 1.94906 0
M  V30 16474 O 1539.54 -0.90287 1.73854 0
M  V30 16475 H 1538.12 0.529587 0.526827 0
M  V30 16476 H 1540.78 1.7853 0.781867 0
M  V30 16477 H 1539.88 2.14562 2.26649 0
M  V30 16478 N 1540.18 -0.899904 1.29381 0
M  V30 16479 C 1541.59 -1.46563 1.15655 0
M  V30 16480 C 1541.94 -1.94622 -0.248375 0
M  V30 16481 O 1541.07 -1.83698 -1.14386 0
M  V30 16482 C 1541.66 -2.66384 2.09344 0
M  V30 16483 C 1540.22 -3.19093 1.99641 0
M  V30 16484 C 1539.37 -1.91786 2.00283 0
M  V30 16485 H 1542.32 -0.711264 1.41869 0
M  V30 16486 H 1542.34 -3.42111 1.66554 0
M  V30 16487 H 1541.85 -2.31376 3.11587 0
M  V30 16488 H 1539.95 -3.58795 1.00485 0
M  V30 16489 H 1540.07 -3.83405 2.87293 0
M  V30 16490 H 1538.43 -2.09482 1.44878 0
M  V30 16491 H 1539.21 -1.59055 3.04231 0
M  V30 16492 N 1541.66 -1.11854 -1.11024 0
M  V30 16493 C 1542.61 -0.77596 -2.19275 0
M  V30 16494 C 1543.6 0.234503 -1.67769 0
M  V30 16495 O 1544.81 0.0933372 -1.79758 0
M  V30 16496 H 1541.18 -0.23307 -0.71497 0
M  V30 16497 H 1543.15 -1.69749 -2.45414 0
M  V30 16498 C 1541.9 -0.240148 -3.4687 0
M  V30 16499 H 1541.22 -1.00895 -3.86859 0
M  V30 16500 H 1542.66 -0.0386799 -4.23982 0
M  V30 16501 C 1541.12 1.03056 -3.20751 0
M  V30 16502 O 1541.65 2.10948 -3.41854 0
M  V30 16503 N 1539.86 0.955066 -2.74457 0
M  V30 16504 H 1539.41 0.0769523 -2.57485 0
M  V30 16505 H 1539.36 1.80593 -2.57359 0
M  V30 16506 N 1543.14 1.28707 -0.909517 0
M  V30 16507 C 1544.07 2.29845 -0.411552 0
M  V30 16508 C 1545.05 1.62001 0.518615 0
M  V30 16509 O 1546.23 1.89442 0.427252 0
M  V30 16510 C 1543.36 3.45501 0.353013 0
M  V30 16511 C 1542.32 4.25213 -0.487625 0
M  V30 16512 C 1541.64 5.33164 0.405026 0
M  V30 16513 C 1542.94 4.9237 -1.74268 0
M  V30 16514 H 1544.64 2.71746 -1.25676 0
M  V30 16515 H 1542.18 1.30639 -0.605759 0
M  V30 16516 H 1544.14 4.15338 0.712191 0
M  V30 16517 H 1542.86 3.02469 1.23209 0
M  V30 16518 H 1541.52 3.57098 -0.829265 0
M  V30 16519 H 1541.17 4.86375 1.28252 0
M  V30 16520 H 1540.87 5.87399 -0.153811 0
M  V30 16521 H 1542.39 6.0585 0.760179 0
M  V30 16522 H 1543.8 5.5459 -1.45266 0
M  V30 16523 H 1542.2 5.56581 -2.2436 0
M  V30 16524 H 1543.27 4.171 -2.47297 0
M  V30 16525 N 1544.61 0.673042 1.42506 0
M  V30 16526 C 1545.84 0.201349 2.0642 0
M  V30 16527 C 1546.26 -1.132 1.50224 0
M  V30 16528 O 1545.62 -1.70368 0.620024 0
M  V30 16529 C 1545.67 0.14505 3.60308 0
M  V30 16530 O 1544.77 -0.886953 4.02749 0
M  V30 16531 H 1544.12 0.103975 0.655809 0
M  V30 16532 H 1546.65 0.921559 1.8267 0
M  V30 16533 H 1546.66 -0.0316792 4.07988 0
M  V30 16534 H 1545.33 1.11829 4.00583 0
M  V30 16535 H 1543.91 -0.681408 3.66621 0
M  V30 16536 N 1546.09 -1.52004 0.416254 0
M  V30 16537 C 1547.32 -2.06307 -0.156491 0
M  V30 16538 C 1547.74 -1.28567 -1.3826 0
M  V30 16539 O 1547.09 -0.339447 -1.79315 0
M  V30 16540 C 1547.14 -3.58028 -0.499824 0
M  V30 16541 O 1546.86 -4.32828 0.677602 0
M  V30 16542 C 1548.37 -4.28773 -1.12553 0
M  V30 16543 H 1545.59 -0.670778 -0.0172483 0
M  V30 16544 H 1548.13 -1.95826 0.589262 0
M  V30 16545 H 1546.28 -3.68493 -1.19547 0
M  V30 16546 H 1546.7 -5.23053 0.389302 0
M  V30 16547 H 1548.17 -5.36085 -1.31592 0
M  V30 16548 H 1548.65 -3.85706 -2.10066 0
M  V30 16549 H 1549.26 -4.22696 -0.469881 0
M  V30 16550 N 1547.57 -0.146903 -1.56914 0
M  V30 16551 C 1548.8 0.511181 -2.00486 0
M  V30 16552 C 1549.21 1.58425 -1.02699 0
M  V30 16553 O 1548.57 1.82484 -0.0239878 0
M  V30 16554 C 1548.62 1.11191 -3.43975 0
M  V30 16555 O 1548.34 0.0817094 -4.38024 0
M  V30 16556 C 1549.84 1.85061 -4.02824 0
M  V30 16557 H 1547.06 0.133078 -0.657671 0
M  V30 16558 H 1549.61 -0.241457 -2.0307 0
M  V30 16559 H 1547.76 1.81517 -3.42243 0
M  V30 16560 H 1548.18 0.52181 -5.21898 0
M  V30 16561 H 1549.65 2.22385 -5.05222 0
M  V30 16562 H 1550.13 2.73649 -3.4353 0
M  V30 16563 H 1550.73 1.19434 -4.08186 0
M  V30 16564 N 1549.05 1.57088 0.126881 0
M  V30 16565 C 1550.46 1.52205 0.480175 0
M  V30 16566 C 1550.66 0.858634 1.8229 0
M  V30 16567 O 1549.72 0.437636 2.48679 0
M  V30 16568 C 1551.03 2.96974 0.471931 0
M  V30 16569 C 1552.58 3.08021 0.556037 0
M  V30 16570 C 1553.06 4.54335 0.57826 0
M  V30 16571 N 1554.55 4.58758 0.639922 0
M  V30 16572 C 1555.28 5.69372 0.678434 0
M  V30 16573 N 1554.78 6.89503 0.67507 0
M  V30 16574 N 1556.57 5.57459 0.720845 0
M  V30 16575 H 1548.72 1.98604 -0.753008 0
M  V30 16576 H 1550.99 0.90666 -0.276895 0
M  V30 16577 H 1550.69 3.48849 -0.44687 0
M  V30 16578 H 1550.57 3.53994 1.3026 0
M  V30 16579 H 1552.95 2.56153 1.46526 0
M  V30 16580 H 1553.03 2.54009 -0.302171 0
M  V30 16581 H 1552.68 5.06847 -0.326884 0
M  V30 16582 H 1552.61 5.06151 1.45324 0
M  V30 16583 H 1555.1 3.72285 0.649005 0
M  V30 16584 H 1555.41 7.6956 0.706862 0
M  V30 16585 H 1553.76 6.92023 0.64262 0
M  V30 16586 H 1556.95 4.62517 0.720783 0
M  V30 16587 H 1557.12 6.43675 0.747392 0
M  V30 16588 N 1550.53 -0.396836 1.52522 0
M  V30 16589 C 1551.94 -0.975124 1.59211 0
M  V30 16590 C 1552.29 -1.91199 0.440138 0
M  V30 16591 O 1551.41 -2.11924 -0.437856 0
M  V30 16592 C 1552.01 -1.77531 2.88562 0
M  V30 16593 C 1550.57 -2.30343 2.9769 0
M  V30 16594 C 1549.71 -1.10671 2.54258 0
M  V30 16595 H 1552.67 -0.176646 1.57714 0
M  V30 16596 H 1552.69 -2.63384 2.74607 0
M  V30 16597 H 1552.2 -1.09318 3.72386 0
M  V30 16598 H 1550.3 -3.01891 2.18387 0
M  V30 16599 H 1550.41 -2.60366 4.02177 0
M  V30 16600 H 1548.78 -1.46439 2.08393 0
M  V30 16601 H 1549.56 -0.440061 3.40468 0
M  V30 16602 N 1552.01 -1.43353 -0.654814 0
M  V30 16603 C 1553.25 -1.44172 -1.41058 0
M  V30 16604 C 1553.57 -0.0690586 -1.95478 0
M  V30 16605 O 1554.77 0.0453021 -2.71462 0
M  V30 16606 C 1553.23 -2.53701 -2.55272 0
M  V30 16607 C 1552.84 -3.97066 -2.07466 0
M  V30 16608 C 1554.58 -2.63713 -3.3265 0
M  V30 16609 C 1552.49 -4.98065 -3.18881 0
M  V30 16610 H 1551.42 -0.536303 -0.529995 0
M  V30 16611 H 1554.07 -1.69336 -0.706941 0
M  V30 16612 H 1552.45 -2.21736 -3.28099 0
M  V30 16613 H 1553.63 -4.38485 -1.4166 0
M  V30 16614 H 1551.94 -3.91086 -1.42972 0
M  V30 16615 H 1554.54 -3.36346 -4.15663 0
M  V30 16616 H 1554.88 -1.68729 -3.80574 0
M  V30 16617 H 1555.41 -2.94971 -2.66902 0
M  V30 16618 H 1552.15 -5.94596 -2.75927 0
M  V30 16619 H 1551.67 -4.61261 -3.83404 0
M  V30 16620 H 1553.35 -5.20696 -3.84037 0
M  V30 16621 N 1553.48 0.89303 -1.29857 0
M  V30 16622 C 1554.42 2.00327 -1.11364 0
M  V30 16623 C 1555.43 1.62692 -0.0591968 0
M  V30 16624 O 1556.62 1.75885 -0.3044 0
M  V30 16625 C 1553.72 3.3212 -0.674518 0
M  V30 16626 C 1552.89 3.98241 -1.80895 0
M  V30 16627 C 1551.95 5.08329 -1.35972 0
M  V30 16628 O 1550.98 5.30398 -2.06558 0
M  V30 16629 N 1552.18 5.80027 -0.234282 0
M  V30 16630 H 1554.94 2.16743 -2.06984 0
M  V30 16631 H 1552.5 1.06563 -1.21885 0
M  V30 16632 H 1554.5 4.03121 -0.357167 0
M  V30 16633 H 1553.07 3.12026 0.189414 0
M  V30 16634 H 1552.29 3.20517 -2.29483 0
M  V30 16635 H 1553.57 4.39158 -2.56939 0
M  V30 16636 H 1552.97 5.64591 0.354068 0
M  V30 16637 H 1551.53 6.51796 0.0236623 0
M  V30 16638 N 1554.96 1.12442 1.10429 0
M  V30 16639 C 1555.89 0.750131 2.16577 0
M  V30 16640 C 1556.91 -0.223265 1.61262 0
M  V30 16641 O 1558.1 -0.00459454 1.78499 0
M  V30 16642 C 1555.2 0.0895474 3.38782 0
M  V30 16643 C 1554.37 1.09242 4.23539 0
M  V30 16644 C 1553.43 0.45945 5.2419 0
M  V30 16645 O 1552.45 1.11646 5.58143 0
M  V30 16646 N 1553.66 -0.773093 5.75329 0
M  V30 16647 H 1556.42 1.66349 2.49295 0
M  V30 16648 H 1553.98 1.01603 1.26049 0
M  V30 16649 H 1555.97 -0.345895 4.03219 0
M  V30 16650 H 1554.54 -0.726572 3.04039 0
M  V30 16651 H 1553.76 1.70549 3.55396 0
M  V30 16652 H 1555.05 1.77057 4.76999 0
M  V30 16653 H 1554.45 -1.32585 5.49943 0
M  V30 16654 H 1553.01 -1.15135 6.41551 0
M  V30 16655 N 1556.44 -1.28223 0.91633 0
M  V30 16656 C 1557.72 -1.89878 0.469661 0
M  V30 16657 C 1558.1 -1.83037 -1.05169 0
M  V30 16658 O 1557.44 -1.26801 -1.90088 0
M  V30 16659 C 1557.65 -3.34279 1.00293 0
M  V30 16660 C 1559 -4.11244 1.05657 0
M  V30 16661 O 1560.03 -3.43249 0.951753 0
M  V30 16662 O 1558.89 -5.32788 1.21652 0
M  V30 16663 H 1555.98 -0.813418 0.149263 0
M  V30 16664 H 1558.53 -1.36572 1.00728 0
M  V30 16665 H 1557.3 -3.33494 2.04688 0
M  V30 16666 H 1556.92 -3.95087 0.446287 0
M  V30 16667 N 1557.92 -0.68059 -1.42147 0
M  V30 16668 C 1558.85 -0.0199376 -2.33491 0
M  V30 16669 C 1559.83 0.783164 -1.50999 0
M  V30 16670 O 1561.01 0.739154 -1.79583 0
M  V30 16671 C 1558.14 0.927902 -3.34675 0
M  V30 16672 C 1557.1 0.232979 -4.27365 0
M  V30 16673 C 1556.42 1.29415 -5.18802 0
M  V30 16674 C 1557.72 -0.891559 -5.14634 0
M  V30 16675 H 1559.42 -0.782823 -2.88985 0
M  V30 16676 H 1556.96 -0.377898 -1.38953 0
M  V30 16677 H 1558.92 1.3992 -3.97493 0
M  V30 16678 H 1557.64 1.72228 -2.77498 0
M  V30 16679 H 1556.3 -0.21814 -3.6595 0
M  V30 16680 H 1555.95 2.08067 -4.57949 0
M  V30 16681 H 1555.65 0.834274 -5.81647 0
M  V30 16682 H 1557.17 1.76627 -5.84496 0
M  V30 16683 H 1558.59 -0.501219 -5.71105 0
M  V30 16684 H 1556.98 -1.27759 -5.86343 0
M  V30 16685 H 1558.05 -1.73781 -4.5269 0
M  V30 16686 N 1559.4 1.51781 -0.424309 0
M  V30 16687 C 1560.64 2.0157 0.146203 0
M  V30 16688 C 1560.96 1.3111 1.44344 0
M  V30 16689 O 1560.23 0.441631 1.90857 0
M  V30 16690 H 1558.81 0.744821 0.057019 0
M  V30 16691 H 1561.48 1.8656 -0.564031 0
M  V30 16692 H 1560.57 3.10335 0.331464 0
M  V30 16693 N 1560.87 0.155222 1.56834 0
M  V30 16694 C 1562.29 -0.201116 1.58328 0
M  V30 16695 C 1562.49 -1.64061 1.16988 0
M  V30 16696 O 1561.55 -2.36892 0.873989 0
M  V30 16697 C 1562.86 0.0651005 3.0063 0
M  V30 16698 C 1564.41 0.00203866 3.13 0
M  V30 16699 C 1564.88 0.241032 4.57365 0
M  V30 16700 N 1566.37 0.188245 4.62817 0
M  V30 16701 C 1567.11 0.347562 5.72346 0
M  V30 16702 N 1566.6 0.565052 6.90492 0
M  V30 16703 N 1568.4 0.284589 5.61379 0
M  V30 16704 H 1560.55 1.09503 1.81997 0
M  V30 16705 H 1562.81 0.434106 0.842767 0
M  V30 16706 H 1562.52 1.06167 3.35293 0
M  V30 16707 H 1562.39 -0.650601 3.71547 0
M  V30 16708 H 1564.78 -0.98509 2.78173 0
M  V30 16709 H 1564.86 0.750199 2.44552 0
M  V30 16710 H 1564.5 1.2253 4.92898 0
M  V30 16711 H 1564.43 -0.52755 5.23951 0
M  V30 16712 H 1566.92 0.0251352 3.77892 0
M  V30 16713 H 1567.24 0.676502 7.69833 0
M  V30 16714 H 1565.58 0.601473 6.92392 0
M  V30 16715 H 1568.77 0.115381 4.67958 0
M  V30 16716 H 1568.95 0.412182 6.46688 0
M  V30 16717 N 1562.35 -1.57153 -0.118549 0
M  V30 16718 C 1563.28 -1.97022 -1.1711 0
M  V30 16719 C 1564.3 -0.869599 -1.37629 0
M  V30 16720 O 1565.49 -1.14788 -1.36696 0
M  V30 16721 C 1562.59 -2.25371 -2.53103 0
M  V30 16722 C 1561.76 -3.56677 -2.5318 0
M  V30 16723 C 1560.82 -3.73233 -3.70922 0
M  V30 16724 O 1559.84 -4.4534 -3.54487 0
M  V30 16725 N 1561.05 -3.12036 -4.89504 0
M  V30 16726 H 1563.81 -2.87921 -0.831959 0
M  V30 16727 H 1561.37 -1.58947 -0.307817 0
M  V30 16728 H 1563.36 -2.33662 -3.3043 0
M  V30 16729 H 1561.93 -1.40597 -2.79197 0
M  V30 16730 H 1561.15 -3.5957 -1.61564 0
M  V30 16731 H 1562.44 -4.42982 -2.50288 0
M  V30 16732 H 1561.84 -2.53422 -5.05761 0
M  V30 16733 H 1560.4 -3.25846 -5.64506 0
M  V30 16734 N 1563.83 0.388742 -1.5273 0
M  V30 16735 C 1565.11 1.14799 -1.58368 0
M  V30 16736 C 1565.49 2.07706 -0.377018 0
M  V30 16737 O 1564.83 2.1951 0.634634 0
M  V30 16738 C 1565.04 1.90745 -2.92262 0
M  V30 16739 C 1566.39 2.46098 -3.46007 0
M  V30 16740 O 1567.42 2.00901 -2.94138 0
M  V30 16741 O 1566.28 3.28658 -4.3663 0
M  V30 16742 H 1563.37 0.52529 -0.638748 0
M  V30 16743 H 1565.92 0.393874 -1.65066 0
M  V30 16744 H 1564.69 1.22806 -3.7153 0
M  V30 16745 H 1564.31 2.73118 -2.88951 0
M  V30 16746 N 1565.31 1.43698 0.647203 0
M  V30 16747 C 1566.72 1.40586 1.22851 0
M  V30 16748 C 1567.07 0.112981 1.95874 0
M  V30 16749 O 1566.19 -0.787342 2.01569 0
M  V30 16750 C 1566.79 2.54672 2.23445 0
M  V30 16751 C 1565.35 2.54806 2.7704 0
M  V30 16752 C 1564.5 2.32076 1.51777 0
M  V30 16753 H 1567.45 1.52512 0.43885 0
M  V30 16754 H 1567.47 2.26505 3.05738 0
M  V30 16755 H 1566.98 3.48755 1.70269 0
M  V30 16756 H 1565.08 1.64619 3.34262 0
M  V30 16757 H 1565.19 3.52771 3.24175 0
M  V30 16758 H 1563.56 1.80858 1.79339 0
M  V30 16759 H 1564.34 3.28252 1.00527 0
M  V30 16760 N 1566.79 -0.886131 1.30328 0
M  V30 16761 C 1568.2 -1.45328 1.17203 0
M  V30 16762 C 1568.55 -1.94874 -0.227719 0
M  V30 16763 O 1567.67 -1.84901 -1.12431 0
M  V30 16764 C 1568.27 -2.64149 2.12157 0
M  V30 16765 C 1566.83 -3.16958 2.03014 0
M  V30 16766 C 1565.97 -1.89651 2.02306 0
M  V30 16767 H 1568.93 -0.696177 1.42615 0
M  V30 16768 H 1568.95 -3.40325 1.70173 0
M  V30 16769 H 1568.46 -2.28058 3.14024 0
M  V30 16770 H 1566.56 -3.57709 1.04285 0
M  V30 16771 H 1566.67 -3.80336 2.91344 0
M  V30 16772 H 1565.04 -2.07933 1.47091 0
M  V30 16773 H 1565.82 -1.5582 3.05901 0
M  V30 16774 N 1568.26 -1.13026 -1.09832 0
M  V30 16775 C 1569.19 -0.826338 -2.18389 0
M  V30 16776 C 1570.18 0.212529 -1.68767 0
M  V30 16777 O 1571.36 0.072363 -1.94065 0
M  V30 16778 C 1568.49 -0.286991 -3.46112 0
M  V30 16779 C 1567.44 -1.25963 -4.09044 0
M  V30 16780 C 1566.77 -0.580231 -5.31542 0
M  V30 16781 C 1568.07 -2.61661 -4.5203 0
M  V30 16782 H 1569.76 -1.73408 -2.4407 0
M  V30 16783 H 1567.31 -0.835201 -1.17305 0
M  V30 16784 H 1569.26 -0.062067 -4.21354 0
M  V30 16785 H 1567.99 0.656121 -3.19942 0
M  V30 16786 H 1566.65 -1.47047 -3.35816 0
M  V30 16787 H 1566.29 0.368222 -5.0165 0
M  V30 16788 H 1565.99 -1.2291 -5.74601 0
M  V30 16789 H 1567.52 -0.36449 -6.09511 0
M  V30 16790 H 1568.93 -2.44569 -5.18516 0
M  V30 16791 H 1567.33 -3.22685 -5.05959 0
M  V30 16792 H 1568.4 -3.19637 -3.64637 0
M  V30 16793 N 1569.74 1.27735 -0.923117 0
M  V30 16794 C 1570.71 2.25256 -0.423375 0
M  V30 16795 C 1571.71 1.54213 0.455517 0
M  V30 16796 O 1572.9 1.7229 0.257245 0
M  V30 16797 C 1570.03 3.3864 0.391897 0
M  V30 16798 H 1571.22 2.70978 -1.28495 0
M  V30 16799 H 1568.77 1.39579 -0.703378 0
M  V30 16800 H 1569.51 2.98293 1.27248 0
M  V30 16801 H 1569.29 3.91376 -0.238194 0
M  V30 16802 H 1570.78 4.11133 0.732069 0
M  V30 16803 N 1571.22 0.688118 1.41784 0
M  V30 16804 C 1572.13 0.018397 2.34593 0
M  V30 16805 C 1573.15 -0.774275 1.55824 0
M  V30 16806 O 1574.32 -0.713546 1.88336 0
M  V30 16807 C 1571.39 -0.911914 3.34492 0
M  V30 16808 C 1570.45 -0.112284 4.29153 0
M  V30 16809 C 1569.68 -0.998285 5.2428 0
M  V30 16810 O 1569.9 -2.23782 5.24669 0
M  V30 16811 O 1568.84 -0.451951 6.00201 0
M  V30 16812 H 1572.66 0.783224 2.93427 0
M  V30 16813 H 1570.25 0.448413 1.42512 0
M  V30 16814 H 1572.13 -1.4456 3.95829 0
M  V30 16815 H 1570.81 -1.65636 2.78112 0
M  V30 16816 H 1569.71 0.465822 3.71189 0
M  V30 16817 H 1571.05 0.593338 4.88611 0
M  V30 16818 N 1572.7 -1.51554 0.432352 0
M  V30 16819 C 1573.98 -1.94621 -0.195472 0
M  V30 16820 C 1574.36 -1.37072 -1.60544 0
M  V30 16821 O 1573.7 -0.555781 -2.21638 0
M  V30 16822 C 1573.91 -3.48544 -0.178267 0
M  V30 16823 C 1575.26 -4.22839 -0.386283 0
M  V30 16824 O 1576.29 -3.55275 -0.256604 0
M  V30 16825 O 1575.14 -5.42693 -0.643927 0
M  V30 16826 H 1572.24 -0.816291 -0.132656 0
M  V30 16827 H 1574.78 -1.62473 0.489972 0
M  V30 16828 H 1573.56 -3.82874 0.807658 0
M  V30 16829 H 1573.18 -3.87121 -0.906832 0
M  V30 16830 N 1574.18 -0.163538 -1.56749 0
M  V30 16831 C 1575.43 0.483453 -1.9582 0
M  V30 16832 C 1575.74 1.64913 -1.05181 0
M  V30 16833 O 1576.94 2.36184 -1.33901 0
M  V30 16834 C 1575.4 0.911471 -3.48167 0
M  V30 16835 C 1575.01 -0.228178 -4.47419 0
M  V30 16836 C 1576.75 1.52732 -3.96072 0
M  V30 16837 C 1574.66 0.219036 -5.90994 0
M  V30 16838 H 1573.59 0.184383 -0.731108 0
M  V30 16839 H 1576.24 -0.250527 -1.81782 0
M  V30 16840 H 1574.62 1.7012 -3.57596 0
M  V30 16841 H 1575.8 -1.0054 -4.49698 0
M  V30 16842 H 1574.11 -0.753485 -4.09526 0
M  V30 16843 H 1576.71 1.87383 -5.00791 0
M  V30 16844 H 1577.05 2.42239 -3.38565 0
M  V30 16845 H 1577.58 0.802176 -3.89628 0
M  V30 16846 H 1574.32 -0.641066 -6.52358 0
M  V30 16847 H 1573.84 0.96178 -5.92039 0
M  V30 16848 H 1575.52 0.665524 -6.43568 0
M  V30 16849 N 1575.65 1.57214 0.110213 0
M  V30 16850 C 1576.93 1.76298 0.847249 0
M  V30 16851 C 1577.31 0.741294 1.97656 0
M  V30 16852 O 1576.66 -0.233104 2.27308 0
M  V30 16853 C 1576.87 3.21588 1.35582 0
M  V30 16854 C 1578.22 3.8434 1.80465 0
M  V30 16855 O 1579.24 3.25244 1.45241 0
M  V30 16856 O 1578.1 4.88231 2.45546 0
M  V30 16857 H 1575.19 0.722167 0.402993 0
M  V30 16858 H 1577.74 1.69443 0.0932694 0
M  V30 16859 H 1576.51 3.87472 0.54599 0
M  V30 16860 H 1576.14 3.33015 2.17225 0
M  V30 16861 N 1577.13 -0.380637 1.52934 0
M  V30 16862 C 1578.08 -1.48584 1.78957 0
M  V30 16863 C 1579.07 -1.56103 0.657901 0
M  V30 16864 O 1580.28 -1.59169 0.84055 0
M  V30 16865 H 1576.66 -0.494687 0.566382 0
M  V30 16866 H 1578.63 -1.23833 2.71492 0
M  V30 16867 C 1577.38 -2.85615 1.98291 0
M  V30 16868 H 1576.7 -2.80583 2.84804 0
M  V30 16869 H 1578.14 -3.62164 2.20485 0
M  V30 16870 C 1576.6 -3.28267 0.757764 0
M  V30 16871 O 1577.13 -4.01654 -0.0608007 0
M  V30 16872 N 1575.33 -2.84641 0.585486 0
M  V30 16873 H 1574.88 -2.25087 1.25274 0
M  V30 16874 H 1574.84 -3.13536 -0.232871 0
M  V30 16875 N 1578.61 -1.44039 -0.639573 0
M  V30 16876 C 1579.54 -1.44715 -1.76445 0
M  V30 16877 C 1580.52 -0.306957 -1.59676 0
M  V30 16878 O 1581.71 -0.502643 -1.81675 0
M  V30 16879 C 1578.83 -1.27177 -3.13917 0
M  V30 16880 C 1577.88 -2.44649 -3.49355 0
M  V30 16881 S 1578.71 -4.07191 -3.47787 0
M  V30 16882 C 1579.87 -3.92061 -4.87893 0
M  V30 16883 H 1580.1 -2.39897 -1.75603 0
M  V30 16884 H 1577.63 -1.31235 -0.813438 0
M  V30 16885 H 1579.59 -1.17745 -3.93251 0
M  V30 16886 H 1578.25 -0.335196 -3.12306 0
M  V30 16887 H 1577.45 -2.28219 -4.49369 0
M  V30 16888 H 1577.05 -2.50777 -2.77465 0
M  V30 16889 H 1579.34 -3.55229 -5.76904 0
M  V30 16890 H 1580.28 -4.91875 -5.09377 0
M  V30 16891 H 1580.69 -3.24271 -4.6207 0
M  V30 16892 N 1580.09 0.879207 -1.30796 0
M  V30 16893 C 1581.04 1.98553 -1.17667 0
M  V30 16894 C 1582.01 1.65974 -0.0647231 0
M  V30 16895 O 1583.19 1.89336 -0.235941 0
M  V30 16896 C 1580.33 3.3368 -0.880434 0
M  V30 16897 C 1579.44 3.78913 -2.07482 0
M  V30 16898 C 1578.58 5.02714 -1.71617 0
M  V30 16899 C 1577.62 5.40371 -2.87517 0
M  V30 16900 N 1576.75 6.55352 -2.5191 0
M  V30 16901 H 1581.59 2.09115 -2.12309 0
M  V30 16902 H 1579.13 1.02382 -1.05623 0
M  V30 16903 H 1581.09 4.11467 -0.689278 0
M  V30 16904 H 1579.72 3.22787 0.0291283 0
M  V30 16905 H 1578.77 2.96987 -2.37704 0
M  V30 16906 H 1580.08 4.02757 -2.94259 0
M  V30 16907 H 1579.24 5.88142 -1.4891 0
M  V30 16908 H 1577.98 4.80754 -0.820181 0
M  V30 16909 H 1576.98 4.53466 -3.10883 0
M  V30 16910 H 1578.21 5.64301 -3.77811 0
M  V30 16911 H 1576.15 6.34956 -1.64823 0
M  V30 16912 H 1576.07 6.79093 -3.32217 0
M  V30 16913 H 1577.34 7.43996 -2.32573 0
M  V30 16914 N 1581.57 1.13606 1.09231 0
M  V30 16915 C 1582.52 0.810747 2.18013 0
M  V30 16916 C 1583.51 -0.207782 1.68121 0
M  V30 16917 O 1584.72 -0.0647274 1.79884 0
M  V30 16918 H 1581.09 0.244415 0.711172 0
M  V30 16919 H 1583.06 1.73632 2.42682 0
M  V30 16920 C 1581.81 0.295302 3.46444 0
M  V30 16921 H 1581.13 1.07037 3.85205 0
M  V30 16922 H 1582.57 0.106127 4.23867 0
M  V30 16923 C 1581.03 -0.979398 3.2235 0
M  V30 16924 O 1581.56 -2.05483 3.45166 0
M  V30 16925 N 1579.77 -0.911282 2.75942 0
M  V30 16926 H 1579.32 -0.035979 2.57575 0
M  V30 16927 H 1579.27 -1.76476 2.60199 0
M  V30 16928 N 1583.05 -1.27244 0.929878 0
M  V30 16929 C 1583.99 -2.28755 0.421202 0
M  V30 16930 C 1584.99 -1.61988 -0.49561 0
M  V30 16931 O 1586.19 -1.76049 -0.375071 0
M  V30 16932 H 1582.57 -0.742741 0.117646 0
M  V30 16933 H 1584.54 -2.6907 1.29011 0
M  V30 16934 C 1583.29 -3.46327 -0.308737 0
M  V30 16935 H 1582.61 -3.97917 0.387552 0
M  V30 16936 H 1584.05 -4.19308 -0.629052 0
M  V30 16937 C 1582.51 -3.00535 -1.5225 0
M  V30 16938 O 1583.04 -3.04395 -2.62119 0
M  V30 16939 N 1581.25 -2.56007 -1.3751 0
M  V30 16940 H 1580.79 -2.53065 -0.481215 0
M  V30 16941 H 1580.75 -2.25731 -2.18845 0
M  V30 16942 N 1584.52 -0.695628 -1.41417 0
M  V30 16943 C 1585.47 -0.0303383 -2.3078 0
M  V30 16944 C 1586.44 0.771218 -1.4711 0
M  V30 16945 O 1587.63 0.739239 -1.75897 0
M  V30 16946 C 1584.77 0.900034 -3.33157 0
M  V30 16947 C 1583.88 0.0900862 -4.31906 0
M  V30 16948 C 1583.01 1.01811 -5.21352 0
M  V30 16949 C 1582.05 0.201068 -6.1177 0
M  V30 16950 N 1581.19 1.0829 -6.93699 0
M  V30 16951 H 1586.03 -0.798148 -2.87113 0
M  V30 16952 H 1583.57 -0.405311 -1.41406 0
M  V30 16953 H 1585.52 1.45349 -3.91062 0
M  V30 16954 H 1584.15 1.63424 -2.78375 0
M  V30 16955 H 1583.21 -0.58029 -3.75948 0
M  V30 16956 H 1584.52 -0.543336 -4.95832 0
M  V30 16957 H 1583.67 1.64079 -5.84092 0
M  V30 16958 H 1582.41 1.68538 -4.57653 0
M  V30 16959 H 1581.42 -0.434686 -5.48079 0
M  V30 16960 H 1582.64 -0.462416 -6.77524 0
M  V30 16961 H 1580.59 1.73619 -6.32608 0
M  V30 16962 H 1580.5 0.505046 -7.54311 0
M  V30 16963 H 1581.77 1.69239 -7.60906 0
M  V30 16964 N 1586 1.51322 -0.440383 0
M  V30 16965 C 1586.93 2.30708 0.360013 0
M  V30 16966 C 1587.91 1.36254 1.01828 0
M  V30 16967 O 1589.1 1.65174 1.02134 0
M  V30 16968 C 1586.23 3.15132 1.45977 0
M  V30 16969 C 1585.18 4.17889 0.924825 0
M  V30 16970 C 1584.51 4.90853 2.12056 0
M  V30 16971 C 1585.81 5.22282 -0.0428362 0
M  V30 16972 H 1587.5 2.97868 -0.30248 0
M  V30 16973 H 1585.05 1.43249 -0.146914 0
M  V30 16974 H 1587 3.69449 2.02695 0
M  V30 16975 H 1585.72 2.45798 2.1506 0
M  V30 16976 H 1584.38 3.64627 0.379842 0
M  V30 16977 H 1584.03 4.1802 2.79765 0
M  V30 16978 H 1583.73 5.60339 1.769 0
M  V30 16979 H 1585.26 5.47995 2.69322 0
M  V30 16980 H 1586.67 5.71654 0.434137 0
M  V30 16981 H 1585.07 5.99314 -0.307126 0
M  V30 16982 H 1586.14 4.74923 -0.978557 0
M  V30 16983 N 1587.48 0.171848 1.5666 0
M  V30 16984 C 1588.44 -0.744316 2.16778 0
M  V30 16985 C 1589.44 -1.15769 1.11598 0
M  V30 16986 O 1590.63 -1.07456 1.37109 0
M  V30 16987 C 1587.76 -2.01319 2.75106 0
M  V30 16988 H 1588.96 -0.220952 2.99085 0
M  V30 16989 H 1586.51 -0.0777149 1.56107 0
M  V30 16990 H 1587.25 -2.57963 1.96534 0
M  V30 16991 H 1587.03 -1.72575 3.5208 0
M  V30 16992 H 1588.52 -2.667 3.21342 0
M  V30 16993 N 1588.96 -1.5727 -0.101874 0
M  V30 16994 C 1590.19 -1.89943 -0.820329 0
M  V30 16995 C 1590.6 -0.764867 -1.72613 0
M  V30 16996 O 1589.96 0.263499 -1.80588 0
M  V30 16997 C 1590.01 -3.2219 -1.63939 0
M  V30 16998 O 1589.73 -4.31279 -0.770039 0
M  V30 16999 C 1591.23 -3.6868 -2.46151 0
M  V30 17000 H 1588.45 -0.628532 -0.234922 0
M  V30 17001 H 1590.99 -2.04339 -0.0811362 0
M  V30 17002 H 1589.15 -3.09411 -2.33117 0
M  V30 17003 H 1589.56 -5.07182 -1.33665 0
M  V30 17004 H 1591.04 -4.63928 -2.99124 0
M  V30 17005 H 1591.51 -2.96183 -3.24303 0
M  V30 17006 H 1592.12 -3.84303 -1.82185 0
M  V30 17007 N 1590.44 0.372521 -1.53134 0
M  V30 17008 C 1591.4 1.43875 -1.78417 0
M  V30 17009 C 1592.4 1.46879 -0.654455 0
M  V30 17010 O 1593.59 1.47761 -0.922619 0
M  V30 17011 C 1590.72 2.83046 -1.89994 0
M  V30 17012 H 1591.91 1.22733 -2.73636 0
M  V30 17013 H 1589.47 0.605247 -1.44106 0
M  V30 17014 H 1590.2 3.09511 -0.968179 0
M  V30 17015 H 1589.99 2.82265 -2.72156 0
M  V30 17016 H 1591.48 3.60273 -2.11171 0
M  V30 17017 N 1591.91 1.44376 0.631925 0
M  V30 17018 C 1592.82 1.5367 1.77264 0
M  V30 17019 C 1593.84 0.422425 1.68794 0
M  V30 17020 O 1595.02 0.679656 1.89585 0
M  V30 17021 C 1592.08 1.47743 3.13644 0
M  V30 17022 C 1591.14 2.70015 3.33752 0
M  V30 17023 C 1590.37 2.64362 4.63626 0
M  V30 17024 O 1590.6 1.7032 5.44378 0
M  V30 17025 O 1589.53 3.55201 4.85918 0
M  V30 17026 H 1593.36 2.5004 1.72376 0
M  V30 17027 H 1590.94 1.26614 0.793052 0
M  V30 17028 H 1592.82 1.46958 3.94945 0
M  V30 17029 H 1591.5 0.545165 3.19076 0
M  V30 17030 H 1590.41 2.76369 2.52133 0
M  V30 17031 H 1591.74 3.62286 3.33181 0
M  V30 17032 N 1593.39 -0.872258 1.31261 0
M  V30 17033 C 1594.62 -1.6632 1.23905 0
M  V30 17034 C 1595.04 -1.87109 -0.192878 0
M  V30 17035 O 1594.4 -1.4112 -1.1382 0
M  V30 17036 C 1594.45 -3.00979 1.98606 0
M  V30 17037 O 1593.55 -3.90642 1.32183 0
M  V30 17038 H 1592.89 -0.507736 0.427902 0
M  V30 17039 H 1595.42 -1.0877 1.73292 0
M  V30 17040 H 1595.43 -3.50931 2.08113 0
M  V30 17041 H 1594.11 -2.85168 3.02741 0
M  V30 17042 H 1592.68 -3.4909 1.31112 0
M  V30 17043 N 1594.87 -1.14184 -1.08627 0
M  V30 17044 C 1595.83 -0.82954 -2.13662 0
M  V30 17045 C 1596.83 0.164794 -1.59953 0
M  V30 17046 O 1598.02 -0.0632831 -1.74085 0
M  V30 17047 C 1595.15 -0.236176 -3.40081 0
M  V30 17048 H 1596.35 -1.76038 -2.42797 0
M  V30 17049 H 1593.9 -0.947568 -1.24301 0
M  V30 17050 H 1594.64 0.70349 -3.16578 0
M  V30 17051 H 1594.42 -0.952341 -3.80359 0
M  V30 17052 H 1595.91 -0.03481 -4.17585 0
M  V30 17053 N 1596.35 1.26749 -0.936613 0
M  V30 17054 C 1597.31 2.24794 -0.447243 0
M  V30 17055 C 1598.31 1.54688 0.439135 0
M  V30 17056 O 1599.5 1.72553 0.238957 0
M  V30 17057 C 1596.63 3.39036 0.355958 0
M  V30 17058 H 1597.83 2.696 -1.31361 0
M  V30 17059 H 1595.38 1.38825 -0.718143 0
M  V30 17060 H 1596.11 2.99625 1.24077 0
M  V30 17061 H 1595.9 3.91101 -0.279691 0
M  V30 17062 H 1597.39 4.11887 0.688421 0
M  V30 17063 N 1597.83 0.703118 1.41046 0
M  V30 17064 C 1599.24 0.311167 1.84089 0
M  V30 17065 C 1599.59 -1.15202 1.58818 0
M  V30 17066 O 1598.71 -1.88518 1.06254 0
M  V30 17067 C 1599.31 0.557986 3.34174 0
M  V30 17068 C 1597.87 0.219875 3.75757 0
M  V30 17069 C 1597.01 0.836543 2.64381 0
M  V30 17070 H 1599.97 0.903211 1.30491 0
M  V30 17071 H 1599.99 -0.180865 3.8007 0
M  V30 17072 H 1599.5 1.62298 3.52535 0
M  V30 17073 H 1597.6 -0.840559 3.62995 0
M  V30 17074 H 1597.71 0.680165 4.74247 0
M  V30 17075 H 1596.08 0.265547 2.53312 0
M  V30 17076 H 1596.86 1.90556 2.85558 0
M  V30 17077 N 1599.3 -1.51086 0.448402 0
M  V30 17078 C 1600.25 -2.24885 -0.375609 0
M  V30 17079 C 1601.24 -1.27553 -0.980769 0
M  V30 17080 O 1602.43 -1.52583 -0.897076 0
M  V30 17081 C 1599.56 -3.10235 -1.47 0
M  V30 17082 C 1598.65 -4.15003 -0.873686 0
M  V30 17083 N 1599.04 -5.05799 -0.00756268 0
M  V30 17084 C 1597.33 -4.31182 -1.14009 0
M  V30 17085 C 1598.04 -5.80772 0.328514 0
M  V30 17086 N 1597.01 -5.42822 -0.290661 0
M  V30 17087 H 1600.81 -2.92446 0.291962 0
M  V30 17088 H 1598.33 -1.60287 0.261145 0
M  V30 17089 H 1600.32 -3.61691 -2.07328 0
M  V30 17090 H 1598.98 -2.44219 -2.13979 0
M  V30 17091 H 1600 -5.1665 0.359676 0
M  V30 17092 H 1596.67 -3.7639 -1.80656 0
M  V30 17093 H 1598.06 -6.63896 1.03399 0
M  V30 17094 N 1600.78 -0.180154 -1.56567 0
M  V30 17095 C 1602.03 0.461606 -1.96758 0
M  V30 17096 C 1602.35 1.63179 -1.0676 0
M  V30 17097 O 1601.62 1.95429 -0.135762 0
M  V30 17098 H 1600.2 0.173526 -0.726566 0
M  V30 17099 H 1602.86 -0.2634 -1.93112 0
M  V30 17100 H 1601.96 0.815729 -3.01251 0
M  V30 17101 N 1602.26 1.57322 0.0935319 0
M  V30 17102 C 1603.49 1.90754 0.814111 0
M  V30 17103 C 1603.91 0.774571 1.71412 0
M  V30 17104 O 1603.27 -0.273775 1.79221 0
M  V30 17105 C 1603.32 3.23055 1.60211 0
M  V30 17106 O 1602.42 3.10755 2.71118 0
M  V30 17107 H 1601.76 0.625237 0.223552 0
M  V30 17108 H 1604.29 2.04486 0.068288 0
M  V30 17109 H 1604.3 3.56401 1.986 0
M  V30 17110 H 1602.98 4.05101 0.941607 0
M  V30 17111 H 1601.55 2.88926 2.35745 0
M  V30 17112 N 1603.74 -0.364395 1.53329 0
M  V30 17113 C 1604.67 -1.45243 1.8283 0
M  V30 17114 C 1605.65 -1.55834 0.681886 0
M  V30 17115 O 1606.83 -1.70383 0.931845 0
M  V30 17116 C 1603.96 -2.82565 2.01926 0
M  V30 17117 C 1602.92 -2.86797 3.17697 0
M  V30 17118 C 1602.24 -4.26806 3.22089 0
M  V30 17119 C 1603.54 -2.54212 4.56261 0
M  V30 17120 H 1605.24 -1.20804 2.73946 0
M  V30 17121 H 1602.78 -0.579705 1.31816 0
M  V30 17122 H 1604.74 -3.58709 2.21147 0
M  V30 17123 H 1603.46 -3.08394 1.07521 0
M  V30 17124 H 1602.12 -2.13105 2.98298 0
M  V30 17125 H 1601.77 -4.49712 2.25318 0
M  V30 17126 H 1601.47 -4.30553 3.99873 0
M  V30 17127 H 1602.99 -5.04821 3.43495 0
M  V30 17128 H 1604.41 -3.20069 4.75635 0
M  V30 17129 H 1602.8 -2.69273 5.36295 0
M  V30 17130 H 1603.87 -1.49458 4.61292 0
M  V30 17131 N 1605.22 -1.44709 -0.62426 0
M  V30 17132 C 1606.46 -1.47561 -1.38094 0
M  V30 17133 C 1606.79 -0.112115 -1.94677 0
M  V30 17134 O 1606.06 0.856458 -1.76186 0
M  V30 17135 H 1604.64 -0.543368 -0.512601 0
M  V30 17136 H 1607.3 -1.8054 -0.734258 0
M  V30 17137 H 1606.39 -2.20496 -2.2088 0
M  V30 17138 N 1606.69 0.865285 -1.31722 0
M  V30 17139 C 1607.64 1.96073 -1.16358 0
M  V30 17140 C 1608.63 1.60733 -0.0733173 0
M  V30 17141 O 1609.82 1.74461 -0.298725 0
M  V30 17142 C 1606.95 3.31886 -0.877855 0
M  V30 17143 C 1606.04 3.7348 -2.00932 0
M  V30 17144 N 1606.43 3.86993 -3.25684 0
M  V30 17145 C 1604.72 4.03027 -1.91011 0
M  V30 17146 C 1605.43 4.22605 -3.99725 0
M  V30 17147 N 1604.4 4.33545 -3.27932 0
M  V30 17148 H 1608.2 2.04639 -2.1095 0
M  V30 17149 H 1605.72 1.05638 -1.23347 0
M  V30 17150 H 1607.71 4.10121 -0.748764 0
M  V30 17151 H 1606.37 3.24645 0.0597974 0
M  V30 17152 H 1607.39 3.71596 -3.60745 0
M  V30 17153 H 1604.06 4.04148 -1.0474 0
M  V30 17154 H 1605.45 4.40618 -5.07253 0
M  V30 17155 N 1608.17 1.14759 1.0802 0
M  V30 17156 C 1609.14 0.840859 2.13219 0
M  V30 17157 C 1610.14 -0.156309 1.60038 0
M  V30 17158 O 1611.33 0.0725143 1.74049 0
M  V30 17159 C 1608.46 0.254208 3.39951 0
M  V30 17160 H 1609.65 1.77323 2.4186 0
M  V30 17161 H 1607.2 0.954146 1.23797 0
M  V30 17162 H 1607.94 -0.686692 3.16946 0
M  V30 17163 H 1607.72 0.972499 3.79848 0
M  V30 17164 H 1609.21 0.0569551 4.17561 0
M  V30 17165 N 1609.65 -1.26251 0.943322 0
M  V30 17166 C 1610.9 -1.9327 0.590863 0
M  V30 17167 C 1611.22 -1.74356 -0.873212 0
M  V30 17168 O 1610.49 -1.10046 -1.6207 0
M  V30 17169 H 1609.07 -0.71523 0.215535 0
M  V30 17170 H 1611.73 -1.53647 1.19911 0
M  V30 17171 H 1610.83 -3.01393 0.810475 0
M  V30 17172 N 1611.13 -0.710588 -1.40671 0
M  V30 17173 C 1612.06 -0.0694601 -2.33397 0
M  V30 17174 C 1613.04 0.750959 -1.52626 0
M  V30 17175 O 1614.23 0.700896 -1.81111 0
M  V30 17176 C 1611.36 0.856704 -3.36568 0
M  V30 17177 C 1610.31 0.142276 -4.27763 0
M  V30 17178 C 1609.64 1.18382 -5.21431 0
M  V30 17179 C 1610.94 -1.00052 -5.12627 0
M  V30 17180 H 1612.63 -0.843945 -2.87259 0
M  V30 17181 H 1610.18 -0.407287 -1.3812 0
M  V30 17182 H 1612.13 1.31457 -4.00371 0
M  V30 17183 H 1610.85 1.66303 -2.81089 0
M  V30 17184 H 1609.51 -0.295714 -3.65405 0
M  V30 17185 H 1609.16 1.98306 -4.62259 0
M  V30 17186 H 1608.86 0.71071 -5.83286 0
M  V30 17187 H 1610.38 1.64189 -5.88111 0
M  V30 17188 H 1611.8 -0.622246 -5.69913 0
M  V30 17189 H 1610.19 -1.40168 -5.83501 0
M  V30 17190 H 1611.26 -1.83345 -4.48902 0
M  V30 17191 N 1612.61 1.50847 -0.456408 0
M  V30 17192 C 1614.02 1.867 0.00222532 0
M  V30 17193 C 1614.37 1.37229 1.40224 0
M  V30 17194 O 1613.49 0.731052 2.03678 0
M  V30 17195 C 1614.09 3.38798 0.0108142 0
M  V30 17196 C 1612.65 3.74117 0.413924 0
M  V30 17197 C 1611.8 2.74671 -0.380933 0
M  V30 17198 H 1614.75 1.43799 -0.671379 0
M  V30 17199 H 1614.77 3.71642 0.816217 0
M  V30 17200 H 1614.28 3.74774 -1.00826 0
M  V30 17201 H 1612.38 3.43737 1.43789 0
M  V30 17202 H 1612.49 4.78936 0.125471 0
M  V30 17203 H 1610.86 2.54175 0.163385 0
M  V30 17204 H 1611.64 3.1349 -1.39924 0
M  V30 17205 N 1614.09 0.188454 1.56469 0
M  V30 17206 C 1615.02 -0.766806 2.15992 0
M  V30 17207 C 1616.03 -1.18153 1.11998 0
M  V30 17208 O 1617.22 -1.11842 1.39118 0
M  V30 17209 C 1614.32 -2.04594 2.70175 0
M  V30 17210 C 1613.49 -1.79207 3.99003 0
M  V30 17211 C 1612.55 -2.91504 4.38078 0
M  V30 17212 O 1611.58 -2.61397 5.05628 0
M  V30 17213 N 1612.78 -4.19702 4.01037 0
M  V30 17214 H 1615.54 -0.257829 2.98589 0
M  V30 17215 H 1613.11 0.00625645 1.61899 0
M  V30 17216 H 1615.1 -2.78846 2.93303 0
M  V30 17217 H 1613.67 -2.46633 1.9207 0
M  V30 17218 H 1612.89 -0.88769 3.84075 0
M  V30 17219 H 1614.18 -1.59634 4.83109 0
M  V30 17220 H 1613.57 -4.47016 3.46689 0
M  V30 17221 H 1612.13 -4.90602 4.2913 0
M  V30 17222 N 1615.56 -1.5737 -0.0851874 0
M  V30 17223 C 1616.79 -1.91183 -0.803983 0
M  V30 17224 C 1617.21 -0.78365 -1.70999 0
M  V30 17225 O 1616.57 0.264266 -1.79364 0
M  V30 17226 C 1616.62 -3.239 -1.58496 0
M  V30 17227 O 1615.72 -3.12189 -2.69466 0
M  V30 17228 H 1615.06 -0.626413 -0.220233 0
M  V30 17229 H 1617.59 -2.04519 -0.0574426 0
M  V30 17230 H 1617.6 -3.5745 -1.96707 0
M  V30 17231 H 1616.28 -4.05594 -0.920111 0
M  V30 17232 H 1614.86 -2.90173 -2.3421 0
M  V30 17233 N 1617.04 0.356258 -1.53521 0
M  V30 17234 C 1618.45 0.932569 -1.61741 0
M  V30 17235 C 1618.8 1.89965 -0.490677 0
M  V30 17236 O 1617.93 2.1301 0.381514 0
M  V30 17237 C 1618.52 1.69818 -2.93168 0
M  V30 17238 C 1617.08 2.22369 -3.03692 0
M  V30 17239 C 1616.23 1.03891 -2.57103 0
M  V30 17240 H 1619.18 0.134769 -1.58127 0
M  V30 17241 H 1619.2 2.56011 -2.81494 0
M  V30 17242 H 1618.71 0.994065 -3.75153 0
M  V30 17243 H 1616.81 2.95994 -2.26314 0
M  V30 17244 H 1616.93 2.49611 -4.08939 0
M  V30 17245 H 1615.29 1.40862 -2.12202 0
M  V30 17246 H 1616.07 0.349637 -3.41515 0
M  V30 17247 N 1618.52 1.45038 0.616577 0
M  V30 17248 C 1619.48 1.52647 1.70973 0
M  V30 17249 C 1620.48 0.406902 1.55567 0
M  V30 17250 O 1621.67 0.670062 1.60797 0
M  V30 17251 C 1618.8 1.41438 3.10174 0
M  V30 17252 H 1620 2.50036 1.65596 0
M  V30 17253 H 1617.55 1.32346 0.831524 0
M  V30 17254 H 1618.29 0.451991 3.21135 0
M  V30 17255 H 1618.07 2.22634 3.22764 0
M  V30 17256 H 1619.56 1.49776 3.89817 0
M  V30 17257 N 1620 -0.858287 1.32179 0
M  V30 17258 C 1620.94 -1.96656 1.20811 0
M  V30 17259 C 1621.91 -1.6585 0.0911199 0
M  V30 17260 O 1623.1 -1.88936 0.266033 0
M  V30 17261 C 1620.24 -3.32237 0.933408 0
M  V30 17262 C 1619.35 -3.75564 2.13484 0
M  V30 17263 C 1618.49 -4.9992 1.79593 0
M  V30 17264 C 1617.53 -5.35728 2.96077 0
M  V30 17265 N 1616.66 -6.51261 2.62304 0
M  V30 17266 H 1621.5 -2.05711 2.15609 0
M  V30 17267 H 1619.04 -1.00689 1.07239 0
M  V30 17268 H 1621 -4.10318 0.754651 0
M  V30 17269 H 1619.63 -3.22792 0.0222279 0
M  V30 17270 H 1618.68 -2.93167 2.42399 0
M  V30 17271 H 1619.99 -3.98025 3.00629 0
M  V30 17272 H 1619.15 -5.85698 1.58248 0
M  V30 17273 H 1617.89 -4.79388 0.896561 0
M  V30 17274 H 1616.89 -4.48463 3.18058 0
M  V30 17275 H 1618.12 -5.58219 3.86741 0
M  V30 17276 H 1616.06 -6.32254 1.74904 0
M  V30 17277 H 1615.98 -6.73722 3.42979 0
M  V30 17278 H 1617.25 -7.40202 2.4438 0
M  V30 17279 N 1621.48 -1.1533 -1.07409 0
M  V30 17280 C 1622.41 -0.793078 -2.13976 0
M  V30 17281 C 1623.39 0.23021 -1.60962 0
M  V30 17282 O 1624.57 0.116904 -1.88137 0
M  V30 17283 C 1621.7 -0.179232 -3.38225 0
M  V30 17284 C 1620.74 -1.17432 -4.10015 0
M  V30 17285 S 1621.58 -2.7161 -4.61506 0
M  V30 17286 C 1622.73 -2.11643 -5.89031 0
M  V30 17287 H 1622.97 -1.69568 -2.44201 0
M  V30 17288 H 1620.5 -0.975582 -1.19674 0
M  V30 17289 H 1622.46 0.168494 -4.10154 0
M  V30 17290 H 1621.12 0.700954 -3.06179 0
M  V30 17291 H 1620.31 -0.693027 -4.99213 0
M  V30 17292 H 1619.91 -1.46655 -3.44047 0
M  V30 17293 H 1622.2 -1.47812 -6.61179 0
M  V30 17294 H 1623.15 -2.99006 -6.41873 0
M  V30 17295 H 1623.56 -1.55971 -5.42525 0
M  V30 17296 N 1622.95 1.25748 -0.950004 0
M  V30 17297 C 1624.2 1.92954 -0.601104 0
M  V30 17298 C 1624.52 1.74817 0.863953 0
M  V30 17299 O 1623.79 1.10904 1.61484 0
M  V30 17300 H 1622.37 0.714077 -0.219325 0
M  V30 17301 H 1625.03 1.53009 -1.20724 0
M  V30 17302 H 1624.13 3.00959 -0.826447 0
M  V30 17303 N 1624.43 0.718038 1.40292 0
M  V30 17304 C 1625.38 0.0559466 2.32533 0
M  V30 17305 C 1626.37 -0.744365 1.5217 0
M  V30 17306 O 1627.58 -0.647458 1.67952 0
M  V30 17307 H 1623.95 -0.000710627 0.752 0
M  V30 17308 H 1625.93 0.850579 2.8602 0
M  V30 17309 C 1624.67 -0.849927 3.37152 0
M  V30 17310 H 1624 -0.243507 3.99058 0
M  V30 17311 H 1625.44 -1.28111 4.04183 0
M  V30 17312 C 1623.9 -1.9765 2.7283 0
M  V30 17313 O 1624.43 -3.06757 2.59351 0
M  V30 17314 N 1622.63 -1.76086 2.31176 0
M  V30 17315 H 1622.18 -0.873485 2.42339 0
M  V30 17316 H 1622.14 -2.51643 1.88477 0
M  V30 17317 N 1625.91 -1.50602 0.464402 0
M  V30 17318 C 1627.14 -2.07191 -0.0930678 0
M  V30 17319 C 1627.56 -1.32675 -1.33338 0
M  V30 17320 O 1626.92 -0.372453 -1.77433 0
M  V30 17321 C 1626.97 -3.5873 -0.366775 0
M  V30 17322 O 1626.07 -3.86125 -1.44849 0
M  V30 17323 H 1625.41 -0.663924 0.0100336 0
M  V30 17324 H 1627.94 -1.93882 0.653522 0
M  V30 17325 H 1627.95 -4.03425 -0.609258 0
M  V30 17326 H 1626.63 -4.12385 0.539608 0
M  V30 17327 H 1625.2 -3.53273 -1.19384 0
M  V30 17328 N 1627.39 -0.19675 -1.56367 0
M  V30 17329 C 1628.62 0.447139 -2.02011 0
M  V30 17330 C 1629.03 1.55077 -1.07687 0
M  V30 17331 O 1628.39 1.82316 -0.0820316 0
M  V30 17332 C 1628.44 1.00192 -3.47338 0
M  V30 17333 O 1628.16 -0.0576859 -4.38062 0
M  V30 17334 C 1629.66 1.72152 -4.08508 0
M  V30 17335 H 1626.88 0.112088 -0.661572 0
M  V30 17336 H 1629.43 -0.30594 -2.02199 0
M  V30 17337 H 1627.58 1.70537 -3.47844 0
M  V30 17338 H 1627.99 0.355508 -5.23294 0
M  V30 17339 H 1629.47 2.06199 -5.12041 0
M  V30 17340 H 1629.95 2.62581 -3.52062 0
M  V30 17341 H 1630.55 1.06388 -4.11779 0
M  V30 17342 N 1628.87 1.57413 0.0768405 0
M  V30 17343 C 1630.14 1.78056 0.809663 0
M  V30 17344 C 1630.52 0.783053 1.9604 0
M  V30 17345 O 1629.87 -0.184836 2.27751 0
M  V30 17346 C 1630.08 3.24391 1.2873 0
M  V30 17347 C 1631.43 3.88082 1.72272 0
M  V30 17348 O 1632.45 3.28251 1.38309 0
M  V30 17349 O 1631.31 4.93329 2.35135 0
M  V30 17350 H 1628.41 0.730553 0.387584 0
M  V30 17351 H 1630.95 1.69603 0.057307 0
M  V30 17352 H 1629.72 3.88543 0.463678 0
M  V30 17353 H 1629.35 3.37548 2.10112 0
M  V30 17354 N 1630.34 -0.348112 1.53707 0
M  V30 17355 C 1631.76 -0.923978 1.62233 0
M  V30 17356 C 1632.11 -1.89702 0.500744 0
M  V30 17357 O 1631.23 -2.1321 -0.370212 0
M  V30 17358 C 1631.83 -1.68261 2.94064 0
M  V30 17359 C 1630.39 -2.20755 3.04867 0
M  V30 17360 C 1629.53 -1.02526 2.5765 0
M  V30 17361 H 1632.48 -0.126381 1.58196 0
M  V30 17362 H 1632.5 -2.54514 2.82848 0
M  V30 17363 H 1632.02 -0.974155 3.75675 0
M  V30 17364 H 1630.12 -2.9479 2.27881 0
M  V30 17365 H 1630.23 -2.47439 4.10257 0
M  V30 17366 H 1628.59 -1.39735 2.12947 0
M  V30 17367 H 1629.38 -0.331521 3.41696 0
M  V30 17368 N 1631.82 -1.45363 -0.608876 0
M  V30 17369 C 1633.07 -1.49018 -1.36522 0
M  V30 17370 C 1633.39 -0.132757 -1.94548 0
M  V30 17371 O 1632.66 0.837723 -1.77085 0
M  V30 17372 H 1631.24 -0.548775 -0.506809 0
M  V30 17373 H 1633.9 -1.81309 -0.715068 0
M  V30 17374 H 1633 -2.22826 -2.18529 0
M  V30 17375 N 1633.3 0.851265 -1.32632 0
M  V30 17376 C 1634.71 1.4217 -1.21015 0
M  V30 17377 C 1635.06 1.95409 0.175972 0
M  V30 17378 O 1634.19 1.87816 1.07489 0
M  V30 17379 C 1634.78 2.58431 -2.19086 0
M  V30 17380 C 1633.34 3.11464 -2.11346 0
M  V30 17381 C 1632.49 1.84221 -2.07263 0
M  V30 17382 H 1635.44 0.65812 -1.44411 0
M  V30 17383 H 1635.46 3.35694 -1.79137 0
M  V30 17384 H 1634.97 2.19652 -3.1996 0
M  V30 17385 H 1633.07 3.54818 -1.13732 0
M  V30 17386 H 1633.19 3.72478 -3.01325 0
M  V30 17387 H 1631.55 2.0396 -1.52553 0
M  V30 17388 H 1632.33 1.47654 -3.09924 0
M  V30 17389 N 1634.78 1.15898 1.06796 0
M  V30 17390 C 1635.71 0.804414 2.13552 0
M  V30 17391 C 1636.69 -0.22167 1.61082 0
M  V30 17392 O 1637.87 -0.106925 1.88196 0
M  V30 17393 C 1635 0.197166 3.38126 0
M  V30 17394 C 1634.05 1.19605 4.09386 0
M  V30 17395 S 1634.88 2.74054 4.6006 0
M  V30 17396 C 1636.04 2.14764 5.87901 0
M  V30 17397 H 1636.27 1.7086 2.43298 0
M  V30 17398 H 1633.8 0.981915 1.19154 0
M  V30 17399 H 1635.76 -0.14674 4.10238 0
M  V30 17400 H 1634.42 -0.684706 3.06546 0
M  V30 17401 H 1633.61 0.719491 4.98838 0
M  V30 17402 H 1633.22 1.48478 3.43264 0
M  V30 17403 H 1635.51 1.51317 6.60386 0
M  V30 17404 H 1636.45 3.02406 6.40278 0
M  V30 17405 H 1636.86 1.58846 5.4169 0
M  V30 17406 N 1636.26 -1.25243 0.956659 0
M  V30 17407 C 1637.19 -2.28159 0.496574 0
M  V30 17408 C 1638.17 -1.63814 -0.458132 0
M  V30 17409 O 1639.35 -1.90897 -0.356648 0
M  V30 17410 C 1636.48 -3.46573 -0.22454 0
M  V30 17411 C 1635.44 -4.2311 0.645104 0
M  V30 17412 C 1634.76 -5.343 -0.206867 0
M  V30 17413 C 1636.06 -4.85562 1.92422 0
M  V30 17414 H 1637.76 -2.66895 1.35675 0
M  V30 17415 H 1635.3 -1.28301 0.653827 0
M  V30 17416 H 1637.26 -4.17695 -0.55755 0
M  V30 17417 H 1635.98 -3.06833 -1.11898 0
M  V30 17418 H 1634.64 -3.53774 0.961228 0
M  V30 17419 H 1634.29 -4.908 -1.10112 0
M  V30 17420 H 1633.99 -5.86423 0.371714 0
M  V30 17421 H 1635.51 -6.08253 -0.534798 0
M  V30 17422 H 1636.92 -5.48817 1.65749 0
M  V30 17423 H 1635.32 -5.47871 2.44862 0
M  V30 17424 H 1636.39 -4.07634 2.62607 0
M  V30 17425 N 1637.73 -0.725468 -1.3991 0
M  V30 17426 C 1638.7 -0.0878956 -2.29031 0
M  V30 17427 C 1639.7 0.677105 -1.45849 0
M  V30 17428 O 1640.89 0.507538 -1.66642 0
M  V30 17429 C 1638.02 0.885087 -3.2921 0
M  V30 17430 H 1639.21 -0.872957 -2.86914 0
M  V30 17431 H 1636.77 -0.490715 -1.48397 0
M  V30 17432 H 1637.5 1.69685 -2.76365 0
M  V30 17433 H 1637.29 0.339297 -3.90629 0
M  V30 17434 H 1638.78 1.32806 -3.9592 0
M  V30 17435 N 1639.21 1.50354 -0.472382 0
M  V30 17436 C 1640.46 2.01526 0.0838536 0
M  V30 17437 C 1640.77 1.35913 1.40667 0
M  V30 17438 O 1641.98 1.78248 2.04792 0
M  V30 17439 C 1640.44 3.59344 0.199949 0
M  V30 17440 C 1640.04 4.33916 -1.11451 0
M  V30 17441 C 1641.79 4.18553 0.708075 0
M  V30 17442 C 1639.7 5.83521 -0.962138 0
M  V30 17443 H 1638.63 0.753182 0.0351127 0
M  V30 17444 H 1641.28 1.73153 -0.607474 0
M  V30 17445 H 1639.66 3.8431 0.955088 0
M  V30 17446 H 1640.83 4.20673 -1.8807 0
M  V30 17447 H 1639.15 3.86322 -1.55385 0
M  V30 17448 H 1641.74 5.28075 0.839126 0
M  V30 17449 H 1642.09 3.80019 1.69973 0
M  V30 17450 H 1642.62 3.97799 0.0102847 0
M  V30 17451 H 1639.36 6.26529 -1.9272 0
M  V30 17452 H 1638.88 5.99334 -0.236348 0
M  V30 17453 H 1640.56 6.43933 -0.629276 0
M  V30 17454 N 1640.69 0.205039 1.56261 0
M  V30 17455 C 1642.1 -0.305792 1.84179 0
M  V30 17456 C 1642.45 -1.60672 1.126 0
M  V30 17457 O 1641.58 -2.12855 0.390118 0
M  V30 17458 C 1642.17 -0.561596 3.34113 0
M  V30 17459 C 1640.73 -1.01677 3.62407 0
M  V30 17460 C 1639.88 -0.0707844 2.7721 0
M  V30 17461 H 1642.83 0.428609 1.52803 0
M  V30 17462 H 1642.85 -1.40969 3.53423 0
M  V30 17463 H 1642.36 0.38541 3.86182 0
M  V30 17464 H 1640.46 -1.97771 3.1578 0
M  V30 17465 H 1640.58 -0.902607 4.70521 0
M  V30 17466 H 1638.94 -0.574529 2.48136 0
M  V30 17467 H 1639.72 0.870844 3.32071 0
M  V30 17468 N 1642.17 -1.57451 -0.0684915 0
M  V30 17469 C 1643.13 -2.0293 -1.06545 0
M  V30 17470 C 1644.13 -0.926861 -1.314 0
M  V30 17471 O 1645.32 -1.19164 -1.27065 0
M  V30 17472 C 1642.45 -2.41276 -2.4083 0
M  V30 17473 H 1643.65 -2.92242 -0.673401 0
M  V30 17474 H 1641.2 -1.53107 -0.314307 0
M  V30 17475 H 1641.94 -1.55 -2.8486 0
M  V30 17476 H 1641.72 -3.21727 -2.2413 0
M  V30 17477 H 1643.21 -2.77026 -3.12484 0
M  V30 17478 N 1643.65 0.339955 -1.5389 0
M  V30 17479 C 1644.58 1.44096 -1.76951 0
M  V30 17480 C 1645.56 1.50367 -0.618758 0
M  V30 17481 O 1646.74 1.68028 -0.854329 0
M  V30 17482 C 1643.87 2.82307 -1.87137 0
M  V30 17483 C 1642.92 2.93645 -3.09314 0
M  V30 17484 S 1643.75 2.59742 -4.68288 0
M  V30 17485 C 1644.9 4.00055 -4.81359 0
M  V30 17486 H 1645.14 1.24318 -2.7006 0
M  V30 17487 H 1642.67 0.535835 -1.44804 0
M  V30 17488 H 1644.63 3.61931 -1.93692 0
M  V30 17489 H 1643.29 2.99378 -0.950349 0
M  V30 17490 H 1642.48 3.94927 -3.13127 0
M  V30 17491 H 1642.08 2.21974 -3.01004 0
M  V30 17492 H 1644.38 4.94619 -4.62989 0
M  V30 17493 H 1645.32 4.01234 -5.83452 0
M  V30 17494 H 1645.73 3.88248 -4.09785 0
M  V30 17495 N 1645.13 1.45684 0.601159 0
M  V30 17496 C 1646.09 1.54451 1.69344 0
M  V30 17497 C 1647.09 0.423379 1.55126 0
M  V30 17498 O 1648.28 0.687079 1.60078 0
M  V30 17499 C 1645.41 1.4472 3.08657 0
M  V30 17500 H 1646.6 2.51778 1.62935 0
M  V30 17501 H 1644.16 1.3322 0.81744 0
M  V30 17502 H 1644.89 0.486027 3.20637 0
M  V30 17503 H 1644.68 2.26045 3.20384 0
M  V30 17504 H 1646.17 1.53902 3.88206 0
M  V30 17505 N 1646.6 -0.84422 1.33082 0
M  V30 17506 C 1647.83 -1.63133 1.27261 0
M  V30 17507 C 1648.25 -1.88142 -0.157479 0
M  V30 17508 O 1647.6 -1.4578 -1.09793 0
M  V30 17509 C 1647.65 -2.98462 2.03967 0
M  V30 17510 O 1647.38 -2.74555 3.41396 0
M  V30 17511 C 1648.88 -3.92899 2.05293 0
M  V30 17512 H 1646.1 -0.507769 0.438647 0
M  V30 17513 H 1648.64 -1.05194 1.75369 0
M  V30 17514 H 1646.8 -3.53017 1.59554 0
M  V30 17515 H 1647.21 -3.60694 3.80789 0
M  V30 17516 H 1648.68 -4.85088 2.63427 0
M  V30 17517 H 1649.16 -4.26665 1.04183 0
M  V30 17518 H 1649.77 -3.44281 2.49701 0
M  V30 17519 N 1648.08 -1.16463 -1.0618 0
M  V30 17520 C 1649.03 -0.868264 -2.15787 0
M  V30 17521 C 1650.02 0.163135 -1.68613 0
M  V30 17522 O 1651.23 0.0170117 -1.79992 0
M  V30 17523 H 1647.6 -0.263184 -0.704442 0
M  V30 17524 H 1649.58 -1.80005 -2.37993 0
M  V30 17525 C 1648.32 -0.387052 -3.45539 0
M  V30 17526 H 1647.65 -1.17212 -3.82232 0
M  V30 17527 H 1649.09 -0.218471 -4.23437 0
M  V30 17528 C 1647.55 0.893588 -3.24833 0
M  V30 17529 O 1648.08 1.96259 -3.50493 0
M  V30 17530 N 1646.28 0.8378 -2.78261 0
M  V30 17531 H 1645.83 -0.0323251 -2.5758 0
M  V30 17532 H 1645.79 1.69515 -2.64787 0
M  V30 17533 N 1649.56 1.24734 -0.963288 0
M  V30 17534 C 1650.97 1.7456 -0.662246 0
M  V30 17535 C 1651.32 1.78143 0.822169 0
M  V30 17536 O 1650.45 1.40794 1.64335 0
M  V30 17537 C 1651.04 3.1701 -1.19542 0
M  V30 17538 C 1649.6 3.64361 -0.944371 0
M  V30 17539 C 1648.75 2.4314 -1.33335 0
M  V30 17540 H 1651.7 1.10498 -1.13911 0
M  V30 17541 H 1651.72 3.76362 -0.559601 0
M  V30 17542 H 1651.23 3.1437 -2.27581 0
M  V30 17543 H 1649.33 3.72405 0.120682 0
M  V30 17544 H 1649.45 4.52055 -1.58692 0
M  V30 17545 H 1647.81 2.43354 -0.751729 0
M  V30 17546 H 1648.59 2.43185 -2.42314 0
M  V30 17547 N 1651.04 0.732878 1.39523 0
M  V30 17548 C 1651.97 0.0519358 2.29141 0
M  V30 17549 C 1652.98 -0.705687 1.4671 0
M  V30 17550 O 1654.17 -0.550202 1.69809 0
M  V30 17551 C 1651.27 -0.950691 3.25292 0
M  V30 17552 C 1650.44 -0.255028 4.36656 0
M  V30 17553 C 1649.5 -1.16546 5.13131 0
M  V30 17554 O 1648.53 -0.643742 5.65548 0
M  V30 17555 N 1649.73 -2.49534 5.24131 0
M  V30 17556 H 1652.5 0.8215 2.88221 0
M  V30 17557 H 1650.06 0.581924 1.5108 0
M  V30 17558 H 1652.05 -1.56232 3.73328 0
M  V30 17559 H 1650.62 -1.62148 2.67258 0
M  V30 17560 H 1649.84 0.537045 3.90525 0
M  V30 17561 H 1651.13 0.227162 5.08293 0
M  V30 17562 H 1650.53 -2.944 4.83058 0
M  V30 17563 H 1649.08 -3.05798 5.75613 0
M  V30 17564 N 1652.52 -1.50101 0.480349 0
M  V30 17565 C 1653.46 -2.30347 -0.322924 0
M  V30 17566 C 1654.46 -1.3804 -0.981904 0
M  V30 17567 O 1655.66 -1.55188 -0.91195 0
M  V30 17568 H 1652.04 -0.741875 -0.122985 0
M  V30 17569 H 1654.01 -2.96045 0.374155 0
M  V30 17570 C 1652.76 -3.18844 -1.38686 0
M  V30 17571 H 1652.08 -3.89787 -0.889181 0
M  V30 17572 H 1653.52 -3.77971 -1.9213 0
M  V30 17573 C 1651.98 -2.37058 -2.39385 0
M  V30 17574 O 1652.51 -2.06016 -3.44848 0
M  V30 17575 N 1650.72 -1.99465 -2.11334 0
M  V30 17576 H 1650.26 -2.24909 -1.25593 0
M  V30 17577 H 1650.22 -1.45048 -2.78942 0
M  V30 17578 N 1653.99 -0.213323 -1.5615 0
M  V30 17579 C 1654.96 0.686579 -2.18675 0
M  V30 17580 C 1655.96 1.1277 -1.14628 0
M  V30 17581 O 1657.15 1.03783 -1.39909 0
M  V30 17582 C 1654.28 1.93954 -2.80347 0
M  V30 17583 H 1655.47 0.141578 -2.99566 0
M  V30 17584 H 1653.02 0.0362987 -1.56258 0
M  V30 17585 H 1653.76 2.52661 -2.03304 0
M  V30 17586 H 1653.54 1.63179 -3.56532 0
M  V30 17587 H 1655.03 2.58087 -3.283 0
M  V30 17588 N 1655.47 1.57485 0.0601405 0
M  V30 17589 C 1656.44 2.03493 1.05467 0
M  V30 17590 C 1657.44 0.933816 1.30907 0
M  V30 17591 O 1658.63 1.19837 1.26431 0
M  V30 17592 C 1655.76 2.42549 2.39547 0
M  V30 17593 H 1656.95 2.92595 0.657893 0
M  V30 17594 H 1654.5 1.53272 0.306183 0
M  V30 17595 H 1655.24 1.56509 2.84034 0
M  V30 17596 H 1655.02 3.22911 2.22421 0
M  V30 17597 H 1656.51 2.7868 3.1101 0
M  V30 17598 N 1656.95 -0.331789 1.54068 0
M  V30 17599 C 1658.18 -1.09484 1.76148 0
M  V30 17600 C 1658.6 -1.81201 0.504772 0
M  V30 17601 O 1657.96 -1.7297 -0.54325 0
M  V30 17602 C 1658.01 -2.07495 2.94921 0
M  V30 17603 O 1657.11 -3.15239 2.65891 0
M  V30 17604 H 1656.45 -0.316071 0.583948 0
M  V30 17605 H 1658.98 -0.378593 2.01067 0
M  V30 17606 H 1658.99 -2.5051 3.22038 0
M  V30 17607 H 1657.67 -1.54696 3.8606 0
M  V30 17608 H 1656.24 -2.76958 2.49697 0
M  V30 17609 N 1658.43 -1.46001 -0.593424 0
M  V30 17610 C 1659.84 -1.30719 -0.915678 0
M  V30 17611 C 1660.04 -0.270679 -1.99674 0
M  V30 17612 O 1659.1 0.330482 -2.50328 0
M  V30 17613 C 1660.41 -2.69034 -1.34318 0
M  V30 17614 C 1661.96 -2.77041 -1.45662 0
M  V30 17615 C 1662.44 -4.15913 -1.91783 0
M  V30 17616 N 1663.93 -4.18277 -1.98994 0
M  V30 17617 C 1664.66 -5.22612 -2.35932 0
M  V30 17618 N 1664.16 -6.37283 -2.71738 0
M  V30 17619 N 1665.95 -5.09975 -2.36394 0
M  V30 17620 H 1658.1 -2.12056 0.120882 0
M  V30 17621 H 1660.37 -0.947961 -0.00858574 0
M  V30 17622 H 1660.07 -3.4614 -0.622922 0
M  V30 17623 H 1659.95 -2.98434 -2.30688 0
M  V30 17624 H 1662.33 -2.0023 -2.16776 0
M  V30 17625 H 1662.41 -2.51338 -0.475706 0
M  V30 17626 H 1662.06 -4.93215 -1.2125 0
M  V30 17627 H 1661.99 -4.39016 -2.90813 0
M  V30 17628 H 1664.48 -3.35534 -1.73855 0
M  V30 17629 H 1664.79 -7.12679 -2.98846 0
M  V30 17630 H 1663.14 -6.40662 -2.69401 0
M  V30 17631 H 1666.33 -4.1943 -2.07836 0
M  V30 17632 H 1666.5 -5.91402 -2.64854 0
M  V30 17633 N 1659.91 0.83715 -1.33527 0
M  V30 17634 C 1661.32 1.12809 -1.12899 0
M  V30 17635 C 1661.52 2.01345 0.0789761 0
M  V30 17636 O 1660.58 2.40831 0.758732 0
M  V30 17637 C 1661.89 1.78852 -2.41728 0
M  V30 17638 C 1663.44 1.91411 -2.47651 0
M  V30 17639 C 1663.91 2.6087 -3.76445 0
M  V30 17640 N 1665.41 2.68381 -3.77526 0
M  V30 17641 C 1666.14 3.22819 -4.73894 0
M  V30 17642 N 1665.64 3.77931 -5.80638 0
M  V30 17643 N 1667.43 3.21087 -4.61367 0
M  V30 17644 H 1659.58 0.247942 -2.10948 0
M  V30 17645 H 1661.84 0.172518 -0.93217 0
M  V30 17646 H 1661.55 1.21258 -3.30135 0
M  V30 17647 H 1661.42 2.78856 -2.54006 0
M  V30 17648 H 1663.81 2.48159 -1.59691 0
M  V30 17649 H 1663.89 0.903512 -2.39312 0
M  V30 17650 H 1663.54 2.0478 -4.64787 0
M  V30 17651 H 1663.47 3.62404 -3.82061 0
M  V30 17652 H 1665.96 2.29301 -3.00382 0
M  V30 17653 H 1666.27 4.17678 -6.50204 0
M  V30 17654 H 1664.61 3.76214 -5.8437 0
M  V30 17655 H 1667.81 2.7729 -3.77131 0
M  V30 17656 H 1667.98 3.6321 -5.3664 0
M  V30 17657 N 1661.38 1.17024 1.05561 0
M  V30 17658 C 1662.61 0.98075 1.82178 0
M  V30 17659 C 1663.03 -0.471027 1.8283 0
M  V30 17660 O 1662.38 -1.32703 1.25284 0
M  V30 17661 C 1662.44 1.50979 3.28463 0
M  V30 17662 O 1662.16 2.90471 3.27961 0
M  V30 17663 C 1663.66 1.36436 4.21782 0
M  V30 17664 H 1660.88 0.3472 0.574189 0
M  V30 17665 H 1663.42 1.55226 1.33136 0
M  V30 17666 H 1661.58 0.980393 3.74789 0
M  V30 17667 H 1661.99 3.14847 4.19489 0
M  V30 17668 H 1663.46 1.78272 5.2242 0
M  V30 17669 H 1663.94 0.310922 4.38098 0
M  V30 17670 H 1664.55 1.88374 3.81308 0
M  V30 17671 N 1662.86 -1.24221 0.969889 0
M  V30 17672 C 1664.27 -1.74206 0.671494 0
M  V30 17673 C 1664.62 -1.78576 -0.81271 0
M  V30 17674 O 1663.75 -1.41664 -1.63586 0
M  V30 17675 C 1664.34 -3.16371 1.21222 0
M  V30 17676 C 1662.9 -3.63855 0.96368 0
M  V30 17677 C 1662.05 -2.42429 1.34623 0
M  V30 17678 H 1665 -1.09893 1.14496 0
M  V30 17679 H 1665.02 -3.7606 0.579552 0
M  V30 17680 H 1664.53 -3.13159 2.29245 0
M  V30 17681 H 1662.64 -3.72463 -0.100931 0
M  V30 17682 H 1662.75 -4.51207 1.61087 0
M  V30 17683 H 1661.11 -2.42952 0.764624 0
M  V30 17684 H 1661.9 -2.41896 2.436 0
M  V30 17685 N 1664.34 -0.740267 -1.39132 0
M  V30 17686 C 1665.29 -0.0929334 -2.32414 0
M  V30 17687 C 1666.28 0.720062 -1.53334 0
M  V30 17688 O 1667.49 0.620656 -1.68961 0
M  V30 17689 H 1663.86 -0.0112531 -0.751916 0
M  V30 17690 H 1665.83 -0.895975 -2.84631 0
M  V30 17691 C 1664.58 0.796182 -3.38462 0
M  V30 17692 H 1663.91 0.17999 -3.99395 0
M  V30 17693 H 1665.35 1.21664 -4.0617 0
M  V30 17694 C 1663.81 1.93285 -2.75939 0
M  V30 17695 O 1664.34 3.02593 -2.64198 0
M  V30 17696 N 1662.54 1.72386 -2.33948 0
M  V30 17697 H 1662.09 0.834821 -2.43698 0
M  V30 17698 H 1662.05 2.48612 -1.92456 0
M  V30 17699 N 1665.82 1.49844 -0.488302 0
M  V30 17700 C 1666.77 2.30515 0.310703 0
M  V30 17701 C 1667.76 1.38559 0.974569 0
M  V30 17702 O 1668.97 1.5567 0.903708 0
M  V30 17703 H 1665.34 0.742517 0.119049 0
M  V30 17704 H 1667.31 2.95842 -0.389849 0
M  V30 17705 C 1666.06 3.19575 1.36994 0
M  V30 17706 H 1665.38 3.90253 0.868497 0
M  V30 17707 H 1666.82 3.78984 1.90123 0
M  V30 17708 C 1665.28 2.38324 2.38124 0
M  V30 17709 O 1665.81 2.07842 3.43751 0
M  V30 17710 N 1664.02 2.00583 2.10273 0
M  V30 17711 H 1663.57 2.25572 1.24399 0
M  V30 17712 H 1663.52 1.46525 2.78169 0
M  V30 17713 N 1667.3 0.221601 1.56034 0
M  V30 17714 C 1668.71 -0.28624 1.84493 0
M  V30 17715 C 1669.06 -1.59469 1.14298 0
M  V30 17716 O 1668.18 -2.12429 0.412672 0
M  V30 17717 C 1668.78 -0.526128 3.3469 0
M  V30 17718 C 1667.34 -0.978278 3.63465 0
M  V30 17719 C 1666.48 -0.0413786 2.77269 0
M  V30 17720 H 1669.44 0.444792 1.52339 0
M  V30 17721 H 1669.46 -1.37212 3.54899 0
M  V30 17722 H 1668.97 0.426348 3.85751 0
M  V30 17723 H 1667.07 -1.94411 3.1786 0
M  V30 17724 H 1667.18 -0.852651 4.71452 0
M  V30 17725 H 1665.55 -0.548179 2.48731 0
M  V30 17726 H 1666.33 0.906016 3.31129 0
M  V30 17727 N 1668.77 -1.57515 -0.0517878 0
M  V30 17728 C 1670.02 -1.87843 -0.745624 0
M  V30 17729 C 1670.34 -0.816318 -1.77091 0
M  V30 17730 O 1669.61 0.152784 -1.95303 0
M  V30 17731 H 1668.19 -0.693194 -0.278372 0
M  V30 17732 H 1670.86 -1.94886 -0.0231267 0
M  V30 17733 H 1669.95 -2.86001 -1.2494 0
M  V30 17734 N 1670.25 0.323614 -1.54242 0
M  V30 17735 C 1671.2 1.4184 -1.84348 0
M  V30 17736 C 1672.2 1.53553 -0.715384 0
M  V30 17737 O 1673.4 1.5594 -0.899045 0
M  V30 17738 H 1669.78 0.473326 -0.584352 0
M  V30 17739 H 1671.75 1.13672 -2.75901 0
M  V30 17740 C 1670.5 2.78059 -2.08755 0
M  V30 17741 H 1669.82 2.69819 -2.95021 0
M  V30 17742 H 1671.26 3.53731 -2.33774 0
M  V30 17743 C 1669.72 3.25229 -0.879076 0
M  V30 17744 O 1670.25 4.01603 -0.0883125 0
M  V30 17745 N 1668.45 2.82272 -0.690726 0
M  V30 17746 H 1668 2.20283 -1.33542 0
M  V30 17747 H 1667.96 3.14185 0.116344 0
M  V30 17748 N 1671.73 1.46313 0.585673 0
M  V30 17749 C 1673.14 1.4567 1.16778 0
M  V30 17750 C 1673.49 0.195957 1.95219 0
M  V30 17751 O 1672.62 -0.701142 2.04727 0
M  V30 17752 C 1673.21 2.6392 2.12443 0
M  V30 17753 C 1671.77 2.66327 2.65983 0
M  V30 17754 C 1670.92 2.38304 1.41797 0
M  V30 17755 H 1673.87 1.54236 0.37377 0
M  V30 17756 H 1673.89 2.39268 2.95856 0
M  V30 17757 H 1673.4 3.55663 1.55324 0
M  V30 17758 H 1671.5 1.78648 3.2698 0
M  V30 17759 H 1671.62 3.66203 3.08921 0
M  V30 17760 H 1669.98 1.88302 1.71507 0
M  V30 17761 H 1670.76 3.3222 0.86514 0
M  V30 17762 N 1673.21 -0.830057 1.33969 0
M  V30 17763 C 1674.43 -1.62294 1.29133 0
M  V30 17764 C 1674.86 -1.87627 -0.133253 0
M  V30 17765 O 1674.22 -1.44669 -1.09272 0
M  V30 17766 C 1674.27 -2.94508 2.0808 0
M  V30 17767 O 1673.37 -3.86239 1.44544 0
M  V30 17768 H 1672.71 -0.493865 0.443839 0
M  V30 17769 H 1675.24 -1.03202 1.76665 0
M  V30 17770 H 1675.25 -3.44133 2.19173 0
M  V30 17771 H 1673.93 -2.75392 3.1166 0
M  V30 17772 H 1672.5 -3.44743 1.42151 0
M  V30 17773 N 1674.69 -1.17582 -1.04939 0
M  V30 17774 C 1675.64 -0.891102 -2.14854 0
M  V30 17775 C 1676.63 0.145242 -1.68776 0
M  V30 17776 O 1677.84 -0.00207978 -1.8 0
M  V30 17777 H 1674.21 -0.270641 -0.701611 0
M  V30 17778 H 1676.18 -1.82519 -2.36071 0
M  V30 17779 C 1674.93 -0.423679 -3.45109 0
M  V30 17780 H 1674.25 -1.2126 -3.80967 0
M  V30 17781 H 1675.69 -0.263369 -4.23181 0
M  V30 17782 C 1674.15 0.859085 -3.25763 0
M  V30 17783 O 1674.68 1.9253 -3.52555 0
M  V30 17784 N 1672.89 0.80824 -2.79134 0
M  V30 17785 H 1672.44 -0.0596431 -2.57531 0
M  V30 17786 H 1672.39 1.66697 -2.6657 0
M  V30 17787 N 1676.17 1.23705 -0.976463 0
M  V30 17788 C 1677.58 1.73848 -0.680723 0
M  V30 17789 C 1677.93 1.79005 0.803228 0
M  V30 17790 O 1677.05 1.42529 1.62832 0
M  V30 17791 C 1677.65 3.15724 -1.22898 0
M  V30 17792 C 1676.21 3.63338 -0.982963 0
M  V30 17793 C 1675.35 2.41712 -1.35906 0
M  V30 17794 H 1678.3 1.09284 -1.15077 0
M  V30 17795 H 1678.33 3.75748 -0.599487 0
M  V30 17796 H 1677.84 3.11938 -2.30903 0
M  V30 17797 H 1675.94 3.72512 0.0811766 0
M  V30 17798 H 1676.05 4.50347 -1.63477 0
M  V30 17799 H 1674.42 2.42543 -0.777498 0
M  V30 17800 H 1675.2 2.40601 -2.4488 0
M  V30 17801 N 1677.64 0.747635 1.38738 0
M  V30 17802 C 1678.89 0.300552 1.99853 0
M  V30 17803 C 1679.21 -1.11986 1.59638 0
M  V30 17804 O 1678.48 -1.76477 0.850447 0
M  V30 17805 H 1677.06 0.108134 0.739132 0
M  V30 17806 H 1679.72 0.960405 1.69594 0
M  V30 17807 H 1678.82 0.358956 3.10029 0
M  V30 17808 N 1679.12 -1.49583 0.496242 0
M  V30 17809 C 1680.53 -1.8664 0.0472756 0
M  V30 17810 C 1680.88 -1.40898 -1.36536 0
M  V30 17811 O 1680.01 -0.784796 -2.01668 0
M  V30 17812 C 1680.6 -3.38708 0.079016 0
M  V30 17813 C 1679.16 -3.75083 -0.314587 0
M  V30 17814 C 1678.31 -2.73565 0.453624 0
M  V30 17815 H 1681.26 -1.41969 0.709269 0
M  V30 17816 H 1681.28 -3.73676 -0.717396 0
M  V30 17817 H 1680.79 -3.71969 1.10727 0
M  V30 17818 H 1678.89 -3.47429 -1.34625 0
M  V30 17819 H 1679.01 -4.791 0.00155427 0
M  V30 17820 H 1677.37 -2.54519 -0.095937 0
M  V30 17821 H 1678.15 -3.0967 1.48186 0
M  V30 17822 N 1680.6 -0.229873 -1.55915 0
M  V30 17823 C 1682.01 0.276452 -1.84642 0
M  V30 17824 C 1682.36 1.58861 -1.15142 0
M  V30 17825 O 1681.49 2.12207 -0.423932 0
M  V30 17826 C 1682.08 0.508371 -3.34964 0
M  V30 17827 C 1680.64 0.958989 -3.63979 0
M  V30 17828 C 1679.79 0.0266738 -2.77287 0
M  V30 17829 H 1682.74 -0.452864 -1.52101 0
M  V30 17830 H 1682.76 1.35328 -3.55621 0
M  V30 17831 H 1682.27 -0.4468 -3.8552 0
M  V30 17832 H 1680.37 1.92722 -3.18887 0
M  V30 17833 H 1680.49 0.827637 -4.71897 0
M  V30 17834 H 1678.85 0.53498 -2.49018 0
M  V30 17835 H 1679.63 -0.923563 -3.30644 0
M  V30 17836 N 1682.08 1.5754 0.0434337 0
M  V30 17837 C 1683.02 2.0561 1.04848 0
M  V30 17838 C 1683.99 0.942299 1.36784 0
M  V30 17839 O 1685.18 1.21191 1.47368 0
M  V30 17840 C 1682.32 2.52844 2.3487 0
M  V30 17841 C 1681.43 3.77958 2.09218 0
M  V30 17842 C 1680.57 4.13859 3.33007 0
M  V30 17843 C 1679.61 5.31932 3.02845 0
M  V30 17844 N 1678.74 5.63335 4.19045 0
M  V30 17845 H 1683.58 2.9123 0.631591 0
M  V30 17846 H 1681.12 1.44003 0.300258 0
M  V30 17847 H 1683.08 2.78291 3.10822 0
M  V30 17848 H 1681.71 1.70161 2.74308 0
M  V30 17849 H 1680.76 3.59681 1.23828 0
M  V30 17850 H 1682.07 4.64034 1.82958 0
M  V30 17851 H 1681.23 4.40358 4.17336 0
M  V30 17852 H 1679.97 3.26406 3.62368 0
M  V30 17853 H 1678.97 5.052 2.16916 0
M  V30 17854 H 1680.2 6.21027 2.74777 0
M  V30 17855 H 1678.14 4.7884 4.48384 0
M  V30 17856 H 1678.06 6.4389 3.96158 0
M  V30 17857 H 1679.33 5.94402 5.04289 0
M  V30 17858 N 1683.56 -0.31543 1.54411 0
M  V30 17859 C 1684.78 -1.07173 1.76979 0
M  V30 17860 C 1685.2 -1.81432 0.522285 0
M  V30 17861 O 1684.56 -1.75306 -0.507348 0
M  V30 17862 C 1684.61 -2.06352 2.96818 0
M  V30 17863 O 1684.33 -1.35108 4.16746 0
M  V30 17864 C 1685.83 -2.94136 3.31661 0
M  V30 17865 H 1683.05 -0.318455 0.590616 0
M  V30 17866 H 1685.59 -0.359085 2.01323 0
M  V30 17867 H 1683.75 -2.7314 2.74724 0
M  V30 17868 H 1684.16 -2.01593 4.84211 0
M  V30 17869 H 1685.64 -3.59606 4.18793 0
M  V30 17870 H 1686.11 -3.6167 2.49182 0
M  V30 17871 H 1686.72 -2.32899 3.55863 0
M  V30 17872 N 1685.03 -1.46622 -0.577906 0
M  V30 17873 C 1686.45 -1.46287 -1.16004 0
M  V30 17874 C 1686.8 -0.206307 -1.95112 0
M  V30 17875 O 1685.92 0.690275 -2.05096 0
M  V30 17876 C 1686.52 -2.65042 -2.1104 0
M  V30 17877 C 1685.08 -2.67733 -2.64567 0
M  V30 17878 C 1684.22 -2.39053 -1.40531 0
M  V30 17879 H 1687.17 -1.54432 -0.365585 0
M  V30 17880 H 1687.19 -2.40834 -2.94583 0
M  V30 17881 H 1686.71 -3.56481 -1.53436 0
M  V30 17882 H 1684.81 -1.80379 -3.26028 0
M  V30 17883 H 1684.92 -3.67836 -3.06974 0
M  V30 17884 H 1683.28 -1.89209 -1.70506 0
M  V30 17885 H 1684.07 -3.32674 -0.847509 0
M  V30 17886 N 1686.51 0.822941 -1.34408 0
M  V30 17887 C 1687.42 1.96567 -1.28056 0
M  V30 17888 C 1688.44 1.72979 -0.188251 0
M  V30 17889 O 1689.61 1.97084 -0.41472 0
M  V30 17890 C 1686.68 3.30865 -1.03583 0
M  V30 17891 C 1685.74 3.67461 -2.2197 0
M  V30 17892 C 1684.97 4.9535 -1.98655 0
M  V30 17893 O 1685.2 5.62521 -0.944785 0
M  V30 17894 O 1684.13 5.29824 -2.85605 0
M  V30 17895 H 1687.96 2.0487 -2.24192 0
M  V30 17896 H 1685.54 0.958334 -1.14614 0
M  V30 17897 H 1687.42 4.11298 -0.917162 0
M  V30 17898 H 1686.1 3.2353 -0.104868 0
M  V30 17899 H 1685.01 2.87472 -2.39396 0
M  V30 17900 H 1686.34 3.79481 -3.13456 0
M  V30 17901 N 1687.99 1.18137 1.04314 0
M  V30 17902 C 1688.94 0.902484 2.14378 0
M  V30 17903 C 1689.93 -0.136289 1.68851 0
M  V30 17904 O 1691.14 0.0116256 1.79996 0
M  V30 17905 H 1687.51 0.274358 0.700165 0
M  V30 17906 H 1689.48 1.83768 2.35099 0
M  V30 17907 C 1688.23 0.441975 3.4488 0
M  V30 17908 H 1687.56 1.23279 3.80319 0
M  V30 17909 H 1689 0.285808 4.23036 0
M  V30 17910 C 1687.46 -0.841797 3.26214 0
M  V30 17911 O 1687.99 -1.90658 3.53571 0
M  V30 17912 N 1686.19 -0.793425 2.79559 0
M  V30 17913 H 1685.74 0.0732997 2.57496 0
M  V30 17914 H 1685.7 -1.65281 2.6745 0
M  V30 17915 N 1689.47 -1.23186 0.98301 0
M  V30 17916 C 1690.69 -1.96242 0.671114 0
M  V30 17917 C 1691.12 -1.72248 -0.755792 0
M  V30 17918 O 1690.48 -0.995555 -1.5152 0
M  V30 17919 C 1690.52 -3.47293 0.970571 0
M  V30 17920 O 1689.63 -4.1235 0.0639814 0
M  V30 17921 H 1688.97 -0.614262 0.252147 0
M  V30 17922 H 1691.5 -1.56551 1.31731 0
M  V30 17923 H 1691.51 -3.9776 0.908345 0
M  V30 17924 H 1690.18 -3.64083 2.01039 0
M  V30 17925 H 1688.76 -3.72461 0.180842 0
M  V30 17926 N 1690.95 -0.754982 -1.38339 0
M  V30 17927 C 1691.88 -0.143678 -2.33058 0
M  V30 17928 C 1692.86 0.702022 -1.54938 0
M  V30 17929 O 1694.04 0.642922 -1.83249 0
M  V30 17930 C 1691.17 0.749194 -3.39123 0
M  V30 17931 C 1690.13 0.00611459 -4.28 0
M  V30 17932 C 1689.45 1.01733 -5.24933 0
M  V30 17933 C 1690.75 -1.1631 -5.09185 0
M  V30 17934 H 1692.45 -0.934907 -2.84429 0
M  V30 17935 H 1689.99 -0.451023 -1.36754 0
M  V30 17936 H 1691.95 1.18653 -4.04351 0
M  V30 17937 H 1690.67 1.57276 -2.86237 0
M  V30 17938 H 1689.33 -0.411816 -3.6428 0
M  V30 17939 H 1688.98 1.83499 -4.68334 0
M  V30 17940 H 1688.68 0.524783 -5.85252 0
M  V30 17941 H 1690.2 1.45395 -5.93037 0
M  V30 17942 H 1691.61 -0.803244 -5.67645 0
M  V30 17943 H 1690.01 -1.5866 -5.78746 0
M  V30 17944 H 1691.08 -1.97533 -4.42842 0
M  V30 17945 N 1692.42 1.49318 -0.504168 0
M  V30 17946 C 1693.67 2.01658 0.0410881 0
M  V30 17947 C 1693.99 1.38866 1.37752 0
M  V30 17948 O 1695.19 1.82552 2.00965 0
M  V30 17949 C 1693.65 3.59687 0.123682 0
M  V30 17950 C 1693.26 4.31454 -1.2063 0
M  V30 17951 C 1695 4.19961 0.619134 0
M  V30 17952 C 1692.91 5.81349 -1.0857 0
M  V30 17953 H 1691.84 0.753757 0.0191287 0
M  V30 17954 H 1694.49 1.71826 -0.644066 0
M  V30 17955 H 1692.87 3.86249 0.873355 0
M  V30 17956 H 1694.04 4.1659 -1.96951 0
M  V30 17957 H 1692.36 3.82939 -1.63544 0
M  V30 17958 H 1694.96 5.29736 0.726925 0
M  V30 17959 H 1695.3 3.83539 1.61874 0
M  V30 17960 H 1695.83 3.97731 -0.0740966 0
M  V30 17961 H 1692.57 6.22301 -2.05967 0
M  V30 17962 H 1692.09 5.98698 -0.363422 0
M  V30 17963 H 1693.77 6.42453 -0.765722 0
M  V30 17964 N 1693.9 0.238138 1.5579 0
M  V30 17965 C 1695.15 -0.389608 1.99022 0
M  V30 17966 C 1695.48 -1.58226 1.12597 0
M  V30 17967 O 1694.76 -1.93595 0.187363 0
M  V30 17968 C 1695.04 -0.808025 3.50917 0
M  V30 17969 C 1694.89 0.389417 4.48111 0
M  V30 17970 C 1696.21 -1.6582 4.07666 0
M  V30 17971 H 1693.33 -0.140141 0.723553 0
M  V30 17972 H 1695.97 0.337696 1.86975 0
M  V30 17973 H 1694.12 -1.42772 3.61315 0
M  V30 17974 H 1695.79 1.02777 4.49705 0
M  V30 17975 H 1694.04 1.03404 4.21296 0
M  V30 17976 H 1694.71 0.0534549 5.51974 0
M  V30 17977 H 1697.18 -1.13518 4.00316 0
M  V30 17978 H 1696.06 -1.91984 5.14231 0
M  V30 17979 H 1696.32 -2.62712 3.55577 0
M  V30 17980 N 1695.38 -1.57561 -0.0350783 0
M  V30 17981 C 1696.61 -1.93251 -0.73903 0
M  V30 17982 C 1697.02 -0.83739 -1.69214 0
M  V30 17983 O 1696.38 0.186669 -1.81543 0
M  V30 17984 C 1696.43 -3.28853 -1.50127 0
M  V30 17985 O 1696.15 -4.34157 -0.586426 0
M  V30 17986 C 1697.65 -3.78788 -2.30292 0
M  V30 17987 H 1694.87 -0.63793 -0.208053 0
M  V30 17988 H 1697.42 -2.04499 0.00560398 0
M  V30 17989 H 1695.57 -3.1902 -2.19784 0
M  V30 17990 H 1695.99 -5.12395 -1.12034 0
M  V30 17991 H 1697.46 -4.76197 -2.79178 0
M  V30 17992 H 1697.94 -3.09671 -3.11449 0
M  V30 17993 H 1698.54 -3.91684 -1.65721 0
M  V30 17994 N 1696.86 0.307236 -1.54576 0
M  V30 17995 C 1697.81 1.39877 -1.85842 0
M  V30 17996 C 1698.8 1.52786 -0.73163 0
M  V30 17997 O 1700.01 1.54977 -0.915534 0
M  V30 17998 H 1696.38 0.467101 -0.589339 0
M  V30 17999 H 1698.35 1.10739 -2.77091 0
M  V30 18000 C 1697.1 2.75829 -2.11692 0
M  V30 18001 H 1696.42 2.66675 -2.97867 0
M  V30 18002 H 1697.86 3.51232 -2.37513 0
M  V30 18003 C 1696.32 3.24278 -0.913522 0
M  V30 18004 O 1696.85 4.01487 -0.130903 0
M  V30 18005 N 1695.06 2.81523 -0.720625 0
M  V30 18006 H 1694.61 2.18854 -1.3587 0
M  V30 18007 H 1694.56 3.1429 0.083014 0
M  V30 18008 N 1698.34 1.46926 0.570122 0
M  V30 18009 C 1699.75 1.469 1.15227 0
M  V30 18010 C 1700.1 0.216651 1.95 0
M  V30 18011 O 1699.22 -0.679388 2.05459 0
M  V30 18012 C 1699.82 2.66158 2.09632 0
M  V30 18013 C 1698.38 2.69133 2.63144 0
M  V30 18014 C 1697.52 2.39795 1.39262 0
M  V30 18015 H 1700.48 1.54623 0.35739 0
M  V30 18016 H 1700.5 2.42393 2.93302 0
M  V30 18017 H 1700.01 3.5729 1.51543 0
M  V30 18018 H 1698.11 1.82106 3.25066 0
M  V30 18019 H 1698.22 3.69459 3.05019 0
M  V30 18020 H 1696.59 1.9011 1.695 0
M  V30 18021 H 1697.37 3.33119 0.829855 0
M  V30 18022 N 1699.82 -0.815801 1.34842 0
M  V30 18023 C 1701.04 -1.60915 1.30848 0
M  V30 18024 C 1701.47 -1.87758 -0.113345 0
M  V30 18025 O 1700.82 -1.4582 -1.07732 0
M  V30 18026 C 1700.87 -2.92284 2.11192 0
M  V30 18027 O 1699.98 -3.84685 1.48632 0
M  V30 18028 H 1699.32 -0.48913 0.449052 0
M  V30 18029 H 1701.85 -1.01322 1.7775 0
M  V30 18030 H 1701.86 -3.41789 2.2281 0
M  V30 18031 H 1700.53 -2.72071 3.14563 0
M  V30 18032 H 1699.11 -3.43215 1.458 0
M  V30 18033 N 1701.29 -1.18689 -1.03686 0
M  V30 18034 C 1702.54 -0.982656 -1.76602 0
M  V30 18035 C 1702.86 0.488553 -1.88781 0
M  V30 18036 O 1702.13 1.35419 -1.41558 0
M  V30 18037 H 1700.71 -0.360595 -0.654202 0
M  V30 18038 H 1703.37 -1.49439 -1.25115 0
M  V30 18039 H 1702.47 -1.42392 -2.77725 0
M  V30 18040 N 1702.77 1.22662 -0.989529 0
M  V30 18041 C 1704 1.95343 -0.681822 0
M  V30 18042 C 1704.41 1.73139 0.752889 0
M  V30 18043 O 1703.77 1.02838 1.50766 0
M  V30 18044 C 1703.82 3.4813 -0.974049 0
M  V30 18045 O 1703.54 3.69587 -2.35238 0
M  V30 18046 C 1705.04 4.37998 -0.683571 0
M  V30 18047 H 1702.26 0.621675 -0.252509 0
M  V30 18048 H 1704.81 1.55906 -1.32339 0
M  V30 18049 H 1702.96 3.85548 -0.378344 0
M  V30 18050 H 1703.38 4.63812 -2.44906 0
M  V30 18051 H 1704.85 5.43966 -0.938338 0
M  V30 18052 H 1705.33 4.37532 0.382417 0
M  V30 18053 H 1705.93 4.06202 -1.26017 0
M  V30 18054 N 1704.25 0.762308 1.37937 0
M  V30 18055 C 1705.18 0.100528 2.28979 0
M  V30 18056 C 1706.19 -0.674409 1.48174 0
M  V30 18057 O 1707.38 -0.514059 1.70938 0
M  V30 18058 C 1704.48 -0.881478 3.27236 0
M  V30 18059 C 1703.66 -0.162349 4.37099 0
M  V30 18060 C 1702.72 -1.05636 5.15488 0
M  V30 18061 O 1701.74 -0.523636 5.66786 0
M  V30 18062 N 1702.94 -2.3836 5.29306 0
M  V30 18063 H 1705.71 0.882451 2.86414 0
M  V30 18064 H 1703.27 0.613839 1.49812 0
M  V30 18065 H 1705.26 -1.48278 3.76558 0
M  V30 18066 H 1703.83 -1.56443 2.70637 0
M  V30 18067 H 1703.05 0.61976 3.89298 0
M  V30 18068 H 1704.34 0.334928 5.07696 0
M  V30 18069 H 1703.74 -2.84087 4.89194 0
M  V30 18070 H 1702.29 -2.9352 5.8197 0
M  V30 18071 N 1705.73 -1.49049 0.51208 0
M  V30 18072 C 1706.96 -2.06885 -0.0249703 0
M  V30 18073 C 1707.37 -1.371 -1.29804 0
M  V30 18074 O 1706.73 -0.452798 -1.76794 0
M  V30 18075 C 1706.78 -3.60482 -0.27112 0
M  V30 18076 O 1706.5 -4.27643 0.951493 0
M  V30 18077 C 1708 -4.35063 -0.850568 0
M  V30 18078 H 1705.22 -0.670517 0.0254456 0
M  V30 18079 H 1707.76 -1.91682 0.712607 0
M  V30 18080 H 1705.92 -3.7535 -0.958702 0
M  V30 18081 H 1706.33 -5.19519 0.721156 0
M  V30 18082 H 1707.81 -5.43369 -0.972322 0
M  V30 18083 H 1708.28 -3.98285 -1.85111 0
M  V30 18084 H 1708.89 -4.24829 -0.200111 0
M  V30 18085 N 1707.21 -0.246397 -1.55662 0
M  V30 18086 C 1708.15 0.66961 -2.22753 0
M  V30 18087 C 1709.15 1.18048 -1.21495 0
M  V30 18088 O 1710.35 1.13743 -1.39508 0
M  V30 18089 H 1706.73 0.234421 -0.714529 0
M  V30 18090 H 1708.7 0.0805962 -2.98291 0
M  V30 18091 C 1707.45 1.8558 -2.94033 0
M  V30 18092 H 1706.77 1.47184 -3.71721 0
M  V30 18093 H 1708.21 2.47397 -3.44341 0
M  V30 18094 C 1706.67 2.72664 -1.97879 0
M  V30 18095 O 1707.2 3.72177 -1.51154 0
M  V30 18096 N 1705.41 2.3922 -1.64991 0
M  V30 18097 H 1704.95 1.58348 -2.03184 0
M  V30 18098 H 1704.91 2.97762 -1.00922 0
M  V30 18099 N 1708.68 1.57577 0.026722 0
M  V30 18100 C 1709.91 1.94035 0.732473 0
M  V30 18101 C 1710.33 0.846575 1.67972 0
M  V30 18102 O 1709.69 -0.197514 1.80221 0
M  V30 18103 C 1709.74 3.2956 1.46365 0
M  V30 18104 O 1708.84 3.21975 2.57694 0
M  V30 18105 H 1708.18 0.634155 0.196832 0
M  V30 18106 H 1710.71 2.04592 -0.018503 0
M  V30 18107 H 1710.72 3.64504 1.83305 0
M  V30 18108 H 1709.4 4.0873 0.768943 0
M  V30 18109 H 1707.98 2.98665 2.23279 0
M  V30 18110 N 1710.16 -0.299034 1.54737 0
M  V30 18111 C 1711.12 -1.35199 1.85078 0
M  V30 18112 C 1712.12 -1.4359 0.723788 0
M  V30 18113 O 1713.31 -1.43191 0.992067 0
M  V30 18114 C 1710.45 -2.73659 2.03282 0
M  V30 18115 H 1711.64 -1.09538 2.7918 0
M  V30 18116 H 1709.19 -0.535803 1.46829 0
M  V30 18117 H 1709.93 -3.04539 1.11475 0
M  V30 18118 H 1709.71 -2.68959 2.85313 0
M  V30 18119 H 1711.2 -3.49787 2.28119 0
M  V30 18120 N 1711.64 -1.47227 -0.562322 0
M  V30 18121 C 1712.59 -1.59329 -1.66981 0
M  V30 18122 C 1713.56 -0.436558 -1.6026 0
M  V30 18123 O 1714.74 -0.655956 -1.7917 0
M  V30 18124 C 1711.88 -1.60874 -3.05309 0
M  V30 18125 C 1710.99 -2.87428 -3.22505 0
M  V30 18126 C 1710.13 -2.80342 -4.512 0
M  V30 18127 C 1709.17 -4.01744 -4.6181 0
M  V30 18128 N 1708.31 -3.92924 -5.81855 0
M  V30 18129 H 1713.15 -2.53921 -1.55975 0
M  V30 18130 H 1710.68 -1.25953 -0.759879 0
M  V30 18131 H 1712.64 -1.59753 -3.85402 0
M  V30 18132 H 1711.27 -0.697994 -3.15163 0
M  V30 18133 H 1710.32 -2.98439 -2.35878 0
M  V30 18134 H 1711.63 -3.77345 -3.26209 0
M  V30 18135 H 1710.79 -2.77442 -5.39547 0
M  V30 18136 H 1709.53 -1.881 -4.49966 0
M  V30 18137 H 1708.53 -4.04954 -3.71877 0
M  V30 18138 H 1709.76 -4.95107 -4.64807 0
M  V30 18139 H 1707.7 -3.03481 -5.8158 0
M  V30 18140 H 1707.62 -4.76514 -5.86916 0
M  V30 18141 H 1708.89 -3.94031 -6.72577 0
M  V30 18142 N 1713.12 0.808639 -1.35273 0
M  V30 18143 C 1714.35 1.59701 -1.31541 0
M  V30 18144 C 1714.76 1.88493 0.107541 0
M  V30 18145 O 1714.12 1.4864 1.05889 0
M  V30 18146 C 1714.17 2.9295 -2.11808 0
M  V30 18147 O 1713.89 2.65407 -3.48555 0
M  V30 18148 C 1715.39 3.87318 -2.15638 0
M  V30 18149 H 1712.61 0.495961 -0.451956 0
M  V30 18150 H 1715.15 1.00507 -1.78097 0
M  V30 18151 H 1713.31 3.48663 -1.68858 0
M  V30 18152 H 1713.72 3.50471 -3.90218 0
M  V30 18153 H 1715.2 4.77933 -2.76196 0
M  V30 18154 H 1715.67 4.23752 -1.15458 0
M  V30 18155 H 1716.28 3.3754 -2.58741 0
M  V30 18156 N 1714.6 1.19237 1.03055 0
M  V30 18157 C 1715.56 0.930536 2.0946 0
M  V30 18158 C 1716.56 -0.0882907 1.60557 0
M  V30 18159 O 1717.75 0.146269 1.73585 0
M  V30 18160 C 1714.88 0.398165 3.38567 0
M  V30 18161 H 1716.07 1.87422 2.34122 0
M  V30 18162 H 1713.63 1.00579 1.19639 0
M  V30 18163 H 1714.36 -0.551646 3.19574 0
M  V30 18164 H 1714.15 1.13273 3.75382 0
M  V30 18165 H 1715.64 0.234006 4.16944 0
M  V30 18166 N 1716.07 -1.22136 0.99602 0
M  V30 18167 C 1717.49 -1.43072 0.707285 0
M  V30 18168 C 1717.69 -1.88163 -0.720906 0
M  V30 18169 O 1716.75 -2.03747 -1.49142 0
M  V30 18170 C 1718.06 -2.46963 1.71551 0
M  V30 18171 C 1719.61 -2.60758 1.73131 0
M  V30 18172 C 1720.08 -3.67873 2.72825 0
M  V30 18173 N 1721.57 -3.75334 2.71438 0
M  V30 18174 C 1722.31 -4.57817 3.45241 0
M  V30 18175 N 1721.8 -5.44268 4.28654 0
M  V30 18176 N 1723.6 -4.52157 3.33932 0
M  V30 18177 H 1715.75 -0.911751 1.91836 0
M  V30 18178 H 1718.01 -0.462523 0.827512 0
M  V30 18179 H 1717.72 -2.20784 2.73765 0
M  V30 18180 H 1717.59 -3.45618 1.51089 0
M  V30 18181 H 1719.98 -2.86279 0.716132 0
M  V30 18182 H 1720.06 -1.62367 1.97663 0
M  V30 18183 H 1719.7 -3.43098 3.74494 0
M  V30 18184 H 1719.63 -4.6584 2.45562 0
M  V30 18185 H 1722.12 -3.13566 2.10915 0
M  V30 18186 H 1722.44 -6.04236 4.81786 0
M  V30 18187 H 1720.78 -5.43839 4.3274 0
M  V30 18188 H 1723.97 -3.83645 2.68206 0
M  V30 18189 H 1724.15 -5.16207 3.91707 0
M  V30 18190 N 1717.55 -0.769612 -1.37531 0
M  V30 18191 C 1718.5 -0.152627 -2.30295 0
M  V30 18192 C 1719.47 0.692154 -1.50992 0
M  V30 18193 O 1720.65 0.64496 -1.79569 0
M  V30 18194 C 1717.79 0.72217 -3.37459 0
M  V30 18195 C 1716.91 -0.138985 -4.31776 0
M  V30 18196 C 1716.04 0.740317 -5.26016 0
M  V30 18197 C 1715.08 -0.1235 -6.11975 0
M  V30 18198 N 1714.22 0.713658 -6.98464 0
M  V30 18199 H 1719.06 -0.949218 -2.82478 0
M  V30 18200 H 1716.6 -0.479697 -1.39059 0
M  V30 18201 H 1718.55 1.24415 -3.98217 0
M  V30 18202 H 1717.18 1.48438 -2.86646 0
M  V30 18203 H 1716.24 -0.778756 -3.72343 0
M  V30 18204 H 1717.55 -0.805402 -4.92255 0
M  V30 18205 H 1716.7 1.32887 -5.91968 0
M  V30 18206 H 1715.44 1.44042 -4.65943 0
M  V30 18207 H 1714.45 -0.7246 -5.45004 0
M  V30 18208 H 1715.67 -0.820907 -6.7412 0
M  V30 18209 H 1713.62 1.39842 -6.40921 0
M  V30 18210 H 1713.53 0.104492 -7.55928 0
M  V30 18211 H 1714.8 1.28667 -7.68808 0
M  V30 18212 N 1719.03 1.48775 -0.519977 0
M  V30 18213 C 1720.44 1.86541 -0.0769625 0
M  V30 18214 C 1720.79 1.43053 1.34277 0
M  V30 18215 O 1719.92 0.816781 2.00394 0
M  V30 18216 C 1720.51 3.38539 -0.132891 0
M  V30 18217 C 1719.07 3.75536 0.254875 0
M  V30 18218 C 1718.22 2.72808 -0.497088 0
M  V30 18219 H 1721.17 1.40822 -0.731765 0
M  V30 18220 H 1721.19 3.7477 0.657856 0
M  V30 18221 H 1720.7 3.70161 -1.1663 0
M  V30 18222 H 1718.8 3.49527 1.29081 0
M  V30 18223 H 1718.92 4.79037 -0.0777747 0
M  V30 18224 H 1717.28 2.5464 0.0554331 0
M  V30 18225 H 1718.06 3.07274 -1.53094 0
M  V30 18226 N 1720.51 0.254649 1.55529 0
M  V30 18227 C 1721.79 -0.418663 1.91067 0
M  V30 18228 C 1722.17 -1.75284 1.17638 0
M  V30 18229 O 1721.51 -2.26569 0.296411 0
M  V30 18230 C 1721.72 -0.579125 3.44162 0
M  V30 18231 C 1723.07 -0.871451 4.15561 0
M  V30 18232 O 1724.1 -0.664702 3.49943 0
M  V30 18233 O 1722.95 -1.26563 5.31643 0
M  V30 18234 H 1720.05 -0.22593 0.795541 0
M  V30 18235 H 1722.59 0.299288 1.6704 0
M  V30 18236 H 1721.37 0.36062 3.89635 0
M  V30 18237 H 1720.99 -1.34732 3.74076 0
M  V30 18238 N 1721.99 -1.57589 -0.0183649 0
M  V30 18239 C 1722.94 -2.03724 -1.02373 0
M  V30 18240 C 1723.92 -0.928514 -1.31406 0
M  V30 18241 O 1725.11 -1.19237 -1.30811 0
M  V30 18242 C 1722.24 -2.52901 -2.32155 0
M  V30 18243 C 1721.33 -3.70616 -2.06167 0
M  V30 18244 N 1721.72 -4.82961 -1.50273 0
M  V30 18245 C 1720.02 -3.78195 -2.364 0
M  V30 18246 C 1720.72 -5.64518 -1.40335 0
M  V30 18247 N 1719.69 -5.09959 -1.88263 0
M  V30 18248 H 1723.5 -2.88003 -0.58577 0
M  V30 18249 H 1721.01 -1.60841 -0.224452 0
M  V30 18250 H 1723.01 -2.84219 -3.05 0
M  V30 18251 H 1721.67 -1.70033 -2.76621 0
M  V30 18252 H 1722.68 -5.04185 -1.18399 0
M  V30 18253 H 1719.35 -3.06147 -2.83866 0
M  V30 18254 H 1720.74 -6.64785 -0.975187 0
M  V30 18255 N 1723.46 0.290824 -1.54893 0
M  V30 18256 C 1724.69 1.04344 -1.78661 0
M  V30 18257 C 1725.11 1.80578 -0.551083 0
M  V30 18258 O 1724.46 1.76091 0.479394 0
M  V30 18259 C 1724.52 2.01604 -3.00064 0
M  V30 18260 O 1724.24 1.28461 -4.18843 0
M  V30 18261 C 1725.74 2.88822 -3.36298 0
M  V30 18262 H 1722.96 0.309018 -0.595608 0
M  V30 18263 H 1725.5 0.327011 -2.01868 0
M  V30 18264 H 1723.66 2.68735 -2.79035 0
M  V30 18265 H 1724.07 1.93864 -4.87357 0
M  V30 18266 H 1725.54 3.52898 -4.24461 0
M  V30 18267 H 1726.02 3.5766 -2.54904 0
M  V30 18268 H 1726.63 2.27208 -3.59523 0
M  V30 18269 N 1724.94 1.47523 0.554506 0
M  V30 18270 C 1726.17 1.57907 1.3369 0
M  V30 18271 C 1726.59 0.230244 1.87391 0
M  V30 18272 O 1725.94 -0.776917 1.65137 0
M  V30 18273 C 1725.99 2.60644 2.50493 0
M  V30 18274 O 1725.71 3.9029 1.99011 0
M  V30 18275 C 1727.22 2.81238 3.42666 0
M  V30 18276 H 1724.44 0.533139 0.407436 0
M  V30 18277 H 1726.98 1.93163 0.671445 0
M  V30 18278 H 1725.13 2.28315 3.12971 0
M  V30 18279 H 1725.55 4.46451 2.75285 0
M  V30 18280 H 1727.02 3.56981 4.21033 0
M  V30 18281 H 1727.5 1.89159 3.96378 0
M  V30 18282 H 1728.11 3.14775 2.86001 0
M  V30 18283 N 1726.42 -0.801453 1.357 0
M  V30 18284 C 1727.67 -1.5611 1.29451 0
M  V30 18285 C 1728 -1.93768 -0.129412 0
M  V30 18286 O 1727.27 -1.6176 -1.08 0
M  V30 18287 C 1727.56 -2.84628 2.20588 0
M  V30 18288 C 1727.41 -2.53413 3.71621 0
M  V30 18289 C 1728.73 -3.86369 2.10729 0
M  V30 18290 H 1725.85 -0.56638 0.471575 0
M  V30 18291 H 1728.49 -0.921701 1.66147 0
M  V30 18292 H 1726.64 -3.39192 1.89424 0
M  V30 18293 H 1728.31 -2.04993 4.1325 0
M  V30 18294 H 1726.56 -1.86531 3.91649 0
M  V30 18295 H 1727.23 -3.45152 4.30783 0
M  V30 18296 H 1729.7 -3.41219 2.38136 0
M  V30 18297 H 1728.58 -4.74062 2.76688 0
M  V30 18298 H 1728.84 -4.28431 1.09083 0
M  V30 18299 N 1727.9 -1.19782 -1.02421 0
M  V30 18300 C 1729.18 -0.912541 -1.73009 0
M  V30 18301 C 1729.56 0.58061 -2.02958 0
M  V30 18302 O 1728.9 1.54013 -1.68797 0
M  V30 18303 C 1729.11 -1.77745 -3.00346 0
M  V30 18304 C 1730.46 -2.01462 -3.73762 0
M  V30 18305 O 1731.49 -1.74935 -3.10284 0
M  V30 18306 O 1730.34 -2.46219 -4.87892 0
M  V30 18307 H 1727.44 -0.340513 -0.753644 0
M  V30 18308 H 1729.98 -1.30618 -1.08338 0
M  V30 18309 H 1728.76 -2.78887 -2.74477 0
M  V30 18310 H 1728.38 -1.38339 -3.72757 0
M  V30 18311 N 1729.38 1.21606 -1.00248 0
M  V30 18312 C 1730.63 1.89922 -0.679152 0
M  V30 18313 C 1730.94 1.78793 0.793246 0
M  V30 18314 O 1732.15 2.42113 1.22856 0
M  V30 18315 C 1730.6 3.40548 -1.16427 0
M  V30 18316 C 1730.21 3.60293 -2.66257 0
M  V30 18317 C 1731.95 4.14506 -0.915714 0
M  V30 18318 C 1729.86 5.04669 -3.08323 0
M  V30 18319 H 1728.79 0.711232 -0.250329 0
M  V30 18320 H 1731.44 1.37663 -1.21331 0
M  V30 18321 H 1729.82 3.92046 -0.558177 0
M  V30 18322 H 1731 3.19245 -3.32294 0
M  V30 18323 H 1729.31 2.99683 -2.891 0
M  V30 18324 H 1731.91 5.20932 -1.20558 0
M  V30 18325 H 1732.25 4.16037 0.148068 0
M  V30 18326 H 1732.79 3.69064 -1.48448 0
M  V30 18327 H 1729.52 5.08284 -4.13917 0
M  V30 18328 H 1729.04 5.46583 -2.46996 0
M  V30 18329 H 1730.72 5.7316 -3.00162 0
M  V30 18330 N 1730.86 0.776895 1.37121 0
M  V30 18331 C 1732.27 0.408311 1.8218 0
M  V30 18332 C 1732.62 -1.06621 1.64701 0
M  V30 18333 O 1731.74 -1.82621 1.16097 0
M  V30 18334 C 1732.34 0.734339 3.30746 0
M  V30 18335 C 1730.9 0.418746 3.74063 0
M  V30 18336 C 1730.04 0.97551 2.59575 0
M  V30 18337 H 1732.99 0.971111 1.25519 0
M  V30 18338 H 1733.02 0.0208557 3.80494 0
M  V30 18339 H 1732.53 1.80757 3.43436 0
M  V30 18340 H 1730.63 -0.646961 3.6694 0
M  V30 18341 H 1730.74 0.930597 4.69975 0
M  V30 18342 H 1729.11 0.399449 2.51548 0
M  V30 18343 H 1729.89 2.05425 2.75056 0
M  V30 18344 N 1732.33 -1.48497 0.527859 0
M  V30 18345 C 1733.74 -1.86498 0.0868541 0
M  V30 18346 C 1734.1 -1.43763 -1.33517 0
M  V30 18347 O 1733.22 -0.827397 -1.99958 0
M  V30 18348 C 1733.82 -3.38464 0.150843 0
M  V30 18349 C 1732.37 -3.75666 -0.234956 0
M  V30 18350 C 1731.52 -2.72541 0.511549 0
M  V30 18351 H 1734.47 -1.40432 0.739223 0
M  V30 18352 H 1734.49 -3.75114 -0.637972 0
M  V30 18353 H 1734.01 -3.69537 1.18592 0
M  V30 18354 H 1732.11 -3.50206 -1.27225 0
M  V30 18355 H 1732.22 -4.78989 0.103178 0
M  V30 18356 H 1730.58 -2.54665 -0.0419281 0
M  V30 18357 H 1731.37 -3.06457 1.54722 0
M  V30 18358 N 1733.81 -0.262893 -1.55392 0
M  V30 18359 C 1734.77 0.616662 -2.20749 0
M  V30 18360 C 1735.77 1.09066 -1.18158 0
M  V30 18361 O 1736.96 0.992797 -1.4314 0
M  V30 18362 C 1734.1 1.84937 -2.86376 0
M  V30 18363 H 1735.29 0.0462013 -2.99864 0
M  V30 18364 H 1732.84 -0.013432 -1.56294 0
M  V30 18365 H 1733.58 2.46066 -2.1124 0
M  V30 18366 H 1733.36 1.51754 -3.61543 0
M  V30 18367 H 1734.85 2.47511 -3.36345 0
M  V30 18368 N 1735.29 1.57597 0.0100073 0
M  V30 18369 C 1736.53 1.91983 0.701555 0
M  V30 18370 C 1736.89 0.863453 1.71489 0
M  V30 18371 O 1738.09 1.09225 2.45608 0
M  V30 18372 C 1736.37 3.31459 1.33678 0
M  V30 18373 S 1737.92 3.87714 2.05484 0
M  V30 18374 H 1734.74 0.672093 0.231975 0
M  V30 18375 H 1737.34 1.9545 -0.0442772 0
M  V30 18376 H 1736.05 4.06191 0.586295 0
M  V30 18377 H 1735.58 3.31342 2.12076 0
M  V30 18378 H 1737.59 3.6798 3.32874 0
M  V30 18379 N 1736.77 -0.282606 1.55045 0
M  V30 18380 C 1738.18 -0.854338 1.66006 0
M  V30 18381 C 1738.53 -1.87408 0.580753 0
M  V30 18382 O 1737.65 -2.14588 -0.279449 0
M  V30 18383 C 1738.25 -1.55637 3.00936 0
M  V30 18384 C 1736.81 -2.07626 3.13956 0
M  V30 18385 C 1735.96 -0.915064 2.61767 0
M  V30 18386 H 1738.91 -0.0591711 1.5859 0
M  V30 18387 H 1738.93 -2.42289 2.93388 0
M  V30 18388 H 1738.44 -0.813942 3.79469 0
M  V30 18389 H 1736.54 -2.84859 2.40179 0
M  V30 18390 H 1736.65 -2.29816 4.20382 0
M  V30 18391 H 1735.02 -1.30577 2.18682 0
M  V30 18392 H 1735.8 -0.186298 3.42794 0
M  V30 18393 N 1738.25 -1.47815 -0.546675 0
M  V30 18394 C 1739.66 -1.48715 -1.12875 0
M  V30 18395 C 1740.01 -0.247647 -1.94631 0
M  V30 18396 O 1739.13 0.646615 -2.06514 0
M  V30 18397 C 1739.73 -2.69459 -2.05371 0
M  V30 18398 C 1738.29 -2.73285 -2.58829 0
M  V30 18399 C 1737.43 -2.4198 -1.35429 0
M  V30 18400 H 1740.38 -1.55172 -0.332746 0
M  V30 18401 H 1740.41 -2.47028 -2.89408 0
M  V30 18402 H 1739.92 -3.59656 -1.4584 0
M  V30 18403 H 1738.02 -1.87254 -3.22128 0
M  V30 18404 H 1738.13 -3.74265 -2.99103 0
M  V30 18405 H 1736.5 -1.92783 -1.66454 0
M  V30 18406 H 1737.28 -3.34397 -0.776753 0
M  V30 18407 N 1739.72 0.794246 -1.36123 0
M  V30 18408 C 1741.13 1.36909 -1.26936 0
M  V30 18409 C 1741.49 1.9598 0.0929337 0
M  V30 18410 O 1740.61 1.92206 0.994266 0
M  V30 18411 C 1741.21 2.48906 -2.2985 0
M  V30 18412 C 1739.76 3.0222 -2.24366 0
M  V30 18413 C 1738.91 1.75264 -2.1489 0
M  V30 18414 H 1741.86 0.596278 -1.47072 0
M  V30 18415 H 1741.88 3.27794 -1.93213 0
M  V30 18416 H 1741.4 2.05884 -3.28988 0
M  V30 18417 H 1739.5 3.49675 -1.28679 0
M  V30 18418 H 1739.61 3.59363 -3.16852 0
M  V30 18419 H 1737.97 1.97306 -1.61066 0
M  V30 18420 H 1738.76 1.34377 -3.15908 0
M  V30 18421 N 1741.2 1.20323 1.01785 0
M  V30 18422 C 1742.13 0.974819 2.12178 0
M  V30 18423 C 1743.11 -0.0957637 1.6983 0
M  V30 18424 O 1744.3 0.0614963 1.94103 0
M  V30 18425 C 1741.43 0.524739 3.43313 0
M  V30 18426 C 1740.38 1.53842 3.99395 0
M  V30 18427 C 1739.71 0.945021 5.26283 0
M  V30 18428 C 1741.01 2.92179 4.3293 0
M  V30 18429 H 1742.7 1.8981 2.31544 0
M  V30 18430 H 1740.25 0.914025 1.11273 0
M  V30 18431 H 1742.2 0.352182 4.19926 0
M  V30 18432 H 1740.92 -0.434161 3.23701 0
M  V30 18433 H 1739.58 1.69832 3.24889 0
M  V30 18434 H 1739.23 -0.0217709 5.02995 0
M  V30 18435 H 1738.93 1.62201 5.64769 0
M  V30 18436 H 1740.46 0.783504 6.05552 0
M  V30 18437 H 1741.87 2.79708 5.00436 0
M  V30 18438 H 1740.27 3.56773 4.82528 0
M  V30 18439 H 1741.34 3.43997 3.41752 0
M  V30 18440 N 1742.68 -1.21073 1.00892 0
M  V30 18441 C 1743.63 -2.25613 0.565829 0
M  V30 18442 C 1744.62 -1.64812 -0.391588 0
M  V30 18443 O 1745.83 -1.78078 -0.262352 0
M  V30 18444 H 1742.2 -0.733755 0.164643 0
M  V30 18445 H 1744.17 -2.60321 1.45862 0
M  V30 18446 C 1742.92 -3.47589 -0.087861 0
M  V30 18447 H 1742.25 -3.94647 0.639828 0
M  V30 18448 H 1743.69 -4.22459 -0.361115 0
M  V30 18449 C 1742.14 -3.09609 -1.32829 0
M  V30 18450 O 1742.67 -3.20449 -2.4223 0
M  V30 18451 N 1740.88 -2.64234 -1.2095 0
M  V30 18452 H 1740.43 -2.55613 -0.319301 0
M  V30 18453 H 1740.39 -2.39191 -2.04046 0
M  V30 18454 N 1744.16 -0.784156 -1.36707 0
M  V30 18455 C 1745.11 -0.152155 -2.27492 0
M  V30 18456 C 1746.09 0.660807 -1.46704 0
M  V30 18457 O 1747.28 0.521744 -1.69136 0
M  V30 18458 C 1744.41 0.716367 -3.35743 0
M  V30 18459 C 1743.5 -0.1051 -4.2397 0
M  V30 18460 N 1743.89 -1.15697 -4.9239 0
M  V30 18461 C 1742.19 0.116908 -4.45847 0
M  V30 18462 C 1742.89 -1.65661 -5.57612 0
M  V30 18463 N 1741.87 -0.966703 -5.34935 0
M  V30 18464 H 1745.67 -0.957322 -2.77871 0
M  V30 18465 H 1743.18 -0.623106 -1.4997 0
M  V30 18466 H 1745.18 1.185 -3.99704 0
M  V30 18467 H 1743.84 1.52014 -2.86918 0
M  V30 18468 H 1744.85 -1.53933 -4.94495 0
M  V30 18469 H 1741.53 0.891605 -4.07868 0
M  V30 18470 H 1742.92 -2.53449 -6.22265 0
M  V30 18471 N 1745.64 1.48215 -0.535727 0
M  V30 18472 C 1746.86 2.06898 -0.0079465 0
M  V30 18473 C 1747.28 1.39148 1.27606 0
M  V30 18474 O 1746.64 0.480867 1.76051 0
M  V30 18475 C 1746.69 3.60868 0.213736 0
M  V30 18476 O 1746.41 4.26075 -1.01941 0
M  V30 18477 C 1747.91 4.36362 0.781245 0
M  V30 18478 H 1745.13 0.670028 -0.0361097 0
M  V30 18479 H 1747.67 1.90524 -0.743012 0
M  V30 18480 H 1745.83 3.76828 0.898866 0
M  V30 18481 H 1746.24 5.18306 -0.803716 0
M  V30 18482 H 1747.72 5.44847 0.885753 0
M  V30 18483 H 1748.19 4.01179 1.78751 0
M  V30 18484 H 1748.8 4.25094 0.132499 0
M  V30 18485 N 1747.11 0.27113 1.5525 0
M  V30 18486 C 1748.36 -0.347304 1.99804 0
M  V30 18487 C 1748.69 -1.55803 1.15928 0
M  V30 18488 O 1747.97 -1.93154 0.228386 0
M  V30 18489 C 1748.25 -0.733408 3.52552 0
M  V30 18490 C 1748.1 0.48438 4.47184 0
M  V30 18491 C 1749.42 -1.57136 4.11092 0
M  V30 18492 H 1746.54 -0.124762 0.726363 0
M  V30 18493 H 1749.18 0.37728 1.86217 0
M  V30 18494 H 1747.33 -1.35076 3.64262 0
M  V30 18495 H 1749.01 1.12293 4.47424 0
M  V30 18496 H 1747.25 1.12317 4.19008 0
M  V30 18497 H 1747.92 0.170525 5.51737 0
M  V30 18498 H 1750.4 -1.05001 4.02634 0
M  V30 18499 H 1749.27 -1.81033 5.18187 0
M  V30 18500 H 1749.53 -2.55111 3.61069 0
M  V30 18501 N 1748.59 -1.576 -0.00164943 0
M  V30 18502 C 1749.84 -1.90778 -0.68786 0
M  V30 18503 C 1750.17 -0.872138 -1.73515 0
M  V30 18504 O 1749.45 0.109349 -1.94192 0
M  V30 18505 C 1749.73 -3.34539 -1.3325 0
M  V30 18506 C 1749.58 -4.48819 -0.296862 0
M  V30 18507 C 1750.9 -3.77693 -2.25911 0
M  V30 18508 H 1748.02 -0.69381 -0.24859 0
M  V30 18509 H 1750.66 -1.89936 0.0493059 0
M  V30 18510 H 1748.81 -3.35388 -1.9608 0
M  V30 18511 H 1750.48 -4.60106 0.331635 0
M  V30 18512 H 1748.73 -4.32123 0.38105 0
M  V30 18513 H 1749.4 -5.46362 -0.786927 0
M  V30 18514 H 1751.87 -3.78386 -1.73099 0
M  V30 18515 H 1750.75 -4.79037 -2.67983 0
M  V30 18516 H 1751.01 -3.11469 -3.1375 0
M  V30 18517 N 1750.07 0.274379 -1.55193 0
M  V30 18518 C 1751 1.36139 -1.84388 0
M  V30 18519 C 1752.02 1.45601 -0.728294 0
M  V30 18520 O 1753.2 1.47443 -1.00613 0
M  V30 18521 C 1750.3 2.74278 -1.9906 0
M  V30 18522 C 1749.48 2.87424 -3.29706 0
M  V30 18523 C 1748.54 4.06229 -3.34461 0
M  V30 18524 O 1747.56 3.97053 -4.07845 0
M  V30 18525 N 1748.76 5.18131 -2.61764 0
M  V30 18526 H 1751.53 1.1144 -2.78211 0
M  V30 18527 H 1749.09 0.464493 -1.55094 0
M  V30 18528 H 1751.08 3.52047 -1.99613 0
M  V30 18529 H 1749.65 2.91805 -1.1211 0
M  V30 18530 H 1748.87 1.96551 -3.41704 0
M  V30 18531 H 1750.16 2.93137 -4.15871 0
M  V30 18532 H 1749.56 5.28473 -2.01824 0
M  V30 18533 H 1748.12 5.94135 -2.68042 0
M  V30 18534 N 1751.55 1.48103 0.538828 0
M  V30 18535 C 1752.79 1.559 1.29704 0
M  V30 18536 C 1753.13 0.228359 1.92853 0
M  V30 18537 O 1752.4 -0.764825 1.78831 0
M  V30 18538 C 1752.69 2.69072 2.39316 0
M  V30 18539 C 1752.54 4.11812 1.80916 0
M  V30 18540 C 1753.86 2.78051 3.41138 0
M  V30 18541 H 1750.98 0.5675 0.470226 0
M  V30 18542 H 1753.62 1.80239 0.601163 0
M  V30 18543 H 1751.77 2.4845 2.98672 0
M  V30 18544 H 1753.44 4.4385 1.25679 0
M  V30 18545 H 1751.68 4.19227 1.11494 0
M  V30 18546 H 1752.35 4.86805 2.6024 0
M  V30 18547 H 1754.83 2.96707 2.91726 0
M  V30 18548 H 1753.71 3.58982 4.15239 0
M  V30 18549 H 1753.97 1.85849 4.01139 0
M  V30 18550 N 1753.03 -0.787016 1.36542 0
M  V30 18551 C 1753.97 -1.92115 1.31128 0
M  V30 18552 C 1754.97 -1.68183 0.202656 0
M  V30 18553 O 1756.17 -1.7616 0.369802 0
M  V30 18554 H 1752.55 -0.631514 0.408281 0
M  V30 18555 H 1754.52 -1.938 2.26901 0
M  V30 18556 C 1753.27 -3.29173 1.11985 0
M  V30 18557 H 1752.59 -3.48156 1.96539 0
M  V30 18558 H 1754.03 -4.08873 1.12243 0
M  V30 18559 C 1752.49 -3.36443 -0.175383 0
M  V30 18560 O 1753.02 -3.84455 -1.16437 0
M  V30 18561 N 1751.23 -2.89759 -0.220879 0
M  V30 18562 H 1750.77 -2.5088 0.584558 0
M  V30 18563 H 1750.73 -2.95005 -1.08717 0
M  V30 18564 N 1754.5 -1.20861 -1.01145 0
M  V30 18565 C 1755.45 -0.962085 -2.09792 0
M  V30 18566 C 1756.42 0.109588 -1.65738 0
M  V30 18567 O 1757.61 -0.0362022 -1.90766 0
M  V30 18568 C 1754.75 -0.52586 -3.4107 0
M  V30 18569 C 1753.86 -1.66626 -3.98572 0
M  V30 18570 C 1752.99 -1.17983 -5.17932 0
M  V30 18571 C 1752.03 -2.29298 -5.67529 0
M  V30 18572 N 1751.17 -1.81836 -6.78145 0
M  V30 18573 H 1756.01 -1.89222 -2.30215 0
M  V30 18574 H 1753.55 -0.943108 -1.12889 0
M  V30 18575 H 1755.51 -0.25423 -4.16425 0
M  V30 18576 H 1754.14 0.367275 -3.20704 0
M  V30 18577 H 1753.19 -2.05268 -3.20264 0
M  V30 18578 H 1754.5 -2.50426 -4.3138 0
M  V30 18579 H 1753.65 -0.864477 -6.0051 0
M  V30 18580 H 1752.39 -0.311793 -4.86702 0
M  V30 18581 H 1751.4 -2.61644 -4.83552 0
M  V30 18582 H 1752.62 -3.16587 -6.00791 0
M  V30 18583 H 1750.57 -0.973665 -6.48734 0
M  V30 18584 H 1750.49 -2.59213 -7.10172 0
M  V30 18585 H 1751.75 -1.53315 -7.64274 0
M  V30 18586 N 1755.98 1.20536 -1.01532 0
M  V30 18587 C 1756.93 2.2531 -0.577786 0
M  V30 18588 C 1757.92 1.65017 0.382843 0
M  V30 18589 O 1759.13 1.78214 0.252904 0
M  V30 18590 H 1755.51 0.732872 -0.168532 0
M  V30 18591 H 1757.48 2.59544 -1.4724 0
M  V30 18592 C 1756.23 3.47631 0.0694263 0
M  V30 18593 H 1755.55 3.94302 -0.660748 0
M  V30 18594 H 1756.99 4.22645 0.338706 0
M  V30 18595 C 1755.45 3.1031 1.31185 0
M  V30 18596 O 1755.98 3.21729 2.40527 0
M  V30 18597 N 1754.18 2.64871 1.19547 0
M  V30 18598 H 1753.73 2.55779 0.305741 0
M  V30 18599 H 1753.69 2.4027 2.02775 0
M  V30 18600 N 1757.46 0.791395 1.36289 0
M  V30 18601 C 1758.42 0.197069 2.28351 0
M  V30 18602 C 1759.42 -0.606748 1.48913 0
M  V30 18603 O 1760.61 -0.427453 1.68874 0
M  V30 18604 C 1757.75 -0.727009 3.33058 0
M  V30 18605 H 1758.94 1.00885 2.82422 0
M  V30 18606 H 1756.49 0.560959 1.45887 0
M  V30 18607 H 1757.23 -1.56306 2.84146 0
M  V30 18608 H 1757.01 -0.152537 3.91803 0
M  V30 18609 H 1758.5 -1.13765 4.01805 0
M  V30 18610 N 1758.94 -1.47929 0.54358 0
M  V30 18611 C 1759.89 -2.3151 -0.224935 0
M  V30 18612 C 1760.88 -1.4208 -0.922473 0
M  V30 18613 O 1762.09 -1.58917 -0.845309 0
M  V30 18614 H 1758.46 -0.746424 -0.0914091 0
M  V30 18615 H 1760.43 -2.94192 0.499381 0
M  V30 18616 C 1759.18 -3.24439 -1.25038 0
M  V30 18617 H 1758.51 -3.93207 -0.723059 0
M  V30 18618 H 1759.95 -3.8578 -1.75927 0
M  V30 18619 C 1758.4 -2.46998 -2.29115 0
M  V30 18620 O 1758.93 -2.20457 -3.358 0
M  V30 18621 N 1757.14 -2.08249 -2.02684 0
M  V30 18622 H 1756.69 -2.30034 -1.15941 0
M  V30 18623 H 1756.65 -1.56748 -2.72539 0
M  V30 18624 N 1760.42 -0.27936 -1.55104 0
M  V30 18625 C 1761.83 0.217569 -1.85428 0
M  V30 18626 C 1762.18 1.55117 -1.20138 0
M  V30 18627 O 1761.3 2.10751 -0.491229 0
M  V30 18628 C 1761.9 0.401547 -3.36412 0
M  V30 18629 C 1760.46 0.842706 -3.66845 0
M  V30 18630 C 1759.61 -0.0615565 -2.77232 0
M  V30 18631 H 1762.56 -0.501025 -1.50584 0
M  V30 18632 H 1762.58 1.23946 -3.59747 0
M  V30 18633 H 1762.09 -0.569224 -3.83903 0
M  V30 18634 H 1760.19 1.8248 -3.24857 0
M  V30 18635 H 1760.3 0.677088 -4.74291 0
M  V30 18636 H 1758.67 0.455486 -2.50594 0
M  V30 18637 H 1759.45 -1.02829 -3.27538 0
M  V30 18638 N 1761.9 1.57599 -0.0067085 0
M  V30 18639 C 1763.17 1.82097 0.714141 0
M  V30 18640 C 1763.55 0.885868 1.91613 0
M  V30 18641 O 1762.9 -0.0638506 2.28411 0
M  V30 18642 C 1763.11 3.30759 1.11354 0
M  V30 18643 C 1764.46 3.96668 1.51459 0
M  V30 18644 O 1765.48 3.35121 1.20715 0
M  V30 18645 O 1764.34 5.051 2.08654 0
M  V30 18646 H 1761.44 0.750071 0.348314 0
M  V30 18647 H 1763.98 1.69669 -0.0326766 0
M  V30 18648 H 1762.75 3.90455 0.257068 0
M  V30 18649 H 1762.38 3.48211 1.91924 0
M  V30 18650 N 1763.37 -0.266145 1.55336 0
M  V30 18651 C 1764.78 -0.836683 1.66903 0
M  V30 18652 C 1765.14 -1.86781 0.600597 0
M  V30 18653 O 1764.26 -2.14872 -0.256674 0
M  V30 18654 C 1764.86 -1.52436 3.0257 0
M  V30 18655 C 1763.41 -2.04284 3.1614 0
M  V30 18656 C 1762.56 -0.887248 2.62723 0
M  V30 18657 H 1765.51 -0.0423472 1.58643 0
M  V30 18658 H 1765.53 -2.39163 2.95941 0
M  V30 18659 H 1765.05 -0.773649 3.80311 0
M  V30 18660 H 1763.15 -2.82296 2.43187 0
M  V30 18661 H 1763.26 -2.25345 4.22796 0
M  V30 18662 H 1761.62 -1.28251 2.20054 0
M  V30 18663 H 1762.41 -0.14993 3.42972 0
M  V30 18664 N 1764.85 -1.48386 -0.530967 0
M  V30 18665 C 1765.78 -1.6573 -1.64486 0
M  V30 18666 C 1766.76 -0.506198 -1.62393 0
M  V30 18667 O 1767.95 -0.738623 -1.79605 0
M  V30 18668 C 1765.08 -1.69594 -3.03076 0
M  V30 18669 C 1764.03 -2.84195 -3.20027 0
M  V30 18670 C 1763.36 -2.73148 -4.59668 0
M  V30 18671 C 1764.66 -4.25504 -3.02892 0
M  V30 18672 H 1766.35 -2.58983 -1.50227 0
M  V30 18673 H 1763.9 -1.24633 -0.721286 0
M  V30 18674 H 1765.85 -1.80316 -3.80873 0
M  V30 18675 H 1764.57 -0.729193 -3.18356 0
M  V30 18676 H 1763.23 -2.73027 -2.44647 0
M  V30 18677 H 1762.88 -1.74444 -4.71782 0
M  V30 18678 H 1762.58 -3.50047 -4.71954 0
M  V30 18679 H 1764.11 -2.85836 -5.39565 0
M  V30 18680 H 1765.52 -4.37511 -3.70482 0
M  V30 18681 H 1763.92 -5.03393 -3.26673 0
M  V30 18682 H 1764.99 -4.42036 -1.99329 0
M  V30 18683 N 1766.33 0.779763 -1.36958 0
M  V30 18684 C 1767.74 1.35555 -1.28381 0
M  V30 18685 C 1768.09 1.96067 0.0721422 0
M  V30 18686 O 1767.22 1.9325 0.973824 0
M  V30 18687 C 1767.81 2.46454 -2.32477 0
M  V30 18688 C 1766.37 2.99823 -2.27559 0
M  V30 18689 C 1765.52 1.72975 -2.16737 0
M  V30 18690 H 1768.47 0.580646 -1.47696 0
M  V30 18691 H 1768.49 3.25726 -1.96679 0
M  V30 18692 H 1768 2.02383 -3.31154 0
M  V30 18693 H 1766.1 3.4829 -1.3238 0
M  V30 18694 H 1766.22 3.55982 -3.20646 0
M  V30 18695 H 1764.58 1.95587 -1.6315 0
M  V30 18696 H 1765.36 1.31018 -3.17315 0
M  V30 18697 N 1767.81 1.21396 1.00503 0
M  V30 18698 C 1768.75 0.973198 2.09279 0
M  V30 18699 C 1769.72 -0.100797 1.65794 0
M  V30 18700 O 1770.91 0.0463185 1.90744 0
M  V30 18701 C 1768.05 0.543941 3.40786 0
M  V30 18702 C 1767.16 1.68737 3.97683 0
M  V30 18703 C 1766.3 1.20728 5.17299 0
M  V30 18704 C 1765.34 2.32305 5.66305 0
M  V30 18705 N 1764.47 1.8543 6.77171 0
M  V30 18706 H 1769.31 1.90441 2.29208 0
M  V30 18707 H 1766.85 0.949082 1.12387 0
M  V30 18708 H 1768.81 0.276311 4.16284 0
M  V30 18709 H 1767.44 -0.350263 3.20894 0
M  V30 18710 H 1766.49 2.06964 3.19171 0
M  V30 18711 H 1767.8 2.5271 4.30045 0
M  V30 18712 H 1766.96 0.896312 6.00043 0
M  V30 18713 H 1765.7 0.3376 4.8653 0
M  V30 18714 H 1764.7 2.64205 4.82158 0
M  V30 18715 H 1765.93 3.19769 5.99103 0
M  V30 18716 H 1763.87 1.00806 6.48208 0
M  V30 18717 H 1763.79 2.62976 7.08788 0
M  V30 18718 H 1765.06 1.57366 7.6345 0
M  V30 18719 N 1769.29 -1.19996 1.0217 0
M  V30 18720 C 1770.23 -2.22963 0.596318 0
M  V30 18721 C 1771.2 -1.61548 -0.386212 0
M  V30 18722 O 1772.39 -1.88667 -0.284497 0
M  V30 18723 C 1769.53 -3.45058 -0.054059 0
M  V30 18724 C 1768.64 -4.20885 0.973648 0
M  V30 18725 C 1767.78 -5.30387 0.293788 0
M  V30 18726 C 1766.81 -5.97964 1.3079 0
M  V30 18727 N 1765.95 -6.99044 0.654351 0
M  V30 18728 H 1770.79 -2.58709 1.47898 0
M  V30 18729 H 1768.33 -1.27117 0.740254 0
M  V30 18730 H 1770.29 -4.14784 -0.448313 0
M  V30 18731 H 1768.92 -3.0999 -0.900342 0
M  V30 18732 H 1767.97 -3.50174 1.48602 0
M  V30 18733 H 1769.28 -4.67292 1.7447 0
M  V30 18734 H 1768.43 -6.065 -0.155695 0
M  V30 18735 H 1767.17 -4.85031 -0.509521 0
M  V30 18736 H 1766.18 -5.20607 1.76772 0
M  V30 18737 H 1767.4 -6.45404 2.11258 0
M  V30 18738 H 1765.35 -6.55873 -0.128996 0
M  V30 18739 H 1765.27 -7.43605 1.36339 0
M  V30 18740 H 1766.53 -7.79165 0.228631 0
M  V30 18741 N 1770.76 -0.798611 -1.35867 0
M  V30 18742 C 1771.67 -0.204758 -2.33705 0
M  V30 18743 C 1772.69 0.648001 -1.61484 0
M  V30 18744 O 1773.87 0.561628 -1.93411 0
M  V30 18745 C 1770.93 0.643225 -3.40681 0
M  V30 18746 C 1769.99 -0.229099 -4.28688 0
M  V30 18747 C 1769.22 0.578508 -5.30555 0
M  V30 18748 O 1769.45 1.81382 -5.40793 0
M  V30 18749 O 1768.38 -0.0264291 -6.01894 0
M  V30 18750 H 1772.21 -1.01392 -2.86275 0
M  V30 18751 H 1769.79 -0.560242 -1.38498 0
M  V30 18752 H 1771.67 1.12648 -4.06065 0
M  V30 18753 H 1770.35 1.43012 -2.90395 0
M  V30 18754 H 1769.26 -0.759314 -3.66313 0
M  V30 18755 H 1770.59 -0.979736 -4.82351 0
M  V30 18756 N 1772.24 1.47639 -0.551417 0
M  V30 18757 C 1773.15 2.33722 0.202799 0
M  V30 18758 C 1774.17 1.47832 0.917699 0
M  V30 18759 O 1775.34 1.80772 0.887885 0
M  V30 18760 C 1772.41 3.24408 1.22313 0
M  V30 18761 C 1771.47 4.26184 0.51628 0
M  V30 18762 C 1770.7 5.12537 1.488 0
M  V30 18763 O 1770.93 5.01241 2.72238 0
M  V30 18764 O 1769.86 5.93269 1.01566 0
M  V30 18765 H 1773.69 2.99503 -0.50317 0
M  V30 18766 H 1771.27 1.46104 -0.312093 0
M  V30 18767 H 1773.15 3.80441 1.81225 0
M  V30 18768 H 1771.83 2.61262 1.91112 0
M  V30 18769 H 1770.73 3.73927 -0.113886 0
M  V30 18770 H 1772.07 4.92028 -0.130158 0
M  V30 18771 N 1773.72 0.287581 1.54954 0
M  V30 18772 C 1774.63 -0.604236 2.26685 0
M  V30 18773 C 1775.65 -1.1597 1.29719 0
M  V30 18774 O 1776.82 -1.18735 1.62678 0
M  V30 18775 C 1773.89 -1.76612 2.98344 0
M  V30 18776 C 1772.95 -1.24608 4.10818 0
M  V30 18777 C 1772.18 -2.35258 4.7905 0
M  V30 18778 O 1772.4 -3.54879 4.46561 0
M  V30 18779 O 1771.34 -2.02709 5.66739 0
M  V30 18780 H 1775.16 -0.0227663 3.03691 0
M  V30 18781 H 1772.75 0.0545243 1.493 0
M  V30 18782 H 1774.63 -2.44332 3.43336 0
M  V30 18783 H 1773.31 -2.33444 2.24244 0
M  V30 18784 H 1772.21 -0.53498 3.70255 0
M  V30 18785 H 1773.55 -0.723348 4.86856 0
M  V30 18786 N 1775.2 -1.57593 0.0150662 0
M  V30 18787 C 1776.15 -2.0936 -0.971443 0
M  V30 18788 C 1777.12 -0.992416 -1.33193 0
M  V30 18789 O 1778.3 -1.26577 -1.42769 0
M  V30 18790 C 1775.44 -2.61386 -2.25324 0
M  V30 18791 C 1774.55 -3.85462 -1.95046 0
M  V30 18792 C 1773.69 -4.25934 -3.17418 0
M  V30 18793 C 1772.73 -5.42805 -2.82894 0
M  V30 18794 N 1771.86 -5.78499 -3.97848 0
M  V30 18795 H 1776.7 -2.93373 -0.523068 0
M  V30 18796 H 1774.24 -1.45018 -0.246605 0
M  V30 18797 H 1776.2 -2.89635 -3.00279 0
M  V30 18798 H 1774.83 -1.80225 -2.67804 0
M  V30 18799 H 1773.88 -3.64029 -1.10394 0
M  V30 18800 H 1775.19 -4.70505 -1.6561 0
M  V30 18801 H 1774.35 -4.55544 -4.00705 0
M  V30 18802 H 1773.09 -3.3963 -3.50004 0
M  V30 18803 H 1772.09 -5.12903 -1.98016 0
M  V30 18804 H 1773.32 -6.30797 -2.51539 0
M  V30 18805 H 1771.26 -4.95152 -4.30303 0
M  V30 18806 H 1771.18 -6.5815 -3.71988 0
M  V30 18807 H 1772.45 -6.12708 -4.8188 0
M  V30 18808 N 1776.68 0.257904 -1.55475 0
M  V30 18809 C 1777.62 1.31912 -1.89388 0
M  V30 18810 C 1778.59 1.48358 -0.746927 0
M  V30 18811 O 1779.78 1.62521 -0.999584 0
M  V30 18812 C 1776.92 2.67162 -2.18446 0
M  V30 18813 C 1776.03 2.58814 -3.45889 0
M  V30 18814 C 1775.17 3.86343 -3.64571 0
M  V30 18815 C 1774.21 3.72567 -4.85654 0
M  V30 18816 N 1773.34 4.91964 -5.00915 0
M  V30 18817 H 1778.18 1.02291 -2.79894 0
M  V30 18818 H 1775.72 0.493864 -1.38562 0
M  V30 18819 H 1777.68 3.45874 -2.33296 0
M  V30 18820 H 1776.31 2.94954 -1.31157 0
M  V30 18821 H 1775.36 1.7173 -3.39431 0
M  V30 18822 H 1776.67 2.4454 -4.34743 0
M  V30 18823 H 1775.83 4.73498 -3.79321 0
M  V30 18824 H 1774.56 4.03501 -2.7393 0
M  V30 18825 H 1773.57 2.83795 -4.70893 0
M  V30 18826 H 1774.79 3.56914 -5.77745 0
M  V30 18827 H 1772.74 5.09505 -4.13208 0
M  V30 18828 H 1772.66 4.80279 -5.83839 0
M  V30 18829 H 1773.93 5.80649 -5.20064 0
M  V30 18830 N 1778.15 1.48666 0.52309 0
M  V30 18831 C 1779.06 1.66396 1.65377 0
M  V30 18832 C 1780.08 0.546469 1.65196 0
M  V30 18833 O 1781.26 0.818413 1.84022 0
M  V30 18834 C 1778.32 1.70602 3.01821 0
M  V30 18835 C 1777.38 2.94028 3.12803 0
M  V30 18836 C 1776.62 2.98024 4.42739 0
M  V30 18837 O 1776.84 2.10232 5.30244 0
M  V30 18838 O 1775.77 3.90266 4.58231 0
M  V30 18839 H 1779.6 2.62138 1.53354 0
M  V30 18840 H 1777.18 1.32148 0.696948 0
M  V30 18841 H 1779.07 1.75849 3.82956 0
M  V30 18842 H 1777.74 0.780346 3.14153 0
M  V30 18843 H 1776.65 2.9431 2.30938 0
M  V30 18844 H 1777.98 3.86003 3.0539 0
M  V30 18845 N 1779.63 -0.772489 1.37369 0
M  V30 18846 C 1780.54 -1.91679 1.35263 0
M  V30 18847 C 1781.56 -1.72161 0.252321 0
M  V30 18848 O 1782.73 -1.95409 0.487581 0
M  V30 18849 C 1779.8 -3.26792 1.15792 0
M  V30 18850 C 1778.86 -3.5897 2.35455 0
M  V30 18851 C 1778.09 -4.87636 2.16903 0
M  V30 18852 O 1778.32 -5.58627 1.15291 0
M  V30 18853 O 1777.25 -5.18859 3.05072 0
M  V30 18854 H 1781.08 -1.96408 2.31641 0
M  V30 18855 H 1778.66 -0.915136 1.18092 0
M  V30 18856 H 1780.54 -4.07611 1.06918 0
M  V30 18857 H 1779.22 -3.22918 0.224872 0
M  V30 18858 H 1778.13 -2.78389 2.49901 0
M  V30 18859 H 1779.46 -3.67586 3.27325 0
M  V30 18860 N 1781.11 -1.21927 -0.998575 0
M  V30 18861 C 1782.02 -1.00049 -2.12197 0
M  V30 18862 C 1783.04 0.0494414 -1.7393 0
M  V30 18863 O 1784.21 -0.142033 -2.00899 0
M  V30 18864 C 1781.28 -0.574871 -3.41901 0
M  V30 18865 C 1780.34 -1.69776 -3.94303 0
M  V30 18866 C 1779.57 -1.29236 -5.17816 0
M  V30 18867 O 1779.79 -0.168709 -5.7015 0
M  V30 18868 O 1778.73 -2.10671 -5.63827 0
M  V30 18869 H 1782.55 -1.94154 -2.33534 0
M  V30 18870 H 1780.14 -1.00472 -1.10571 0
M  V30 18871 H 1782.02 -0.347603 -4.19964 0
M  V30 18872 H 1780.7 0.337389 -3.21937 0
M  V30 18873 H 1779.6 -1.9795 -3.17438 0
M  V30 18874 H 1780.94 -2.58768 -4.18688 0
M  V30 18875 N 1782.59 1.19452 -1.02805 0
M  V30 18876 C 1783.5 2.2631 -0.618147 0
M  V30 18877 C 1784.51 1.70449 0.349712 0
M  V30 18878 O 1785.69 2.00325 0.207801 0
M  V30 18879 C 1782.76 3.46691 0.0255242 0
M  V30 18880 C 1781.82 4.17735 -0.98973 0
M  V30 18881 C 1781.05 5.32369 -0.376681 0
M  V30 18882 O 1781.27 5.64467 0.820584 0
M  V30 18883 O 1780.21 5.9178 -1.09911 0
M  V30 18884 H 1784.03 2.63611 -1.50807 0
M  V30 18885 H 1781.62 1.2629 -0.798192 0
M  V30 18886 H 1783.5 4.19643 0.384464 0
M  V30 18887 H 1782.17 3.1124 0.889467 0
M  V30 18888 H 1781.08 3.46906 -1.40024 0
M  V30 18889 H 1782.41 4.57155 -1.82402 0
M  V30 18890 N 1784.07 0.805805 1.35442 0
M  V30 18891 C 1785.34 0.309105 1.93142 0
M  V30 18892 C 1785.72 -1.20119 1.73593 0
M  V30 18893 O 1785.07 -2.00034 1.10448 0
M  V30 18894 C 1785.28 0.719653 3.415 0
M  V30 18895 C 1786.63 0.708697 4.18644 0
M  V30 18896 O 1787.65 0.661148 3.5001 0
M  V30 18897 O 1786.51 0.76636 5.411 0
M  V30 18898 H 1783.61 0.0806647 0.823057 0
M  V30 18899 H 1786.15 0.88945 1.44523 0
M  V30 18900 H 1784.92 1.7606 3.49455 0
M  V30 18901 H 1784.55 0.114073 3.97436 0
M  V30 18902 N 1785.54 -1.47344 0.559239 0
M  V30 18903 C 1786.82 -1.95577 -0.0298268 0
M  V30 18904 C 1787.2 -1.50185 -1.4835 0
M  V30 18905 O 1786.55 -0.74162 -2.1613 0
M  V30 18906 C 1786.76 -3.48801 0.117767 0
M  V30 18907 C 1788.11 -4.24592 -0.026535 0
M  V30 18908 O 1789.13 -3.56171 0.0454163 0
M  V30 18909 O 1787.99 -5.46198 -0.181675 0
M  V30 18910 H 1785.08 -0.824597 -0.0629972 0
M  V30 18911 H 1787.63 -1.57736 0.625905 0
M  V30 18912 H 1786.4 -3.74652 1.12924 0
M  V30 18913 H 1786.03 -3.93413 -0.575483 0
M  V30 18914 N 1787.02 -0.295795 -1.54799 0
M  V30 18915 C 1788.44 0.0577516 -1.59495 0
M  V30 18916 C 1788.64 1.52862 -1.31284 0
M  V30 18917 O 1787.69 2.28061 -1.08372 0
M  V30 18918 C 1789.01 -0.335503 -2.98822 0
M  V30 18919 C 1790.56 -0.283835 -3.1171 0
M  V30 18920 C 1791.03 -0.651835 -4.53338 0
M  V30 18921 N 1792.52 -0.604171 -4.59243 0
M  V30 18922 C 1793.26 -0.861453 -5.66892 0
M  V30 18923 N 1792.75 -1.18443 -6.826 0
M  V30 18924 N 1794.55 -0.788863 -5.56537 0
M  V30 18925 H 1786.7 -1.25444 -1.71399 0
M  V30 18926 H 1788.96 -0.50822 -0.80026 0
M  V30 18927 H 1788.67 -1.35923 -3.24373 0
M  V30 18928 H 1788.54 0.313443 -3.75895 0
M  V30 18929 H 1790.93 0.730641 -2.85912 0
M  V30 18930 H 1791.01 -0.967331 -2.36804 0
M  V30 18931 H 1790.65 -1.66409 -4.79865 0
M  V30 18932 H 1790.58 0.053676 -5.26573 0
M  V30 18933 H 1793.07 -0.365262 -3.76131 0
M  V30 18934 H 1793.39 -1.36686 -7.60616 0
M  V30 18935 H 1791.73 -1.22242 -6.84165 0
M  V30 18936 H 1794.92 -0.536231 -4.65018 0
M  V30 18937 H 1795.09 -0.992744 -6.4035 0
M  V30 18938 N 1788.5 1.57583 -0.0234236 0
M  V30 18939 C 1789.75 1.91186 0.655152 0
M  V30 18940 C 1790.07 0.89988 1.72995 0
M  V30 18941 O 1789.34 -0.0594278 1.9581 0
M  V30 18942 H 1787.92 0.705686 0.244982 0
M  V30 18943 H 1790.58 1.94775 -0.0698824 0
M  V30 18944 H 1789.68 2.91636 1.11152 0
M  V30 18945 N 1789.98 -0.249655 1.5561 0
M  V30 18946 C 1790.89 -1.33061 1.93215 0
M  V30 18947 C 1791.91 -1.52806 0.832239 0
M  V30 18948 O 1793.08 -1.66482 1.13339 0
M  V30 18949 C 1790.15 -2.66569 2.2168 0
M  V30 18950 C 1789.21 -2.5537 3.45087 0
M  V30 18951 C 1788.44 -3.82511 3.72184 0
M  V30 18952 O 1788.66 -4.84267 3.014 0
M  V30 18953 O 1787.6 -3.81309 4.65711 0
M  V30 18954 H 1791.42 -1.04161 2.85279 0
M  V30 18955 H 1789.01 -0.450177 1.42456 0
M  V30 18956 H 1790.89 -3.45468 2.41308 0
M  V30 18957 H 1789.57 -2.95207 1.32794 0
M  V30 18958 H 1788.47 -1.74766 3.30768 0
M  V30 18959 H 1789.81 -2.31677 4.34266 0
M  V30 18960 N 1791.46 -1.48941 -0.515198 0
M  V30 18961 C 1792.73 -1.48205 -1.27651 0
M  V30 18962 C 1793.11 -0.201866 -2.10133 0
M  V30 18963 O 1792.46 0.816115 -2.13429 0
M  V30 18964 C 1792.67 -2.75274 -2.14535 0
M  V30 18965 C 1794.02 -3.24198 -2.74192 0
M  V30 18966 O 1795.04 -2.76293 -2.24813 0
M  V30 18967 O 1793.9 -4.07593 -3.64047 0
M  V30 18968 H 1791 -0.592546 -0.576904 0
M  V30 18969 H 1793.54 -1.6119 -0.530636 0
M  V30 18970 H 1792.32 -3.59949 -1.53469 0
M  V30 18971 H 1791.94 -2.6508 -2.96342 0
M  V30 18972 N 1792.94 0.765193 -1.37777 0
M  V30 18973 C 1794.18 1.52096 -1.33084 0
M  V30 18974 C 1794.5 1.94827 0.08221 0
M  V30 18975 O 1793.77 1.66787 1.02757 0
M  V30 18976 H 1792.35 0.564139 -0.489649 0
M  V30 18977 H 1795.02 0.910308 -1.72335 0
M  V30 18978 H 1794.11 2.4173 -1.97416 0
M  V30 18979 N 1794.41 1.22455 0.992094 0
M  V30 18980 C 1795.82 1.04629 1.54627 0
M  V30 18981 C 1796.18 -0.390011 1.92285 0
M  V30 18982 O 1795.3 -1.27511 1.74842 0
M  V30 18983 C 1795.9 1.89306 2.80978 0
M  V30 18984 C 1794.45 1.75775 3.32836 0
M  V30 18985 C 1793.6 1.85724 2.05917 0
M  V30 18986 H 1796.55 1.36288 0.813089 0
M  V30 18987 H 1796.57 1.41095 3.53373 0
M  V30 18988 H 1796.09 2.93836 2.53539 0
M  V30 18989 H 1794.19 0.739821 3.65181 0
M  V30 18990 H 1794.3 2.58491 4.03385 0
M  V30 18991 H 1792.66 1.29173 2.19514 0
M  V30 18992 H 1793.45 2.91787 1.80874 0
M  V30 18993 N 1795.89 -1.18905 1.03437 0
M  V30 18994 C 1796.84 -2.22318 0.619933 0
M  V30 18995 C 1797.81 -1.61948 -0.369056 0
M  V30 18996 O 1798.99 -1.88958 -0.26447 0
M  V30 18997 C 1796.13 -3.45096 -0.0174579 0
M  V30 18998 C 1795.25 -4.19829 1.01823 0
M  V30 18999 C 1794.38 -5.30046 0.350026 0
M  V30 19000 C 1793.42 -5.96543 1.37125 0
M  V30 19001 N 1792.56 -6.98311 0.728458 0
M  V30 19002 H 1797.4 -2.57125 1.50634 0
M  V30 19003 H 1794.93 -1.26324 0.753695 0
M  V30 19004 H 1796.89 -4.15236 -0.404294 0
M  V30 19005 H 1795.52 -3.10927 -0.867412 0
M  V30 19006 H 1794.57 -3.48578 1.52308 0
M  V30 19007 H 1795.89 -4.65415 1.79416 0
M  V30 19008 H 1795.04 -6.06631 -0.0913585 0
M  V30 19009 H 1793.78 -4.85544 -0.458049 0
M  V30 19010 H 1792.78 -5.18703 1.82284 0
M  V30 19011 H 1794.01 -6.43127 2.18091 0
M  V30 19012 H 1791.96 -6.55973 -0.0594251 0
M  V30 19013 H 1791.87 -7.42117 1.44218 0
M  V30 19014 H 1793.14 -7.78878 0.311259 0
M  V30 19015 N 1797.37 -0.812977 -1.35013 0
M  V30 19016 C 1798.78 -0.45647 -1.81034 0
M  V30 19017 C 1799.13 1.02217 -1.6747 0
M  V30 19018 O 1798.26 1.79478 -1.20898 0
M  V30 19019 C 1798.85 -0.821773 -3.28683 0
M  V30 19020 C 1797.41 -0.517776 -3.72822 0
M  V30 19021 C 1796.56 -1.04399 -2.56897 0
M  V30 19022 H 1799.51 -1.00405 -1.22901 0
M  V30 19023 H 1799.53 -0.12173 -3.80305 0
M  V30 19024 H 1799.04 -1.89799 -3.38523 0
M  V30 19025 H 1797.14 0.549446 -3.68527 0
M  V30 19026 H 1797.26 -1.05488 -4.67343 0
M  V30 19027 H 1795.62 -0.466002 -2.50401 0
M  V30 19028 H 1796.4 -2.12645 -2.69512 0
M  V30 19029 N 1798.85 1.47045 -0.567045 0
M  V30 19030 C 1799.78 2.27106 0.223156 0
M  V30 19031 C 1800.76 1.34662 0.911315 0
M  V30 19032 O 1801.94 1.64055 0.92834 0
M  V30 19033 C 1799.07 3.1197 1.31879 0
M  V30 19034 C 1798.12 4.20064 0.738145 0
M  V30 19035 S 1798.95 5.33828 -0.422892 0
M  V30 19036 C 1800.1 6.22257 0.674324 0
M  V30 19037 H 1800.34 2.93779 -0.456193 0
M  V30 19038 H 1797.87 1.50297 -0.353581 0
M  V30 19039 H 1799.83 3.61432 1.9462 0
M  V30 19040 H 1798.49 2.44641 1.97002 0
M  V30 19041 H 1797.68 4.7921 1.56122 0
M  V30 19042 H 1797.28 3.73534 0.186721 0
M  V30 19043 H 1799.58 6.59201 1.56398 0
M  V30 19044 H 1800.52 7.07998 0.11999 0
M  V30 19045 H 1800.93 5.56079 0.971422 0
M  V30 19046 N 1800.33 0.304 1.5464 0
M  V30 19047 C 1801.74 -0.188042 1.85751 0
M  V30 19048 C 1802.09 -1.53186 1.22591 0
M  V30 19049 O 1801.21 -2.09943 0.524696 0
M  V30 19050 C 1801.81 -0.347976 3.37008 0
M  V30 19051 C 1800.37 -0.784238 3.68139 0
M  V30 19052 C 1799.51 0.105654 2.77099 0
M  V30 19053 H 1802.46 0.524918 1.49767 0
M  V30 19054 H 1802.49 -1.18207 3.61673 0
M  V30 19055 H 1802 0.630227 3.82949 0
M  V30 19056 H 1800.1 -1.77288 3.27719 0
M  V30 19057 H 1800.21 -0.601546 4.75309 0
M  V30 19058 H 1798.58 -0.415561 2.51287 0
M  V30 19059 H 1799.36 1.08027 3.25861 0
M  V30 19060 N 1801.8 -1.57568 0.0317802 0
M  V30 19061 C 1803.21 -1.79693 -0.506679 0
M  V30 19062 C 1803.57 -0.94229 -1.72091 0
M  V30 19063 O 1802.69 -0.153435 -2.15855 0
M  V30 19064 C 1803.29 -3.259 -0.925978 0
M  V30 19065 C 1801.84 -3.49012 -1.40953 0
M  V30 19066 C 1800.99 -2.74746 -0.375509 0
M  V30 19067 H 1803.94 -1.56592 0.257798 0
M  V30 19068 H 1803.96 -3.35757 -1.79017 0
M  V30 19069 H 1803.48 -3.88077 -0.0420441 0
M  V30 19070 H 1801.58 -2.9209 -2.31331 0
M  V30 19071 H 1801.69 -4.57725 -1.41508 0
M  V30 19072 H 1800.05 -2.40303 -0.844187 0
M  V30 19073 H 1800.84 -3.39639 0.500005 0
M  V30 19074 N 1803.28 0.241399 -1.5574 0
M  V30 19075 C 1804.51 0.984645 -1.81627 0
M  V30 19076 C 1804.92 1.79234 -0.605959 0
M  V30 19077 O 1804.26 1.78479 0.434841 0
M  V30 19078 C 1804.33 1.96647 -3.00949 0
M  V30 19079 C 1803.99 1.34519 -4.36754 0
M  V30 19080 C 1804.99 0.744925 -5.14536 0
M  V30 19081 C 1802.67 1.3629 -4.83457 0
M  V30 19082 C 1804.67 0.170657 -6.37171 0
M  V30 19083 C 1802.35 0.784784 -6.0604 0
M  V30 19084 C 1803.35 0.189694 -6.82737 0
M  V30 19085 O 1803.04 -0.379483 -8.03004 0
M  V30 19086 H 1802.77 0.295118 -0.608179 0
M  V30 19087 H 1805.32 0.267851 -2.03646 0
M  V30 19088 H 1803.55 2.72172 -2.74699 0
M  V30 19089 H 1805.24 2.5736 -3.1388 0
M  V30 19090 H 1806.01 0.723706 -4.7957 0
M  V30 19091 H 1801.89 1.81548 -4.23747 0
M  V30 19092 H 1805.43 -0.294459 -6.96978 0
M  V30 19093 H 1801.33 0.803348 -6.40482 0
M  V30 19094 H 1802.1 -0.271879 -8.18048 0
M  V30 19095 N 1804.76 1.49212 0.507292 0
M  V30 19096 C 1805.99 1.62343 1.29072 0
M  V30 19097 C 1806.41 0.292387 1.85814 0
M  V30 19098 O 1805.77 -0.739145 1.65549 0
M  V30 19099 C 1805.82 2.69017 2.40129 0
M  V30 19100 O 1804.92 2.27753 3.43806 0
M  V30 19101 H 1804.26 0.543591 0.38132 0
M  V30 19102 H 1806.79 1.95358 0.607997 0
M  V30 19103 H 1806.8 2.90992 2.85985 0
M  V30 19104 H 1805.48 3.65638 1.98195 0
M  V30 19105 H 1804.05 2.16084 3.03912 0
M  V30 19106 N 1806.24 -0.757876 1.38181 0
M  V30 19107 C 1807.46 -1.55221 1.37555 0
M  V30 19108 C 1807.89 -1.8807 -0.0336083 0
M  V30 19109 O 1807.25 -1.50258 -1.0145 0
M  V30 19110 C 1807.29 -2.83064 2.23399 0
M  V30 19111 O 1806.4 -3.78034 1.64814 0
M  V30 19112 H 1805.74 -0.469644 0.469394 0
M  V30 19113 H 1808.27 -0.936923 1.81887 0
M  V30 19114 H 1808.28 -3.32031 2.37106 0
M  V30 19115 H 1806.95 -2.58485 3.2582 0
M  V30 19116 H 1805.53 -3.36723 1.60225 0
M  V30 19117 N 1807.72 -1.22979 -0.985586 0
M  V30 19118 C 1808.65 -0.949615 -2.07503 0
M  V30 19119 C 1809.63 0.110178 -1.62226 0
M  V30 19120 O 1810.81 -0.022974 -1.88486 0
M  V30 19121 C 1807.94 -0.429626 -3.35964 0
M  V30 19122 C 1806.98 -1.47522 -4.00174 0
M  V30 19123 S 1807.82 -3.05095 -4.40088 0
M  V30 19124 C 1808.97 -2.54753 -5.71709 0
M  V30 19125 H 1809.21 -1.87215 -2.3095 0
M  V30 19126 H 1806.74 -1.06167 -1.12107 0
M  V30 19127 H 1808.7 -0.136212 -4.10274 0
M  V30 19128 H 1807.36 0.471907 -3.10535 0
M  V30 19129 H 1806.55 -1.06142 -4.92697 0
M  V30 19130 H 1806.15 -1.71772 -3.3222 0
M  V30 19131 H 1808.45 -1.9645 -6.48393 0
M  V30 19132 H 1809.39 -3.45795 -6.17925 0
M  V30 19133 H 1809.8 -1.95785 -5.29461 0
M  V30 19134 N 1809.19 1.18355 -1.04066 0
M  V30 19135 C 1810.44 1.88335 -0.744046 0
M  V30 19136 C 1810.77 1.80353 0.728219 0
M  V30 19137 O 1810.02 1.19839 1.54717 0
M  V30 19138 C 1810.32 3.38203 -1.15557 0
M  V30 19139 C 1809.99 3.66389 -2.62812 0
M  V30 19140 C 1808.65 3.73791 -3.03041 0
M  V30 19141 C 1811 3.78773 -3.58023 0
M  V30 19142 C 1808.33 3.91056 -4.37369 0
M  V30 19143 C 1810.68 3.97554 -4.92071 0
M  V30 19144 C 1809.35 4.03192 -5.3197 0
M  V30 19145 H 1808.62 0.689168 -0.272266 0
M  V30 19146 H 1811.26 1.40087 -1.30568 0
M  V30 19147 H 1809.57 3.8843 -0.512741 0
M  V30 19148 H 1811.27 3.90691 -0.903428 0
M  V30 19149 H 1807.86 3.61244 -2.30652 0
M  V30 19150 H 1812.04 3.72386 -3.28089 0
M  V30 19151 H 1807.3 3.93665 -4.67801 0
M  V30 19152 H 1811.47 4.06078 -5.65751 0
M  V30 19153 H 1809.1 4.16323 -6.36066 0
M  V30 19154 N 1810.67 0.820125 1.3458 0
M  V30 19155 C 1811.92 0.403287 1.97627 0
M  V30 19156 C 1812.23 -1.0385 1.65754 0
M  V30 19157 O 1813.44 -1.55911 2.2227 0
M  V30 19158 C 1811.9 0.670161 3.53606 0
M  V30 19159 C 1811.5 2.12538 3.94375 0
M  V30 19160 C 1813.25 0.31935 4.23297 0
M  V30 19161 C 1811.16 2.3373 5.43254 0
M  V30 19162 H 1810.09 0.147062 0.739519 0
M  V30 19163 H 1812.74 1.00609 1.53461 0
M  V30 19164 H 1811.12 -0.00276896 3.96 0
M  V30 19165 H 1812.29 2.83724 3.63094 0
M  V30 19166 H 1810.61 2.43736 3.37612 0
M  V30 19167 H 1813.2 0.45555 5.32756 0
M  V30 19168 H 1813.55 -0.735875 4.09745 0
M  V30 19169 H 1814.08 0.946743 3.8637 0
M  V30 19170 H 1810.82 3.37747 5.61789 0
M  V30 19171 H 1810.34 1.67084 5.76058 0
M  V30 19172 H 1812.02 2.1595 6.09897 0
M  V30 19173 N 1812.15 -1.46743 0.574835 0
M  V30 19174 C 1813.08 -2.33012 -0.150836 0
M  V30 19175 C 1814.06 -1.44868 -0.891472 0
M  V30 19176 O 1815.25 -1.73698 -0.868481 0
M  V30 19177 C 1812.38 -3.26995 -1.17012 0
M  V30 19178 C 1811.33 -4.24518 -0.544829 0
M  V30 19179 C 1810.66 -5.07951 -1.67002 0
M  V30 19180 C 1811.96 -5.19776 0.512891 0
M  V30 19181 H 1813.65 -2.93935 0.569433 0
M  V30 19182 H 1811.2 -1.41344 0.275289 0
M  V30 19183 H 1813.15 -3.86198 -1.68609 0
M  V30 19184 H 1811.87 -2.64163 -1.92056 0
M  V30 19185 H 1810.53 -3.66566 -0.0500133 0
M  V30 19186 H 1810.18 -4.4151 -2.40993 0
M  V30 19187 H 1809.88 -5.73991 -1.25732 0
M  V30 19188 H 1811.4 -5.70017 -2.1889 0
M  V30 19189 H 1812.82 -5.73241 0.0823064 0
M  V30 19190 H 1811.22 -5.94114 0.845462 0
M  V30 19191 H 1812.29 -4.64184 1.40217 0
M  V30 19192 N 1813.63 -0.312197 -1.54477 0
M  V30 19193 C 1814.85 0.298829 -2.05236 0
M  V30 19194 C 1815.28 1.45881 -1.18745 0
M  V30 19195 O 1814.64 1.80259 -0.193999 0
M  V30 19196 C 1814.68 0.722008 -3.53298 0
M  V30 19197 O 1813.79 1.82562 -3.6979 0
M  V30 19198 H 1813.13 0.0560985 -0.661626 0
M  V30 19199 H 1815.66 -0.4573 -1.99424 0
M  V30 19200 H 1815.67 1.00777 -3.95358 0
M  V30 19201 H 1814.34 -0.12647 -4.15708 0
M  V30 19202 H 1812.92 1.53954 -3.39636 0
M  V30 19203 N 1815.11 1.57549 -0.040136 0
M  V30 19204 C 1816.33 1.96557 0.645986 0
M  V30 19205 C 1816.75 0.91717 1.65026 0
M  V30 19206 O 1816.11 -0.0998395 1.82227 0
M  V30 19207 C 1816.16 3.35641 1.34266 0
M  V30 19208 O 1815.88 4.36461 0.378616 0
M  V30 19209 C 1817.38 3.89344 2.11957 0
M  V30 19210 H 1814.6 0.64713 0.177379 0
M  V30 19211 H 1817.14 2.0424 -0.103167 0
M  V30 19212 H 1815.3 3.29143 2.04312 0
M  V30 19213 H 1815.71 5.17157 0.874592 0
M  V30 19214 H 1817.19 4.88975 2.5614 0
M  V30 19215 H 1817.66 3.24178 2.96319 0
M  V30 19216 H 1818.27 3.99145 1.46845 0
M  V30 19217 N 1816.58 -0.233136 1.55866 0
M  V30 19218 C 1817.81 -0.976415 1.82411 0
M  V30 19219 C 1818.23 -1.78409 0.617724 0
M  V30 19220 O 1817.58 -1.77749 -0.413709 0
M  V30 19221 C 1817.64 -1.90328 3.07339 0
M  V30 19222 O 1817.36 -1.12828 4.23322 0
M  V30 19223 C 1818.86 -2.76142 3.46786 0
M  V30 19224 H 1816.08 -0.2867 0.606666 0
M  V30 19225 H 1818.62 -0.251863 2.02943 0
M  V30 19226 H 1816.78 -2.58193 2.88816 0
M  V30 19227 H 1817.19 -1.75643 4.94216 0
M  V30 19228 H 1818.66 -3.36901 4.37266 0
M  V30 19229 H 1819.14 -3.47953 2.68003 0
M  V30 19230 H 1819.75 -2.13708 3.67708 0
M  V30 19231 N 1818.06 -1.49479 -0.499372 0
M  V30 19232 C 1819.01 -1.66756 -1.62158 0
M  V30 19233 C 1820.01 -0.533485 -1.6078 0
M  V30 19234 O 1821.21 -0.713167 -1.65269 0
M  V30 19235 H 1817.59 -0.525853 -0.537571 0
M  V30 19236 H 1819.56 -2.60947 -1.44738 0
M  V30 19237 C 1818.31 -1.75287 -3.00283 0
M  V30 19238 H 1817.63 -2.61928 -3.02049 0
M  V30 19239 H 1819.07 -1.91411 -3.78336 0
M  V30 19240 C 1817.53 -0.498056 -3.33198 0
M  V30 19241 O 1818.06 0.375528 -3.99941 0
M  V30 19242 N 1816.26 -0.360513 -2.88355 0
M  V30 19243 H 1815.81 -1.0724 -2.34216 0
M  V30 19244 H 1815.77 0.477981 -3.10745 0
M  V30 19245 N 1819.54 0.750537 -1.38581 0
M  V30 19246 C 1820.95 1.32802 -1.31227 0
M  V30 19247 C 1821.3 1.96176 0.0305372 0
M  V30 19248 O 1820.43 1.95272 0.932614 0
M  V30 19249 C 1821.02 2.41468 -2.37652 0
M  V30 19250 C 1819.58 2.94929 -2.33867 0
M  V30 19251 C 1818.73 1.68339 -2.20357 0
M  V30 19252 H 1821.68 0.549187 -1.48895 0
M  V30 19253 H 1821.7 3.21481 -2.03544 0
M  V30 19254 H 1821.21 1.95313 -3.35372 0
M  V30 19255 H 1819.31 3.45404 -1.39738 0
M  V30 19256 H 1819.43 3.491 -3.28125 0
M  V30 19257 H 1817.79 1.92082 -1.67262 0
M  V30 19258 H 1818.57 1.24258 -3.20023 0
M  V30 19259 N 1821.02 1.235 0.979051 0
M  V30 19260 C 1821.95 1.04183 2.08969 0
M  V30 19261 C 1822.93 -0.041685 1.70049 0
M  V30 19262 O 1824.12 0.123217 1.93809 0
M  V30 19263 C 1821.25 0.633696 3.4147 0
M  V30 19264 C 1820.2 1.66471 3.94299 0
M  V30 19265 C 1819.53 1.11198 5.2301 0
M  V30 19266 C 1820.83 3.05804 4.23416 0
M  V30 19267 H 1822.52 1.9708 2.25388 0
M  V30 19268 H 1820.07 0.948963 1.08308 0
M  V30 19269 H 1822.02 0.485599 4.18593 0
M  V30 19270 H 1820.74 -0.330958 3.24919 0
M  V30 19271 H 1819.4 1.80082 3.19321 0
M  V30 19272 H 1819.05 0.138264 5.0281 0
M  V30 19273 H 1818.75 1.80087 5.59323 0
M  V30 19274 H 1820.27 0.975759 6.02753 0
M  V30 19275 H 1821.69 2.95487 4.91284 0
M  V30 19276 H 1820.08 3.71944 4.70933 0
M  V30 19277 H 1821.15 3.54695 3.30635 0
M  V30 19278 N 1822.5 -1.17802 1.04693 0
M  V30 19279 C 1823.91 -1.39944 0.76733 0
M  V30 19280 C 1824.11 -1.91051 -0.640451 0
M  V30 19281 O 1823.17 -2.09889 -1.40366 0
M  V30 19282 C 1824.48 -2.39465 1.81871 0
M  V30 19283 C 1826.03 -2.5318 1.84035 0
M  V30 19284 C 1826.51 -3.55971 2.88182 0
M  V30 19285 N 1828 -3.63484 2.87113 0
M  V30 19286 C 1828.73 -4.42762 3.64348 0
M  V30 19287 N 1828.23 -5.25597 4.51353 0
M  V30 19288 N 1830.02 -4.37586 3.52809 0
M  V30 19289 H 1822.17 -0.829567 1.9553 0
M  V30 19290 H 1824.43 -0.427009 0.846385 0
M  V30 19291 H 1824.14 -2.08974 2.82883 0
M  V30 19292 H 1824.01 -3.38899 1.65612 0
M  V30 19293 H 1826.4 -2.82984 0.836908 0
M  V30 19294 H 1826.48 -1.53837 2.04371 0
M  V30 19295 H 1826.13 -3.26906 3.88709 0
M  V30 19296 H 1826.06 -4.55006 2.65099 0
M  V30 19297 H 1828.55 -3.04338 2.24024 0
M  V30 19298 H 1828.86 -5.83258 5.06981 0
M  V30 19299 H 1827.21 -5.24996 4.55417 0
M  V30 19300 H 1830.4 -3.71924 2.84236 0
M  V30 19301 H 1830.57 -4.99128 4.13249 0
M  V30 19302 N 1823.98 -0.827251 -1.34143 0
M  V30 19303 C 1825.39 -0.513554 -1.51112 0
M  V30 19304 C 1825.59 0.961434 -1.77084 0
M  V30 19305 O 1824.65 1.74573 -1.82429 0
M  V30 19306 C 1825.96 -1.37683 -2.67327 0
M  V30 19307 C 1827.51 -1.3744 -2.8121 0
M  V30 19308 C 1827.98 -2.22226 -4.00474 0
M  V30 19309 N 1829.47 -2.19873 -4.07689 0
M  V30 19310 C 1830.21 -2.82222 -4.99138 0
M  V30 19311 N 1829.71 -3.53578 -5.95781 0
M  V30 19312 N 1831.5 -2.71753 -4.92043 0
M  V30 19313 H 1823.65 -1.78222 -1.15545 0
M  V30 19314 H 1825.91 -0.759711 -0.567047 0
M  V30 19315 H 1825.62 -2.42448 -2.54778 0
M  V30 19316 H 1825.49 -1.0446 -3.62447 0
M  V30 19317 H 1827.88 -0.334525 -2.93198 0
M  V30 19318 H 1827.96 -1.74663 -1.86886 0
M  V30 19319 H 1827.6 -3.26266 -3.89246 0
M  V30 19320 H 1827.53 -1.82352 -4.9402 0
M  V30 19321 H 1830.03 -1.67972 -3.38517 0
M  V30 19322 H 1830.34 -3.98387 -6.62199 0
M  V30 19323 H 1828.68 -3.57685 -5.95892 0
M  V30 19324 H 1831.87 -2.15579 -4.15504 0
M  V30 19325 H 1832.05 -3.2063 -5.63117 0
M  V30 19326 N 1825.45 1.46436 -0.582609 0
M  V30 19327 C 1826.38 2.33089 0.138477 0
M  V30 19328 C 1827.36 1.45339 0.883777 0
M  V30 19329 O 1828.55 1.74156 0.859257 0
M  V30 19330 C 1825.68 3.27611 1.15276 0
M  V30 19331 C 1824.63 4.24801 0.522308 0
M  V30 19332 C 1823.96 5.0883 1.64306 0
M  V30 19333 C 1825.26 5.19496 -0.540449 0
M  V30 19334 H 1826.95 2.93629 -0.585013 0
M  V30 19335 H 1824.5 1.41196 -0.282781 0
M  V30 19336 H 1826.45 3.87087 1.66558 0
M  V30 19337 H 1825.18 2.65177 1.90653 0
M  V30 19338 H 1823.84 3.66587 0.0305728 0
M  V30 19339 H 1823.48 4.42782 2.38649 0
M  V30 19340 H 1823.18 5.74649 1.22686 0
M  V30 19341 H 1824.71 5.7117 2.15864 0
M  V30 19342 H 1826.12 5.73189 -0.112706 0
M  V30 19343 H 1824.52 5.93658 -0.876957 0
M  V30 19344 H 1825.59 4.63434 -1.42677 0
M  V30 19345 N 1826.93 0.320385 1.54309 0
M  V30 19346 C 1828.17 -0.283775 2.02421 0
M  V30 19347 C 1828.54 -1.49594 1.20357 0
M  V30 19348 O 1829.74 -2.17275 1.58256 0
M  V30 19349 C 1828.01 -0.612699 3.52109 0
M  V30 19350 S 1829.57 -1.19697 4.22159 0
M  V30 19351 H 1826.38 -0.0860212 0.705777 0
M  V30 19352 H 1828.99 0.452768 1.90185 0
M  V30 19353 H 1827.69 0.277697 4.09459 0
M  V30 19354 H 1827.22 -1.37952 3.68419 0
M  V30 19355 H 1829.24 -2.48394 4.29552 0
M  V30 19356 N 1828.41 -1.57525 0.0484906 0
M  V30 19357 C 1829.36 -2.07883 -0.936407 0
M  V30 19358 C 1830.34 -0.983413 -1.27349 0
M  V30 19359 O 1831.54 -1.24678 -1.25636 0
M  V30 19360 C 1828.66 -2.6252 -2.2122 0
M  V30 19361 C 1827.75 -3.79027 -1.90262 0
M  V30 19362 N 1828.14 -4.889 -1.29653 0
M  V30 19363 C 1826.44 -3.87881 -2.20147 0
M  V30 19364 C 1827.14 -5.69963 -1.16265 0
M  V30 19365 N 1826.12 -5.17485 -1.66465 0
M  V30 19366 H 1829.92 -2.90229 -0.463091 0
M  V30 19367 H 1827.43 -1.61649 -0.156032 0
M  V30 19368 H 1829.43 -2.96899 -2.92671 0
M  V30 19369 H 1828.09 -1.81612 -2.6916 0
M  V30 19370 H 1829.1 -5.08753 -0.969081 0
M  V30 19371 H 1825.78 -3.17911 -2.70626 0
M  V30 19372 H 1827.17 -6.68323 -0.692351 0
M  V30 19373 N 1829.89 0.224867 -1.55988 0
M  V30 19374 C 1831.12 0.965325 -1.82661 0
M  V30 19375 C 1831.53 1.78581 -0.624935 0
M  V30 19376 O 1830.87 1.7893 0.415886 0
M  V30 19377 C 1830.93 1.93444 -3.03018 0
M  V30 19378 C 1830.59 1.29879 -4.38156 0
M  V30 19379 C 1831.59 0.69031 -5.15297 0
M  V30 19380 C 1829.28 1.31155 -4.84875 0
M  V30 19381 C 1831.27 0.103067 -6.37317 0
M  V30 19382 C 1828.96 0.720461 -6.06838 0
M  V30 19383 C 1829.96 0.11727 -6.82899 0
M  V30 19384 O 1829.64 -0.464631 -8.02556 0
M  V30 19385 H 1829.38 0.288651 -0.611275 0
M  V30 19386 H 1831.93 0.246237 -2.03919 0
M  V30 19387 H 1830.16 2.69243 -2.7757 0
M  V30 19388 H 1831.85 2.54017 -3.16592 0
M  V30 19389 H 1832.61 0.672801 -4.80311 0
M  V30 19390 H 1828.49 1.77044 -4.25648 0
M  V30 19391 H 1832.04 -0.368366 -6.96627 0
M  V30 19392 H 1827.93 0.735372 -6.41298 0
M  V30 19393 H 1828.7 -0.358628 -8.17714 0
M  V30 19394 N 1831.37 1.49742 0.491438 0
M  V30 19395 C 1832.61 1.58956 1.24161 0
M  V30 19396 C 1832.93 0.285882 1.935 0
M  V30 19397 O 1834.13 0.256678 2.70284 0
M  V30 19398 C 1832.59 2.805 2.25494 0
M  V30 19399 C 1832.2 4.17664 1.62051 0
M  V30 19400 C 1833.94 2.99049 3.0128 0
M  V30 19401 C 1831.85 5.3042 2.61551 0
M  V30 19402 H 1830.78 0.591883 0.467108 0
M  V30 19403 H 1833.43 1.76144 0.514364 0
M  V30 19404 H 1831.81 2.56827 3.01423 0
M  V30 19405 H 1832.99 4.51512 0.9205 0
M  V30 19406 H 1831.3 4.04553 0.986211 0
M  V30 19407 H 1833.9 3.80458 3.75707 0
M  V30 19408 H 1834.24 2.0998 3.59464 0
M  V30 19409 H 1834.77 3.22807 2.32466 0
M  V30 19410 H 1831.51 6.21579 2.08135 0
M  V30 19411 H 1831.03 5.01014 3.29765 0
M  V30 19412 H 1832.71 5.60152 3.23789 0
M  V30 19413 N 1832.84 -0.743177 1.38977 0
M  V30 19414 C 1833.77 -1.87047 1.3977 0
M  V30 19415 C 1834.76 -1.68068 0.262161 0
M  V30 19416 O 1835.94 -1.88507 0.466782 0
M  V30 19417 C 1833.07 -3.24701 1.23234 0
M  V30 19418 C 1832.02 -3.58302 2.34102 0
M  V30 19419 C 1831.35 -4.94805 2.02663 0
M  V30 19420 C 1832.65 -3.62111 3.76395 0
M  V30 19421 H 1834.34 -1.8664 2.34107 0
M  V30 19422 H 1831.89 -0.896541 1.12686 0
M  V30 19423 H 1833.84 -4.03228 1.22412 0
M  V30 19424 H 1832.57 -3.25614 0.253638 0
M  V30 19425 H 1831.23 -2.82099 2.34128 0
M  V30 19426 H 1830.87 -4.92289 1.0325 0
M  V30 19427 H 1830.57 -5.18254 2.76922 0
M  V30 19428 H 1832.1 -5.75699 2.03477 0
M  V30 19429 H 1833.51 -4.30731 3.78343 0
M  V30 19430 H 1831.91 -3.97075 4.49946 0
M  V30 19431 H 1832.98 -2.62099 4.07961 0
M  V30 19432 N 1834.32 -1.24018 -0.972487 0
M  V30 19433 C 1835.27 -1.02594 -2.08752 0
M  V30 19434 C 1836.26 0.0376128 -1.69358 0
M  V30 19435 O 1837.47 -0.116549 -1.79622 0
M  V30 19436 H 1833.85 -0.314713 -0.682979 0
M  V30 19437 H 1835.82 -1.97163 -2.23985 0
M  V30 19438 C 1834.57 -0.642298 -3.41716 0
M  V30 19439 H 1833.89 -1.45243 -3.72484 0
M  V30 19440 H 1835.33 -0.531964 -4.2065 0
M  V30 19441 C 1833.79 0.650173 -3.30567 0
M  V30 19442 O 1834.32 1.6972 -3.64085 0
M  V30 19443 N 1832.52 0.629085 -2.83709 0
M  V30 19444 H 1832.07 -0.223302 -2.5663 0
M  V30 19445 H 1832.03 1.49407 -2.76631 0
M  V30 19446 N 1835.8 1.17245 -1.05316 0
M  V30 19447 C 1836.73 2.23491 -0.67631 0
M  V30 19448 C 1837.71 1.66937 0.326507 0
M  V30 19449 O 1838.9 1.93127 0.203823 0
M  V30 19450 C 1836.03 3.47262 -0.0515755 0
M  V30 19451 C 1834.98 4.16646 -0.97929 0
M  V30 19452 C 1834.31 5.34254 -0.218369 0
M  V30 19453 C 1835.61 4.68736 -2.30399 0
M  V30 19454 H 1837.3 2.55269 -1.56455 0
M  V30 19455 H 1834.85 1.22699 -0.753714 0
M  V30 19456 H 1836.8 4.20805 0.223865 0
M  V30 19457 H 1835.52 3.14755 0.871614 0
M  V30 19458 H 1834.18 3.45017 -1.23931 0
M  V30 19459 H 1833.83 4.97998 0.707624 0
M  V30 19460 H 1833.53 5.81615 -0.83654 0
M  V30 19461 H 1835.05 6.1058 0.0497574 0
M  V30 19462 H 1836.47 5.3391 -2.08837 0
M  V30 19463 H 1834.87 5.2668 -2.87625 0
M  V30 19464 H 1835.94 3.85477 -2.94169 0
M  V30 19465 N 1837.28 0.834353 1.33702 0
M  V30 19466 C 1838.69 0.52156 1.50837 0
M  V30 19467 C 1838.89 -0.95203 1.77591 0
M  V30 19468 O 1837.95 -1.73603 1.83353 0
M  V30 19469 C 1839.26 1.39099 2.66593 0
M  V30 19470 C 1840.81 1.3893 2.80477 0
M  V30 19471 C 1841.29 2.24347 3.9929 0
M  V30 19472 N 1842.78 2.22032 4.06517 0
M  V30 19473 C 1843.51 2.84865 4.97634 0
M  V30 19474 N 1843.01 3.56732 5.93897 0
M  V30 19475 N 1844.8 2.74359 4.90595 0
M  V30 19476 H 1836.95 1.78832 1.14598 0
M  V30 19477 H 1839.22 0.762708 0.563011 0
M  V30 19478 H 1838.92 2.43795 2.53489 0
M  V30 19479 H 1838.8 1.06381 3.61888 0
M  V30 19480 H 1841.18 0.350069 2.93016 0
M  V30 19481 H 1841.26 1.75652 1.85957 0
M  V30 19482 H 1840.91 3.28326 3.8751 0
M  V30 19483 H 1840.84 1.84969 4.93046 0
M  V30 19484 H 1843.33 1.69765 3.37621 0
M  V30 19485 H 1843.64 4.01893 6.60077 0
M  V30 19486 H 1841.99 3.6084 5.93986 0
M  V30 19487 H 1845.18 2.17779 4.14355 0
M  V30 19488 H 1845.35 3.23612 5.61408 0
M  V30 19489 N 1838.76 -1.46125 0.590367 0
M  V30 19490 C 1839.99 -2.06427 0.0846072 0
M  V30 19491 C 1840.39 -1.43847 -1.22901 0
M  V30 19492 O 1839.74 -0.540694 -1.75562 0
M  V30 19493 C 1839.8 -3.59197 -0.147484 0
M  V30 19494 C 1839.46 -4.44014 1.0817 0
M  V30 19495 C 1840.46 -4.80073 1.99564 0
M  V30 19496 C 1838.15 -4.85033 1.3057 0
M  V30 19497 C 1840.14 -5.55987 3.117 0
M  V30 19498 C 1837.83 -5.60705 2.43009 0
M  V30 19499 C 1838.82 -5.96097 3.33403 0
M  V30 19500 O 1838.51 -6.70237 4.43889 0
M  V30 19501 H 1838.24 -0.673504 0.0580399 0
M  V30 19502 H 1840.8 -1.88624 0.81302 0
M  V30 19503 H 1839.03 -3.75336 -0.930597 0
M  V30 19504 H 1840.72 -4.014 -0.602702 0
M  V30 19505 H 1841.48 -4.48955 1.83478 0
M  V30 19506 H 1837.36 -4.56931 0.611158 0
M  V30 19507 H 1840.91 -5.8353 3.8228 0
M  V30 19508 H 1836.8 -5.91236 2.59056 0
M  V30 19509 H 1837.57 -6.8867 4.42353 0
M  V30 19510 N 1840.23 -0.328564 -1.54137 0
M  V30 19511 C 1841.48 0.272505 -2.00658 0
M  V30 19512 C 1841.81 1.51748 -1.21666 0
M  V30 19513 O 1841.06 1.93566 -0.288224 0
M  V30 19514 C 1841.36 0.646813 -3.51498 0
M  V30 19515 C 1841.03 -0.499561 -4.48124 0
M  V30 19516 C 1839.69 -0.8142 -4.74262 0
M  V30 19517 C 1842.04 -1.26936 -5.05506 0
M  V30 19518 C 1839.37 -1.90127 -5.55039 0
M  V30 19519 C 1841.72 -2.34656 -5.87469 0
M  V30 19520 C 1840.39 -2.66696 -6.11906 0
M  V30 19521 H 1839.66 0.0997168 -0.73426 0
M  V30 19522 H 1842.3 -0.453377 -1.86056 0
M  V30 19523 H 1840.61 1.45319 -3.63854 0
M  V30 19524 H 1842.31 1.12352 -3.84939 0
M  V30 19525 H 1838.9 -0.244255 -4.27903 0
M  V30 19526 H 1843.08 -1.03954 -4.85291 0
M  V30 19527 H 1838.34 -2.15392 -5.72203 0
M  V30 19528 H 1842.51 -2.94745 -6.3095 0
M  V30 19529 H 1840.14 -3.51058 -6.74287 0
M  V30 19530 N 1841.71 1.57497 -0.0568439 0
M  V30 19531 C 1842.62 2.1535 0.930668 0
M  V30 19532 C 1843.64 1.11276 1.33767 0
M  V30 19533 O 1844.81 1.43472 1.41343 0
M  V30 19534 C 1841.88 2.69165 2.18521 0
M  V30 19535 C 1840.94 3.88057 1.83603 0
M  V30 19536 C 1840.17 4.39296 3.03076 0
M  V30 19537 O 1840.4 3.89588 4.16627 0
M  V30 19538 O 1839.33 5.30814 2.8376 0
M  V30 19539 H 1843.16 3.00063 0.468623 0
M  V30 19540 H 1840.74 1.48482 0.16538 0
M  V30 19541 H 1842.62 3.03721 2.92116 0
M  V30 19542 H 1841.3 1.8752 2.63852 0
M  V30 19543 H 1840.21 3.5838 1.07306 0
M  V30 19544 H 1841.54 4.70949 1.43066 0
M  V30 19545 N 1843.19 -0.216591 1.56105 0
M  V30 19546 C 1844.12 -1.29579 1.87842 0
M  V30 19547 C 1845.1 -1.44974 0.73629 0
M  V30 19548 O 1846.29 -1.60708 0.985151 0
M  V30 19549 C 1843.41 -2.66544 2.08979 0
M  V30 19550 C 1842.46 -2.68136 3.3167 0
M  V30 19551 S 1843.29 -2.21708 4.87448 0
M  V30 19552 C 1844.45 -3.60539 5.11627 0
M  V30 19553 H 1844.68 -1.02465 2.79085 0
M  V30 19554 H 1842.21 -0.419071 1.48604 0
M  V30 19555 H 1844.17 -3.45394 2.2184 0
M  V30 19556 H 1842.83 -2.90879 1.18524 0
M  V30 19557 H 1842.03 -3.68796 3.4352 0
M  V30 19558 H 1841.63 -1.97352 3.17692 0
M  V30 19559 H 1843.92 -4.56263 5.0083 0
M  V30 19560 H 1844.86 -3.53601 6.13491 0
M  V30 19561 H 1845.27 -3.54456 4.39342 0
M  V30 19562 N 1844.67 -1.5 -0.48349 0
M  V30 19563 C 1845.91 -1.61998 -1.24644 0
M  V30 19564 C 1846.27 -0.307758 -1.89517 0
M  V30 19565 O 1847.47 -0.303059 -2.67086 0
M  V30 19566 C 1845.74 -2.75914 -2.27171 0
M  V30 19567 S 1847.3 -3.0797 -3.1257 0
M  V30 19568 H 1844.12 -0.571218 -0.423357 0
M  V30 19569 H 1846.72 -1.87734 -0.545555 0
M  V30 19570 H 1845.43 -3.69755 -1.7807 0
M  V30 19571 H 1844.96 -2.52225 -3.01904 0
M  V30 19572 H 1846.97 -2.50839 -4.28129 0
M  V30 19573 N 1846.15 0.735796 -1.39369 0
M  V30 19574 C 1847.4 1.49079 -1.35861 0
M  V30 19575 C 1847.71 1.95553 0.0429472 0
M  V30 19576 O 1848.91 2.70758 0.200614 0
M  V30 19577 C 1847.37 2.69375 -2.38674 0
M  V30 19578 C 1846.98 2.29854 -3.8454 0
M  V30 19579 C 1848.72 3.47199 -2.44239 0
M  V30 19580 C 1846.63 3.46868 -4.78996 0
M  V30 19581 H 1845.56 0.559825 -0.505086 0
M  V30 19582 H 1848.21 0.80271 -1.65012 0
M  V30 19583 H 1846.59 3.40253 -2.02592 0
M  V30 19584 H 1847.77 1.66527 -4.29657 0
M  V30 19585 H 1846.08 1.65123 -3.82261 0
M  V30 19586 H 1848.68 4.34234 -3.12002 0
M  V30 19587 H 1849.02 3.89608 -1.46668 0
M  V30 19588 H 1849.55 2.83349 -2.7921 0
M  V30 19589 H 1846.29 3.0951 -5.77827 0
M  V30 19590 H 1845.81 4.09178 -4.38558 0
M  V30 19591 H 1847.49 4.13213 -4.9786 0
M  V30 19592 N 1847.63 1.24532 0.965897 0
M  V30 19593 C 1848.56 1.06393 2.07853 0
M  V30 19594 C 1849.54 -0.0236467 1.70084 0
M  V30 19595 O 1850.72 0.143767 1.93667 0
M  V30 19596 C 1847.85 0.669877 3.40778 0
M  V30 19597 C 1846.81 1.70643 3.92511 0
M  V30 19598 C 1846.13 1.16738 5.21801 0
M  V30 19599 C 1847.43 3.10278 4.20149 0
M  V30 19600 H 1849.13 1.99459 2.23285 0
M  V30 19601 H 1846.67 0.960397 1.07296 0
M  V30 19602 H 1848.62 0.52997 4.18054 0
M  V30 19603 H 1847.35 -0.296477 3.25252 0
M  V30 19604 H 1846.01 1.83458 3.17393 0
M  V30 19605 H 1845.66 0.191586 5.02635 0
M  V30 19606 H 1845.36 1.86009 5.57382 0
M  V30 19607 H 1846.88 1.03963 6.01684 0
M  V30 19608 H 1848.29 3.00681 4.88123 0
M  V30 19609 H 1846.69 3.76918 4.66962 0
M  V30 19610 H 1847.76 3.58182 3.26854 0
M  V30 19611 N 1849.1 -1.16685 1.05936 0
M  V30 19612 C 1850.04 -2.19862 0.611219 0
M  V30 19613 C 1851.01 -1.58471 -0.364111 0
M  V30 19614 O 1852.2 -1.86499 -0.273946 0
M  V30 19615 C 1849.33 -3.38539 -0.104458 0
M  V30 19616 C 1848.37 -4.18404 0.82706 0
M  V30 19617 S 1849.2 -4.82619 2.32034 0
M  V30 19618 C 1850.36 -6.04677 1.61605 0
M  V30 19619 H 1850.59 -2.57535 1.48536 0
M  V30 19620 H 1848.13 -1.27418 0.872005 0
M  V30 19621 H 1850.08 -4.07305 -0.511162 0
M  V30 19622 H 1848.75 -2.99238 -0.954736 0
M  V30 19623 H 1847.94 -5.03261 0.272804 0
M  V30 19624 H 1847.54 -3.55113 1.17348 0
M  V30 19625 H 1849.83 -6.7123 0.919598 0
M  V30 19626 H 1850.78 -6.64645 2.44238 0
M  V30 19627 H 1851.18 -5.53675 1.1002 0
M  V30 19628 N 1850.58 -0.841432 -1.33258 0
M  V30 19629 C 1851.83 -0.439027 -1.97991 0
M  V30 19630 C 1852.16 0.999767 -1.66488 0
M  V30 19631 O 1851.44 1.69938 -0.94612 0
M  V30 19632 C 1851.72 -0.663137 -3.53941 0
M  V30 19633 C 1851.57 -2.14939 -3.95122 0
M  V30 19634 C 1852.89 -0.11094 -4.3996 0
M  V30 19635 H 1850.01 -0.160987 -0.719203 0
M  V30 19636 H 1852.65 -1.05742 -1.57856 0
M  V30 19637 H 1850.8 -0.136765 -3.88259 0
M  V30 19638 H 1852.47 -2.74082 -3.71048 0
M  V30 19639 H 1850.72 -2.63293 -3.4476 0
M  V30 19640 H 1851.39 -2.25694 -5.03752 0
M  V30 19641 H 1853.86 -0.560898 -4.12302 0
M  V30 19642 H 1852.74 -0.297416 -5.48094 0
M  V30 19643 H 1853 0.985446 -4.30977 0
M  V30 19644 N 1852.06 1.4581 -0.598108 0
M  V30 19645 C 1853.31 2.01511 -0.0872421 0
M  V30 19646 C 1853.62 1.47345 1.28642 0
M  V30 19647 O 1854.83 1.94963 1.88949 0
M  V30 19648 C 1853.28 3.59746 -0.105317 0
M  V30 19649 C 1852.89 4.22909 -1.47824 0
M  V30 19650 C 1854.64 4.23048 0.350802 0
M  V30 19651 C 1852.54 5.73268 -1.45321 0
M  V30 19652 H 1851.47 0.753448 -0.0288462 0
M  V30 19653 H 1854.12 1.67382 -0.752037 0
M  V30 19654 H 1852.51 3.91022 0.625947 0
M  V30 19655 H 1853.68 4.03221 -2.23046 0
M  V30 19656 H 1851.99 3.71763 -1.87566 0
M  V30 19657 H 1854.59 5.33286 0.388561 0
M  V30 19658 H 1854.93 3.93058 1.37155 0
M  V30 19659 H 1855.47 3.96455 -0.326889 0
M  V30 19660 H 1852.21 6.07942 -2.45126 0
M  V30 19661 H 1851.73 5.95175 -0.743436 0
M  V30 19662 H 1853.41 6.36283 -1.17275 0
M  V30 19663 N 1853.54 0.336733 1.53961 0
M  V30 19664 C 1854.5 -0.510638 2.23439 0
M  V30 19665 C 1855.5 -1.03304 1.23227 0
M  V30 19666 O 1856.69 -0.923373 1.47714 0
M  V30 19667 C 1853.82 -1.71063 2.94873 0
M  V30 19668 H 1855.02 0.0969205 2.99743 0
M  V30 19669 H 1852.57 0.0879867 1.56052 0
M  V30 19670 H 1853.3 -2.35707 2.22739 0
M  V30 19671 H 1853.09 -1.34331 3.68371 0
M  V30 19672 H 1854.58 -2.31182 3.47771 0
M  V30 19673 N 1855.02 -1.57465 0.0651956 0
M  V30 19674 C 1855.95 -2.07935 -0.940127 0
M  V30 19675 C 1856.93 -0.982966 -1.29524 0
M  V30 19676 O 1858.11 -1.25589 -1.40569 0
M  V30 19677 C 1855.24 -2.53152 -2.25014 0
M  V30 19678 C 1854.28 -3.74162 -2.04707 0
M  V30 19679 S 1855.12 -5.19166 -1.3125 0
M  V30 19680 C 1856.27 -5.6771 -2.63545 0
M  V30 19681 H 1856.51 -2.92882 -0.510656 0
M  V30 19682 H 1854.04 -1.53695 -0.147413 0
M  V30 19683 H 1856 -2.79866 -3.00309 0
M  V30 19684 H 1854.66 -1.68486 -2.65087 0
M  V30 19685 H 1853.85 -4.03768 -3.01641 0
M  V30 19686 H 1853.45 -3.47787 -1.3755 0
M  V30 19687 H 1855.74 -5.74152 -3.59661 0
M  V30 19688 H 1856.69 -6.66705 -2.38558 0
M  V30 19689 H 1857.1 -4.95498 -2.70448 0
M  V30 19690 N 1856.49 0.20831 -1.56217 0
M  V30 19691 C 1857.72 0.951404 -1.84291 0
M  V30 19692 C 1858.14 1.76616 -0.647168 0
M  V30 19693 O 1857.5 1.7674 0.404081 0
M  V30 19694 C 1857.55 1.83403 -3.10477 0
M  V30 19695 O 1856.65 2.93113 -2.90101 0
M  V30 19696 H 1855.99 0.268668 -0.607218 0
M  V30 19697 H 1858.52 0.217618 -2.03439 0
M  V30 19698 H 1858.53 2.24127 -3.40927 0
M  V30 19699 H 1857.21 1.23528 -3.97132 0
M  V30 19700 H 1855.79 2.5624 -2.70916 0
M  V30 19701 N 1857.97 1.50255 0.475528 0
M  V30 19702 C 1859.2 1.65044 1.25599 0
M  V30 19703 C 1859.62 0.331736 1.85152 0
M  V30 19704 O 1858.98 -0.703863 1.67079 0
M  V30 19705 C 1859.03 2.7405 2.34369 0
M  V30 19706 O 1858.13 2.34994 3.38897 0
M  V30 19707 H 1857.47 0.551557 0.369704 0
M  V30 19708 H 1860 1.96603 0.566422 0
M  V30 19709 H 1860.01 2.96993 2.79749 0
M  V30 19710 H 1858.69 3.6976 1.90395 0
M  V30 19711 H 1857.26 2.22481 2.9926 0
M  V30 19712 N 1859.45 -0.728395 1.39758 0
M  V30 19713 C 1860.7 -1.48357 1.3665 0
M  V30 19714 C 1861.01 -1.95573 -0.0325759 0
M  V30 19715 O 1862.22 -2.7086 -0.186252 0
M  V30 19716 C 1860.67 -2.68105 2.40099 0
M  V30 19717 C 1860.28 -2.27812 3.85754 0
M  V30 19718 C 1862.03 -3.45899 2.46077 0
M  V30 19719 C 1859.93 -3.44322 4.80828 0
M  V30 19720 H 1858.86 -0.557138 0.508048 0
M  V30 19721 H 1861.51 -0.793948 1.65435 0
M  V30 19722 H 1859.9 -3.39174 2.04394 0
M  V30 19723 H 1861.07 -1.64246 4.30534 0
M  V30 19724 H 1859.38 -1.63094 3.83131 0
M  V30 19725 H 1861.98 -4.32573 3.143 0
M  V30 19726 H 1862.32 -3.88824 1.48732 0
M  V30 19727 H 1862.86 -2.81864 2.80709 0
M  V30 19728 H 1859.6 -3.06441 5.7946 0
M  V30 19729 H 1859.12 -4.06847 4.40722 0
M  V30 19730 H 1860.8 -4.10567 5.00044 0
M  V30 19731 N 1860.93 -1.25042 -0.959279 0
M  V30 19732 C 1861.89 -1.05107 -2.03679 0
M  V30 19733 C 1862.89 -0.0054691 -1.60799 0
M  V30 19734 O 1864.08 -0.247225 -1.72437 0
M  V30 19735 C 1861.21 -0.594881 -3.35669 0
M  V30 19736 H 1862.41 -2.00753 -2.22796 0
M  V30 19737 H 1859.96 -1.07384 -1.13571 0
M  V30 19738 H 1860.69 0.364387 -3.22246 0
M  V30 19739 H 1860.48 -1.34966 -3.68139 0
M  V30 19740 H 1861.97 -0.476698 -4.1487 0
M  V30 19741 N 1862.41 1.16121 -1.06553 0
M  V30 19742 C 1863.34 2.22761 -0.699976 0
M  V30 19743 C 1864.32 1.67274 0.308783 0
M  V30 19744 O 1865.5 1.93333 0.183328 0
M  V30 19745 C 1862.63 3.47187 -0.0884044 0
M  V30 19746 C 1861.59 4.15584 -1.02343 0
M  V30 19747 C 1860.91 5.33992 -0.275022 0
M  V30 19748 C 1862.21 4.66266 -2.35358 0
M  V30 19749 H 1863.91 2.53595 -1.59153 0
M  V30 19750 H 1861.45 1.21893 -0.766686 0
M  V30 19751 H 1863.41 4.21019 0.17922 0
M  V30 19752 H 1862.13 3.15661 0.838181 0
M  V30 19753 H 1860.79 3.43683 -1.27584 0
M  V30 19754 H 1860.44 4.9872 0.654765 0
M  V30 19755 H 1860.14 5.80695 -0.898181 0
M  V30 19756 H 1861.66 6.10598 -0.0150056 0
M  V30 19757 H 1863.07 5.31665 -2.14488 0
M  V30 19758 H 1861.47 5.236 -2.93195 0
M  V30 19759 H 1862.54 3.82335 -2.98241 0
M  V30 19760 N 1863.88 0.848487 1.3281 0
M  V30 19761 C 1864.85 0.293744 2.2731 0
M  V30 19762 C 1865.85 -0.543043 1.51353 0
M  V30 19763 O 1867.04 -0.355443 1.70535 0
M  V30 19764 C 1864.17 -0.585094 3.35841 0
M  V30 19765 H 1865.36 1.12773 2.77889 0
M  V30 19766 H 1862.92 0.622329 1.43376 0
M  V30 19767 H 1863.65 -1.44114 2.9052 0
M  V30 19768 H 1863.44 0.0137777 3.92098 0
M  V30 19769 H 1864.93 -0.966203 4.06269 0
M  V30 19770 N 1865.36 -1.4549 0.605832 0
M  V30 19771 C 1866.33 -2.28964 -0.104089 0
M  V30 19772 C 1867.33 -1.39671 -0.796791 0
M  V30 19773 O 1868.52 -1.6181 -0.645221 0
M  V30 19774 C 1865.65 -3.20647 -1.1575 0
M  V30 19775 H 1866.84 -2.93213 0.629776 0
M  V30 19776 H 1864.39 -1.51983 0.3648 0
M  V30 19777 H 1865.13 -2.61194 -1.92219 0
M  V30 19778 H 1864.91 -3.86419 -0.665025 0
M  V30 19779 H 1866.4 -3.83416 -1.65474 0
M  V30 19780 N 1866.84 -0.344893 -1.5378 0
M  V30 19781 C 1867.75 0.519687 -2.28772 0
M  V30 19782 C 1868.77 1.11076 -1.33934 0
M  V30 19783 O 1869.94 1.12615 -1.66972 0
M  V30 19784 C 1867.01 1.65417 -3.04693 0
M  V30 19785 C 1866.07 1.09275 -4.1516 0
M  V30 19786 C 1865.3 2.17316 -4.87452 0
M  V30 19787 O 1865.52 3.38061 -4.59425 0
M  V30 19788 O 1864.46 1.81535 -5.73872 0
M  V30 19789 H 1868.28 -0.0899625 -3.03567 0
M  V30 19790 H 1865.87 -0.109899 -1.48995 0
M  V30 19791 H 1867.75 2.31421 -3.52168 0
M  V30 19792 H 1866.43 2.24961 -2.32754 0
M  V30 19793 H 1865.33 0.397193 -3.71985 0
M  V30 19794 H 1866.67 0.542156 -4.89205 0
M  V30 19795 N 1868.32 1.57428 -0.0735454 0
M  V30 19796 C 1869.6 1.84962 0.636265 0
M  V30 19797 C 1869.98 0.966341 1.87683 0
M  V30 19798 O 1869.32 0.0330837 2.28476 0
M  V30 19799 C 1869.53 3.35184 0.972251 0
M  V30 19800 C 1870.88 4.02735 1.34499 0
M  V30 19801 O 1871.91 3.3994 1.06393 0
M  V30 19802 O 1870.76 5.13495 1.87043 0
M  V30 19803 H 1867.86 0.764169 0.316187 0
M  V30 19804 H 1870.4 1.69377 -0.104609 0
M  V30 19805 H 1869.18 3.91194 0.0912319 0
M  V30 19806 H 1868.8 3.56038 1.76983 0
M  V30 19807 N 1869.8 -0.200022 1.56326 0
M  V30 19808 C 1871.21 -0.765141 1.70301 0
M  V30 19809 C 1871.56 -1.84066 0.679277 0
M  V30 19810 O 1870.68 -2.15768 -0.165308 0
M  V30 19811 C 1871.28 -1.39466 3.08763 0
M  V30 19812 C 1869.84 -1.90692 3.2452 0
M  V30 19813 C 1868.98 -0.77502 2.66249 0
M  V30 19814 H 1871.94 0.024977 1.5868 0
M  V30 19815 H 1871.96 -2.26396 3.05819 0
M  V30 19816 H 1871.47 -0.61165 3.8325 0
M  V30 19817 H 1869.57 -2.71728 2.54941 0
M  V30 19818 H 1869.68 -2.0721 4.31973 0
M  V30 19819 H 1868.05 -1.18802 2.25296 0
M  V30 19820 H 1868.83 -0.00432851 3.433 0
M  V30 19821 N 1871.27 -1.50505 -0.467553 0
M  V30 19822 C 1872.52 -1.6191 -1.22118 0
M  V30 19823 C 1872.85 -0.320112 -1.91544 0
M  V30 19824 O 1872.13 0.678631 -1.82277 0
M  V30 19825 C 1872.41 -2.80184 -2.26206 0
M  V30 19826 C 1872.26 -4.19975 -1.61062 0
M  V30 19827 C 1873.58 -2.94011 -3.27484 0
M  V30 19828 H 1870.7 -0.589289 -0.442615 0
M  V30 19829 H 1873.34 -1.82902 -0.514484 0
M  V30 19830 H 1871.49 -2.62417 -2.86478 0
M  V30 19831 H 1873.17 -4.4934 -1.04359 0
M  V30 19832 H 1871.41 -4.24069 -0.91365 0
M  V30 19833 H 1872.08 -4.98667 -2.36718 0
M  V30 19834 H 1874.56 -3.10288 -2.77238 0
M  V30 19835 H 1873.43 -3.78384 -3.97639 0
M  V30 19836 H 1873.69 -2.04777 -3.91815 0
M  V30 19837 N 1872.75 0.720973 -1.40142 0
M  V30 19838 C 1873.68 1.8457 -1.35891 0
M  V30 19839 C 1874.7 1.60625 -0.265232 0
M  V30 19840 O 1875.89 1.70599 -0.525198 0
M  V30 19841 C 1872.99 3.20871 -1.09064 0
M  V30 19842 C 1872.16 3.72058 -2.29982 0
M  V30 19843 C 1871.22 4.86957 -1.99397 0
M  V30 19844 O 1870.24 4.99888 -2.72213 0
M  V30 19845 N 1871.45 5.72361 -0.968645 0
M  V30 19846 H 1874.21 1.88717 -2.32822 0
M  V30 19847 H 1871.77 0.902293 -1.34426 0
M  V30 19848 H 1873.76 3.95326 -0.865979 0
M  V30 19849 H 1872.33 3.11906 -0.208188 0
M  V30 19850 H 1871.55 2.88795 -2.68312 0
M  V30 19851 H 1872.84 4.02991 -3.10605 0
M  V30 19852 H 1872.24 5.64518 -0.36546 0
M  V30 19853 H 1870.8 6.46824 -0.803886 0
M  V30 19854 N 1874.23 1.25549 0.952634 0
M  V30 19855 C 1875.64 1.09496 1.5122 0
M  V30 19856 C 1875.99 -0.328639 1.93428 0
M  V30 19857 O 1875.12 -1.21884 1.78811 0
M  V30 19858 C 1875.71 1.9815 2.74813 0
M  V30 19859 C 1874.27 1.86275 3.27076 0
M  V30 19860 C 1873.42 1.92181 1.99904 0
M  V30 19861 H 1876.37 1.38806 0.769318 0
M  V30 19862 H 1876.39 1.52265 3.48705 0
M  V30 19863 H 1875.9 3.01754 2.44062 0
M  V30 19864 H 1874 0.855627 3.62643 0
M  V30 19865 H 1874.12 2.71194 3.94957 0
M  V30 19866 H 1872.48 1.36092 2.15293 0
M  V30 19867 H 1873.26 2.97393 1.71499 0
M  V30 19868 N 1875.71 -1.15554 1.07168 0
M  V30 19869 C 1876.66 -2.22296 0.684626 0
M  V30 19870 C 1877.65 -1.66656 -0.303675 0
M  V30 19871 O 1878.86 -1.79218 -0.167588 0
M  V30 19872 H 1875.23 -0.723996 0.203306 0
M  V30 19873 H 1877.2 -2.52223 1.59456 0
M  V30 19874 C 1875.95 -3.47566 0.0965118 0
M  V30 19875 H 1875.27 -3.90701 0.848122 0
M  V30 19876 H 1876.71 -4.2378 -0.136671 0
M  V30 19877 C 1875.17 -3.16215 -1.16231 0
M  V30 19878 O 1875.7 -3.32838 -2.24903 0
M  V30 19879 N 1873.91 -2.70273 -1.06774 0
M  V30 19880 H 1873.46 -2.56947 -0.183357 0
M  V30 19881 H 1873.41 -2.49671 -1.9108 0
M  V30 19882 N 1877.19 -0.855519 -1.32358 0
M  V30 19883 C 1878.15 -0.305794 -2.27151 0
M  V30 19884 C 1879.15 0.535008 -1.51639 0
M  V30 19885 O 1880.34 0.346394 -1.70721 0
M  V30 19886 C 1877.47 0.567275 -3.36147 0
M  V30 19887 H 1878.67 -1.14245 -2.77287 0
M  V30 19888 H 1876.22 -0.629924 -1.43044 0
M  V30 19889 H 1876.95 1.42571 -2.9128 0
M  V30 19890 H 1876.74 -0.0345714 -3.92085 0
M  V30 19891 H 1878.23 0.944644 -4.06775 0
M  V30 19892 N 1878.67 1.45167 -0.61354 0
M  V30 19893 C 1880.08 1.85674 -0.19544 0
M  V30 19894 C 1880.43 1.51303 1.24908 0
M  V30 19895 O 1879.55 0.94257 1.94794 0
M  V30 19896 C 1880.15 3.37009 -0.347921 0
M  V30 19897 C 1878.71 3.76397 0.0155323 0
M  V30 19898 C 1877.85 2.69095 -0.669578 0
M  V30 19899 H 1880.8 1.35883 -0.819842 0
M  V30 19900 H 1880.83 3.78195 0.418185 0
M  V30 19901 H 1880.34 3.61994 -1.39935 0
M  V30 19902 H 1878.44 3.57028 1.06591 0
M  V30 19903 H 1878.55 4.77573 -0.382267 0
M  V30 19904 H 1876.92 2.54477 -0.10662 0
M  V30 19905 H 1877.7 2.96915 -1.72326 0
M  V30 19906 N 1880.14 0.353044 1.53595 0
M  V30 19907 C 1881.56 0.0014839 1.596 0
M  V30 19908 C 1881.76 -1.47884 1.36867 0
M  V30 19909 O 1880.82 -2.23881 1.16762 0
M  V30 19910 C 1882.13 0.446178 2.97371 0
M  V30 19911 C 1883.68 0.399329 3.10442 0
M  V30 19912 C 1884.15 0.819639 4.50606 0
M  V30 19913 N 1885.64 0.7742 4.56684 0
M  V30 19914 C 1886.38 1.07126 5.63304 0
M  V30 19915 N 1885.87 1.43696 6.77734 0
M  V30 19916 N 1887.67 0.994874 5.53226 0
M  V30 19917 H 1879.82 1.31719 1.66625 0
M  V30 19918 H 1882.08 0.537571 0.780847 0
M  V30 19919 H 1881.79 1.47869 3.19105 0
M  V30 19920 H 1881.66 -0.173715 3.768 0
M  V30 19921 H 1884.05 -0.624023 2.88427 0
M  V30 19922 H 1884.13 1.05455 2.33051 0
M  V30 19923 H 1883.77 1.84105 4.73358 0
M  V30 19924 H 1883.7 0.141795 5.26409 0
M  V30 19925 H 1886.19 0.504609 3.74516 0
M  V30 19926 H 1886.51 1.64822 7.55019 0
M  V30 19927 H 1884.85 1.4755 6.79157 0
M  V30 19928 H 1888.04 0.70845 4.62708 0
M  V30 19929 H 1888.22 1.22972 6.36225 0
M  V30 19930 N 1881.62 -1.57387 0.0818932 0
M  V30 19931 C 1882.57 -2.14508 -0.899386 0
M  V30 19932 C 1883.56 -1.08453 -1.30132 0
M  V30 19933 O 1884.77 -1.26818 -1.27739 0
M  V30 19934 H 1881.14 -0.686024 -0.308018 0
M  V30 19935 H 1883.12 -2.95804 -0.392786 0
M  V30 19936 C 1881.86 -2.72963 -2.15375 0
M  V30 19937 H 1881.19 -3.54248 -1.85333 0
M  V30 19938 H 1882.63 -3.16515 -2.82125 0
M  V30 19939 C 1881.09 -1.68212 -2.91901 0
M  V30 19940 O 1881.62 -1.11314 -3.85969 0
M  V30 19941 N 1879.82 -1.3901 -2.55195 0
M  V30 19942 H 1879.37 -1.85468 -1.78771 0
M  V30 19943 H 1879.33 -0.691582 -3.06699 0
M  V30 19944 N 1883.1 0.191729 -1.56429 0
M  V30 19945 C 1884.05 1.25706 -1.95706 0
M  V30 19946 C 1885.04 1.46938 -0.842948 0
M  V30 19947 O 1886.25 1.47759 -1.02797 0
M  V30 19948 H 1882.62 0.422099 -0.622364 0
M  V30 19949 H 1884.59 0.8988 -2.84542 0
M  V30 19950 C 1883.34 2.59366 -2.3157 0
M  V30 19951 H 1882.67 2.43845 -3.16827 0
M  V30 19952 H 1884.11 3.32646 -2.62912 0
M  V30 19953 C 1882.56 3.16609 -1.15155 0
M  V30 19954 O 1883.09 3.9941 -0.428355 0
M  V30 19955 N 1881.3 2.75402 -0.927467 0
M  V30 19956 H 1880.85 2.08172 -1.5173 0
M  V30 19957 H 1880.81 3.1404 -0.150348 0
M  V30 19958 N 1884.58 1.50751 0.459565 0
M  V30 19959 C 1885.82 1.62556 1.21258 0
M  V30 19960 C 1886.16 0.330265 1.91371 0
M  V30 19961 O 1885.43 -0.668955 1.82634 0
M  V30 19962 C 1885.71 2.8138 2.24716 0
M  V30 19963 C 1885.57 4.20823 1.58832 0
M  V30 19964 C 1886.89 2.95744 3.2592 0
M  V30 19965 H 1884.01 0.591628 0.439483 0
M  V30 19966 H 1886.65 1.83172 0.504777 0
M  V30 19967 H 1884.8 2.63933 2.85082 0
M  V30 19968 H 1886.47 4.49888 1.01975 0
M  V30 19969 H 1884.71 4.24548 0.891148 0
M  V30 19970 H 1885.38 4.99915 2.3407 0
M  V30 19971 H 1887.86 3.11754 2.75588 0
M  V30 19972 H 1886.74 3.80488 3.95626 0
M  V30 19973 H 1887 2.06852 3.90723 0
M  V30 19974 N 1886.06 -0.713531 1.40522 0
M  V30 19975 C 1886.99 -1.8404 1.43707 0
M  V30 19976 C 1887.97 -1.67474 0.297751 0
M  V30 19977 O 1889.15 -1.87474 0.506662 0
M  V30 19978 C 1886.28 -3.22014 1.30094 0
M  V30 19979 C 1885.24 -3.53255 2.4165 0
M  V30 19980 C 1884.56 -4.90395 2.13113 0
M  V30 19981 C 1885.86 -3.54045 3.83991 0
M  V30 19982 H 1887.56 -1.81632 2.38013 0
M  V30 19983 H 1885.1 -0.872437 1.14562 0
M  V30 19984 H 1887.05 -4.00541 1.30938 0
M  V30 19985 H 1885.78 -3.25002 0.322648 0
M  V30 19986 H 1884.44 -2.77069 2.40059 0
M  V30 19987 H 1884.09 -4.89988 1.13669 0
M  V30 19988 H 1883.79 -5.12264 2.87853 0
M  V30 19989 H 1885.31 -5.71254 2.15642 0
M  V30 19990 H 1886.72 -4.22609 3.87395 0
M  V30 19991 H 1885.12 -3.87441 4.58268 0
M  V30 19992 H 1886.19 -2.53387 4.13428 0
M  V30 19993 N 1887.53 -1.26053 -0.945962 0
M  V30 19994 C 1888.95 -1.03062 -1.21862 0
M  V30 19995 C 1889.15 0.247205 -1.99978 0
M  V30 19996 O 1888.21 0.957622 -2.33636 0
M  V30 19997 C 1889.52 -2.25912 -1.98455 0
M  V30 19998 C 1891.07 -2.30763 -2.11465 0
M  V30 19999 C 1891.54 -3.53292 -2.91459 0
M  V30 20000 N 1893.03 -3.53741 -2.99035 0
M  V30 20001 C 1893.77 -4.45215 -3.61347 0
M  V30 20002 N 1893.26 -5.46971 -4.25199 0
M  V30 20003 N 1895.06 -4.32877 -3.58572 0
M  V30 20004 H 1887.21 -2.08133 -0.423615 0
M  V30 20005 H 1889.47 -0.914462 -0.249926 0
M  V30 20006 H 1889.18 -3.18829 -1.48462 0
M  V30 20007 H 1889.05 -2.29777 -2.99136 0
M  V30 20008 H 1891.44 -1.38363 -2.60653 0
M  V30 20009 H 1891.52 -2.30911 -1.10062 0
M  V30 20010 H 1891.16 -4.46019 -2.4296 0
M  V30 20011 H 1891.09 -3.50391 -3.93108 0
M  V30 20012 H 1893.58 -2.80138 -2.53636 0
M  V30 20013 H 1893.9 -6.12967 -4.70629 0
M  V30 20014 H 1892.24 -5.50834 -4.238 0
M  V30 20015 H 1895.43 -3.52602 -3.07879 0
M  V30 20016 H 1895.61 -5.0436 -4.06847 0
M  V30 20017 N 1889.01 1.14984 -1.07779 0
M  V30 20018 C 1890.24 1.89472 -0.823648 0
M  V30 20019 C 1890.65 1.78499 0.627275 0
M  V30 20020 O 1889.99 1.13767 1.44232 0
M  V30 20021 C 1890.05 3.40327 -1.15835 0
M  V30 20022 C 1889.72 3.75085 -2.61075 0
M  V30 20023 C 1890.72 3.75743 -3.59323 0
M  V30 20024 C 1888.4 4.05261 -2.96765 0
M  V30 20025 C 1890.39 4.06089 -4.91295 0
M  V30 20026 C 1888.08 4.3527 -4.28932 0
M  V30 20027 C 1889.08 4.35667 -5.26007 0
M  V30 20028 O 1888.77 4.64954 -6.558 0
M  V30 20029 H 1888.5 0.607205 -0.297115 0
M  V30 20030 H 1891.05 1.46589 -1.43878 0
M  V30 20031 H 1889.28 3.83631 -0.486199 0
M  V30 20032 H 1890.97 3.96111 -0.886048 0
M  V30 20033 H 1891.74 3.52525 -3.33093 0
M  V30 20034 H 1887.62 4.04109 -2.2185 0
M  V30 20035 H 1891.16 4.06313 -5.67059 0
M  V30 20036 H 1887.06 4.57957 -4.54913 0
M  V30 20037 H 1887.83 4.82699 -6.61017 0
M  V30 20038 N 1890.49 0.862526 1.31902 0
M  V30 20039 C 1891.74 0.469775 1.96976 0
M  V30 20040 C 1892.06 -0.976339 1.6822 0
M  V30 20041 O 1891.32 -1.70131 0.967153 0
M  V30 20042 C 1891.62 0.664872 3.51161 0
M  V30 20043 C 1891.28 2.08264 3.99921 0
M  V30 20044 C 1889.95 2.47039 4.12947 0
M  V30 20045 C 1892.3 3.00762 4.25666 0
M  V30 20046 C 1889.63 3.77568 4.49065 0
M  V30 20047 C 1891.98 4.30797 4.63245 0
M  V30 20048 C 1890.64 4.69496 4.74478 0
M  V30 20049 H 1889.91 0.171903 0.720785 0
M  V30 20050 H 1892.56 1.09409 1.57169 0
M  V30 20051 H 1890.86 -0.0426255 3.91777 0
M  V30 20052 H 1892.56 0.340921 3.99548 0
M  V30 20053 H 1889.15 1.77158 3.90273 0
M  V30 20054 H 1893.34 2.72034 4.15104 0
M  V30 20055 H 1888.59 4.07323 4.55958 0
M  V30 20056 H 1892.77 5.02527 4.8212 0
M  V30 20057 H 1890.39 5.70682 5.02221 0
M  V30 20058 N 1891.97 -1.4484 0.62123 0
M  V30 20059 C 1893.25 -1.95528 0.0531511 0
M  V30 20060 C 1893.63 -1.56342 -1.41846 0
M  V30 20061 O 1892.97 -0.832621 -2.1279 0
M  V30 20062 C 1893.18 -3.47988 0.2656 0
M  V30 20063 C 1894.53 -4.24322 0.153573 0
M  V30 20064 O 1895.56 -3.55658 0.19644 0
M  V30 20065 O 1894.41 -5.46477 0.05015 0
M  V30 20066 H 1891.51 -0.826527 -0.0279665 0
M  V30 20067 H 1894.05 -1.54939 0.692243 0
M  V30 20068 H 1892.83 -3.69525 1.28713 0
M  V30 20069 H 1892.45 -3.955 -0.408105 0
M  V30 20070 N 1893.45 -0.361184 -1.53405 0
M  V30 20071 C 1894.68 0.23043 -2.05311 0
M  V30 20072 C 1895.08 1.43355 -1.23475 0
M  V30 20073 O 1894.43 1.81745 -0.267304 0
M  V30 20074 C 1894.49 0.692241 -3.52772 0
M  V30 20075 C 1894.15 -0.393597 -4.55302 0
M  V30 20076 C 1895.15 -1.24204 -5.04846 0
M  V30 20077 C 1892.84 -0.55258 -4.99251 0
M  V30 20078 C 1894.83 -2.23485 -5.96936 0
M  V30 20079 C 1892.52 -1.54876 -5.91149 0
M  V30 20080 C 1893.51 -2.38834 -6.39881 0
M  V30 20081 O 1893.2 -3.36753 -7.29967 0
M  V30 20082 H 1892.93 0.0451009 -0.674494 0
M  V30 20083 H 1895.49 -0.516588 -1.98798 0
M  V30 20084 H 1893.72 1.49079 -3.56809 0
M  V30 20085 H 1895.41 1.20637 -3.87559 0
M  V30 20086 H 1896.17 -1.13039 -4.71643 0
M  V30 20087 H 1892.05 0.0911198 -4.6091 0
M  V30 20088 H 1895.6 -2.89053 -6.34897 0
M  V30 20089 H 1891.49 -1.66091 -6.23766 0
M  V30 20090 H 1892.26 -3.32431 -7.47952 0
M  V30 20091 N 1894.92 1.57341 -0.0902386 0
M  V30 20092 C 1896.17 1.94464 0.575461 0
M  V30 20093 C 1896.5 0.971819 1.68135 0
M  V30 20094 O 1895.78 0.00405665 1.945 0
M  V30 20095 C 1896.06 3.41739 1.13518 0
M  V30 20096 C 1895.91 4.49787 0.0346821 0
M  V30 20097 C 1897.23 3.90222 2.03506 0
M  V30 20098 H 1894.35 0.707123 0.207716 0
M  V30 20099 H 1896.99 1.89325 -0.15996 0
M  V30 20100 H 1895.14 3.46249 1.76192 0
M  V30 20101 H 1896.82 4.5739 -0.599326 0
M  V30 20102 H 1895.06 4.29166 -0.632342 0
M  V30 20103 H 1895.73 5.50021 0.467044 0
M  V30 20104 H 1898.21 3.87834 1.50744 0
M  V30 20105 H 1897.08 4.93846 2.39598 0
M  V30 20106 H 1897.34 3.29232 2.95057 0
M  V30 20107 N 1896.4 -0.183431 1.56529 0
M  V30 20108 C 1897.65 -0.901995 1.81302 0
M  V30 20109 C 1897.98 -1.82765 0.665368 0
M  V30 20110 O 1897.23 -1.92578 -0.348162 0
M  V30 20111 C 1897.53 -1.74055 3.12153 0
M  V30 20112 C 1897.2 -0.964866 4.40456 0
M  V30 20113 C 1895.86 -0.750741 4.75308 0
M  V30 20114 C 1898.21 -0.419915 5.19506 0
M  V30 20115 C 1895.54 0.0196291 5.86697 0
M  V30 20116 C 1897.89 0.337305 6.317 0
M  V30 20117 C 1896.56 0.56234 6.65127 0
M  V30 20118 H 1895.83 -0.330064 0.66343 0
M  V30 20119 H 1898.47 -0.167643 1.90765 0
M  V30 20120 H 1896.78 -2.54393 2.97979 0
M  V30 20121 H 1898.47 -2.29935 3.28528 0
M  V30 20122 H 1895.06 -1.14178 4.13112 0
M  V30 20123 H 1899.25 -0.572714 4.92984 0
M  V30 20124 H 1894.5 0.203838 6.1106 0
M  V30 20125 H 1898.68 0.766889 6.92165 0
M  V30 20126 H 1896.31 1.16117 7.51279 0
M  V30 20127 N 1897.88 -1.50992 -0.451564 0
M  V30 20128 C 1899.11 -1.66741 -1.22495 0
M  V30 20129 C 1899.52 -0.358787 -1.8536 0
M  V30 20130 O 1898.88 0.661312 -1.70097 0
M  V30 20131 C 1898.93 -2.77281 -2.31943 0
M  V30 20132 O 1898.65 -4.03072 -1.71652 0
M  V30 20133 C 1900.15 -3.04175 -3.22479 0
M  V30 20134 H 1897.37 -0.55994 -0.369741 0
M  V30 20135 H 1899.92 -1.97329 -0.536785 0
M  V30 20136 H 1898.07 -2.49332 -2.965 0
M  V30 20137 H 1898.49 -4.64354 -2.43875 0
M  V30 20138 H 1899.96 -3.85137 -3.95441 0
M  V30 20139 H 1900.44 -2.16015 -3.82406 0
M  V30 20140 H 1901.04 -3.33729 -2.63638 0
M  V30 20141 N 1899.36 0.706069 -1.40899 0
M  V30 20142 C 1900.61 1.46315 -1.39415 0
M  V30 20143 C 1900.93 1.95 -0.000496593 0
M  V30 20144 O 1900.2 1.70995 0.955904 0
M  V30 20145 H 1898.78 0.542863 -0.513136 0
M  V30 20146 H 1901.44 0.836396 -1.76041 0
M  V30 20147 H 1900.54 2.33139 -2.07491 0
M  V30 20148 N 1900.84 1.26553 0.939264 0
M  V30 20149 C 1902.08 1.12376 1.68818 0
M  V30 20150 C 1902.42 -0.331784 1.91345 0
M  V30 20151 O 1901.69 -1.24359 1.4955 0
M  V30 20152 C 1901.97 1.89541 3.0618 0
M  V30 20153 C 1901.83 3.43014 2.90966 0
M  V30 20154 C 1903.15 1.69074 4.06327 0
M  V30 20155 H 1900.26 0.409616 0.612686 0
M  V30 20156 H 1902.91 1.55571 1.09076 0
M  V30 20157 H 1901.06 1.5283 3.57177 0
M  V30 20158 H 1902.73 3.89489 2.47176 0
M  V30 20159 H 1900.97 3.69942 2.26551 0
M  V30 20160 H 1901.64 3.92236 3.88401 0
M  V30 20161 H 1904.12 2.01061 3.64299 0
M  V30 20162 H 1902.99 2.25478 5.00451 0
M  V30 20163 H 1903.26 0.635787 4.37504 0
M  V30 20164 N 1902.31 -1.14411 1.08387 0
M  V30 20165 C 1903.56 -1.85444 0.813433 0
M  V30 20166 C 1903.89 -1.82932 -0.66078 0
M  V30 20167 O 1903.14 -1.25498 -1.50162 0
M  V30 20168 C 1903.44 -3.33681 1.2803 0
M  V30 20169 C 1903.11 -3.56382 2.76229 0
M  V30 20170 C 1901.77 -3.62286 3.16705 0
M  V30 20171 C 1904.12 -3.65224 3.71835 0
M  V30 20172 C 1901.45 -3.74554 4.51582 0
M  V30 20173 C 1903.8 -3.79017 5.06487 0
M  V30 20174 C 1902.47 -3.8317 5.46568 0
M  V30 20175 H 1901.74 -0.678588 0.297656 0
M  V30 20176 H 1904.38 -1.35144 1.35677 0
M  V30 20177 H 1902.69 -3.8626 0.656551 0
M  V30 20178 H 1904.39 -3.87068 1.04781 0
M  V30 20179 H 1900.98 -3.52435 2.43901 0
M  V30 20180 H 1905.16 -3.59952 3.41684 0
M  V30 20181 H 1900.42 -3.76032 4.82089 0
M  V30 20182 H 1904.59 -3.84801 5.80432 0
M  V30 20183 H 1902.22 -3.92429 6.51079 0
M  V30 20184 N 1903.79 -0.869509 -1.31443 0
M  V30 20185 C 1905.02 -0.494667 -2.009 0
M  V30 20186 C 1905.44 0.912728 -1.65272 0
M  V30 20187 O 1904.79 1.59788 -0.881702 0
M  V30 20188 C 1904.84 -0.641585 -3.55761 0
M  V30 20189 O 1904.56 -1.99356 -3.90114 0
M  V30 20190 C 1906.07 -0.267695 -4.42491 0
M  V30 20191 H 1903.29 -0.192789 -0.642708 0
M  V30 20192 H 1905.83 -1.17055 -1.67686 0
M  V30 20193 H 1903.98 -0.0132632 -3.87398 0
M  V30 20194 H 1904.4 -2.00099 -4.8483 0
M  V30 20195 H 1905.87 -0.421448 -5.50389 0
M  V30 20196 H 1906.35 0.793108 -4.3198 0
M  V30 20197 H 1906.96 -0.871698 -4.16271 0
M  V30 20198 N 1905.27 1.44508 -0.628902 0
M  V30 20199 C 1906.52 2.02066 -0.132502 0
M  V30 20200 C 1906.85 1.49446 1.24483 0
M  V30 20201 O 1906.1 0.667881 1.83951 0
M  V30 20202 C 1906.4 3.57339 -0.0660437 0
M  V30 20203 C 1906.07 4.29203 -1.38186 0
M  V30 20204 C 1904.73 4.48552 -1.74225 0
M  V30 20205 C 1907.08 4.70108 -2.25051 0
M  V30 20206 C 1904.41 5.06066 -2.96839 0
M  V30 20207 C 1906.76 5.2898 -3.46934 0
M  V30 20208 C 1905.42 5.46549 -3.83198 0
M  V30 20209 H 1904.69 0.739412 -0.048486 0
M  V30 20210 H 1907.34 1.73302 -0.814773 0
M  V30 20211 H 1905.65 3.85504 0.699588 0
M  V30 20212 H 1907.34 3.99602 0.334526 0
M  V30 20213 H 1903.93 4.14471 -1.09141 0
M  V30 20214 H 1908.12 4.54874 -1.98503 0
M  V30 20215 H 1903.37 5.17856 -3.25016 0
M  V30 20216 H 1907.55 5.59626 -4.14478 0
M  V30 20217 H 1905.17 5.90881 -4.78292 0
M  V30 20218 N 1906.75 0.369315 1.53212 0
M  V30 20219 C 1907.66 -0.483226 2.29569 0
M  V30 20220 C 1908.68 -1.08931 1.35684 0
M  V30 20221 O 1909.85 -1.09944 1.68743 0
M  V30 20222 C 1906.92 -1.60549 3.07286 0
M  V30 20223 C 1905.98 -1.02656 4.16846 0
M  V30 20224 C 1905.21 -2.09534 4.90847 0
M  V30 20225 O 1905.43 -3.30709 4.64745 0
M  V30 20226 O 1904.37 -1.72382 5.76687 0
M  V30 20227 H 1908.19 0.138246 3.03385 0
M  V30 20228 H 1905.78 0.133589 1.48802 0
M  V30 20229 H 1907.66 -2.25789 3.55805 0
M  V30 20230 H 1906.34 -2.21229 2.36303 0
M  V30 20231 H 1905.24 -0.337963 3.7257 0
M  V30 20232 H 1906.58 -0.464259 4.90006 0
M  V30 20233 N 1908.23 -1.57291 0.0985816 0
M  V30 20234 C 1909.16 -2.09882 -0.895809 0
M  V30 20235 C 1910.14 -1.01022 -1.2741 0
M  V30 20236 O 1911.32 -1.28543 -1.37873 0
M  V30 20237 C 1908.45 -2.57868 -2.19594 0
M  V30 20238 C 1907.5 -3.7842 -1.96725 0
M  V30 20239 S 1908.33 -5.21834 -1.20208 0
M  V30 20240 C 1909.48 -5.73172 -2.51444 0
M  V30 20241 H 1909.72 -2.93899 -0.448416 0
M  V30 20242 H 1907.25 -1.53973 -0.114779 0
M  V30 20243 H 1909.21 -2.86173 -2.94305 0
M  V30 20244 H 1907.87 -1.74071 -2.61454 0
M  V30 20245 H 1907.06 -4.10075 -2.93009 0
M  V30 20246 H 1906.66 -3.50627 -1.30142 0
M  V30 20247 H 1908.96 -5.81652 -3.47401 0
M  V30 20248 H 1909.9 -6.71615 -2.24362 0
M  V30 20249 H 1910.31 -5.01123 -2.59877 0
M  V30 20250 N 1909.71 0.175127 -1.56624 0
M  V30 20251 C 1910.95 0.89369 -1.82047 0
M  V30 20252 C 1911.28 1.82061 -0.675831 0
M  V30 20253 O 1910.56 1.91808 0.322453 0
M  V30 20254 C 1910.84 1.69266 -3.17838 0
M  V30 20255 C 1910.7 0.789122 -4.42824 0
M  V30 20256 C 1912.01 2.66115 -3.50529 0
M  V30 20257 H 1909.13 0.323454 -0.662228 0
M  V30 20258 H 1911.78 0.160077 -1.89324 0
M  V30 20259 H 1909.93 2.31808 -3.11765 0
M  V30 20260 H 1911.6 0.17687 -4.60961 0
M  V30 20261 H 1909.84 0.0969508 -4.33692 0
M  V30 20262 H 1910.51 1.38358 -5.34379 0
M  V30 20263 H 1912.99 2.137 -3.57031 0
M  V30 20264 H 1911.86 3.19087 -4.46626 0
M  V30 20265 H 1912.12 3.4613 -2.75038 0
M  V30 20266 N 1911.18 1.5123 0.44355 0
M  V30 20267 C 1912.43 1.62825 1.19041 0
M  V30 20268 C 1912.75 0.347298 1.92492 0
M  V30 20269 O 1913.95 0.342537 2.69331 0
M  V30 20270 C 1912.41 2.87532 2.16456 0
M  V30 20271 C 1912.02 4.22608 1.48682 0
M  V30 20272 C 1913.76 3.08483 2.91614 0
M  V30 20273 C 1911.67 5.38472 2.44544 0
M  V30 20274 H 1910.6 0.606444 0.448041 0
M  V30 20275 H 1913.25 1.77691 0.458065 0
M  V30 20276 H 1911.63 2.66287 2.931 0
M  V30 20277 H 1912.8 4.54212 0.776389 0
M  V30 20278 H 1911.12 4.07485 0.857007 0
M  V30 20279 H 1913.72 3.92219 3.63413 0
M  V30 20280 H 1914.06 2.2131 3.52601 0
M  V30 20281 H 1914.59 3.30039 2.22078 0
M  V30 20282 H 1911.33 6.27886 1.88255 0
M  V30 20283 H 1910.85 5.11252 3.13658 0
M  V30 20284 H 1912.53 5.70169 3.05804 0
M  V30 20285 N 1912.66 -0.698586 1.41271 0
M  V30 20286 C 1913.61 -1.81256 1.42881 0
M  V30 20287 C 1914.58 -1.63662 0.283562 0
M  V30 20288 O 1915.76 -1.84555 0.48416 0
M  V30 20289 C 1912.9 -3.19113 1.31381 0
M  V30 20290 C 1912.02 -3.4816 2.55751 0
M  V30 20291 C 1911.15 -4.75615 2.36566 0
M  V30 20292 C 1910.19 -4.9762 3.56427 0
M  V30 20293 N 1909.33 -6.16299 3.36332 0
M  V30 20294 H 1914.17 -1.79214 2.38089 0
M  V30 20295 H 1911.7 -0.875213 1.1823 0
M  V30 20296 H 1913.66 -3.98744 1.22716 0
M  V30 20297 H 1912.29 -3.20339 0.397831 0
M  V30 20298 H 1911.34 -2.62957 2.74878 0
M  V30 20299 H 1912.66 -3.60323 3.44918 0
M  V30 20300 H 1911.81 -5.63295 2.25352 0
M  V30 20301 H 1910.55 -4.65693 1.44851 0
M  V30 20302 H 1909.55 -4.0839 3.681 0
M  V30 20303 H 1910.78 -5.09404 4.49093 0
M  V30 20304 H 1908.73 -6.07595 2.47314 0
M  V30 20305 H 1908.64 -6.29216 4.19074 0
M  V30 20306 H 1909.91 -7.06722 3.28884 0
M  V30 20307 N 1914.14 -1.27049 -0.93254 0
M  V30 20308 C 1915.07 -1.03677 -2.03289 0
M  V30 20309 C 1916.05 0.0412728 -1.62548 0
M  V30 20310 O 1917.23 -0.102897 -1.88219 0
M  V30 20311 C 1914.36 -0.571733 -3.3384 0
M  V30 20312 C 1913.41 -1.64362 -3.93557 0
M  V30 20313 S 1914.24 -3.23486 -4.26752 0
M  V30 20314 C 1915.4 -2.78772 -5.6039 0
M  V30 20315 H 1915.63 -1.96842 -2.22802 0
M  V30 20316 H 1913.16 -1.10826 -1.07503 0
M  V30 20317 H 1915.12 -0.310101 -4.09327 0
M  V30 20318 H 1913.78 0.339773 -3.12257 0
M  V30 20319 H 1912.97 -1.26944 -4.87751 0
M  V30 20320 H 1912.58 -1.85708 -3.24636 0
M  V30 20321 H 1914.87 -2.23774 -6.39478 0
M  V30 20322 H 1915.81 -3.71692 -6.02703 0
M  V30 20323 H 1916.22 -2.18065 -5.2068 0
M  V30 20324 N 1915.62 1.13835 -1.08993 0
M  V30 20325 C 1916.87 1.84361 -0.818161 0
M  V30 20326 C 1917.18 1.84185 0.658437 0
M  V30 20327 O 1918.39 2.50559 1.04558 0
M  V30 20328 C 1916.84 3.30973 -1.41367 0
M  V30 20329 C 1916.45 3.3955 -2.92249 0
M  V30 20330 C 1918.19 4.06571 -1.22066 0
M  V30 20331 C 1916.1 4.80408 -3.44908 0
M  V30 20332 H 1915.03 0.690704 -0.302397 0
M  V30 20333 H 1917.68 1.28283 -1.31208 0
M  V30 20334 H 1916.06 3.86826 -0.84745 0
M  V30 20335 H 1917.24 2.93716 -3.5506 0
M  V30 20336 H 1915.55 2.77413 -3.10533 0
M  V30 20337 H 1918.15 5.10554 -1.58868 0
M  V30 20338 H 1918.49 4.15989 -0.160946 0
M  V30 20339 H 1919.03 3.57036 -1.75415 0
M  V30 20340 H 1915.76 4.76181 -4.5048 0
M  V30 20341 H 1915.28 5.26756 -2.86859 0
M  V30 20342 H 1916.96 5.49315 -3.4185 0
M  V30 20343 N 1917.1 0.876467 1.3098 0
M  V30 20344 C 1918.37 0.411051 1.91232 0
M  V30 20345 C 1918.75 -1.10748 1.79717 0
M  V30 20346 O 1918.1 -1.93898 1.20896 0
M  V30 20347 C 1918.31 0.899663 3.37205 0
M  V30 20348 C 1919.66 0.929615 4.14299 0
M  V30 20349 O 1920.68 0.845752 3.46014 0
M  V30 20350 O 1919.54 1.05211 5.36277 0
M  V30 20351 H 1916.64 0.12418 0.817624 0
M  V30 20352 H 1919.18 0.964808 1.39605 0
M  V30 20353 H 1917.95 1.94336 3.39631 0
M  V30 20354 H 1917.58 0.324585 3.96273 0
M  V30 20355 N 1918.57 -1.44173 0.636557 0
M  V30 20356 C 1919.5 -2.33442 -0.0518719 0
M  V30 20357 C 1920.48 -1.48519 -0.829226 0
M  V30 20358 O 1921.67 -1.77225 -0.794028 0
M  V30 20359 C 1918.8 -3.31663 -1.03038 0
M  V30 20360 C 1917.75 -4.26447 -0.364286 0
M  V30 20361 C 1917.08 -5.14577 -1.45308 0
M  V30 20362 C 1918.38 -5.17133 0.732884 0
M  V30 20363 H 1920.07 -2.91255 0.693589 0
M  V30 20364 H 1917.62 -1.40049 0.33499 0
M  V30 20365 H 1919.57 -3.93002 -1.52077 0
M  V30 20366 H 1918.3 -2.72071 -1.80679 0
M  V30 20367 H 1916.96 -3.66448 0.105505 0
M  V30 20368 H 1916.6 -4.51334 -2.22051 0
M  V30 20369 H 1916.3 -5.78807 -1.01274 0
M  V30 20370 H 1917.83 -5.78788 -1.94517 0
M  V30 20371 H 1919.24 -5.72376 0.325363 0
M  V30 20372 H 1917.64 -5.89994 1.09669 0
M  V30 20373 H 1918.71 -4.5782 1.59779 0
M  V30 20374 N 1920.05 -0.377435 -1.53014 0
M  V30 20375 C 1921.3 0.208118 -2.01026 0
M  V30 20376 C 1921.62 1.48307 -1.26609 0
M  V30 20377 O 1920.89 1.92125 -0.382732 0
M  V30 20378 H 1919.47 0.0798957 -0.742715 0
M  V30 20379 H 1922.13 -0.506396 -1.88206 0
M  V30 20380 H 1921.23 0.426737 -3.09169 0
M  V30 20381 N 1921.53 1.57237 -0.106922 0
M  V30 20382 C 1922.46 2.1769 0.844599 0
M  V30 20383 C 1923.44 1.11352 1.28587 0
M  V30 20384 O 1924.63 1.39539 1.35065 0
M  V30 20385 C 1921.76 2.76668 2.09933 0
M  V30 20386 C 1920.71 3.88482 1.79627 0
M  V30 20387 C 1920.04 4.34214 3.12029 0
M  V30 20388 C 1921.34 5.11139 1.07399 0
M  V30 20389 H 1923.03 2.97453 0.340887 0
M  V30 20390 H 1920.58 1.4308 0.162523 0
M  V30 20391 H 1922.53 3.17614 2.76946 0
M  V30 20392 H 1921.25 1.94176 2.62608 0
M  V30 20393 H 1919.91 3.48093 1.15008 0
M  V30 20394 H 1919.56 3.48597 3.62614 0
M  V30 20395 H 1919.26 5.09608 2.9253 0
M  V30 20396 H 1920.78 4.77803 3.8018 0
M  V30 20397 H 1922.2 5.4918 1.64543 0
M  V30 20398 H 1920.6 5.92038 0.980375 0
M  V30 20399 H 1921.67 4.84864 0.0586914 0
M  V30 20400 N 1923.01 -0.166818 1.56715 0
M  V30 20401 C 1924.25 -0.884023 1.82518 0
M  V30 20402 C 1924.59 -1.817 0.685477 0
M  V30 20403 O 1923.86 -1.91977 -0.312277 0
M  V30 20404 C 1924.15 -1.67578 3.18731 0
M  V30 20405 C 1924 -0.765627 4.43236 0
M  V30 20406 C 1925.32 -2.64252 3.51936 0
M  V30 20407 H 1922.44 -0.319938 0.663934 0
M  V30 20408 H 1925.08 -0.150034 1.89407 0
M  V30 20409 H 1923.23 -2.30152 3.1299 0
M  V30 20410 H 1924.9 -0.152422 4.61048 0
M  V30 20411 H 1923.14 -0.0739497 4.33737 0
M  V30 20412 H 1923.81 -1.35523 5.35105 0
M  V30 20413 H 1926.29 -2.11804 3.5816 0
M  V30 20414 H 1925.17 -3.16714 4.48312 0
M  V30 20415 H 1925.43 -3.44667 2.7687 0
M  V30 20416 N 1924.49 -1.51463 -0.435524 0
M  V30 20417 C 1925.42 -1.75856 -1.53613 0
M  V30 20418 C 1926.4 -0.608449 -1.58846 0
M  V30 20419 O 1927.58 -0.85135 -1.74544 0
M  V30 20420 C 1924.71 -1.88525 -2.91677 0
M  V30 20421 C 1923.67 -3.03972 -3.01305 0
M  V30 20422 C 1922.99 -3.01828 -4.41366 0
M  V30 20423 C 1924.29 -4.43905 -2.75219 0
M  V30 20424 H 1925.99 -2.68013 -1.33452 0
M  V30 20425 H 1923.53 -1.28968 -0.640564 0
M  V30 20426 H 1925.49 -2.04173 -3.68634 0
M  V30 20427 H 1924.21 -0.930179 -3.13074 0
M  V30 20428 H 1922.87 -2.88033 -2.26788 0
M  V30 20429 H 1922.52 -2.04095 -4.59733 0
M  V30 20430 H 1922.22 -3.79353 -4.48737 0
M  V30 20431 H 1923.74 -3.19572 -5.20294 0
M  V30 20432 H 1925.15 -4.60187 -3.41908 0
M  V30 20433 H 1923.55 -5.2315 -2.93998 0
M  V30 20434 H 1924.62 -4.53818 -1.70814 0
M  V30 20435 N 1925.96 0.691085 -1.4164 0
M  V30 20436 C 1926.91 1.79718 -1.40305 0
M  V30 20437 C 1927.9 1.58502 -0.276751 0
M  V30 20438 O 1929.09 1.69258 -0.517761 0
M  V30 20439 C 1926.22 3.18059 -1.29203 0
M  V30 20440 C 1925.31 3.44954 -2.46714 0
M  V30 20441 N 1925.7 3.42522 -3.72172 0
M  V30 20442 C 1923.99 3.75521 -2.40624 0
M  V30 20443 C 1924.7 3.68447 -4.50135 0
M  V30 20444 N 1923.67 3.88412 -3.80312 0
M  V30 20445 H 1927.47 1.76207 -2.3522 0
M  V30 20446 H 1924.99 0.891261 -1.35758 0
M  V30 20447 H 1926.98 3.97299 -1.26329 0
M  V30 20448 H 1925.64 3.22778 -0.352775 0
M  V30 20449 H 1926.66 3.22799 -4.04996 0
M  V30 20450 H 1923.33 3.87584 -1.55193 0
M  V30 20451 H 1924.72 3.72665 -5.5908 0
M  V30 20452 N 1927.44 1.27542 0.925789 0
M  V30 20453 C 1928.37 1.06229 2.03096 0
M  V30 20454 C 1929.39 0.0177734 1.6279 0
M  V30 20455 O 1930.58 0.259539 1.76603 0
M  V30 20456 C 1927.68 0.589777 3.33729 0
M  V30 20457 C 1926.85 1.70701 4.02716 0
M  V30 20458 C 1925.91 1.22991 5.11624 0
M  V30 20459 O 1924.93 1.92993 5.35483 0
M  V30 20460 N 1926.14 0.086593 5.80435 0
M  V30 20461 H 1928.9 2.01401 2.21941 0
M  V30 20462 H 1926.46 1.19134 1.0963 0
M  V30 20463 H 1928.45 0.254459 4.03899 0
M  V30 20464 H 1927.02 -0.268762 3.11443 0
M  V30 20465 H 1926.24 2.21252 3.26253 0
M  V30 20466 H 1927.53 2.45679 4.45555 0
M  V30 20467 H 1926.93 -0.497638 5.63507 0
M  V30 20468 H 1925.49 -0.189533 6.51524 0
M  V30 20469 N 1928.92 -1.13255 1.09595 0
M  V30 20470 C 1930.17 -1.84206 0.831411 0
M  V30 20471 C 1930.49 -1.8403 -0.64483 0
M  V30 20472 O 1929.76 -1.29728 -1.46791 0
M  V30 20473 H 1928.34 -0.682085 0.304579 0
M  V30 20474 H 1931 -1.37183 1.38444 0
M  V30 20475 H 1930.1 -2.88667 1.18649 0
M  V30 20476 N 1930.4 -0.883401 -1.30514 0
M  V30 20477 C 1931.36 -0.353908 -2.26451 0
M  V30 20478 C 1932.36 0.502723 -1.52739 0
M  V30 20479 O 1933.55 0.310104 -1.71418 0
M  V30 20480 C 1930.68 0.495846 -3.37275 0
M  V30 20481 H 1931.88 -1.20101 -2.74801 0
M  V30 20482 H 1929.43 -0.660124 -1.41676 0
M  V30 20483 H 1930.16 1.3636 -2.94239 0
M  V30 20484 H 1929.95 -0.117731 -3.91923 0
M  V30 20485 H 1931.44 0.858149 -4.08688 0
M  V30 20486 N 1931.88 1.43833 -0.644194 0
M  V30 20487 C 1933.11 2.0597 -0.161163 0
M  V30 20488 C 1933.51 1.48309 1.17478 0
M  V30 20489 O 1932.86 0.60548 1.73435 0
M  V30 20490 C 1932.92 3.59497 0.014069 0
M  V30 20491 C 1932.58 4.39693 -1.24575 0
M  V30 20492 C 1933.58 4.72336 -2.17244 0
M  V30 20493 C 1931.27 4.79853 -1.48481 0
M  V30 20494 C 1933.26 5.44036 -3.3212 0
M  V30 20495 C 1930.95 5.51299 -2.63652 0
M  V30 20496 C 1931.94 5.83312 -3.55297 0
M  V30 20497 O 1931.63 6.53301 -4.68458 0
M  V30 20498 H 1931.36 0.670886 -0.0829965 0
M  V30 20499 H 1933.92 1.85477 -0.882467 0
M  V30 20500 H 1932.15 3.78531 0.790652 0
M  V30 20501 H 1933.84 4.03361 0.453309 0
M  V30 20502 H 1934.6 4.41836 -2.00014 0
M  V30 20503 H 1930.48 4.54348 -0.780324 0
M  V30 20504 H 1934.03 5.6894 -4.03674 0
M  V30 20505 H 1929.92 5.81214 -2.80821 0
M  V30 20506 H 1930.69 6.71778 -4.67607 0
M  V30 20507 N 1933.35 0.385544 1.52811 0
M  V30 20508 C 1934.6 -0.197845 2.01531 0
M  V30 20509 C 1934.93 -1.47128 1.27215 0
M  V30 20510 O 1934.18 -1.92363 0.359866 0
M  V30 20511 C 1934.48 -0.515911 3.53657 0
M  V30 20512 C 1934.15 0.665535 4.45961 0
M  V30 20513 C 1932.81 0.989658 4.70913 0
M  V30 20514 C 1935.16 1.4561 5.00447 0
M  V30 20515 C 1932.49 2.10596 5.476 0
M  V30 20516 C 1934.84 2.56298 5.78355 0
M  V30 20517 C 1933.51 2.89223 6.01587 0
M  V30 20518 H 1932.78 -0.0723965 0.737455 0
M  V30 20519 H 1935.42 0.522118 1.84245 0
M  V30 20520 H 1933.73 -1.31715 3.68996 0
M  V30 20521 H 1935.43 -0.979874 3.88844 0
M  V30 20522 H 1932.02 0.4029 4.26702 0
M  V30 20523 H 1936.2 1.21893 4.81098 0
M  V30 20524 H 1931.46 2.3648 5.63815 0
M  V30 20525 H 1935.63 3.1796 6.19576 0
M  V30 20526 H 1933.26 3.75842 6.60793 0
M  V30 20527 N 1934.83 -1.57178 0.115259 0
M  V30 20528 C 1936.25 -1.57765 -0.241345 0
M  V30 20529 C 1936.45 -1.12775 -1.66985 0
M  V30 20530 O 1935.5 -0.813419 -2.39039 0
M  V30 20531 C 1936.82 -3.00698 -0.0114291 0
M  V30 20532 C 1938.37 -3.12904 -0.0776187 0
M  V30 20533 C 1938.84 -4.57831 0.124557 0
M  V30 20534 N 1940.33 -4.63146 0.0703998 0
M  V30 20535 C 1941.07 -5.73045 0.20179 0
M  V30 20536 N 1940.56 -6.91706 0.389143 0
M  V30 20537 N 1942.36 -5.61922 0.141629 0
M  V30 20538 H 1934.51 -1.84725 1.04836 0
M  V30 20539 H 1936.77 -0.853542 0.412517 0
M  V30 20540 H 1936.48 -3.37886 0.975995 0
M  V30 20541 H 1936.35 -3.69771 -0.744947 0
M  V30 20542 H 1938.74 -2.75575 -1.05556 0
M  V30 20543 H 1938.82 -2.46382 0.687719 0
M  V30 20544 H 1938.46 -4.95857 1.09946 0
M  V30 20545 H 1938.39 -5.22439 -0.660721 0
M  V30 20546 H 1940.88 -3.77833 -0.0710442 0
M  V30 20547 H 1941.2 -7.71306 0.480365 0
M  V30 20548 H 1939.54 -6.93699 0.425069 0
M  V30 20549 H 1942.73 -4.681 -0.00374873 0
M  V30 20550 H 1942.9 -6.47527 0.24747 0
M  V30 20551 N 1936.31 0.158505 -1.56801 0
M  V30 20552 C 1937.59 0.901061 -1.73609 0
M  V30 20553 C 1937.97 1.99842 -0.680163 0
M  V30 20554 O 1937.32 2.26484 0.302892 0
M  V30 20555 C 1937.53 1.45407 -3.17266 0
M  V30 20556 C 1938.87 1.92199 -3.78609 0
M  V30 20557 O 1939.9 1.55173 -3.20624 0
M  V30 20558 O 1938.76 2.60443 -4.80449 0
M  V30 20559 H 1935.85 0.425009 -0.709434 0
M  V30 20560 H 1938.4 0.14533 -1.69077 0
M  V30 20561 H 1937.17 0.664882 -3.8561 0
M  V30 20562 H 1936.79 2.27363 -3.26178 0
M  V30 20563 N 1937.79 1.51692 0.427485 0
M  V30 20564 C 1938.72 1.76668 1.52679 0
M  V30 20565 C 1939.7 0.616865 1.58521 0
M  V30 20566 O 1940.89 0.860595 1.7409 0
M  V30 20567 C 1938.02 1.9007 2.90673 0
M  V30 20568 C 1936.97 3.05566 2.99689 0
M  V30 20569 C 1936.3 3.04165 4.39759 0
M  V30 20570 C 1937.6 4.45359 2.72861 0
M  V30 20571 H 1939.29 2.68717 1.32029 0
M  V30 20572 H 1936.84 1.29306 0.633716 0
M  V30 20573 H 1938.79 2.06125 3.67546 0
M  V30 20574 H 1937.51 0.946769 3.12576 0
M  V30 20575 H 1936.17 2.89231 2.25257 0
M  V30 20576 H 1935.82 2.0653 4.58644 0
M  V30 20577 H 1935.52 3.81727 4.46719 0
M  V30 20578 H 1937.04 3.22326 5.18592 0
M  V30 20579 H 1938.46 4.61993 3.39463 0
M  V30 20580 H 1936.85 5.24701 2.91219 0
M  V30 20581 H 1937.92 4.54717 1.68405 0
M  V30 20582 N 1939.27 -0.683564 1.42004 0
M  V30 20583 C 1940.51 -1.44433 1.43215 0
M  V30 20584 C 1940.87 -1.92348 0.0445644 0
M  V30 20585 O 1940.16 -1.6742 -0.931726 0
M  V30 20586 C 1940.36 -2.66286 2.38383 0
M  V30 20587 C 1940.18 -2.30293 3.86258 0
M  V30 20588 C 1938.95 -2.20076 4.54857 0
M  V30 20589 C 1941.15 -1.92498 4.76916 0
M  V30 20590 N 1939.13 -1.77094 5.87802 0
M  V30 20591 C 1940.51 -1.60367 5.98901 0
M  V30 20592 C 1942.56 -1.79413 4.64452 0
M  V30 20593 C 1941.26 -1.16466 7.09809 0
M  V30 20594 C 1943.29 -1.36916 5.75333 0
M  V30 20595 C 1942.65 -1.05704 6.96424 0
M  V30 20596 H 1938.75 -0.525345 0.579255 0
M  V30 20597 H 1941.33 -0.789697 1.77966 0
M  V30 20598 H 1939.51 -3.29452 2.05708 0
M  V30 20599 H 1941.24 -3.32829 2.30233 0
M  V30 20600 H 1937.99 -2.38861 4.08953 0
M  V30 20601 H 1938.42 -1.58051 6.58292 0
M  V30 20602 H 1943.06 -2.02193 3.71319 0
M  V30 20603 H 1940.78 -0.924313 8.02796 0
M  V30 20604 H 1944.36 -1.27325 5.67697 0
M  V30 20605 H 1943.24 -0.733189 7.80765 0
M  V30 20606 N 1940.75 -1.28031 -0.919012 0
M  V30 20607 C 1941.69 -1.11355 -2.04213 0
M  V30 20608 C 1942.69 -0.0342517 -1.69365 0
M  V30 20609 O 1943.89 -0.192628 -1.78966 0
M  V30 20610 H 1940.27 -0.343397 -0.669016 0
M  V30 20611 H 1942.24 -2.06485 -2.15421 0
M  V30 20612 C 1940.99 -0.786653 -3.38684 0
M  V30 20613 H 1940.31 -1.6091 -3.65989 0
M  V30 20614 H 1941.75 -0.709897 -4.18015 0
M  V30 20615 C 1940.21 0.509383 -3.33027 0
M  V30 20616 O 1940.74 1.54125 -3.70956 0
M  V30 20617 N 1938.95 0.508188 -2.86122 0
M  V30 20618 H 1938.49 -0.331947 -2.55452 0
M  V30 20619 H 1938.45 1.37539 -2.82719 0
M  V30 20620 N 1942.22 1.12672 -1.10194 0
M  V30 20621 C 1943.47 1.83483 -0.837668 0
M  V30 20622 C 1943.79 1.84873 0.638864 0
M  V30 20623 O 1944.99 2.51654 1.01895 0
M  V30 20624 C 1943.45 3.29455 -1.4487 0
M  V30 20625 C 1943.06 3.36431 -2.95834 0
M  V30 20626 C 1944.8 4.05254 -1.26371 0
M  V30 20627 C 1942.71 4.76723 -3.49984 0
M  V30 20628 H 1941.64 0.687458 -0.309706 0
M  V30 20629 H 1944.29 1.26884 -1.32562 0
M  V30 20630 H 1942.67 3.85905 -0.88843 0
M  V30 20631 H 1943.84 2.89934 -3.58155 0
M  V30 20632 H 1942.16 2.74104 -3.13458 0
M  V30 20633 H 1944.76 5.0884 -1.64274 0
M  V30 20634 H 1945.1 4.15795 -0.205058 0
M  V30 20635 H 1945.63 3.55155 -1.79192 0
M  V30 20636 H 1942.37 4.71376 -4.55505 0
M  V30 20637 H 1941.89 5.23684 -2.9243 0
M  V30 20638 H 1943.57 5.45659 -3.47657 0
M  V30 20639 N 1943.7 0.89031 1.30043 0
M  V30 20640 C 1944.63 0.377386 2.3043 0
M  V30 20641 C 1945.61 -0.542607 1.61213 0
M  V30 20642 O 1946.8 -0.455328 1.88787 0
M  V30 20643 C 1943.93 -0.404264 3.44939 0
M  V30 20644 C 1942.88 0.424448 4.2589 0
M  V30 20645 C 1942.21 -0.48413 5.32504 0
M  V30 20646 C 1943.51 1.6694 4.94902 0
M  V30 20647 H 1945.2 1.21628 2.73582 0
M  V30 20648 H 1942.75 0.586299 1.31524 0
M  V30 20649 H 1944.7 -0.773769 4.14235 0
M  V30 20650 H 1943.42 -1.27685 3.00606 0
M  V30 20651 H 1942.08 0.776162 3.58289 0
M  V30 20652 H 1941.73 -1.35458 4.84417 0
M  V30 20653 H 1941.43 0.0665939 5.87562 0
M  V30 20654 H 1942.96 -0.850034 6.04654 0
M  V30 20655 H 1944.37 1.37017 5.56686 0
M  V30 20656 H 1942.77 2.16073 5.59851 0
M  V30 20657 H 1943.84 2.41077 4.20725 0
M  V30 20658 N 1945.18 -1.43489 0.651812 0
M  V30 20659 C 1946.46 -1.95371 0.0946135 0
M  V30 20660 C 1946.84 -1.59316 -1.38498 0
M  V30 20661 O 1946.18 -0.87757 -2.10976 0
M  V30 20662 C 1946.39 -3.47346 0.339353 0
M  V30 20663 C 1947.74 -4.23901 0.243543 0
M  V30 20664 O 1948.77 -3.55161 0.271836 0
M  V30 20665 O 1947.63 -5.46248 0.166055 0
M  V30 20666 H 1944.72 -0.826934 -0.0104284 0
M  V30 20667 H 1947.27 -1.53436 0.724952 0
M  V30 20668 H 1946.04 -3.66712 1.36522 0
M  V30 20669 H 1945.66 -3.96277 -0.324122 0
M  V30 20670 N 1946.66 -0.393643 -1.52605 0
M  V30 20671 C 1947.9 0.187154 -2.01633 0
M  V30 20672 C 1948.23 1.46451 -1.27993 0
M  V30 20673 O 1947.49 1.92169 -0.370063 0
M  V30 20674 C 1947.79 0.497148 -3.53925 0
M  V30 20675 C 1947.45 -0.689176 -4.45602 0
M  V30 20676 C 1946.11 -1.01462 -4.70382 0
M  V30 20677 C 1948.47 -1.48262 -4.99668 0
M  V30 20678 C 1945.79 -2.13497 -5.46476 0
M  V30 20679 C 1948.15 -2.59361 -5.76987 0
M  V30 20680 C 1946.81 -2.92409 -6.00044 0
M  V30 20681 H 1946.08 0.0684846 -0.737828 0
M  V30 20682 H 1948.73 -0.531882 -1.83965 0
M  V30 20683 H 1947.03 1.29756 -3.6969 0
M  V30 20684 H 1948.73 0.959239 -3.89358 0
M  V30 20685 H 1945.32 -0.425524 -4.26482 0
M  V30 20686 H 1949.5 -1.24443 -4.80445 0
M  V30 20687 H 1944.76 -2.39467 -5.62553 0
M  V30 20688 H 1948.93 -3.21241 -6.17881 0
M  V30 20689 H 1946.56 -3.79341 -6.5879 0
M  V30 20690 N 1948.14 1.57115 -0.123593 0
M  V30 20691 C 1949.38 1.94527 0.533131 0
M  V30 20692 C 1949.7 1.0095 1.67536 0
M  V30 20693 O 1950.9 1.27846 2.39515 0
M  V30 20694 C 1949.36 3.45735 0.999783 0
M  V30 20695 C 1948.97 4.47854 -0.114238 0
M  V30 20696 C 1950.71 3.92057 1.62762 0
M  V30 20697 C 1948.62 5.90245 0.36937 0
M  V30 20698 H 1947.55 0.726179 0.20293 0
M  V30 20699 H 1950.2 1.8236 -0.204183 0
M  V30 20700 H 1948.58 3.53151 1.79166 0
M  V30 20701 H 1949.76 4.52111 -0.890627 0
M  V30 20702 H 1948.07 4.11311 -0.649019 0
M  V30 20703 H 1950.67 4.9586 2.00067 0
M  V30 20704 H 1951.01 3.3229 2.50777 0
M  V30 20705 H 1951.54 3.8746 0.901074 0
M  V30 20706 H 1948.28 6.53778 -0.474837 0
M  V30 20707 H 1947.8 5.89399 1.11214 0
M  V30 20708 H 1949.48 6.41666 0.829093 0
M  V30 20709 N 1949.61 -0.150187 1.56883 0
M  V30 20710 C 1950.86 -0.864615 1.83446 0
M  V30 20711 C 1951.19 -1.80963 0.70471 0
M  V30 20712 O 1950.47 -1.92297 -0.291897 0
M  V30 20713 C 1950.75 -1.64188 3.20491 0
M  V30 20714 C 1950.6 -0.718573 4.44023 0
M  V30 20715 C 1951.92 -2.60505 3.54719 0
M  V30 20716 H 1949.04 -0.312878 0.66729 0
M  V30 20717 H 1951.68 -0.129937 1.89555 0
M  V30 20718 H 1949.83 -2.26819 3.15413 0
M  V30 20719 H 1951.51 -0.103513 4.61184 0
M  V30 20720 H 1949.75 -0.0279419 4.33791 0
M  V30 20721 H 1950.42 -1.29839 5.36513 0
M  V30 20722 H 1952.9 -2.07993 3.60386 0
M  V30 20723 H 1951.77 -3.11941 4.51646 0
M  V30 20724 H 1952.03 -3.41711 2.8051 0
M  V30 20725 N 1951.09 -1.51916 -0.419434 0
M  V30 20726 C 1952.34 -1.65714 -1.16905 0
M  V30 20727 C 1952.67 -0.380888 -1.90428 0
M  V30 20728 O 1951.95 0.620297 -1.84344 0
M  V30 20729 C 1952.23 -2.87239 -2.17177 0
M  V30 20730 C 1952.08 -4.24887 -1.47619 0
M  V30 20731 C 1953.4 -3.04281 -3.17964 0
M  V30 20732 H 1950.52 -0.603072 -0.423643 0
M  V30 20733 H 1953.16 -1.84446 -0.456035 0
M  V30 20734 H 1951.31 -2.71398 -2.77984 0
M  V30 20735 H 1952.98 -4.52433 -0.900112 0
M  V30 20736 H 1951.23 -4.26761 -0.778273 0
M  V30 20737 H 1951.9 -5.05945 -2.20733 0
M  V30 20738 H 1954.37 -3.18951 -2.67226 0
M  V30 20739 H 1953.25 -3.90843 -3.85399 0
M  V30 20740 H 1953.51 -2.17138 -3.85102 0
M  V30 20741 N 1952.57 0.676023 -1.42365 0
M  V30 20742 C 1953.8 1.46937 -1.46371 0
M  V30 20743 C 1954.22 1.87946 -0.076099 0
M  V30 20744 O 1953.58 1.55917 0.925172 0
M  V30 20745 C 1953.63 2.69558 -2.39523 0
M  V30 20746 O 1952.73 3.67782 -1.86575 0
M  V30 20747 H 1952.07 0.441478 -0.495977 0
M  V30 20748 H 1954.6 0.829284 -1.8704 0
M  V30 20749 H 1954.61 3.17642 -2.56061 0
M  V30 20750 H 1953.29 2.39049 -3.40336 0
M  V30 20751 H 1951.86 3.26808 -1.79585 0
M  V30 20752 N 1954.05 1.28517 0.912209 0
M  V30 20753 C 1955.3 1.15532 1.65822 0
M  V30 20754 C 1955.62 -0.296177 1.92738 0
M  V30 20755 O 1954.89 -1.20492 1.54462 0
M  V30 20756 H 1953.47 0.424573 0.614611 0
M  V30 20757 H 1956.13 1.61267 1.09448 0
M  V30 20758 H 1955.23 1.69606 2.61993 0
M  V30 20759 N 1955.53 -1.12086 1.1079 0
M  V30 20760 C 1956.49 -2.16111 0.763446 0
M  V30 20761 C 1957.49 -1.59371 -0.213903 0
M  V30 20762 O 1958.68 -1.74197 0.00972099 0
M  V30 20763 C 1955.81 -3.40646 0.131488 0
M  V30 20764 H 1957 -2.48096 1.68489 0
M  V30 20765 H 1954.56 -1.27156 0.908896 0
M  V30 20766 H 1955.29 -3.14265 -0.800507 0
M  V30 20767 H 1955.08 -3.83108 0.834928 0
M  V30 20768 H 1956.57 -4.17495 -0.0936165 0
M  V30 20769 N 1957 -0.897194 -1.29569 0
M  V30 20770 C 1957.93 -0.389601 -2.30227 0
M  V30 20771 C 1958.92 0.53405 -1.61499 0
M  V30 20772 O 1960.1 0.44531 -1.89025 0
M  V30 20773 C 1957.23 0.385966 -3.45149 0
M  V30 20774 C 1956.18 -0.447028 -4.25659 0
M  V30 20775 C 1955.51 0.455883 -5.32753 0
M  V30 20776 C 1956.81 -1.69562 -4.9401 0
M  V30 20777 H 1958.5 -1.23077 -2.72933 0
M  V30 20778 H 1956.05 -0.593265 -1.31211 0
M  V30 20779 H 1958 0.751791 -4.1464 0
M  V30 20780 H 1956.73 1.26089 -3.01279 0
M  V30 20781 H 1955.39 -0.795152 -3.57873 0
M  V30 20782 H 1955.03 1.32887 -4.85129 0
M  V30 20783 H 1954.73 -0.0977528 -5.87519 0
M  V30 20784 H 1956.26 0.817956 -6.05097 0
M  V30 20785 H 1957.67 -1.39968 -5.55951 0
M  V30 20786 H 1956.07 -2.19039 -5.58697 0
M  V30 20787 H 1957.14 -2.43305 -4.19441 0
M  V30 20788 N 1958.48 1.43142 -0.659413 0
M  V30 20789 C 1959.73 2.02038 -0.175593 0
M  V30 20790 C 1960.06 1.5194 1.20946 0
M  V30 20791 O 1959.34 0.715095 1.80877 0
M  V30 20792 C 1959.62 3.59581 -0.193256 0
M  V30 20793 C 1959.47 4.19896 -1.61267 0
M  V30 20794 C 1960.79 4.37616 0.466976 0
M  V30 20795 H 1957.91 0.734103 -0.0652811 0
M  V30 20796 H 1960.55 1.7036 -0.841276 0
M  V30 20797 H 1958.7 3.867 0.373574 0
M  V30 20798 H 1960.37 4.03786 -2.23056 0
M  V30 20799 H 1958.62 3.7631 -2.15807 0
M  V30 20800 H 1959.29 5.28999 -1.57683 0
M  V30 20801 H 1961.76 4.16097 -0.0153667 0
M  V30 20802 H 1960.64 5.47261 0.423915 0
M  V30 20803 H 1960.9 4.14332 1.54211 0
M  V30 20804 N 1959.96 0.40173 1.52394 0
M  V30 20805 C 1960.92 -0.41541 2.25404 0
M  V30 20806 C 1961.92 -0.979848 1.27498 0
M  V30 20807 O 1963.11 -0.859891 1.51498 0
M  V30 20808 C 1960.25 -1.58403 3.01863 0
M  V30 20809 H 1961.44 0.223965 2.99063 0
M  V30 20810 H 1958.99 0.154095 1.55539 0
M  V30 20811 H 1959.73 -2.26048 2.32536 0
M  V30 20812 H 1959.51 -1.18586 3.73737 0
M  V30 20813 H 1961 -2.16224 3.57263 0
M  V30 20814 N 1961.44 -1.57047 0.131923 0
M  V30 20815 C 1962.69 -1.95632 -0.522925 0
M  V30 20816 C 1963.01 -1.01597 -1.65856 0
M  V30 20817 O 1962.27 -0.0422719 -1.95654 0
M  V30 20818 C 1962.57 -3.4056 -1.08413 0
M  V30 20819 C 1962.23 -4.50848 -0.0685085 0
M  V30 20820 C 1960.9 -4.80738 0.210726 0
M  V30 20821 C 1963.25 -5.17464 0.622935 0
M  V30 20822 C 1960.58 -5.74557 1.18747 0
M  V30 20823 C 1962.93 -6.12334 1.58839 0
M  V30 20824 C 1961.59 -6.40611 1.87548 0
M  V30 20825 H 1960.86 -0.715867 -0.191352 0
M  V30 20826 H 1963.51 -1.90283 0.215565 0
M  V30 20827 H 1961.81 -3.42667 -1.89965 0
M  V30 20828 H 1963.51 -3.67734 -1.59914 0
M  V30 20829 H 1960.1 -4.27574 -0.29633 0
M  V30 20830 H 1964.28 -4.94516 0.420386 0
M  V30 20831 H 1959.54 -5.94765 1.4165 0
M  V30 20832 H 1963.71 -6.63034 2.12977 0
M  V30 20833 H 1961.34 -7.13114 2.63387 0
M  V30 20834 N 1962.92 0.141865 -1.5696 0
M  V30 20835 C 1963.88 1.15896 -1.97739 0
M  V30 20836 C 1964.88 1.3558 -0.864556 0
M  V30 20837 O 1966.07 1.32485 -1.13107 0
M  V30 20838 C 1963.2 2.51822 -2.29779 0
M  V30 20839 H 1964.39 0.808993 -2.88782 0
M  V30 20840 H 1961.95 0.385387 -1.51474 0
M  V30 20841 H 1962.68 2.91781 -1.41543 0
M  V30 20842 H 1962.47 2.38894 -3.10921 0
M  V30 20843 H 1963.96 3.25066 -2.62148 0
M  V30 20844 N 1964.39 1.52136 0.411372 0
M  V30 20845 C 1965.64 1.66085 1.15853 0
M  V30 20846 C 1965.97 0.38968 1.90556 0
M  V30 20847 O 1965.22 -0.62727 1.85375 0
M  V30 20848 C 1965.52 2.832 2.1802 0
M  V30 20849 C 1965.19 4.21504 1.6014 0
M  V30 20850 C 1963.85 4.59124 1.4408 0
M  V30 20851 C 1966.2 5.07702 1.17848 0
M  V30 20852 C 1963.53 5.80621 0.842405 0
M  V30 20853 C 1965.88 6.29802 0.594283 0
M  V30 20854 C 1964.55 6.66172 0.420791 0
M  V30 20855 H 1963.82 0.607749 0.423937 0
M  V30 20856 H 1966.46 1.86233 0.446046 0
M  V30 20857 H 1964.77 2.57378 2.95405 0
M  V30 20858 H 1966.47 2.91189 2.75699 0
M  V30 20859 H 1963.06 3.91858 1.73623 0
M  V30 20860 H 1967.24 4.79224 1.29066 0
M  V30 20861 H 1962.5 6.07426 0.695983 0
M  V30 20862 H 1966.67 6.95921 0.258177 0
M  V30 20863 H 1964.3 7.60187 -0.044991 0
M  V30 20864 N 1965.87 -0.668464 1.42721 0
M  V30 20865 C 1967.1 -1.45659 1.46939 0
M  V30 20866 C 1967.52 -1.88619 0.0826133 0
M  V30 20867 O 1966.87 -1.58537 -0.904 0
M  V30 20868 C 1966.92 -2.70158 2.40202 0
M  V30 20869 O 1966.65 -2.28999 3.73485 0
M  V30 20870 C 1968.15 -3.63662 2.53505 0
M  V30 20871 H 1965.37 -0.447982 0.499553 0
M  V30 20872 H 1967.91 -0.820826 1.87304 0
M  V30 20873 H 1966.07 -3.29909 2.03074 0
M  V30 20874 H 1966.48 -3.09441 4.23493 0
M  V30 20875 H 1967.95 -4.47726 3.22871 0
M  V30 20876 H 1968.43 -4.09989 1.57498 0
M  V30 20877 H 1969.04 -3.09801 2.91382 0
M  V30 20878 N 1967.35 -1.28999 -0.905381 0
M  V30 20879 C 1968.6 -1.1641 -1.65207 0
M  V30 20880 C 1968.92 0.285952 -1.92892 0
M  V30 20881 O 1968.19 1.19672 -1.55098 0
M  V30 20882 H 1966.77 -0.427826 -0.612351 0
M  V30 20883 H 1969.43 -1.61845 -1.08592 0
M  V30 20884 H 1968.53 -1.70993 -2.6109 0
M  V30 20885 N 1968.83 1.11497 -1.11383 0
M  V30 20886 C 1969.78 2.19602 -0.766658 0
M  V30 20887 C 1970.77 1.67668 0.241612 0
M  V30 20888 O 1971.98 1.79717 0.100956 0
M  V30 20889 H 1968.35 0.715952 -0.230037 0
M  V30 20890 H 1970.32 2.46131 -1.68707 0
M  V30 20891 C 1969.07 3.46968 -0.225442 0
M  V30 20892 H 1968.4 3.87284 -0.992544 0
M  V30 20893 H 1969.84 4.23995 -0.0207066 0
M  V30 20894 C 1968.29 3.20311 1.04414 0
M  V30 20895 O 1968.82 3.40956 2.12395 0
M  V30 20896 N 1967.03 2.7405 0.966692 0
M  V30 20897 H 1966.58 2.5745 0.0878667 0
M  V30 20898 H 1966.54 2.56591 1.81682 0
M  V30 20899 N 1970.31 0.904053 1.29092 0
M  V30 20900 C 1971.53 0.547082 2.00054 0
M  V30 20901 C 1971.96 -0.862026 1.67185 0
M  V30 20902 O 1971.32 -1.57449 0.898855 0
M  V30 20903 C 1971.36 0.751495 3.52682 0
M  V30 20904 O 1970.47 -0.194004 4.11943 0
M  V30 20905 H 1969.81 0.213241 0.628828 0
M  V30 20906 H 1972.34 1.21683 1.64482 0
M  V30 20907 H 1972.35 0.657831 4.02662 0
M  V30 20908 H 1971.02 1.77878 3.75942 0
M  V30 20909 H 1969.6 -0.0524281 3.72863 0
M  V30 20910 N 1971.79 -1.4279 0.666995 0
M  V30 20911 C 1972.73 -2.30794 -0.0161644 0
M  V30 20912 C 1973.7 -1.45527 -0.800701 0
M  V30 20913 O 1974.89 -1.74372 -0.774527 0
M  V30 20914 C 1972.03 -3.31276 -0.966974 0
M  V30 20915 C 1971.14 -4.31637 -0.177086 0
M  V30 20916 C 1970.28 -5.19195 -1.12294 0
M  V30 20917 C 1969.31 -6.1124 -0.324284 0
M  V30 20918 N 1968.45 -6.91376 -1.22244 0
M  V30 20919 H 1973.29 -2.88662 0.74014 0
M  V30 20920 H 1970.83 -1.42194 0.376738 0
M  V30 20921 H 1972.79 -3.88054 -1.53198 0
M  V30 20922 H 1971.42 -2.75025 -1.69 0
M  V30 20923 H 1970.47 -3.77041 0.504428 0
M  V30 20924 H 1971.78 -4.96826 0.443328 0
M  V30 20925 H 1970.93 -5.80667 -1.75813 0
M  V30 20926 H 1969.67 -4.54164 -1.77725 0
M  V30 20927 H 1968.68 -5.48843 0.324174 0
M  V30 20928 H 1969.9 -6.78318 0.325818 0
M  V30 20929 H 1967.85 -6.28981 -1.86329 0
M  V30 20930 H 1967.77 -7.5314 -0.656918 0
M  V30 20931 H 1969.03 -7.57342 -1.84535 0
M  V30 20932 N 1973.26 -0.409806 -1.52179 0
M  V30 20933 C 1974.51 0.16543 -2.01422 0
M  V30 20934 C 1974.83 1.45588 -1.29727 0
M  V30 20935 O 1974.1 1.9127 -0.423399 0
M  V30 20936 H 1972.68 0.0641237 -0.744243 0
M  V30 20937 H 1975.34 -0.546204 -1.8709 0
M  V30 20938 H 1974.44 0.361061 -3.10004 0
M  V30 20939 N 1974.74 1.56975 -0.14025 0
M  V30 20940 C 1975.69 2.16418 0.802003 0
M  V30 20941 C 1976.66 1.09512 1.24885 0
M  V30 20942 O 1977.84 1.37522 1.32259 0
M  V30 20943 C 1974.98 2.78465 2.03841 0
M  V30 20944 C 1974.1 3.99743 1.63798 0
M  V30 20945 C 1973.23 4.4981 2.82567 0
M  V30 20946 C 1972.27 5.63569 2.38865 0
M  V30 20947 N 1971.41 6.08285 3.5062 0
M  V30 20948 H 1976.25 2.96602 0.288284 0
M  V30 20949 H 1973.78 1.46519 0.130587 0
M  V30 20950 H 1975.74 3.12581 2.76314 0
M  V30 20951 H 1974.37 2.00936 2.52635 0
M  V30 20952 H 1973.42 3.71651 0.811169 0
M  V30 20953 H 1974.74 4.82177 1.27697 0
M  V30 20954 H 1973.89 4.85945 3.63238 0
M  V30 20955 H 1972.63 3.66369 3.21908 0
M  V30 20956 H 1971.63 5.27017 1.56632 0
M  V30 20957 H 1972.86 6.48791 2.00617 0
M  V30 20958 H 1970.81 5.2778 3.89595 0
M  V30 20959 H 1970.72 6.85628 3.18512 0
M  V30 20960 H 1971.99 6.49063 4.31668 0
M  V30 20961 N 1976.22 -0.133539 1.57033 0
M  V30 20962 C 1977.5 -0.873327 1.75021 0
M  V30 20963 C 1977.88 -1.98735 0.71187 0
M  V30 20964 O 1977.22 -2.26937 -0.266823 0
M  V30 20965 C 1977.43 -1.40341 3.19539 0
M  V30 20966 C 1978.78 -1.86151 3.81619 0
M  V30 20967 O 1979.81 -1.50053 3.23052 0
M  V30 20968 O 1978.67 -2.52767 4.84532 0
M  V30 20969 H 1975.76 -0.413669 0.716105 0
M  V30 20970 H 1978.31 -0.118413 1.69286 0
M  V30 20971 H 1977.08 -0.60345 3.86619 0
M  V30 20972 H 1976.7 -2.22145 3.29754 0
M  V30 20973 N 1977.7 -1.52352 -0.403298 0
M  V30 20974 C 1978.95 -1.65924 -1.14683 0
M  V30 20975 C 1979.26 -0.398212 -1.91504 0
M  V30 20976 O 1980.47 -0.413824 -2.68328 0
M  V30 20977 C 1978.92 -2.9317 -2.08757 0
M  V30 20978 C 1978.53 -4.26402 -1.37425 0
M  V30 20979 C 1980.27 -3.16106 -2.83332 0
M  V30 20980 C 1978.18 -5.44766 -2.30181 0
M  V30 20981 H 1977.11 -0.61811 -0.431805 0
M  V30 20982 H 1979.76 -1.78843 -0.410792 0
M  V30 20983 H 1978.14 -2.73964 -2.85937 0
M  V30 20984 H 1979.32 -4.56111 -0.65569 0
M  V30 20985 H 1977.63 -4.09614 -0.748668 0
M  V30 20986 H 1980.23 -4.01716 -3.52886 0
M  V30 20987 H 1980.57 -2.30581 -3.4661 0
M  V30 20988 H 1981.11 -3.35811 -2.1325 0
M  V30 20989 H 1977.84 -6.32656 -1.71541 0
M  V30 20990 H 1977.36 -5.19388 -2.99993 0
M  V30 20991 H 1979.04 -5.78077 -2.9058 0
M  V30 20992 N 1979.18 0.660885 -1.43074 0
M  V30 20993 C 1980.12 1.79529 -1.47892 0
M  V30 20994 C 1981.12 1.65676 -0.353254 0
M  V30 20995 O 1982.32 1.72115 -0.526903 0
M  V30 20996 H 1978.7 0.592191 -0.46348 0
M  V30 20997 H 1980.67 1.72584 -2.43428 0
M  V30 20998 C 1979.42 3.17753 -1.41167 0
M  V30 20999 H 1978.74 3.29047 -2.27087 0
M  V30 21000 H 1980.18 3.97107 -1.486 0
M  V30 21001 C 1978.64 3.36656 -0.128241 0
M  V30 21002 O 1979.17 3.93376 0.813504 0
M  V30 21003 N 1977.38 2.90571 -0.0408985 0
M  V30 21004 H 1976.92 2.44598 -0.808059 0
M  V30 21005 H 1976.88 3.03595 0.817147 0
M  V30 21006 N 1980.65 1.29477 0.898527 0
M  V30 21007 C 1981.88 1.20406 1.68255 0
M  V30 21008 C 1982.3 -0.235141 1.8733 0
M  V30 21009 O 1981.65 -1.15727 1.41115 0
M  V30 21010 C 1981.71 1.91451 3.06641 0
M  V30 21011 O 1981.43 3.29751 2.88437 0
M  V30 21012 C 1982.93 1.88871 4.01052 0
M  V30 21013 H 1980.15 0.417276 0.525473 0
M  V30 21014 H 1982.69 1.7087 1.12356 0
M  V30 21015 H 1980.85 1.4482 3.59313 0
M  V30 21016 H 1981.26 3.65548 3.76131 0
M  V30 21017 H 1982.73 2.43144 4.95566 0
M  V30 21018 H 1983.21 0.864507 4.30608 0
M  V30 21019 H 1983.82 2.35251 3.54312 0
M  V30 21020 N 1982.13 -1.10905 1.11972 0
M  V30 21021 C 1983.38 -1.82127 0.866753 0
M  V30 21022 C 1983.69 -1.85866 -0.609372 0
M  V30 21023 O 1984.9 -2.53243 -0.978781 0
M  V30 21024 C 1983.36 -3.27109 1.50093 0
M  V30 21025 C 1982.96 -3.31682 3.01149 0
M  V30 21026 C 1984.71 -4.03192 1.32803 0
M  V30 21027 C 1982.62 -4.71095 3.57524 0
M  V30 21028 H 1981.55 -0.682444 0.320604 0
M  V30 21029 H 1984.2 -1.24759 1.34564 0
M  V30 21030 H 1982.58 -3.84443 0.949712 0
M  V30 21031 H 1983.75 -2.84199 3.62722 0
M  V30 21032 H 1982.07 -2.69082 3.17779 0
M  V30 21033 H 1984.66 -5.06162 1.72348 0
M  V30 21034 H 1985.01 -4.15416 0.271181 0
M  V30 21035 H 1985.54 -3.52259 1.84819 0
M  V30 21036 H 1982.28 -4.6407 4.62947 0
M  V30 21037 H 1981.8 -5.18965 3.00725 0
M  V30 21038 H 1983.48 -5.40059 3.56294 0
M  V30 21039 N 1983.61 -0.910886 -1.2861 0
M  V30 21040 C 1984.56 -0.395575 -2.27385 0
M  V30 21041 C 1985.53 0.528415 -1.57471 0
M  V30 21042 O 1986.71 0.451232 -1.85388 0
M  V30 21043 C 1983.85 0.360855 -3.43208 0
M  V30 21044 C 1982.97 -0.59531 -4.27879 0
M  V30 21045 C 1982.1 0.179282 -5.30897 0
M  V30 21046 C 1981.14 -0.770684 -6.07229 0
M  V30 21047 N 1980.28 -0.0297918 -7.02094 0
M  V30 21048 H 1985.12 -1.24293 -2.70842 0
M  V30 21049 H 1982.65 -0.624218 -1.33199 0
M  V30 21050 H 1984.61 0.815583 -4.0915 0
M  V30 21051 H 1983.24 1.17258 -3.0075 0
M  V30 21052 H 1982.29 -1.16857 -3.62006 0
M  V30 21053 H 1983.61 -1.32201 -4.80962 0
M  V30 21054 H 1982.76 0.694702 -6.0271 0
M  V30 21055 H 1981.5 0.93905 -4.78574 0
M  V30 21056 H 1980.5 -1.29751 -5.3427 0
M  V30 21057 H 1981.73 -1.52996 -6.61641 0
M  V30 21058 H 1979.67 0.712039 -6.52124 0
M  V30 21059 H 1979.59 -0.69637 -7.52786 0
M  V30 21060 H 1980.86 0.465527 -7.78109 0
M  V30 21061 N 1985.09 1.42434 -0.674558 0
M  V30 21062 C 1986.31 2.06399 -0.203545 0
M  V30 21063 C 1986.74 1.50345 1.1304 0
M  V30 21064 O 1986.1 0.621837 1.70302 0
M  V30 21065 C 1986.14 3.60293 -0.148884 0
M  V30 21066 O 1985.25 4.02843 0.882667 0
M  V30 21067 H 1984.59 0.655698 -0.104672 0
M  V30 21068 H 1987.12 1.82572 -0.923502 0
M  V30 21069 H 1987.13 4.07991 0.0273375 0
M  V30 21070 H 1985.8 4.00464 -1.12256 0
M  V30 21071 H 1984.38 3.66694 0.677506 0
M  V30 21072 N 1986.57 0.417871 1.51959 0
M  V30 21073 C 1987.5 -0.394222 2.30148 0
M  V30 21074 C 1988.48 -1.0384 1.34727 0
M  V30 21075 O 1989.66 -1.04575 1.63639 0
M  V30 21076 C 1986.79 -1.50639 3.1293 0
M  V30 21077 C 1985.75 -0.986759 4.1647 0
M  V30 21078 C 1985.07 -2.1932 4.8765 0
M  V30 21079 C 1986.37 -0.0347019 5.22288 0
M  V30 21080 H 1988.07 0.258228 2.98284 0
M  V30 21081 H 1985.61 0.125633 1.43451 0
M  V30 21082 H 1987.57 -2.08157 3.664 0
M  V30 21083 H 1986.29 -2.18685 2.42579 0
M  V30 21084 H 1984.95 -0.43393 3.64023 0
M  V30 21085 H 1984.6 -2.8594 4.1382 0
M  V30 21086 H 1984.3 -1.85199 5.57652 0
M  V30 21087 H 1985.82 -2.77427 5.43936 0
M  V30 21088 H 1987.23 -0.518951 5.70946 0
M  V30 21089 H 1985.63 0.218124 5.99703 0
M  V30 21090 H 1986.7 0.907947 4.76324 0
M  V30 21091 N 1988.04 -1.56898 0.148573 0
M  V30 21092 C 1989.46 -1.58241 -0.207826 0
M  V30 21093 C 1989.66 -1.16291 -1.64556 0
M  V30 21094 O 1988.72 -0.863939 -2.3726 0
M  V30 21095 C 1990.03 -3.00654 0.0523559 0
M  V30 21096 C 1991.58 -3.12998 -0.0112297 0
M  V30 21097 C 1992.05 -4.57463 0.221641 0
M  V30 21098 N 1993.54 -4.62893 0.168624 0
M  V30 21099 C 1994.28 -5.72488 0.323296 0
M  V30 21100 N 1993.77 -6.90725 0.535776 0
M  V30 21101 N 1995.57 -5.61495 0.26079 0
M  V30 21102 H 1987.72 -1.82459 1.08731 0
M  V30 21103 H 1989.98 -0.8446 0.430529 0
M  V30 21104 H 1989.69 -3.3574 1.04745 0
M  V30 21105 H 1989.56 -3.71268 -0.666346 0
M  V30 21106 H 1991.95 -2.77752 -0.996873 0
M  V30 21107 H 1992.03 -2.44868 0.739826 0
M  V30 21108 H 1991.67 -4.93413 1.20439 0
M  V30 21109 H 1991.6 -5.23722 -0.549756 0
M  V30 21110 H 1994.09 -3.77899 0.00911581 0
M  V30 21111 H 1994.41 -7.70113 0.643862 0
M  V30 21112 H 1992.75 -6.92641 0.572117 0
M  V30 21113 H 1995.94 -4.68002 0.095543 0
M  V30 21114 H 1996.12 -6.46857 0.384765 0
M  V30 21115 N 1989.52 0.125209 -1.57102 0
M  V30 21116 C 1990.77 0.835321 -1.84798 0
M  V30 21117 C 1991.1 1.79819 -0.73341 0
M  V30 21118 O 1990.38 1.92737 0.261268 0
M  V30 21119 C 1990.66 1.59069 -3.23062 0
M  V30 21120 C 1990.51 0.647841 -4.4511 0
M  V30 21121 C 1991.83 2.54829 -3.58818 0
M  V30 21122 H 1988.95 0.302222 -0.672184 0
M  V30 21123 H 1991.59 0.0997638 -1.89738 0
M  V30 21124 H 1989.74 2.21772 -3.18982 0
M  V30 21125 H 1991.41 0.0301293 -4.6129 0
M  V30 21126 H 1989.66 -0.041074 -4.33781 0
M  V30 21127 H 1990.33 1.21288 -5.3851 0
M  V30 21128 H 1992.8 2.02233 -3.63649 0
M  V30 21129 H 1991.68 3.04716 -4.56551 0
M  V30 21130 H 1991.94 3.37205 -2.85911 0
M  V30 21131 N 1991 1.52564 0.395213 0
M  V30 21132 C 1991.93 1.79867 1.48897 0
M  V30 21133 C 1992.91 0.650351 1.57176 0
M  V30 21134 O 1994.1 0.897328 1.72226 0
M  V30 21135 C 1991.23 1.96192 2.86576 0
M  V30 21136 C 1990.18 3.11854 2.9314 0
M  V30 21137 C 1989.51 3.13424 4.33208 0
M  V30 21138 C 1990.81 4.51046 2.63353 0
M  V30 21139 H 1992.5 2.71457 1.26299 0
M  V30 21140 H 1990.05 1.30621 0.606145 0
M  V30 21141 H 1992 2.13875 3.63091 0
M  V30 21142 H 1990.72 1.01286 3.10498 0
M  V30 21143 H 1989.38 2.93944 2.19072 0
M  V30 21144 H 1989.03 2.16212 4.5416 0
M  V30 21145 H 1988.73 3.91117 4.38522 0
M  V30 21146 H 1990.25 3.33254 5.11639 0
M  V30 21147 H 1991.67 4.6909 3.29587 0
M  V30 21148 H 1990.07 5.3076 2.80024 0
M  V30 21149 H 1991.14 4.58187 1.58722 0
M  V30 21150 N 1992.48 -0.653289 1.43422 0
M  V30 21151 C 1993.89 -0.968948 1.26821 0
M  V30 21152 C 1994.09 -2.00622 0.187882 0
M  V30 21153 O 1993.15 -2.48747 -0.43371 0
M  V30 21154 C 1994.46 -1.45328 2.63249 0
M  V30 21155 C 1996.01 -1.56993 2.70781 0
M  V30 21156 C 1996.49 -2.08817 4.07627 0
M  V30 21157 N 1997.98 -2.16119 4.09691 0
M  V30 21158 C 1998.71 -2.5734 5.1241 0
M  V30 21159 N 1998.21 -2.97858 6.25502 0
M  V30 21160 N 2000 -2.57279 4.99764 0
M  V30 21161 H 1992.15 0.0330932 2.12374 0
M  V30 21162 H 1994.42 -0.0477768 0.946795 0
M  V30 21163 H 1994.12 -0.765519 3.43268 0
M  V30 21164 H 1994 -2.42831 2.8864 0
M  V30 21165 H 1996.38 -2.24871 1.91095 0
M  V30 21166 H 1996.46 -0.579228 2.49156 0
M  V30 21167 H 1996.11 -1.41541 4.87779 0
M  V30 21168 H 1996.04 -3.08718 4.26616 0
M  V30 21169 H 1998.53 -1.8758 3.28058 0
M  V30 21170 H 1998.84 -3.2806 6.99712 0
M  V30 21171 H 1997.19 -2.95662 6.28974 0
M  V30 21172 H 2000.38 -2.25002 4.10478 0
M  V30 21173 H 2000.55 -2.89082 5.79944 0
M  V30 21174 N 1993.96 -1.29952 -0.891648 0
M  V30 21175 C 1995.2 -1.18565 -1.6453 0
M  V30 21176 C 1995.54 0.260539 -1.92444 0
M  V30 21177 O 1994.81 1.18723 -1.54062 0
M  V30 21178 C 1995.09 -2.00774 -2.98934 0
M  V30 21179 C 1994.95 -3.53577 -2.78035 0
M  V30 21180 C 1996.27 -1.84038 -3.99772 0
M  V30 21181 H 1993.38 -0.432073 -0.597061 0
M  V30 21182 H 1996.03 -1.59512 -1.03227 0
M  V30 21183 H 1994.18 -1.65981 -3.51258 0
M  V30 21184 H 1995.85 -3.98394 -2.3255 0
M  V30 21185 H 1994.09 -3.78095 -2.12665 0
M  V30 21186 H 1994.76 -4.06381 -3.73575 0
M  V30 21187 H 1997.24 -2.14444 -3.56585 0
M  V30 21188 H 1996.11 -2.43896 -4.91737 0
M  V30 21189 H 1996.38 -0.797726 -4.34843 0
M  V30 21190 N 1995.44 1.1031 -1.12559 0
M  V30 21191 C 1996.37 2.18738 -0.817073 0
M  V30 21192 C 1997.35 1.68675 0.219681 0
M  V30 21193 O 1998.53 1.94033 0.0805889 0
M  V30 21194 C 1995.66 3.46231 -0.272317 0
M  V30 21195 C 1994.62 4.09575 -1.24228 0
M  V30 21196 C 1993.94 5.31784 -0.557693 0
M  V30 21197 C 1995.24 4.53135 -2.59743 0
M  V30 21198 H 1996.94 2.44802 -1.72372 0
M  V30 21199 H 1994.48 1.17658 -0.830221 0
M  V30 21200 H 1996.43 4.21377 -0.0442049 0
M  V30 21201 H 1995.16 3.19661 0.669677 0
M  V30 21202 H 1993.82 3.36437 -1.45622 0
M  V30 21203 H 1993.47 5.0149 0.389484 0
M  V30 21204 H 1993.17 5.75117 -1.20473 0
M  V30 21205 H 1994.69 6.0966 -0.338649 0
M  V30 21206 H 1996.1 5.19548 -2.42369 0
M  V30 21207 H 1994.5 5.07322 -3.20537 0
M  V30 21208 H 1995.57 3.65989 -3.18088 0
M  V30 21209 N 1996.91 0.917694 1.28125 0
M  V30 21210 C 1998.33 0.616431 1.47215 0
M  V30 21211 C 1998.53 -0.837161 1.83286 0
M  V30 21212 O 1997.59 -1.61591 1.94022 0
M  V30 21213 C 1998.9 1.55772 2.57207 0
M  V30 21214 C 2000.45 1.56486 2.71074 0
M  V30 21215 C 2000.92 2.49286 3.84214 0
M  V30 21216 N 2002.41 2.47436 3.91573 0
M  V30 21217 C 2003.15 3.15936 4.7851 0
M  V30 21218 N 2002.64 3.9378 5.70008 0
M  V30 21219 N 2004.44 3.05004 4.72154 0
M  V30 21220 H 1996.59 1.85758 1.02993 0
M  V30 21221 H 1998.85 0.796969 0.513366 0
M  V30 21222 H 1998.56 2.59423 2.37471 0
M  V30 21223 H 1998.43 1.2918 3.5439 0
M  V30 21224 H 2000.82 0.535708 2.90197 0
M  V30 21225 H 2000.9 1.87122 1.7441 0
M  V30 21226 H 2000.54 3.52306 3.65846 0
M  V30 21227 H 2000.47 2.1595 4.80284 0
M  V30 21228 H 2002.96 1.90893 3.26141 0
M  V30 21229 H 2003.28 4.43058 6.33182 0
M  V30 21230 H 2001.62 3.97885 5.69836 0
M  V30 21231 H 2004.81 2.4369 3.99666 0
M  V30 21232 H 2004.99 3.5866 5.39691 0
M  V30 21233 N 1998.39 -1.42074 0.682102 0
M  V30 21234 C 1999.8 -1.8453 0.283805 0
M  V30 21235 C 2000.15 -1.5709 -1.17547 0
M  V30 21236 O 1999.28 -1.03444 -1.90075 0
M  V30 21237 C 1999.87 -3.34965 0.508316 0
M  V30 21238 C 1998.43 -3.76042 0.164069 0
M  V30 21239 C 1997.58 -2.65594 0.797204 0
M  V30 21240 H 2000.53 -1.31817 0.88374 0
M  V30 21241 H 2000.55 -3.7976 -0.237267 0
M  V30 21242 H 2000.06 -3.54905 1.57047 0
M  V30 21243 H 1998.16 -3.61707 -0.894353 0
M  V30 21244 H 1998.28 -4.75205 0.609688 0
M  V30 21245 H 1996.64 -2.53678 0.227913 0
M  V30 21246 H 1997.42 -2.88355 1.86296 0
M  V30 21247 N 1999.87 -0.425924 -1.51735 0
M  V30 21248 C 2000.8 0.382011 -2.30354 0
M  V30 21249 C 2001.78 1.03124 -1.35276 0
M  V30 21250 O 2002.97 1.03705 -1.64191 0
M  V30 21251 C 2000.1 1.48978 -3.13724 0
M  V30 21252 C 1999.05 0.964659 -4.16987 0
M  V30 21253 C 1998.38 2.1673 -4.88807 0
M  V30 21254 C 1999.68 0.00700314 -5.223 0
M  V30 21255 H 2001.37 -0.274043 -2.98143 0
M  V30 21256 H 1998.92 -0.133238 -1.43382 0
M  V30 21257 H 2000.87 2.06211 -3.67498 0
M  V30 21258 H 1999.59 2.17396 -2.43735 0
M  V30 21259 H 1998.25 0.414618 -3.64248 0
M  V30 21260 H 1997.9 2.83741 -4.15331 0
M  V30 21261 H 1997.6 1.82239 -5.58626 0
M  V30 21262 H 1999.12 2.74538 -5.454 0
M  V30 21263 H 2000.54 0.488665 -5.71214 0
M  V30 21264 H 1998.93 -0.249924 -5.99579 0
M  V30 21265 H 2000 -0.933195 -4.75836 0
M  V30 21266 N 2001.35 1.56817 -0.156891 0
M  V30 21267 C 2002.29 2.17256 0.779004 0
M  V30 21268 C 2003.26 1.1083 1.23717 0
M  V30 21269 O 2004.45 1.38917 1.30793 0
M  V30 21270 C 2001.59 2.80612 2.00876 0
M  V30 21271 C 2000.7 4.01457 1.59549 0
M  V30 21272 C 1999.84 4.52782 2.7778 0
M  V30 21273 C 1998.88 5.66071 2.32874 0
M  V30 21274 N 1998.01 6.11969 3.44148 0
M  V30 21275 H 2002.85 2.96891 0.256809 0
M  V30 21276 H 2000.39 1.46649 0.115039 0
M  V30 21277 H 2002.35 3.15494 2.72983 0
M  V30 21278 H 2000.98 2.03604 2.5049 0
M  V30 21279 H 2000.03 3.7249 0.771705 0
M  V30 21280 H 2001.34 4.83505 1.22576 0
M  V30 21281 H 2000.5 4.89771 3.58064 0
M  V30 21282 H 1999.24 3.69763 3.18005 0
M  V30 21283 H 1998.24 5.28648 1.51034 0
M  V30 21284 H 1999.47 6.50882 1.93724 0
M  V30 21285 H 1997.41 5.31883 3.83975 0
M  V30 21286 H 1997.33 6.88968 3.11222 0
M  V30 21287 H 1998.6 6.53605 4.24759 0
M  V30 21288 N 2002.83 -0.116876 1.57166 0
M  V30 21289 C 2004.05 -0.838417 1.89151 0
M  V30 21290 C 2004.47 -1.73335 0.748361 0
M  V30 21291 O 2003.83 -1.80328 -0.280719 0
M  V30 21292 C 2003.88 -1.67006 3.20611 0
M  V30 21293 O 2003.6 -0.811158 4.30525 0
M  V30 21294 C 2005.1 -2.49657 3.66314 0
M  V30 21295 H 2002.32 -0.240909 0.626262 0
M  V30 21296 H 2004.86 -0.100631 2.04252 0
M  V30 21297 H 2003.02 -2.36058 3.07173 0
M  V30 21298 H 2003.43 -1.38499 5.05884 0
M  V30 21299 H 2004.91 -3.03537 4.61052 0
M  V30 21300 H 2005.38 -3.27114 2.93075 0
M  V30 21301 H 2005.99 -1.85844 3.82547 0
M  V30 21302 N 2004.3 -1.52772 -0.387116 0
M  V30 21303 C 2005.55 -1.67131 -1.12916 0
M  V30 21304 C 2005.87 -0.418501 -1.9107 0
M  V30 21305 O 2007.07 -0.442261 -2.67874 0
M  V30 21306 C 2005.53 -2.95368 -2.05635 0
M  V30 21307 C 2005.14 -4.27835 -1.32895 0
M  V30 21308 C 2006.88 -3.19093 -2.79964 0
M  V30 21309 C 2004.79 -5.47177 -2.2439 0
M  V30 21310 H 2003.72 -0.622655 -0.425225 0
M  V30 21311 H 2006.37 -1.79268 -0.391801 0
M  V30 21312 H 2004.75 -2.76981 -2.83015 0
M  V30 21313 H 2005.92 -4.56781 -0.607276 0
M  V30 21314 H 2004.24 -4.10385 -0.705181 0
M  V30 21315 H 2006.84 -4.05436 -3.48605 0
M  V30 21316 H 2007.18 -2.34244 -3.44145 0
M  V30 21317 H 2007.71 -3.38054 -2.09676 0
M  V30 21318 H 2004.45 -6.3444 -1.64822 0
M  V30 21319 H 2003.97 -5.22541 -2.94468 0
M  V30 21320 H 2005.65 -5.81126 -2.84432 0
M  V30 21321 N 2005.78 0.645673 -1.43767 0
M  V30 21322 C 2006.73 1.75828 -1.4951 0
M  V30 21323 C 2007.7 1.62496 -0.344109 0
M  V30 21324 O 2008.88 1.82631 -0.552323 0
M  V30 21325 C 2006.02 3.14017 -1.43134 0
M  V30 21326 C 2005.14 3.38428 -2.68496 0
M  V30 21327 C 2004.27 4.66507 -2.54056 0
M  V30 21328 C 2003.31 4.84049 -3.74651 0
M  V30 21329 N 2002.45 6.03392 -3.58974 0
M  V30 21330 H 2007.29 1.70254 -2.44576 0
M  V30 21331 H 2004.82 0.830729 -1.21397 0
M  V30 21332 H 2006.78 3.93915 -1.37431 0
M  V30 21333 H 2005.41 3.18642 -0.516449 0
M  V30 21334 H 2004.46 2.52574 -2.84448 0
M  V30 21335 H 2005.78 3.47274 -3.58054 0
M  V30 21336 H 2004.93 5.54543 -2.46103 0
M  V30 21337 H 2003.67 4.59996 -1.62035 0
M  V30 21338 H 2002.67 3.94447 -3.83004 0
M  V30 21339 H 2003.9 4.92385 -4.67689 0
M  V30 21340 H 2001.85 5.97998 -2.69694 0
M  V30 21341 H 2001.76 6.13229 -4.42138 0
M  V30 21342 H 2003.03 6.94029 -3.54887 0
M  V30 21343 N 2007.26 1.30423 0.884744 0
M  V30 21344 C 2008.68 1.08759 1.16806 0
M  V30 21345 C 2008.88 -0.151512 2.0093 0
M  V30 21346 O 2007.93 -0.84506 2.37939 0
M  V30 21347 C 2009.24 2.35123 1.87451 0
M  V30 21348 C 2010.79 2.40589 2.00214 0
M  V30 21349 C 2011.27 3.66796 2.74271 0
M  V30 21350 N 2012.76 3.67605 2.81817 0
M  V30 21351 C 2013.49 4.61948 3.39694 0
M  V30 21352 N 2012.99 5.66635 3.98618 0
M  V30 21353 N 2014.78 4.49492 3.37511 0
M  V30 21354 H 2006.93 2.09917 0.32383 0
M  V30 21355 H 2009.2 0.925345 0.206011 0
M  V30 21356 H 2008.9 3.25549 1.33081 0
M  V30 21357 H 2008.78 2.43788 2.87832 0
M  V30 21358 H 2011.16 1.50641 2.53754 0
M  V30 21359 H 2011.24 2.35899 0.989199 0
M  V30 21360 H 2010.89 4.57103 2.21403 0
M  V30 21361 H 2010.82 3.68748 3.75942 0
M  V30 21362 H 2013.31 2.9192 2.39981 0
M  V30 21363 H 2013.62 6.34723 4.40847 0
M  V30 21364 H 2011.97 5.70427 3.97037 0
M  V30 21365 H 2015.16 3.6689 2.90705 0
M  V30 21366 H 2015.33 5.23197 3.8232 0
M  V30 21367 N 2008.74 -1.09711 1.13142 0
M  V30 21368 C 2009.67 -2.18301 0.828662 0
M  V30 21369 C 2010.65 -1.6879 -0.210733 0
M  V30 21370 O 2011.83 -1.94073 -0.0702977 0
M  V30 21371 C 2008.96 -3.46081 0.290674 0
M  V30 21372 C 2007.92 -4.0891 1.26398 0
M  V30 21373 C 2007.24 -5.3148 0.585887 0
M  V30 21374 C 2008.54 -4.51751 2.62142 0
M  V30 21375 H 2010.24 -2.43885 1.73668 0
M  V30 21376 H 2007.78 -1.17216 0.836449 0
M  V30 21377 H 2009.74 -4.21347 0.0665509 0
M  V30 21378 H 2008.46 -3.20011 -0.652716 0
M  V30 21379 H 2007.12 -3.3566 1.47405 0
M  V30 21380 H 2006.77 -5.01689 -0.362883 0
M  V30 21381 H 2006.47 -5.7447 1.23522 0
M  V30 21382 H 2007.99 -6.09472 0.370976 0
M  V30 21383 H 2009.41 -5.18255 2.45121 0
M  V30 21384 H 2007.8 -5.05615 3.23223 0
M  V30 21385 H 2008.87 -3.64297 3.20025 0
M  V30 21386 N 2010.22 -0.924476 -1.27637 0
M  V30 21387 C 2011.63 -0.608255 -1.76514 0
M  V30 21388 C 2011.98 0.87656 -1.7553 0
M  V30 21389 O 2011.1 1.68587 -1.35674 0
M  V30 21390 C 2011.7 -1.09738 -3.20536 0
M  V30 21391 C 2010.26 -0.831881 -3.67092 0
M  V30 21392 C 2009.4 -1.25795 -2.47125 0
M  V30 21393 H 2012.36 -1.1046 -1.13949 0
M  V30 21394 H 2012.38 -0.443602 -3.77905 0
M  V30 21395 H 2011.89 -2.17806 -3.21219 0
M  V30 21396 H 2009.99 0.235141 -3.71857 0
M  V30 21397 H 2010.1 -1.44716 -4.56721 0
M  V30 21398 H 2008.47 -0.676541 -2.4555 0
M  V30 21399 H 2009.25 -2.34721 -2.50521 0
M  V30 21400 N 2011.69 1.41711 -0.689627 0
M  V30 21401 C 2012.64 2.30791 -0.020555 0
M  V30 21402 C 2013.61 1.46782 0.777447 0
M  V30 21403 O 2014.8 1.75582 0.746688 0
M  V30 21404 C 2011.94 3.32772 0.914149 0
M  V30 21405 C 2011.05 4.31864 0.108394 0
M  V30 21406 C 2010.18 5.20916 1.0402 0
M  V30 21407 C 2009.22 6.11679 0.227 0
M  V30 21408 N 2008.36 6.93233 1.11229 0
M  V30 21409 H 2013.2 2.87448 -0.78597 0
M  V30 21410 H 2010.74 1.41576 -0.399313 0
M  V30 21411 H 2012.7 3.90442 1.47005 0
M  V30 21412 H 2011.33 2.77679 1.64603 0
M  V30 21413 H 2010.38 3.7619 -0.564348 0
M  V30 21414 H 2011.69 4.96058 -0.522312 0
M  V30 21415 H 2010.84 5.83391 1.66553 0
M  V30 21416 H 2009.58 4.56934 1.70477 0
M  V30 21417 H 2008.59 5.48258 -0.411449 0
M  V30 21418 H 2009.81 6.77714 -0.433691 0
M  V30 21419 H 2007.76 6.31866 1.76299 0
M  V30 21420 H 2007.68 7.5409 0.537017 0
M  V30 21421 H 2008.94 7.60182 1.72463 0
M  V30 21422 N 2013.17 0.433965 1.51507 0
M  V30 21423 C 2014.1 -0.369789 2.30553 0
M  V30 21424 C 2015.08 -1.02405 1.35821 0
M  V30 21425 O 2016.27 -1.02833 1.64739 0
M  V30 21426 C 2013.4 -1.47312 3.1451 0
M  V30 21427 C 2012.35 -0.942531 4.17493 0
M  V30 21428 C 2011.68 -2.14135 4.89949 0
M  V30 21429 C 2012.98 0.0206958 5.22296 0
M  V30 21430 H 2014.67 0.289851 2.97994 0
M  V30 21431 H 2012.22 0.14084 1.4331 0
M  V30 21432 H 2014.17 -2.04259 3.68587 0
M  V30 21433 H 2012.9 -2.161 2.44884 0
M  V30 21434 H 2011.55 -0.395296 3.64463 0
M  V30 21435 H 2011.2 -2.81535 4.1683 0
M  V30 21436 H 2010.9 -1.79273 5.59584 0
M  V30 21437 H 2012.43 -2.71642 5.46848 0
M  V30 21438 H 2013.84 -0.458366 5.71465 0
M  V30 21439 H 2012.24 0.281718 5.99438 0
M  V30 21440 H 2013.31 0.958416 4.75334 0
M  V30 21441 N 2014.65 -1.56732 0.165206 0
M  V30 21442 C 2015.6 -2.17666 -0.767471 0
M  V30 21443 C 2016.57 -1.11485 -1.23127 0
M  V30 21444 O 2017.75 -1.39609 -1.30054 0
M  V30 21445 C 2014.89 -2.81673 -1.99385 0
M  V30 21446 C 2014.01 -4.02298 -1.57418 0
M  V30 21447 C 2013.14 -4.54249 -2.75375 0
M  V30 21448 C 2012.18 -5.67298 -2.29869 0
M  V30 21449 N 2011.32 -6.13786 -3.40898 0
M  V30 21450 H 2016.16 -2.97023 -0.24106 0
M  V30 21451 H 2013.69 -1.46708 -0.10726 0
M  V30 21452 H 2015.65 -3.16937 -2.71306 0
M  V30 21453 H 2014.28 -2.0493 -2.49407 0
M  V30 21454 H 2013.33 -3.72894 -0.75194 0
M  V30 21455 H 2014.65 -4.84148 -1.2001 0
M  V30 21456 H 2013.8 -4.91663 -3.55461 0
M  V30 21457 H 2012.54 -3.71444 -3.16039 0
M  V30 21458 H 2011.54 -5.29442 -1.48228 0
M  V30 21459 H 2012.77 -6.519 -1.9027 0
M  V30 21460 H 2010.71 -5.33911 -3.81149 0
M  V30 21461 H 2010.63 -6.90609 -3.07563 0
M  V30 21462 H 2011.9 -6.55849 -4.21287 0
M  V30 21463 N 2016.13 0.10854 -1.57226 0
M  V30 21464 C 2017.09 1.11675 -2.00153 0
M  V30 21465 C 2018.09 1.33716 -0.89312 0
M  V30 21466 O 2019.28 1.30056 -1.15892 0
M  V30 21467 C 2016.41 2.46892 -2.35069 0
M  V30 21468 H 2017.61 0.747556 -2.90433 0
M  V30 21469 H 2015.16 0.35317 -1.52258 0
M  V30 21470 H 2015.89 2.88713 -1.47701 0
M  V30 21471 H 2015.68 2.32245 -3.15918 0
M  V30 21472 H 2017.17 3.19433 -2.68984 0
M  V30 21473 N 2017.61 1.52975 0.379009 0
M  V30 21474 C 2018.85 1.68755 1.12471 0
M  V30 21475 C 2019.19 0.431242 1.89351 0
M  V30 21476 O 2018.46 -0.571204 1.85923 0
M  V30 21477 C 2018.74 2.92896 2.09485 0
M  V30 21478 C 2018.6 4.28651 1.36302 0
M  V30 21479 C 2019.92 3.12604 3.09785 0
M  V30 21480 H 2017.03 0.614092 0.407504 0
M  V30 21481 H 2019.68 1.8559 0.406972 0
M  V30 21482 H 2017.83 2.78673 2.70691 0
M  V30 21483 H 2019.5 4.54661 0.779841 0
M  V30 21484 H 2017.74 4.28675 0.664851 0
M  V30 21485 H 2018.41 5.1162 2.07241 0
M  V30 21486 H 2020.89 3.25924 2.58675 0
M  V30 21487 H 2019.76 4.00924 3.74901 0
M  V30 21488 H 2020.03 2.27272 3.79209 0
M  V30 21489 N 2019.08 -0.63804 1.44107 0
M  V30 21490 C 2020.33 -1.39772 1.46526 0
M  V30 21491 C 2020.66 -1.94267 0.0952359 0
M  V30 21492 O 2019.91 -1.73674 -0.901993 0
M  V30 21493 C 2020.21 -2.58567 2.46734 0
M  V30 21494 C 2019.88 -2.22403 3.92234 0
M  V30 21495 C 2018.54 -2.12252 4.31859 0
M  V30 21496 C 2020.89 -1.93717 4.83863 0
M  V30 21497 C 2018.22 -1.71594 5.61046 0
M  V30 21498 C 2020.57 -1.54553 6.1343 0
M  V30 21499 C 2019.24 -1.42939 6.52016 0
M  V30 21500 H 2018.51 -0.511463 0.536177 0
M  V30 21501 H 2021.15 -0.724184 1.77279 0
M  V30 21502 H 2019.46 -3.31123 2.0944 0
M  V30 21503 H 2021.16 -3.16791 2.45855 0
M  V30 21504 H 2017.75 -2.31219 3.60882 0
M  V30 21505 H 2021.93 -2.00472 4.5401 0
M  V30 21506 H 2017.19 -1.612 5.89766 0
M  V30 21507 H 2021.36 -1.31393 6.83892 0
M  V30 21508 H 2018.99 -1.11206 7.52022 0
M  V30 21509 N 2020.56 -1.3089 -0.877815 0
M  V30 21510 C 2021.84 -1.10773 -1.6121 0
M  V30 21511 C 2022.22 0.340404 -2.08337 0
M  V30 21512 O 2021.57 1.33316 -1.85577 0
M  V30 21513 C 2021.78 -2.11499 -2.77613 0
M  V30 21514 C 2023.13 -2.43601 -3.47769 0
M  V30 21515 O 2024.15 -2.09865 -2.87811 0
M  V30 21516 O 2023.01 -3.0134 -4.55913 0
M  V30 21517 H 2020.1 -0.425928 -0.708882 0
M  V30 21518 H 2022.65 -1.42341 -0.923964 0
M  V30 21519 H 2021.42 -3.08943 -2.40146 0
M  V30 21520 H 2021.04 -1.80791 -3.54119 0
M  V30 21521 N 2022.04 1.0911 -1.13723 0
M  V30 21522 C 2023.28 1.82962 -0.911268 0
M  V30 21523 C 2023.64 1.83878 0.552529 0
M  V30 21524 O 2024.85 2.53421 0.896168 0
M  V30 21525 C 2023.12 3.24999 -1.48696 0
M  V30 21526 S 2024.68 4.15816 -1.40153 0
M  V30 21527 H 2021.49 0.630622 -0.328386 0
M  V30 21528 H 2024.1 1.31201 -1.44936 0
M  V30 21529 H 2022.8 3.2191 -2.54562 0
M  V30 21530 H 2022.33 3.81833 -0.946951 0
M  V30 21531 H 2024.35 4.94726 -0.382175 0
M  V30 21532 N 2023.52 0.931232 1.27145 0
M  V30 21533 C 2024.76 0.574376 1.94496 0
M  V30 21534 C 2025.1 -0.882702 1.7298 0
M  V30 21535 O 2024.37 -1.63016 1.06094 0
M  V30 21536 C 2024.66 0.905384 3.48532 0
M  V30 21537 C 2024.51 2.41647 3.79377 0
M  V30 21538 C 2025.83 0.413756 4.38151 0
M  V30 21539 H 2022.95 0.210149 0.706404 0
M  V30 21540 H 2025.59 1.16365 1.50197 0
M  V30 21541 H 2023.74 0.403903 3.86395 0
M  V30 21542 H 2025.41 2.98992 3.51286 0
M  V30 21543 H 2023.65 2.86417 3.25803 0
M  V30 21544 H 2024.32 2.5986 4.87008 0
M  V30 21545 H 2026.8 0.843592 4.07459 0
M  V30 21546 H 2025.68 0.67428 5.44743 0
M  V30 21547 H 2025.94 -0.686214 4.36742 0
M  V30 21548 N 2025 -1.41343 0.697132 0
M  V30 21549 C 2026.24 -2.01502 0.229099 0
M  V30 21550 C 2026.58 -1.55093 -1.16875 0
M  V30 21551 O 2025.85 -0.7628 -1.78918 0
M  V30 21552 C 2026.13 -3.58942 0.288524 0
M  V30 21553 C 2025.99 -4.15473 1.72343 0
M  V30 21554 C 2027.31 -4.387 -0.350786 0
M  V30 21555 H 2024.43 -0.732114 0.0847216 0
M  V30 21556 H 2027.07 -1.6807 0.886148 0
M  V30 21557 H 2025.22 -3.87554 -0.270916 0
M  V30 21558 H 2026.89 -3.97731 2.33684 0
M  V30 21559 H 2025.13 -3.70456 2.25709 0
M  V30 21560 H 2025.8 -5.24632 1.71653 0
M  V30 21561 H 2028.28 -4.1591 0.125682 0
M  V30 21562 H 2027.16 -5.48192 -0.27867 0
M  V30 21563 H 2027.42 -4.18275 -1.43172 0
M  V30 21564 N 2026.48 -0.441993 -1.51275 0
M  V30 21565 C 2027.42 0.381441 -2.29451 0
M  V30 21566 C 2028.42 1.01672 -1.35496 0
M  V30 21567 O 2029.62 0.95115 -1.52817 0
M  V30 21568 H 2026 0.141826 -0.738505 0
M  V30 21569 H 2027.97 -0.298692 -2.96901 0
M  V30 21570 C 2026.72 1.46756 -3.15211 0
M  V30 21571 H 2026.04 0.988092 -3.87397 0
M  V30 21572 H 2027.48 2.01687 -3.72959 0
M  V30 21573 C 2025.94 2.4534 -2.30889 0
M  V30 21574 O 2026.47 3.49979 -1.97173 0
M  V30 21575 N 2024.68 2.16342 -1.94022 0
M  V30 21576 H 2024.22 1.31276 -2.2164 0
M  V30 21577 H 2024.18 2.82543 -1.37902 0
M  V30 21578 N 2027.95 1.56642 -0.173515 0
M  V30 21579 C 2029.18 2.01763 0.480249 0
M  V30 21580 C 2029.6 1.05294 1.55868 0
M  V30 21581 O 2028.96 0.0328468 1.8127 0
M  V30 21582 C 2029.01 3.45473 1.03349 0
M  V30 21583 O 2028.11 3.52081 2.14739 0
M  V30 21584 H 2027.45 0.654011 0.114743 0
M  V30 21585 H 2029.98 2.02702 -0.278052 0
M  V30 21586 H 2029.99 3.84823 1.35554 0
M  V30 21587 H 2028.67 4.15184 0.243902 0
M  V30 21588 H 2027.25 3.24591 1.83562 0
M  V30 21589 N 2029.43 -0.1002 1.57281 0
M  V30 21590 C 2030.36 -1.12278 2.04734 0
M  V30 21591 C 2031.34 -1.42079 0.935281 0
M  V30 21592 O 2032.53 -1.52197 1.20622 0
M  V30 21593 C 2029.66 -2.44402 2.46748 0
M  V30 21594 C 2028.61 -2.29021 3.61571 0
M  V30 21595 C 2027.94 -3.66276 3.89545 0
M  V30 21596 C 2029.24 -1.73501 4.9264 0
M  V30 21597 H 2030.93 -0.728019 2.90414 0
M  V30 21598 H 2028.48 -0.348753 1.39713 0
M  V30 21599 H 2030.43 -3.16206 2.78553 0
M  V30 21600 H 2029.15 -2.85804 1.58061 0
M  V30 21601 H 2027.81 -1.59664 3.30005 0
M  V30 21602 H 2027.46 -4.05197 2.98034 0
M  V30 21603 H 2027.16 -3.56833 4.66845 0
M  V30 21604 H 2028.69 -4.39555 4.2382 0
M  V30 21605 H 2030.1 -2.35141 5.22859 0
M  V30 21606 H 2028.5 -1.7483 5.74068 0
M  V30 21607 H 2029.57 -0.69403 4.79908 0
M  V30 21608 N 2030.91 -1.53174 -0.370891 0
M  V30 21609 C 2031.86 -1.79236 -1.45406 0
M  V30 21610 C 2032.83 -0.636453 -1.53423 0
M  V30 21611 O 2034.01 -0.878079 -1.69394 0
M  V30 21612 C 2031.15 -1.98327 -2.82419 0
M  V30 21613 C 2030.26 -3.2604 -2.83411 0
M  V30 21614 C 2029.4 -3.35348 -4.11965 0
M  V30 21615 C 2028.44 -4.57114 -4.07079 0
M  V30 21616 N 2027.58 -4.63603 -5.27272 0
M  V30 21617 H 2032.42 -2.71666 -1.22482 0
M  V30 21618 H 2029.95 -1.3458 -0.593853 0
M  V30 21619 H 2031.91 -2.07382 -3.62006 0
M  V30 21620 H 2030.54 -1.0924 -3.03754 0
M  V30 21621 H 2029.59 -3.25966 -1.96088 0
M  V30 21622 H 2030.9 -4.157 -2.75672 0
M  V30 21623 H 2030.06 -3.43685 -4.99966 0
M  V30 21624 H 2028.8 -2.43695 -4.2245 0
M  V30 21625 H 2027.8 -4.48883 -3.17466 0
M  V30 21626 H 2029.03 -5.50102 -3.98201 0
M  V30 21627 H 2026.97 -3.74849 -5.38353 0
M  V30 21628 H 2026.89 -5.4716 -5.21682 0
M  V30 21629 H 2028.16 -4.76218 -6.1712 0
M  V30 21630 N 2032.39 0.630389 -1.44443 0
M  V30 21631 C 2033.34 1.76351 -1.51667 0
M  V30 21632 C 2034.33 1.64889 -0.388317 0
M  V30 21633 O 2035.54 1.70959 -0.563293 0
M  V30 21634 H 2031.91 0.582226 -0.475937 0
M  V30 21635 H 2033.88 1.67382 -2.47034 0
M  V30 21636 C 2032.63 3.14688 -1.47875 0
M  V30 21637 H 2031.95 3.24156 -2.34015 0
M  V30 21638 H 2033.39 3.93866 -1.5699 0
M  V30 21639 C 2031.85 3.36308 -0.199622 0
M  V30 21640 O 2032.38 3.95013 0.72988 0
M  V30 21641 N 2030.59 2.90419 -0.102524 0
M  V30 21642 H 2030.14 2.42829 -0.859761 0
M  V30 21643 H 2030.09 3.0526 0.752566 0
M  V30 21644 N 2033.87 1.31354 0.870861 0
M  V30 21645 C 2035.11 1.21167 1.62623 0
M  V30 21646 C 2035.44 -0.22989 1.92835 0
M  V30 21647 O 2034.72 -1.16257 1.55931 0
M  V30 21648 C 2035 2.05505 2.95702 0
M  V30 21649 C 2034.86 3.57955 2.72375 0
M  V30 21650 C 2036.17 1.90375 3.96794 0
M  V30 21651 H 2033.29 0.441517 0.590111 0
M  V30 21652 H 2035.94 1.61134 1.00676 0
M  V30 21653 H 2034.09 1.71549 3.48573 0
M  V30 21654 H 2035.76 4.02044 2.26183 0
M  V30 21655 H 2034 3.81431 2.06623 0
M  V30 21656 H 2034.67 4.12273 3.67063 0
M  V30 21657 H 2037.15 2.20089 3.53129 0
M  V30 21658 H 2036.02 2.51689 4.87795 0
M  V30 21659 H 2036.28 0.866804 4.33519 0
M  V30 21660 N 2035.34 -1.08505 1.143 0
M  V30 21661 C 2036.59 -1.80872 0.910589 0
M  V30 21662 C 2036.92 -1.86177 -0.562883 0
M  V30 21663 O 2036.17 -1.33282 -1.43299 0
M  V30 21664 C 2036.47 -3.26425 1.45538 0
M  V30 21665 C 2036.14 -3.41239 2.94732 0
M  V30 21666 C 2034.8 -3.44989 3.35464 0
M  V30 21667 C 2037.15 -3.45 3.90672 0
M  V30 21668 C 2034.48 -3.5009 4.70801 0
M  V30 21669 C 2036.83 -3.51637 5.25865 0
M  V30 21670 C 2035.5 -3.53659 5.66111 0
M  V30 21671 H 2034.77 -0.661856 0.333208 0
M  V30 21672 H 2037.41 -1.27762 1.4265 0
M  V30 21673 H 2035.72 -3.82237 0.860376 0
M  V30 21674 H 2037.42 -3.8097 1.25151 0
M  V30 21675 H 2034.01 -3.39011 2.6224 0
M  V30 21676 H 2038.19 -3.41334 3.60284 0
M  V30 21677 H 2033.45 -3.49949 5.01344 0
M  V30 21678 H 2037.62 -3.53492 6.00013 0
M  V30 21679 H 2035.25 -3.57365 6.70965 0
M  V30 21680 N 2036.82 -0.937962 -1.26649 0
M  V30 21681 C 2037.77 -0.435759 -2.28482 0
M  V30 21682 C 2038.76 0.485286 -1.623 0
M  V30 21683 O 2039.97 0.363854 -1.76284 0
M  V30 21684 H 2036.34 -0.122373 -0.741976 0
M  V30 21685 H 2038.32 -1.30722 -2.68243 0
M  V30 21686 C 2037.06 0.286679 -3.46516 0
M  V30 21687 H 2036.39 -0.412881 -3.97662 0
M  V30 21688 H 2037.83 0.602341 -4.197 0
M  V30 21689 C 2036.29 1.50334 -3.01499 0
M  V30 21690 O 2036.82 2.60176 -3.06058 0
M  V30 21691 N 2035.02 1.35877 -2.56877 0
M  V30 21692 H 2034.57 0.465092 -2.53367 0
M  V30 21693 H 2034.53 2.17403 -2.27119 0
M  V30 21694 N 2038.3 1.40971 -0.704618 0
M  V30 21695 C 2039.55 2.00309 -0.236478 0
M  V30 21696 C 2039.86 1.56482 1.17358 0
M  V30 21697 O 2041.07 2.08442 1.73966 0
M  V30 21698 C 2039.52 3.57974 -0.371877 0
M  V30 21699 C 2039.13 4.10779 -1.78788 0
M  V30 21700 C 2040.88 4.24485 0.0360284 0
M  V30 21701 C 2038.78 5.60909 -1.87445 0
M  V30 21702 H 2037.71 0.749233 -0.0846557 0
M  V30 21703 H 2040.36 1.61342 -0.874125 0
M  V30 21704 H 2038.75 3.94587 0.334172 0
M  V30 21705 H 2039.92 3.85565 -2.52342 0
M  V30 21706 H 2038.23 3.56826 -2.14626 0
M  V30 21707 H 2040.83 5.34699 -0.00808813 0
M  V30 21708 H 2041.17 4.02149 1.07621 0
M  V30 21709 H 2041.71 3.92938 -0.620069 0
M  V30 21710 H 2038.45 5.88084 -2.89546 0
M  V30 21711 H 2037.97 5.88021 -1.18287 0
M  V30 21712 H 2039.65 6.25831 -1.6415 0
M  V30 21713 N 2039.78 0.45001 1.51039 0
M  V30 21714 C 2040.71 -0.345315 2.30933 0
M  V30 21715 C 2041.69 -1.00959 1.36899 0
M  V30 21716 O 2042.87 -1.0108 1.6582 0
M  V30 21717 C 2040 -1.43968 3.16055 0
M  V30 21718 C 2038.96 -0.898198 4.18469 0
M  V30 21719 C 2038.28 -2.08927 4.92193 0
M  V30 21720 C 2039.58 0.0760911 5.22245 0
M  V30 21721 H 2041.28 0.321441 2.97669 0
M  V30 21722 H 2038.82 0.156032 1.43152 0
M  V30 21723 H 2040.78 -2.00338 3.70732 0
M  V30 21724 H 2039.5 -2.1349 2.47163 0
M  V30 21725 H 2038.16 -0.356617 3.64861 0
M  V30 21726 H 2037.81 -2.77098 4.19792 0
M  V30 21727 H 2037.51 -1.73328 5.61454 0
M  V30 21728 H 2039.03 -2.65827 5.49698 0
M  V30 21729 H 2040.45 -0.397728 5.71919 0
M  V30 21730 H 2038.84 0.345281 5.99106 0
M  V30 21731 H 2039.91 1.00878 4.74291 0
M  V30 21732 N 2041.26 -1.56548 0.18182 0
M  V30 21733 C 2042.51 -1.96371 -0.460566 0
M  V30 21734 C 2042.82 -1.07099 -1.63674 0
M  V30 21735 O 2044.02 -1.36648 -2.34605 0
M  V30 21736 C 2042.48 -3.49207 -0.870777 0
M  V30 21737 C 2042.09 -4.47122 0.280378 0
M  V30 21738 C 2043.83 -3.97828 -1.48099 0
M  V30 21739 C 2041.74 -5.9121 -0.15005 0
M  V30 21740 H 2040.67 -0.73321 -0.175838 0
M  V30 21741 H 2043.32 -1.81477 0.271724 0
M  V30 21742 H 2041.7 -3.59557 -1.65935 0
M  V30 21743 H 2042.88 -4.48494 1.05781 0
M  V30 21744 H 2041.19 -4.08619 0.801227 0
M  V30 21745 H 2043.79 -5.02944 -1.81525 0
M  V30 21746 H 2044.13 -3.41369 -2.38271 0
M  V30 21747 H 2044.66 -3.90538 -0.75665 0
M  V30 21748 H 2041.4 -6.51565 0.717155 0
M  V30 21749 H 2040.92 -5.93121 -0.892621 0
M  V30 21750 H 2042.6 -6.44301 -0.590372 0
M  V30 21751 N 2042.73 0.0918577 -1.57332 0
M  V30 21752 C 2043.98 0.795934 -1.86528 0
M  V30 21753 C 2044.31 1.78222 -0.771388 0
M  V30 21754 O 2043.59 1.93248 0.220326 0
M  V30 21755 C 2043.87 1.5218 -3.26364 0
M  V30 21756 C 2043.72 0.553281 -4.46384 0
M  V30 21757 C 2045.04 2.4716 -3.64143 0
M  V30 21758 H 2042.16 0.287896 -0.678443 0
M  V30 21759 H 2044.8 0.0594952 -1.89907 0
M  V30 21760 H 2042.95 2.14956 -3.23614 0
M  V30 21761 H 2044.63 -0.0677239 -4.6125 0
M  V30 21762 H 2042.87 -0.133076 -4.33596 0
M  V30 21763 H 2043.54 1.09838 -5.40962 0
M  V30 21764 H 2046.02 1.94474 -3.67857 0
M  V30 21765 H 2044.89 2.94964 -4.62912 0
M  V30 21766 H 2045.15 3.31065 -2.92999 0
M  V30 21767 N 2044.21 1.53368 0.362763 0
M  V30 21768 C 2045.44 1.73348 1.12402 0
M  V30 21769 C 2045.85 0.463567 1.83433 0
M  V30 21770 O 2045.19 -0.573438 1.7452 0
M  V30 21771 C 2045.26 2.84605 2.19637 0
M  V30 21772 C 2044.92 4.24862 1.68348 0
M  V30 21773 C 2045.92 5.07111 1.14605 0
M  V30 21774 C 2043.6 4.71283 1.73776 0
M  V30 21775 C 2045.6 6.33872 0.669702 0
M  V30 21776 C 2043.28 5.98021 1.25753 0
M  V30 21777 C 2044.28 6.79148 0.724405 0
M  V30 21778 O 2043.97 8.03507 0.251275 0
M  V30 21779 H 2043.7 0.583168 0.341893 0
M  V30 21780 H 2046.25 2.00919 0.426694 0
M  V30 21781 H 2044.48 2.52514 2.92871 0
M  V30 21782 H 2046.17 2.92735 2.81177 0
M  V30 21783 H 2046.94 4.7242 1.09748 0
M  V30 21784 H 2042.82 4.08208 2.14213 0
M  V30 21785 H 2046.36 6.97141 0.252909 0
M  V30 21786 H 2042.26 6.32211 1.30304 0
M  V30 21787 H 2043.03 8.17662 0.370343 0
M  V30 21788 N 2045.69 -0.62272 1.44776 0
M  V30 21789 C 2046.62 -1.74744 1.46764 0
M  V30 21790 C 2047.6 -1.59307 0.325571 0
M  V30 21791 O 2048.79 -1.81076 0.523811 0
M  V30 21792 C 2045.91 -3.12411 1.30832 0
M  V30 21793 C 2044.96 -3.46476 2.4871 0
M  V30 21794 S 2045.79 -3.43011 4.11222 0
M  V30 21795 C 2046.95 -4.83284 3.97728 0
M  V30 21796 H 2047.18 -1.72792 2.41931 0
M  V30 21797 H 2044.71 -0.798067 1.32175 0
M  V30 21798 H 2046.67 -3.9185 1.22327 0
M  V30 21799 H 2045.33 -3.11894 0.371621 0
M  V30 21800 H 2044.53 -4.46675 2.33447 0
M  V30 21801 H 2044.13 -2.74519 2.53998 0
M  V30 21802 H 2046.42 -5.72719 3.61937 0
M  V30 21803 H 2047.36 -5.03602 4.97786 0
M  V30 21804 H 2047.77 -4.58254 3.29642 0
M  V30 21805 N 2047.17 -1.31814 -0.863883 0
M  V30 21806 C 2048.1 -1.22574 -1.98741 0
M  V30 21807 C 2049.08 -0.111585 -1.69734 0
M  V30 21808 O 2050.26 -0.29721 -1.91912 0
M  V30 21809 C 2047.39 -0.938559 -3.34378 0
M  V30 21810 C 2046.35 -2.01295 -3.7771 0
M  V30 21811 C 2045.67 -1.57834 -5.10874 0
M  V30 21812 C 2046.97 -3.42684 -3.94164 0
M  V30 21813 H 2048.67 -2.16572 -2.06729 0
M  V30 21814 H 2046.21 -1.04262 -0.993246 0
M  V30 21815 H 2048.17 -0.860501 -4.12521 0
M  V30 21816 H 2046.89 0.0370783 -3.26579 0
M  V30 21817 H 2045.55 -2.081 -3.01811 0
M  V30 21818 H 2045.2 -0.5904 -4.99523 0
M  V30 21819 H 2044.9 -2.29713 -5.40838 0
M  V30 21820 H 2046.42 -1.51448 -5.9152 0
M  V30 21821 H 2047.84 -3.38519 -4.62685 0
M  V30 21822 H 2046.23 -4.12833 -4.35533 0
M  V30 21823 H 2047.3 -3.83023 -2.97358 0
M  V30 21824 N 2048.65 1.07897 -1.14873 0
M  V30 21825 C 2049.89 1.80386 -0.920169 0
M  V30 21826 C 2050.22 1.86473 0.553002 0
M  V30 21827 O 2049.48 1.3404 1.4259 0
M  V30 21828 C 2049.78 3.25649 -1.47267 0
M  V30 21829 C 2049.44 3.39671 -2.96537 0
M  V30 21830 C 2048.1 3.43205 -3.37288 0
M  V30 21831 C 2050.46 3.42923 -3.92496 0
M  V30 21832 C 2047.78 3.47589 -4.72651 0
M  V30 21833 C 2050.14 3.48843 -5.27723 0
M  V30 21834 C 2048.8 3.50652 -5.67978 0
M  V30 21835 H 2048.07 0.66008 -0.336714 0
M  V30 21836 H 2050.72 1.27004 -1.43326 0
M  V30 21837 H 2049.02 3.81775 -0.880635 0
M  V30 21838 H 2050.72 3.80301 -1.2717 0
M  V30 21839 H 2047.31 3.37615 -2.64034 0
M  V30 21840 H 2051.49 3.39419 -3.62089 0
M  V30 21841 H 2046.75 3.47285 -5.03193 0
M  V30 21842 H 2050.92 3.50305 -6.0188 0
M  V30 21843 H 2048.55 3.53802 -6.72851 0
M  V30 21844 N 2050.12 0.944665 1.2615 0
M  V30 21845 C 2051.06 0.401268 2.24644 0
M  V30 21846 C 2052.04 -0.511856 1.54333 0
M  V30 21847 O 2053.22 -0.44851 1.83086 0
M  V30 21848 C 2050.35 -0.423081 3.36047 0
M  V30 21849 C 2049.39 0.429013 4.24337 0
M  V30 21850 S 2050.23 1.85512 5.0234 0
M  V30 21851 C 2051.38 1.03892 6.17217 0
M  V30 21852 H 2051.61 1.236 2.70389 0
M  V30 21853 H 2049.15 0.748025 1.3507 0
M  V30 21854 H 2051.11 -0.892789 4.00674 0
M  V30 21855 H 2049.77 -1.23253 2.88907 0
M  V30 21856 H 2048.96 -0.202757 5.03592 0
M  V30 21857 H 2048.56 0.833541 3.64593 0
M  V30 21858 H 2050.85 0.282839 6.76909 0
M  V30 21859 H 2051.8 1.80505 6.84707 0
M  V30 21860 H 2052.2 0.573442 5.6158 0
M  V30 21861 N 2051.6 -1.40596 0.712085 0
M  V30 21862 C 2052.85 -2.0095 0.250087 0
M  V30 21863 C 2053.18 -1.5645 -1.15558 0
M  V30 21864 O 2052.43 -0.773994 -1.79744 0
M  V30 21865 C 2052.73 -3.56346 0.27427 0
M  V30 21866 C 2052.4 -4.20416 1.62975 0
M  V30 21867 C 2051.06 -4.37632 2.0008 0
M  V30 21868 C 2053.41 -4.56187 2.52076 0
M  V30 21869 C 2050.74 -4.87899 3.2584 0
M  V30 21870 C 2053.09 -5.07853 3.77185 0
M  V30 21871 C 2051.76 -5.23277 4.14412 0
M  V30 21872 H 2051.03 -0.735327 0.0915134 0
M  V30 21873 H 2053.67 -1.68257 0.914427 0
M  V30 21874 H 2051.98 -3.88927 -0.473638 0
M  V30 21875 H 2053.67 -4.00873 -0.100977 0
M  V30 21876 H 2050.26 -4.07403 1.3312 0
M  V30 21877 H 2054.45 -4.42527 2.24686 0
M  V30 21878 H 2049.7 -4.98026 3.54655 0
M  V30 21879 H 2053.88 -5.34509 4.46401 0
M  V30 21880 H 2051.51 -5.6199 5.11929 0
M  V30 21881 N 2053.08 -0.458013 -1.50798 0
M  V30 21882 C 2054.33 0.10308 -2.01436 0
M  V30 21883 C 2054.64 1.41957 -1.34564 0
M  V30 21884 O 2055.85 2.06484 -1.76286 0
M  V30 21885 C 2054.3 0.234229 -3.59137 0
M  V30 21886 C 2053.91 -1.07305 -4.34959 0
M  V30 21887 C 2055.66 0.747982 -4.17858 0
M  V30 21888 C 2053.56 -0.906414 -5.84413 0
M  V30 21889 H 2052.49 0.0422981 -0.752813 0
M  V30 21890 H 2055.14 -0.590924 -1.73725 0
M  V30 21891 H 2053.53 0.991716 -3.83381 0
M  V30 21892 H 2054.7 -1.84048 -4.22449 0
M  V30 21893 H 2053.02 -1.51691 -3.87787 0
M  V30 21894 H 2055.61 0.889478 -5.2725 0
M  V30 21895 H 2055.96 1.73592 -3.7838 0
M  V30 21896 H 2056.49 0.048243 -3.97771 0
M  V30 21897 H 2053.23 -1.86733 -6.2834 0
M  V30 21898 H 2052.75 -0.179147 -5.99532 0
M  V30 21899 H 2054.43 -0.567802 -6.44504 0
M  V30 21900 N 2054.56 1.56449 -0.190119 0
M  V30 21901 C 2055.81 1.97438 0.449957 0
M  V30 21902 C 2056.13 1.07682 1.61972 0
M  V30 21903 O 2055.39 0.114859 1.95363 0
M  V30 21904 C 2055.69 3.44349 0.956988 0
M  V30 21905 C 2055.35 4.50792 -0.098868 0
M  V30 21906 C 2054.02 4.79625 -0.389003 0
M  V30 21907 C 2056.37 5.14795 -0.814559 0
M  V30 21908 C 2053.7 5.69754 -1.39989 0
M  V30 21909 C 2056.05 6.06017 -1.81456 0
M  V30 21910 C 2054.71 6.33209 -2.11195 0
M  V30 21911 H 2053.98 0.722476 0.164651 0
M  V30 21912 H 2056.63 1.89352 -0.286039 0
M  V30 21913 H 2054.93 3.49481 1.77116 0
M  V30 21914 H 2056.63 3.73416 1.46155 0
M  V30 21915 H 2053.22 4.2838 0.137435 0
M  V30 21916 H 2057.41 4.92615 -0.603633 0
M  V30 21917 H 2052.66 5.89098 -1.63627 0
M  V30 21918 H 2056.84 6.54672 -2.37438 0
M  V30 21919 H 2054.46 7.02847 -2.89672 0
M  V30 21920 N 2056.04 -0.0835127 1.57379 0
M  V30 21921 C 2057 -1.08477 2.01905 0
M  V30 21922 C 2058 -1.32278 0.91428 0
M  V30 21923 O 2059.19 -1.28196 1.17947 0
M  V30 21924 C 2056.32 -2.43121 2.38967 0
M  V30 21925 H 2057.52 -0.701256 2.91586 0
M  V30 21926 H 2055.07 -0.328903 1.528 0
M  V30 21927 H 2055.8 -2.86326 1.52275 0
M  V30 21928 H 2055.59 -2.2719 3.19573 0
M  V30 21929 H 2057.08 -3.15113 2.74032 0
M  V30 21930 N 2057.52 -1.53558 -0.354624 0
M  V30 21931 C 2058.76 -1.70523 -1.09772 0
M  V30 21932 C 2059.09 -0.461312 -1.88641 0
M  V30 21933 O 2058.37 0.541553 -1.86809 0
M  V30 21934 C 2058.65 -2.96191 -2.04799 0
M  V30 21935 C 2058.51 -4.30765 -1.29465 0
M  V30 21936 C 2059.82 -3.17493 -3.04772 0
M  V30 21937 H 2056.94 -0.620497 -0.397683 0
M  V30 21938 H 2059.59 -1.86214 -0.377395 0
M  V30 21939 H 2057.74 -2.82944 -2.66223 0
M  V30 21940 H 2059.41 -4.55844 -0.707409 0
M  V30 21941 H 2057.65 -4.29678 -0.596569 0
M  V30 21942 H 2058.32 -5.14852 -1.99076 0
M  V30 21943 H 2060.8 -3.29998 -2.53458 0
M  V30 21944 H 2059.67 -4.06838 -3.68476 0
M  V30 21945 H 2059.93 -2.33276 -3.75546 0
M  V30 21946 N 2058.99 0.615033 -1.45104 0
M  V30 21947 C 2060.24 1.37627 -1.48952 0
M  V30 21948 C 2060.57 1.93779 -0.127873 0
M  V30 21949 O 2059.85 1.74617 0.856686 0
M  V30 21950 C 2060.13 2.5297 -2.56278 0
M  V30 21951 C 2059.98 2.02063 -4.01859 0
M  V30 21952 C 2061.3 3.55121 -2.59956 0
M  V30 21953 H 2058.42 0.49907 -0.542308 0
M  V30 21954 H 2061.06 0.693977 -1.76873 0
M  V30 21955 H 2059.21 3.11174 -2.326 0
M  V30 21956 H 2060.89 1.48565 -4.36722 0
M  V30 21957 H 2059.13 1.3312 -4.1287 0
M  V30 21958 H 2059.8 2.85176 -4.72629 0
M  V30 21959 H 2062.28 3.06745 -2.81153 0
M  V30 21960 H 2061.15 4.33326 -3.36927 0
M  V30 21961 H 2061.41 4.10251 -1.64761 0
M  V30 21962 N 2060.47 1.3227 0.85688 0
M  V30 21963 C 2061.43 1.2096 1.94682 0
M  V30 21964 C 2062.43 0.133231 1.60247 0
M  V30 21965 O 2063.62 0.383471 1.69927 0
M  V30 21966 C 2060.76 0.85974 3.29881 0
M  V30 21967 H 2061.95 2.17823 2.06139 0
M  V30 21968 H 2059.5 1.16069 1.04679 0
M  V30 21969 H 2060.24 -0.107161 3.24123 0
M  V30 21970 H 2060.02 1.63794 3.5625 0
M  V30 21971 H 2061.51 0.804868 4.0977 0
M  V30 21972 N 2061.95 -1.07287 1.15444 0
M  V30 21973 C 2063.2 -1.80162 0.931099 0
M  V30 21974 C 2063.53 -1.8653 -0.540402 0
M  V30 21975 O 2062.8 -1.34951 -1.40066 0
M  V30 21976 C 2063.09 -3.25184 1.54685 0
M  V30 21977 C 2062.94 -3.26957 3.089 0
M  V30 21978 C 2064.26 -4.2247 1.23318 0
M  V30 21979 H 2061.38 -0.654053 0.339682 0
M  V30 21980 H 2064.02 -1.25539 1.42619 0
M  V30 21981 H 2062.17 -3.7183 1.12583 0
M  V30 21982 H 2063.84 -2.88549 3.59912 0
M  V30 21983 H 2062.08 -2.65898 3.42755 0
M  V30 21984 H 2062.76 -4.29218 3.47097 0
M  V30 21985 H 2065.23 -3.84218 1.59737 0
M  V30 21986 H 2064.11 -5.2223 1.69018 0
M  V30 21987 H 2064.37 -4.41844 0.150314 0
M  V30 21988 N 2063.43 -0.951342 -1.25647 0
M  V30 21989 C 2064.36 -0.426252 -2.25202 0
M  V30 21990 C 2065.37 0.456064 -1.56281 0
M  V30 21991 O 2066.56 0.264871 -1.76524 0
M  V30 21992 C 2063.66 0.405493 -3.36465 0
M  V30 21993 C 2062.83 -0.46305 -4.34942 0
M  V30 21994 C 2061.89 0.309948 -5.25286 0
M  V30 21995 O 2060.92 -0.290524 -5.68458 0
M  V30 21996 N 2062.12 1.60389 -5.57903 0
M  V30 21997 H 2064.89 -1.28213 -2.7089 0
M  V30 21998 H 2062.45 -0.821338 -1.39519 0
M  V30 21999 H 2064.44 0.930256 -3.93863 0
M  V30 22000 H 2063.01 1.16222 -2.90192 0
M  V30 22001 H 2062.23 -1.16894 -3.7647 0
M  V30 22002 H 2063.52 -1.05598 -4.97721 0
M  V30 22003 H 2062.92 2.11372 -5.24727 0
M  V30 22004 H 2061.47 2.07469 -6.179 0
M  V30 22005 N 2064.91 1.40216 -0.719531 0
M  V30 22006 C 2065.84 2.33348 -0.08432 0
M  V30 22007 C 2066.82 1.53101 0.741225 0
M  V30 22008 O 2068 1.81553 0.68935 0
M  V30 22009 C 2065.13 3.37106 0.835256 0
M  V30 22010 C 2064.09 4.27845 0.115036 0
M  V30 22011 C 2063.41 5.22174 1.15059 0
M  V30 22012 C 2064.71 5.1198 -1.03314 0
M  V30 22013 H 2066.41 2.86716 -0.862219 0
M  V30 22014 H 2063.95 1.37858 -0.416073 0
M  V30 22015 H 2065.9 4.012 1.28905 0
M  V30 22016 H 2064.63 2.82142 1.6451 0
M  V30 22017 H 2063.29 3.6521 -0.318975 0
M  V30 22018 H 2062.94 4.63513 1.95359 0
M  V30 22019 H 2062.64 5.83727 0.673556 0
M  V30 22020 H 2064.16 5.89144 1.60441 0
M  V30 22021 H 2065.57 5.69505 -0.658522 0
M  V30 22022 H 2063.97 5.82596 -1.4388 0
M  V30 22023 H 2065.04 4.47725 -1.86199 0
M  V30 22024 N 2066.38 0.466004 1.50553 0
M  V30 22025 C 2067.63 -0.0907392 2.02297 0
M  V30 22026 C 2067.96 -1.40178 1.34835 0
M  V30 22027 O 2067.21 -1.90185 0.461328 0
M  V30 22028 C 2067.51 -0.32772 3.55894 0
M  V30 22029 C 2067.18 0.900994 4.41806 0
M  V30 22030 C 2065.84 1.23789 4.65005 0
M  V30 22031 C 2068.19 1.71933 4.92025 0
M  V30 22032 C 2065.52 2.39327 5.35667 0
M  V30 22033 C 2067.87 2.86595 5.63956 0
M  V30 22034 C 2066.54 3.20705 5.8541 0
M  V30 22035 H 2065.81 -0.0332038 0.740256 0
M  V30 22036 H 2068.45 0.619048 1.81218 0
M  V30 22037 H 2066.76 -1.1197 3.7546 0
M  V30 22038 H 2068.46 -0.772379 3.93491 0
M  V30 22039 H 2065.05 0.628519 4.23966 0
M  V30 22040 H 2069.23 1.47224 4.73961 0
M  V30 22041 H 2064.49 2.66035 5.50487 0
M  V30 22042 H 2068.66 3.50355 6.01851 0
M  V30 22043 H 2066.29 4.10341 6.39941 0
M  V30 22044 N 2067.86 -1.56346 0.198413 0
M  V30 22045 C 2068.81 -2.19245 -0.721128 0
M  V30 22046 C 2069.78 -1.14072 -1.20735 0
M  V30 22047 O 2070.96 -1.42336 -1.27063 0
M  V30 22048 C 2068.1 -2.85839 -1.93365 0
M  V30 22049 C 2067.22 -4.05546 -1.48849 0
M  V30 22050 C 2066.35 -4.59988 -2.65678 0
M  V30 22051 C 2065.39 -5.72046 -2.17784 0
M  V30 22052 N 2064.53 -6.20879 -3.27802 0
M  V30 22053 H 2069.37 -2.97468 -0.178003 0
M  V30 22054 H 2066.9 -1.46903 -0.076117 0
M  V30 22055 H 2068.86 -3.2262 -2.64522 0
M  V30 22056 H 2067.49 -2.10174 -2.45004 0
M  V30 22057 H 2066.54 -3.74405 -0.672674 0
M  V30 22058 H 2067.86 -4.86584 -1.09713 0
M  V30 22059 H 2067.01 -4.99092 -3.44952 0
M  V30 22060 H 2065.75 -3.78064 -3.08089 0
M  V30 22061 H 2064.75 -5.32467 -1.36964 0
M  V30 22062 H 2065.98 -6.5579 -1.76399 0
M  V30 22063 H 2063.93 -5.41876 -3.69738 0
M  V30 22064 H 2063.84 -6.96977 -2.92845 0
M  V30 22065 H 2065.11 -6.64637 -4.07281 0
M  V30 22066 N 2069.34 0.0751653 -1.57421 0
M  V30 22067 C 2070.59 0.773427 -1.86715 0
M  V30 22068 C 2070.91 1.78283 -0.789938 0
M  V30 22069 O 2070.18 1.95055 0.18176 0
M  V30 22070 H 2068.76 0.288632 -0.688985 0
M  V30 22071 H 2071.42 0.0520552 -1.9483 0
M  V30 22072 H 2070.52 1.29172 -2.84114 0
M  V30 22073 N 2070.82 1.53744 0.346476 0
M  V30 22074 C 2071.77 1.81527 1.42536 0
M  V30 22075 C 2072.74 0.660781 1.52391 0
M  V30 22076 O 2073.92 0.904918 1.67976 0
M  V30 22077 C 2071.06 2.02795 2.79228 0
M  V30 22078 C 2070.17 3.30508 2.78188 0
M  V30 22079 C 2069.31 3.41859 4.06578 0
M  V30 22080 C 2068.35 4.63532 3.99755 0
M  V30 22081 N 2067.48 4.71933 5.1983 0
M  V30 22082 H 2072.32 2.7358 1.18144 0
M  V30 22083 H 2069.86 1.35508 0.572368 0
M  V30 22084 H 2071.82 2.13115 3.58661 0
M  V30 22085 H 2070.45 1.14059 3.01978 0
M  V30 22086 H 2069.5 3.29044 1.90877 0
M  V30 22087 H 2070.81 4.20033 2.69024 0
M  V30 22088 H 2069.97 3.51595 4.94435 0
M  V30 22089 H 2068.71 2.50385 4.1852 0
M  V30 22090 H 2067.71 4.53876 3.10284 0
M  V30 22091 H 2068.94 5.56368 3.89399 0
M  V30 22092 H 2066.88 3.83367 5.32321 0
M  V30 22093 H 2066.8 5.5539 5.12911 0
M  V30 22094 H 2068.07 4.85975 6.09466 0
M  V30 22095 N 2072.3 -0.607329 1.45428 0
M  V30 22096 C 2073.54 -1.36633 1.49458 0
M  V30 22097 C 2073.87 -1.94021 0.136421 0
M  V30 22098 O 2073.13 -1.75548 -0.864951 0
M  V30 22099 C 2073.43 -2.53276 2.52163 0
M  V30 22100 C 2073.09 -2.14033 3.96864 0
M  V30 22101 C 2071.75 -2.03044 4.36264 0
M  V30 22102 C 2074.11 -1.8341 4.87863 0
M  V30 22103 C 2071.43 -1.59655 5.64559 0
M  V30 22104 C 2073.79 -1.41507 6.1657 0
M  V30 22105 C 2072.45 -1.29077 6.54901 0
M  V30 22106 H 2071.72 -0.499975 0.546906 0
M  V30 22107 H 2074.37 -0.686418 1.78775 0
M  V30 22108 H 2072.67 -3.26606 2.16416 0
M  V30 22109 H 2074.37 -3.11505 2.52519 0
M  V30 22110 H 2070.96 -2.23512 3.65705 0
M  V30 22111 H 2075.14 -1.90797 4.5816 0
M  V30 22112 H 2070.4 -1.48654 5.93053 0
M  V30 22113 H 2074.57 -1.16857 6.86526 0
M  V30 22114 H 2072.2 -0.952297 7.54212 0
M  V30 22115 N 2073.77 -1.32722 -0.849853 0
M  V30 22116 C 2075.02 -1.23556 -1.60437 0
M  V30 22117 C 2075.35 0.201425 -1.93454 0
M  V30 22118 O 2074.6 1.15572 -1.57929 0
M  V30 22119 C 2074.9 -2.04524 -2.93095 0
M  V30 22120 C 2074.57 -3.53833 -2.79487 0
M  V30 22121 C 2073.23 -3.94541 -2.75483 0
M  V30 22122 C 2075.58 -4.48759 -2.65076 0
M  V30 22123 C 2072.91 -5.28409 -2.54953 0
M  V30 22124 C 2075.26 -5.82776 -2.4608 0
M  V30 22125 C 2073.93 -6.2268 -2.40471 0
M  V30 22126 H 2073.2 -0.452123 -0.587082 0
M  V30 22127 H 2075.84 -1.64198 -0.985462 0
M  V30 22128 H 2074.15 -1.56625 -3.59132 0
M  V30 22129 H 2075.85 -1.94797 -3.50507 0
M  V30 22130 H 2072.44 -3.21504 -2.83431 0
M  V30 22131 H 2076.62 -4.18225 -2.6721 0
M  V30 22132 H 2071.88 -5.58376 -2.4905 0
M  V30 22133 H 2076.05 -6.55942 -2.33909 0
M  V30 22134 H 2073.68 -7.26349 -2.24322 0
M  V30 22135 N 2075.25 1.06673 -1.16011 0
M  V30 22136 C 2076.2 2.12297 -0.831514 0
M  V30 22137 C 2077.19 1.59806 0.187329 0
M  V30 22138 O 2078.38 1.76995 -0.0129382 0
M  V30 22139 C 2075.51 3.41709 -0.330121 0
M  V30 22140 C 2074.59 4.01036 -1.37952 0
M  V30 22141 N 2074.98 4.34527 -2.58882 0
M  V30 22142 C 2073.28 4.28593 -1.23387 0
M  V30 22143 C 2073.98 4.81633 -3.26197 0
M  V30 22144 N 2072.96 4.80831 -2.5358 0
M  V30 22145 H 2076.76 2.36032 -1.75117 0
M  V30 22146 H 2074.28 1.24178 -1.04659 0
M  V30 22147 H 2076.27 4.1683 -0.0763293 0
M  V30 22148 H 2074.93 3.19414 0.583514 0
M  V30 22149 H 2075.94 4.24997 -2.9597 0
M  V30 22150 H 2072.62 4.15761 -0.380689 0
M  V30 22151 H 2074.01 5.16782 -4.29402 0
M  V30 22152 N 2076.73 0.957992 1.25141 0
M  V30 22153 C 2077.97 0.622306 1.94696 0
M  V30 22154 C 2078.33 -0.825845 1.73331 0
M  V30 22155 O 2079.54 -1.27128 2.36837 0
M  V30 22156 C 2077.81 0.975207 3.43838 0
M  V30 22157 S 2079.37 0.752603 4.32298 0
M  V30 22158 H 2076.18 0.228622 0.673241 0
M  V30 22159 H 2078.79 1.23288 1.51724 0
M  V30 22160 H 2077.49 2.02624 3.56892 0
M  V30 22161 H 2077.02 0.355017 3.91795 0
M  V30 22162 H 2079.04 -0.374938 4.94781 0
M  V30 22163 N 2078.21 -1.39832 0.726957 0
M  V30 22164 C 2079.44 -2.04978 0.281383 0
M  V30 22165 C 2079.85 -1.54795 -1.08092 0
M  V30 22166 O 2079.21 -0.709375 -1.68149 0
M  V30 22167 C 2079.26 -3.60526 0.265184 0
M  V30 22168 O 2078.98 -4.0886 1.5737 0
M  V30 22169 C 2080.48 -4.4286 -0.197547 0
M  V30 22170 H 2077.7 -0.659374 0.124366 0
M  V30 22171 H 2080.25 -1.7903 0.988352 0
M  V30 22172 H 2078.4 -3.85403 -0.392835 0
M  V30 22173 H 2078.81 -5.03132 1.48183 0
M  V30 22174 H 2080.29 -5.51775 -0.157727 0
M  V30 22175 H 2080.77 -4.21288 -1.24149 0
M  V30 22176 H 2081.37 -4.23114 0.430611 0
M  V30 22177 N 2079.69 -0.473982 -1.50304 0
M  V30 22178 C 2080.96 0.141727 -1.95086 0
M  V30 22179 C 2081.34 1.56703 -1.41447 0
M  V30 22180 O 2080.69 2.20021 -0.616691 0
M  V30 22181 C 2080.9 0.0820815 -3.48903 0
M  V30 22182 C 2082.25 0.26953 -4.23744 0
M  V30 22183 O 2083.27 0.158532 -3.55847 0
M  V30 22184 O 2082.13 0.494023 -5.44262 0
M  V30 22185 H 2079.23 0.110094 -0.819639 0
M  V30 22186 H 2081.77 -0.534591 -1.6106 0
M  V30 22187 H 2080.54 -0.912936 -3.80501 0
M  V30 22188 H 2080.17 0.799731 -3.89474 0
M  V30 22189 N 2081.16 1.56239 -0.206702 0
M  V30 22190 C 2082.07 2.2324 0.721172 0
M  V30 22191 C 2083.09 1.2352 1.22552 0
M  V30 22192 O 2084.27 1.56291 1.27025 0
M  V30 22193 C 2081.33 2.88767 1.91871 0
M  V30 22194 C 2080.39 4.03791 1.45779 0
M  V30 22195 C 2079.63 4.66183 2.59825 0
M  V30 22196 O 2079.85 4.27524 3.77597 0
M  V30 22197 O 2078.78 5.55444 2.31874 0
M  V30 22198 H 2082.61 3.03163 0.180488 0
M  V30 22199 H 2080.19 1.49382 0.0231036 0
M  V30 22200 H 2082.08 3.30181 2.61837 0
M  V30 22201 H 2080.75 2.11815 2.44777 0
M  V30 22202 H 2079.66 3.66976 0.726587 0
M  V30 22203 H 2080.99 4.82441 0.975269 0
M  V30 22204 N 2082.64 -0.0668159 1.57458 0
M  V30 22205 C 2083.87 -0.781616 1.92108 0
M  V30 22206 C 2084.29 -1.70072 0.803553 0
M  V30 22207 O 2083.65 -1.7966 -0.243316 0
M  V30 22208 C 2083.7 -1.54705 3.25728 0
M  V30 22209 O 2082.8 -2.65804 3.15312 0
M  V30 22210 H 2082.14 -0.212907 0.628941 0
M  V30 22211 H 2084.67 -0.0335704 2.04572 0
M  V30 22212 H 2084.68 -1.92522 3.59721 0
M  V30 22213 H 2083.36 -0.872713 4.06641 0
M  V30 22214 H 2081.94 -2.30807 2.92886 0
M  V30 22215 N 2084.12 -1.53926 -0.338317 0
M  V30 22216 C 2085.07 -1.8228 -1.41572 0
M  V30 22217 C 2086.04 -0.668853 -1.52038 0
M  V30 22218 O 2087.22 -0.913813 -1.67494 0
M  V30 22219 C 2084.36 -2.04273 -2.78148 0
M  V30 22220 C 2083.48 -3.31978 -2.76432 0
M  V30 22221 C 2082.61 -3.44011 -4.04759 0
M  V30 22222 C 2081.65 -4.65646 -3.97292 0
M  V30 22223 N 2080.79 -4.74683 -5.1732 0
M  V30 22224 H 2085.63 -2.74202 -1.16692 0
M  V30 22225 H 2083.16 -1.35809 -0.565173 0
M  V30 22226 H 2085.12 -2.15014 -3.57526 0
M  V30 22227 H 2083.75 -1.15659 -3.01368 0
M  V30 22228 H 2082.8 -3.30052 -1.89129 0
M  V30 22229 H 2084.12 -4.21454 -2.66792 0
M  V30 22230 H 2083.27 -3.54213 -4.92563 0
M  V30 22231 H 2082.01 -2.52601 -4.17186 0
M  V30 22232 H 2081.01 -4.55516 -3.07873 0
M  V30 22233 H 2082.24 -5.58425 -3.86443 0
M  V30 22234 H 2080.19 -3.86184 -5.30281 0
M  V30 22235 H 2080.1 -5.58103 -5.09958 0
M  V30 22236 H 2081.37 -4.89201 -6.0688 0
M  V30 22237 N 2085.6 0.599608 -1.45748 0
M  V30 22238 C 2086.51 1.73797 -1.57581 0
M  V30 22239 C 2087.53 1.67812 -0.45992 0
M  V30 22240 O 2088.7 1.88024 -0.721718 0
M  V30 22241 C 2085.77 3.10276 -1.54693 0
M  V30 22242 C 2084.83 3.27654 -2.77383 0
M  V30 22243 C 2084.06 4.57622 -2.74623 0
M  V30 22244 O 2084.28 5.40449 -1.82404 0
M  V30 22245 O 2083.22 4.77885 -3.65937 0
M  V30 22246 H 2087.04 1.66764 -2.53818 0
M  V30 22247 H 2084.63 0.764651 -1.28349 0
M  V30 22248 H 2086.51 3.91573 -1.55719 0
M  V30 22249 H 2085.19 3.17783 -0.616105 0
M  V30 22250 H 2084.09 2.45914 -2.81917 0
M  V30 22251 H 2085.43 3.25028 -3.69618 0
M  V30 22252 N 2087.08 1.33171 0.842803 0
M  V30 22253 C 2088.32 1.24405 1.5978 0
M  V30 22254 C 2088.65 -0.191163 1.93558 0
M  V30 22255 O 2087.91 -1.14732 1.5854 0
M  V30 22256 C 2088.21 2.06076 2.92006 0
M  V30 22257 C 2087.87 3.5531 2.77607 0
M  V30 22258 C 2086.53 3.95996 2.73387 0
M  V30 22259 C 2088.89 4.50158 2.62692 0
M  V30 22260 C 2086.21 5.29754 2.52147 0
M  V30 22261 C 2088.57 5.84073 2.42986 0
M  V30 22262 C 2087.23 6.23946 2.37166 0
M  V30 22263 H 2086.5 0.45523 0.584676 0
M  V30 22264 H 2089.15 1.64718 0.97674 0
M  V30 22265 H 2087.45 1.58528 3.58296 0
M  V30 22266 H 2089.15 1.96653 3.49469 0
M  V30 22267 H 2085.74 3.23003 2.81722 0
M  V30 22268 H 2089.92 4.19636 2.64989 0
M  V30 22269 H 2085.18 5.59689 2.46085 0
M  V30 22270 H 2089.35 6.57173 2.30427 0
M  V30 22271 H 2086.98 7.27529 2.20467 0
M  V30 22272 N 2088.56 -1.06056 1.16576 0
M  V30 22273 C 2089.47 -2.17107 0.888912 0
M  V30 22274 C 2090.48 -1.73438 -0.139723 0
M  V30 22275 O 2091.66 -2.01365 0.0374846 0
M  V30 22276 C 2088.72 -3.44425 0.396494 0
M  V30 22277 C 2087.78 -4.02589 1.49065 0
M  V30 22278 C 2087.02 -5.2383 1.02163 0
M  V30 22279 O 2087.24 -5.70257 -0.127684 0
M  V30 22280 O 2086.17 -5.7401 1.81098 0
M  V30 22281 H 2090 -2.43304 1.81761 0
M  V30 22282 H 2087.58 -1.1564 0.945923 0
M  V30 22283 H 2089.47 -4.21203 0.128983 0
M  V30 22284 H 2088.14 -3.1975 -0.504164 0
M  V30 22285 H 2087.05 -3.27292 1.81193 0
M  V30 22286 H 2088.38 -4.31565 2.3667 0
M  V30 22287 N 2090.03 -0.964615 -1.24631 0
M  V30 22288 C 2090.98 -0.49166 -2.25502 0
M  V30 22289 C 2091.95 0.46115 -1.5957 0
M  V30 22290 O 2093.14 0.372197 -1.87135 0
M  V30 22291 C 2090.28 0.214964 -3.4443 0
M  V30 22292 C 2089.39 -0.776253 -4.24969 0
M  V30 22293 C 2088.52 -0.0460512 -5.3118 0
M  V30 22294 C 2087.56 -1.02754 -6.03414 0
M  V30 22295 N 2086.7 -0.327547 -7.01336 0
M  V30 22296 H 2091.54 -1.35669 -2.65326 0
M  V30 22297 H 2089.08 -0.68015 -1.30431 0
M  V30 22298 H 2091.03 0.641314 -4.12241 0
M  V30 22299 H 2089.66 1.04397 -3.05452 0
M  V30 22300 H 2088.72 -1.32105 -3.56724 0
M  V30 22301 H 2090.03 -1.52481 -4.74922 0
M  V30 22302 H 2089.18 0.438447 -6.05114 0
M  V30 22303 H 2087.92 0.735226 -4.82126 0
M  V30 22304 H 2086.93 -1.52294 -5.28286 0
M  V30 22305 H 2088.15 -1.80921 -6.54557 0
M  V30 22306 H 2086.1 0.43481 -6.54557 0
M  V30 22307 H 2086.01 -1.01503 -7.49155 0
M  V30 22308 H 2087.28 0.135085 -7.79383 0
M  V30 22309 N 2091.51 1.39445 -0.734362 0
M  V30 22310 C 2092.79 1.94487 -0.208359 0
M  V30 22311 C 2093.17 1.6712 1.28974 0
M  V30 22312 O 2092.52 0.999082 2.05501 0
M  V30 22313 C 2092.73 3.44777 -0.541289 0
M  V30 22314 C 2094.07 4.2176 -0.490275 0
M  V30 22315 O 2095.1 3.52972 -0.478443 0
M  V30 22316 O 2093.96 5.4435 -0.48425 0
M  V30 22317 H 2091.05 0.826136 -0.037802 0
M  V30 22318 H 2093.6 1.48948 -0.813177 0
M  V30 22319 H 2092.37 3.58128 -1.5767 0
M  V30 22320 H 2091.99 3.97492 0.0925302 0
M  V30 22321 N 2092.99 0.481946 1.5005 0
M  V30 22322 C 2094.23 -0.067885 2.04287 0
M  V30 22323 C 2094.59 -1.36011 1.35517 0
M  V30 22324 O 2095.79 -1.993 1.80369 0
M  V30 22325 C 2094.07 -0.23649 3.56617 0
M  V30 22326 S 2095.62 -0.743315 4.32458 0
M  V30 22327 H 2092.44 -0.0108195 0.710918 0
M  V30 22328 H 2095.04 0.651566 1.84323 0
M  V30 22329 H 2093.75 0.709617 4.04218 0
M  V30 22330 H 2093.28 -0.981739 3.80953 0
M  V30 22331 H 2095.29 -2.01523 4.53435 0
M  V30 22332 N 2094.47 -1.56127 0.214985 0
M  V30 22333 C 2095.88 -1.5898 -0.140524 0
M  V30 22334 C 2096.08 -1.23166 -1.59475 0
M  V30 22335 O 2095.14 -0.963792 -2.33382 0
M  V30 22336 C 2096.45 -3.00162 0.179827 0
M  V30 22337 C 2098 -3.12764 0.121534 0
M  V30 22338 C 2098.48 -4.56112 0.415468 0
M  V30 22339 N 2099.97 -4.61761 0.364801 0
M  V30 22340 C 2100.7 -5.70602 0.565817 0
M  V30 22341 N 2100.2 -6.87831 0.828254 0
M  V30 22342 N 2101.99 -5.59883 0.498704 0
M  V30 22343 H 2094.14 -1.77683 1.16372 0
M  V30 22344 H 2096.4 -0.825579 0.465964 0
M  V30 22345 H 2096.11 -3.30995 1.1889 0
M  V30 22346 H 2095.98 -3.7376 -0.508279 0
M  V30 22347 H 2098.37 -2.81731 -0.878172 0
M  V30 22348 H 2098.45 -2.4151 0.843017 0
M  V30 22349 H 2098.1 -4.87861 1.41258 0
M  V30 22350 H 2098.03 -5.25583 -0.327132 0
M  V30 22351 H 2100.52 -3.7752 0.169387 0
M  V30 22352 H 2100.83 -7.66689 0.969914 0
M  V30 22353 H 2099.18 -6.89591 0.865375 0
M  V30 22354 H 2102.37 -4.67176 0.293953 0
M  V30 22355 H 2102.54 -6.44643 0.658773 0
M  V30 22356 N 2095.95 0.0584645 -1.57492 0
M  V30 22357 C 2097.19 0.75358 -1.87525 0
M  V30 22358 C 2097.51 1.77436 -0.808803 0
M  V30 22359 O 2096.78 1.95237 0.161061 0
M  V30 22360 H 2095.36 0.281308 -0.692008 0
M  V30 22361 H 2098.03 0.0313879 -1.94875 0
M  V30 22362 H 2097.12 1.26151 -2.85469 0
M  V30 22363 N 2097.42 1.54103 0.330149 0
M  V30 22364 C 2098.37 1.83029 1.40603 0
M  V30 22365 C 2099.34 0.676907 1.51681 0
M  V30 22366 O 2100.53 0.922683 1.67007 0
M  V30 22367 C 2097.67 2.05745 2.77061 0
M  V30 22368 C 2096.78 3.3344 2.74667 0
M  V30 22369 C 2095.91 3.46152 4.02929 0
M  V30 22370 C 2094.95 4.67746 3.94817 0
M  V30 22371 N 2094.09 4.7742 5.14796 0
M  V30 22372 H 2098.93 2.74817 1.15236 0
M  V30 22373 H 2096.47 1.36107 0.557963 0
M  V30 22374 H 2098.42 2.16907 3.56381 0
M  V30 22375 H 2097.05 1.17255 3.00751 0
M  V30 22376 H 2096.11 3.3105 1.87376 0
M  V30 22377 H 2097.42 4.22863 2.64554 0
M  V30 22378 H 2096.57 3.5682 4.90678 0
M  V30 22379 H 2095.31 2.5481 4.15841 0
M  V30 22380 H 2094.32 4.57142 3.05453 0
M  V30 22381 H 2095.54 5.60467 3.83476 0
M  V30 22382 H 2093.49 3.88991 5.28225 0
M  V30 22383 H 2093.4 5.60799 5.06991 0
M  V30 22384 H 2094.67 4.92412 6.04277 0
M  V30 22385 N 2098.9 -0.59187 1.46064 0
M  V30 22386 C 2100.13 -1.37466 1.54229 0
M  V30 22387 C 2100.54 -1.8835 0.1791 0
M  V30 22388 O 2099.88 -1.63765 -0.832274 0
M  V30 22389 C 2099.95 -2.60379 2.47877 0
M  V30 22390 C 2099.61 -2.31026 3.94305 0
M  V30 22391 C 2100.61 -1.90422 4.83772 0
M  V30 22392 C 2098.29 -2.43453 4.39359 0
M  V30 22393 C 2100.29 -1.62626 6.16305 0
M  V30 22394 C 2097.97 -2.15271 5.71928 0
M  V30 22395 C 2098.97 -1.74921 6.60221 0
M  V30 22396 O 2098.66 -1.47079 7.90331 0
M  V30 22397 H 2098.39 -0.426635 0.524365 0
M  V30 22398 H 2100.94 -0.7274 1.92089 0
M  V30 22399 H 2099.17 -3.27879 2.05018 0
M  V30 22400 H 2100.86 -3.2244 2.4655 0
M  V30 22401 H 2101.63 -1.80343 4.50224 0
M  V30 22402 H 2097.51 -2.73823 3.70866 0
M  V30 22403 H 2101.05 -1.31058 6.85179 0
M  V30 22404 H 2096.95 -2.2497 6.05028 0
M  V30 22405 H 2097.72 -1.61 8.02509 0
M  V30 22406 N 2100.38 -1.33616 -0.835729 0
M  V30 22407 C 2101.31 -1.26762 -1.96096 0
M  V30 22408 C 2102.29 -0.147563 -1.69459 0
M  V30 22409 O 2103.48 -0.33785 -1.91239 0
M  V30 22410 C 2100.61 -1.00927 -3.32312 0
M  V30 22411 C 2099.56 -2.09261 -3.73355 0
M  V30 22412 C 2098.89 -1.68635 -5.07411 0
M  V30 22413 C 2100.19 -3.50968 -3.86806 0
M  V30 22414 H 2101.88 -2.20908 -2.02089 0
M  V30 22415 H 2099.43 -1.06346 -0.970907 0
M  V30 22416 H 2101.38 -0.947809 -4.10603 0
M  V30 22417 H 2100.1 -0.0322023 -3.26584 0
M  V30 22418 H 2098.76 -2.14455 -2.97329 0
M  V30 22419 H 2098.41 -0.696223 -4.98158 0
M  V30 22420 H 2098.11 -2.41134 -5.35844 0
M  V30 22421 H 2099.63 -1.63961 -5.88175 0
M  V30 22422 H 2101.05 -3.48257 -4.55401 0
M  V30 22423 H 2099.45 -4.21978 -4.26678 0
M  V30 22424 H 2100.52 -3.89244 -2.89166 0
M  V30 22425 N 2101.86 1.05436 -1.17136 0
M  V30 22426 C 2102.79 2.15075 -0.909112 0
M  V30 22427 C 2103.77 1.69455 0.147942 0
M  V30 22428 O 2104.95 1.942 -0.00177952 0
M  V30 22429 C 2102.08 3.44764 -0.41892 0
M  V30 22430 C 2101.04 4.03937 -1.41488 0
M  V30 22431 C 2100.36 5.2894 -0.782739 0
M  V30 22432 C 2101.66 4.4171 -2.78728 0
M  V30 22433 H 2103.36 2.37271 -1.826 0
M  V30 22434 H 2100.9 1.14031 -0.879376 0
M  V30 22435 H 2102.86 4.2081 -0.222885 0
M  V30 22436 H 2101.58 3.22213 0.533496 0
M  V30 22437 H 2100.24 3.29958 -1.59761 0
M  V30 22438 H 2099.89 5.0269 0.176435 0
M  V30 22439 H 2099.59 5.6949 -1.44758 0
M  V30 22440 H 2101.11 6.07675 -0.596922 0
M  V30 22441 H 2102.53 5.08801 -2.64187 0
M  V30 22442 H 2100.92 4.93271 -3.41766 0
M  V30 22443 H 2101.99 3.52168 -3.33325 0
M  V30 22444 N 2103.34 0.971211 1.24118 0
M  V30 22445 C 2104.57 0.651802 1.96049 0
M  V30 22446 C 2104.97 -0.783604 1.7221 0
M  V30 22447 O 2104.32 -1.53782 1.00483 0
M  V30 22448 C 2104.38 0.850953 3.49284 0
M  V30 22449 C 2104.04 2.26667 3.96826 0
M  V30 22450 C 2105.04 3.24467 4.06223 0
M  V30 22451 C 2102.73 2.5953 4.30057 0
M  V30 22452 C 2104.72 4.53215 4.4819 0
M  V30 22453 C 2102.41 3.88503 4.71708 0
M  V30 22454 C 2103.4 4.85158 4.8074 0
M  V30 22455 O 2103.09 6.1183 5.21459 0
M  V30 22456 H 2102.82 0.241912 0.631233 0
M  V30 22457 H 2105.38 1.30265 1.58809 0
M  V30 22458 H 2103.61 0.142941 3.86436 0
M  V30 22459 H 2105.3 0.530099 4.02424 0
M  V30 22460 H 2106.06 3.00407 3.80763 0
M  V30 22461 H 2101.94 1.85015 4.22245 0
M  V30 22462 H 2105.49 5.28659 4.55155 0
M  V30 22463 H 2101.38 4.12363 4.96616 0
M  V30 22464 H 2102.15 6.15448 5.39598 0
M  V30 22465 N 2104.81 -1.39054 0.741747 0
M  V30 22466 C 2105.72 -2.34352 0.107946 0
M  V30 22467 C 2106.74 -1.58666 -0.71422 0
M  V30 22468 O 2107.92 -1.90923 -0.641124 0
M  V30 22469 C 2104.98 -3.3773 -0.783547 0
M  V30 22470 C 2104.04 -4.29269 0.0516392 0
M  V30 22471 C 2103.28 -5.27709 -0.797398 0
M  V30 22472 O 2103.5 -5.3283 -2.03588 0
M  V30 22473 O 2102.43 -6.01489 -0.222478 0
M  V30 22474 H 2106.26 -2.90223 0.894677 0
M  V30 22475 H 2103.84 -1.40696 0.502494 0
M  V30 22476 H 2105.73 -4.01059 -1.29342 0
M  V30 22477 H 2104.4 -2.84233 -1.54898 0
M  V30 22478 H 2103.31 -3.6914 0.607193 0
M  V30 22479 H 2104.64 -4.85989 0.779446 0
M  V30 22480 N 2106.29 -0.489897 -1.49792 0
M  V30 22481 C 2107.24 0.294423 -2.28914 0
M  V30 22482 C 2108.21 0.970384 -1.34806 0
M  V30 22483 O 2109.39 0.979195 -1.63757 0
M  V30 22484 C 2106.53 1.35949 -3.17194 0
M  V30 22485 C 2105.65 0.696419 -4.2635 0
M  V30 22486 C 2104.78 1.74098 -5.0186 0
M  V30 22487 C 2103.82 1.05917 -6.02866 0
M  V30 22488 N 2102.96 2.04743 -6.71584 0
M  V30 22489 H 2107.8 -0.386562 -2.95482 0
M  V30 22490 H 2105.34 -0.202479 -1.457 0
M  V30 22491 H 2107.29 1.98886 -3.66743 0
M  V30 22492 H 2105.92 2.00938 -2.52633 0
M  V30 22493 H 2104.98 -0.0459714 -3.80372 0
M  V30 22494 H 2106.29 0.159163 -4.98546 0
M  V30 22495 H 2105.44 2.44568 -5.55222 0
M  V30 22496 H 2104.18 2.31207 -4.29412 0
M  V30 22497 H 2103.19 0.340189 -5.48747 0
M  V30 22498 H 2104.41 0.494725 -6.77296 0
M  V30 22499 H 2102.36 2.60835 -6.01915 0
M  V30 22500 H 2102.27 1.56053 -7.39718 0
M  V30 22501 H 2103.54 2.74536 -7.29555 0
M  V30 22502 N 2107.77 1.56011 -0.223262 0
M  V30 22503 C 2108.72 2.21735 0.702604 0
M  V30 22504 C 2109.71 1.19729 1.19839 0
M  V30 22505 O 2110.92 1.37804 1.15802 0
M  V30 22506 H 2107.29 0.71097 0.245002 0
M  V30 22507 H 2109.26 2.98139 0.124869 0
M  V30 22508 C 2108.01 2.91245 1.89925 0
M  V30 22509 H 2107.34 3.69496 1.52686 0
M  V30 22510 H 2108.78 3.4063 2.52482 0
M  V30 22511 C 2107.24 1.9381 2.75571 0
M  V30 22512 O 2107.77 1.45612 3.74379 0
M  V30 22513 N 2105.97 1.61422 2.41643 0
M  V30 22514 H 2105.52 2.00811 1.61347 0
M  V30 22515 H 2105.48 0.964905 2.99227 0
M  V30 22516 N 2109.25 -0.0501116 1.5752 0
M  V30 22517 C 2110.16 -1.07459 2.08542 0
M  V30 22518 C 2111.17 -1.41006 1.01947 0
M  V30 22519 O 2112.35 -1.50749 1.33555 0
M  V30 22520 C 2109.42 -2.36274 2.53723 0
M  V30 22521 C 2108.48 -2.095 3.74711 0
M  V30 22522 C 2107.71 -3.32174 4.17728 0
M  V30 22523 O 2107.93 -4.42091 3.60432 0
M  V30 22524 O 2106.87 -3.1911 5.10346 0
M  V30 22525 H 2110.69 -0.671065 2.96193 0
M  V30 22526 H 2108.28 -0.265709 1.47018 0
M  V30 22527 H 2110.16 -3.12043 2.83208 0
M  V30 22528 H 2108.83 -2.75963 1.69192 0
M  V30 22529 H 2107.74 -1.31366 3.50277 0
M  V30 22530 H 2109.07 -1.74679 4.60161 0
M  V30 22531 N 2110.73 -1.54276 -0.321972 0
M  V30 22532 C 2111.97 -1.72813 -1.0613 0
M  V30 22533 C 2112.31 -0.501222 -1.8762 0
M  V30 22534 O 2111.58 0.501806 -1.87915 0
M  V30 22535 C 2111.86 -3.00469 -1.9847 0
M  V30 22536 C 2111.72 -4.33415 -1.20299 0
M  V30 22537 C 2113.04 -3.23886 -2.97969 0
M  V30 22538 H 2110.15 -0.628793 -0.384432 0
M  V30 22539 H 2112.8 -1.86973 -0.337811 0
M  V30 22540 H 2110.95 -2.88528 -2.60161 0
M  V30 22541 H 2112.62 -4.57242 -0.610559 0
M  V30 22542 H 2110.86 -4.30847 -0.505293 0
M  V30 22543 H 2111.53 -5.18959 -1.8811 0
M  V30 22544 H 2114.01 -3.353 -2.46401 0
M  V30 22545 H 2112.88 -4.14562 -3.59763 0
M  V30 22546 H 2113.15 -2.4119 -3.70513 0
M  V30 22547 N 2112.2 0.584116 -1.46376 0
M  V30 22548 C 2113.15 1.69328 -1.56833 0
M  V30 22549 C 2114.12 1.60891 -0.412719 0
M  V30 22550 O 2115.31 1.80124 -0.629286 0
M  V30 22551 C 2112.45 3.07663 -1.56324 0
M  V30 22552 C 2111.56 3.26736 -2.82609 0
M  V30 22553 C 2110.69 4.55312 -2.73613 0
M  V30 22554 C 2109.73 4.67723 -3.94844 0
M  V30 22555 N 2108.87 5.87624 -3.84243 0
M  V30 22556 H 2113.71 1.59727 -2.51577 0
M  V30 22557 H 2111.25 0.778493 -1.24811 0
M  V30 22558 H 2113.21 3.87731 -1.54014 0
M  V30 22559 H 2111.84 3.16165 -0.651131 0
M  V30 22560 H 2110.89 2.40283 -2.94904 0
M  V30 22561 H 2112.2 3.31775 -3.72461 0
M  V30 22562 H 2111.35 5.43606 -2.69401 0
M  V30 22563 H 2110.09 4.52709 -1.81399 0
M  V30 22564 H 2109.1 3.77847 -3.99389 0
M  V30 22565 H 2110.32 4.72106 -4.88152 0
M  V30 22566 H 2108.27 5.86021 -2.94814 0
M  V30 22567 H 2108.19 5.93925 -4.67749 0
M  V30 22568 H 2109.45 6.78352 -3.84003 0
M  V30 22569 N 2113.68 1.34058 0.828631 0
M  V30 22570 C 2114.65 1.25063 1.92073 0
M  V30 22571 C 2115.65 0.167192 1.59928 0
M  V30 22572 O 2116.84 0.419428 1.69075 0
M  V30 22573 C 2113.97 0.929519 3.27983 0
M  V30 22574 H 2115.16 2.22146 2.01472 0
M  V30 22575 H 2112.71 1.18263 1.02193 0
M  V30 22576 H 2113.45 -0.0383856 3.24277 0
M  V30 22577 H 2113.23 1.71313 3.52696 0
M  V30 22578 H 2114.72 0.891605 4.07971 0
M  V30 22579 N 2115.16 -1.04814 1.17694 0
M  V30 22580 C 2116.58 -1.3006 0.925018 0
M  V30 22581 C 2116.78 -1.97207 -0.4137 0
M  V30 22582 O 2115.83 -2.24802 -1.14979 0
M  V30 22583 C 2117.15 -2.16666 2.0851 0
M  V30 22584 C 2118.69 -2.30036 2.12256 0
M  V30 22585 C 2119.17 -3.20004 3.27661 0
M  V30 22586 N 2120.66 -3.2759 3.27473 0
M  V30 22587 C 2121.4 -3.97339 4.13412 0
M  V30 22588 N 2120.89 -4.69483 5.09468 0
M  V30 22589 N 2122.68 -3.93542 4.01349 0
M  V30 22590 H 2114.84 -0.596316 2.03857 0
M  V30 22591 H 2117.1 -0.325581 0.890338 0
M  V30 22592 H 2116.8 -1.74624 3.05286 0
M  V30 22593 H 2116.68 -3.17317 2.03936 0
M  V30 22594 H 2119.07 -2.71318 1.16063 0
M  V30 22595 H 2119.15 -1.29001 2.2089 0
M  V30 22596 H 2118.79 -2.79435 4.24121 0
M  V30 22597 H 2118.72 -4.21053 3.16263 0
M  V30 22598 H 2121.21 -2.76191 2.57928 0
M  V30 22599 H 2121.52 -5.20277 5.7143 0
M  V30 22600 H 2119.87 -4.68413 5.13434 0
M  V30 22601 H 2123.06 -3.36308 3.25599 0
M  V30 22602 H 2123.23 -4.4763 4.68542 0
M  V30 22603 N 2116.64 -0.977779 -1.23601 0
M  V30 22604 C 2117.92 -0.561714 -1.87361 0
M  V30 22605 C 2118.3 0.961166 -1.87949 0
M  V30 22606 O 2117.64 1.83678 -1.35922 0
M  V30 22607 C 2117.85 -1.16478 -3.28989 0
M  V30 22608 C 2119.2 -1.2559 -4.05601 0
M  V30 22609 O 2120.23 -1.11804 -3.38199 0
M  V30 22610 O 2119.09 -1.47493 -5.2622 0
M  V30 22611 H 2116.18 -0.18876 -0.80517 0
M  V30 22612 H 2118.73 -1.07269 -1.31497 0
M  V30 22613 H 2117.5 -2.20711 -3.23114 0
M  V30 22614 H 2117.12 -0.638457 -3.9244 0
M  V30 22615 N 2118.12 1.38658 -0.749111 0
M  V30 22616 C 2119.53 1.53804 -0.426214 0
M  V30 22617 C 2119.73 1.7129 1.06122 0
M  V30 22618 O 2118.79 1.72138 1.84729 0
M  V30 22619 C 2120.1 2.7477 -1.22155 0
M  V30 22620 C 2121.65 2.88616 -1.21118 0
M  V30 22621 C 2122.13 4.12538 -1.98939 0
M  V30 22622 N 2123.62 4.19606 -1.96176 0
M  V30 22623 C 2124.35 5.14474 -2.53188 0
M  V30 22624 N 2123.85 6.15043 -3.18895 0
M  V30 22625 N 2125.64 5.06792 -2.43143 0
M  V30 22626 H 2117.79 1.25557 -1.71316 0
M  V30 22627 H 2120.05 0.609604 -0.726008 0
M  V30 22628 H 2119.76 2.68239 -2.27466 0
M  V30 22629 H 2119.63 3.67832 -0.835424 0
M  V30 22630 H 2122.02 2.94632 -0.166149 0
M  V30 22631 H 2122.1 1.96577 -1.63679 0
M  V30 22632 H 2121.75 4.07284 -3.03451 0
M  V30 22633 H 2121.68 5.03648 -1.53775 0
M  V30 22634 H 2124.17 3.47577 -1.4832 0
M  V30 22635 H 2124.48 6.83917 -3.59829 0
M  V30 22636 H 2122.83 6.15389 -3.22989 0
M  V30 22637 H 2126.02 4.27162 -1.91442 0
M  V30 22638 H 2126.19 5.80546 -2.87871 0
M  V30 22639 N 2119.6 0.497834 1.49531 0
M  V30 22640 C 2120.51 -0.286926 2.32839 0
M  V30 22641 C 2121.52 -0.970397 1.44427 0
M  V30 22642 O 2122.7 -0.952478 1.77454 0
M  V30 22643 C 2119.76 -1.33928 3.19788 0
M  V30 22644 C 2118.82 -0.669588 4.24046 0
M  V30 22645 C 2118.06 -1.67181 5.0684 0
M  V30 22646 O 2118.28 -2.90132 4.91101 0
M  V30 22647 O 2117.21 -1.22887 5.89222 0
M  V30 22648 H 2121.04 0.394869 3.01122 0
M  V30 22649 H 2118.62 0.259218 1.47134 0
M  V30 22650 H 2120.51 -1.94822 3.73661 0
M  V30 22651 H 2119.18 -2.00407 2.54202 0
M  V30 22652 H 2118.09 -0.0209922 3.74094 0
M  V30 22653 H 2119.42 -0.0473067 4.92177 0
M  V30 22654 N 2121.07 -1.5589 0.231532 0
M  V30 22655 C 2122.32 -1.99602 -0.391237 0
M  V30 22656 C 2122.67 -1.11672 -1.56675 0
M  V30 22657 O 2121.97 -0.168851 -1.90855 0
M  V30 22658 C 2122.16 -3.46766 -0.865354 0
M  V30 22659 C 2121.99 -4.48932 0.262677 0
M  V30 22660 C 2120.76 -4.99965 0.732345 0
M  V30 22661 C 2122.96 -5.02738 1.0844 0
M  V30 22662 N 2120.94 -5.85853 1.83439 0
M  V30 22663 C 2122.31 -5.85647 2.03512 0
M  V30 22664 C 2124.37 -4.85077 1.12271 0
M  V30 22665 C 2123.07 -6.52782 3.02106 0
M  V30 22666 C 2125.1 -5.52978 2.09688 0
M  V30 22667 C 2124.46 -6.35664 3.03497 0
M  V30 22668 H 2120.56 -0.774288 -0.109553 0
M  V30 22669 H 2123.14 -1.91608 0.345591 0
M  V30 22670 H 2121.31 -3.55187 -1.57152 0
M  V30 22671 H 2123.04 -3.77378 -1.46178 0
M  V30 22672 H 2119.8 -4.72523 0.319177 0
M  V30 22673 H 2120.22 -6.33496 2.38772 0
M  V30 22674 H 2124.86 -4.20794 0.411345 0
M  V30 22675 H 2122.58 -7.16241 3.74199 0
M  V30 22676 H 2126.17 -5.41274 2.13338 0
M  V30 22677 H 2125.05 -6.87279 3.77647 0
M  V30 22678 N 2122.55 0.0417572 -1.57545 0
M  V30 22679 C 2123.5 1.04629 -2.05722 0
M  V30 22680 C 2124.47 1.36684 -0.943754 0
M  V30 22681 O 2125.65 1.47239 -1.21348 0
M  V30 22682 C 2122.79 2.34601 -2.53093 0
M  V30 22683 C 2121.91 2.08815 -3.7818 0
M  V30 22684 C 2121.04 3.32567 -4.14214 0
M  V30 22685 C 2120.08 3.02279 -5.32254 0
M  V30 22686 N 2119.22 4.18445 -5.6378 0
M  V30 22687 H 2124.06 0.628491 -2.91297 0
M  V30 22688 H 2121.59 0.298725 -1.44035 0
M  V30 22689 H 2123.55 3.10525 -2.78621 0
M  V30 22690 H 2122.18 2.74127 -1.70453 0
M  V30 22691 H 2121.23 1.23445 -3.59813 0
M  V30 22692 H 2122.55 1.82464 -4.64229 0
M  V30 22693 H 2121.7 4.16867 -4.40802 0
M  V30 22694 H 2120.44 3.6202 -3.26791 0
M  V30 22695 H 2119.44 2.16378 -5.05431 0
M  V30 22696 H 2120.67 2.74116 -6.21319 0
M  V30 22697 H 2118.62 4.47874 -4.79317 0
M  V30 22698 H 2118.53 3.95473 -6.44311 0
M  V30 22699 H 2119.8 5.03656 -5.94938 0
M  V30 22700 N 2124.03 1.54445 0.313786 0
M  V30 22701 C 2124.98 1.8451 1.38654 0
M  V30 22702 C 2125.95 0.692957 1.50955 0
M  V30 22703 O 2127.13 0.940344 1.66019 0
M  V30 22704 C 2124.27 2.08672 2.74863 0
M  V30 22705 C 2123.38 3.36334 2.71115 0
M  V30 22706 C 2122.52 3.50406 3.99235 0
M  V30 22707 C 2121.56 4.71907 3.89833 0
M  V30 22708 N 2120.7 4.82853 5.09703 0
M  V30 22709 H 2125.54 2.76024 1.12315 0
M  V30 22710 H 2123.07 1.36691 0.543496 0
M  V30 22711 H 2125.03 2.20675 3.5406 0
M  V30 22712 H 2123.66 1.20438 2.9949 0
M  V30 22713 H 2122.71 3.33019 1.83855 0
M  V30 22714 H 2124.02 4.25645 2.60054 0
M  V30 22715 H 2123.18 3.62004 4.86865 0
M  V30 22716 H 2121.92 2.59206 4.13115 0
M  V30 22717 H 2120.92 4.60356 3.00587 0
M  V30 22718 H 2122.15 5.64502 3.7751 0
M  V30 22719 H 2120.09 3.94572 5.2407 0
M  V30 22720 H 2120.01 5.66145 5.01015 0
M  V30 22721 H 2121.28 4.98794 5.9902 0
M  V30 22722 N 2125.51 -0.576345 1.46683 0
M  V30 22723 C 2126.74 -1.35822 1.55679 0
M  V30 22724 C 2127.15 -1.8815 0.199067 0
M  V30 22725 O 2126.49 -1.64638 -0.814857 0
M  V30 22726 C 2126.55 -2.57736 2.50624 0
M  V30 22727 C 2126.21 -2.26831 3.96733 0
M  V30 22728 C 2127.21 -1.8528 4.85765 0
M  V30 22729 C 2124.9 -2.38779 4.41916 0
M  V30 22730 C 2126.89 -1.5608 6.17995 0
M  V30 22731 C 2124.58 -2.09192 5.74179 0
M  V30 22732 C 2125.58 -1.67909 6.62039 0
M  V30 22733 O 2125.26 -1.38688 7.91847 0
M  V30 22734 H 2125 -0.42105 0.52886 0
M  V30 22735 H 2127.55 -0.706986 1.92849 0
M  V30 22736 H 2125.78 -3.25686 2.08484 0
M  V30 22737 H 2127.47 -3.19807 2.49956 0
M  V30 22738 H 2128.23 -1.75558 4.52111 0
M  V30 22739 H 2124.11 -2.69874 3.7375 0
M  V30 22740 H 2127.66 -1.23783 6.8653 0
M  V30 22741 H 2123.55 -2.1854 6.0738 0
M  V30 22742 H 2124.32 -1.5248 8.04172 0
M  V30 22743 N 2126.99 -1.34495 -0.82151 0
M  V30 22744 C 2127.9 -1.28265 -1.96431 0
M  V30 22745 C 2128.91 -0.190092 -1.72959 0
M  V30 22746 O 2130.09 -0.416817 -1.9704 0
M  V30 22747 C 2127.15 -1.03935 -3.30754 0
M  V30 22748 C 2126.21 -2.22361 -3.67225 0
M  V30 22749 C 2125.45 -1.99182 -4.95139 0
M  V30 22750 O 2125.67 -0.950771 -5.6242 0
M  V30 22751 O 2124.6 -2.86169 -5.2952 0
M  V30 22752 H 2128.43 -2.2441 -2.04631 0
M  V30 22753 H 2126.01 -1.14716 -0.957114 0
M  V30 22754 H 2127.9 -0.921538 -4.112 0
M  V30 22755 H 2126.57 -0.108311 -3.23519 0
M  V30 22756 H 2125.48 -2.39702 -2.87217 0
M  V30 22757 H 2126.81 -3.1386 -3.79147 0
M  V30 22758 N 2128.46 1.04188 -1.18248 0
M  V30 22759 C 2129.71 1.77367 -0.977091 0
M  V30 22760 C 2130.04 1.88138 0.493397 0
M  V30 22761 O 2129.29 1.38508 1.38253 0
M  V30 22762 C 2129.59 3.20799 -1.57553 0
M  V30 22763 C 2129.26 3.30065 -3.07193 0
M  V30 22764 C 2127.92 3.32301 -3.48037 0
M  V30 22765 C 2130.27 3.30263 -4.03207 0
M  V30 22766 C 2127.6 3.32376 -4.8347 0
M  V30 22767 C 2129.95 3.31877 -5.38554 0
M  V30 22768 C 2128.62 3.32405 -5.78846 0
M  V30 22769 H 2127.89 0.649033 -0.357543 0
M  V30 22770 H 2130.53 1.2238 -1.47294 0
M  V30 22771 H 2128.84 3.7878 -1.00165 0
M  V30 22772 H 2130.54 3.76063 -1.39204 0
M  V30 22773 H 2127.13 3.29044 -2.74641 0
M  V30 22774 H 2131.31 3.27728 -3.72704 0
M  V30 22775 H 2126.57 3.311 -5.13987 0
M  V30 22776 H 2130.74 3.3098 -6.1272 0
M  V30 22777 H 2128.37 3.32216 -6.83766 0
M  V30 22778 N 2129.94 0.98432 1.23081 0
M  V30 22779 C 2130.89 0.498852 2.22476 0
M  V30 22780 C 2131.88 -0.428273 1.55096 0
M  V30 22781 O 2133.07 -0.256489 1.75132 0
M  V30 22782 C 2130.2 -0.19359 3.42754 0
M  V30 22783 C 2129.28 0.753335 4.17356 0
M  V30 22784 N 2129.67 1.89761 4.68855 0
M  V30 22785 C 2127.97 0.567461 4.42375 0
M  V30 22786 C 2128.67 2.49126 5.25653 0
M  V30 22787 N 2127.65 1.77476 5.13813 0
M  V30 22788 H 2131.45 1.37169 2.59927 0
M  V30 22789 H 2128.97 0.84549 1.38655 0
M  V30 22790 H 2130.96 -0.558714 4.13139 0
M  V30 22791 H 2129.62 -1.06267 3.06818 0
M  V30 22792 H 2130.63 2.27867 4.65077 0
M  V30 22793 H 2127.31 -0.256271 4.16713 0
M  V30 22794 H 2128.7 3.45782 5.76094 0
M  V30 22795 N 2131.42 -1.38259 0.756453 0
M  V30 22796 C 2132.65 -2.04038 0.324328 0
M  V30 22797 C 2133.06 -1.57176 -1.05321 0
M  V30 22798 O 2132.4 -0.741386 -1.68075 0
M  V30 22799 C 2132.46 -3.58472 0.271651 0
M  V30 22800 C 2132.13 -4.28403 1.59121 0
M  V30 22801 C 2133.12 -4.53578 2.54092 0
M  V30 22802 C 2130.81 -4.66536 1.86143 0
M  V30 22803 C 2132.8 -5.15923 3.74302 0
M  V30 22804 C 2130.49 -5.28605 3.06627 0
M  V30 22805 C 2131.49 -5.53233 4.00527 0
M  V30 22806 O 2131.18 -6.14009 5.18892 0
M  V30 22807 H 2130.91 -0.662169 0.136046 0
M  V30 22808 H 2133.46 -1.77878 1.02707 0
M  V30 22809 H 2131.69 -3.83617 -0.487352 0
M  V30 22810 H 2133.38 -4.05687 -0.131344 0
M  V30 22811 H 2134.15 -4.24545 2.34492 0
M  V30 22812 H 2130.03 -4.4671 1.1389 0
M  V30 22813 H 2133.57 -5.35063 4.47609 0
M  V30 22814 H 2129.47 -5.57061 3.26119 0
M  V30 22815 H 2130.24 -6.32495 5.19512 0
M  V30 22816 N 2132.9 -0.505757 -1.49264 0
M  V30 22817 C 2134.18 0.100315 -1.95343 0
M  V30 22818 C 2134.56 1.53667 -1.44739 0
M  V30 22819 O 2133.9 2.18663 -0.663221 0
M  V30 22820 C 2134.11 0.00805543 -3.48999 0
M  V30 22821 C 2135.46 0.179587 -4.2422 0
M  V30 22822 O 2136.49 0.0830161 -3.56103 0
M  V30 22823 O 2135.34 0.378466 -5.45188 0
M  V30 22824 H 2132.44 0.0926837 -0.82179 0
M  V30 22825 H 2134.98 -0.568634 -1.59889 0
M  V30 22826 H 2133.76 -0.993441 -3.78479 0
M  V30 22827 H 2133.38 0.716938 -3.91083 0
M  V30 22828 N 2134.38 1.55765 -0.239796 0
M  V30 22829 C 2135.32 2.22467 0.679046 0
M  V30 22830 C 2136.32 1.20993 1.18562 0
M  V30 22831 O 2137.52 1.39024 1.14334 0
M  V30 22832 H 2133.9 0.713528 0.237447 0
M  V30 22833 H 2135.87 2.98254 0.0932403 0
M  V30 22834 C 2134.62 2.93244 1.86825 0
M  V30 22835 H 2133.94 3.71094 1.48759 0
M  V30 22836 H 2135.38 3.43289 2.48855 0
M  V30 22837 C 2133.84 1.96721 2.735 0
M  V30 22838 O 2134.37 1.49575 3.72814 0
M  V30 22839 N 2132.58 1.63976 2.39917 0
M  V30 22840 H 2132.12 2.02511 1.59208 0
M  V30 22841 H 2132.08 0.996588 2.98187 0
M  V30 22842 N 2135.85 -0.0334016 1.57565 0
M  V30 22843 C 2137.1 -0.726157 1.89354 0
M  V30 22844 C 2137.43 -1.75237 0.837002 0
M  V30 22845 O 2136.71 -1.93933 -0.148452 0
M  V30 22846 C 2136.99 -1.39963 3.31787 0
M  V30 22847 C 2136.84 -0.387227 4.4813 0
M  V30 22848 C 2138.16 -2.33475 3.73065 0
M  V30 22849 H 2135.28 -0.262518 0.688661 0
M  V30 22850 H 2137.92 0.0110285 1.89997 0
M  V30 22851 H 2136.07 -2.02797 3.31369 0
M  V30 22852 H 2137.75 0.238867 4.60681 0
M  V30 22853 H 2135.99 0.293911 4.32803 0
M  V30 22854 H 2136.66 -0.896846 5.44666 0
M  V30 22855 H 2139.14 -1.80688 3.74822 0
M  V30 22856 H 2138.01 -2.7758 4.73541 0
M  V30 22857 H 2138.27 -3.19962 3.05085 0
M  V30 22858 N 2137.33 -1.54609 -0.305591 0
M  V30 22859 C 2138.26 -1.88242 -1.38157 0
M  V30 22860 C 2139.24 -0.740883 -1.53117 0
M  V30 22861 O 2140.43 -0.996214 -1.66701 0
M  V30 22862 C 2137.56 -2.12567 -2.7465 0
M  V30 22863 C 2136.51 -3.28415 -2.74459 0
M  V30 22864 C 2135.84 -3.38148 -4.14198 0
M  V30 22865 C 2137.14 -4.65633 -2.36607 0
M  V30 22866 H 2138.83 -2.78359 -1.10258 0
M  V30 22867 H 2136.38 -1.33933 -0.528959 0
M  V30 22868 H 2138.33 -2.34681 -3.50004 0
M  V30 22869 H 2137.06 -1.19216 -3.04064 0
M  V30 22870 H 2135.71 -3.06217 -2.01561 0
M  V30 22871 H 2135.36 -2.42323 -4.40782 0
M  V30 22872 H 2135.06 -4.16019 -4.14973 0
M  V30 22873 H 2136.59 -3.62517 -4.91339 0
M  V30 22874 H 2138 -4.87508 -3.01677 0
M  V30 22875 H 2136.4 -5.46184 -2.48603 0
M  V30 22876 H 2137.47 -4.66662 -1.31738 0
M  V30 22877 N 2138.81 0.568558 -1.46987 0
M  V30 22878 C 2140.06 1.32596 -1.5424 0
M  V30 22879 C 2140.41 1.91386 -0.197273 0
M  V30 22880 O 2139.7 1.74294 0.795739 0
M  V30 22881 C 2139.9 2.46501 -2.5879 0
M  V30 22882 C 2139.73 1.98871 -4.03337 0
M  V30 22883 C 2138.5 1.83234 -4.70907 0
M  V30 22884 C 2140.7 1.53991 -4.90705 0
M  V30 22885 N 2138.68 1.29824 -6.00016 0
M  V30 22886 C 2140.05 1.12269 -6.09751 0
M  V30 22887 C 2142.1 1.41938 -4.7724 0
M  V30 22888 C 2140.81 0.596928 -7.16819 0
M  V30 22889 C 2142.83 0.907644 -5.84394 0
M  V30 22890 C 2142.19 0.500286 -7.02621 0
M  V30 22891 H 2138.29 0.477653 -0.61917 0
M  V30 22892 H 2140.88 0.645779 -1.83678 0
M  V30 22893 H 2139.05 3.12064 -2.31238 0
M  V30 22894 H 2140.78 3.13481 -2.55953 0
M  V30 22895 H 2137.54 2.05608 -4.26641 0
M  V30 22896 H 2137.96 1.0524 -6.6877 0
M  V30 22897 H 2142.6 1.72047 -3.86212 0
M  V30 22898 H 2140.32 0.283446 -8.07603 0
M  V30 22899 H 2143.91 0.8181 -5.76019 0
M  V30 22900 H 2142.79 0.110434 -7.84122 0
M  V30 22901 N 2140.29 1.34929 0.814366 0
M  V30 22902 C 2141.25 1.27093 1.90736 0
M  V30 22903 C 2142.25 0.184145 1.59742 0
M  V30 22904 O 2143.44 0.437337 1.68621 0
M  V30 22905 C 2140.57 0.964254 3.26979 0
M  V30 22906 H 2141.77 2.24271 1.99105 0
M  V30 22907 H 2139.32 1.19341 1.00933 0
M  V30 22908 H 2140.05 -0.0039895 3.243 0
M  V30 22909 H 2139.84 1.75045 3.50859 0
M  V30 22910 H 2141.33 0.934826 4.07002 0
M  V30 22911 N 2141.77 -1.0356 1.18799 0
M  V30 22912 C 2142.7 -2.13602 0.943213 0
M  V30 22913 C 2143.68 -1.69669 -0.120965 0
M  V30 22914 O 2144.86 -1.94173 0.0326748 0
M  V30 22915 C 2141.99 -3.44054 0.473716 0
M  V30 22916 C 2140.95 -4.01635 1.47896 0
M  V30 22917 C 2140.27 -5.27628 0.866789 0
M  V30 22918 C 2141.57 -4.3722 2.8572 0
M  V30 22919 H 2143.27 -2.34336 1.86351 0
M  V30 22920 H 2140.81 -1.12617 0.897406 0
M  V30 22921 H 2142.77 -4.20402 0.289804 0
M  V30 22922 H 2141.49 -3.23021 -0.482167 0
M  V30 22923 H 2140.15 -3.27374 1.6499 0
M  V30 22924 H 2139.8 -5.02908 -0.0964386 0
M  V30 22925 H 2139.5 -5.67115 1.53799 0
M  V30 22926 H 2141.02 -6.06649 0.693523 0
M  V30 22927 H 2142.43 -5.04533 2.72248 0
M  V30 22928 H 2140.83 -4.87771 3.49571 0
M  V30 22929 H 2141.9 -3.46821 3.38885 0
M  V30 22930 N 2143.25 -0.990834 -1.22557 0
M  V30 22931 C 2144.18 -0.559304 -2.26703 0
M  V30 22932 C 2145.16 0.412782 -1.65016 0
M  V30 22933 O 2146.34 0.303868 -1.91808 0
M  V30 22934 C 2143.47 0.12888 -3.47061 0
M  V30 22935 C 2142.43 -0.76154 -4.2117 0
M  V30 22936 C 2141.75 0.0594442 -5.34667 0
M  V30 22937 C 2143.05 -2.0574 -4.80071 0
M  V30 22938 H 2144.75 -1.42983 -2.63052 0
M  V30 22939 H 2142.29 -0.68896 -1.26449 0
M  V30 22940 H 2144.24 0.44215 -4.19074 0
M  V30 22941 H 2142.97 1.03394 -3.09802 0
M  V30 22942 H 2141.63 -1.05842 -3.50989 0
M  V30 22943 H 2141.28 0.965355 -4.9365 0
M  V30 22944 H 2140.98 -0.533291 -5.85175 0
M  V30 22945 H 2142.5 0.366857 -6.09497 0
M  V30 22946 H 2143.91 -1.80821 -5.44037 0
M  V30 22947 H 2142.31 -2.59878 -5.4091 0
M  V30 22948 H 2143.38 -2.73748 -4.00237 0
M  V30 22949 N 2144.72 1.37856 -0.763775 0
M  V30 22950 C 2145.95 2.0416 -0.335631 0
M  V30 22951 C 2146.37 1.57607 1.0395 0
M  V30 22952 O 2145.72 0.753707 1.66209 0
M  V30 22953 C 2145.77 3.59696 -0.360678 0
M  V30 22954 O 2145.5 4.04543 -1.68155 0
M  V30 22955 C 2147 4.43228 0.080061 0
M  V30 22956 H 2144.22 0.655845 -0.141805 0
M  V30 22957 H 2146.76 1.76347 -1.03547 0
M  V30 22958 H 2144.92 3.86309 0.290514 0
M  V30 22959 H 2145.33 4.99027 -1.6147 0
M  V30 22960 H 2146.8 5.51999 0.0113779 0
M  V30 22961 H 2147.28 4.24432 1.12936 0
M  V30 22962 H 2147.89 4.21824 -0.542641 0
M  V30 22963 N 2146.2 0.513665 1.48994 0
M  V30 22964 C 2147.13 -0.247058 2.32189 0
M  V30 22965 C 2148.11 -0.950613 1.41058 0
M  V30 22966 O 2149.3 -0.939562 1.69958 0
M  V30 22967 C 2146.43 -1.30433 3.21876 0
M  V30 22968 C 2145.38 -0.719902 4.21902 0
M  V30 22969 C 2144.71 -1.87863 5.00611 0
M  V30 22970 C 2146.01 0.297524 5.21452 0
M  V30 22971 H 2147.7 0.447403 2.96038 0
M  V30 22972 H 2145.25 0.216608 1.42362 0
M  V30 22973 H 2147.2 -1.84434 3.78896 0
M  V30 22974 H 2145.92 -2.02815 2.55995 0
M  V30 22975 H 2144.58 -0.201546 3.66046 0
M  V30 22976 H 2144.23 -2.59044 4.31167 0
M  V30 22977 H 2143.93 -1.49359 5.68301 0
M  V30 22978 H 2145.46 -2.42273 5.60478 0
M  V30 22979 H 2146.87 -0.1548 5.73091 0
M  V30 22980 H 2145.27 0.599071 5.97102 0
M  V30 22981 H 2146.34 1.20903 4.69585 0
M  V30 22982 N 2147.68 -1.55636 0.248053 0
M  V30 22983 C 2148.93 -1.98972 -0.37637 0
M  V30 22984 C 2149.25 -1.1362 -1.57863 0
M  V30 22985 O 2148.51 -0.187287 -1.94802 0
M  V30 22986 C 2148.81 -3.47664 -0.828526 0
M  V30 22987 C 2148.47 -4.50114 0.266108 0
M  V30 22988 C 2147.14 -4.77851 0.566745 0
M  V30 22989 C 2149.49 -5.11418 1.00506 0
M  V30 22990 C 2146.82 -5.64166 1.61039 0
M  V30 22991 C 2149.17 -5.98865 2.03823 0
M  V30 22992 C 2147.83 -6.24934 2.3455 0
M  V30 22993 H 2147.1 -0.728089 -0.137723 0
M  V30 22994 H 2149.75 -1.8816 0.356118 0
M  V30 22995 H 2148.05 -3.55814 -1.64024 0
M  V30 22996 H 2149.75 -3.78583 -1.32196 0
M  V30 22997 H 2146.34 -4.28595 0.0216504 0
M  V30 22998 H 2150.53 -4.90036 0.786048 0
M  V30 22999 H 2145.78 -5.82619 1.85378 0
M  V30 23000 H 2149.96 -6.45409 2.61573 0
M  V30 23001 H 2147.58 -6.91612 3.15558 0
M  V30 23002 N 2149.16 0.0250451 -1.5758 0
M  V30 23003 C 2150.39 0.72671 -1.93718 0
M  V30 23004 C 2150.8 1.68677 -0.848148 0
M  V30 23005 O 2150.16 1.81658 0.175105 0
M  V30 23006 C 2150.21 1.4803 -3.29802 0
M  V30 23007 O 2149.93 0.55877 -4.34522 0
M  V30 23008 C 2151.43 2.27876 -3.80247 0
M  V30 23009 H 2148.65 0.203986 -0.639242 0
M  V30 23010 H 2151.19 -0.0186251 -2.04492 0
M  V30 23011 H 2149.35 2.17748 -3.20413 0
M  V30 23012 H 2149.76 1.08769 -5.13098 0
M  V30 23013 H 2151.24 2.7614 -4.77965 0
M  V30 23014 H 2151.71 3.09471 -3.11648 0
M  V30 23015 H 2152.32 1.63224 -3.92731 0
M  V30 23016 N 2150.64 1.54769 0.297388 0
M  V30 23017 C 2151.88 1.74479 1.03367 0
M  V30 23018 C 2152.21 0.531007 1.86799 0
M  V30 23019 O 2151.49 -0.471847 1.8869 0
M  V30 23020 C 2151.77 3.03588 1.93665 0
M  V30 23021 C 2151.63 4.35274 1.13389 0
M  V30 23022 C 2152.94 3.28586 2.92779 0
M  V30 23023 H 2150.06 0.63483 0.37438 0
M  V30 23024 H 2152.71 1.87487 0.308023 0
M  V30 23025 H 2150.86 2.9263 2.55538 0
M  V30 23026 H 2152.53 4.58155 0.537739 0
M  V30 23027 H 2150.77 4.31596 0.436685 0
M  V30 23028 H 2151.44 5.21886 1.7983 0
M  V30 23029 H 2153.92 3.39177 2.41035 0
M  V30 23030 H 2152.79 4.20233 3.53122 0
M  V30 23031 H 2153.05 2.47054 3.66629 0
M  V30 23032 N 2152.11 -0.560755 1.47286 0
M  V30 23033 C 2153.34 -1.34841 1.57584 0
M  V30 23034 C 2153.76 -1.86747 0.22521 0
M  V30 23035 O 2153.12 -1.62776 -0.798346 0
M  V30 23036 C 2153.17 -2.49671 2.60186 0
M  V30 23037 O 2152.27 -3.51793 2.1521 0
M  V30 23038 H 2151.61 -0.400669 0.529491 0
M  V30 23039 H 2154.14 -0.67803 1.93039 0
M  V30 23040 H 2154.15 -2.9629 2.80493 0
M  V30 23041 H 2152.83 -2.11248 3.58256 0
M  V30 23042 H 2151.41 -3.11504 2.04987 0
M  V30 23043 N 2153.59 -1.35359 -0.807199 0
M  V30 23044 C 2154.82 -1.31711 -1.59561 0
M  V30 23045 C 2155.23 0.105535 -1.88505 0
M  V30 23046 O 2154.59 1.05731 -1.48752 0
M  V30 23047 C 2154.64 -2.1212 -2.92724 0
M  V30 23048 O 2154.36 -3.48838 -2.65036 0
M  V30 23049 C 2155.86 -2.1605 -3.87088 0
M  V30 23050 H 2153.08 -0.452483 -0.495479 0
M  V30 23051 H 2155.63 -1.78204 -1.00318 0
M  V30 23052 H 2153.78 -1.69228 -3.48483 0
M  V30 23053 H 2154.2 -3.90591 -3.50056 0
M  V30 23054 H 2155.67 -2.76704 -4.77639 0
M  V30 23055 H 2156.15 -1.15909 -4.23629 0
M  V30 23056 H 2156.75 -2.591 -3.37264 0
M  V30 23057 N 2155.07 1.02928 -1.19346 0
M  V30 23058 C 2156.32 1.75973 -0.993881 0
M  V30 23059 C 2156.64 1.89088 0.476523 0
M  V30 23060 O 2155.91 1.42417 1.34515 0
M  V30 23061 H 2154.49 0.651893 -0.364753 0
M  V30 23062 H 2157.15 1.24161 -1.50233 0
M  V30 23063 H 2156.25 2.76812 -1.44157 0
M  V30 23064 N 2156.55 0.997319 1.2203 0
M  V30 23065 C 2157.46 0.560352 2.2781 0
M  V30 23066 C 2158.47 -0.392977 1.69504 0
M  V30 23067 O 2159.65 -0.258715 1.99731 0
M  V30 23068 C 2156.71 -0.113747 3.46513 0
M  V30 23069 C 2155.78 0.883099 4.20119 0
M  V30 23070 C 2155.01 0.241074 5.33155 0
M  V30 23071 O 2155.23 -0.963972 5.62195 0
M  V30 23072 O 2154.17 0.948154 5.94385 0
M  V30 23073 H 2157.99 1.44049 2.67364 0
M  V30 23074 H 2155.58 0.765793 1.28281 0
M  V30 23075 H 2157.46 -0.491137 4.18528 0
M  V30 23076 H 2156.13 -0.968387 3.08875 0
M  V30 23077 H 2155.04 1.3115 3.50358 0
M  V30 23078 H 2156.37 1.70708 4.61649 0
M  V30 23079 N 2158.03 -1.37449 0.771075 0
M  V30 23080 C 2159.27 -1.99314 0.33443 0
M  V30 23081 C 2159.6 -1.61515 -1.0926 0
M  V30 23082 O 2158.87 -0.880278 -1.75008 0
M  V30 23083 H 2157.45 -0.73719 0.120664 0
M  V30 23084 H 2160.11 -1.6794 0.989052 0
M  V30 23085 H 2159.2 -3.09375 0.411526 0
M  V30 23086 N 2159.5 -0.52156 -1.4872 0
M  V30 23087 C 2160.75 0.00752906 -2.03399 0
M  V30 23088 C 2161.11 1.32786 -1.39233 0
M  V30 23089 O 2160.4 1.84239 -0.525988 0
M  V30 23090 C 2160.59 0.195406 -3.56865 0
M  V30 23091 C 2160.42 -1.10516 -4.35909 0
M  V30 23092 C 2159.19 -1.66269 -4.77161 0
M  V30 23093 C 2161.39 -2.01366 -4.7324 0
M  V30 23094 N 2159.37 -2.90702 -5.40708 0
M  V30 23095 C 2160.74 -3.10376 -5.36719 0
M  V30 23096 C 2162.8 -2.01795 -4.55174 0
M  V30 23097 C 2161.5 -4.19867 -5.84041 0
M  V30 23098 C 2163.53 -3.10275 -5.03471 0
M  V30 23099 C 2162.89 -4.18003 -5.66968 0
M  V30 23100 H 2158.99 -0.0385357 -0.78105 0
M  V30 23101 H 2161.57 -0.700975 -1.81644 0
M  V30 23102 H 2159.74 0.872986 -3.78462 0
M  V30 23103 H 2161.47 0.723345 -3.98183 0
M  V30 23104 H 2158.23 -1.20516 -4.5801 0
M  V30 23105 H 2158.65 -3.54031 -5.77053 0
M  V30 23106 H 2163.3 -1.19806 -4.05471 0
M  V30 23107 H 2161.01 -5.02641 -6.32754 0
M  V30 23108 H 2164.6 -3.11652 -4.91289 0
M  V30 23109 H 2163.48 -5.00561 -6.03662 0
M  V30 23110 N 2160.98 1.55502 -0.256304 0
M  V30 23111 C 2162.39 1.85085 0.245072 0
M  V30 23112 C 2162.74 1.17822 1.56883 0
M  V30 23113 O 2161.87 0.459889 2.11457 0
M  V30 23114 C 2162.46 3.35779 0.451444 0
M  V30 23115 C 2161.02 3.65554 0.897072 0
M  V30 23116 C 2160.17 2.77293 -0.0203944 0
M  V30 23117 H 2163.12 1.51311 -0.478616 0
M  V30 23118 H 2163.14 3.57867 1.29273 0
M  V30 23119 H 2162.65 3.84706 -0.51217 0
M  V30 23120 H 2160.76 3.22112 1.87282 0
M  V30 23121 H 2160.87 4.73234 0.747422 0
M  V30 23122 H 2159.23 2.4989 0.492637 0
M  V30 23123 H 2160.02 3.29028 -0.979551 0
M  V30 23124 N 2162.46 -0.0166879 1.57591 0
M  V30 23125 C 2163.39 -1.04126 2.04182 0
M  V30 23126 C 2164.41 -1.31719 0.956768 0
M  V30 23127 O 2165.59 -1.28988 1.23387 0
M  V30 23128 C 2162.69 -2.38001 2.41265 0
M  V30 23129 C 2161.87 -2.29588 3.72301 0
M  V30 23130 C 2160.93 -3.46013 3.96436 0
M  V30 23131 O 2159.95 -3.2495 4.67328 0
M  V30 23132 N 2161.15 -4.68304 3.43033 0
M  V30 23133 H 2163.92 -0.644054 2.92698 0
M  V30 23134 H 2161.48 -0.204401 1.60605 0
M  V30 23135 H 2163.47 -3.14631 2.54538 0
M  V30 23136 H 2162.04 -2.69522 1.58355 0
M  V30 23137 H 2161.26 -1.37977 3.69264 0
M  V30 23138 H 2162.55 -2.21122 4.58238 0
M  V30 23139 H 2161.95 -4.88316 2.85593 0
M  V30 23140 H 2160.51 -5.42256 3.61665 0
M  V30 23141 N 2163.94 -1.54924 -0.289176 0
M  V30 23142 C 2165.18 -1.75025 -1.0244 0
M  V30 23143 C 2165.52 -0.540906 -1.86515 0
M  V30 23144 O 2164.79 0.461833 -1.88937 0
M  V30 23145 C 2165.08 -3.04611 -1.92052 0
M  V30 23146 C 2164.93 -4.35869 -1.11079 0
M  V30 23147 C 2166.25 -3.30134 -2.91032 0
M  V30 23148 H 2163.37 -0.636806 -0.371008 0
M  V30 23149 H 2166.01 -1.87647 -0.298076 0
M  V30 23150 H 2164.16 -2.93981 -2.53983 0
M  V30 23151 H 2165.83 -4.58434 -0.513434 0
M  V30 23152 H 2164.07 -4.31822 -0.41379 0
M  V30 23153 H 2164.74 -5.22832 -1.7706 0
M  V30 23154 H 2167.22 -3.40451 -2.39233 0
M  V30 23155 H 2166.1 -4.221 -3.50889 0
M  V30 23156 H 2166.36 -2.48995 -3.65314 0
M  V30 23157 N 2165.42 0.552936 -1.47582 0
M  V30 23158 C 2166.35 1.66928 -1.6327 0
M  V30 23159 C 2167.33 1.63127 -0.482035 0
M  V30 23160 O 2168.51 1.80682 -0.71188 0
M  V30 23161 C 2165.64 3.0556 -1.65076 0
M  V30 23162 C 2164.6 3.2421 -2.79413 0
M  V30 23163 C 2163.92 4.63672 -2.66294 0
M  V30 23164 C 2165.22 3.09176 -4.20961 0
M  V30 23165 H 2166.92 1.54055 -2.56725 0
M  V30 23166 H 2164.46 0.739709 -1.23549 0
M  V30 23167 H 2166.42 3.83508 -1.74642 0
M  V30 23168 H 2165.14 3.19403 -0.681852 0
M  V30 23169 H 2163.8 2.48673 -2.69365 0
M  V30 23170 H 2163.45 4.7432 -1.67422 0
M  V30 23171 H 2163.15 4.77099 -3.43002 0
M  V30 23172 H 2164.67 5.43749 -2.77795 0
M  V30 23173 H 2166.08 3.76936 -4.31963 0
M  V30 23174 H 2164.48 3.3411 -4.98488 0
M  V30 23175 H 2165.55 2.05869 -4.39028 0
M  V30 23176 N 2166.89 1.35785 0.800009 0
M  V30 23177 C 2167.84 1.29246 1.91217 0
M  V30 23178 C 2168.81 0.16314 1.65297 0
M  V30 23179 O 2170 0.347924 1.87601 0
M  V30 23180 C 2167.14 1.07697 3.27865 0
M  V30 23181 C 2166.25 2.2961 3.65928 0
M  V30 23182 C 2165.38 2.01158 4.91639 0
M  V30 23183 C 2164.42 3.19089 5.22349 0
M  V30 23184 N 2163.56 2.90371 6.39241 0
M  V30 23185 H 2168.4 2.24348 1.96142 0
M  V30 23186 H 2165.94 1.11515 0.959316 0
M  V30 23187 H 2167.9 0.93233 4.06649 0
M  V30 23188 H 2166.53 0.162546 3.2239 0
M  V30 23189 H 2165.58 2.54915 2.82351 0
M  V30 23190 H 2166.89 3.1765 3.84578 0
M  V30 23191 H 2166.04 1.83563 5.78264 0
M  V30 23192 H 2164.78 1.10413 4.75037 0
M  V30 23193 H 2163.79 3.37255 4.34211 0
M  V30 23194 H 2165.01 4.10645 5.40877 0
M  V30 23195 H 2162.96 2.02227 6.24052 0
M  V30 23196 H 2162.88 3.71946 6.58173 0
M  V30 23197 H 2164.14 2.76331 7.28877 0
M  V30 23198 N 2168.37 -1.02294 1.19891 0
M  V30 23199 C 2169.32 -2.09064 0.909734 0
M  V30 23200 C 2170.31 -1.60391 -0.127889 0
M  V30 23201 O 2171.5 -1.76825 0.07862 0
M  V30 23202 C 2168.63 -3.40248 0.456716 0
M  V30 23203 C 2167.71 -3.9564 1.52741 0
M  V30 23204 N 2168.1 -4.24619 2.74831 0
M  V30 23205 C 2166.4 -4.23718 1.39209 0
M  V30 23206 C 2167.1 -4.69195 3.43848 0
M  V30 23207 N 2166.08 -4.71088 2.71251 0
M  V30 23208 H 2169.88 -2.2937 1.83757 0
M  V30 23209 H 2167.4 -1.20208 1.09196 0
M  V30 23210 H 2169.39 -4.1626 0.23098 0
M  V30 23211 H 2168.05 -3.21359 -0.464563 0
M  V30 23212 H 2169.06 -4.13719 3.1154 0
M  V30 23213 H 2165.74 -4.14061 0.534734 0
M  V30 23214 H 2167.13 -5.00489 4.48286 0
M  V30 23215 N 2169.85 -1.00378 -1.21499 0
M  V30 23216 C 2171.08 -0.704325 -1.95074 0
M  V30 23217 C 2171.5 0.726447 -1.73506 0
M  V30 23218 O 2170.86 1.49809 -1.02113 0
M  V30 23219 C 2170.91 -1.02938 -3.45595 0
M  V30 23220 O 2170.01 -0.133961 -4.12182 0
M  V30 23221 H 2169.35 -0.262537 -0.609894 0
M  V30 23222 H 2171.88 -1.34369 -1.54292 0
M  V30 23223 H 2171.89 -0.975727 -3.96161 0
M  V30 23224 H 2170.57 -2.0719 -3.60618 0
M  V30 23225 H 2169.14 -0.244034 -3.72101 0
M  V30 23226 N 2171.33 1.37038 -0.778354 0
M  V30 23227 C 2172.57 1.99823 -0.34619 0
M  V30 23228 C 2172.91 1.61643 1.07634 0
M  V30 23229 O 2172.18 0.865817 1.74166 0
M  V30 23230 C 2172.47 3.56649 -0.497307 0
M  V30 23231 C 2172.32 4.04718 -1.96273 0
M  V30 23232 C 2173.64 4.39999 0.0944148 0
M  V30 23233 H 2170.76 0.725929 -0.127262 0
M  V30 23234 H 2173.4 1.62617 -0.98263 0
M  V30 23235 H 2171.55 3.88475 0.0445004 0
M  V30 23236 H 2173.22 3.8343 -2.56475 0
M  V30 23237 H 2171.46 3.56667 -2.46924 0
M  V30 23238 H 2172.13 5.13732 -2.01949 0
M  V30 23239 H 2174.61 4.1447 -0.367956 0
M  V30 23240 H 2173.49 5.48884 -0.0414159 0
M  V30 23241 H 2173.75 4.25911 1.18542 0
M  V30 23242 N 2172.81 0.529439 1.48441 0
M  V30 23243 C 2174.08 -0.0692247 1.95477 0
M  V30 23244 C 2174.46 -1.51345 1.47166 0
M  V30 23245 O 2173.81 -2.1758 0.697925 0
M  V30 23246 C 2174.02 0.0474683 3.48968 0
M  V30 23247 C 2175.37 -0.112074 4.24452 0
M  V30 23248 O 2176.39 -0.0263527 3.5619 0
M  V30 23249 O 2175.25 -0.291683 5.45721 0
M  V30 23250 H 2172.35 -0.079598 0.82316 0
M  V30 23251 H 2174.89 0.593999 1.58965 0
M  V30 23252 H 2173.67 1.05353 3.76851 0
M  V30 23253 H 2173.29 -0.65463 3.92174 0
M  V30 23254 N 2174.29 -1.55364 0.264547 0
M  V30 23255 C 2175.25 -2.20814 -0.614312 0
M  V30 23256 C 2176.25 -1.18274 -1.0894 0
M  V30 23257 O 2177.44 -1.43246 -0.991274 0
M  V30 23258 C 2174.57 -2.86572 -1.84632 0
M  V30 23259 H 2175.76 -2.99869 -0.0430102 0
M  V30 23260 H 2173.32 -1.56293 0.0150952 0
M  V30 23261 H 2174.05 -2.11501 -2.45841 0
M  V30 23262 H 2173.84 -3.61704 -1.51369 0
M  V30 23263 H 2175.33 -3.36608 -2.47153 0
M  V30 23264 N 2175.76 0.00833021 -1.57598 0
M  V30 23265 C 2176.99 0.706123 -1.94478 0
M  V30 23266 C 2177.41 1.67768 -0.86599 0
M  V30 23267 O 2176.76 1.81834 0.155828 0
M  V30 23268 C 2176.81 1.44523 -3.31354 0
M  V30 23269 O 2176.54 0.512651 -4.3509 0
M  V30 23270 C 2178.04 2.2383 -3.82642 0
M  V30 23271 H 2175.26 0.197195 -0.64137 0
M  V30 23272 H 2177.8 -0.0403132 -2.0446 0
M  V30 23273 H 2175.96 2.14337 -3.22705 0
M  V30 23274 H 2176.37 1.03321 -5.14223 0
M  V30 23275 H 2177.84 2.71055 -4.80867 0
M  V30 23276 H 2178.32 3.06148 -3.14913 0
M  V30 23277 H 2178.93 1.59049 -3.94441 0
M  V30 23278 N 2177.24 1.55075 0.280956 0
M  V30 23279 C 2178.49 1.75306 1.01361 0
M  V30 23280 C 2178.82 0.549775 1.86568 0
M  V30 23281 O 2178.07 -0.467908 1.90024 0
M  V30 23282 C 2178.37 3.00658 1.93234 0
M  V30 23283 C 2178.04 4.3356 1.23841 0
M  V30 23284 C 2176.7 4.69683 1.0465 0
M  V30 23285 C 2179.05 5.15863 0.743962 0
M  V30 23286 C 2176.38 5.85671 0.347296 0
M  V30 23287 C 2178.73 6.32573 0.0583841 0
M  V30 23288 C 2177.39 6.67342 -0.145308 0
M  V30 23289 H 2176.66 0.641491 0.370905 0
M  V30 23290 H 2179.31 1.89343 0.286608 0
M  V30 23291 H 2177.62 2.81488 2.72529 0
M  V30 23292 H 2179.31 3.13507 2.50029 0
M  V30 23293 H 2175.9 4.05163 1.39788 0
M  V30 23294 H 2180.09 4.88438 0.879877 0
M  V30 23295 H 2175.34 6.11139 0.178683 0
M  V30 23296 H 2179.52 6.95606 -0.332548 0
M  V30 23297 H 2177.14 7.5707 -0.689091 0
M  V30 23298 N 2178.72 -0.545102 1.47873 0
M  V30 23299 C 2179.63 -1.67829 1.63922 0
M  V30 23300 C 2180.65 -1.65989 0.521885 0
M  V30 23301 O 2181.82 -1.85216 0.791005 0
M  V30 23302 C 2178.89 -3.0432 1.66102 0
M  V30 23303 C 2177.95 -3.17134 2.89352 0
M  V30 23304 C 2177.18 -4.47114 2.91419 0
M  V30 23305 O 2177.4 -5.33307 2.02337 0
M  V30 23306 O 2176.34 -4.63974 3.83421 0
M  V30 23307 H 2180.16 -1.57229 2.59832 0
M  V30 23308 H 2177.75 -0.716489 1.31098 0
M  V30 23309 H 2179.63 -3.85524 1.70145 0
M  V30 23310 H 2178.31 -3.15277 0.733623 0
M  V30 23311 H 2177.21 -2.35282 2.90849 0
M  V30 23312 H 2178.55 -3.11086 3.81426 0
M  V30 23313 N 2180.2 -1.36208 -0.792797 0
M  V30 23314 C 2181.15 -1.30313 -1.92669 0
M  V30 23315 C 2182.14 -0.195525 -1.68268 0
M  V30 23316 O 2183.35 -0.362331 -1.76316 0
M  V30 23317 H 2179.72 -0.4056 -0.63324 0
M  V30 23318 H 2181.69 -2.26078 -1.9476 0
M  V30 23319 C 2180.44 -1.10589 -3.29644 0
M  V30 23320 H 2179.76 -1.95061 -3.48986 0
M  V30 23321 H 2181.2 -1.10509 -4.09345 0
M  V30 23322 C 2179.66 0.189643 -3.36366 0
M  V30 23323 O 2180.19 1.18066 -3.83958 0
M  V30 23324 N 2178.4 0.23316 -2.89663 0
M  V30 23325 H 2177.95 -0.573917 -2.51125 0
M  V30 23326 H 2177.9 1.09966 -2.94542 0
M  V30 23327 N 2181.68 1.01656 -1.20431 0
M  V30 23328 C 2182.61 2.10319 -0.910955 0
M  V30 23329 C 2183.62 1.62485 0.1013 0
M  V30 23330 O 2184.81 1.78028 -0.129719 0
M  V30 23331 C 2181.91 3.37148 -0.344189 0
M  V30 23332 C 2181.08 4.14119 -1.40799 0
M  V30 23333 C 2180.14 5.19248 -0.852542 0
M  V30 23334 O 2179.17 5.48161 -1.53324 0
M  V30 23335 N 2180.37 5.79515 0.338032 0
M  V30 23336 H 2183.13 2.36073 -1.84634 0
M  V30 23337 H 2180.7 1.18047 -1.10799 0
M  V30 23338 H 2182.69 4.04679 0.0415379 0
M  V30 23339 H 2181.26 3.08644 0.495757 0
M  V30 23340 H 2180.48 3.41557 -1.96805 0
M  V30 23341 H 2181.77 4.62326 -2.12444 0
M  V30 23342 H 2181.16 5.5836 0.908322 0
M  V30 23343 H 2179.72 6.48395 0.665396 0
M  V30 23344 N 2183.15 1.01021 1.20965 0
M  V30 23345 C 2184.4 0.6945 1.89792 0
M  V30 23346 C 2184.72 -0.77766 1.78822 0
M  V30 23347 O 2183.99 -1.55883 1.18648 0
M  V30 23348 H 2182.57 0.253892 0.702529 0
M  V30 23349 H 2185.23 1.28043 1.46938 0
M  V30 23350 H 2184.33 0.972254 2.9657 0
M  V30 23351 N 2184.63 -1.36623 0.78561 0
M  V30 23352 C 2186.04 -1.81917 0.419903 0
M  V30 23353 C 2186.39 -1.65376 -1.0557 0
M  V30 23354 O 2185.52 -1.17258 -1.81878 0
M  V30 23355 C 2186.11 -3.30272 0.755384 0
M  V30 23356 C 2184.67 -3.73789 0.442556 0
M  V30 23357 C 2183.82 -2.58948 0.992018 0
M  V30 23358 H 2186.77 -1.24899 0.979084 0
M  V30 23359 H 2186.79 -3.80473 0.0450829 0
M  V30 23360 H 2186.3 -3.42278 1.8294 0
M  V30 23361 H 2184.4 -3.67345 -0.623584 0
M  V30 23362 H 2184.52 -4.69373 0.960503 0
M  V30 23363 H 2182.88 -2.51289 0.415458 0
M  V30 23364 H 2183.66 -2.73742 2.07172 0
M  V30 23365 N 2186.11 -0.537304 -1.48158 0
M  V30 23366 C 2187.33 -0.00809879 -2.07398 0
M  V30 23367 C 2187.76 1.26708 -1.39021 0
M  V30 23368 O 2187.12 1.75405 -0.458551 0
M  V30 23369 C 2187.17 0.191371 -3.60092 0
M  V30 23370 O 2186.27 1.25844 -3.9273 0
M  V30 23371 H 2185.61 -0.042404 -0.662645 0
M  V30 23372 H 2188.14 -0.747308 -1.90464 0
M  V30 23373 H 2188.15 0.411766 -4.05917 0
M  V30 23374 H 2186.83 -0.740103 -4.09262 0
M  V30 23375 H 2185.4 1.02012 -3.58675 0
M  V30 23376 N 2187.59 1.55221 -0.272782 0
M  V30 23377 C 2189 1.85334 0.225428 0
M  V30 23378 C 2189.35 1.19479 1.55625 0
M  V30 23379 O 2188.48 0.482291 2.10957 0
M  V30 23380 C 2189.07 3.36239 0.415804 0
M  V30 23381 C 2187.63 3.66485 0.858249 0
M  V30 23382 C 2186.78 2.77255 -0.0498039 0
M  V30 23383 H 2189.73 1.50795 -0.494637 0
M  V30 23384 H 2189.75 3.59218 1.2547 0
M  V30 23385 H 2189.26 3.84141 -0.552945 0
M  V30 23386 H 2187.36 3.2408 1.83855 0
M  V30 23387 H 2187.47 4.74 0.697187 0
M  V30 23388 H 2185.84 2.50399 0.466105 0
M  V30 23389 H 2186.62 3.27971 -1.01439 0
M  V30 23390 N 2189.07 2.77022e-05 1.576 0
M  V30 23391 C 2190.31 -0.683462 1.90193 0
M  V30 23392 C 2190.64 -1.74311 0.8741 0
M  V30 23393 O 2189.91 -1.957 -0.0884894 0
M  V30 23394 H 2188.49 -0.25543 0.701972 0
M  V30 23395 H 2191.15 0.0409602 1.94857 0
M  V30 23396 H 2190.24 -1.15469 2.89954 0
M  V30 23397 N 2190.54 -1.55222 -0.272728 0
M  V30 23398 C 2191.77 -1.79606 -1.02104 0
M  V30 23399 C 2192.18 -0.569725 -1.80418 0
M  V30 23400 O 2191.53 0.470712 -1.77567 0
M  V30 23401 C 2191.59 -2.96926 -2.0267 0
M  V30 23402 C 2191.25 -4.33955 -1.43291 0
M  V30 23403 C 2192.25 -5.1293 -0.84844 0
M  V30 23404 C 2189.93 -4.80613 -1.46003 0
M  V30 23405 C 2191.93 -6.36698 -0.298997 0
M  V30 23406 C 2189.61 -6.04336 -0.906727 0
M  V30 23407 C 2190.61 -6.82216 -0.32721 0
M  V30 23408 O 2190.3 -8.03605 0.217621 0
M  V30 23409 H 2190.03 -0.602109 -0.307311 0
M  V30 23410 H 2192.59 -2.03065 -0.308827 0
M  V30 23411 H 2190.82 -2.69159 -2.77651 0
M  V30 23412 H 2192.51 -3.08631 -2.63632 0
M  V30 23413 H 2193.27 -4.78015 -0.820181 0
M  V30 23414 H 2189.15 -4.20003 -1.90049 0
M  V30 23415 H 2192.69 -6.9743 0.153975 0
M  V30 23416 H 2188.59 -6.38733 -0.932227 0
M  V30 23417 H 2189.36 -8.1843 0.107007 0
M  V30 23418 N 2192.02 0.537252 -1.4816 0
M  V30 23419 C 2193.44 0.865105 -1.3412 0
M  V30 23420 C 2193.64 1.98495 -0.346713 0
M  V30 23421 O 2192.69 2.51407 0.234671 0
M  V30 23422 C 2194.01 1.23949 -2.73965 0
M  V30 23423 C 2195.56 1.34979 -2.824 0
M  V30 23424 C 2196.03 1.75764 -4.22931 0
M  V30 23425 N 2197.52 1.8288 -4.25569 0
M  V30 23426 C 2198.26 2.15808 -5.31239 0
M  V30 23427 N 2197.75 2.4721 -6.47193 0
M  V30 23428 N 2199.55 2.16752 -5.18628 0
M  V30 23429 H 2191.7 -0.201752 -2.1144 0
M  V30 23430 H 2193.96 -0.0276116 -0.947598 0
M  V30 23431 H 2193.67 0.49032 -3.48265 0
M  V30 23432 H 2193.54 2.19126 -3.07023 0
M  V30 23433 H 2195.93 2.08974 -2.0836 0
M  V30 23434 H 2196.01 0.379404 -2.52971 0
M  V30 23435 H 2195.65 1.02332 -4.97484 0
M  V30 23436 H 2195.58 2.7384 -4.49799 0
M  V30 23437 H 2198.07 1.60918 -3.41927 0
M  V30 23438 H 2198.39 2.7142 -7.23568 0
M  V30 23439 H 2196.73 2.44746 -6.5048 0
M  V30 23440 H 2199.92 1.91672 -4.27059 0
M  V30 23441 H 2200.09 2.42082 -6.01082 0
M  V30 23442 N 2193.5 1.36626 0.785562 0
M  V30 23443 C 2194.43 1.25628 1.90507 0
M  V30 23444 C 2195.41 0.139636 1.61999 0
M  V30 23445 O 2196.6 0.311443 1.85909 0
M  V30 23446 C 2193.72 0.939216 3.25417 0
M  V30 23447 C 2192.77 2.07084 3.72852 0
M  V30 23448 S 2193.6 3.68911 3.88156 0
M  V30 23449 C 2194.76 3.39326 5.25936 0
M  V30 23450 H 2194.99 2.20384 1.99545 0
M  V30 23451 H 2192.52 1.22087 0.945204 0
M  V30 23452 H 2194.48 0.7631 4.03345 0
M  V30 23453 H 2193.14 0.00936923 3.14099 0
M  V30 23454 H 2192.34 1.80365 4.70621 0
M  V30 23455 H 2191.94 2.20637 3.01986 0
M  V30 23456 H 2194.23 2.93458 6.10646 0
M  V30 23457 H 2195.17 4.36373 5.5766 0
M  V30 23458 H 2195.58 2.74582 4.93219 0
M  V30 23459 N 2194.98 -1.01016 1.20969 0
M  V30 23460 C 2195.89 -2.13142 0.980194 0
M  V30 23461 C 2196.9 -1.73875 -0.0660359 0
M  V30 23462 O 2198.08 -2.01025 0.122857 0
M  V30 23463 C 2195.15 -3.42434 0.54222 0
M  V30 23464 C 2194.21 -3.95905 1.66006 0
M  V30 23465 C 2193.44 -5.19026 1.24289 0
M  V30 23466 O 2193.66 -5.70285 0.114296 0
M  V30 23467 O 2192.6 -5.65812 2.05281 0
M  V30 23468 H 2196.42 -2.35376 1.91917 0
M  V30 23469 H 2194.01 -1.11524 0.994118 0
M  V30 23470 H 2195.89 -4.20276 0.307514 0
M  V30 23471 H 2194.56 -3.216 -0.368093 0
M  V30 23472 H 2193.47 -3.19312 1.94912 0
M  V30 23473 H 2194.8 -4.21139 2.54761 0
M  V30 23474 N 2196.46 -1.01661 -1.20428 0
M  V30 23475 C 2197.39 -0.53156 -2.21923 0
M  V30 23476 C 2198.37 0.421005 -1.57055 0
M  V30 23477 O 2199.55 0.341002 -1.8539 0
M  V30 23478 C 2196.68 0.226436 -3.37942 0
M  V30 23479 C 2195.72 -0.675684 -4.21114 0
M  V30 23480 S 2196.56 -2.14484 -4.9067 0
M  V30 23481 C 2197.71 -1.39701 -6.1011 0
M  V30 23482 H 2197.95 -1.39155 -2.62723 0
M  V30 23483 H 2195.48 -0.825502 -1.30479 0
M  V30 23484 H 2197.44 0.657666 -4.05197 0
M  V30 23485 H 2196.1 1.06199 -2.95602 0
M  V30 23486 H 2195.29 -0.0911965 -5.03917 0
M  V30 23487 H 2194.89 -1.04469 -3.59113 0
M  V30 23488 H 2197.19 -0.677015 -6.74109 0
M  V30 23489 H 2198.13 -2.20118 -6.73018 0
M  V30 23490 H 2198.54 -0.899884 -5.57281 0
M  V30 23491 N 2197.93 1.36205 -0.792844 0
M  V30 23492 C 2199.16 2.03931 -0.377737 0
M  V30 23493 C 2199.58 1.59384 0.998919 0
M  V30 23494 O 2198.94 0.763932 1.64419 0
M  V30 23495 C 2198.99 3.57734 -0.453698 0
M  V30 23496 O 2198.09 4.08875 0.538079 0
M  V30 23497 H 2197.44 0.644468 -0.159867 0
M  V30 23498 H 2199.97 1.74089 -1.07491 0
M  V30 23499 H 2199.98 4.06755 -0.318535 0
M  V30 23500 H 2198.65 3.8951 -1.45791 0
M  V30 23501 H 2197.23 3.71116 0.364294 0
M  V30 23502 N 2199.41 0.545154 1.47871 0
M  V30 23503 C 2200.66 0.0145388 2.01695 0
M  V30 23504 C 2200.97 -1.3387 1.42612 0
M  V30 23505 O 2202.18 -1.95854 1.88025 0
M  V30 23506 C 2200.64 -0.0244435 3.59892 0
M  V30 23507 C 2200.24 1.32482 4.27963 0
M  V30 23508 C 2201.99 -0.503086 4.21508 0
M  V30 23509 C 2199.9 1.2456 5.78134 0
M  V30 23510 H 2198.83 0.00166498 0.753998 0
M  V30 23511 H 2201.48 0.691205 1.69984 0
M  V30 23512 H 2199.86 -0.766507 3.88511 0
M  V30 23513 H 2201.03 2.08365 4.11 0
M  V30 23514 H 2199.35 1.74042 3.78283 0
M  V30 23515 H 2201.94 -0.580563 5.31539 0
M  V30 23516 H 2202.29 -1.51236 3.87858 0
M  V30 23517 H 2202.82 0.183751 3.97375 0
M  V30 23518 H 2199.56 2.2305 6.16384 0
M  V30 23519 H 2199.08 0.528387 5.97468 0
M  V30 23520 H 2200.76 0.9426 6.40097 0
M  V30 23521 N 2200.89 -1.55074 0.28101 0
M  V30 23522 C 2202.14 -1.99725 -0.33408 0
M  V30 23523 C 2202.47 -1.16943 -1.55418 0
M  V30 23524 O 2201.72 -0.228565 -1.94361 0
M  V30 23525 C 2202.02 -3.49343 -0.754595 0
M  V30 23526 C 2201.69 -4.49448 0.361524 0
M  V30 23527 C 2200.35 -4.76541 0.667977 0
M  V30 23528 C 2202.7 -5.09171 1.11331 0
M  V30 23529 C 2200.03 -5.60623 1.72969 0
M  V30 23530 C 2202.38 -5.94407 2.1648 0
M  V30 23531 C 2201.04 -6.19818 2.47753 0
M  V30 23532 H 2200.31 -0.730846 -0.122249 0
M  V30 23533 H 2202.96 -1.87362 0.39595 0
M  V30 23534 H 2201.27 -3.59213 -1.56439 0
M  V30 23535 H 2202.96 -3.81302 -1.24136 0
M  V30 23536 H 2199.55 -4.28452 0.112557 0
M  V30 23537 H 2203.74 -4.88258 0.889815 0
M  V30 23538 H 2198.99 -5.78556 1.97694 0
M  V30 23539 H 2203.17 -6.39715 2.75204 0
M  V30 23540 H 2200.79 -6.84763 3.30157 0
M  V30 23541 N 2202.37 -0.00838561 -1.57598 0
M  V30 23542 C 2203.6 0.684462 -1.94932 0
M  V30 23543 C 2204.01 1.6737 -0.882262 0
M  V30 23544 O 2203.35 1.83114 0.146589 0
M  V30 23545 C 2203.41 1.46485 -3.28302 0
M  V30 23546 C 2203.08 0.63626 -4.52549 0
M  V30 23547 C 2204.07 -0.07965 -5.19839 0
M  V30 23548 C 2201.76 0.579761 -4.98943 0
M  V30 23549 C 2203.75 -0.840954 -6.31828 0
M  V30 23550 C 2201.44 -0.185262 -6.10819 0
M  V30 23551 C 2202.44 -0.894346 -6.77119 0
M  V30 23552 O 2202.13 -1.64687 -7.8685 0
M  V30 23553 H 2201.86 0.195038 -0.647253 0
M  V30 23554 H 2204.41 -0.0581632 -2.05318 0
M  V30 23555 H 2202.64 2.25214 -3.14349 0
M  V30 23556 H 2204.33 2.04383 -3.50689 0
M  V30 23557 H 2205.1 -0.0452054 -4.84979 0
M  V30 23558 H 2200.98 1.12122 -4.47157 0
M  V30 23559 H 2204.52 -1.39495 -6.83511 0
M  V30 23560 H 2200.42 -0.221498 -6.4512 0
M  V30 23561 H 2201.18 -1.56446 -8.0341 0
M  V30 23562 N 2203.85 1.55365 0.264492 0
M  V30 23563 C 2205.09 1.76633 0.996429 0
M  V30 23564 C 2205.43 0.570511 1.85631 0
M  V30 23565 O 2204.7 -0.431717 1.89648 0
M  V30 23566 C 2204.98 3.07628 1.87182 0
M  V30 23567 C 2204.84 4.37581 1.0413 0
M  V30 23568 C 2206.16 3.34722 2.85743 0
M  V30 23569 H 2203.28 0.642628 0.36083 0
M  V30 23570 H 2205.92 1.88098 0.268185 0
M  V30 23571 H 2204.07 2.97985 2.49274 0
M  V30 23572 H 2205.74 4.59193 0.440436 0
M  V30 23573 H 2203.98 4.32426 0.345039 0
M  V30 23574 H 2204.65 5.25583 1.6872 0
M  V30 23575 H 2207.13 3.44214 2.33787 0
M  V30 23576 H 2206.01 4.27629 3.44129 0
M  V30 23577 H 2206.27 2.54775 3.61306 0
M  V30 23578 N 2205.33 -0.529387 1.48443 0
M  V30 23579 C 2206.57 -1.28709 1.56722 0
M  V30 23580 C 2206.9 -1.92703 0.240634 0
M  V30 23581 O 2206.18 -1.79315 -0.753422 0
M  V30 23582 C 2206.46 -2.37598 2.70591 0
M  V30 23583 C 2206.32 -1.7829 4.12956 0
M  V30 23584 C 2207.63 -3.39361 2.80218 0
M  V30 23585 H 2204.75 -0.466603 0.570483 0
M  V30 23586 H 2207.4 -0.589675 1.80618 0
M  V30 23587 H 2205.55 -2.97084 2.50347 0
M  V30 23588 H 2207.22 -1.2285 4.44641 0
M  V30 23589 H 2205.46 -1.08822 4.19929 0
M  V30 23590 H 2206.13 -2.57135 4.88452 0
M  V30 23591 H 2208.61 -2.89831 2.98558 0
M  V30 23592 H 2207.48 -4.12945 3.61618 0
M  V30 23593 H 2207.74 -3.99947 1.884 0
M  V30 23594 N 2206.8 -1.37041 -0.778305 0
M  V30 23595 C 2208.03 -1.3487 -1.56504 0
M  V30 23596 C 2208.44 0.069447 -1.89073 0
M  V30 23597 O 2207.78 1.03985 -1.51436 0
M  V30 23598 C 2207.85 -2.1159 -2.90637 0
M  V30 23599 C 2207.51 -3.60603 -2.80739 0
M  V30 23600 C 2208.51 -4.54623 -2.52218 0
M  V30 23601 C 2206.19 -4.03638 -2.98967 0
M  V30 23602 C 2208.19 -5.89656 -2.42043 0
M  V30 23603 C 2205.87 -5.38759 -2.88413 0
M  V30 23604 C 2206.87 -6.3158 -2.59991 0
M  V30 23605 O 2206.56 -7.64218 -2.49451 0
M  V30 23606 H 2206.29 -0.463888 -0.491715 0
M  V30 23607 H 2208.85 -1.80891 -0.973021 0
M  V30 23608 H 2207.08 -1.60249 -3.51933 0
M  V30 23609 H 2208.76 -2.02137 -3.51988 0
M  V30 23610 H 2209.53 -4.22685 -2.37828 0
M  V30 23611 H 2205.41 -3.31755 -3.20093 0
M  V30 23612 H 2208.95 -6.62075 -2.19779 0
M  V30 23613 H 2204.85 -5.703 -3.0237 0
M  V30 23614 H 2205.62 -7.74465 -2.6485 0
M  V30 23615 N 2208.28 1.00373 -1.21503 0
M  V30 23616 C 2209.53 1.74169 -1.03302 0
M  V30 23617 C 2209.86 1.89612 0.433293 0
M  V30 23618 O 2209.11 1.42837 1.33777 0
M  V30 23619 C 2209.41 3.15624 -1.67679 0
M  V30 23620 C 2209.08 3.20125 -3.17539 0
M  V30 23621 C 2207.74 3.2106 -3.58432 0
M  V30 23622 C 2210.09 3.17268 -4.1351 0
M  V30 23623 C 2207.42 3.16826 -4.938 0
M  V30 23624 C 2209.77 3.14575 -5.4884 0
M  V30 23625 C 2208.43 3.13821 -5.89129 0
M  V30 23626 H 2207.7 0.63733 -0.378011 0
M  V30 23627 H 2210.35 1.17632 -1.51113 0
M  V30 23628 H 2208.66 3.75402 -1.12165 0
M  V30 23629 H 2210.35 3.71444 -1.51098 0
M  V30 23630 H 2206.94 3.2014 -2.84971 0
M  V30 23631 H 2211.13 3.15704 -3.82942 0
M  V30 23632 H 2206.38 3.14581 -5.2426 0
M  V30 23633 H 2210.56 3.11319 -6.22939 0
M  V30 23634 H 2208.18 3.10294 -6.93989 0
M  V30 23635 N 2209.76 1.02298 1.19887 0
M  V30 23636 C 2211.01 0.717066 1.897 0
M  V30 23637 C 2211.34 -0.751958 1.79051 0
M  V30 23638 O 2210.61 -1.54698 1.17894 0
M  V30 23639 C 2210.9 1.16142 3.40856 0
M  V30 23640 C 2210.75 2.69123 3.60407 0
M  V30 23641 C 2212.07 0.737625 4.33875 0
M  V30 23642 H 2209.19 0.261969 0.68887 0
M  V30 23643 H 2211.83 1.27186 1.41152 0
M  V30 23644 H 2209.98 0.689409 3.82334 0
M  V30 23645 H 2211.65 3.24226 3.28139 0
M  V30 23646 H 2209.89 3.09795 3.0366 0
M  V30 23647 H 2210.57 2.95269 4.66391 0
M  V30 23648 H 2213.04 1.14351 4.00079 0
M  V30 23649 H 2211.92 1.0765 5.3824 0
M  V30 23650 H 2212.18 -0.360359 4.40629 0
M  V30 23651 N 2211.24 -1.35782 0.800057 0
M  V30 23652 C 2212.48 -1.99247 0.377936 0
M  V30 23653 C 2212.82 -1.63335 -1.05049 0
M  V30 23654 O 2212.09 -0.893415 -1.72767 0
M  V30 23655 C 2212.37 -3.55813 0.553984 0
M  V30 23656 C 2212.23 -4.01545 2.02687 0
M  V30 23657 C 2213.55 -4.40093 -0.0244028 0
M  V30 23658 H 2210.67 -0.723813 0.138795 0
M  V30 23659 H 2213.31 -1.61033 1.00838 0
M  V30 23660 H 2211.46 -3.88496 0.0173081 0
M  V30 23661 H 2213.13 -3.79301 2.62543 0
M  V30 23662 H 2211.37 -3.52693 2.52567 0
M  V30 23663 H 2212.04 -5.10454 2.10096 0
M  V30 23664 H 2214.52 -4.13832 0.433848 0
M  V30 23665 H 2213.4 -5.48749 0.128733 0
M  V30 23666 H 2213.66 -4.27743 -1.11751 0
M  V30 23667 N 2212.72 -0.552988 -1.4758 0
M  V30 23668 C 2213.96 -0.0273599 -2.02482 0
M  V30 23669 C 2214.29 1.32078 -1.42778 0
M  V30 23670 O 2213.55 1.87172 -0.571426 0
M  V30 23671 C 2213.84 0.119666 -3.572 0
M  V30 23672 C 2213.51 -1.15705 -4.35802 0
M  V30 23673 C 2212.17 -1.50689 -4.56997 0
M  V30 23674 C 2214.52 -2.00327 -4.81164 0
M  V30 23675 C 2211.85 -2.70151 -5.20803 0
M  V30 23676 C 2214.2 -3.18988 -5.46287 0
M  V30 23677 C 2212.87 -3.5429 -5.65716 0
M  V30 23678 H 2212.14 -0.0100117 -0.740932 0
M  V30 23679 H 2214.79 -0.723651 -1.77301 0
M  V30 23680 H 2213.09 0.898893 -3.81349 0
M  V30 23681 H 2214.79 0.541648 -3.97325 0
M  V30 23682 H 2211.38 -0.874635 -4.19581 0
M  V30 23683 H 2215.56 -1.74607 -4.64571 0
M  V30 23684 H 2210.82 -2.97677 -5.3404 0
M  V30 23685 H 2214.99 -3.84849 -5.804 0
M  V30 23686 H 2212.62 -4.46953 -6.14929 0
M  V30 23687 N 2214.19 1.54923 -0.28923 0
M  V30 23688 C 2215.6 1.85563 0.205758 0
M  V30 23689 C 2215.96 1.21123 1.54349 0
M  V30 23690 O 2215.08 0.504638 2.10434 0
M  V30 23691 C 2215.68 3.36661 0.380118 0
M  V30 23692 C 2214.23 3.67374 0.819331 0
M  V30 23693 C 2213.38 2.77187 -0.0792077 0
M  V30 23694 H 2216.33 1.50262 -0.510603 0
M  V30 23695 H 2216.35 3.60529 1.21653 0
M  V30 23696 H 2215.87 3.83533 -0.593657 0
M  V30 23697 H 2213.97 3.26012 1.80408 0
M  V30 23698 H 2214.08 4.74713 0.646874 0
M  V30 23699 H 2212.44 2.50879 0.439521 0
M  V30 23700 H 2213.23 3.26877 -1.04912 0
M  V30 23701 N 2215.67 0.0167433 1.57591 0
M  V30 23702 C 2216.92 -0.664564 1.91285 0
M  V30 23703 C 2217.25 -1.72841 0.891979 0
M  V30 23704 O 2216.5 -1.9544 -0.100896 0
M  V30 23705 C 2216.8 -1.33024 3.31722 0
M  V30 23706 C 2216.47 -0.397968 4.4914 0
M  V30 23707 C 2215.13 -0.141336 4.80992 0
M  V30 23708 C 2217.48 0.242917 5.20634 0
M  V30 23709 C 2214.81 0.764194 5.81702 0
M  V30 23710 C 2217.16 1.13643 6.22309 0
M  V30 23711 C 2215.82 1.40207 6.52609 0
M  V30 23712 H 2215.09 -0.243181 0.69996 0
M  V30 23713 H 2217.74 0.0758603 1.9135 0
M  V30 23714 H 2216.05 -2.14511 3.2786 0
M  V30 23715 H 2217.74 -1.86373 3.55058 0
M  V30 23716 H 2214.33 -0.608164 4.24263 0
M  V30 23717 H 2218.52 0.0576892 4.96266 0
M  V30 23718 H 2213.77 0.977838 6.0353 0
M  V30 23719 H 2217.95 1.63928 6.76831 0
M  V30 23720 H 2215.57 2.10541 7.30463 0
M  V30 23721 N 2217.15 -1.55503 -0.256249 0
M  V30 23722 C 2218.4 -1.76897 -0.985588 0
M  V30 23723 C 2218.73 -0.579387 -1.8567 0
M  V30 23724 O 2217.98 0.437617 -1.90744 0
M  V30 23725 C 2218.28 -3.03694 -1.88427 0
M  V30 23726 C 2217.95 -4.35475 -1.16928 0
M  V30 23727 C 2216.61 -4.71288 -0.971647 0
M  V30 23728 C 2218.96 -5.16981 -0.661798 0
M  V30 23729 C 2216.29 -5.8615 -0.254076 0
M  V30 23730 C 2218.64 -6.32586 0.0422602 0
M  V30 23731 C 2217.3 -6.67026 0.251457 0
M  V30 23732 H 2216.57 -0.647311 -0.360652 0
M  V30 23733 H 2219.22 -1.89775 -0.256449 0
M  V30 23734 H 2217.53 -2.85788 -2.68016 0
M  V30 23735 H 2219.22 -3.17445 -2.4501 0
M  V30 23736 H 2215.81 -4.07336 -1.33325 0
M  V30 23737 H 2220 -4.89776 -0.802059 0
M  V30 23738 H 2215.25 -6.11346 -0.0814334 0
M  V30 23739 H 2219.43 -6.94988 0.443171 0
M  V30 23740 H 2217.05 -7.55878 0.809447 0
M  V30 23741 N 2218.63 0.521507 -1.48721 0
M  V30 23742 C 2219.88 1.27687 -1.5717 0
M  V30 23743 C 2220.2 1.92896 -0.249309 0
M  V30 23744 O 2219.46 1.80292 0.761131 0
M  V30 23745 C 2219.76 2.38143 -2.66501 0
M  V30 23746 C 2219.42 1.9053 -4.08667 0
M  V30 23747 C 2218.09 1.77263 -4.4736 0
M  V30 23748 C 2220.44 1.54654 -4.97726 0
M  V30 23749 C 2217.77 1.26468 -5.72907 0
M  V30 23750 C 2220.12 1.05318 -6.23771 0
M  V30 23751 C 2218.78 0.906745 -6.61313 0
M  V30 23752 H 2218.05 0.467238 -0.575125 0
M  V30 23753 H 2220.7 0.581019 -1.82473 0
M  V30 23754 H 2219 3.13432 -2.3509 0
M  V30 23755 H 2220.7 2.96252 -2.70251 0
M  V30 23756 H 2217.29 2.0181 -3.78115 0
M  V30 23757 H 2221.47 1.6376 -4.68504 0
M  V30 23758 H 2216.73 1.13825 -6.00711 0
M  V30 23759 H 2220.9 0.766318 -6.92171 0
M  V30 23760 H 2218.53 0.51095 -7.58481 0
M  V30 23761 N 2220.11 1.37452 0.771027 0
M  V30 23762 C 2221.35 1.32896 1.53187 0
M  V30 23763 C 2221.69 -0.086217 1.94009 0
M  V30 23764 O 2220.96 -1.0437 1.64125 0
M  V30 23765 C 2221.24 2.26873 2.79644 0
M  V30 23766 C 2221.1 3.77173 2.45072 0
M  V30 23767 C 2222.42 2.19284 3.81579 0
M  V30 23768 H 2219.53 0.484074 0.555735 0
M  V30 23769 H 2222.18 1.68158 0.884463 0
M  V30 23770 H 2220.33 1.96932 3.34888 0
M  V30 23771 H 2222 4.17714 1.95737 0
M  V30 23772 H 2220.24 3.95707 1.7776 0
M  V30 23773 H 2220.91 4.38365 3.3547 0
M  V30 23774 H 2223.39 2.45677 3.3583 0
M  V30 23775 H 2222.26 2.87179 4.67782 0
M  V30 23776 H 2222.53 1.18599 4.25895 0
M  V30 23777 N 2221.58 -0.997276 1.22033 0
M  V30 23778 C 2222.53 -2.10776 0.983671 0
M  V30 23779 C 2223.53 -1.69248 -0.0717267 0
M  V30 23780 O 2224.73 -1.79821 0.0803357 0
M  V30 23781 H 2221.11 -0.689181 0.300889 0
M  V30 23782 H 2223.08 -2.27912 1.9261 0
M  V30 23783 C 2221.83 -3.42941 0.57332 0
M  V30 23784 H 2221.15 -3.75335 1.37708 0
M  V30 23785 H 2222.59 -4.21636 0.447105 0
M  V30 23786 C 2221.05 -3.2919 -0.716642 0
M  V30 23787 O 2221.58 -3.60592 -1.77021 0
M  V30 23788 N 2219.79 -2.82384 -0.686117 0
M  V30 23789 H 2219.33 -2.57028 0.171552 0
M  V30 23790 H 2219.29 -2.73565 -1.5495 0
M  V30 23791 N 2223.06 -1.02932 -1.19343 0
M  V30 23792 C 2224.31 -0.721289 -1.88362 0
M  V30 23793 C 2224.62 0.753223 -1.80516 0
M  V30 23794 O 2225.83 1.17432 -2.4479 0
M  V30 23795 C 2224.29 -1.23984 -3.3787 0
M  V30 23796 C 2223.89 -2.74217 -3.54273 0
M  V30 23797 C 2225.64 -1.00782 -4.12363 0
M  V30 23798 C 2223.55 -3.19488 -4.97676 0
M  V30 23799 H 2222.48 -0.26611 -0.70548 0
M  V30 23800 H 2225.13 -1.24368 -1.34926 0
M  V30 23801 H 2223.51 -0.645369 -3.90706 0
M  V30 23802 H 2224.68 -3.39323 -3.11763 0
M  V30 23803 H 2223 -2.95704 -2.93169 0
M  V30 23804 H 2225.59 -1.32133 -5.18117 0
M  V30 23805 H 2225.94 0.0553576 -4.16263 0
M  V30 23806 H 2226.47 -1.56632 -3.65666 0
M  V30 23807 H 2223.21 -4.25137 -4.98938 0
M  V30 23808 H 2222.73 -2.5911 -5.40946 0
M  V30 23809 H 2224.41 -3.12855 -5.66331 0
M  V30 23810 N 2224.54 1.35356 -0.807246 0
M  V30 23811 C 2225.79 1.9875 -0.387923 0
M  V30 23812 C 2226.12 1.64039 1.04506 0
M  V30 23813 O 2225.37 0.895977 1.73985 0
M  V30 23814 C 2225.67 3.5361 -0.519098 0
M  V30 23815 C 2225.34 4.08191 -1.91549 0
M  V30 23816 C 2224 4.22809 -2.29752 0
M  V30 23817 C 2226.35 4.37739 -2.82903 0
M  V30 23818 C 2223.68 4.64294 -3.58676 0
M  V30 23819 C 2226.03 4.80663 -4.11274 0
M  V30 23820 C 2224.69 4.93486 -4.49475 0
M  V30 23821 H 2223.96 0.727276 -0.141951 0
M  V30 23822 H 2226.61 1.61558 -1.02816 0
M  V30 23823 H 2224.92 3.91265 0.204589 0
M  V30 23824 H 2226.61 4.00616 -0.175415 0
M  V30 23825 H 2223.2 3.97265 -1.60869 0
M  V30 23826 H 2227.39 4.25997 -2.54637 0
M  V30 23827 H 2222.64 4.72411 -3.88121 0
M  V30 23828 H 2226.82 5.02487 -4.82161 0
M  V30 23829 H 2224.44 5.2539 -5.49427 0
M  V30 23830 N 2226.02 0.560807 1.47284 0
M  V30 23831 C 2227.26 0.038154 2.02764 0
M  V30 23832 C 2227.6 -1.30973 1.43386 0
M  V30 23833 O 2226.87 -1.85311 0.590766 0
M  V30 23834 C 2227.16 -0.0510795 3.60064 0
M  V30 23835 C 2227.01 1.32416 4.29868 0
M  V30 23836 C 2228.33 -0.762719 4.3344 0
M  V30 23837 H 2225.45 0.0153393 0.73684 0
M  V30 23838 H 2228.09 0.723789 1.75674 0
M  V30 23839 H 2226.24 -0.634998 3.83275 0
M  V30 23840 H 2227.91 1.95155 4.17986 0
M  V30 23841 H 2226.15 1.89787 3.90081 0
M  V30 23842 H 2226.82 1.2144 5.38476 0
M  V30 23843 H 2229.3 -0.266892 4.15243 0
M  V30 23844 H 2228.18 -0.794125 5.43125 0
M  V30 23845 H 2228.44 -1.81959 4.02919 0
M  V30 23846 N 2227.5 -1.54768 0.297442 0
M  V30 23847 C 2228.46 -2.22067 -0.567336 0
M  V30 23848 C 2229.46 -1.20558 -1.06407 0
M  V30 23849 O 2230.65 -1.45316 -0.960666 0
M  V30 23850 C 2227.78 -2.90424 -1.78512 0
M  V30 23851 H 2228.97 -2.99893 0.0206061 0
M  V30 23852 H 2226.53 -1.56226 0.0482438 0
M  V30 23853 H 2227.26 -2.16668 -2.41299 0
M  V30 23854 H 2227.05 -3.64834 -1.43663 0
M  V30 23855 H 2228.54 -3.41775 -2.39958 0
M  V30 23856 N 2228.97 -0.0251005 -1.5758 0
M  V30 23857 C 2229.9 0.956538 -2.13008 0
M  V30 23858 C 2230.89 1.34198 -1.04523 0
M  V30 23859 O 2232.07 1.42131 -1.32335 0
M  V30 23860 C 2229.2 2.24022 -2.6539 0
M  V30 23861 C 2228.15 1.99565 -3.78626 0
M  V30 23862 C 2227.48 3.34163 -4.1742 0
M  V30 23863 C 2228.78 1.33805 -5.0487 0
M  V30 23864 H 2230.47 0.494939 -2.95281 0
M  V30 23865 H 2228.02 0.236627 -1.42043 0
M  V30 23866 H 2229.97 2.93071 -3.02799 0
M  V30 23867 H 2228.7 2.7234 -1.80273 0
M  V30 23868 H 2227.36 1.32935 -3.41649 0
M  V30 23869 H 2227 3.80232 -3.29291 0
M  V30 23870 H 2226.7 3.18606 -4.93724 0
M  V30 23871 H 2228.23 4.04486 -4.57409 0
M  V30 23872 H 2229.64 1.92848 -5.39891 0
M  V30 23873 H 2228.04 1.28659 -5.86146 0
M  V30 23874 H 2229.11 0.310476 -4.83905 0
M  V30 23875 N 2230.45 1.55637 0.247999 0
M  V30 23876 C 2231.7 1.76619 0.974103 0
M  V30 23877 C 2232.01 0.588829 1.86527 0
M  V30 23878 O 2233.22 0.681641 2.62804 0
M  V30 23879 C 2231.68 3.12682 1.78207 0
M  V30 23880 C 2231.28 4.38063 0.938353 0
M  V30 23881 C 2233.03 3.43004 2.50098 0
M  V30 23882 C 2230.94 5.65158 1.74215 0
M  V30 23883 H 2229.87 0.658411 0.367438 0
M  V30 23884 H 2232.52 1.82068 0.228808 0
M  V30 23885 H 2230.9 3.01337 2.56928 0
M  V30 23886 H 2232.07 4.60393 0.193554 0
M  V30 23887 H 2230.39 4.15068 0.332832 0
M  V30 23888 H 2232.98 4.35176 3.10687 0
M  V30 23889 H 2233.33 2.64277 3.21657 0
M  V30 23890 H 2233.86 3.55559 1.78388 0
M  V30 23891 H 2230.6 6.46703 1.07031 0
M  V30 23892 H 2230.12 5.46931 2.46226 0
M  V30 23893 H 2231.8 6.04374 2.30956 0
M  V30 23894 N 2231.93 -0.513613 1.48996 0
M  V30 23895 C 2233.18 -1.26507 1.57095 0
M  V30 23896 C 2233.49 -1.93903 0.257126 0
M  V30 23897 O 2234.7 -2.70635 0.216526 0
M  V30 23898 C 2233.16 -2.29633 2.77122 0
M  V30 23899 C 2232.76 -1.68234 4.15212 0
M  V30 23900 C 2234.51 -3.05686 2.94544 0
M  V30 23901 C 2232.41 -2.69396 5.26478 0
M  V30 23902 H 2231.34 -0.475843 0.584884 0
M  V30 23903 H 2234 -0.540456 1.75361 0
M  V30 23904 H 2232.38 -3.05202 2.52324 0
M  V30 23905 H 2233.55 -0.987426 4.50096 0
M  V30 23906 H 2231.87 -1.04616 4.03044 0
M  V30 23907 H 2234.46 -3.81313 3.74839 0
M  V30 23908 H 2234.81 -3.62541 2.04621 0
M  V30 23909 H 2235.34 -2.37232 3.19321 0
M  V30 23910 H 2232.08 -2.1734 6.1842 0
M  V30 23911 H 2231.6 -3.37166 4.96064 0
M  V30 23912 H 2233.28 -3.32069 5.55283 0
M  V30 23913 N 2233.41 -1.37859 -0.763727 0
M  V30 23914 C 2234.66 -1.3283 -1.51786 0
M  V30 23915 C 2234.97 0.0823376 -1.95427 0
M  V30 23916 O 2236.18 0.255124 -2.70299 0
M  V30 23917 C 2234.63 -2.33198 -2.74129 0
M  V30 23918 C 2234.24 -3.79831 -2.37555 0
M  V30 23919 C 2235.99 -2.37195 -3.5205 0
M  V30 23920 C 2233.89 -4.7191 -3.56448 0
M  V30 23921 H 2232.82 -0.493705 -0.569887 0
M  V30 23922 H 2235.47 -1.63361 -0.835793 0
M  V30 23923 H 2233.86 -1.95696 -3.44266 0
M  V30 23924 H 2235.03 -4.26215 -1.7515 0
M  V30 23925 H 2233.34 -3.78856 -1.72791 0
M  V30 23926 H 2235.94 -3.0319 -4.40432 0
M  V30 23927 H 2236.28 -1.38789 -3.92484 0
M  V30 23928 H 2236.82 -2.73445 -2.88917 0
M  V30 23929 H 2233.56 -5.71474 -3.21089 0
M  V30 23930 H 2233.08 -4.30225 -4.17931 0
M  V30 23931 H 2234.76 -4.89433 -4.23159 0
M  V30 23932 N 2234.89 0.990791 -1.22561 0
M  V30 23933 C 2236.12 1.76609 -1.07782 0
M  V30 23934 C 2236.53 1.85109 0.371481 0
M  V30 23935 O 2235.89 1.32276 1.25735 0
M  V30 23936 C 2235.94 3.19819 -1.68518 0
M  V30 23937 O 2235.66 3.11775 -3.07779 0
M  V30 23938 C 2237.16 4.13788 -1.59042 0
M  V30 23939 H 2234.38 0.554576 -0.377738 0
M  V30 23940 H 2236.92 1.24548 -1.62197 0
M  V30 23941 H 2235.08 3.6894 -1.18161 0
M  V30 23942 H 2235.49 4.01852 -3.37069 0
M  V30 23943 H 2236.97 5.12017 -2.06259 0
M  V30 23944 H 2237.44 4.35776 -0.547349 0
M  V30 23945 H 2238.05 3.70564 -2.08715 0
M  V30 23946 N 2236.37 1.03564 1.18795 0
M  V30 23947 C 2237.61 0.736056 1.88649 0
M  V30 23948 C 2237.94 -0.735857 1.80043 0
M  V30 23949 O 2237.2 -1.55223 1.19182 0
M  V30 23950 C 2237.49 1.14123 3.3869 0
M  V30 23951 C 2237.16 2.61256 3.675 0
M  V30 23952 C 2235.82 3.01453 3.75072 0
M  V30 23953 C 2238.17 3.56415 3.80287 0
M  V30 23954 C 2235.5 4.35707 3.92907 0
M  V30 23955 C 2237.85 4.90381 3.99636 0
M  V30 23956 C 2236.52 5.30256 4.05443 0
M  V30 23957 H 2235.79 0.269342 0.690316 0
M  V30 23958 H 2238.44 1.29973 1.40639 0
M  V30 23959 H 2236.74 0.49627 3.88644 0
M  V30 23960 H 2238.44 0.886858 3.9107 0
M  V30 23961 H 2235.03 2.29119 3.62219 0
M  V30 23962 H 2239.21 3.26508 3.73773 0
M  V30 23963 H 2234.47 4.66128 3.95645 0
M  V30 23964 H 2238.64 5.64024 4.08473 0
M  V30 23965 H 2236.27 6.34295 4.19015 0
M  V30 23966 N 2237.84 -1.34926 0.814413 0
M  V30 23967 C 2238.78 -2.28429 0.187874 0
M  V30 23968 C 2239.79 -1.50641 -0.617348 0
M  V30 23969 O 2240.98 -1.72776 -0.448424 0
M  V30 23970 C 2238.08 -3.30362 -0.755904 0
M  V30 23971 C 2237.25 -4.374 0.00464374 0
M  V30 23972 C 2236.31 -5.19145 -0.858785 0
M  V30 23973 O 2235.34 -5.68372 -0.306868 0
M  V30 23974 N 2236.54 -5.3802 -2.17979 0
M  V30 23975 H 2239.3 -2.82836 0.991154 0
M  V30 23976 H 2236.86 -1.47359 0.670587 0
M  V30 23977 H 2238.86 -3.81944 -1.33793 0
M  V30 23978 H 2237.43 -2.76413 -1.45996 0
M  V30 23979 H 2236.65 -3.86648 0.767933 0
M  V30 23980 H 2237.93 -5.06048 0.528511 0
M  V30 23981 H 2237.33 -4.99684 -2.65203 0
M  V30 23982 H 2235.89 -5.92752 -2.71087 0
M  V30 23983 N 2239.32 -0.56861 -1.46985 0
M  V30 23984 C 2240.23 0.175509 -2.33943 0
M  V30 23985 C 2241.25 0.900383 -1.48893 0
M  V30 23986 O 2242.42 0.866728 -1.81796 0
M  V30 23987 C 2239.49 1.18518 -3.25813 0
M  V30 23988 C 2238.55 0.466507 -4.26758 0
M  V30 23989 C 2237.78 1.42808 -5.14239 0
M  V30 23990 O 2238.01 2.6637 -5.04384 0
M  V30 23991 O 2236.94 0.946349 -5.94414 0
M  V30 23992 H 2240.77 -0.538089 -2.98895 0
M  V30 23993 H 2238.35 -0.329122 -1.4573 0
M  V30 23994 H 2240.23 1.76773 -3.8253 0
M  V30 23995 H 2238.91 1.8805 -2.63475 0
M  V30 23996 H 2237.81 -0.157517 -3.73768 0
M  V30 23997 H 2239.15 -0.187571 -4.91842 0
M  V30 23998 N 2240.8 1.54608 -0.305646 0
M  V30 23999 C 2241.73 2.2115 0.602122 0
M  V30 24000 C 2242.74 1.20571 1.09392 0
M  V30 24001 O 2243.93 1.47138 1.01057 0
M  V30 24002 C 2241.03 2.84802 1.83687 0
M  V30 24003 C 2240.21 4.11356 1.48678 0
M  V30 24004 C 2239.27 4.58768 2.57717 0
M  V30 24005 O 2238.29 5.23862 2.22614 0
M  V30 24006 N 2239.49 4.31478 3.88339 0
M  V30 24007 H 2242.26 2.99682 0.0324439 0
M  V30 24008 H 2239.82 1.61393 -0.128049 0
M  V30 24009 H 2241.81 3.13452 2.55988 0
M  V30 24010 H 2240.38 2.10082 2.31483 0
M  V30 24011 H 2239.6 3.89665 0.5962 0
M  V30 24012 H 2240.89 4.9375 1.22833 0
M  V30 24013 H 2240.29 3.79339 4.19665 0
M  V30 24014 H 2238.84 4.64826 4.56924 0
M  V30 24015 N 2242.28 0.033457 1.57564 0
M  V30 24016 C 2243.53 -0.642966 1.91599 0
M  V30 24017 C 2243.85 -1.72418 0.910877 0
M  V30 24018 O 2243.12 -1.95844 -0.0469587 0
M  V30 24019 H 2241.7 -0.240483 0.707232 0
M  V30 24020 H 2244.36 0.0822831 1.94726 0
M  V30 24021 H 2243.45 -1.09293 2.92338 0
M  V30 24022 N 2243.76 -1.55766 -0.239741 0
M  V30 24023 C 2245.03 -1.68695 -0.990026 0
M  V30 24024 C 2245.41 -0.575436 -2.03106 0
M  V30 24025 O 2244.76 0.420131 -2.24604 0
M  V30 24026 C 2244.97 -3.09285 -1.61691 0
M  V30 24027 C 2246.32 -3.68114 -2.11606 0
M  V30 24028 O 2247.34 -3.1213 -1.71619 0
M  V30 24029 O 2246.2 -4.66272 -2.85049 0
M  V30 24030 H 2243.3 -0.686399 -0.461287 0
M  V30 24031 H 2245.84 -1.68093 -0.232961 0
M  V30 24032 H 2244.61 -3.81636 -0.86429 0
M  V30 24033 H 2244.24 -3.13927 -2.43999 0
M  V30 24034 N 2245.23 0.505704 -1.49266 0
M  V30 24035 C 2246.18 1.60777 -1.65588 0
M  V30 24036 C 2247.15 1.58477 -0.497424 0
M  V30 24037 O 2248.34 1.76535 -0.723881 0
M  V30 24038 C 2245.48 2.98945 -1.72413 0
M  V30 24039 C 2244.59 3.11296 -2.99531 0
M  V30 24040 C 2243.72 4.40168 -2.97364 0
M  V30 24041 C 2242.76 4.46136 -4.19082 0
M  V30 24042 N 2241.9 5.6643 -4.14851 0
M  V30 24043 H 2246.74 1.46167 -2.5969 0
M  V30 24044 H 2244.28 0.711239 -1.28763 0
M  V30 24045 H 2246.23 3.79022 -1.74351 0
M  V30 24046 H 2244.86 3.12269 -0.817807 0
M  V30 24047 H 2243.92 2.24312 -3.07226 0
M  V30 24048 H 2245.23 3.11565 -3.89524 0
M  V30 24049 H 2244.38 5.28562 -2.97838 0
M  V30 24050 H 2243.12 4.42457 -2.05141 0
M  V30 24051 H 2242.13 3.56145 -4.18856 0
M  V30 24052 H 2243.35 4.45566 -5.12491 0
M  V30 24053 H 2241.3 5.6957 -3.25463 0
M  V30 24054 H 2241.21 5.68296 -4.98574 0
M  V30 24055 H 2242.48 6.57043 -4.19422 0
M  V30 24056 N 2246.71 1.38262 0.756405 0
M  V30 24057 C 2247.65 1.29641 1.87799 0
M  V30 24058 C 2248.62 0.173967 1.61667 0
M  V30 24059 O 2249.81 0.350807 1.85207 0
M  V30 24060 C 2246.93 1.00803 3.23352 0
M  V30 24061 C 2245.98 2.14946 3.68376 0
M  V30 24062 S 2246.81 3.77061 3.80244 0
M  V30 24063 C 2247.97 3.50406 5.1862 0
M  V30 24064 H 2248.2 2.24567 1.94825 0
M  V30 24065 H 2245.74 1.24064 0.919095 0
M  V30 24066 H 2247.69 0.848484 4.01635 0
M  V30 24067 H 2246.35 0.0759921 3.14008 0
M  V30 24068 H 2245.55 1.90307 4.6669 0
M  V30 24069 H 2245.15 2.26993 2.97238 0
M  V30 24070 H 2247.44 3.06345 6.04284 0
M  V30 24071 H 2248.38 4.48103 5.48278 0
M  V30 24072 H 2248.79 2.84982 4.87284 0
M  V30 24073 N 2248.19 -0.984277 1.23084 0
M  V30 24074 C 2249.12 -2.07402 0.951822 0
M  V30 24075 C 2250.1 -1.62238 -0.108451 0
M  V30 24076 O 2251.29 -1.88483 0.0249798 0
M  V30 24077 C 2248.41 -3.35918 0.433201 0
M  V30 24078 C 2247.46 -4.00017 1.47948 0
M  V30 24079 S 2248.29 -4.39763 3.05563 0
M  V30 24080 C 2249.45 -5.71438 2.55361 0
M  V30 24081 H 2249.68 -2.30751 1.8746 0
M  V30 24082 H 2247.21 -1.11994 1.06286 0
M  V30 24083 H 2249.17 -4.10259 0.140578 0
M  V30 24084 H 2247.83 -3.10585 -0.468602 0
M  V30 24085 H 2247.03 -4.92583 1.06666 0
M  V30 24086 H 2246.63 -3.32037 1.72125 0
M  V30 24087 H 2248.92 -6.48184 1.9714 0
M  V30 24088 H 2249.86 -6.17557 3.46452 0
M  V30 24089 H 2250.27 -5.29252 1.96348 0
M  V30 24090 N 2249.67 -1.04192 -1.18244 0
M  V30 24091 C 2250.58 -0.644516 -2.25573 0
M  V30 24092 C 2251.59 0.329796 -1.70846 0
M  V30 24093 O 2252.77 0.184408 -2.00554 0
M  V30 24094 C 2249.84 -0.0149379 -3.46697 0
M  V30 24095 C 2248.9 -1.03841 -4.16552 0
M  V30 24096 C 2248.13 -0.438785 -5.31893 0
M  V30 24097 O 2248.35 0.754653 -5.65386 0
M  V30 24098 O 2247.29 -1.1681 -5.90457 0
M  V30 24099 H 2251.11 -1.53873 -2.61833 0
M  V30 24100 H 2248.7 -0.812876 -1.2535 0
M  V30 24101 H 2250.58 0.335464 -4.20063 0
M  V30 24102 H 2249.25 0.853083 -3.12257 0
M  V30 24103 H 2248.16 -1.44063 -3.45249 0
M  V30 24104 H 2249.49 -1.87724 -4.54995 0
M  V30 24105 N 2251.15 1.34492 -0.821557 0
M  V30 24106 C 2252.06 2.33324 -0.244396 0
M  V30 24107 C 2253.07 1.6256 0.620499 0
M  V30 24108 O 2254.25 1.94336 0.52872 0
M  V30 24109 C 2251.31 3.41724 0.585308 0
M  V30 24110 C 2250.37 4.28238 -0.301827 0
M  V30 24111 C 2249.61 5.31461 0.488372 0
M  V30 24112 O 2249.83 5.43794 1.72177 0
M  V30 24113 O 2248.76 6.01763 -0.128586 0
M  V30 24114 H 2252.59 2.84513 -1.06236 0
M  V30 24115 H 2250.18 1.37527 -0.583669 0
M  V30 24116 H 2252.06 4.07918 1.0574 0
M  V30 24117 H 2250.73 2.9278 1.38063 0
M  V30 24118 H 2249.64 3.64971 -0.821379 0
M  V30 24119 H 2250.97 4.80618 -1.06147 0
M  V30 24120 N 2252.62 0.576397 1.46681 0
M  V30 24121 C 2253.85 0.0649056 2.06498 0
M  V30 24122 C 2254.26 -1.24268 1.42668 0
M  V30 24123 O 2253.61 -1.7607 0.523917 0
M  V30 24124 C 2253.67 -0.181753 3.5904 0
M  V30 24125 C 2253.33 1.03928 4.45026 0
M  V30 24126 C 2254.33 1.94974 4.81955 0
M  V30 24127 C 2252.01 1.25935 4.86257 0
M  V30 24128 C 2254.01 3.06381 5.58936 0
M  V30 24129 C 2251.69 2.37648 5.62998 0
M  V30 24130 C 2252.69 3.277 5.99251 0
M  V30 24131 O 2252.38 4.37473 6.74442 0
M  V30 24132 H 2252.11 0.0516105 0.674027 0
M  V30 24133 H 2254.67 0.794984 1.89392 0
M  V30 24134 H 2252.9 -0.96637 3.7443 0
M  V30 24135 H 2254.59 -0.640977 4.00807 0
M  V30 24136 H 2255.35 1.79185 4.50686 0
M  V30 24137 H 2251.23 0.567529 4.57493 0
M  V30 24138 H 2254.77 3.76695 5.87151 0
M  V30 24139 H 2250.67 2.53402 5.93681 0
M  V30 24140 H 2251.44 4.35761 6.9286 0
M  V30 24141 N 2254.1 -1.54444 0.313841 0
M  V30 24142 C 2255.33 -2.05268 -0.296645 0
M  V30 24143 C 2255.75 -1.189 -1.45755 0
M  V30 24144 O 2255.11 -0.195917 -1.80238 0
M  V30 24145 C 2255.16 -3.53375 -0.718248 0
M  V30 24146 O 2254.26 -3.69985 -1.82168 0
M  V30 24147 H 2253.6 -0.661685 -0.0553944 0
M  V30 24148 H 2256.13 -1.99375 0.459422 0
M  V30 24149 H 2256.14 -3.95465 -1.00357 0
M  V30 24150 H 2254.82 -4.15694 0.130894 0
M  V30 24151 H 2253.4 -3.398 -1.53592 0
M  V30 24152 N 2255.58 -0.0418125 -1.57545 0
M  V30 24153 C 2256.51 0.933891 -2.14011 0
M  V30 24154 C 2257.49 1.33082 -1.0594 0
M  V30 24155 O 2258.68 1.40719 -1.33835 0
M  V30 24156 C 2255.81 2.21194 -2.67751 0
M  V30 24157 C 2254.76 1.95538 -3.80722 0
M  V30 24158 C 2254.09 3.29717 -4.20941 0
M  V30 24159 C 2255.39 1.28443 -5.06261 0
M  V30 24160 H 2257.08 0.463593 -2.95789 0
M  V30 24161 H 2254.63 0.221548 -1.42286 0
M  V30 24162 H 2256.58 2.89843 -3.05891 0
M  V30 24163 H 2255.3 2.70413 -1.83151 0
M  V30 24164 H 2253.96 1.29304 -3.4304 0
M  V30 24165 H 2253.61 3.76719 -3.33305 0
M  V30 24166 H 2253.31 3.13352 -4.97076 0
M  V30 24167 H 2254.83 3.99612 -4.61673 0
M  V30 24168 H 2256.25 1.87111 -5.41906 0
M  V30 24169 H 2254.65 1.22434 -5.87477 0
M  V30 24170 H 2255.72 0.259134 -4.84207 0
M  V30 24171 N 2257.06 1.55891 0.231477 0
M  V30 24172 C 2257.97 1.94754 1.30797 0
M  V30 24173 C 2258.98 0.850015 1.51825 0
M  V30 24174 O 2260.16 1.15274 1.65148 0
M  V30 24175 C 2257.23 2.24775 2.63964 0
M  V30 24176 C 2256.29 3.48044 2.51325 0
M  V30 24177 C 2255.52 3.76623 3.78141 0
M  V30 24178 O 2255.74 3.07031 4.80716 0
M  V30 24179 O 2254.68 4.70129 3.75848 0
M  V30 24180 H 2258.5 2.86475 1.00825 0
M  V30 24181 H 2256.09 1.42972 0.433522 0
M  V30 24182 H 2257.97 2.45324 3.42629 0
M  V30 24183 H 2256.64 1.3623 2.93637 0
M  V30 24184 H 2255.55 3.32785 1.70894 0
M  V30 24185 H 2256.88 4.3694 2.26593 0
M  V30 24186 N 2258.54 -0.497781 1.49532 0
M  V30 24187 C 2259.48 -1.59896 1.66439 0
M  V30 24188 C 2260.45 -1.58211 0.505821 0
M  V30 24189 O 2261.64 -1.76149 0.733233 0
M  V30 24190 C 2258.78 -2.98026 1.73996 0
M  V30 24191 C 2257.89 -3.09703 3.01178 0
M  V30 24192 C 2257.03 -4.38585 2.99694 0
M  V30 24193 C 2256.07 -4.43907 4.21442 0
M  V30 24194 N 2255.2 -5.64222 4.1785 0
M  V30 24195 H 2260.04 -1.44788 2.60462 0
M  V30 24196 H 2257.58 -0.7044 1.29138 0
M  V30 24197 H 2259.54 -3.78092 1.76358 0
M  V30 24198 H 2258.17 -3.11831 0.834356 0
M  V30 24199 H 2257.22 -2.2268 3.08412 0
M  V30 24200 H 2258.53 -3.09495 3.9117 0
M  V30 24201 H 2257.69 -5.26975 3.00637 0
M  V30 24202 H 2256.42 -4.41363 2.07485 0
M  V30 24203 H 2255.43 -3.53919 4.20739 0
M  V30 24204 H 2256.65 -4.42842 5.14847 0
M  V30 24205 H 2254.6 -5.67836 3.28479 0
M  V30 24206 H 2254.52 -5.65643 5.01581 0
M  V30 24207 H 2255.79 -6.5481 4.229 0
M  V30 24208 N 2260.01 -1.38661 -0.749062 0
M  V30 24209 C 2260.96 -1.36376 -1.88426 0
M  V30 24210 C 2261.96 -0.248959 -1.67561 0
M  V30 24211 O 2263.16 -0.418241 -1.75074 0
M  V30 24212 H 2259.54 -0.425541 -0.620015 0
M  V30 24213 H 2261.51 -2.3216 -1.87469 0
M  V30 24214 C 2260.26 -1.2102 -3.25959 0
M  V30 24215 H 2259.58 -2.06065 -3.42603 0
M  V30 24216 H 2261.02 -1.23476 -4.05623 0
M  V30 24217 C 2259.48 0.0825349 -3.36799 0
M  V30 24218 O 2260.01 1.05791 -3.87519 0
M  V30 24219 N 2258.22 0.140888 -2.90258 0
M  V30 24220 H 2257.76 -0.653521 -2.49172 0
M  V30 24221 H 2257.72 1.0054 -2.97891 0
M  V30 24222 N 2261.49 0.977736 -1.23605 0
M  V30 24223 C 2262.4 2.10468 -1.03636 0
M  V30 24224 C 2263.42 1.73989 0.0199129 0
M  V30 24225 O 2264.6 2.00629 -0.176112 0
M  V30 24226 C 2261.66 3.40876 -0.63282 0
M  V30 24227 C 2260.72 3.91364 -1.76444 0
M  V30 24228 C 2259.95 5.15548 -1.38006 0
M  V30 24229 O 2260.18 5.69782 -0.265457 0
M  V30 24230 O 2259.11 5.6017 -2.2021 0
M  V30 24231 H 2262.94 2.30204 -1.9809 0
M  V30 24232 H 2260.52 1.08849 -1.02334 0
M  V30 24233 H 2262.4 4.19313 -0.418834 0
M  V30 24234 H 2261.08 3.22463 0.282697 0
M  V30 24235 H 2259.99 3.14032 -2.03309 0
M  V30 24236 H 2261.32 4.14236 -2.65837 0
M  V30 24237 N 2262.97 1.04818 1.1769 0
M  V30 24238 C 2264.39 0.768819 1.39862 0
M  V30 24239 C 2264.59 -0.638418 1.91119 0
M  V30 24240 O 2263.64 -1.40143 2.10039 0
M  V30 24241 C 2264.96 1.82126 2.39271 0
M  V30 24242 C 2266.5 1.84304 2.52984 0
M  V30 24243 C 2266.98 2.88561 3.55664 0
M  V30 24244 N 2268.47 2.875 3.63178 0
M  V30 24245 C 2269.21 3.64819 4.42374 0
M  V30 24246 N 2268.7 4.51912 5.25117 0
M  V30 24247 N 2270.49 3.53275 4.37211 0
M  V30 24248 H 2262.65 1.95618 0.827485 0
M  V30 24249 H 2264.91 0.846839 0.426108 0
M  V30 24250 H 2264.61 2.83105 2.08673 0
M  V30 24251 H 2264.49 1.65972 3.38723 0
M  V30 24252 H 2266.88 0.839919 2.82895 0
M  V30 24253 H 2266.96 2.04535 1.5362 0
M  V30 24254 H 2266.6 3.89057 3.26492 0
M  V30 24255 H 2266.53 2.65583 4.54723 0
M  V30 24256 H 2269.02 2.24348 3.04099 0
M  V30 24257 H 2269.33 5.07601 5.82719 0
M  V30 24258 H 2267.68 4.55975 5.24511 0
M  V30 24259 H 2270.87 2.84632 3.71621 0
M  V30 24260 H 2271.04 4.1378 4.98688 0
M  V30 24261 N 2264.45 -1.34055 0.828678 0
M  V30 24262 C 2265.41 -2.27721 0.259967 0
M  V30 24263 C 2266.41 -1.5053 -0.565451 0
M  V30 24264 O 2267.6 -1.69989 -0.38072 0
M  V30 24265 C 2264.73 -3.34936 -0.634885 0
M  V30 24266 H 2265.93 -2.79532 1.08635 0
M  V30 24267 H 2263.48 -1.44284 0.600977 0
M  V30 24268 H 2264.22 -2.88348 -1.48411 0
M  V30 24269 H 2264 -3.92075 -0.044431 0
M  V30 24270 H 2265.49 -4.0479 -1.02641 0
M  V30 24271 N 2265.93 -0.584167 -1.46374 0
M  V30 24272 C 2267.17 -0.0730054 -2.0427 0
M  V30 24273 C 2267.53 1.26353 -1.44565 0
M  V30 24274 O 2268.73 1.86401 -1.9367 0
M  V30 24275 C 2267 -0.00973746 -3.57399 0
M  V30 24276 S 2268.56 0.443637 -4.36552 0
M  V30 24277 H 2265.38 -0.0381798 -0.709974 0
M  V30 24278 H 2267.98 -0.776994 -1.79396 0
M  V30 24279 H 2266.69 -0.986389 -3.9837 0
M  V30 24280 H 2266.22 0.716976 -3.86811 0
M  V30 24281 H 2268.23 1.69808 -4.6624 0
M  V30 24282 N 2267.41 1.54275 -0.322027 0
M  V30 24283 C 2268.65 1.9972 0.281896 0
M  V30 24284 C 2268.97 1.214 1.53367 0
M  V30 24285 O 2270.17 1.57215 2.2135 0
M  V30 24286 C 2268.63 3.55629 0.552837 0
M  V30 24287 C 2268.24 4.42782 -0.681799 0
M  V30 24288 C 2269.98 4.09546 1.1168 0
M  V30 24289 C 2267.89 5.9016 -0.382846 0
M  V30 24290 H 2266.82 0.746064 0.109111 0
M  V30 24291 H 2269.47 1.78294 -0.434011 0
M  V30 24292 H 2267.85 3.73037 1.32889 0
M  V30 24293 H 2269.03 4.37149 -1.45731 0
M  V30 24294 H 2267.34 3.99746 -1.16587 0
M  V30 24295 H 2269.94 5.17245 1.35506 0
M  V30 24296 H 2270.28 3.61435 2.06569 0
M  V30 24297 H 2270.81 3.95764 0.401963 0
M  V30 24298 H 2267.55 6.42462 -1.30087 0
M  V30 24299 H 2267.07 5.98749 0.354989 0
M  V30 24300 H 2268.75 6.47 0.00788784 0
M  V30 24301 N 2268.88 0.0501669 1.5752 0
M  V30 24302 C 2270.16 -0.663653 1.83997 0
M  V30 24303 C 2270.54 -1.89097 0.938373 0
M  V30 24304 O 2269.89 -2.285 -0.000837425 0
M  V30 24305 C 2270.1 -1.0219 3.33704 0
M  V30 24306 C 2271.45 -1.40462 4.00694 0
M  V30 24307 O 2272.47 -1.11427 3.38323 0
M  V30 24308 O 2271.33 -1.94645 5.10662 0
M  V30 24309 H 2268.42 -0.327497 0.759391 0
M  V30 24310 H 2270.97 0.0794536 1.69514 0
M  V30 24311 H 2269.74 -0.149295 3.91015 0
M  V30 24312 H 2269.36 -1.82249 3.53371 0
M  V30 24313 N 2270.36 -1.56011 -0.223207 0
M  V30 24314 C 2271.61 -1.78947 -0.947844 0
M  V30 24315 C 2271.94 -0.61864 -1.84399 0
M  V30 24316 O 2271.19 0.397059 -1.9163 0
M  V30 24317 C 2271.49 -3.07623 -1.81942 0
M  V30 24318 C 2271.16 -4.37857 -1.07665 0
M  V30 24319 C 2269.82 -4.73243 -0.871461 0
M  V30 24320 C 2272.17 -5.18269 -0.55199 0
M  V30 24321 C 2269.5 -5.86557 -0.129688 0
M  V30 24322 C 2271.85 -6.32354 0.176431 0
M  V30 24323 C 2270.51 -6.66343 0.392887 0
M  V30 24324 H 2269.78 -0.654815 -0.346841 0
M  V30 24325 H 2272.43 -1.90276 -0.216137 0
M  V30 24326 H 2270.74 -2.91408 -2.61894 0
M  V30 24327 H 2272.43 -3.2257 -2.38221 0
M  V30 24328 H 2269.02 -4.10072 -1.24655 0
M  V30 24329 H 2273.21 -4.91367 -0.69799 0
M  V30 24330 H 2268.46 -6.11381 0.0482604 0
M  V30 24331 H 2272.64 -6.93892 0.590489 0
M  V30 24332 H 2270.26 -7.53991 0.969598 0
M  V30 24333 N 2271.84 0.489844 -1.49794 0
M  V30 24334 C 2272.8 1.57243 -1.66755 0
M  V30 24335 C 2273.8 1.51501 -0.538894 0
M  V30 24336 O 2274.99 1.54454 -0.805572 0
M  V30 24337 C 2272.12 2.96893 -1.67533 0
M  V30 24338 H 2273.32 1.4353 -2.63323 0
M  V30 24339 H 2270.87 0.71489 -1.38993 0
M  V30 24340 H 2271.61 3.16072 -0.725893 0
M  V30 24341 H 2271.39 3.02469 -2.49509 0
M  V30 24342 H 2272.88 3.75526 -1.82674 0
M  V30 24343 N 2273.32 1.39056 0.741698 0
M  V30 24344 C 2274.57 1.35228 1.49654 0
M  V30 24345 C 2274.88 -0.0512365 1.95533 0
M  V30 24346 O 2276.09 -0.21209 2.7067 0
M  V30 24347 C 2274.54 2.3753 2.70384 0
M  V30 24348 C 2274.15 3.83562 2.31482 0
M  V30 24349 C 2275.89 2.42765 3.48232 0
M  V30 24350 C 2273.8 4.77521 3.48895 0
M  V30 24351 H 2272.73 0.502709 0.561961 0
M  V30 24352 H 2275.38 1.6467 0.809698 0
M  V30 24353 H 2273.76 2.01148 3.41109 0
M  V30 24354 H 2274.94 4.28948 1.68347 0
M  V30 24355 H 2273.25 3.81557 1.66742 0
M  V30 24356 H 2275.85 3.10158 4.35553 0
M  V30 24357 H 2276.19 1.45015 3.90226 0
M  V30 24358 H 2276.73 2.78007 2.8453 0
M  V30 24359 H 2273.46 5.7651 3.11956 0
M  V30 24360 H 2272.98 4.3682 4.11033 0
M  V30 24361 H 2274.66 4.96104 4.15319 0
M  V30 24362 N 2274.8 -0.971167 1.24121 0
M  V30 24363 C 2276.02 -1.75405 1.1067 0
M  V30 24364 C 2276.45 -1.85056 -0.337016 0
M  V30 24365 O 2275.8 -1.31894 -1.24393 0
M  V30 24366 C 2275.85 -3.15438 1.74732 0
M  V30 24367 O 2274.96 -3.99696 1.01573 0
M  V30 24368 H 2274.3 -0.53931 0.387351 0
M  V30 24369 H 2276.83 -1.21847 1.6436 0
M  V30 24370 H 2276.84 -3.65976 1.80348 0
M  V30 24371 H 2275.51 -3.07729 2.79778 0
M  V30 24372 H 2274.09 -3.58185 1.03719 0
M  V30 24373 N 2276.27 -1.05441 -1.17133 0
M  V30 24374 C 2277.24 -0.661802 -2.19438 0
M  V30 24375 C 2278.24 0.288014 -1.582 0
M  V30 24376 O 2279.43 0.0715497 -1.74053 0
M  V30 24377 C 2276.56 0.027561 -3.40889 0
M  V30 24378 H 2277.75 -1.56732 -2.55685 0
M  V30 24379 H 2275.31 -0.84859 -1.31258 0
M  V30 24380 H 2276.04 0.946235 -3.10188 0
M  V30 24381 H 2275.83 -0.655306 -3.86585 0
M  V30 24382 H 2277.32 0.288269 -4.16604 0
M  V30 24383 N 2277.75 1.33613 -0.835776 0
M  V30 24384 C 2278.7 2.29276 -0.26477 0
M  V30 24385 C 2279.67 1.54188 0.617685 0
M  V30 24386 O 2280.85 1.82501 0.556609 0
M  V30 24387 C 2277.99 3.4058 0.556717 0
M  V30 24388 C 2277.11 4.30585 -0.349415 0
M  V30 24389 C 2276.24 5.29001 0.482876 0
M  V30 24390 C 2275.28 6.10645 -0.42184 0
M  V30 24391 N 2274.42 7.01113 0.372139 0
M  V30 24392 H 2279.26 2.77512 -1.08586 0
M  V30 24393 H 2276.8 1.36553 -0.546951 0
M  V30 24394 H 2278.75 4.03811 1.04845 0
M  V30 24395 H 2277.38 2.93545 1.34281 0
M  V30 24396 H 2276.44 3.68102 -0.959437 0
M  V30 24397 H 2277.75 4.87741 -1.04454 0
M  V30 24398 H 2276.9 5.97745 1.03856 0
M  V30 24399 H 2275.64 4.72414 1.21145 0
M  V30 24400 H 2274.65 5.40821 -0.989559 0
M  V30 24401 H 2275.87 6.69314 -1.14873 0
M  V30 24402 H 2273.82 6.46979 1.08415 0
M  V30 24403 H 2273.73 7.55538 -0.26433 0
M  V30 24404 H 2275 7.74168 0.910157 0
M  V30 24405 N 2279.23 0.591922 1.46062 0
M  V30 24406 C 2280.64 0.167855 1.85944 0
M  V30 24407 C 2280.99 -1.2714 1.49432 0
M  V30 24408 O 2280.12 -1.96171 0.913549 0
M  V30 24409 C 2280.71 0.297853 3.37488 0
M  V30 24410 C 2279.27 -0.0714071 3.76332 0
M  V30 24411 C 2278.42 0.629556 2.70059 0
M  V30 24412 H 2281.37 0.799579 1.37085 0
M  V30 24413 H 2281.39 -0.474282 3.77533 0
M  V30 24414 H 2280.9 1.34546 3.64032 0
M  V30 24415 H 2279 -1.11879 3.55406 0
M  V30 24416 H 2279.12 0.311329 4.78087 0
M  V30 24417 H 2277.48 0.0688314 2.54607 0
M  V30 24418 H 2278.26 1.67899 2.99441 0
M  V30 24419 N 2280.71 -1.54102 0.330204 0
M  V30 24420 C 2281.64 -2.27514 -0.525313 0
M  V30 24421 C 2282.62 -1.28562 -1.11381 0
M  V30 24422 O 2283.8 -1.57385 -1.1377 0
M  V30 24423 C 2280.93 -3.03794 -1.68305 0
M  V30 24424 C 2279.89 -4.10139 -1.22353 0
M  V30 24425 C 2279.21 -4.74297 -2.46873 0
M  V30 24426 C 2280.51 -5.21234 -0.333605 0
M  V30 24427 H 2282.21 -2.99273 0.0870656 0
M  V30 24428 H 2279.75 -1.43935 0.0433146 0
M  V30 24429 H 2281.71 -3.53884 -2.28788 0
M  V30 24430 H 2280.43 -2.29663 -2.32212 0
M  V30 24431 H 2279.09 -3.60942 -0.641586 0
M  V30 24432 H 2278.74 -3.96775 -3.09159 0
M  V30 24433 H 2278.44 -5.46136 -2.16815 0
M  V30 24434 H 2279.96 -5.27164 -3.08107 0
M  V30 24435 H 2281.38 -5.6704 -0.844913 0
M  V30 24436 H 2279.77 -5.99969 -0.125507 0
M  V30 24437 H 2280.84 -4.8074 0.633808 0
M  V30 24438 N 2282.19 -0.0585199 -1.57491 0
M  V30 24439 C 2283.41 0.623003 -1.97297 0
M  V30 24440 C 2283.83 1.63944 -0.936367 0
M  V30 24441 O 2283.19 1.82331 0.0785661 0
M  V30 24442 C 2283.24 1.3034 -3.37185 0
M  V30 24443 O 2282.96 0.327653 -4.36873 0
M  V30 24444 C 2284.46 2.07399 -3.91791 0
M  V30 24445 H 2281.68 0.169815 -0.649156 0
M  V30 24446 H 2284.22 -0.126995 -2.04105 0
M  V30 24447 H 2282.38 2.00457 -3.31505 0
M  V30 24448 H 2282.79 0.814178 -5.18142 0
M  V30 24449 H 2284.27 2.50416 -4.91931 0
M  V30 24450 H 2284.74 2.92516 -3.27614 0
M  V30 24451 H 2285.35 1.42177 -4.00831 0
M  V30 24452 N 2283.66 1.56128 0.21493 0
M  V30 24453 C 2285.08 1.49268 0.564922 0
M  V30 24454 C 2285.28 0.754871 1.86826 0
M  V30 24455 O 2284.34 0.297242 2.50744 0
M  V30 24456 C 2285.65 2.93853 0.638019 0
M  V30 24457 C 2287.2 3.04411 0.7282 0
M  V30 24458 C 2287.67 4.50369 0.832584 0
M  V30 24459 N 2289.16 4.54439 0.896632 0
M  V30 24460 C 2289.9 5.64662 0.997225 0
M  V30 24461 N 2289.39 6.84622 1.06135 0
M  V30 24462 N 2291.19 5.52529 1.03288 0
M  V30 24463 H 2283.34 2.02521 -0.640247 0
M  V30 24464 H 2285.6 0.920784 -0.225523 0
M  V30 24465 H 2285.31 3.50809 -0.250188 0
M  V30 24466 H 2285.18 3.46118 1.49941 0
M  V30 24467 H 2287.57 2.47517 1.60685 0
M  V30 24468 H 2287.65 2.55305 -0.158997 0
M  V30 24469 H 2287.29 5.07883 -0.041631 0
M  V30 24470 H 2287.22 4.97187 1.73529 0
M  V30 24471 H 2289.71 3.68051 0.857123 0
M  V30 24472 H 2290.03 7.64374 1.13807 0
M  V30 24473 H 2288.37 6.8732 1.03037 0
M  V30 24474 H 2291.56 4.57738 0.979478 0
M  V30 24475 H 2291.74 6.3846 1.10782 0
M  V30 24476 N 2285.14 -0.481893 1.50052 0
M  V30 24477 C 2286.09 -1.57857 1.64515 0
M  V30 24478 C 2287.08 -1.52931 0.5001 0
M  V30 24479 O 2288.27 -1.60137 0.753992 0
M  V30 24480 C 2285.4 -2.96367 1.73268 0
M  V30 24481 C 2284.48 -3.06217 2.93414 0
M  V30 24482 N 2284.87 -2.85908 4.17241 0
M  V30 24483 C 2283.17 -3.37341 2.91748 0
M  V30 24484 C 2283.87 -3.00442 4.98106 0
M  V30 24485 N 2282.85 -3.30167 4.31846 0
M  V30 24486 H 2286.65 -1.40838 2.57957 0
M  V30 24487 H 2284.17 -0.688413 1.47087 0
M  V30 24488 H 2286.16 -3.75206 1.81731 0
M  V30 24489 H 2284.82 -3.14441 0.809767 0
M  V30 24490 H 2285.83 -2.61703 4.46914 0
M  V30 24491 H 2282.51 -3.61471 2.08913 0
M  V30 24492 H 2283.9 -2.89071 6.06537 0
M  V30 24493 N 2286.62 -1.39448 -0.734313 0
M  V30 24494 C 2287.55 -1.32612 -1.85713 0
M  V30 24495 C 2288.53 -0.199665 -1.61369 0
M  V30 24496 O 2289.72 -0.380228 -1.84625 0
M  V30 24497 C 2286.84 -1.05934 -3.21707 0
M  V30 24498 C 2285.89 -2.20779 -3.64909 0
M  V30 24499 S 2286.72 -3.83063 -3.74197 0
M  V30 24500 C 2287.88 -3.58612 -5.1298 0
M  V30 24501 H 2288.11 -2.27638 -1.91228 0
M  V30 24502 H 2285.64 -1.25511 -0.899241 0
M  V30 24503 H 2287.6 -0.912273 -4.00235 0
M  V30 24504 H 2286.26 -0.125938 -3.13847 0
M  V30 24505 H 2285.46 -1.97708 -4.63603 0
M  V30 24506 H 2285.06 -2.31693 -2.93589 0
M  V30 24507 H 2287.35 -3.1592 -5.99334 0
M  V30 24508 H 2288.29 -4.56769 -5.4108 0
M  V30 24509 H 2288.7 -2.92698 -4.82688 0
M  V30 24510 N 2288.1 0.964571 -1.24635 0
M  V30 24511 C 2289.51 1.52258 -1.08048 0
M  V30 24512 C 2289.86 1.93106 0.347082 0
M  V30 24513 O 2288.99 1.77639 1.23585 0
M  V30 24514 C 2289.58 2.76691 -1.95518 0
M  V30 24515 C 2288.14 3.28838 -1.83146 0
M  V30 24516 C 2287.29 2.01729 -1.90265 0
M  V30 24517 H 2290.24 0.782529 -1.38066 0
M  V30 24518 H 2290.26 3.50143 -1.48931 0
M  V30 24519 H 2289.77 2.46931 -2.99411 0
M  V30 24520 H 2287.87 3.63443 -0.820983 0
M  V30 24521 H 2287.98 3.97526 -2.67413 0
M  V30 24522 H 2286.35 2.16582 -1.34031 0
M  V30 24523 H 2287.13 1.74329 -2.95743 0
M  V30 24524 N 2289.58 1.0606 1.16572 0
M  V30 24525 C 2290.51 0.627278 2.20449 0
M  V30 24526 C 2291.52 -0.313506 1.59753 0
M  V30 24527 O 2292.71 -0.104865 1.78192 0
M  V30 24528 C 2289.81 -0.100915 3.3875 0
M  V30 24529 C 2288.98 0.852763 4.29007 0
M  V30 24530 C 2288.04 0.164245 5.25944 0
M  V30 24531 O 2287.07 0.801146 5.63534 0
M  V30 24532 N 2288.27 -1.09508 5.70077 0
M  V30 24533 H 2291.04 1.52082 2.58247 0
M  V30 24534 H 2288.6 0.943617 1.31558 0
M  V30 24535 H 2290.59 -0.57187 4.00639 0
M  V30 24536 H 2289.16 -0.896228 2.99477 0
M  V30 24537 H 2288.38 1.50314 3.64416 0
M  V30 24538 H 2289.67 1.49981 4.86193 0
M  V30 24539 H 2289.06 -1.6327 5.41627 0
M  V30 24540 H 2287.62 -1.50995 6.34069 0
M  V30 24541 N 2291.06 -1.33168 0.84285 0
M  V30 24542 C 2292 -2.31056 0.267536 0
M  V30 24543 C 2293 -1.58318 -0.602654 0
M  V30 24544 O 2294.2 -1.73152 -0.491773 0
M  V30 24545 H 2290.58 -0.748938 0.0677944 0
M  V30 24546 H 2292.55 -2.77083 1.10759 0
M  V30 24547 C 2291.3 -3.43493 -0.539271 0
M  V30 24548 H 2290.62 -3.99617 0.12102 0
M  V30 24549 H 2292.06 -4.14172 -0.907597 0
M  V30 24550 C 2290.52 -2.897 -1.71976 0
M  V30 24551 O 2291.05 -2.86216 -2.81857 0
M  V30 24552 N 2289.26 -2.46255 -1.54295 0
M  V30 24553 H 2288.8 -2.49288 -0.649099 0
M  V30 24554 H 2288.76 -2.10616 -2.33427 0
M  V30 24555 N 2292.53 -0.599659 -1.45746 0
M  V30 24556 C 2293.48 0.123808 -2.30468 0
M  V30 24557 C 2294.45 0.867715 -1.41633 0
M  V30 24558 O 2295.64 0.855026 -1.70569 0
M  V30 24559 C 2292.78 1.12046 -3.26404 0
M  V30 24560 C 2291.89 0.378245 -4.30341 0
M  V30 24561 C 2291.02 1.36391 -5.13392 0
M  V30 24562 C 2290.06 0.609064 -6.09062 0
M  V30 24563 N 2289.2 1.54362 -6.84921 0
M  V30 24564 H 2294.04 -0.604678 -2.91801 0
M  V30 24565 H 2291.58 -0.309997 -1.43796 0
M  V30 24566 H 2293.53 1.71134 -3.80485 0
M  V30 24567 H 2292.16 1.81645 -2.66842 0
M  V30 24568 H 2291.22 -0.327996 -3.78983 0
M  V30 24569 H 2292.53 -0.211084 -4.98353 0
M  V30 24570 H 2291.68 2.02709 -5.71834 0
M  V30 24571 H 2290.42 1.98717 -4.45379 0
M  V30 24572 H 2289.43 -0.0677945 -5.49758 0
M  V30 24573 H 2290.65 -0.00903928 -6.79099 0
M  V30 24574 H 2288.6 2.15467 -6.19605 0
M  V30 24575 H 2288.51 1.00753 -7.49256 0
M  V30 24576 H 2289.78 2.19663 -7.47909 0
M  V30 24577 N 2294.01 1.53925 -0.338371 0
M  V30 24578 C 2294.94 2.22377 0.555078 0
M  V30 24579 C 2295.96 1.22864 1.0681 0
M  V30 24580 O 2297.15 1.49249 0.979137 0
M  V30 24581 C 2294.25 2.88635 1.77604 0
M  V30 24582 C 2293.42 4.14417 1.3992 0
M  V30 24583 C 2292.48 4.64132 2.47928 0
M  V30 24584 O 2291.5 5.28466 2.11452 0
M  V30 24585 N 2292.71 4.39618 3.79099 0
M  V30 24586 H 2295.47 2.99684 -0.0311305 0
M  V30 24587 H 2293.03 1.61085 -0.162254 0
M  V30 24588 H 2295.02 3.18811 2.49282 0
M  V30 24589 H 2293.59 2.14945 2.26975 0
M  V30 24590 H 2292.81 3.90842 0.513412 0
M  V30 24591 H 2294.1 4.96245 1.12332 0
M  V30 24592 H 2293.5 3.88155 4.11524 0
M  V30 24593 H 2292.06 4.74414 4.46962 0
M  V30 24594 N 2295.49 0.0668712 1.57458 0
M  V30 24595 C 2296.71 -0.615992 1.98041 0
M  V30 24596 C 2297.14 -1.6265 0.944799 0
M  V30 24597 O 2296.5 -1.81076 -0.0901776 0
M  V30 24598 C 2296.55 -1.26543 3.37667 0
M  V30 24599 O 2295.65 -2.38125 3.36705 0
M  V30 24600 H 2294.99 -0.158838 0.644722 0
M  V30 24601 H 2297.52 0.139927 2.04121 0
M  V30 24602 H 2297.53 -1.61343 3.74743 0
M  V30 24603 H 2296.21 -0.524944 4.12574 0
M  V30 24604 H 2294.78 -2.05155 3.11394 0
M  V30 24605 N 2296.97 -1.56239 -0.206647 0
M  V30 24606 C 2298.21 -1.79943 -0.92881 0
M  V30 24607 C 2298.54 -0.638163 -1.83733 0
M  V30 24608 O 2297.8 0.376712 -1.9204 0
M  V30 24609 C 2298.1 -3.09535 -1.78669 0
M  V30 24610 C 2297.76 -4.38975 -1.03015 0
M  V30 24611 C 2296.42 -4.74141 -0.821218 0
M  V30 24612 C 2298.78 -5.18825 -0.49699 0
M  V30 24613 C 2296.1 -5.86661 -0.0674687 0
M  V30 24614 C 2298.46 -6.32131 0.243491 0
M  V30 24615 C 2297.12 -6.65889 0.463539 0
M  V30 24616 H 2296.39 -0.658457 -0.339876 0
M  V30 24617 H 2299.04 -1.90495 -0.195944 0
M  V30 24618 H 2297.34 -2.9417 -2.58788 0
M  V30 24619 H 2299.04 -3.25079 -2.34787 0
M  V30 24620 H 2295.63 -4.11371 -1.20298 0
M  V30 24621 H 2299.81 -4.9208 -0.645834 0
M  V30 24622 H 2295.07 -6.11295 0.113103 0
M  V30 24623 H 2299.24 -6.93227 0.664052 0
M  V30 24624 H 2296.87 -7.5292 1.04951 0
M  V30 24625 N 2298.45 0.473929 -1.50305 0
M  V30 24626 C 2299.38 1.58968 -1.65112 0
M  V30 24627 C 2300.39 1.53838 -0.532703 0
M  V30 24628 O 2301.58 1.59278 -0.805779 0
M  V30 24629 C 2298.68 2.97842 -1.61689 0
M  V30 24630 C 2297.85 3.27871 -2.89516 0
M  V30 24631 C 2296.91 4.46285 -2.78775 0
M  V30 24632 O 2295.94 4.46733 -3.5273 0
M  V30 24633 N 2297.14 5.4778 -1.9214 0
M  V30 24634 H 2299.9 1.46684 -2.6135 0
M  V30 24635 H 2297.47 0.662298 -1.47734 0
M  V30 24636 H 2299.46 3.75022 -1.52121 0
M  V30 24637 H 2298.03 3.03909 -0.731979 0
M  V30 24638 H 2297.25 2.39331 -3.13232 0
M  V30 24639 H 2298.54 3.44744 -3.74205 0
M  V30 24640 H 2297.93 5.50237 -1.31363 0
M  V30 24641 H 2296.49 6.23955 -1.88477 0
M  V30 24642 N 2299.92 1.39835 0.726907 0
M  V30 24643 C 2301.15 1.40586 1.51391 0
M  V30 24644 C 2301.56 0.000773882 1.892 0
M  V30 24645 O 2300.9 -0.982924 1.55191 0
M  V30 24646 C 2300.97 2.22231 2.82584 0
M  V30 24647 C 2300.63 3.70774 2.67162 0
M  V30 24648 C 2301.63 4.63671 2.35172 0
M  V30 24649 C 2299.31 4.14456 2.8378 0
M  V30 24650 C 2301.31 5.98233 2.19992 0
M  V30 24651 C 2298.99 5.49092 2.68219 0
M  V30 24652 C 2299.99 6.40795 2.36371 0
M  V30 24653 O 2299.68 7.7295 2.20916 0
M  V30 24654 H 2299.41 0.481818 0.47416 0
M  V30 24655 H 2301.97 1.84377 0.905214 0
M  V30 24656 H 2300.2 1.73201 3.45743 0
M  V30 24657 H 2301.88 2.15061 3.44243 0
M  V30 24658 H 2302.65 4.31221 2.21976 0
M  V30 24659 H 2298.53 3.43406 3.0756 0
M  V30 24660 H 2302.07 6.69775 1.95056 0
M  V30 24661 H 2297.97 5.8113 2.80995 0
M  V30 24662 H 2298.74 7.83762 2.35924 0
M  V30 24663 N 2301.4 -0.957948 1.25144 0
M  V30 24664 C 2302.82 -1.2284 1.01894 0
M  V30 24665 C 2303.02 -1.99733 -0.266276 0
M  V30 24666 O 2302.07 -2.32712 -0.979872 0
M  V30 24667 C 2303.39 -2.00602 2.24008 0
M  V30 24668 C 2304.93 -2.13658 2.28734 0
M  V30 24669 C 2305.41 -2.94817 3.50495 0
M  V30 24670 N 2306.9 -3.02397 3.50871 0
M  V30 24671 C 2307.64 -3.65579 4.41746 0
M  V30 24672 N 2307.13 -4.30399 5.42889 0
M  V30 24673 N 2308.92 -3.62687 4.29435 0
M  V30 24674 H 2301.08 -0.443456 2.07719 0
M  V30 24675 H 2303.34 -0.258641 0.912036 0
M  V30 24676 H 2303.04 -1.51497 3.17398 0
M  V30 24677 H 2302.92 -3.01315 2.26912 0
M  V30 24678 H 2305.31 -2.61961 1.35869 0
M  V30 24679 H 2305.39 -1.12261 2.2985 0
M  V30 24680 H 2305.03 -2.47205 4.4368 0
M  V30 24681 H 2304.96 -3.96433 3.46624 0
M  V30 24682 H 2307.45 -2.56297 2.77705 0
M  V30 24683 H 2307.76 -4.76456 6.08448 0
M  V30 24684 H 2306.11 -4.29037 5.46765 0
M  V30 24685 H 2309.3 -3.1123 3.49648 0
M  V30 24686 H 2309.47 -4.11641 5.00455 0
M  V30 24687 N 2302.88 -1.06677 -1.16008 0
M  V30 24688 C 2303.81 -0.625206 -2.19468 0
M  V30 24689 C 2304.79 0.354014 -1.58699 0
M  V30 24690 O 2305.97 0.262065 -1.86669 0
M  V30 24691 C 2303.1 0.0828998 -3.38599 0
M  V30 24692 C 2302.15 -0.853684 -4.17869 0
M  V30 24693 S 2302.98 -2.35102 -4.81131 0
M  V30 24694 C 2304.14 -1.65452 -6.03636 0
M  V30 24695 H 2304.37 -1.50172 -2.56584 0
M  V30 24696 H 2301.9 -0.8801 -1.26861 0
M  V30 24697 H 2303.86 0.485216 -4.07622 0
M  V30 24698 H 2302.52 0.935663 -2.9984 0
M  V30 24699 H 2301.71 -0.304843 -5.03077 0
M  V30 24700 H 2301.32 -1.19606 -3.54359 0
M  V30 24701 H 2303.61 -0.962319 -6.70631 0
M  V30 24702 H 2304.55 -2.48465 -6.63077 0
M  V30 24703 H 2304.96 -1.13544 -5.52963 0
M  V30 24704 N 2304.36 1.32719 -0.8499 0
M  V30 24705 C 2305.6 1.98109 -0.46089 0
M  V30 24706 C 2305.96 1.6606 0.971686 0
M  V30 24707 O 2305.25 0.935973 1.67183 0
M  V30 24708 C 2305.45 3.5178 -0.631333 0
M  V30 24709 C 2305.27 3.98762 -2.07893 0
M  V30 24710 C 2304.04 4.26072 -2.71645 0
M  V30 24711 C 2306.24 4.14177 -3.04896 0
M  V30 24712 N 2304.22 4.59268 -4.07364 0
M  V30 24713 C 2305.6 4.50857 -4.25591 0
M  V30 24714 C 2307.65 3.96497 -3.01155 0
M  V30 24715 C 2306.35 4.71704 -5.43036 0
M  V30 24716 C 2308.38 4.18526 -4.1784 0
M  V30 24717 C 2307.74 4.55518 -5.37292 0
M  V30 24718 H 2303.84 0.751203 -0.217296 0
M  V30 24719 H 2306.42 1.60629 -1.10029 0
M  V30 24720 H 2304.6 3.88394 -0.0216649 0
M  V30 24721 H 2306.33 4.04141 -0.212685 0
M  V30 24722 H 2303.08 4.17967 -2.22712 0
M  V30 24723 H 2303.51 4.80059 -4.77359 0
M  V30 24724 H 2308.15 3.67003 -2.09926 0
M  V30 24725 H 2305.87 5.00055 -6.348 0
M  V30 24726 H 2309.45 4.06354 -4.16375 0
M  V30 24727 H 2308.33 4.72223 -6.26079 0
M  V30 24728 N 2305.84 0.60738 1.45426 0
M  V30 24729 C 2306.77 -0.149711 2.28711 0
M  V30 24730 C 2307.78 -0.831933 1.39938 0
M  V30 24731 O 2308.97 -0.697356 1.64314 0
M  V30 24732 C 2306.07 -1.23299 3.15675 0
M  V30 24733 C 2305.24 -0.63792 4.32723 0
M  V30 24734 C 2304.3 -1.61206 5.00898 0
M  V30 24735 O 2303.33 -1.13844 5.57699 0
M  V30 24736 N 2304.53 -2.94646 5.00164 0
M  V30 24737 H 2307.3 0.564934 2.94327 0
M  V30 24738 H 2304.86 0.446851 1.55611 0
M  V30 24739 H 2306.85 -1.88447 3.58148 0
M  V30 24740 H 2305.42 -1.85016 2.51968 0
M  V30 24741 H 2304.64 0.191641 3.93734 0
M  V30 24742 H 2305.93 -0.220575 5.08322 0
M  V30 24743 H 2305.32 -3.35727 4.55306 0
M  V30 24744 H 2303.88 -3.55218 5.46501 0
M  V30 24745 N 2307.31 -1.53743 0.34653 0
M  V30 24746 C 2308.56 -2.00962 -0.249069 0
M  V30 24747 C 2308.89 -1.23429 -1.50318 0
M  V30 24748 O 2308.14 -0.310795 -1.93216 0
M  V30 24749 C 2308.44 -3.52229 -0.605747 0
M  V30 24750 C 2308.11 -4.47511 0.551825 0
M  V30 24751 C 2306.77 -4.73279 0.869493 0
M  V30 24752 C 2309.12 -5.03991 1.32827 0
M  V30 24753 C 2306.45 -5.52783 1.96592 0
M  V30 24754 C 2308.8 -5.8469 2.41496 0
M  V30 24755 C 2307.47 -6.08752 2.73819 0
M  V30 24756 H 2306.74 -0.735374 -0.0911408 0
M  V30 24757 H 2309.38 -1.85514 0.47506 0
M  V30 24758 H 2307.69 -3.65525 -1.41063 0
M  V30 24759 H 2309.39 -3.86224 -1.07852 0
M  V30 24760 H 2305.98 -4.27589 0.294177 0
M  V30 24761 H 2310.16 -4.84045 1.0961 0
M  V30 24762 H 2305.42 -5.6965 2.22055 0
M  V30 24763 H 2309.59 -6.27467 3.02089 0
M  V30 24764 H 2307.22 -6.70144 3.58903 0
M  V30 24765 N 2308.79 -0.0752207 -1.5742 0
M  V30 24766 C 2310.04 0.593991 -1.93906 0
M  V30 24767 C 2310.37 1.69055 -0.955731 0
M  V30 24768 O 2309.65 1.94495 0.0145031 0
M  V30 24769 C 2309.93 1.16774 -3.4064 0
M  V30 24770 C 2309.78 0.0776002 -4.49733 0
M  V30 24771 C 2311.1 2.07221 -3.88262 0
M  V30 24772 H 2308.22 0.214454 -0.705109 0
M  V30 24773 H 2310.86 -0.141887 -1.89469 0
M  V30 24774 H 2309.01 1.79488 -3.44552 0
M  V30 24775 H 2310.68 -0.555653 -4.57941 0
M  V30 24776 H 2308.93 -0.591361 -4.2975 0
M  V30 24777 H 2309.6 0.519507 -5.4955 0
M  V30 24778 H 2312.07 1.54438 -3.86378 0
M  V30 24779 H 2310.95 2.44299 -4.91537 0
M  V30 24780 H 2311.21 2.98185 -3.26402 0
M  V30 24781 N 2310.27 1.56347 0.198358 0
M  V30 24782 C 2311.52 1.807 0.920616 0
M  V30 24783 C 2311.85 0.64873 1.83044 0
M  V30 24784 O 2311.12 -0.350892 1.91309 0
M  V30 24785 C 2311.41 3.1529 1.73966 0
M  V30 24786 C 2311.26 4.41604 0.854773 0
M  V30 24787 C 2312.58 3.4654 2.71289 0
M  V30 24788 H 2309.7 0.657354 0.333249 0
M  V30 24789 H 2312.34 1.89066 0.188165 0
M  V30 24790 H 2310.49 3.08289 2.36411 0
M  V30 24791 H 2312.16 4.60647 0.245281 0
M  V30 24792 H 2310.41 4.335 0.161322 0
M  V30 24793 H 2311.08 5.32266 1.46276 0
M  V30 24794 H 2313.55 3.5382 2.18977 0
M  V30 24795 H 2312.43 4.4184 3.25682 0
M  V30 24796 H 2312.69 2.6987 3.50175 0
M  V30 24797 N 2311.75 -0.465951 1.50554 0
M  V30 24798 C 2312.97 -1.24546 1.6584 0
M  V30 24799 C 2313.4 -1.84937 0.343518 0
M  V30 24800 O 2312.76 -1.67524 -0.69321 0
M  V30 24801 C 2312.8 -2.32619 2.75537 0
M  V30 24802 O 2311.91 -3.37394 2.37147 0
M  V30 24803 H 2311.25 -0.366184 0.5539 0
M  V30 24804 H 2313.78 -0.553892 1.9696 0
M  V30 24805 H 2313.79 -2.77852 2.98768 0
M  V30 24806 H 2312.46 -1.88037 3.70965 0
M  V30 24807 H 2311.04 -2.97837 2.24382 0
M  V30 24808 N 2313.23 -1.40218 -0.719481 0
M  V30 24809 C 2314.64 -1.34153 -1.29846 0
M  V30 24810 C 2314.99 -0.0131694 -1.96196 0
M  V30 24811 O 2314.11 0.888885 -1.97301 0
M  V30 24812 C 2314.71 -2.42972 -2.36114 0
M  V30 24813 C 2313.27 -2.40379 -2.89646 0
M  V30 24814 C 2312.41 -2.24052 -1.63389 0
M  V30 24815 H 2315.37 -1.50081 -0.515884 0
M  V30 24816 H 2315.39 -2.10655 -3.16867 0
M  V30 24817 H 2314.9 -3.39639 -1.87794 0
M  V30 24818 H 2313 -1.47398 -3.42206 0
M  V30 24819 H 2313.11 -3.3582 -3.41705 0
M  V30 24820 H 2311.48 -1.71499 -1.88309 0
M  V30 24821 H 2312.26 -3.22712 -1.17099 0
M  V30 24822 N 2314.7 0.951297 -1.25651 0
M  V30 24823 C 2316.12 1.51104 -1.09656 0
M  V30 24824 C 2316.47 1.93463 0.326581 0
M  V30 24825 O 2315.59 1.7894 1.21694 0
M  V30 24826 C 2316.19 2.74602 -1.98442 0
M  V30 24827 C 2314.75 3.26877 -1.86623 0
M  V30 24828 C 2313.89 1.99699 -1.92394 0
M  V30 24829 H 2316.84 0.767841 -1.38888 0
M  V30 24830 H 2316.86 3.48543 -1.52636 0
M  V30 24831 H 2316.38 2.43741 -3.02013 0
M  V30 24832 H 2314.48 3.62552 -0.859485 0
M  V30 24833 H 2314.59 3.94668 -2.71614 0
M  V30 24834 H 2312.95 2.15148 -1.36321 0
M  V30 24835 H 2313.74 1.71183 -2.97576 0
M  V30 24836 N 2316.18 1.07291 1.1544 0
M  V30 24837 C 2317.43 0.7957 1.86212 0
M  V30 24838 C 2317.76 -0.678206 1.82293 0
M  V30 24839 O 2317.01 -1.51353 1.2406 0
M  V30 24840 C 2317.31 1.2484 3.34888 0
M  V30 24841 C 2316.98 2.72816 3.59002 0
M  V30 24842 C 2315.64 3.13233 3.65292 0
M  V30 24843 C 2317.99 3.68333 3.68755 0
M  V30 24844 C 2315.32 4.47987 3.78846 0
M  V30 24845 C 2317.67 5.02847 3.83833 0
M  V30 24846 C 2316.34 5.42887 3.88369 0
M  V30 24847 H 2315.61 0.291167 0.681397 0
M  V30 24848 H 2318.25 1.34382 1.36433 0
M  V30 24849 H 2316.56 0.619663 3.86869 0
M  V30 24850 H 2318.25 1.01082 3.88051 0
M  V30 24851 H 2314.84 2.40527 3.54746 0
M  V30 24852 H 2319.03 3.38234 3.63196 0
M  V30 24853 H 2314.28 4.78479 3.80615 0
M  V30 24854 H 2318.46 5.76734 3.90322 0
M  V30 24855 H 2316.09 6.47305 3.98624 0
M  V30 24856 N 2317.66 -1.32267 0.856927 0
M  V30 24857 C 2318.57 -2.32594 0.306172 0
M  V30 24858 C 2319.59 -1.64148 -0.57718 0
M  V30 24859 O 2320.76 -1.9567 -0.477009 0
M  V30 24860 C 2317.83 -3.43155 -0.4945 0
M  V30 24861 C 2316.89 -4.27287 0.415261 0
M  V30 24862 C 2316.12 -5.32569 -0.347293 0
M  V30 24863 O 2316.34 -5.48167 -1.57698 0
M  V30 24864 O 2315.28 -6.0121 0.288087 0
M  V30 24865 H 2319.1 -2.81596 1.13742 0
M  V30 24866 H 2316.69 -1.35931 0.619926 0
M  V30 24867 H 2318.57 -4.10578 -0.948871 0
M  V30 24868 H 2317.25 -2.96338 -1.30251 0
M  V30 24869 H 2316.15 -3.62665 0.917856 0
M  V30 24870 H 2317.49 -4.77635 1.18852 0
M  V30 24871 N 2319.14 -0.615084 -1.45102 0
M  V30 24872 C 2320.37 -0.119632 -2.06253 0
M  V30 24873 C 2320.78 1.20442 -1.45912 0
M  V30 24874 O 2320.12 1.74619 -0.570415 0
M  V30 24875 C 2320.18 0.086496 -3.59396 0
M  V30 24876 C 2319.85 -1.15691 -4.42114 0
M  V30 24877 C 2320.84 -2.07684 -4.76617 0
M  V30 24878 C 2318.53 -1.38783 -4.82747 0
M  V30 24879 C 2320.52 -3.21092 -5.50617 0
M  V30 24880 C 2318.21 -2.52491 -5.56499 0
M  V30 24881 C 2319.21 -3.43473 -5.90352 0
M  V30 24882 O 2318.89 -4.55201 -6.62607 0
M  V30 24883 H 2318.63 -0.069463 -0.672422 0
M  V30 24884 H 2321.18 -0.844918 -1.87217 0
M  V30 24885 H 2319.41 0.866757 -3.76861 0
M  V30 24886 H 2321.1 0.534484 -4.02366 0
M  V30 24887 H 2321.87 -1.91071 -4.45777 0
M  V30 24888 H 2317.74 -0.688625 -4.55828 0
M  V30 24889 H 2321.29 -3.9213 -5.76958 0
M  V30 24890 H 2317.19 -2.69053 -5.86754 0
M  V30 24891 H 2317.95 -4.53978 -6.81063 0
M  V30 24892 N 2320.62 1.53557 -0.354678 0
M  V30 24893 C 2321.85 2.05509 0.239479 0
M  V30 24894 C 2322.26 1.22893 1.43327 0
M  V30 24895 O 2321.62 0.266931 1.80537 0
M  V30 24896 C 2321.67 3.55724 0.643657 0
M  V30 24897 O 2321.39 4.35207 -0.502679 0
M  V30 24898 C 2322.89 4.23891 1.29736 0
M  V30 24899 H 2320.11 0.669539 0.0442579 0
M  V30 24900 H 2322.65 1.98041 -0.509891 0
M  V30 24901 H 2320.81 3.63378 1.34295 0
M  V30 24902 H 2321.22 5.24197 -0.178264 0
M  V30 24903 H 2322.7 5.30349 1.53082 0
M  V30 24904 H 2323.17 3.7693 2.25434 0
M  V30 24905 H 2323.78 4.2046 0.639791 0
M  V30 24906 N 2322.1 0.083568 1.57378 0
M  V30 24907 C 2323.34 -0.582464 1.93107 0
M  V30 24908 C 2323.66 -1.70051 0.96654 0
M  V30 24909 O 2324.86 -2.42691 1.2171 0
M  V30 24910 C 2323.32 -1.08745 3.43078 0
M  V30 24911 C 2322.93 0.000225151 4.48 0
M  V30 24912 C 2324.67 -1.72687 3.87788 0
M  V30 24913 C 2322.58 -0.519464 5.89114 0
M  V30 24914 H 2321.51 -0.221345 0.720779 0
M  V30 24915 H 2324.16 0.157707 1.82821 0
M  V30 24916 H 2322.54 -1.88095 3.48477 0
M  V30 24917 H 2323.72 0.775279 4.54231 0
M  V30 24918 H 2322.03 0.544133 4.12829 0
M  V30 24919 H 2324.63 -2.12621 4.90608 0
M  V30 24920 H 2324.97 -2.59152 3.258 0
M  V30 24921 H 2325.5 -0.999389 3.85042 0
M  V30 24922 H 2322.24 0.308301 6.54775 0
M  V30 24923 H 2321.76 -1.26178 5.86378 0
M  V30 24924 H 2323.44 -0.992125 6.39348 0
M  V30 24925 N 2323.57 -1.5645 -0.190064 0
M  V30 24926 C 2324.51 -1.90014 -1.26372 0
M  V30 24927 C 2325.48 -0.760791 -1.43704 0
M  V30 24928 O 2326.67 -1.01229 -1.59013 0
M  V30 24929 C 2323.8 -2.13473 -2.62958 0
M  V30 24930 C 2322.84 -3.36174 -2.62468 0
M  V30 24931 S 2323.67 -4.91141 -2.13403 0
M  V30 24932 C 2324.83 -5.17673 -3.51803 0
M  V30 24933 H 2325.06 -2.80784 -0.977131 0
M  V30 24934 H 2322.6 -1.49294 -0.393788 0
M  V30 24935 H 2324.55 -2.2767 -3.41579 0
M  V30 24936 H 2323.22 -1.23444 -2.88826 0
M  V30 24937 H 2322.41 -3.4973 -3.62912 0
M  V30 24938 H 2322.01 -3.20996 -1.91932 0
M  V30 24939 H 2324.3 -5.08502 -4.47697 0
M  V30 24940 H 2325.25 -6.19405 -3.43138 0
M  V30 24941 H 2325.65 -4.45294 -3.46948 0
M  V30 24942 N 2325.05 0.45796 -1.50799 0
M  V30 24943 C 2326.01 1.53671 -1.70053 0
M  V30 24944 C 2327.01 1.50324 -0.570908 0
M  V30 24945 O 2328.2 1.52711 -0.838153 0
M  V30 24946 C 2325.34 2.93273 -1.73793 0
M  V30 24947 H 2326.53 1.37912 -2.66309 0
M  V30 24948 H 2324.08 0.685246 -1.40478 0
M  V30 24949 H 2324.82 3.14461 -0.792773 0
M  V30 24950 H 2324.6 2.97108 -2.55869 0
M  V30 24951 H 2326.09 3.71567 -1.90598 0
M  V30 24952 N 2326.53 1.40598 0.712035 0
M  V30 24953 C 2327.46 1.3555 1.8358 0
M  V30 24954 C 2328.44 0.225312 1.61031 0
M  V30 24955 O 2329.62 0.409552 1.83997 0
M  V30 24956 C 2326.75 1.11039 3.19981 0
M  V30 24957 C 2325.8 2.26557 3.61351 0
M  V30 24958 S 2326.63 3.88967 3.68055 0
M  V30 24959 C 2327.79 3.66728 5.0721 0
M  V30 24960 H 2328.02 2.30652 1.87582 0
M  V30 24961 H 2325.55 1.26926 0.87916 0
M  V30 24962 H 2327.51 0.975831 3.98733 0
M  V30 24963 H 2326.17 0.175853 3.13607 0
M  V30 24964 H 2325.36 2.05058 4.60399 0
M  V30 24965 H 2324.97 2.36334 2.89866 0
M  V30 24966 H 2327.26 3.25414 5.94232 0
M  V30 24967 H 2328.2 4.65319 5.33745 0
M  V30 24968 H 2328.61 3.0034 4.77971 0
M  V30 24969 N 2328.01 -0.94462 1.26153 0
M  V30 24970 C 2329.26 -1.68485 1.10886 0
M  V30 24971 C 2329.57 -1.92477 -0.348119 0
M  V30 24972 O 2330.78 -2.64293 -0.621412 0
M  V30 24973 C 2329.23 -3.03374 1.93629 0
M  V30 24974 C 2328.84 -2.87142 3.4388 0
M  V30 24975 C 2330.58 -3.81112 1.8696 0
M  V30 24976 C 2328.49 -4.17482 4.18882 0
M  V30 24977 H 2327.42 -0.6319 0.411362 0
M  V30 24978 H 2330.07 -1.0508 1.50434 0
M  V30 24979 H 2328.45 -3.67741 1.46911 0
M  V30 24980 H 2329.63 -2.31646 3.98342 0
M  V30 24981 H 2327.94 -2.2285 3.51748 0
M  V30 24982 H 2330.54 -4.77669 2.40284 0
M  V30 24983 H 2330.88 -4.07746 0.83959 0
M  V30 24984 H 2331.42 -3.23513 2.31483 0
M  V30 24985 H 2328.15 -3.96034 5.22339 0
M  V30 24986 H 2327.67 -4.72705 3.69201 0
M  V30 24987 H 2329.35 -4.85961 4.27143 0
M  V30 24988 N 2329.49 -1.07901 -1.1487 0
M  V30 24989 C 2330.45 -0.708199 -2.17984 0
M  V30 24990 C 2331.45 0.254393 -1.58775 0
M  V30 24991 O 2332.64 0.0346144 -1.74166 0
M  V30 24992 C 2329.77 -0.0447528 -3.40871 0
M  V30 24993 H 2330.96 -1.6212 -2.52303 0
M  V30 24994 H 2328.52 -0.876241 -1.29428 0
M  V30 24995 H 2329.25 0.880227 -3.12126 0
M  V30 24996 H 2329.04 -0.737159 -3.85108 0
M  V30 24997 H 2330.53 0.199836 -4.17122 0
M  V30 24998 N 2330.96 1.31811 -0.863929 0
M  V30 24999 C 2331.89 2.31144 -0.330883 0
M  V30 25000 C 2332.87 1.60088 0.574977 0
M  V30 25001 O 2334.06 1.87831 0.493271 0
M  V30 25002 C 2331.19 3.44055 0.473679 0
M  V30 25003 C 2330.14 4.26659 -0.338556 0
M  V30 25004 C 2329.47 5.3142 0.591318 0
M  V30 25005 C 2330.77 4.98165 -1.56935 0
M  V30 25006 H 2332.46 2.75977 -1.16091 0
M  V30 25007 H 2330.01 1.32678 -0.559681 0
M  V30 25008 H 2331.96 4.12592 0.857071 0
M  V30 25009 H 2330.69 2.97973 1.33716 0
M  V30 25010 H 2329.35 3.5978 -0.703818 0
M  V30 25011 H 2328.99 4.8159 1.4519 0
M  V30 25012 H 2328.69 5.87577 0.0517989 0
M  V30 25013 H 2330.22 6.02819 0.971685 0
M  V30 25014 H 2331.63 5.59333 -1.25774 0
M  V30 25015 H 2330.03 5.6409 -2.04749 0
M  V30 25016 H 2331.1 4.25497 -2.32552 0
M  V30 25017 N 2332.44 0.62277 1.44773 0
M  V30 25018 C 2333.39 -0.0994274 2.32387 0
M  V30 25019 C 2334.38 -0.8443 1.4686 0
M  V30 25020 O 2335.59 -0.758146 1.63255 0
M  V30 25021 H 2331.96 -0.0509159 0.750274 0
M  V30 25022 H 2333.94 0.657721 2.91061 0
M  V30 25023 C 2332.68 -1.07313 3.30725 0
M  V30 25024 H 2332.01 -0.509393 3.96542 0
M  V30 25025 H 2333.45 -1.5481 3.94728 0
M  V30 25026 C 2331.91 -2.15425 2.59025 0
M  V30 25027 O 2332.44 -3.23388 2.38291 0
M  V30 25028 N 2330.64 -1.91127 2.18904 0
M  V30 25029 H 2330.19 -1.03333 2.35966 0
M  V30 25030 H 2330.15 -2.63665 1.71255 0
M  V30 25031 N 2333.92 -1.53367 0.362817 0
M  V30 25032 C 2335.15 -2.05634 -0.228577 0
M  V30 25033 C 2335.56 -1.23651 -1.42674 0
M  V30 25034 O 2334.92 -0.276502 -1.80393 0
M  V30 25035 C 2334.97 -3.5606 -0.624783 0
M  V30 25036 O 2334.69 -4.34934 0.525752 0
M  V30 25037 C 2336.19 -4.24573 -1.27486 0
M  V30 25038 H 2333.41 -0.669764 -0.0407066 0
M  V30 25039 H 2335.96 -1.97768 0.520386 0
M  V30 25040 H 2334.11 -3.64085 -1.32366 0
M  V30 25041 H 2334.53 -5.24095 0.206061 0
M  V30 25042 H 2336 -5.31153 -1.50267 0
M  V30 25043 H 2336.48 -3.7812 -2.23432 0
M  V30 25044 H 2337.08 -4.20794 -0.617484 0
M  V30 25045 N 2335.4 -0.091913 -1.57332 0
M  V30 25046 C 2336.65 0.572215 -1.93413 0
M  V30 25047 C 2336.96 1.69536 -0.975545 0
M  V30 25048 O 2338.17 2.42042 -1.22995 0
M  V30 25049 C 2336.62 1.06924 -3.4365 0
M  V30 25050 C 2336.23 -0.0239837 -4.47994 0
M  V30 25051 C 2337.97 1.70628 -3.88698 0
M  V30 25052 C 2335.88 0.488215 -5.89381 0
M  V30 25053 H 2334.81 0.217519 -0.721943 0
M  V30 25054 H 2337.46 -0.167401 -1.82735 0
M  V30 25055 H 2335.84 1.86244 -3.4947 0
M  V30 25056 H 2337.02 -0.799357 -4.53814 0
M  V30 25057 H 2335.33 -0.566018 -4.12535 0
M  V30 25058 H 2337.93 2.10016 -4.91729 0
M  V30 25059 H 2338.27 2.57421 -3.2717 0
M  V30 25060 H 2338.81 0.978955 -3.85566 0
M  V30 25061 H 2335.55 -0.343021 -6.54602 0
M  V30 25062 H 2335.07 1.23066 -5.87039 0
M  V30 25063 H 2336.74 0.958205 -6.39865 0
M  V30 25064 N 2336.88 1.56548 0.181765 0
M  V30 25065 C 2338.12 1.81666 0.901399 0
M  V30 25066 C 2338.46 0.668107 1.82346 0
M  V30 25067 O 2337.73 -0.330581 1.9167 0
M  V30 25068 C 2338.01 3.17118 1.70612 0
M  V30 25069 C 2337.87 4.42485 0.807886 0
M  V30 25070 C 2339.19 3.49398 2.67599 0
M  V30 25071 H 2336.3 0.660851 0.326258 0
M  V30 25072 H 2338.95 1.89255 0.168101 0
M  V30 25073 H 2337.1 3.10779 2.33128 0
M  V30 25074 H 2338.77 4.60882 0.196409 0
M  V30 25075 H 2337.01 4.33647 0.115334 0
M  V30 25076 H 2337.68 5.33788 1.40623 0
M  V30 25077 H 2340.16 3.56122 2.15212 0
M  V30 25078 H 2339.03 4.45269 3.20977 0
M  V30 25079 H 2339.3 2.73569 3.47293 0
M  V30 25080 N 2338.35 -0.449957 1.5104 0
M  V30 25081 C 2339.28 -1.55284 1.74382 0
M  V30 25082 C 2340.27 -1.59419 0.593264 0
M  V30 25083 O 2341.45 -1.75349 0.834656 0
M  V30 25084 C 2338.58 -2.93463 1.85734 0
M  V30 25085 C 2337.53 -3.04192 3.01083 0
M  V30 25086 C 2336.86 -4.44226 2.97603 0
M  V30 25087 C 2338.16 -2.79442 4.41259 0
M  V30 25088 H 2339.85 -1.36003 2.66727 0
M  V30 25089 H 2337.4 -0.652842 1.28351 0
M  V30 25090 H 2339.35 -3.70566 2.00646 0
M  V30 25091 H 2338.08 -3.13947 0.900262 0
M  V30 25092 H 2336.74 -2.29526 2.85855 0
M  V30 25093 H 2336.38 -4.61659 1.99699 0
M  V30 25094 H 2336.08 -4.52337 3.75054 0
M  V30 25095 H 2337.61 -5.2332 3.14592 0
M  V30 25096 H 2339.02 -3.46284 4.56903 0
M  V30 25097 H 2337.42 -2.98976 5.2032 0
M  V30 25098 H 2338.49 -1.75137 4.52167 0
M  V30 25099 N 2339.83 -1.40974 -0.704569 0
M  V30 25100 C 2340.77 -1.36521 -1.82858 0
M  V30 25101 C 2341.74 -0.233849 -1.6091 0
M  V30 25102 O 2342.93 -0.419304 -1.83777 0
M  V30 25103 C 2340.05 -1.12735 -3.19388 0
M  V30 25104 C 2339.1 -2.2847 -3.60144 0
M  V30 25105 S 2339.93 -3.90914 -3.65987 0
M  V30 25106 C 2341.09 -3.69412 -5.05258 0
M  V30 25107 H 2341.32 -2.31643 -1.86356 0
M  V30 25108 H 2338.86 -1.2739 -0.872416 0
M  V30 25109 H 2340.81 -0.996963 -3.9821 0
M  V30 25110 H 2339.47 -0.192482 -3.1351 0
M  V30 25111 H 2338.67 -2.07497 -4.59305 0
M  V30 25112 H 2338.27 -2.37868 -2.88608 0
M  V30 25113 H 2340.56 -3.28561 -5.92498 0
M  V30 25114 H 2341.5 -4.68143 -5.3127 0
M  V30 25115 H 2341.91 -3.02871 -4.76371 0
M  V30 25116 N 2341.31 0.937917 -1.26653 0
M  V30 25117 C 2342.24 2.03726 -1.02814 0
M  V30 25118 C 2343.22 1.62529 0.0481629 0
M  V30 25119 O 2344.41 1.88261 -0.094917 0
M  V30 25120 C 2341.53 3.34079 -0.557576 0
M  V30 25121 C 2340.58 3.9425 -1.62693 0
M  V30 25122 S 2341.41 4.28119 -3.21674 0
M  V30 25123 C 2342.57 5.61567 -2.76394 0
M  V30 25124 H 2342.8 2.23634 -1.95895 0
M  V30 25125 H 2340.33 1.07972 -1.10369 0
M  V30 25126 H 2342.29 4.09455 -0.292746 0
M  V30 25127 H 2340.95 3.1211 0.353007 0
M  V30 25128 H 2340.15 4.88285 -1.24875 0
M  V30 25129 H 2339.75 3.2542 -1.8433 0
M  V30 25130 H 2342.04 6.4042 -2.21061 0
M  V30 25131 H 2342.98 6.04273 -3.69133 0
M  V30 25132 H 2343.39 5.216 -2.15856 0
M  V30 25133 N 2342.79 1.08509 1.14296 0
M  V30 25134 C 2343.74 0.716003 2.19413 0
M  V30 25135 C 2344.71 -0.298297 1.634 0
M  V30 25136 O 2345.89 -0.182067 1.89929 0
M  V30 25137 C 2343.03 0.132594 3.44845 0
M  V30 25138 C 2342.14 1.1998 4.15005 0
M  V30 25139 C 2341.28 0.580141 5.28023 0
M  V30 25140 C 2340.32 1.62931 5.90017 0
M  V30 25141 N 2339.45 1.03137 6.94483 0
M  V30 25142 H 2344.29 1.6167 2.50333 0
M  V30 25143 H 2341.83 0.807904 1.22928 0
M  V30 25144 H 2343.79 -0.223381 4.16602 0
M  V30 25145 H 2342.42 -0.731412 3.14405 0
M  V30 25146 H 2341.47 1.67319 3.41626 0
M  V30 25147 H 2342.78 1.99481 4.57175 0
M  V30 25148 H 2341.94 0.172471 6.06455 0
M  V30 25149 H 2340.68 -0.246518 4.87077 0
M  V30 25150 H 2339.68 2.04663 5.10287 0
M  V30 25151 H 2340.91 2.45846 6.33037 0
M  V30 25152 H 2338.85 0.225826 6.55611 0
M  V30 25153 H 2338.77 1.76347 7.35145 0
M  V30 25154 H 2340.04 0.649594 7.76789 0
M  V30 25155 N 2344.27 -1.31351 0.870907 0
M  V30 25156 C 2345.51 -1.96672 0.482307 0
M  V30 25157 C 2345.84 -1.68838 -0.965608 0
M  V30 25158 O 2345.1 -0.977967 -1.69512 0
M  V30 25159 C 2345.4 -3.50731 0.687219 0
M  V30 25160 C 2345.06 -3.98587 2.10807 0
M  V30 25161 C 2343.72 -4.11366 2.49663 0
M  V30 25162 C 2346.08 -4.23742 3.03466 0
M  V30 25163 C 2343.4 -4.46652 3.80419 0
M  V30 25164 C 2345.76 -4.60493 4.33738 0
M  V30 25165 C 2344.42 -4.71479 4.72508 0
M  V30 25166 H 2343.69 -0.719675 0.176489 0
M  V30 25167 H 2346.34 -1.56469 1.10407 0
M  V30 25168 H 2344.64 -3.91796 -0.0176787 0
M  V30 25169 H 2346.34 -3.99323 0.366355 0
M  V30 25170 H 2342.93 -3.89137 1.79639 0
M  V30 25171 H 2347.11 -4.13363 2.74672 0
M  V30 25172 H 2342.37 -4.53355 4.10218 0
M  V30 25173 H 2346.54 -4.7891 5.05587 0
M  V30 25174 H 2344.17 -4.98577 5.73868 0
M  V30 25175 N 2345.74 -0.630439 -1.44441 0
M  V30 25176 C 2346.97 -0.141501 -2.06115 0
M  V30 25177 C 2347.38 1.18888 -1.47181 0
M  V30 25178 O 2346.73 1.74005 -0.588903 0
M  V30 25179 C 2346.79 0.0483724 -3.59467 0
M  V30 25180 C 2346.45 -1.20373 -4.40862 0
M  V30 25181 C 2347.45 -2.12727 -4.74387 0
M  V30 25182 C 2345.13 -1.43896 -4.81248 0
M  V30 25183 C 2347.13 -3.26914 -5.4718 0
M  V30 25184 C 2344.81 -2.58379 -5.5379 0
M  V30 25185 C 2345.81 -3.49715 -5.86676 0
M  V30 25186 O 2345.5 -4.62203 -6.57741 0
M  V30 25187 H 2345.23 -0.076591 -0.671647 0
M  V30 25188 H 2347.79 -0.864728 -1.86311 0
M  V30 25189 H 2346.02 0.826737 -3.77759 0
M  V30 25190 H 2347.71 0.491778 -4.0291 0
M  V30 25191 H 2348.47 -1.95789 -4.43725 0
M  V30 25192 H 2344.35 -0.736933 -4.55072 0
M  V30 25193 H 2347.89 -3.98227 -5.72766 0
M  V30 25194 H 2343.79 -2.75262 -5.83868 0
M  V30 25195 H 2344.56 -4.61176 -6.76209 0
M  V30 25196 N 2347.22 1.53172 -0.370945 0
M  V30 25197 C 2348.47 2.00936 0.216637 0
M  V30 25198 C 2348.79 1.2598 1.48843 0
M  V30 25199 O 2348.06 0.374584 1.92285 0
M  V30 25200 H 2346.64 0.74237 0.0830434 0
M  V30 25201 H 2349.3 1.88419 -0.498413 0
M  V30 25202 H 2348.4 3.08985 0.439839 0
M  V30 25203 N 2348.7 0.100255 1.57281 0
M  V30 25204 C 2349.66 -0.842361 2.13159 0
M  V30 25205 C 2350.66 -1.20736 1.06205 0
M  V30 25206 O 2351.85 -1.13595 1.32068 0
M  V30 25207 C 2348.99 -2.13651 2.65643 0
M  V30 25208 H 2350.18 -0.357061 2.97767 0
M  V30 25209 H 2347.73 -0.148796 1.5559 0
M  V30 25210 H 2348.47 -2.66654 1.8457 0
M  V30 25211 H 2348.25 -1.88445 3.43847 0
M  V30 25212 H 2349.74 -2.81071 3.08851 0
M  V30 25213 N 2350.18 -1.56643 -0.17346 0
M  V30 25214 C 2351.4 -1.86364 -0.910116 0
M  V30 25215 C 2351.83 -0.686349 -1.75131 0
M  V30 25216 O 2351.19 0.364612 -1.77596 0
M  V30 25217 C 2351.24 -3.14485 -1.76442 0
M  V30 25218 O 2350.34 -2.96558 -2.86579 0
M  V30 25219 H 2349.68 -0.613052 -0.255076 0
M  V30 25220 H 2352.21 -2.03874 -0.172247 0
M  V30 25221 H 2352.22 -3.45835 -2.16477 0
M  V30 25222 H 2350.9 -3.99785 -1.14651 0
M  V30 25223 H 2349.47 -2.76557 -2.50141 0
M  V30 25224 N 2351.66 0.44194 -1.51277 0
M  V30 25225 C 2352.9 1.19352 -1.6396 0
M  V30 25226 C 2353.24 1.90973 -0.352577 0
M  V30 25227 O 2352.51 1.83402 0.647595 0
M  V30 25228 C 2352.79 2.21417 -2.83983 0
M  V30 25229 C 2352.65 1.5391 -4.22648 0
M  V30 25230 C 2353.97 3.22446 -2.99527 0
M  V30 25231 H 2351.09 0.432549 -0.596716 0
M  V30 25232 H 2353.73 0.483366 -1.83749 0
M  V30 25233 H 2351.88 2.81982 -2.67242 0
M  V30 25234 H 2353.55 0.967177 -4.51047 0
M  V30 25235 H 2351.79 0.84154 -4.25559 0
M  V30 25236 H 2352.46 2.2822 -5.02613 0
M  V30 25237 H 2354.94 2.71931 -3.14949 0
M  V30 25238 H 2353.82 3.91159 -3.85079 0
M  V30 25239 H 2354.08 3.88283 -2.11397 0
M  V30 25240 N 2353.14 1.41345 0.697083 0
M  V30 25241 C 2354.1 1.42801 1.79278 0
M  V30 25242 C 2355.1 0.318865 1.57607 0
M  V30 25243 O 2356.29 0.578671 1.64308 0
M  V30 25244 C 2353.42 1.2379 3.1763 0
M  V30 25245 H 2354.61 2.40338 1.79381 0
M  V30 25246 H 2352.17 1.27465 0.90456 0
M  V30 25247 H 2352.9 0.270871 3.23167 0
M  V30 25248 H 2352.69 2.0415 3.34761 0
M  V30 25249 H 2354.18 1.2764 3.97615 0
M  V30 25250 N 2354.61 -0.931187 1.27148 0
M  V30 25251 C 2355.84 -1.71017 1.15917 0
M  V30 25252 C 2356.25 -1.87009 -0.287079 0
M  V30 25253 O 2355.59 -1.38431 -1.20759 0
M  V30 25254 C 2355.66 -3.13104 1.76653 0
M  V30 25255 C 2355.32 -3.20461 3.25812 0
M  V30 25256 C 2356.32 -3.02976 4.22495 0
M  V30 25257 C 2354 -3.43531 3.66458 0
M  V30 25258 C 2356 -3.08445 5.578 0
M  V30 25259 C 2353.68 -3.48634 5.01894 0
M  V30 25260 C 2354.68 -3.31108 5.97374 0
M  V30 25261 O 2354.37 -3.35939 7.30342 0
M  V30 25262 H 2354.1 -0.541943 0.404072 0
M  V30 25263 H 2356.66 -1.17518 1.68459 0
M  V30 25264 H 2354.89 -3.68069 1.18584 0
M  V30 25265 H 2356.57 -3.72955 1.60185 0
M  V30 25266 H 2357.34 -2.84997 3.9243 0
M  V30 25267 H 2353.22 -3.56225 2.92617 0
M  V30 25268 H 2356.76 -2.94683 6.32304 0
M  V30 25269 H 2352.66 -3.66136 5.31615 0
M  V30 25270 H 2353.43 -3.52417 7.38745 0
M  V30 25271 N 2356.09 -1.09114 -1.13719 0
M  V30 25272 C 2357 -0.739609 -2.22636 0
M  V30 25273 C 2358.02 0.257037 -1.72091 0
M  V30 25274 O 2359.19 0.0991801 -2.01156 0
M  V30 25275 C 2356.26 -0.16197 -3.46321 0
M  V30 25276 C 2355.32 -1.21415 -4.11773 0
M  V30 25277 C 2354.55 -0.663984 -5.29554 0
M  V30 25278 O 2354.78 0.514174 -5.68078 0
M  V30 25279 O 2353.71 -1.41748 -5.84971 0
M  V30 25280 H 2357.54 -1.6484 -2.55071 0
M  V30 25281 H 2355.12 -0.86531 -1.2179 0
M  V30 25282 H 2357 0.156999 -4.21107 0
M  V30 25283 H 2355.68 0.719877 -3.15594 0
M  V30 25284 H 2354.58 -1.58577 -3.38828 0
M  V30 25285 H 2355.92 -2.06853 -4.46624 0
M  V30 25286 N 2357.57 1.30887 -0.877861 0
M  V30 25287 C 2358.52 2.30266 -0.328702 0
M  V30 25288 C 2359.51 1.5986 0.560468 0
M  V30 25289 O 2360.72 1.74395 0.445691 0
M  V30 25290 H 2357.09 0.746877 -0.0876274 0
M  V30 25291 H 2359.06 2.74049 -1.18066 0
M  V30 25292 C 2357.81 3.44802 0.44801 0
M  V30 25293 H 2357.14 3.99155 -0.226929 0
M  V30 25294 H 2358.58 4.16433 0.797468 0
M  V30 25295 C 2357.03 2.94158 1.64234 0
M  V30 25296 O 2357.56 2.93588 2.74169 0
M  V30 25297 N 2355.77 2.50259 1.47712 0
M  V30 25298 H 2355.32 2.50921 0.582777 0
M  V30 25299 H 2355.28 2.16731 2.27761 0
M  V30 25300 N 2359.05 0.638091 1.44105 0
M  V30 25301 C 2360.01 -0.053061 2.29139 0
M  V30 25302 C 2361.01 -0.765481 1.41411 0
M  V30 25303 O 2362.2 -0.609017 1.63207 0
M  V30 25304 C 2359.33 -1.08579 3.23146 0
M  V30 25305 H 2360.53 0.694934 2.91737 0
M  V30 25306 H 2358.08 0.398565 1.51133 0
M  V30 25307 H 2358.81 -1.86353 2.65411 0
M  V30 25308 H 2358.6 -0.578784 3.87805 0
M  V30 25309 H 2360.09 -1.56893 3.87007 0
M  V30 25310 N 2360.53 -1.52973 0.379063 0
M  V30 25311 C 2361.46 -2.2907 -0.452665 0
M  V30 25312 C 2362.44 -1.32041 -1.07235 0
M  V30 25313 O 2363.62 -1.60925 -1.08705 0
M  V30 25314 C 2360.75 -3.08995 -1.58554 0
M  V30 25315 C 2359.71 -4.13824 -1.09243 0
M  V30 25316 C 2359.03 -4.81911 -2.31659 0
M  V30 25317 C 2360.33 -5.22031 -0.16761 0
M  V30 25318 H 2362.03 -2.98845 0.182233 0
M  V30 25319 H 2359.57 -1.43724 0.0890845 0
M  V30 25320 H 2361.52 -3.60983 -2.17414 0
M  V30 25321 H 2360.25 -2.36935 -2.24788 0
M  V30 25322 H 2358.91 -3.62801 -0.526431 0
M  V30 25323 H 2358.56 -4.06409 -2.96379 0
M  V30 25324 H 2358.26 -5.52758 -1.9933 0
M  V30 25325 H 2359.78 -5.367 -2.9118 0
M  V30 25326 H 2361.19 -5.69441 -0.664086 0
M  V30 25327 H 2359.59 -6.00064 0.065432 0
M  V30 25328 H 2360.66 -4.7848 0.786431 0
M  V30 25329 N 2362 -0.108595 -1.57225 0
M  V30 25330 C 2363.42 0.24803 -1.57661 0
M  V30 25331 C 2363.62 1.67462 -1.12066 0
M  V30 25332 O 2362.68 2.39382 -0.803278 0
M  V30 25333 C 2363.99 0.0241758 -3.0069 0
M  V30 25334 C 2365.54 0.0908822 -3.12868 0
M  V30 25335 C 2366.01 -0.105148 -4.57879 0
M  V30 25336 N 2367.5 -0.050766 -4.63172 0
M  V30 25337 C 2368.24 -0.177497 -5.73125 0
M  V30 25338 N 2367.73 -0.359817 -6.91865 0
M  V30 25339 N 2369.53 -0.117808 -5.61977 0
M  V30 25340 H 2361.68 -1.04052 -1.85167 0
M  V30 25341 H 2363.94 -0.408895 -0.855283 0
M  V30 25342 H 2363.65 -0.961663 -3.38297 0
M  V30 25343 H 2363.52 0.760615 -3.69452 0
M  V30 25344 H 2365.91 1.06724 -2.75126 0
M  V30 25345 H 2365.99 -0.677268 -2.46671 0
M  V30 25346 H 2365.63 -1.07843 -4.96319 0
M  V30 25347 H 2365.56 0.682862 -5.22154 0
M  V30 25348 H 2368.05 0.0870602 -3.778 0
M  V30 25349 H 2368.37 -0.447665 -7.71502 0
M  V30 25350 H 2366.71 -0.395658 -6.93873 0
M  V30 25351 H 2369.9 0.0235919 -4.68094 0
M  V30 25352 H 2370.08 -0.220019 -6.47626 0
M  V30 25353 N 2363.48 1.56732 0.16515 0
M  V30 25354 C 2364.73 1.82612 0.88208 0
M  V30 25355 C 2365.06 0.68741 1.81627 0
M  V30 25356 O 2364.34 -0.310234 1.9201 0
M  V30 25357 C 2364.62 3.18909 1.67239 0
M  V30 25358 C 2364.47 4.43317 0.76091 0
M  V30 25359 C 2365.79 3.52217 2.63878 0
M  V30 25360 H 2362.91 0.664275 0.319231 0
M  V30 25361 H 2365.55 1.89423 0.148019 0
M  V30 25362 H 2363.7 3.13234 2.29818 0
M  V30 25363 H 2365.37 4.61064 0.147515 0
M  V30 25364 H 2363.62 4.33745 0.069334 0
M  V30 25365 H 2364.29 5.35249 1.34953 0
M  V30 25366 H 2366.76 3.58385 2.11423 0
M  V30 25367 H 2365.64 4.48649 3.16237 0
M  V30 25368 H 2365.9 2.77237 3.44372 0
M  V30 25369 N 2364.96 -0.433911 1.51509 0
M  V30 25370 C 2366.21 -1.18306 1.64347 0
M  V30 25371 C 2366.53 -1.91114 0.361349 0
M  V30 25372 O 2365.79 -1.84423 -0.65472 0
M  V30 25373 C 2366.09 -2.222 2.79932 0
M  V30 25374 C 2365.76 -1.6638 4.19081 0
M  V30 25375 C 2364.42 -1.50879 4.56934 0
M  V30 25376 C 2366.77 -1.25372 5.05897 0
M  V30 25377 C 2364.1 -0.928506 5.79306 0
M  V30 25378 C 2366.45 -0.687712 6.28851 0
M  V30 25379 C 2365.11 -0.519638 6.65474 0
M  V30 25380 H 2364.38 -0.432912 0.601388 0
M  V30 25381 H 2367.03 -0.473644 1.8555 0
M  V30 25382 H 2365.34 -2.99193 2.52964 0
M  V30 25383 H 2367.03 -2.79992 2.87064 0
M  V30 25384 H 2363.62 -1.79421 3.89238 0
M  V30 25385 H 2367.81 -1.36166 4.77255 0
M  V30 25386 H 2363.06 -0.786079 6.06326 0
M  V30 25387 H 2367.24 -0.361459 6.95461 0
M  V30 25388 H 2364.86 -0.0678643 7.6017 0
M  V30 25389 N 2366.44 -1.41713 -0.689577 0
M  V30 25390 C 2367.39 -1.44245 -1.82472 0
M  V30 25391 C 2368.38 -0.319803 -1.66354 0
M  V30 25392 O 2369.59 -0.492119 -1.73142 0
M  V30 25393 H 2365.96 -0.451455 -0.601409 0
M  V30 25394 H 2367.93 -2.39902 -1.77453 0
M  V30 25395 C 2366.68 -1.34736 -3.20533 0
M  V30 25396 H 2366 -2.20411 -3.33555 0
M  V30 25397 H 2367.44 -1.40569 -4.0002 0
M  V30 25398 C 2365.9 -0.0603873 -3.36846 0
M  V30 25399 O 2366.43 0.892594 -3.91658 0
M  V30 25400 N 2364.64 0.0176528 -2.90595 0
M  V30 25401 H 2364.19 -0.758615 -2.46176 0
M  V30 25402 H 2364.14 0.878148 -3.01887 0
M  V30 25403 N 2367.92 0.924431 -1.2764 0
M  V30 25404 C 2369.17 1.667 -1.13552 0
M  V30 25405 C 2369.48 1.93007 0.317453 0
M  V30 25406 O 2370.68 2.65248 0.579287 0
M  V30 25407 C 2369.14 3.00255 -1.98431 0
M  V30 25408 C 2368.75 2.81635 -3.48405 0
M  V30 25409 C 2370.49 3.78089 -1.93 0
M  V30 25410 C 2368.4 4.10766 -4.25471 0
M  V30 25411 H 2367.33 0.625276 -0.421362 0
M  V30 25412 H 2369.98 1.02673 -1.52087 0
M  V30 25413 H 2368.36 3.65357 -1.52743 0
M  V30 25414 H 2369.54 2.2528 -4.01977 0
M  V30 25415 H 2367.85 2.17226 -3.55249 0
M  V30 25416 H 2370.45 4.73786 -2.47853 0
M  V30 25417 H 2370.79 4.06358 -0.904352 0
M  V30 25418 H 2371.32 3.19789 -2.366 0
M  V30 25419 H 2368.06 3.87674 -5.28573 0
M  V30 25420 H 2367.58 4.66772 -3.76675 0
M  V30 25421 H 2369.26 4.79104 -4.3482 0
M  V30 25422 N 2369.39 1.09715 1.13139 0
M  V30 25423 C 2370.64 0.836257 1.84755 0
M  V30 25424 C 2370.97 -0.636566 1.83471 0
M  V30 25425 O 2370.25 -1.46887 1.27493 0
M  V30 25426 C 2370.53 1.37584 3.3278 0
M  V30 25427 C 2370.38 2.91499 3.42562 0
M  V30 25428 C 2371.7 1.01206 4.28305 0
M  V30 25429 H 2368.82 0.305248 0.670815 0
M  V30 25430 H 2371.46 1.35905 1.32777 0
M  V30 25431 H 2369.61 0.931164 3.77176 0
M  V30 25432 H 2371.29 3.44438 3.06856 0
M  V30 25433 H 2369.53 3.2848 2.83343 0
M  V30 25434 H 2370.2 3.24332 4.46668 0
M  V30 25435 H 2372.68 1.39563 3.91997 0
M  V30 25436 H 2371.55 1.41662 5.30305 0
M  V30 25437 H 2371.81 -0.0794056 4.42029 0
M  V30 25438 N 2370.87 -1.30419 0.88479 0
M  V30 25439 C 2372.12 -1.9615 0.50314 0
M  V30 25440 C 2372.45 -1.69853 -0.947647 0
M  V30 25441 O 2371.7 -0.995891 -1.68465 0
M  V30 25442 C 2372 -3.49982 0.72438 0
M  V30 25443 C 2371.67 -3.96328 2.15022 0
M  V30 25444 C 2370.33 -4.08694 2.54013 0
M  V30 25445 C 2372.68 -4.205 3.07944 0
M  V30 25446 C 2370.01 -4.42592 3.85135 0
M  V30 25447 C 2372.36 -4.55867 4.38598 0
M  V30 25448 C 2371.03 -4.66441 4.77482 0
M  V30 25449 H 2370.3 -0.717763 0.184112 0
M  V30 25450 H 2372.94 -1.55289 1.12061 0
M  V30 25451 H 2371.25 -3.91793 0.0238775 0
M  V30 25452 H 2372.94 -3.98912 0.408687 0
M  V30 25453 H 2369.53 -3.8721 1.83757 0
M  V30 25454 H 2373.72 -4.10427 2.79041 0
M  V30 25455 H 2368.97 -4.48979 4.15004 0
M  V30 25456 H 2373.15 -4.73521 5.10638 0
M  V30 25457 H 2370.78 -4.92463 5.79124 0
M  V30 25458 N 2372.35 -0.645724 -1.43764 0
M  V30 25459 C 2373.58 -0.163592 -2.06252 0
M  V30 25460 C 2373.99 1.16775 -1.48354 0
M  V30 25461 O 2373.35 1.71934 -0.611963 0
M  V30 25462 C 2373.4 -0.0583822 -3.61453 0
M  V30 25463 O 2373.12 -1.33709 -4.17197 0
M  V30 25464 C 2374.62 0.450718 -4.41003 0
M  V30 25465 H 2371.84 -0.0864194 -0.665412 0
M  V30 25466 H 2374.39 -0.884254 -1.84394 0
M  V30 25467 H 2372.54 0.612798 -3.82523 0
M  V30 25468 H 2372.96 -1.1914 -5.10789 0
M  V30 25469 H 2374.43 0.473306 -5.49967 0
M  V30 25470 H 2374.91 1.4806 -4.13491 0
M  V30 25471 H 2375.51 -0.187712 -4.24886 0
M  V30 25472 N 2373.83 1.5277 -0.38717 0
M  V30 25473 C 2375.05 2.06449 0.198371 0
M  V30 25474 C 2375.48 1.25719 1.39916 0
M  V30 25475 O 2374.84 0.281688 1.79098 0
M  V30 25476 C 2374.88 3.56399 0.54883 0
M  V30 25477 O 2373.99 3.78255 1.64308 0
M  V30 25478 H 2373.33 0.663575 0.0237615 0
M  V30 25479 H 2375.86 1.96956 -0.554023 0
M  V30 25480 H 2375.87 3.99803 0.813742 0
M  V30 25481 H 2374.54 4.14596 -0.329078 0
M  V30 25482 H 2373.12 3.46741 1.37205 0
M  V30 25483 N 2375.31 0.116931 1.57166 0
M  V30 25484 C 2376.24 -0.83072 2.18223 0
M  V30 25485 C 2377.22 -1.27875 1.12169 0
M  V30 25486 O 2378.4 -1.34173 1.40396 0
M  V30 25487 C 2375.53 -2.08168 2.77999 0
M  V30 25488 C 2374.49 -1.7715 3.89618 0
M  V30 25489 C 2373.81 -3.09258 4.36192 0
M  V30 25490 C 2375.11 -1.04142 5.11812 0
M  V30 25491 H 2376.81 -0.32194 2.97664 0
M  V30 25492 H 2374.35 -0.153409 1.43181 0
M  V30 25493 H 2376.31 -2.74918 3.19371 0
M  V30 25494 H 2375.03 -2.61366 1.95845 0
M  V30 25495 H 2373.69 -1.1279 3.48818 0
M  V30 25496 H 2373.34 -3.60387 3.50899 0
M  V30 25497 H 2373.04 -2.89279 5.1146 0
M  V30 25498 H 2374.56 -3.7713 4.80214 0
M  V30 25499 H 2375.97 -1.61043 5.50216 0
M  V30 25500 H 2374.37 -0.942657 5.9265 0
M  V30 25501 H 2375.44 -0.027817 4.84892 0
M  V30 25502 N 2376.78 -1.56818 -0.156836 0
M  V30 25503 C 2378.03 -1.82807 -0.871093 0
M  V30 25504 C 2378.36 -0.696294 -1.81609 0
M  V30 25505 O 2377.61 0.315425 -1.93141 0
M  V30 25506 C 2377.91 -3.15063 -1.68731 0
M  V30 25507 C 2377.58 -4.4203 -0.889968 0
M  V30 25508 C 2376.24 -4.76513 -0.669958 0
M  V30 25509 C 2378.59 -5.20144 -0.331678 0
M  V30 25510 C 2375.92 -5.86579 0.119207 0
M  V30 25511 C 2378.27 -6.31037 0.444476 0
M  V30 25512 C 2376.94 -6.64077 0.675152 0
M  V30 25513 H 2376.21 -0.668936 -0.318755 0
M  V30 25514 H 2378.85 -1.91022 -0.13524 0
M  V30 25515 H 2377.16 -3.02254 -2.49299 0
M  V30 25516 H 2378.86 -3.32384 -2.24326 0
M  V30 25517 H 2375.45 -4.1499 -1.0715 0
M  V30 25518 H 2379.63 -4.93886 -0.488956 0
M  V30 25519 H 2374.89 -6.10626 0.307525 0
M  V30 25520 H 2379.06 -6.90763 0.884261 0
M  V30 25521 H 2376.69 -7.492 1.28852 0
M  V30 25522 N 2378.26 0.425871 -1.51737 0
M  V30 25523 C 2379.49 1.20105 -1.69084 0
M  V30 25524 C 2379.91 1.83961 -0.39243 0
M  V30 25525 O 2379.27 1.69303 0.648551 0
M  V30 25526 C 2379.32 2.25232 -2.81608 0
M  V30 25527 O 2378.42 3.30988 -2.4601 0
M  V30 25528 H 2377.76 0.35137 -0.563414 0
M  V30 25529 H 2380.29 0.501477 -1.98359 0
M  V30 25530 H 2380.3 2.69833 -3.0603 0
M  V30 25531 H 2378.98 1.78135 -3.7582 0
M  V30 25532 H 2377.56 2.91783 -2.322 0
M  V30 25533 N 2379.74 1.42077 0.682052 0
M  V30 25534 C 2380.67 1.4777 1.80793 0
M  V30 25535 C 2381.65 0.334983 1.66769 0
M  V30 25536 O 2382.84 0.548297 1.86299 0
M  V30 25537 C 2379.97 1.37235 3.19036 0
M  V30 25538 C 2378.92 2.49459 3.47785 0
M  V30 25539 C 2378.25 2.23983 4.85526 0
M  V30 25540 C 2379.55 3.91783 3.45404 0
M  V30 25541 H 2381.24 2.42 1.76285 0
M  V30 25542 H 2378.79 1.16477 0.846701 0
M  V30 25543 H 2380.74 1.39828 3.97525 0
M  V30 25544 H 2379.46 0.394964 3.24203 0
M  V30 25545 H 2378.12 2.46171 2.71653 0
M  V30 25546 H 2377.77 1.24556 4.87334 0
M  V30 25547 H 2377.47 2.99193 5.05725 0
M  V30 25548 H 2378.99 2.28314 5.66308 0
M  V30 25549 H 2380.41 3.96712 4.13875 0
M  V30 25550 H 2378.81 4.66784 3.77137 0
M  V30 25551 H 2379.88 4.1897 2.44115 0
M  V30 25552 N 2381.22 -0.917649 1.28129 0
M  V30 25553 C 2382.13 -2.05284 1.1356 0
M  V30 25554 C 2383.15 -1.73885 0.063122 0
M  V30 25555 O 2384.32 -1.9956 0.271634 0
M  V30 25556 C 2381.39 -3.37468 0.794735 0
M  V30 25557 C 2380.45 -3.825 1.94916 0
M  V30 25558 C 2379.68 -5.08377 1.62446 0
M  V30 25559 O 2379.9 -5.67867 0.537005 0
M  V30 25560 O 2378.84 -5.49026 2.46686 0
M  V30 25561 H 2382.66 -2.20491 2.08848 0
M  V30 25562 H 2380.25 -1.03843 1.07411 0
M  V30 25563 H 2382.13 -4.16838 0.618417 0
M  V30 25564 H 2380.81 -3.23445 -0.128524 0
M  V30 25565 H 2379.71 -3.03974 2.1806 0
M  V30 25566 H 2381.05 -4.01081 2.85298 0
M  V30 25567 N 2382.7 -1.10314 -1.12555 0
M  V30 25568 C 2383.94 -0.854575 -1.85678 0
M  V30 25569 C 2384.3 0.608811 -1.82092 0
M  V30 25570 O 2385.5 0.973673 -2.50546 0
M  V30 25571 C 2383.77 -1.38632 -3.29418 0
M  V30 25572 S 2385.33 -1.273 -4.19929 0
M  V30 25573 H 2382.15 -0.308839 -0.640421 0
M  V30 25574 H 2384.75 -1.40833 -1.35596 0
M  V30 25575 H 2383.46 -2.44543 -3.29586 0
M  V30 25576 H 2382.99 -0.829087 -3.84564 0
M  V30 25577 H 2385 -0.229863 -4.95667 0
M  V30 25578 N 2384.18 1.29948 -0.891694 0
M  V30 25579 C 2385.42 1.9617 -0.514296 0
M  V30 25580 C 2385.75 1.70184 0.935476 0
M  V30 25581 O 2385.03 1.01031 1.66202 0
M  V30 25582 C 2385.31 3.51152 -0.79778 0
M  V30 25583 C 2385.17 3.86628 -2.29867 0
M  V30 25584 C 2386.48 4.39216 -0.278826 0
M  V30 25585 H 2383.6 0.712532 -0.188327 0
M  V30 25586 H 2386.25 1.53704 -1.11691 0
M  V30 25587 H 2384.4 3.87454 -0.284894 0
M  V30 25588 H 2386.07 3.60314 -2.88048 0
M  V30 25589 H 2384.31 3.34457 -2.76263 0
M  V30 25590 H 2384.98 4.94769 -2.44761 0
M  V30 25591 H 2387.46 4.0986 -0.717897 0
M  V30 25592 H 2386.33 5.46559 -0.506449 0
M  V30 25593 H 2386.59 4.34425 0.82019 0
M  V30 25594 N 2385.65 0.653339 1.4342 0
M  V30 25595 C 2386.58 -0.0246246 2.33487 0
M  V30 25596 C 2387.56 -0.811837 1.49476 0
M  V30 25597 O 2388.75 -0.773291 1.7814 0
M  V30 25598 C 2385.88 -0.991601 3.32843 0
M  V30 25599 C 2384.83 -0.314493 4.26843 0
M  V30 25600 C 2384.16 -1.39292 5.16238 0
M  V30 25601 C 2385.46 0.793186 5.16242 0
M  V30 25602 H 2387.15 0.727532 2.90426 0
M  V30 25603 H 2384.7 0.351312 1.39649 0
M  V30 25604 H 2386.65 -1.4748 3.9475 0
M  V30 25605 H 2385.38 -1.77492 2.74161 0
M  V30 25606 H 2384.04 0.148264 3.663 0
M  V30 25607 H 2383.68 -2.16768 4.53895 0
M  V30 25608 H 2383.38 -0.945121 5.79949 0
M  V30 25609 H 2384.91 -1.87749 5.81019 0
M  V30 25610 H 2386.32 0.39214 5.71957 0
M  V30 25611 H 2384.72 1.16547 5.88674 0
M  V30 25612 H 2385.79 1.65111 4.55924 0
M  V30 25613 N 2387.13 -1.52563 0.395266 0
M  V30 25614 C 2388.08 -2.26625 -0.436996 0
M  V30 25615 C 2389.05 -1.28474 -1.05278 0
M  V30 25616 O 2390.23 -1.57313 -1.07968 0
M  V30 25617 C 2387.37 -3.08072 -1.55518 0
M  V30 25618 C 2386.49 -4.2116 -0.961671 0
M  V30 25619 C 2385.62 -4.89991 -2.0514 0
M  V30 25620 C 2384.66 -5.95063 -1.4341 0
M  V30 25621 N 2383.8 -6.57466 -2.46339 0
M  V30 25622 H 2388.64 -2.97321 0.201028 0
M  V30 25623 H 2386.17 -1.46681 0.11097 0
M  V30 25624 H 2388.13 -3.53588 -2.2143 0
M  V30 25625 H 2386.76 -2.39573 -2.16343 0
M  V30 25626 H 2385.81 -3.79915 -0.191981 0
M  V30 25627 H 2387.13 -4.96575 -0.470614 0
M  V30 25628 H 2386.28 -5.38841 -2.7881 0
M  V30 25629 H 2385.02 -4.14113 -2.57607 0
M  V30 25630 H 2384.02 -5.45545 -0.682678 0
M  V30 25631 H 2385.25 -6.72876 -0.917298 0
M  V30 25632 H 2383.2 -5.84426 -2.97964 0
M  V30 25633 H 2383.11 -7.28512 -2.02006 0
M  V30 25634 H 2384.38 -7.10959 -3.1962 0
M  V30 25635 N 2388.61 -0.125265 -1.57101 0
M  V30 25636 C 2389.86 0.532 -1.95698 0
M  V30 25637 C 2390.19 1.65928 -1.00903 0
M  V30 25638 O 2389.46 1.94442 -0.0473812 0
M  V30 25639 C 2389.75 1.05878 -3.44183 0
M  V30 25640 C 2389.6 -0.0655182 -4.49752 0
M  V30 25641 C 2390.92 1.94764 -3.94658 0
M  V30 25642 H 2388.04 0.191913 -0.711575 0
M  V30 25643 H 2390.68 -0.202094 -1.88922 0
M  V30 25644 H 2388.83 1.68436 -3.50088 0
M  V30 25645 H 2390.5 -0.701063 -4.55942 0
M  V30 25646 H 2388.74 -0.727784 -4.27651 0
M  V30 25647 H 2389.42 0.344409 -5.50925 0
M  V30 25648 H 2391.89 1.42067 -3.91096 0
M  V30 25649 H 2390.77 2.28538 -4.99061 0
M  V30 25650 H 2391.03 2.8765 -3.35723 0
M  V30 25651 N 2390.09 1.56899 0.148518 0
M  V30 25652 C 2391.02 1.93298 1.2129 0
M  V30 25653 C 2392 0.798624 1.41636 0
M  V30 25654 O 2393.18 1.05409 1.56273 0
M  V30 25655 C 2390.31 2.2037 2.57206 0
M  V30 25656 C 2389.36 3.43014 2.53463 0
M  V30 25657 S 2390.19 4.96626 2.00306 0
M  V30 25658 C 2391.34 5.26818 3.37954 0
M  V30 25659 H 2391.58 2.83276 0.902343 0
M  V30 25660 H 2389.11 1.50285 0.354067 0
M  V30 25661 H 2391.07 2.36647 3.35423 0
M  V30 25662 H 2389.73 1.31059 2.85451 0
M  V30 25663 H 2388.92 3.59229 3.53512 0
M  V30 25664 H 2388.52 3.25972 1.83354 0
M  V30 25665 H 2390.82 5.20193 4.34057 0
M  V30 25666 H 2391.76 6.28285 3.26595 0
M  V30 25667 H 2392.17 4.54337 3.3502 0
M  V30 25668 N 2391.57 -0.417818 1.51961 0
M  V30 25669 C 2392.53 -1.49108 1.74067 0
M  V30 25670 C 2393.53 -1.48757 0.610563 0
M  V30 25671 O 2394.72 -1.50435 0.878347 0
M  V30 25672 C 2391.85 -2.88562 1.81507 0
M  V30 25673 H 2393.04 -1.30803 2.69872 0
M  V30 25674 H 2390.6 -0.64776 1.42245 0
M  V30 25675 H 2391.33 -3.12248 0.875868 0
M  V30 25676 H 2391.12 -2.9022 2.63656 0
M  V30 25677 H 2392.61 -3.66383 2.00382 0
M  V30 25678 N 2393.04 -1.42436 -0.674508 0
M  V30 25679 C 2394.29 -1.42922 -1.43456 0
M  V30 25680 C 2394.62 -0.0457653 -1.94446 0
M  V30 25681 O 2393.87 0.9459 -1.71322 0
M  V30 25682 C 2394.17 -2.40074 -2.64763 0
M  V30 25683 C 2393.84 -3.86447 -2.32313 0
M  V30 25684 C 2392.5 -4.26318 -2.23174 0
M  V30 25685 C 2394.85 -4.78776 -2.05968 0
M  V30 25686 C 2392.18 -5.56497 -1.85817 0
M  V30 25687 C 2394.53 -6.09298 -1.70114 0
M  V30 25688 C 2393.2 -6.48167 -1.59486 0
M  V30 25689 H 2392.47 -0.522987 -0.524943 0
M  V30 25690 H 2395.11 -1.75379 -0.769066 0
M  V30 25691 H 2393.42 -2.00945 -3.36346 0
M  V30 25692 H 2395.12 -2.37713 -3.22945 0
M  V30 25693 H 2391.71 -3.54881 -2.40328 0
M  V30 25694 H 2395.89 -4.48761 -2.11961 0
M  V30 25695 H 2391.15 -5.85473 -1.76157 0
M  V30 25696 H 2395.32 -6.80327 -1.48755 0
M  V30 25697 H 2392.95 -7.48948 -1.30309 0
M  V30 25698 N 2394.52 0.910841 -1.28614 0
M  V30 25699 C 2395.77 1.65699 -1.15708 0
M  V30 25700 C 2396.09 1.92769 0.294126 0
M  V30 25701 O 2395.36 1.5459 1.20328 0
M  V30 25702 H 2393.94 0.614159 -0.425227 0
M  V30 25703 H 2396.6 1.09277 -1.61383 0
M  V30 25704 H 2395.7 2.61812 -1.69885 0
M  V30 25705 N 2396 1.10909 1.11969 0
M  V30 25706 C 2397.25 0.849335 1.82946 0
M  V30 25707 C 2397.56 -0.62708 1.85276 0
M  V30 25708 O 2398.77 -1.0029 2.52298 0
M  V30 25709 C 2397.22 1.46965 3.28526 0
M  V30 25710 C 2396.83 2.9797 3.34541 0
M  V30 25711 C 2398.58 1.28949 4.04441 0
M  V30 25712 C 2396.48 3.53013 4.74485 0
M  V30 25713 H 2395.41 0.314077 0.685472 0
M  V30 25714 H 2398.06 1.33367 1.26038 0
M  V30 25715 H 2396.45 0.912984 3.85332 0
M  V30 25716 H 2397.62 3.59994 2.87647 0
M  V30 25717 H 2395.94 3.15197 2.72102 0
M  V30 25718 H 2398.53 1.67511 5.07784 0
M  V30 25719 H 2398.88 0.231529 4.15656 0
M  V30 25720 H 2399.41 1.8145 3.54007 0
M  V30 25721 H 2396.15 4.58497 4.68466 0
M  V30 25722 H 2395.67 2.95759 5.21811 0
M  V30 25723 H 2397.35 3.51125 5.43434 0
M  V30 25724 N 2397.48 -1.29474 0.898573 0
M  V30 25725 C 2398.41 -2.30185 0.392051 0
M  V30 25726 C 2399.39 -1.61556 -0.532331 0
M  V30 25727 O 2400.57 -1.89073 -0.443298 0
M  V30 25728 C 2397.7 -3.4519 -0.382293 0
M  V30 25729 C 2396.66 -4.25611 0.451558 0
M  V30 25730 C 2395.98 -5.32801 -0.450214 0
M  V30 25731 C 2397.28 -4.93829 1.70088 0
M  V30 25732 H 2398.98 -2.72802 1.23367 0
M  V30 25733 H 2396.52 -1.31148 0.594661 0
M  V30 25734 H 2398.48 -4.14719 -0.747378 0
M  V30 25735 H 2397.2 -3.01413 -1.25769 0
M  V30 25736 H 2395.86 -3.57788 0.79896 0
M  V30 25737 H 2395.51 -4.8527 -1.32371 0
M  V30 25738 H 2395.21 -5.87508 0.104005 0
M  V30 25739 H 2396.73 -6.05183 -0.811516 0
M  V30 25740 H 2398.15 -5.55802 1.40559 0
M  V30 25741 H 2396.54 -5.58463 2.19633 0
M  V30 25742 H 2397.61 -4.19182 2.43752 0
M  V30 25743 N 2398.96 -0.660936 -1.43071 0
M  V30 25744 C 2399.9 0.0377791 -2.32569 0
M  V30 25745 C 2400.9 0.805066 -1.49047 0
M  V30 25746 O 2402.1 0.714595 -1.65208 0
M  V30 25747 H 2398.48 0.0310058 -0.751361 0
M  V30 25748 H 2400.45 -0.73466 -2.89215 0
M  V30 25749 C 2399.2 0.985066 -3.33454 0
M  V30 25750 H 2398.52 0.404078 -3.97753 0
M  V30 25751 H 2399.96 1.4429 -3.98693 0
M  V30 25752 C 2398.42 2.08481 -2.64645 0
M  V30 25753 O 2398.95 3.16957 -2.46782 0
M  V30 25754 N 2397.16 1.85256 -2.23894 0
M  V30 25755 H 2396.7 0.970407 -2.38623 0
M  V30 25756 H 2396.66 2.59031 -1.78186 0
M  V30 25757 N 2400.43 1.52351 -0.403352 0
M  V30 25758 C 2401.66 2.05868 0.173724 0
M  V30 25759 C 2402.07 1.27381 1.39895 0
M  V30 25760 O 2401.42 0.317322 1.80939 0
M  V30 25761 C 2401.48 3.54547 0.594694 0
M  V30 25762 C 2401.14 4.54043 -0.519006 0
M  V30 25763 C 2402.14 5.01229 -1.38079 0
M  V30 25764 C 2399.82 4.97538 -0.690048 0
M  V30 25765 C 2401.82 5.90546 -2.39862 0
M  V30 25766 C 2399.5 5.86653 -1.71119 0
M  V30 25767 C 2400.5 6.33051 -2.56389 0
M  V30 25768 O 2400.19 7.20403 -3.56756 0
M  V30 25769 H 2399.92 0.675481 0.0264833 0
M  V30 25770 H 2402.48 1.97298 -0.571214 0
M  V30 25771 H 2400.71 3.60784 1.39183 0
M  V30 25772 H 2402.4 3.90738 1.09903 0
M  V30 25773 H 2403.16 4.68346 -1.26002 0
M  V30 25774 H 2399.04 4.60986 -0.03602 0
M  V30 25775 H 2402.58 6.26684 -3.06452 0
M  V30 25776 H 2398.48 6.18949 -1.83229 0
M  V30 25777 H 2399.25 7.385 -3.52931 0
M  V30 25778 N 2401.91 0.133594 1.57033 0
M  V30 25779 C 2403.16 -0.520843 1.95687 0
M  V30 25780 C 2403.49 -1.65748 1.01773 0
M  V30 25781 O 2402.74 -1.9565 0.0443539 0
M  V30 25782 C 2403.04 -1.08051 3.40676 0
M  V30 25783 C 2402.71 -0.0637107 4.50855 0
M  V30 25784 C 2401.37 0.215841 4.80716 0
M  V30 25785 C 2403.72 0.628441 5.17397 0
M  V30 25786 C 2401.05 1.19358 5.74431 0
M  V30 25787 C 2403.4 1.59491 6.12165 0
M  V30 25788 C 2402.07 1.8823 6.40411 0
M  V30 25789 H 2401.34 -0.19059 0.71607 0
M  V30 25790 H 2403.98 0.21759 1.9026 0
M  V30 25791 H 2402.29 -1.896 3.42869 0
M  V30 25792 H 2403.98 -1.59522 3.67904 0
M  V30 25793 H 2400.57 -0.29178 4.27606 0
M  V30 25794 H 2404.76 0.425649 4.94471 0
M  V30 25795 H 2400.01 1.42283 5.94614 0
M  V30 25796 H 2404.19 2.13683 6.62807 0
M  V30 25797 H 2401.82 2.64145 7.12833 0
M  V30 25798 N 2403.39 -1.56975 -0.140195 0
M  V30 25799 C 2404.81 -1.51793 -0.493061 0
M  V30 25800 C 2405.01 -0.843148 -1.83012 0
M  V30 25801 O 2404.06 -0.416537 -2.49041 0
M  V30 25802 C 2405.38 -2.96563 -0.497092 0
M  V30 25803 C 2406.92 -3.07539 -0.582132 0
M  V30 25804 C 2407.4 -4.53828 -0.616759 0
M  V30 25805 N 2408.89 -4.58199 -0.678793 0
M  V30 25806 C 2409.62 -5.68777 -0.726682 0
M  V30 25807 N 2409.12 -6.88906 -0.733502 0
M  V30 25808 N 2410.91 -5.56828 -0.768081 0
M  V30 25809 H 2403.06 -1.99235 0.736143 0
M  V30 25810 H 2405.33 -0.908975 0.269198 0
M  V30 25811 H 2405.03 -3.49216 0.417278 0
M  V30 25812 H 2404.91 -3.52877 -1.33257 0
M  V30 25813 H 2407.29 -2.54901 -1.48692 0
M  V30 25814 H 2407.38 -2.54256 0.280625 0
M  V30 25815 H 2407.02 -5.07106 0.283901 0
M  V30 25816 H 2406.95 -5.049 -1.4961 0
M  V30 25817 H 2409.44 -3.71722 -0.680545 0
M  V30 25818 H 2409.75 -7.68934 -0.77208 0
M  V30 25819 H 2408.1 -6.91453 -0.701268 0
M  V30 25820 H 2411.29 -4.6189 -0.75997 0
M  V30 25821 H 2411.46 -6.43019 -0.801937 0
M  V30 25822 N 2404.87 0.409753 -1.5218 0
M  V30 25823 C 2406.15 1.16971 -1.56771 0
M  V30 25824 C 2406.53 2.08206 -0.348358 0
M  V30 25825 O 2405.87 2.18615 0.664824 0
M  V30 25826 C 2406.08 1.94755 -2.89606 0
M  V30 25827 C 2407.43 2.50843 -3.42583 0
M  V30 25828 O 2408.46 2.04935 -2.91342 0
M  V30 25829 O 2407.31 3.34644 -4.3206 0
M  V30 25830 H 2404.41 0.534043 -0.631448 0
M  V30 25831 H 2406.95 0.416584 -1.64507 0
M  V30 25832 H 2405.73 1.27914 -3.69802 0
M  V30 25833 H 2405.35 2.77074 -2.8516 0
M  V30 25834 N 2406.35 1.42792 0.666944 0
M  V30 25835 C 2407.31 1.46571 1.76209 0
M  V30 25836 C 2408.31 0.352224 1.56895 0
M  V30 25837 O 2409.5 0.613393 1.63043 0
M  V30 25838 C 2406.63 1.305 3.14933 0
M  V30 25839 H 2407.82 2.44089 1.74243 0
M  V30 25840 H 2405.38 1.29355 0.877319 0
M  V30 25841 H 2406.11 0.339358 3.2252 0
M  V30 25842 H 2405.9 2.11205 3.30356 0
M  V30 25843 H 2407.39 1.36045 3.94818 0
M  V30 25844 N 2407.82 -0.904008 1.29095 0
M  V30 25845 C 2409.07 -1.65674 1.17999 0
M  V30 25846 C 2409.43 -1.90541 -0.266782 0
M  V30 25847 O 2408.72 -1.50167 -1.18997 0
M  V30 25848 C 2408.91 -3.01301 1.9223 0
M  V30 25849 C 2408.74 -2.89672 3.43977 0
M  V30 25850 C 2407.51 -2.90672 4.13326 0
M  V30 25851 C 2409.71 -2.6702 4.39551 0
M  V30 25852 N 2407.69 -2.69733 5.51468 0
M  V30 25853 C 2409.06 -2.5502 5.65124 0
M  V30 25854 C 2411.12 -2.52094 4.29364 0
M  V30 25855 C 2409.82 -2.29614 6.81667 0
M  V30 25856 C 2411.85 -2.28069 5.45654 0
M  V30 25857 C 2411.21 -2.16831 6.70197 0
M  V30 25858 H 2407.31 -0.612029 0.48677 0
M  V30 25859 H 2409.89 -1.06685 1.62869 0
M  V30 25860 H 2408.06 -3.58358 1.49779 0
M  V30 25861 H 2409.79 -3.65653 1.73436 0
M  V30 25862 H 2406.55 -3.01794 3.64989 0
M  V30 25863 H 2406.97 -2.62329 6.24109 0
M  V30 25864 H 2411.62 -2.59528 3.33774 0
M  V30 25865 H 2409.33 -2.20918 7.77316 0
M  V30 25866 H 2412.92 -2.1737 5.39668 0
M  V30 25867 H 2411.8 -1.98497 7.58662 0
M  V30 25868 N 2409.3 -1.11501 -1.11379 0
M  V30 25869 C 2410.25 -0.768994 -2.1952 0
M  V30 25870 C 2411.24 0.239828 -1.67694 0
M  V30 25871 O 2412.45 0.0990439 -1.79727 0
M  V30 25872 H 2408.83 -0.230799 -0.715707 0
M  V30 25873 H 2410.8 -1.68969 -2.45951 0
M  V30 25874 C 2409.55 -0.229134 -3.46944 0
M  V30 25875 H 2408.87 -0.996664 -3.87178 0
M  V30 25876 H 2410.31 -0.0252186 -4.23993 0
M  V30 25877 C 2408.77 1.04074 -3.20422 0
M  V30 25878 O 2409.3 2.12032 -3.41182 0
M  V30 25879 N 2407.5 0.963775 -2.74153 0
M  V30 25880 H 2407.05 0.0851269 -2.57459 0
M  V30 25881 H 2407.01 1.81409 -2.56784 0
M  V30 25882 N 2410.78 1.28995 -0.905426 0
M  V30 25883 C 2412.03 1.94606 -0.530225 0
M  V30 25884 C 2412.34 1.72122 0.929155 0
M  V30 25885 O 2413.55 2.31886 1.41214 0
M  V30 25886 C 2412.01 3.48532 -0.897394 0
M  V30 25887 C 2411.61 3.79807 -2.37593 0
M  V30 25888 C 2413.36 4.20346 -0.592378 0
M  V30 25889 C 2411.26 5.27004 -2.68366 0
M  V30 25890 H 2410.19 0.728463 -0.19457 0
M  V30 25891 H 2412.85 1.46634 -1.10321 0
M  V30 25892 H 2411.23 3.95189 -0.253283 0
M  V30 25893 H 2412.4 3.43989 -3.06608 0
M  V30 25894 H 2410.72 3.21146 -2.65055 0
M  V30 25895 H 2413.31 5.28696 -0.799068 0
M  V30 25896 H 2413.66 4.13645 0.469401 0
M  V30 25897 H 2414.19 3.7944 -1.19458 0
M  V30 25898 H 2410.93 5.38775 -3.73365 0
M  V30 25899 H 2410.45 5.64049 -2.03981 0
M  V30 25900 H 2412.13 5.94658 -2.54933 0
M  V30 25901 N 2412.26 0.668514 1.42719 0
M  V30 25902 C 2413.51 0.188176 2.01624 0
M  V30 25903 C 2413.83 -1.20315 1.52822 0
M  V30 25904 O 2413.09 -1.82039 0.718355 0
M  V30 25905 C 2413.39 0.164562 3.57021 0
M  V30 25906 C 2413.05 1.4997 4.25229 0
M  V30 25907 C 2411.72 1.86528 4.43577 0
M  V30 25908 C 2414.07 2.37929 4.63723 0
M  V30 25909 C 2411.4 3.10682 4.97688 0
M  V30 25910 C 2413.75 3.6139 5.19211 0
M  V30 25911 C 2412.41 3.98125 5.35773 0
M  V30 25912 H 2411.68 0.0688583 0.737794 0
M  V30 25913 H 2414.33 0.862255 1.7099 0
M  V30 25914 H 2412.63 -0.593011 3.87286 0
M  V30 25915 H 2414.33 -0.224201 4.00373 0
M  V30 25916 H 2410.92 1.20529 4.11304 0
M  V30 25917 H 2415.11 2.10972 4.49227 0
M  V30 25918 H 2410.36 3.39173 5.08696 0
M  V30 25919 H 2414.54 4.29753 5.47983 0
M  V30 25920 H 2412.16 4.94405 5.77467 0
M  V30 25921 N 2413.74 -1.52135 0.411426 0
M  V30 25922 C 2415.01 -1.94333 -0.222274 0
M  V30 25923 C 2415.39 -1.34847 -1.62418 0
M  V30 25924 O 2414.74 -0.525184 -2.22383 0
M  V30 25925 C 2414.95 -3.48266 -0.226284 0
M  V30 25926 C 2416.3 -4.22267 -0.444518 0
M  V30 25927 O 2417.32 -3.54887 -0.30554 0
M  V30 25928 O 2416.18 -5.41754 -0.718654 0
M  V30 25929 H 2413.28 -0.814386 -0.143892 0
M  V30 25930 H 2415.82 -1.63132 0.467535 0
M  V30 25931 H 2414.6 -3.83951 0.754818 0
M  V30 25932 H 2414.22 -3.85834 -0.960096 0
M  V30 25933 N 2415.22 -0.14192 -1.5696 0
M  V30 25934 C 2416.46 0.510458 -1.95961 0
M  V30 25935 C 2416.79 1.65206 -1.02651 0
M  V30 25936 O 2416.05 1.95623 -0.0547291 0
M  V30 25937 C 2416.34 1.06243 -3.41244 0
M  V30 25938 C 2416.01 0.0397998 -4.50882 0
M  V30 25939 C 2414.67 -0.241332 -4.80594 0
M  V30 25940 C 2417.02 -0.655871 -5.17057 0
M  V30 25941 C 2414.35 -1.22403 -5.7379 0
M  V30 25942 C 2416.7 -1.62735 -6.1131 0
M  V30 25943 C 2415.37 -1.91623 -6.39403 0
M  V30 25944 H 2414.64 0.18679 -0.717071 0
M  V30 25945 H 2417.29 -0.227677 -1.90142 0
M  V30 25946 H 2415.59 1.87779 -3.43869 0
M  V30 25947 H 2417.29 1.57569 -3.68745 0
M  V30 25948 H 2413.88 0.269099 -4.27754 0
M  V30 25949 H 2418.06 -0.451866 -4.94239 0
M  V30 25950 H 2413.32 -1.45434 -5.93851 0
M  V30 25951 H 2417.49 -2.17195 -6.61664 0
M  V30 25952 H 2415.12 -2.67922 -7.11422 0
M  V30 25953 N 2416.69 1.57047 0.131868 0
M  V30 25954 C 2417.94 1.84442 0.843147 0
M  V30 25955 C 2418.27 0.725781 1.80128 0
M  V30 25956 O 2417.55 -0.269436 1.92625 0
M  V30 25957 C 2417.83 3.22385 1.60437 0
M  V30 25958 C 2417.68 4.44832 0.666704 0
M  V30 25959 C 2419 3.57735 2.56347 0
M  V30 25960 H 2416.12 0.670896 0.305069 0
M  V30 25961 H 2418.76 1.89694 0.107806 0
M  V30 25962 H 2416.91 3.18039 2.23122 0
M  V30 25963 H 2418.59 4.61273 0.0496835 0
M  V30 25964 H 2416.83 4.33794 -0.0226853 0
M  V30 25965 H 2417.5 5.37991 1.23569 0
M  V30 25966 H 2419.98 3.62789 2.03773 0
M  V30 25967 H 2418.85 4.55256 3.06649 0
M  V30 25968 H 2419.11 2.84479 3.38414 0
M  V30 25969 N 2418.17 -0.401677 1.52395 0
M  V30 25970 C 2419.4 -1.16946 1.70678 0
M  V30 25971 C 2419.81 -1.8408 0.419535 0
M  V30 25972 O 2419.17 -1.72179 -0.60503 0
M  V30 25973 C 2419.22 -2.22701 2.84757 0
M  V30 25974 O 2418.94 -1.58307 4.08498 0
M  V30 25975 C 2420.44 -3.12304 3.14613 0
M  V30 25976 H 2417.66 -0.351132 0.571793 0
M  V30 25977 H 2420.21 -0.471617 1.98988 0
M  V30 25978 H 2418.36 -2.88142 2.58946 0
M  V30 25979 H 2418.78 -2.28477 4.72121 0
M  V30 25980 H 2420.25 -3.82565 3.9793 0
M  V30 25981 H 2420.73 -3.75097 2.28471 0
M  V30 25982 H 2421.33 -2.52523 3.42217 0
M  V30 25983 N 2419.65 -1.43144 -0.659362 0
M  V30 25984 C 2420.9 -1.44649 -1.42142 0
M  V30 25985 C 2421.23 -0.0682248 -1.9408 0
M  V30 25986 O 2420.5 0.909977 -1.719 0
M  V30 25987 C 2420.79 -2.48378 -2.60731 0
M  V30 25988 C 2420.64 -3.95455 -2.14325 0
M  V30 25989 C 2421.96 -2.48913 -3.62947 0
M  V30 25990 H 2419.08 -0.526705 -0.515511 0
M  V30 25991 H 2421.72 -1.74655 -0.748038 0
M  V30 25992 H 2419.87 -2.22921 -3.1818 0
M  V30 25993 H 2421.54 -4.31947 -1.61925 0
M  V30 25994 H 2419.78 -4.08581 -1.45753 0
M  V30 25995 H 2420.46 -4.63637 -2.99575 0
M  V30 25996 H 2422.93 -2.71587 -3.15245 0
M  V30 25997 H 2421.81 -3.23443 -4.43482 0
M  V30 25998 H 2422.07 -1.52068 -4.15124 0
M  V30 25999 N 2421.13 0.897149 -1.29572 0
M  V30 26000 C 2422.06 2.01796 -1.17476 0
M  V30 26001 C 2423.04 1.69963 -0.0683529 0
M  V30 26002 O 2424.22 1.92606 -0.248273 0
M  V30 26003 C 2421.35 3.36658 -0.853158 0
M  V30 26004 C 2420.31 3.8271 -1.91617 0
M  V30 26005 C 2419.63 5.14726 -1.44782 0
M  V30 26006 C 2420.93 4.02757 -3.32542 0
M  V30 26007 H 2422.63 2.12174 -2.11241 0
M  V30 26008 H 2420.17 1.01946 -1.01701 0
M  V30 26009 H 2422.13 4.14577 -0.755238 0
M  V30 26010 H 2420.85 3.26379 0.120179 0
M  V30 26011 H 2419.51 3.07009 -2.00352 0
M  V30 26012 H 2419.16 5.00864 -0.463083 0
M  V30 26013 H 2418.86 5.46509 -2.15875 0
M  V30 26014 H 2420.38 5.95183 -1.36345 0
M  V30 26015 H 2421.8 4.71151 -3.26634 0
M  V30 26016 H 2420.19 4.45898 -4.01615 0
M  V30 26017 H 2421.26 3.07009 -3.75331 0
M  V30 26018 N 2422.61 1.1209 1.10786 0
M  V30 26019 C 2423.85 0.872237 1.82309 0
M  V30 26020 C 2424.17 -0.603677 1.8542 0
M  V30 26021 O 2423.44 -1.43865 1.32965 0
M  V30 26022 H 2422.02 0.319697 0.675132 0
M  V30 26023 H 2424.69 1.41466 1.34065 0
M  V30 26024 H 2423.78 1.2505 2.85953 0
M  V30 26025 N 2424.08 -1.28513 0.912254 0
M  V30 26026 C 2425.31 -1.99702 0.559809 0
M  V30 26027 C 2425.73 -1.6773 -0.851364 0
M  V30 26028 O 2425.09 -0.908862 -1.56874 0
M  V30 26029 C 2425.14 -3.52197 0.773936 0
M  V30 26030 O 2424.24 -4.12059 -0.16777 0
M  V30 26031 H 2423.58 -0.627457 0.217241 0
M  V30 26032 H 2426.11 -1.63704 1.22728 0
M  V30 26033 H 2426.12 -4.02235 0.683457 0
M  V30 26034 H 2424.8 -3.74802 1.80268 0
M  V30 26035 H 2423.38 -3.72889 -0.0286853 0
M  V30 26036 N 2425.56 -0.676073 -1.42362 0
M  V30 26037 C 2426.81 -0.196073 -2.00745 0
M  V30 26038 C 2427.12 1.20487 -1.54085 0
M  V30 26039 O 2428.33 1.78131 -2.04895 0
M  V30 26040 C 2426.79 -0.299679 -3.5865 0
M  V30 26041 C 2426.39 -1.70475 -4.14297 0
M  V30 26042 C 2428.14 0.121544 -4.24326 0
M  V30 26043 C 2426.05 -1.76106 -5.64571 0
M  V30 26044 H 2424.98 -0.0695433 -0.750786 0
M  V30 26045 H 2427.63 -0.841441 -1.63071 0
M  V30 26046 H 2426.01 0.413604 -3.93834 0
M  V30 26047 H 2427.18 -2.44522 -3.90571 0
M  V30 26048 H 2425.5 -2.07394 -3.61077 0
M  V30 26049 H 2428.09 0.0996423 -5.34607 0
M  V30 26050 H 2428.44 1.15701 -3.99899 0
M  V30 26051 H 2428.97 -0.540775 -3.94107 0
M  V30 26052 H 2425.71 -2.77639 -5.93799 0
M  V30 26053 H 2425.23 -1.06416 -5.90284 0
M  V30 26054 H 2426.91 -1.51507 -6.29011 0
M  V30 26055 N 2427.04 1.51915 -0.419488 0
M  V30 26056 C 2428.27 2.0634 0.1521 0
M  V30 26057 C 2428.68 1.28861 1.37986 0
M  V30 26058 O 2428.04 0.343263 1.79243 0
M  V30 26059 C 2428.09 3.58134 0.492203 0
M  V30 26060 O 2427.81 4.32683 -0.686812 0
M  V30 26061 C 2429.31 4.29012 1.1164 0
M  V30 26062 H 2426.53 0.670813 0.0158207 0
M  V30 26063 H 2429.08 1.957 -0.593428 0
M  V30 26064 H 2427.23 3.68747 1.18762 0
M  V30 26065 H 2427.65 5.22969 -0.400433 0
M  V30 26066 H 2429.12 5.36364 1.3045 0
M  V30 26067 H 2429.6 3.86152 2.09244 0
M  V30 26068 H 2430.2 4.22795 0.460884 0
M  V30 26069 N 2428.52 0.150242 1.56882 0
M  V30 26070 C 2429.8 -0.545294 1.87845 0
M  V30 26071 C 2430.18 -1.82747 1.05673 0
M  V30 26072 O 2429.52 -2.28043 0.144482 0
M  V30 26073 C 2429.73 -0.80761 3.39527 0
M  V30 26074 C 2431.08 -1.14695 4.08816 0
M  V30 26075 O 2432.11 -0.896856 3.44724 0
M  V30 26076 O 2430.96 -1.61775 5.22007 0
M  V30 26077 H 2428.06 -0.278539 0.778681 0
M  V30 26078 H 2430.6 0.187097 1.68665 0
M  V30 26079 H 2429.38 0.0996784 3.91173 0
M  V30 26080 H 2429 -1.59407 3.64246 0
M  V30 26081 N 2430 -1.57115 -0.123538 0
M  V30 26082 C 2431.25 -1.83801 -0.830672 0
M  V30 26083 C 2431.56 -0.73519 -1.81258 0
M  V30 26084 O 2432.76 -0.888323 -2.56556 0
M  V30 26085 C 2431.22 -3.25855 -1.52796 0
M  V30 26086 C 2430.83 -4.44134 -0.587278 0
M  V30 26087 C 2432.57 -3.61793 -2.2205 0
M  V30 26088 C 2430.48 -5.77214 -1.28754 0
M  V30 26089 H 2429.41 -0.685528 -0.313955 0
M  V30 26090 H 2432.06 -1.8331 -0.0834037 0
M  V30 26091 H 2430.44 -3.20801 -2.32169 0
M  V30 26092 H 2431.62 -4.60475 0.17291 0
M  V30 26093 H 2429.93 -4.164 -0.00194572 0
M  V30 26094 H 2432.53 -4.58488 -2.75123 0
M  V30 26095 H 2432.87 -2.89002 -2.99639 0
M  V30 26096 H 2433.4 -3.68611 -1.4957 0
M  V30 26097 H 2430.14 -6.53163 -0.553025 0
M  V30 26098 H 2429.66 -5.64767 -2.01985 0
M  V30 26099 H 2431.34 -6.20816 -1.82199 0
M  V30 26100 N 2431.47 0.393589 -1.52606 0
M  V30 26101 C 2432.4 1.48705 -1.80025 0
M  V30 26102 C 2433.39 1.57107 -0.652023 0
M  V30 26103 O 2434.57 1.7213 -0.899161 0
M  V30 26104 C 2431.7 2.86367 -1.96497 0
M  V30 26105 C 2430.65 2.92808 -3.12166 0
M  V30 26106 C 2429.98 4.32874 -3.13885 0
M  V30 26107 C 2431.28 2.62872 -4.51326 0
M  V30 26108 H 2432.97 1.2601 -2.71591 0
M  V30 26109 H 2430.52 0.604755 -1.30686 0
M  V30 26110 H 2432.47 3.62864 -2.14261 0
M  V30 26111 H 2431.2 3.1039 -1.01616 0
M  V30 26112 H 2429.86 2.18759 -2.94177 0
M  V30 26113 H 2429.5 4.5393 -2.16695 0
M  V30 26114 H 2429.2 4.38105 -3.91583 0
M  V30 26115 H 2430.73 5.11284 -3.33798 0
M  V30 26116 H 2432.14 3.29088 -4.6944 0
M  V30 26117 H 2430.54 2.79459 -5.31058 0
M  V30 26118 H 2431.61 1.58234 -4.58356 0
M  V30 26119 N 2432.95 1.43492 0.651762 0
M  V30 26120 C 2434.2 1.45401 1.41373 0
M  V30 26121 C 2434.53 0.0785164 1.94041 0
M  V30 26122 O 2433.81 -0.900848 1.7238 0
M  V30 26123 C 2434.09 2.49757 2.5941 0
M  V30 26124 C 2433.94 3.96586 2.12225 0
M  V30 26125 C 2435.26 2.50834 3.61622 0
M  V30 26126 H 2432.38 0.529431 0.51271 0
M  V30 26127 H 2435.02 1.75049 0.738765 0
M  V30 26128 H 2433.17 2.24606 3.16993 0
M  V30 26129 H 2434.84 4.328 1.59632 0
M  V30 26130 H 2433.09 4.09348 1.43584 0
M  V30 26131 H 2433.76 4.65219 2.97112 0
M  V30 26132 H 2436.23 2.73255 3.13801 0
M  V30 26133 H 2435.11 3.2579 4.4176 0
M  V30 26134 H 2435.37 1.54267 4.14312 0
M  V30 26135 N 2434.43 -0.890264 1.30046 0
M  V30 26136 C 2435.66 -1.67485 1.21475 0
M  V30 26137 C 2436.07 -1.87476 -0.223208 0
M  V30 26138 O 2435.43 -1.41849 -1.14826 0
M  V30 26139 C 2435.48 -3.05416 1.934 0
M  V30 26140 O 2435.2 -2.86331 3.31581 0
M  V30 26141 C 2436.7 -3.99841 1.91421 0
M  V30 26142 H 2433.92 -0.522805 0.420613 0
M  V30 26143 H 2436.47 -1.11265 1.71582 0
M  V30 26144 H 2434.62 -3.58384 1.47105 0
M  V30 26145 H 2435.04 -3.73796 3.67936 0
M  V30 26146 H 2436.51 -4.94007 2.46294 0
M  V30 26147 H 2436.99 -4.30048 0.891908 0
M  V30 26148 H 2437.59 -3.52807 2.37502 0
M  V30 26149 N 2435.91 -1.12676 -1.1019 0
M  V30 26150 C 2436.82 -0.810065 -2.20171 0
M  V30 26151 C 2437.83 0.202158 -1.72822 0
M  V30 26152 O 2439.01 0.0351337 -2.01369 0
M  V30 26153 C 2436.08 -0.272068 -3.45631 0
M  V30 26154 C 2435.14 -1.34454 -4.07702 0
M  V30 26155 C 2434.37 -0.832122 -5.27173 0
M  V30 26156 O 2434.59 0.333184 -5.69426 0
M  V30 26157 O 2433.53 -1.60287 -5.80165 0
M  V30 26158 H 2437.35 -1.72871 -2.49698 0
M  V30 26159 H 2434.94 -0.903618 -1.18975 0
M  V30 26160 H 2436.82 0.0229478 -4.21394 0
M  V30 26161 H 2435.49 0.619108 -3.17724 0
M  V30 26162 H 2434.4 -1.69276 -3.33611 0
M  V30 26163 H 2435.73 -2.20958 -4.39817 0
M  V30 26164 N 2437.39 1.28028 -0.919057 0
M  V30 26165 C 2438.63 1.94747 -0.554969 0
M  V30 26166 C 2438.96 1.72305 0.90228 0
M  V30 26167 O 2438.22 1.04021 1.65766 0
M  V30 26168 C 2438.52 3.47939 -0.816917 0
M  V30 26169 C 2438.18 3.90488 -2.25455 0
M  V30 26170 C 2436.84 4.01816 -2.64759 0
M  V30 26171 C 2439.2 4.12188 -3.18984 0
M  V30 26172 C 2436.52 4.32225 -3.96734 0
M  V30 26173 C 2438.88 4.44078 -4.5053 0
M  V30 26174 C 2437.54 4.53618 -4.89681 0
M  V30 26175 H 2436.81 0.712629 -0.203077 0
M  V30 26176 H 2439.46 1.52263 -1.16139 0
M  V30 26177 H 2437.76 3.91592 -0.127746 0
M  V30 26178 H 2439.46 3.97688 -0.514308 0
M  V30 26179 H 2436.05 3.82202 -1.93958 0
M  V30 26180 H 2440.23 4.02884 -2.89824 0
M  V30 26181 H 2435.49 4.37818 -4.26762 0
M  V30 26182 H 2439.66 4.59816 -5.23013 0
M  V30 26183 H 2437.29 4.76935 -5.91977 0
M  V30 26184 N 2438.86 0.683613 1.42002 0
M  V30 26185 C 2440.11 0.209136 2.01015 0
M  V30 26186 C 2440.43 -1.19147 1.54367 0
M  V30 26187 O 2439.7 -1.80171 0.769115 0
M  V30 26188 H 2438.28 0.0743281 0.743293 0
M  V30 26189 H 2440.95 0.882097 1.73796 0
M  V30 26190 H 2440.04 0.217255 3.11343 0
M  V30 26191 N 2440.34 -1.5169 0.427538 0
M  V30 26192 C 2441.29 -2.29077 -0.403319 0
M  V30 26193 C 2442.29 -1.3452 -1.0296 0
M  V30 26194 O 2443.49 -1.51903 -0.965689 0
M  V30 26195 H 2439.87 -0.737118 -0.148866 0
M  V30 26196 H 2441.84 -2.97173 0.270347 0
M  V30 26197 C 2440.59 -3.13796 -1.49757 0
M  V30 26198 H 2439.91 -3.86437 -1.02501 0
M  V30 26199 H 2441.35 -3.71017 -2.05237 0
M  V30 26200 C 2439.81 -2.28537 -2.47532 0
M  V30 26201 O 2440.34 -1.93825 -3.51845 0
M  V30 26202 N 2438.54 -1.91949 -2.18183 0
M  V30 26203 H 2438.09 -2.20377 -1.33385 0
M  V30 26204 H 2438.05 -1.352 -2.83846 0
M  V30 26205 N 2441.82 -0.15856 -1.568 0
M  V30 26206 C 2442.77 0.79369 -2.1864 0
M  V30 26207 C 2443.76 1.24687 -1.14671 0
M  V30 26208 O 2444.97 1.21401 -1.32898 0
M  V30 26209 H 2441.34 0.274191 -0.700231 0
M  V30 26210 H 2443.32 0.248043 -2.97367 0
M  V30 26211 C 2442.06 2.01805 -2.83143 0
M  V30 26212 H 2441.39 1.67834 -3.62866 0
M  V30 26213 H 2442.83 2.66351 -3.29899 0
M  V30 26214 C 2441.29 2.8335 -1.82249 0
M  V30 26215 O 2441.82 3.8008 -1.30007 0
M  V30 26216 N 2440.02 2.48111 -1.51292 0
M  V30 26217 H 2439.57 1.69513 -1.93967 0
M  V30 26218 H 2439.53 3.02961 -0.840349 0
M  V30 26219 N 2443.3 1.57178 0.115204 0
M  V30 26220 C 2444.55 1.85052 0.822319 0
M  V30 26221 C 2444.87 0.744199 1.797 0
M  V30 26222 O 2444.13 -0.264106 1.9391 0
M  V30 26223 C 2444.43 3.19426 1.60319 0
M  V30 26224 C 2444.09 4.44234 0.772458 0
M  V30 26225 C 2442.76 4.78122 0.543384 0
M  V30 26226 C 2445.11 5.2084 0.193654 0
M  V30 26227 C 2442.44 5.86057 -0.274686 0
M  V30 26228 C 2444.79 6.29636 -0.611628 0
M  V30 26229 C 2443.45 6.62053 -0.850983 0
M  V30 26230 H 2442.72 0.677153 0.300908 0
M  V30 26231 H 2445.37 1.91313 0.0845466 0
M  V30 26232 H 2443.67 3.08757 2.41197 0
M  V30 26233 H 2445.37 3.38215 2.15434 0
M  V30 26234 H 2441.96 4.17685 0.961096 0
M  V30 26235 H 2446.15 4.95008 0.357839 0
M  V30 26236 H 2441.4 6.09596 -0.469313 0
M  V30 26237 H 2445.58 6.88176 -1.06709 0
M  V30 26238 H 2443.2 7.45521 -1.4867 0
M  V30 26239 N 2444.78 -0.38549 1.52813 0
M  V30 26240 C 2446.03 -1.12738 1.67251 0
M  V30 26241 C 2446.34 -1.91026 0.420534 0
M  V30 26242 O 2447.55 -2.67826 0.445111 0
M  V30 26243 C 2446 -2.05321 2.95586 0
M  V30 26244 C 2445.61 -1.32439 4.27976 0
M  V30 26245 C 2447.35 -2.79624 3.19391 0
M  V30 26246 C 2445.26 -2.23808 5.47416 0
M  V30 26247 H 2444.19 -0.424562 0.623108 0
M  V30 26248 H 2446.84 -0.389893 1.7931 0
M  V30 26249 H 2445.22 -2.8272 2.77282 0
M  V30 26250 H 2446.4 -0.602415 4.56845 0
M  V30 26251 H 2444.71 -0.700813 4.1046 0
M  V30 26252 H 2447.31 -3.48174 4.05807 0
M  V30 26253 H 2447.65 -3.43895 2.3461 0
M  V30 26254 H 2448.19 -2.09316 3.38277 0
M  V30 26255 H 2444.92 -1.64146 6.34615 0
M  V30 26256 H 2444.44 -2.93911 5.22854 0
M  V30 26257 H 2446.12 -2.83813 5.81428 0
M  V30 26258 N 2446.26 -1.43835 -0.644143 0
M  V30 26259 C 2447.2 -1.49978 -1.77791 0
M  V30 26260 C 2448.2 -0.372565 -1.65252 0
M  V30 26261 O 2449.4 -0.546954 -1.71489 0
M  V30 26262 H 2445.78 -0.47036 -0.586741 0
M  V30 26263 H 2447.75 -2.45426 -1.69731 0
M  V30 26264 C 2446.5 -1.44865 -3.16084 0
M  V30 26265 H 2445.82 -2.30911 -3.26374 0
M  V30 26266 H 2447.26 -1.53224 -3.95346 0
M  V30 26267 C 2445.72 -0.167522 -3.36483 0
M  V30 26268 O 2446.25 0.76754 -3.94299 0
M  V30 26269 N 2444.46 -0.0748066 -2.90504 0
M  V30 26270 H 2444 -0.83655 -2.43638 0
M  V30 26271 H 2443.96 0.781661 -3.04528 0
M  V30 26272 N 2447.73 0.883355 -1.30517 0
M  V30 26273 C 2448.66 2.00538 -1.1961 0
M  V30 26274 C 2449.64 1.69881 -0.0863759 0
M  V30 26275 O 2450.83 1.92332 -0.268687 0
M  V30 26276 C 2447.96 3.35734 -0.888817 0
M  V30 26277 C 2446.91 3.80656 -1.95665 0
M  V30 26278 C 2446.24 5.13161 -1.50233 0
M  V30 26279 C 2447.54 3.99207 -3.36795 0
M  V30 26280 H 2449.23 2.09921 -2.13479 0
M  V30 26281 H 2446.78 1.00861 -1.02776 0
M  V30 26282 H 2448.73 4.13753 -0.799167 0
M  V30 26283 H 2447.46 3.26488 0.0855552 0
M  V30 26284 H 2446.12 3.04867 -2.03597 0
M  V30 26285 H 2445.76 5.00344 -0.51618 0
M  V30 26286 H 2445.46 5.44188 -2.21659 0
M  V30 26287 H 2446.99 5.93703 -1.4265 0
M  V30 26288 H 2448.4 4.6766 -3.31613 0
M  V30 26289 H 2446.8 4.41614 -4.06322 0
M  V30 26290 H 2447.87 3.03011 -3.78566 0
M  V30 26291 N 2449.21 1.13259 1.09591 0
M  V30 26292 C 2450.44 0.916765 1.86038 0
M  V30 26293 C 2450.86 -0.529114 1.80505 0
M  V30 26294 O 2450.22 -1.37532 1.1813 0
M  V30 26295 C 2450.27 1.40709 3.32014 0
M  V30 26296 O 2449.37 0.591225 4.0814 0
M  V30 26297 H 2448.71 0.328693 0.576937 0
M  V30 26298 H 2451.24 1.50685 1.38403 0
M  V30 26299 H 2451.25 1.40997 3.82863 0
M  V30 26300 H 2449.93 2.45985 3.35357 0
M  V30 26301 H 2448.5 0.656069 3.67083 0
M  V30 26302 N 2450.69 -1.27539 0.925834 0
M  V30 26303 C 2451.94 -1.9445 0.565289 0
M  V30 26304 C 2452.26 -1.72781 -0.89313 0
M  V30 26305 O 2451.52 -1.04898 -1.65212 0
M  V30 26306 C 2451.82 -3.475 0.835357 0
M  V30 26307 C 2451.48 -3.89287 2.27522 0
M  V30 26308 C 2450.15 -4.00406 2.66886 0
M  V30 26309 C 2452.5 -4.1049 3.21166 0
M  V30 26310 C 2449.83 -4.30115 3.99021 0
M  V30 26311 C 2452.18 -4.41682 4.52879 0
M  V30 26312 C 2450.84 -4.51014 4.9208 0
M  V30 26313 H 2450.11 -0.711542 0.206854 0
M  V30 26314 H 2452.76 -1.51645 1.16944 0
M  V30 26315 H 2451.06 -3.91518 0.148511 0
M  V30 26316 H 2452.76 -3.9741 0.535391 0
M  V30 26317 H 2449.35 -3.81168 1.95982 0
M  V30 26318 H 2453.54 -4.01341 2.91957 0
M  V30 26319 H 2448.79 -4.35549 4.29077 0
M  V30 26320 H 2452.97 -4.57036 5.25444 0
M  V30 26321 H 2450.59 -4.73789 5.94498 0
M  V30 26322 N 2452.17 -0.691135 -1.41637 0
M  V30 26323 C 2453.1 -0.037289 -2.3347 0
M  V30 26324 C 2454.08 0.771921 -1.51576 0
M  V30 26325 O 2455.26 0.725788 -1.80128 0
M  V30 26326 C 2452.39 0.903005 -3.35355 0
M  V30 26327 C 2451.35 0.201213 -4.27527 0
M  V30 26328 C 2450.67 1.25556 -5.1975 0
M  V30 26329 C 2451.97 -0.92978 -5.13958 0
M  V30 26330 H 2453.67 -0.804278 -2.88395 0
M  V30 26331 H 2451.21 -0.388214 -1.38668 0
M  V30 26332 H 2453.17 1.36962 -3.98521 0
M  V30 26333 H 2451.89 1.70161 -2.7877 0
M  V30 26334 H 2450.55 -0.24533 -3.65778 0
M  V30 26335 H 2450.2 2.04658 -4.59483 0
M  V30 26336 H 2449.9 0.791026 -5.82251 0
M  V30 26337 H 2451.42 1.72278 -5.85792 0
M  V30 26338 H 2452.84 -0.543647 -5.70717 0
M  V30 26339 H 2451.23 -1.32113 -5.85377 0
M  V30 26340 H 2452.3 -1.77141 -4.51386 0
M  V30 26341 N 2453.65 1.51461 -0.435577 0
M  V30 26342 C 2455.06 1.59358 -0.0877782 0
M  V30 26343 C 2455.26 1.44663 1.40267 0
M  V30 26344 O 2454.32 1.28696 2.17241 0
M  V30 26345 C 2455.63 2.94524 -0.606316 0
M  V30 26346 C 2457.18 3.07829 -0.566602 0
M  V30 26347 C 2457.65 4.45515 -1.06208 0
M  V30 26348 N 2459.14 4.5183 -1.02 0
M  V30 26349 C 2459.88 5.56688 -1.37427 0
M  V30 26350 N 2459.38 6.68973 -1.80131 0
M  V30 26351 N 2461.17 5.47037 -1.29255 0
M  V30 26352 H 2453.32 1.59259 -1.40536 0
M  V30 26353 H 2455.58 0.750638 -0.579005 0
M  V30 26354 H 2455.29 3.10642 -1.64906 0
M  V30 26355 H 2455.16 3.77188 -0.030276 0
M  V30 26356 H 2457.55 2.91379 0.467157 0
M  V30 26357 H 2457.63 2.27008 -1.17902 0
M  V30 26358 H 2457.27 4.62711 -2.0943 0
M  V30 26359 H 2457.2 5.24872 -0.426219 0
M  V30 26360 H 2459.7 3.7124 -0.706373 0
M  V30 26361 H 2460.01 7.45002 -2.05405 0
M  V30 26362 H 2458.35 6.70185 -1.84056 0
M  V30 26363 H 2461.54 4.582 -0.957602 0
M  V30 26364 H 2461.72 6.28645 -1.57193 0
M  V30 26365 N 2455.12 0.166873 1.56714 0
M  V30 26366 C 2456.05 -0.760874 2.20755 0
M  V30 26367 C 2457.04 -1.24242 1.1618 0
M  V30 26368 O 2458.22 -1.29639 1.44594 0
M  V30 26369 C 2455.35 -1.99218 2.84481 0
M  V30 26370 C 2454.3 -1.64665 3.95056 0
M  V30 26371 C 2453.63 -2.95224 4.4581 0
M  V30 26372 C 2454.93 -0.878064 5.14866 0
M  V30 26373 H 2456.62 -0.227077 2.98538 0
M  V30 26374 H 2454.17 -0.10778 1.43596 0
M  V30 26375 H 2456.12 -2.64618 3.27956 0
M  V30 26376 H 2454.85 -2.55004 2.04061 0
M  V30 26377 H 2453.51 -1.01635 3.5223 0
M  V30 26378 H 2453.15 -3.49041 3.62187 0
M  V30 26379 H 2452.85 -2.72861 5.20404 0
M  V30 26380 H 2454.38 -3.61662 4.91969 0
M  V30 26381 H 2455.79 -1.43456 5.55061 0
M  V30 26382 H 2454.19 -0.753633 5.95349 0
M  V30 26383 H 2455.26 0.126462 4.84735 0
M  V30 26384 N 2456.6 -1.57237 -0.106866 0
M  V30 26385 C 2457.85 -1.85485 -0.812493 0
M  V30 26386 C 2458.18 -0.753719 -1.79302 0
M  V30 26387 O 2457.43 0.253819 -1.94047 0
M  V30 26388 C 2457.73 -3.20271 -1.58622 0
M  V30 26389 C 2457.4 -4.44637 -0.748889 0
M  V30 26390 C 2456.06 -4.78404 -0.51802 0
M  V30 26391 C 2458.41 -5.20935 -0.16603 0
M  V30 26392 C 2455.74 -5.85903 0.305762 0
M  V30 26393 C 2458.09 -6.29303 0.64501 0
M  V30 26394 C 2456.76 -6.61593 0.886081 0
M  V30 26395 H 2456.03 -0.678739 -0.297312 0
M  V30 26396 H 2458.67 -1.91355 -0.0743996 0
M  V30 26397 H 2456.98 -3.10032 -2.39556 0
M  V30 26398 H 2458.67 -3.39352 -2.13637 0
M  V30 26399 H 2455.26 -4.18189 -0.938932 0
M  V30 26400 H 2459.45 -4.95191 -0.331583 0
M  V30 26401 H 2454.7 -6.09339 0.501635 0
M  V30 26402 H 2458.88 -6.876 1.10357 0
M  V30 26403 H 2456.51 -7.44722 1.52622 0
M  V30 26404 N 2458.08 0.377381 -1.53015 0
M  V30 26405 C 2459.5 0.718256 -1.42525 0
M  V30 26406 C 2459.7 1.93709 -0.554904 0
M  V30 26407 O 2458.75 2.52479 -0.0328037 0
M  V30 26408 C 2460.07 0.942488 -2.85548 0
M  V30 26409 C 2461.61 1.04324 -2.95103 0
M  V30 26410 C 2462.09 1.30002 -4.39162 0
M  V30 26411 N 2463.58 1.36798 -4.42539 0
M  V30 26412 C 2464.31 1.58355 -5.511 0
M  V30 26413 N 2463.81 1.77305 -6.69727 0
M  V30 26414 N 2465.6 1.60628 -5.3866 0
M  V30 26415 H 2457.75 -0.424462 -2.08116 0
M  V30 26416 H 2460.02 -0.127775 -0.939349 0
M  V30 26417 H 2459.72 0.118867 -3.51499 0
M  V30 26418 H 2459.6 1.85392 -3.28496 0
M  V30 26419 H 2461.98 1.85741 -2.29312 0
M  V30 26420 H 2462.07 0.10946 -2.55566 0
M  V30 26421 H 2461.71 0.490902 -5.05522 0
M  V30 26422 H 2461.64 2.24683 -4.76262 0
M  V30 26423 H 2464.13 1.23815 -3.57041 0
M  V30 26424 H 2464.44 1.93293 -7.48236 0
M  V30 26425 H 2462.79 1.74506 -6.72735 0
M  V30 26426 H 2465.98 1.45383 -4.44951 0
M  V30 26427 H 2466.15 1.77087 -6.23333 0
M  V30 26428 N 2459.56 1.44175 0.636506 0
M  V30 26429 C 2460.52 1.50276 1.7306 0
M  V30 26430 C 2461.52 0.385424 1.56113 0
M  V30 26431 O 2462.71 0.647839 1.61706 0
M  V30 26432 C 2459.84 1.3715 3.12094 0
M  V30 26433 H 2461.04 2.4773 1.69026 0
M  V30 26434 H 2458.59 1.31187 0.849683 0
M  V30 26435 H 2459.32 0.407693 3.21727 0
M  V30 26436 H 2459.11 2.18165 3.25801 0
M  V30 26437 H 2460.6 1.44389 3.91844 0
M  V30 26438 N 2461.04 -0.876421 1.30983 0
M  V30 26439 C 2462 -1.96457 1.18057 0
M  V30 26440 C 2463 -1.60427 0.109428 0
M  V30 26441 O 2464.19 -1.70477 0.358203 0
M  V30 26442 C 2461.32 -3.31121 0.810675 0
M  V30 26443 H 2462.51 -2.0935 2.14739 0
M  V30 26444 H 2460.07 -1.0639 1.14502 0
M  V30 26445 H 2460.8 -3.23928 -0.155265 0
M  V30 26446 H 2460.59 -3.58642 1.58487 0
M  V30 26447 H 2462.08 -4.1092 0.743948 0
M  V30 26448 N 2462.51 -1.13839 -1.08989 0
M  V30 26449 C 2463.93 -0.877529 -1.3331 0
M  V30 26450 C 2464.13 0.484526 -1.95588 0
M  V30 26451 O 2463.19 1.23009 -2.20511 0
M  V30 26452 C 2464.5 -2.00564 -2.24042 0
M  V30 26453 C 2466.05 -2.03825 -2.37538 0
M  V30 26454 C 2466.52 -3.15911 -3.31608 0
M  V30 26455 N 2468.01 -3.15451 -3.39183 0
M  V30 26456 C 2468.75 -3.98818 -4.11985 0
M  V30 26457 N 2468.24 -4.92211 -4.87545 0
M  V30 26458 N 2470.04 -3.86901 -4.07755 0
M  V30 26459 H 2462.19 -2.01575 -0.66942 0
M  V30 26460 H 2464.45 -0.878021 -0.357466 0
M  V30 26461 H 2464.16 -2.98792 -1.85516 0
M  V30 26462 H 2464.03 -1.92364 -3.24462 0
M  V30 26463 H 2466.42 -1.06207 -2.75326 0
M  V30 26464 H 2466.5 -2.16096 -1.36881 0
M  V30 26465 H 2466.14 -4.13771 -2.94543 0
M  V30 26466 H 2466.07 -3.00878 -4.32181 0
M  V30 26467 H 2468.56 -2.47804 -2.8531 0
M  V30 26468 H 2468.88 -5.52302 -5.40539 0
M  V30 26469 H 2467.22 -4.96214 -4.86618 0
M  V30 26470 H 2470.41 -3.13263 -3.47828 0
M  V30 26471 H 2470.59 -4.521 -4.6423 0
M  V30 26472 N 2463.99 1.27046 -0.932584 0
M  V30 26473 C 2464.92 2.29065 -0.452942 0
M  V30 26474 C 2465.9 1.6291 0.48931 0
M  V30 26475 O 2467.09 1.90182 0.393013 0
M  V30 26476 C 2464.22 3.46082 0.290637 0
M  V30 26477 C 2463.17 4.24264 -0.564242 0
M  V30 26478 C 2462.5 5.33808 0.308793 0
M  V30 26479 C 2463.8 4.89146 -1.83121 0
M  V30 26480 H 2465.49 2.69435 -1.30557 0
M  V30 26481 H 2463.04 1.29525 -0.629224 0
M  V30 26482 H 2464.99 4.16555 0.63716 0
M  V30 26483 H 2463.72 3.04642 1.17733 0
M  V30 26484 H 2462.37 3.55544 -0.89354 0
M  V30 26485 H 2462.02 4.88609 1.19458 0
M  V30 26486 H 2461.72 5.87026 -0.259736 0
M  V30 26487 H 2463.25 6.07122 0.650777 0
M  V30 26488 H 2464.66 5.5188 -1.55246 0
M  V30 26489 H 2463.06 5.52444 -2.34363 0
M  V30 26490 H 2464.13 4.12572 -2.5478 0
M  V30 26491 N 2465.47 0.698636 1.41269 0
M  V30 26492 C 2466.72 0.227984 2.00407 0
M  V30 26493 C 2467.03 -1.1802 1.55983 0
M  V30 26494 O 2468.24 -1.74848 2.07702 0
M  V30 26495 C 2466.69 0.356699 3.58128 0
M  V30 26496 C 2466.3 1.77045 4.11533 0
M  V30 26497 C 2468.05 -0.0540223 4.24466 0
M  V30 26498 C 2465.95 1.85065 5.61698 0
M  V30 26499 H 2464.88 0.0814788 0.749585 0
M  V30 26500 H 2467.53 0.867277 1.61711 0
M  V30 26501 H 2465.92 -0.350896 3.94442 0
M  V30 26502 H 2467.09 2.50705 3.86631 0
M  V30 26503 H 2465.41 2.13112 3.57732 0
M  V30 26504 H 2468 -0.0145783 5.34698 0
M  V30 26505 H 2468.35 -1.09325 4.01689 0
M  V30 26506 H 2468.88 0.603406 3.93197 0
M  V30 26507 H 2465.62 2.87051 5.89307 0
M  V30 26508 H 2465.14 1.15794 5.88517 0
M  V30 26509 H 2466.82 1.61495 6.26521 0
M  V30 26510 N 2466.95 -1.51228 0.443603 0
M  V30 26511 C 2467.9 -2.27901 -0.364676 0
M  V30 26512 C 2468.87 -1.31759 -1.01138 0
M  V30 26513 O 2470.05 -1.60669 -1.02909 0
M  V30 26514 C 2467.19 -3.12863 -1.45638 0
M  V30 26515 C 2466.3 -4.24006 -0.827195 0
M  V30 26516 C 2465.44 -4.96269 -1.89448 0
M  V30 26517 C 2464.48 -5.99324 -1.24406 0
M  V30 26518 N 2463.61 -6.6497 -2.25298 0
M  V30 26519 H 2468.45 -2.96531 0.295517 0
M  V30 26520 H 2465.99 -1.46254 0.157579 0
M  V30 26521 H 2467.95 -3.60454 -2.10069 0
M  V30 26522 H 2466.58 -2.46335 -2.08612 0
M  V30 26523 H 2465.63 -3.80334 -0.071017 0
M  V30 26524 H 2466.94 -4.97821 -0.312394 0
M  V30 26525 H 2466.1 -5.47439 -2.61526 0
M  V30 26526 H 2464.84 -4.22099 -2.44302 0
M  V30 26527 H 2463.84 -5.47441 -0.508771 0
M  V30 26528 H 2465.07 -6.75454 -0.702763 0
M  V30 26529 H 2463.01 -5.93609 -2.7922 0
M  V30 26530 H 2462.93 -7.3457 -1.78726 0
M  V30 26531 H 2464.2 -7.20768 -2.9684 0
M  V30 26532 N 2468.43 -0.175182 -1.56623 0
M  V30 26533 C 2469.36 0.749156 -2.21156 0
M  V30 26534 C 2470.34 1.23624 -1.16838 0
M  V30 26535 O 2471.52 1.2887 -1.4528 0
M  V30 26536 C 2468.65 1.97706 -2.85534 0
M  V30 26537 C 2467.61 1.62568 -3.95924 0
M  V30 26538 C 2466.93 2.92856 -4.4737 0
M  V30 26539 C 2468.23 0.850747 -5.15325 0
M  V30 26540 H 2469.93 0.211242 -2.98654 0
M  V30 26541 H 2467.47 0.100163 -1.43651 0
M  V30 26542 H 2469.43 2.62875 -3.29355 0
M  V30 26543 H 2468.15 2.53918 -2.0541 0
M  V30 26544 H 2466.81 0.997657 -3.52764 0
M  V30 26545 H 2466.46 3.47115 -3.64033 0
M  V30 26546 H 2466.16 2.70097 -5.21844 0
M  V30 26547 H 2467.68 3.59048 -4.9388 0
M  V30 26548 H 2469.09 1.40511 -5.55814 0
M  V30 26549 H 2467.49 0.72205 -5.9574 0
M  V30 26550 H 2468.56 -0.152167 -4.84661 0
M  V30 26551 N 2469.91 1.57292 0.0985263 0
M  V30 26552 C 2470.84 2.04853 1.1206 0
M  V30 26553 C 2471.82 0.936792 1.4198 0
M  V30 26554 O 2473 1.20784 1.52069 0
M  V30 26555 C 2470.13 2.47008 2.4414 0
M  V30 26556 C 2469.09 3.61814 2.28636 0
M  V30 26557 C 2468.41 3.89935 3.65862 0
M  V30 26558 C 2469.71 4.92825 1.72977 0
M  V30 26559 H 2471.41 2.90491 0.724928 0
M  V30 26560 H 2468.95 1.3975 0.347266 0
M  V30 26561 H 2470.9 2.78889 3.15909 0
M  V30 26562 H 2469.63 1.58365 2.85636 0
M  V30 26563 H 2468.29 3.30174 1.59312 0
M  V30 26564 H 2467.94 2.98465 4.0488 0
M  V30 26565 H 2467.64 4.67224 3.56336 0
M  V30 26566 H 2469.16 4.24288 4.39104 0
M  V30 26567 H 2470.57 5.23109 2.34584 0
M  V30 26568 H 2468.97 5.74254 1.74219 0
M  V30 26569 H 2470.04 4.79981 0.688922 0
M  V30 26570 N 2471.38 -0.369261 1.53213 0
M  V30 26571 C 2472.8 -0.710687 1.42903 0
M  V30 26572 C 2473 -1.93412 0.565169 0
M  V30 26573 O 2472.06 -2.52458 0.0461928 0
M  V30 26574 C 2473.37 -0.927332 2.86044 0
M  V30 26575 C 2474.92 -1.02757 2.95652 0
M  V30 26576 C 2475.39 -1.27671 4.39845 0
M  V30 26577 N 2476.88 -1.3445 4.43258 0
M  V30 26578 C 2477.62 -1.5543 5.51932 0
M  V30 26579 N 2477.11 -1.73751 6.70658 0
M  V30 26580 N 2478.91 -1.57769 5.39505 0
M  V30 26581 H 2471.06 0.435493 2.07888 0
M  V30 26582 H 2473.32 0.132755 0.938659 0
M  V30 26583 H 2473.03 -0.100225 3.51557 0
M  V30 26584 H 2472.9 -1.83647 3.29475 0
M  V30 26585 H 2475.29 -1.84523 2.30294 0
M  V30 26586 H 2475.37 -0.0959054 2.5562 0
M  V30 26587 H 2475.01 -0.464086 5.05775 0
M  V30 26588 H 2474.94 -2.22154 4.77446 0
M  V30 26589 H 2477.43 -1.2192 3.57693 0
M  V30 26590 H 2477.75 -1.89322 7.49251 0
M  V30 26591 H 2476.09 -1.70936 6.73651 0
M  V30 26592 H 2479.28 -1.43021 4.45716 0
M  V30 26593 H 2479.46 -1.73779 6.24263 0
M  V30 26594 N 2472.86 -1.4451 -0.628851 0
M  V30 26595 C 2473.79 -1.47541 -1.75398 0
M  V30 26596 C 2474.81 -0.368534 -1.58574 0
M  V30 26597 O 2476 -0.634405 -1.66846 0
M  V30 26598 C 2473.1 -1.29583 -3.13148 0
M  V30 26599 C 2472.27 -2.53558 -3.56409 0
M  V30 26600 C 2471.33 -2.30466 -4.73046 0
M  V30 26601 O 2470.35 -3.03966 -4.81242 0
M  V30 26602 N 2471.56 -1.3367 -5.64901 0
M  V30 26603 H 2474.32 -2.44537 -1.73268 0
M  V30 26604 H 2471.88 -1.39979 -0.813487 0
M  V30 26605 H 2473.87 -1.11978 -3.889 0
M  V30 26606 H 2472.44 -0.409425 -3.09907 0
M  V30 26607 H 2471.66 -2.86423 -2.70842 0
M  V30 26608 H 2472.95 -3.36012 -3.82065 0
M  V30 26609 H 2472.35 -0.729703 -5.60974 0
M  V30 26610 H 2470.91 -1.22043 -6.40272 0
M  V30 26611 N 2474.34 0.869463 -1.31446 0
M  V30 26612 C 2475.59 1.61933 -1.20921 0
M  V30 26613 C 2475.91 1.93607 0.232649 0
M  V30 26614 O 2475.18 1.5834 1.15349 0
M  V30 26615 H 2473.76 0.60032 -0.44455 0
M  V30 26616 H 2476.42 1.04087 -1.64778 0
M  V30 26617 H 2475.52 2.56275 -1.78128 0
M  V30 26618 N 2475.82 1.14415 1.08383 0
M  V30 26619 C 2477.05 0.934676 1.84248 0
M  V30 26620 C 2477.46 -0.520202 1.81908 0
M  V30 26621 O 2476.8 -1.37224 1.22128 0
M  V30 26622 C 2476.86 1.35834 3.3285 0
M  V30 26623 C 2476.52 2.82881 3.58925 0
M  V30 26624 C 2477.52 3.80996 3.53749 0
M  V30 26625 C 2475.21 3.20299 3.86928 0
M  V30 26626 C 2477.2 5.14536 3.76207 0
M  V30 26627 C 2474.89 4.54016 4.09039 0
M  V30 26628 C 2475.89 5.50943 4.03672 0
M  V30 26629 O 2475.57 6.82245 4.25202 0
M  V30 26630 H 2475.31 0.332638 0.588496 0
M  V30 26631 H 2477.86 1.52326 1.37789 0
M  V30 26632 H 2476.09 0.713085 3.80068 0
M  V30 26633 H 2477.78 1.11964 3.90152 0
M  V30 26634 H 2478.54 3.53434 3.32129 0
M  V30 26635 H 2474.42 2.45448 3.90226 0
M  V30 26636 H 2477.97 5.90179 3.71933 0
M  V30 26637 H 2473.86 4.81297 4.30143 0
M  V30 26638 H 2474.63 6.88507 4.42606 0
M  V30 26639 N 2477.3 -1.26549 0.939309 0
M  V30 26640 C 2478.52 -1.97931 0.602571 0
M  V30 26641 C 2478.94 -1.69965 -0.82203 0
M  V30 26642 O 2478.3 -0.966811 -1.54787 0
M  V30 26643 C 2478.35 -3.51772 0.833008 0
M  V30 26644 O 2478.07 -3.78764 2.20158 0
M  V30 26645 C 2479.57 -4.40396 0.50656 0
M  V30 26646 H 2476.79 -0.631343 0.227259 0
M  V30 26647 H 2479.33 -1.61111 1.2595 0
M  V30 26648 H 2477.49 -3.86759 0.222712 0
M  V30 26649 H 2477.9 -4.73302 2.26022 0
M  V30 26650 H 2479.38 -5.47305 0.718429 0
M  V30 26651 H 2479.85 -4.35636 -0.558375 0
M  V30 26652 H 2480.46 -4.10949 1.0955 0
M  V30 26653 N 2478.77 -0.706118 -1.40896 0
M  V30 26654 C 2480.02 -0.238609 -2.00284 0
M  V30 26655 C 2480.34 1.17191 -1.56606 0
M  V30 26656 O 2481.54 1.73744 -2.08627 0
M  V30 26657 C 2480 -0.375686 -3.57934 0
M  V30 26658 C 2479.61 -1.79225 -4.10588 0
M  V30 26659 C 2481.35 0.0315111 -4.24488 0
M  V30 26660 C 2479.26 -1.88041 -5.60709 0
M  V30 26661 H 2478.19 -0.0854529 -0.749142 0
M  V30 26662 H 2480.84 -0.875841 -1.61249 0
M  V30 26663 H 2479.22 0.329973 -3.94623 0
M  V30 26664 H 2480.39 -2.52752 -3.85296 0
M  V30 26665 H 2478.71 -2.15006 -3.56597 0
M  V30 26666 H 2481.31 -0.0137782 -5.34698 0
M  V30 26667 H 2481.65 1.07193 -4.02263 0
M  V30 26668 H 2482.18 -0.62425 -3.92871 0
M  V30 26669 H 2478.92 -2.90172 -5.87776 0
M  V30 26670 H 2478.44 -1.18913 -5.87894 0
M  V30 26671 H 2480.12 -1.64816 -6.25656 0
M  V30 26672 N 2480.25 1.50991 -0.451617 0
M  V30 26673 C 2481.67 1.59256 -0.104675 0
M  V30 26674 C 2481.87 1.46142 1.38725 0
M  V30 26675 O 2480.92 1.30993 2.15863 0
M  V30 26676 C 2482.24 2.93864 -0.63752 0
M  V30 26677 C 2483.78 3.07211 -0.59922 0
M  V30 26678 C 2484.26 4.44364 -1.10928 0
M  V30 26679 N 2485.75 4.50723 -1.06786 0
M  V30 26680 C 2486.49 5.55199 -1.43324 0
M  V30 26681 N 2485.98 6.67025 -1.87216 0
M  V30 26682 N 2487.77 5.45635 -1.3505 0
M  V30 26683 H 2479.93 1.57759 -1.42217 0
M  V30 26684 H 2482.19 0.744454 -0.586934 0
M  V30 26685 H 2481.89 3.08876 -1.68192 0
M  V30 26686 H 2481.77 3.77135 -0.0702802 0
M  V30 26687 H 2484.16 2.91858 0.436226 0
M  V30 26688 H 2484.24 2.25745 -1.20303 0
M  V30 26689 H 2483.88 4.60464 -2.14326 0
M  V30 26690 H 2483.81 5.24391 -0.481865 0
M  V30 26691 H 2486.3 3.70469 -0.745708 0
M  V30 26692 H 2486.61 7.42782 -2.13295 0
M  V30 26693 H 2484.96 6.68195 -1.91154 0
M  V30 26694 H 2488.15 4.57159 -1.00615 0
M  V30 26695 H 2488.32 6.26942 -1.63852 0
M  V30 26696 N 2481.73 0.183486 1.56528 0
M  V30 26697 C 2482.98 -0.458477 1.9642 0
M  V30 26698 C 2483.29 -1.6356 1.07273 0
M  V30 26699 O 2484.5 -2.3446 1.36897 0
M  V30 26700 C 2482.95 -0.86706 3.49299 0
M  V30 26701 C 2482.56 0.285136 4.47092 0
M  V30 26702 C 2484.31 -1.47676 3.97985 0
M  V30 26703 C 2482.21 -0.143758 5.91225 0
M  V30 26704 H 2481.14 -0.175058 0.733397 0
M  V30 26705 H 2483.79 0.273656 1.81448 0
M  V30 26706 H 2482.18 -1.65552 3.59734 0
M  V30 26707 H 2483.35 1.06258 4.48381 0
M  V30 26708 H 2481.66 0.805575 4.08533 0
M  V30 26709 H 2484.26 -1.8099 5.03137 0
M  V30 26710 H 2484.6 -2.37908 3.41622 0
M  V30 26711 H 2485.14 -0.752494 3.90618 0
M  V30 26712 H 2481.88 0.724089 6.51488 0
M  V30 26713 H 2481.4 -0.886309 5.93215 0
M  V30 26714 H 2483.08 -0.583515 6.44363 0
M  V30 26715 N 2483.21 -1.57342 -0.0901833 0
M  V30 26716 C 2484.14 -2.05444 -1.10972 0
M  V30 26717 C 2485.12 -0.944308 -1.41481 0
M  V30 26718 O 2486.3 -1.21589 -1.51426 0
M  V30 26719 C 2483.43 -2.483 -2.42826 0
M  V30 26720 C 2482.39 -3.63022 -2.26714 0
M  V30 26721 C 2481.71 -3.9187 -3.63789 0
M  V30 26722 C 2483.01 -4.93735 -1.70361 0
M  V30 26723 H 2484.71 -2.90872 -0.709513 0
M  V30 26724 H 2482.25 -1.39932 -0.339849 0
M  V30 26725 H 2484.21 -2.80561 -3.14426 0
M  V30 26726 H 2482.93 -1.59878 -2.84792 0
M  V30 26727 H 2481.59 -3.31015 -1.57559 0
M  V30 26728 H 2481.24 -3.00608 -4.03291 0
M  V30 26729 H 2480.94 -4.69108 -3.53853 0
M  V30 26730 H 2482.46 -4.2661 -4.36848 0
M  V30 26731 H 2483.88 -5.24346 -2.31807 0
M  V30 26732 H 2482.27 -5.7517 -1.71171 0
M  V30 26733 H 2483.34 -4.8034 -0.663458 0
M  V30 26734 N 2484.69 0.36113 -1.53407 0
M  V30 26735 C 2485.62 1.44853 -1.83139 0
M  V30 26736 C 2486.6 1.55689 -0.685201 0
M  V30 26737 O 2487.78 1.70184 -0.93547 0
M  V30 26738 C 2484.91 2.82135 -2.02527 0
M  V30 26739 C 2483.87 2.8612 -3.18307 0
M  V30 26740 C 2483.19 4.26119 -3.22996 0
M  V30 26741 C 2484.49 2.5324 -4.56801 0
M  V30 26742 H 2486.19 1.20221 -2.74203 0
M  V30 26743 H 2483.73 0.576899 -1.31939 0
M  V30 26744 H 2485.69 3.58237 -2.2191 0
M  V30 26745 H 2484.41 3.08164 -1.08177 0
M  V30 26746 H 2483.07 2.12469 -2.98751 0
M  V30 26747 H 2482.72 4.49231 -2.26275 0
M  V30 26748 H 2482.42 4.29701 -4.00788 0
M  V30 26749 H 2483.94 5.04088 -3.44568 0
M  V30 26750 H 2485.35 3.19056 -4.76315 0
M  V30 26751 H 2483.75 2.68131 -5.36866 0
M  V30 26752 H 2484.82 1.48476 -4.61609 0
M  V30 26753 N 2486.16 1.44842 0.621179 0
M  V30 26754 C 2487.41 1.49359 1.3807 0
M  V30 26755 C 2487.77 0.128149 1.91973 0
M  V30 26756 O 2487.06 -0.858057 1.71312 0
M  V30 26757 C 2487.25 2.49735 2.5567 0
M  V30 26758 C 2487.08 3.95905 2.13282 0
M  V30 26759 C 2485.85 4.63995 2.00092 0
M  V30 26760 C 2488.05 4.84834 1.71581 0
M  V30 26761 N 2486.03 5.94945 1.51371 0
M  V30 26762 C 2487.4 6.05307 1.34178 0
M  V30 26763 C 2489.46 4.71813 1.59051 0
M  V30 26764 C 2488.16 7.14201 0.854959 0
M  V30 26765 C 2490.19 5.80741 1.11773 0
M  V30 26766 C 2489.55 7.00361 0.753262 0
M  V30 26767 H 2485.65 0.601548 0.499664 0
M  V30 26768 H 2488.23 1.81231 0.711577 0
M  V30 26769 H 2486.4 2.19837 3.20197 0
M  V30 26770 H 2488.13 2.44485 3.22504 0
M  V30 26771 H 2484.89 4.18951 2.20856 0
M  V30 26772 H 2485.31 6.64542 1.29281 0
M  V30 26773 H 2489.96 3.79758 1.85858 0
M  V30 26774 H 2487.67 8.06056 0.57441 0
M  V30 26775 H 2491.26 5.72696 1.02523 0
M  V30 26776 H 2490.14 7.83214 0.393045 0
M  V30 26777 N 2487.64 -0.862479 1.31905 0
M  V30 26778 C 2488.87 -1.64871 1.25001 0
M  V30 26779 C 2489.29 -1.87907 -0.183392 0
M  V30 26780 O 2488.64 -1.44253 -1.11791 0
M  V30 26781 C 2488.69 -3.01245 1.99834 0
M  V30 26782 O 2488.41 -2.79233 3.3758 0
M  V30 26783 C 2489.92 -3.95691 1.99859 0
M  V30 26784 H 2487.14 -0.513766 0.431608 0
M  V30 26785 H 2489.68 -1.07601 1.73903 0
M  V30 26786 H 2487.83 -3.55183 1.54674 0
M  V30 26787 H 2488.25 -3.65907 3.75782 0
M  V30 26788 H 2489.72 -4.88672 2.56717 0
M  V30 26789 H 2490.2 -4.2806 0.982927 0
M  V30 26790 H 2490.81 -3.4769 2.44933 0
M  V30 26791 N 2489.12 -1.14988 -1.07775 0
M  V30 26792 C 2490.37 -0.922088 -1.80288 0
M  V30 26793 C 2490.7 0.551017 -1.86532 0
M  V30 26794 O 2489.95 1.42447 -1.34191 0
M  V30 26795 C 2490.25 -1.47613 -3.25492 0
M  V30 26796 C 2489.92 -2.96898 -3.39355 0
M  V30 26797 C 2488.58 -3.37653 -3.42846 0
M  V30 26798 C 2490.93 -3.9286 -3.42506 0
M  V30 26799 C 2488.26 -4.73021 -3.47086 0
M  V30 26800 C 2490.61 -5.28094 -3.48281 0
M  V30 26801 C 2489.27 -5.68351 -3.50048 0
M  V30 26802 H 2488.54 -0.337416 -0.659721 0
M  V30 26803 H 2491.19 -1.43461 -1.26851 0
M  V30 26804 H 2489.5 -0.884697 -3.81681 0
M  V30 26805 H 2491.19 -1.27574 -3.80165 0
M  V30 26806 H 2487.78 -2.64393 -3.37334 0
M  V30 26807 H 2491.97 -3.6245 -3.39033 0
M  V30 26808 H 2487.22 -5.03562 -3.46749 0
M  V30 26809 H 2491.4 -6.02252 -3.49665 0
M  V30 26810 H 2489.02 -6.73227 -3.53085 0
M  V30 26811 N 2490.6 1.26049 -0.946007 0
M  V30 26812 C 2491.84 1.93813 -0.597036 0
M  V30 26813 C 2492.18 1.73998 0.862454 0
M  V30 26814 O 2491.45 1.07989 1.61767 0
M  V30 26815 C 2491.74 3.47452 -0.945998 0
M  V30 26816 C 2491.59 3.76531 -2.46058 0
M  V30 26817 C 2492.91 4.37638 -0.464862 0
M  V30 26818 H 2490.03 0.703903 -0.218378 0
M  V30 26819 H 2492.67 1.48829 -1.1811 0
M  V30 26820 H 2490.82 3.85897 -0.44897 0
M  V30 26821 H 2492.49 3.47772 -3.03071 0
M  V30 26822 H 2490.73 3.22438 -2.902 0
M  V30 26823 H 2491.4 4.83942 -2.65526 0
M  V30 26824 H 2493.88 4.06447 -0.891087 0
M  V30 26825 H 2492.76 5.43919 -0.737808 0
M  V30 26826 H 2493.02 4.37513 0.635197 0
M  V30 26827 N 2492.08 0.71358 1.4052 0
M  V30 26828 C 2493.01 0.0203529 2.29191 0
M  V30 26829 C 2494.02 -0.725838 1.45724 0
M  V30 26830 O 2495.21 -0.573551 1.69034 0
M  V30 26831 C 2492.31 -0.995429 3.23951 0
M  V30 26832 C 2491.48 -0.315179 4.36263 0
M  V30 26833 C 2490.54 -1.23607 5.11476 0
M  V30 26834 O 2489.57 -0.721619 5.64607 0
M  V30 26835 N 2490.77 -2.56733 5.20642 0
M  V30 26836 H 2493.54 0.781702 2.89326 0
M  V30 26837 H 2491.1 0.561048 1.51868 0
M  V30 26838 H 2493.09 -1.61362 3.71139 0
M  V30 26839 H 2491.66 -1.65816 2.64998 0
M  V30 26840 H 2490.88 0.483175 3.91228 0
M  V30 26841 H 2492.17 0.157093 5.08557 0
M  V30 26842 H 2491.56 -3.01029 4.78955 0
M  V30 26843 H 2490.12 -3.13701 5.71345 0
M  V30 26844 N 2493.55 -1.50749 0.459618 0
M  V30 26845 C 2494.78 -2.0716 -0.0996455 0
M  V30 26846 C 2495.2 -1.32251 -1.33758 0
M  V30 26847 O 2494.56 -0.366818 -1.7755 0
M  V30 26848 C 2494.61 -3.58612 -0.378163 0
M  V30 26849 O 2493.71 -3.85663 -1.46074 0
M  V30 26850 H 2493.06 -0.663953 0.00792559 0
M  V30 26851 H 2495.59 -1.94089 0.647363 0
M  V30 26852 H 2495.6 -4.0323 -0.622064 0
M  V30 26853 H 2494.27 -4.12554 0.526512 0
M  V30 26854 H 2492.85 -3.52892 -1.20505 0
M  V30 26855 N 2495.03 -0.191784 -1.56429 0
M  V30 26856 C 2496.28 0.447856 -1.97485 0
M  V30 26857 C 2496.61 1.61857 -1.07855 0
M  V30 26858 O 2495.86 1.9535 -0.116938 0
M  V30 26859 C 2496.16 0.953323 -3.44451 0
M  V30 26860 C 2495.83 -0.103665 -4.50781 0
M  V30 26861 C 2494.49 -0.394107 -4.79583 0
M  V30 26862 C 2496.84 -0.820037 -5.14708 0
M  V30 26863 C 2494.17 -1.40595 -5.69605 0
M  V30 26864 C 2496.52 -1.82101 -6.05823 0
M  V30 26865 C 2495.19 -2.11868 -6.32983 0
M  V30 26866 H 2494.46 0.163882 -0.72265 0
M  V30 26867 H 2497.1 -0.288054 -1.89321 0
M  V30 26868 H 2495.41 1.76744 -3.49669 0
M  V30 26869 H 2497.1 1.45758 -3.73571 0
M  V30 26870 H 2493.69 0.132876 -4.28394 0
M  V30 26871 H 2497.88 -0.608875 -4.92551 0
M  V30 26872 H 2493.13 -1.64253 -5.88923 0
M  V30 26873 H 2497.31 -2.38135 -6.54419 0
M  V30 26874 H 2494.94 -2.9042 -7.02539 0
M  V30 26875 N 2496.51 1.57387 0.0818378 0
M  V30 26876 C 2497.46 2.02992 1.0983 0
M  V30 26877 C 2498.43 0.908663 1.39041 0
M  V30 26878 O 2499.61 1.17561 1.5028 0
M  V30 26879 C 2496.75 2.47041 2.40966 0
M  V30 26880 C 2495.87 3.72743 2.18372 0
M  V30 26881 C 2495 4.05616 3.43 0
M  V30 26882 C 2494.04 5.24389 3.15726 0
M  V30 26883 N 2493.18 5.52948 4.32657 0
M  V30 26884 H 2498.02 2.89603 0.702421 0
M  V30 26885 H 2495.55 1.43228 0.335285 0
M  V30 26886 H 2497.51 2.70628 3.17516 0
M  V30 26887 H 2496.14 1.63422 2.78376 0
M  V30 26888 H 2495.19 3.56555 1.32562 0
M  V30 26889 H 2496.51 4.59435 1.94219 0
M  V30 26890 H 2495.66 4.3005 4.27951 0
M  V30 26891 H 2494.4 3.17472 3.7022 0
M  V30 26892 H 2493.4 4.99761 2.29171 0
M  V30 26893 H 2494.63 6.14142 2.8984 0
M  V30 26894 H 2492.57 4.67764 4.59927 0
M  V30 26895 H 2492.49 6.34038 4.11742 0
M  V30 26896 H 2493.76 5.81927 5.18634 0
M  V30 26897 N 2497.99 -0.35299 1.53596 0
M  V30 26898 C 2498.95 -1.41591 1.80235 0
M  V30 26899 C 2499.95 -1.46034 0.673107 0
M  V30 26900 O 2501.14 -1.46574 0.941361 0
M  V30 26901 C 2498.27 -2.80604 1.93583 0
M  V30 26902 H 2499.47 -1.19239 2.75177 0
M  V30 26903 H 2497.02 -0.586846 1.44865 0
M  V30 26904 H 2497.75 -3.08253 1.00751 0
M  V30 26905 H 2497.54 -2.78776 2.75728 0
M  V30 26906 H 2499.03 -3.57555 2.15742 0
M  V30 26907 N 2499.47 -1.45169 -0.613489 0
M  V30 26908 C 2500.4 -1.56228 -1.73537 0
M  V30 26909 C 2501.38 -0.414169 -1.64981 0
M  V30 26910 O 2502.56 -0.636558 -1.83471 0
M  V30 26911 C 2499.69 -1.523 -3.12125 0
M  V30 26912 C 2498.65 -2.65768 -3.35487 0
M  V30 26913 C 2497.97 -2.46893 -4.74287 0
M  V30 26914 C 2499.27 -4.07816 -3.26318 0
M  V30 26915 H 2500.97 -2.50135 -1.64538 0
M  V30 26916 H 2498.51 -1.20384 -0.790164 0
M  V30 26917 H 2500.47 -1.58635 -3.90401 0
M  V30 26918 H 2499.19 -0.549195 -3.21949 0
M  V30 26919 H 2497.85 -2.58852 -2.59598 0
M  V30 26920 H 2497.5 -1.47665 -4.80837 0
M  V30 26921 H 2497.2 -3.22981 -4.90874 0
M  V30 26922 H 2498.72 -2.55073 -5.5477 0
M  V30 26923 H 2500.14 -4.16007 -3.94476 0
M  V30 26924 H 2498.53 -4.84247 -3.54437 0
M  V30 26925 H 2499.6 -4.3014 -2.23847 0
M  V30 26926 N 2500.95 0.855472 -1.32361 0
M  V30 26927 C 2502.36 1.42553 -1.20563 0
M  V30 26928 C 2502.71 1.95352 0.182175 0
M  V30 26929 O 2501.83 1.87474 1.08085 0
M  V30 26930 C 2502.43 2.59125 -2.18265 0
M  V30 26931 C 2500.99 3.12133 -2.10356 0
M  V30 26932 C 2500.13 1.84878 -2.06677 0
M  V30 26933 H 2503.08 0.662702 -1.44201 0
M  V30 26934 H 2503.11 3.36261 -1.7807 0
M  V30 26935 H 2502.62 2.20667 -3.19261 0
M  V30 26936 H 2500.72 3.55177 -1.12605 0
M  V30 26937 H 2500.83 3.73433 -3.00141 0
M  V30 26938 H 2499.2 2.04444 -1.51904 0
M  V30 26939 H 2499.98 1.48638 -3.09454 0
M  V30 26940 N 2502.42 1.15558 1.07164 0
M  V30 26941 C 2503.65 0.954165 1.83246 0
M  V30 26942 C 2504.06 -0.500879 1.8245 0
M  V30 26943 O 2503.4 -1.35921 1.23577 0
M  V30 26944 C 2503.47 1.39357 3.31391 0
M  V30 26945 C 2503.13 2.86672 3.55904 0
M  V30 26946 C 2504.13 3.84726 3.49688 0
M  V30 26947 C 2501.81 3.24385 3.83509 0
M  V30 26948 C 2503.81 5.18497 3.70728 0
M  V30 26949 C 2501.49 4.58328 4.04201 0
M  V30 26950 C 2502.49 5.55193 3.97806 0
M  V30 26951 O 2502.18 6.86717 4.17942 0
M  V30 26952 H 2501.91 0.338861 0.584935 0
M  V30 26953 H 2504.47 1.53779 1.36166 0
M  V30 26954 H 2502.7 0.753357 3.79291 0
M  V30 26955 H 2504.38 1.16096 3.88943 0
M  V30 26956 H 2505.15 3.56936 3.28362 0
M  V30 26957 H 2501.03 2.49574 3.876 0
M  V30 26958 H 2504.57 5.94091 3.65652 0
M  V30 26959 H 2500.47 4.85833 4.25014 0
M  V30 26960 H 2501.24 6.93163 4.35279 0
M  V30 26961 N 2503.9 -1.25546 0.952678 0
M  V30 26962 C 2505.15 -1.93493 0.607306 0
M  V30 26963 C 2505.48 -1.74453 -0.853214 0
M  V30 26964 O 2504.76 -1.08845 -1.61192 0
M  V30 26965 C 2505.04 -3.46945 0.964411 0
M  V30 26966 C 2504.89 -3.7522 2.48052 0
M  V30 26967 C 2506.21 -4.37385 0.488064 0
M  V30 26968 H 2503.33 -0.702735 0.222108 0
M  V30 26969 H 2505.97 -1.482 1.18898 0
M  V30 26970 H 2504.12 -3.85653 0.469429 0
M  V30 26971 H 2505.79 -3.4616 3.04911 0
M  V30 26972 H 2504.04 -3.20895 2.91906 0
M  V30 26973 H 2504.71 -4.82527 2.68089 0
M  V30 26974 H 2507.18 -4.05968 0.912629 0
M  V30 26975 H 2506.06 -5.4352 0.766643 0
M  V30 26976 H 2506.32 -4.37844 -0.611986 0
M  V30 26977 N 2505.38 -0.721022 -1.40139 0
M  V30 26978 C 2506.62 -0.26737 -2.02644 0
M  V30 26979 C 2506.98 1.11998 -1.5595 0
M  V30 26980 O 2508.18 1.67093 -2.10555 0
M  V30 26981 C 2506.46 -0.350344 -3.55679 0
M  V30 26982 S 2508.01 0.0255233 -4.38793 0
M  V30 26983 H 2504.83 -0.105676 -0.703103 0
M  V30 26984 H 2507.43 -0.944446 -1.71174 0
M  V30 26985 H 2506.14 -1.3616 -3.87155 0
M  V30 26986 H 2505.67 0.345027 -3.91884 0
M  V30 26987 H 2507.68 1.24596 -4.80302 0
M  V30 26988 N 2506.86 1.50503 -0.467606 0
M  V30 26989 C 2507.79 2.3132 0.318341 0
M  V30 26990 C 2508.77 1.38068 0.99354 0
M  V30 26991 O 2509.95 1.66989 0.991381 0
M  V30 26992 C 2507.08 3.17713 1.40269 0
M  V30 26993 C 2506.04 4.19489 0.849299 0
M  V30 26994 C 2505.36 4.94598 2.03168 0
M  V30 26995 C 2506.66 5.2212 -0.137034 0
M  V30 26996 H 2508.36 2.97274 -0.356158 0
M  V30 26997 H 2505.9 1.4296 -0.172728 0
M  V30 26998 H 2507.86 3.73045 1.95998 0
M  V30 26999 H 2506.58 2.49637 2.10591 0
M  V30 27000 H 2505.24 3.65253 0.314012 0
M  V30 27001 H 2504.89 4.22998 2.7218 0
M  V30 27002 H 2504.59 5.63439 1.66764 0
M  V30 27003 H 2506.11 5.52763 2.59394 0
M  V30 27004 H 2507.53 5.72344 0.330956 0
M  V30 27005 H 2505.92 5.98662 -0.415175 0
M  V30 27006 H 2506.99 4.73081 -1.06406 0
M  V30 27007 N 2508.34 0.200077 1.56325 0
M  V30 27008 C 2509.27 -0.713877 2.2232 0
M  V30 27009 C 2510.25 -1.2175 1.1879 0
M  V30 27010 O 2511.43 -1.26543 1.47311 0
M  V30 27011 C 2508.56 -1.93139 2.88643 0
M  V30 27012 C 2507.52 -1.56248 3.9846 0
M  V30 27013 C 2506.84 -2.85701 4.51972 0
M  V30 27014 C 2508.14 -0.768656 5.16613 0
M  V30 27015 H 2509.84 -0.163702 2.98952 0
M  V30 27016 H 2507.38 -0.0772966 1.43792 0
M  V30 27017 H 2509.33 -2.57602 3.33495 0
M  V30 27018 H 2508.06 -2.50618 2.09424 0
M  V30 27019 H 2506.72 -0.941409 3.54306 0
M  V30 27020 H 2506.37 -3.4128 3.69509 0
M  V30 27021 H 2506.07 -2.61761 5.26075 0
M  V30 27022 H 2507.59 -3.51145 4.99529 0
M  V30 27023 H 2509 -1.3165 5.57979 0
M  V30 27024 H 2507.4 -0.627181 5.96814 0
M  V30 27025 H 2508.47 0.229253 4.84358 0
M  V30 27026 N 2509.81 -1.57429 -0.0734901 0
M  V30 27027 C 2511.06 -1.8635 -0.771777 0
M  V30 27028 C 2511.38 -0.792484 -1.78827 0
M  V30 27029 O 2512.58 -0.969494 -2.536 0
M  V30 27030 C 2511.04 -3.30551 -1.42352 0
M  V30 27031 C 2510.65 -4.45778 -0.445683 0
M  V30 27032 C 2512.39 -3.68674 -2.10427 0
M  V30 27033 C 2510.3 -5.81018 -1.10325 0
M  V30 27034 H 2509.23 -0.695169 -0.291987 0
M  V30 27035 H 2511.88 -1.83483 -0.0250427 0
M  V30 27036 H 2510.26 -3.28025 -2.21846 0
M  V30 27037 H 2511.43 -4.59692 0.319319 0
M  V30 27038 H 2509.75 -4.16195 0.13053 0
M  V30 27039 H 2512.35 -4.67009 -2.60397 0
M  V30 27040 H 2512.69 -2.98388 -2.90293 0
M  V30 27041 H 2513.22 -3.73182 -1.37767 0
M  V30 27042 H 2509.96 -6.54592 -0.344946 0
M  V30 27043 H 2509.48 -5.70907 -1.83915 0
M  V30 27044 H 2511.16 -6.26298 -1.62356 0
M  V30 27045 N 2511.29 0.344839 -1.53781 0
M  V30 27046 C 2512.25 1.40633 -1.80983 0
M  V30 27047 C 2513.25 1.45675 -0.680842 0
M  V30 27048 O 2514.44 1.46073 -0.949121 0
M  V30 27049 C 2511.58 2.79573 -1.95068 0
M  V30 27050 H 2512.77 1.17778 -2.75805 0
M  V30 27051 H 2510.32 0.579155 -1.45174 0
M  V30 27052 H 2511.06 3.07714 -1.02385 0
M  V30 27053 H 2510.84 2.7731 -2.77203 0
M  V30 27054 H 2512.33 3.56405 -2.17635 0
M  V30 27055 N 2512.77 1.45492 0.605781 0
M  V30 27056 C 2513.7 1.48794 1.73019 0
M  V30 27057 C 2514.68 0.34414 1.58916 0
M  V30 27058 O 2515.86 0.544908 1.80452 0
M  V30 27059 C 2512.99 1.34469 3.10863 0
M  V30 27060 C 2512.04 2.52737 3.4355 0
M  V30 27061 S 2512.87 4.15197 3.38189 0
M  V30 27062 C 2514.03 4.03341 4.78609 0
M  V30 27063 H 2514.26 2.43931 1.69956 0
M  V30 27064 H 2511.79 1.33097 0.782587 0
M  V30 27065 H 2513.75 1.26891 3.90396 0
M  V30 27066 H 2512.41 0.407995 3.11439 0
M  V30 27067 H 2511.6 2.38644 4.4392 0
M  V30 27068 H 2511.21 2.57185 2.71536 0
M  V30 27069 H 2513.5 3.68597 5.68456 0
M  V30 27070 H 2514.44 5.03629 4.97758 0
M  V30 27071 H 2514.85 3.34967 4.54375 0
M  V30 27072 N 2514.25 -0.848441 1.32813 0
M  V30 27073 C 2515.18 -1.97297 1.24885 0
M  V30 27074 C 2516.16 -1.69592 0.131386 0
M  V30 27075 O 2517.34 -1.91552 0.319586 0
M  V30 27076 C 2514.47 -3.33259 0.977518 0
M  V30 27077 C 2513.43 -3.75335 2.05689 0
M  V30 27078 C 2512.75 -5.08997 1.63786 0
M  V30 27079 C 2514.05 -3.90137 3.47261 0
M  V30 27080 H 2515.75 -2.04187 2.1897 0
M  V30 27081 H 2513.29 -0.98101 1.05414 0
M  V30 27082 H 2515.25 -4.11488 0.908585 0
M  V30 27083 H 2513.97 -3.266 0.00103742 0
M  V30 27084 H 2512.63 -2.99362 2.11608 0
M  V30 27085 H 2512.28 -4.988 0.648656 0
M  V30 27086 H 2511.98 -5.3812 2.36009 0
M  V30 27087 H 2513.5 -5.89712 1.58341 0
M  V30 27088 H 2514.92 -4.58703 3.43896 0
M  V30 27089 H 2513.31 -4.30685 4.17888 0
M  V30 27090 H 2514.38 -2.92867 3.86467 0
M  V30 27091 N 2515.73 -1.16125 -1.06549 0
M  V30 27092 C 2516.97 -0.941158 -1.793 0
M  V30 27093 C 2517.3 0.531202 -1.87106 0
M  V30 27094 O 2516.56 1.41016 -1.35695 0
M  V30 27095 C 2516.86 -1.51057 -3.23908 0
M  V30 27096 C 2516.52 -3.00481 -3.36187 0
M  V30 27097 C 2515.18 -3.41271 -3.39246 0
M  V30 27098 C 2517.54 -3.96471 -3.38319 0
M  V30 27099 C 2514.86 -4.76675 -3.42049 0
M  V30 27100 C 2517.22 -5.31758 -3.4266 0
M  V30 27101 C 2515.88 -5.72032 -3.44 0
M  V30 27102 H 2515.15 -0.344394 -0.656105 0
M  V30 27103 H 2517.8 -1.44798 -1.25322 0
M  V30 27104 H 2516.1 -0.925129 -3.80721 0
M  V30 27105 H 2517.8 -1.31599 -3.78791 0
M  V30 27106 H 2514.39 -2.67956 -3.34511 0
M  V30 27107 H 2518.57 -3.66026 -3.3517 0
M  V30 27108 H 2513.83 -5.07212 -3.41389 0
M  V30 27109 H 2518 -6.05927 -3.43257 0
M  V30 27110 H 2515.63 -6.76934 -3.45925 0
M  V30 27111 N 2517.2 1.25039 -0.959323 0
M  V30 27112 C 2518.45 1.92883 -0.616645 0
M  V30 27113 C 2518.78 1.75089 0.847006 0
M  V30 27114 O 2518.03 1.09242 1.62372 0
M  V30 27115 C 2518.33 3.45163 -0.927197 0
M  V30 27116 C 2518 3.83118 -2.37764 0
M  V30 27117 C 2516.66 3.93189 -2.77408 0
M  V30 27118 C 2519.01 4.01831 -3.31936 0
M  V30 27119 C 2516.34 4.19385 -4.10285 0
M  V30 27120 C 2518.69 4.2952 -4.6443 0
M  V30 27121 C 2517.36 4.37809 -5.03865 0
M  V30 27122 H 2516.63 0.705808 -0.225646 0
M  V30 27123 H 2519.27 1.48491 -1.20924 0
M  V30 27124 H 2517.58 3.90987 -0.252263 0
M  V30 27125 H 2519.28 3.95851 -0.640569 0
M  V30 27126 H 2515.87 3.75838 -2.0602 0
M  V30 27127 H 2520.05 3.9346 -3.02495 0
M  V30 27128 H 2515.31 4.24019 -4.40474 0
M  V30 27129 H 2519.48 4.42944 -5.37377 0
M  V30 27130 H 2517.11 4.5786 -6.06851 0
M  V30 27131 N 2518.68 0.728444 1.39755 0
M  V30 27132 C 2519.93 0.270443 1.99879 0
M  V30 27133 C 2520.24 -1.14685 1.58451 0
M  V30 27134 O 2521.45 -1.70403 2.11365 0
M  V30 27135 C 2519.91 0.432583 3.57291 0
M  V30 27136 C 2519.51 1.85734 4.07685 0
M  V30 27137 C 2521.26 0.0360253 4.24485 0
M  V30 27138 C 2519.17 1.96938 5.57646 0
M  V30 27139 H 2518.1 0.0973603 0.747688 0
M  V30 27140 H 2520.75 0.901384 1.59835 0
M  V30 27141 H 2519.13 -0.26715 3.95098 0
M  V30 27142 H 2520.3 2.58849 3.81226 0
M  V30 27143 H 2518.62 2.20652 3.53131 0
M  V30 27144 H 2521.21 0.0988423 5.34609 0
M  V30 27145 H 2521.56 -1.0078 4.03917 0
M  V30 27146 H 2522.09 0.686673 3.91829 0
M  V30 27147 H 2518.83 2.99486 5.83085 0
M  V30 27148 H 2518.35 1.28251 5.85928 0
M  V30 27149 H 2520.03 1.74748 6.22954 0
M  V30 27150 N 2520.16 -1.50253 0.475581 0
M  V30 27151 C 2521.39 -2.06463 -0.0753036 0
M  V30 27152 C 2521.8 -1.3391 -1.33659 0
M  V30 27153 O 2521.14 -0.403288 -1.79219 0
M  V30 27154 C 2521.2 -3.56981 -0.424858 0
M  V30 27155 C 2520.87 -4.5105 0.735045 0
M  V30 27156 C 2521.86 -4.9407 1.61836 0
M  V30 27157 C 2519.55 -4.93679 0.926644 0
M  V30 27158 C 2521.54 -5.7843 2.67764 0
M  V30 27159 C 2519.23 -5.7782 1.98914 0
M  V30 27160 C 2520.23 -6.20098 2.86301 0
M  V30 27161 O 2519.92 -7.02561 3.90721 0
M  V30 27162 H 2519.65 -0.675975 0.00577496 0
M  V30 27163 H 2522.2 -1.94347 0.664696 0
M  V30 27164 H 2520.43 -3.67014 -1.21811 0
M  V30 27165 H 2522.12 -3.95537 -0.911353 0
M  V30 27166 H 2522.89 -4.61801 1.48204 0
M  V30 27167 H 2518.77 -4.60289 0.255921 0
M  V30 27168 H 2522.31 -6.11349 3.36003 0
M  V30 27169 H 2518.21 -6.09502 2.12551 0
M  V30 27170 H 2518.98 -7.2082 3.87764 0
M  V30 27171 N 2521.64 -0.208365 -1.56217 0
M  V30 27172 C 2522.6 0.693518 -2.18456 0
M  V30 27173 C 2523.6 1.13133 -1.1427 0
M  V30 27174 O 2524.79 1.04227 -1.39579 0
M  V30 27175 C 2521.92 1.94843 -2.7973 0
M  V30 27176 H 2523.12 0.151088 -2.99519 0
M  V30 27177 H 2520.67 0.0412595 -1.56246 0
M  V30 27178 H 2521.4 2.53306 -2.02501 0
M  V30 27179 H 2521.19 1.6431 -3.56012 0
M  V30 27180 H 2522.68 2.59128 -3.27479 0
M  V30 27181 N 2523.12 1.57465 0.0651402 0
M  V30 27182 C 2524.37 1.86757 0.761883 0
M  V30 27183 C 2524.68 0.801956 1.78404 0
M  V30 27184 O 2525.88 0.98293 2.53082 0
M  V30 27185 C 2524.34 3.31301 1.40597 0
M  V30 27186 C 2523.95 4.46008 0.422036 0
M  V30 27187 C 2525.69 3.69785 2.08469 0
M  V30 27188 C 2523.6 5.81595 1.07242 0
M  V30 27189 H 2522.53 0.696707 0.288296 0
M  V30 27190 H 2525.18 1.83494 0.0153118 0
M  V30 27191 H 2523.56 3.29197 2.20103 0
M  V30 27192 H 2524.74 4.59516 -0.343694 0
M  V30 27193 H 2523.05 4.1612 -0.1526 0
M  V30 27194 H 2525.65 4.68383 2.57917 0
M  V30 27195 H 2525.99 2.99924 2.88707 0
M  V30 27196 H 2526.52 3.73908 1.35786 0
M  V30 27197 H 2523.26 6.54765 0.310227 0
M  V30 27198 H 2522.78 5.71875 1.80885 0
M  V30 27199 H 2524.46 6.2715 1.59032 0
M  V30 27200 N 2524.59 -0.336679 1.53962 0
M  V30 27201 C 2525.84 -1.0736 1.70753 0
M  V30 27202 C 2526.16 -1.89591 0.481094 0
M  V30 27203 O 2527.36 -2.66275 0.530093 0
M  V30 27204 C 2525.82 -1.95813 3.01969 0
M  V30 27205 C 2525.43 -1.18756 4.31973 0
M  V30 27206 C 2527.17 -2.69321 3.28126 0
M  V30 27207 C 2525.08 -2.06279 5.54259 0
M  V30 27208 H 2524.01 -0.404523 0.636299 0
M  V30 27209 H 2526.66 -0.332649 1.8046 0
M  V30 27210 H 2525.04 -2.73755 2.86136 0
M  V30 27211 H 2526.21 -0.456768 4.58531 0
M  V30 27212 H 2524.53 -0.569873 4.12482 0
M  V30 27213 H 2527.13 -3.35087 4.16678 0
M  V30 27214 H 2527.47 -3.36257 2.45432 0
M  V30 27215 H 2528 -1.98448 3.44765 0
M  V30 27216 H 2524.74 -1.43873 6.39516 0
M  V30 27217 H 2524.26 -2.77128 5.3194 0
M  V30 27218 H 2525.94 -2.65172 5.90163 0
M  V30 27219 N 2526.07 -1.45812 -0.598057 0
M  V30 27220 C 2527.32 -1.50028 -1.3541 0
M  V30 27221 C 2527.64 -0.147211 -1.94444 0
M  V30 27222 O 2526.91 0.82454 -1.77702 0
M  V30 27223 H 2525.49 -0.552526 -0.502717 0
M  V30 27224 H 2528.15 -1.81835 -0.701574 0
M  V30 27225 H 2527.25 -2.24444 -2.16867 0
M  V30 27226 N 2527.55 0.841385 -1.33261 0
M  V30 27227 C 2528.48 1.95539 -1.17643 0
M  V30 27228 C 2529.46 1.62438 -0.0725295 0
M  V30 27229 O 2530.65 1.87038 -0.234303 0
M  V30 27230 C 2527.77 3.29023 -0.803852 0
M  V30 27231 C 2526.82 3.81096 -1.91489 0
M  V30 27232 S 2527.65 4.03079 -3.52545 0
M  V30 27233 C 2528.81 5.39517 -3.17288 0
M  V30 27234 H 2529.04 2.08487 -2.11944 0
M  V30 27235 H 2526.57 0.994879 -1.18074 0
M  V30 27236 H 2528.53 4.06155 -0.595663 0
M  V30 27237 H 2527.19 3.13869 0.120519 0
M  V30 27238 H 2526.39 4.77677 -1.60751 0
M  V30 27239 H 2525.99 3.10851 -2.07961 0
M  V30 27240 H 2528.28 6.22258 -2.67957 0
M  V30 27241 H 2529.22 5.75227 -4.1294 0
M  V30 27242 H 2529.63 5.04151 -2.53952 0
M  V30 27243 N 2529.03 1.16688 1.05932 0
M  V30 27244 C 2529.96 0.834541 2.13467 0
M  V30 27245 C 2530.97 -0.159812 1.62014 0
M  V30 27246 O 2532.16 0.0654542 1.7838 0
M  V30 27247 C 2529.26 0.22242 3.38169 0
M  V30 27248 C 2528.44 1.25778 4.18926 0
M  V30 27249 C 2527.5 0.664794 5.21984 0
M  V30 27250 O 2526.52 1.33462 5.53332 0
M  V30 27251 N 2527.72 -0.546732 5.7792 0
M  V30 27252 H 2530.49 1.76004 2.42575 0
M  V30 27253 H 2528.05 1.06471 1.21965 0
M  V30 27254 H 2530.04 -0.187401 4.04266 0
M  V30 27255 H 2528.61 -0.606704 3.06656 0
M  V30 27256 H 2527.83 1.84364 3.4843 0
M  V30 27257 H 2529.12 1.95639 4.69684 0
M  V30 27258 H 2528.52 -1.10903 5.54723 0
M  V30 27259 H 2527.07 -0.898715 6.45574 0
M  V30 27260 N 2530.51 -1.24529 0.96594 0
M  V30 27261 C 2531.75 -1.92838 0.627794 0
M  V30 27262 C 2532.09 -1.75348 -0.834663 0
M  V30 27263 O 2531.36 -1.10549 -1.60029 0
M  V30 27264 C 2531.64 -3.45903 1.00115 0
M  V30 27265 C 2531.5 -3.72568 2.52018 0
M  V30 27266 C 2532.82 -4.36843 0.534427 0
M  V30 27267 H 2529.94 -0.70034 0.229549 0
M  V30 27268 H 2532.58 -1.46931 1.20463 0
M  V30 27269 H 2530.73 -3.85134 0.510306 0
M  V30 27270 H 2532.4 -3.42907 3.08565 0
M  V30 27271 H 2530.64 -3.17781 2.95293 0
M  V30 27272 H 2531.31 -4.79657 2.73191 0
M  V30 27273 H 2533.79 -4.04978 0.955636 0
M  V30 27274 H 2532.67 -5.42676 0.824247 0
M  V30 27275 H 2532.93 -4.38468 -0.565512 0
M  V30 27276 N 2531.99 -0.735845 -1.39367 0
M  V30 27277 C 2533.23 -0.284159 -2.00496 0
M  V30 27278 C 2533.56 1.12886 -1.58389 0
M  V30 27279 O 2532.82 1.78404 -0.80439 0
M  V30 27280 C 2533.11 -0.334714 -3.55829 0
M  V30 27281 C 2532.78 -1.70087 -4.1759 0
M  V30 27282 C 2531.44 -2.07479 -4.34173 0
M  V30 27283 C 2533.79 -2.59783 -4.51843 0
M  V30 27284 C 2531.12 -3.34074 -4.82298 0
M  V30 27285 C 2533.47 -3.8575 -5.01378 0
M  V30 27286 C 2532.14 -4.23234 -5.16168 0
M  V30 27287 H 2531.41 -0.103981 -0.733668 0
M  V30 27288 H 2534.06 -0.942854 -1.66681 0
M  V30 27289 H 2532.36 0.407557 -3.89675 0
M  V30 27290 H 2534.06 0.0329222 -4.00986 0
M  V30 27291 H 2530.65 -1.40016 -4.05085 0
M  V30 27292 H 2534.83 -2.32165 -4.38649 0
M  V30 27293 H 2530.09 -3.63057 -4.91934 0
M  V30 27294 H 2534.26 -4.55409 -5.26855 0
M  V30 27295 H 2531.89 -5.21394 -5.5322 0
M  V30 27296 N 2533.46 1.49999 -0.483543 0
M  V30 27297 C 2534.71 2.01989 0.0669915 0
M  V30 27298 C 2535.03 1.36673 1.39088 0
M  V30 27299 O 2534.3 0.516185 1.88977 0
M  V30 27300 H 2532.88 0.746484 0.0277475 0
M  V30 27301 H 2535.54 1.84203 -0.636805 0
M  V30 27302 H 2534.64 3.11397 0.209429 0
M  V30 27303 N 2534.94 0.216646 1.56104 0
M  V30 27304 C 2535.89 -0.711997 2.21435 0
M  V30 27305 C 2536.88 -1.20345 1.1922 0
M  V30 27306 O 2538.09 -1.16385 1.37312 0
M  V30 27307 H 2534.46 -0.248014 0.709925 0
M  V30 27308 H 2536.44 -0.137506 2.98083 0
M  V30 27309 C 2535.18 -1.91158 2.90438 0
M  V30 27310 H 2534.51 -1.54251 3.68845 0
M  V30 27311 H 2535.95 -2.53924 3.39557 0
M  V30 27312 C 2534.41 -2.7639 1.9264 0
M  V30 27313 O 2534.94 -3.74993 1.44024 0
M  V30 27314 N 2533.14 -2.42325 1.60396 0
M  V30 27315 H 2532.69 -1.62197 2.00125 0
M  V30 27316 H 2532.65 -2.99634 0.952212 0
M  V30 27317 N 2536.42 -1.57498 -0.0567885 0
M  V30 27318 C 2537.67 -1.87159 -0.751968 0
M  V30 27319 C 2537.98 -0.811406 -1.77976 0
M  V30 27320 O 2539.19 -0.996338 -2.52558 0
M  V30 27321 C 2537.64 -3.32042 -1.38838 0
M  V30 27322 C 2537.25 -4.46225 -0.398377 0
M  V30 27323 C 2539 -3.70885 -2.06505 0
M  V30 27324 C 2536.9 -5.82156 -1.04156 0
M  V30 27325 H 2535.83 -0.698227 -0.284597 0
M  V30 27326 H 2538.48 -1.83499 -0.00558046 0
M  V30 27327 H 2536.87 -3.3036 -2.18354 0
M  V30 27328 H 2538.04 -4.59328 0.368058 0
M  V30 27329 H 2536.35 -4.16034 0.174665 0
M  V30 27330 H 2538.95 -4.69745 -2.55429 0
M  V30 27331 H 2539.29 -3.0145 -2.87112 0
M  V30 27332 H 2539.83 -3.74623 -1.33801 0
M  V30 27333 H 2536.57 -6.54921 -0.275498 0
M  V30 27334 H 2536.09 -5.72826 -1.7785 0
M  V30 27335 H 2537.77 -6.27985 -1.55704 0
M  V30 27336 N 2537.9 0.328509 -1.54138 0
M  V30 27337 C 2539.15 1.06493 -1.71766 0
M  V30 27338 C 2539.47 1.88704 -0.491523 0
M  V30 27339 O 2538.74 1.89556 0.494506 0
M  V30 27340 H 2537.32 0.396153 -0.633302 0
M  V30 27341 H 2539.98 0.366143 -1.9143 0
M  V30 27342 H 2539.07 1.73377 -2.59513 0
M  V30 27343 N 2539.38 1.46127 0.590316 0
M  V30 27344 C 2540.62 1.50311 1.34497 0
M  V30 27345 C 2540.94 0.156055 1.94976 0
M  V30 27346 O 2542.14 0.0756514 2.71395 0
M  V30 27347 C 2540.6 2.64819 2.43718 0
M  V30 27348 C 2540.21 4.05913 1.89575 0
M  V30 27349 C 2541.95 2.78267 3.20574 0
M  V30 27350 C 2539.86 5.11774 2.96381 0
M  V30 27351 H 2538.79 0.559377 0.505583 0
M  V30 27352 H 2541.44 1.72316 0.630818 0
M  V30 27353 H 2539.82 2.3613 3.17897 0
M  V30 27354 H 2541 4.44359 1.2199 0
M  V30 27355 H 2539.31 3.97066 1.25411 0
M  V30 27356 H 2541.91 3.54526 4.00269 0
M  V30 27357 H 2542.25 1.85512 3.72681 0
M  V30 27358 H 2542.78 3.06566 2.53499 0
M  V30 27359 H 2539.52 6.06296 2.4917 0
M  V30 27360 H 2539.04 4.7788 3.62479 0
M  V30 27361 H 2540.72 5.37284 3.60465 0
M  V30 27362 N 2540.85 -0.834306 1.33705 0
M  V30 27363 C 2542.13 -1.57481 1.16014 0
M  V30 27364 C 2542.51 -2.09344 -0.271723 0
M  V30 27365 O 2541.86 -1.8986 -1.27143 0
M  V30 27366 C 2542.07 -2.7051 2.20512 0
M  V30 27367 C 2543.42 -3.39572 2.54904 0
M  V30 27368 O 2544.44 -2.80755 2.19214 0
M  V30 27369 O 2543.3 -4.45759 3.16166 0
M  V30 27370 H 2540.39 -0.694495 0.449004 0
M  V30 27371 H 2542.94 -0.876666 1.45302 0
M  V30 27372 H 2541.71 -2.29859 3.16671 0
M  V30 27373 H 2541.33 -3.47984 1.92335 0
M  V30 27374 N 2542.33 -1.17248 -1.05312 0
M  V30 27375 C 2543.58 -0.961544 -1.78556 0
M  V30 27376 C 2543.91 0.508664 -1.8742 0
M  V30 27377 O 2543.19 1.37755 -1.37309 0
M  V30 27378 C 2543.47 -1.60182 -3.22512 0
M  V30 27379 C 2543.32 -3.14405 -3.21667 0
M  V30 27380 C 2544.64 -1.30471 -4.20316 0
M  V30 27381 H 2541.76 -0.350734 -0.648193 0
M  V30 27382 H 2544.4 -1.44729 -1.231 0
M  V30 27383 H 2542.55 -1.18878 -3.69865 0
M  V30 27384 H 2544.22 -3.64758 -2.82399 0
M  V30 27385 H 2542.47 -3.47218 -2.60042 0
M  V30 27386 H 2543.14 -3.54332 -4.23265 0
M  V30 27387 H 2545.61 -1.66235 -3.81451 0
M  V30 27388 H 2544.49 -1.77857 -5.19286 0
M  V30 27389 H 2544.75 -0.225287 -4.41526 0
M  V30 27390 N 2543.81 1.24015 -0.972531 0
M  V30 27391 C 2544.72 2.28892 -0.51434 0
M  V30 27392 C 2545.74 1.68678 0.427048 0
M  V30 27393 O 2546.91 1.9917 0.298904 0
M  V30 27394 C 2543.98 3.46214 0.183537 0
M  V30 27395 C 2543.04 4.21813 -0.798276 0
M  V30 27396 C 2542.27 5.33533 -0.133608 0
M  V30 27397 O 2542.49 5.60139 1.07704 0
M  V30 27398 O 2541.43 5.96175 -0.828208 0
M  V30 27399 H 2545.25 2.70212 -1.38633 0
M  V30 27400 H 2542.84 1.29798 -0.739792 0
M  V30 27401 H 2544.72 4.17454 0.57536 0
M  V30 27402 H 2543.4 3.06862 1.03042 0
M  V30 27403 H 2542.3 3.52929 -1.24065 0
M  V30 27404 H 2543.64 4.64994 -1.61372 0
M  V30 27405 N 2545.29 0.743226 1.38974 0
M  V30 27406 C 2546.57 0.220739 1.9435 0
M  V30 27407 C 2546.95 -1.27907 1.67937 0
M  V30 27408 O 2546.29 -2.04861 1.01215 0
M  V30 27409 C 2546.5 0.563231 3.44425 0
M  V30 27410 C 2547.85 0.517121 4.21439 0
M  V30 27411 O 2548.88 0.500908 3.5266 0
M  V30 27412 O 2547.73 0.518901 5.44031 0
M  V30 27413 H 2544.83 0.0430616 0.825878 0
M  V30 27414 H 2547.37 0.822644 1.48427 0
M  V30 27415 H 2546.15 1.59947 3.57117 0
M  V30 27416 H 2545.77 -0.0672184 3.97543 0
M  V30 27417 N 2546.77 -1.4974 0.491491 0
M  V30 27418 C 2547.68 -2.32715 -0.296794 0
M  V30 27419 C 2548.69 -1.44015 -0.97651 0
M  V30 27420 O 2549.87 -1.77048 -0.959992 0
M  V30 27421 C 2546.93 -3.19217 -1.35283 0
M  V30 27422 C 2545.99 -4.23758 -0.687557 0
M  V30 27423 C 2545.23 -5.06126 -1.69328 0
M  V30 27424 O 2545.45 -4.89866 -2.92211 0
M  V30 27425 O 2544.38 -5.88696 -1.25384 0
M  V30 27426 H 2548.21 -3.01287 0.382101 0
M  V30 27427 H 2545.8 -1.47243 0.252979 0
M  V30 27428 H 2547.68 -3.72831 -1.96404 0
M  V30 27429 H 2546.35 -2.53351 -2.01482 0
M  V30 27430 H 2545.26 -3.74082 -0.0368502 0
M  V30 27431 H 2546.59 -4.92153 -0.0681701 0
M  V30 27432 N 2548.24 -0.224922 -1.55987 0
M  V30 27433 C 2549.52 0.455049 -1.90233 0
M  V30 27434 C 2549.9 1.77497 -1.14272 0
M  V30 27435 O 2549.25 2.27094 -0.253119 0
M  V30 27436 C 2549.46 0.644698 -3.42994 0
M  V30 27437 C 2550.81 0.950596 -4.13822 0
M  V30 27438 O 2551.83 0.731362 -3.48611 0
M  V30 27439 O 2550.69 1.36685 -5.29131 0
M  V30 27440 H 2547.78 0.24107 -0.791084 0
M  V30 27441 H 2550.33 -0.267357 -1.67581 0
M  V30 27442 H 2549.1 -0.286199 -3.90252 0
M  V30 27443 H 2548.73 1.41847 -3.71437 0
M  V30 27444 N 2549.72 1.57526 0.0484352 0
M  V30 27445 C 2550.95 1.93007 0.759143 0
M  V30 27446 C 2551.37 0.823347 1.69123 0
M  V30 27447 O 2550.73 -0.222332 1.79932 0
M  V30 27448 C 2550.78 3.27511 1.50893 0
M  V30 27449 O 2549.88 3.18393 2.62106 0
M  V30 27450 H 2549.22 0.631383 0.205553 0
M  V30 27451 H 2551.75 2.04598 0.00969363 0
M  V30 27452 H 2551.76 3.61943 1.88311 0
M  V30 27453 H 2550.44 4.07631 0.825197 0
M  V30 27454 H 2549.02 2.9556 2.27374 0
M  V30 27455 N 2551.2 -0.32033 1.5431 0
M  V30 27456 C 2552.48 -1.07632 1.63324 0
M  V30 27457 C 2552.86 -2.05821 0.469156 0
M  V30 27458 O 2552.21 -2.22119 -0.536235 0
M  V30 27459 C 2552.42 -1.77539 3.00468 0
M  V30 27460 C 2553.76 -2.30442 3.56625 0
M  V30 27461 O 2554.79 -1.87601 3.02794 0
M  V30 27462 O 2553.65 -3.08884 4.50836 0
M  V30 27463 H 2550.74 -0.496319 0.66151 0
M  V30 27464 H 2553.29 -0.319963 1.66656 0
M  V30 27465 H 2552.06 -1.06136 3.76631 0
M  V30 27466 H 2551.68 -2.59977 3.00829 0
M  V30 27467 N 2552.68 -1.46438 -0.582558 0
M  V30 27468 C 2553.59 -1.59598 -1.71946 0
M  V30 27469 C 2554.6 -0.479473 -1.67263 0
M  V30 27470 O 2555.78 -0.743612 -1.87169 0
M  V30 27471 C 2552.85 -1.58304 -3.08449 0
M  V30 27472 C 2551.91 -2.81188 -3.24395 0
M  V30 27473 C 2551.14 -2.79945 -4.54386 0
M  V30 27474 O 2551.36 -1.88699 -5.38283 0
M  V30 27475 O 2550.3 -3.71489 -4.73582 0
M  V30 27476 H 2554.12 -2.55747 -1.6379 0
M  V30 27477 H 2551.71 -1.29233 -0.74962 0
M  V30 27478 H 2553.59 -1.60278 -3.89729 0
M  V30 27479 H 2552.26 -0.65315 -3.17042 0
M  V30 27480 H 2551.17 -2.84767 -2.42608 0
M  V30 27481 H 2552.5 -3.73386 -3.20693 0
M  V30 27482 N 2554.16 0.827204 -1.34146 0
M  V30 27483 C 2555.43 1.56863 -1.16847 0
M  V30 27484 C 2555.81 2.09485 0.260617 0
M  V30 27485 O 2555.16 1.90532 1.26134 0
M  V30 27486 C 2555.37 2.69336 -2.21943 0
M  V30 27487 C 2556.72 3.38216 -2.56701 0
M  V30 27488 O 2557.74 2.79589 -2.207 0
M  V30 27489 O 2556.6 4.44076 -3.18526 0
M  V30 27490 H 2553.7 0.692105 -0.452681 0
M  V30 27491 H 2556.24 0.868948 -1.45765 0
M  V30 27492 H 2555.01 2.28176 -3.17886 0
M  V30 27493 H 2554.64 3.46959 -1.94178 0
M  V30 27494 N 2555.63 1.17805 1.04688 0
M  V30 27495 C 2556.54 0.914189 2.16055 0
M  V30 27496 C 2557.56 -0.119472 1.73589 0
M  V30 27497 O 2558.74 0.0609822 2.01308 0
M  V30 27498 C 2555.8 0.436663 3.43939 0
M  V30 27499 C 2554.86 1.53753 4.00822 0
M  V30 27500 C 2554.1 1.0827 5.22603 0
M  V30 27501 O 2554.32 -0.0611242 5.70367 0
M  V30 27502 O 2553.25 1.87785 5.71857 0
M  V30 27503 H 2557.08 1.84588 2.41166 0
M  V30 27504 H 2554.66 0.959354 1.14528 0
M  V30 27505 H 2556.55 0.178131 4.21023 0
M  V30 27506 H 2555.22 -0.466813 3.20316 0
M  V30 27507 H 2554.13 1.85 3.25155 0
M  V30 27508 H 2555.46 2.4169 4.28774 0
M  V30 27509 N 2557.11 -1.23497 0.979094 0
M  V30 27510 C 2558.36 -1.91877 0.647253 0
M  V30 27511 C 2558.69 -1.76414 -0.819043 0
M  V30 27512 O 2557.94 -1.11811 -1.60614 0
M  V30 27513 C 2558.24 -3.43645 0.981992 0
M  V30 27514 C 2557.91 -3.79287 2.43829 0
M  V30 27515 C 2556.57 -3.88726 2.83629 0
M  V30 27516 C 2558.92 -3.96499 3.38287 0
M  V30 27517 C 2556.25 -4.12804 4.16905 0
M  V30 27518 C 2558.6 -4.22077 4.71205 0
M  V30 27519 C 2557.27 -4.29738 5.10766 0
M  V30 27520 H 2556.54 -0.702129 0.236847 0
M  V30 27521 H 2559.18 -1.46549 1.23271 0
M  V30 27522 H 2557.49 -3.90536 0.314434 0
M  V30 27523 H 2559.18 -3.94781 0.703465 0
M  V30 27524 H 2555.77 -3.72512 2.11973 0
M  V30 27525 H 2559.96 -3.88597 3.08716 0
M  V30 27526 H 2555.21 -4.16958 4.47164 0
M  V30 27527 H 2559.39 -4.34339 5.44355 0
M  V30 27528 H 2557.02 -4.48148 6.14058 0
M  V30 27529 N 2558.59 -0.750586 -1.38578 0
M  V30 27530 C 2559.52 -0.0811117 -2.29056 0
M  V30 27531 C 2560.54 0.686947 -1.47597 0
M  V30 27532 O 2561.73 0.528533 -1.70496 0
M  V30 27533 C 2558.83 0.909189 -3.26477 0
M  V30 27534 C 2558 0.199401 -4.36945 0
M  V30 27535 C 2557.06 1.10002 -5.14574 0
M  V30 27536 O 2556.08 0.57167 -5.66322 0
M  V30 27537 N 2557.29 2.42839 -5.27266 0
M  V30 27538 H 2560.05 -0.858137 -2.87152 0
M  V30 27539 H 2557.61 -0.601116 -1.50327 0
M  V30 27540 H 2559.6 1.51465 -3.75287 0
M  V30 27541 H 2558.17 1.58731 -2.69301 0
M  V30 27542 H 2557.39 -0.586732 -3.89809 0
M  V30 27543 H 2558.68 -0.291873 -5.07962 0
M  V30 27544 H 2558.08 2.88224 -4.86768 0
M  V30 27545 H 2556.64 2.98443 -5.79461 0
M  V30 27546 N 2560.07 1.49477 -0.499425 0
M  V30 27547 C 2561.32 2.01644 0.0474904 0
M  V30 27548 C 2561.63 1.38428 1.38192 0
M  V30 27549 O 2562.84 1.81913 2.01544 0
M  V30 27550 C 2561.29 3.59646 0.135101 0
M  V30 27551 C 2560.9 4.31835 -1.19259 0
M  V30 27552 C 2562.65 4.19762 0.632464 0
M  V30 27553 C 2560.55 5.81691 -1.06723 0
M  V30 27554 H 2559.48 0.753693 0.0215217 0
M  V30 27555 H 2562.13 1.72029 -0.638607 0
M  V30 27556 H 2560.52 3.8597 0.885614 0
M  V30 27557 H 2561.69 4.17213 -1.95628 0
M  V30 27558 H 2560 3.83456 -1.62327 0
M  V30 27559 H 2562.6 5.29502 0.74374 0
M  V30 27560 H 2562.94 3.83024 1.63091 0
M  V30 27561 H 2563.48 3.97753 -0.0614686 0
M  V30 27562 H 2560.22 6.22951 -2.0399 0
M  V30 27563 H 2559.74 5.9881 -0.344412 0
M  V30 27564 H 2561.42 6.42693 -0.745321 0
M  V30 27565 N 2561.55 0.233191 1.55865 0
M  V30 27566 C 2562.78 -0.39987 2.02999 0
M  V30 27567 C 2563.19 -1.52522 1.11277 0
M  V30 27568 O 2562.55 -1.82074 0.12456 0
M  V30 27569 C 2562.6 -0.920578 3.49582 0
M  V30 27570 O 2562.32 0.159911 4.37808 0
M  V30 27571 C 2563.82 -1.62571 4.12414 0
M  V30 27572 H 2561.04 -0.0966164 0.664008 0
M  V30 27573 H 2563.58 0.353048 2.01429 0
M  V30 27574 H 2561.74 -1.62372 3.5173 0
M  V30 27575 H 2562.15 -0.233278 5.23981 0
M  V30 27576 H 2563.63 -1.94192 5.16714 0
M  V30 27577 H 2564.1 -2.54293 3.58095 0
M  V30 27578 H 2564.71 -0.96748 4.1415 0
M  V30 27579 N 2563.03 -1.57549 -0.0400806 0
M  V30 27580 C 2563.94 -2.09222 -1.06129 0
M  V30 27581 C 2564.95 -1.02843 -1.40354 0
M  V30 27582 O 2566.13 -1.34512 -1.49895 0
M  V30 27583 C 2563.19 -2.55223 -2.34654 0
M  V30 27584 C 2562.25 -3.76037 -2.0711 0
M  V30 27585 C 2561.49 -4.19834 -3.29507 0
M  V30 27586 O 2561.71 -3.6324 -4.39787 0
M  V30 27587 O 2560.64 -5.12367 -3.15854 0
M  V30 27588 H 2564.47 -2.96614 -0.652192 0
M  V30 27589 H 2562.05 -1.47184 -0.256343 0
M  V30 27590 H 2563.94 -2.85189 -3.10234 0
M  V30 27591 H 2562.61 -1.70946 -2.7488 0
M  V30 27592 H 2561.52 -3.51106 -1.29133 0
M  V30 27593 H 2562.85 -4.61264 -1.71746 0
M  V30 27594 N 2564.5 0.312142 -1.54478 0
M  V30 27595 C 2565.45 1.38595 -1.8104 0
M  V30 27596 C 2566.44 1.46425 -0.666967 0
M  V30 27597 O 2567.63 1.50765 -0.927295 0
M  V30 27598 C 2564.76 2.75274 -2.05132 0
M  V30 27599 C 2563.84 2.71711 -3.25629 0
M  V30 27600 N 2564.24 2.37765 -4.46432 0
M  V30 27601 C 2562.53 3.02827 -3.27432 0
M  V30 27602 C 2563.23 2.43222 -5.28411 0
M  V30 27603 N 2562.21 2.80127 -4.65865 0
M  V30 27604 H 2566.01 1.11296 -2.72012 0
M  V30 27605 H 2563.53 0.520678 -1.53827 0
M  V30 27606 H 2565.52 3.52684 -2.22305 0
M  V30 27607 H 2564.18 3.03493 -1.15421 0
M  V30 27608 H 2565.19 2.10412 -4.73231 0
M  V30 27609 H 2561.87 3.36014 -2.47792 0
M  V30 27610 H 2563.26 2.19871 -6.34907 0
M  V30 27611 N 2565.98 1.46745 0.574784 0
M  V30 27612 C 2566.93 1.58289 1.70433 0
M  V30 27613 C 2567.92 0.450985 1.63287 0
M  V30 27614 O 2569.13 0.62815 1.68684 0
M  V30 27615 H 2565.5 0.497819 0.563632 0
M  V30 27616 H 2567.48 2.53245 1.57828 0
M  V30 27617 C 2566.22 1.59781 3.08813 0
M  V30 27618 H 2565.55 2.4622 3.14985 0
M  V30 27619 H 2566.99 1.71912 3.87585 0
M  V30 27620 C 2565.45 0.327871 3.35301 0
M  V30 27621 O 2565.98 -0.57854 3.97512 0
M  V30 27622 N 2564.18 0.213325 2.89816 0
M  V30 27623 H 2563.73 0.95184 2.3937 0
M  V30 27624 H 2563.69 -0.635476 3.07911 0
M  V30 27625 N 2567.46 -0.820078 1.34583 0
M  V30 27626 C 2568.41 -1.95255 1.26404 0
M  V30 27627 C 2569.4 -1.68628 0.161583 0
M  V30 27628 O 2570.61 -1.7701 0.326734 0
M  V30 27629 H 2566.98 -0.641283 0.39276 0
M  V30 27630 H 2568.95 -1.99275 2.22108 0
M  V30 27631 C 2567.7 -3.31806 1.03925 0
M  V30 27632 H 2567.03 -3.52845 1.87991 0
M  V30 27633 H 2568.47 -4.11489 1.02239 0
M  V30 27634 C 2566.92 -3.35915 -0.257374 0
M  V30 27635 O 2567.45 -3.81501 -1.25778 0
M  V30 27636 N 2565.66 -2.89135 -0.291473 0
M  V30 27637 H 2565.21 -2.52231 0.523205 0
M  V30 27638 H 2565.17 -2.92266 -1.15878 0
M  V30 27639 N 2568.94 -1.18359 -1.04062 0
M  V30 27640 C 2570.18 -0.978978 -1.77263 0
M  V30 27641 C 2570.51 0.491395 -1.8819 0
M  V30 27642 O 2569.77 1.38106 -1.38655 0
M  V30 27643 C 2570.07 -1.57894 -3.20631 0
M  V30 27644 C 2569.73 -3.07545 -3.29738 0
M  V30 27645 C 2568.39 -3.4839 -3.31931 0
M  V30 27646 C 2570.75 -4.03558 -3.29834 0
M  V30 27647 C 2568.07 -4.83823 -3.31861 0
M  V30 27648 C 2570.43 -5.38907 -3.31304 0
M  V30 27649 C 2569.09 -5.792 -3.31789 0
M  V30 27650 H 2568.36 -0.358233 -0.648652 0
M  V30 27651 H 2571.01 -1.47424 -1.22223 0
M  V30 27652 H 2569.31 -1.00568 -3.78673 0
M  V30 27653 H 2571.01 -1.39604 -3.75914 0
M  V30 27654 H 2567.6 -2.74991 -3.28752 0
M  V30 27655 H 2571.78 -3.73053 -3.27331 0
M  V30 27656 H 2567.04 -5.14339 -3.30553 0
M  V30 27657 H 2571.21 -6.13072 -3.30327 0
M  V30 27658 H 2568.84 -6.8412 -3.31488 0
M  V30 27659 N 2570.42 1.22976 -0.98563 0
M  V30 27660 C 2571.83 1.43667 -0.695129 0
M  V30 27661 C 2572.03 1.87545 0.736833 0
M  V30 27662 O 2571.09 2.02475 1.50864 0
M  V30 27663 C 2572.4 2.48409 -1.69451 0
M  V30 27664 C 2573.95 2.62216 -1.70914 0
M  V30 27665 C 2574.42 3.70173 -2.69696 0
M  V30 27666 N 2575.91 3.77622 -2.68246 0
M  V30 27667 C 2576.65 4.60727 -3.41347 0
M  V30 27668 N 2576.15 5.47882 -4.24024 0
M  V30 27669 N 2577.94 4.54971 -3.30087 0
M  V30 27670 H 2570.09 0.927982 -1.91056 0
M  V30 27671 H 2572.35 0.469522 -0.823561 0
M  V30 27672 H 2572.06 2.23097 -2.71883 0
M  V30 27673 H 2571.93 3.46887 -1.48153 0
M  V30 27674 H 2574.32 2.86876 -0.691835 0
M  V30 27675 H 2574.4 1.64037 -1.96279 0
M  V30 27676 H 2574.04 3.46261 -3.71572 0
M  V30 27677 H 2573.97 4.67905 -2.41604 0
M  V30 27678 H 2576.47 3.15343 -2.08249 0
M  V30 27679 H 2576.78 6.08299 -4.76646 0
M  V30 27680 H 2575.12 5.47488 -4.28114 0
M  V30 27681 H 2578.31 3.85905 -2.64944 0
M  V30 27682 H 2578.49 5.19509 -3.87317 0
M  V30 27683 N 2571.89 0.757924 1.38178 0
M  V30 27684 C 2573.12 0.326973 2.043 0
M  V30 27685 C 2573.54 -1.04617 1.57165 0
M  V30 27686 O 2572.89 -1.66527 0.746655 0
M  V30 27687 C 2572.94 0.345427 3.59846 0
M  V30 27688 O 2572.67 1.66439 4.05253 0
M  V30 27689 C 2574.17 -0.0988491 4.4319 0
M  V30 27690 H 2571.39 0.139023 0.65644 0
M  V30 27691 H 2573.93 1.02799 1.76784 0
M  V30 27692 H 2572.09 -0.306888 3.86183 0
M  V30 27693 H 2572.5 1.59354 4.99707 0
M  V30 27694 H 2573.97 -0.0347775 5.51989 0
M  V30 27695 H 2574.45 -1.14734 4.23949 0
M  V30 27696 H 2575.06 0.524754 4.2205 0
M  V30 27697 N 2573.37 -1.4921 0.507345 0
M  V30 27698 C 2574.62 -2.0247 -0.0349173 0
M  V30 27699 C 2574.95 -1.38649 -1.36406 0
M  V30 27700 O 2574.2 -0.5136 -1.8884 0
M  V30 27701 C 2574.5 -3.56663 -0.22945 0
M  V30 27702 C 2574.17 -4.39154 1.02249 0
M  V30 27703 C 2572.83 -4.61415 1.36565 0
M  V30 27704 C 2575.18 -4.87096 1.85436 0
M  V30 27705 C 2572.51 -5.28864 2.54008 0
M  V30 27706 C 2574.86 -5.55838 3.02038 0
M  V30 27707 C 2573.53 -5.76343 3.36727 0
M  V30 27708 H 2572.8 -0.74089 -0.0127772 0
M  V30 27709 H 2575.44 -1.79442 0.668788 0
M  V30 27710 H 2573.75 -3.78405 -1.01574 0
M  V30 27711 H 2575.44 -3.95472 -0.663572 0
M  V30 27712 H 2572.03 -4.22072 0.745198 0
M  V30 27713 H 2576.22 -4.69721 1.60238 0
M  V30 27714 H 2571.47 -5.42941 2.81114 0
M  V30 27715 H 2575.65 -5.9196 3.66819 0
M  V30 27716 H 2573.28 -6.28382 4.27832 0
M  V30 27717 N 2574.85 -0.241454 -1.55739 0
M  V30 27718 C 2576.1 0.384801 -1.9881 0
M  V30 27719 C 2576.43 1.58344 -1.12949 0
M  V30 27720 O 2575.68 1.94879 -0.179028 0
M  V30 27721 C 2575.98 0.843256 -3.4731 0
M  V30 27722 C 2575.65 -0.247025 -4.50223 0
M  V30 27723 C 2574.31 -0.546483 -4.78087 0
M  V30 27724 C 2576.66 -0.983372 -5.11839 0
M  V30 27725 C 2573.99 -1.58646 -5.64844 0
M  V30 27726 C 2576.34 -2.01283 -5.99723 0
M  V30 27727 C 2575 -2.31899 -6.25923 0
M  V30 27728 H 2574.27 0.140809 -0.727498 0
M  V30 27729 H 2576.92 -0.348139 -1.88309 0
M  V30 27730 H 2575.23 1.6553 -3.55115 0
M  V30 27731 H 2576.92 1.33799 -3.7802 0
M  V30 27732 H 2573.51 -0.00348172 -4.286 0
M  V30 27733 H 2577.7 -0.765268 -4.90364 0
M  V30 27734 H 2572.95 -1.82907 -5.834 0
M  V30 27735 H 2577.13 -2.58834 -6.46512 0
M  V30 27736 H 2574.75 -3.12624 -6.92943 0
M  V30 27737 N 2576.33 1.57568 0.0317248 0
M  V30 27738 C 2577.26 2.03179 1.0607 0
M  V30 27739 C 2578.27 0.944156 1.32626 0
M  V30 27740 O 2579.46 1.2215 1.3016 0
M  V30 27741 C 2576.56 2.38983 2.40293 0
M  V30 27742 C 2575.74 3.70093 2.3313 0
M  V30 27743 C 2574.79 3.93116 3.49781 0
M  V30 27744 O 2573.82 4.64206 3.29395 0
M  V30 27745 N 2575.02 3.38549 4.71556 0
M  V30 27746 H 2577.79 2.9207 0.671954 0
M  V30 27747 H 2575.35 1.60402 0.219717 0
M  V30 27748 H 2577.34 2.51524 3.17045 0
M  V30 27749 H 2575.91 1.55776 2.71021 0
M  V30 27750 H 2575.13 3.67931 1.41494 0
M  V30 27751 H 2576.42 4.56108 2.25485 0
M  V30 27752 H 2575.82 2.80921 4.91019 0
M  V30 27753 H 2574.37 3.56474 5.45683 0
M  V30 27754 N 2577.81 -0.303946 1.54641 0
M  V30 27755 C 2578.77 -1.35786 1.84648 0
M  V30 27756 C 2579.77 -1.43819 0.719225 0
M  V30 27757 O 2580.96 -1.43505 0.987516 0
M  V30 27758 C 2578.09 -2.74303 2.02412 0
M  V30 27759 H 2579.28 -1.10424 2.78831 0
M  V30 27760 H 2576.84 -0.540462 1.46658 0
M  V30 27761 H 2577.57 -3.04891 1.10507 0
M  V30 27762 H 2577.36 -2.69863 2.84458 0
M  V30 27763 H 2578.85 -3.5051 2.27008 0
M  V30 27764 N 2579.28 -1.47047 -0.566994 0
M  V30 27765 C 2580.21 -1.6167 -1.68479 0
M  V30 27766 C 2581.2 -0.466447 -1.6358 0
M  V30 27767 O 2582.38 -0.694606 -1.81353 0
M  V30 27768 C 2579.51 -1.62153 -3.07122 0
M  V30 27769 C 2578.46 -2.76307 -3.26862 0
M  V30 27770 C 2577.79 -2.61858 -4.66192 0
M  V30 27771 C 2579.09 -4.17991 -3.13178 0
M  V30 27772 H 2580.78 -2.55243 -1.56497 0
M  V30 27773 H 2578.33 -1.22837 -0.751465 0
M  V30 27774 H 2580.28 -1.70975 -3.85157 0
M  V30 27775 H 2579.01 -0.651343 -3.20039 0
M  V30 27776 H 2577.67 -2.6698 -2.51232 0
M  V30 27777 H 2577.31 -1.62888 -4.75896 0
M  V30 27778 H 2577.01 -3.38434 -4.8035 0
M  V30 27779 H 2578.54 -2.72593 -5.46375 0
M  V30 27780 H 2579.95 -4.28346 -3.81041 0
M  V30 27781 H 2578.35 -4.95278 -3.38851 0
M  V30 27782 H 2579.42 -4.37044 -2.10049 0
M  V30 27783 N 2580.76 0.812929 -1.35016 0
M  V30 27784 C 2581.7 1.92999 -1.21764 0
M  V30 27785 C 2582.67 1.62248 -0.106969 0
M  V30 27786 O 2583.86 1.86499 -0.273924 0
M  V30 27787 C 2580.98 3.27244 -0.873461 0
M  V30 27788 C 2580.03 3.76949 -1.9953 0
M  V30 27789 S 2580.86 3.9551 -3.61016 0
M  V30 27790 C 2582.02 5.32666 -3.28661 0
M  V30 27791 H 2582.25 2.03945 -2.16319 0
M  V30 27792 H 2579.79 0.96961 -1.20158 0
M  V30 27793 H 2581.74 4.048 -0.681681 0
M  V30 27794 H 2580.4 3.14054 0.0539158 0
M  V30 27795 H 2579.6 4.7416 -1.70847 0
M  V30 27796 H 2579.2 3.0637 -2.14508 0
M  V30 27797 H 2581.49 6.16435 -2.81095 0
M  V30 27798 H 2582.43 5.66339 -4.25049 0
M  V30 27799 H 2582.84 4.98651 -2.64589 0
M  V30 27800 N 2582.24 1.18909 1.03433 0
M  V30 27801 C 2583.17 0.945486 2.13501 0
M  V30 27802 C 2584.15 -0.119159 1.69682 0
M  V30 27803 O 2585.34 0.0347411 1.94169 0
M  V30 27804 C 2582.47 0.477377 3.44003 0
M  V30 27805 C 2581.42 1.48323 4.01478 0
M  V30 27806 C 2580.75 0.872404 5.27535 0
M  V30 27807 C 2582.05 2.86185 4.36916 0
M  V30 27808 H 2583.74 1.86601 2.34138 0
M  V30 27809 H 2581.29 0.898604 1.12522 0
M  V30 27810 H 2583.24 0.294278 4.20371 0
M  V30 27811 H 2581.96 -0.478729 3.23072 0
M  V30 27812 H 2580.62 1.65338 3.27198 0
M  V30 27813 H 2580.27 -0.0910868 5.02918 0
M  V30 27814 H 2579.97 1.54403 5.66951 0
M  V30 27815 H 2581.49 0.699978 6.06575 0
M  V30 27816 H 2582.91 2.72785 5.04243 0
M  V30 27817 H 2581.31 3.50089 4.87399 0
M  V30 27818 H 2582.38 3.39254 3.4646 0
M  V30 27819 N 2583.72 -1.22452 0.992137 0
M  V30 27820 C 2584.65 -2.26643 0.561716 0
M  V30 27821 C 2585.63 -1.65059 -0.411026 0
M  V30 27822 O 2586.81 -1.9184 -0.301827 0
M  V30 27823 C 2583.94 -3.47074 -0.125186 0
M  V30 27824 C 2582.9 -4.21089 0.766022 0
M  V30 27825 C 2582.22 -5.34673 -0.0537544 0
M  V30 27826 C 2583.52 -4.79852 2.0625 0
M  V30 27827 H 2585.22 -2.62899 1.43263 0
M  V30 27828 H 2582.76 -1.26376 0.690305 0
M  V30 27829 H 2584.72 -4.19121 -0.43769 0
M  V30 27830 H 2583.44 -3.09912 -1.03064 0
M  V30 27831 H 2582.1 -3.50876 1.06216 0
M  V30 27832 H 2581.75 -4.93752 -0.960101 0
M  V30 27833 H 2581.45 -5.85118 0.539517 0
M  V30 27834 H 2582.97 -6.09536 -0.36037 0
M  V30 27835 H 2584.39 -5.43845 1.814 0
M  V30 27836 H 2582.78 -5.40633 2.60453 0
M  V30 27837 H 2583.85 -3.99946 2.74174 0
M  V30 27838 N 2585.2 -0.765242 -1.37774 0
M  V30 27839 C 2586.44 -0.326623 -1.99849 0
M  V30 27840 C 2586.77 1.09501 -1.60747 0
M  V30 27841 O 2586.03 1.76658 -0.842052 0
M  V30 27842 C 2586.33 -0.410115 -3.55039 0
M  V30 27843 C 2585.99 -1.78907 -4.13888 0
M  V30 27844 C 2584.65 -2.16642 -4.29674 0
M  V30 27845 C 2587.01 -2.69309 -4.46231 0
M  V30 27846 C 2584.33 -3.44229 -4.75104 0
M  V30 27847 C 2586.69 -3.96298 -4.93082 0
M  V30 27848 C 2585.35 -4.34087 -5.07074 0
M  V30 27849 H 2584.62 -0.11952 -0.731297 0
M  V30 27850 H 2587.27 -0.977997 -1.64643 0
M  V30 27851 H 2585.57 0.324809 -3.90451 0
M  V30 27852 H 2587.27 -0.0521404 -4.00966 0
M  V30 27853 H 2583.86 -1.48576 -4.02024 0
M  V30 27854 H 2588.04 -2.41417 -4.33626 0
M  V30 27855 H 2583.3 -3.7341 -4.84123 0
M  V30 27856 H 2587.47 -4.66482 -5.17076 0
M  V30 27857 H 2585.1 -5.33011 -5.42036 0
M  V30 27858 N 2586.67 1.48939 -0.515251 0
M  V30 27859 C 2588.09 1.58669 -0.172127 0
M  V30 27860 C 2588.29 1.51895 1.32402 0
M  V30 27861 O 2587.35 1.40031 2.10113 0
M  V30 27862 C 2588.66 2.90896 -0.761584 0
M  V30 27863 C 2590.21 3.04393 -0.728979 0
M  V30 27864 C 2590.68 4.39259 -1.29675 0
M  V30 27865 N 2592.17 4.45788 -1.25807 0
M  V30 27866 C 2592.91 5.4862 -1.66743 0
M  V30 27867 N 2592.4 6.58484 -2.15338 0
M  V30 27868 N 2594.2 5.39416 -1.58071 0
M  V30 27869 H 2586.35 1.51586 -1.4878 0
M  V30 27870 H 2588.61 0.71889 -0.617981 0
M  V30 27871 H 2588.32 3.01464 -1.81141 0
M  V30 27872 H 2588.19 3.76497 -0.230173 0
M  V30 27873 H 2590.58 2.93446 0.312047 0
M  V30 27874 H 2590.66 2.20439 -1.2977 0
M  V30 27875 H 2590.3 4.50959 -2.33663 0
M  V30 27876 H 2590.23 5.21875 -0.703844 0
M  V30 27877 H 2592.72 3.66973 -0.902166 0
M  V30 27878 H 2593.04 7.33067 -2.44607 0
M  V30 27879 H 2591.38 6.59487 -2.19322 0
M  V30 27880 H 2594.57 4.5248 -1.19914 0
M  V30 27881 H 2594.75 6.19429 -1.90295 0
M  V30 27882 N 2588.15 0.249709 1.55609 0
M  V30 27883 C 2589.38 -0.381269 2.03865 0
M  V30 27884 C 2589.8 -1.50546 1.12771 0
M  V30 27885 O 2589.16 -1.80894 0.121221 0
M  V30 27886 C 2589.21 -0.863754 3.50102 0
M  V30 27887 O 2588.31 -1.97311 3.62135 0
M  V30 27888 H 2587.65 -0.0827079 0.658829 0
M  V30 27889 H 2590.18 0.376587 2.01104 0
M  V30 27890 H 2590.19 -1.16623 3.90977 0
M  V30 27891 H 2588.87 -0.0411085 4.1588 0
M  V30 27892 H 2587.45 -1.67512 3.33158 0
M  V30 27893 N 2589.63 -1.57583 -0.0233682 0
M  V30 27894 C 2590.59 -2.05899 -1.00689 0
M  V30 27895 C 2591.59 -0.964114 -1.28691 0
M  V30 27896 O 2592.78 -1.22755 -1.236 0
M  V30 27897 C 2589.92 -2.48074 -2.3382 0
M  V30 27898 H 2591.11 -2.94051 -0.589424 0
M  V30 27899 H 2588.66 -1.53945 -0.270327 0
M  V30 27900 H 2589.4 -1.63095 -2.80304 0
M  V30 27901 H 2589.18 -3.28014 -2.14824 0
M  V30 27902 H 2590.67 -2.85863 -3.04421 0
M  V30 27903 N 2591.11 0.29574 -1.548 0
M  V30 27904 C 2592.34 1.04911 -1.78329 0
M  V30 27905 C 2592.75 1.80752 -0.545347 0
M  V30 27906 O 2592.11 1.75938 0.484982 0
M  V30 27907 C 2592.16 2.02556 -2.99422 0
M  V30 27908 O 2591.88 1.2979 -4.18433 0
M  V30 27909 C 2593.38 2.89889 -3.3538 0
M  V30 27910 H 2590.6 0.310908 -0.594624 0
M  V30 27911 H 2593.15 0.333418 -2.01764 0
M  V30 27912 H 2591.3 2.69619 -2.7818 0
M  V30 27913 H 2591.72 1.9541 -4.86739 0
M  V30 27914 H 2593.19 3.54243 -4.23339 0
M  V30 27915 H 2593.67 3.58467 -2.53768 0
M  V30 27916 H 2594.27 2.28348 -3.588 0
M  V30 27917 N 2592.59 1.47346 0.559187 0
M  V30 27918 C 2593.84 1.53565 1.31385 0
M  V30 27919 C 2594.16 0.198712 1.93985 0
M  V30 27920 O 2593.43 -0.777135 1.79826 0
M  V30 27921 H 2592.01 0.56566 0.487891 0
M  V30 27922 H 2594.67 1.83631 0.653117 0
M  V30 27923 H 2593.76 2.30115 2.1084 0
M  V30 27924 N 2594.07 -0.805758 1.35445 0
M  V30 27925 C 2594.98 -1.94921 1.30549 0
M  V30 27926 C 2595.99 -1.72725 0.210264 0
M  V30 27927 O 2597.17 -1.9654 0.439784 0
M  V30 27928 C 2594.23 -3.29519 1.07788 0
M  V30 27929 C 2593.29 -3.64605 2.26632 0
M  V30 27930 C 2592.53 -4.9278 2.04947 0
M  V30 27931 O 2592.75 -5.61272 1.01634 0
M  V30 27932 O 2591.68 -5.26144 2.92329 0
M  V30 27933 H 2595.51 -2.01998 2.26783 0
M  V30 27934 H 2593.09 -0.943661 1.15825 0
M  V30 27935 H 2594.98 -4.10097 0.969464 0
M  V30 27936 H 2593.65 -3.2337 0.14606 0
M  V30 27937 H 2592.56 -2.844 2.43038 0
M  V30 27938 H 2593.89 -3.75459 3.18263 0
M  V30 27939 N 2595.54 -1.19456 -1.02801 0
M  V30 27940 C 2596.51 -0.934992 -2.09262 0
M  V30 27941 C 2597.51 0.0848733 -1.60576 0
M  V30 27942 O 2598.7 -0.149963 -1.73553 0
M  V30 27943 C 2595.83 -0.405369 -3.38481 0
M  V30 27944 H 2597.02 -1.8792 -2.33722 0
M  V30 27945 H 2594.57 -1.00834 -1.19425 0
M  V30 27946 H 2595.31 0.544843 -3.1969 0
M  V30 27947 H 2595.09 -1.14072 -3.7514 0
M  V30 27948 H 2596.58 -0.242879 -4.16893 0
M  V30 27949 N 2597.02 1.21924 -0.998617 0
M  V30 27950 C 2598.27 1.91398 -0.68837 0
M  V30 27951 C 2598.62 1.76242 0.771774 0
M  V30 27952 O 2597.92 1.12422 1.55151 0
M  V30 27953 C 2598.11 3.42039 -1.03654 0
M  V30 27954 C 2597.94 3.7185 -2.52898 0
M  V30 27955 C 2596.71 3.91554 -3.19396 0
M  V30 27956 C 2598.91 3.75869 -3.51037 0
M  V30 27957 N 2596.89 4.08726 -4.58057 0
M  V30 27958 C 2598.26 3.9825 -4.75181 0
M  V30 27959 C 2600.31 3.58745 -3.45263 0
M  V30 27960 C 2599.02 4.05284 -5.94254 0
M  V30 27961 C 2601.04 3.67041 -4.63719 0
M  V30 27962 C 2600.41 3.89877 -5.86665 0
M  V30 27963 H 2596.5 0.720802 -0.303264 0
M  V30 27964 H 2599.09 1.46729 -1.27979 0
M  V30 27965 H 2597.26 3.85501 -0.473637 0
M  V30 27966 H 2598.99 3.98917 -0.681689 0
M  V30 27967 H 2595.75 3.892 -2.69852 0
M  V30 27968 H 2596.17 4.21228 -5.29997 0
M  V30 27969 H 2600.81 3.40071 -2.51221 0
M  V30 27970 H 2598.53 4.2276 -6.88694 0
M  V30 27971 H 2602.12 3.55122 -4.60847 0
M  V30 27972 H 2601 3.96132 -6.76793 0
M  V30 27973 N 2598.5 0.772537 1.37367 0
M  V30 27974 C 2599.45 0.132863 2.27613 0
M  V30 27975 C 2600.43 -0.673221 1.46139 0
M  V30 27976 O 2601.63 -0.536065 1.68687 0
M  V30 27977 C 2598.75 -0.744805 3.35123 0
M  V30 27978 C 2597.84 0.0691517 4.24044 0
M  V30 27979 N 2598.23 1.11519 4.93353 0
M  V30 27980 C 2596.53 -0.154703 4.45732 0
M  V30 27981 C 2597.23 1.60927 5.58997 0
M  V30 27982 N 2596.21 0.921316 5.35736 0
M  V30 27983 H 2600.01 0.93373 2.78673 0
M  V30 27984 H 2597.52 0.610369 1.50493 0
M  V30 27985 H 2599.52 -1.21885 3.98685 0
M  V30 27986 H 2598.18 -1.54441 2.85619 0
M  V30 27987 H 2599.19 1.49735 4.95782 0
M  V30 27988 H 2595.87 -0.926152 4.07098 0
M  V30 27989 H 2597.26 2.48164 6.24391 0
M  V30 27990 N 2599.98 -1.48664 0.523142 0
M  V30 27991 C 2600.93 -2.31178 -0.256818 0
M  V30 27992 C 2601.92 -1.40796 -0.941965 0
M  V30 27993 O 2603.13 -1.57737 -0.867129 0
M  V30 27994 H 2599.5 -0.745093 -0.101687 0
M  V30 27995 H 2601.47 -2.94852 0.458791 0
M  V30 27996 C 2600.22 -3.22685 -1.29498 0
M  V30 27997 H 2599.54 -3.92173 -0.777179 0
M  V30 27998 H 2600.98 -3.83318 -1.81226 0
M  V30 27999 C 2599.44 -2.43817 -2.32497 0
M  V30 28000 O 2599.97 -2.15808 -3.38806 0
M  V30 28001 N 2598.18 -2.05436 -2.05534 0
M  V30 28002 H 2597.73 -2.28414 -1.191 0
M  V30 28003 H 2597.68 -1.52977 -2.74673 0
M  V30 28004 N 2601.46 -0.257958 -1.55475 0
M  V30 28005 C 2602.7 0.36424 -1.98384 0
M  V30 28006 C 2603.02 1.58256 -1.14954 0
M  V30 28007 O 2604.22 2.27661 -1.47928 0
M  V30 28008 C 2602.68 0.699417 -3.53038 0
M  V30 28009 C 2602.29 -0.498124 -4.45222 0
M  V30 28010 C 2604.03 1.28519 -4.04578 0
M  V30 28011 C 2601.94 -0.138487 -5.91238 0
M  V30 28012 H 2600.87 0.139867 -0.740914 0
M  V30 28013 H 2603.52 -0.359915 -1.79936 0
M  V30 28014 H 2601.9 1.48201 -3.67223 0
M  V30 28015 H 2603.08 -1.2753 -4.42801 0
M  V30 28016 H 2601.39 -0.999574 -4.04225 0
M  V30 28017 H 2603.99 1.56779 -5.11199 0
M  V30 28018 H 2604.33 2.21338 -3.52584 0
M  V30 28019 H 2604.86 0.565268 -3.93763 0
M  V30 28020 H 2601.6 -1.0341 -6.47292 0
M  V30 28021 H 2601.12 0.602269 -5.96769 0
M  V30 28022 H 2602.8 0.275417 -6.46414 0
M  V30 28023 N 2602.93 1.57593 0.0150108 0
M  V30 28024 C 2603.87 2.02882 1.04471 0
M  V30 28025 C 2604.85 0.915788 1.34358 0
M  V30 28026 O 2606.03 1.18274 1.46777 0
M  V30 28027 C 2603.16 2.41375 2.37604 0
M  V30 28028 C 2602.2 3.63261 2.2348 0
M  V30 28029 S 2603.04 5.11816 1.57496 0
M  V30 28030 C 2604.19 5.53565 2.9209 0
M  V30 28031 H 2604.42 2.89904 0.659019 0
M  V30 28032 H 2601.96 1.52746 0.225426 0
M  V30 28033 H 2603.92 2.64223 3.1416 0
M  V30 28034 H 2602.58 1.54779 2.73317 0
M  V30 28035 H 2601.77 3.87897 3.21795 0
M  V30 28036 H 2601.37 3.40338 1.55068 0
M  V30 28037 H 2603.66 5.55108 3.88409 0
M  V30 28038 H 2604.61 6.53703 2.72172 0
M  V30 28039 H 2605.01 4.81095 2.95309 0
M  V30 28040 N 2604.41 -0.287527 1.54955 0
M  V30 28041 C 2605.34 -1.35951 1.89841 0
M  V30 28042 C 2606.32 -1.52242 0.758702 0
M  V30 28043 O 2607.51 -1.65527 1.0156 0
M  V30 28044 C 2604.64 -2.72151 2.15758 0
M  V30 28045 C 2603.59 -2.70608 3.31595 0
M  V30 28046 C 2602.92 -4.10223 3.42959 0
M  V30 28047 C 2604.22 -2.31157 4.68363 0
M  V30 28048 H 2605.91 -1.07002 2.79627 0
M  V30 28049 H 2603.46 -0.513292 1.34541 0
M  V30 28050 H 2605.41 -3.47242 2.38749 0
M  V30 28051 H 2604.14 -3.02652 1.22757 0
M  V30 28052 H 2602.79 -1.97974 3.08548 0
M  V30 28053 H 2602.44 -4.37924 2.47451 0
M  V30 28054 H 2602.14 -4.10089 4.20833 0
M  V30 28055 H 2603.67 -4.87074 3.68227 0
M  V30 28056 H 2605.08 -2.95967 4.90995 0
M  V30 28057 H 2603.48 -2.42212 5.49048 0
M  V30 28058 H 2604.55 -1.26283 4.68167 0
M  V30 28059 N 2605.89 -1.47641 -0.551365 0
M  V30 28060 C 2607.12 -1.58439 -1.33835 0
M  V30 28061 C 2607.54 -0.237096 -1.866 0
M  V30 28062 O 2606.9 0.787965 -1.63281 0
M  V30 28063 C 2606.95 -2.6177 -2.4801 0
M  V30 28064 O 2606.05 -2.17446 -3.50415 0
M  V30 28065 H 2605.39 -0.532031 -0.397289 0
M  V30 28066 H 2607.92 -1.93466 -0.665725 0
M  V30 28067 H 2607.93 -2.82374 -2.94498 0
M  V30 28068 H 2606.61 -3.59594 -2.08962 0
M  V30 28069 H 2605.18 -2.06966 -3.10193 0
M  V30 28070 N 2607.37 0.798563 -1.3587 0
M  V30 28071 C 2608.61 1.56932 -1.30964 0
M  V30 28072 C 2608.97 1.91671 0.11237 0
M  V30 28073 O 2610.17 2.67275 0.28589 0
M  V30 28074 C 2608.44 2.81808 -2.19816 0
M  V30 28075 S 2610 3.72139 -2.32504 0
M  V30 28076 H 2606.82 0.537598 -0.465306 0
M  V30 28077 H 2609.42 0.941316 -1.71346 0
M  V30 28078 H 2608.13 2.54323 -3.22099 0
M  V30 28079 H 2607.66 3.49588 -1.80421 0
M  V30 28080 H 2609.67 4.72481 -1.51578 0
M  V30 28081 N 2608.85 1.19999 1.02166 0
M  V30 28082 C 2609.78 0.968077 2.12486 0
M  V30 28083 C 2610.76 -0.101155 1.69799 0
M  V30 28084 O 2611.94 0.0553334 1.94121 0
M  V30 28085 C 2609.07 0.513836 3.43478 0
M  V30 28086 C 2608.03 1.52573 3.99882 0
M  V30 28087 C 2607.35 0.928307 5.2658 0
M  V30 28088 C 2608.65 2.90803 4.33856 0
M  V30 28089 H 2610.35 1.89074 2.32146 0
M  V30 28090 H 2607.89 0.910488 1.11562 0
M  V30 28091 H 2609.85 0.338847 4.20035 0
M  V30 28092 H 2608.57 -0.444436 3.23562 0
M  V30 28093 H 2607.23 1.68799 3.25426 0
M  V30 28094 H 2606.88 -0.0377405 5.02986 0
M  V30 28095 H 2606.58 1.60407 5.65282 0
M  V30 28096 H 2608.1 0.764274 6.05798 0
M  V30 28097 H 2609.51 2.78118 5.01322 0
M  V30 28098 H 2607.91 3.55239 4.83658 0
M  V30 28099 H 2608.98 3.4291 3.42842 0
M  V30 28100 N 2610.32 -1.21392 1.00507 0
M  V30 28101 C 2611.55 -1.94999 0.706401 0
M  V30 28102 C 2611.97 -1.73583 -0.7246 0
M  V30 28103 O 2611.33 -1.02272 -1.497 0
M  V30 28104 C 2611.38 -3.45486 1.03306 0
M  V30 28105 O 2610.48 -4.12168 0.138347 0
M  V30 28106 H 2609.83 -0.609614 0.263186 0
M  V30 28107 H 2612.36 -1.54149 1.34533 0
M  V30 28108 H 2612.37 -3.96057 0.979942 0
M  V30 28109 H 2611.04 -3.60397 2.07573 0
M  V30 28110 H 2609.62 -3.72074 0.247994 0
M  V30 28111 N 2611.8 -0.779811 -1.36955 0
M  V30 28112 C 2613.05 -0.347114 -1.99097 0
M  V30 28113 C 2613.37 1.08229 -1.62208 0
M  V30 28114 O 2612.64 1.74444 -0.891404 0
M  V30 28115 H 2611.22 -0.125355 -0.736407 0
M  V30 28116 H 2613.88 -0.999726 -1.67307 0
M  V30 28117 H 2612.98 -0.431216 -3.09107 0
M  V30 28118 N 2613.28 1.48384 -0.531019 0
M  V30 28119 C 2614.23 2.29639 0.231183 0
M  V30 28120 C 2615.2 1.37431 0.932839 0
M  V30 28121 O 2616.38 1.66395 0.933663 0
M  V30 28122 C 2613.52 3.20822 1.2715 0
M  V30 28123 C 2612.64 4.28108 0.57858 0
M  V30 28124 C 2611.77 5.0647 1.60192 0
M  V30 28125 C 2610.81 6.05558 0.892518 0
M  V30 28126 N 2609.95 6.76975 1.86145 0
M  V30 28127 H 2614.79 2.94304 -0.4679 0
M  V30 28128 H 2612.32 1.45086 -0.242581 0
M  V30 28129 H 2614.28 3.72088 1.88696 0
M  V30 28130 H 2612.91 2.58079 1.93895 0
M  V30 28131 H 2611.96 3.80101 -0.150849 0
M  V30 28132 H 2613.28 4.98795 0.0216188 0
M  V30 28133 H 2612.43 5.61755 2.29164 0
M  V30 28134 H 2611.17 4.35625 2.19277 0
M  V30 28135 H 2610.17 5.49476 0.188732 0
M  V30 28136 H 2611.4 6.78402 0.307759 0
M  V30 28137 H 2609.34 6.08879 2.44136 0
M  V30 28138 H 2609.26 7.43741 1.35595 0
M  V30 28139 H 2610.53 7.36848 2.54312 0
M  V30 28140 N 2614.76 0.2662 1.55336 0
M  V30 28141 C 2616.17 -0.233282 1.85237 0
M  V30 28142 C 2616.52 -1.5613 1.18819 0
M  V30 28143 O 2615.65 -2.1116 0.473344 0
M  V30 28144 C 2616.24 -0.430054 3.36059 0
M  V30 28145 C 2614.8 -0.873777 3.66118 0
M  V30 28146 C 2613.95 0.0380503 2.77274 0
M  V30 28147 H 2616.9 0.48824 1.51003 0
M  V30 28148 H 2616.92 -1.26992 3.58683 0
M  V30 28149 H 2616.43 0.536656 3.84372 0
M  V30 28150 H 2614.53 -1.85227 3.23298 0
M  V30 28151 H 2614.64 -0.717274 4.737 0
M  V30 28152 H 2613.01 -0.476716 2.50199 0
M  V30 28153 H 2613.79 1.00048 3.28398 0
M  V30 28154 N 2616.24 -1.57599 -0.0066531 0
M  V30 28155 C 2617.48 -1.92132 -0.697467 0
M  V30 28156 C 2617.84 -0.867101 -1.71305 0
M  V30 28157 O 2619.04 -1.09747 -2.45375 0
M  V30 28158 C 2617.31 -3.31743 -1.32972 0
M  V30 28159 S 2618.87 -3.8815 -2.04658 0
M  V30 28160 H 2615.69 -0.672585 -0.230544 0
M  V30 28161 H 2618.29 -1.9544 0.048437 0
M  V30 28162 H 2617 -4.06314 -0.577649 0
M  V30 28163 H 2616.53 -3.31792 -2.1137 0
M  V30 28164 H 2618.54 -3.68688 -3.3209 0
M  V30 28165 N 2617.72 0.279305 -1.55105 0
M  V30 28166 C 2618.99 1.03264 -1.6612 0
M  V30 28167 C 2619.37 2.04504 -0.523561 0
M  V30 28168 O 2618.72 2.23462 0.477155 0
M  V30 28169 C 2618.93 1.6951 -3.0507 0
M  V30 28170 C 2620.28 2.20906 -3.6261 0
M  V30 28171 O 2621.3 1.79507 -3.07662 0
M  V30 28172 O 2620.16 2.96823 -4.58867 0
M  V30 28173 H 2617.26 0.478606 -0.674437 0
M  V30 28174 H 2619.8 0.275664 -1.67446 0
M  V30 28175 H 2618.57 0.961134 -3.79312 0
M  V30 28176 H 2618.2 2.51909 -3.07616 0
M  V30 28177 N 2619.19 1.47931 0.543528 0
M  V30 28178 C 2620.14 1.61443 1.64939 0
M  V30 28179 C 2621.11 0.456931 1.59691 0
M  V30 28180 O 2622.3 0.678719 1.7832 0
M  V30 28181 C 2619.44 1.64749 3.03236 0
M  V30 28182 C 2618.55 2.91512 3.18818 0
M  V30 28183 C 2617.68 2.86065 4.47594 0
M  V30 28184 C 2616.72 4.07592 4.56657 0
M  V30 28185 N 2615.86 4.00302 5.76804 0
M  V30 28186 H 2620.7 2.55886 1.52729 0
M  V30 28187 H 2618.24 1.26911 0.743778 0
M  V30 28188 H 2620.19 1.64648 3.83336 0
M  V30 28189 H 2618.82 0.738072 3.14249 0
M  V30 28190 H 2617.88 3.01418 2.32059 0
M  V30 28191 H 2619.19 3.81468 3.21377 0
M  V30 28192 H 2618.34 2.8429 5.3597 0
M  V30 28193 H 2617.08 1.93815 4.47535 0
M  V30 28194 H 2616.09 4.09657 3.6669 0
M  V30 28195 H 2617.31 5.00986 4.58465 0
M  V30 28196 H 2615.26 3.10863 5.77668 0
M  V30 28197 H 2615.17 4.8395 5.808 0
M  V30 28198 H 2616.44 4.02564 6.67504 0
M  V30 28199 N 2620.67 -0.791347 1.36292 0
M  V30 28200 C 2621.62 -1.9253 1.30518 0
M  V30 28201 C 2622.61 -1.68247 0.197315 0
M  V30 28202 O 2623.82 -1.76277 0.364207 0
M  V30 28203 H 2620.19 -0.632808 0.406274 0
M  V30 28204 H 2622.17 -1.94519 2.26285 0
M  V30 28205 C 2620.91 -3.29527 1.10939 0
M  V30 28206 H 2620.24 -3.48778 1.95433 0
M  V30 28207 H 2621.68 -4.09228 1.10945 0
M  V30 28208 C 2620.14 -3.36386 -0.186063 0
M  V30 28209 O 2620.67 -3.84083 -1.17657 0
M  V30 28210 N 2618.87 -2.89688 -0.230078 0
M  V30 28211 H 2618.42 -2.51064 0.57659 0
M  V30 28212 H 2618.38 -2.94659 -1.09653 0
M  V30 28213 N 2622.15 -1.2054 -1.01528 0
M  V30 28214 C 2623.37 -1.04274 -1.79281 0
M  V30 28215 C 2623.8 0.403511 -1.83721 0
M  V30 28216 O 2623.16 1.29067 -1.27324 0
M  V30 28217 C 2623.21 -1.63247 -3.21532 0
M  V30 28218 O 2622.31 -0.870979 -4.03098 0
M  V30 28219 H 2621.65 -0.367656 -0.552924 0
M  V30 28220 H 2624.18 -1.59861 -1.27694 0
M  V30 28221 H 2624.19 -1.67037 -3.7224 0
M  V30 28222 H 2622.87 -2.68502 -3.17615 0
M  V30 28223 H 2621.44 -0.907387 -3.61692 0
M  V30 28224 N 2623.63 1.20858 -1.01149 0
M  V30 28225 C 2624.88 1.89718 -0.69652 0
M  V30 28226 C 2625.2 1.78905 0.775756 0
M  V30 28227 O 2624.47 1.18814 1.55757 0
M  V30 28228 H 2623.05 0.702259 -0.25464 0
M  V30 28229 H 2625.71 1.46802 -1.282 0
M  V30 28230 H 2624.8 2.96466 -0.97541 0
M  V30 28231 N 2625.11 0.787064 1.3654 0
M  V30 28232 C 2626.35 0.354975 1.98552 0
M  V30 28233 C 2626.67 -1.07861 1.63173 0
M  V30 28234 O 2627.87 -1.61285 2.18402 0
M  V30 28235 C 2626.33 0.583733 3.55135 0
M  V30 28236 C 2625.94 2.02858 3.9944 0
M  V30 28237 C 2627.68 0.216031 4.2395 0
M  V30 28238 C 2625.59 2.20412 5.48792 0
M  V30 28239 H 2624.52 0.128985 0.742886 0
M  V30 28240 H 2627.17 0.968364 1.55868 0
M  V30 28241 H 2625.55 -0.099335 3.95875 0
M  V30 28242 H 2626.73 2.74786 3.69905 0
M  V30 28243 H 2625.04 2.35431 3.43455 0
M  V30 28244 H 2627.64 0.325499 5.33708 0
M  V30 28245 H 2627.98 -0.835575 4.07828 0
M  V30 28246 H 2628.51 0.852243 3.88564 0
M  V30 28247 H 2625.25 3.23947 5.69858 0
M  V30 28248 H 2624.77 1.52987 5.79961 0
M  V30 28249 H 2626.45 2.01013 6.14982 0
M  V30 28250 N 2626.58 -1.48101 0.53888 0
M  V30 28251 C 2627.51 -2.32575 -0.207613 0
M  V30 28252 C 2628.49 -1.42651 -0.926534 0
M  V30 28253 O 2629.68 -1.71529 -0.91058 0
M  V30 28254 C 2626.81 -3.24044 -1.24951 0
M  V30 28255 C 2625.76 -4.23063 -0.648189 0
M  V30 28256 C 2625.09 -5.03728 -1.79339 0
M  V30 28257 C 2626.39 -5.20872 0.385988 0
M  V30 28258 H 2628.08 -2.95236 0.497586 0
M  V30 28259 H 2625.63 -1.41973 0.24074 0
M  V30 28260 H 2627.58 -3.81972 -1.77976 0
M  V30 28261 H 2626.31 -2.59401 -1.98441 0
M  V30 28262 H 2624.97 -3.66335 -0.139388 0
M  V30 28263 H 2624.61 -4.35502 -2.51688 0
M  V30 28264 H 2624.31 -5.70754 -1.39692 0
M  V30 28265 H 2625.84 -5.6451 -2.32725 0
M  V30 28266 H 2627.25 -5.73271 -0.0575062 0
M  V30 28267 H 2625.65 -5.95999 0.700332 0
M  V30 28268 H 2626.72 -4.67466 1.28856 0
M  V30 28269 N 2628.06 -0.274434 -1.55192 0
M  V30 28270 C 2629.29 0.345907 -2.03988 0
M  V30 28271 C 2629.7 1.49518 -1.15282 0
M  V30 28272 O 2629.06 1.8168 -0.17279 0
M  V30 28273 C 2629.11 0.827569 -3.519 0
M  V30 28274 O 2628.83 -0.275932 -4.3723 0
M  V30 28275 C 2630.33 1.5158 -4.1658 0
M  V30 28276 H 2627.55 0.0789774 -0.666336 0
M  V30 28277 H 2630.1 -0.40633 -2.00423 0
M  V30 28278 H 2628.25 1.5299 -3.55911 0
M  V30 28279 H 2628.67 0.0942716 -5.24415 0
M  V30 28280 H 2630.14 1.80424 -5.21681 0
M  V30 28281 H 2630.62 2.44709 -3.64711 0
M  V30 28282 H 2631.22 0.857336 -4.16569 0
M  V30 28283 N 2629.54 1.576 -0.00170483 0
M  V30 28284 C 2630.96 1.55616 0.354395 0
M  V30 28285 C 2631.16 1.0045 1.74677 0
M  V30 28286 O 2630.21 0.639065 2.44279 0
M  V30 28287 C 2631.52 2.99834 0.228067 0
M  V30 28288 C 2633.07 3.11531 0.302879 0
M  V30 28289 C 2633.55 4.57538 0.205656 0
M  V30 28290 N 2635.04 4.6245 0.263503 0
M  V30 28291 C 2635.77 5.73009 0.211641 0
M  V30 28292 N 2635.27 6.92712 0.110277 0
M  V30 28293 N 2637.06 5.61481 0.263631 0
M  V30 28294 H 2629.21 1.91798 -0.912532 0
M  V30 28295 H 2631.48 0.881047 -0.349943 0
M  V30 28296 H 2631.18 3.44041 -0.729995 0
M  V30 28297 H 2631.06 3.63442 1.00945 0
M  V30 28298 H 2633.44 2.67253 1.25139 0
M  V30 28299 H 2633.52 2.50697 -0.508401 0
M  V30 28300 H 2633.17 5.0249 -0.739313 0
M  V30 28301 H 2633.1 5.1632 1.03545 0
M  V30 28302 H 2635.59 3.76339 0.343107 0
M  V30 28303 H 2635.9 7.72762 0.076647 0
M  V30 28304 H 2634.25 6.94959 0.0758804 0
M  V30 28305 H 2637.44 4.66856 0.341028 0
M  V30 28306 H 2637.61 6.47627 0.219748 0
M  V30 28307 N 2631.02 -0.271076 1.55251 0
M  V30 28308 C 2631.93 -1.35711 1.91363 0
M  V30 28309 C 2632.94 -1.53939 0.811102 0
M  V30 28310 O 2634.12 -1.68028 1.11034 0
M  V30 28311 C 2631.18 -2.69599 2.17985 0
M  V30 28312 C 2630.25 -2.60101 3.41535 0
M  V30 28313 C 2629.48 -3.87604 3.66878 0
M  V30 28314 O 2629.7 -4.88374 2.94698 0
M  V30 28315 O 2628.64 -3.87691 4.60412 0
M  V30 28316 H 2632.46 -1.08083 2.83817 0
M  V30 28317 H 2630.05 -0.469767 1.41822 0
M  V30 28318 H 2631.93 -3.48761 2.36524 0
M  V30 28319 H 2630.6 -2.97009 1.28713 0
M  V30 28320 H 2629.51 -1.79308 3.28328 0
M  V30 28321 H 2630.84 -2.3764 4.31032 0
M  V30 28322 N 2632.5 -1.48217 -0.535675 0
M  V30 28323 C 2633.74 -1.57538 -1.30235 0
M  V30 28324 C 2634.1 -0.241263 -1.90478 0
M  V30 28325 O 2635.3 -0.209427 -2.67983 0
M  V30 28326 C 2633.57 -2.67797 -2.36685 0
M  V30 28327 S 2635.13 -2.96845 -3.23154 0
M  V30 28328 H 2631.95 -0.556056 -0.443083 0
M  V30 28329 H 2634.55 -1.8571 -0.610904 0
M  V30 28330 H 2633.26 -3.63299 -1.90898 0
M  V30 28331 H 2632.79 -2.41508 -3.10544 0
M  V30 28332 H 2634.8 -2.35707 -4.36643 0
M  V30 28333 N 2633.97 0.784108 -1.3671 0
M  V30 28334 C 2635.22 1.53916 -1.30975 0
M  V30 28335 C 2635.54 1.94695 0.109051 0
M  V30 28336 O 2634.81 1.65355 1.05046 0
M  V30 28337 H 2633.39 0.570833 -0.481829 0
M  V30 28338 H 2636.06 0.933971 -1.71064 0
M  V30 28339 H 2635.15 2.44428 -1.94066 0
M  V30 28340 N 2635.45 1.21076 1.00888 0
M  V30 28341 C 2636.4 0.963513 2.11705 0
M  V30 28342 C 2637.39 -0.0878734 1.69172 0
M  V30 28343 O 2638.6 0.0631731 1.79889 0
M  V30 28344 H 2634.98 0.294299 0.69202 0
M  V30 28345 H 2636.95 1.90426 2.2974 0
M  V30 28346 C 2635.7 0.54057 3.43472 0
M  V30 28347 H 2635.02 1.34121 3.76632 0
M  V30 28348 H 2636.46 0.406851 4.22044 0
M  V30 28349 C 2634.92 -0.748021 3.28491 0
M  V30 28350 O 2635.45 -1.80453 3.58886 0
M  V30 28351 N 2633.65 -0.713032 2.81717 0
M  V30 28352 H 2633.2 0.147018 2.5718 0
M  V30 28353 H 2633.16 -1.57553 2.72074 0
M  V30 28354 N 2636.93 -1.2032 1.01789 0
M  V30 28355 C 2637.84 -2.26826 0.598938 0
M  V30 28356 C 2638.86 -1.70147 -0.36415 0
M  V30 28357 O 2640.03 -2.00142 -0.224777 0
M  V30 28358 C 2637.1 -3.46657 -0.054916 0
M  V30 28359 C 2636.16 -4.18559 0.954279 0
M  V30 28360 C 2635.39 -5.32669 0.331533 0
M  V30 28361 O 2635.61 -5.63751 -0.868411 0
M  V30 28362 O 2634.55 -5.9269 1.0489 0
M  V30 28363 H 2638.37 -2.6488 1.48567 0
M  V30 28364 H 2635.96 -1.26963 0.787456 0
M  V30 28365 H 2637.84 -4.19301 -0.420028 0
M  V30 28366 H 2636.52 -3.10474 -0.915822 0
M  V30 28367 H 2635.42 -3.48081 1.37078 0
M  V30 28368 H 2636.76 -4.58685 1.78519 0
M  V30 28369 N 2638.41 -0.794293 -1.3612 0
M  V30 28370 C 2639.66 -0.36894 -1.99111 0
M  V30 28371 C 2639.98 1.06067 -1.63034 0
M  V30 28372 O 2639.24 1.74832 -0.879334 0
M  V30 28373 C 2639.54 -0.485332 -3.54089 0
M  V30 28374 C 2639.2 -1.87646 -4.1 0
M  V30 28375 C 2637.87 -2.25707 -4.24982 0
M  V30 28376 C 2640.22 -2.78714 -4.40418 0
M  V30 28377 C 2637.55 -3.54229 -4.67695 0
M  V30 28378 C 2639.9 -4.06668 -4.84565 0
M  V30 28379 C 2638.56 -4.44745 -4.97753 0
M  V30 28380 H 2637.83 -0.135005 -0.728598 0
M  V30 28381 H 2640.48 -1.0127 -1.62532 0
M  V30 28382 H 2638.78 0.241916 -3.91052 0
M  V30 28383 H 2640.48 -0.13718 -4.00765 0
M  V30 28384 H 2637.07 -1.57071 -3.98782 0
M  V30 28385 H 2641.25 -2.5056 -4.28408 0
M  V30 28386 H 2636.51 -3.83595 -4.76093 0
M  V30 28387 H 2640.68 -4.77345 -5.07065 0
M  V30 28388 H 2638.31 -5.44388 -5.30608 0
M  V30 28389 N 2639.89 1.47813 -0.546727 0
M  V30 28390 C 2640.85 2.28358 0.196247 0
M  V30 28391 C 2641.85 1.36347 0.852413 0
M  V30 28392 O 2643.04 1.59079 0.709885 0
M  V30 28393 C 2640.17 3.15724 1.28574 0
M  V30 28394 H 2641.36 2.95512 -0.511138 0
M  V30 28395 H 2638.92 1.53329 -0.303275 0
M  V30 28396 H 2639.65 2.53238 2.02585 0
M  V30 28397 H 2639.44 3.83426 0.820161 0
M  V30 28398 H 2640.93 3.76438 1.80787 0
M  V30 28399 N 2641.36 0.28266 1.55044 0
M  V30 28400 C 2642.59 -0.334599 2.03873 0
M  V30 28401 C 2643 -1.49452 1.1602 0
M  V30 28402 O 2642.35 -1.82869 0.174481 0
M  V30 28403 C 2642.41 -0.870844 3.48793 0
M  V30 28404 C 2642.07 0.161419 4.56715 0
M  V30 28405 C 2643.07 0.983555 5.10512 0
M  V30 28406 C 2640.75 0.297833 5.01416 0
M  V30 28407 C 2642.75 1.92822 6.07535 0
M  V30 28408 C 2640.43 1.24597 5.98263 0
M  V30 28409 C 2641.43 2.05966 6.51204 0
M  V30 28410 O 2641.12 2.99175 7.46157 0
M  V30 28411 H 2640.85 -0.0793624 0.671325 0
M  V30 28412 H 2643.41 0.414765 2.01169 0
M  V30 28413 H 2641.64 -1.67041 3.48761 0
M  V30 28414 H 2643.33 -1.402 3.80918 0
M  V30 28415 H 2644.09 0.88894 4.76784 0
M  V30 28416 H 2639.97 -0.325524 4.59849 0
M  V30 28417 H 2643.51 2.56374 6.48782 0
M  V30 28418 H 2639.41 1.34137 6.31409 0
M  V30 28419 H 2640.18 2.93943 7.63898 0
M  V30 28420 N 2642.84 -1.57597 0.0100627 0
M  V30 28421 C 2644.09 -1.91001 -0.672667 0
M  V30 28422 C 2644.42 -0.884644 -1.73217 0
M  V30 28423 O 2643.67 0.10918 -1.95395 0
M  V30 28424 C 2643.97 -3.31155 -1.34429 0
M  V30 28425 C 2643.64 -4.48968 -0.417004 0
M  V30 28426 C 2642.3 -4.80928 -0.161725 0
M  V30 28427 C 2644.65 -5.20732 0.220845 0
M  V30 28428 C 2641.98 -5.82021 0.739528 0
M  V30 28429 C 2644.33 -6.22785 1.11003 0
M  V30 28430 C 2643 -6.53197 1.37439 0
M  V30 28431 H 2642.27 -0.698923 -0.246146 0
M  V30 28432 H 2644.91 -1.9138 0.0677482 0
M  V30 28433 H 2643.22 -3.26948 -2.15899 0
M  V30 28434 H 2644.91 -3.54265 -1.87877 0
M  V30 28435 H 2641.5 -4.24002 -0.626143 0
M  V30 28436 H 2645.69 -4.96286 0.0366515 0
M  V30 28437 H 2640.94 -6.03939 0.952245 0
M  V30 28438 H 2645.12 -6.7752 1.61058 0
M  V30 28439 H 2642.75 -7.31349 2.07443 0
M  V30 28440 N 2644.32 0.262839 -1.55393 0
M  V30 28441 C 2645.55 1.00958 -1.80253 0
M  V30 28442 C 2645.96 1.80052 -0.581201 0
M  V30 28443 O 2645.3 1.77863 0.459396 0
M  V30 28444 C 2645.36 2.00775 -2.9821 0
M  V30 28445 C 2645.03 1.40525 -4.34858 0
M  V30 28446 C 2646.02 0.815762 -5.1346 0
M  V30 28447 C 2643.71 1.4294 -4.81532 0
M  V30 28448 C 2645.7 0.25845 -6.36876 0
M  V30 28449 C 2643.39 0.868228 -6.04901 0
M  V30 28450 C 2644.39 0.283764 -6.8241 0
M  V30 28451 O 2644.08 -0.268785 -8.03451 0
M  V30 28452 H 2643.81 0.303471 -0.604054 0
M  V30 28453 H 2646.36 0.29589 -2.03258 0
M  V30 28454 H 2644.59 2.75932 -2.70922 0
M  V30 28455 H 2646.28 2.61661 -3.10303 0
M  V30 28456 H 2647.05 0.789727 -4.78527 0
M  V30 28457 H 2642.93 1.87371 -4.21205 0
M  V30 28458 H 2646.47 -0.19838 -6.97318 0
M  V30 28459 H 2642.37 0.891537 -6.39314 0
M  V30 28460 H 2643.14 -0.159117 -8.18345 0
M  V30 28461 N 2645.8 1.48499 0.527807 0
M  V30 28462 C 2647.05 1.56627 1.28352 0
M  V30 28463 C 2647.37 0.24113 1.93 0
M  V30 28464 O 2646.63 -0.768767 1.79968 0
M  V30 28465 C 2646.93 2.65489 2.39271 0
M  V30 28466 C 2646.59 4.07856 1.92261 0
M  V30 28467 C 2645.26 4.46605 1.79158 0
M  V30 28468 C 2647.61 4.97066 1.56763 0
M  V30 28469 C 2644.94 5.72366 1.28895 0
M  V30 28470 C 2647.29 6.23319 1.07961 0
M  V30 28471 C 2645.95 6.60922 0.93477 0
M  V30 28472 H 2645.22 0.57314 0.469672 0
M  V30 28473 H 2647.87 1.82225 0.588749 0
M  V30 28474 H 2646.17 2.33759 3.14426 0
M  V30 28475 H 2647.87 2.68993 2.97395 0
M  V30 28476 H 2644.46 3.77256 2.03411 0
M  V30 28477 H 2648.64 4.67806 1.65745 0
M  V30 28478 H 2643.9 6.00223 1.1637 0
M  V30 28479 H 2648.07 6.9184 0.795653 0
M  V30 28480 H 2645.7 7.58258 0.543098 0
M  V30 28481 N 2647.28 -0.776847 1.37123 0
M  V30 28482 C 2648.52 -1.53749 1.32246 0
M  V30 28483 C 2648.86 -1.9397 -0.0944404 0
M  V30 28484 O 2648.13 -1.63682 -1.05065 0
M  V30 28485 C 2648.41 -2.80603 2.25686 0
M  V30 28486 C 2648.27 -2.46669 3.76131 0
M  V30 28487 C 2649.59 -3.82505 2.17664 0
M  V30 28488 H 2646.71 -0.557782 0.481714 0
M  V30 28489 H 2649.35 -0.891583 1.67782 0
M  V30 28490 H 2647.5 -3.3572 1.95511 0
M  V30 28491 H 2649.17 -1.97506 4.1688 0
M  V30 28492 H 2647.41 -1.79436 3.9495 0
M  V30 28493 H 2648.08 -3.37326 4.36939 0
M  V30 28494 H 2650.56 -3.36869 2.44251 0
M  V30 28495 H 2649.44 -4.68995 2.85193 0
M  V30 28496 H 2649.7 -4.26394 1.16793 0
M  V30 28497 N 2648.76 -1.2161 -1.00244 0
M  V30 28498 C 2649.98 -1.0617 -1.78165 0
M  V30 28499 C 2650.41 0.384002 -1.84139 0
M  V30 28500 O 2649.76 1.2771 -1.28685 0
M  V30 28501 C 2649.81 -1.66648 -3.19783 0
M  V30 28502 O 2648.92 -0.913684 -4.02151 0
M  V30 28503 H 2648.26 -0.3735 -0.548993 0
M  V30 28504 H 2650.79 -1.61206 -1.25991 0
M  V30 28505 H 2650.8 -1.70975 -3.70448 0
M  V30 28506 H 2649.47 -2.71856 -3.14749 0
M  V30 28507 H 2648.05 -0.945698 -3.60709 0
M  V30 28508 N 2650.23 1.19778 -1.02425 0
M  V30 28509 C 2651.48 1.89343 -0.718021 0
M  V30 28510 C 2651.81 1.79332 0.753004 0
M  V30 28511 O 2651.06 1.17695 1.56353 0
M  V30 28512 C 2651.36 3.39763 -1.10886 0
M  V30 28513 C 2651.03 3.69976 -2.57738 0
M  V30 28514 C 2649.69 3.77932 -2.97861 0
M  V30 28515 C 2652.04 3.8367 -3.5277 0
M  V30 28516 C 2649.37 3.97047 -4.31938 0
M  V30 28517 C 2651.72 4.04297 -4.86545 0
M  V30 28518 C 2650.39 4.10485 -5.26363 0
M  V30 28519 H 2649.66 0.692855 -0.262742 0
M  V30 28520 H 2652.3 1.41873 -1.28625 0
M  V30 28521 H 2650.61 3.891 -0.459162 0
M  V30 28522 H 2652.31 3.91899 -0.849501 0
M  V30 28523 H 2648.9 3.64389 -2.25652 0
M  V30 28524 H 2653.08 3.76872 -3.22926 0
M  V30 28525 H 2648.34 4.00075 -4.62331 0
M  V30 28526 H 2652.51 4.13836 -5.60101 0
M  V30 28527 H 2650.14 4.25049 -6.30268 0
M  V30 28528 N 2651.71 0.801501 1.35697 0
M  V30 28529 C 2652.96 0.376014 1.98164 0
M  V30 28530 C 2653.27 -1.06125 1.64307 0
M  V30 28531 O 2654.48 -1.5896 2.201 0
M  V30 28532 C 2652.94 0.621367 3.54495 0
M  V30 28533 C 2652.54 2.07083 3.97266 0
M  V30 28534 C 2654.29 0.260985 4.23697 0
M  V30 28535 C 2652.19 2.26221 5.46423 0
M  V30 28536 H 2651.12 0.136857 0.741476 0
M  V30 28537 H 2653.78 0.984842 1.54833 0
M  V30 28538 H 2652.16 -0.0573416 3.95958 0
M  V30 28539 H 2653.33 2.78694 3.66969 0
M  V30 28540 H 2651.65 2.3906 3.40939 0
M  V30 28541 H 2654.24 0.382088 5.33333 0
M  V30 28542 H 2654.59 -0.792272 4.08691 0
M  V30 28543 H 2655.12 0.893408 3.87638 0
M  V30 28544 H 2651.86 3.29973 5.6639 0
M  V30 28545 H 2651.38 1.59129 5.78306 0
M  V30 28546 H 2653.06 2.07524 6.12815 0
M  V30 28547 N 2653.19 -1.47521 0.554558 0
M  V30 28548 C 2654.44 -2.02478 0.0295146 0
M  V30 28549 C 2654.76 -1.42919 -1.31926 0
M  V30 28550 O 2654.02 -0.573418 -1.87111 0
M  V30 28551 C 2654.32 -3.57212 -0.115864 0
M  V30 28552 C 2653.98 -4.35678 1.16168 0
M  V30 28553 C 2652.65 -4.56836 1.51176 0
M  V30 28554 C 2655 -4.8095 2.00839 0
M  V30 28555 C 2652.33 -5.20515 2.70705 0
M  V30 28556 C 2654.68 -5.45947 3.19569 0
M  V30 28557 C 2653.34 -5.65339 3.54892 0
M  V30 28558 H 2652.61 -0.740921 0.0108002 0
M  V30 28559 H 2655.26 -1.77224 0.725537 0
M  V30 28560 H 2653.56 -3.81445 -0.894835 0
M  V30 28561 H 2655.26 -3.97382 -0.53742 0
M  V30 28562 H 2651.85 -4.19488 0.8791 0
M  V30 28563 H 2656.04 -4.64385 1.75101 0
M  V30 28564 H 2651.29 -5.33723 2.98245 0
M  V30 28565 H 2655.47 -5.7999 3.85466 0
M  V30 28566 H 2653.09 -6.14453 4.47607 0
M  V30 28567 N 2654.67 -0.290879 -1.54892 0
M  V30 28568 C 2655.6 0.583044 -2.26104 0
M  V30 28569 C 2656.58 1.14617 -1.25686 0
M  V30 28570 O 2657.76 1.17739 -1.54439 0
M  V30 28571 C 2654.89 1.75982 -2.99412 0
M  V30 28572 C 2653.85 1.32751 -4.06892 0
M  V30 28573 C 2653.17 2.58864 -4.67861 0
M  V30 28574 C 2654.47 0.466148 -5.20216 0
M  V30 28575 H 2656.17 -0.0108741 -2.99398 0
M  V30 28576 H 2653.71 -0.00666999 -1.43998 0
M  V30 28577 H 2655.67 2.3772 -3.47947 0
M  V30 28578 H 2654.39 2.37981 -2.23679 0
M  V30 28579 H 2653.05 0.733236 -3.59192 0
M  V30 28580 H 2652.7 3.19156 -3.88778 0
M  V30 28581 H 2652.4 2.30644 -5.40442 0
M  V30 28582 H 2653.92 3.21424 -5.19152 0
M  V30 28583 H 2655.34 0.988948 -5.64706 0
M  V30 28584 H 2653.73 0.278155 -5.99455 0
M  V30 28585 H 2654.8 -0.511257 -4.82197 0
M  V30 28586 N 2656.15 1.57589 -0.0184203 0
M  V30 28587 C 2657.39 1.93217 0.666812 0
M  V30 28588 C 2657.75 0.894245 1.69904 0
M  V30 28589 O 2658.95 1.13637 2.43598 0
M  V30 28590 C 2657.22 3.33816 1.27678 0
M  V30 28591 S 2658.78 3.91357 1.98457 0
M  V30 28592 H 2655.6 0.676168 0.219814 0
M  V30 28593 H 2658.2 1.95338 -0.0795236 0
M  V30 28594 H 2656.9 4.07182 0.512934 0
M  V30 28595 H 2656.44 3.35113 2.06065 0
M  V30 28596 H 2658.45 3.73924 3.26183 0
M  V30 28597 N 2657.62 -0.254594 1.5553 0
M  V30 28598 C 2658.85 -1.00569 1.81385 0
M  V30 28599 C 2659.27 -1.7846 0.59445 0
M  V30 28600 O 2658.63 -1.75462 -0.456372 0
M  V30 28601 C 2658.68 -1.92539 3.04895 0
M  V30 28602 O 2657.78 -3.01596 2.81271 0
M  V30 28603 H 2657.12 -0.286576 0.598974 0
M  V30 28604 H 2659.65 -0.277917 2.02704 0
M  V30 28605 H 2659.66 -2.3415 3.34123 0
M  V30 28606 H 2658.34 -1.35263 3.9329 0
M  V30 28607 H 2656.92 -2.64169 2.6319 0
M  V30 28608 N 2659.1 -1.48777 -0.519925 0
M  V30 28609 C 2660.35 -1.57306 -1.27519 0
M  V30 28610 C 2660.68 -0.251362 -1.92869 0
M  V30 28611 O 2659.93 0.759212 -1.80373 0
M  V30 28612 C 2660.23 -2.66754 -2.37859 0
M  V30 28613 C 2659.9 -4.0887 -1.90095 0
M  V30 28614 C 2658.56 -4.47549 -1.76787 0
M  V30 28615 C 2660.91 -4.97891 -1.54124 0
M  V30 28616 C 2658.24 -5.73042 -1.25858 0
M  V30 28617 C 2660.59 -6.23883 -1.04654 0
M  V30 28618 C 2659.25 -6.61409 -0.899707 0
M  V30 28619 H 2658.52 -0.575622 -0.466626 0
M  V30 28620 H 2661.17 -1.82535 -0.579077 0
M  V30 28621 H 2659.48 -2.35423 -3.13182 0
M  V30 28622 H 2661.17 -2.70566 -2.95964 0
M  V30 28623 H 2657.76 -3.78329 -2.01407 0
M  V30 28624 H 2661.95 -4.68678 -1.63261 0
M  V30 28625 H 2657.2 -6.00832 -1.13185 0
M  V30 28626 H 2661.38 -6.92252 -0.758952 0
M  V30 28627 H 2659 -7.58535 -0.502878 0
M  V30 28628 N 2660.58 0.769564 -1.37534 0
M  V30 28629 C 2661.51 1.8968 -1.36176 0
M  V30 28630 C 2662.49 1.68537 -0.23004 0
M  V30 28631 O 2663.68 1.89363 -0.430723 0
M  V30 28632 C 2660.81 3.26993 -1.17016 0
M  V30 28633 C 2659.76 3.62704 -2.27222 0
M  V30 28634 C 2659.09 4.98582 -1.93183 0
M  V30 28635 C 2660.39 3.69228 -3.69416 0
M  V30 28636 H 2662.08 1.91074 -2.30502 0
M  V30 28637 H 2659.63 0.917882 -1.10955 0
M  V30 28638 H 2661.58 4.05491 -1.14695 0
M  V30 28639 H 2660.3 3.26038 -0.191453 0
M  V30 28640 H 2658.96 2.86515 -2.28702 0
M  V30 28641 H 2658.61 4.9417 -0.938368 0
M  V30 28642 H 2658.31 5.23445 -2.66982 0
M  V30 28643 H 2659.83 5.79477 -1.92453 0
M  V30 28644 H 2661.25 4.37873 -3.70055 0
M  V30 28645 H 2659.64 4.05589 -4.42287 0
M  V30 28646 H 2660.71 2.69837 -4.02885 0
M  V30 28647 N 2662.06 1.22139 0.995977 0
M  V30 28648 C 2662.99 0.931988 2.08301 0
M  V30 28649 C 2663.97 -0.123927 1.62127 0
M  V30 28650 O 2665.15 0.00699318 1.88499 0
M  V30 28651 C 2662.28 0.401127 3.36316 0
M  V30 28652 C 2661.33 1.44124 4.01411 0
M  V30 28653 S 2662.16 3.01353 4.42659 0
M  V30 28654 C 2663.32 2.49897 5.73849 0
M  V30 28655 H 2663.55 1.8525 2.32529 0
M  V30 28656 H 2661.08 1.05212 1.13003 0
M  V30 28657 H 2663.04 0.101424 4.10375 0
M  V30 28658 H 2661.7 -0.498217 3.10124 0
M  V30 28659 H 2660.89 1.01961 4.93579 0
M  V30 28660 H 2660.5 1.68949 3.33665 0
M  V30 28661 H 2662.79 1.90946 6.50035 0
M  V30 28662 H 2663.73 3.40543 6.20835 0
M  V30 28663 H 2664.14 1.91289 5.31101 0
M  V30 28664 N 2663.54 -1.19233 1.03059 0
M  V30 28665 C 2664.47 -2.24741 0.633537 0
M  V30 28666 C 2665.45 -1.66283 -0.358306 0
M  V30 28667 O 2666.63 -1.92703 -0.240642 0
M  V30 28668 C 2663.76 -3.47297 -0.0147038 0
M  V30 28669 C 2662.72 -4.18439 0.8996 0
M  V30 28670 C 2662.04 -5.34573 0.116375 0
M  V30 28671 C 2663.34 -4.73048 2.21412 0
M  V30 28672 H 2665.04 -2.58208 1.51555 0
M  V30 28673 H 2662.58 -1.24115 0.730161 0
M  V30 28674 H 2664.54 -4.20301 -0.304128 0
M  V30 28675 H 2663.26 -3.13034 -0.931522 0
M  V30 28676 H 2661.92 -3.47319 1.17325 0
M  V30 28677 H 2661.57 -4.96557 -0.802531 0
M  V30 28678 H 2661.27 -5.83105 0.725395 0
M  V30 28679 H 2662.79 -6.10374 -0.166269 0
M  V30 28680 H 2664.2 -5.37798 1.9861 0
M  V30 28681 H 2662.6 -5.32073 2.77521 0
M  V30 28682 H 2663.67 -3.91021 2.86759 0
M  V30 28683 N 2665.01 -0.808686 -1.3527 0
M  V30 28684 C 2665.96 -0.208646 -2.31662 0
M  V30 28685 C 2666.96 0.64275 -1.56733 0
M  V30 28686 O 2668.16 0.535679 -1.71844 0
M  V30 28687 H 2664.54 -0.0487124 -0.750421 0
M  V30 28688 H 2666.51 -1.03671 -2.79812 0
M  V30 28689 C 2665.26 0.626513 -3.42009 0
M  V30 28690 H 2664.58 -0.0192806 -3.99795 0
M  V30 28691 H 2666.02 1.01271 -4.11728 0
M  V30 28692 C 2664.48 1.79293 -2.85229 0
M  V30 28693 O 2665.01 2.8905 -2.7895 0
M  V30 28694 N 2663.22 1.60512 -2.42248 0
M  V30 28695 H 2662.76 0.712331 -2.47555 0
M  V30 28696 H 2662.72 2.38712 -2.04607 0
M  V30 28697 N 2666.49 1.47225 -0.562374 0
M  V30 28698 C 2667.42 2.32876 0.170586 0
M  V30 28699 C 2668.4 1.44107 0.903722 0
M  V30 28700 O 2669.59 1.72956 0.883176 0
M  V30 28701 C 2666.72 3.25991 1.1978 0
M  V30 28702 C 2665.67 4.24041 0.580801 0
M  V30 28703 C 2665 5.06517 1.71302 0
M  V30 28704 C 2666.3 5.20192 -0.468806 0
M  V30 28705 H 2667.99 2.94407 -0.544492 0
M  V30 28706 H 2665.54 1.41572 -0.263296 0
M  V30 28707 H 2667.49 3.84755 1.71877 0
M  V30 28708 H 2666.22 2.62525 1.94289 0
M  V30 28709 H 2664.87 3.6651 0.0810894 0
M  V30 28710 H 2664.52 4.39451 2.44728 0
M  V30 28711 H 2664.22 5.72904 1.30594 0
M  V30 28712 H 2665.75 5.68141 2.23715 0
M  V30 28713 H 2667.16 5.7329 -0.0337035 0
M  V30 28714 H 2665.56 5.9481 -0.795062 0
M  V30 28715 H 2666.63 4.65356 -1.36277 0
M  V30 28716 N 2667.97 0.299089 1.54736 0
M  V30 28717 C 2669.22 -0.310748 2.00101 0
M  V30 28718 C 2669.55 -1.54042 1.18748 0
M  V30 28719 O 2668.8 -1.94081 0.251232 0
M  V30 28720 C 2669.1 -0.713773 3.502 0
M  V30 28721 C 2668.77 0.413952 4.48996 0
M  V30 28722 C 2667.43 0.723546 4.75729 0
M  V30 28723 C 2669.78 1.17266 5.07837 0
M  V30 28724 C 2667.11 1.795 5.58566 0
M  V30 28725 C 2669.46 2.23402 5.9184 0
M  V30 28726 C 2668.12 2.5497 6.16885 0
M  V30 28727 H 2667.39 -0.113711 0.732223 0
M  V30 28728 H 2670.04 0.417789 1.86887 0
M  V30 28729 H 2668.35 -1.52237 3.61014 0
M  V30 28730 H 2670.04 -1.19677 3.82725 0
M  V30 28731 H 2666.63 0.162551 4.28292 0
M  V30 28732 H 2670.82 0.946737 4.87186 0
M  V30 28733 H 2666.07 2.04433 5.76209 0
M  V30 28734 H 2670.25 2.82651 6.3646 0
M  V30 28735 H 2667.87 3.38126 6.80863 0
M  V30 28736 N 2669.45 -1.57577 0.0267774 0
M  V30 28737 C 2670.69 -1.91988 -0.653337 0
M  V30 28738 C 2671.03 -0.903293 -1.71913 0
M  V30 28739 O 2670.3 0.0743045 -1.94358 0
M  V30 28740 C 2670.59 -3.36888 -1.27194 0
M  V30 28741 C 2670.44 -4.49282 -0.215859 0
M  V30 28742 C 2671.76 -3.81707 -2.19062 0
M  V30 28743 H 2668.88 -0.698181 -0.236035 0
M  V30 28744 H 2671.52 -1.89816 0.083557 0
M  V30 28745 H 2669.67 -3.3887 -1.89999 0
M  V30 28746 H 2671.34 -4.59433 0.414571 0
M  V30 28747 H 2669.58 -4.31366 0.458931 0
M  V30 28748 H 2670.25 -5.47693 -0.688251 0
M  V30 28749 H 2672.73 -3.81447 -1.66246 0
M  V30 28750 H 2671.61 -4.83793 -2.59299 0
M  V30 28751 H 2671.87 -3.17078 -3.08081 0
M  V30 28752 N 2670.93 0.246342 -1.55663 0
M  V30 28753 C 2671.89 1.28839 -1.8956 0
M  V30 28754 C 2672.89 1.4105 -0.772107 0
M  V30 28755 O 2674.08 1.39741 -1.0401 0
M  V30 28756 C 2671.21 2.66602 -2.12453 0
M  V30 28757 H 2672.4 0.999992 -2.82737 0
M  V30 28758 H 2669.96 0.485658 -1.48563 0
M  V30 28759 H 2670.69 3.0058 -1.21747 0
M  V30 28760 H 2670.48 2.5912 -2.94278 0
M  V30 28761 H 2671.97 3.41843 -2.3986 0
M  V30 28762 N 2672.4 1.4905 0.512027 0
M  V30 28763 C 2673.65 1.58214 1.26871 0
M  V30 28764 C 2673.98 0.263107 1.92409 0
M  V30 28765 O 2673.26 -0.732444 1.80182 0
M  V30 28766 C 2673.54 2.73345 2.34424 0
M  V30 28767 C 2673.39 4.15009 1.73459 0
M  V30 28768 C 2674.71 2.84159 3.36068 0
M  V30 28769 H 2671.83 0.575889 0.459914 0
M  V30 28770 H 2674.47 1.81294 0.568556 0
M  V30 28771 H 2672.62 2.53797 2.94142 0
M  V30 28772 H 2674.3 4.46044 1.17653 0
M  V30 28773 H 2672.54 4.2117 1.03914 0
M  V30 28774 H 2673.21 4.9142 2.51417 0
M  V30 28775 H 2675.69 3.01921 2.86327 0
M  V30 28776 H 2674.56 3.66413 4.08696 0
M  V30 28777 H 2674.82 1.93054 3.97721 0
M  V30 28778 N 2673.88 -0.762259 1.3794 0
M  V30 28779 C 2675.13 -1.51645 1.32991 0
M  V30 28780 C 2675.44 -1.95435 -0.0802578 0
M  V30 28781 O 2676.65 -2.70326 -0.252248 0
M  V30 28782 C 2675.11 -2.73881 2.3349 0
M  V30 28783 C 2674.71 -2.37151 3.80084 0
M  V30 28784 C 2676.46 -3.51797 2.37569 0
M  V30 28785 C 2674.37 -3.55945 4.72289 0
M  V30 28786 H 2673.3 -0.569362 0.494311 0
M  V30 28787 H 2675.95 -0.834054 1.6345 0
M  V30 28788 H 2674.33 -3.44058 1.96062 0
M  V30 28789 H 2675.5 -1.74696 4.26401 0
M  V30 28790 H 2673.82 -1.72388 3.7904 0
M  V30 28791 H 2676.41 -4.40109 3.03658 0
M  V30 28792 H 2676.76 -3.92336 1.39206 0
M  V30 28793 H 2677.29 -2.88625 2.73752 0
M  V30 28794 H 2674.03 -3.2048 5.71815 0
M  V30 28795 H 2673.55 -4.17473 4.3067 0
M  V30 28796 H 2675.23 -4.22638 4.89884 0
M  V30 28797 N 2675.36 -1.22666 -0.989486 0
M  V30 28798 C 2676.29 -0.943022 -2.07804 0
M  V30 28799 C 2677.27 0.115328 -1.6219 0
M  V30 28800 O 2678.46 -0.0169896 -1.88492 0
M  V30 28801 C 2675.58 -0.418957 -3.36099 0
M  V30 28802 C 2674.63 -1.46251 -4.00641 0
M  V30 28803 S 2675.46 -3.03696 -4.41054 0
M  V30 28804 C 2676.62 -2.52937 -5.72515 0
M  V30 28805 H 2676.85 -1.86481 -2.31543 0
M  V30 28806 H 2674.38 -1.0581 -1.12444 0
M  V30 28807 H 2676.34 -0.123186 -4.10315 0
M  V30 28808 H 2675 0.481763 -3.10383 0
M  V30 28809 H 2674.2 -1.04577 -4.93031 0
M  V30 28810 H 2673.8 -1.70716 -3.32764 0
M  V30 28811 H 2676.09 -1.9439 -6.49014 0
M  V30 28812 H 2677.03 -3.43831 -6.1902 0
M  V30 28813 H 2677.44 -1.94103 -5.3008 0
M  V30 28814 N 2676.84 1.18685 -1.0369 0
M  V30 28815 C 2678.12 1.84398 -0.652429 0
M  V30 28816 C 2678.5 1.92413 0.868352 0
M  V30 28817 O 2677.84 1.44719 1.7683 0
M  V30 28818 C 2678.05 3.22917 -1.32385 0
M  V30 28819 C 2679.4 3.98993 -1.45223 0
M  V30 28820 O 2680.43 3.32343 -1.28166 0
M  V30 28821 O 2679.29 5.184 -1.72984 0
M  V30 28822 H 2676.38 0.795005 -0.227806 0
M  V30 28823 H 2678.93 1.26108 -1.13555 0
M  V30 28824 H 2677.7 3.11964 -2.36208 0
M  V30 28825 H 2677.32 3.88859 -0.829107 0
M  V30 28826 N 2678.32 0.815849 1.34839 0
M  V30 28827 C 2679.27 0.220929 2.31548 0
M  V30 28828 C 2680.26 -0.634429 1.57071 0
M  V30 28829 O 2681.47 -0.526559 1.72126 0
M  V30 28830 H 2677.84 0.0526914 0.750152 0
M  V30 28831 H 2679.81 1.05154 2.79258 0
M  V30 28832 C 2678.56 -0.608367 3.42336 0
M  V30 28833 H 2677.88 0.0404824 3.9978 0
M  V30 28834 H 2679.32 -0.990858 4.1226 0
M  V30 28835 C 2677.78 -1.77777 2.86176 0
M  V30 28836 O 2678.31 -2.87566 2.80479 0
M  V30 28837 N 2676.52 -1.59225 2.43096 0
M  V30 28838 H 2676.07 -0.699193 2.4793 0
M  V30 28839 H 2676.02 -2.37623 2.0587 0
M  V30 28840 N 2679.8 -1.46924 0.570174 0
M  V30 28841 C 2681.04 -2.02436 0.0509885 0
M  V30 28842 C 2681.37 -1.4431 -1.30403 0
M  V30 28843 O 2680.63 -0.593231 -1.86492 0
M  V30 28844 C 2680.92 -3.57315 -0.0779708 0
M  V30 28845 C 2680.59 -4.34422 1.20783 0
M  V30 28846 C 2679.25 -4.55207 1.56012 0
M  V30 28847 C 2681.6 -4.78793 2.05929 0
M  V30 28848 C 2678.93 -5.17614 2.76211 0
M  V30 28849 C 2681.28 -5.42527 3.25341 0
M  V30 28850 C 2679.95 -5.61543 3.60868 0
M  V30 28851 H 2679.22 -0.740765 0.018658 0
M  V30 28852 H 2681.87 -1.76444 0.744293 0
M  V30 28853 H 2680.17 -3.82372 -0.854327 0
M  V30 28854 H 2681.87 -3.9793 -0.495242 0
M  V30 28855 H 2678.46 -4.18532 0.923542 0
M  V30 28856 H 2682.64 -4.62502 1.80017 0
M  V30 28857 H 2677.9 -5.30529 3.03889 0
M  V30 28858 H 2682.07 -5.75869 3.91596 0
M  V30 28859 H 2679.7 -6.0967 4.54099 0
M  V30 28860 N 2681.27 -0.307291 -1.54575 0
M  V30 28861 C 2682.18 0.57532 -2.27436 0
M  V30 28862 C 2683.2 1.14309 -1.31185 0
M  V30 28863 O 2684.38 1.16653 -1.64177 0
M  V30 28864 C 2681.44 1.72798 -3.00569 0
M  V30 28865 C 2680.5 1.19366 -4.12371 0
M  V30 28866 C 2679.73 2.29139 -4.82007 0
M  V30 28867 O 2679.96 3.49164 -4.51044 0
M  V30 28868 O 2678.89 1.95475 -5.69274 0
M  V30 28869 H 2682.72 -0.0159092 -3.03696 0
M  V30 28870 H 2680.3 -0.0735326 -1.49219 0
M  V30 28871 H 2682.18 2.3994 -3.4642 0
M  V30 28872 H 2680.86 2.3057 -2.27199 0
M  V30 28873 H 2679.77 0.487786 -3.70906 0
M  V30 28874 H 2681.1 0.66129 -4.87737 0
M  V30 28875 N 2682.75 1.57561 -0.0351337 0
M  V30 28876 C 2683.98 1.96066 0.651277 0
M  V30 28877 C 2684.39 0.910543 1.65849 0
M  V30 28878 O 2683.73 -0.115487 1.83337 0
M  V30 28879 C 2683.79 3.30742 1.40891 0
M  V30 28880 C 2683.46 4.53564 0.559357 0
M  V30 28881 C 2684.46 5.19629 -0.167872 0
M  V30 28882 C 2682.14 4.99855 0.494991 0
M  V30 28883 C 2684.13 6.3031 -0.948074 0
M  V30 28884 C 2681.82 6.10417 -0.288911 0
M  V30 28885 C 2682.82 6.75504 -1.00915 0
M  V30 28886 O 2682.51 7.83942 -1.78019 0
M  V30 28887 H 2682.24 0.65047 0.184024 0
M  V30 28888 H 2684.79 2.05189 -0.0930037 0
M  V30 28889 H 2683.02 3.18126 2.19847 0
M  V30 28890 H 2684.71 3.54107 1.98401 0
M  V30 28891 H 2685.48 4.84832 -0.127515 0
M  V30 28892 H 2681.36 4.48996 1.04516 0
M  V30 28893 H 2684.9 6.81045 -1.51076 0
M  V30 28894 H 2680.8 6.44651 -0.330963 0
M  V30 28895 H 2681.57 8.00638 -1.7006 0
M  V30 28896 N 2684.23 -0.238084 1.55791 0
M  V30 28897 C 2685.16 -1.29842 1.9407 0
M  V30 28898 C 2686.14 -1.49752 0.806752 0
M  V30 28899 O 2687.33 -1.62212 1.06775 0
M  V30 28900 C 2684.46 -2.65149 2.24307 0
M  V30 28901 C 2683.41 -2.59921 3.40037 0
M  V30 28902 C 2682.74 -3.99105 3.55836 0
M  V30 28903 C 2684.04 -2.16139 4.7548 0
M  V30 28904 H 2685.73 -0.980514 2.82889 0
M  V30 28905 H 2683.28 -0.470229 1.36106 0
M  V30 28906 H 2685.23 -3.3947 2.49676 0
M  V30 28907 H 2683.95 -2.98594 1.32323 0
M  V30 28908 H 2682.61 -1.88057 3.1469 0
M  V30 28909 H 2682.26 -4.2983 2.61258 0
M  V30 28910 H 2681.96 -3.96493 4.33667 0
M  V30 28911 H 2683.48 -4.75113 3.83536 0
M  V30 28912 H 2684.9 -2.80197 5.00163 0
M  V30 28913 H 2683.29 -2.24621 5.56476 0
M  V30 28914 H 2684.36 -1.11325 4.71948 0
M  V30 28915 N 2685.71 -1.4932 -0.504115 0
M  V30 28916 C 2686.94 -1.62353 -1.28254 0
M  V30 28917 C 2687.35 -0.293715 -1.86501 0
M  V30 28918 O 2686.71 0.72042 -1.67679 0
M  V30 28919 C 2686.76 -2.68996 -2.41502 0
M  V30 28920 O 2686.48 -3.9682 -1.85649 0
M  V30 28921 C 2687.98 -2.92706 -3.32923 0
M  V30 28922 H 2685.2 -0.546661 -0.389106 0
M  V30 28923 H 2687.74 -1.9533 -0.605496 0
M  V30 28924 H 2685.9 -2.38806 -3.05042 0
M  V30 28925 H 2686.31 -4.55538 -2.59973 0
M  V30 28926 H 2687.79 -3.71066 -4.08674 0
M  V30 28927 H 2688.26 -2.02503 -3.8973 0
M  V30 28928 H 2688.87 -3.24301 -2.75153 0
M  V30 28929 N 2687.19 0.754933 -1.38342 0
M  V30 28930 C 2688.6 1.05781 -1.1951 0
M  V30 28931 C 2688.8 2.01454 -0.0428359 0
M  V30 28932 O 2687.86 2.44976 0.611817 0
M  V30 28933 C 2689.17 1.63919 -2.52094 0
M  V30 28934 C 2690.72 1.76096 -2.58765 0
M  V30 28935 C 2691.19 2.37645 -3.91521 0
M  V30 28936 N 2692.68 2.45078 -3.93054 0
M  V30 28937 C 2693.42 2.93593 -4.92535 0
M  V30 28938 N 2692.92 3.42154 -6.02414 0
M  V30 28939 N 2694.71 2.92621 -4.79926 0
M  V30 28940 H 2686.86 0.120019 -2.12061 0
M  V30 28941 H 2689.12 0.115874 -0.940892 0
M  V30 28942 H 2688.83 1.01087 -3.36859 0
M  V30 28943 H 2688.7 2.62998 -2.70392 0
M  V30 28944 H 2691.09 2.38055 -1.74395 0
M  V30 28945 H 2691.17 0.757251 -2.44335 0
M  V30 28946 H 2690.81 1.7632 -4.76312 0
M  V30 28947 H 2690.74 3.38655 -4.03262 0
M  V30 28948 H 2693.24 2.10731 -3.13689 0
M  V30 28949 H 2693.55 3.77625 -6.74255 0
M  V30 28950 H 2691.89 3.40215 -6.06036 0
M  V30 28951 H 2695.08 2.53994 -3.93198 0
M  V30 28952 H 2695.26 3.30118 -5.57607 0
M  V30 28953 N 2688.66 1.23189 0.982967 0
M  V30 28954 C 2689.94 0.970737 1.69812 0
M  V30 28955 C 2690.32 -0.511388 2.04812 0
M  V30 28956 O 2689.67 -1.48195 1.73927 0
M  V30 28957 C 2689.88 1.87837 2.9414 0
M  V30 28958 C 2691.23 2.14032 3.66709 0
M  V30 28959 O 2692.25 1.85366 3.04168 0
M  V30 28960 O 2691.11 2.62637 4.79254 0
M  V30 28961 H 2688.2 0.365897 0.741652 0
M  V30 28962 H 2690.75 1.3422 1.03842 0
M  V30 28963 H 2689.52 2.88043 2.64853 0
M  V30 28964 H 2689.14 1.50912 3.67847 0
M  V30 28965 N 2690.14 -1.18133 1.04318 0
M  V30 28966 C 2691.37 -1.92653 0.768081 0
M  V30 28967 C 2691.79 -1.75801 -0.669009 0
M  V30 28968 O 2691.15 -1.06983 -1.4637 0
M  V30 28969 C 2691.2 -3.42024 1.14245 0
M  V30 28970 O 2690.3 -4.11519 0.269405 0
M  V30 28971 H 2689.64 -0.600932 0.282447 0
M  V30 28972 H 2692.17 -1.49791 1.39369 0
M  V30 28973 H 2692.18 -3.92739 1.10545 0
M  V30 28974 H 2690.86 -3.53611 2.18934 0
M  V30 28975 H 2689.43 -3.71097 0.366241 0
M  V30 28976 N 2691.62 -0.822988 -1.34405 0
M  V30 28977 C 2692.85 -0.42307 -2.03039 0
M  V30 28978 C 2693.27 0.963168 -1.61569 0
M  V30 28979 O 2692.63 1.62677 -0.800367 0
M  V30 28980 C 2692.68 -0.533272 -3.56635 0
M  V30 28981 O 2691.78 0.446867 -4.09972 0
M  V30 28982 H 2691.12 -0.174183 -0.640747 0
M  V30 28983 H 2693.65 -1.11342 -1.71651 0
M  V30 28984 H 2693.66 -0.409062 -4.05944 0
M  V30 28985 H 2692.34 -1.54432 -3.86165 0
M  V30 28986 H 2690.91 0.281536 -3.71836 0
M  V30 28987 N 2693.1 1.4662 -0.577957 0
M  V30 28988 C 2694.35 2.01612 -0.0594635 0
M  V30 28989 C 2694.66 1.45558 1.3066 0
M  V30 28990 O 2695.87 1.92341 1.91618 0
M  V30 28991 C 2694.32 3.59857 -0.0557298 0
M  V30 28992 C 2693.93 4.24906 -1.41982 0
M  V30 28993 C 2695.67 4.22524 0.409069 0
M  V30 28994 C 2693.58 5.75216 -1.37407 0
M  V30 28995 H 2692.51 0.753774 -0.0184602 0
M  V30 28996 H 2695.16 1.68402 -0.728898 0
M  V30 28997 H 2693.54 3.90122 0.679774 0
M  V30 28998 H 2694.72 4.06256 -2.17468 0
M  V30 28999 H 2693.03 3.74313 -1.82425 0
M  V30 29000 H 2695.63 5.327 0.462017 0
M  V30 29001 H 2695.97 3.9113 1.42559 0
M  V30 29002 H 2696.51 3.96867 -0.272222 0
M  V30 29003 H 2693.25 6.11262 -2.36724 0
M  V30 29004 H 2692.77 5.96143 -0.661344 0
M  V30 29005 H 2694.44 6.37838 -1.08495 0
M  V30 29006 N 2694.58 0.315484 1.5441 0
M  V30 29007 C 2695.51 -0.546999 2.27003 0
M  V30 29008 C 2696.49 -1.12603 1.27494 0
M  V30 29009 O 2697.67 -1.15267 1.56292 0
M  V30 29010 C 2694.8 -1.71196 3.02174 0
M  V30 29011 C 2693.76 -1.26261 4.08952 0
M  V30 29012 C 2693.08 -2.51388 4.7192 0
M  V30 29013 C 2694.38 -0.383327 5.20891 0
M  V30 29014 H 2696.08 0.0585043 2.99343 0
M  V30 29015 H 2693.62 0.0295781 1.4397 0
M  V30 29016 H 2695.58 -2.32155 3.51685 0
M  V30 29017 H 2694.3 -2.34393 2.27437 0
M  V30 29018 H 2692.96 -0.675999 3.60313 0
M  V30 29019 H 2692.61 -3.12931 3.93806 0
M  V30 29020 H 2692.31 -2.22017 5.44043 0
M  V30 29021 H 2693.83 -3.13124 5.242 0
M  V30 29022 H 2695.24 -0.898983 5.66208 0
M  V30 29023 H 2693.64 -0.182752 5.99822 0
M  V30 29024 H 2694.71 0.587906 4.81323 0
M  V30 29025 N 2696.05 -1.5754 0.0434891 0
M  V30 29026 C 2697.3 -1.92005 -0.630753 0
M  V30 29027 C 2697.62 -0.921838 -1.71835 0
M  V30 29028 O 2696.89 0.0344876 -1.9587 0
M  V30 29029 H 2695.47 -0.708749 -0.235975 0
M  V30 29030 H 2698.14 -1.9467 0.0946804 0
M  V30 29031 H 2697.23 -2.93028 -1.07429 0
M  V30 29032 N 2697.53 0.229818 -1.55915 0
M  V30 29033 C 2698.94 0.797501 -1.6881 0
M  V30 29034 C 2699.29 1.85329 -0.644027 0
M  V30 29035 O 2698.42 2.15413 0.206454 0
M  V30 29036 C 2699.01 1.45333 -3.06045 0
M  V30 29037 C 2697.57 1.9685 -3.20822 0
M  V30 29038 C 2696.72 0.825689 -2.64722 0
M  V30 29039 H 2699.67 0.00530944 -1.58699 0
M  V30 29040 H 2699.69 2.32191 -3.01443 0
M  V30 29041 H 2699.2 0.684676 -3.82013 0
M  V30 29042 H 2697.31 2.76543 -2.49709 0
M  V30 29043 H 2697.42 2.15415 -4.2794 0
M  V30 29044 H 2695.78 1.2308 -2.22988 0
M  V30 29045 H 2696.57 0.0698416 -3.43229 0
M  V30 29046 N 2699.01 1.49585 0.49619 0
M  V30 29047 C 2699.96 1.63001 1.59419 0
M  V30 29048 C 2700.94 0.485484 1.53401 0
M  V30 29049 O 2702.14 0.738677 1.6085 0
M  V30 29050 C 2699.27 1.70432 2.98006 0
M  V30 29051 C 2698.35 2.90479 3.09003 0
M  V30 29052 N 2698.74 4.14494 2.89876 0
M  V30 29053 C 2697.04 2.88516 3.4011 0
M  V30 29054 C 2697.74 4.95216 3.05182 0
M  V30 29055 N 2696.72 4.28676 3.34273 0
M  V30 29056 H 2700.52 2.56602 1.43293 0
M  V30 29057 H 2698.03 1.46424 0.702417 0
M  V30 29058 H 2700.03 1.78142 3.76923 0
M  V30 29059 H 2698.69 0.779725 3.15199 0
M  V30 29060 H 2699.7 4.44396 2.65955 0
M  V30 29061 H 2696.38 2.05454 3.63449 0
M  V30 29062 H 2697.77 6.03751 2.94846 0
M  V30 29063 N 2700.49 -0.747586 1.3874 0
M  V30 29064 C 2701.44 -1.85224 1.32951 0
M  V30 29065 C 2702.42 -1.59488 0.21267 0
M  V30 29066 O 2703.61 -1.71206 0.449152 0
M  V30 29067 C 2700.74 -3.23006 1.16285 0
M  V30 29068 C 2699.83 -3.54613 2.32617 0
M  V30 29069 N 2700.22 -3.57238 3.58071 0
M  V30 29070 C 2698.52 -3.8491 2.253 0
M  V30 29071 C 2699.22 -3.86282 4.34926 0
M  V30 29072 N 2698.2 -4.03418 3.64355 0
M  V30 29073 H 2702 -1.8554 2.2793 0
M  V30 29074 H 2699.51 -0.94523 1.32057 0
M  V30 29075 H 2701.51 -4.02066 1.10221 0
M  V30 29076 H 2700.17 -3.23937 0.222451 0
M  V30 29077 H 2701.18 -3.38853 3.91662 0
M  V30 29078 H 2697.86 -3.93522 1.39453 0
M  V30 29079 H 2699.25 -3.94886 5.43612 0
M  V30 29080 N 2701.97 -1.23709 -0.97642 0
M  V30 29081 C 2702.9 -1.04627 -2.08747 0
M  V30 29082 C 2703.88 0.0380657 -1.70057 0
M  V30 29083 O 2705.06 -0.127342 -1.93782 0
M  V30 29084 C 2702.19 -0.640962 -3.41334 0
M  V30 29085 C 2701.15 -1.67309 -3.93944 0
M  V30 29086 C 2700.47 -1.1231 -5.22772 0
M  V30 29087 C 2701.77 -3.06705 -4.22764 0
M  V30 29088 H 2703.47 -1.97559 -2.24968 0
M  V30 29089 H 2701.01 -0.951266 -1.08106 0
M  V30 29090 H 2702.97 -0.494507 -4.18488 0
M  V30 29091 H 2701.69 0.324042 -3.24989 0
M  V30 29092 H 2700.35 -1.80761 -3.18937 0
M  V30 29093 H 2700 -0.148965 -5.02779 0
M  V30 29094 H 2699.7 -1.81277 -5.58939 0
M  V30 29095 H 2701.22 -0.988585 -6.02544 0
M  V30 29096 H 2702.63 -2.96532 -4.90654 0
M  V30 29097 H 2701.03 -3.72945 -4.7014 0
M  V30 29098 H 2702.1 -3.55398 -3.29879 0
M  V30 29099 N 2703.44 1.17579 -1.04943 0
M  V30 29100 C 2704.72 1.83696 -0.67195 0
M  V30 29101 C 2705.1 1.93323 0.847895 0
M  V30 29102 O 2704.45 1.46586 1.75285 0
M  V30 29103 C 2704.66 3.21494 -1.35803 0
M  V30 29104 C 2706.01 3.9743 -1.49447 0
M  V30 29105 O 2707.03 3.30965 -1.31684 0
M  V30 29106 O 2705.89 5.16536 -1.78472 0
M  V30 29107 H 2702.98 0.792544 -0.236226 0
M  V30 29108 H 2705.53 1.24897 -1.14887 0
M  V30 29109 H 2704.3 3.09441 -2.39503 0
M  V30 29110 H 2703.93 3.87958 -0.870304 0
M  V30 29111 N 2704.92 0.830104 1.33967 0
M  V30 29112 C 2705.83 0.259248 2.33163 0
M  V30 29113 C 2706.85 -0.610135 1.62952 0
M  V30 29114 O 2708.02 -0.516335 1.94669 0
M  V30 29115 C 2705.09 -0.563537 3.42089 0
M  V30 29116 C 2704.15 0.329089 4.28037 0
M  V30 29117 C 2703.38 -0.454522 5.31761 0
M  V30 29118 O 2703.61 -1.68711 5.44879 0
M  V30 29119 O 2702.54 0.1669 6.01669 0
M  V30 29120 H 2706.37 1.08046 2.83831 0
M  V30 29121 H 2703.95 0.592414 1.37153 0
M  V30 29122 H 2705.83 -1.0314 4.08583 0
M  V30 29123 H 2704.51 -1.36196 2.93654 0
M  V30 29124 H 2703.42 0.844602 3.64441 0
M  V30 29125 H 2704.75 1.09205 4.79932 0
M  V30 29126 N 2706.4 -1.46311 0.585725 0
M  V30 29127 C 2707.63 -2.06453 0.0780529 0
M  V30 29128 C 2708.04 -1.43456 -1.23357 0
M  V30 29129 O 2707.38 -0.535117 -1.75733 0
M  V30 29130 C 2707.44 -3.59149 -0.158888 0
M  V30 29131 C 2707.11 -4.44355 1.0676 0
M  V30 29132 C 2708.11 -4.80704 1.98039 0
M  V30 29133 C 2705.79 -4.85445 1.29029 0
M  V30 29134 C 2707.78 -5.56974 3.09933 0
M  V30 29135 C 2705.47 -5.61473 2.41228 0
M  V30 29136 C 2706.47 -5.97152 3.31509 0
M  V30 29137 O 2706.16 -6.71643 4.41759 0
M  V30 29138 H 2705.89 -0.673685 0.0559013 0
M  V30 29139 H 2708.44 -1.88882 0.807027 0
M  V30 29140 H 2706.67 -3.75038 -0.942509 0
M  V30 29141 H 2708.36 -4.01207 -0.615443 0
M  V30 29142 H 2709.13 -4.49536 1.82051 0
M  V30 29143 H 2705.01 -4.57123 0.596648 0
M  V30 29144 H 2708.55 -5.84741 3.80426 0
M  V30 29145 H 2704.45 -5.92056 2.57177 0
M  V30 29146 H 2705.22 -6.90071 4.40164 0
M  V30 29147 N 2707.88 -0.323668 -1.54241 0
M  V30 29148 C 2709.13 0.279288 -2.00868 0
M  V30 29149 C 2709.46 1.51778 -1.21149 0
M  V30 29150 O 2708.73 1.92268 -0.293813 0
M  V30 29151 C 2709.02 0.613324 -3.54838 0
M  V30 29152 C 2708.87 -0.635882 -4.45283 0
M  V30 29153 C 2710.19 1.43092 -4.16188 0
M  V30 29154 H 2707.31 0.100036 -0.730179 0
M  V30 29155 H 2709.95 -0.440267 -1.84829 0
M  V30 29156 H 2708.1 1.22635 -3.68637 0
M  V30 29157 H 2709.77 -1.27414 -4.43355 0
M  V30 29158 H 2708.01 -1.26474 -4.14954 0
M  V30 29159 H 2708.69 -0.357694 -5.5084 0
M  V30 29160 H 2711.16 0.912743 -4.05966 0
M  V30 29161 H 2710.04 1.63341 -5.24033 0
M  V30 29162 H 2710.3 2.42708 -3.6952 0
M  V30 29163 N 2709.36 1.57515 -0.0518432 0
M  V30 29164 C 2710.77 1.56664 0.304707 0
M  V30 29165 C 2710.97 1.05956 1.71393 0
M  V30 29166 O 2710.03 0.716457 2.42122 0
M  V30 29167 C 2711.34 3.00408 0.132562 0
M  V30 29168 C 2712.89 3.12337 0.203615 0
M  V30 29169 C 2713.37 4.57961 0.0599901 0
M  V30 29170 N 2714.86 4.63054 0.116245 0
M  V30 29171 C 2715.59 5.73393 0.0292355 0
M  V30 29172 N 2715.09 6.92712 -0.11016 0
M  V30 29173 N 2716.88 5.62036 0.0848663 0
M  V30 29174 H 2709.03 1.88798 -0.973089 0
M  V30 29175 H 2711.29 0.869468 -0.377796 0
M  V30 29176 H 2711 3.41544 -0.839079 0
M  V30 29177 H 2710.87 3.66469 0.893311 0
M  V30 29178 H 2713.26 2.71099 1.16573 0
M  V30 29179 H 2713.34 2.48953 -0.587901 0
M  V30 29180 H 2712.99 4.99884 -0.898802 0
M  V30 29181 H 2712.92 5.19353 0.870659 0
M  V30 29182 H 2715.41 3.7724 0.223204 0
M  V30 29183 H 2715.72 7.72615 -0.16924 0
M  V30 29184 H 2714.07 6.94848 -0.145254 0
M  V30 29185 H 2717.26 4.67705 0.192329 0
M  V30 29186 H 2717.43 6.47999 0.0135992 0
M  V30 29187 N 2710.84 -0.221546 1.56035 0
M  V30 29188 C 2712.08 -0.94734 1.79313 0
M  V30 29189 C 2712.41 -1.83987 0.621485 0
M  V30 29190 O 2711.69 -1.90767 -0.379253 0
M  V30 29191 C 2711.97 -1.78627 3.12673 0
M  V30 29192 C 2711.83 -0.920235 4.40286 0
M  V30 29193 C 2713.14 -2.76404 3.42475 0
M  V30 29194 H 2710.26 -0.342971 0.652334 0
M  V30 29195 H 2712.91 -0.216211 1.88766 0
M  V30 29196 H 2711.06 -2.40961 3.04746 0
M  V30 29197 H 2712.73 -0.313637 4.60233 0
M  V30 29198 H 2710.97 -0.225658 4.33213 0
M  V30 29199 H 2711.64 -1.54162 5.30036 0
M  V30 29200 H 2714.12 -2.24205 3.5053 0
M  V30 29201 H 2712.99 -3.32205 4.36956 0
M  V30 29202 H 2713.25 -3.54143 2.64642 0
M  V30 29203 N 2712.31 -1.49846 -0.48825 0
M  V30 29204 C 2713.56 -1.61184 -1.24062 0
M  V30 29205 C 2713.91 -0.300468 -1.90039 0
M  V30 29206 O 2713.21 0.700333 -1.78342 0
M  V30 29207 C 2713.4 -2.71739 -2.32147 0
M  V30 29208 C 2713.23 -4.135 -1.76771 0
M  V30 29209 C 2712 -4.80126 -1.57504 0
M  V30 29210 C 2714.2 -4.98313 -1.27233 0
M  V30 29211 N 2712.18 -6.06158 -0.971908 0
M  V30 29212 C 2713.55 -6.14929 -0.791349 0
M  V30 29213 C 2715.61 -4.84217 -1.15926 0
M  V30 29214 C 2714.31 -7.18998 -0.208467 0
M  V30 29215 C 2716.34 -5.88446 -0.590332 0
M  V30 29216 C 2715.7 -7.04298 -0.119644 0
M  V30 29217 H 2711.8 -0.644091 -0.443476 0
M  V30 29218 H 2714.38 -1.86902 -0.545519 0
M  V30 29219 H 2712.55 -2.47773 -2.99104 0
M  V30 29220 H 2714.28 -2.72529 -2.99183 0
M  V30 29221 H 2711.04 -4.37134 -1.82239 0
M  V30 29222 H 2711.46 -6.73482 -0.689249 0
M  V30 29223 H 2716.1 -3.9495 -1.50913 0
M  V30 29224 H 2713.82 -8.07954 0.153643 0
M  V30 29225 H 2717.41 -5.796 -0.505447 0
M  V30 29226 H 2716.29 -7.83572 0.313706 0
M  V30 29227 N 2713.79 0.740218 -1.39135 0
M  V30 29228 C 2714.75 1.83585 -1.3722 0
M  V30 29229 C 2715.75 1.58513 -0.270249 0
M  V30 29230 O 2716.94 1.66009 -0.527872 0
M  V30 29231 C 2714.08 3.21286 -1.13964 0
M  V30 29232 H 2715.27 1.86687 -2.34708 0
M  V30 29233 H 2712.82 0.943328 -1.24623 0
M  V30 29234 H 2713.56 3.23847 -0.171367 0
M  V30 29235 H 2713.34 3.40881 -1.9376 0
M  V30 29236 H 2714.83 4.01352 -1.15353 0
M  V30 29237 N 2715.27 1.24225 0.969846 0
M  V30 29238 C 2716.18 1.04974 2.09804 0
M  V30 29239 C 2717.2 -0.00883396 1.73998 0
M  V30 29240 O 2718.37 0.188883 2.00512 0
M  V30 29241 C 2715.44 0.654512 3.40466 0
M  V30 29242 C 2714.5 1.78933 3.90233 0
M  V30 29243 C 2713.73 1.41286 5.14659 0
M  V30 29244 O 2713.95 0.301732 5.69601 0
M  V30 29245 O 2712.89 2.23773 5.58757 0
M  V30 29246 H 2716.71 1.99552 2.28939 0
M  V30 29247 H 2714.3 1.03025 1.08195 0
M  V30 29248 H 2716.18 0.445525 4.19038 0
M  V30 29249 H 2714.86 -0.262159 3.22637 0
M  V30 29250 H 2713.76 2.05304 3.12731 0
M  V30 29251 H 2715.1 2.68469 4.12535 0
M  V30 29252 N 2716.75 -1.1702 1.05565 0
M  V30 29253 C 2717.98 -1.91009 0.78734 0
M  V30 29254 C 2718.39 -1.77269 -0.661224 0
M  V30 29255 O 2717.73 -1.10994 -1.46377 0
M  V30 29256 C 2717.79 -3.42476 1.09319 0
M  V30 29257 C 2717.45 -3.79999 2.53869 0
M  V30 29258 C 2718.45 -3.82532 3.52087 0
M  V30 29259 C 2716.14 -4.1085 2.88977 0
M  V30 29260 C 2718.13 -4.1539 4.83456 0
M  V30 29261 C 2715.82 -4.43377 4.20548 0
M  V30 29262 C 2716.82 -4.45625 5.17597 0
M  V30 29263 O 2716.5 -4.77384 6.46807 0
M  V30 29264 H 2716.24 -0.612765 0.285474 0
M  V30 29265 H 2718.79 -1.49308 1.41054 0
M  V30 29266 H 2717.02 -3.84489 0.4129 0
M  V30 29267 H 2718.71 -3.9773 0.810294 0
M  V30 29268 H 2719.47 -3.58817 3.26305 0
M  V30 29269 H 2715.35 -4.08269 2.14098 0
M  V30 29270 H 2718.9 -4.17061 5.59201 0
M  V30 29271 H 2714.79 -4.66555 4.46091 0
M  V30 29272 H 2715.56 -4.95226 6.51685 0
M  V30 29273 N 2718.23 -0.837197 -1.33524 0
M  V30 29274 C 2719.5 -0.354099 -1.92368 0
M  V30 29275 C 2719.88 1.16034 -1.7635 0
M  V30 29276 O 2719.23 1.97401 -1.15087 0
M  V30 29277 C 2719.44 -0.79916 -3.39727 0
M  V30 29278 C 2720.79 -0.806213 -4.16876 0
M  V30 29279 O 2721.81 -0.742658 -3.48372 0
M  V30 29280 O 2720.67 -0.89244 -5.39164 0
M  V30 29281 H 2717.77 -0.0998523 -0.82095 0
M  V30 29282 H 2720.31 -0.922938 -1.42408 0
M  V30 29283 H 2719.08 -1.84168 -3.4525 0
M  V30 29284 H 2718.71 -0.2068 -3.97062 0
M  V30 29285 N 2719.7 1.45999 -0.593476 0
M  V30 29286 C 2721.11 1.85926 -0.169834 0
M  V30 29287 C 2721.47 1.49567 1.26981 0
M  V30 29288 O 2720.59 0.915636 1.96074 0
M  V30 29289 C 2721.19 3.37456 -0.301444 0
M  V30 29290 C 2719.74 3.7634 0.0674022 0
M  V30 29291 C 2718.89 2.69992 -0.63243 0
M  V30 29292 H 2721.84 1.37 -0.801038 0
M  V30 29293 H 2721.86 3.77583 0.470265 0
M  V30 29294 H 2721.38 3.63888 -1.34933 0
M  V30 29295 H 2719.48 3.55525 1.11501 0
M  V30 29296 H 2719.59 4.78054 -0.316416 0
M  V30 29297 H 2717.95 2.546 -0.0715408 0
M  V30 29298 H 2718.74 2.99262 -1.68218 0
M  V30 29299 N 2721.18 0.331843 1.54067 0
M  V30 29300 C 2722.15 -0.517729 2.23276 0
M  V30 29301 C 2723.15 -1.03695 1.22898 0
M  V30 29302 O 2724.34 -0.928058 1.4742 0
M  V30 29303 C 2721.47 -1.71998 2.94329 0
M  V30 29304 H 2722.66 0.0874034 2.99773 0
M  V30 29305 H 2720.21 0.0830317 1.56079 0
M  V30 29306 H 2720.95 -2.36413 2.2199 0
M  V30 29307 H 2720.73 -1.355 3.67943 0
M  V30 29308 H 2722.22 -2.32285 3.47035 0
M  V30 29309 N 2722.66 -1.57485 0.0601958 0
M  V30 29310 C 2723.62 -2.10947 -0.896336 0
M  V30 29311 C 2724.62 -1.03098 -1.234 0
M  V30 29312 O 2725.81 -1.29134 -1.16919 0
M  V30 29313 C 2722.95 -2.6012 -2.20342 0
M  V30 29314 H 2724.14 -2.96762 -0.432726 0
M  V30 29315 H 2721.69 -1.55161 -0.188344 0
M  V30 29316 H 2722.43 -1.77724 -2.71265 0
M  V30 29317 H 2722.21 -3.3894 -1.97134 0
M  V30 29318 H 2723.7 -3.01597 -2.8884 0
M  V30 29319 N 2724.14 0.213268 -1.5615 0
M  V30 29320 C 2725.38 0.933371 -1.8072 0
M  V30 29321 C 2725.74 1.81638 -0.634473 0
M  V30 29322 O 2725.03 1.87971 0.371149 0
M  V30 29323 C 2725.23 1.7998 -3.08775 0
M  V30 29324 C 2725.06 1.00217 -4.38391 0
M  V30 29325 C 2723.83 0.693797 -5.00514 0
M  V30 29326 C 2726.02 0.363508 -5.13014 0
M  V30 29327 N 2724.01 -0.124373 -6.13774 0
M  V30 29328 C 2725.38 -0.317679 -6.19186 0
M  V30 29329 C 2727.43 0.277381 -4.97127 0
M  V30 29330 C 2726.13 -1.07676 -7.11195 0
M  V30 29331 C 2728.16 -0.468259 -5.89543 0
M  V30 29332 C 2727.52 -1.13796 -6.95147 0
M  V30 29333 H 2723.62 0.321536 -0.712838 0
M  V30 29334 H 2726.21 0.203554 -1.93633 0
M  V30 29335 H 2724.38 2.50137 -2.9713 0
M  V30 29336 H 2726.11 2.458 -3.21503 0
M  V30 29337 H 2722.86 1.01383 -4.62621 0
M  V30 29338 H 2723.29 -0.522536 -6.7498 0
M  V30 29339 H 2727.93 0.780797 -4.15528 0
M  V30 29340 H 2725.65 -1.59167 -7.9227 0
M  V30 29341 H 2729.23 -0.536013 -5.79326 0
M  V30 29342 H 2728.11 -1.7057 -7.65425 0
M  V30 29343 N 2725.62 1.50103 0.480296 0
M  V30 29344 C 2726.86 1.60314 1.2306 0
M  V30 29345 C 2727.19 0.30126 1.92659 0
M  V30 29346 O 2726.46 -0.680721 1.83693 0
M  V30 29347 H 2725.04 0.590727 0.457221 0
M  V30 29348 H 2727.7 1.86835 0.55486 0
M  V30 29349 H 2726.79 2.40967 1.98346 0
M  V30 29350 N 2727.09 -0.732829 1.39526 0
M  V30 29351 C 2728.51 -1.03866 1.21177 0
M  V30 29352 C 2728.71 -2.01361 0.0748802 0
M  V30 29353 O 2727.77 -2.45918 -0.572767 0
M  V30 29354 C 2729.08 -1.59887 2.5467 0
M  V30 29355 C 2730.63 -1.71957 2.61533 0
M  V30 29356 C 2731.1 -2.31387 3.95252 0
M  V30 29357 N 2732.59 -2.38794 3.96903 0
M  V30 29358 C 2733.33 -2.8572 4.97143 0
M  V30 29359 N 2732.82 -3.32527 6.07781 0
M  V30 29360 N 2734.62 -2.84949 4.84521 0
M  V30 29361 H 2726.77 -0.0862667 2.12225 0
M  V30 29362 H 2729.03 -0.10089 0.942616 0
M  V30 29363 H 2728.74 -0.957151 3.38425 0
M  V30 29364 H 2728.61 -2.58663 2.74542 0
M  V30 29365 H 2731 -2.35251 1.7816 0
M  V30 29366 H 2731.08 -0.718284 2.45508 0
M  V30 29367 H 2730.72 -1.6872 4.79057 0
M  V30 29368 H 2730.65 -3.32197 4.08599 0
M  V30 29369 H 2733.14 -2.05714 3.17002 0
M  V30 29370 H 2733.46 -3.6685 6.80177 0
M  V30 29371 H 2731.8 -3.3053 6.11371 0
M  V30 29372 H 2734.99 -2.47706 3.97189 0
M  V30 29373 H 2735.17 -3.21206 5.62789 0
M  V30 29374 N 2728.57 -1.24737 -0.963244 0
M  V30 29375 C 2729.51 -0.986888 -2.05757 0
M  V30 29376 C 2730.48 0.0808987 -1.62399 0
M  V30 29377 O 2731.67 -0.0569678 -1.88414 0
M  V30 29378 C 2728.79 -0.490154 -3.35135 0
M  V30 29379 C 2727.84 -1.54716 -3.97448 0
M  V30 29380 S 2728.67 -3.12983 -4.34513 0
M  V30 29381 C 2729.83 -2.65024 -5.67021 0
M  V30 29382 H 2730.06 -1.9135 -2.27536 0
M  V30 29383 H 2727.6 -1.08171 -1.10174 0
M  V30 29384 H 2729.55 -0.210192 -4.09962 0
M  V30 29385 H 2728.21 0.415818 -3.11335 0
M  V30 29386 H 2727.41 -1.15012 -4.90702 0
M  V30 29387 H 2727.01 -1.77736 -3.29068 0
M  V30 29388 H 2729.3 -2.08113 -6.44744 0
M  V30 29389 H 2730.24 -3.56884 -6.11588 0
M  V30 29390 H 2730.65 -2.05303 -5.25843 0
M  V30 29391 N 2730.05 1.16459 -1.06184 0
M  V30 29392 C 2731.46 1.68575 -0.802456 0
M  V30 29393 C 2731.81 1.84257 0.674088 0
M  V30 29394 O 2730.94 1.53732 1.523 0
M  V30 29395 C 2731.53 3.062 -1.45008 0
M  V30 29396 C 2730.09 3.55441 -1.23849 0
M  V30 29397 C 2729.24 2.31451 -1.52728 0
M  V30 29398 H 2732.19 1.00836 -1.22547 0
M  V30 29399 H 2732.21 3.70542 -0.864796 0
M  V30 29400 H 2731.72 2.94754 -2.52471 0
M  V30 29401 H 2729.82 3.72148 -0.183553 0
M  V30 29402 H 2729.94 4.37601 -1.95044 0
M  V30 29403 H 2728.3 2.3641 -0.947767 0
M  V30 29404 H 2729.08 2.22604 -2.61347 0
M  V30 29405 N 2731.53 0.844266 1.33079 0
M  V30 29406 C 2732.76 0.455577 2.01514 0
M  V30 29407 C 2733.17 -0.949377 1.63657 0
M  V30 29408 O 2732.51 -1.62929 0.848509 0
M  V30 29409 C 2732.57 0.502864 3.55966 0
M  V30 29410 C 2732.24 1.86488 4.17218 0
M  V30 29411 C 2733.23 2.82888 4.362 0
M  V30 29412 C 2730.92 2.15919 4.53524 0
M  V30 29413 C 2732.91 4.06877 4.90642 0
M  V30 29414 C 2730.6 3.40164 5.07673 0
M  V30 29415 C 2731.6 4.3546 5.26178 0
M  V30 29416 O 2731.28 5.57506 5.79173 0
M  V30 29417 H 2731.02 0.178576 0.651987 0
M  V30 29418 H 2733.57 1.13993 1.70865 0
M  V30 29419 H 2731.8 -0.238292 3.85965 0
M  V30 29420 H 2733.49 0.131241 4.05688 0
M  V30 29421 H 2734.26 2.61452 4.08495 0
M  V30 29422 H 2730.13 1.42536 4.38411 0
M  V30 29423 H 2733.68 4.81268 5.05002 0
M  V30 29424 H 2729.58 3.61455 5.34809 0
M  V30 29425 H 2730.34 5.59321 5.97581 0
M  V30 29426 N 2733.01 -1.45682 0.60121 0
M  V30 29427 C 2733.94 -2.33246 -0.108783 0
M  V30 29428 C 2734.92 -1.46453 -0.865197 0
M  V30 29429 O 2736.1 -1.75236 -0.837009 0
M  V30 29430 C 2733.23 -3.29052 -1.11095 0
M  V30 29431 C 2732.19 -4.25432 -0.46817 0
M  V30 29432 C 2731.51 -5.10881 -1.57813 0
M  V30 29433 C 2732.81 -5.18766 0.606561 0
M  V30 29434 H 2734.51 -2.9286 0.622358 0
M  V30 29435 H 2732.05 -1.40825 0.300739 0
M  V30 29436 H 2734.01 -3.89177 -1.61615 0
M  V30 29437 H 2732.73 -2.67584 -1.8726 0
M  V30 29438 H 2731.39 -3.66596 0.0161129 0
M  V30 29439 H 2731.04 -4.45785 -2.32991 0
M  V30 29440 H 2730.74 -5.76165 -1.15358 0
M  V30 29441 H 2732.26 -5.73873 -2.08573 0
M  V30 29442 H 2733.67 -5.72999 0.185689 0
M  V30 29443 H 2732.07 -5.92493 0.952486 0
M  V30 29444 H 2733.14 -4.6158 1.48567 0
M  V30 29445 N 2734.48 -0.340009 -1.53889 0
M  V30 29446 C 2735.76 0.312685 -1.93085 0
M  V30 29447 C 2736.14 1.68531 -1.27123 0
M  V30 29448 O 2735.49 2.24591 -0.420875 0
M  V30 29449 C 2735.7 0.388497 -3.46831 0
M  V30 29450 C 2737.05 0.641014 -4.19733 0
M  V30 29451 O 2738.07 0.470756 -3.53076 0
M  V30 29452 O 2736.93 0.970591 -5.37812 0
M  V30 29453 H 2734.02 0.181725 -0.806787 0
M  V30 29454 H 2736.57 -0.390927 -1.65136 0
M  V30 29455 H 2735.34 -0.574889 -3.87054 0
M  V30 29456 H 2734.97 1.13904 -3.80935 0
M  V30 29457 N 2735.96 1.57451 -0.0685468 0
M  V30 29458 C 2736.9 2.08134 0.935699 0
M  V30 29459 C 2737.87 0.98572 1.29315 0
M  V30 29460 O 2739.06 1.25888 1.40301 0
M  V30 29461 C 2736.19 2.53631 2.24475 0
M  V30 29462 C 2735.23 3.74597 2.0391 0
M  V30 29463 S 2736.06 5.19445 1.30145 0
M  V30 29464 C 2737.22 5.6827 2.62336 0
M  V30 29465 H 2737.45 2.9299 0.504421 0
M  V30 29466 H 2734.99 1.53726 0.144142 0
M  V30 29467 H 2736.94 2.80504 2.99713 0
M  V30 29468 H 2735.61 1.6905 2.64728 0
M  V30 29469 H 2734.8 4.04409 3.00781 0
M  V30 29470 H 2734.4 3.48079 1.36809 0
M  V30 29471 H 2736.69 5.74916 3.58438 0
M  V30 29472 H 2737.64 6.67211 2.37138 0
M  V30 29473 H 2738.04 4.96073 2.69392 0
M  V30 29474 N 2737.44 -0.204984 1.56261 0
M  V30 29475 C 2738.67 -0.941986 1.83875 0
M  V30 29476 C 2739.08 -1.77771 0.647626 0
M  V30 29477 O 2738.42 -1.79445 -0.393067 0
M  V30 29478 C 2738.48 -1.89569 3.05457 0
M  V30 29479 C 2738.15 -1.24289 4.39774 0
M  V30 29480 C 2739.15 -0.624633 5.16134 0
M  V30 29481 C 2736.83 -1.2497 4.86506 0
M  V30 29482 C 2738.82 -0.0218996 6.37396 0
M  V30 29483 C 2736.51 -0.643125 6.07706 0
M  V30 29484 C 2737.51 -0.0302963 6.82993 0
M  V30 29485 O 2737.2 0.566795 8.01899 0
M  V30 29486 H 2736.93 -0.280843 0.614901 0
M  V30 29487 H 2739.48 -0.220249 2.04216 0
M  V30 29488 H 2737.71 -2.65686 2.80976 0
M  V30 29489 H 2739.4 -2.49964 3.19801 0
M  V30 29490 H 2740.17 -0.611581 4.81129 0
M  V30 29491 H 2736.05 -1.71609 4.27868 0
M  V30 29492 H 2739.59 0.457048 6.96101 0
M  V30 29493 H 2735.49 -0.653646 6.42182 0
M  V30 29494 H 2736.26 0.462731 8.17191 0
M  V30 29495 N 2738.92 -1.50356 -0.472329 0
M  V30 29496 C 2739.85 -1.65281 -1.58792 0
M  V30 29497 C 2740.86 -0.53434 -1.53781 0
M  V30 29498 O 2742.05 -0.807474 -1.59192 0
M  V30 29499 C 2739.15 -1.62006 -2.9767 0
M  V30 29500 C 2738.33 -2.89864 -3.27563 0
M  V30 29501 C 2737.39 -2.7925 -4.45989 0
M  V30 29502 O 2736.41 -3.53205 -4.46357 0
M  V30 29503 N 2737.61 -1.92723 -5.47575 0
M  V30 29504 H 2740.38 -2.61506 -1.46406 0
M  V30 29505 H 2737.94 -1.47804 -0.660725 0
M  V30 29506 H 2739.93 -1.5252 -3.7486 0
M  V30 29507 H 2738.5 -0.735213 -3.03831 0
M  V30 29508 H 2737.72 -3.13487 -2.38997 0
M  V30 29509 H 2739.01 -3.74571 -3.44346 0
M  V30 29510 H 2738.41 -1.31949 -5.50096 0
M  V30 29511 H 2736.96 -1.89141 -6.23754 0
M  V30 29512 N 2740.4 0.725419 -1.39912 0
M  V30 29513 C 2741.33 1.84865 -1.33792 0
M  V30 29514 C 2742.31 1.61239 -0.209936 0
M  V30 29515 O 2743.49 1.8438 -0.391976 0
M  V30 29516 C 2740.62 3.21026 -1.07981 0
M  V30 29517 C 2739.67 3.63496 -2.23098 0
M  V30 29518 S 2740.5 3.7175 -3.85438 0
M  V30 29519 C 2741.65 5.10686 -3.61871 0
M  V30 29520 H 2741.89 1.89775 -2.28851 0
M  V30 29521 H 2739.42 0.891231 -1.26081 0
M  V30 29522 H 2741.38 3.99646 -0.937739 0
M  V30 29523 H 2740.04 3.13761 -0.14592 0
M  V30 29524 H 2739.23 4.62335 -2.00656 0
M  V30 29525 H 2738.83 2.92107 -2.33558 0
M  V30 29526 H 2741.13 5.9731 -3.19729 0
M  V30 29527 H 2742.07 5.38161 -4.60205 0
M  V30 29528 H 2742.48 4.80815 -2.95766 0
M  V30 29529 N 2741.88 1.25246 0.956615 0
M  V30 29530 C 2742.81 1.07935 2.07056 0
M  V30 29531 C 2743.79 -0.0110062 1.70096 0
M  V30 29532 O 2744.97 0.158155 1.93555 0
M  V30 29533 C 2742.1 0.695184 3.40271 0
M  V30 29534 C 2741.06 1.73555 3.91232 0
M  V30 29535 C 2740.38 1.20613 5.20919 0
M  V30 29536 C 2741.68 3.13392 4.17831 0
M  V30 29537 H 2743.38 2.01113 2.21797 0
M  V30 29538 H 2740.92 0.968345 1.06579 0
M  V30 29539 H 2742.87 0.561023 4.17649 0
M  V30 29540 H 2741.6 -0.272298 3.25463 0
M  V30 29541 H 2740.26 1.85812 3.16021 0
M  V30 29542 H 2739.91 0.228934 5.02479 0
M  V30 29543 H 2739.61 1.90146 5.55984 0
M  V30 29544 H 2741.13 1.08432 6.00895 0
M  V30 29545 H 2742.54 3.043 4.85875 0
M  V30 29546 H 2740.94 3.80377 4.64148 0
M  V30 29547 H 2742.01 3.60601 3.24183 0
M  V30 29548 N 2743.35 -1.15894 1.068 0
M  V30 29549 C 2744.77 -1.38537 0.792447 0
M  V30 29550 C 2744.97 -1.92175 -0.605887 0
M  V30 29551 O 2744.03 -2.12387 -1.36558 0
M  V30 29552 C 2745.34 -2.36145 1.86161 0
M  V30 29553 C 2746.89 -2.49819 1.88572 0
M  V30 29554 C 2747.36 -3.50715 2.94556 0
M  V30 29555 N 2748.85 -3.58246 2.93623 0
M  V30 29556 C 2749.59 -4.36118 3.72275 0
M  V30 29557 N 2749.08 -5.17371 4.6076 0
M  V30 29558 N 2750.88 -4.31152 3.60645 0
M  V30 29559 H 2743.03 -0.794164 1.96994 0
M  V30 29560 H 2745.29 -0.411673 0.853949 0
M  V30 29561 H 2745 -2.03838 2.86606 0
M  V30 29562 H 2744.87 -3.35857 1.71698 0
M  V30 29563 H 2747.26 -2.81428 0.887814 0
M  V30 29564 H 2747.34 -1.50126 2.07113 0
M  V30 29565 H 2746.98 -3.19842 3.94542 0
M  V30 29566 H 2746.91 -4.5015 2.73263 0
M  V30 29567 H 2749.4 -3.00248 2.29477 0
M  V30 29568 H 2749.72 -5.74019 5.17419 0
M  V30 29569 H 2748.06 -5.16696 4.64812 0
M  V30 29570 H 2751.25 -3.66737 2.90898 0
M  V30 29571 H 2751.43 -4.91593 4.22185 0
M  V30 29572 N 2744.83 -0.851312 -1.32629 0
M  V30 29573 C 2745.78 -0.265342 -2.26451 0
M  V30 29574 C 2746.77 0.586873 -1.49815 0
M  V30 29575 O 2747.96 0.436804 -1.71526 0
M  V30 29576 C 2745.09 0.548152 -3.38896 0
M  V30 29577 C 2744.17 -0.316264 -4.22919 0
M  V30 29578 N 2744.56 -1.40093 -4.86012 0
M  V30 29579 C 2742.86 -0.105434 -4.45875 0
M  V30 29580 C 2743.56 -1.93245 -5.48663 0
M  V30 29581 N 2742.54 -1.2321 -5.29453 0
M  V30 29582 H 2746.34 -1.09462 -2.72755 0
M  V30 29583 H 2743.85 -0.697073 -1.46679 0
M  V30 29584 H 2745.85 0.984331 -4.05113 0
M  V30 29585 H 2744.51 1.37526 -2.94137 0
M  V30 29586 H 2745.52 -1.78385 -4.86209 0
M  V30 29587 H 2742.2 0.687227 -4.11805 0
M  V30 29588 H 2743.59 -2.84146 -6.0886 0
M  V30 29589 N 2746.31 1.45361 -0.608928 0
M  V30 29590 C 2747.24 2.27652 0.158019 0
M  V30 29591 C 2748.22 1.37217 0.872373 0
M  V30 29592 O 2749.4 1.66647 0.880972 0
M  V30 29593 C 2746.53 3.1562 1.2289 0
M  V30 29594 C 2745.58 4.22006 0.617533 0
M  V30 29595 S 2746.41 5.32397 -0.575611 0
M  V30 29596 C 2747.57 6.23933 0.495828 0
M  V30 29597 H 2747.8 2.92352 -0.540146 0
M  V30 29598 H 2745.33 1.49223 -0.396482 0
M  V30 29599 H 2747.29 3.66858 1.84188 0
M  V30 29600 H 2745.95 2.50183 1.89914 0
M  V30 29601 H 2745.14 4.83485 1.42333 0
M  V30 29602 H 2744.75 3.73915 0.0796616 0
M  V30 29603 H 2747.04 6.6341 1.37453 0
M  V30 29604 H 2747.98 7.08052 -0.0828352 0
M  V30 29605 H 2748.39 5.58633 0.811758 0
M  V30 29606 N 2747.79 0.348166 1.53706 0
M  V30 29607 C 2749.01 -0.250847 2.05877 0
M  V30 29608 C 2749.44 -1.4307 1.22117 0
M  V30 29609 O 2748.8 -1.79757 0.236017 0
M  V30 29610 C 2748.84 -0.639354 3.54887 0
M  V30 29611 O 2747.95 -1.73881 3.73951 0
M  V30 29612 H 2747.29 -0.0406414 0.662755 0
M  V30 29613 H 2749.82 0.50372 1.98302 0
M  V30 29614 H 2749.83 -0.915225 3.97602 0
M  V30 29615 H 2748.5 0.223459 4.15299 0
M  V30 29616 H 2747.08 -1.45985 3.43137 0
M  V30 29617 N 2749.27 -1.57412 0.0768958 0
M  V30 29618 C 2750.68 -1.81071 -0.455006 0
M  V30 29619 C 2751.03 -0.991192 -1.69322 0
M  V30 29620 O 2750.15 -0.215194 -2.15327 0
M  V30 29621 C 2750.75 -3.28419 -0.832258 0
M  V30 29622 C 2749.31 -3.52905 -1.309 0
M  V30 29623 C 2748.45 -2.75709 -0.296666 0
M  V30 29624 H 2751.4 -1.5579 0.302541 0
M  V30 29625 H 2751.43 -3.40747 -1.69327 0
M  V30 29626 H 2750.94 -3.88038 0.0691214 0
M  V30 29627 H 2749.04 -2.98596 -2.2287 0
M  V30 29628 H 2749.15 -4.6159 -1.2834 0
M  V30 29629 H 2747.52 -2.42622 -0.775017 0
M  V30 29630 H 2748.3 -3.38068 0.597075 0
M  V30 29631 N 2750.74 0.196695 -1.56368 0
M  V30 29632 C 2752.16 0.761515 -1.70464 0
M  V30 29633 C 2752.51 1.83921 -0.683193 0
M  V30 29634 O 2751.63 2.15802 0.160715 0
M  V30 29635 C 2752.23 1.38809 -3.09059 0
M  V30 29636 C 2750.79 1.90001 -3.24926 0
M  V30 29637 C 2749.93 0.769352 -2.66414 0
M  V30 29638 H 2752.88 -0.0283542 -1.58675 0
M  V30 29639 H 2752.9 2.25745 -3.063 0
M  V30 29640 H 2752.42 0.603491 -3.83379 0
M  V30 29641 H 2750.52 2.71184 -2.55519 0
M  V30 29642 H 2750.63 2.0629 -4.32413 0
M  V30 29643 H 2748.99 1.18322 -2.25548 0
M  V30 29644 H 2749.78 -0.00297808 -3.433 0
M  V30 29645 N 2752.22 1.50604 0.464349 0
M  V30 29646 C 2753.15 1.72892 1.56941 0
M  V30 29647 C 2754.13 0.578025 1.59978 0
M  V30 29648 O 2755.32 0.817886 1.76137 0
M  V30 29649 C 2752.45 1.82925 2.95222 0
M  V30 29650 C 2751.4 2.98167 3.07051 0
M  V30 29651 C 2750.73 2.9335 4.47045 0
M  V30 29652 C 2752.03 4.38572 2.8364 0
M  V30 29653 H 2753.72 2.65417 1.38542 0
M  V30 29654 H 2751.27 1.27722 0.665059 0
M  V30 29655 H 2753.22 1.97101 3.72464 0
M  V30 29656 H 2751.95 0.870264 3.14792 0
M  V30 29657 H 2750.6 2.83652 2.32243 0
M  V30 29658 H 2750.25 1.95284 4.63544 0
M  V30 29659 H 2749.95 3.7072 4.55895 0
M  V30 29660 H 2751.48 3.09584 5.26298 0
M  V30 29661 H 2752.89 4.53578 3.50628 0
M  V30 29662 H 2751.29 5.17444 3.03928 0
M  V30 29663 H 2752.36 4.50475 1.79443 0
M  V30 29664 N 2753.7 -0.717989 1.40295 0
M  V30 29665 C 2754.95 -1.47491 1.38169 0
M  V30 29666 C 2755.27 -1.94993 -0.0160357 0
M  V30 29667 O 2754.54 -1.70178 -0.970367 0
M  V30 29668 H 2753.12 -0.547194 0.508515 0
M  V30 29669 H 2755.78 -0.851291 1.75326 0
M  V30 29670 H 2754.88 -2.3489 2.05507 0
M  V30 29671 N 2755.18 -1.25752 -0.94996 0
M  V30 29672 C 2756.11 -1.09032 -2.06481 0
M  V30 29673 C 2757.09 0.00198542 -1.701 0
M  V30 29674 O 2758.27 -0.168417 -1.93468 0
M  V30 29675 C 2755.4 -0.71322 -3.39898 0
M  V30 29676 C 2754.36 -1.75628 -3.90306 0
M  V30 29677 C 2753.68 -1.23374 -5.20272 0
M  V30 29678 C 2754.98 -3.15603 -4.16163 0
M  V30 29679 H 2756.68 -2.02287 -2.20727 0
M  V30 29680 H 2754.22 -0.973983 -1.06064 0
M  V30 29681 H 2756.18 -0.583164 -4.17345 0
M  V30 29682 H 2754.9 0.255034 -3.25603 0
M  V30 29683 H 2753.56 -1.87485 -3.15031 0
M  V30 29684 H 2753.21 -0.255579 -5.0235 0
M  V30 29685 H 2752.91 -1.93092 -5.54968 0
M  V30 29686 H 2754.43 -1.11617 -6.00312 0
M  V30 29687 H 2755.85 -3.06873 -4.84254 0
M  V30 29688 H 2754.24 -3.82834 -4.62124 0
M  V30 29689 H 2755.31 -3.62315 -3.22266 0
M  V30 29690 N 2756.66 1.15326 -1.07413 0
M  V30 29691 C 2757.9 1.85759 -0.796106 0
M  V30 29692 C 2758.23 1.82766 0.679832 0
M  V30 29693 O 2757.5 1.26903 1.4924 0
M  V30 29694 H 2756.08 0.687774 -0.291507 0
M  V30 29695 H 2758.74 1.398 -1.35801 0
M  V30 29696 H 2757.83 2.90879 -1.13119 0
M  V30 29697 N 2758.13 0.858334 1.32176 0
M  V30 29698 C 2759.08 0.303647 2.28794 0
M  V30 29699 C 2760.05 -0.591426 1.55214 0
M  V30 29700 O 2761.24 -0.525553 1.83419 0
M  V30 29701 C 2758.38 -0.49883 3.41476 0
M  V30 29702 C 2757.49 0.422448 4.2993 0
M  V30 29703 C 2756.62 -0.393018 5.29744 0
M  V30 29704 C 2755.66 0.525425 6.09841 0
M  V30 29705 N 2754.8 -0.253084 7.01644 0
M  V30 29706 H 2759.64 1.13281 2.75629 0
M  V30 29707 H 2757.18 0.570049 1.35605 0
M  V30 29708 H 2759.14 -0.979755 4.05533 0
M  V30 29709 H 2757.77 -1.29279 2.95782 0
M  V30 29710 H 2756.82 1.02178 3.6642 0
M  V30 29711 H 2758.13 1.12717 4.85897 0
M  V30 29712 H 2757.28 -0.936951 5.99421 0
M  V30 29713 H 2756.02 -1.13109 4.74402 0
M  V30 29714 H 2755.03 1.08121 5.39064 0
M  V30 29715 H 2756.25 1.26216 6.67268 0
M  V30 29716 H 2754.2 -0.974181 6.48726 0
M  V30 29717 H 2754.12 0.392531 7.5498 0
M  V30 29718 H 2755.38 -0.778625 7.75602 0
M  V30 29719 N 2759.61 -1.45036 0.616628 0
M  V30 29720 C 2760.56 -2.30596 -0.0969034 0
M  V30 29721 C 2761.53 -1.42636 -0.851126 0
M  V30 29722 O 2762.71 -1.71556 -0.835062 0
M  V30 29723 C 2759.85 -3.2769 -1.08229 0
M  V30 29724 C 2758.97 -4.30753 -0.327996 0
M  V30 29725 C 2758.1 -5.14948 -1.3039 0
M  V30 29726 C 2757.14 -6.09732 -0.537942 0
M  V30 29727 N 2756.28 -6.86676 -1.46358 0
M  V30 29728 H 2761.12 -2.91075 0.638692 0
M  V30 29729 H 2758.66 -1.43425 0.326758 0
M  V30 29730 H 2760.61 -3.82457 -1.66682 0
M  V30 29731 H 2759.24 -2.68944 -1.78519 0
M  V30 29732 H 2758.3 -3.78575 0.372202 0
M  V30 29733 H 2759.61 -4.98073 0.26923 0
M  V30 29734 H 2758.76 -5.74161 -1.96022 0
M  V30 29735 H 2757.5 -4.47668 -1.93506 0
M  V30 29736 H 2756.51 -5.49642 0.131949 0
M  V30 29737 H 2757.73 -6.79043 0.0882925 0
M  V30 29738 H 2755.68 -6.22077 -2.08222 0
M  V30 29739 H 2755.59 -7.50381 -0.92002 0
M  V30 29740 H 2756.86 -7.50422 -2.10919 0
M  V30 29741 N 2761.09 -0.356312 -1.53519 0
M  V30 29742 C 2762.33 0.236455 -2.03028 0
M  V30 29743 C 2762.69 1.46744 -1.23815 0
M  V30 29744 O 2763.9 2.13522 -1.63284 0
M  V30 29745 C 2762.17 0.530352 -3.53443 0
M  V30 29746 S 2763.73 1.09811 -4.24838 0
M  V30 29747 H 2760.54 0.0695254 -0.707593 0
M  V30 29748 H 2763.15 -0.497032 -1.89076 0
M  V30 29749 H 2761.85 -0.373186 -4.087 0
M  V30 29750 H 2761.38 1.29316 -3.71539 0
M  V30 29751 H 2763.4 2.38301 -4.35232 0
M  V30 29752 N 2762.57 1.57369 -0.0852427 0
M  V30 29753 C 2763.98 1.81309 0.445397 0
M  V30 29754 C 2764.33 1.00016 1.68794 0
M  V30 29755 O 2763.46 0.226611 2.1521 0
M  V30 29756 C 2764.05 3.28856 0.814829 0
M  V30 29757 C 2762.61 3.53595 1.29026 0
M  V30 29758 C 2761.76 2.75862 0.28204 0
M  V30 29759 H 2764.71 1.55627 -0.310799 0
M  V30 29760 H 2764.73 3.4164 1.67518 0
M  V30 29761 H 2764.24 3.87996 -0.0896991 0
M  V30 29762 H 2762.34 2.99774 2.21284 0
M  V30 29763 H 2762.45 4.62265 1.2589 0
M  V30 29764 H 2760.82 2.4303 0.762139 0
M  V30 29765 H 2761.6 3.37747 -0.614995 0
M  V30 29766 N 2764.05 -0.188399 1.5647 0
M  V30 29767 C 2765.01 -1.21715 1.94212 0
M  V30 29768 C 2766.01 -1.38087 0.823925 0
M  V30 29769 O 2767.2 -1.35785 1.09124 0
M  V30 29770 C 2764.33 -2.58533 2.22202 0
M  V30 29771 H 2765.52 -0.894367 2.86254 0
M  V30 29772 H 2763.08 -0.430185 1.50263 0
M  V30 29773 H 2763.81 -2.95854 1.32819 0
M  V30 29774 H 2763.6 -2.48019 3.03692 0
M  V30 29775 H 2765.09 -3.32705 2.52382 0
M  V30 29776 N 2765.53 -1.50848 -0.456355 0
M  V30 29777 C 2766.94 -1.38601 -0.791321 0
M  V30 29778 C 2767.14 -0.453533 -1.9633 0
M  V30 29779 O 2766.2 0.098391 -2.52308 0
M  V30 29780 C 2767.51 -2.80267 -1.08954 0
M  V30 29781 C 2769.06 -2.89285 -1.19512 0
M  V30 29782 C 2769.53 -4.31816 -1.52639 0
M  V30 29783 N 2771.02 -4.34835 -1.59601 0
M  V30 29784 C 2771.76 -5.4213 -1.86768 0
M  V30 29785 N 2771.26 -6.59613 -2.11855 0
M  V30 29786 N 2773.05 -5.29589 -1.88392 0
M  V30 29787 H 2765.2 -2.10039 0.315783 0
M  V30 29788 H 2767.46 -0.944719 0.0788082 0
M  V30 29789 H 2767.17 -3.50407 -0.301294 0
M  V30 29790 H 2767.04 -3.18423 -2.02205 0
M  V30 29791 H 2769.43 -2.19354 -1.97402 0
M  V30 29792 H 2769.51 -2.54652 -0.242066 0
M  V30 29793 H 2769.15 -5.0229 -0.752833 0
M  V30 29794 H 2769.08 -4.63947 -2.49119 0
M  V30 29795 H 2771.58 -3.50127 -1.42194 0
M  V30 29796 H 2771.89 -7.37186 -2.31899 0
M  V30 29797 H 2770.23 -6.62762 -2.09216 0
M  V30 29798 H 2773.42 -4.36798 -1.683 0
M  V30 29799 H 2773.6 -6.13293 -2.09227 0
M  V30 29800 N 2767 0.710538 -1.40674 0
M  V30 29801 C 2768.25 1.47265 -1.39431 0
M  V30 29802 C 2768.58 1.942 0.00178716 0
M  V30 29803 O 2767.86 1.68508 0.971357 0
M  V30 29804 C 2768.14 2.69516 -2.38817 0
M  V30 29805 C 2767.99 2.28442 -3.87471 0
M  V30 29806 C 2769.31 3.71685 -2.35666 0
M  V30 29807 H 2766.43 0.534164 -0.507778 0
M  V30 29808 H 2769.07 0.810517 -1.71845 0
M  V30 29809 H 2767.22 3.26009 -2.11306 0
M  V30 29810 H 2768.9 1.77391 -4.25829 0
M  V30 29811 H 2767.14 1.60388 -4.03061 0
M  V30 29812 H 2767.81 3.16095 -4.52535 0
M  V30 29813 H 2770.29 3.24831 -2.60046 0
M  V30 29814 H 2769.16 4.54854 -3.07245 0
M  V30 29815 H 2769.42 4.20336 -1.37003 0
M  V30 29816 N 2768.48 1.26254 0.943277 0
M  V30 29817 C 2769.44 1.07693 2.02324 0
M  V30 29818 C 2770.44 0.0259457 1.60779 0
M  V30 29819 O 2771.63 0.269164 1.72108 0
M  V30 29820 C 2768.77 0.637579 3.34885 0
M  V30 29821 H 2769.96 2.03574 2.20222 0
M  V30 29822 H 2767.51 1.08821 1.12195 0
M  V30 29823 H 2768.25 -0.323321 3.22684 0
M  V30 29824 H 2768.03 1.39643 3.66391 0
M  V30 29825 H 2769.52 0.529491 4.1423 0
M  V30 29826 N 2769.96 -1.14755 1.08024 0
M  V30 29827 C 2771.19 -1.89296 0.827679 0
M  V30 29828 C 2771.6 -1.78632 -0.623474 0
M  V30 29829 O 2770.94 -1.14074 -1.43989 0
M  V30 29830 C 2771 -3.4008 1.16559 0
M  V30 29831 C 2770.67 -3.74529 2.61872 0
M  V30 29832 C 2771.66 -3.74977 3.60122 0
M  V30 29833 C 2769.35 -4.04628 2.97626 0
M  V30 29834 C 2771.34 -4.05042 4.92158 0
M  V30 29835 C 2769.03 -4.34357 4.29858 0
M  V30 29836 C 2770.03 -4.34546 5.26933 0
M  V30 29837 O 2769.72 -4.63557 6.56788 0
M  V30 29838 H 2769.45 -0.606572 0.298407 0
M  V30 29839 H 2772 -1.46283 1.44189 0
M  V30 29840 H 2770.23 -3.83527 0.494363 0
M  V30 29841 H 2771.92 -3.95922 0.894476 0
M  V30 29842 H 2772.69 -3.51815 3.33843 0
M  V30 29843 H 2768.57 -4.03635 2.22709 0
M  V30 29844 H 2772.11 -4.05105 5.67922 0
M  V30 29845 H 2768.01 -4.56987 4.55887 0
M  V30 29846 H 2768.77 -4.81291 6.62043 0
M  V30 29847 N 2771.44 -0.865331 -1.31719 0
M  V30 29848 C 2772.38 -0.315776 -2.2863 0
M  V30 29849 C 2773.35 0.583186 -1.55525 0
M  V30 29850 O 2774.54 0.515818 -1.83695 0
M  V30 29851 C 2771.68 0.480713 -3.41736 0
M  V30 29852 C 2770.79 -0.445242 -4.29699 0
M  V30 29853 C 2769.93 0.364919 -5.29945 0
M  V30 29854 C 2768.97 -0.557759 -6.09553 0
M  V30 29855 N 2768.1 0.215871 -7.01768 0
M  V30 29856 H 2772.94 -1.14741 -2.75024 0
M  V30 29857 H 2770.48 -0.577233 -1.35301 0
M  V30 29858 H 2772.44 0.958235 -4.06046 0
M  V30 29859 H 2771.07 1.27709 -2.96463 0
M  V30 29860 H 2770.12 -1.04119 -3.65873 0
M  V30 29861 H 2771.43 -1.15292 -4.85293 0
M  V30 29862 H 2770.59 0.905149 -5.9991 0
M  V30 29863 H 2769.33 1.10592 -4.74996 0
M  V30 29864 H 2768.33 -1.10978 -5.38483 0
M  V30 29865 H 2769.56 -1.29753 -6.66589 0
M  V30 29866 H 2767.5 0.939764 -6.49234 0
M  V30 29867 H 2767.42 -0.432564 -7.54761 0
M  V30 29868 H 2768.69 0.737482 -7.76004 0
M  V30 29869 N 2772.92 1.44707 -0.624311 0
M  V30 29870 C 2774.33 1.56955 -0.28935 0
M  V30 29871 C 2774.53 1.61297 1.2077 0
M  V30 29872 O 2773.59 1.55231 1.99147 0
M  V30 29873 C 2774.9 2.84445 -0.975265 0
M  V30 29874 C 2776.45 2.98147 -0.952762 0
M  V30 29875 C 2776.92 4.2843 -1.61901 0
M  V30 29876 N 2778.41 4.35228 -1.58528 0
M  V30 29877 C 2779.15 5.3474 -2.06979 0
M  V30 29878 N 2778.65 6.40697 -2.6359 0
M  V30 29879 N 2780.44 5.26205 -1.97648 0
M  V30 29880 H 2772.59 1.40132 -1.59615 0
M  V30 29881 H 2774.85 0.67107 -0.669604 0
M  V30 29882 H 2774.56 2.87197 -2.03004 0
M  V30 29883 H 2774.43 3.73752 -0.508815 0
M  V30 29884 H 2776.82 2.94952 0.0935162 0
M  V30 29885 H 2776.9 2.10206 -1.45764 0
M  V30 29886 H 2776.54 4.32384 -2.6647 0
M  V30 29887 H 2776.47 5.15216 -1.08902 0
M  V30 29888 H 2778.97 3.5927 -1.17189 0
M  V30 29889 H 2779.28 7.12903 -2.9831 0
M  V30 29890 H 2777.62 6.41401 -2.67637 0
M  V30 29891 H 2780.81 4.42339 -1.53147 0
M  V30 29892 H 2780.99 6.03606 -2.35719 0
M  V30 29893 N 2774.39 0.364449 1.53328 0
M  V30 29894 C 2775.32 -0.474503 2.28628 0
M  V30 29895 C 2776.3 -1.0849 1.31011 0
M  V30 29896 O 2777.49 -1.10236 1.5988 0
M  V30 29897 C 2774.62 -1.61496 3.07468 0
M  V30 29898 C 2773.57 -1.13187 4.12762 0
M  V30 29899 C 2772.9 -2.36247 4.79678 0
M  V30 29900 C 2774.2 -0.217416 5.21847 0
M  V30 29901 H 2775.89 0.153708 2.99005 0
M  V30 29902 H 2773.44 0.0753659 1.43803 0
M  V30 29903 H 2775.39 -2.20849 3.58892 0
M  V30 29904 H 2774.12 -2.27038 2.34779 0
M  V30 29905 H 2772.78 -0.561026 3.62282 0
M  V30 29906 H 2772.42 -3.00243 4.03563 0
M  V30 29907 H 2772.12 -2.04596 5.50831 0
M  V30 29908 H 2773.65 -2.96288 5.33897 0
M  V30 29909 H 2775.06 -0.718393 5.68781 0
M  V30 29910 H 2773.46 0.00816956 6.00099 0
M  V30 29911 H 2774.53 0.740738 4.79209 0
M  V30 29912 N 2775.87 -1.57322 0.0935872 0
M  V30 29913 C 2776.8 -2.16966 -0.863024 0
M  V30 29914 C 2777.78 -1.10258 -1.29527 0
M  V30 29915 O 2778.97 -1.38389 -1.36243 0
M  V30 29916 C 2776.1 -2.74878 -2.12272 0
M  V30 29917 C 2775.05 -3.86945 -1.82915 0
M  V30 29918 C 2774.38 -4.31553 -3.15699 0
M  V30 29919 C 2775.68 -5.1021 -1.11728 0
M  V30 29920 H 2777.37 -2.97153 -0.366093 0
M  V30 29921 H 2774.92 -1.42937 -0.174647 0
M  V30 29922 H 2776.87 -3.15255 -2.79629 0
M  V30 29923 H 2775.59 -1.91943 -2.64245 0
M  V30 29924 H 2774.25 -3.47105 -1.17955 0
M  V30 29925 H 2773.9 -3.4551 -3.65557 0
M  V30 29926 H 2773.6 -5.07109 -2.9684 0
M  V30 29927 H 2775.13 -4.74562 -3.84217 0
M  V30 29928 H 2776.54 -5.47765 -1.69193 0
M  V30 29929 H 2774.94 -5.91185 -1.03053 0
M  V30 29930 H 2776.01 -4.84797 -0.0997966 0
M  V30 29931 N 2777.35 0.180099 -1.56568 0
M  V30 29932 C 2778.77 0.531532 -1.50489 0
M  V30 29933 C 2778.97 1.85098 -0.7963 0
M  V30 29934 O 2778.02 2.5002 -0.353022 0
M  V30 29935 C 2779.33 0.572404 -2.95202 0
M  V30 29936 C 2780.88 0.66021 -3.05958 0
M  V30 29937 C 2781.36 0.732056 -4.52112 0
M  V30 29938 N 2782.85 0.795182 -4.56323 0
M  V30 29939 C 2783.58 0.871197 -5.66743 0
M  V30 29940 N 2783.08 0.908587 -6.86816 0
M  V30 29941 N 2784.87 0.909542 -5.54692 0
M  V30 29942 H 2777.02 -0.6852 -2.01044 0
M  V30 29943 H 2779.29 -0.245978 -0.915532 0
M  V30 29944 H 2778.99 -0.32827 -3.50165 0
M  V30 29945 H 2778.87 1.42194 -3.49372 0
M  V30 29946 H 2781.25 1.55131 -2.51035 0
M  V30 29947 H 2781.33 -0.215828 -2.54888 0
M  V30 29948 H 2780.98 -0.154754 -5.07664 0
M  V30 29949 H 2780.91 1.62411 -5.00929 0
M  V30 29950 H 2783.4 0.774925 -3.69869 0
M  V30 29951 H 2783.71 0.967519 -7.6672 0
M  V30 29952 H 2782.06 0.877011 -6.89444 0
M  V30 29953 H 2785.25 0.877272 -4.59806 0
M  V30 29954 H 2785.42 0.965322 -6.40769 0
M  V30 29955 N 2778.83 1.51088 0.448349 0
M  V30 29956 C 2779.76 1.66274 1.56295 0
M  V30 29957 C 2780.74 0.510446 1.5438 0
M  V30 29958 O 2781.92 0.732884 1.73669 0
M  V30 29959 C 2779.05 1.66623 2.9488 0
M  V30 29960 C 2778.1 2.87687 3.14863 0
M  V30 29961 S 2778.93 4.48667 2.92332 0
M  V30 29962 C 2780.08 4.51743 4.33219 0
M  V30 29963 H 2780.32 2.60552 1.43177 0
M  V30 29964 H 2777.85 1.40634 0.637284 0
M  V30 29965 H 2779.81 1.67508 3.74768 0
M  V30 29966 H 2778.47 0.735412 3.05369 0
M  V30 29967 H 2777.66 2.843 4.16161 0
M  V30 29968 H 2777.26 2.84486 2.42783 0
M  V30 29969 H 2779.56 4.26706 5.2624 0
M  V30 29970 H 2780.5 5.53495 4.41643 0
M  V30 29971 H 2780.91 3.81188 4.1636 0
M  V30 29972 N 2780.31 -0.703068 1.41049 0
M  V30 29973 C 2781.58 -1.45706 1.30496 0
M  V30 29974 C 2781.96 -2.10981 -0.0709521 0
M  V30 29975 O 2781.31 -2.01114 -1.08468 0
M  V30 29976 C 2781.52 -2.4826 2.45291 0
M  V30 29977 C 2782.87 -3.1373 2.86109 0
M  V30 29978 O 2783.89 -2.58583 2.44976 0
M  V30 29979 O 2782.75 -4.13595 3.57214 0
M  V30 29980 H 2779.85 -0.648537 0.513155 0
M  V30 29981 H 2782.39 -0.734181 1.52996 0
M  V30 29982 H 2781.16 -1.98629 3.37138 0
M  V30 29983 H 2780.79 -3.28067 2.24628 0
M  V30 29984 N 2781.78 -1.26752 -0.936569 0
M  V30 29985 C 2782.71 -1.11216 -2.05313 0
M  V30 29986 C 2783.7 -0.0160561 -1.70092 0
M  V30 29987 O 2784.88 -0.188928 -1.93279 0
M  V30 29988 C 2782.01 -0.74923 -3.39122 0
M  V30 29989 C 2780.96 -1.79758 -3.88421 0
M  V30 29990 C 2780.29 -1.28885 -5.18934 0
M  V30 29991 C 2781.59 -3.2 -4.12792 0
M  V30 29992 H 2783.28 -2.04616 -2.18569 0
M  V30 29993 H 2780.83 -0.985178 -1.05025 0
M  V30 29994 H 2782.78 -0.627396 -4.16703 0
M  V30 29995 H 2781.51 0.220485 -3.25855 0
M  V30 29996 H 2780.17 -1.90816 -3.13025 0
M  V30 29997 H 2779.81 -0.308845 -5.02051 0
M  V30 29998 H 2779.51 -1.98967 -5.52889 0
M  V30 29999 H 2781.04 -1.17978 -5.99094 0
M  V30 30000 H 2782.45 -3.11992 -4.80972 0
M  V30 30001 H 2780.85 -3.87713 -4.58037 0
M  V30 30002 H 2781.92 -3.65713 -3.18405 0
M  V30 30003 N 2783.26 1.1418 -1.08631 0
M  V30 30004 C 2784.67 1.66835 -0.838032 0
M  V30 30005 C 2785.02 1.85645 0.634852 0
M  V30 30006 O 2784.15 1.56928 1.49005 0
M  V30 30007 C 2784.74 3.03055 -1.5147 0
M  V30 30008 C 2783.3 3.52734 -1.31361 0
M  V30 30009 C 2782.45 2.28159 -1.57603 0
M  V30 30010 H 2785.4 0.982143 -1.24658 0
M  V30 30011 H 2785.42 3.68624 -0.943199 0
M  V30 30012 H 2784.93 2.89333 -2.58666 0
M  V30 30013 H 2783.04 3.71675 -0.262449 0
M  V30 30014 H 2783.15 4.33365 -2.04282 0
M  V30 30015 H 2781.51 2.34346 -0.9977 0
M  V30 30016 H 2782.3 2.17011 -2.6601 0
M  V30 30017 N 2784.74 0.872304 1.31258 0
M  V30 30018 C 2785.99 0.485118 1.96912 0
M  V30 30019 C 2786.32 -0.960637 1.68776 0
M  V30 30020 O 2785.59 -1.67683 0.985524 0
M  V30 30021 C 2785.88 0.745564 3.52297 0
M  V30 30022 C 2785.73 2.24102 3.89998 0
M  V30 30023 C 2787.05 0.213593 4.39581 0
M  V30 30024 H 2784.17 0.177729 0.715249 0
M  V30 30025 H 2786.81 1.09397 1.55346 0
M  V30 30026 H 2784.96 0.227344 3.87834 0
M  V30 30027 H 2786.63 2.82668 3.6455 0
M  V30 30028 H 2784.88 2.71267 3.38521 0
M  V30 30029 H 2785.55 2.3739 4.98347 0
M  V30 30030 H 2788.02 0.656974 4.10881 0
M  V30 30031 H 2786.9 0.425256 5.4725 0
M  V30 30032 H 2787.16 -0.88459 4.3316 0
M  V30 30033 N 2786.22 -1.44374 0.631976 0
M  V30 30034 C 2787.18 -2.29114 -0.0627739 0
M  V30 30035 C 2788.18 -1.41085 -0.771469 0
M  V30 30036 O 2789.37 -1.62948 -0.61593 0
M  V30 30037 C 2786.5 -3.22683 -1.09947 0
M  V30 30038 H 2787.7 -2.92029 0.682561 0
M  V30 30039 H 2785.25 -1.513 0.392154 0
M  V30 30040 H 2785.98 -2.64619 -1.87476 0
M  V30 30041 H 2785.77 -3.87556 -0.595218 0
M  V30 30042 H 2787.26 -3.86339 -1.58532 0
M  V30 30043 N 2787.7 -0.372575 -1.53133 0
M  V30 30044 C 2788.97 0.271659 -1.93704 0
M  V30 30045 C 2789.35 1.65797 -1.3067 0
M  V30 30046 O 2788.7 2.23647 -0.468419 0
M  V30 30047 C 2788.91 0.314842 -3.47577 0
M  V30 30048 C 2790.26 0.551838 -4.20999 0
M  V30 30049 O 2791.28 0.395758 -3.53995 0
M  V30 30050 O 2790.14 0.856295 -5.3975 0
M  V30 30051 H 2787.24 0.164571 -0.81046 0
M  V30 30052 H 2789.78 -0.425867 -1.64269 0
M  V30 30053 H 2788.55 -0.65686 -3.85747 0
M  V30 30054 H 2788.18 1.05798 -3.83266 0
M  V30 30055 N 2789.17 1.5727 -0.101929 0
M  V30 30056 C 2790.45 1.8608 0.6028 0
M  V30 30057 C 2790.83 1.00004 1.8591 0
M  V30 30058 O 2790.18 0.0742889 2.28379 0
M  V30 30059 C 2790.39 3.36883 0.911635 0
M  V30 30060 C 2791.74 4.05095 1.27212 0
M  V30 30061 O 2792.76 3.41804 1.00244 0
M  V30 30062 O 2791.62 5.16785 1.77751 0
M  V30 30063 H 2788.71 0.769748 0.302353 0
M  V30 30064 H 2791.26 1.69161 -0.135143 0
M  V30 30065 H 2790.03 3.91295 0.0206568 0
M  V30 30066 H 2789.66 3.59172 1.70532 0
M  V30 30067 N 2790.65 -0.171793 1.56661 0
M  V30 30068 C 2791.6 -1.23203 1.97291 0
M  V30 30069 C 2792.59 -1.45853 0.861591 0
M  V30 30070 O 2793.8 -1.46438 1.0467 0
M  V30 30071 H 2790.18 -0.414139 0.627689 0
M  V30 30072 H 2792.15 -0.862492 2.85664 0
M  V30 30073 C 2790.9 -2.56396 2.34854 0
M  V30 30074 H 2790.22 -2.39791 3.19907 0
M  V30 30075 H 2791.66 -3.29271 2.67127 0
M  V30 30076 C 2790.12 -3.15116 1.19177 0
M  V30 30077 O 2790.65 -3.98832 0.479183 0
M  V30 30078 N 2788.85 -2.74199 0.962463 0
M  V30 30079 H 2788.4 -2.06223 1.54369 0
M  V30 30080 H 2788.36 -3.13823 0.190327 0
M  V30 30081 N 2792.13 -1.51324 -0.44033 0
M  V30 30082 C 2793.36 -1.67647 -1.21252 0
M  V30 30083 C 2793.77 -0.372552 -1.85088 0
M  V30 30084 O 2793.13 0.648653 -1.70584 0
M  V30 30085 C 2793.18 -2.78997 -2.29876 0
M  V30 30086 O 2792.9 -4.04337 -1.68652 0
M  V30 30087 C 2794.4 -3.06563 -3.20209 0
M  V30 30088 H 2791.62 -0.562672 -0.36557 0
M  V30 30089 H 2794.17 -1.97723 -0.522105 0
M  V30 30090 H 2792.32 -2.51529 -2.94639 0
M  V30 30091 H 2792.74 -4.66154 -2.40418 0
M  V30 30092 H 2794.21 -3.88065 -3.92568 0
M  V30 30093 H 2794.69 -2.18851 -3.8079 0
M  V30 30094 H 2795.29 -3.35679 -2.6115 0
M  V30 30095 N 2793.61 0.695578 -1.41419 0
M  V30 30096 C 2794.85 1.45778 -1.40985 0
M  V30 30097 C 2795.19 1.94191 -0.0188104 0
M  V30 30098 O 2794.46 1.69529 0.95343 0
M  V30 30099 C 2794.75 2.66967 -2.41662 0
M  V30 30100 C 2794.6 2.2432 -3.89873 0
M  V30 30101 C 2795.92 3.69164 -2.39595 0
M  V30 30102 H 2793.04 0.528748 -0.513415 0
M  V30 30103 H 2795.68 0.792245 -1.72695 0
M  V30 30104 H 2793.83 3.2375 -2.14752 0
M  V30 30105 H 2795.5 1.72865 -4.27686 0
M  V30 30106 H 2793.74 1.56104 -4.04739 0
M  V30 30107 H 2794.41 3.11277 -4.55862 0
M  V30 30108 H 2796.89 3.22055 -2.63476 0
M  V30 30109 H 2795.77 4.51569 -3.12052 0
M  V30 30110 H 2796.03 4.18859 -1.41454 0
M  V30 30111 N 2795.09 1.27247 0.929833 0
M  V30 30112 C 2796.04 1.06445 2.01627 0
M  V30 30113 C 2797.02 -0.00685014 1.60899 0
M  V30 30114 O 2798.21 0.211438 1.75733 0
M  V30 30115 C 2795.34 0.71142 3.35848 0
M  V30 30116 C 2794.43 1.82076 3.83026 0
M  V30 30117 N 2794.82 3.06 4.02738 0
M  V30 30118 C 2793.12 1.70695 4.12043 0
M  V30 30119 C 2793.82 3.78175 4.41994 0
M  V30 30120 N 2792.79 3.05926 4.49344 0
M  V30 30121 H 2796.6 2.00493 2.14895 0
M  V30 30122 H 2794.11 1.17931 1.11652 0
M  V30 30123 H 2796.11 0.543514 4.13342 0
M  V30 30124 H 2794.77 -0.22146 3.23944 0
M  V30 30125 H 2795.78 3.41784 3.89106 0
M  V30 30126 H 2792.46 0.844752 4.08865 0
M  V30 30127 H 2793.85 4.84672 4.65342 0
M  V30 30128 N 2796.57 -1.13603 1.09235 0
M  V30 30129 C 2797.81 -1.84834 0.827192 0
M  V30 30130 C 2798.14 -1.83418 -0.647167 0
M  V30 30131 O 2797.4 -1.26611 -1.49225 0
M  V30 30132 C 2797.69 -3.3272 1.30506 0
M  V30 30133 C 2797.36 -3.5432 2.7887 0
M  V30 30134 C 2796.02 -3.59923 3.19388 0
M  V30 30135 C 2798.37 -3.6245 3.74539 0
M  V30 30136 C 2795.7 -3.71188 4.54353 0
M  V30 30137 C 2798.05 -3.75243 5.09289 0
M  V30 30138 C 2796.72 -3.79098 5.49401 0
M  V30 30139 H 2795.99 -0.676357 0.302691 0
M  V30 30140 H 2798.64 -1.34132 1.36678 0
M  V30 30141 H 2796.94 -3.85761 0.685238 0
M  V30 30142 H 2798.64 -3.86279 1.07654 0
M  V30 30143 H 2795.23 -3.50613 2.46513 0
M  V30 30144 H 2799.41 -3.57403 3.4435 0
M  V30 30145 H 2794.67 -3.72439 4.8487 0
M  V30 30146 H 2798.84 -3.80477 5.83276 0
M  V30 30147 H 2796.47 -3.87579 6.53977 0
M  V30 30148 N 2798.04 -0.879253 -1.30793 0
M  V30 30149 C 2798.99 -0.331152 -2.30231 0
M  V30 30150 C 2799.99 0.558766 -1.59919 0
M  V30 30151 O 2801.19 0.443835 -1.74442 0
M  V30 30152 H 2797.57 -0.0884221 -0.746783 0
M  V30 30153 H 2799.54 -1.18358 -2.73923 0
M  V30 30154 C 2798.29 0.444341 -3.44849 0
M  V30 30155 H 2797.61 -0.231176 -3.99131 0
M  V30 30156 H 2799.05 0.793036 -4.16518 0
M  V30 30157 C 2797.51 1.63921 -2.94332 0
M  V30 30158 O 2798.04 2.73857 -2.9388 0
M  V30 30159 N 2796.24 1.47445 -2.50416 0
M  V30 30160 H 2795.79 0.580106 -2.50983 0
M  V30 30161 H 2795.75 2.2753 -2.16973 0
M  V30 30162 N 2799.52 1.44037 -0.639624 0
M  V30 30163 C 2800.75 2.06834 -0.153153 0
M  V30 30164 C 2801.17 1.47543 1.16673 0
M  V30 30165 O 2800.53 0.580123 1.71768 0
M  V30 30166 C 2800.58 3.60548 -0.0609802 0
M  V30 30167 O 2799.68 4.00571 0.98064 0
M  V30 30168 H 2799.02 0.658055 -0.0886518 0
M  V30 30169 H 2801.55 1.8477 -0.878706 0
M  V30 30170 H 2801.56 4.07803 0.12682 0
M  V30 30171 H 2800.24 4.03082 -1.02457 0
M  V30 30172 H 2798.81 3.64933 0.766725 0
M  V30 30173 N 2801 0.380691 1.52933 0
M  V30 30174 C 2802.23 -0.204563 2.05886 0
M  V30 30175 C 2802.64 -1.41221 1.25308 0
M  V30 30176 O 2802 -1.80058 0.297536 0
M  V30 30177 C 2802.05 -0.583186 3.56765 0
M  V30 30178 O 2801.77 0.576475 4.34291 0
M  V30 30179 C 2803.27 -1.22522 4.26032 0
M  V30 30180 H 2800.49 -0.0328874 0.670194 0
M  V30 30181 H 2803.04 0.543431 1.97147 0
M  V30 30182 H 2801.19 -1.28108 3.65605 0
M  V30 30183 H 2801.61 0.267211 5.23819 0
M  V30 30184 H 2803.08 -1.44058 5.32871 0
M  V30 30185 H 2803.56 -2.19004 3.80702 0
M  V30 30186 H 2804.16 -0.568333 4.21486 0
M  V30 30187 N 2802.48 -1.57214 0.110268 0
M  V30 30188 C 2803.41 -2.17869 -0.839964 0
M  V30 30189 C 2804.39 -1.11626 -1.2835 0
M  V30 30190 O 2805.57 -1.39826 -1.34767 0
M  V30 30191 C 2802.7 -2.77114 -2.09344 0
M  V30 30192 C 2801.66 -3.88863 -1.788 0
M  V30 30193 C 2800.98 -4.34877 -3.11104 0
M  V30 30194 C 2802.28 -5.11366 -1.06311 0
M  V30 30195 H 2803.98 -2.97525 -0.334555 0
M  V30 30196 H 2801.52 -1.43114 -0.159477 0
M  V30 30197 H 2803.48 -3.18203 -2.76269 0
M  V30 30198 H 2802.2 -1.94735 -2.62194 0
M  V30 30199 H 2800.86 -3.48337 -1.14267 0
M  V30 30200 H 2800.51 -3.49368 -3.61871 0
M  V30 30201 H 2800.21 -5.10229 -2.91444 0
M  V30 30202 H 2801.73 -4.78611 -3.79162 0
M  V30 30203 H 2803.15 -5.49529 -1.63374 0
M  V30 30204 H 2801.54 -5.92245 -0.967772 0
M  V30 30205 H 2802.61 -4.84876 -0.0483717 0
M  V30 30206 N 2803.96 0.163482 -1.5675 0
M  V30 30207 C 2804.89 1.23129 -1.92132 0
M  V30 30208 C 2805.87 1.42392 -0.785072 0
M  V30 30209 O 2807.05 1.57272 -1.03913 0
M  V30 30210 C 2804.18 2.59297 -2.17905 0
M  V30 30211 C 2803.22 2.56724 -3.4058 0
M  V30 30212 S 2804.06 2.05036 -4.94692 0
M  V30 30213 C 2805.21 3.42966 -5.2357 0
M  V30 30214 H 2805.45 0.929333 -2.82402 0
M  V30 30215 H 2802.98 0.368392 -1.49941 0
M  V30 30216 H 2804.94 3.37666 -2.33435 0
M  V30 30217 H 2803.6 2.86689 -1.28329 0
M  V30 30218 H 2802.79 3.56924 -3.55839 0
M  V30 30219 H 2802.39 1.86456 -3.24207 0
M  V30 30220 H 2804.68 4.39001 -5.16027 0
M  V30 30221 H 2805.63 3.32575 -6.2514 0
M  V30 30222 H 2806.04 3.3934 -4.51119 0
M  V30 30223 N 2805.43 1.51555 0.432299 0
M  V30 30224 C 2806.4 1.72636 1.50762 0
M  V30 30225 C 2807.4 0.59634 1.49333 0
M  V30 30226 O 2808.59 0.863952 1.51266 0
M  V30 30227 C 2805.72 1.78746 2.90281 0
M  V30 30228 H 2806.91 2.68611 1.33372 0
M  V30 30229 H 2804.46 1.41621 0.661304 0
M  V30 30230 H 2805.2 0.846032 3.1307 0
M  V30 30231 H 2804.98 2.60875 2.92723 0
M  V30 30232 H 2806.47 1.96877 3.68279 0
M  V30 30233 N 2806.91 -0.688069 1.41786 0
M  V30 30234 C 2807.84 -1.81418 1.47003 0
M  V30 30235 C 2808.82 -1.66909 0.32791 0
M  V30 30236 O 2810.01 -1.8653 0.540395 0
M  V30 30237 C 2807.14 -3.19615 1.35881 0
M  V30 30238 C 2806.09 -3.48839 2.47982 0
M  V30 30239 C 2805.42 -4.86471 2.21923 0
M  V30 30240 C 2806.72 -3.47061 3.90315 0
M  V30 30241 H 2808.41 -1.7731 2.4125 0
M  V30 30242 H 2805.96 -0.851631 1.16117 0
M  V30 30243 H 2807.91 -3.98114 1.38141 0
M  V30 30244 H 2806.63 -3.24368 0.381217 0
M  V30 30245 H 2805.29 -2.72694 2.45017 0
M  V30 30246 H 2804.94 -4.87858 1.22489 0
M  V30 30247 H 2804.64 -5.06989 2.97046 0
M  V30 30248 H 2806.17 -5.67271 2.25911 0
M  V30 30249 H 2807.58 -4.15553 3.94954 0
M  V30 30250 H 2805.98 -3.79112 4.65182 0
M  V30 30251 H 2807.05 -2.45889 4.17932 0
M  V30 30252 N 2808.39 -1.27739 -0.923072 0
M  V30 30253 C 2809.64 -1.13729 -1.66579 0
M  V30 30254 C 2809.95 0.315399 -1.9304 0
M  V30 30255 O 2811.16 0.576464 -2.6531 0
M  V30 30256 C 2809.61 -1.9875 -3.00044 0
M  V30 30257 C 2809.22 -3.48704 -2.81264 0
M  V30 30258 C 2810.97 -1.93402 -3.77883 0
M  V30 30259 C 2808.87 -4.25908 -4.10313 0
M  V30 30260 H 2807.8 -0.422028 -0.624827 0
M  V30 30261 H 2810.45 -1.52196 -1.02511 0
M  V30 30262 H 2808.84 -1.53132 -3.65194 0
M  V30 30263 H 2810.01 -4.02217 -2.24852 0
M  V30 30264 H 2808.32 -3.5548 -2.16848 0
M  V30 30265 H 2810.92 -2.48357 -4.73522 0
M  V30 30266 H 2811.26 -0.908676 -4.06262 0
M  V30 30267 H 2811.8 -2.3694 -3.19537 0
M  V30 30268 H 2808.54 -5.28985 -3.87111 0
M  V30 30269 H 2808.06 -3.77171 -4.66371 0
M  V30 30270 H 2809.74 -4.3533 -4.78641 0
M  V30 30271 N 2809.87 1.13022 -1.09836 0
M  V30 30272 C 2811.28 1.36387 -0.828899 0
M  V30 30273 C 2811.48 1.93714 0.554722 0
M  V30 30274 O 2810.54 2.15933 1.30879 0
M  V30 30275 C 2811.85 2.31127 -1.92356 0
M  V30 30276 C 2813.4 2.44732 -1.95129 0
M  V30 30277 C 2813.88 3.42782 -3.03751 0
M  V30 30278 N 2815.37 3.50335 -3.03018 0
M  V30 30279 C 2816.1 4.26095 -3.83707 0
M  V30 30280 N 2815.6 5.04973 -4.74315 0
M  V30 30281 N 2817.39 4.21438 -3.71949 0
M  V30 30282 H 2809.54 0.741655 -1.99031 0
M  V30 30283 H 2811.81 0.388888 -0.864564 0
M  V30 30284 H 2811.51 1.96167 -2.9191 0
M  V30 30285 H 2811.39 3.31186 -1.80542 0
M  V30 30286 H 2813.77 2.78975 -0.962118 0
M  V30 30287 H 2813.85 1.44582 -2.11021 0
M  V30 30288 H 2813.5 3.09269 -4.02884 0
M  V30 30289 H 2813.43 4.42747 -2.85102 0
M  V30 30290 H 2815.92 2.94058 -2.37357 0
M  V30 30291 H 2816.23 5.60099 -5.32456 0
M  V30 30292 H 2814.58 5.04191 -4.78348 0
M  V30 30293 H 2817.77 3.58895 -3.0052 0
M  V30 30294 H 2817.94 4.80227 -4.3507 0
M  V30 30295 N 2811.35 0.886177 1.30325 0
M  V30 30296 C 2812.57 0.520211 2.00253 0
M  V30 30297 C 2812.99 -0.891608 1.66421 0
M  V30 30298 O 2812.35 -1.58652 0.901979 0
M  V30 30299 C 2812.4 0.686837 3.54915 0
M  V30 30300 O 2812.12 2.04307 3.87544 0
M  V30 30301 C 2813.62 0.324022 4.42114 0
M  V30 30302 H 2810.84 0.200958 0.640201 0
M  V30 30303 H 2813.38 1.19181 1.66181 0
M  V30 30304 H 2811.54 0.0625954 3.87349 0
M  V30 30305 H 2811.95 2.06257 4.82243 0
M  V30 30306 H 2813.43 0.491503 5.49807 0
M  V30 30307 H 2813.9 -0.738034 4.32955 0
M  V30 30308 H 2814.51 0.924638 4.15127 0
M  V30 30309 N 2812.82 -1.43695 0.647253 0
M  V30 30310 C 2813.79 -2.29168 -0.0384698 0
M  V30 30311 C 2814.79 -1.41895 -0.756462 0
M  V30 30312 O 2815.98 -1.63592 -0.598613 0
M  V30 30313 C 2813.11 -3.23831 -1.06519 0
M  V30 30314 H 2814.3 -2.91289 0.713496 0
M  V30 30315 H 2811.86 -1.50876 0.40818 0
M  V30 30316 H 2812.59 -2.66593 -1.84659 0
M  V30 30317 H 2812.38 -3.88165 -0.554079 0
M  V30 30318 H 2813.87 -3.87998 -1.54425 0
M  V30 30319 N 2814.3 -0.388796 -1.52729 0
M  V30 30320 C 2815.23 0.43807 -2.29354 0
M  V30 30321 C 2816.21 1.06392 -1.32721 0
M  V30 30322 O 2817.4 1.07679 -1.61614 0
M  V30 30323 C 2814.53 1.56584 -3.09998 0
M  V30 30324 C 2813.48 1.06606 -4.14511 0
M  V30 30325 C 2812.81 2.28586 -4.83376 0
M  V30 30326 C 2814.11 0.134367 -5.22127 0
M  V30 30327 H 2815.8 -0.201258 -2.98723 0
M  V30 30328 H 2813.35 -0.0982341 -1.43665 0
M  V30 30329 H 2815.3 2.15111 -3.62361 0
M  V30 30330 H 2814.03 2.23274 -2.38361 0
M  V30 30331 H 2812.68 0.503319 -3.63128 0
M  V30 30332 H 2812.33 2.93785 -4.08288 0
M  V30 30333 H 2812.03 1.95807 -5.54016 0
M  V30 30334 H 2813.56 2.87757 -5.38543 0
M  V30 30335 H 2814.97 0.627814 -5.69852 0
M  V30 30336 H 2813.37 -0.103639 -6.0001 0
M  V30 30337 H 2814.44 -0.816882 -4.7797 0
M  V30 30338 N 2815.78 1.57153 -0.118604 0
M  V30 30339 C 2817.06 1.86709 0.583029 0
M  V30 30340 C 2817.44 1.0197 1.84839 0
M  V30 30341 O 2816.79 0.0985074 2.28288 0
M  V30 30342 C 2817 3.37831 0.875853 0
M  V30 30343 C 2818.34 4.06422 1.22909 0
M  V30 30344 O 2819.37 3.42848 0.966127 0
M  V30 30345 O 2818.23 5.18641 1.72259 0
M  V30 30346 H 2815.32 0.772912 0.294171 0
M  V30 30347 H 2817.87 1.69008 -0.153077 0
M  V30 30348 H 2816.64 3.91294 -0.0208464 0
M  V30 30349 H 2816.26 3.60961 1.66713 0
M  V30 30350 N 2817.26 -0.155167 1.56834 0
M  V30 30351 C 2818.51 -0.867535 1.8209 0
M  V30 30352 C 2818.82 -1.82702 0.698522 0
M  V30 30353 O 2820.03 -2.58294 0.836453 0
M  V30 30354 C 2818.48 -1.59331 3.2271 0
M  V30 30355 C 2818.09 -0.676641 4.42861 0
M  V30 30356 C 2819.83 -2.29294 3.57246 0
M  V30 30357 C 2817.74 -1.40357 5.74503 0
M  V30 30358 H 2816.67 -0.327703 0.679063 0
M  V30 30359 H 2819.32 -0.120319 1.83105 0
M  V30 30360 H 2817.7 -2.38586 3.16058 0
M  V30 30361 H 2818.88 0.0801006 4.6073 0
M  V30 30362 H 2817.19 -0.0858397 4.16312 0
M  V30 30363 H 2819.79 -2.84304 4.52852 0
M  V30 30364 H 2820.13 -3.05401 2.82906 0
M  V30 30365 H 2820.67 -1.56966 3.65522 0
M  V30 30366 H 2817.41 -0.684509 6.51916 0
M  V30 30367 H 2816.93 -2.13323 5.60583 0
M  V30 30368 H 2818.6 -1.9467 6.17019 0
M  V30 30369 N 2818.74 -1.51782 -0.424256 0
M  V30 30370 C 2819.68 -1.74039 -1.51588 0
M  V30 30371 C 2820.65 -0.582385 -1.55555 0
M  V30 30372 O 2821.84 -0.818275 -1.72363 0
M  V30 30373 C 2818.98 -1.88325 -2.89185 0
M  V30 30374 C 2818.09 -3.15925 -2.94645 0
M  V30 30375 C 2817.23 -3.20729 -4.23446 0
M  V30 30376 C 2816.27 -4.42591 -4.22823 0
M  V30 30377 N 2815.4 -4.44872 -5.4317 0
M  V30 30378 H 2820.24 -2.67214 -1.31912 0
M  V30 30379 H 2817.78 -1.3242 -0.640576 0
M  V30 30380 H 2819.74 -1.94589 -3.6904 0
M  V30 30381 H 2818.37 -0.985456 -3.0739 0
M  V30 30382 H 2817.42 -3.18906 -2.07372 0
M  V30 30383 H 2818.73 -4.058 -2.90048 0
M  V30 30384 H 2817.89 -3.25982 -5.11684 0
M  V30 30385 H 2816.62 -2.28765 -4.30718 0
M  V30 30386 H 2815.63 -4.37501 -3.32976 0
M  V30 30387 H 2816.85 -5.35834 -4.17204 0
M  V30 30388 H 2814.8 -3.55784 -5.51138 0
M  V30 30389 H 2814.72 -5.28573 -5.40506 0
M  V30 30390 H 2815.99 -4.54335 -6.33404 0
M  V30 30391 N 2820.21 0.68054 -1.42149 0
M  V30 30392 C 2821.46 1.43633 -1.41606 0
M  V30 30393 C 2821.78 1.95571 -0.033823 0
M  V30 30394 O 2822.98 2.71336 0.0942111 0
M  V30 30395 C 2821.44 2.59802 -2.4906 0
M  V30 30396 C 2821.05 2.14587 -3.93264 0
M  V30 30397 C 2822.79 3.37348 -2.57676 0
M  V30 30398 C 2820.7 3.27804 -4.92238 0
M  V30 30399 H 2819.63 0.539573 -0.526666 0
M  V30 30400 H 2822.28 0.73734 -1.68034 0
M  V30 30401 H 2820.66 3.32041 -2.15788 0
M  V30 30402 H 2821.83 1.49539 -4.35861 0
M  V30 30403 H 2820.15 1.49996 -3.88446 0
M  V30 30404 H 2822.75 4.21656 -3.28801 0
M  V30 30405 H 2823.09 3.83552 -1.61844 0
M  V30 30406 H 2823.62 2.72174 -2.90114 0
M  V30 30407 H 2820.36 2.86597 -5.89527 0
M  V30 30408 H 2819.88 3.91653 -4.54277 0
M  V30 30409 H 2821.56 3.93358 -5.13691 0
M  V30 30410 N 2821.69 1.28226 0.916285 0
M  V30 30411 C 2822.66 1.1196 1.99994 0
M  V30 30412 C 2823.66 0.0600434 1.60688 0
M  V30 30413 O 2824.85 0.30561 1.71498 0
M  V30 30414 C 2821.98 0.70847 3.33457 0
M  V30 30415 H 2823.17 2.08199 2.15854 0
M  V30 30416 H 2820.72 1.11177 1.09861 0
M  V30 30417 H 2821.46 -0.254802 3.23297 0
M  V30 30418 H 2821.24 1.47384 3.63346 0
M  V30 30419 H 2822.73 0.617236 4.13013 0
M  V30 30420 N 2823.17 -1.12438 1.10433 0
M  V30 30421 C 2824.12 -2.18166 0.753141 0
M  V30 30422 C 2825.09 -1.63882 -0.27052 0
M  V30 30423 O 2826.27 -1.90211 -0.149804 0
M  V30 30424 C 2823.41 -3.4457 0.191106 0
M  V30 30425 C 2822.53 -4.12908 1.27006 0
M  V30 30426 C 2821.66 -5.26962 0.669679 0
M  V30 30427 C 2820.7 -5.87166 1.72922 0
M  V30 30428 N 2819.84 -6.92633 1.1491 0
M  V30 30429 H 2824.68 -2.47553 1.65896 0
M  V30 30430 H 2822.21 -1.21539 0.828652 0
M  V30 30431 H 2824.17 -4.16921 -0.152638 0
M  V30 30432 H 2822.8 -3.15601 -0.677942 0
M  V30 30433 H 2821.85 -3.38737 1.73093 0
M  V30 30434 H 2823.17 -4.53723 2.07212 0
M  V30 30435 H 2822.32 -6.06075 0.27538 0
M  V30 30436 H 2821.06 -4.87425 -0.16381 0
M  V30 30437 H 2820.06 -5.0674 2.13294 0
M  V30 30438 H 2821.29 -6.28774 2.56555 0
M  V30 30439 H 2819.23 -6.55133 0.337071 0
M  V30 30440 H 2819.15 -7.32046 1.88799 0
M  V30 30441 H 2820.42 -7.75574 0.781346 0
M  V30 30442 N 2824.65 -0.893076 -1.29853 0
M  V30 30443 C 2825.9 -0.514601 -1.95439 0
M  V30 30444 C 2826.22 0.940929 -1.70797 0
M  V30 30445 O 2825.49 1.66262 -1.03604 0
M  V30 30446 H 2824.07 -0.187315 -0.723133 0
M  V30 30447 H 2826.73 -1.13792 -1.58232 0
M  V30 30448 H 2825.83 -0.691634 -3.0434 0
M  V30 30449 N 2826.13 1.4335 -0.654865 0
M  V30 30450 C 2827.38 2.01396 -0.168594 0
M  V30 30451 C 2827.7 1.51935 1.22232 0
M  V30 30452 O 2826.97 0.732659 1.81684 0
M  V30 30453 H 2825.55 0.74464 -0.0593375 0
M  V30 30454 H 2828.21 1.75538 -0.846902 0
M  V30 30455 H 2827.3 3.11717 -0.154483 0
M  V30 30456 N 2827.61 0.39689 1.52521 0
M  V30 30457 C 2828.57 -0.422564 2.25271 0
M  V30 30458 C 2829.57 -0.983891 1.27186 0
M  V30 30459 O 2830.76 -0.864697 1.51224 0
M  V30 30460 C 2827.89 -1.5936 3.01359 0
M  V30 30461 H 2829.08 0.214469 2.99132 0
M  V30 30462 H 2826.64 0.149156 1.55587 0
M  V30 30463 H 2827.37 -2.26785 2.31817 0
M  V30 30464 H 2827.16 -1.19772 3.73359 0
M  V30 30465 H 2828.65 -2.17357 3.56575 0
M  V30 30466 N 2829.08 -1.57088 0.126936 0
M  V30 30467 C 2830.36 -1.87015 -0.57312 0
M  V30 30468 C 2830.74 -1.02949 -1.84295 0
M  V30 30469 O 2830.09 -0.110613 -2.28232 0
M  V30 30470 C 2830.3 -3.38291 -0.857924 0
M  V30 30471 C 2831.65 -4.07068 -1.20752 0
M  V30 30472 O 2832.67 -3.43355 -0.947932 0
M  V30 30473 O 2831.53 -5.19548 -1.69507 0
M  V30 30474 H 2828.62 -0.774461 -0.290068 0
M  V30 30475 H 2831.17 -1.68925 0.162038 0
M  V30 30476 H 2829.94 -3.91278 0.0415974 0
M  V30 30477 H 2829.56 -3.6184 -1.64796 0
M  V30 30478 N 2830.56 0.146848 -1.56914 0
M  V30 30479 C 2831.51 1.1813 -1.98277 0
M  V30 30480 C 2832.48 1.4268 -0.850392 0
M  V30 30481 O 2833.66 1.55012 -1.11247 0
M  V30 30482 C 2830.8 2.50975 -2.36866 0
M  V30 30483 C 2829.92 2.33598 -3.63395 0
M  V30 30484 C 2829.05 3.59479 -3.91086 0
M  V30 30485 C 2828.09 3.3714 -5.10885 0
M  V30 30486 N 2827.23 4.55152 -5.34585 0
M  V30 30487 H 2832.07 0.821572 -2.86451 0
M  V30 30488 H 2829.6 0.394223 -1.41719 0
M  V30 30489 H 2831.56 3.28435 -2.57267 0
M  V30 30490 H 2830.19 2.84895 -1.51771 0
M  V30 30491 H 2829.24 1.47193 -3.50768 0
M  V30 30492 H 2830.56 2.13051 -4.51011 0
M  V30 30493 H 2829.71 4.45367 -4.11987 0
M  V30 30494 H 2828.45 3.83031 -3.01892 0
M  V30 30495 H 2827.45 2.4964 -4.89857 0
M  V30 30496 H 2828.68 3.14987 -6.01631 0
M  V30 30497 H 2826.63 4.78876 -4.48346 0
M  V30 30498 H 2826.54 4.37608 -6.1647 0
M  V30 30499 H 2827.81 5.42253 -5.59984 0
M  V30 30500 N 2832.04 1.52005 0.4162 0
M  V30 30501 C 2832.97 1.7106 1.52549 0
M  V30 30502 C 2833.98 0.591046 1.51692 0
M  V30 30503 O 2835.17 0.866001 1.56085 0
M  V30 30504 C 2832.27 1.72942 2.91452 0
M  V30 30505 C 2831.45 3.01822 3.16579 0
M  V30 30506 C 2830.51 2.9561 4.35317 0
M  V30 30507 O 2829.53 3.69528 4.32941 0
M  V30 30508 N 2830.73 2.12913 5.40045 0
M  V30 30509 H 2833.5 2.6676 1.36599 0
M  V30 30510 H 2831.06 1.50154 0.605413 0
M  V30 30511 H 2833.05 1.66328 3.68941 0
M  V30 30512 H 2831.62 0.847471 3.00893 0
M  V30 30513 H 2830.84 3.22141 2.27198 0
M  V30 30514 H 2832.13 3.87093 3.30206 0
M  V30 30515 H 2831.53 1.52274 5.4482 0
M  V30 30516 H 2830.08 2.1216 6.16304 0
M  V30 30517 N 2833.52 -0.672992 1.42508 0
M  V30 30518 C 2834.45 -1.79852 1.42078 0
M  V30 30519 C 2835.46 -1.59632 0.319597 0
M  V30 30520 O 2836.65 -1.68718 0.582799 0
M  V30 30521 C 2833.75 -3.16984 1.19892 0
M  V30 30522 C 2832.92 -3.64037 2.42478 0
M  V30 30523 C 2831.98 -4.79909 2.1581 0
M  V30 30524 O 2831.01 -4.90361 2.89024 0
M  V30 30525 N 2832.21 -5.68744 1.16235 0
M  V30 30526 H 2834.98 -1.80706 2.39093 0
M  V30 30527 H 2832.54 -0.856147 1.37411 0
M  V30 30528 H 2834.53 -3.92159 0.99966 0
M  V30 30529 H 2833.1 -3.1102 0.313933 0
M  V30 30530 H 2832.32 -2.79521 2.77959 0
M  V30 30531 H 2833.61 -3.92217 3.24104 0
M  V30 30532 H 2833.01 -5.62953 0.556855 0
M  V30 30533 H 2831.56 -6.43723 1.02296 0
M  V30 30534 N 2835 -1.2871 -0.909472 0
M  V30 30535 C 2835.93 -1.07327 -2.01386 0
M  V30 30536 C 2836.91 0.0119471 -1.62596 0
M  V30 30537 O 2838.09 -0.136829 -1.88003 0
M  V30 30538 C 2835.22 -0.631855 -3.32754 0
M  V30 30539 C 2834.26 -1.71434 -3.90528 0
M  V30 30540 S 2835.1 -3.31131 -4.20847 0
M  V30 30541 C 2836.25 -2.88835 -5.55271 0
M  V30 30542 H 2836.49 -2.00828 -2.19215 0
M  V30 30543 H 2834.02 -1.12747 -1.05487 0
M  V30 30544 H 2835.98 -0.383881 -4.08701 0
M  V30 30545 H 2834.64 0.283396 -3.12819 0
M  V30 30546 H 2833.83 -1.35721 -4.85382 0
M  V30 30547 H 2833.43 -1.91533 -3.21234 0
M  V30 30548 H 2835.72 -2.35272 -6.35337 0
M  V30 30549 H 2836.67 -3.82502 -5.95901 0
M  V30 30550 H 2837.08 -2.27421 -5.16662 0
M  V30 30551 N 2836.47 1.1185 -1.11028 0
M  V30 30552 C 2837.75 1.79876 -0.768379 0
M  V30 30553 C 2838.13 1.97546 0.744226 0
M  V30 30554 O 2837.48 1.55672 1.67268 0
M  V30 30555 C 2837.69 3.13844 -1.52654 0
M  V30 30556 C 2839.04 3.8895 -1.70304 0
M  V30 30557 O 2840.06 3.23519 -1.49042 0
M  V30 30558 O 2838.92 5.0635 -2.05602 0
M  V30 30559 H 2836.01 0.778908 -0.277905 0
M  V30 30560 H 2838.56 1.18631 -1.21346 0
M  V30 30561 H 2837.33 2.96311 -2.55569 0
M  V30 30562 H 2836.95 3.82799 -1.07473 0
M  V30 30563 N 2837.95 0.89995 1.29378 0
M  V30 30564 C 2838.91 0.382716 2.25982 0
M  V30 30565 C 2839.91 -0.483232 1.53367 0
M  V30 30566 O 2841.1 -0.288249 1.71799 0
M  V30 30567 C 2838.24 -0.452855 3.37879 0
M  V30 30568 H 2839.43 1.23591 2.7325 0
M  V30 30569 H 2836.98 0.678113 1.40824 0
M  V30 30570 H 2837.72 -1.32602 2.95951 0
M  V30 30571 H 2837.5 0.167631 3.91742 0
M  V30 30572 H 2838.99 -0.806035 4.09747 0
M  V30 30573 N 2839.43 -1.43001 0.662458 0
M  V30 30574 C 2840.34 -2.34588 -0.0238786 0
M  V30 30575 C 2841.36 -1.54403 -0.802228 0
M  V30 30576 O 2842.53 -1.8702 -0.747368 0
M  V30 30577 C 2839.6 -3.32795 -0.97204 0
M  V30 30578 C 2838.66 -4.28881 -0.189597 0
M  V30 30579 C 2837.89 -5.22396 -1.0926 0
M  V30 30580 O 2838.11 -5.20551 -2.332 0
M  V30 30581 O 2837.05 -5.99289 -0.560031 0
M  V30 30582 H 2840.87 -2.9479 0.730223 0
M  V30 30583 H 2838.46 -1.43297 0.42266 0
M  V30 30584 H 2840.34 -3.9316 -1.51669 0
M  V30 30585 H 2839.02 -2.75082 -1.70621 0
M  V30 30586 H 2837.92 -3.71968 0.398859 0
M  V30 30587 H 2839.26 -4.896 0.505196 0
M  V30 30588 N 2840.91 -0.404973 -1.52308 0
M  V30 30589 C 2841.84 0.41372 -2.29806 0
M  V30 30590 C 2842.82 1.04978 -1.33842 0
M  V30 30591 O 2844 1.05958 -1.62747 0
M  V30 30592 C 2841.13 1.53287 -3.11641 0
M  V30 30593 C 2840.09 1.02203 -4.15618 0
M  V30 30594 C 2839.41 2.23446 -4.85774 0
M  V30 30595 C 2840.71 0.0789807 -5.2224 0
M  V30 30596 H 2842.41 -0.23293 -2.98493 0
M  V30 30597 H 2839.95 -0.113466 -1.43552 0
M  V30 30598 H 2841.91 2.11256 -3.64622 0
M  V30 30599 H 2840.63 2.20734 -2.40716 0
M  V30 30600 H 2839.29 0.464776 -3.63642 0
M  V30 30601 H 2838.94 2.89438 -4.11381 0
M  V30 30602 H 2838.64 1.8992 -5.56061 0
M  V30 30603 H 2840.16 2.82029 -5.41565 0
M  V30 30604 H 2841.58 0.567338 -5.70486 0
M  V30 30605 H 2839.97 -0.167272 -5.99867 0
M  V30 30606 H 2841.04 -0.867531 -4.77076 0
M  V30 30607 N 2842.39 1.57018 -0.135265 0
M  V30 30608 C 2843.8 1.58059 0.221235 0
M  V30 30609 C 2844 1.14892 1.65536 0
M  V30 30610 O 2843.06 0.843793 2.37984 0
M  V30 30611 C 2844.37 3.00688 -0.0268643 0
M  V30 30612 C 2845.92 3.12977 0.0377656 0
M  V30 30613 C 2846.39 4.57635 -0.182849 0
M  V30 30614 N 2847.89 4.63019 -0.129374 0
M  V30 30615 C 2848.62 5.72741 -0.274749 0
M  V30 30616 N 2848.12 6.91155 -0.477197 0
M  V30 30617 N 2849.91 5.61696 -0.213176 0
M  V30 30618 H 2842.06 1.83375 -1.0718 0
M  V30 30619 H 2844.32 0.848219 -0.423353 0
M  V30 30620 H 2844.03 3.36616 -1.01894 0
M  V30 30621 H 2843.9 3.70689 0.697798 0
M  V30 30622 H 2846.29 2.76897 1.02039 0
M  V30 30623 H 2846.37 2.45486 -0.719039 0
M  V30 30624 H 2846.02 4.94417 -1.16252 0
M  V30 30625 H 2845.95 5.23238 0.594138 0
M  V30 30626 H 2848.44 3.77893 0.0229231 0
M  V30 30627 H 2848.75 7.70631 -0.578548 0
M  V30 30628 H 2847.09 6.93101 -0.513374 0
M  V30 30629 H 2850.29 4.68067 -0.0558619 0
M  V30 30630 H 2850.46 6.4716 -0.32991 0
M  V30 30631 N 2843.86 -0.138524 1.5699 0
M  V30 30632 C 2844.81 -1.17077 1.98901 0
M  V30 30633 C 2845.78 -1.42227 0.857947 0
M  V30 30634 O 2846.97 -1.5442 1.12067 0
M  V30 30635 C 2844.11 -2.49716 2.38193 0
M  V30 30636 C 2843.22 -2.31668 3.64629 0
M  V30 30637 C 2842.35 -3.574 3.92987 0
M  V30 30638 C 2841.39 -3.34426 5.12665 0
M  V30 30639 N 2840.53 -4.5231 5.36991 0
M  V30 30640 H 2845.37 -0.806369 2.86883 0
M  V30 30641 H 2842.91 -0.386702 1.41926 0
M  V30 30642 H 2844.87 -3.27066 2.59006 0
M  V30 30643 H 2843.5 -2.84087 1.5328 0
M  V30 30644 H 2842.55 -1.4533 3.51544 0
M  V30 30645 H 2843.86 -2.10656 4.52134 0
M  V30 30646 H 2843.01 -4.43176 4.14343 0
M  V30 30647 H 2841.75 -3.81424 3.03919 0
M  V30 30648 H 2840.76 -2.47039 4.91174 0
M  V30 30649 H 2841.98 -3.11792 6.03293 0
M  V30 30650 H 2839.93 -4.76492 4.50879 0
M  V30 30651 H 2839.85 -4.34332 6.18782 0
M  V30 30652 H 2841.11 -5.39275 5.62852 0
M  V30 30653 N 2845.34 -1.52224 -0.408133 0
M  V30 30654 C 2846.25 -1.78529 -1.52199 0
M  V30 30655 C 2847.27 -0.67092 -1.60545 0
M  V30 30656 O 2848.44 -0.956436 -1.77241 0
M  V30 30657 C 2845.51 -1.93133 -2.87924 0
M  V30 30658 C 2844.57 -3.17038 -2.89457 0
M  V30 30659 C 2843.8 -3.30936 -4.18709 0
M  V30 30660 O 2844.03 -2.50076 -5.12658 0
M  V30 30661 O 2842.96 -4.24092 -4.27118 0
M  V30 30662 H 2846.79 -2.73074 -1.32906 0
M  V30 30663 H 2844.37 -1.3708 -0.594088 0
M  V30 30664 H 2846.25 -2.04556 -3.68422 0
M  V30 30665 H 2844.93 -1.01777 -3.07283 0
M  V30 30666 H 2843.84 -3.11073 -2.07809 0
M  V30 30667 H 2845.17 -4.08178 -2.75048 0
M  V30 30668 N 2846.82 0.665425 -1.42863 0
M  V30 30669 C 2847.75 1.79024 -1.41512 0
M  V30 30670 C 2848.73 1.60204 -0.278134 0
M  V30 30671 O 2849.92 1.82551 -0.469825 0
M  V30 30672 C 2847.04 3.16158 -1.21499 0
M  V30 30673 C 2846.09 3.53707 -2.38314 0
M  V30 30674 S 2846.92 3.55068 -4.00858 0
M  V30 30675 C 2848.08 4.94878 -3.83205 0
M  V30 30676 H 2848.31 1.79898 -2.36694 0
M  V30 30677 H 2845.84 0.836954 -1.29748 0
M  V30 30678 H 2847.8 3.95309 -1.1064 0
M  V30 30679 H 2846.46 3.1286 -0.278865 0
M  V30 30680 H 2845.66 4.53408 -2.20084 0
M  V30 30681 H 2845.26 2.81939 -2.45737 0
M  V30 30682 H 2847.55 5.83212 -3.44776 0
M  V30 30683 H 2848.49 5.18157 -4.82616 0
M  V30 30684 H 2848.9 4.67838 -3.15892 0
M  V30 30685 N 2848.3 1.29191 0.902633 0
M  V30 30686 C 2849.23 1.08393 2.00814 0
M  V30 30687 C 2850.21 -0.00332408 1.626 0
M  V30 30688 O 2851.39 0.146798 1.87928 0
M  V30 30689 C 2848.52 0.649493 3.32414 0
M  V30 30690 C 2847.57 1.73503 3.89614 0
M  V30 30691 S 2848.4 3.33358 4.19085 0
M  V30 30692 C 2849.56 2.91775 5.53731 0
M  V30 30693 H 2849.79 2.01988 2.18147 0
M  V30 30694 H 2847.32 1.13305 1.04888 0
M  V30 30695 H 2849.28 0.40555 4.08492 0
M  V30 30696 H 2847.94 -0.266802 3.12965 0
M  V30 30697 H 2847.13 1.38293 4.84656 0
M  V30 30698 H 2846.74 1.93234 3.20213 0
M  V30 30699 H 2849.03 2.38638 6.34081 0
M  V30 30700 H 2849.97 3.85657 5.93864 0
M  V30 30701 H 2850.38 2.30158 5.15449 0
M  V30 30702 N 2849.78 -1.1126 1.1162 0
M  V30 30703 C 2850.74 -2.15538 0.779485 0
M  V30 30704 C 2851.74 -1.59525 -0.202053 0
M  V30 30705 O 2852.93 -1.74185 0.0226663 0
M  V30 30706 C 2850.06 -3.40539 0.1568 0
M  V30 30707 H 2851.25 -2.46837 1.70328 0
M  V30 30708 H 2848.81 -1.26478 0.918321 0
M  V30 30709 H 2849.54 -3.14851 -0.77713 0
M  V30 30710 H 2849.33 -3.82476 0.863375 0
M  V30 30711 H 2850.82 -4.17553 -0.0625876 0
M  V30 30712 N 2851.25 -0.906798 -1.28899 0
M  V30 30713 C 2852.5 -0.532296 -1.94549 0
M  V30 30714 C 2852.82 0.927323 -1.72221 0
M  V30 30715 O 2854.02 1.40967 -2.32036 0
M  V30 30716 C 2852.48 -0.901102 -3.48437 0
M  V30 30717 C 2852.09 -2.37997 -3.79554 0
M  V30 30718 C 2853.83 -0.596851 -4.20283 0
M  V30 30719 C 2851.74 -2.68927 -5.26718 0
M  V30 30720 H 2850.67 -0.195345 -0.728256 0
M  V30 30721 H 2853.32 -1.10477 -1.46517 0
M  V30 30722 H 2851.7 -0.257489 -3.95162 0
M  V30 30723 H 2852.87 -3.06973 -3.43663 0
M  V30 30724 H 2851.19 -2.65397 -3.20863 0
M  V30 30725 H 2853.79 -0.804693 -5.2861 0
M  V30 30726 H 2854.13 0.464999 -4.13695 0
M  V30 30727 H 2854.66 -1.19862 -3.79312 0
M  V30 30728 H 2851.4 -3.73938 -5.38378 0
M  V30 30729 H 2850.92 -2.04581 -5.63832 0
M  V30 30730 H 2852.6 -2.55565 -5.94387 0
M  V30 30731 N 2852.73 1.42648 -0.670032 0
M  V30 30732 C 2853.98 2.02422 -0.199265 0
M  V30 30733 C 2854.33 1.52009 1.17945 0
M  V30 30734 O 2853.63 0.710543 1.77938 0
M  V30 30735 C 2853.82 3.57003 -0.168361 0
M  V30 30736 C 2853.65 4.22417 -1.54254 0
M  V30 30737 C 2852.42 4.57788 -2.13912 0
M  V30 30738 C 2854.62 4.5032 -2.48428 0
M  V30 30739 N 2852.6 5.08357 -3.4416 0
M  V30 30740 C 2853.97 5.02389 -3.63326 0
M  V30 30741 C 2856.03 4.32304 -2.47018 0
M  V30 30742 C 2854.73 5.38336 -4.7706 0
M  V30 30743 C 2856.75 4.69324 -3.59846 0
M  V30 30744 C 2856.12 5.21541 -4.73471 0
M  V30 30745 H 2852.22 0.773087 -0.11773 0
M  V30 30746 H 2854.8 1.73577 -0.881986 0
M  V30 30747 H 2852.97 3.85376 0.483756 0
M  V30 30748 H 2854.7 4.03473 0.314843 0
M  V30 30749 H 2851.46 4.43387 -1.66449 0
M  V30 30750 H 2851.88 5.38077 -4.10855 0
M  V30 30751 H 2856.52 3.91192 -1.60401 0
M  V30 30752 H 2854.24 5.78383 -5.64357 0
M  V30 30753 H 2857.83 4.57064 -3.59977 0
M  V30 30754 H 2856.71 5.49653 -5.59331 0
M  V30 30755 N 2854.21 0.413044 1.52091 0
M  V30 30756 C 2855.62 -0.0556639 1.86617 0
M  V30 30757 C 2855.97 -1.44094 1.33159 0
M  V30 30758 O 2855.1 -2.05687 0.672453 0
M  V30 30759 C 2855.69 -0.107785 3.38629 0
M  V30 30760 C 2854.25 -0.520838 3.72779 0
M  V30 30761 C 2853.4 0.302158 2.75649 0
M  V30 30762 H 2856.35 0.629944 1.45662 0
M  V30 30763 H 2856.37 -0.922259 3.69154 0
M  V30 30764 H 2855.88 0.900572 3.77507 0
M  V30 30765 H 2853.98 -1.53569 3.39481 0
M  V30 30766 H 2854.1 -0.262506 4.7838 0
M  V30 30767 H 2852.46 -0.236071 2.53604 0
M  V30 30768 H 2853.24 1.30894 3.17367 0
M  V30 30769 N 2855.69 -1.56945 0.143591 0
M  V30 30770 C 2856.64 -2.17872 -0.814517 0
M  V30 30771 C 2857.63 -1.13476 -1.25776 0
M  V30 30772 O 2858.84 -1.31733 -1.22664 0
M  V30 30773 H 2855.21 -0.697583 -0.28086 0
M  V30 30774 H 2857.18 -2.97117 -0.276407 0
M  V30 30775 C 2855.93 -2.81204 -2.04498 0
M  V30 30776 H 2855.26 -3.61248 -1.71289 0
M  V30 30777 H 2856.7 -3.27342 -2.69487 0
M  V30 30778 C 2855.15 -1.79537 -2.85076 0
M  V30 30779 O 2855.68 -1.26374 -3.81304 0
M  V30 30780 N 2853.89 -1.48918 -2.49543 0
M  V30 30781 H 2853.44 -1.92341 -1.71356 0
M  V30 30782 H 2853.4 -0.811401 -3.03749 0
M  V30 30783 N 2857.17 0.130197 -1.57061 0
M  V30 30784 C 2858.1 1.16165 -2.02554 0
M  V30 30785 C 2859.08 1.43838 -0.907997 0
M  V30 30786 O 2860.26 1.54471 -1.17696 0
M  V30 30787 C 2857.39 2.49067 -2.42039 0
M  V30 30788 C 2856.35 2.3588 -3.57134 0
M  V30 30789 C 2855.67 3.73644 -3.82485 0
M  V30 30790 C 2856.97 1.82871 -4.8924 0
M  V30 30791 H 2858.67 0.783308 -2.88972 0
M  V30 30792 H 2856.21 0.375351 -1.39022 0
M  V30 30793 H 2858.17 3.21464 -2.72468 0
M  V30 30794 H 2856.89 2.88769 -1.52578 0
M  V30 30795 H 2855.55 1.65932 -3.26898 0
M  V30 30796 H 2855.2 4.10811 -2.90247 0
M  V30 30797 H 2854.9 3.65677 -4.5995 0
M  V30 30798 H 2856.42 4.47563 -4.15355 0
M  V30 30799 H 2857.84 2.45076 -5.18277 0
M  V30 30800 H 2856.23 1.85753 -5.70627 0
M  V30 30801 H 2857.3 0.785487 -4.78496 0
M  V30 30802 N 2858.65 1.52438 0.400055 0
M  V30 30803 C 2859.87 1.71098 1.17218 0
M  V30 30804 C 2860.3 0.423597 1.83268 0
M  V30 30805 O 2859.65 -0.619721 1.70379 0
M  V30 30806 C 2859.7 2.8539 2.2042 0
M  V30 30807 O 2858.81 2.51592 3.26765 0
M  V30 30808 H 2858.15 0.569297 0.341756 0
M  V30 30809 H 2860.68 1.99182 0.467737 0
M  V30 30810 H 2860.69 3.10566 2.646 0
M  V30 30811 H 2859.36 3.78789 1.7173 0
M  V30 30812 H 2857.94 2.37119 2.878 0
M  V30 30813 N 2860.12 -0.657839 1.43214 0
M  V30 30814 C 2861.06 -1.78335 1.43977 0
M  V30 30815 C 2862.07 -1.59284 0.33651 0
M  V30 30816 O 2863.26 -1.6809 0.600661 0
M  V30 30817 C 2860.36 -3.15695 1.23247 0
M  V30 30818 C 2859.53 -3.61445 2.46325 0
M  V30 30819 C 2858.59 -4.77593 2.20888 0
M  V30 30820 O 2857.62 -4.87268 2.94208 0
M  V30 30821 N 2858.82 -5.67479 1.22261 0
M  V30 30822 H 2861.58 -1.7816 2.40996 0
M  V30 30823 H 2859.14 -0.841524 1.38311 0
M  V30 30824 H 2861.14 -3.91077 1.0412 0
M  V30 30825 H 2859.71 -3.10669 0.346903 0
M  V30 30826 H 2858.93 -2.76558 2.80908 0
M  V30 30827 H 2860.21 -3.88757 3.28246 0
M  V30 30828 H 2859.61 -5.6233 0.616532 0
M  V30 30829 H 2858.17 -6.42601 1.09118 0
M  V30 30830 N 2861.6 -1.29668 -0.895769 0
M  V30 30831 C 2862.55 -1.15132 -2.00033 0
M  V30 30832 C 2863.52 -0.0436111 -1.66043 0
M  V30 30833 O 2864.7 -0.211844 -1.8962 0
M  V30 30834 C 2861.84 -0.837929 -3.34773 0
M  V30 30835 C 2860.96 -2.02646 -3.81521 0
M  V30 30836 C 2860.09 -1.6521 -5.04855 0
M  V30 30837 C 2859.13 -2.80622 -5.43983 0
M  V30 30838 N 2858.27 -2.43555 -6.58502 0
M  V30 30839 H 2863.11 -2.09632 -2.11798 0
M  V30 30840 H 2860.64 -1.04313 -1.03717 0
M  V30 30841 H 2862.6 -0.636896 -4.1231 0
M  V30 30842 H 2861.23 0.0701746 -3.22724 0
M  V30 30843 H 2860.28 -2.33908 -2.99985 0
M  V30 30844 H 2861.6 -2.89113 -4.06467 0
M  V30 30845 H 2860.75 -1.41419 -5.89988 0
M  V30 30846 H 2859.49 -0.758977 -4.81758 0
M  V30 30847 H 2858.49 -3.05091 -4.57383 0
M  V30 30848 H 2859.72 -3.70605 -5.6906 0
M  V30 30849 H 2857.67 -1.56735 -6.37001 0
M  V30 30850 H 2857.58 -3.23555 -6.83263 0
M  V30 30851 H 2858.85 -2.23093 -7.46893 0
M  V30 30852 N 2863.08 1.10667 -1.12208 0
M  V30 30853 C 2864.31 1.86364 -0.898668 0
M  V30 30854 C 2864.72 1.80552 0.551959 0
M  V30 30855 O 2864.08 1.19252 1.3815 0
M  V30 30856 C 2864.13 3.34859 -1.36205 0
M  V30 30857 O 2863.85 3.40568 -2.75582 0
M  V30 30858 C 2865.35 4.27438 -1.17522 0
M  V30 30859 H 2862.57 0.589078 -0.321291 0
M  V30 30860 H 2865.12 1.39915 -1.49144 0
M  V30 30861 H 2863.27 3.78783 -0.812556 0
M  V30 30862 H 2863.69 4.33091 -2.95858 0
M  V30 30863 H 2865.16 5.29839 -1.54836 0
M  V30 30864 H 2865.64 4.39048 -0.115563 0
M  V30 30865 H 2866.24 3.89316 -1.7121 0
M  V30 30866 N 2864.56 0.913621 1.28416 0
M  V30 30867 C 2865.49 0.418888 2.29712 0
M  V30 30868 C 2866.47 -0.51344 1.62166 0
M  V30 30869 O 2867.65 -0.421202 1.89577 0
M  V30 30870 C 2864.78 -0.341981 3.45612 0
M  V30 30871 C 2863.74 0.501198 4.25055 0
M  V30 30872 C 2863.06 -0.388003 5.3329 0
M  V30 30873 C 2864.36 1.75839 4.91811 0
M  V30 30874 H 2866.06 1.26543 2.71344 0
M  V30 30875 H 2863.6 0.609926 1.30445 0
M  V30 30876 H 2865.56 -0.698927 4.15563 0
M  V30 30877 H 2864.28 -1.22242 3.0286 0
M  V30 30878 H 2862.94 0.840661 3.56831 0
M  V30 30879 H 2862.59 -1.26699 4.86782 0
M  V30 30880 H 2862.29 0.172563 5.87347 0
M  V30 30881 H 2863.81 -0.740833 6.06089 0
M  V30 30882 H 2865.23 1.47036 5.54124 0
M  V30 30883 H 2863.62 2.26136 5.55862 0
M  V30 30884 H 2864.69 2.48627 4.16308 0
M  V30 30885 N 2866.04 -1.4229 0.677588 0
M  V30 30886 C 2867.31 -1.95169 0.129837 0
M  V30 30887 C 2867.69 -1.61788 -1.35602 0
M  V30 30888 O 2867.04 -0.915481 -2.09359 0
M  V30 30889 C 2867.25 -3.46678 0.401949 0
M  V30 30890 C 2868.6 -4.23393 0.319963 0
M  V30 30891 O 2869.62 -3.54613 0.335853 0
M  V30 30892 O 2868.48 -5.45859 0.264555 0
M  V30 30893 H 2865.58 -0.826988 0.00448886 0
M  V30 30894 H 2868.12 -1.52103 0.75251 0
M  V30 30895 H 2866.89 -3.6419 1.43114 0
M  V30 30896 H 2866.52 -3.96797 -0.252592 0
M  V30 30897 N 2867.51 -0.421104 -1.5187 0
M  V30 30898 C 2868.44 0.389322 -2.30231 0
M  V30 30899 C 2869.42 1.03553 -1.34948 0
M  V30 30900 O 2870.61 1.04226 -1.63861 0
M  V30 30901 C 2867.74 1.49973 -3.1325 0
M  V30 30902 C 2866.69 0.977893 -4.16679 0
M  V30 30903 C 2866.02 2.18281 -4.88116 0
M  V30 30904 C 2867.32 0.0235857 -5.22295 0
M  V30 30905 H 2869.01 -0.264576 -2.98229 0
M  V30 30906 H 2866.56 -0.128685 -1.43424 0
M  V30 30907 H 2868.51 2.07377 -3.66842 0
M  V30 30908 H 2867.24 2.18168 -2.43044 0
M  V30 30909 H 2865.9 0.426181 -3.64114 0
M  V30 30910 H 2865.54 2.85059 -4.14428 0
M  V30 30911 H 2865.24 1.84011 -5.58044 0
M  V30 30912 H 2866.77 2.76269 -5.44525 0
M  V30 30913 H 2868.18 0.506798 -5.71056 0
M  V30 30914 H 2866.58 -0.230887 -5.99656 0
M  V30 30915 H 2867.65 -0.918083 -4.76129 0
M  V30 30916 N 2868.99 1.56866 -0.151912 0
M  V30 30917 C 2869.92 2.20019 0.781904 0
M  V30 30918 C 2870.9 1.1499 1.25345 0
M  V30 30919 O 2872.09 1.4335 1.31013 0
M  V30 30920 C 2869.22 2.82567 2.01923 0
M  V30 30921 C 2868.17 3.93467 1.68427 0
M  V30 30922 C 2867.5 4.42973 2.99465 0
M  V30 30923 C 2868.8 5.14005 0.927154 0
M  V30 30924 H 2870.49 2.98307 0.255554 0
M  V30 30925 H 2868.04 1.43487 0.121477 0
M  V30 30926 H 2869.99 3.25416 2.67736 0
M  V30 30927 H 2868.72 2.01618 2.56939 0
M  V30 30928 H 2867.37 3.51244 1.04991 0
M  V30 30929 H 2867.02 3.5884 3.52481 0
M  V30 30930 H 2866.72 5.17777 2.77814 0
M  V30 30931 H 2868.25 4.88495 3.6634 0
M  V30 30932 H 2869.66 5.53667 1.48746 0
M  V30 30933 H 2868.06 5.94603 0.810408 0
M  V30 30934 H 2869.13 4.84834 -0.0802016 0
M  V30 30935 N 2870.47 -0.121866 1.57128 0
M  V30 30936 C 2871.72 -0.831386 1.84975 0
M  V30 30937 C 2872.05 -1.79662 0.737236 0
M  V30 30938 O 2871.32 -1.92792 -0.257165 0
M  V30 30939 C 2871.61 -1.58381 3.234 0
M  V30 30940 C 2871.46 -0.638367 4.45247 0
M  V30 30941 C 2872.78 -2.54064 3.5936 0
M  V30 30942 H 2869.9 -0.300791 0.672825 0
M  V30 30943 H 2872.54 -0.0957254 1.89759 0
M  V30 30944 H 2870.69 -2.21093 3.19453 0
M  V30 30945 H 2872.36 -0.0203115 4.61296 0
M  V30 30946 H 2870.61 0.0503062 4.33771 0
M  V30 30947 H 2871.28 -1.20141 5.38767 0
M  V30 30948 H 2873.75 -2.01459 3.64079 0
M  V30 30949 H 2872.63 -3.03744 4.57199 0
M  V30 30950 H 2872.89 -3.36596 2.86628 0
M  V30 30951 N 2871.95 -1.52648 -0.391965 0
M  V30 30952 C 2873.18 -1.7142 -1.15857 0
M  V30 30953 C 2873.59 -0.431248 -1.83809 0
M  V30 30954 O 2872.95 0.594055 -1.72561 0
M  V30 30955 C 2873 -2.86169 -2.20883 0
M  V30 30956 O 2872.72 -4.09498 -1.55703 0
M  V30 30957 C 2874.22 -3.16595 -3.10294 0
M  V30 30958 H 2871.44 -0.574018 -0.347484 0
M  V30 30959 H 2873.99 -1.99284 -0.458937 0
M  V30 30960 H 2872.14 -2.60775 -2.86487 0
M  V30 30961 H 2872.55 -4.73567 -2.25466 0
M  V30 30962 H 2874.03 -4.00358 -3.80023 0
M  V30 30963 H 2874.51 -2.30854 -3.73635 0
M  V30 30964 H 2875.11 -3.43818 -2.50339 0
M  V30 30965 N 2873.43 0.650235 -1.43561 0
M  V30 30966 C 2874.84 1.23148 -1.40326 0
M  V30 30967 C 2875.19 1.95898 -0.108847 0
M  V30 30968 O 2874.31 2.01402 0.791595 0
M  V30 30969 C 2874.91 2.23982 -2.54199 0
M  V30 30970 C 2873.47 2.77577 -2.5422 0
M  V30 30971 C 2872.61 1.52266 -2.31755 0
M  V30 30972 H 2875.57 0.442069 -1.52419 0
M  V30 30973 H 2875.59 3.06216 -2.25859 0
M  V30 30974 H 2875.1 1.71005 -3.48395 0
M  V30 30975 H 2873.2 3.34609 -1.63913 0
M  V30 30976 H 2873.31 3.24919 -3.52086 0
M  V30 30977 H 2871.68 1.7972 -1.80479 0
M  V30 30978 H 2872.46 1.01219 -3.28039 0
M  V30 30979 N 2874.9 1.30141 0.88888 0
M  V30 30980 C 2875.85 1.12806 1.98138 0
M  V30 30981 C 2876.84 0.044342 1.60839 0
M  V30 30982 O 2878.03 0.267239 1.74971 0
M  V30 30983 C 2875.16 0.817908 3.33414 0
M  V30 30984 C 2874.25 1.94169 3.7704 0
M  V30 30985 N 2874.64 3.18658 3.92799 0
M  V30 30986 C 2872.93 1.83717 4.06404 0
M  V30 30987 C 2873.64 3.92045 4.29739 0
M  V30 30988 N 2872.61 3.20067 4.39384 0
M  V30 30989 H 2876.41 2.07228 2.08407 0
M  V30 30990 H 2873.93 1.21423 1.07843 0
M  V30 30991 H 2875.92 0.674741 4.11404 0
M  V30 30992 H 2874.58 -0.118287 3.24484 0
M  V30 30993 H 2875.6 3.5399 3.78036 0
M  V30 30994 H 2872.27 0.974402 4.0597 0
M  V30 30995 H 2873.66 4.99231 4.49687 0
M  V30 30996 N 2876.38 -1.1007 1.12794 0
M  V30 30997 C 2877.33 -2.16519 0.799248 0
M  V30 30998 C 2878.3 -1.64419 -0.235697 0
M  V30 30999 O 2879.48 -1.90486 -0.109424 0
M  V30 31000 C 2876.62 -3.44088 0.264152 0
M  V30 31001 C 2875.74 -4.10122 1.35736 0
M  V30 31002 C 2874.87 -5.25423 0.781305 0
M  V30 31003 C 2873.91 -5.83366 1.85338 0
M  V30 31004 N 2873.05 -6.9004 1.29576 0
M  V30 31005 H 2877.89 -2.43978 1.7111 0
M  V30 31006 H 2875.43 -1.19754 0.854246 0
M  V30 31007 H 2877.38 -4.17151 -0.064169 0
M  V30 31008 H 2876.01 -3.16968 -0.610846 0
M  V30 31009 H 2875.07 -3.34989 1.80239 0
M  V30 31010 H 2876.38 -4.49226 2.16789 0
M  V30 31011 H 2875.53 -6.05354 0.403876 0
M  V30 31012 H 2874.27 -4.87663 -0.0603829 0
M  V30 31013 H 2873.28 -5.02102 2.23995 0
M  V30 31014 H 2874.5 -6.2319 2.69835 0
M  V30 31015 H 2872.45 -6.54271 0.475959 0
M  V30 31016 H 2872.36 -7.27876 2.04284 0
M  V30 31017 H 2873.63 -7.73742 0.945681 0
M  V30 31018 N 2877.86 -0.920419 -1.2793 0
M  V30 31019 C 2879.09 -0.572514 -1.99342 0
M  V30 31020 C 2879.51 0.840666 -1.68269 0
M  V30 31021 O 2878.87 1.56292 -0.918832 0
M  V30 31022 C 2878.92 -0.796346 -3.51697 0
M  V30 31023 O 2878.02 0.141529 -4.12157 0
M  V30 31024 H 2877.36 -0.221232 -0.626061 0
M  V30 31025 H 2879.89 -1.23768 -1.62919 0
M  V30 31026 H 2879.9 -0.709055 -4.01792 0
M  V30 31027 H 2878.58 -1.82651 -3.73646 0
M  V30 31028 H 2877.15 0.00494146 -3.729 0
M  V30 31029 N 2879.34 1.41929 -0.685124 0
M  V30 31030 C 2880.57 2.05723 -0.220408 0
M  V30 31031 C 2880.98 1.51518 1.1264 0
M  V30 31032 O 2880.34 0.659144 1.70181 0
M  V30 31033 C 2880.39 3.61154 -0.158038 0
M  V30 31034 O 2880.11 4.13351 -1.45163 0
M  V30 31035 C 2881.61 4.42078 0.328931 0
M  V30 31036 H 2878.83 0.662775 -0.104737 0
M  V30 31037 H 2881.38 1.81885 -0.934768 0
M  V30 31038 H 2879.53 3.84067 0.507076 0
M  V30 31039 H 2879.94 5.0731 -1.33181 0
M  V30 31040 H 2881.42 5.51063 0.321462 0
M  V30 31041 H 2881.9 4.17417 1.36601 0
M  V30 31042 H 2882.5 4.24206 -0.304811 0
M  V30 31043 N 2880.82 0.429152 1.51644 0
M  V30 31044 C 2882.09 -0.19958 1.94579 0
M  V30 31045 C 2882.47 -1.60833 1.36733 0
M  V30 31046 O 2881.82 -2.21755 0.551101 0
M  V30 31047 C 2882.03 -0.185624 3.48506 0
M  V30 31048 C 2883.38 -0.395207 4.22757 0
M  V30 31049 O 2884.4 -0.264102 3.5522 0
M  V30 31050 O 2883.26 -0.65538 5.42556 0
M  V30 31051 H 2880.36 -0.134378 0.816009 0
M  V30 31052 H 2882.9 0.486541 1.62576 0
M  V30 31053 H 2881.67 0.799575 3.83044 0
M  V30 31054 H 2881.3 -0.915002 3.86928 0
M  V30 31055 N 2882.29 -1.56783 0.160229 0
M  V30 31056 C 2883.22 -2.20431 -0.770225 0
M  V30 31057 C 2884.21 -1.15653 -1.24734 0
M  V30 31058 O 2885.39 -1.44043 -1.30251 0
M  V30 31059 C 2882.52 -2.83634 -2.00422 0
M  V30 31060 C 2881.47 -3.94355 -1.66338 0
M  V30 31061 C 2880.8 -4.44555 -2.97111 0
M  V30 31062 C 2882.1 -5.14489 -0.899882 0
M  V30 31063 H 2883.79 -2.98439 -0.239731 0
M  V30 31064 H 2881.34 -1.43549 -0.113866 0
M  V30 31065 H 2883.29 -3.26831 -2.66006 0
M  V30 31066 H 2882.02 -2.02978 -2.55866 0
M  V30 31067 H 2880.68 -3.51796 -1.03127 0
M  V30 31068 H 2880.32 -3.60704 -3.50573 0
M  V30 31069 H 2880.02 -5.19243 -2.75064 0
M  V30 31070 H 2881.55 -4.90431 -3.63744 0
M  V30 31071 H 2882.96 -5.54448 -1.45808 0
M  V30 31072 H 2881.36 -5.95024 -0.778864 0
M  V30 31073 H 2882.43 -4.84784 0.105912 0
M  V30 31074 N 2883.77 0.113531 -1.57191 0
M  V30 31075 C 2885 0.834389 -1.89329 0
M  V30 31076 C 2885.42 1.73175 -0.752049 0
M  V30 31077 O 2884.77 1.80387 0.276881 0
M  V30 31078 C 2884.82 1.66324 -3.20965 0
M  V30 31079 O 2884.55 0.801993 -4.30697 0
M  V30 31080 C 2886.05 2.48877 -3.66845 0
M  V30 31081 H 2883.27 0.239576 -0.626773 0
M  V30 31082 H 2885.81 0.0962836 -2.04273 0
M  V30 31083 H 2883.97 2.35404 -3.07675 0
M  V30 31084 H 2884.38 1.37422 -5.06177 0
M  V30 31085 H 2885.85 3.02555 -4.61697 0
M  V30 31086 H 2886.33 3.2649 -2.93771 0
M  V30 31087 H 2886.94 1.85029 -3.82942 0
M  V30 31088 N 2885.25 1.52854 0.383864 0
M  V30 31089 C 2886.5 1.68397 1.13006 0
M  V30 31090 C 2886.83 0.425229 1.89487 0
M  V30 31091 O 2886.11 -0.577104 1.85741 0
M  V30 31092 C 2886.39 2.92229 2.10414 0
M  V30 31093 C 2886.24 4.28216 1.37662 0
M  V30 31094 C 2887.56 3.11619 3.10776 0
M  V30 31095 H 2884.68 0.612795 0.409452 0
M  V30 31096 H 2887.32 1.8546 0.412863 0
M  V30 31097 H 2885.47 2.77812 2.71574 0
M  V30 31098 H 2887.14 4.54411 0.794272 0
M  V30 31099 H 2885.39 4.28462 0.678458 0
M  V30 31100 H 2886.06 5.10959 2.08865 0
M  V30 31101 H 2888.53 3.25101 2.59709 0
M  V30 31102 H 2887.41 3.99732 3.76172 0
M  V30 31103 H 2887.67 2.26067 3.79929 0
M  V30 31104 N 2886.73 -0.642612 1.43904 0
M  V30 31105 C 2887.98 -1.3996 1.45793 0
M  V30 31106 C 2888.3 -1.94804 0.0873486 0
M  V30 31107 O 2887.57 -1.75083 -0.878794 0
M  V30 31108 H 2886.15 -0.51947 0.536806 0
M  V30 31109 H 2888.81 -0.757158 1.79592 0
M  V30 31110 H 2887.91 -2.23666 2.17669 0
M  V30 31111 N 2888.21 -1.30611 -0.881966 0
M  V30 31112 C 2889.15 -1.17247 -1.98801 0
M  V30 31113 C 2890.12 -0.0612197 -1.65987 0
M  V30 31114 O 2891.31 -0.231944 -1.89385 0
M  V30 31115 C 2888.45 -0.873389 -3.33865 0
M  V30 31116 C 2887.56 -2.06682 -3.7935 0
M  V30 31117 C 2886.7 -1.70556 -5.03075 0
M  V30 31118 C 2885.74 -2.86376 -5.40976 0
M  V30 31119 N 2884.87 -2.50526 -6.55882 0
M  V30 31120 H 2889.71 -2.11867 -2.09563 0
M  V30 31121 H 2887.25 -1.05407 -1.02605 0
M  V30 31122 H 2889.21 -0.680591 -4.11611 0
M  V30 31123 H 2887.84 0.0359415 -3.2278 0
M  V30 31124 H 2886.89 -2.37076 -2.97488 0
M  V30 31125 H 2888.2 -2.93408 -4.03377 0
M  V30 31126 H 2887.36 -1.47668 -5.88455 0
M  V30 31127 H 2886.1 -0.810032 -4.80926 0
M  V30 31128 H 2885.1 -3.09925 -4.54121 0
M  V30 31129 H 2886.33 -3.76619 -5.65097 0
M  V30 31130 H 2884.27 -1.63482 -6.35303 0
M  V30 31131 H 2884.19 -3.30783 -6.79793 0
M  V30 31132 H 2885.46 -2.31002 -7.44485 0
M  V30 31133 N 2889.69 1.0947 -1.13376 0
M  V30 31134 C 2890.93 1.81009 -0.889876 0
M  V30 31135 C 2891.25 1.86627 0.585653 0
M  V30 31136 O 2892.45 2.54469 0.946452 0
M  V30 31137 C 2890.91 3.25171 -1.54246 0
M  V30 31138 C 2890.52 3.2782 -3.05349 0
M  V30 31139 C 2892.26 4.01468 -1.37926 0
M  V30 31140 C 2890.17 4.66504 -3.63495 0
M  V30 31141 H 2889.1 0.678306 -0.329268 0
M  V30 31142 H 2891.75 1.23036 -1.36141 0
M  V30 31143 H 2890.13 3.83202 -0.998592 0
M  V30 31144 H 2891.31 2.79557 -3.66312 0
M  V30 31145 H 2889.62 2.65014 -3.2118 0
M  V30 31146 H 2892.22 5.03926 -1.7878 0
M  V30 31147 H 2892.56 4.15037 -0.32406 0
M  V30 31148 H 2893.09 3.49877 -1.8929 0
M  V30 31149 H 2889.83 4.58137 -4.68819 0
M  V30 31150 H 2889.35 5.15093 -3.07309 0
M  V30 31151 H 2891.03 5.35478 -3.63143 0
M  V30 31152 N 2891.16 0.92719 1.2744 0
M  V30 31153 C 2892.39 0.58281 1.98209 0
M  V30 31154 C 2892.8 -0.843376 1.69363 0
M  V30 31155 O 2892.14 -1.57203 0.950408 0
M  V30 31156 C 2892.21 0.728227 3.52047 0
M  V30 31157 C 2891.87 2.12644 4.04514 0
M  V30 31158 C 2892.87 3.10056 4.17327 0
M  V30 31159 C 2890.55 2.44325 4.38874 0
M  V30 31160 C 2892.55 4.37257 4.63773 0
M  V30 31161 C 2890.23 3.71762 4.85012 0
M  V30 31162 C 2891.23 4.68041 4.9742 0
M  V30 31163 O 2890.92 5.93211 5.42546 0
M  V30 31164 H 2890.65 0.219679 0.63931 0
M  V30 31165 H 2893.21 1.24628 1.63269 0
M  V30 31166 H 2891.44 0.00764941 3.86699 0
M  V30 31167 H 2893.12 0.388977 4.04032 0
M  V30 31168 H 2893.89 2.86901 3.91041 0
M  V30 31169 H 2889.77 1.70128 4.28459 0
M  V30 31170 H 2893.31 5.1241 4.73373 0
M  V30 31171 H 2889.21 3.94735 5.10739 0
M  V30 31172 H 2889.98 5.96192 5.608 0
M  V30 31173 N 2892.64 -1.41564 0.692641 0
M  V30 31174 C 2893.6 -2.29174 0.0344577 0
M  V30 31175 C 2894.6 -1.4423 -0.710936 0
M  V30 31176 O 2895.79 -1.65413 -0.546264 0
M  V30 31177 C 2892.93 -3.27056 -0.961624 0
M  V30 31178 H 2894.12 -2.88872 0.805806 0
M  V30 31179 H 2891.67 -1.49501 0.455973 0
M  V30 31180 H 2892.41 -2.72332 -1.76084 0
M  V30 31181 H 2892.19 -3.89732 -0.430306 0
M  V30 31182 H 2893.68 -3.92715 -1.42003 0
M  V30 31183 N 2894.12 -0.437188 -1.51415 0
M  V30 31184 C 2895.08 0.362689 -2.26312 0
M  V30 31185 C 2896.08 0.949824 -1.2975 0
M  V30 31186 O 2897.27 0.824298 -1.53463 0
M  V30 31187 C 2894.4 1.51314 -3.05478 0
M  V30 31188 H 2895.6 -0.293703 -2.98458 0
M  V30 31189 H 2893.15 -0.190354 -1.55137 0
M  V30 31190 H 2893.89 2.20559 -2.37748 0
M  V30 31191 H 2893.67 1.09831 -3.76403 0
M  V30 31192 H 2895.16 2.07827 -3.62212 0
M  V30 31193 N 2895.6 1.56696 -0.168541 0
M  V30 31194 C 2896.53 2.13664 0.801439 0
M  V30 31195 C 2897.51 1.06596 1.22784 0
M  V30 31196 O 2898.69 1.34556 1.32011 0
M  V30 31197 C 2895.82 2.67393 2.07891 0
M  V30 31198 C 2894.87 3.86807 1.79675 0
M  V30 31199 S 2895.7 5.2667 0.968464 0
M  V30 31200 C 2896.85 5.83803 2.25666 0
M  V30 31201 H 2897.09 2.95604 0.317069 0
M  V30 31202 H 2894.62 1.54331 0.046086 0
M  V30 31203 H 2896.58 2.98997 2.81267 0
M  V30 31204 H 2895.24 1.85543 2.53441 0
M  V30 31205 H 2894.43 4.22719 2.74453 0
M  V30 31206 H 2894.03 3.56075 1.14396 0
M  V30 31207 H 2896.33 5.96548 3.2115 0
M  V30 31208 H 2897.27 6.80942 1.94226 0
M  V30 31209 H 2897.68 5.12201 2.37299 0
M  V30 31210 N 2897.08 -0.105193 1.57249 0
M  V30 31211 C 2898.01 -1.15913 1.96569 0
M  V30 31212 C 2898.99 -1.3938 0.837379 0
M  V30 31213 O 2900.17 -1.53307 1.09678 0
M  V30 31214 C 2897.3 -2.51031 2.27379 0
M  V30 31215 C 2896.34 -2.43907 3.49874 0
M  V30 31216 S 2897.18 -1.86535 5.01961 0
M  V30 31217 C 2898.33 -3.23298 5.35938 0
M  V30 31218 H 2898.57 -0.823881 2.85656 0
M  V30 31219 H 2896.1 -0.312488 1.51205 0
M  V30 31220 H 2898.06 -3.28769 2.45807 0
M  V30 31221 H 2896.72 -2.81728 1.38881 0
M  V30 31222 H 2895.91 -3.43471 3.68841 0
M  V30 31223 H 2895.51 -1.74295 3.30904 0
M  V30 31224 H 2897.8 -4.19547 5.31965 0
M  V30 31225 H 2898.75 -3.09144 6.37052 0
M  V30 31226 H 2899.16 -3.22363 4.63403 0
M  V30 31227 N 2898.55 -1.53055 -0.375752 0
M  V30 31228 C 2899.8 -1.67966 -1.11671 0
M  V30 31229 C 2900.12 -0.432689 -1.90754 0
M  V30 31230 O 2901.32 -0.462156 -2.67538 0
M  V30 31231 C 2899.78 -2.96888 -2.03435 0
M  V30 31232 C 2899.39 -4.28811 -1.29711 0
M  V30 31233 C 2901.13 -3.21165 -2.77585 0
M  V30 31234 C 2899.04 -5.4883 -2.20318 0
M  V30 31235 H 2897.97 -0.625798 -0.420586 0
M  V30 31236 H 2900.62 -1.79555 -0.378467 0
M  V30 31237 H 2899 -2.79077 -2.80949 0
M  V30 31238 H 2900.17 -4.5722 -0.573314 0
M  V30 31239 H 2898.49 -4.10898 -0.674663 0
M  V30 31240 H 2901.09 -4.08016 -3.45583 0
M  V30 31241 H 2901.43 -2.36795 -3.42394 0
M  V30 31242 H 2901.96 -3.39603 -2.07158 0
M  V30 31243 H 2898.7 -6.35647 -1.60102 0
M  V30 31244 H 2898.22 -5.24715 -2.90576 0
M  V30 31245 H 2899.9 -5.83224 -2.80105 0
M  V30 31246 N 2900.03 0.634971 -1.44242 0
M  V30 31247 C 2900.97 1.75982 -1.45278 0
M  V30 31248 C 2901.94 1.59578 -0.312053 0
M  V30 31249 O 2903.13 1.81513 -0.508441 0
M  V30 31250 C 2900.25 3.13509 -1.28178 0
M  V30 31251 C 2899.3 3.48572 -2.45764 0
M  V30 31252 S 2900.13 3.46485 -4.08299 0
M  V30 31253 C 2901.29 4.86639 -3.93616 0
M  V30 31254 H 2901.52 1.74836 -2.40457 0
M  V30 31255 H 2899.06 0.809244 -1.31494 0
M  V30 31256 H 2901.01 3.92873 -1.19 0
M  V30 31257 H 2899.67 3.12198 -0.345165 0
M  V30 31258 H 2898.87 4.48638 -2.29652 0
M  V30 31259 H 2898.47 2.76663 -2.51662 0
M  V30 31260 H 2900.76 5.75767 -3.57069 0
M  V30 31261 H 2901.7 5.07804 -4.93499 0
M  V30 31262 H 2902.11 4.61032 -3.25745 0
M  V30 31263 N 2901.51 1.31076 0.875027 0
M  V30 31264 C 2902.42 1.20248 2.01439 0
M  V30 31265 C 2903.44 0.120258 1.73584 0
M  V30 31266 O 2904.61 0.337098 1.98559 0
M  V30 31267 C 2901.68 0.905258 3.34673 0
M  V30 31268 C 2900.74 2.07386 3.75885 0
M  V30 31269 C 2899.97 1.79073 5.02761 0
M  V30 31270 O 2900.19 0.723417 5.65794 0
M  V30 31271 O 2899.13 2.64604 5.40619 0
M  V30 31272 H 2902.95 2.15984 2.13506 0
M  V30 31273 H 2900.54 1.10767 1.00255 0
M  V30 31274 H 2902.42 0.75513 4.14579 0
M  V30 31275 H 2901.1 -0.0221126 3.23692 0
M  V30 31276 H 2900 2.27937 2.96641 0
M  V30 31277 H 2901.34 2.9833 3.91484 0
M  V30 31278 N 2902.99 -1.08867 1.13955 0
M  V30 31279 C 2904.22 -1.84643 0.926857 0
M  V30 31280 C 2904.63 -1.81686 -0.527909 0
M  V30 31281 O 2903.97 -1.21546 -1.3774 0
M  V30 31282 C 2904.03 -3.33423 1.34422 0
M  V30 31283 C 2903.7 -3.60121 2.81357 0
M  V30 31284 C 2904.69 -3.55361 3.79493 0
M  V30 31285 C 2902.38 -3.88283 3.18656 0
M  V30 31286 C 2904.37 -3.78384 5.12937 0
M  V30 31287 C 2902.06 -4.1096 4.52278 0
M  V30 31288 C 2903.06 -4.06004 5.49227 0
M  V30 31289 O 2902.74 -4.2809 6.80437 0
M  V30 31290 H 2902.48 -0.589901 0.330141 0
M  V30 31291 H 2905.03 -1.38434 1.51741 0
M  V30 31292 H 2903.26 -3.80367 0.696968 0
M  V30 31293 H 2904.95 -3.90624 1.10309 0
M  V30 31294 H 2905.72 -3.33624 3.52022 0
M  V30 31295 H 2901.59 -3.91263 2.43792 0
M  V30 31296 H 2905.14 -3.74431 5.88597 0
M  V30 31297 H 2901.04 -4.32179 4.7947 0
M  V30 31298 H 2901.8 -4.45521 6.86625 0
M  V30 31299 N 2904.47 -0.933936 -1.26946 0
M  V30 31300 C 2905.7 -0.593314 -1.97897 0
M  V30 31301 C 2906.1 0.834382 -1.69808 0
M  V30 31302 O 2905.45 1.56697 -0.958732 0
M  V30 31303 C 2905.51 -0.746887 -3.51656 0
M  V30 31304 C 2905.17 -2.14786 -4.03381 0
M  V30 31305 C 2906.17 -3.12264 -4.15676 0
M  V30 31306 C 2903.86 -2.46649 -4.37573 0
M  V30 31307 C 2905.85 -4.3971 -4.61447 0
M  V30 31308 C 2903.54 -3.74329 -4.83033 0
M  V30 31309 C 2904.53 -4.70673 -4.94931 0
M  V30 31310 O 2904.22 -5.9608 -5.39392 0
M  V30 31311 H 2903.95 -0.223066 -0.638136 0
M  V30 31312 H 2906.51 -1.25493 -1.62606 0
M  V30 31313 H 2904.74 -0.0281569 -3.8669 0
M  V30 31314 H 2906.43 -0.410399 -4.0382 0
M  V30 31315 H 2907.19 -2.88971 -3.89514 0
M  V30 31316 H 2903.07 -1.72398 -4.27551 0
M  V30 31317 H 2906.62 -5.14913 -4.70648 0
M  V30 31318 H 2902.51 -3.97438 -5.08639 0
M  V30 31319 H 2903.28 -5.99158 -5.57631 0
M  V30 31320 N 2905.94 1.41194 -0.700139 0
M  V30 31321 C 2907.36 1.55201 -0.372142 0
M  V30 31322 C 2907.56 1.67472 1.1205 0
M  V30 31323 O 2906.62 1.65569 1.90639 0
M  V30 31324 C 2907.93 2.78876 -1.12467 0
M  V30 31325 C 2909.48 2.92677 -1.10946 0
M  V30 31326 C 2909.95 4.19245 -1.84383 0
M  V30 31327 N 2911.44 4.26213 -1.81375 0
M  V30 31328 C 2912.18 5.23017 -2.35033 0
M  V30 31329 N 2911.67 6.25824 -2.97181 0
M  V30 31330 N 2913.47 5.14988 -2.25263 0
M  V30 31331 H 2905.62 1.31474 -1.66818 0
M  V30 31332 H 2907.88 0.634632 -0.704235 0
M  V30 31333 H 2907.59 2.76033 -2.17942 0
M  V30 31334 H 2907.46 3.7053 -0.706217 0
M  V30 31335 H 2909.85 2.95033 -0.0629628 0
M  V30 31336 H 2909.93 2.02184 -1.56701 0
M  V30 31337 H 2909.57 4.17651 -2.89015 0
M  V30 31338 H 2909.5 5.08719 -1.36059 0
M  V30 31339 H 2911.99 3.52553 -1.36069 0
M  V30 31340 H 2912.31 6.96088 -3.3568 0
M  V30 31341 H 2910.65 6.26312 -3.0126 0
M  V30 31342 H 2913.84 4.33599 -1.76379 0
M  V30 31343 H 2914.02 5.90263 -2.67383 0
M  V30 31344 N 2907.42 0.445212 1.51181 0
M  V30 31345 C 2908.35 -0.398166 2.25715 0
M  V30 31346 C 2909.37 -0.979539 1.30034 0
M  V30 31347 O 2910.56 -0.87234 1.55732 0
M  V30 31348 C 2907.66 -1.5698 3.00351 0
M  V30 31349 C 2906.83 -1.10589 4.23189 0
M  V30 31350 C 2905.89 -2.14855 4.80337 0
M  V30 31351 O 2904.91 -1.73968 5.41963 0
M  V30 31352 N 2906.12 -3.47419 4.65059 0
M  V30 31353 H 2908.88 0.240682 2.98732 0
M  V30 31354 H 2906.44 0.274535 1.59555 0
M  V30 31355 H 2908.43 -2.2637 3.35468 0
M  V30 31356 H 2907 -2.11383 2.30295 0
M  V30 31357 H 2906.22 -0.238762 3.93476 0
M  V30 31358 H 2907.51 -0.773449 5.02887 0
M  V30 31359 H 2906.91 -3.83365 4.1599 0
M  V30 31360 H 2905.47 -4.12682 5.04516 0
M  V30 31361 N 2908.9 -1.56605 0.176849 0
M  V30 31362 C 2910.13 -2.01865 -0.475954 0
M  V30 31363 C 2910.55 -1.05626 -1.55643 0
M  V30 31364 O 2909.91 -0.0367048 -1.81263 0
M  V30 31365 C 2909.96 -3.45692 -1.02613 0
M  V30 31366 O 2909.06 -3.52537 -2.13989 0
M  V30 31367 H 2908.4 -0.654253 -0.113351 0
M  V30 31368 H 2910.93 -2.02642 0.282365 0
M  V30 31369 H 2910.94 -3.85111 -1.34735 0
M  V30 31370 H 2909.62 -4.15235 -0.235065 0
M  V30 31371 H 2908.19 -3.24981 -1.8287 0
M  V30 31372 N 2910.38 0.0968524 -1.57302 0
M  V30 31373 C 2911.33 1.11762 -2.01935 0
M  V30 31374 C 2912.3 1.39902 -0.895354 0
M  V30 31375 O 2913.48 1.51395 -1.16122 0
M  V30 31376 C 2910.62 2.43313 -2.4473 0
M  V30 31377 C 2909.73 2.21919 -3.70643 0
M  V30 31378 C 2908.87 3.46855 -4.02324 0
M  V30 31379 C 2907.91 3.20716 -5.21352 0
M  V30 31380 N 2907.04 4.37914 -5.48795 0
M  V30 31381 H 2911.88 0.730024 -2.8892 0
M  V30 31382 H 2909.42 0.348937 -1.42902 0
M  V30 31383 H 2911.38 3.20084 -2.67586 0
M  V30 31384 H 2910.01 2.79923 -1.60758 0
M  V30 31385 H 2909.06 1.35959 -3.55274 0
M  V30 31386 H 2910.37 1.98595 -4.57561 0
M  V30 31387 H 2909.53 4.32035 -4.25947 0
M  V30 31388 H 2908.27 3.73232 -3.13925 0
M  V30 31389 H 2907.27 2.33929 -4.97551 0
M  V30 31390 H 2908.5 2.95687 -6.11348 0
M  V30 31391 H 2906.44 4.6437 -4.63354 0
M  V30 31392 H 2906.36 4.17774 -6.3008 0
M  V30 31393 H 2907.63 5.24163 -5.76952 0
M  V30 31394 N 2911.86 1.53252 0.36763 0
M  V30 31395 C 2912.82 1.78875 1.43305 0
M  V30 31396 C 2913.82 0.659141 1.4667 0
M  V30 31397 O 2915.01 0.927332 1.47466 0
M  V30 31398 C 2912.14 1.90897 2.82438 0
M  V30 31399 H 2913.33 2.74026 1.21859 0
M  V30 31400 H 2910.89 1.44298 0.600643 0
M  V30 31401 H 2911.62 0.978055 3.092 0
M  V30 31402 H 2911.41 2.73056 2.81395 0
M  V30 31403 H 2912.9 2.1232 3.59597 0
M  V30 31404 N 2913.34 -0.627313 1.44577 0
M  V30 31405 C 2914.28 -1.73909 1.51737 0
M  V30 31406 C 2915.25 -1.62045 0.364774 0
M  V30 31407 O 2916.44 -1.81913 0.575535 0
M  V30 31408 C 2913.58 -3.12169 1.47121 0
M  V30 31409 C 2912.69 -3.34982 2.72784 0
M  V30 31410 C 2911.83 -4.63234 2.59976 0
M  V30 31411 C 2910.86 -4.79239 3.80784 0
M  V30 31412 N 2910 -5.98772 3.66629 0
M  V30 31413 H 2914.84 -1.67126 2.46725 0
M  V30 31414 H 2912.38 -0.815203 1.22445 0
M  V30 31415 H 2914.34 -3.92132 1.42436 0
M  V30 31416 H 2912.97 -3.17958 0.556984 0
M  V30 31417 H 2912.02 -2.48931 2.87641 0
M  V30 31418 H 2913.33 -3.42686 3.62447 0
M  V30 31419 H 2912.48 -5.51364 2.53145 0
M  V30 31420 H 2911.22 -4.57895 1.6788 0
M  V30 31421 H 2910.23 -3.89537 3.87996 0
M  V30 31422 H 2911.45 -4.8639 4.73922 0
M  V30 31423 H 2909.4 -5.94515 2.77287 0
M  V30 31424 H 2909.32 -6.07549 4.49911 0
M  V30 31425 H 2910.58 -6.89453 3.63696 0
M  V30 31426 N 2914.81 -1.31539 -0.868063 0
M  V30 31427 C 2915.76 -1.19349 -1.97546 0
M  V30 31428 C 2916.73 -0.0788214 -1.65913 0
M  V30 31429 O 2917.92 -0.252018 -1.89128 0
M  V30 31430 C 2915.06 -0.90875 -3.3292 0
M  V30 31431 C 2914.17 -2.10693 -3.77137 0
M  V30 31432 C 2913.3 -1.75882 -5.01238 0
M  V30 31433 C 2912.34 -2.92097 -5.37908 0
M  V30 31434 N 2911.48 -2.57468 -6.53188 0
M  V30 31435 H 2916.32 -2.14077 -2.07304 0
M  V30 31436 H 2913.86 -1.06489 -1.01481 0
M  V30 31437 H 2915.81 -0.72421 -4.10866 0
M  V30 31438 H 2914.44 0.00170436 -3.228 0
M  V30 31439 H 2913.5 -2.40218 -2.94956 0
M  V30 31440 H 2914.81 -2.9767 -4.00243 0
M  V30 31441 H 2913.96 -1.53901 -5.86855 0
M  V30 31442 H 2912.7 -0.860995 -4.8004 0
M  V30 31443 H 2911.71 -3.14725 -4.50809 0
M  V30 31444 H 2912.93 -3.82592 -5.61071 0
M  V30 31445 H 2910.88 -1.70211 -6.33533 0
M  V30 31446 H 2910.79 -3.37975 -6.76246 0
M  V30 31447 H 2912.06 -2.38886 -7.41993 0
M  V30 31448 N 2916.29 1.08262 -1.1453 0
M  V30 31449 C 2917.22 2.17228 -0.856394 0
M  V30 31450 C 2918.2 1.69044 0.189221 0
M  V30 31451 O 2919.39 1.94147 0.0455778 0
M  V30 31452 C 2916.52 3.45683 -0.334723 0
M  V30 31453 C 2915.47 4.07267 -1.31595 0
M  V30 31454 C 2914.8 5.30691 -0.653521 0
M  V30 31455 C 2916.1 4.48376 -2.67874 0
M  V30 31456 H 2917.79 2.41654 -1.76759 0
M  V30 31457 H 2915.34 1.16141 -0.851308 0
M  V30 31458 H 2917.29 4.21229 -0.120202 0
M  V30 31459 H 2916.01 3.20816 0.611911 0
M  V30 31460 H 2914.67 3.33755 -1.51667 0
M  V30 31461 H 2914.32 5.02111 0.298966 0
M  V30 31462 H 2914.02 5.72851 -1.30827 0
M  V30 31463 H 2915.55 6.0895 -0.44856 0
M  V30 31464 H 2916.96 5.15092 -2.51701 0
M  V30 31465 H 2915.36 5.01458 -3.29636 0
M  V30 31466 H 2916.43 3.60192 -3.24638 0
M  V30 31467 N 2917.77 0.940655 1.26449 0
M  V30 31468 C 2918.7 0.407144 2.25555 0
M  V30 31469 C 2919.71 -0.469297 1.55889 0
M  V30 31470 O 2920.9 -0.279827 1.76293 0
M  V30 31471 C 2918 -0.434004 3.3611 0
M  V30 31472 C 2917.18 0.426158 4.35319 0
M  V30 31473 C 2916.24 -0.354471 5.25005 0
M  V30 31474 O 2915.26 0.242319 5.68684 0
M  V30 31475 N 2916.46 -1.65114 5.56523 0
M  V30 31476 H 2919.23 1.25912 2.71967 0
M  V30 31477 H 2916.79 0.80948 1.40211 0
M  V30 31478 H 2918.78 -0.963615 3.9306 0
M  V30 31479 H 2917.35 -1.18678 2.89196 0
M  V30 31480 H 2916.57 1.13698 3.77447 0
M  V30 31481 H 2917.86 1.01374 4.98599 0
M  V30 31482 H 2917.26 -2.15813 5.22916 0
M  V30 31483 H 2915.81 -2.127 6.16118 0
M  V30 31484 N 2919.25 -1.40821 0.707617 0
M  V30 31485 C 2920.21 -2.29125 0.0587627 0
M  V30 31486 C 2921.21 -1.44976 -0.695598 0
M  V30 31487 O 2922.4 -1.65983 -0.528689 0
M  V30 31488 C 2919.53 -3.28057 -0.926881 0
M  V30 31489 H 2920.73 -2.88001 0.8364 0
M  V30 31490 H 2918.28 -1.49009 0.471804 0
M  V30 31491 H 2919.01 -2.74185 -1.73186 0
M  V30 31492 H 2918.8 -3.90166 -0.388946 0
M  V30 31493 H 2920.29 -3.94199 -1.3783 0
M  V30 31494 N 2920.73 -0.453223 -1.50943 0
M  V30 31495 C 2921.66 0.395748 -2.24742 0
M  V30 31496 C 2922.64 1.01138 -1.27318 0
M  V30 31497 O 2923.82 1.05078 -1.56496 0
M  V30 31498 C 2920.95 1.55293 -3.01001 0
M  V30 31499 C 2919.99 1.05643 -4.13209 0
M  V30 31500 S 2920.83 -0.0144441 -5.35498 0
M  V30 31501 C 2921.98 1.14703 -6.153 0
M  V30 31502 H 2922.22 -0.230762 -2.96403 0
M  V30 31503 H 2919.75 -0.237901 -1.52556 0
M  V30 31504 H 2921.71 2.21624 -3.45533 0
M  V30 31505 H 2920.37 2.1509 -2.289 0
M  V30 31506 H 2919.56 1.92222 -4.65904 0
M  V30 31507 H 2919.16 0.471117 -3.71021 0
M  V30 31508 H 2921.45 2.06227 -6.4535 0
M  V30 31509 H 2922.4 0.659718 -7.0502 0
M  V30 31510 H 2922.81 1.39278 -5.47048 0
M  V30 31511 N 2922.2 1.56509 -0.185151 0
M  V30 31512 C 2923.62 1.58683 0.170837 0
M  V30 31513 C 2923.82 1.201 1.61797 0
M  V30 31514 O 2922.88 0.919079 2.35179 0
M  V30 31515 C 2924.19 3.0045 -0.122512 0
M  V30 31516 C 2925.74 3.12939 -0.0618249 0
M  V30 31517 C 2926.21 4.56821 -0.32835 0
M  V30 31518 N 2927.7 4.62373 -0.276614 0
M  V30 31519 C 2928.44 5.71577 -0.456823 0
M  V30 31520 N 2927.93 6.89287 -0.696841 0
M  V30 31521 N 2929.73 5.60733 -0.391767 0
M  V30 31522 H 2921.88 1.79872 -1.1296 0
M  V30 31523 H 2924.14 0.834321 -0.450124 0
M  V30 31524 H 2923.85 3.33204 -1.12552 0
M  V30 31525 H 2923.72 3.72722 0.579513 0
M  V30 31526 H 2926.11 2.80003 0.931776 0
M  V30 31527 H 2926.19 2.43074 -0.796774 0
M  V30 31528 H 2925.83 4.90468 -1.31922 0
M  V30 31529 H 2925.76 5.24863 0.427373 0
M  V30 31530 H 2928.25 3.77775 -0.0973123 0
M  V30 31531 H 2928.57 7.68401 -0.823426 0
M  V30 31532 H 2926.91 6.91117 -0.733619 0
M  V30 31533 H 2930.1 4.67652 -0.204745 0
M  V30 31534 H 2930.28 6.45782 -0.535632 0
M  V30 31535 N 2923.68 -0.0885089 1.57351 0
M  V30 31536 C 2924.59 -1.12512 2.05859 0
M  V30 31537 C 2925.61 -1.4345 0.984783 0
M  V30 31538 O 2926.78 -1.53961 1.29839 0
M  V30 31539 C 2923.85 -2.42391 2.47886 0
M  V30 31540 C 2922.91 -2.18576 3.6949 0
M  V30 31541 C 2922.14 -3.42261 4.09503 0
M  V30 31542 O 2922.37 -4.50749 3.49544 0
M  V30 31543 O 2921.3 -3.3146 5.02412 0
M  V30 31544 H 2925.13 -0.743094 2.94469 0
M  V30 31545 H 2922.71 -0.301481 1.46327 0
M  V30 31546 H 2924.59 -3.18857 2.75515 0
M  V30 31547 H 2923.27 -2.80007 1.62412 0
M  V30 31548 H 2922.17 -1.39869 3.46969 0
M  V30 31549 H 2923.51 -1.85849 4.55764 0
M  V30 31550 N 2925.16 -1.53445 -0.359498 0
M  V30 31551 C 2926.07 -1.83281 -1.46442 0
M  V30 31552 C 2927.09 -0.721656 -1.58329 0
M  V30 31553 O 2928.26 -1.01234 -1.74108 0
M  V30 31554 C 2925.33 -2.02195 -2.81634 0
M  V30 31555 C 2924.39 -3.26086 -2.79224 0
M  V30 31556 C 2923.62 -3.44089 -4.07968 0
M  V30 31557 O 2923.84 -2.6626 -5.04442 0
M  V30 31558 O 2922.78 -4.37466 -4.1341 0
M  V30 31559 H 2926.6 -2.77165 -1.24151 0
M  V30 31560 H 2924.19 -1.38901 -0.550176 0
M  V30 31561 H 2926.07 -2.16173 -3.61728 0
M  V30 31562 H 2924.75 -1.11501 -3.0389 0
M  V30 31563 H 2923.65 -3.17526 -1.97807 0
M  V30 31564 H 2924.99 -4.16722 -2.61922 0
M  V30 31565 N 2926.64 0.619637 -1.44908 0
M  V30 31566 C 2927.57 1.74455 -1.48655 0
M  V30 31567 C 2928.58 1.58336 -0.378623 0
M  V30 31568 O 2929.77 1.66439 -0.645016 0
M  V30 31569 C 2926.87 3.12316 -1.31574 0
M  V30 31570 C 2926.04 3.54787 -2.55822 0
M  V30 31571 C 2925.1 4.71568 -2.33473 0
M  V30 31572 O 2924.13 4.79296 -3.07024 0
M  V30 31573 N 2925.33 5.64038 -1.37264 0
M  V30 31574 H 2928.1 1.71707 -2.45635 0
M  V30 31575 H 2925.66 0.804558 -1.40494 0
M  V30 31576 H 2927.65 3.88179 -1.14452 0
M  V30 31577 H 2926.22 3.0964 -0.42915 0
M  V30 31578 H 2925.44 2.69013 -2.88142 0
M  V30 31579 H 2926.73 3.79918 -3.38438 0
M  V30 31580 H 2926.13 5.60498 -0.765407 0
M  V30 31581 H 2924.68 6.39482 -1.26117 0
M  V30 31582 N 2928.12 1.31997 0.861075 0
M  V30 31583 C 2929.39 1.12817 1.59786 0
M  V30 31584 C 2929.77 -0.313846 2.08754 0
M  V30 31585 O 2929.12 -1.30942 1.8726 0
M  V30 31586 C 2929.33 2.15017 2.74898 0
M  V30 31587 C 2930.68 2.4801 3.44639 0
M  V30 31588 O 2931.7 2.13513 2.85115 0
M  V30 31589 O 2930.56 3.07121 4.52039 0
M  V30 31590 H 2927.66 0.434921 0.703401 0
M  V30 31591 H 2930.2 1.43506 0.905763 0
M  V30 31592 H 2928.97 3.11976 2.36193 0
M  V30 31593 H 2928.6 1.85285 3.51788 0
M  V30 31594 N 2929.59 -1.07653 1.15103 0
M  V30 31595 C 2931.01 -1.32277 0.893027 0
M  V30 31596 C 2931.21 -1.9614 -0.461667 0
M  V30 31597 O 2930.27 -2.21931 -1.20427 0
M  V30 31598 C 2931.58 -2.21686 2.03165 0
M  V30 31599 C 2933.13 -2.35143 2.06583 0
M  V30 31600 C 2933.6 -3.27899 3.1976 0
M  V30 31601 N 2935.09 -3.35479 3.19388 0
M  V30 31602 C 2935.83 -4.07302 4.03599 0
M  V30 31603 N 2935.32 -4.81767 4.97868 0
M  V30 31604 N 2937.12 -4.03212 3.91633 0
M  V30 31605 H 2929.27 -0.64585 2.02343 0
M  V30 31606 H 2931.53 -0.347195 0.882133 0
M  V30 31607 H 2931.24 -1.82016 3.00937 0
M  V30 31608 H 2931.11 -3.22195 1.96138 0
M  V30 31609 H 2933.5 -2.74067 1.09412 0
M  V30 31610 H 2933.58 -1.34349 2.17678 0
M  V30 31611 H 2933.22 -2.89694 4.1718 0
M  V30 31612 H 2933.15 -4.2864 3.05901 0
M  V30 31613 H 2935.64 -2.82398 2.51117 0
M  V30 31614 H 2935.96 -5.34057 5.58572 0
M  V30 31615 H 2934.3 -4.80794 5.01859 0
M  V30 31616 H 2937.49 -3.44148 3.17301 0
M  V30 31617 H 2937.67 -4.58922 4.57487 0
M  V30 31618 N 2931.07 -0.947348 -1.25949 0
M  V30 31619 C 2932.3 -0.615162 -1.97543 0
M  V30 31620 C 2932.72 0.811191 -1.70485 0
M  V30 31621 O 2932.07 1.54168 -0.976647 0
M  V30 31622 C 2932.12 -0.85539 -3.51234 0
M  V30 31623 O 2931.84 -2.22565 -3.77355 0
M  V30 31624 C 2933.35 -0.534592 -4.40065 0
M  V30 31625 H 2930.57 -0.231274 -0.629884 0
M  V30 31626 H 2933.11 -1.26974 -1.60306 0
M  V30 31627 H 2931.26 -0.247334 -3.8661 0
M  V30 31628 H 2931.68 -2.29031 -4.71853 0
M  V30 31629 H 2933.15 -0.753264 -5.46836 0
M  V30 31630 H 2933.63 0.530625 -4.35983 0
M  V30 31631 H 2934.24 -1.12165 -4.10243 0
M  V30 31632 N 2932.55 1.40444 -0.715075 0
M  V30 31633 C 2933.96 1.83818 -0.326796 0
M  V30 31634 C 2934.31 1.59791 1.13848 0
M  V30 31635 O 2933.44 1.07852 1.87609 0
M  V30 31636 C 2934.03 3.33687 -0.586356 0
M  V30 31637 C 2932.59 3.75557 -0.25179 0
M  V30 31638 C 2931.74 2.63661 -0.858974 0
M  V30 31639 H 2934.69 1.29719 -0.914264 0
M  V30 31640 H 2934.71 3.8021 0.148569 0
M  V30 31641 H 2934.22 3.51143 -1.65288 0
M  V30 31642 H 2932.32 3.63696 0.80969 0
M  V30 31643 H 2932.44 4.73652 -0.720431 0
M  V30 31644 H 2930.8 2.53077 -0.287058 0
M  V30 31645 H 2931.58 2.83929 -1.92975 0
M  V30 31646 N 2934.03 0.461222 1.507 0
M  V30 31647 C 2934.96 -0.328144 2.31183 0
M  V30 31648 C 2935.94 -0.999384 1.37646 0
M  V30 31649 O 2937.12 -0.998451 1.66567 0
M  V30 31650 C 2934.25 -1.41615 3.17116 0
M  V30 31651 C 2933.21 -0.867074 4.19125 0
M  V30 31652 C 2932.53 -2.05263 4.93732 0
M  V30 31653 C 2933.83 0.1149 5.22174 0
M  V30 31654 H 2935.53 0.343553 2.97422 0
M  V30 31655 H 2933.07 0.166666 1.43032 0
M  V30 31656 H 2935.03 -1.97578 3.72211 0
M  V30 31657 H 2933.75 -2.11648 2.48742 0
M  V30 31658 H 2932.41 -0.329493 3.65116 0
M  V30 31659 H 2932.06 -2.73971 4.2184 0
M  V30 31660 H 2931.76 -1.69151 5.62727 0
M  V30 31661 H 2933.28 -2.61734 5.51659 0
M  V30 31662 H 2934.7 -0.355215 5.72198 0
M  V30 31663 H 2933.09 0.389794 5.98833 0
M  V30 31664 H 2934.16 1.044 4.73528 0
M  V30 31665 N 2935.51 -1.56408 0.193449 0
M  V30 31666 C 2936.44 -2.14912 -0.767346 0
M  V30 31667 C 2937.42 -1.08536 -1.21073 0
M  V30 31668 O 2938.6 -1.36639 -1.29854 0
M  V30 31669 C 2935.73 -2.70667 -2.03611 0
M  V30 31670 C 2934.77 -3.89616 -1.73498 0
M  V30 31671 S 2935.61 -5.28144 -0.884552 0
M  V30 31672 C 2936.76 -5.87319 -2.16349 0
M  V30 31673 H 2937 -2.96071 -0.270001 0
M  V30 31674 H 2934.53 -1.54385 -0.0215274 0
M  V30 31675 H 2936.49 -3.03434 -2.76475 0
M  V30 31676 H 2935.15 -1.89552 -2.50457 0
M  V30 31677 H 2934.34 -4.27032 -2.67694 0
M  V30 31678 H 2933.94 -3.5785 -1.08716 0
M  V30 31679 H 2936.24 -6.01581 -3.11619 0
M  V30 31680 H 2937.18 -6.83946 -1.83368 0
M  V30 31681 H 2937.59 -5.15911 -2.2912 0
M  V30 31682 N 2936.98 0.0801629 -1.57396 0
M  V30 31683 C 2938.23 0.780894 -1.86838 0
M  V30 31684 C 2938.56 1.77997 -0.784043 0
M  V30 31685 O 2937.81 1.9445 0.220847 0
M  V30 31686 C 2938.11 1.53164 -3.22917 0
M  V30 31687 C 2937.78 0.673312 -4.45845 0
M  V30 31688 C 2936.44 0.436745 -4.79214 0
M  V30 31689 C 2938.79 0.0775869 -5.21142 0
M  V30 31690 C 2936.12 -0.405165 -5.85299 0
M  V30 31691 C 2938.47 -0.75173 -6.28118 0
M  V30 31692 C 2937.14 -0.998247 -6.59993 0
M  V30 31693 H 2936.41 0.285749 -0.683687 0
M  V30 31694 H 2939.05 0.0419098 -1.91454 0
M  V30 31695 H 2937.36 2.3426 -3.14054 0
M  V30 31696 H 2939.06 2.07847 -3.4293 0
M  V30 31697 H 2935.65 0.867817 -4.19722 0
M  V30 31698 H 2939.83 0.247485 -4.95683 0
M  V30 31699 H 2935.09 -0.604987 -6.08399 0
M  V30 31700 H 2939.26 -1.22012 -6.85628 0
M  V30 31701 H 2936.89 -1.6524 -7.42024 0
M  V30 31702 N 2938.46 1.53634 0.351355 0
M  V30 31703 C 2939.39 1.77376 1.45156 0
M  V30 31704 C 2940.41 0.654852 1.49049 0
M  V30 31705 O 2941.6 0.931423 1.52272 0
M  V30 31706 C 2938.7 1.85148 2.83854 0
M  V30 31707 C 2937.87 3.14978 3.03493 0
M  V30 31708 C 2936.93 3.13808 4.22388 0
M  V30 31709 O 2935.95 3.87558 4.16878 0
M  V30 31710 N 2937.16 2.35626 5.30529 0
M  V30 31711 H 2939.92 2.72313 1.25162 0
M  V30 31712 H 2937.48 1.52587 0.541183 0
M  V30 31713 H 2939.47 1.81826 3.61554 0
M  V30 31714 H 2938.04 0.974327 2.97028 0
M  V30 31715 H 2937.26 3.31487 2.1333 0
M  V30 31716 H 2938.55 4.0075 3.13491 0
M  V30 31717 H 2937.95 1.75245 5.37871 0
M  V30 31718 H 2936.51 2.38109 6.06751 0
M  V30 31719 N 2939.94 -0.611943 1.45234 0
M  V30 31720 C 2941.36 -0.932228 1.29544 0
M  V30 31721 C 2941.56 -2.00002 0.245265 0
M  V30 31722 O 2940.61 -2.49887 -0.362289 0
M  V30 31723 C 2941.93 -1.37729 2.67304 0
M  V30 31724 C 2943.47 -1.49173 2.75166 0
M  V30 31725 C 2943.95 -1.97056 4.1344 0
M  V30 31726 N 2945.44 -2.04297 4.15713 0
M  V30 31727 C 2946.17 -2.42559 5.1957 0
M  V30 31728 N 2945.67 -2.79821 6.33776 0
M  V30 31729 N 2947.46 -2.4286 5.06927 0
M  V30 31730 H 2939.61 0.0939052 2.12192 0
M  V30 31731 H 2941.88 -0.0206402 0.947775 0
M  V30 31732 H 2941.58 -0.66689 3.45319 0
M  V30 31733 H 2941.46 -2.34465 2.95476 0
M  V30 31734 H 2943.84 -2.19305 1.97457 0
M  V30 31735 H 2943.93 -0.50763 2.50713 0
M  V30 31736 H 2943.57 -1.27513 4.91633 0
M  V30 31737 H 2943.5 -2.96373 4.35283 0
M  V30 31738 H 2945.99 -1.78108 3.33296 0
M  V30 31739 H 2946.3 -3.07885 7.08821 0
M  V30 31740 H 2944.65 -2.77527 6.37184 0
M  V30 31741 H 2947.84 -2.13153 4.16753 0
M  V30 31742 H 2948.01 -2.72353 5.87986 0
M  V30 31743 N 2941.42 -1.32452 -0.854063 0
M  V30 31744 C 2942.35 -1.15772 -1.96652 0
M  V30 31745 C 2943.33 -0.057026 -1.625 0
M  V30 31746 O 2944.51 -0.216445 -1.87253 0
M  V30 31747 C 2941.64 -0.772419 -3.29775 0
M  V30 31748 C 2940.69 -1.87844 -3.82906 0
M  V30 31749 S 2941.52 -3.48683 -4.06424 0
M  V30 31750 C 2942.68 -3.12126 -5.4252 0
M  V30 31751 H 2942.91 -2.09945 -2.105 0
M  V30 31752 H 2940.44 -1.17119 -1.0061 0
M  V30 31753 H 2942.4 -0.55688 -4.06705 0
M  V30 31754 H 2941.06 0.150464 -3.13739 0
M  V30 31755 H 2940.25 -1.56185 -4.79189 0
M  V30 31756 H 2939.86 -2.04986 -3.12821 0
M  V30 31757 H 2942.15 -2.62007 -6.24787 0
M  V30 31758 H 2943.09 -4.07432 -5.79141 0
M  V30 31759 H 2943.5 -2.4913 -5.06552 0
M  V30 31760 N 2942.9 1.07041 -1.15672 0
M  V30 31761 C 2943.81 2.17853 -0.870473 0
M  V30 31762 C 2944.82 1.73313 0.154422 0
M  V30 31763 O 2946 2.0139 -0.0204113 0
M  V30 31764 C 2943.06 3.44749 -0.367279 0
M  V30 31765 C 2942.13 4.03839 -1.45646 0
M  V30 31766 C 2941.36 5.24678 -0.977184 0
M  V30 31767 O 2941.58 5.70128 0.176027 0
M  V30 31768 O 2940.52 5.75524 -1.76225 0
M  V30 31769 H 2944.34 2.44836 -1.79692 0
M  V30 31770 H 2941.93 1.16438 -0.936085 0
M  V30 31771 H 2943.81 4.21297 -0.0932687 0
M  V30 31772 H 2942.48 3.19311 0.531254 0
M  V30 31773 H 2941.39 3.28816 -1.78412 0
M  V30 31774 H 2942.72 4.33556 -2.33002 0
M  V30 31775 N 2944.38 0.954014 1.25445 0
M  V30 31776 C 2945.79 0.649286 1.75046 0
M  V30 31777 C 2946.14 -0.835354 1.77528 0
M  V30 31778 O 2945.26 -1.65374 1.39572 0
M  V30 31779 C 2945.86 1.17189 3.17887 0
M  V30 31780 C 2944.42 0.917331 3.65051 0
M  V30 31781 C 2943.56 1.31529 2.44122 0
M  V30 31782 H 2946.51 1.13089 1.1134 0
M  V30 31783 H 2946.54 0.531682 3.76767 0
M  V30 31784 H 2946.05 2.25244 3.16049 0
M  V30 31785 H 2944.15 -0.148288 3.72305 0
M  V30 31786 H 2944.26 1.55336 4.53219 0
M  V30 31787 H 2942.63 0.733667 2.43905 0
M  V30 31788 H 2943.41 2.40505 2.44974 0
M  V30 31789 N 2945.85 -1.40063 0.722513 0
M  V30 31790 C 2947.26 -1.83642 0.336539 0
M  V30 31791 C 2947.62 -1.60392 -1.12999 0
M  V30 31792 O 2946.74 -1.08845 -1.87034 0
M  V30 31793 C 2947.34 -3.33372 0.604044 0
M  V30 31794 C 2945.89 -3.75418 0.271703 0
M  V30 31795 C 2945.04 -2.63201 0.872945 0
M  V30 31796 H 2947.99 -1.29232 0.921131 0
M  V30 31797 H 2948.01 -3.80283 -0.128404 0
M  V30 31798 H 2947.53 -3.50262 1.67147 0
M  V30 31799 H 2945.63 -3.6412 -0.790391 0
M  V30 31800 H 2945.74 -4.73264 0.74554 0
M  V30 31801 H 2944.1 -2.52921 0.300475 0
M  V30 31802 H 2944.89 -2.82901 1.94478 0
M  V30 31803 N 2947.33 -0.469207 -1.50453 0
M  V30 31804 C 2948.56 0.0864528 -2.0722 0
M  V30 31805 C 2948.98 1.32913 -1.331 0
M  V30 31806 O 2948.34 1.77313 -0.378115 0
M  V30 31807 C 2948.39 0.355321 -3.58845 0
M  V30 31808 O 2947.49 1.43615 -3.86586 0
M  V30 31809 H 2946.83 -0.0121531 -0.663889 0
M  V30 31810 H 2949.36 -0.659708 -1.93672 0
M  V30 31811 H 2949.37 0.596376 -4.03618 0
M  V30 31812 H 2948.05 -0.55277 -4.1221 0
M  V30 31813 H 2946.62 1.18256 -3.53652 0
M  V30 31814 N 2948.81 1.56303 -0.201741 0
M  V30 31815 C 2950.22 1.84114 0.309679 0
M  V30 31816 C 2950.57 1.12261 1.6091 0
M  V30 31817 O 2949.7 0.385624 2.12936 0
M  V30 31818 C 2950.29 3.33994 0.568647 0
M  V30 31819 C 2948.85 3.62191 1.02442 0
M  V30 31820 C 2948 2.77194 0.0766355 0
M  V30 31821 H 2950.95 1.52893 -0.425383 0
M  V30 31822 H 2950.97 3.53125 1.41714 0
M  V30 31823 H 2950.48 3.86262 -0.377258 0
M  V30 31824 H 2948.58 3.15362 1.98437 0
M  V30 31825 H 2948.7 4.70329 0.912537 0
M  V30 31826 H 2947.06 2.48014 0.579766 0
M  V30 31827 H 2947.84 3.32254 -0.863833 0
M  V30 31828 N 2950.29 -0.0718147 1.57436 0
M  V30 31829 C 2951.52 -0.783898 1.91475 0
M  V30 31830 C 2951.93 -1.7112 0.797699 0
M  V30 31831 O 2951.29 -1.81058 -0.228957 0
M  V30 31832 C 2951.34 -1.57755 3.25262 0
M  V30 31833 O 2951.06 -0.68752 4.32672 0
M  V30 31834 C 2952.56 -2.39063 3.73314 0
M  V30 31835 H 2949.78 -0.222874 0.632905 0
M  V30 31836 H 2952.32 -0.0420903 2.04457 0
M  V30 31837 H 2950.48 -2.27164 3.13808 0
M  V30 31838 H 2950.89 -1.23953 5.09643 0
M  V30 31839 H 2952.37 -2.90208 4.69557 0
M  V30 31840 H 2952.84 -3.18586 3.02324 0
M  V30 31841 H 2953.45 -1.74811 3.87713 0
M  V30 31842 N 2951.77 -1.53818 -0.343203 0
M  V30 31843 C 2952.7 -1.78144 -1.44213 0
M  V30 31844 C 2953.71 -0.662747 -1.48699 0
M  V30 31845 O 2954.9 -0.939485 -1.51776 0
M  V30 31846 C 2952 -1.86651 -2.82869 0
M  V30 31847 C 2951.17 -3.16583 -3.01818 0
M  V30 31848 C 2950.23 -3.16043 -4.20717 0
M  V30 31849 O 2949.26 -3.89763 -4.14817 0
M  V30 31850 N 2950.46 -2.38436 -5.29271 0
M  V30 31851 H 2953.22 -2.72973 -1.23716 0
M  V30 31852 H 2950.79 -1.52872 -0.533083 0
M  V30 31853 H 2952.78 -1.83741 -3.60585 0
M  V30 31854 H 2951.35 -0.990066 -2.96507 0
M  V30 31855 H 2950.57 -3.32614 -2.11569 0
M  V30 31856 H 2951.86 -4.02407 -3.11362 0
M  V30 31857 H 2951.25 -1.78095 -5.36935 0
M  V30 31858 H 2949.81 -2.41324 -6.0548 0
M  V30 31859 N 2953.24 0.604233 -1.45557 0
M  V30 31860 C 2954.15 1.74297 -1.57028 0
M  V30 31861 C 2955.17 1.67957 -0.454589 0
M  V30 31862 O 2956.35 1.88253 -0.715745 0
M  V30 31863 C 2953.41 3.10765 -1.53707 0
M  V30 31864 C 2952.47 3.28533 -2.76341 0
M  V30 31865 C 2951.7 4.58491 -2.73169 0
M  V30 31866 O 2951.93 5.41025 -1.80687 0
M  V30 31867 O 2950.86 4.79044 -3.64418 0
M  V30 31868 H 2954.69 1.67569 -2.53287 0
M  V30 31869 H 2952.27 0.768722 -1.28105 0
M  V30 31870 H 2954.15 3.92066 -1.54475 0
M  V30 31871 H 2952.83 3.17977 -0.606013 0
M  V30 31872 H 2951.74 2.46808 -2.81134 0
M  V30 31873 H 2953.07 3.262 -3.68584 0
M  V30 31874 N 2954.72 1.32903 0.847027 0
M  V30 31875 C 2955.97 1.23652 1.59858 0
M  V30 31876 C 2956.29 -0.199754 1.93974 0
M  V30 31877 O 2955.56 -1.12645 1.60275 0
M  V30 31878 H 2954.14 0.454676 0.592688 0
M  V30 31879 H 2956.8 1.66521 1.01275 0
M  V30 31880 H 2955.9 1.82452 2.53214 0
M  V30 31881 N 2956.2 -1.06426 1.16238 0
M  V30 31882 C 2957.45 -1.78846 0.941202 0
M  V30 31883 C 2957.77 -1.8759 -0.532447 0
M  V30 31884 O 2957.04 -1.38361 -1.38683 0
M  V30 31885 H 2955.62 -0.662434 0.345239 0
M  V30 31886 H 2958.28 -1.28567 1.46481 0
M  V30 31887 H 2957.38 -2.8097 1.35876 0
M  V30 31888 N 2957.68 -0.960653 -1.24937 0
M  V30 31889 C 2959.09 -0.65856 -1.74699 0
M  V30 31890 C 2959.44 0.825927 -1.77969 0
M  V30 31891 O 2958.57 1.64632 -1.40447 0
M  V30 31892 C 2959.16 -1.18873 -3.17261 0
M  V30 31893 C 2957.72 -0.936678 -3.64559 0
M  V30 31894 C 2956.87 -1.32822 -2.43421 0
M  V30 31895 H 2959.82 -1.13678 -1.10739 0
M  V30 31896 H 2959.84 -0.551655 -3.7648 0
M  V30 31897 H 2959.35 -2.26917 -3.1485 0
M  V30 31898 H 2957.45 0.128542 -3.72378 0
M  V30 31899 H 2957.56 -1.57737 -4.52389 0
M  V30 31900 H 2955.93 -0.746591 -2.43512 0
M  V30 31901 H 2956.71 -2.418 -2.43696 0
M  V30 31902 N 2959.16 1.39677 -0.729931 0
M  V30 31903 C 2960.4 2.00219 -0.275112 0
M  V30 31904 C 2960.73 1.58201 1.14007 0
M  V30 31905 O 2960 0.827935 1.77544 0
M  V30 31906 H 2958.58 0.740447 -0.0987258 0
M  V30 31907 H 2961.24 1.70802 -0.93876 0
M  V30 31908 H 2960.33 3.1046 -0.3195 0
M  V30 31909 N 2960.63 0.47718 1.50202 0
M  V30 31910 C 2961.57 -0.350199 2.26509 0
M  V30 31911 C 2962.58 -0.951737 1.32083 0
M  V30 31912 O 2963.77 -0.839111 1.57547 0
M  V30 31913 C 2960.87 -1.50573 3.03613 0
M  V30 31914 C 2960.04 -1.01587 4.2544 0
M  V30 31915 C 2959.1 -2.04618 4.84787 0
M  V30 31916 O 2958.13 -1.62433 5.45531 0
M  V30 31917 N 2959.33 -3.37477 4.72324 0
M  V30 31918 H 2962.09 0.303993 2.98154 0
M  V30 31919 H 2959.65 0.308317 1.58937 0
M  V30 31920 H 2961.65 -2.19204 3.40194 0
M  V30 31921 H 2960.22 -2.06451 2.34727 0
M  V30 31922 H 2959.44 -0.155247 3.93894 0
M  V30 31923 H 2960.72 -0.666605 5.04414 0
M  V30 31924 H 2960.12 -3.74455 4.24028 0
M  V30 31925 H 2958.68 -4.01888 5.13156 0
M  V30 31926 N 2962.11 -1.56194 0.210027 0
M  V30 31927 C 2963.06 -2.21131 -0.721377 0
M  V30 31928 C 2964.05 -1.18708 -1.2085 0
M  V30 31929 O 2965.26 -1.36817 -1.16966 0
M  V30 31930 H 2961.64 -0.708867 -0.251021 0
M  V30 31931 H 2963.61 -2.98022 -0.150141 0
M  V30 31932 C 2962.36 -2.89625 -1.92387 0
M  V30 31933 H 2961.68 -3.68188 -1.55813 0
M  V30 31934 H 2963.12 -3.38477 -2.55361 0
M  V30 31935 C 2961.58 -1.91466 -2.77204 0
M  V30 31936 O 2962.11 -1.42433 -3.75601 0
M  V30 31937 N 2960.31 -1.59367 -2.43003 0
M  V30 31938 H 2959.86 -1.99435 -1.63044 0
M  V30 31939 H 2959.82 -0.939502 -3.00035 0
M  V30 31940 N 2963.59 0.0634645 -1.57472 0
M  V30 31941 C 2964.55 1.05897 -2.0327 0
M  V30 31942 C 2965.55 1.31103 -0.931051 0
M  V30 31943 O 2966.74 1.26684 -1.19569 0
M  V30 31944 C 2963.88 2.40058 -2.42043 0
M  V30 31945 H 2965.07 0.664067 -2.92455 0
M  V30 31946 H 2962.62 0.309418 -1.53207 0
M  V30 31947 H 2963.36 2.84364 -1.55909 0
M  V30 31948 H 2963.14 2.23102 -3.22441 0
M  V30 31949 H 2964.63 3.11598 -2.78023 0
M  V30 31950 N 2965.07 1.53998 0.33504 0
M  V30 31951 C 2966 1.85571 1.41724 0
M  V30 31952 C 2966.98 0.711528 1.54503 0
M  V30 31953 O 2968.16 0.964221 1.68572 0
M  V30 31954 C 2965.29 2.07287 2.78657 0
M  V30 31955 C 2964.25 3.23117 2.80677 0
M  V30 31956 C 2963.57 3.30182 4.20575 0
M  V30 31957 C 2964.87 4.61033 2.4545 0
M  V30 31958 H 2966.57 2.76204 1.1555 0
M  V30 31959 H 2964.11 1.32899 0.554421 0
M  V30 31960 H 2966.07 2.27959 3.54419 0
M  V30 31961 H 2964.79 1.13392 3.06284 0
M  V30 31962 H 2963.45 3.02314 2.07368 0
M  V30 31963 H 2963.1 2.33867 4.45326 0
M  V30 31964 H 2962.8 4.08024 4.22836 0
M  V30 31965 H 2964.32 3.53075 4.98167 0
M  V30 31966 H 2965.74 4.81662 3.10925 0
M  V30 31967 H 2964.13 5.4134 2.58981 0
M  V30 31968 H 2965.2 4.64063 1.4062 0
M  V30 31969 N 2966.55 -0.596505 1.45875 0
M  V30 31970 C 2967.96 -1.17855 1.448 0
M  V30 31971 C 2968.31 -1.95359 0.181478 0
M  V30 31972 O 2967.43 -2.04201 -0.716301 0
M  V30 31973 C 2968.03 -2.14394 2.62337 0
M  V30 31974 C 2966.59 -2.67951 2.64347 0
M  V30 31975 C 2965.73 -1.4356 2.37246 0
M  V30 31976 H 2968.69 -0.385195 1.53954 0
M  V30 31977 H 2968.71 -2.97622 2.37068 0
M  V30 31978 H 2968.22 -1.57957 3.54501 0
M  V30 31979 H 2966.32 -3.28295 1.76219 0
M  V30 31980 H 2966.43 -3.11627 3.63903 0
M  V30 31981 H 2964.8 -1.72898 1.87025 0
M  V30 31982 H 2965.58 -0.889747 3.3157 0
M  V30 31983 N 2968.02 -1.3335 -0.839967 0
M  V30 31984 C 2969.25 -1.27927 -1.63247 0
M  V30 31985 C 2969.67 0.14716 -1.87523 0
M  V30 31986 O 2969.03 1.10342 -1.43855 0
M  V30 31987 C 2969.08 -2.05891 -2.96042 0
M  V30 31988 O 2968.18 -1.41676 -3.873 0
M  V30 31989 H 2967.53 -0.440165 -0.497142 0
M  V30 31990 H 2970.06 -1.75895 -1.04509 0
M  V30 31991 H 2970.07 -2.16615 -3.45748 0
M  V30 31992 H 2968.74 -3.0961 -2.77695 0
M  V30 31993 H 2967.32 -1.39591 -3.45787 0
M  V30 31994 N 2969.5 1.05808 -1.16801 0
M  V30 31995 C 2970.73 1.82385 -0.976903 0
M  V30 31996 C 2971.15 1.8273 0.474885 0
M  V30 31997 O 2970.5 1.25004 1.32967 0
M  V30 31998 C 2970.55 3.28781 -1.50285 0
M  V30 31999 O 2970.27 3.28573 -2.89778 0
M  V30 32000 C 2971.78 4.22069 -1.35545 0
M  V30 32001 H 2969 0.574921 -0.345987 0
M  V30 32002 H 2971.54 1.33464 -1.54944 0
M  V30 32003 H 2969.69 3.74995 -0.97248 0
M  V30 32004 H 2970.11 4.20153 -3.13961 0
M  V30 32005 H 2971.58 5.22795 -1.77169 0
M  V30 32006 H 2972.06 4.38163 -0.301675 0
M  V30 32007 H 2972.67 3.81704 -1.87568 0
M  V30 32008 N 2970.98 0.967265 1.24426 0
M  V30 32009 C 2971.91 0.454896 2.2464 0
M  V30 32010 C 2972.93 -0.436125 1.5685 0
M  V30 32011 O 2974.11 -0.24237 1.76847 0
M  V30 32012 C 2971.21 -0.362613 3.36954 0
M  V30 32013 C 2970.39 0.5184 4.34317 0
M  V30 32014 C 2969.45 -0.24303 5.25638 0
M  V30 32015 O 2968.47 0.36289 5.68042 0
M  V30 32016 N 2969.67 -1.53272 5.599 0
M  V30 32017 H 2972.44 1.31652 2.69235 0
M  V30 32018 H 2970 0.839039 1.38462 0
M  V30 32019 H 2971.99 -0.880024 3.95016 0
M  V30 32020 H 2970.56 -1.12517 2.91648 0
M  V30 32021 H 2969.78 1.21679 3.7495 0
M  V30 32022 H 2971.07 1.11928 4.96336 0
M  V30 32023 H 2970.47 -2.04673 5.27376 0
M  V30 32024 H 2969.03 -1.99583 6.20492 0
M  V30 32025 N 2972.46 -1.39288 0.737328 0
M  V30 32026 C 2973.39 -2.33221 0.114029 0
M  V30 32027 C 2974.37 -1.54032 -0.721668 0
M  V30 32028 O 2975.56 -1.82416 -0.666174 0
M  V30 32029 C 2972.69 -3.38143 -0.792259 0
M  V30 32030 C 2971.64 -4.27957 -0.0605426 0
M  V30 32031 C 2970.97 -5.23597 -1.084 0
M  V30 32032 C 2972.27 -5.10623 1.09826 0
M  V30 32033 H 2973.96 -2.85595 0.898661 0
M  V30 32034 H 2971.51 -1.37317 0.433595 0
M  V30 32035 H 2973.46 -4.02809 -1.23786 0
M  V30 32036 H 2972.18 -2.84214 -1.60903 0
M  V30 32037 H 2970.84 -3.64774 0.365457 0
M  V30 32038 H 2970.49 -4.65963 -1.8944 0
M  V30 32039 H 2970.19 -5.84537 -0.599166 0
M  V30 32040 H 2971.71 -5.9114 -1.52925 0
M  V30 32041 H 2973.13 -5.68621 0.730992 0
M  V30 32042 H 2971.52 -5.80717 1.51288 0
M  V30 32043 H 2972.59 -4.45318 1.91886 0
M  V30 32044 N 2973.94 -0.485139 -1.49947 0
M  V30 32045 C 2975.21 0.127225 -1.95186 0
M  V30 32046 C 2975.59 1.55648 -1.42608 0
M  V30 32047 O 2974.94 2.19556 -0.633024 0
M  V30 32048 C 2975.15 0.0561503 -3.48955 0
M  V30 32049 C 2976.5 0.238032 -4.23932 0
M  V30 32050 O 2977.52 0.132083 -3.55955 0
M  V30 32051 O 2976.38 0.453562 -5.44615 0
M  V30 32052 H 2973.48 0.104 -0.820435 0
M  V30 32053 H 2976.02 -0.546545 -1.60658 0
M  V30 32054 H 2974.8 -0.941188 -3.79812 0
M  V30 32055 H 2974.42 0.770765 -3.90058 0
M  V30 32056 N 2975.42 1.56081 -0.218307 0
M  V30 32057 C 2976.83 1.84432 0.290134 0
M  V30 32058 C 2977.18 1.13961 1.5971 0
M  V30 32059 O 2976.3 0.408187 2.12515 0
M  V30 32060 C 2976.9 3.34578 0.533191 0
M  V30 32061 C 2975.46 3.63258 0.985947 0
M  V30 32062 C 2974.6 2.7726 0.047231 0
M  V30 32063 H 2977.55 1.52433 -0.441575 0
M  V30 32064 H 2977.58 3.54608 1.37961 0
M  V30 32065 H 2977.09 3.8584 -0.418205 0
M  V30 32066 H 2975.19 3.17449 1.95081 0
M  V30 32067 H 2975.3 4.71271 0.862601 0
M  V30 32068 H 2973.67 2.48615 0.553428 0
M  V30 32069 H 2974.45 3.31319 -0.899024 0
M  V30 32070 N 2976.89 -0.0551124 1.57504 0
M  V30 32071 C 2978.14 -0.749587 1.87685 0
M  V30 32072 C 2978.46 -1.77263 0.812578 0
M  V30 32073 O 2977.73 -1.95271 -0.156906 0
M  V30 32074 H 2976.31 -0.279834 0.692605 0
M  V30 32075 H 2978.97 -0.0272402 1.94881 0
M  V30 32076 H 2978.07 -1.25543 2.85736 0
M  V30 32077 N 2978.37 -1.54173 -0.326869 0
M  V30 32078 C 2979.62 -1.7188 -1.0631 0
M  V30 32079 C 2979.94 -0.493531 -1.88651 0
M  V30 32080 O 2979.21 0.492489 -1.89608 0
M  V30 32081 H 2977.79 -0.633723 -0.395479 0
M  V30 32082 H 2980.45 -1.91469 -0.364105 0
M  V30 32083 H 2979.55 -2.59697 -1.73101 0
M  V30 32084 N 2979.85 0.58876 -1.4619 0
M  V30 32085 C 2980.81 1.68026 -1.55884 0
M  V30 32086 C 2981.81 1.54761 -0.436542 0
M  V30 32087 O 2983 1.59488 -0.700654 0
M  V30 32088 C 2980.13 3.07416 -1.47337 0
M  V30 32089 H 2981.33 1.6079 -2.53153 0
M  V30 32090 H 2978.88 0.806092 -1.3391 0
M  V30 32091 H 2979.62 3.20213 -0.513249 0
M  V30 32092 H 2979.4 3.18452 -2.28759 0
M  V30 32093 H 2980.89 3.86885 -1.57194 0
M  V30 32094 N 2981.33 1.33794 0.832883 0
M  V30 32095 C 2982.26 1.27179 1.95826 0
M  V30 32096 C 2983.24 0.151169 1.69427 0
M  V30 32097 O 2984.42 0.34192 1.91166 0
M  V30 32098 C 2981.55 1.01634 3.32096 0
M  V30 32099 C 2980.51 2.10055 3.72909 0
M  V30 32100 C 2979.83 1.69715 5.07051 0
M  V30 32101 C 2981.13 3.5179 3.86058 0
M  V30 32102 H 2982.83 2.21338 2.01618 0
M  V30 32103 H 2980.37 1.06552 0.968641 0
M  V30 32104 H 2982.33 0.956546 4.104 0
M  V30 32105 H 2981.05 0.039153 3.26577 0
M  V30 32106 H 2979.71 2.15087 2.96872 0
M  V30 32107 H 2979.36 0.706824 4.98009 0
M  V30 32108 H 2979.06 2.42273 5.35329 0
M  V30 32109 H 2980.58 1.65212 5.87824 0
M  V30 32110 H 2982 3.49226 4.54658 0
M  V30 32111 H 2980.39 4.22885 4.25779 0
M  V30 32112 H 2981.46 3.89859 2.88337 0
M  V30 32113 N 2982.81 -1.05187 1.1736 0
M  V30 32114 C 2983.74 -2.12422 0.833805 0
M  V30 32115 C 2984.72 -1.61372 -0.199422 0
M  V30 32116 O 2985.9 -1.88326 -0.0809459 0
M  V30 32117 C 2983.03 -3.37821 0.243804 0
M  V30 32118 C 2982.07 -4.07697 1.25242 0
M  V30 32119 S 2982.91 -4.56234 2.80376 0
M  V30 32120 C 2984.06 -5.84881 2.22856 0
M  V30 32121 H 2984.3 -2.40917 1.74201 0
M  V30 32122 H 2981.83 -1.17788 0.998263 0
M  V30 32123 H 2983.79 -4.10401 -0.0901194 0
M  V30 32124 H 2982.45 -3.07462 -0.642342 0
M  V30 32125 H 2981.64 -4.97798 0.788256 0
M  V30 32126 H 2981.24 -3.41183 1.532 0
M  V30 32127 H 2983.53 -6.58235 1.60415 0
M  V30 32128 H 2984.48 -6.36045 3.11212 0
M  V30 32129 H 2984.89 -5.39447 1.66306 0
M  V30 32130 N 2984.28 -0.97385 -1.23911 0
M  V30 32131 C 2985.25 -0.513819 -2.23366 0
M  V30 32132 C 2986.25 0.392992 -1.55924 0
M  V30 32133 O 2987.44 0.187596 -1.73187 0
M  V30 32134 C 2984.57 0.255092 -3.39944 0
M  V30 32135 H 2985.76 -1.39312 -2.65579 0
M  V30 32136 H 2983.31 -0.759063 -1.36631 0
M  V30 32137 H 2984.05 1.15122 -3.03179 0
M  V30 32138 H 2983.83 -0.395742 -3.90098 0
M  V30 32139 H 2985.32 0.565769 -4.1375 0
M  V30 32140 N 2985.76 1.38895 -0.744705 0
M  V30 32141 C 2986.71 2.27834 -0.0869776 0
M  V30 32142 C 2987.7 1.44753 0.702528 0
M  V30 32143 O 2988.89 1.67573 0.569942 0
M  V30 32144 C 2986.02 3.33555 0.812173 0
M  V30 32145 C 2985.1 4.24097 0.0162967 0
M  V30 32146 N 2985.49 4.955 -1.01556 0
M  V30 32147 C 2983.79 4.45329 0.244476 0
M  V30 32148 C 2984.49 5.62126 -1.49632 0
M  V30 32149 N 2983.47 5.37483 -0.813191 0
M  V30 32150 H 2987.27 2.80498 -0.877394 0
M  V30 32151 H 2984.78 1.51693 -0.579924 0
M  V30 32152 H 2986.78 3.96148 1.29893 0
M  V30 32153 H 2985.44 2.82449 1.60164 0
M  V30 32154 H 2986.45 4.98698 -1.39715 0
M  V30 32155 H 2983.13 4.05149 1.00798 0
M  V30 32156 H 2984.52 6.29264 -2.35534 0
M  V30 32157 N 2987.24 0.493084 1.49688 0
M  V30 32158 C 2988.15 -0.294317 2.32747 0
M  V30 32159 C 2989.17 -0.974977 1.44119 0
M  V30 32160 O 2990.34 -0.958107 1.7715 0
M  V30 32161 C 2987.41 -1.34943 3.19361 0
M  V30 32162 C 2986.47 -0.683048 4.23831 0
M  V30 32163 C 2985.7 -1.68789 5.06306 0
M  V30 32164 O 2985.92 -2.91689 4.90177 0
M  V30 32165 O 2984.86 -1.24757 5.88829 0
M  V30 32166 H 2988.68 0.385307 3.01246 0
M  V30 32167 H 2986.27 0.254545 1.47216 0
M  V30 32168 H 2988.15 -1.96008 3.7304 0
M  V30 32169 H 2986.83 -2.01213 2.53565 0
M  V30 32170 H 2985.73 -0.0328693 3.74086 0
M  V30 32171 H 2987.07 -0.0629327 4.9216 0
M  V30 32172 N 2988.72 -1.55963 0.226582 0
M  V30 32173 C 2989.94 -2.03277 -0.411491 0
M  V30 32174 C 2990.37 -1.10524 -1.52204 0
M  V30 32175 O 2989.73 -0.0943536 -1.81054 0
M  V30 32176 C 2989.77 -3.48782 -0.915632 0
M  V30 32177 O 2988.88 -3.59166 -2.02665 0
M  V30 32178 H 2988.22 -0.657528 -0.0924791 0
M  V30 32179 H 2990.75 -2.01641 0.346691 0
M  V30 32180 H 2990.76 -3.89203 -1.22415 0
M  V30 32181 H 2989.43 -4.15773 -0.102842 0
M  V30 32182 H 2988.01 -3.30635 -1.72439 0
M  V30 32183 N 2990.2 0.0467589 -1.57531 0
M  V30 32184 C 2991.44 0.739623 -1.8808 0
M  V30 32185 C 2991.77 1.7683 -0.821967 0
M  V30 32186 O 2991.04 1.95351 0.146548 0
M  V30 32187 H 2989.62 0.276157 -0.694079 0
M  V30 32188 H 2992.28 0.0169048 -1.94893 0
M  V30 32189 H 2991.37 1.24026 -2.86398 0
M  V30 32190 N 2991.67 1.54344 0.318688 0
M  V30 32191 C 2992.6 1.87064 1.39748 0
M  V30 32192 C 2993.59 0.727875 1.5374 0
M  V30 32193 O 2994.77 0.982046 1.6754 0
M  V30 32194 C 2991.9 2.10231 2.76442 0
M  V30 32195 C 2990.85 3.26076 2.77234 0
M  V30 32196 C 2990.18 3.34625 4.1705 0
M  V30 32197 C 2991.48 4.6361 2.40546 0
M  V30 32198 H 2993.17 2.77414 1.12614 0
M  V30 32199 H 2990.72 1.3348 0.540294 0
M  V30 32200 H 2992.67 2.31705 3.51981 0
M  V30 32201 H 2991.4 1.16634 3.05064 0
M  V30 32202 H 2990.06 3.04497 2.0415 0
M  V30 32203 H 2989.7 2.38577 4.4282 0
M  V30 32204 H 2989.4 4.12486 4.18485 0
M  V30 32205 H 2990.93 3.58339 4.94394 0
M  V30 32206 H 2992.34 4.84933 3.05799 0
M  V30 32207 H 2990.74 5.44056 2.53224 0
M  V30 32208 H 2991.81 4.65528 1.3569 0
M  V30 32209 N 2993.15 -0.580999 1.465 0
M  V30 32210 C 2994.1 -1.68994 1.57193 0
M  V30 32211 C 2995.07 -1.60803 0.416143 0
M  V30 32212 O 2996.25 -1.7999 0.633118 0
M  V30 32213 C 2993.39 -3.0733 1.56978 0
M  V30 32214 C 2992.51 -3.26134 2.83303 0
M  V30 32215 C 2991.64 -4.54729 2.74582 0
M  V30 32216 C 2990.68 -4.66882 3.95838 0
M  V30 32217 N 2989.82 -5.86805 3.85493 0
M  V30 32218 H 2994.66 -1.59192 2.51917 0
M  V30 32219 H 2992.2 -0.775835 1.24977 0
M  V30 32220 H 2994.15 -3.87402 1.54839 0
M  V30 32221 H 2992.78 -3.16025 0.657858 0
M  V30 32222 H 2991.84 -2.39654 2.95415 0
M  V30 32223 H 2993.15 -3.30981 3.73166 0
M  V30 32224 H 2992.3 -5.43032 2.70558 0
M  V30 32225 H 2991.04 -4.52322 1.82362 0
M  V30 32226 H 2990.05 -3.76996 4.00192 0
M  V30 32227 H 2991.27 -4.71066 4.89156 0
M  V30 32228 H 2989.22 -5.85392 2.96061 0
M  V30 32229 H 2989.13 -5.92928 4.69012 0
M  V30 32230 H 2990.4 -6.77533 3.85446 0
M  V30 32231 N 2994.63 -1.34234 -0.825776 0
M  V30 32232 C 2995.54 -1.27641 -1.96837 0
M  V30 32233 C 2996.56 -0.184599 -1.73018 0
M  V30 32234 O 2997.73 -0.410559 -1.97171 0
M  V30 32235 C 2994.8 -1.02885 -3.31083 0
M  V30 32236 C 2993.86 -2.21194 -3.67929 0
M  V30 32237 C 2993.09 -1.97609 -4.95768 0
M  V30 32238 O 2993.31 -0.932909 -5.62719 0
M  V30 32239 O 2992.25 -2.84486 -5.30426 0
M  V30 32240 H 2996.07 -2.23759 -2.05342 0
M  V30 32241 H 2993.66 -1.14411 -0.960752 0
M  V30 32242 H 2995.54 -0.908478 -4.11491 0
M  V30 32243 H 2994.22 -0.098039 -3.23552 0
M  V30 32244 H 2993.12 -2.38789 -2.87977 0
M  V30 32245 H 2994.46 -3.12655 -3.80142 0
M  V30 32246 N 2996.11 1.04563 -1.17917 0
M  V30 32247 C 2997.33 1.81876 -0.996781 0
M  V30 32248 C 2997.76 1.82635 0.450136 0
M  V30 32249 O 2997.12 1.23998 1.32266 0
M  V30 32250 C 2997.16 3.25583 -1.55011 0
M  V30 32251 O 2996.27 4.05184 -0.768111 0
M  V30 32252 H 2995.61 0.562101 -0.353466 0
M  V30 32253 H 2998.14 1.31721 -1.56559 0
M  V30 32254 H 2998.15 3.76371 -1.57509 0
M  V30 32255 H 2996.82 3.24345 -2.60332 0
M  V30 32256 H 2995.4 3.63884 -0.815044 0
M  V30 32257 N 2997.59 0.980408 1.23393 0
M  V30 32258 C 2999 0.68627 1.7363 0
M  V30 32259 C 2999.35 -0.79751 1.7926 0
M  V30 32260 O 2998.47 -1.62376 1.43049 0
M  V30 32261 C 2999.07 1.23905 3.1533 0
M  V30 32262 C 2997.63 0.994557 3.63023 0
M  V30 32263 C 2996.77 1.36677 2.41277 0
M  V30 32264 H 2999.73 1.15425 1.08916 0
M  V30 32265 H 2999.75 0.61148 3.75554 0
M  V30 32266 H 2999.26 2.31897 3.112 0
M  V30 32267 H 2997.36 -0.0692837 3.72536 0
M  V30 32268 H 2997.47 1.64914 4.49822 0
M  V30 32269 H 2995.84 0.785237 2.42293 0
M  V30 32270 H 2996.62 2.45647 2.39818 0
M  V30 32271 N 2999.06 -1.38498 0.75206 0
M  V30 32272 C 3000.29 -2.04963 0.317029 0
M  V30 32273 C 3000.71 -1.56348 -1.0458 0
M  V30 32274 O 3000.07 -0.714784 -1.66615 0
M  V30 32275 C 3000.12 -3.58924 0.347298 0
M  V30 32276 O 2999.22 -4.07097 -0.659224 0
M  V30 32277 H 2998.57 -0.64893 0.140664 0
M  V30 32278 H 3001.1 -1.77203 1.02276 0
M  V30 32279 H 3001.11 -4.07521 0.197642 0
M  V30 32280 H 2999.78 -3.93666 1.34164 0
M  V30 32281 H 2998.36 -3.69871 -0.474306 0
M  V30 32282 N 3000.54 -0.501015 -1.49424 0
M  V30 32283 C 3001.79 0.0355588 -2.03369 0
M  V30 32284 C 3002.14 1.34692 -1.3739 0
M  V30 32285 O 3001.44 1.84946 -0.500548 0
M  V30 32286 C 3001.63 0.244567 -3.56562 0
M  V30 32287 C 3001.46 -1.04498 -4.3739 0
M  V30 32288 C 3000.23 -1.59678 -4.79407 0
M  V30 32289 C 3002.43 -1.94825 -4.7597 0
M  V30 32290 N 3000.41 -2.83223 -5.44663 0
M  V30 32291 C 3001.78 -3.0295 -5.40945 0
M  V30 32292 C 3003.84 -1.95503 -4.57912 0
M  V30 32293 C 3002.54 -4.11779 -5.89772 0
M  V30 32294 C 3004.56 -3.03307 -5.07699 0
M  V30 32295 C 3003.93 -4.1015 -5.72674 0
M  V30 32296 H 3000.03 -0.0277684 -0.781507 0
M  V30 32297 H 3002.61 -0.675876 -1.82592 0
M  V30 32298 H 3000.78 0.925059 -3.77223 0
M  V30 32299 H 3002.51 0.77815 -3.97148 0
M  V30 32300 H 2999.27 -1.14193 -4.59627 0
M  V30 32301 H 2999.69 -3.46045 -5.81878 0
M  V30 32302 H 3004.33 -1.14206 -4.07083 0
M  V30 32303 H 3002.05 -4.93873 -6.39621 0
M  V30 32304 H 3005.64 -3.04851 -4.95537 0
M  V30 32305 H 3004.52 -4.92195 -6.10503 0
M  V30 32306 N 3002.02 1.5584 -0.234849 0
M  V30 32307 C 3003.27 1.9894 0.393808 0
M  V30 32308 C 3003.6 1.12262 1.58464 0
M  V30 32309 O 3002.88 0.183277 1.93635 0
M  V30 32310 C 3003.16 3.50746 0.81543 0
M  V30 32311 C 3003.01 4.48192 -0.379957 0
M  V30 32312 C 3004.33 4.07315 1.6668 0
M  V30 32313 H 3001.45 0.723256 0.141668 0
M  V30 32314 H 3004.09 1.87046 -0.333749 0
M  V30 32315 H 3002.24 3.61012 1.43535 0
M  V30 32316 H 3003.91 4.49921 -1.01827 0
M  V30 32317 H 3002.16 4.21513 -1.02514 0
M  V30 32318 H 3002.83 5.51984 -0.0418039 0
M  V30 32319 H 3005.3 4.00076 1.14362 0
M  V30 32320 H 3004.18 5.13825 1.93069 0
M  V30 32321 H 3004.44 3.55021 2.63462 0
M  V30 32322 N 3003.5 -0.038404 1.57553 0
M  V30 32323 C 3004.73 -0.743107 1.93095 0
M  V30 32324 C 3005.14 -1.6939 0.833817 0
M  V30 32325 O 3004.5 -1.81503 -0.1905 0
M  V30 32326 C 3004.55 -1.50821 3.28535 0
M  V30 32327 O 3004.27 -0.595589 4.34033 0
M  V30 32328 C 3005.77 -2.31091 3.78301 0
M  V30 32329 H 3002.99 -0.209399 0.63749 0
M  V30 32330 H 3005.54 0.00128748 2.045 0
M  V30 32331 H 3003.69 -2.20456 3.18556 0
M  V30 32332 H 3004.11 -1.13115 5.12157 0
M  V30 32333 H 3005.58 -2.80183 4.75607 0
M  V30 32334 H 3006.06 -3.12102 3.09013 0
M  V30 32335 H 3006.66 -1.66548 3.91334 0
M  V30 32336 N 3004.98 -1.54511 -0.310498 0
M  V30 32337 C 3005.91 -1.81163 -1.40402 0
M  V30 32338 C 3006.92 -0.69414 -1.4726 0
M  V30 32339 O 3008.11 -0.971467 -1.49749 0
M  V30 32340 C 3005.21 -1.92609 -2.78846 0
M  V30 32341 C 3004.38 -3.22913 -2.95035 0
M  V30 32342 C 3003.44 -3.24896 -4.13919 0
M  V30 32343 O 3002.47 -3.98474 -4.06456 0
M  V30 32344 N 3003.67 -2.49609 -5.24095 0
M  V30 32345 H 3006.44 -2.75536 -1.17898 0
M  V30 32346 H 3004 -1.53968 -0.500537 0
M  V30 32347 H 3005.99 -1.91348 -3.56606 0
M  V30 32348 H 3004.56 -1.05274 -2.9434 0
M  V30 32349 H 3003.78 -3.37027 -2.04466 0
M  V30 32350 H 3005.07 -4.08921 -3.02756 0
M  V30 32351 H 3004.47 -1.89444 -5.33036 0
M  V30 32352 H 3003.02 -2.54112 -6.00225 0
M  V30 32353 N 3006.46 0.573222 -1.46806 0
M  V30 32354 C 3007.87 0.897554 -1.3197 0
M  V30 32355 C 3008.07 1.99281 -0.298206 0
M  V30 32356 O 3007.13 2.5076 0.295909 0
M  V30 32357 C 3008.44 1.30593 -2.70861 0
M  V30 32358 C 3009.99 1.41825 -2.79024 0
M  V30 32359 C 3010.46 1.86025 -4.18519 0
M  V30 32360 N 3011.95 1.93203 -4.20983 0
M  V30 32361 C 3012.69 2.28698 -5.25818 0
M  V30 32362 N 3012.19 2.62919 -6.40972 0
M  V30 32363 N 3013.98 2.29334 -5.13188 0
M  V30 32364 H 3006.13 -0.150131 -2.11869 0
M  V30 32365 H 3008.39 -0.00449562 -0.947989 0
M  V30 32366 H 3008.1 0.5751 -3.46966 0
M  V30 32367 H 3007.97 2.26548 -3.01589 0
M  V30 32368 H 3010.36 2.13993 -2.03202 0
M  V30 32369 H 3010.44 0.440979 -2.5197 0
M  V30 32370 H 3010.08 1.14433 -4.94841 0
M  V30 32371 H 3010.01 2.84728 -4.42987 0
M  V30 32372 H 3012.51 1.69208 -3.37901 0
M  V30 32373 H 3012.82 2.88984 -7.16734 0
M  V30 32374 H 3011.16 2.60535 -6.44318 0
M  V30 32375 H 3014.35 2.02029 -4.22258 0
M  V30 32376 H 3014.53 2.56668 -5.95 0
M  V30 32377 N 3007.93 1.3467 0.818645 0
M  V30 32378 C 3008.9 1.26487 1.91138 0
M  V30 32379 C 3009.9 0.179072 1.598 0
M  V30 32380 O 3011.09 0.431982 1.68759 0
M  V30 32381 C 3008.22 0.953868 3.27283 0
M  V30 32382 H 3009.41 2.23637 1.99816 0
M  V30 32383 H 3006.96 1.19019 1.01312 0
M  V30 32384 H 3007.7 -0.0142857 3.24297 0
M  V30 32385 H 3007.48 1.7393 3.51413 0
M  V30 32386 H 3008.97 0.921899 4.07297 0
M  V30 32387 N 3009.41 -1.03936 1.1847 0
M  V30 32388 C 3010.34 -2.1202 0.870652 0
M  V30 32389 C 3011.36 -1.62262 -0.13229 0
M  V30 32390 O 3012.55 -1.78243 0.0957215 0
M  V30 32391 C 3009.65 -3.37743 0.279786 0
M  V30 32392 C 3008.82 -4.1673 1.32871 0
M  V30 32393 C 3007.88 -5.2078 0.753296 0
M  V30 32394 O 3006.9 -5.50987 1.42835 0
M  V30 32395 N 3008.11 -5.78764 -0.448562 0
M  V30 32396 H 3010.87 -2.39553 1.80096 0
M  V30 32397 H 3008.43 -1.2014 1.08526 0
M  V30 32398 H 3010.42 -4.04526 -0.118758 0
M  V30 32399 H 3008.99 -3.07642 -0.554567 0
M  V30 32400 H 3008.21 -3.45251 1.90251 0
M  V30 32401 H 3009.5 -4.66296 2.03583 0
M  V30 32402 H 3008.9 -5.56525 -1.01471 0
M  V30 32403 H 3007.46 -6.47007 -0.789012 0
M  V30 32404 N 3010.89 -0.986938 -1.22871 0
M  V30 32405 C 3011.8 -0.541018 -2.28276 0
M  V30 32406 C 3012.82 0.407334 -1.69165 0
M  V30 32407 O 3013.99 0.275639 -1.99505 0
M  V30 32408 C 3011.06 0.14312 -3.46404 0
M  V30 32409 C 3010.12 -0.847449 -4.20852 0
M  V30 32410 C 3009.35 -0.195864 -5.3334 0
M  V30 32411 O 3009.57 1.0116 -5.61358 0
M  V30 32412 O 3008.51 -0.897728 -5.95168 0
M  V30 32413 H 3012.33 -1.41778 -2.68576 0
M  V30 32414 H 3009.92 -0.75489 -1.28925 0
M  V30 32415 H 3011.8 0.526602 -4.18097 0
M  V30 32416 H 3010.48 0.994539 -3.08043 0
M  V30 32417 H 3009.38 -1.28175 -3.51457 0
M  V30 32418 H 3010.72 -1.66788 -4.63079 0
M  V30 32419 N 3012.37 1.38098 -0.759394 0
M  V30 32420 C 3013.3 2.28046 -0.0838762 0
M  V30 32421 C 3014.28 1.45681 0.722204 0
M  V30 32422 O 3015.46 1.75037 0.699598 0
M  V30 32423 C 3012.59 3.26856 0.887859 0
M  V30 32424 C 3011.64 4.26172 0.167299 0
M  V30 32425 S 3012.47 5.23312 -1.13601 0
M  V30 32426 C 3013.62 6.25676 -0.167495 0
M  V30 32427 H 3013.86 2.84991 -0.846614 0
M  V30 32428 H 3011.39 1.44187 -0.552231 0
M  V30 32429 H 3013.35 3.84296 1.44315 0
M  V30 32430 H 3012.01 2.68882 1.62361 0
M  V30 32431 H 3011.2 4.95836 0.90348 0
M  V30 32432 H 3010.8 3.72657 -0.316637 0
M  V30 32433 H 3013.1 6.74234 0.66448 0
M  V30 32434 H 3014.04 7.03196 -0.83196 0
M  V30 32435 H 3014.45 5.64087 0.21579 0
M  V30 32436 N 3013.85 0.508932 1.49156 0
M  V30 32437 C 3015.09 -0.0327627 2.02473 0
M  V30 32438 C 3015.42 -1.36259 1.38794 0
M  V30 32439 O 3014.68 -1.88786 0.515609 0
M  V30 32440 C 3014.97 -0.225654 3.56687 0
M  V30 32441 C 3014.64 1.02716 4.39045 0
M  V30 32442 C 3013.3 1.37056 4.61269 0
M  V30 32443 C 3015.65 1.85954 4.86899 0
M  V30 32444 C 3012.98 2.54571 5.28593 0
M  V30 32445 C 3015.33 3.02629 5.55516 0
M  V30 32446 C 3014 3.3734 5.75984 0
M  V30 32447 H 3013.27 -0.0119887 0.740903 0
M  V30 32448 H 3015.92 0.670697 1.79371 0
M  V30 32449 H 3014.22 -1.01171 3.78512 0
M  V30 32450 H 3015.92 -0.659363 3.95542 0
M  V30 32451 H 3012.51 0.749689 4.21992 0
M  V30 32452 H 3016.69 1.60738 4.6955 0
M  V30 32453 H 3011.95 2.81692 5.42641 0
M  V30 32454 H 3016.12 3.67449 5.91569 0
M  V30 32455 H 3013.75 4.28501 6.27926 0
M  V30 32456 N 3015.32 -1.55714 0.243111 0
M  V30 32457 C 3016.26 -2.18544 -0.690728 0
M  V30 32458 C 3017.27 -1.16066 -1.1416 0
M  V30 32459 O 3018.46 -1.42947 -1.06903 0
M  V30 32460 C 3015.56 -2.77171 -1.95011 0
M  V30 32461 C 3014.73 -4.05032 -1.6513 0
M  V30 32462 C 3013.79 -4.48013 -2.7599 0
M  V30 32463 O 3012.82 -5.14469 -2.43538 0
M  V30 32464 N 3014.02 -4.15483 -4.05406 0
M  V30 32465 H 3016.78 -2.99308 -0.15315 0
M  V30 32466 H 3014.34 -1.61778 0.0629252 0
M  V30 32467 H 3016.34 -3.02885 -2.68408 0
M  V30 32468 H 3014.91 -2.00586 -2.39758 0
M  V30 32469 H 3014.13 -3.86947 -0.7527 0
M  V30 32470 H 3015.41 -4.88401 -1.42625 0
M  V30 32471 H 3014.81 -3.62124 -4.34606 0
M  V30 32472 H 3013.37 -4.46041 -4.7528 0
M  V30 32473 N 3016.8 0.030048 -1.57571 0
M  V30 32474 C 3017.75 1.03097 -2.06494 0
M  V30 32475 C 3018.72 1.35979 -0.953886 0
M  V30 32476 O 3019.9 1.46333 -1.22439 0
M  V30 32477 C 3017.04 2.32714 -2.5483 0
M  V30 32478 C 3016.16 2.05999 -3.79721 0
M  V30 32479 C 3015.29 3.29479 -4.16674 0
M  V30 32480 C 3014.33 2.98315 -5.34485 0
M  V30 32481 N 3013.47 4.14244 -5.66874 0
M  V30 32482 H 3018.31 0.606826 -2.91756 0
M  V30 32483 H 3015.85 0.288013 -1.44253 0
M  V30 32484 H 3017.8 3.08446 -2.80921 0
M  V30 32485 H 3016.43 2.72853 -1.72486 0
M  V30 32486 H 3015.49 1.20768 -3.6072 0
M  V30 32487 H 3016.8 1.79009 -4.65572 0
M  V30 32488 H 3015.95 4.1358 -4.43888 0
M  V30 32489 H 3014.69 3.59582 -3.29472 0
M  V30 32490 H 3013.7 2.12616 -5.07025 0
M  V30 32491 H 3014.92 2.69491 -6.23339 0
M  V30 32492 H 3012.87 4.44299 -4.82632 0
M  V30 32493 H 3012.78 3.90674 -6.47233 0
M  V30 32494 H 3014.05 4.99221 -5.98664 0
M  V30 32495 N 3018.28 1.54674 0.3023 0
M  V30 32496 C 3019.51 1.77883 1.05666 0
M  V30 32497 C 3019.92 0.53768 1.80982 0
M  V30 32498 O 3019.28 -0.492436 1.75731 0
M  V30 32499 C 3019.33 2.98561 2.03823 0
M  V30 32500 O 3019.05 4.17879 1.31563 0
M  V30 32501 C 3020.55 3.34148 2.91308 0
M  V30 32502 H 3017.77 0.5933 0.313426 0
M  V30 32503 H 3020.32 2.01621 0.341968 0
M  V30 32504 H 3018.47 2.77035 2.70796 0
M  V30 32505 H 3018.89 4.85906 1.97472 0
M  V30 32506 H 3020.36 4.21833 3.56035 0
M  V30 32507 H 3020.84 2.52246 3.5954 0
M  V30 32508 H 3021.44 3.57828 2.29867 0
M  V30 32509 N 3019.76 -0.565428 1.47108 0
M  V30 32510 C 3021.01 -1.32035 1.53007 0
M  V30 32511 C 3021.33 -1.94067 0.190487 0
M  V30 32512 O 3020.6 -1.79495 -0.784751 0
M  V30 32513 H 3019.18 -0.490284 0.563587 0
M  V30 32514 H 3021.84 -0.660896 1.83353 0
M  V30 32515 H 3020.94 -2.11814 2.29219 0
M  V30 32516 N 3021.24 -1.35102 -0.811492 0
M  V30 32517 C 3022.46 -1.31204 -1.59979 0
M  V30 32518 C 3022.88 0.111519 -1.8847 0
M  V30 32519 O 3022.24 1.06203 -1.48416 0
M  V30 32520 C 3022.29 -2.1119 -2.93396 0
M  V30 32521 O 3022.01 -3.47994 -2.66142 0
M  V30 32522 C 3023.51 -2.1482 -3.87772 0
M  V30 32523 H 3020.73 -0.450908 -0.496913 0
M  V30 32524 H 3023.27 -1.77884 -1.00883 0
M  V30 32525 H 3021.43 -1.68121 -3.49019 0
M  V30 32526 H 3021.84 -3.89478 -3.51294 0
M  V30 32527 H 3023.32 -2.75187 -4.78515 0
M  V30 32528 H 3023.79 -1.14563 -4.23995 0
M  V30 32529 H 3024.4 -2.58028 -3.38085 0
M  V30 32530 N 3022.71 1.03306 -1.19019 0
M  V30 32531 C 3023.96 1.77022 -1.00174 0
M  V30 32532 C 3024.32 1.86745 0.463029 0
M  V30 32533 O 3023.61 1.37011 1.33935 0
M  V30 32534 C 3023.8 3.19619 -1.59932 0
M  V30 32535 C 3023.63 3.23796 -3.12067 0
M  V30 32536 C 3022.4 3.31986 -3.80938 0
M  V30 32537 C 3024.6 3.11183 -4.09475 0
M  V30 32538 N 3022.58 3.25493 -5.20507 0
M  V30 32539 C 3023.95 3.12275 -5.35616 0
M  V30 32540 C 3026.01 2.9528 -4.00892 0
M  V30 32541 C 3024.71 2.99098 -6.54166 0
M  V30 32542 C 3026.74 2.8345 -5.19047 0
M  V30 32543 C 3026.1 2.85194 -6.44084 0
M  V30 32544 H 3022.2 0.659228 -0.420645 0
M  V30 32545 H 3024.78 1.23007 -1.50922 0
M  V30 32546 H 3022.95 3.71964 -1.11791 0
M  V30 32547 H 3024.68 3.81674 -1.34563 0
M  V30 32548 H 3021.44 3.38033 -3.31708 0
M  V30 32549 H 3021.86 3.25665 -5.93525 0
M  V30 32550 H 3026.51 2.92756 -3.05047 0
M  V30 32551 H 3024.22 3.00372 -7.50201 0
M  V30 32552 H 3027.81 2.72188 -5.14203 0
M  V30 32553 H 3026.69 2.76137 -7.33974 0
M  V30 32554 N 3024.19 0.99344 1.22346 0
M  V30 32555 C 3025.42 0.687761 1.95665 0
M  V30 32556 C 3025.84 -0.741131 1.72884 0
M  V30 32557 O 3025.2 -1.50669 1.00839 0
M  V30 32558 C 3025.25 1.00004 3.46456 0
M  V30 32559 O 3024.35 0.099011 4.12281 0
M  V30 32560 H 3023.69 0.257357 0.612098 0
M  V30 32561 H 3026.22 1.33056 1.55426 0
M  V30 32562 H 3026.23 0.942105 3.96974 0
M  V30 32563 H 3024.91 2.04125 3.62362 0
M  V30 32564 H 3023.49 0.212478 3.72294 0
M  V30 32565 N 3025.67 -1.37693 0.766707 0
M  V30 32566 C 3027.08 -1.82478 0.394793 0
M  V30 32567 C 3027.43 -1.63906 -1.07839 0
M  V30 32568 O 3026.56 -1.1474 -1.83477 0
M  V30 32569 C 3027.15 -3.31281 0.709798 0
M  V30 32570 C 3025.71 -3.74364 0.391002 0
M  V30 32571 C 3024.86 -2.60291 0.956238 0
M  V30 32572 H 3027.81 -1.26236 0.961778 0
M  V30 32573 H 3027.83 -3.80499 -0.00735456 0
M  V30 32574 H 3027.34 -3.44767 1.78206 0
M  V30 32575 H 3025.44 -3.66451 -0.674148 0
M  V30 32576 H 3025.56 -4.70652 0.895728 0
M  V30 32577 H 3023.92 -2.51837 0.380788 0
M  V30 32578 H 3024.7 -2.76571 2.0338 0
M  V30 32579 N 3027.15 -0.516835 -1.48884 0
M  V30 32580 C 3028.06 0.257252 -2.33185 0
M  V30 32581 C 3029.07 0.951926 -1.45652 0
M  V30 32582 O 3030.25 0.929803 -1.78652 0
M  V30 32583 C 3027.32 1.29845 -3.21467 0
M  V30 32584 C 3026.38 0.615533 -4.24864 0
M  V30 32585 C 3025.61 1.60713 -5.08927 0
M  V30 32586 O 3025.83 2.83854 -4.94755 0
M  V30 32587 O 3024.77 1.15374 -5.90739 0
M  V30 32588 H 3028.59 -0.433183 -3.00595 0
M  V30 32589 H 3026.18 -0.277934 -1.46792 0
M  V30 32590 H 3028.06 1.90048 -3.76111 0
M  V30 32591 H 3026.73 1.97153 -2.56734 0
M  V30 32592 H 3025.64 -0.0266486 -3.74091 0
M  V30 32593 H 3026.97 -0.0153736 -4.92198 0
M  V30 32594 N 3028.63 1.55583 -0.251365 0
M  V30 32595 C 3029.56 2.18907 0.679128 0
M  V30 32596 C 3030.57 1.16669 1.13543 0
M  V30 32597 O 3031.76 1.43512 1.06144 0
M  V30 32598 C 3028.86 2.78201 1.93539 0
M  V30 32599 C 3028.03 4.05902 1.6298 0
M  V30 32600 C 3027.09 4.49471 2.7361 0
M  V30 32601 O 3026.12 5.15753 2.40806 0
M  V30 32602 N 3027.32 4.17627 4.03197 0
M  V30 32603 H 3030.09 2.99385 0.137275 0
M  V30 32604 H 3027.65 1.61742 -0.0715038 0
M  V30 32605 H 3029.64 3.04304 2.66798 0
M  V30 32606 H 3028.21 2.01855 2.38691 0
M  V30 32607 H 3027.43 3.87341 0.732169 0
M  V30 32608 H 3028.72 4.89151 1.40033 0
M  V30 32609 H 3028.11 3.64424 4.3268 0
M  V30 32610 H 3026.67 4.48555 4.72908 0
M  V30 32611 N 3030.1 -0.0216912 1.57585 0
M  V30 32612 C 3031.35 -0.709608 1.89233 0
M  V30 32613 C 3031.67 -1.755 0.849995 0
M  V30 32614 O 3030.94 -1.9556 -0.115451 0
M  V30 32615 H 3029.52 -0.26508 0.698385 0
M  V30 32616 H 3032.19 0.0141031 1.94895 0
M  V30 32617 H 3031.28 -1.19454 2.88335 0
M  V30 32618 N 3031.58 -1.54832 -0.294093 0
M  V30 32619 C 3032.99 -1.65368 -0.866622 0
M  V30 32620 C 3033.35 -0.566843 -1.87833 0
M  V30 32621 O 3032.47 0.295351 -2.14375 0
M  V30 32622 C 3033.07 -2.99774 -1.57864 0
M  V30 32623 C 3031.62 -3.12408 -2.09948 0
M  V30 32624 C 3030.77 -2.61081 -0.934446 0
M  V30 32625 H 3033.72 -1.58541 -0.0709273 0
M  V30 32626 H 3033.74 -2.91584 -2.44457 0
M  V30 32627 H 3033.26 -3.78855 -0.842053 0
M  V30 32628 H 3031.36 -2.3806 -2.86632 0
M  V30 32629 H 3031.47 -4.18667 -2.32927 0
M  V30 32630 H 3029.83 -2.17707 -1.32195 0
M  V30 32631 H 3030.62 -3.42647 -0.211708 0
M  V30 32632 N 3033.06 0.557619 -1.47405 0
M  V30 32633 C 3034.47 1.13974 -1.47874 0
M  V30 32634 C 3034.82 1.94809 -0.23321 0
M  V30 32635 O 3033.95 2.06028 0.661908 0
M  V30 32636 C 3034.54 2.07363 -2.67929 0
M  V30 32637 C 3033.1 2.60848 -2.71359 0
M  V30 32638 C 3032.25 1.37219 -2.40969 0
M  V30 32639 H 3035.2 0.344241 -1.54921 0
M  V30 32640 H 3035.22 2.91232 -2.44876 0
M  V30 32641 H 3034.73 1.48502 -3.58565 0
M  V30 32642 H 3032.83 3.23508 -1.84861 0
M  V30 32643 H 3032.95 3.01869 -3.72037 0
M  V30 32644 H 3031.31 1.67878 -1.91543 0
M  V30 32645 H 3032.09 0.801524 -3.33812 0
M  V30 32646 N 3034.54 1.35531 0.804316 0
M  V30 32647 C 3035.77 1.32051 1.5928 0
M  V30 32648 C 3036.18 -0.101523 1.88527 0
M  V30 32649 O 3035.54 -1.05414 1.48977 0
M  V30 32650 C 3035.59 2.12742 2.92272 0
M  V30 32651 O 3035.31 3.49401 2.64293 0
M  V30 32652 C 3036.81 2.16874 3.86627 0
M  V30 32653 H 3034.03 0.453537 0.494515 0
M  V30 32654 H 3036.58 1.78417 0.999384 0
M  V30 32655 H 3034.73 1.6997 3.48122 0
M  V30 32656 H 3035.15 3.91335 3.49224 0
M  V30 32657 H 3036.62 2.7772 4.77049 0
M  V30 32658 H 3037.1 1.1681 4.23382 0
M  V30 32659 H 3037.7 2.59817 3.36712 0
M  V30 32660 N 3036.02 -1.02674 1.19565 0
M  V30 32661 C 3037.29 -1.73201 0.908887 0
M  V30 32662 C 3037.67 -2.02835 -0.584892 0
M  V30 32663 O 3037.02 -1.68471 -1.54369 0
M  V30 32664 C 3037.23 -3.00721 1.77111 0
M  V30 32665 C 3038.58 -3.74186 2.00673 0
M  V30 32666 O 3039.6 -3.10653 1.7428 0
M  V30 32667 O 3038.46 -4.8841 2.45189 0
M  V30 32668 H 3035.56 -0.754361 0.338922 0
M  V30 32669 H 3038.1 -1.08613 1.30389 0
M  V30 32670 H 3036.88 -2.75065 2.78307 0
M  V30 32671 H 3036.5 -3.73048 1.37552 0
M  V30 32672 N 3037.5 -0.999914 -1.21817 0
M  V30 32673 C 3038.43 -0.500926 -2.22634 0
M  V30 32674 C 3039.41 0.442609 -1.5646 0
M  V30 32675 O 3040.59 0.366518 -1.84902 0
M  V30 32676 C 3037.72 0.272987 -3.37598 0
M  V30 32677 C 3036.76 -0.617586 -4.22005 0
M  V30 32678 S 3037.6 -2.07702 -4.93579 0
M  V30 32679 C 3038.75 -1.31279 -6.11978 0
M  V30 32680 H 3038.99 -1.35521 -2.64616 0
M  V30 32681 H 3036.52 -0.807442 -1.31604 0
M  V30 32682 H 3038.48 0.713444 -4.04253 0
M  V30 32683 H 3037.14 1.10263 -2.9411 0
M  V30 32684 H 3036.33 -0.0217429 -5.03995 0
M  V30 32685 H 3035.93 -0.995103 -3.60519 0
M  V30 32686 H 3038.22 -0.584052 -6.74978 0
M  V30 32687 H 3039.17 -2.10823 -6.75988 0
M  V30 32688 H 3039.58 -0.822999 -5.58468 0
M  V30 32689 N 3038.97 1.37284 -0.773999 0
M  V30 32690 C 3040.38 1.82266 -0.404465 0
M  V30 32691 C 3040.74 1.64475 1.06969 0
M  V30 32692 O 3039.86 1.15712 1.82865 0
M  V30 32693 C 3040.46 3.309 -0.727356 0
M  V30 32694 C 3039.01 3.74151 -0.41085 0
M  V30 32695 C 3038.16 2.5978 -0.970029 0
M  V30 32696 H 3041.11 1.25724 -0.96846 0
M  V30 32697 H 3041.13 3.80498 -0.0128243 0
M  V30 32698 H 3040.65 3.43817 -1.80032 0
M  V30 32699 H 3038.75 3.66803 0.654705 0
M  V30 32700 H 3038.86 4.70171 -0.920675 0
M  V30 32701 H 3037.22 2.51632 -0.394138 0
M  V30 32702 H 3038.01 2.75488 -2.04844 0
M  V30 32703 N 3040.45 0.524724 1.48608 0
M  V30 32704 C 3041.4 -0.254358 2.31205 0
M  V30 32705 C 3042.39 -0.940466 1.40896 0
M  V30 32706 O 3043.6 -0.86545 1.57829 0
M  V30 32707 H 3039.97 -0.100894 0.745201 0
M  V30 32708 H 3041.95 0.461928 2.94803 0
M  V30 32709 C 3040.69 -1.29154 3.22823 0
M  V30 32710 H 3040.02 -0.773005 3.92256 0
M  V30 32711 H 3041.46 -1.80818 3.83511 0
M  V30 32712 C 3039.92 -2.32238 2.44064 0
M  V30 32713 O 3040.45 -3.38576 2.16169 0
M  V30 32714 N 3038.65 -2.05316 2.05655 0
M  V30 32715 H 3038.2 -1.18857 2.28541 0
M  V30 32716 H 3038.16 -2.7451 1.5327 0
M  V30 32717 N 3041.93 -1.55447 0.259613 0
M  V30 32718 C 3043.15 -2.04104 -0.368281 0
M  V30 32719 C 3043.58 -1.13728 -1.49825 0
M  V30 32720 O 3042.94 -0.132737 -1.80813 0
M  V30 32721 C 3042.99 -3.50645 -0.841445 0
M  V30 32722 O 3042.09 -3.63384 -1.95001 0
M  V30 32723 H 3041.43 -0.659342 -0.0785112 0
M  V30 32724 H 3043.96 -2.00861 0.389385 0
M  V30 32725 H 3043.97 -3.91712 -1.14131 0
M  V30 32726 H 3042.65 -4.15897 -0.014627 0
M  V30 32727 H 3041.22 -3.34218 -1.65387 0
M  V30 32728 N 3043.41 0.0133338 -1.57594 0
M  V30 32729 C 3044.34 1.03691 -2.04403 0
M  V30 32730 C 3045.35 1.31515 -0.959569 0
M  V30 32731 O 3046.54 1.28725 -1.23661 0
M  V30 32732 C 3043.64 2.37487 -2.41771 0
M  V30 32733 C 3042.81 2.28795 -3.72789 0
M  V30 32734 C 3041.87 3.45169 -3.97171 0
M  V30 32735 O 3040.9 3.23955 -4.68019 0
M  V30 32736 N 3042.1 4.67573 -3.44029 0
M  V30 32737 H 3044.87 0.637823 -2.92834 0
M  V30 32738 H 3042.43 0.200982 -1.60648 0
M  V30 32739 H 3044.42 3.14088 -2.55207 0
M  V30 32740 H 3042.99 2.69185 -1.58929 0
M  V30 32741 H 3042.21 1.3719 -3.69557 0
M  V30 32742 H 3043.5 2.20146 -4.58708 0
M  V30 32743 H 3042.9 4.87708 -2.86632 0
M  V30 32744 H 3041.45 5.41485 -3.62818 0
M  V30 32745 N 3044.89 1.54985 0.285878 0
M  V30 32746 C 3046.3 1.65825 0.85784 0
M  V30 32747 C 3046.65 0.576796 1.8753 0
M  V30 32748 O 3045.77 -0.283978 2.14529 0
M  V30 32749 C 3046.37 3.00607 1.56272 0
M  V30 32750 C 3044.93 3.13517 2.08288 0
M  V30 32751 C 3044.07 2.61573 0.920587 0
M  V30 32752 H 3047.02 1.58577 0.0625184 0
M  V30 32753 H 3047.05 2.92876 2.42907 0
M  V30 32754 H 3046.56 3.79296 0.82195 0
M  V30 32755 H 3044.66 2.39577 2.85366 0
M  V30 32756 H 3044.77 4.19896 2.30703 0
M  V30 32757 H 3043.14 2.18405 1.31039 0
M  V30 32758 H 3043.92 3.42754 0.193533 0
M  V30 32759 N 3046.36 -0.549794 1.47699 0
M  V30 32760 C 3047.31 -1.67721 1.61159 0
M  V30 32761 C 3048.31 -1.62498 0.478635 0
M  V30 32762 O 3049.51 -1.67593 0.656691 0
M  V30 32763 H 3045.89 -0.555101 0.507313 0
M  V30 32764 H 3047.86 -1.53507 2.55887 0
M  V30 32765 C 3046.61 -3.06056 1.65 0
M  V30 32766 H 3045.93 -3.10761 2.51531 0
M  V30 32767 H 3047.37 -3.84611 1.78466 0
M  V30 32768 C 3045.83 -3.34696 0.384735 0
M  V30 32769 O 3046.36 -3.98437 -0.510987 0
M  V30 32770 N 3044.57 -2.89412 0.262485 0
M  V30 32771 H 3044.11 -2.37719 0.992332 0
M  V30 32772 H 3044.07 -3.08945 -0.583122 0
M  V30 32773 N 3047.84 -1.35955 -0.797117 0
M  V30 32774 C 3049.07 -1.33055 -1.59094 0
M  V30 32775 C 3049.49 0.0874262 -1.87897 0
M  V30 32776 O 3048.85 1.0571 -1.47293 0
M  V30 32777 C 3048.9 -2.15205 -2.89342 0
M  V30 32778 O 3048 -1.53926 -3.82597 0
M  V30 32779 H 3047.34 -0.455759 -0.482887 0
M  V30 32780 H 3049.87 -1.79131 -0.988601 0
M  V30 32781 H 3049.88 -2.27505 -3.38682 0
M  V30 32782 H 3048.56 -3.18288 -2.67705 0
M  V30 32783 H 3047.14 -1.50522 -3.41171 0
M  V30 32784 N 3049.32 1.02038 -1.20108 0
M  V30 32785 C 3050.25 2.10608 -0.904273 0
M  V30 32786 C 3051.27 1.62452 0.106459 0
M  V30 32787 O 3052.45 1.78068 -0.124066 0
M  V30 32788 C 3049.55 3.37255 -0.333483 0
M  V30 32789 C 3048.73 4.14564 -1.39484 0
M  V30 32790 C 3047.79 5.19516 -0.836052 0
M  V30 32791 O 3046.81 5.48645 -1.51583 0
M  V30 32792 N 3048.01 5.79405 0.356429 0
M  V30 32793 H 3050.78 2.36658 -1.83884 0
M  V30 32794 H 3048.34 1.18398 -1.10424 0
M  V30 32795 H 3050.33 4.04663 0.0543859 0
M  V30 32796 H 3048.9 3.08485 0.505554 0
M  V30 32797 H 3048.12 3.4218 -1.9572 0
M  V30 32798 H 3049.41 4.62998 -2.10975 0
M  V30 32799 H 3048.81 5.58069 0.926045 0
M  V30 32800 H 3047.37 6.4818 0.685979 0
M  V30 32801 N 3050.8 1.00636 1.21285 0
M  V30 32802 C 3052.02 0.708476 1.94924 0
M  V30 32803 C 3052.45 -0.722752 1.7366 0
M  V30 32804 O 3051.81 -1.49591 1.02432 0
M  V30 32805 C 3051.85 1.03673 3.45376 0
M  V30 32806 O 3050.96 0.142733 4.12153 0
M  V30 32807 H 3050.3 0.263834 0.609334 0
M  V30 32808 H 3052.83 1.34697 1.54006 0
M  V30 32809 H 3052.84 0.984156 3.95952 0
M  V30 32810 H 3051.51 2.07957 3.60176 0
M  V30 32811 H 3050.09 0.251953 3.72048 0
M  V30 32812 N 3052.28 -1.36872 0.781268 0
M  V30 32813 C 3053.52 -1.99749 0.350442 0
M  V30 32814 C 3053.86 -1.61872 -1.0729 0
M  V30 32815 O 3053.13 -0.869521 -1.73982 0
M  V30 32816 C 3053.41 -3.56543 0.504897 0
M  V30 32817 C 3053.27 -4.043 1.97134 0
M  V30 32818 C 3054.59 -4.40018 -0.0850499 0
M  V30 32819 H 3051.7 -0.725657 0.128807 0
M  V30 32820 H 3054.35 -1.62408 0.986089 0
M  V30 32821 H 3052.5 -3.88483 -0.0362323 0
M  V30 32822 H 3054.17 -3.82883 2.57291 0
M  V30 32823 H 3052.41 -3.5614 2.47682 0
M  V30 32824 H 3053.08 -5.13301 2.03042 0
M  V30 32825 H 3055.56 -4.14391 0.376776 0
M  V30 32826 H 3054.43 -5.48874 0.0530979 0
M  V30 32827 H 3054.7 -4.26162 -1.17635 0
M  V30 32828 N 3053.75 -0.532597 -1.48328 0
M  V30 32829 C 3054.66 0.232505 -2.33445 0
M  V30 32830 C 3055.68 0.936424 -1.46653 0
M  V30 32831 O 3056.86 0.910802 -1.79628 0
M  V30 32832 C 3053.92 1.26428 -3.22826 0
M  V30 32833 C 3052.98 0.570436 -4.25493 0
M  V30 32834 C 3052.22 1.55306 -5.10603 0
M  V30 32835 O 3052.44 2.78591 -4.97738 0
M  V30 32836 O 3051.37 1.09102 -5.91929 0
M  V30 32837 H 3055.2 -0.465041 -3.00118 0
M  V30 32838 H 3052.78 -0.293487 -1.46489 0
M  V30 32839 H 3054.67 1.86048 -3.78106 0
M  V30 32840 H 3053.34 1.94419 -2.58811 0
M  V30 32841 H 3052.25 -0.0663244 -3.74041 0
M  V30 32842 H 3053.58 -0.0675769 -4.92154 0
M  V30 32843 N 3055.23 1.55307 -0.267853 0
M  V30 32844 C 3056.17 2.18328 0.663935 0
M  V30 32845 C 3057.14 1.14189 1.15757 0
M  V30 32846 O 3058.33 1.42679 1.23187 0
M  V30 32847 C 3055.45 2.80073 1.90465 0
M  V30 32848 C 3054.5 3.9745 1.54711 0
M  V30 32849 S 3055.33 5.31763 0.631561 0
M  V30 32850 C 3056.49 5.96973 1.88081 0
M  V30 32851 H 3056.72 2.97022 0.128434 0
M  V30 32852 H 3054.26 1.54312 -0.0521562 0
M  V30 32853 H 3056.21 3.16279 2.61683 0
M  V30 32854 H 3054.87 2.01286 2.41128 0
M  V30 32855 H 3054.07 4.39317 2.47014 0
M  V30 32856 H 3053.67 3.6263 0.91519 0
M  V30 32857 H 3055.96 6.15764 2.82562 0
M  V30 32858 H 3056.9 6.91916 1.50527 0
M  V30 32859 H 3057.31 5.26255 2.04244 0
M  V30 32860 N 3056.71 -0.00497598 1.57599 0
M  V30 32861 C 3058.13 -0.360988 1.55464 0
M  V30 32862 C 3058.33 -1.75101 0.997082 0
M  V30 32863 O 3057.38 -2.44548 0.628704 0
M  V30 32864 C 3058.7 -0.240775 2.99734 0
M  V30 32865 C 3060.24 -0.316083 3.114 0
M  V30 32866 C 3060.72 -0.22505 4.57447 0
M  V30 32867 N 3062.21 -0.283104 4.62334 0
M  V30 32868 C 3062.94 -0.23593 5.72914 0
M  V30 32869 N 3062.44 -0.139641 6.92659 0
M  V30 32870 N 3064.23 -0.28743 5.61365 0
M  V30 32871 H 3056.38 0.904393 1.92183 0
M  V30 32872 H 3058.65 0.346205 0.882522 0
M  V30 32873 H 3058.35 0.715404 3.44347 0
M  V30 32874 H 3058.23 -1.02485 3.63011 0
M  V30 32875 H 3060.61 -1.2627 2.6672 0
M  V30 32876 H 3060.7 0.497769 2.5091 0
M  V30 32877 H 3060.34 0.718006 5.02799 0
M  V30 32878 H 3060.27 -1.05732 5.15876 0
M  V30 32879 H 3062.76 -0.359057 3.7619 0
M  V30 32880 H 3063.07 -0.109404 7.72723 0
M  V30 32881 H 3061.42 -0.10534 6.9492 0
M  V30 32882 H 3064.61 -0.360815 4.66707 0
M  V30 32883 H 3064.78 -0.2472 6.47528 0
M  V30 32884 N 3058.19 -1.55135 -0.277654 0
M  V30 32885 C 3059.1 -1.90786 -1.36521 0
M  V30 32886 C 3060.11 -0.804569 -1.54281 0
M  V30 32887 O 3061.29 -1.10321 -1.68497 0
M  V30 32888 C 3058.36 -2.1684 -2.7052 0
M  V30 32889 C 3057.42 -3.40429 -2.61546 0
M  V30 32890 C 3056.65 -3.65231 -3.89155 0
M  V30 32891 O 3056.87 -2.92625 -4.89619 0
M  V30 32892 O 3055.81 -4.58764 -3.89639 0
M  V30 32893 H 3059.63 -2.83356 -1.09285 0
M  V30 32894 H 3057.22 -1.41622 -0.475774 0
M  V30 32895 H 3059.1 -2.35044 -3.4976 0
M  V30 32896 H 3057.77 -1.27453 -2.97552 0
M  V30 32897 H 3056.68 -3.27565 -1.80698 0
M  V30 32898 H 3058.01 -4.3002 -2.39465 0
M  V30 32899 N 3059.67 0.541953 -1.47989 0
M  V30 32900 C 3060.6 1.66387 -1.56175 0
M  V30 32901 C 3061.58 1.5727 -0.412906 0
M  V30 32902 O 3062.76 1.77913 -0.622847 0
M  V30 32903 C 3059.89 3.04723 -1.47857 0
M  V30 32904 C 3058.93 3.32237 -2.67434 0
M  V30 32905 S 3059.77 3.19817 -4.29508 0
M  V30 32906 C 3060.92 4.60621 -4.23768 0
M  V30 32907 H 3061.16 1.5919 -2.51089 0
M  V30 32908 H 3058.69 0.723981 -1.36374 0
M  V30 32909 H 3060.65 3.8451 -1.43744 0
M  V30 32910 H 3059.31 3.09371 -0.543012 0
M  V30 32911 H 3058.5 4.33125 -2.57719 0
M  V30 32912 H 3058.1 2.60098 -2.68747 0
M  V30 32913 H 3060.4 5.51894 -3.92963 0
M  V30 32914 H 3061.34 4.75391 -5.24794 0
M  V30 32915 H 3061.75 4.39383 -3.54405 0
M  V30 32916 N 3061.15 1.36376 0.789896 0
M  V30 32917 C 3062.39 1.30321 1.54469 0
M  V30 32918 C 3062.71 -0.117304 1.94647 0
M  V30 32919 O 3061.98 -1.05746 1.64908 0
M  V30 32920 H 3060.56 0.479404 0.57287 0
M  V30 32921 H 3063.23 1.70667 0.941215 0
M  V30 32922 H 3062.32 1.93028 2.45248 0
M  V30 32923 N 3062.62 -1.014 1.20647 0
M  V30 32924 C 3064.04 -1.27357 0.961889 0
M  V30 32925 C 3064.24 -1.98311 -0.357048 0
M  V30 32926 O 3063.3 -2.28003 -1.08494 0
M  V30 32927 C 3064.61 -2.10605 2.1463 0
M  V30 32928 C 3066.16 -2.23862 2.18757 0
M  V30 32929 C 3066.63 -3.10488 3.36691 0
M  V30 32930 N 3068.12 -3.18077 3.36721 0
M  V30 32931 C 3068.86 -3.85336 4.24622 0
M  V30 32932 N 3068.35 -4.54699 5.22705 0
M  V30 32933 N 3070.15 -3.81886 4.12456 0
M  V30 32934 H 3062.3 -0.537685 2.05482 0
M  V30 32935 H 3064.56 -0.299947 0.899297 0
M  V30 32936 H 3064.27 -1.65808 3.10162 0
M  V30 32937 H 3064.14 -3.11345 2.12941 0
M  V30 32938 H 3066.53 -2.67882 1.23786 0
M  V30 32939 H 3066.61 -1.22622 2.24494 0
M  V30 32940 H 3066.25 -2.67173 4.3195 0
M  V30 32941 H 3066.18 -4.11822 3.28192 0
M  V30 32942 H 3068.67 -2.6869 2.65733 0
M  V30 32943 H 3068.99 -5.03697 5.86096 0
M  V30 32944 H 3067.33 -4.53516 5.26639 0
M  V30 32945 H 3070.52 -3.26845 3.35097 0
M  V30 32946 H 3070.7 -4.34027 4.8117 0
M  V30 32947 N 3064.1 -1.01278 -1.2075 0
M  V30 32948 C 3065.38 -0.615145 -1.85675 0
M  V30 32949 C 3065.76 0.906942 -1.90625 0
M  V30 32950 O 3065.11 1.79709 -1.41127 0
M  V30 32951 C 3065.32 -1.25852 -3.25518 0
M  V30 32952 C 3066.66 -1.37155 -4.01838 0
M  V30 32953 O 3067.69 -1.21444 -3.34858 0
M  V30 32954 O 3066.55 -1.62504 -5.2178 0
M  V30 32955 H 3063.64 -0.211743 -0.799434 0
M  V30 32956 H 3066.19 -1.10992 -1.2837 0
M  V30 32957 H 3064.96 -2.29874 -3.1666 0
M  V30 32958 H 3064.58 -0.750593 -3.90451 0
M  V30 32959 N 3065.58 1.36456 -0.788516 0
M  V30 32960 C 3066.83 1.98872 -0.359784 0
M  V30 32961 C 3067.15 1.62894 1.07194 0
M  V30 32962 O 3066.42 0.902493 1.73873 0
M  V30 32963 H 3065 0.735594 -0.130042 0
M  V30 32964 H 3067.66 1.66667 -1.01036 0
M  V30 32965 H 3066.76 3.08826 -0.45089 0
M  V30 32966 N 3067.06 0.540456 1.48043 0
M  V30 32967 C 3068.29 0.0145306 2.06595 0
M  V30 32968 C 3068.7 -1.2771 1.39595 0
M  V30 32969 O 3068.04 -1.77296 0.480825 0
M  V30 32970 C 3068.1 -0.269253 3.5849 0
M  V30 32971 C 3067.76 0.930451 4.47428 0
M  V30 32972 C 3068.76 1.83164 4.86567 0
M  V30 32973 C 3066.45 1.1404 4.89183 0
M  V30 32974 C 3068.44 2.92659 5.66241 0
M  V30 32975 C 3066.13 2.23848 5.68626 0
M  V30 32976 C 3067.13 3.1299 6.07064 0
M  V30 32977 O 3066.81 4.20896 6.8491 0
M  V30 32978 H 3066.55 0.0351586 0.675085 0
M  V30 32979 H 3069.1 0.748563 1.91274 0
M  V30 32980 H 3067.33 -1.05739 3.71963 0
M  V30 32981 H 3069.02 -0.738525 3.99125 0
M  V30 32982 H 3069.78 1.68142 4.54921 0
M  V30 32983 H 3065.66 0.455797 4.58741 0
M  V30 32984 H 3069.21 3.62265 5.96163 0
M  V30 32985 H 3065.1 2.3885 5.99684 0
M  V30 32986 H 3065.87 4.18736 7.0328 0
M  V30 32987 N 3068.54 -1.55163 0.276085 0
M  V30 32988 C 3069.76 -2.04483 -0.346612 0
M  V30 32989 C 3070.19 -1.1531 -1.48611 0
M  V30 32990 O 3069.54 -0.151907 -1.80662 0
M  V30 32991 C 3069.59 -3.51518 -0.804207 0
M  V30 32992 O 3068.7 -3.65432 -1.91136 0
M  V30 32993 H 3068.04 -0.660138 -0.0715135 0
M  V30 32994 H 3070.57 -2.00436 0.410667 0
M  V30 32995 H 3070.58 -3.929 -1.0997 0
M  V30 32996 H 3069.25 -4.1589 0.0294854 0
M  V30 32997 H 3067.83 -3.35953 -1.61833 0
M  V30 32998 N 3070.01 -0.00338196 -1.576 0
M  V30 32999 C 3071.29 0.717983 -1.81946 0
M  V30 33000 C 3071.67 1.918 -0.881822 0
M  V30 33001 O 3071.02 2.28397 0.0686716 0
M  V30 33002 C 3071.23 1.12052 -3.30523 0
M  V30 33003 C 3072.58 1.52296 -3.96347 0
M  V30 33004 O 3073.6 1.21422 -3.34866 0
M  V30 33005 O 3072.46 2.0972 -5.04658 0
M  V30 33006 H 3069.55 0.349896 -0.749334 0
M  V30 33007 H 3072.1 -0.0290952 -1.69675 0
M  V30 33008 H 3070.87 0.265309 -3.904 0
M  V30 33009 H 3070.49 1.92659 -3.47805 0
M  V30 33010 N 3071.49 1.5528 0.269423 0
M  V30 33011 C 3072.72 1.80417 1.02296 0
M  V30 33012 C 3073.14 0.577394 1.79019 0
M  V30 33013 O 3072.5 -0.473094 1.75019 0
M  V30 33014 C 3072.55 3.03044 1.9544 0
M  V30 33015 O 3071.65 2.7838 3.04267 0
M  V30 33016 H 3070.99 0.596212 0.292279 0
M  V30 33017 H 3073.52 2.02429 0.297247 0
M  V30 33018 H 3073.53 3.31873 2.37327 0
M  V30 33019 H 3072.21 3.91981 1.3901 0
M  V30 33020 H 3070.78 2.60657 2.66669 0
M  V30 33021 N 3072.97 -0.534097 1.48274 0
M  V30 33022 C 3073.88 -1.66606 1.65165 0
M  V30 33023 C 3074.9 -1.65597 0.534206 0
M  V30 33024 O 3076.07 -1.84623 0.804747 0
M  V30 33025 C 3073.14 -3.03078 1.68359 0
M  V30 33026 C 3072.2 -3.14974 2.91701 0
M  V30 33027 C 3071.43 -4.44936 2.94733 0
M  V30 33028 O 3071.65 -5.31788 2.06295 0
M  V30 33029 O 3070.59 -4.61112 3.86858 0
M  V30 33030 H 3074.41 -1.55293 2.60994 0
M  V30 33031 H 3072 -0.706726 1.31627 0
M  V30 33032 H 3073.88 -3.84249 1.73005 0
M  V30 33033 H 3072.56 -3.14723 0.757033 0
M  V30 33034 H 3071.46 -2.33114 2.9259 0
M  V30 33035 H 3072.8 -3.08243 3.83728 0
M  V30 33036 N 3074.45 -1.36793 -0.782652 0
M  V30 33037 C 3075.4 -1.28194 -1.88548 0
M  V30 33038 C 3076.38 -0.172013 -1.59978 0
M  V30 33039 O 3077.57 -0.405435 -1.72294 0
M  V30 33040 C 3074.7 -1.08027 -3.25861 0
M  V30 33041 C 3073.79 -2.23517 -3.60418 0
M  V30 33042 N 3074.18 -3.48864 -3.66235 0
M  V30 33043 C 3072.48 -2.15431 -3.90519 0
M  V30 33044 C 3073.18 -4.24955 -3.97226 0
M  V30 33045 N 3072.15 -3.5397 -4.1256 0
M  V30 33046 H 3075.96 -2.23134 -1.91281 0
M  V30 33047 H 3073.47 -1.29609 -0.978532 0
M  V30 33048 H 3075.47 -0.999529 -4.04741 0
M  V30 33049 H 3074.13 -0.139939 -3.24398 0
M  V30 33050 H 3075.14 -3.82912 -3.48711 0
M  V30 33051 H 3071.82 -1.29393 -3.96943 0
M  V30 33052 H 3073.21 -5.33387 -4.08593 0
M  V30 33053 N 3075.93 1.00759 -1.21184 0
M  V30 33054 C 3077.16 1.77819 -1.05185 0
M  V30 33055 C 3077.56 1.84891 0.401495 0
M  V30 33056 O 3076.91 1.30746 1.2904 0
M  V30 33057 C 3076.97 3.23371 -1.57071 0
M  V30 33058 C 3076.63 3.39883 -3.05497 0
M  V30 33059 C 3077.63 3.28374 -4.03071 0
M  V30 33060 C 3075.32 3.65409 -3.44647 0
M  V30 33061 C 3077.31 3.4215 -5.37784 0
M  V30 33062 C 3075 3.78827 -4.79513 0
M  V30 33063 C 3075.99 3.67204 -5.75891 0
M  V30 33064 O 3075.68 3.80199 -7.0831 0
M  V30 33065 H 3075.41 0.565757 -0.369993 0
M  V30 33066 H 3077.97 1.27652 -1.60917 0
M  V30 33067 H 3076.2 3.74662 -0.957339 0
M  V30 33068 H 3077.89 3.82097 -1.36956 0
M  V30 33069 H 3078.65 3.08582 -3.74169 0
M  V30 33070 H 3074.53 3.73539 -2.70166 0
M  V30 33071 H 3078.08 3.32995 -6.12993 0
M  V30 33072 H 3073.97 3.98123 -5.08103 0
M  V30 33073 H 3074.74 3.97163 -7.15684 0
M  V30 33074 N 3077.4 1.01917 1.20211 0
M  V30 33075 C 3078.33 0.612063 2.25335 0
M  V30 33076 C 3079.32 -0.374156 1.65934 0
M  V30 33077 O 3080.5 -0.259019 1.92465 0
M  V30 33078 C 3077.63 -0.047843 3.47267 0
M  V30 33079 C 3076.58 0.859631 4.19278 0
M  V30 33080 C 3075.91 0.0653594 5.3466 0
M  V30 33081 C 3077.21 2.16888 4.75139 0
M  V30 33082 H 3078.9 1.49084 2.59643 0
M  V30 33083 H 3076.45 0.718285 1.24807 0
M  V30 33084 H 3078.4 -0.344221 4.19992 0
M  V30 33085 H 3077.13 -0.96135 3.12131 0
M  V30 33086 H 3075.79 1.14005 3.48423 0
M  V30 33087 H 3075.43 -0.849877 4.95768 0
M  V30 33088 H 3075.13 0.669721 5.83771 0
M  V30 33089 H 3076.66 -0.224504 6.10187 0
M  V30 33090 H 3078.07 1.93469 5.39669 0
M  V30 33091 H 3076.47 2.72432 5.34697 0
M  V30 33092 H 3077.54 2.83015 3.93739 0
M  V30 33093 N 3078.88 -1.36036 0.795742 0
M  V30 33094 C 3080.29 -1.816 0.433411 0
M  V30 33095 C 3080.64 -1.66156 -1.04338 0
M  V30 33096 O 3079.77 -1.18606 -1.81001 0
M  V30 33097 C 3080.36 -3.29701 0.779908 0
M  V30 33098 C 3078.92 -3.7345 0.470322 0
M  V30 33099 C 3078.07 -2.58204 1.01123 0
M  V30 33100 H 3081.02 -1.24167 0.988339 0
M  V30 33101 H 3081.04 -3.80429 0.0733566 0
M  V30 33102 H 3080.55 -3.40909 1.85479 0
M  V30 33103 H 3078.66 -3.67798 -0.596267 0
M  V30 33104 H 3078.77 -4.68646 0.995358 0
M  V30 33105 H 3077.13 -2.50973 0.434121 0
M  V30 33106 H 3077.92 -2.72195 2.09201 0
M  V30 33107 N 3080.36 -0.5483 -1.47755 0
M  V30 33108 C 3081.29 0.252019 -2.26804 0
M  V30 33109 C 3082.27 0.928366 -1.33492 0
M  V30 33110 O 3083.46 0.949128 -1.62861 0
M  V30 33111 C 3080.58 1.35836 -3.10268 0
M  V30 33112 C 3079.63 0.791505 -4.19091 0
M  V30 33113 S 3080.46 -0.354972 -5.34322 0
M  V30 33114 C 3081.62 0.753401 -6.21349 0
M  V30 33115 H 3081.85 -0.418796 -2.94336 0
M  V30 33116 H 3079.38 -0.33444 -1.50734 0
M  V30 33117 H 3081.34 1.992 -3.58928 0
M  V30 33118 H 3080 2.00097 -2.42116 0
M  V30 33119 H 3079.2 1.62203 -4.77186 0
M  V30 33120 H 3078.8 0.234208 -3.73266 0
M  V30 33121 H 3081.09 1.64768 -6.57159 0
M  V30 33122 H 3082.03 0.210016 -7.07788 0
M  V30 33123 H 3082.44 1.04206 -5.54798 0
M  V30 33124 N 3081.84 1.55014 -0.28431 0
M  V30 33125 C 3082.75 2.26557 0.60902 0
M  V30 33126 C 3083.76 1.29474 1.16244 0
M  V30 33127 O 3084.94 1.62427 1.19078 0
M  V30 33128 C 3082.01 2.97971 1.77241 0
M  V30 33129 C 3081.07 4.10554 1.25475 0
M  V30 33130 C 3080.3 4.78553 2.36269 0
M  V30 33131 O 3080.52 4.45811 3.55821 0
M  V30 33132 O 3079.46 5.6631 2.03904 0
M  V30 33133 H 3083.28 3.03686 0.0291764 0
M  V30 33134 H 3080.87 1.49312 -0.0513728 0
M  V30 33135 H 3082.75 3.4282 2.45056 0
M  V30 33136 H 3081.42 2.23751 2.33917 0
M  V30 33137 H 3080.33 3.70141 0.542794 0
M  V30 33138 H 3081.66 4.86702 0.733623 0
M  V30 33139 N 3083.32 0.0117398 1.57596 0
M  V30 33140 C 3084.56 -0.669309 1.90695 0
M  V30 33141 C 3084.89 -1.73657 0.88703 0
M  V30 33142 O 3084.16 -1.9576 -0.0739435 0
M  V30 33143 H 3082.74 -0.250207 0.703851 0
M  V30 33144 H 3085.4 0.05544 1.94821 0
M  V30 33145 H 3084.49 -1.13311 2.90804 0
M  V30 33146 N 3084.79 -1.55421 -0.261185 0
M  V30 33147 C 3085.73 -1.85538 -1.34568 0
M  V30 33148 C 3086.74 -0.740638 -1.44977 0
M  V30 33149 O 3087.93 -1.01862 -1.46583 0
M  V30 33150 C 3085.03 -2.01383 -2.72577 0
M  V30 33151 C 3084.2 -3.32136 -2.84612 0
M  V30 33152 C 3083.26 -3.379 -4.03373 0
M  V30 33153 O 3082.29 -4.11204 -3.93573 0
M  V30 33154 N 3083.49 -2.66157 -5.15888 0
M  V30 33155 H 3086.25 -2.79147 -1.09073 0
M  V30 33156 H 3083.81 -1.55483 -0.4513 0
M  V30 33157 H 3085.81 -2.02596 -3.50338 0
M  V30 33158 H 3084.38 -1.14585 -2.90842 0
M  V30 33159 H 3083.6 -3.43361 -1.93641 0
M  V30 33160 H 3084.88 -4.18346 -2.89593 0
M  V30 33161 H 3084.28 -2.06306 -5.26739 0
M  V30 33162 H 3082.84 -2.73079 -5.91837 0
M  V30 33163 N 3086.27 0.526227 -1.48555 0
M  V30 33164 C 3087.52 1.27932 -1.56454 0
M  V30 33165 C 3087.84 1.93494 -0.241874 0
M  V30 33166 O 3087.11 1.81513 0.736886 0
M  V30 33167 H 3085.69 0.47517 -0.576388 0
M  V30 33168 H 3088.35 0.612051 -1.8504 0
M  V30 33169 H 3087.45 2.05662 -2.34754 0
M  V30 33170 N 3087.75 1.37206 0.775387 0
M  V30 33171 C 3089.17 1.17926 1.07543 0
M  V30 33172 C 3089.37 0.0129251 2.01496 0
M  V30 33173 O 3088.42 -0.648117 2.4404 0
M  V30 33174 C 3089.74 2.49632 1.67643 0
M  V30 33175 C 3091.28 2.56122 1.79918 0
M  V30 33176 C 3091.76 3.8795 2.43431 0
M  V30 33177 N 3093.25 3.89372 2.50886 0
M  V30 33178 C 3093.98 4.88122 3.00872 0
M  V30 33179 N 3093.48 5.97268 3.51059 0
M  V30 33180 N 3095.27 4.7553 2.99713 0
M  V30 33181 H 3087.42 2.11859 0.151486 0
M  V30 33182 H 3089.69 0.939068 0.129829 0
M  V30 33183 H 3089.39 3.35322 1.06077 0
M  V30 33184 H 3089.27 2.66458 2.66983 0
M  V30 33185 H 3091.65 1.70842 2.40618 0
M  V30 33186 H 3091.74 2.43183 0.793439 0
M  V30 33187 H 3091.38 4.73643 1.83372 0
M  V30 33188 H 3091.31 3.9819 3.44604 0
M  V30 33189 H 3093.8 3.10526 2.15364 0
M  V30 33190 H 3094.11 6.68574 3.87593 0
M  V30 33191 H 3092.46 6.00918 3.49174 0
M  V30 33192 H 3095.65 3.89384 2.59803 0
M  V30 33193 H 3095.82 5.52645 3.3836 0
M  V30 33194 N 3089.23 -1.00115 1.21716 0
M  V30 33195 C 3090.19 -2.07127 0.981374 0
M  V30 33196 C 3091.19 -1.60725 -0.0490833 0
M  V30 33197 O 3092.38 -1.73176 0.188586 0
M  V30 33198 C 3089.51 -3.37494 0.480667 0
M  V30 33199 H 3090.71 -2.29478 1.93079 0
M  V30 33200 H 3088.26 -1.17149 1.03469 0
M  V30 33201 H 3088.99 -3.20825 -0.473495 0
M  V30 33202 H 3088.78 -3.72506 1.224 0
M  V30 33203 H 3090.27 -4.16249 0.335684 0
M  V30 33204 N 3090.71 -1.02553 -1.19669 0
M  V30 33205 C 3091.67 -0.608094 -2.20986 0
M  V30 33206 C 3092.67 0.326506 -1.5745 0
M  V30 33207 O 3093.86 0.113972 -1.73827 0
M  V30 33208 C 3090.99 0.110681 -3.4072 0
M  V30 33209 H 3092.19 -1.50451 -2.59431 0
M  V30 33210 H 3089.74 -0.81633 -1.33288 0
M  V30 33211 H 3090.47 1.02159 -3.07789 0
M  V30 33212 H 3090.26 -0.56084 -3.88068 0
M  V30 33213 H 3091.75 0.389774 -4.15777 0
M  V30 33214 N 3092.19 1.35612 -0.802945 0
M  V30 33215 C 3093.41 2.03645 -0.392882 0
M  V30 33216 C 3093.84 1.60122 0.987047 0
M  V30 33217 O 3093.19 0.77613 1.63847 0
M  V30 33218 C 3093.24 3.57387 -0.480271 0
M  V30 33219 O 3092.35 4.09263 0.507679 0
M  V30 33220 H 3091.69 0.643262 -0.164652 0
M  V30 33221 H 3094.22 1.73285 -1.08782 0
M  V30 33222 H 3094.23 4.06507 -0.348754 0
M  V30 33223 H 3092.9 3.88415 -1.48682 0
M  V30 33224 H 3091.48 3.71377 0.336704 0
M  V30 33225 N 3093.66 0.556128 1.47462 0
M  V30 33226 C 3094.6 -0.239987 2.26935 0
M  V30 33227 C 3095.57 -0.921273 1.33983 0
M  V30 33228 O 3096.76 -0.940477 1.63362 0
M  V30 33229 C 3093.89 -1.34189 3.10984 0
M  V30 33230 C 3092.93 -0.769268 4.19505 0
M  V30 33231 S 3093.76 0.383303 5.34126 0
M  V30 33232 C 3094.92 -0.720439 6.2174 0
M  V30 33233 H 3095.15 0.434399 2.94109 0
M  V30 33234 H 3092.69 0.342429 1.50555 0
M  V30 33235 H 3094.64 -1.97294 3.5998 0
M  V30 33236 H 3093.31 -1.9881 2.43173 0
M  V30 33237 H 3092.5 -1.5967 4.78039 0
M  V30 33238 H 3092.1 -0.21441 3.73385 0
M  V30 33239 H 3094.39 -1.61281 6.58023 0
M  V30 33240 H 3095.34 -0.172478 7.0789 0
M  V30 33241 H 3095.74 -1.01262 5.55343 0
M  V30 33242 N 3095.14 -1.54861 0.292527 0
M  V30 33243 C 3096.55 -1.85606 -0.201808 0
M  V30 33244 C 3096.9 -1.21451 -1.54091 0
M  V30 33245 O 3096.03 -0.509116 -2.10326 0
M  V30 33246 C 3096.62 -3.36741 -0.372952 0
M  V30 33247 C 3095.18 -3.67548 -0.81151 0
M  V30 33248 C 3094.33 -2.77169 0.085107 0
M  V30 33249 H 3097.28 -1.50153 0.5138 0
M  V30 33250 H 3097.3 -3.60787 -1.20885 0
M  V30 33251 H 3096.81 -3.83405 0.601818 0
M  V30 33252 H 3094.91 -3.26395 -1.79713 0
M  V30 33253 H 3095.03 -4.7485 -0.636769 0
M  V30 33254 H 3093.39 -2.50972 -0.43418 0
M  V30 33255 H 3094.17 -3.26653 1.05608 0
M  V30 33256 N 3096.62 -0.0200973 -1.57587 0
M  V30 33257 C 3098.04 0.336209 -1.56019 0
M  V30 33258 C 3098.24 1.73493 -1.02481 0
M  V30 33259 O 3097.29 2.43517 -0.66753 0
M  V30 33260 C 3098.6 0.193059 -3.0008 0
M  V30 33261 C 3100.15 0.266502 -3.11863 0
M  V30 33262 C 3100.63 0.152246 -4.57747 0
M  V30 33263 N 3102.12 0.209515 -4.62726 0
M  V30 33264 C 3102.85 0.144754 -5.73217 0
M  V30 33265 N 3102.35 0.0294269 -6.92794 0
M  V30 33266 N 3104.14 0.198085 -5.61751 0
M  V30 33267 H 3096.29 -0.934853 -1.9072 0
M  V30 33268 H 3098.56 -0.360202 -0.876903 0
M  V30 33269 H 3098.26 -0.770096 -3.43165 0
M  V30 33270 H 3098.14 0.966965 -3.64595 0
M  V30 33271 H 3100.52 1.22011 -2.68696 0
M  V30 33272 H 3100.6 -0.537624 -2.50086 0
M  V30 33273 H 3100.25 -0.797906 -5.01593 0
M  V30 33274 H 3100.18 0.975119 -5.17493 0
M  V30 33275 H 3102.67 0.299163 -3.76714 0
M  V30 33276 H 3102.98 -0.0135429 -7.72799 0
M  V30 33277 H 3101.33 -0.00522954 -6.95 0
M  V30 33278 H 3104.52 0.286521 -4.67222 0
M  V30 33279 H 3104.69 0.144152 -6.4784 0
M  V30 33280 N 3098.1 1.55557 0.252939 0
M  V30 33281 C 3099.03 1.92822 1.31688 0
M  V30 33282 C 3100.01 0.792426 1.50515 0
M  V30 33283 O 3101.19 1.05222 1.63224 0
M  V30 33284 C 3098.32 2.21766 2.67277 0
M  V30 33285 C 3097.28 3.37541 2.63154 0
M  V30 33286 C 3096.6 3.52012 4.02482 0
M  V30 33287 C 3097.9 4.73396 2.20667 0
M  V30 33288 H 3099.6 2.81941 1.00746 0
M  V30 33289 H 3097.14 1.35651 0.483195 0
M  V30 33290 H 3099.1 2.46425 3.41837 0
M  V30 33291 H 3097.82 1.29468 2.99843 0
M  V30 33292 H 3096.48 3.12882 1.91052 0
M  V30 33293 H 3096.13 2.57144 4.32303 0
M  V30 33294 H 3095.83 4.29864 4.00613 0
M  V30 33295 H 3097.35 3.78985 4.78751 0
M  V30 33296 H 3098.77 4.97466 2.84957 0
M  V30 33297 H 3097.16 5.54307 2.29921 0
M  V30 33298 H 3098.23 4.70864 1.15823 0
M  V30 33299 N 3099.58 -0.518341 1.48832 0
M  V30 33300 C 3100.99 -1.10014 1.50844 0
M  V30 33301 C 3101.34 -1.94122 0.284778 0
M  V30 33302 O 3100.46 -2.07711 -0.607051 0
M  V30 33303 C 3101.06 -2.00186 2.73333 0
M  V30 33304 C 3099.62 -2.53561 2.78179 0
M  V30 33305 C 3098.76 -1.30782 2.44523 0
M  V30 33306 H 3101.71 -0.303045 1.5578 0
M  V30 33307 H 3101.74 -2.84637 2.52511 0
M  V30 33308 H 3101.25 -1.38943 3.62376 0
M  V30 33309 H 3099.35 -3.18493 1.93373 0
M  V30 33310 H 3099.46 -2.91899 3.7991 0
M  V30 33311 H 3097.83 -1.62741 1.95927 0
M  V30 33312 H 3098.61 -0.712738 3.3582 0
M  V30 33313 N 3101.05 -1.37615 -0.7681 0
M  V30 33314 C 3102.02 -1.33493 -1.86312 0
M  V30 33315 C 3103.02 -0.238258 -1.59025 0
M  V30 33316 O 3104.21 -0.494318 -1.67039 0
M  V30 33317 C 3101.34 -1.07468 -3.23517 0
M  V30 33318 H 3102.53 -2.30899 -1.91378 0
M  V30 33319 H 3100.08 -1.22698 -0.968245 0
M  V30 33320 H 3100.82 -0.106085 -3.24126 0
M  V30 33321 H 3100.6 -1.86852 -3.44715 0
M  V30 33322 H 3102.09 -1.07243 -4.03595 0
M  V30 33323 N 3102.53 0.994677 -1.22245 0
M  V30 33324 C 3103.44 2.11876 -1.00726 0
M  V30 33325 C 3104.46 1.73945 0.0438884 0
M  V30 33326 O 3105.63 2.00852 -0.148446 0
M  V30 33327 C 3102.7 3.41715 -0.585783 0
M  V30 33328 C 3101.76 3.93759 -1.71034 0
M  V30 33329 C 3100.99 5.17401 -1.30888 0
M  V30 33330 O 3101.22 5.70094 -0.18691 0
M  V30 33331 O 3100.15 5.63152 -2.1247 0
M  V30 33332 H 3103.98 2.32913 -1.94899 0
M  V30 33333 H 3101.56 1.10249 -1.00824 0
M  V30 33334 H 3103.44 4.19851 -0.361009 0
M  V30 33335 H 3102.12 3.22043 0.327109 0
M  V30 33336 H 3101.02 3.16804 -1.98962 0
M  V30 33337 H 3102.36 4.1786 -2.60103 0
M  V30 33338 N 3104.01 1.03186 1.19123 0
M  V30 33339 C 3104.96 0.60882 2.24491 0
M  V30 33340 C 3105.95 -0.360036 1.6553 0
M  V30 33341 O 3107.16 -0.228289 1.78546 0
M  V30 33342 H 3103.53 0.178628 0.730476 0
M  V30 33343 H 3105.5 1.50807 2.57487 0
M  V30 33344 C 3104.25 -0.0214515 3.47693 0
M  V30 33345 H 3103.58 0.715093 3.93353 0
M  V30 33346 H 3105.02 -0.280354 4.23072 0
M  V30 33347 C 3103.47 -1.26891 3.1209 0
M  V30 33348 O 3104 -2.36065 3.25017 0
M  V30 33349 N 3102.21 -1.15881 2.66496 0
M  V30 33350 H 3101.76 -0.270418 2.56177 0
M  V30 33351 H 3101.72 -1.9944 2.43045 0
M  V30 33352 N 3105.49 -1.35184 0.810125 0
M  V30 33353 C 3106.42 -2.28487 0.180621 0
M  V30 33354 C 3107.43 -1.50444 -0.622127 0
M  V30 33355 O 3108.62 -1.72632 -0.453907 0
M  V30 33356 C 3105.72 -3.30121 -0.766389 0
M  V30 33357 C 3104.9 -4.37399 -0.0092434 0
M  V30 33358 C 3103.95 -5.1887 -0.875263 0
M  V30 33359 O 3102.98 -5.68272 -0.324912 0
M  V30 33360 N 3104.18 -5.37325 -2.19686 0
M  V30 33361 H 3106.95 -2.83149 0.98217 0
M  V30 33362 H 3104.51 -1.47571 0.665905 0
M  V30 33363 H 3106.5 -3.81518 -1.35005 0
M  V30 33364 H 3105.07 -2.75948 -1.46873 0
M  V30 33365 H 3104.29 -3.8689 0.755653 0
M  V30 33366 H 3105.58 -5.06213 0.512441 0
M  V30 33367 H 3104.98 -4.98839 -2.66789 0
M  V30 33368 H 3103.53 -5.91888 -2.72968 0
M  V30 33369 N 3106.97 -0.56394 -1.47165 0
M  V30 33370 C 3108.38 -0.224201 -1.58017 0
M  V30 33371 C 3108.58 1.27336 -1.56166 0
M  V30 33372 O 3107.64 2.05396 -1.46863 0
M  V30 33373 C 3108.95 -0.856812 -2.88235 0
M  V30 33374 C 3110.5 -0.828663 -3.01831 0
M  V30 33375 C 3110.97 -1.44047 -4.34758 0
M  V30 33376 N 3112.47 -1.40396 -4.41411 0
M  V30 33377 C 3113.2 -1.8469 -5.42842 0
M  V30 33378 N 3112.7 -2.36872 -6.51048 0
M  V30 33379 N 3114.49 -1.7572 -5.33928 0
M  V30 33380 H 3106.64 -1.53684 -1.46612 0
M  V30 33381 H 3108.9 -0.641283 -0.698184 0
M  V30 33382 H 3108.61 -1.90955 -2.95346 0
M  V30 33383 H 3108.48 -0.353832 -3.75537 0
M  V30 33384 H 3110.87 0.215399 -2.94313 0
M  V30 33385 H 3110.95 -1.36947 -2.16054 0
M  V30 33386 H 3110.6 -2.48363 -4.43033 0
M  V30 33387 H 3110.53 -0.875044 -5.19279 0
M  V30 33388 H 3113.02 -1.02233 -3.63809 0
M  V30 33389 H 3113.33 -2.68577 -7.24628 0
M  V30 33390 H 3111.67 -2.40886 -6.51919 0
M  V30 33391 H 3114.87 -1.34726 -4.48293 0
M  V30 33392 H 3115.04 -2.10558 -6.12837 0
M  V30 33393 N 3108.44 1.54704 -0.300735 0
M  V30 33394 C 3109.86 1.59513 0.0526594 0
M  V30 33395 C 3110.06 1.31771 1.52442 0
M  V30 33396 O 3109.12 1.091 2.27714 0
M  V30 33397 C 3110.43 2.98714 -0.345041 0
M  V30 33398 C 3111.98 3.11618 -0.293785 0
M  V30 33399 C 3112.45 4.53127 -0.666304 0
M  V30 33400 N 3113.94 4.59048 -0.618829 0
M  V30 33401 C 3114.68 5.66614 -0.879546 0
M  V30 33402 N 3114.17 6.82219 -1.20622 0
M  V30 33403 N 3115.97 5.56282 -0.806626 0
M  V30 33404 H 3108.12 1.70997 -1.25991 0
M  V30 33405 H 3110.38 0.798634 -0.510772 0
M  V30 33406 H 3110.09 3.23937 -1.36958 0
M  V30 33407 H 3109.96 3.75994 0.301441 0
M  V30 33408 H 3112.35 2.86144 0.72151 0
M  V30 33409 H 3112.43 2.36494 -0.974886 0
M  V30 33410 H 3112.07 4.79331 -1.67941 0
M  V30 33411 H 3112 5.26587 0.0368649 0
M  V30 33412 H 3114.49 3.76012 -0.377268 0
M  V30 33413 H 3114.81 7.60176 -1.39114 0
M  V30 33414 H 3113.15 6.83771 -1.24425 0
M  V30 33415 H 3116.34 4.64845 -0.551074 0
M  V30 33416 H 3116.52 6.4003 -1.01318 0
M  V30 33417 N 3109.92 0.0284543 1.57574 0
M  V30 33418 C 3111.34 -0.327931 1.56195 0
M  V30 33419 C 3111.54 -1.72947 1.034 0
M  V30 33420 O 3110.59 -2.43159 0.680435 0
M  V30 33421 C 3111.91 -0.177143 3.00178 0
M  V30 33422 C 3113.46 -0.249959 3.12 0
M  V30 33423 C 3113.93 -0.127968 4.57821 0
M  V30 33424 N 3115.42 -0.184973 4.62831 0
M  V30 33425 C 3116.16 -0.114353 5.73286 0
M  V30 33426 N 3115.65 0.00731402 6.928 0
M  V30 33427 N 3117.45 -0.168292 5.61848 0
M  V30 33428 H 3109.6 0.944955 1.90222 0
M  V30 33429 H 3111.86 0.364847 0.87498 0
M  V30 33430 H 3111.57 0.788284 3.42752 0
M  V30 33431 H 3111.44 -0.947616 3.65103 0
M  V30 33432 H 3113.83 -1.20584 2.69339 0
M  V30 33433 H 3113.91 0.550879 2.49798 0
M  V30 33434 H 3113.55 0.824495 5.01163 0
M  V30 33435 H 3113.48 -0.947662 5.18003 0
M  V30 33436 H 3115.97 -0.279181 3.76867 0
M  V30 33437 H 3116.29 0.0545261 7.72781 0
M  V30 33438 H 3114.63 0.042087 6.94987 0
M  V30 33439 H 3117.82 -0.261739 4.67368 0
M  V30 33440 H 3117.99 -0.109794 6.47907 0
M  V30 33441 N 3111.4 -1.55689 -0.244686 0
M  V30 33442 C 3112.65 -1.77273 -0.970494 0
M  V30 33443 C 3112.97 -0.592837 -1.8577 0
M  V30 33444 O 3112.24 0.391289 -1.91952 0
M  V30 33445 H 3110.82 -0.653796 -0.361331 0
M  V30 33446 H 3113.48 -1.9313 -0.2621 0
M  V30 33447 H 3112.58 -2.68508 -1.59091 0
M  V30 33448 N 3112.88 0.510441 -1.49105 0
M  V30 33449 C 3114.29 0.840773 -1.35658 0
M  V30 33450 C 3114.49 1.97837 -0.382459 0
M  V30 33451 O 3113.55 2.5179 0.189286 0
M  V30 33452 C 3114.86 1.18987 -2.76157 0
M  V30 33453 C 3116.41 1.29863 -2.84789 0
M  V30 33454 C 3116.89 1.68107 -4.26033 0
M  V30 33455 N 3118.38 1.75174 -4.28799 0
M  V30 33456 C 3119.11 2.06191 -5.35045 0
M  V30 33457 N 3118.61 2.35496 -6.51547 0
M  V30 33458 N 3120.4 2.07362 -5.22453 0
M  V30 33459 H 3112.55 -0.239857 -2.11041 0
M  V30 33460 H 3114.82 -0.044699 -0.946946 0
M  V30 33461 H 3114.52 0.427423 -3.49093 0
M  V30 33462 H 3114.4 2.13553 -3.10926 0
M  V30 33463 H 3116.78 2.05182 -2.12095 0
M  V30 33464 H 3116.86 0.333713 -2.53614 0
M  V30 33465 H 3116.51 0.933424 -4.99249 0
M  V30 33466 H 3116.44 2.65683 -4.54665 0
M  V30 33467 H 3118.93 1.54724 -3.44773 0
M  V30 33468 H 3119.24 2.58325 -7.28346 0
M  V30 33469 H 3117.59 2.32973 -6.54789 0
M  V30 33470 H 3120.78 1.83937 -4.30447 0
M  V30 33471 H 3120.95 2.31201 -6.05351 0
M  V30 33472 N 3114.36 1.38021 0.760791 0
M  V30 33473 C 3115.77 1.30239 1.33771 0
M  V30 33474 C 3116.12 -0.0450808 1.96148 0
M  V30 33475 O 3115.24 -0.947066 1.94575 0
M  V30 33476 C 3115.84 2.35856 2.43223 0
M  V30 33477 C 3114.4 2.31674 2.96655 0
M  V30 33478 C 3113.54 2.19103 1.69968 0
M  V30 33479 H 3116.5 1.48483 0.560211 0
M  V30 33480 H 3116.52 2.01155 3.22981 0
M  V30 33481 H 3116.03 3.33915 1.97794 0
M  V30 33482 H 3114.13 1.37174 3.46431 0
M  V30 33483 H 3114.24 3.25527 3.51523 0
M  V30 33484 H 3112.61 1.65833 1.93317 0
M  V30 33485 H 3113.39 3.19093 1.26627 0
M  V30 33486 N 3115.83 -0.98818 1.22771 0
M  V30 33487 C 3117.25 -1.25288 0.988687 0
M  V30 33488 C 3117.45 -1.99024 -0.314903 0
M  V30 33489 O 3116.51 -2.30253 -1.03633 0
M  V30 33490 C 3117.82 -2.06005 2.19049 0
M  V30 33491 C 3119.37 -2.19172 2.23456 0
M  V30 33492 C 3119.84 -3.03277 3.43202 0
M  V30 33493 N 3121.33 -3.10863 3.43393 0
M  V30 33494 C 3122.07 -3.76242 4.327 0
M  V30 33495 N 3121.56 -4.43509 5.32232 0
M  V30 33496 N 3123.36 -3.73051 4.20463 0
M  V30 33497 H 3115.51 -0.493978 2.06576 0
M  V30 33498 H 3117.77 -0.280804 0.905457 0
M  V30 33499 H 3117.48 -1.59192 3.13609 0
M  V30 33500 H 3117.35 -3.06759 2.19497 0
M  V30 33501 H 3119.74 -2.65196 1.29441 0
M  V30 33502 H 3119.82 -1.17832 2.27044 0
M  V30 33503 H 3119.46 -2.57951 4.3752 0
M  V30 33504 H 3119.39 -4.04768 3.36854 0
M  V30 33505 H 3121.88 -2.62993 2.71372 0
M  V30 33506 H 3122.2 -4.91152 5.96649 0
M  V30 33507 H 3120.54 -4.42243 5.3614 0
M  V30 33508 H 3123.73 -3.19663 3.41955 0
M  V30 33509 H 3123.91 -4.23723 4.90268 0
M  V30 33510 N 3117.31 -1.03816 -1.18575 0
M  V30 33511 C 3118.56 -0.738607 -1.8812 0
M  V30 33512 C 3118.88 0.735712 -1.80589 0
M  V30 33513 O 3118.15 1.53071 -1.22254 0
M  V30 33514 H 3116.73 -0.27022 -0.696412 0
M  V30 33515 H 3119.39 -1.31438 -1.4391 0
M  V30 33516 H 3118.49 -1.04121 -2.9422 0
M  V30 33517 N 3118.79 1.34753 -0.817283 0
M  V30 33518 C 3119.74 2.31525 -0.223393 0
M  V30 33519 C 3120.73 1.57139 0.632757 0
M  V30 33520 O 3121.94 1.72182 0.524727 0
M  V30 33521 H 3118.31 0.750095 -0.0534897 0
M  V30 33522 H 3120.28 2.79146 -1.05451 0
M  V30 33523 C 3119.03 3.42401 0.604723 0
M  V30 33524 H 3118.36 3.99775 -0.0447367 0
M  V30 33525 H 3119.8 4.12365 0.986471 0
M  V30 33526 C 3118.26 2.86365 1.77473 0
M  V30 33527 O 3118.79 2.80785 2.87268 0
M  V30 33528 N 3116.99 2.43265 1.58966 0
M  V30 33529 H 3116.54 2.48004 0.696554 0
M  V30 33530 H 3116.5 2.06123 2.37404 0
M  V30 33531 N 3120.27 0.571737 1.46864 0
M  V30 33532 C 3121.22 -0.180673 2.31897 0
M  V30 33533 C 3122.21 -0.895165 1.43816 0
M  V30 33534 O 3123.42 -0.8148 1.60502 0
M  V30 33535 H 3119.79 -0.0771349 0.748034 0
M  V30 33536 H 3121.76 0.555484 2.93184 0
M  V30 33537 C 3120.51 -1.18818 3.26768 0
M  V30 33538 H 3119.84 -0.64782 3.94517 0
M  V30 33539 H 3121.28 -1.68526 3.8907 0
M  V30 33540 C 3119.73 -2.24355 2.51329 0
M  V30 33541 O 3120.26 -3.31528 2.26831 0
M  V30 33542 N 3118.47 -1.98669 2.12083 0
M  V30 33543 H 3118.02 -1.11526 2.32206 0
M  V30 33544 H 3117.98 -2.69495 1.61925 0
M  V30 33545 N 3121.75 -1.54542 0.308935 0
M  V30 33546 C 3122.68 -2.26769 -0.556617 0
M  V30 33547 C 3123.66 -1.27015 -1.13142 0
M  V30 33548 O 3124.84 -1.55802 -1.15928 0
M  V30 33549 C 3121.97 -3.01446 -1.72475 0
M  V30 33550 C 3120.93 -4.08414 -1.27994 0
M  V30 33551 C 3120.25 -4.7085 -2.53386 0
M  V30 33552 C 3121.55 -5.20724 -0.405405 0
M  V30 33553 H 3123.25 -2.99365 0.0458144 0
M  V30 33554 H 3120.79 -1.43981 0.0234748 0
M  V30 33555 H 3122.75 -3.50697 -2.33644 0
M  V30 33556 H 3121.47 -2.26441 -2.35355 0
M  V30 33557 H 3120.13 -3.60024 -0.691267 0
M  V30 33558 H 3119.78 -3.92476 -3.14597 0
M  V30 33559 H 3119.48 -5.43097 -2.24321 0
M  V30 33560 H 3121 -5.22868 -3.15343 0
M  V30 33561 H 3122.42 -5.65822 -0.922977 0
M  V30 33562 H 3120.81 -5.99739 -0.208177 0
M  V30 33563 H 3121.88 -4.81568 0.567497 0
M  V30 33564 N 3123.23 -0.0368104 -1.57557 0
M  V30 33565 C 3124.45 0.653673 -1.9683 0
M  V30 33566 C 3124.88 1.64424 -0.913588 0
M  V30 33567 O 3124.23 1.80871 0.124717 0
M  V30 33568 C 3124.28 1.32964 -3.35191 0
M  V30 33569 O 3123.39 2.44507 -3.32099 0
M  V30 33570 H 3122.73 0.171113 -0.641573 0
M  V30 33571 H 3125.26 -0.100947 -2.04351 0
M  V30 33572 H 3125.27 1.68465 -3.71596 0
M  V30 33573 H 3123.94 0.603582 -4.11497 0
M  V30 33574 H 3122.52 2.1106 -3.07422 0
M  V30 33575 N 3124.7 1.55817 0.236426 0
M  V30 33576 C 3125.93 1.82204 0.980263 0
M  V30 33577 C 3126.35 0.613957 1.78539 0
M  V30 33578 O 3125.7 -0.41746 1.77661 0
M  V30 33579 C 3125.75 3.06937 1.90977 0
M  V30 33580 O 3125.48 4.23083 1.13721 0
M  V30 33581 C 3126.98 3.46202 2.76873 0
M  V30 33582 H 3124.2 0.60606 0.28798 0
M  V30 33583 H 3126.74 2.02889 0.256146 0
M  V30 33584 H 3124.9 2.88271 2.58802 0
M  V30 33585 H 3125.31 4.93845 1.76685 0
M  V30 33586 H 3126.78 4.36554 3.37823 0
M  V30 33587 H 3127.26 2.67268 3.48517 0
M  V30 33588 H 3127.87 3.67256 2.14484 0
M  V30 33589 N 3126.18 -0.502526 1.49373 0
M  V30 33590 C 3127.43 -1.25336 1.58031 0
M  V30 33591 C 3127.74 -1.93706 0.271528 0
M  V30 33592 O 3128.95 -2.70467 0.236632 0
M  V30 33593 C 3127.41 -2.27568 2.78821 0
M  V30 33594 C 3127.01 -1.65144 4.16451 0
M  V30 33595 C 3128.76 -3.03489 2.96807 0
M  V30 33596 C 3126.66 -2.65477 5.28466 0
M  V30 33597 H 3125.59 -0.471484 0.588404 0
M  V30 33598 H 3128.25 -0.527409 1.75757 0
M  V30 33599 H 3126.63 -3.03319 2.54585 0
M  V30 33600 H 3127.8 -0.95395 4.50818 0
M  V30 33601 H 3126.12 -1.01618 4.0381 0
M  V30 33602 H 3128.71 -3.78517 3.77662 0
M  V30 33603 H 3129.06 -3.61011 2.07309 0
M  V30 33604 H 3129.59 -2.34853 3.21075 0
M  V30 33605 H 3126.33 -2.12738 6.20018 0
M  V30 33606 H 3125.85 -3.3347 4.98556 0
M  V30 33607 H 3127.53 -3.27933 5.57736 0
M  V30 33608 N 3127.66 -1.38422 -0.75346 0
M  V30 33609 C 3128.88 -1.3805 -1.54781 0
M  V30 33610 C 3129.31 0.027604 -1.8808 0
M  V30 33611 O 3128.67 1.0097 -1.50581 0
M  V30 33612 C 3128.72 -2.24302 -2.82349 0
M  V30 33613 O 3127.82 -1.6602 -3.77506 0
M  V30 33614 H 3127.16 -0.470891 -0.468143 0
M  V30 33615 H 3129.69 -1.82185 -0.931112 0
M  V30 33616 H 3129.7 -2.38165 -3.31273 0
M  V30 33617 H 3128.38 -3.26643 -2.57443 0
M  V30 33618 H 3126.95 -1.613 -3.3621 0
M  V30 33619 N 3129.14 0.981655 -1.23294 0
M  V30 33620 C 3130.41 1.69708 -0.972544 0
M  V30 33621 C 3130.79 2.04866 0.509208 0
M  V30 33622 O 3130.14 1.74085 1.48009 0
M  V30 33623 C 3130.35 2.9394 -1.8815 0
M  V30 33624 C 3131.7 3.66481 -2.14423 0
M  V30 33625 O 3132.72 3.0397 -1.85689 0
M  V30 33626 O 3131.58 4.78974 -2.63147 0
M  V30 33627 H 3128.68 0.741263 -0.366686 0
M  V30 33628 H 3131.22 1.03699 -1.3433 0
M  V30 33629 H 3130 2.64546 -2.88325 0
M  V30 33630 H 3129.62 3.67686 -1.51303 0
M  V30 33631 N 3130.62 1.04444 1.18022 0
M  V30 33632 C 3131.84 0.770195 1.9203 0
M  V30 33633 C 3132.26 -0.67315 1.76392 0
M  V30 33634 O 3131.62 -1.4592 1.09607 0
M  V30 33635 C 3131.67 1.13179 3.43326 0
M  V30 33636 O 3131.39 2.51848 3.58475 0
M  V30 33637 C 3132.89 0.882599 4.34425 0
M  V30 33638 H 3130.11 0.280596 0.609513 0
M  V30 33639 H 3132.65 1.39311 1.49709 0
M  V30 33640 H 3130.81 0.553771 3.83422 0
M  V30 33641 H 3131.22 2.65802 4.52161 0
M  V30 33642 H 3132.7 1.18543 5.39121 0
M  V30 33643 H 3133.17 -0.182492 4.38821 0
M  V30 33644 H 3133.78 1.4441 4.00032 0
M  V30 33645 N 3132.09 -1.34317 0.824418 0
M  V30 33646 C 3133.32 -2.02994 0.42523 0
M  V30 33647 C 3133.74 -1.61672 -0.961448 0
M  V30 33648 O 3133.1 -0.802098 -1.62592 0
M  V30 33649 C 3133.15 -3.56578 0.537067 0
M  V30 33650 O 3132.25 -4.10019 -0.442504 0
M  V30 33651 H 3131.59 -0.640561 0.174864 0
M  V30 33652 H 3134.12 -1.71532 1.11525 0
M  V30 33653 H 3134.13 -4.059 0.413382 0
M  V30 33654 H 3132.81 -3.86001 1.54842 0
M  V30 33655 H 3131.39 -3.71865 -0.277579 0
M  V30 33656 N 3133.57 -0.579517 -1.46558 0
M  V30 33657 C 3134.98 -0.152084 -1.8608 0
M  V30 33658 C 3135.33 1.28402 -1.48348 0
M  V30 33659 O 3134.46 1.96939 -0.896885 0
M  V30 33660 C 3135.05 -0.26923 -3.37729 0
M  V30 33661 C 3133.61 0.10331 -3.76258 0
M  V30 33662 C 3132.76 -0.606638 -2.70583 0
M  V30 33663 H 3135.71 -0.787928 -1.37758 0
M  V30 33664 H 3135.73 0.506273 -3.77117 0
M  V30 33665 H 3135.24 -1.31455 -3.65159 0
M  V30 33666 H 3133.34 1.14889 -3.54445 0
M  V30 33667 H 3133.46 -0.270785 -4.78334 0
M  V30 33668 H 3131.82 -0.0472431 -2.54656 0
M  V30 33669 H 3132.6 -1.65354 -3.00853 0
M  V30 33670 N 3135.05 1.54376 -0.317127 0
M  V30 33671 C 3135.98 2.2033 0.594139 0
M  V30 33672 C 3136.96 1.17814 1.12065 0
M  V30 33673 O 3138.15 1.46526 1.18585 0
M  V30 33674 C 3135.27 2.85991 1.81458 0
M  V30 33675 C 3134.32 4.02171 1.41989 0
M  V30 33676 S 3135.15 5.33503 0.462065 0
M  V30 33677 C 3136.31 6.02654 1.68994 0
M  V30 33678 H 3136.54 2.97281 0.0338738 0
M  V30 33679 H 3134.07 1.54068 -0.101223 0
M  V30 33680 H 3136.03 3.24444 2.51488 0
M  V30 33681 H 3134.69 2.08855 2.34603 0
M  V30 33682 H 3133.89 4.46954 2.32913 0
M  V30 33683 H 3133.49 3.65358 0.799359 0
M  V30 33684 H 3135.78 6.24442 2.62828 0
M  V30 33685 H 3136.72 6.96354 1.28438 0
M  V30 33686 H 3137.13 5.32487 1.87399 0
M  V30 33687 N 3136.53 0.0451655 1.57535 0
M  V30 33688 C 3137.48 -0.931276 2.11177 0
M  V30 33689 C 3138.45 -1.31273 1.01768 0
M  V30 33690 O 3139.63 -1.40325 1.29281 0
M  V30 33691 C 3136.77 -2.20291 2.65643 0
M  V30 33692 C 3135.88 -1.87647 3.89118 0
M  V30 33693 C 3135.02 -3.09224 4.31919 0
M  V30 33694 C 3134.06 -2.72474 5.4811 0
M  V30 33695 N 3133.19 -3.86726 5.85993 0
M  V30 33696 H 3138.03 -0.466934 2.94319 0
M  V30 33697 H 3135.57 -0.21886 1.45463 0
M  V30 33698 H 3137.53 -2.94692 2.95318 0
M  V30 33699 H 3136.16 -2.64312 1.85307 0
M  V30 33700 H 3135.21 -1.0342 3.66072 0
M  V30 33701 H 3136.52 -1.56592 4.73582 0
M  V30 33702 H 3135.68 -3.91931 4.63115 0
M  V30 33703 H 3134.42 -3.43453 3.46253 0
M  V30 33704 H 3133.42 -1.88183 5.16592 0
M  V30 33705 H 3134.65 -2.39444 6.35487 0
M  V30 33706 H 3132.59 -4.20766 5.03281 0
M  V30 33707 H 3132.51 -3.59349 6.65135 0
M  V30 33708 H 3133.78 -4.70089 6.21801 0
M  V30 33709 N 3138.01 -1.5594 -0.228159 0
M  V30 33710 C 3139.42 -1.48783 -0.577557 0
M  V30 33711 C 3139.62 -0.739004 -1.87459 0
M  V30 33712 O 3138.68 -0.275973 -2.50987 0
M  V30 33713 C 3139.99 -2.93302 -0.66291 0
M  V30 33714 C 3141.54 -3.03783 -0.753982 0
M  V30 33715 C 3142.01 -4.49647 -0.870736 0
M  V30 33716 N 3143.51 -4.53662 -0.935128 0
M  V30 33717 C 3144.24 -5.63796 -1.04506 0
M  V30 33718 N 3143.74 -6.83697 -1.11936 0
M  V30 33719 N 3145.53 -5.51633 -1.07968 0
M  V30 33720 H 3137.68 -2.03056 0.623054 0
M  V30 33721 H 3139.94 -0.922663 0.217709 0
M  V30 33722 H 3139.65 -3.51008 0.220437 0
M  V30 33723 H 3139.52 -3.44834 -1.5287 0
M  V30 33724 H 3141.91 -2.46145 -1.62777 0
M  V30 33725 H 3141.99 -2.55431 0.137346 0
M  V30 33726 H 3141.64 -5.079 -0.00142932 0
M  V30 33727 H 3141.57 -4.95698 -1.77738 0
M  V30 33728 H 3144.06 -3.67311 -0.888296 0
M  V30 33729 H 3144.37 -7.63382 -1.20283 0
M  V30 33730 H 3142.71 -6.86421 -1.0886 0
M  V30 33731 H 3145.91 -4.56891 -1.01825 0
M  V30 33732 H 3146.08 -6.37498 -1.16191 0
M  V30 33733 N 3139.48 0.494597 -1.49638 0
M  V30 33734 C 3140.71 1.27688 -1.63433 0
M  V30 33735 C 3141.13 1.85559 -0.308163 0
M  V30 33736 O 3140.49 1.66171 0.725054 0
M  V30 33737 C 3140.54 2.37835 -2.71048 0
M  V30 33738 O 3139.64 3.41858 -2.30666 0
M  V30 33739 H 3138.99 0.376688 -0.546811 0
M  V30 33740 H 3141.52 0.591378 -1.95867 0
M  V30 33741 H 3141.53 2.83503 -2.93411 0
M  V30 33742 H 3140.2 1.95082 -3.67309 0
M  V30 33743 H 3138.78 3.02065 -2.18658 0
M  V30 33744 N 3140.96 1.3882 0.746109 0
M  V30 33745 C 3141.93 1.36441 1.84165 0
M  V30 33746 C 3142.93 0.263527 1.58626 0
M  V30 33747 O 3144.12 0.52083 1.66232 0
M  V30 33748 C 3141.25 1.12601 3.21767 0
M  V30 33749 H 3142.44 2.33915 1.8768 0
M  V30 33750 H 3139.99 1.24222 0.948603 0
M  V30 33751 H 3140.73 0.157637 3.23917 0
M  V30 33752 H 3140.51 1.92313 3.41699 0
M  V30 33753 H 3142 1.1365 4.01838 0
M  V30 33754 N 3142.44 -0.975103 1.23812 0
M  V30 33755 C 3143.67 -1.75756 1.10112 0
M  V30 33756 C 3144.09 -1.84948 -0.34289 0
M  V30 33757 O 3143.45 -1.31498 -1.24812 0
M  V30 33758 C 3143.5 -3.15991 1.7373 0
M  V30 33759 O 3142.6 -4.00016 1.00304 0
M  V30 33760 H 3141.94 -0.540537 0.385636 0
M  V30 33761 H 3144.47 -1.22369 1.63973 0
M  V30 33762 H 3144.48 -3.66547 1.79185 0
M  V30 33763 H 3143.16 -3.08616 2.788 0
M  V30 33764 H 3141.73 -3.58513 1.02581 0
M  V30 33765 N 3143.92 -1.05068 -1.17467 0
M  V30 33766 C 3145.16 -0.761146 -1.87975 0
M  V30 33767 C 3145.5 0.709963 -1.80757 0
M  V30 33768 O 3144.77 1.51904 -1.21472 0
M  V30 33769 C 3145.06 -1.24066 -3.38053 0
M  V30 33770 C 3144.91 -2.77461 -3.54027 0
M  V30 33771 C 3146.23 -0.838688 -4.32035 0
M  V30 33772 H 3143.35 -0.277975 -0.682568 0
M  V30 33773 H 3145.99 -1.30445 -1.38145 0
M  V30 33774 H 3144.14 -0.778455 -3.80621 0
M  V30 33775 H 3145.81 -3.31796 -3.20483 0
M  V30 33776 H 3144.05 -3.16798 -2.96347 0
M  V30 33777 H 3144.72 -3.06074 -4.59372 0
M  V30 33778 H 3147.2 -1.23658 -3.97301 0
M  V30 33779 H 3146.08 -1.20183 -5.35581 0
M  V30 33780 H 3146.34 0.257421 -4.4135 0
M  V30 33781 N 3145.4 1.33878 -0.831529 0
M  V30 33782 C 3146.33 2.31882 -0.274419 0
M  V30 33783 C 3147.31 1.58638 0.613844 0
M  V30 33784 O 3148.49 1.86572 0.538928 0
M  V30 33785 C 3145.62 3.42797 0.557438 0
M  V30 33786 C 3144.58 4.27358 -0.234412 0
M  V30 33787 C 3143.9 5.2982 0.720732 0
M  V30 33788 C 3145.2 5.01844 -1.4474 0
M  V30 33789 H 3146.9 2.78726 -1.09327 0
M  V30 33790 H 3144.44 1.34004 -0.52716 0
M  V30 33791 H 3146.4 4.10379 0.957429 0
M  V30 33792 H 3145.12 2.94623 1.40942 0
M  V30 33793 H 3143.78 3.6139 -0.615874 0
M  V30 33794 H 3143.43 4.77906 1.56891 0
M  V30 33795 H 3143.13 5.87276 0.195068 0
M  V30 33796 H 3144.65 6.0027 1.1184 0
M  V30 33797 H 3146.06 5.62234 -1.12097 0
M  V30 33798 H 3144.46 5.68915 -1.90933 0
M  V30 33799 H 3145.53 4.31041 -2.22107 0
M  V30 33800 N 3146.87 0.587281 1.46249 0
M  V30 33801 C 3148.12 0.0744628 2.01963 0
M  V30 33802 C 3148.44 -1.29187 1.46068 0
M  V30 33803 O 3147.71 -1.84904 0.647109 0
M  V30 33804 H 3146.29 0.0245367 0.746597 0
M  V30 33805 H 3148.96 0.764095 1.79298 0
M  V30 33806 H 3148.05 0.00890379 3.12099 0
M  V30 33807 N 3148.35 -1.54206 0.325309 0
M  V30 33808 C 3149.76 -1.85992 -0.162393 0
M  V30 33809 C 3150.11 -1.24693 -1.5148 0
M  V30 33810 O 3149.24 -0.553615 -2.09199 0
M  V30 33811 C 3149.83 -3.37456 -0.301441 0
M  V30 33812 C 3148.39 -3.69187 -0.733365 0
M  V30 33813 C 3147.54 -2.76926 0.14388 0
M  V30 33814 H 3150.49 -1.49029 0.545534 0
M  V30 33815 H 3150.51 -3.6327 -1.13205 0
M  V30 33816 H 3150.02 -3.82043 0.683009 0
M  V30 33817 H 3148.13 -3.30134 -1.7275 0
M  V30 33818 H 3148.24 -4.76093 -0.535903 0
M  V30 33819 H 3146.6 -2.51837 -0.380848 0
M  V30 33820 H 3147.39 -3.24339 1.12513 0
M  V30 33821 N 3149.83 -0.0535194 -1.57509 0
M  V30 33822 C 3150.78 0.920063 -2.11668 0
M  V30 33823 C 3151.75 1.30731 -1.02462 0
M  V30 33824 O 3152.93 1.39637 -1.30023 0
M  V30 33825 C 3150.07 2.18879 -2.66807 0
M  V30 33826 C 3149.19 1.85581 -3.90107 0
M  V30 33827 C 3148.32 3.06929 -4.33553 0
M  V30 33828 C 3147.36 2.69564 -5.49547 0
M  V30 33829 N 3146.5 3.83613 -5.88036 0
M  V30 33830 H 3151.34 0.451319 -2.94563 0
M  V30 33831 H 3148.87 0.211143 -1.45577 0
M  V30 33832 H 3150.83 2.93122 -2.96876 0
M  V30 33833 H 3149.46 2.63326 -1.86706 0
M  V30 33834 H 3148.51 1.01477 -3.66615 0
M  V30 33835 H 3149.83 1.54078 -4.74406 0
M  V30 33836 H 3148.98 3.89469 -4.65187 0
M  V30 33837 H 3147.72 3.41612 -3.4807 0
M  V30 33838 H 3146.72 1.85441 -5.17583 0
M  V30 33839 H 3147.95 2.36071 -6.36748 0
M  V30 33840 H 3145.9 4.18092 -5.05505 0
M  V30 33841 H 3145.81 3.55816 -6.67031 0
M  V30 33842 H 3147.08 4.66785 -6.24285 0
M  V30 33843 N 3151.31 1.56059 0.219886 0
M  V30 33844 C 3152.27 1.9172 1.25603 0
M  V30 33845 C 3153.27 0.795937 1.39719 0
M  V30 33846 O 3154.46 1.06367 1.37956 0
M  V30 33847 C 3151.59 2.16948 2.62957 0
M  V30 33848 H 3152.79 2.84393 0.951859 0
M  V30 33849 H 3150.34 1.49366 0.460372 0
M  V30 33850 H 3151.08 1.26831 2.9847 0
M  V30 33851 H 3150.86 2.98633 2.54088 0
M  V30 33852 H 3152.35 2.45628 3.37723 0
M  V30 33853 N 3152.79 -0.486655 1.49898 0
M  V30 33854 C 3154.2 -0.819085 1.36979 0
M  V30 33855 C 3154.4 -1.97204 0.413885 0
M  V30 33856 O 3153.46 -2.52059 -0.149205 0
M  V30 33857 C 3154.77 -1.14579 2.78015 0
M  V30 33858 C 3156.32 -1.25316 2.86819 0
M  V30 33859 C 3156.8 -1.61308 4.28653 0
M  V30 33860 N 3158.29 -1.6833 4.31531 0
M  V30 33861 C 3159.02 -1.97652 5.38257 0
M  V30 33862 N 3158.52 -2.25101 6.55211 0
M  V30 33863 N 3160.31 -1.99024 5.25686 0
M  V30 33864 H 3152.46 0.273401 2.10633 0
M  V30 33865 H 3154.72 0.0597585 0.946115 0
M  V30 33866 H 3154.43 -0.371831 3.49729 0
M  V30 33867 H 3154.3 -2.08579 3.14284 0
M  V30 33868 H 3156.69 -2.01782 2.15333 0
M  V30 33869 H 3156.77 -0.293323 2.54113 0
M  V30 33870 H 3156.42 -0.85388 5.00671 0
M  V30 33871 H 3156.35 -2.58416 4.58834 0
M  V30 33872 H 3158.84 -1.4922 3.47191 0
M  V30 33873 H 3159.15 -2.46705 7.32364 0
M  V30 33874 H 3157.5 -2.22527 6.58412 0
M  V30 33875 H 3160.69 -1.77066 4.33319 0
M  V30 33876 H 3160.86 -2.21541 6.08953 0
M  V30 33877 N 3154.27 -1.39214 -0.738737 0
M  V30 33878 C 3155.68 -1.20736 -1.04379 0
M  V30 33879 C 3155.88 -0.0663436 -2.01391 0
M  V30 33880 O 3154.94 0.583186 -2.45673 0
M  V30 33881 C 3156.25 -2.53989 -1.60965 0
M  V30 33882 C 3157.8 -2.60802 -1.73064 0
M  V30 33883 C 3158.27 -3.94268 -2.3306 0
M  V30 33884 N 3159.76 -3.95887 -2.40474 0
M  V30 33885 C 3160.5 -4.95928 -2.87825 0
M  V30 33886 N 3160 -6.06366 -3.351 0
M  V30 33887 N 3161.79 -4.83309 -2.87 0
M  V30 33888 H 3153.94 -2.12186 -0.0952623 0
M  V30 33889 H 3156.2 -0.94218 -0.104885 0
M  V30 33890 H 3155.91 -3.38016 -0.971488 0
M  V30 33891 H 3155.78 -2.73443 -2.59824 0
M  V30 33892 H 3158.17 -1.77161 -2.36004 0
M  V30 33893 H 3158.25 -2.45202 -0.728684 0
M  V30 33894 H 3157.89 -4.78338 -1.70749 0
M  V30 33895 H 3157.82 -4.07187 -3.33926 0
M  V30 33896 H 3160.32 -3.16127 -2.07056 0
M  V30 33897 H 3160.63 -6.78616 -3.6973 0
M  V30 33898 H 3158.97 -6.09965 -3.33119 0
M  V30 33899 H 3162.16 -3.96136 -2.49388 0
M  V30 33900 H 3162.34 -5.61422 -3.23588 0
M  V30 33901 N 3155.74 0.968523 -1.24328 0
M  V30 33902 C 3156.67 2.08077 -1.05954 0
M  V30 33903 C 3157.65 1.70078 0.0272367 0
M  V30 33904 O 3158.84 1.93697 -0.139678 0
M  V30 33905 C 3155.97 3.40919 -0.662683 0
M  V30 33906 C 3154.92 3.9287 -1.69814 0
M  V30 33907 C 3154.25 5.22046 -1.15637 0
M  V30 33908 C 3155.55 4.20803 -3.09391 0
M  V30 33909 H 3157.24 2.23706 -1.98988 0
M  V30 33910 H 3154.79 1.07498 -0.95813 0
M  V30 33911 H 3156.74 4.18165 -0.521144 0
M  V30 33912 H 3155.47 3.25188 0.303342 0
M  V30 33913 H 3154.13 3.1778 -1.82788 0
M  V30 33914 H 3153.77 5.02674 -0.180976 0
M  V30 33915 H 3153.47 5.57773 -1.84832 0
M  V30 33916 H 3155 6.01902 -1.02693 0
M  V30 33917 H 3156.41 4.88756 -2.9965 0
M  V30 33918 H 3154.81 4.67756 -3.75931 0
M  V30 33919 H 3155.88 3.2761 -3.57491 0
M  V30 33920 N 3157.22 1.0569 1.16908 0
M  V30 33921 C 3158.5 0.683633 1.83264 0
M  V30 33922 C 3158.88 -0.835568 1.93859 0
M  V30 33923 O 3158.23 -1.74348 1.47699 0
M  V30 33924 C 3158.44 1.37847 3.20623 0
M  V30 33925 C 3159.78 1.51974 3.96471 0
M  V30 33926 O 3160.81 1.33789 3.3012 0
M  V30 33927 O 3159.67 1.81758 5.1539 0
M  V30 33928 H 3156.76 0.241267 0.791024 0
M  V30 33929 H 3159.31 1.15679 1.24163 0
M  V30 33930 H 3158.08 2.41469 3.0791 0
M  V30 33931 H 3157.7 0.894989 3.87396 0
M  V30 33932 N 3158.7 -1.33435 0.838617 0
M  V30 33933 C 3159.98 -1.9233 0.356145 0
M  V30 33934 C 3160.36 -1.76473 -1.15847 0
M  V30 33935 O 3159.7 -1.15297 -1.97279 0
M  V30 33936 C 3159.91 -3.39642 0.802775 0
M  V30 33937 C 3161.26 -4.1679 0.810648 0
M  V30 33938 O 3162.29 -3.48293 0.746365 0
M  V30 33939 O 3161.15 -5.39069 0.898177 0
M  V30 33940 H 3158.24 -0.820843 0.100726 0
M  V30 33941 H 3160.79 -1.42309 0.924453 0
M  V30 33942 H 3159.56 -3.45054 1.84536 0
M  V30 33943 H 3159.18 -3.9704 0.211026 0
M  V30 33944 N 3160.18 -0.595029 -1.45935 0
M  V30 33945 C 3161.41 -0.0911969 -2.06399 0
M  V30 33946 C 3161.82 1.22441 -1.44239 0
M  V30 33947 O 3161.16 1.75389 -0.546296 0
M  V30 33948 C 3161.22 0.136016 -3.59243 0
M  V30 33949 C 3160.88 -1.09587 -4.43666 0
M  V30 33950 C 3161.88 -2.01096 -4.79433 0
M  V30 33951 C 3159.57 -1.32117 -4.84614 0
M  V30 33952 C 3161.56 -3.13473 -5.54989 0
M  V30 33953 C 3159.25 -2.44798 -5.59926 0
M  V30 33954 C 3160.25 -3.35305 -5.95029 0
M  V30 33955 O 3159.93 -4.46026 -6.68817 0
M  V30 33956 H 3159.67 -0.0601897 -0.673315 0
M  V30 33957 H 3162.22 -0.819038 -1.88364 0
M  V30 33958 H 3160.45 0.91861 -3.75631 0
M  V30 33959 H 3162.14 0.589884 -4.01591 0
M  V30 33960 H 3162.9 -1.8491 -4.48367 0
M  V30 33961 H 3158.78 -0.625742 -4.56733 0
M  V30 33962 H 3162.33 -3.84141 -5.82307 0
M  V30 33963 H 3158.22 -2.60942 -5.90406 0
M  V30 33964 H 3158.99 -4.44549 -6.87254 0
M  V30 33965 N 3161.66 1.54031 -0.333483 0
M  V30 33966 C 3162.88 2.05629 0.270481 0
M  V30 33967 C 3163.31 1.20746 1.44229 0
M  V30 33968 O 3162.66 0.218854 1.79974 0
M  V30 33969 C 3162.71 3.54261 0.673189 0
M  V30 33970 O 3161.82 3.72274 1.77442 0
M  V30 33971 H 3161.16 0.662337 0.0469637 0
M  V30 33972 H 3163.69 1.98774 -0.484774 0
M  V30 33973 H 3163.7 3.96711 0.953124 0
M  V30 33974 H 3162.37 4.15494 -0.18382 0
M  V30 33975 H 3160.95 3.41728 1.49253 0
M  V30 33976 N 3163.13 0.0618717 1.57479 0
M  V30 33977 C 3164.06 -0.906562 2.15183 0
M  V30 33978 C 3165.04 -1.31722 1.07626 0
M  V30 33979 O 3166.23 -1.39003 1.35616 0
M  V30 33980 C 3163.36 -2.17767 2.70546 0
M  V30 33981 C 3162.31 -1.90673 3.83181 0
M  V30 33982 C 3161.64 -3.2433 4.25105 0
M  V30 33983 C 3162.94 -1.21985 5.07855 0
M  V30 33984 H 3164.63 -0.425888 2.96355 0
M  V30 33985 H 3162.18 -0.20341 1.42556 0
M  V30 33986 H 3164.13 -2.85924 3.09557 0
M  V30 33987 H 3162.86 -2.68059 1.8658 0
M  V30 33988 H 3161.52 -1.24925 3.44658 0
M  V30 33989 H 3161.16 -3.72443 3.38075 0
M  V30 33990 H 3160.86 -3.06996 5.01026 0
M  V30 33991 H 3162.39 -3.93701 4.66725 0
M  V30 33992 H 3163.8 -1.80195 5.44245 0
M  V30 33993 H 3162.2 -1.14943 5.88989 0
M  V30 33994 H 3163.27 -0.197451 4.84498 0
M  V30 33995 N 3164.61 -1.56173 -0.211607 0
M  V30 33996 C 3165.52 -1.96404 -1.28306 0
M  V30 33997 C 3166.54 -0.869281 -1.5073 0
M  V30 33998 O 3167.71 -1.17368 -1.63666 0
M  V30 33999 C 3164.78 -2.28119 -2.6108 0
M  V30 34000 C 3163.84 -3.51216 -2.46872 0
M  V30 34001 C 3163.07 -3.81408 -3.73314 0
M  V30 34002 O 3163.3 -3.13128 -4.76767 0
M  V30 34003 O 3162.23 -4.74878 -3.69831 0
M  V30 34004 H 3166.06 -2.87736 -0.971683 0
M  V30 34005 H 3163.64 -1.43512 -0.41528 0
M  V30 34006 H 3165.52 -2.49667 -3.39477 0
M  V30 34007 H 3164.2 -1.39959 -2.91879 0
M  V30 34008 H 3163.11 -3.34935 -1.66642 0
M  V30 34009 H 3164.44 -4.3979 -2.21011 0
M  V30 34010 N 3166.09 0.478699 -1.50154 0
M  V30 34011 C 3167.51 0.811809 -1.37411 0
M  V30 34012 C 3167.71 1.96981 -0.424338 0
M  V30 34013 O 3166.76 2.52134 0.135836 0
M  V30 34014 C 3168.08 1.13103 -2.78618 0
M  V30 34015 C 3169.62 1.23793 -2.87479 0
M  V30 34016 C 3170.1 1.59033 -4.29503 0
M  V30 34017 N 3171.59 1.66039 -4.32418 0
M  V30 34018 C 3172.32 1.94795 -5.39298 0
M  V30 34019 N 3171.82 2.21623 -6.56395 0
M  V30 34020 N 3173.61 1.96233 -5.26734 0
M  V30 34021 H 3165.76 -0.284568 -2.10485 0
M  V30 34022 H 3168.03 -0.0647751 -0.945784 0
M  V30 34023 H 3167.73 0.353279 -3.49921 0
M  V30 34024 H 3167.61 2.0691 -3.15386 0
M  V30 34025 H 3169.99 2.00637 -2.164 0
M  V30 34026 H 3170.08 0.279843 -2.54265 0
M  V30 34027 H 3169.72 0.827316 -5.01117 0
M  V30 34028 H 3169.65 2.55979 -4.60198 0
M  V30 34029 H 3172.14 1.47376 -3.47978 0
M  V30 34030 H 3172.45 2.42817 -7.33662 0
M  V30 34031 H 3170.8 2.19032 -6.59583 0
M  V30 34032 H 3173.99 1.74766 -4.34252 0
M  V30 34033 H 3174.16 2.18309 -6.10119 0
M  V30 34034 N 3167.57 1.39603 0.731343 0
M  V30 34035 C 3168.81 1.37229 1.49318 0
M  V30 34036 C 3169.15 -0.0306161 1.94176 0
M  V30 34037 O 3168.42 -0.996265 1.67047 0
M  V30 34038 C 3168.71 2.34789 2.73031 0
M  V30 34039 C 3168.56 3.84038 2.34169 0
M  V30 34040 C 3169.88 2.30122 3.75142 0
M  V30 34041 H 3167 0.499792 0.541643 0
M  V30 34042 H 3169.64 1.70623 0.835938 0
M  V30 34043 H 3167.79 2.06443 3.2911 0
M  V30 34044 H 3169.46 4.23148 1.83693 0
M  V30 34045 H 3167.7 4.00636 1.66354 0
M  V30 34046 H 3168.37 4.47793 3.22778 0
M  V30 34047 H 3170.85 2.55195 3.28656 0
M  V30 34048 H 3169.73 3.00459 4.59365 0
M  V30 34049 H 3169.99 1.30748 4.22324 0
M  V30 34050 N 3169.05 -0.961916 1.2484 0
M  V30 34051 C 3170.46 -1.52028 1.08371 0
M  V30 34052 C 3170.81 -1.93179 -0.342971 0
M  V30 34053 O 3169.93 -1.77902 -1.23206 0
M  V30 34054 C 3170.53 -2.76274 1.96107 0
M  V30 34055 C 3169.09 -3.28448 1.83845 0
M  V30 34056 C 3168.23 -2.01323 1.90694 0
M  V30 34057 H 3171.19 -0.779588 1.38232 0
M  V30 34058 H 3171.21 -3.49825 1.49676 0
M  V30 34059 H 3170.72 -2.46293 2.99936 0
M  V30 34060 H 3168.82 -3.63267 0.828717 0
M  V30 34061 H 3168.93 -3.96956 2.68258 0
M  V30 34062 H 3167.3 -2.16296 1.34492 0
M  V30 34063 H 3168.08 -1.73699 2.96114 0
M  V30 34064 N 3170.52 -1.06308 -1.16346 0
M  V30 34065 C 3171.94 -0.804249 -1.6849 0
M  V30 34066 C 3172.29 0.672126 -1.84328 0
M  V30 34067 O 3171.41 1.52136 -1.53894 0
M  V30 34068 C 3172.01 -1.45333 -3.06045 0
M  V30 34069 C 3170.57 -1.24227 -3.55309 0
M  V30 34070 C 3169.71 -1.52974 -2.31288 0
M  V30 34071 H 3172.66 -1.22654 -1.00706 0
M  V30 34072 H 3172.68 -0.868739 -3.7045 0
M  V30 34073 H 3172.2 -2.52784 -2.94485 0
M  V30 34074 H 3170.3 -0.187513 -3.72128 0
M  V30 34075 H 3170.41 -1.9551 -4.37393 0
M  V30 34076 H 3168.77 -0.950283 -2.36309 0
M  V30 34077 H 3169.56 -2.61584 -2.22326 0
M  V30 34078 N 3172 1.32989 -0.845682 0
M  V30 34079 C 3172.91 2.32845 -0.286441 0
M  V30 34080 C 3173.93 1.63653 0.591076 0
M  V30 34081 O 3175.1 1.95258 0.493581 0
M  V30 34082 C 3172.17 3.42724 0.523576 0
M  V30 34083 C 3171.23 4.27624 -0.37902 0
M  V30 34084 C 3170.46 5.32255 0.392432 0
M  V30 34085 O 3170.69 5.46811 1.6234 0
M  V30 34086 O 3169.62 6.01433 -0.237106 0
M  V30 34087 H 3173.45 2.8255 -1.11351 0
M  V30 34088 H 3171.03 1.36452 -0.60838 0
M  V30 34089 H 3172.91 4.09759 0.983646 0
M  V30 34090 H 3171.59 2.95223 1.32759 0
M  V30 34091 H 3170.5 3.63431 -0.887076 0
M  V30 34092 H 3171.83 4.78625 -1.14798 0
M  V30 34093 N 3173.48 0.60276 1.45618 0
M  V30 34094 C 3174.39 -0.120861 2.34288 0
M  V30 34095 C 3175.41 -0.865388 1.50954 0
M  V30 34096 O 3176.58 -0.824062 1.83769 0
M  V30 34097 C 3173.65 -1.10882 3.28491 0
M  V30 34098 C 3172.71 -0.366778 4.2773 0
M  V30 34099 C 3171.94 -1.30767 5.17432 0
M  V30 34100 O 3172.16 -2.54526 5.10463 0
M  V30 34101 O 3171.1 -0.807359 5.96461 0
M  V30 34102 H 3174.92 0.607702 2.97558 0
M  V30 34103 H 3172.51 0.363045 1.44922 0
M  V30 34104 H 3174.39 -1.67796 3.86552 0
M  V30 34105 H 3173.07 -1.81849 2.67792 0
M  V30 34106 H 3171.97 0.244709 3.73299 0
M  V30 34107 H 3173.31 0.302313 4.91271 0
M  V30 34108 N 3174.96 -1.53852 0.341647 0
M  V30 34109 C 3175.91 -2.26449 -0.531372 0
M  V30 34110 C 3176.9 -1.28523 -1.10354 0
M  V30 34111 O 3178.11 -1.46238 -1.0495 0
M  V30 34112 H 3174.48 -0.727591 -0.190041 0
M  V30 34113 H 3176.45 -2.98222 0.102974 0
M  V30 34114 C 3175.2 -3.04888 -1.67149 0
M  V30 34115 H 3174.52 -3.80068 -1.24049 0
M  V30 34116 H 3175.96 -3.58901 -2.25756 0
M  V30 34117 C 3174.42 -2.14271 -2.5998 0
M  V30 34118 O 3174.95 -1.73753 -3.62178 0
M  V30 34119 N 3173.16 -1.79389 -2.28622 0
M  V30 34120 H 3172.71 -2.12536 -1.45555 0
M  V30 34121 H 3172.66 -1.1904 -2.90993 0
M  V30 34122 N 3176.44 -0.0702223 -1.57443 0
M  V30 34123 C 3177.37 0.927105 -2.09612 0
M  V30 34124 C 3178.38 1.26243 -1.02793 0
M  V30 34125 O 3179.57 1.21989 -1.30311 0
M  V30 34126 C 3176.67 2.24338 -2.54019 0
M  V30 34127 C 3175.84 2.08713 -3.84393 0
M  V30 34128 C 3174.9 3.2363 -4.14909 0
M  V30 34129 O 3173.93 2.98691 -4.84533 0
M  V30 34130 N 3175.13 4.48679 -3.6833 0
M  V30 34131 H 3177.9 0.481701 -2.95804 0
M  V30 34132 H 3175.46 0.115544 -1.61487 0
M  V30 34133 H 3177.45 3.00119 -2.71497 0
M  V30 34134 H 3176.02 2.60382 -1.72974 0
M  V30 34135 H 3175.24 1.17408 -3.7631 0
M  V30 34136 H 3176.53 1.95522 -4.69733 0
M  V30 34137 H 3175.92 4.71828 -3.12081 0
M  V30 34138 H 3174.48 5.21492 -3.91011 0
M  V30 34139 N 3177.91 1.56283 0.203321 0
M  V30 34140 C 3179.33 1.49683 0.553814 0
M  V30 34141 C 3179.53 0.768734 1.8626 0
M  V30 34142 O 3178.59 0.315868 2.50517 0
M  V30 34143 C 3179.9 2.94319 0.616164 0
M  V30 34144 C 3181.45 3.04944 0.705557 0
M  V30 34145 C 3181.92 4.50975 0.799091 0
M  V30 34146 N 3183.41 4.55093 0.862836 0
M  V30 34147 C 3184.15 5.65387 0.955234 0
M  V30 34148 N 3183.64 6.85392 1.01045 0
M  V30 34149 N 3185.44 5.53281 0.991786 0
M  V30 34150 H 3177.59 2.02039 -0.65528 0
M  V30 34151 H 3179.85 0.919083 -0.23236 0
M  V30 34152 H 3179.56 3.50613 -0.276251 0
M  V30 34153 H 3179.43 3.47222 1.47365 0
M  V30 34154 H 3181.82 2.48704 1.58841 0
M  V30 34155 H 3181.9 2.5518 -0.177966 0
M  V30 34156 H 3181.54 5.07838 -0.0793733 0
M  V30 34157 H 3181.47 4.98463 1.6983 0
M  V30 34158 H 3183.96 3.68678 0.829747 0
M  V30 34159 H 3184.28 7.65199 1.08123 0
M  V30 34160 H 3182.62 6.88066 0.979263 0
M  V30 34161 H 3185.81 4.58453 0.945434 0
M  V30 34162 H 3185.99 6.39266 1.06034 0
M  V30 34163 N 3179.39 -0.470729 1.50406 0
M  V30 34164 C 3180.34 -1.5663 1.65684 0
M  V30 34165 C 3181.33 -1.52555 0.511451 0
M  V30 34166 O 3182.52 -1.59573 0.765872 0
M  V30 34167 C 3179.65 -2.95071 1.75466 0
M  V30 34168 C 3178.73 -3.04028 2.95682 0
M  V30 34169 N 3179.13 -2.82799 4.19355 0
M  V30 34170 C 3177.42 -3.35164 2.94247 0
M  V30 34171 C 3178.12 -2.96732 5.00325 0
M  V30 34172 N 3177.1 -3.26948 4.34288 0
M  V30 34173 H 3180.9 -1.38917 2.58997 0
M  V30 34174 H 3178.42 -0.677464 1.47595 0
M  V30 34175 H 3180.41 -3.73845 1.84514 0
M  V30 34176 H 3179.07 -3.1383 0.833112 0
M  V30 34177 H 3180.08 -2.58374 4.48847 0
M  V30 34178 H 3176.76 -3.59909 2.11593 0
M  V30 34179 H 3178.15 -2.84556 6.08669 0
M  V30 34180 N 3180.87 -1.39989 -0.72393 0
M  V30 34181 C 3181.82 -1.36076 -1.82941 0
M  V30 34182 C 3182.81 -0.23971 -1.59104 0
M  V30 34183 O 3184 -0.478146 -1.70419 0
M  V30 34184 C 3181.13 -1.21751 -3.20985 0
M  V30 34185 C 3180.21 -2.38602 -3.50613 0
M  V30 34186 N 3180.6 -3.64083 -3.51109 0
M  V30 34187 C 3178.9 -2.31801 -3.81031 0
M  V30 34188 C 3179.6 -4.4142 -3.78845 0
M  V30 34189 N 3178.58 -3.7115 -3.97176 0
M  V30 34190 H 3182.38 -2.31046 -1.81645 0
M  V30 34191 H 3179.89 -1.33643 -0.92268 0
M  V30 34192 H 3181.89 -1.17029 -4.00137 0
M  V30 34193 H 3180.55 -0.277401 -3.23513 0
M  V30 34194 H 3181.56 -3.97357 -3.32156 0
M  V30 34195 H 3178.24 -1.46112 -3.91098 0
M  V30 34196 H 3179.63 -5.50236 -3.85603 0
M  V30 34197 N 3182.35 0.955282 -1.25348 0
M  V30 34198 C 3183.28 2.05518 -1.01464 0
M  V30 34199 C 3184.29 1.62787 0.0201969 0
M  V30 34200 O 3185.48 1.7716 -0.218282 0
M  V30 34201 C 3182.58 3.35013 -0.511786 0
M  V30 34202 C 3181.76 4.06587 -1.61263 0
M  V30 34203 C 3180.82 5.14354 -1.11026 0
M  V30 34204 O 3179.84 5.39839 -1.80452 0
M  V30 34205 N 3181.04 5.80479 0.048798 0
M  V30 34206 H 3183.81 2.26578 -1.9617 0
M  V30 34207 H 3181.37 1.12379 -1.16545 0
M  V30 34208 H 3183.36 4.04383 -0.160194 0
M  V30 34209 H 3181.93 3.10731 0.341322 0
M  V30 34210 H 3181.15 3.31325 -2.13583 0
M  V30 34211 H 3182.44 4.51163 -2.35221 0
M  V30 34212 H 3181.84 5.62193 0.628923 0
M  V30 34213 H 3180.39 6.50905 0.341428 0
M  V30 34214 N 3183.83 1.06924 1.1578 0
M  V30 34215 C 3185.24 0.793921 1.38452 0
M  V30 34216 C 3185.44 -0.603841 1.92239 0
M  V30 34217 O 3184.5 -1.36331 2.12532 0
M  V30 34218 C 3185.81 1.86412 2.35947 0
M  V30 34219 C 3187.36 1.88837 2.49619 0
M  V30 34220 C 3187.84 2.94929 3.50401 0
M  V30 34221 N 3189.33 2.94004 3.57933 0
M  V30 34222 C 3190.06 3.72739 4.35722 0
M  V30 34223 N 3189.56 4.6131 5.1688 0
M  V30 34224 N 3191.35 3.61103 4.30768 0
M  V30 34225 H 3183.5 1.97079 0.792067 0
M  V30 34226 H 3185.76 0.854387 0.410764 0
M  V30 34227 H 3185.47 2.86823 2.03532 0
M  V30 34228 H 3185.34 1.72055 3.35674 0
M  V30 34229 H 3187.73 0.890808 2.81334 0
M  V30 34230 H 3187.81 2.07273 1.49906 0
M  V30 34231 H 3187.46 3.94882 3.19422 0
M  V30 34232 H 3187.39 2.73742 4.49859 0
M  V30 34233 H 3189.88 2.29796 3.00003 0
M  V30 34234 H 3190.19 5.18029 5.73468 0
M  V30 34235 H 3188.54 4.65362 5.16201 0
M  V30 34236 H 3191.73 2.91289 3.66427 0
M  V30 34237 H 3191.9 4.22708 4.91144 0
M  V30 34238 N 3185.31 -1.32538 0.852723 0
M  V30 34239 C 3186.72 -1.50103 0.542324 0
M  V30 34240 C 3186.92 -1.78888 -0.927434 0
M  V30 34241 O 3185.98 -1.85731 -1.71057 0
M  V30 34242 C 3187.29 -2.64649 1.42764 0
M  V30 34243 C 3188.84 -2.78534 1.42787 0
M  V30 34244 C 3189.31 -3.96156 2.29835 0
M  V30 34245 N 3190.8 -4.03414 2.2762 0
M  V30 34246 C 3191.54 -4.93656 2.91704 0
M  V30 34247 N 3191.04 -5.88918 3.64893 0
M  V30 34248 N 3192.83 -4.86763 2.81102 0
M  V30 34249 H 3184.98 -1.12119 1.80397 0
M  V30 34250 H 3187.24 -0.552433 0.770404 0
M  V30 34251 H 3186.95 -2.50101 2.4727 0
M  V30 34252 H 3186.82 -3.60386 1.11364 0
M  V30 34253 H 3189.21 -2.92505 0.390468 0
M  V30 34254 H 3189.29 -1.83516 1.78201 0
M  V30 34255 H 3188.93 -3.82943 3.33642 0
M  V30 34256 H 3188.86 -4.90446 1.91755 0
M  V30 34257 H 3191.36 -3.35247 1.74408 0
M  V30 34258 H 3191.67 -6.54469 4.10963 0
M  V30 34259 H 3190.01 -5.88951 3.69001 0
M  V30 34260 H 3193.2 -4.1131 2.23476 0
M  V30 34261 H 3193.38 -5.5689 3.31328 0
M  V30 34262 N 3186.78 -0.610474 -1.45296 0
M  V30 34263 C 3188.2 -0.27436 -1.57224 0
M  V30 34264 C 3188.4 1.22304 -1.60138 0
M  V30 34265 O 3187.46 2.00619 -1.53323 0
M  V30 34266 C 3188.77 -0.948078 -2.85363 0
M  V30 34267 C 3190.32 -0.924269 -2.99042 0
M  V30 34268 C 3190.79 -1.57805 -4.29955 0
M  V30 34269 N 3192.28 -1.54368 -4.36721 0
M  V30 34270 C 3193.02 -2.01867 -5.36691 0
M  V30 34271 N 3192.51 -2.57464 -6.43183 0
M  V30 34272 N 3194.31 -1.92618 -5.28067 0
M  V30 34273 H 3186.46 -1.5827 -1.41648 0
M  V30 34274 H 3188.72 -0.66317 -0.677429 0
M  V30 34275 H 3188.43 -2.00254 -2.89121 0
M  V30 34276 H 3188.3 -0.473127 -3.74221 0
M  V30 34277 H 3190.69 0.121657 -2.94849 0
M  V30 34278 H 3190.77 -1.43751 -2.11587 0
M  V30 34279 H 3190.41 -2.62332 -4.34907 0
M  V30 34280 H 3190.34 -1.03981 -5.16232 0
M  V30 34281 H 3192.83 -1.13756 -3.60372 0
M  V30 34282 H 3193.15 -2.91494 -7.15717 0
M  V30 34283 H 3191.49 -2.61505 -6.43926 0
M  V30 34284 H 3194.68 -1.48919 -4.4378 0
M  V30 34285 H 3194.86 -2.29948 -6.05828 0
M  V30 34286 N 3188.26 1.53669 -0.349801 0
M  V30 34287 C 3189.54 1.9328 0.300385 0
M  V30 34288 C 3189.92 1.28194 1.67719 0
M  V30 34289 O 3189.27 0.435167 2.24318 0
M  V30 34290 C 3189.48 3.47071 0.366405 0
M  V30 34291 C 3190.82 4.20133 0.614275 0
M  V30 34292 O 3191.85 3.53368 0.448265 0
M  V30 34293 O 3190.71 5.38419 0.936327 0
M  V30 34294 H 3187.8 0.807928 0.176585 0
M  V30 34295 H 3190.35 1.64884 -0.401434 0
M  V30 34296 H 3189.12 3.8668 -0.599523 0
M  V30 34297 H 3188.74 3.81653 1.11476 0
M  V30 34298 N 3189.74 0.0785709 1.57404 0
M  V30 34299 C 3191.16 -0.278073 1.57159 0
M  V30 34300 C 3191.36 -1.6957 1.0885 0
M  V30 34301 O 3190.41 -2.40871 0.757449 0
M  V30 34302 C 3191.72 -0.0815539 3.00589 0
M  V30 34303 C 3193.27 -0.150572 3.12638 0
M  V30 34304 C 3193.75 0.017749 4.57997 0
M  V30 34305 N 3195.24 -0.0376331 4.63185 0
M  V30 34306 C 3195.97 0.0680915 5.7336 0
M  V30 34307 N 3195.47 0.227719 6.92426 0
M  V30 34308 N 3197.26 0.0105412 5.62099 0
M  V30 34309 H 3189.41 1.00499 1.87119 0
M  V30 34310 H 3191.68 0.392499 0.86293 0
M  V30 34311 H 3191.38 0.896929 3.40071 0
M  V30 34312 H 3191.26 -0.830981 3.67933 0
M  V30 34313 H 3193.64 -1.11955 2.73039 0
M  V30 34314 H 3193.72 0.630071 2.47919 0
M  V30 34315 H 3193.37 0.983519 4.98286 0
M  V30 34316 H 3193.3 -0.782383 5.20756 0
M  V30 34317 H 3195.79 -0.159142 3.77565 0
M  V30 34318 H 3196.1 0.300353 7.72216 0
M  V30 34319 H 3194.45 0.263171 6.94502 0
M  V30 34320 H 3197.64 -0.112917 4.67964 0
M  V30 34321 H 3197.81 0.0963886 6.47928 0
M  V30 34322 N 3191.22 -1.56389 -0.19503 0
M  V30 34323 C 3192.44 -1.85092 -0.935713 0
M  V30 34324 C 3192.87 -0.662149 -1.7606 0
M  V30 34325 O 3192.23 0.389052 -1.77076 0
M  V30 34326 C 3192.27 -3.12023 -1.80759 0
M  V30 34327 O 3191.38 -2.9258 -2.90638 0
M  V30 34328 H 3190.72 -0.609478 -0.2635 0
M  V30 34329 H 3193.25 -2.03617 -0.200326 0
M  V30 34330 H 3193.26 -3.42818 -2.21223 0
M  V30 34331 H 3191.93 -3.98167 -1.2015 0
M  V30 34332 H 3190.51 -2.73083 -2.53929 0
M  V30 34333 N 3192.7 0.462746 -1.50653 0
M  V30 34334 C 3193.65 1.55749 -1.66512 0
M  V30 34335 C 3194.63 1.52281 -0.519534 0
M  V30 34336 O 3195.82 1.59164 -0.774324 0
M  V30 34337 C 3192.95 2.94136 -1.77028 0
M  V30 34338 C 3192.04 3.02456 -2.9729 0
M  V30 34339 N 3192.43 2.80571 -4.20848 0
M  V30 34340 C 3190.73 3.33599 -2.9602 0
M  V30 34341 C 3191.43 2.94075 -5.01891 0
M  V30 34342 N 3190.4 3.24641 -4.36015 0
M  V30 34343 H 3194.2 1.37541 -2.5973 0
M  V30 34344 H 3191.72 0.669627 -1.47952 0
M  V30 34345 H 3193.72 3.72861 -1.86494 0
M  V30 34346 H 3192.38 3.13384 -0.849743 0
M  V30 34347 H 3193.39 2.5599 -4.5021 0
M  V30 34348 H 3190.06 3.58782 -2.13499 0
M  V30 34349 H 3191.45 2.81324 -6.10169 0
M  V30 34350 N 3194.17 1.40371 0.716495 0
M  V30 34351 C 3195.59 1.22381 1.02445 0
M  V30 34352 C 3195.79 0.0983748 2.0126 0
M  V30 34353 O 3194.85 -0.544028 2.4657 0
M  V30 34354 C 3196.16 2.56518 1.56904 0
M  V30 34355 C 3197.71 2.63522 1.68893 0
M  V30 34356 C 3198.18 3.97926 2.26758 0
M  V30 34357 N 3199.67 3.99663 2.34145 0
M  V30 34358 C 3200.41 5.00444 2.79899 0
M  V30 34359 N 3199.9 6.1162 3.25411 0
M  V30 34360 N 3201.7 4.87814 2.79275 0
M  V30 34361 H 3193.85 2.12311 0.0614933 0
M  V30 34362 H 3196.11 0.943729 0.0898828 0
M  V30 34363 H 3195.82 3.39519 0.91759 0
M  V30 34364 H 3195.69 2.77542 2.55441 0
M  V30 34365 H 3198.08 1.80894 2.33156 0
M  V30 34366 H 3198.16 2.4633 0.689583 0
M  V30 34367 H 3197.8 4.80994 1.63118 0
M  V30 34368 H 3197.73 4.12448 3.27406 0
M  V30 34369 H 3200.22 3.19381 2.02 0
M  V30 34370 H 3200.54 6.84412 3.58887 0
M  V30 34371 H 3198.88 6.15187 3.23373 0
M  V30 34372 H 3202.07 4.00053 2.43054 0
M  V30 34373 H 3202.25 5.66499 3.14616 0
M  V30 34374 N 3195.65 -0.948621 1.25853 0
M  V30 34375 C 3196.62 -2.02779 1.06834 0
M  V30 34376 C 3197.62 -1.60789 0.0191299 0
M  V30 34377 O 3198.81 -1.72221 0.261866 0
M  V30 34378 C 3195.94 -3.35152 0.623377 0
M  V30 34379 H 3197.13 -2.21083 2.02639 0
M  V30 34380 H 3194.68 -1.12655 1.08345 0
M  V30 34381 H 3195.42 -3.22544 -0.336997 0
M  V30 34382 H 3195.2 -3.66979 1.38089 0
M  V30 34383 H 3196.69 -4.1445 0.511927 0
M  V30 34384 N 3197.13 -1.07536 -1.15212 0
M  V30 34385 C 3198.36 -0.820917 -1.90462 0
M  V30 34386 C 3198.78 0.620274 -1.77579 0
M  V30 34387 O 3198.14 1.43364 -1.10979 0
M  V30 34388 C 3198.19 -1.23633 -3.38744 0
M  V30 34389 O 3197.29 -0.382788 -4.1062 0
M  V30 34390 H 3196.63 -0.298911 -0.592915 0
M  V30 34391 H 3199.16 -1.43447 -1.45891 0
M  V30 34392 H 3199.17 -1.21333 -3.89541 0
M  V30 34393 H 3197.85 -2.28602 -3.47439 0
M  V30 34394 H 3196.42 -0.468439 -3.69946 0
M  V30 34395 N 3198.61 1.32084 -0.85974 0
M  V30 34396 C 3199.52 2.32528 -0.311121 0
M  V30 34397 C 3200.53 1.64271 0.573686 0
M  V30 34398 O 3201.71 1.95771 0.472843 0
M  V30 34399 C 3198.78 3.4326 0.487196 0
M  V30 34400 C 3197.84 4.27198 -0.424354 0
M  V30 34401 C 3197.07 5.32642 0.335957 0
M  V30 34402 O 3197.29 5.48502 1.56531 0
M  V30 34403 O 3196.23 6.01147 -0.300882 0
M  V30 34404 H 3200.05 2.81353 -1.14341 0
M  V30 34405 H 3197.64 1.35799 -0.622818 0
M  V30 34406 H 3199.52 4.10779 0.940131 0
M  V30 34407 H 3198.19 2.96615 1.2962 0
M  V30 34408 H 3197.1 3.62469 -0.925573 0
M  V30 34409 H 3198.43 4.77381 -1.19868 0
M  V30 34410 N 3200.09 0.618171 1.4497 0
M  V30 34411 C 3201.5 0.282694 1.57076 0
M  V30 34412 C 3201.7 -1.21453 1.60784 0
M  V30 34413 O 3200.76 -1.99804 1.54385 0
M  V30 34414 C 3202.07 0.963198 2.84856 0
M  V30 34415 C 3203.62 0.940115 2.98548 0
M  V30 34416 C 3204.09 1.60083 4.29112 0
M  V30 34417 N 3205.59 1.56681 4.35896 0
M  V30 34418 C 3206.32 2.0471 5.35613 0
M  V30 34419 N 3205.82 2.60872 6.41808 0
M  V30 34420 N 3207.61 1.95415 5.27038 0
M  V30 34421 H 3199.76 1.59019 1.40807 0
M  V30 34422 H 3202.02 0.666753 0.673902 0
M  V30 34423 H 3201.73 2.01785 2.88055 0
M  V30 34424 H 3201.6 0.492967 3.73965 0
M  V30 34425 H 3203.99 -0.106019 2.94909 0
M  V30 34426 H 3204.07 1.44871 2.10822 0
M  V30 34427 H 3203.72 2.64635 4.3351 0
M  V30 34428 H 3203.65 1.06717 5.15673 0
M  V30 34429 H 3206.14 1.15665 3.59764 0
M  V30 34430 H 3206.45 2.95286 7.14161 0
M  V30 34431 H 3204.79 2.64916 6.4253 0
M  V30 34432 H 3207.99 1.51271 4.42984 0
M  V30 34433 H 3208.16 2.33158 6.046 0
M  V30 34434 N 3201.56 -1.53481 0.357946 0
M  V30 34435 C 3202.79 -2.06033 -0.237733 0
M  V30 34436 C 3203.21 -1.23026 -1.42289 0
M  V30 34437 O 3202.57 -0.247459 -1.79603 0
M  V30 34438 C 3202.62 -3.55287 -0.616744 0
M  V30 34439 O 3201.72 -3.7505 -1.71497 0
M  V30 34440 H 3201.07 -0.663 -0.0364205 0
M  V30 34441 H 3203.6 -1.97978 0.516336 0
M  V30 34442 H 3203.61 -3.98177 -0.88989 0
M  V30 34443 H 3202.28 -4.15149 0.249898 0
M  V30 34444 H 3200.86 -3.44059 -1.43797 0
M  V30 34445 N 3203.04 -0.0869173 -1.5736 0
M  V30 34446 C 3203.97 0.872214 -2.16598 0
M  V30 34447 C 3204.95 1.29993 -1.09708 0
M  V30 34448 O 3206.14 1.36828 -1.3781 0
M  V30 34449 C 3203.27 2.13435 -2.73976 0
M  V30 34450 C 3202.22 1.84553 -3.86166 0
M  V30 34451 C 3201.55 3.17526 -4.30211 0
M  V30 34452 C 3202.85 1.1389 -5.09732 0
M  V30 34453 H 3204.54 0.378686 -2.96996 0
M  V30 34454 H 3202.09 0.180705 -1.42862 0
M  V30 34455 H 3204.04 2.80963 -3.14067 0
M  V30 34456 H 3202.77 2.65056 -1.90821 0
M  V30 34457 H 3201.42 1.19426 -3.46602 0
M  V30 34458 H 3201.07 3.67018 -3.43958 0
M  V30 34459 H 3200.77 2.98987 -5.05847 0
M  V30 34460 H 3202.3 3.86226 -4.72929 0
M  V30 34461 H 3203.71 1.71513 -5.47043 0
M  V30 34462 H 3202.11 1.05558 -5.90743 0
M  V30 34463 H 3203.18 0.120347 -4.84751 0
M  V30 34464 N 3204.52 1.5649 0.186734 0
M  V30 34465 C 3205.77 1.80753 0.904031 0
M  V30 34466 C 3206.09 0.661376 1.83442 0
M  V30 34467 O 3205.36 -0.319777 1.93272 0
M  V30 34468 H 3203.94 0.666756 0.336817 0
M  V30 34469 H 3206.6 1.93969 0.190241 0
M  V30 34470 H 3205.7 2.74227 1.49016 0
M  V30 34471 N 3206 -0.45475 1.50897 0
M  V30 34472 C 3207.41 -0.789845 1.38685 0
M  V30 34473 C 3207.61 -1.96281 0.455622 0
M  V30 34474 O 3206.67 -2.52319 -0.0957059 0
M  V30 34475 C 3207.98 -1.08656 2.80382 0
M  V30 34476 C 3209.53 -1.19204 2.89412 0
M  V30 34477 C 3210.01 -1.52179 4.31978 0
M  V30 34478 N 3211.5 -1.59139 4.35005 0
M  V30 34479 C 3212.23 -1.86191 5.42329 0
M  V30 34480 N 3211.73 -2.11152 6.59838 0
M  V30 34481 N 3213.52 -1.87829 5.29789 0
M  V30 34482 H 3205.67 0.318018 2.10006 0
M  V30 34483 H 3207.94 0.0798135 0.944634 0
M  V30 34484 H 3207.64 -0.297565 3.50439 0
M  V30 34485 H 3207.52 -2.01866 3.18638 0
M  V30 34486 H 3209.9 -1.97169 2.19564 0
M  V30 34487 H 3209.98 -0.239356 2.54678 0
M  V30 34488 H 3209.63 -0.747488 5.02369 0
M  V30 34489 H 3209.56 -2.48625 4.64212 0
M  V30 34490 H 3212.05 -1.41822 3.50278 0
M  V30 34491 H 3212.36 -2.31115 7.37432 0
M  V30 34492 H 3210.71 -2.08511 6.62984 0
M  V30 34493 H 3213.9 -1.67835 4.36977 0
M  V30 34494 H 3214.07 -2.08575 6.13515 0
M  V30 34495 N 3207.48 -1.40749 -0.709041 0
M  V30 34496 C 3208.71 -1.42502 -1.49588 0
M  V30 34497 C 3209.11 -0.0248675 -1.89184 0
M  V30 34498 O 3208.46 0.963082 -1.5643 0
M  V30 34499 C 3208.52 -2.25812 -2.79731 0
M  V30 34500 C 3208.18 -3.74146 -2.62419 0
M  V30 34501 C 3209.18 -4.66628 -2.29248 0
M  V30 34502 C 3206.87 -4.18036 -2.7848 0
M  V30 34503 C 3208.86 -6.00986 -2.12356 0
M  V30 34504 C 3206.55 -5.52463 -2.61205 0
M  V30 34505 C 3207.54 -6.43753 -2.28192 0
M  V30 34506 O 3207.23 -7.757 -2.11055 0
M  V30 34507 H 3206.96 -0.487817 -0.467985 0
M  V30 34508 H 3209.52 -1.85515 -0.881661 0
M  V30 34509 H 3207.75 -1.7759 -3.4351 0
M  V30 34510 H 3209.44 -2.19427 -3.41477 0
M  V30 34511 H 3210.2 -4.34013 -2.16467 0
M  V30 34512 H 3206.08 -3.47295 -3.03162 0
M  V30 34513 H 3209.63 -6.72205 -1.8651 0
M  V30 34514 H 3205.52 -5.84661 -2.73572 0
M  V30 34515 H 3206.29 -7.86702 -2.25924 0
M  V30 34516 N 3208.96 0.941933 -1.26354 0
M  V30 34517 C 3210.18 1.72243 -1.14629 0
M  V30 34518 C 3210.6 1.86424 0.298555 0
M  V30 34519 O 3209.96 1.37108 1.20447 0
M  V30 34520 C 3210.01 3.12959 -1.80938 0
M  V30 34521 O 3209.73 2.99457 -3.19777 0
M  V30 34522 C 3211.23 4.07228 -1.75157 0
M  V30 34523 H 3208.45 0.539326 -0.39921 0
M  V30 34524 H 3210.99 1.18088 -1.6696 0
M  V30 34525 H 3209.15 3.64019 -1.32548 0
M  V30 34526 H 3209.56 3.88315 -3.52578 0
M  V30 34527 H 3211.04 5.03529 -2.26192 0
M  V30 34528 H 3211.51 4.33292 -0.717931 0
M  V30 34529 H 3212.12 3.62089 -2.23096 0
M  V30 34530 N 3210.43 1.08146 1.1464 0
M  V30 34531 C 3211.71 0.722352 1.81773 0
M  V30 34532 C 3212.09 -0.79426 1.95588 0
M  V30 34533 O 3211.44 -1.71176 1.51364 0
M  V30 34534 C 3211.65 1.44617 3.17627 0
M  V30 34535 C 3213 1.6035 3.93158 0
M  V30 34536 O 3214.02 1.40761 3.27208 0
M  V30 34537 O 3212.88 1.92649 5.11418 0
M  V30 34538 H 3209.97 0.257992 0.785728 0
M  V30 34539 H 3212.52 1.18287 1.21681 0
M  V30 34540 H 3211.29 2.47946 3.02719 0
M  V30 34541 H 3210.91 0.97696 3.8541 0
M  V30 34542 N 3211.91 -1.31626 0.866732 0
M  V30 34543 C 3213.16 -1.97116 0.476766 0
M  V30 34544 C 3213.49 -1.68367 -0.967783 0
M  V30 34545 O 3212.77 -0.978407 -1.681 0
M  V30 34546 C 3213.05 -3.5261 0.730623 0
M  V30 34547 C 3212.9 -3.90944 2.22447 0
M  V30 34548 C 3214.22 -4.39668 0.194957 0
M  V30 34549 H 3211.34 -0.715996 0.174695 0
M  V30 34550 H 3213.98 -1.55808 1.08738 0
M  V30 34551 H 3212.13 -3.87927 0.210902 0
M  V30 34552 H 3213.8 -3.65745 2.8112 0
M  V30 34553 H 3212.05 -3.39668 2.6983 0
M  V30 34554 H 3212.72 -4.99349 2.35275 0
M  V30 34555 H 3215.19 -4.11156 0.639551 0
M  V30 34556 H 3214.07 -5.47426 0.402054 0
M  V30 34557 H 3214.33 -4.32781 -0.902944 0
M  V30 34558 N 3213.39 -0.62585 -1.4464 0
M  V30 34559 C 3214.67 -0.059393 -1.9551 0
M  V30 34560 C 3215.05 1.41346 -1.56794 0
M  V30 34561 O 3214.39 2.12523 -0.83941 0
M  V30 34562 C 3214.6 -0.276708 -3.47901 0
M  V30 34563 C 3215.95 -0.167118 -4.24271 0
M  V30 34564 O 3216.98 -0.207793 -3.55593 0
M  V30 34565 O 3215.84 -0.067596 -5.46458 0
M  V30 34566 H 3212.93 0.0253277 -0.826612 0
M  V30 34567 H 3215.48 -0.697186 -1.54717 0
M  V30 34568 H 3214.25 -1.29892 -3.69112 0
M  V30 34569 H 3213.87 0.395477 -3.95628 0
M  V30 34570 N 3214.87 1.53289 -0.36608 0
M  V30 34571 C 3216.1 2.05682 0.224199 0
M  V30 34572 C 3216.51 1.23955 1.4241 0
M  V30 34573 O 3215.87 0.280341 1.80334 0
M  V30 34574 C 3215.92 3.56192 0.617203 0
M  V30 34575 O 3215.64 4.34821 -0.535007 0
M  V30 34576 C 3217.14 4.24843 1.26582 0
M  V30 34577 H 3214.36 0.669849 0.039281 0
M  V30 34578 H 3216.9 1.97657 -0.524594 0
M  V30 34579 H 3215.06 3.64366 1.31591 0
M  V30 34580 H 3215.47 5.2405 -0.217215 0
M  V30 34581 H 3216.95 5.31472 1.49136 0
M  V30 34582 H 3217.42 3.78595 2.22627 0
M  V30 34583 H 3218.03 4.20924 0.608526 0
M  V30 34584 N 3216.35 0.0952613 1.57312 0
M  V30 34585 C 3217.59 -0.567285 1.93975 0
M  V30 34586 C 3217.91 -1.68711 0.977835 0
M  V30 34587 O 3217.18 -1.95877 0.0299288 0
M  V30 34588 H 3215.76 -0.212545 0.716124 0
M  V30 34589 H 3218.43 0.158632 1.94253 0
M  V30 34590 H 3217.52 -0.977371 2.96402 0
M  V30 34591 N 3217.82 -1.56587 -0.178432 0
M  V30 34592 C 3218.75 -1.98886 -1.22338 0
M  V30 34593 C 3219.73 -0.863336 -1.46562 0
M  V30 34594 O 3220.92 -1.1289 -1.58017 0
M  V30 34595 C 3218.05 -2.34266 -2.56392 0
M  V30 34596 C 3217 -3.49712 -2.4675 0
M  V30 34597 C 3216.33 -3.70814 -3.85229 0
M  V30 34598 C 3217.63 -4.83385 -1.97829 0
M  V30 34599 H 3219.32 -2.86426 -0.871798 0
M  V30 34600 H 3216.87 -1.37802 -0.417924 0
M  V30 34601 H 3218.82 -2.62454 -3.29691 0
M  V30 34602 H 3217.55 -1.43627 -2.93324 0
M  V30 34603 H 3216.21 -3.21641 -1.75906 0
M  V30 34604 H 3215.85 -2.77477 -4.19542 0
M  V30 34605 H 3215.55 -4.48488 -3.79648 0
M  V30 34606 H 3217.08 -4.01395 -4.60124 0
M  V30 34607 H 3218.49 -5.10495 -2.60897 0
M  V30 34608 H 3216.89 -5.64646 -2.03213 0
M  V30 34609 H 3217.96 -4.75854 -0.932255 0
M  V30 34610 N 3219.3 0.446741 -1.51136 0
M  V30 34611 C 3220.55 1.19459 -1.63015 0
M  V30 34612 C 3220.87 1.9194 -0.344101 0
M  V30 34613 O 3220.14 1.85163 0.639634 0
M  V30 34614 H 3218.72 0.443948 -0.600765 0
M  V30 34615 H 3221.38 0.513104 -1.88025 0
M  V30 34616 H 3220.48 1.92929 -2.45326 0
M  V30 34617 N 3220.78 1.41123 0.701567 0
M  V30 34618 C 3222.01 1.43502 1.49046 0
M  V30 34619 C 3222.42 0.0386016 1.88761 0
M  V30 34620 O 3221.78 -0.940728 1.56386 0
M  V30 34621 C 3221.83 2.33836 2.75686 0
M  V30 34622 O 3221.55 3.68043 2.37647 0
M  V30 34623 C 3223.05 2.44955 3.69475 0
M  V30 34624 H 3220.27 0.488969 0.459511 0
M  V30 34625 H 3222.82 1.85338 0.864286 0
M  V30 34626 H 3220.97 1.95324 3.34555 0
M  V30 34627 H 3221.39 4.16161 3.19233 0
M  V30 34628 H 3222.86 3.12342 4.55134 0
M  V30 34629 H 3223.34 1.47894 4.1355 0
M  V30 34630 H 3223.94 2.84078 3.16512 0
M  V30 34631 N 3222.26 -0.935219 1.26852 0
M  V30 34632 C 3223.53 -1.65982 1.03486 0
M  V30 34633 C 3223.91 -2.06615 -0.432823 0
M  V30 34634 O 3223.26 -1.79458 -1.41446 0
M  V30 34635 C 3223.47 -2.86754 1.98929 0
M  V30 34636 C 3224.82 -3.5827 2.27876 0
M  V30 34637 O 3225.84 -2.96869 1.96843 0
M  V30 34638 O 3224.7 -4.68877 2.80743 0
M  V30 34639 H 3221.8 -0.727143 0.393945 0
M  V30 34640 H 3224.34 -0.986421 1.38086 0
M  V30 34641 H 3223.12 -2.53663 2.97944 0
M  V30 34642 H 3222.74 -3.61817 1.64845 0
M  V30 34643 N 3223.74 -1.08752 -1.14065 0
M  V30 34644 C 3224.67 -0.742398 -2.21384 0
M  V30 34645 C 3225.65 0.276776 -1.67833 0
M  V30 34646 O 3226.83 0.146366 -1.93648 0
M  V30 34647 C 3223.96 -0.154705 -3.46955 0
M  V30 34648 C 3222.92 -1.10262 -4.13553 0
M  V30 34649 C 3222.24 -0.37697 -5.33369 0
M  V30 34650 C 3223.54 -2.44221 -4.61685 0
M  V30 34651 H 3225.24 -1.63968 -2.50509 0
M  V30 34652 H 3222.78 -0.789829 -1.20406 0
M  V30 34653 H 3224.74 0.0987679 -4.21284 0
M  V30 34654 H 3223.46 0.777733 -3.17205 0
M  V30 34655 H 3222.12 -1.34125 -3.41183 0
M  V30 34656 H 3221.77 0.559385 -4.9988 0
M  V30 34657 H 3221.47 -1.00894 -5.78873 0
M  V30 34658 H 3222.99 -0.131634 -6.10458 0
M  V30 34659 H 3224.4 -2.24605 -5.27471 0
M  V30 34660 H 3222.8 -3.03143 -5.17904 0
M  V30 34661 H 3223.87 -3.05489 -3.76569 0
M  V30 34662 N 3225.21 1.31165 -0.873701 0
M  V30 34663 C 3226.44 2.01276 -0.500277 0
M  V30 34664 C 3226.86 1.65129 0.900782 0
M  V30 34665 O 3226.22 0.86189 1.59503 0
M  V30 34666 C 3226.27 3.54339 -0.669039 0
M  V30 34667 O 3225.37 4.11379 0.290023 0
M  V30 34668 H 3224.72 0.63363 -0.198518 0
M  V30 34669 H 3227.25 1.67275 -1.17814 0
M  V30 34670 H 3227.26 4.04087 -0.563745 0
M  V30 34671 H 3225.93 3.79988 -1.69062 0
M  V30 34672 H 3224.51 3.72639 0.139372 0
M  V30 34673 N 3226.69 0.633512 1.44307 0
M  V30 34674 C 3227.63 -0.119357 2.27888 0
M  V30 34675 C 3228.6 -0.848957 1.38678 0
M  V30 34676 O 3229.79 -0.85256 1.68118 0
M  V30 34677 C 3226.91 -1.17515 3.1766 0
M  V30 34678 C 3225.96 -0.545816 4.22993 0
M  V30 34679 S 3226.79 0.665893 5.31344 0
M  V30 34680 C 3227.95 -0.389855 6.24685 0
M  V30 34681 H 3228.18 0.58969 2.91393 0
M  V30 34682 H 3225.72 0.421753 1.48528 0
M  V30 34683 H 3227.67 -1.77935 3.69932 0
M  V30 34684 H 3226.33 -1.85641 2.5337 0
M  V30 34685 H 3225.53 -1.34106 4.85831 0
M  V30 34686 H 3225.13 -0.0161849 3.73996 0
M  V30 34687 H 3227.42 -1.26173 6.65647 0
M  V30 34688 H 3228.36 0.203002 7.07809 0
M  V30 34689 H 3228.77 -0.716823 5.5993 0
M  V30 34690 N 3228.17 -1.53093 0.374204 0
M  V30 34691 C 3229.4 -2.05798 -0.213289 0
M  V30 34692 C 3229.81 -1.24708 -1.41751 0
M  V30 34693 O 3229.17 -0.2899 -1.80183 0
M  V30 34694 C 3229.22 -3.56514 -0.598305 0
M  V30 34695 O 3228.94 -4.34531 0.55806 0
M  V30 34696 C 3230.44 -4.25509 -1.24327 0
M  V30 34697 H 3227.66 -0.670048 -0.0357281 0
M  V30 34698 H 3230.21 -1.97376 0.535069 0
M  V30 34699 H 3228.36 -3.65059 -1.29657 0
M  V30 34700 H 3228.78 -5.23927 0.245003 0
M  V30 34701 H 3230.25 -5.32255 -1.46316 0
M  V30 34702 H 3230.73 -3.7977 -2.20616 0
M  V30 34703 H 3231.33 -4.21241 -0.586195 0
M  V30 34704 N 3229.65 -0.103603 -1.57259 0
M  V30 34705 C 3230.88 0.56624 -1.99001 0
M  V30 34706 C 3231.29 1.61195 -0.982938 0
M  V30 34707 O 3230.65 1.82481 0.0263129 0
M  V30 34708 C 3230.7 1.20629 -3.4078 0
M  V30 34709 O 3230.42 0.202395 -4.37632 0
M  V30 34710 C 3231.92 1.96093 -3.97571 0
M  V30 34711 H 3229.14 0.151153 -0.653754 0
M  V30 34712 H 3231.69 -0.185401 -2.03658 0
M  V30 34713 H 3229.84 1.9088 -3.3711 0
M  V30 34714 H 3230.25 0.665444 -5.20262 0
M  V30 34715 H 3231.73 2.36224 -4.98901 0
M  V30 34716 H 3232.21 2.83013 -3.35858 0
M  V30 34717 H 3232.81 1.30638 -4.04739 0
M  V30 34718 N 3231.13 1.56679 0.170126 0
M  V30 34719 C 3232.06 1.93068 1.23521 0
M  V30 34720 C 3233.07 0.823904 1.40412 0
M  V30 34721 O 3234.26 1.10235 1.40394 0
M  V30 34722 C 3231.36 2.16932 2.60372 0
M  V30 34723 C 3230.53 3.48165 2.64764 0
M  V30 34724 C 3229.59 3.60843 3.82986 0
M  V30 34725 O 3228.62 4.33451 3.6893 0
M  V30 34726 N 3229.82 2.95782 4.99493 0
M  V30 34727 H 3232.59 2.85032 0.926122 0
M  V30 34728 H 3230.15 1.5785 0.359881 0
M  V30 34729 H 3232.14 2.22677 3.3793 0
M  V30 34730 H 3230.71 1.31347 2.83667 0
M  V30 34731 H 3229.93 3.54067 1.73292 0
M  V30 34732 H 3231.22 4.34518 2.6471 0
M  V30 34733 H 3230.61 2.36666 5.13815 0
M  V30 34734 H 3229.17 3.07121 5.74909 0
M  V30 34735 N 3232.6 -0.43872 1.5137 0
M  V30 34736 C 3233.83 -1.21534 1.6806 0
M  V30 34737 C 3234.25 -1.84287 0.37682 0
M  V30 34738 O 3233.61 -1.68747 -0.662881 0
M  V30 34739 C 3233.66 -2.27612 2.79688 0
M  V30 34740 O 3232.76 -3.33062 2.43195 0
M  V30 34741 H 3232.11 -0.356134 0.560415 0
M  V30 34742 H 3234.64 -0.518276 1.97927 0
M  V30 34743 H 3234.65 -2.72418 3.03731 0
M  V30 34744 H 3233.32 -1.81315 3.74296 0
M  V30 34745 H 3231.9 -2.93742 2.29718 0
M  V30 34746 N 3234.08 -1.41493 -0.694073 0
M  V30 34747 C 3235.33 -1.40653 -1.45125 0
M  V30 34748 C 3235.65 -0.0170631 -1.94993 0
M  V30 34749 O 3234.92 0.941342 -1.71801 0
M  V30 34750 H 3233.5 -0.517729 -0.538484 0
M  V30 34751 H 3236.16 -1.76745 -0.82141 0
M  V30 34752 H 3235.26 -2.09464 -2.31368 0
M  V30 34753 N 3235.56 0.928479 -1.27346 0
M  V30 34754 C 3236.84 1.65431 -1.04365 0
M  V30 34755 C 3237.22 2.06842 0.421859 0
M  V30 34756 O 3236.57 1.80206 1.40493 0
M  V30 34757 C 3236.78 2.85695 -2.00447 0
M  V30 34758 C 3238.12 3.57057 -2.29773 0
M  V30 34759 O 3239.15 2.95821 -1.98415 0
M  V30 34760 O 3238.01 4.67382 -2.83225 0
M  V30 34761 H 3235.1 0.725043 -0.397796 0
M  V30 34762 H 3237.65 0.979084 -1.38607 0
M  V30 34763 H 3236.42 2.52079 -2.99285 0
M  V30 34764 H 3236.04 3.60938 -1.66762 0
M  V30 34765 N 3237.04 1.09355 1.13486 0
M  V30 34766 C 3237.97 0.754129 2.20987 0
M  V30 34767 C 3238.95 -0.267871 1.67978 0
M  V30 34768 O 3240.13 -0.136094 1.93723 0
M  V30 34769 C 3237.26 0.173103 3.46868 0
M  V30 34770 C 3236.22 1.12454 4.12963 0
M  V30 34771 C 3235.54 0.405251 5.33162 0
M  V30 34772 C 3236.84 2.46666 4.60384 0
M  V30 34773 H 3238.54 1.65294 2.49636 0
M  V30 34774 H 3236.08 0.796203 1.19986 0
M  V30 34775 H 3238.04 -0.0764247 4.21331 0
M  V30 34776 H 3236.76 -0.7609 3.17613 0
M  V30 34777 H 3235.42 1.35933 3.40467 0
M  V30 34778 H 3235.07 -0.532867 5.0017 0
M  V30 34779 H 3234.77 1.03962 5.7833 0
M  V30 34780 H 3236.29 0.164006 6.1038 0
M  V30 34781 H 3237.71 2.27399 5.26272 0
M  V30 34782 H 3236.1 3.05885 5.16289 0
M  V30 34783 H 3237.17 3.07482 3.74944 0
M  V30 34784 N 3238.52 -1.307 0.880644 0
M  V30 34785 C 3239.93 -1.78476 0.548024 0
M  V30 34786 C 3240.28 -1.72456 -0.935602 0
M  V30 34787 O 3239.4 -1.29877 -1.73092 0
M  V30 34788 C 3240 -3.24074 0.988007 0
M  V30 34789 C 3238.56 -3.69703 0.70687 0
M  V30 34790 C 3237.71 -2.5125 1.1734 0
M  V30 34791 H 3240.66 -1.17631 1.0653 0
M  V30 34792 H 3240.68 -3.79193 0.315147 0
M  V30 34793 H 3240.19 -3.28423 2.06784 0
M  V30 34794 H 3238.29 -3.70846 -0.361154 0
M  V30 34795 H 3238.4 -4.61368 1.29139 0
M  V30 34796 H 3236.77 -2.47704 0.592851 0
M  V30 34797 H 3237.55 -2.58339 2.26088 0
M  V30 34798 N 3240 -0.641156 -1.43969 0
M  V30 34799 C 3241.22 -0.155354 -2.06817 0
M  V30 34800 C 3241.65 1.16516 -1.47667 0
M  V30 34801 O 3241 1.71706 -0.58195 0
M  V30 34802 C 3241.05 -0.064817 -3.60542 0
M  V30 34803 O 3240.16 0.976377 -4.00675 0
M  V30 34804 H 3239.5 -0.089352 -0.657961 0
M  V30 34805 H 3242.03 -0.880672 -1.84676 0
M  V30 34806 H 3242.04 0.122481 -4.07816 0
M  V30 34807 H 3240.71 -1.02886 -4.02973 0
M  V30 34808 H 3239.29 0.762841 -3.65014 0
M  V30 34809 N 3241.47 1.52892 -0.382318 0
M  V30 34810 C 3242.42 2.26247 0.456194 0
M  V30 34811 C 3243.39 1.27577 1.06364 0
M  V30 34812 O 3244.58 1.56392 1.09298 0
M  V30 34813 C 3241.72 3.06742 1.58124 0
M  V30 34814 C 3240.83 4.2033 0.997342 0
M  V30 34815 C 3239.96 4.88234 2.09287 0
M  V30 34816 C 3239 5.93826 1.4845 0
M  V30 34817 N 3238.14 6.55354 2.51904 0
M  V30 34818 H 3242.98 2.97481 -0.175813 0
M  V30 34819 H 3240.52 1.4677 -0.0985304 0
M  V30 34820 H 3242.47 3.51698 2.2442 0
M  V30 34821 H 3241.1 2.37731 2.18367 0
M  V30 34822 H 3240.16 3.79739 0.224184 0
M  V30 34823 H 3241.47 4.96158 0.512697 0
M  V30 34824 H 3240.62 5.36458 2.83368 0
M  V30 34825 H 3239.36 4.11914 2.61109 0
M  V30 34826 H 3238.37 5.44947 0.728905 0
M  V30 34827 H 3239.59 6.72074 0.974312 0
M  V30 34828 H 3237.54 5.81878 3.02908 0
M  V30 34829 H 3237.45 7.26773 2.08175 0
M  V30 34830 H 3238.72 7.08224 3.25636 0
M  V30 34831 N 3242.95 0.111941 1.57202 0
M  V30 34832 C 3243.86 -0.854715 2.18476 0
M  V30 34833 C 3244.88 -1.2979 1.15891 0
M  V30 34834 O 3246.05 -1.36234 1.48332 0
M  V30 34835 C 3243.12 -2.08965 2.76649 0
M  V30 34836 C 3242.18 -1.69906 3.94247 0
M  V30 34837 C 3241.41 -2.87512 4.49636 0
M  V30 34838 O 3241.64 -4.02734 4.03933 0
M  V30 34839 O 3240.57 -2.65005 5.40422 0
M  V30 34840 H 3244.4 -0.363299 3.01519 0
M  V30 34841 H 3241.98 -0.113303 1.4897 0
M  V30 34842 H 3243.86 -2.81305 3.1376 0
M  V30 34843 H 3242.54 -2.57126 1.96641 0
M  V30 34844 H 3241.44 -0.94695 3.61917 0
M  V30 34845 H 3242.78 -1.26493 4.75668 0
M  V30 34846 N 3244.43 -1.56767 -0.161814 0
M  V30 34847 C 3245.85 -1.51099 -0.513933 0
M  V30 34848 C 3246.05 -0.817847 -1.84156 0
M  V30 34849 O 3245.1 -0.382177 -2.49591 0
M  V30 34850 C 3246.41 -2.9585 -0.537914 0
M  V30 34851 C 3247.96 -3.06708 -0.624458 0
M  V30 34852 C 3248.44 -4.52935 -0.679242 0
M  V30 34853 N 3249.93 -4.5722 -0.741873 0
M  V30 34854 C 3250.66 -5.67721 -0.804996 0
M  V30 34855 N 3250.16 -6.8783 -0.828371 0
M  V30 34856 N 3251.95 -5.55716 -0.844745 0
M  V30 34857 H 3244.1 -2.00231 0.708616 0
M  V30 34858 H 3246.37 -0.912599 0.256646 0
M  V30 34859 H 3246.07 -3.49758 0.369113 0
M  V30 34860 H 3245.95 -3.51007 -1.38107 0
M  V30 34861 H 3248.33 -2.52828 -1.52191 0
M  V30 34862 H 3248.41 -2.54619 0.245559 0
M  V30 34863 H 3248.06 -5.07449 0.21399 0
M  V30 34864 H 3247.99 -5.02791 -1.56554 0
M  V30 34865 H 3250.48 -3.70749 -0.731707 0
M  V30 34866 H 3250.79 -7.67796 -0.877974 0
M  V30 34867 H 3249.14 -6.90421 -0.79649 0
M  V30 34868 H 3252.33 -4.60798 -0.823551 0
M  V30 34869 H 3252.5 -6.41852 -0.890475 0
M  V30 34870 N 3245.91 0.430686 -1.51601 0
M  V30 34871 C 3247.18 1.1912 -1.55144 0
M  V30 34872 C 3247.56 2.08666 -0.319632 0
M  V30 34873 O 3246.91 2.17678 0.694888 0
M  V30 34874 C 3247.12 1.98727 -2.86895 0
M  V30 34875 C 3248.47 2.5554 -3.39094 0
M  V30 34876 O 3249.49 2.08931 -2.8849 0
M  V30 34877 O 3248.35 3.40566 -4.27407 0
M  V30 34878 H 3245.45 0.542694 -0.624029 0
M  V30 34879 H 3247.99 0.439215 -1.63918 0
M  V30 34880 H 3246.77 1.32999 -3.68004 0
M  V30 34881 H 3246.39 2.80977 -2.81314 0
M  V30 34882 N 3247.39 1.4186 0.686559 0
M  V30 34883 C 3248.32 1.40355 1.81199 0
M  V30 34884 C 3249.33 0.30435 1.5993 0
M  V30 34885 O 3250.52 0.566673 1.69266 0
M  V30 34886 C 3247.62 1.16862 3.18114 0
M  V30 34887 C 3246.79 2.38993 3.66335 0
M  V30 34888 C 3245.85 2.11221 4.81946 0
M  V30 34889 O 3244.88 2.84331 4.93097 0
M  V30 34890 N 3246.08 1.10803 5.69827 0
M  V30 34891 H 3248.84 2.37358 1.82979 0
M  V30 34892 H 3246.41 1.36588 0.86922 0
M  V30 34893 H 3248.4 0.962194 3.93095 0
M  V30 34894 H 3246.97 0.284241 3.11305 0
M  V30 34895 H 3246.19 2.75279 2.82161 0
M  V30 34896 H 3247.48 3.20347 3.95292 0
M  V30 34897 H 3246.87 0.503111 5.63458 0
M  V30 34898 H 3245.43 0.961492 6.44669 0
M  V30 34899 N 3248.86 -0.921712 1.27837 0
M  V30 34900 C 3249.77 -2.05643 1.12907 0
M  V30 34901 C 3250.79 -1.73905 0.0576009 0
M  V30 34902 O 3251.97 -1.99645 0.265296 0
M  V30 34903 C 3249.03 -3.37719 0.784017 0
M  V30 34904 C 3248.09 -3.83117 1.937 0
M  V30 34905 C 3247.32 -5.0889 1.60831 0
M  V30 34906 O 3247.55 -5.68034 0.518973 0
M  V30 34907 O 3246.48 -5.49806 2.44942 0
M  V30 34908 H 3250.31 -2.21153 2.08147 0
M  V30 34909 H 3247.89 -1.04183 1.0708 0
M  V30 34910 H 3249.77 -4.17032 0.60518 0
M  V30 34911 H 3248.45 -3.23402 -0.138792 0
M  V30 34912 H 3247.36 -3.04665 2.17094 0
M  V30 34913 H 3248.69 -4.01985 2.84023 0
M  V30 34914 N 3250.34 -1.09956 -1.12905 0
M  V30 34915 C 3251.76 -0.83035 -1.36299 0
M  V30 34916 C 3251.96 0.55266 -1.93773 0
M  V30 34917 O 3251.01 1.30649 -2.16072 0
M  V30 34918 C 3252.33 -1.92602 -2.30922 0
M  V30 34919 C 3253.87 -1.95389 -2.44524 0
M  V30 34920 C 3254.35 -3.04116 -3.42458 0
M  V30 34921 N 3255.84 -3.0339 -3.50012 0
M  V30 34922 C 3256.58 -3.8416 -4.25686 0
M  V30 34923 N 3256.07 -4.74852 -5.04468 0
M  V30 34924 N 3257.86 -3.72398 -4.21042 0
M  V30 34925 H 3250.02 -1.9911 -0.739536 0
M  V30 34926 H 3252.28 -0.864977 -0.387967 0
M  V30 34927 H 3251.98 -2.92119 -1.95856 0
M  V30 34928 H 3251.86 -1.80894 -3.30994 0
M  V30 34929 H 3254.25 -0.965086 -2.78873 0
M  V30 34930 H 3254.33 -2.11174 -1.44357 0
M  V30 34931 H 3253.97 -4.03213 -3.0884 0
M  V30 34932 H 3253.9 -2.85573 -4.42443 0
M  V30 34933 H 3256.39 -2.3767 -2.93805 0
M  V30 34934 H 3256.7 -5.33051 -5.59532 0
M  V30 34935 H 3255.05 -4.78884 -5.03681 0
M  V30 34936 H 3258.24 -3.00901 -3.58575 0
M  V30 34937 H 3258.41 -4.35581 -4.79764 0
M  V30 34938 N 3251.82 1.30231 -0.887563 0
M  V30 34939 C 3253.07 1.95655 -0.506311 0
M  V30 34940 C 3253.39 1.70396 0.948161 0
M  V30 34941 O 3252.66 1.02898 1.667 0
M  V30 34942 H 3251.24 0.723921 -0.184248 0
M  V30 34943 H 3253.9 1.58713 -1.1312 0
M  V30 34944 H 3253 3.0463 -0.678727 0
M  V30 34945 N 3253.3 0.648782 1.43627 0
M  V30 34946 C 3254.71 0.315948 1.56441 0
M  V30 34947 C 3254.91 -1.18015 1.63324 0
M  V30 34948 O 3253.97 -1.96484 1.58589 0
M  V30 34949 C 3255.28 1.0234 2.82749 0
M  V30 34950 C 3256.83 1.00323 2.96487 0
M  V30 34951 C 3257.31 1.69149 4.2562 0
M  V30 34952 N 3258.8 1.65892 4.32474 0
M  V30 34953 C 3259.53 2.16025 5.3115 0
M  V30 34954 N 3259.03 2.74427 6.3613 0
M  V30 34955 N 3260.82 2.06551 5.22775 0
M  V30 34956 H 3252.97 1.6197 1.37402 0
M  V30 34957 H 3255.24 0.680898 0.659608 0
M  V30 34958 H 3254.94 2.07849 2.8371 0
M  V30 34959 H 3254.82 0.572179 3.72835 0
M  V30 34960 H 3257.2 -0.0434401 2.95068 0
M  V30 34961 H 3257.28 1.49311 2.07702 0
M  V30 34962 H 3256.93 2.73771 4.27799 0
M  V30 34963 H 3256.86 1.17631 5.13294 0
M  V30 34964 H 3259.35 1.2327 3.57229 0
M  V30 34965 H 3259.66 3.10368 7.07737 0
M  V30 34966 H 3258.01 2.78485 6.36766 0
M  V30 34967 H 3261.2 1.60633 4.39676 0
M  V30 34968 H 3261.37 2.4593 5.99519 0
M  V30 34969 N 3254.78 -1.52688 0.390421 0
M  V30 34970 C 3256.19 -1.86514 -0.0833612 0
M  V30 34971 C 3256.54 -1.31005 -1.46055 0
M  V30 34972 O 3255.66 -0.641845 -2.06662 0
M  V30 34973 C 3256.26 -3.38431 -0.158042 0
M  V30 34974 C 3254.82 -3.71965 -0.57612 0
M  V30 34975 C 3253.96 -2.76067 0.261204 0
M  V30 34976 H 3256.92 -1.46581 0.608251 0
M  V30 34977 H 3256.94 -3.67744 -0.976958 0
M  V30 34978 H 3256.45 -3.78802 0.844432 0
M  V30 34979 H 3254.55 -3.37164 -1.58592 0
M  V30 34980 H 3254.66 -4.77938 -0.333493 0
M  V30 34981 H 3253.03 -2.53225 -0.273692 0
M  V30 34982 H 3253.81 -3.19275 1.26168 0
M  V30 34983 N 3256.25 -0.120276 -1.5714 0
M  V30 34984 C 3257.2 0.82946 -2.1538 0
M  V30 34985 C 3258.17 1.26268 -1.07915 0
M  V30 34986 O 3259.36 1.33997 -1.35829 0
M  V30 34987 C 3256.5 2.07366 -2.75851 0
M  V30 34988 C 3255.61 1.68868 -3.97627 0
M  V30 34989 C 3254.74 2.88264 -4.46181 0
M  V30 34990 C 3253.78 2.46013 -5.60486 0
M  V30 34991 N 3252.92 3.58327 -6.03777 0
M  V30 34992 H 3257.76 0.325979 -2.96212 0
M  V30 34993 H 3255.3 0.149209 -1.46341 0
M  V30 34994 H 3257.26 2.80266 -3.09041 0
M  V30 34995 H 3255.89 2.5517 -1.97707 0
M  V30 34996 H 3254.94 0.858366 -3.70589 0
M  V30 34997 H 3256.25 1.33819 -4.80514 0
M  V30 34998 H 3255.4 3.69388 -4.81287 0
M  V30 34999 H 3254.14 3.26542 -3.62246 0
M  V30 35000 H 3253.15 1.63322 -5.24982 0
M  V30 35001 H 3254.37 2.08851 -6.46187 0
M  V30 35002 H 3252.32 3.96275 -5.22783 0
M  V30 35003 H 3252.24 3.27205 -6.81523 0
M  V30 35004 H 3253.5 4.39887 -6.43521 0
M  V30 35005 N 3257.73 1.56851 0.153498 0
M  V30 35006 C 3259.01 1.73896 0.895514 0
M  V30 35007 C 3259.39 0.686539 1.99624 0
M  V30 35008 O 3258.74 -0.29566 2.26579 0
M  V30 35009 C 3258.95 3.17729 1.44393 0
M  V30 35010 C 3260.3 3.79221 1.90989 0
M  V30 35011 O 3261.32 3.21118 1.54149 0
M  V30 35012 O 3260.18 4.81278 2.58908 0
M  V30 35013 H 3257.27 0.710787 0.422742 0
M  V30 35014 H 3259.82 1.69122 0.139932 0
M  V30 35015 H 3258.59 3.8582 0.652568 0
M  V30 35016 H 3258.21 3.26902 2.2632 0
M  V30 35017 N 3259.21 -0.42264 1.51827 0
M  V30 35018 C 3260.63 -0.76025 1.40329 0
M  V30 35019 C 3260.83 -1.95271 0.497153 0
M  V30 35020 O 3259.88 -2.52465 -0.0421639 0
M  V30 35021 C 3261.2 -1.02684 2.82624 0
M  V30 35022 C 3262.74 -1.13038 2.91876 0
M  V30 35023 C 3263.22 -1.42982 4.35109 0
M  V30 35024 N 3264.71 -1.49876 4.38282 0
M  V30 35025 C 3265.44 -1.74645 5.46156 0
M  V30 35026 N 3264.94 -1.97109 6.64169 0
M  V30 35027 N 3266.73 -1.76549 5.33654 0
M  V30 35028 H 3258.88 0.362492 2.09284 0
M  V30 35029 H 3261.15 0.0998326 0.942729 0
M  V30 35030 H 3260.85 -0.223164 3.50991 0
M  V30 35031 H 3260.73 -1.95062 3.22848 0
M  V30 35032 H 3263.11 -1.92467 2.23697 0
M  V30 35033 H 3263.2 -0.185282 2.55128 0
M  V30 35034 H 3262.84 -0.64076 5.03842 0
M  V30 35035 H 3262.77 -2.38723 4.69382 0
M  V30 35036 H 3265.26 -1.3436 3.53208 0
M  V30 35037 H 3265.57 -2.15421 7.42168 0
M  V30 35038 H 3263.92 -1.94401 6.67258 0
M  V30 35039 H 3267.11 -1.58528 4.40439 0
M  V30 35040 H 3267.28 -1.95514 6.17801 0
M  V30 35041 N 3260.69 -1.42222 -0.679027 0
M  V30 35042 C 3261.64 -1.45369 -1.79267 0
M  V30 35043 C 3262.61 -0.306118 -1.63255 0
M  V30 35044 O 3263.79 -0.50958 -1.83869 0
M  V30 35045 C 3260.93 -1.35772 -3.1727 0
M  V30 35046 C 3260.04 -2.60531 -3.44598 0
M  V30 35047 C 3259.18 -2.43107 -4.72306 0
M  V30 35048 C 3258.22 -3.6326 -4.92655 0
M  V30 35049 N 3257.35 -3.44804 -6.116 0
M  V30 35050 H 3262.19 -2.40539 -1.75912 0
M  V30 35051 H 3259.73 -1.19427 -0.858815 0
M  V30 35052 H 3261.69 -1.28207 -3.97012 0
M  V30 35053 H 3260.32 -0.441995 -3.1976 0
M  V30 35054 H 3259.37 -2.7848 -2.59139 0
M  V30 35055 H 3260.68 -3.49857 -3.5553 0
M  V30 35056 H 3259.84 -2.33103 -5.60132 0
M  V30 35057 H 3258.58 -1.51263 -4.63649 0
M  V30 35058 H 3257.58 -3.737 -4.03272 0
M  V30 35059 H 3258.81 -4.56079 -5.03159 0
M  V30 35060 H 3256.75 -2.55674 -6.04125 0
M  V30 35061 H 3256.67 -4.27716 -6.23374 0
M  V30 35062 H 3257.94 -3.38604 -7.02116 0
M  V30 35063 N 3262.17 0.91492 -1.28324 0
M  V30 35064 C 3263.12 2.00371 -1.08791 0
M  V30 35065 C 3264.1 1.60896 -0.0119279 0
M  V30 35066 O 3265.29 1.75474 -0.231933 0
M  V30 35067 C 3262.42 3.34995 -0.750567 0
M  V30 35068 C 3261.51 3.80875 -1.86533 0
M  V30 35069 N 3261.9 3.99139 -3.10679 0
M  V30 35070 C 3260.2 4.10023 -1.75492 0
M  V30 35071 C 3260.9 4.3755 -3.83307 0
M  V30 35072 N 3259.87 4.45743 -3.11149 0
M  V30 35073 H 3263.68 2.1254 -2.02988 0
M  V30 35074 H 3261.19 1.10268 -1.19226 0
M  V30 35075 H 3263.19 4.12679 -0.591716 0
M  V30 35076 H 3261.85 3.2418 0.183639 0
M  V30 35077 H 3262.86 3.85091 -3.46302 0
M  V30 35078 H 3259.53 4.07851 -0.892411 0
M  V30 35079 H 3260.92 4.59654 -4.9007 0
M  V30 35080 N 3263.64 1.10553 1.1232 0
M  V30 35081 C 3265.06 0.837567 1.35856 0
M  V30 35082 C 3265.26 -0.542376 1.94063 0
M  V30 35083 O 3264.32 -1.29501 2.16762 0
M  V30 35084 C 3265.63 1.93824 2.29897 0
M  V30 35085 C 3267.18 1.96683 2.43485 0
M  V30 35086 C 3267.65 3.05928 3.40841 0
M  V30 35087 N 3269.14 3.05242 3.48398 0
M  V30 35088 C 3269.88 3.86412 4.23643 0
M  V30 35089 N 3269.37 4.77521 5.01942 0
M  V30 35090 N 3271.17 3.74625 4.19061 0
M  V30 35091 H 3263.32 1.99499 0.728967 0
M  V30 35092 H 3265.58 0.867022 0.383375 0
M  V30 35093 H 3265.29 2.93153 1.94304 0
M  V30 35094 H 3265.16 1.82647 3.3003 0
M  V30 35095 H 3267.55 0.979862 2.78357 0
M  V30 35096 H 3267.63 2.11937 1.43235 0
M  V30 35097 H 3267.27 4.04845 3.06697 0
M  V30 35098 H 3267.2 2.87915 4.40922 0
M  V30 35099 H 3269.69 2.39225 2.92541 0
M  V30 35100 H 3270.01 5.36011 5.56697 0
M  V30 35101 H 3268.35 4.81549 5.01135 0
M  V30 35102 H 3271.54 3.02799 3.56974 0
M  V30 35103 H 3271.72 4.38119 4.77447 0
M  V30 35104 N 3265.12 -1.29758 0.894457 0
M  V30 35105 C 3266.05 -2.26876 0.325565 0
M  V30 35106 C 3267.07 -1.54096 -0.525191 0
M  V30 35107 O 3268.26 -1.7517 -0.343201 0
M  V30 35108 C 3265.36 -3.34326 -0.554893 0
M  V30 35109 C 3264.53 -4.36572 0.268945 0
M  V30 35110 C 3263.59 -5.23386 -0.543509 0
M  V30 35111 O 3262.61 -5.69188 0.0371455 0
M  V30 35112 N 3263.82 -5.50209 -1.85069 0
M  V30 35113 H 3266.58 -2.7633 1.16025 0
M  V30 35114 H 3264.14 -1.43038 0.758407 0
M  V30 35115 H 3266.13 -3.89331 -1.10469 0
M  V30 35116 H 3264.7 -2.8473 -1.29026 0
M  V30 35117 H 3263.92 -3.81301 1.00017 0
M  V30 35118 H 3265.21 -5.01929 0.833337 0
M  V30 35119 H 3264.61 -5.14796 -2.34524 0
M  V30 35120 H 3263.17 -6.0805 -2.34773 0
M  V30 35121 N 3266.6 -0.65639 -1.4328 0
M  V30 35122 C 3267.55 0.0556669 -2.27932 0
M  V30 35123 C 3268.53 0.791673 -1.40076 0
M  V30 35124 O 3269.73 0.673617 -1.63681 0
M  V30 35125 C 3266.86 1.01917 -3.27823 0
M  V30 35126 C 3265.94 0.28147 -4.23165 0
M  V30 35127 N 3266.33 -0.703717 -5.00881 0
M  V30 35128 C 3264.63 0.522481 -4.42929 0
M  V30 35129 C 3265.33 -1.14187 -5.70382 0
M  V30 35130 N 3264.31 -0.475489 -5.41516 0
M  V30 35131 H 3268.11 -0.70027 -2.85436 0
M  V30 35132 H 3265.62 -0.48393 -1.55022 0
M  V30 35133 H 3267.62 1.54411 -3.8725 0
M  V30 35134 H 3266.28 1.77513 -2.71881 0
M  V30 35135 H 3267.29 -1.08256 -5.06459 0
M  V30 35136 H 3263.97 1.25937 -3.98053 0
M  V30 35137 H 3265.36 -1.95722 -6.42762 0
M  V30 35138 N 3268.08 1.52478 -0.398513 0
M  V30 35139 C 3269.03 2.23529 0.449304 0
M  V30 35140 C 3270.01 1.24261 1.02215 0
M  V30 35141 O 3271.21 1.49553 0.946731 0
M  V30 35142 C 3268.33 3.05237 1.57115 0
M  V30 35143 C 3267.42 4.11908 1.00959 0
M  V30 35144 N 3267.81 5.05501 0.173766 0
M  V30 35145 C 3266.11 4.27203 1.28116 0
M  V30 35146 C 3266.81 5.81537 -0.137493 0
M  V30 35147 N 3265.79 5.41574 0.468877 0
M  V30 35148 H 3269.59 2.93248 -0.195706 0
M  V30 35149 H 3267.1 1.61058 -0.208333 0
M  V30 35150 H 3269.1 3.54683 2.19102 0
M  V30 35151 H 3267.76 2.37056 2.21889 0
M  V30 35152 H 3268.77 5.17552 -0.189709 0
M  V30 35153 H 3265.45 3.70251 1.92927 0
M  V30 35154 H 3266.84 6.66935 -0.815276 0
M  V30 35155 N 3269.56 0.128608 1.57074 0
M  V30 35156 C 3270.51 -0.829381 2.1238 0
M  V30 35157 C 3271.49 -1.22179 1.04696 0
M  V30 35158 O 3272.68 -1.19127 1.30911 0
M  V30 35159 C 3269.81 -2.07571 2.7344 0
M  V30 35160 C 3268.9 -1.70723 3.8822 0
M  V30 35161 N 3269.29 -1.046 4.94866 0
M  V30 35162 C 3267.59 -2.00118 3.98583 0
M  V30 35163 C 3268.29 -0.871036 5.75142 0
M  V30 35164 N 3267.26 -1.39909 5.25287 0
M  V30 35165 H 3271.07 -0.314765 2.9221 0
M  V30 35166 H 3268.58 -0.0735503 1.62233 0
M  V30 35167 H 3270.58 -2.7718 3.11411 0
M  V30 35168 H 3269.24 -2.59567 1.95077 0
M  V30 35169 H 3270.25 -0.708871 5.13026 0
M  V30 35170 H 3266.93 -2.54094 3.31274 0
M  V30 35171 H 3268.32 -0.351278 6.70981 0
M  V30 35172 N 3271.04 -1.5693 -0.145178 0
M  V30 35173 C 3271.99 -1.94821 -1.18443 0
M  V30 35174 C 3272.97 -0.819708 -1.38454 0
M  V30 35175 O 3274.16 -1.08318 -1.39986 0
M  V30 35176 C 3271.29 -2.3339 -2.51762 0
M  V30 35177 C 3270.38 -3.52815 -2.35335 0
M  V30 35178 N 3270.77 -4.69295 -1.88667 0
M  V30 35179 C 3269.07 -3.57935 -2.6608 0
M  V30 35180 C 3269.77 -5.51388 -1.85328 0
M  V30 35181 N 3268.74 -4.93147 -2.28708 0
M  V30 35182 H 3272.54 -2.82353 -0.815736 0
M  V30 35183 H 3270.06 -1.58512 -0.353214 0
M  V30 35184 H 3272.06 -2.58741 -3.26892 0
M  V30 35185 H 3270.72 -1.47211 -2.89412 0
M  V30 35186 H 3271.73 -4.93016 -1.58606 0
M  V30 35187 H 3268.4 -2.823 -3.07592 0
M  V30 35188 H 3269.79 -6.54776 -1.50723 0
M  V30 35189 N 3272.51 0.414582 -1.52049 0
M  V30 35190 C 3273.46 1.50373 -1.71383 0
M  V30 35191 C 3274.45 1.50552 -0.567719 0
M  V30 35192 O 3275.64 1.5662 -0.824569 0
M  V30 35193 C 3272.77 2.88355 -1.86296 0
M  V30 35194 C 3271.85 2.92845 -3.06762 0
M  V30 35195 N 3272.25 2.6704 -4.29562 0
M  V30 35196 C 3270.54 3.24012 -3.06483 0
M  V30 35197 C 3271.24 2.77959 -5.10993 0
M  V30 35198 N 3270.22 3.10605 -4.46123 0
M  V30 35199 H 3274.02 1.29209 -2.63974 0
M  V30 35200 H 3271.54 0.622218 -1.50007 0
M  V30 35201 H 3273.53 3.66739 -1.98262 0
M  V30 35202 H 3272.19 3.10522 -0.949014 0
M  V30 35203 H 3273.2 2.41537 -4.58127 0
M  V30 35204 H 3269.88 3.51808 -2.24805 0
M  V30 35205 H 3271.27 2.61769 -6.18811 0
M  V30 35206 N 3273.99 1.4258 0.671475 0
M  V30 35207 C 3274.94 1.42772 1.77764 0
M  V30 35208 C 3275.93 0.298595 1.58105 0
M  V30 35209 O 3277.12 0.541067 1.68527 0
M  V30 35210 C 3274.25 1.3358 3.16246 0
M  V30 35211 C 3273.33 2.51451 3.41516 0
M  V30 35212 N 3273.72 3.76863 3.37354 0
M  V30 35213 C 3272.02 2.45783 3.72165 0
M  V30 35214 C 3272.72 4.55176 3.62201 0
M  V30 35215 N 3271.7 3.85635 3.83127 0
M  V30 35216 H 3275.5 2.37629 1.72944 0
M  V30 35217 H 3273.01 1.36975 0.872443 0
M  V30 35218 H 3275.01 1.318 3.95518 0
M  V30 35219 H 3273.67 0.39728 3.2226 0
M  V30 35220 H 3274.68 4.09411 3.1718 0
M  V30 35221 H 3271.36 1.60526 3.85406 0
M  V30 35222 H 3272.75 5.64169 3.64915 0
M  V30 35223 N 3275.47 -0.908102 1.28807 0
M  V30 35224 C 3276.42 -1.99791 1.09852 0
M  V30 35225 C 3277.4 -1.60887 0.0204604 0
M  V30 35226 O 3278.6 -1.75348 0.241235 0
M  V30 35227 C 3275.72 -3.34592 0.768322 0
M  V30 35228 C 3274.81 -3.79881 1.88551 0
M  V30 35229 N 3275.2 -3.97486 3.12791 0
M  V30 35230 C 3273.5 -4.09086 1.77664 0
M  V30 35231 C 3274.2 -4.35511 3.85622 0
M  V30 35232 N 3273.18 -4.44087 3.13509 0
M  V30 35233 H 3276.98 -2.11461 2.04112 0
M  V30 35234 H 3274.49 -1.09634 1.19809 0
M  V30 35235 H 3276.49 -4.1236 0.613593 0
M  V30 35236 H 3275.15 -3.24273 -0.166444 0
M  V30 35237 H 3276.16 -3.83249 3.48339 0
M  V30 35238 H 3272.84 -4.07372 0.914028 0
M  V30 35239 H 3274.23 -4.57048 4.925 0
M  V30 35240 N 3276.95 -1.11147 -1.11732 0
M  V30 35241 C 3277.9 -0.736171 -2.15788 0
M  V30 35242 C 3278.88 0.258292 -1.58813 0
M  V30 35243 O 3280.07 0.0658768 -1.76877 0
M  V30 35244 C 3277.2 -0.177657 -3.4284 0
M  V30 35245 C 3276.29 -1.1996 -4.0678 0
M  V30 35246 N 3276.68 -2.39279 -4.45622 0
M  V30 35247 C 3274.98 -1.04183 -4.33661 0
M  V30 35248 C 3275.68 -3.0443 -4.95678 0
M  V30 35249 N 3274.65 -2.31921 -4.91644 0
M  V30 35250 H 3278.46 -1.64435 -2.43595 0
M  V30 35251 H 3275.97 -0.99027 -1.28714 0
M  V30 35252 H 3277.97 0.109328 -4.16757 0
M  V30 35253 H 3276.63 0.725145 -3.16499 0
M  V30 35254 H 3277.64 -2.76755 -4.37752 0
M  V30 35255 H 3274.32 -0.195206 -4.17043 0
M  V30 35256 H 3275.71 -4.05968 -5.35387 0
M  V30 35257 N 3278.43 1.29282 -0.901326 0
M  V30 35258 C 3279.38 2.25273 -0.351602 0
M  V30 35259 C 3280.36 1.51947 0.529249 0
M  V30 35260 O 3281.55 1.73068 0.371001 0
M  V30 35261 C 3278.68 3.40741 0.41837 0
M  V30 35262 C 3277.77 4.21403 -0.477494 0
M  V30 35263 N 3278.16 4.80309 -1.58546 0
M  V30 35264 C 3276.46 4.45148 -0.275583 0
M  V30 35265 C 3277.16 5.40886 -2.1405 0
M  V30 35266 N 3276.13 5.24363 -1.43333 0
M  V30 35267 H 3279.93 2.68377 -1.19795 0
M  V30 35268 H 3277.45 1.43911 -0.752563 0
M  V30 35269 H 3279.45 4.08576 0.82895 0
M  V30 35270 H 3278.11 2.99173 1.26196 0
M  V30 35271 H 3279.12 4.79044 -1.96818 0
M  V30 35272 H 3275.79 4.14129 0.529508 0
M  V30 35273 H 3277.18 5.97568 -3.07184 0
M  V30 35274 N 3279.9 0.663979 1.4293 0
M  V30 35275 C 3280.85 -0.0435783 2.27958 0
M  V30 35276 C 3281.84 -0.784233 1.40494 0
M  V30 35277 O 3283.03 -0.664927 1.64036 0
M  V30 35278 C 3280.16 -1.00177 3.28359 0
M  V30 35279 C 3279.24 -0.259025 4.23308 0
M  V30 35280 N 3279.64 0.73027 5.005 0
M  V30 35281 C 3277.93 -0.498984 4.432 0
M  V30 35282 C 3278.63 1.17211 5.69769 0
M  V30 35283 N 3277.61 0.5042 5.41257 0
M  V30 35284 H 3281.41 0.715398 2.8506 0
M  V30 35285 H 3278.93 0.492144 1.54763 0
M  V30 35286 H 3280.92 -1.52355 3.88064 0
M  V30 35287 H 3279.58 -1.76069 2.72818 0
M  V30 35288 H 3280.59 1.10941 5.05878 0
M  V30 35289 H 3277.27 -1.23824 3.98715 0
M  V30 35290 H 3278.66 1.99128 6.41715 0
M  V30 35291 N 3281.38 -1.52265 0.406593 0
M  V30 35292 C 3282.79 -1.86592 -0.0635742 0
M  V30 35293 C 3283.14 -1.32547 -1.44657 0
M  V30 35294 O 3282.27 -0.663728 -2.0597 0
M  V30 35295 C 3282.86 -3.3858 -0.122138 0
M  V30 35296 C 3281.42 -3.72555 -0.536636 0
M  V30 35297 C 3280.57 -2.75774 0.29047 0
M  V30 35298 H 3283.52 -1.45928 0.623764 0
M  V30 35299 H 3283.54 -3.6876 -0.937899 0
M  V30 35300 H 3283.05 -3.77885 0.884561 0
M  V30 35301 H 3281.15 -3.38827 -1.55007 0
M  V30 35302 H 3281.27 -4.78265 -0.282783 0
M  V30 35303 H 3279.63 -2.53501 -0.246819 0
M  V30 35304 H 3280.41 -3.17919 1.29547 0
M  V30 35305 N 3282.86 -0.136936 -1.57004 0
M  V30 35306 C 3284.27 0.385545 -1.82676 0
M  V30 35307 C 3284.62 1.65414 -1.05511 0
M  V30 35308 O 3283.75 2.14349 -0.297245 0
M  V30 35309 C 3284.34 0.706268 -3.31357 0
M  V30 35310 C 3282.9 1.17331 -3.57646 0
M  V30 35311 C 3282.05 0.19119 -2.7664 0
M  V30 35312 H 3285 -0.361798 -1.54521 0
M  V30 35313 H 3285.02 1.56195 -3.46963 0
M  V30 35314 H 3284.53 -0.217215 -3.87492 0
M  V30 35315 H 3282.63 2.11308 -3.06887 0
M  V30 35316 H 3282.75 1.10624 -4.66154 0
M  V30 35317 H 3281.11 0.681824 -2.45404 0
M  V30 35318 H 3281.89 -0.725706 -3.35542 0
M  V30 35319 N 3284.34 1.57005 0.136853 0
M  V30 35320 C 3285.75 1.73247 0.69588 0
M  V30 35321 C 3286.1 0.752912 1.81179 0
M  V30 35322 O 3285.23 -0.0782097 2.16259 0
M  V30 35323 C 3285.82 3.14133 1.26908 0
M  V30 35324 C 3284.38 3.31942 1.77458 0
M  V30 35325 C 3283.53 2.69157 0.66708 0
M  V30 35326 H 3286.48 1.58451 -0.088912 0
M  V30 35327 H 3286.5 3.14695 2.13886 0
M  V30 35328 H 3286.01 3.85404 0.456686 0
M  V30 35329 H 3284.11 2.65686 2.61232 0
M  V30 35330 H 3284.22 4.39974 1.89631 0
M  V30 35331 H 3282.59 2.29901 1.09625 0
M  V30 35332 H 3283.37 3.43038 -0.13404 0
M  V30 35333 N 3285.82 -0.406513 1.52267 0
M  V30 35334 C 3287.23 -0.985214 1.58589 0
M  V30 35335 C 3287.58 -1.91475 0.427989 0
M  V30 35336 O 3286.7 -2.11642 -0.451304 0
M  V30 35337 C 3287.3 -1.7936 2.87429 0
M  V30 35338 C 3285.86 -2.32228 2.96221 0
M  V30 35339 C 3285 -1.12284 2.5355 0
M  V30 35340 H 3287.96 -0.186657 1.57598 0
M  V30 35341 H 3287.98 -2.65122 2.72929 0
M  V30 35342 H 3287.49 -1.1168 3.71684 0
M  V30 35343 H 3285.59 -3.03271 2.16466 0
M  V30 35344 H 3285.7 -2.62914 4.00516 0
M  V30 35345 H 3284.07 -1.47759 2.07459 0
M  V30 35346 H 3284.85 -0.461671 3.40182 0
M  V30 35347 N 3287.29 -1.42934 -0.663904 0
M  V30 35348 C 3288.57 -1.34464 -1.42052 0
M  V30 35349 C 3288.95 0.012743 -2.11096 0
M  V30 35350 O 3288.3 1.0288 -2.04029 0
M  V30 35351 C 3288.51 -2.52044 -2.41401 0
M  V30 35352 C 3289.86 -2.94652 -3.05721 0
M  V30 35353 O 3290.88 -2.52014 -2.51729 0
M  V30 35354 O 3289.74 -3.68484 -4.03587 0
M  V30 35355 H 3286.83 -0.530845 -0.634139 0
M  V30 35356 H 3289.38 -1.54963 -0.69171 0
M  V30 35357 H 3288.15 -3.42487 -1.89257 0
M  V30 35358 H 3287.78 -2.33589 -3.21748 0
M  V30 35359 N 3288.77 0.901258 -1.29287 0
M  V30 35360 C 3289.72 2.00519 -1.14283 0
M  V30 35361 C 3290.69 1.6606 -0.036572 0
M  V30 35362 O 3291.87 1.89708 -0.203804 0
M  V30 35363 C 3289.01 3.35125 -0.82373 0
M  V30 35364 C 3288.13 3.82377 -2.01027 0
M  V30 35365 C 3287.26 5.05551 -1.63069 0
M  V30 35366 C 3286.3 5.45168 -2.78313 0
M  V30 35367 N 3285.44 6.59529 -2.40762 0
M  V30 35368 H 3290.28 2.12685 -2.08732 0
M  V30 35369 H 3287.82 1.04159 -1.03872 0
M  V30 35370 H 3289.77 4.12576 -0.619412 0
M  V30 35371 H 3288.4 3.22691 0.0838545 0
M  V30 35372 H 3287.46 3.00974 -2.32634 0
M  V30 35373 H 3288.77 4.07688 -2.87387 0
M  V30 35374 H 3287.92 5.90582 -1.38916 0
M  V30 35375 H 3286.66 4.82075 -0.738548 0
M  V30 35376 H 3285.67 4.58672 -3.0315 0
M  V30 35377 H 3286.89 5.70626 -3.68189 0
M  V30 35378 H 3284.84 6.3766 -1.54033 0
M  V30 35379 H 3284.75 6.84629 -3.20655 0
M  V30 35380 H 3286.02 7.47832 -2.19925 0
M  V30 35381 N 3290.25 1.11738 1.11141 0
M  V30 35382 C 3291.53 0.779816 1.79383 0
M  V30 35383 C 3291.91 -0.731633 1.98016 0
M  V30 35384 O 3291.26 -1.66273 1.56734 0
M  V30 35385 C 3291.47 1.54649 3.12865 0
M  V30 35386 C 3292.81 1.72777 3.87857 0
M  V30 35387 O 3293.84 1.51099 3.22564 0
M  V30 35388 O 3292.7 2.08822 5.0503 0
M  V30 35389 H 3289.79 0.282859 0.777123 0
M  V30 35390 H 3292.34 1.22098 1.17856 0
M  V30 35391 H 3291.11 2.57451 2.94677 0
M  V30 35392 H 3290.73 1.09908 3.82107 0
M  V30 35393 N 3291.73 -1.28802 0.90817 0
M  V30 35394 C 3293.14 -1.47668 0.6055 0
M  V30 35395 C 3293.34 -1.82661 -0.850727 0
M  V30 35396 O 3292.4 -1.92819 -1.63025 0
M  V30 35397 C 3293.71 -2.58355 1.5386 0
M  V30 35398 C 3295.26 -2.72227 1.54472 0
M  V30 35399 C 3295.74 -3.86052 2.46431 0
M  V30 35400 N 3297.23 -3.93397 2.44526 0
M  V30 35401 C 3297.96 -4.80839 3.1238 0
M  V30 35402 N 3297.46 -5.72912 3.89543 0
M  V30 35403 N 3299.25 -4.74402 3.01495 0
M  V30 35404 H 3291.4 -1.04367 1.8499 0
M  V30 35405 H 3293.67 -0.51926 0.793141 0
M  V30 35406 H 3293.37 -2.39388 2.57655 0
M  V30 35407 H 3293.25 -3.55338 1.26549 0
M  V30 35408 H 3295.63 -2.90586 0.514178 0
M  V30 35409 H 3295.71 -1.75792 1.85824 0
M  V30 35410 H 3295.36 -3.68448 3.49584 0
M  V30 35411 H 3295.29 -4.81872 2.12384 0
M  V30 35412 H 3297.78 -3.27548 1.8847 0
M  V30 35413 H 3298.09 -6.36449 4.38352 0
M  V30 35414 H 3296.44 -5.7277 3.93649 0
M  V30 35415 H 3299.63 -4.01462 2.4072 0
M  V30 35416 H 3299.8 -5.42336 3.54649 0
M  V30 35417 N 3293.21 -0.67155 -1.42576 0
M  V30 35418 C 3294.44 -0.200476 -2.05625 0
M  V30 35419 C 3294.84 1.14623 -1.50526 0
M  V30 35420 O 3294.19 1.72247 -0.638498 0
M  V30 35421 C 3294.25 -0.0546017 -3.59459 0
M  V30 35422 C 3293.91 -1.32951 -4.37233 0
M  V30 35423 C 3294.91 -2.26227 -4.681 0
M  V30 35424 C 3292.6 -1.5762 -4.76929 0
M  V30 35425 C 3294.59 -3.42452 -5.37592 0
M  V30 35426 C 3292.28 -2.74134 -5.46163 0
M  V30 35427 C 3293.27 -3.66375 -5.76419 0
M  V30 35428 O 3292.96 -4.80852 -6.44234 0
M  V30 35429 H 3292.69 -0.0957961 -0.669178 0
M  V30 35430 H 3295.25 -0.917734 -1.83757 0
M  V30 35431 H 3293.48 0.718204 -3.79972 0
M  V30 35432 H 3295.17 0.37618 -4.04153 0
M  V30 35433 H 3295.93 -2.08417 -4.37935 0
M  V30 35434 H 3291.81 -0.866967 -4.52774 0
M  V30 35435 H 3295.36 -4.14468 -5.61126 0
M  V30 35436 H 3291.25 -2.91871 -5.75744 0
M  V30 35437 H 3292.02 -4.80354 -6.62723 0
M  V30 35438 N 3294.68 1.52047 -0.414663 0
M  V30 35439 C 3295.65 2.25749 0.396245 0
M  V30 35440 C 3296.65 1.28325 0.968981 0
M  V30 35441 O 3297.84 1.52223 0.846989 0
M  V30 35442 C 3294.97 3.03198 1.55832 0
M  V30 35443 H 3296.16 2.98861 -0.249364 0
M  V30 35444 H 3293.72 1.55402 -0.167303 0
M  V30 35445 H 3294.45 2.34448 2.24064 0
M  V30 35446 H 3294.24 3.74731 1.15407 0
M  V30 35447 H 3295.73 3.59087 2.13181 0
M  V30 35448 N 3296.16 0.145261 1.56929 0
M  V30 35449 C 3297.09 -0.826041 2.13797 0
M  V30 35450 C 3298.11 -1.21195 1.08699 0
M  V30 35451 O 3299.3 -1.15633 1.35983 0
M  V30 35452 C 3296.4 -2.11962 2.64434 0
M  V30 35453 C 3295.57 -1.90135 3.93913 0
M  V30 35454 C 3294.63 -3.03466 4.29878 0
M  V30 35455 O 3293.65 -2.75233 4.98232 0
M  V30 35456 N 3294.86 -4.30595 3.89318 0
M  V30 35457 H 3297.62 -0.340021 2.97765 0
M  V30 35458 H 3295.18 -0.0383643 1.61855 0
M  V30 35459 H 3297.17 -2.86824 2.85507 0
M  V30 35460 H 3295.74 -2.51833 1.852 0
M  V30 35461 H 3294.96 -0.993201 3.81483 0
M  V30 35462 H 3296.25 -1.72888 4.78526 0
M  V30 35463 H 3295.65 -4.56401 3.34237 0
M  V30 35464 H 3294.21 -5.02242 4.15447 0
M  V30 35465 N 3297.64 -1.57075 -0.128525 0
M  V30 35466 C 3298.55 -2.02929 -1.17715 0
M  V30 35467 C 3299.57 -0.947957 -1.4591 0
M  V30 35468 O 3300.74 -1.25879 -1.57215 0
M  V30 35469 C 3297.81 -2.41637 -2.48621 0
M  V30 35470 C 3296.87 -3.63808 -2.27908 0
M  V30 35471 C 3296.1 -4.0066 -3.52572 0
M  V30 35472 O 3296.33 -3.3796 -4.59499 0
M  V30 35473 O 3295.26 -4.93814 -3.44139 0
M  V30 35474 H 3299.09 -2.92482 -0.817794 0
M  V30 35475 H 3296.67 -1.45512 -0.338623 0
M  V30 35476 H 3298.55 -2.67311 -3.25765 0
M  V30 35477 H 3297.23 -1.55234 -2.8405 0
M  V30 35478 H 3296.13 -3.43297 -1.48654 0
M  V30 35479 H 3297.47 -4.50887 -1.97388 0
M  V30 35480 N 3299.12 0.398432 -1.5248 0
M  V30 35481 C 3300.54 0.737829 -1.41521 0
M  V30 35482 C 3300.74 1.94455 -0.528156 0
M  V30 35483 O 3299.79 2.525 0.00199361 0
M  V30 35484 C 3301.1 0.98175 -2.84222 0
M  V30 35485 C 3302.65 1.08381 -2.93637 0
M  V30 35486 C 3303.13 1.36042 -4.37329 0
M  V30 35487 N 3304.62 1.42884 -4.40611 0
M  V30 35488 C 3305.35 1.65934 -5.48866 0
M  V30 35489 N 3304.85 1.86518 -6.6722 0
M  V30 35490 N 3306.64 1.68036 -5.36396 0
M  V30 35491 H 3298.79 -0.395741 -2.08681 0
M  V30 35492 H 3301.06 -0.114818 -0.941021 0
M  V30 35493 H 3300.76 0.167296 -3.51302 0
M  V30 35494 H 3300.64 1.89901 -3.2591 0
M  V30 35495 H 3303.02 1.88884 -2.26731 0
M  V30 35496 H 3303.1 0.144669 -2.55391 0
M  V30 35497 H 3302.75 0.560522 -5.04798 0
M  V30 35498 H 3302.68 2.31225 -4.7312 0
M  V30 35499 H 3305.17 1.28724 -3.55301 0
M  V30 35500 H 3305.48 2.03586 -7.45502 0
M  V30 35501 H 3303.83 1.83761 -6.70266 0
M  V30 35502 H 3307.02 1.51501 -4.42905 0
M  V30 35503 H 3307.19 1.85661 -6.20833 0
M  V30 35504 N 3300.6 1.43284 0.656314 0
M  V30 35505 C 3302.01 1.39803 1.23742 0
M  V30 35506 C 3302.36 0.100541 1.95942 0
M  V30 35507 O 3301.48 -0.800125 2.01065 0
M  V30 35508 C 3302.08 2.53248 2.25058 0
M  V30 35509 C 3300.64 2.53041 2.78652 0
M  V30 35510 C 3299.79 2.31107 1.53247 0
M  V30 35511 H 3302.74 1.5223 0.448526 0
M  V30 35512 H 3302.76 2.24559 3.0717 0
M  V30 35513 H 3302.27 3.47667 1.7248 0
M  V30 35514 H 3300.37 1.62493 3.35301 0
M  V30 35515 H 3300.48 3.50706 3.26408 0
M  V30 35516 H 3298.85 1.79716 1.80484 0
M  V30 35517 H 3299.63 3.27607 1.02609 0
M  V30 35518 N 3302.08 -0.894389 1.29763 0
M  V30 35519 C 3303.35 -1.62606 1.08714 0
M  V30 35520 C 3303.73 -2.07888 -0.366871 0
M  V30 35521 O 3303.08 -1.83867 -1.35666 0
M  V30 35522 C 3303.29 -2.80281 2.07952 0
M  V30 35523 C 3304.64 -3.50839 2.39159 0
M  V30 35524 O 3305.66 -2.90456 2.06188 0
M  V30 35525 O 3304.52 -4.59708 2.95517 0
M  V30 35526 H 3301.62 -0.714242 0.416879 0
M  V30 35527 H 3304.16 -0.941991 1.41155 0
M  V30 35528 H 3302.93 -2.44056 3.05864 0
M  V30 35529 H 3302.56 -3.5639 1.76273 0
M  V30 35530 N 3303.55 -1.12326 -1.10547 0
M  V30 35531 C 3304.5 -0.759017 -2.14995 0
M  V30 35532 C 3305.49 0.241433 -1.59078 0
M  V30 35533 O 3306.68 0.0471128 -1.76937 0
M  V30 35534 C 3303.81 -0.21401 -3.42632 0
M  V30 35535 C 3302.89 -1.24268 -4.05485 0
M  V30 35536 N 3303.29 -2.43992 -4.43059 0
M  V30 35537 C 3301.58 -1.08777 -4.32532 0
M  V30 35538 C 3302.28 -3.09671 -4.92422 0
M  V30 35539 N 3301.26 -2.37122 -4.89156 0
M  V30 35540 H 3305.06 -1.67009 -2.41837 0
M  V30 35541 H 3302.58 -1.00387 -1.27657 0
M  V30 35542 H 3304.57 0.0651195 -4.16849 0
M  V30 35543 H 3303.23 0.691535 -3.1725 0
M  V30 35544 H 3304.24 -2.81382 -4.34792 0
M  V30 35545 H 3300.92 -0.239428 -4.16813 0
M  V30 35546 H 3302.31 -4.11624 -5.31051 0
M  V30 35547 N 3305.03 1.28319 -0.914988 0
M  V30 35548 C 3306.28 1.94537 -0.547699 0
M  V30 35549 C 3306.6 1.72369 0.911804 0
M  V30 35550 O 3305.87 1.06411 1.6448 0
M  V30 35551 H 3304.45 0.71985 -0.199562 0
M  V30 35552 H 3307.11 1.56278 -1.16462 0
M  V30 35553 H 3306.21 3.03122 -0.743191 0
M  V30 35554 N 3306.51 0.679102 1.42218 0
M  V30 35555 C 3307.93 0.349061 1.55736 0
M  V30 35556 C 3308.13 -1.14524 1.65791 0
M  V30 35557 O 3307.18 -1.93076 1.62721 0
M  V30 35558 C 3308.49 1.08315 2.80514 0
M  V30 35559 C 3310.04 1.06589 2.94292 0
M  V30 35560 C 3310.52 1.78139 4.21936 0
M  V30 35561 N 3312.01 1.75028 4.28858 0
M  V30 35562 C 3312.74 2.27243 5.26449 0
M  V30 35563 N 3312.24 2.87858 6.30166 0
M  V30 35564 N 3314.03 2.17593 5.18276 0
M  V30 35565 H 3306.18 1.64848 1.33936 0
M  V30 35566 H 3308.45 0.694736 0.645016 0
M  V30 35567 H 3308.15 2.1382 2.79238 0
M  V30 35568 H 3308.03 0.651134 3.71537 0
M  V30 35569 H 3310.41 0.019158 2.95094 0
M  V30 35570 H 3310.49 1.53683 2.04488 0
M  V30 35571 H 3310.14 2.82783 4.21896 0
M  V30 35572 H 3310.07 1.28492 5.10683 0
M  V30 35573 H 3312.56 1.3082 3.54534 0
M  V30 35574 H 3312.87 3.2531 7.00994 0
M  V30 35575 H 3311.22 2.91929 6.30716 0
M  V30 35576 H 3314.41 1.69923 4.36169 0
M  V30 35577 H 3314.58 2.58591 5.94167 0
M  V30 35578 N 3307.99 -1.51825 0.42272 0
M  V30 35579 C 3308.95 -2.25956 -0.384268 0
M  V30 35580 C 3309.95 -1.28837 -0.962161 0
M  V30 35581 O 3311.14 -1.5267 -0.838905 0
M  V30 35582 C 3308.27 -3.0402 -1.54222 0
M  V30 35583 H 3309.47 -2.98725 0.26521 0
M  V30 35584 H 3307.02 -1.55311 0.175542 0
M  V30 35585 H 3307.75 -2.35633 -2.22817 0
M  V30 35586 H 3307.54 -3.75338 -1.13418 0
M  V30 35587 H 3309.03 -3.60213 -2.11273 0
M  V30 35588 N 3309.47 -0.153581 -1.5685 0
M  V30 35589 C 3310.88 0.202773 -1.58307 0
M  V30 35590 C 3311.08 1.64184 -1.16816 0
M  V30 35591 O 3310.14 2.36983 -0.87151 0
M  V30 35592 C 3311.45 -0.0619541 -3.00636 0
M  V30 35593 C 3313 0.00123717 -3.13 0
M  V30 35594 C 3313.47 -0.236245 -4.5739 0
M  V30 35595 N 3314.96 -0.183401 -4.62837 0
M  V30 35596 C 3315.7 -0.341571 -5.72382 0
M  V30 35597 N 3315.2 -0.557825 -6.90551 0
M  V30 35598 N 3316.99 -0.278714 -5.61409 0
M  V30 35599 H 3309.14 -1.09313 -1.82111 0
M  V30 35600 H 3311.4 -0.433224 -0.843221 0
M  V30 35601 H 3311.11 -1.05816 -3.35404 0
M  V30 35602 H 3310.98 0.65449 -3.71478 0
M  V30 35603 H 3313.37 0.988001 -2.78069 0
M  V30 35604 H 3313.45 -0.747639 -2.4463 0
M  V30 35605 H 3313.09 -1.22014 -4.93026 0
M  V30 35606 H 3313.02 0.533033 -5.23895 0
M  V30 35607 H 3315.52 -0.0211802 -3.77894 0
M  V30 35608 H 3315.83 -0.668445 -7.69904 0
M  V30 35609 H 3314.17 -0.594227 -6.92455 0
M  V30 35610 H 3317.36 -0.110484 -4.6797 0
M  V30 35611 H 3317.54 -0.405414 -6.46731 0
M  V30 35612 N 3310.94 1.57141 0.120193 0
M  V30 35613 C 3311.91 1.9932 1.13156 0
M  V30 35614 C 3312.91 0.883182 1.34375 0
M  V30 35615 O 3314.1 1.14925 1.30912 0
M  V30 35616 C 3311.23 2.33232 2.48628 0
M  V30 35617 H 3312.42 2.89871 0.769069 0
M  V30 35618 H 3309.97 1.51992 0.364449 0
M  V30 35619 H 3310.71 1.45556 2.898 0
M  V30 35620 H 3310.49 3.14188 2.34581 0
M  V30 35621 H 3311.98 2.66609 3.21418 0
M  V30 35622 N 3312.42 -0.39034 1.5269 0
M  V30 35623 C 3313.84 -0.730313 1.4191 0
M  V30 35624 C 3314.04 -1.94172 0.538461 0
M  V30 35625 O 3313.09 -2.52497 0.0113971 0
M  V30 35626 C 3314.41 -0.966663 2.84739 0
M  V30 35627 C 3315.96 -1.06822 2.94208 0
M  V30 35628 C 3316.43 -1.33721 4.38044 0
M  V30 35629 N 3317.92 -1.40545 4.41363 0
M  V30 35630 C 3318.66 -1.63021 5.49738 0
M  V30 35631 N 3318.15 -1.82976 6.682 0
M  V30 35632 N 3319.95 -1.65189 5.37279 0
M  V30 35633 H 3312.1 0.406803 2.08468 0
M  V30 35634 H 3314.36 0.119807 0.940399 0
M  V30 35635 H 3314.07 -0.148664 3.51386 0
M  V30 35636 H 3313.94 -1.8817 3.26913 0
M  V30 35637 H 3316.33 -1.87679 2.27729 0
M  V30 35638 H 3316.41 -0.131123 2.55464 0
M  V30 35639 H 3316.05 -0.533743 5.05088 0
M  V30 35640 H 3315.98 -2.28713 4.7434 0
M  V30 35641 H 3318.47 -1.26838 3.55978 0
M  V30 35642 H 3318.79 -1.9963 7.46571 0
M  V30 35643 H 3317.13 -1.80204 6.71231 0
M  V30 35644 H 3320.32 -1.4915 4.43702 0
M  V30 35645 H 3320.49 -1.82366 6.21809 0
M  V30 35646 N 3313.9 -1.4363 -0.648706 0
M  V30 35647 C 3315.18 -1.35963 -1.40618 0
M  V30 35648 C 3315.56 -0.00964733 -2.11098 0
M  V30 35649 O 3314.91 1.00711 -2.05109 0
M  V30 35650 C 3315.12 -2.54591 -2.38715 0
M  V30 35651 C 3316.46 -2.97878 -3.02579 0
M  V30 35652 O 3317.49 -2.5467 -2.49042 0
M  V30 35653 O 3316.35 -3.72743 -3.99656 0
M  V30 35654 H 3313.44 -0.537541 -0.628473 0
M  V30 35655 H 3315.99 -1.55688 -0.675236 0
M  V30 35656 H 3314.76 -3.44475 -1.85613 0
M  V30 35657 H 3314.38 -2.36989 -3.19252 0
M  V30 35658 N 3315.38 0.887495 -1.30236 0
M  V30 35659 C 3316.31 1.99851 -1.12215 0
M  V30 35660 C 3317.32 1.62666 -0.0661215 0
M  V30 35661 O 3318.51 1.75754 -0.311884 0
M  V30 35662 C 3315.61 3.3183 -0.688649 0
M  V30 35663 C 3314.79 3.97467 -1.82588 0
M  V30 35664 C 3313.84 5.07745 -1.38135 0
M  V30 35665 O 3312.87 5.29514 -2.08814 0
M  V30 35666 N 3314.07 5.79922 -0.25897 0
M  V30 35667 H 3316.84 2.1586 -2.07905 0
M  V30 35668 H 3314.4 1.06043 -1.22338 0
M  V30 35669 H 3316.39 4.02965 -0.374323 0
M  V30 35670 H 3314.96 3.12103 0.176131 0
M  V30 35671 H 3314.18 3.19537 -2.30846 0
M  V30 35672 H 3315.47 4.38061 -2.58806 0
M  V30 35673 H 3314.87 5.64736 0.330032 0
M  V30 35674 H 3313.42 6.518 -0.0040827 0
M  V30 35675 N 3316.86 1.12911 1.0995 0
M  V30 35676 C 3318.27 0.866195 1.34049 0
M  V30 35677 C 3318.47 -0.50109 1.9517 0
M  V30 35678 O 3317.53 -1.24874 2.1946 0
M  V30 35679 C 3318.84 1.98657 2.25734 0
M  V30 35680 C 3320.39 2.01804 2.39258 0
M  V30 35681 C 3320.86 3.13088 3.34275 0
M  V30 35682 N 3322.36 3.12564 3.41845 0
M  V30 35683 C 3323.09 3.95311 4.15351 0
M  V30 35684 N 3322.59 4.8806 4.917 0
M  V30 35685 N 3324.38 3.8343 4.11021 0
M  V30 35686 H 3316.53 2.01 0.686486 0
M  V30 35687 H 3318.79 0.874959 0.364898 0
M  V30 35688 H 3318.5 2.97209 1.88042 0
M  V30 35689 H 3318.37 1.89607 3.26082 0
M  V30 35690 H 3320.76 1.03868 2.76216 0
M  V30 35691 H 3320.84 2.14927 1.38708 0
M  V30 35692 H 3320.49 4.11259 2.98041 0
M  V30 35693 H 3320.42 2.97203 4.34716 0
M  V30 35694 H 3322.91 2.45376 2.87401 0
M  V30 35695 H 3323.22 5.47699 5.45202 0
M  V30 35696 H 3321.56 4.9207 4.90808 0
M  V30 35697 H 3324.76 3.10303 3.50471 0
M  V30 35698 H 3324.93 4.48148 4.68047 0
M  V30 35699 N 3318.33 -1.27832 0.92178 0
M  V30 35700 C 3319.58 -1.95267 0.569412 0
M  V30 35701 C 3319.94 -1.71165 -0.878654 0
M  V30 35702 O 3319.23 -1.02672 -1.61768 0
M  V30 35703 C 3319.42 -3.47764 0.82432 0
M  V30 35704 C 3319.25 -3.86693 2.29561 0
M  V30 35705 C 3318.02 -4.10447 2.94722 0
M  V30 35706 C 3320.22 -3.96737 3.27268 0
M  V30 35707 N 3318.2 -4.36111 4.32066 0
M  V30 35708 C 3319.57 -4.26707 4.49801 0
M  V30 35709 C 3321.63 -3.79291 3.22557 0
M  V30 35710 C 3320.33 -4.41048 5.68216 0
M  V30 35711 C 3322.36 -3.94852 4.40279 0
M  V30 35712 C 3321.72 -4.25203 5.61589 0
M  V30 35713 H 3317.82 -0.738081 0.258381 0
M  V30 35714 H 3320.4 -1.54319 1.18717 0
M  V30 35715 H 3318.57 -3.87684 0.235765 0
M  V30 35716 H 3320.3 -4.02353 0.435177 0
M  V30 35717 H 3317.06 -4.05052 2.45417 0
M  V30 35718 H 3317.48 -4.53011 5.031 0
M  V30 35719 H 3322.13 -3.5487 2.29841 0
M  V30 35720 H 3319.84 -4.64296 6.61404 0
M  V30 35721 H 3323.43 -3.8278 4.38145 0
M  V30 35722 H 3322.31 -4.36987 6.51162 0
M  V30 35723 N 3319.81 -0.686634 -1.41856 0
M  V30 35724 C 3321.04 -0.221073 -2.06218 0
M  V30 35725 C 3321.46 1.11759 -1.51299 0
M  V30 35726 O 3320.82 1.69768 -0.636283 0
M  V30 35727 C 3320.87 -0.179488 -3.60153 0
M  V30 35728 O 3319.97 0.848411 -4.03579 0
M  V30 35729 H 3319.31 -0.110239 -0.654785 0
M  V30 35730 H 3321.84 -0.93898 -1.81781 0
M  V30 35731 H 3321.85 -0.00732504 -4.07999 0
M  V30 35732 H 3320.53 -1.15654 -3.99496 0
M  V30 35733 H 3319.11 0.646328 -3.67256 0
M  V30 35734 N 3321.29 1.51599 -0.430766 0
M  V30 35735 C 3322.71 1.59385 -0.0827182 0
M  V30 35736 C 3322.91 1.44217 1.40726 0
M  V30 35737 O 3321.96 1.28006 2.17648 0
M  V30 35738 C 3323.28 2.94715 -0.596962 0
M  V30 35739 C 3324.82 3.08007 -0.556826 0
M  V30 35740 C 3325.3 4.4585 -1.04793 0
M  V30 35741 N 3326.79 4.52151 -1.00565 0
M  V30 35742 C 3327.52 5.57121 -1.35659 0
M  V30 35743 N 3327.02 6.69541 -1.78006 0
M  V30 35744 N 3328.81 5.47445 -1.27518 0
M  V30 35745 H 3320.96 1.59704 -1.4003 0
M  V30 35746 H 3323.23 0.752472 -0.576619 0
M  V30 35747 H 3322.93 3.11164 -1.63919 0
M  V30 35748 H 3322.81 3.77196 -0.0183005 0
M  V30 35749 H 3325.19 2.91229 0.476406 0
M  V30 35750 H 3325.28 2.27381 -1.17181 0
M  V30 35751 H 3324.92 4.63374 -2.0796 0
M  V30 35752 H 3324.85 5.25005 -0.409553 0
M  V30 35753 H 3327.34 3.71462 -0.694583 0
M  V30 35754 H 3327.65 7.45651 -2.03039 0
M  V30 35755 H 3326 6.70766 -1.81927 0
M  V30 35756 H 3329.19 4.58502 -0.94305 0
M  V30 35757 H 3329.36 6.29141 -1.55197 0
M  V30 35758 N 3322.77 0.161897 1.56766 0
M  V30 35759 C 3323.99 -0.495195 2.01402 0
M  V30 35760 C 3324.42 -1.56644 1.04136 0
M  V30 35761 O 3323.78 -1.8129 0.0194066 0
M  V30 35762 C 3323.82 -1.05907 3.44697 0
M  V30 35763 O 3322.93 -2.17344 3.50479 0
M  V30 35764 H 3322.27 -0.119589 0.653142 0
M  V30 35765 H 3324.8 0.263016 2.02902 0
M  V30 35766 H 3324.81 -1.38403 3.83808 0
M  V30 35767 H 3323.48 -0.274677 4.14992 0
M  V30 35768 H 3322.06 -1.85963 3.23221 0
M  V30 35769 N 3324.25 -1.57203 -0.111858 0
M  V30 35770 C 3325.66 -1.74332 -0.66823 0
M  V30 35771 C 3326.01 -0.781641 -1.79958 0
M  V30 35772 O 3325.13 0.0437949 -2.16356 0
M  V30 35773 C 3325.73 -3.16113 -1.21895 0
M  V30 35774 C 3324.29 -3.34724 -1.72154 0
M  V30 35775 C 3323.43 -2.70184 -0.624175 0
M  V30 35776 H 3326.39 -1.58289 0.114109 0
M  V30 35777 H 3326.41 -3.18058 -2.08853 0
M  V30 35778 H 3325.92 -3.86081 -0.395314 0
M  V30 35779 H 3324.02 -2.69808 -2.56972 0
M  V30 35780 H 3324.13 -4.42935 -1.82607 0
M  V30 35781 H 3322.5 -2.31616 -1.05954 0
M  V30 35782 H 3323.28 -3.42782 0.188598 0
M  V30 35783 N 3325.72 0.382237 -1.52894 0
M  V30 35784 C 3326.95 1.15213 -1.72455 0
M  V30 35785 C 3327.37 1.82761 -0.444957 0
M  V30 35786 O 3326.73 1.71091 0.599795 0
M  V30 35787 C 3326.78 2.17074 -2.87943 0
M  V30 35788 O 3325.88 3.23806 -2.55388 0
M  V30 35789 H 3325.23 0.335089 -0.573246 0
M  V30 35790 H 3327.76 0.44446 -1.99714 0
M  V30 35791 H 3327.77 2.60957 -3.13632 0
M  V30 35792 H 3326.44 1.67298 -3.80768 0
M  V30 35793 H 3325.02 2.85013 -2.40462 0
M  V30 35794 N 3327.2 1.43972 0.64108 0
M  V30 35795 C 3328.11 1.52541 1.78237 0
M  V30 35796 C 3329.13 0.411698 1.69059 0
M  V30 35797 O 3330.31 0.667604 1.90013 0
M  V30 35798 C 3327.37 1.45749 3.14576 0
M  V30 35799 C 3326.43 2.67891 3.3546 0
M  V30 35800 C 3325.66 2.61412 4.65295 0
M  V30 35801 O 3325.89 1.6686 5.45448 0
M  V30 35802 O 3324.82 3.52108 4.88163 0
M  V30 35803 H 3328.65 2.4894 1.73961 0
M  V30 35804 H 3326.23 1.26108 0.801076 0
M  V30 35805 H 3328.11 1.44447 3.9587 0
M  V30 35806 H 3326.79 0.524893 3.19416 0
M  V30 35807 H 3325.7 2.74762 2.53883 0
M  V30 35808 H 3327.03 3.60163 3.35475 0
M  V30 35809 N 3328.68 -0.880575 1.30704 0
M  V30 35810 C 3329.93 -1.62953 1.19544 0
M  V30 35811 C 3330.25 -1.93403 -0.249055 0
M  V30 35812 O 3329.52 -1.57356 -1.16687 0
M  V30 35813 H 3328.1 -0.604067 0.439445 0
M  V30 35814 H 3330.76 -1.0548 1.6389 0
M  V30 35815 H 3329.86 -2.57776 1.75949 0
M  V30 35816 N 3330.16 -1.13492 -1.09349 0
M  V30 35817 C 3331.58 -0.873292 -1.33588 0
M  V30 35818 C 3331.78 0.490733 -1.95433 0
M  V30 35819 O 3330.83 1.23708 -2.20119 0
M  V30 35820 C 3332.14 -1.99851 -2.24677 0
M  V30 35821 C 3333.69 -2.0307 -2.38184 0
M  V30 35822 C 3334.17 -3.14857 -3.3261 0
M  V30 35823 N 3335.66 -3.14372 -3.40183 0
M  V30 35824 C 3336.39 -3.97508 -4.13249 0
M  V30 35825 N 3335.89 -4.90661 -4.89105 0
M  V30 35826 N 3337.68 -3.85604 -4.08981 0
M  V30 35827 H 3329.83 -2.01362 -0.675817 0
M  V30 35828 H 3332.1 -0.876882 -0.360252 0
M  V30 35829 H 3331.8 -2.98202 -1.86464 0
M  V30 35830 H 3331.68 -1.91333 -3.25071 0
M  V30 35831 H 3334.06 -1.05332 -2.75661 0
M  V30 35832 H 3334.14 -2.1566 -1.37566 0
M  V30 35833 H 3333.79 -4.12834 -2.95856 0
M  V30 35834 H 3333.72 -2.99504 -4.33134 0
M  V30 35835 H 3336.21 -2.46897 -2.86095 0
M  V30 35836 H 3336.52 -5.50583 -5.4229 0
M  V30 35837 H 3334.87 -4.94666 -4.88191 0
M  V30 35838 H 3338.06 -3.12157 -3.48821 0
M  V30 35839 H 3338.23 -4.50624 -4.65663 0
M  V30 35840 N 3331.64 1.27341 -0.928546 0
M  V30 35841 C 3332.55 2.30552 -0.433942 0
M  V30 35842 C 3333.56 1.67081 0.485803 0
M  V30 35843 O 3334.74 1.98002 0.368405 0
M  V30 35844 C 3331.8 3.4536 0.304556 0
M  V30 35845 C 3330.87 4.24348 -0.650206 0
M  V30 35846 C 3330.1 5.33674 0.0531434 0
M  V30 35847 O 3330.32 5.56028 1.27236 0
M  V30 35848 O 3329.26 5.98707 -0.619115 0
M  V30 35849 H 3333.08 2.74897 -1.29095 0
M  V30 35850 H 3330.67 1.32307 -0.693926 0
M  V30 35851 H 3332.55 4.15185 0.721064 0
M  V30 35852 H 3331.22 3.03068 1.13715 0
M  V30 35853 H 3330.13 3.57053 -1.11641 0
M  V30 35854 H 3331.46 4.70356 -1.45005 0
M  V30 35855 N 3333.12 0.694147 1.4149 0
M  V30 35856 C 3334.07 0.00478485 2.27999 0
M  V30 35857 C 3335.05 -0.754256 1.42126 0
M  V30 35858 O 3336.24 -0.629983 1.65409 0
M  V30 35859 C 3333.37 -0.931895 3.3041 0
M  V30 35860 C 3332.46 -0.169177 4.23762 0
M  V30 35861 N 3332.85 0.836269 4.98839 0
M  V30 35862 C 3331.15 -0.404862 4.44159 0
M  V30 35863 C 3331.85 1.2927 5.67154 0
M  V30 35864 N 3330.82 0.618895 5.40065 0
M  V30 35865 H 3334.62 0.775702 2.83479 0
M  V30 35866 H 3332.14 0.524861 1.53685 0
M  V30 35867 H 3334.14 -1.4409 3.91208 0
M  V30 35868 H 3332.8 -1.70243 2.76492 0
M  V30 35869 H 3333.81 1.21646 5.03411 0
M  V30 35870 H 3330.48 -1.15339 4.01252 0
M  V30 35871 H 3331.87 2.12695 6.37346 0
M  V30 35872 N 3334.59 -1.51368 0.438799 0
M  V30 35873 C 3335.53 -2.24354 -0.417175 0
M  V30 35874 C 3336.5 -1.26347 -1.02349 0
M  V30 35875 O 3337.69 -1.55486 -1.06567 0
M  V30 35876 C 3334.82 -2.99506 -1.58158 0
M  V30 35877 C 3333.86 -4.12182 -1.09581 0
M  V30 35878 S 3334.69 -5.35487 -0.036655 0
M  V30 35879 C 3335.85 -6.14177 -1.20569 0
M  V30 35880 H 3336.08 -2.9661 0.202468 0
M  V30 35881 H 3333.62 -1.52776 0.223333 0
M  V30 35882 H 3335.57 -3.43403 -2.24911 0
M  V30 35883 H 3334.24 -2.26837 -2.17264 0
M  V30 35884 H 3333.43 -4.64049 -1.96659 0
M  V30 35885 H 3333.03 -3.70554 -0.506499 0
M  V30 35886 H 3335.32 -6.43353 -2.12376 0
M  V30 35887 H 3336.27 -7.04358 -0.726963 0
M  V30 35888 H 3336.67 -5.45694 -1.44492 0
M  V30 35889 N 3336.07 -0.170208 -1.56678 0
M  V30 35890 C 3337.03 0.746584 -2.167 0
M  V30 35891 C 3338.03 1.15886 -1.11477 0
M  V30 35892 O 3339.22 1.076 -1.36996 0
M  V30 35893 C 3336.36 2.01607 -2.74895 0
M  V30 35894 H 3337.55 0.224082 -2.99062 0
M  V30 35895 H 3335.1 0.0793487 -1.56098 0
M  V30 35896 H 3335.84 2.58168 -1.96264 0
M  V30 35897 H 3335.62 1.72943 -3.51899 0
M  V30 35898 H 3337.11 2.67036 -3.21063 0
M  V30 35899 N 3337.55 1.5726 0.10352 0
M  V30 35900 C 3338.5 1.97893 1.13236 0
M  V30 35901 C 3339.48 0.856128 1.36232 0
M  V30 35902 O 3340.68 1.11992 1.37065 0
M  V30 35903 C 3337.8 2.39983 2.45485 0
M  V30 35904 C 3336.89 3.5893 2.25898 0
M  V30 35905 N 3337.28 4.74133 1.76159 0
M  V30 35906 C 3335.58 3.64864 2.56497 0
M  V30 35907 C 3336.28 5.56108 1.70644 0
M  V30 35908 N 3335.26 4.99037 2.15553 0
M  V30 35909 H 3339.06 2.84416 0.740588 0
M  V30 35910 H 3336.57 1.59393 0.311063 0
M  V30 35911 H 3338.57 2.67317 3.19917 0
M  V30 35912 H 3337.23 1.54832 2.85407 0
M  V30 35913 H 3338.24 4.97048 1.45478 0
M  V30 35914 H 3334.92 2.90356 3 0
M  V30 35915 H 3336.31 6.58542 1.3331 0
M  V30 35916 N 3339.03 -0.374123 1.53095 0
M  V30 35917 C 3340.44 -0.715221 1.42677 0
M  V30 35918 C 3340.64 -1.9359 0.559026 0
M  V30 35919 O 3339.7 -2.52471 0.0381772 0
M  V30 35920 C 3341.01 -0.936409 2.85748 0
M  V30 35921 C 3342.56 -1.03695 2.95324 0
M  V30 35922 C 3343.04 -1.29067 4.39438 0
M  V30 35923 N 3344.53 -1.35856 4.42829 0
M  V30 35924 C 3345.26 -1.57181 5.51436 0
M  V30 35925 N 3344.76 -1.75879 6.70103 0
M  V30 35926 N 3346.55 -1.59482 5.39001 0
M  V30 35927 H 3338.7 0.428891 2.08025 0
M  V30 35928 H 3340.96 0.129774 0.939075 0
M  V30 35929 H 3340.67 -0.111386 3.51524 0
M  V30 35930 H 3340.54 -1.84692 3.2889 0
M  V30 35931 H 3342.93 -1.85253 2.29707 0
M  V30 35932 H 3343.01 -0.104021 2.55588 0
M  V30 35933 H 3342.66 -0.480142 5.05625 0
M  V30 35934 H 3342.59 -2.23669 4.76739 0
M  V30 35935 H 3345.08 -1.23055 3.57304 0
M  V30 35936 H 3345.39 -1.917 7.48646 0
M  V30 35937 H 3343.74 -1.73074 6.73105 0
M  V30 35938 H 3346.93 -1.44436 4.45259 0
M  V30 35939 H 3347.1 -1.7576 6.23708 0
M  V30 35940 N 3340.51 -1.4431 -0.633436 0
M  V30 35941 C 3341.44 -1.46983 -1.75865 0
M  V30 35942 C 3342.45 -0.363497 -1.5869 0
M  V30 35943 O 3343.64 -0.629104 -1.67046 0
M  V30 35944 C 3340.74 -1.28588 -3.13558 0
M  V30 35945 C 3339.91 -2.52425 -3.57212 0
M  V30 35946 C 3338.97 -2.28963 -4.73775 0
M  V30 35947 O 3338 -3.02436 -4.82204 0
M  V30 35948 N 3339.2 -1.31876 -5.65322 0
M  V30 35949 H 3341.96 -2.43986 -1.74043 0
M  V30 35950 H 3339.53 -1.3972 -0.817927 0
M  V30 35951 H 3341.52 -1.10743 -3.89253 0
M  V30 35952 H 3340.09 -0.399584 -3.10036 0
M  V30 35953 H 3339.31 -2.85562 -2.7175 0
M  V30 35954 H 3340.6 -3.34797 -3.8313 0
M  V30 35955 H 3339.99 -0.711888 -5.61203 0
M  V30 35956 H 3338.55 -1.20009 -6.40657 0
M  V30 35957 N 3341.98 0.873632 -1.3117 0
M  V30 35958 C 3343.23 1.62317 -1.20407 0
M  V30 35959 C 3343.55 1.93532 0.238795 0
M  V30 35960 O 3342.82 1.57973 1.15851 0
M  V30 35961 H 3341.4 0.601728 -0.442642 0
M  V30 35962 H 3344.07 1.0461 -1.64447 0
M  V30 35963 H 3343.16 2.56839 -1.77314 0
M  V30 35964 N 3343.46 1.1407 1.08746 0
M  V30 35965 C 3344.69 0.930565 1.85352 0
M  V30 35966 C 3345.11 -0.515685 1.80893 0
M  V30 35967 O 3344.47 -1.3665 1.19149 0
M  V30 35968 C 3344.52 1.43173 3.30959 0
M  V30 35969 O 3343.62 0.621539 4.07689 0
M  V30 35970 H 3342.96 0.332972 0.574479 0
M  V30 35971 H 3345.49 1.51709 1.37279 0
M  V30 35972 H 3345.5 1.43838 3.81804 0
M  V30 35973 H 3344.18 2.4847 3.3352 0
M  V30 35974 H 3342.76 0.683331 3.66586 0
M  V30 35975 N 3344.94 -1.26847 0.935286 0
M  V30 35976 C 3346.17 -1.9866 0.595739 0
M  V30 35977 C 3346.59 -1.69239 -0.820971 0
M  V30 35978 O 3345.95 -0.93701 -1.55209 0
M  V30 35979 C 3346 -3.50744 0.837337 0
M  V30 35980 O 3345.1 -4.12294 -0.0934189 0
M  V30 35981 H 3344.44 -0.623437 0.228523 0
M  V30 35982 H 3346.97 -1.61463 1.25661 0
M  V30 35983 H 3346.98 -4.00937 0.755897 0
M  V30 35984 H 3345.66 -3.71489 1.86999 0
M  V30 35985 H 3344.23 -3.7288 0.0385779 0
M  V30 35986 N 3346.42 -0.701641 -1.4112 0
M  V30 35987 C 3347.64 -0.242933 -2.05972 0
M  V30 35988 C 3348.07 1.10148 -1.52476 0
M  V30 35989 O 3347.43 1.69083 -0.654253 0
M  V30 35990 C 3347.47 -0.217677 -3.59942 0
M  V30 35991 O 3346.58 0.805558 -4.04456 0
M  V30 35992 H 3345.92 -0.117178 -0.653579 0
M  V30 35993 H 3348.45 -0.958207 -1.80775 0
M  V30 35994 H 3348.46 -0.0505984 -4.07969 0
M  V30 35995 H 3347.13 -1.19884 -3.98247 0
M  V30 35996 H 3345.71 0.60734 -3.67921 0
M  V30 35997 N 3347.9 1.51133 -0.446821 0
M  V30 35998 C 3349.14 2.02464 0.11663 0
M  V30 35999 C 3349.48 1.32978 1.4153 0
M  V30 36000 O 3348.75 0.447685 1.89278 0
M  V30 36001 C 3349.03 3.58625 0.325596 0
M  V30 36002 C 3348.89 4.38716 -0.992384 0
M  V30 36003 C 3350.21 4.26359 1.09113 0
M  V30 36004 H 3347.32 0.735864 0.0409133 0
M  V30 36005 H 3349.97 1.80683 -0.587672 0
M  V30 36006 H 3348.12 3.77315 0.925519 0
M  V30 36007 H 3349.79 4.31655 -1.62702 0
M  V30 36008 H 3348.03 4.03422 -1.59477 0
M  V30 36009 H 3348.7 5.46171 -0.800101 0
M  V30 36010 H 3351.18 4.11997 0.582871 0
M  V30 36011 H 3350.05 5.35485 1.20612 0
M  V30 36012 H 3350.32 3.87864 2.12164 0
M  V30 36013 N 3349.37 0.178515 1.56586 0
M  V30 36014 C 3350.6 -0.473806 2.01915 0
M  V30 36015 C 3351.02 -1.55531 1.05791 0
M  V30 36016 O 3350.38 -1.81259 0.0386337 0
M  V30 36017 C 3350.43 -1.02245 3.45801 0
M  V30 36018 O 3349.53 -2.13614 3.52764 0
M  V30 36019 H 3348.88 -0.112655 0.654374 0
M  V30 36020 H 3351.41 0.284522 2.02612 0
M  V30 36021 H 3351.42 -1.34325 3.85254 0
M  V30 36022 H 3350.09 -0.230646 4.1526 0
M  V30 36023 H 3348.67 -1.82525 3.25176 0
M  V30 36024 N 3350.85 -1.57312 -0.0951784 0
M  V30 36025 C 3352.1 -1.85716 -0.797109 0
M  V30 36026 C 3352.42 -0.767202 -1.79274 0
M  V30 36027 O 3351.69 0.20655 -1.94808 0
M  V30 36028 H 3350.27 -0.685259 -0.29737 0
M  V30 36029 H 3352.93 -1.94749 -0.0768275 0
M  V30 36030 H 3352.03 -2.82449 -1.32774 0
M  V30 36031 N 3352.33 0.365999 -1.53291 0
M  V30 36032 C 3353.56 1.13378 -1.73667 0
M  V30 36033 C 3353.98 1.82279 -0.464316 0
M  V30 36034 O 3353.34 1.71718 0.581615 0
M  V30 36035 C 3353.39 2.14008 -2.90229 0
M  V30 36036 O 3352.49 3.21079 -2.58808 0
M  V30 36037 H 3351.83 0.32899 -0.576768 0
M  V30 36038 H 3354.36 0.423252 -2.00174 0
M  V30 36039 H 3354.37 2.57616 -3.16383 0
M  V30 36040 H 3353.05 1.6325 -3.82521 0
M  V30 36041 H 3351.62 2.82447 -2.43471 0
M  V30 36042 N 3353.81 1.44644 0.625774 0
M  V30 36043 C 3355.22 1.42396 1.20748 0
M  V30 36044 C 3355.57 0.142081 1.95685 0
M  V30 36045 O 3354.7 -0.757297 2.02716 0
M  V30 36046 C 3355.29 2.57964 2.19636 0
M  V30 36047 C 3353.85 2.58895 2.73222 0
M  V30 36048 C 3353 2.34306 1.48311 0
M  V30 36049 H 3355.95 1.53147 0.416135 0
M  V30 36050 H 3355.97 2.31024 3.02338 0
M  V30 36051 H 3355.48 3.51247 1.65067 0
M  V30 36052 H 3353.58 1.69569 3.31779 0
M  V30 36053 H 3353.69 3.5755 3.18896 0
M  V30 36054 H 3352.06 1.83504 1.76631 0
M  V30 36055 H 3352.84 3.2971 0.956369 0
M  V30 36056 N 3355.29 -0.866663 1.31631 0
M  V30 36057 C 3356.25 -1.95574 1.19514 0
M  V30 36058 C 3357.25 -1.60341 0.121347 0
M  V30 36059 O 3358.44 -1.70207 0.370862 0
M  V30 36060 C 3355.57 -3.30509 0.835259 0
M  V30 36061 H 3356.76 -2.07748 2.16289 0
M  V30 36062 H 3354.32 -1.05537 1.1529 0
M  V30 36063 H 3355.05 -3.24035 -0.131188 0
M  V30 36064 H 3354.84 -3.57455 1.61148 0
M  V30 36065 H 3356.33 -4.10356 0.774465 0
M  V30 36066 N 3356.77 -1.14645 -1.0814 0
M  V30 36067 C 3358.18 -0.927015 -1.6206 0
M  V30 36068 C 3358.53 0.533545 -1.88806 0
M  V30 36069 O 3357.65 1.40302 -1.64756 0
M  V30 36070 C 3358.25 -1.67635 -2.94422 0
M  V30 36071 C 3356.81 -1.50241 -3.45115 0
M  V30 36072 C 3355.95 -1.69709 -2.19304 0
M  V30 36073 H 3358.9 -1.29786 -0.913303 0
M  V30 36074 H 3358.93 -1.14114 -3.62985 0
M  V30 36075 H 3358.44 -2.73932 -2.74923 0
M  V30 36076 H 3356.54 -0.463032 -3.69712 0
M  V30 36077 H 3356.65 -2.27416 -4.21686 0
M  V30 36078 H 3355.02 -1.12295 -2.28609 0
M  V30 36079 H 3355.8 -2.77355 -2.0231 0
M  V30 36080 N 3358.24 1.26349 -0.942 0
M  V30 36081 C 3359.47 1.98341 -0.606266 0
M  V30 36082 C 3359.89 1.69672 0.811985 0
M  V30 36083 O 3359.25 0.945228 1.5471 0
M  V30 36084 C 3359.3 3.50295 -0.855926 0
M  V30 36085 O 3358.4 4.12338 0.0715526 0
M  V30 36086 H 3357.74 0.622216 -0.231826 0
M  V30 36087 H 3360.27 1.60795 -1.26516 0
M  V30 36088 H 3360.28 4.0053 -0.777149 0
M  V30 36089 H 3358.96 3.70492 -1.88967 0
M  V30 36090 H 3357.54 3.72854 -0.0583521 0
M  V30 36091 N 3359.72 0.709115 1.40746 0
M  V30 36092 C 3360.95 0.255294 2.05319 0
M  V30 36093 C 3361.36 -1.10052 1.53408 0
M  V30 36094 O 3360.72 -1.69038 0.687934 0
M  V30 36095 C 3360.77 0.219314 3.60834 0
M  V30 36096 O 3360.49 1.52158 4.10828 0
M  V30 36097 C 3361.99 -0.253849 4.42573 0
M  V30 36098 H 3359.21 0.115971 0.660902 0
M  V30 36099 H 3361.76 0.965505 1.80273 0
M  V30 36100 H 3359.91 -0.441815 3.84872 0
M  V30 36101 H 3360.33 1.41773 5.04976 0
M  V30 36102 H 3361.8 -0.227883 5.51529 0
M  V30 36103 H 3362.28 -1.29497 4.19675 0
M  V30 36104 H 3362.88 0.376768 4.23628 0
M  V30 36105 N 3361.2 -1.50894 0.454829 0
M  V30 36106 C 3362.42 -2.07128 -0.106222 0
M  V30 36107 C 3362.85 -1.31826 -1.34177 0
M  V30 36108 O 3362.21 -0.361179 -1.77666 0
M  V30 36109 C 3362.26 -3.5849 -0.389546 0
M  V30 36110 O 3361.36 -3.85198 -1.47298 0
M  V30 36111 H 3360.7 -0.663975 0.00581755 0
M  V30 36112 H 3363.23 -1.94293 0.641197 0
M  V30 36113 H 3363.24 -4.0303 -0.634863 0
M  V30 36114 H 3361.92 -4.12719 0.513411 0
M  V30 36115 H 3360.49 -3.52508 -1.21625 0
M  V30 36116 N 3362.68 -0.186817 -1.56489 0
M  V30 36117 C 3363.93 0.453227 -1.96952 0
M  V30 36118 C 3364.25 1.62723 -1.07453 0
M  V30 36119 O 3363.52 1.95369 -0.14408 0
M  V30 36120 H 3362.1 0.170432 -0.727298 0
M  V30 36121 H 3364.76 -0.271618 -1.92998 0
M  V30 36122 H 3363.85 0.802898 -3.01596 0
M  V30 36123 N 3364.16 1.57361 0.0868344 0
M  V30 36124 C 3365.38 1.90718 0.802134 0
M  V30 36125 C 3365.8 0.781334 1.71874 0
M  V30 36126 O 3365.16 -0.246223 1.80831 0
M  V30 36127 C 3365.21 3.23742 1.60852 0
M  V30 36128 O 3364.93 4.31996 0.728775 0
M  V30 36129 C 3366.43 3.71016 2.42615 0
M  V30 36130 H 3363.65 0.630749 0.228903 0
M  V30 36131 H 3366.19 2.04407 0.0615981 0
M  V30 36132 H 3364.35 3.11626 2.30148 0
M  V30 36133 H 3364.76 5.08437 1.28811 0
M  V30 36134 H 3366.24 4.66766 2.94675 0
M  V30 36135 H 3366.71 2.9927 3.21456 0
M  V30 36136 H 3367.32 3.86027 1.78503 0
M  V30 36137 N 3365.63 -0.357865 1.53483 0
M  V30 36138 C 3366.86 -1.12455 1.74266 0
M  V30 36139 C 3367.28 -1.8203 0.473976 0
M  V30 36140 O 3366.64 -1.72024 -0.5725 0
M  V30 36141 C 3366.69 -2.12466 2.9136 0
M  V30 36142 O 3365.79 -3.19702 2.60508 0
M  V30 36143 H 3365.13 -0.325927 0.578505 0
M  V30 36144 H 3367.66 -0.412631 2.00396 0
M  V30 36145 H 3367.67 -2.55935 3.17744 0
M  V30 36146 H 3366.35 -1.61219 3.83381 0
M  V30 36147 H 3364.93 -2.81152 2.44966 0
M  V30 36148 N 3367.11 -1.44974 -0.618094 0
M  V30 36149 C 3368.34 -1.51947 -1.40426 0
M  V30 36150 C 3368.75 -0.148589 -1.88214 0
M  V30 36151 O 3368.11 0.84795 -1.61605 0
M  V30 36152 C 3368.16 -2.49512 -2.61584 0
M  V30 36153 O 3367.88 -3.81272 -2.15785 0
M  V30 36154 C 3369.38 -2.6608 -3.54565 0
M  V30 36155 H 3366.6 -0.514928 -0.430221 0
M  V30 36156 H 3369.15 -1.90062 -0.754758 0
M  V30 36157 H 3367.3 -2.14498 -3.22598 0
M  V30 36158 H 3367.72 -4.34066 -2.94427 0
M  V30 36159 H 3369.19 -3.38346 -4.36149 0
M  V30 36160 H 3369.67 -1.71754 -4.04224 0
M  V30 36161 H 3370.27 -3.02048 -2.99411 0
M  V30 36162 N 3368.59 0.85967 -1.32089 0
M  V30 36163 C 3370 1.42936 -1.2011 0
M  V30 36164 C 3370.35 1.95294 0.188376 0
M  V30 36165 O 3369.48 1.8713 1.0868 0
M  V30 36166 C 3370.07 2.59817 -2.17441 0
M  V30 36167 C 3368.63 3.128 -2.09364 0
M  V30 36168 C 3367.78 1.85533 -2.06089 0
M  V30 36169 H 3370.73 0.667277 -1.4399 0
M  V30 36170 H 3370.75 3.36824 -1.77001 0
M  V30 36171 H 3370.26 2.21679 -3.18559 0
M  V30 36172 H 3368.36 3.55533 -1.11477 0
M  V30 36173 H 3368.48 3.74384 -2.98954 0
M  V30 36174 H 3366.84 2.04925 -1.51254 0
M  V30 36175 H 3367.62 1.49619 -3.0898 0
M  V30 36176 N 3370.07 1.15217 1.0753 0
M  V30 36177 C 3371.48 0.894434 1.32182 0
M  V30 36178 C 3371.68 -0.459579 1.96189 0
M  V30 36179 O 3370.74 -1.20191 2.2206 0
M  V30 36180 C 3372.05 2.03401 2.21469 0
M  V30 36181 C 3373.6 2.06833 2.34924 0
M  V30 36182 C 3374.08 3.20108 3.27559 0
M  V30 36183 N 3375.57 3.19744 3.35138 0
M  V30 36184 C 3376.3 4.04032 4.06873 0
M  V30 36185 N 3375.8 4.9838 4.81237 0
M  V30 36186 N 3377.59 3.92062 4.02795 0
M  V30 36187 H 3369.74 2.02411 0.643696 0
M  V30 36188 H 3372 0.882502 0.346256 0
M  V30 36189 H 3371.71 3.0113 1.81696 0
M  V30 36190 H 3371.58 1.96481 3.21986 0
M  V30 36191 H 3373.97 1.09704 2.73951 0
M  V30 36192 H 3374.05 2.17821 1.34118 0
M  V30 36193 H 3373.7 4.17488 2.8925 0
M  V30 36194 H 3373.63 3.06357 4.28314 0
M  V30 36195 H 3376.12 2.51417 2.82131 0
M  V30 36196 H 3376.43 5.5914 5.33462 0
M  V30 36197 H 3374.78 5.0237 4.8026 0
M  V30 36198 H 3377.97 3.17667 3.4381 0
M  V30 36199 H 3378.14 4.57975 4.58435 0
M  V30 36200 N 3371.55 -1.25848 0.948687 0
M  V30 36201 C 3372.96 -1.45667 0.652173 0
M  V30 36202 C 3373.16 -1.85275 -0.792184 0
M  V30 36203 O 3372.22 -1.97907 -1.56808 0
M  V30 36204 C 3373.53 -2.5333 1.62002 0
M  V30 36205 C 3375.08 -2.67175 1.63054 0
M  V30 36206 C 3375.55 -3.78016 2.58588 0
M  V30 36207 N 3377.05 -3.85419 2.56918 0
M  V30 36208 C 3377.78 -4.70658 3.27519 0
M  V30 36209 N 3377.28 -5.60229 4.07573 0
M  V30 36210 N 3379.07 -4.6457 3.16435 0
M  V30 36211 H 3371.22 -0.984292 1.88217 0
M  V30 36212 H 3373.48 -0.493764 0.80926 0
M  V30 36213 H 3373.19 -2.3107 2.65141 0
M  V30 36214 H 3373.06 -3.51132 1.3779 0
M  V30 36215 H 3375.45 -2.88803 0.606366 0
M  V30 36216 H 3375.53 -1.69792 1.91323 0
M  V30 36217 H 3375.18 -3.57139 3.61129 0
M  V30 36218 H 3375.11 -4.74871 2.27607 0
M  V30 36219 H 3377.6 -3.21386 1.98795 0
M  V30 36220 H 3377.91 -6.22181 4.58378 0
M  V30 36221 H 3376.25 -5.59957 4.11672 0
M  V30 36222 H 3379.45 -3.936 2.53371 0
M  V30 36223 H 3379.62 -5.30778 3.71724 0
M  V30 36224 N 3373.02 -0.716569 -1.40368 0
M  V30 36225 C 3374.27 -0.255994 -2.00472 0
M  V30 36226 C 3374.59 1.15511 -1.57106 0
M  V30 36227 O 3373.86 1.78326 -0.810956 0
M  V30 36228 H 3372.44 -0.0916557 -0.741356 0
M  V30 36229 H 3375.11 -0.922419 -1.7169 0
M  V30 36230 H 3374.2 -0.289861 -3.10751 0
M  V30 36231 N 3374.5 1.50651 -0.462825 0
M  V30 36232 C 3375.92 1.59174 -0.116508 0
M  V30 36233 C 3376.12 1.47169 1.37635 0
M  V30 36234 O 3375.17 1.32594 2.14884 0
M  V30 36235 C 3376.49 2.93382 -0.659341 0
M  V30 36236 C 3378.04 3.06757 -0.622034 0
M  V30 36237 C 3378.51 4.43527 -1.14227 0
M  V30 36238 N 3380 4.49917 -1.10133 0
M  V30 36239 C 3380.74 5.54118 -1.47446 0
M  V30 36240 N 3380.23 6.65615 -1.92168 0
M  V30 36241 N 3382.03 5.44617 -1.39101 0
M  V30 36242 H 3374.18 1.56698 -1.43386 0
M  V30 36243 H 3376.44 0.740072 -0.592451 0
M  V30 36244 H 3376.15 3.07618 -1.70483 0
M  V30 36245 H 3376.02 3.77072 -0.0983051 0
M  V30 36246 H 3378.41 2.92174 0.414524 0
M  V30 36247 H 3378.49 2.24845 -1.21978 0
M  V30 36248 H 3378.13 4.58858 -2.17742 0
M  V30 36249 H 3378.06 5.24018 -0.520822 0
M  V30 36250 H 3380.55 3.69905 -0.773219 0
M  V30 36251 H 3380.87 7.41176 -2.18809 0
M  V30 36252 H 3379.21 6.66756 -1.96114 0
M  V30 36253 H 3382.4 4.56399 -1.04009 0
M  V30 36254 H 3382.57 6.25707 -1.68507 0
M  V30 36255 N 3375.98 0.195113 1.56388 0
M  V30 36256 C 3377.4 -0.16073 1.58789 0
M  V30 36257 C 3377.6 -1.61029 1.21128 0
M  V30 36258 O 3376.65 -2.34589 0.934035 0
M  V30 36259 C 3377.97 0.141641 3.00366 0
M  V30 36260 C 3379.51 0.0817497 3.12893 0
M  V30 36261 C 3379.99 0.357431 4.56603 0
M  V30 36262 N 3381.48 0.30605 4.62188 0
M  V30 36263 C 3382.21 0.493208 5.71275 0
M  V30 36264 N 3381.71 0.740716 6.88829 0
M  V30 36265 N 3383.5 0.427463 5.60472 0
M  V30 36266 H 3375.65 1.14103 1.79149 0
M  V30 36267 H 3377.92 0.455428 0.831438 0
M  V30 36268 H 3377.62 1.14671 3.32481 0
M  V30 36269 H 3377.5 -0.555769 3.73083 0
M  V30 36270 H 3379.88 -0.913929 2.80591 0
M  V30 36271 H 3379.97 0.812236 2.42562 0
M  V30 36272 H 3379.61 1.35043 4.89618 0
M  V30 36273 H 3379.54 -0.393944 5.25124 0
M  V30 36274 H 3382.03 0.121365 3.77705 0
M  V30 36275 H 3382.34 0.872336 7.67861 0
M  V30 36276 H 3380.69 0.77761 6.90636 0
M  V30 36277 H 3383.88 0.234519 4.67512 0
M  V30 36278 H 3384.05 0.57674 6.45428 0
M  V30 36279 N 3377.46 -1.57404 -0.0784879 0
M  V30 36280 C 3378.39 -1.99941 -1.12055 0
M  V30 36281 C 3379.4 -0.904367 -1.3537 0
M  V30 36282 O 3380.59 -1.18232 -1.33729 0
M  V30 36283 C 3377.69 -2.31744 -2.47281 0
M  V30 36284 C 3376.87 -3.63009 -2.44014 0
M  V30 36285 C 3375.92 -3.82559 -3.61297 0
M  V30 36286 O 3374.95 -4.54223 -3.43031 0
M  V30 36287 N 3376.15 -3.24401 -4.81399 0
M  V30 36288 H 3378.92 -2.89946 -0.758365 0
M  V30 36289 H 3376.48 -1.59679 -0.267238 0
M  V30 36290 H 3378.47 -2.42001 -3.24373 0
M  V30 36291 H 3377.04 -1.47662 -2.75526 0
M  V30 36292 H 3376.26 -3.63568 -1.52354 0
M  V30 36293 H 3377.55 -4.49213 -2.38926 0
M  V30 36294 H 3376.95 -2.6622 -4.99143 0
M  V30 36295 H 3375.5 -3.40117 -5.56025 0
M  V30 36296 N 3378.94 0.34972 -1.53671 0
M  V30 36297 C 3379.87 1.43488 -1.8421 0
M  V30 36298 C 3380.85 1.55175 -0.696752 0
M  V30 36299 O 3382.03 1.69484 -0.948091 0
M  V30 36300 C 3379.16 2.80622 -2.04618 0
M  V30 36301 C 3378.12 2.83747 -3.20424 0
M  V30 36302 C 3377.44 4.23707 -3.26154 0
M  V30 36303 C 3378.74 2.49838 -4.5867 0
M  V30 36304 H 3380.44 1.1818 -2.75089 0
M  V30 36305 H 3377.98 0.567078 -1.32364 0
M  V30 36306 H 3379.94 3.56578 -2.24566 0
M  V30 36307 H 3378.66 3.07352 -1.10464 0
M  V30 36308 H 3377.32 2.10243 -3.00322 0
M  V30 36309 H 3376.97 4.47537 -2.29607 0
M  V30 36310 H 3376.67 4.2671 -4.0397 0
M  V30 36311 H 3378.19 5.01514 -3.48305 0
M  V30 36312 H 3379.6 3.15507 -4.78673 0
M  V30 36313 H 3378 2.64134 -5.38844 0
M  V30 36314 H 3379.07 1.45041 -4.627 0
M  V30 36315 N 3380.41 1.45299 0.610397 0
M  V30 36316 C 3381.83 1.43669 1.19231 0
M  V30 36317 C 3382.18 0.162828 1.95523 0
M  V30 36318 O 3381.3 -0.735753 2.03508 0
M  V30 36319 C 3381.9 2.6028 2.16887 0
M  V30 36320 C 3380.46 2.61778 2.70461 0
M  V30 36321 C 3379.6 2.35866 1.45817 0
M  V30 36322 H 3382.55 1.5358 0.399868 0
M  V30 36323 H 3382.57 2.34218 2.99871 0
M  V30 36324 H 3382.09 3.52978 1.61332 0
M  V30 36325 H 3380.19 1.73078 3.29962 0
M  V30 36326 H 3380.3 3.60913 3.15086 0
M  V30 36327 H 3378.66 1.85367 1.74675 0
M  V30 36328 H 3379.45 3.30705 0.921345 0
M  V30 36329 N 3381.89 -0.852653 1.32543 0
M  V30 36330 C 3382.82 -1.96805 1.17475 0
M  V30 36331 C 3383.84 -1.62433 0.109226 0
M  V30 36332 O 3385.03 -1.74865 0.358372 0
M  V30 36333 C 3382.13 -3.29887 0.776386 0
M  V30 36334 C 3381.3 -3.92487 1.93062 0
M  V30 36335 C 3380.36 -5.03904 1.51548 0
M  V30 36336 O 3379.38 -5.23792 2.2278 0
M  V30 36337 N 3380.59 -5.79032 0.412635 0
M  V30 36338 H 3383.35 -2.10272 2.13555 0
M  V30 36339 H 3380.91 -1.02762 1.25106 0
M  V30 36340 H 3382.9 -4.01831 0.481031 0
M  V30 36341 H 3381.47 -3.12461 -0.09332 0
M  V30 36342 H 3380.69 -3.13304 2.39236 0
M  V30 36343 H 3381.98 -4.31045 2.70329 0
M  V30 36344 H 3381.38 -5.65413 -0.180186 0
M  V30 36345 H 3379.94 -6.5156 0.176894 0
M  V30 36346 N 3383.37 -1.15786 -1.06918 0
M  V30 36347 C 3384.6 -0.959454 -1.83309 0
M  V30 36348 C 3385.01 0.4923 -1.82269 0
M  V30 36349 O 3384.37 1.34154 -1.23729 0
M  V30 36350 C 3384.42 -1.47141 -3.302 0
M  V30 36351 O 3384.14 -2.8663 -3.31323 0
M  V30 36352 C 3385.64 -1.31512 -4.23343 0
M  V30 36353 H 3382.86 -0.340485 -0.578196 0
M  V30 36354 H 3385.41 -1.53664 -1.34936 0
M  V30 36355 H 3383.56 -0.936653 -3.75906 0
M  V30 36356 H 3383.98 -3.09938 -4.2313 0
M  V30 36357 H 3385.45 -1.72172 -5.24462 0
M  V30 36358 H 3385.93 -0.25985 -4.38431 0
M  V30 36359 H 3386.53 -1.83917 -3.83477 0
M  V30 36360 N 3384.85 1.25343 -0.955348 0
M  V30 36361 C 3386.26 1.74977 -0.651148 0
M  V30 36362 C 3386.61 1.77617 0.833464 0
M  V30 36363 O 3385.74 1.39748 1.65225 0
M  V30 36364 C 3386.33 3.17762 -1.17527 0
M  V30 36365 C 3384.89 3.64953 -0.921215 0
M  V30 36366 C 3384.04 2.43982 -1.31789 0
M  V30 36367 H 3386.99 1.1122 -1.13207 0
M  V30 36368 H 3387.01 3.7671 -0.535691 0
M  V30 36369 H 3386.52 3.15809 -2.2558 0
M  V30 36370 H 3384.62 3.7232 0.144326 0
M  V30 36371 H 3384.73 4.53054 -1.55818 0
M  V30 36372 H 3383.1 2.43826 -0.736262 0
M  V30 36373 H 3383.88 2.44718 -2.40765 0
M  V30 36374 N 3386.33 0.724003 1.39986 0
M  V30 36375 C 3387.55 0.27567 2.0556 0
M  V30 36376 C 3387.98 -1.07708 1.54209 0
M  V30 36377 O 3387.34 -1.68021 0.68107 0
M  V30 36378 C 3387.38 0.274913 3.59551 0
M  V30 36379 O 3386.49 -0.741111 4.05686 0
M  V30 36380 H 3385.83 0.127561 0.651632 0
M  V30 36381 H 3388.36 0.986846 1.79228 0
M  V30 36382 H 3388.37 0.115496 4.07836 0
M  V30 36383 H 3387.04 1.26205 3.96289 0
M  V30 36384 H 3385.62 -0.54873 3.68841 0
M  V30 36385 N 3387.81 -1.50403 0.470808 0
M  V30 36386 C 3389.03 -2.06738 -0.0819771 0
M  V30 36387 C 3389.45 -1.33471 -1.33533 0
M  V30 36388 O 3388.81 -0.403903 -1.77974 0
M  V30 36389 C 3388.86 -3.59598 -0.370364 0
M  V30 36390 O 3388.58 -4.30102 0.833275 0
M  V30 36391 C 3390.08 -4.32554 -0.970146 0
M  V30 36392 H 3387.3 -0.670964 0.00695682 0
M  V30 36393 H 3389.84 -1.93574 0.65951 0
M  V30 36394 H 3388 -3.72565 -1.06178 0
M  V30 36395 H 3388.41 -5.21309 0.577706 0
M  V30 36396 H 3389.89 -5.40483 -1.1217 0
M  V30 36397 H 3390.36 -3.93032 -1.96017 0
M  V30 36398 H 3390.97 -4.24116 -0.317115 0
M  V30 36399 N 3389.28 -0.203404 -1.56282 0
M  V30 36400 C 3390.69 0.307719 -1.84147 0
M  V30 36401 C 3391.05 1.6079 -1.12432 0
M  V30 36402 O 3390.17 2.12895 -0.38789 0
M  V30 36403 C 3390.77 0.565093 -3.34054 0
M  V30 36404 C 3389.32 1.02057 -3.623 0
M  V30 36405 C 3388.47 0.0736856 -2.77202 0
M  V30 36406 H 3391.42 -0.42701 -1.52847 0
M  V30 36407 H 3391.44 1.41339 -3.53276 0
M  V30 36408 H 3390.96 -0.381368 -3.86222 0
M  V30 36409 H 3389.06 1.98102 -3.15573 0
M  V30 36410 H 3389.17 0.907531 -4.70426 0
M  V30 36411 H 3387.53 0.577126 -2.48075 0
M  V30 36412 H 3388.32 -0.867368 -3.32162 0
M  V30 36413 N 3390.76 1.57444 0.0701393 0
M  V30 36414 C 3392.18 1.53838 0.424964 0
M  V30 36415 C 3392.38 0.923825 1.79075 0
M  V30 36416 O 3391.43 0.527045 2.46938 0
M  V30 36417 C 3392.75 2.98483 0.36451 0
M  V30 36418 C 3394.29 3.09827 0.444577 0
M  V30 36419 C 3394.77 4.56125 0.414013 0
M  V30 36420 N 3396.26 4.60768 0.474038 0
M  V30 36421 C 3397 5.71449 0.472629 0
M  V30 36422 N 3396.49 6.91489 0.425937 0
M  V30 36423 N 3398.28 5.59696 0.51931 0
M  V30 36424 H 3390.44 1.95759 -0.824151 0
M  V30 36425 H 3392.7 0.896083 -0.309417 0
M  V30 36426 H 3392.4 3.47011 -0.572404 0
M  V30 36427 H 3392.28 3.58462 1.17408 0
M  V30 36428 H 3394.67 2.61271 1.37191 0
M  V30 36429 H 3394.75 2.52754 -0.393592 0
M  V30 36430 H 3394.39 5.05338 -0.509483 0
M  V30 36431 H 3394.32 5.11063 1.26974 0
M  V30 36432 H 3396.81 3.74384 0.514305 0
M  V30 36433 H 3397.12 7.71609 0.428833 0
M  V30 36434 H 3395.47 6.9389 0.3926 0
M  V30 36435 H 3398.66 4.64816 0.553491 0
M  V30 36436 H 3398.83 6.45952 0.514742 0
M  V30 36437 N 3392.24 -0.341566 1.53854 0
M  V30 36438 C 3393.65 -0.917064 1.62625 0
M  V30 36439 C 3394 -1.89488 0.508815 0
M  V30 36440 O 3393.13 -2.13365 -0.361133 0
M  V30 36441 C 3393.72 -1.67007 2.94778 0
M  V30 36442 C 3392.28 -2.19455 3.05804 0
M  V30 36443 C 3391.43 -1.01429 2.58084 0
M  V30 36444 H 3394.38 -0.119646 1.58248 0
M  V30 36445 H 3394.4 -2.53308 2.83929 0
M  V30 36446 H 3393.91 -0.958155 3.76086 0
M  V30 36447 H 3392.01 -2.93817 2.29134 0
M  V30 36448 H 3392.13 -2.45691 4.11306 0
M  V30 36449 H 3390.49 -1.38827 2.13539 0
M  V30 36450 H 3391.27 -0.316973 3.41834 0
M  V30 36451 N 3393.72 -1.45621 -0.602683 0
M  V30 36452 C 3394.67 -1.51091 -1.7075 0
M  V30 36453 C 3395.65 -0.373689 -1.565 0
M  V30 36454 O 3396.84 -0.620857 -1.65754 0
M  V30 36455 C 3393.97 -1.48516 -3.09512 0
M  V30 36456 C 3393.06 -2.67458 -3.2913 0
M  V30 36457 N 3393.45 -3.9253 -3.18989 0
M  V30 36458 C 3391.75 -2.63259 -3.60015 0
M  V30 36459 C 3392.45 -4.71939 -3.40071 0
M  V30 36460 N 3391.42 -4.03475 -3.64292 0
M  V30 36461 H 3395.23 -2.4561 -1.6141 0
M  V30 36462 H 3392.74 -1.40982 -0.806097 0
M  V30 36463 H 3394.74 -1.5052 -3.88779 0
M  V30 36464 H 3393.4 -0.550582 -3.19998 0
M  V30 36465 H 3394.41 -4.24078 -2.97285 0
M  V30 36466 H 3391.09 -1.78732 -3.77308 0
M  V30 36467 H 3392.48 -5.80937 -3.37583 0
M  V30 36468 N 3395.2 0.845612 -1.32993 0
M  V30 36469 C 3396.44 1.60279 -1.24251 0
M  V30 36470 C 3396.77 1.93238 0.193015 0
M  V30 36471 O 3396.05 1.58124 1.13257 0
M  V30 36472 C 3396.33 2.91723 -2.11116 0
M  V30 36473 C 3396.19 2.65488 -3.63093 0
M  V30 36474 C 3397.5 3.93085 -1.97919 0
M  V30 36475 H 3394.62 0.58157 -0.452709 0
M  V30 36476 H 3397.27 0.975799 -1.63028 0
M  V30 36477 H 3395.42 3.45233 -1.78175 0
M  V30 36478 H 3397.09 2.18462 -4.06291 0
M  V30 36479 H 3395.33 1.993 -3.85308 0
M  V30 36480 H 3396 3.59121 -4.19209 0
M  V30 36481 H 3398.48 3.4886 -2.26794 0
M  V30 36482 H 3397.35 4.82898 -2.6096 0
M  V30 36483 H 3397.61 4.31784 -0.949453 0
M  V30 36484 N 3396.67 1.16351 1.06302 0
M  V30 36485 C 3397.9 0.969672 1.83336 0
M  V30 36486 C 3398.32 -0.477199 1.81946 0
M  V30 36487 O 3397.68 -1.34092 1.2202 0
M  V30 36488 C 3397.73 1.5016 3.27848 0
M  V30 36489 O 3396.83 0.707877 4.06279 0
M  V30 36490 H 3396.17 0.345082 0.567287 0
M  V30 36491 H 3398.7 1.54587 1.3403 0
M  V30 36492 H 3398.71 1.51905 3.78667 0
M  V30 36493 H 3397.39 2.55489 3.28174 0
M  V30 36494 H 3395.97 0.760936 3.65054 0
M  V30 36495 N 3398.15 -1.24835 0.961982 0
M  V30 36496 C 3399.38 -1.96527 0.637249 0
M  V30 36497 C 3399.79 -1.71624 -0.79635 0
M  V30 36498 O 3399.13 -0.993399 -1.54523 0
M  V30 36499 C 3399.19 -3.49905 0.825034 0
M  V30 36500 C 3398.86 -3.98496 2.23718 0
M  V30 36501 C 3399.86 -4.08618 3.21446 0
M  V30 36502 C 3397.54 -4.3197 2.56335 0
M  V30 36503 C 3399.53 -4.51538 4.4988 0
M  V30 36504 C 3397.22 -4.74575 3.84996 0
M  V30 36505 C 3398.22 -4.84323 4.81581 0
M  V30 36506 O 3397.91 -5.2598 6.07947 0
M  V30 36507 H 3397.64 -0.633009 0.237225 0
M  V30 36508 H 3400.19 -1.5977 1.29084 0
M  V30 36509 H 3398.42 -3.86531 0.114287 0
M  V30 36510 H 3400.11 -4.02806 0.500249 0
M  V30 36511 H 3400.88 -3.8298 2.97576 0
M  V30 36512 H 3396.76 -4.23605 1.81879 0
M  V30 36513 H 3400.3 -4.59062 5.25269 0
M  V30 36514 H 3396.2 -4.99659 4.0867 0
M  V30 36515 H 3396.97 -5.44146 6.11431 0
M  V30 36516 N 3399.63 -0.731417 -1.396 0
M  V30 36517 C 3400.85 -0.286568 -2.05411 0
M  V30 36518 C 3401.28 1.06889 -1.54778 0
M  V30 36519 O 3400.64 1.67658 -0.689971 0
M  V30 36520 C 3400.69 -0.293977 -3.594 0
M  V30 36521 O 3399.79 0.719586 -4.06074 0
M  V30 36522 H 3399.13 -0.131015 -0.650946 0
M  V30 36523 H 3401.66 -0.996337 -1.78702 0
M  V30 36524 H 3401.67 -0.137123 -4.0777 0
M  V30 36525 H 3400.35 -1.28305 -3.95614 0
M  V30 36526 H 3398.92 0.529162 -3.69126 0
M  V30 36527 N 3401.11 1.50152 -0.478778 0
M  V30 36528 C 3402.52 1.86683 -0.0255235 0
M  V30 36529 C 3402.87 1.39298 1.38169 0
M  V30 36530 O 3402 0.761243 2.02569 0
M  V30 36531 C 3402.59 3.38777 -0.0395414 0
M  V30 36532 C 3401.15 3.74691 0.358274 0
M  V30 36533 C 3400.3 2.74075 -0.421715 0
M  V30 36534 H 3403.25 1.42785 -0.692678 0
M  V30 36535 H 3403.27 3.72815 0.760891 0
M  V30 36536 H 3402.78 3.73234 -1.06385 0
M  V30 36537 H 3400.88 3.45837 1.38665 0
M  V30 36538 H 3400.99 4.79069 0.0542747 0
M  V30 36539 H 3399.36 2.5439 0.125589 0
M  V30 36540 H 3400.14 3.11376 -1.44568 0
M  V30 36541 N 3402.59 0.211689 1.56172 0
M  V30 36542 C 3403.83 -0.423297 1.98333 0
M  V30 36543 C 3404.17 -1.60113 1.09898 0
M  V30 36544 O 3403.44 -1.93885 0.154511 0
M  V30 36545 C 3403.72 -0.867409 3.49497 0
M  V30 36546 C 3403.58 0.313381 4.48707 0
M  V30 36547 C 3404.9 -1.72709 4.04796 0
M  V30 36548 H 3402.01 -0.152389 0.721073 0
M  V30 36549 H 3404.66 0.305945 1.87521 0
M  V30 36550 H 3402.81 -1.48878 3.58842 0
M  V30 36551 H 3404.48 0.951371 4.51383 0
M  V30 36552 H 3402.72 0.962454 4.22988 0
M  V30 36553 H 3403.39 -0.0401432 5.51985 0
M  V30 36554 H 3405.87 -1.20289 3.98334 0
M  V30 36555 H 3404.74 -2.00675 5.10902 0
M  V30 36556 H 3405.01 -2.68703 3.51071 0
M  V30 36557 N 3404.06 -1.57479 -0.0617887 0
M  V30 36558 C 3405.31 -1.86919 -0.757907 0
M  V30 36559 C 3405.63 -0.805751 -1.78233 0
M  V30 36560 O 3406.83 -0.988314 -2.52873 0
M  V30 36561 C 3405.29 -3.316 -1.39892 0
M  V30 36562 C 3404.9 -4.46096 -0.412543 0
M  V30 36563 C 3406.64 -3.70228 -2.07682 0
M  V30 36564 C 3404.55 -5.81822 -1.06004 0
M  V30 36565 H 3403.48 -0.697319 -0.286813 0
M  V30 36566 H 3406.13 -1.83496 -0.0114064 0
M  V30 36567 H 3404.51 -3.29665 -2.19402 0
M  V30 36568 H 3405.68 -4.59442 0.353473 0
M  V30 36569 H 3404 -4.16087 0.161456 0
M  V30 36570 H 3406.6 -4.68931 -2.56919 0
M  V30 36571 H 3406.94 -3.00537 -2.88068 0
M  V30 36572 H 3407.47 -3.74196 -1.3499 0
M  V30 36573 H 3404.21 -6.5483 -0.29629 0
M  V30 36574 H 3403.73 -5.72258 -1.79667 0
M  V30 36575 H 3405.41 -6.27488 -1.57697 0
M  V30 36576 N 3405.54 0.333401 -1.54033 0
M  V30 36577 C 3406.96 0.677141 -1.44523 0
M  V30 36578 C 3407.16 1.9204 -0.610156 0
M  V30 36579 O 3406.21 2.52281 -0.105102 0
M  V30 36580 C 3407.53 0.860319 -2.8813 0
M  V30 36581 C 3409.08 0.95829 -2.97969 0
M  V30 36582 C 3409.55 1.17371 -4.42705 0
M  V30 36583 N 3411.04 1.24068 -4.46275 0
M  V30 36584 C 3411.78 1.42506 -5.55409 0
M  V30 36585 N 3411.27 1.58051 -6.74531 0
M  V30 36586 N 3413.07 1.45135 -5.4304 0
M  V30 36587 H 3405.22 -0.483894 -2.06814 0
M  V30 36588 H 3407.48 -0.154627 -0.935305 0
M  V30 36589 H 3407.19 0.0181467 -3.51695 0
M  V30 36590 H 3407.06 1.75907 -3.33671 0
M  V30 36591 H 3409.45 1.79097 -2.34538 0
M  V30 36592 H 3409.53 0.0362194 -2.55774 0
M  V30 36593 H 3409.17 0.345915 -5.06721 0
M  V30 36594 H 3409.1 2.1095 -4.82501 0
M  V30 36595 H 3411.59 1.13538 -3.60441 0
M  V30 36596 H 3411.91 1.71784 -7.53465 0
M  V30 36597 H 3410.25 1.55167 -6.77457 0
M  V30 36598 H 3413.44 1.3258 -4.48932 0
M  V30 36599 H 3413.61 1.59162 -6.28149 0
M  V30 36600 N 3407.02 1.45939 0.594952 0
M  V30 36601 C 3407.97 1.55573 1.70486 0
M  V30 36602 C 3408.94 0.400779 1.61192 0
M  V30 36603 O 3410.12 0.615914 1.80586 0
M  V30 36604 C 3407.26 1.54039 3.08814 0
M  V30 36605 C 3406.38 2.80179 3.28822 0
M  V30 36606 C 3405.51 2.7023 4.57328 0
M  V30 36607 C 3404.55 3.91365 4.70638 0
M  V30 36608 N 3403.69 3.79876 5.90456 0
M  V30 36609 H 3408.53 2.50386 1.61588 0
M  V30 36610 H 3406.06 1.24231 0.787725 0
M  V30 36611 H 3408.02 1.51135 3.88862 0
M  V30 36612 H 3406.65 0.627673 3.16639 0
M  V30 36613 H 3405.7 2.93115 2.42462 0
M  V30 36614 H 3407.02 3.69991 3.34527 0
M  V30 36615 H 3406.17 2.65364 5.45589 0
M  V30 36616 H 3404.91 1.78038 4.54042 0
M  V30 36617 H 3403.91 3.96577 3.80798 0
M  V30 36618 H 3405.14 4.84639 4.75712 0
M  V30 36619 H 3403.08 2.90461 5.88191 0
M  V30 36620 H 3403 4.63333 5.97376 0
M  V30 36621 H 3404.27 3.78964 6.8118 0
M  V30 36622 N 3408.5 -0.838547 1.3344 0
M  V30 36623 C 3409.46 -1.92995 1.23635 0
M  V30 36624 C 3410.46 -1.60048 0.15533 0
M  V30 36625 O 3411.65 -1.69382 0.406882 0
M  V30 36626 C 3408.78 -3.28663 0.905177 0
M  V30 36627 H 3409.98 -2.03114 2.20647 0
M  V30 36628 H 3407.53 -1.03067 1.17502 0
M  V30 36629 H 3408.26 -3.2424 -0.0624263 0
M  V30 36630 H 3408.05 -3.53956 1.68694 0
M  V30 36631 H 3409.54 -4.08621 0.861334 0
M  V30 36632 N 3409.98 -1.16914 -1.05683 0
M  V30 36633 C 3411.22 -0.952571 -1.78243 0
M  V30 36634 C 3411.55 0.520492 -1.87925 0
M  V30 36635 O 3410.82 1.378 -1.39241 0
M  V30 36636 H 3409.4 -0.34945 -0.660222 0
M  V30 36637 H 3412.06 -1.47297 -1.27631 0
M  V30 36638 H 3411.15 -1.37662 -2.80099 0
M  V30 36639 N 3411.45 1.24323 -0.968589 0
M  V30 36640 C 3412.7 1.92039 -0.629716 0
M  V30 36641 C 3413.02 1.76081 0.837876 0
M  V30 36642 O 3412.29 1.13291 1.59818 0
M  V30 36643 H 3410.87 0.710738 -0.229914 0
M  V30 36644 H 3413.54 1.51198 -1.22985 0
M  V30 36645 H 3412.63 2.99697 -0.871087 0
M  V30 36646 N 3412.93 0.73881 1.3921 0
M  V30 36647 C 3414.16 0.297457 2.05256 0
M  V30 36648 C 3414.58 -1.06067 1.55343 0
M  V30 36649 O 3413.94 -1.67289 0.698853 0
M  V30 36650 C 3413.99 0.313033 3.59239 0
M  V30 36651 O 3413.09 -0.69804 4.06449 0
M  V30 36652 H 3412.43 0.134465 0.650242 0
M  V30 36653 H 3414.96 1.0058 1.78171 0
M  V30 36654 H 3414.97 0.158746 4.07691 0
M  V30 36655 H 3413.65 1.30401 3.94928 0
M  V30 36656 H 3412.23 -0.509578 3.69402 0
M  V30 36657 N 3414.41 -1.49895 0.486734 0
M  V30 36658 C 3415.66 -2.02003 -0.0626924 0
M  V30 36659 C 3415.98 -1.36969 -1.38797 0
M  V30 36660 O 3415.25 -0.520206 -1.88867 0
M  V30 36661 H 3413.83 -0.746542 -0.0261587 0
M  V30 36662 H 3416.49 -1.84067 0.640724 0
M  V30 36663 H 3415.59 -3.1144 -0.202801 0
M  V30 36664 N 3415.89 -0.219968 -1.56057 0
M  V30 36665 C 3417.3 0.288171 -1.84463 0
M  V30 36666 C 3417.65 1.59589 -1.14131 0
M  V30 36667 O 3416.78 2.12472 -0.410448 0
M  V30 36668 C 3417.37 0.52963 -3.34635 0
M  V30 36669 C 3415.93 0.982081 -3.63362 0
M  V30 36670 C 3415.08 0.0442805 -2.77265 0
M  V30 36671 H 3418.03 -0.443197 -1.52386 0
M  V30 36672 H 3418.05 1.37584 -3.54755 0
M  V30 36673 H 3417.56 -0.422311 -3.85795 0
M  V30 36674 H 3415.66 1.94743 -3.17657 0
M  V30 36675 H 3415.78 0.857585 -4.71362 0
M  V30 36676 H 3414.14 0.550782 -2.48673 0
M  V30 36677 H 3414.92 -0.90255 -3.31223 0
M  V30 36678 N 3417.37 1.57509 0.0534363 0
M  V30 36679 C 3418.78 1.76692 0.603068 0
M  V30 36680 C 3419.13 0.847892 1.76933 0
M  V30 36681 O 3418.25 0.0365342 2.16369 0
M  V30 36682 C 3418.85 3.20419 1.10078 0
M  V30 36683 C 3417.41 3.40882 1.59612 0
M  V30 36684 C 3416.56 2.72314 0.523468 0
M  V30 36685 H 3419.51 1.57757 -0.172778 0
M  V30 36686 H 3419.53 3.2559 1.96904 0
M  V30 36687 H 3419.04 3.87283 0.25175 0
M  V30 36688 H 3417.14 2.79159 2.46781 0
M  V30 36689 H 3417.25 4.49407 1.66042 0
M  V30 36690 H 3415.62 2.35389 0.972844 0
M  V30 36691 H 3416.4 3.41845 -0.315689 0
M  V30 36692 N 3418.85 -0.325228 1.54208 0
M  V30 36693 C 3419.78 -1.42124 1.79815 0
M  V30 36694 C 3420.79 -1.47916 0.680056 0
M  V30 36695 O 3421.98 -1.50669 0.957134 0
M  V30 36696 C 3419.08 -2.80671 1.8994 0
M  V30 36697 C 3418.25 -2.98103 3.20084 0
M  V30 36698 C 3417.31 -4.17 3.20932 0
M  V30 36699 O 3416.34 -4.1024 3.94578 0
M  V30 36700 N 3417.54 -5.26453 2.44597 0
M  V30 36701 H 3420.3 -1.20522 2.74398 0
M  V30 36702 H 3417.87 -0.515206 1.53484 0
M  V30 36703 H 3419.86 -3.58416 1.87937 0
M  V30 36704 H 3418.43 -2.95331 1.0246 0
M  V30 36705 H 3417.65 -2.07673 3.35061 0
M  V30 36706 H 3418.94 -3.06644 4.06013 0
M  V30 36707 H 3418.33 -5.3482 1.84349 0
M  V30 36708 H 3416.89 -6.02623 2.48373 0
M  V30 36709 N 3420.32 -1.46252 -0.587204 0
M  V30 36710 C 3421.26 -1.52504 -1.711 0
M  V30 36711 C 3422.27 -0.413799 -1.57453 0
M  V30 36712 O 3423.46 -0.681931 -1.6496 0
M  V30 36713 C 3420.56 -1.38498 -3.09308 0
M  V30 36714 C 3419.73 -2.63661 -3.49001 0
M  V30 36715 C 3418.79 -2.43919 -4.66251 0
M  V30 36716 O 3417.82 -3.17624 -4.72338 0
M  V30 36717 N 3419.02 -1.49794 -5.6084 0
M  V30 36718 H 3421.78 -2.49399 -1.66193 0
M  V30 36719 H 3419.34 -1.42251 -0.773062 0
M  V30 36720 H 3421.34 -1.2307 -3.85533 0
M  V30 36721 H 3419.91 -0.498017 -3.08607 0
M  V30 36722 H 3419.13 -2.94063 -2.62527 0
M  V30 36723 H 3420.41 -3.46816 -3.72285 0
M  V30 36724 H 3419.81 -0.890071 -5.58654 0
M  V30 36725 H 3418.37 -1.40331 -6.36514 0
M  V30 36726 N 3421.8 0.831459 -1.33883 0
M  V30 36727 C 3422.73 1.94912 -1.20591 0
M  V30 36728 C 3423.75 1.62239 -0.135054 0
M  V30 36729 O 3424.94 1.74273 -0.386147 0
M  V30 36730 C 3422.04 3.2861 -0.82877 0
M  V30 36731 C 3421.21 3.89365 -1.99282 0
M  V30 36732 C 3420.27 5.0143 -1.59546 0
M  V30 36733 O 3419.29 5.20181 -2.31085 0
M  V30 36734 N 3420.5 5.78302 -0.504702 0
M  V30 36735 H 3423.26 2.06848 -2.16873 0
M  V30 36736 H 3420.82 1.00759 -1.26725 0
M  V30 36737 H 3422.81 4.01015 -0.544898 0
M  V30 36738 H 3421.38 3.1257 0.0435984 0
M  V30 36739 H 3420.6 3.09459 -2.4419 0
M  V30 36740 H 3421.89 4.2669 -2.77152 0
M  V30 36741 H 3421.29 5.65628 0.0902111 0
M  V30 36742 H 3419.85 6.51196 -0.28053 0
M  V30 36743 N 3423.28 1.17472 1.05062 0
M  V30 36744 C 3424.21 0.850381 2.12841 0
M  V30 36745 C 3425.22 -0.147767 1.62128 0
M  V30 36746 O 3426.41 0.0787088 1.78326 0
M  V30 36747 C 3423.51 0.247545 3.37995 0
M  V30 36748 C 3422.69 1.28888 4.17979 0
M  V30 36749 C 3421.75 0.703567 5.21475 0
M  V30 36750 O 3420.77 1.37571 5.52325 0
M  V30 36751 N 3421.97 -0.503769 5.7831 0
M  V30 36752 H 3424.74 1.77802 2.41261 0
M  V30 36753 H 3422.3 1.07375 1.2117 0
M  V30 36754 H 3424.29 -0.157353 4.04394 0
M  V30 36755 H 3422.86 -0.583898 3.07098 0
M  V30 36756 H 3422.08 1.86948 3.4705 0
M  V30 36757 H 3423.37 1.99124 4.68217 0
M  V30 36758 H 3422.77 -1.06777 5.55531 0
M  V30 36759 H 3421.32 -0.850715 6.46224 0
M  V30 36760 N 3424.76 -1.23807 0.975168 0
M  V30 36761 C 3425.69 -2.24346 0.46919 0
M  V30 36762 C 3426.7 -1.57124 -0.426129 0
M  V30 36763 O 3427.89 -1.76998 -0.231105 0
M  V30 36764 C 3424.99 -3.37179 -0.34115 0
M  V30 36765 C 3424.16 -4.33978 0.546044 0
M  V30 36766 C 3423.22 -5.25783 -0.209555 0
M  V30 36767 O 3422.25 -5.67799 0.399053 0
M  V30 36768 N 3423.45 -5.60865 -1.49704 0
M  V30 36769 H 3426.22 -2.68392 1.33364 0
M  V30 36770 H 3423.78 -1.37925 0.847838 0
M  V30 36771 H 3425.77 -3.95568 -0.854854 0
M  V30 36772 H 3424.34 -2.92359 -1.10658 0
M  V30 36773 H 3423.56 -3.74168 1.24064 0
M  V30 36774 H 3424.85 -4.95613 1.15086 0
M  V30 36775 H 3424.25 -5.28669 -2.0131 0
M  V30 36776 H 3422.8 -6.2175 -1.95628 0
M  V30 36777 N 3426.24 -0.746182 -1.38816 0
M  V30 36778 C 3427.17 -0.0738389 -2.29081 0
M  V30 36779 C 3428.18 0.69163 -1.47378 0
M  V30 36780 O 3429.37 0.533943 -1.70327 0
M  V30 36781 C 3426.47 0.91955 -3.26186 0
M  V30 36782 C 3425.64 0.213273 -4.3688 0
M  V30 36783 C 3424.7 1.11635 -5.14222 0
M  V30 36784 O 3423.73 0.589647 -5.66138 0
M  V30 36785 N 3424.93 2.44512 -5.26492 0
M  V30 36786 H 3427.69 -0.849016 -2.87423 0
M  V30 36787 H 3425.26 -0.59634 -1.50517 0
M  V30 36788 H 3427.25 1.52656 -3.74804 0
M  V30 36789 H 3425.82 1.59586 -2.68796 0
M  V30 36790 H 3425.04 -0.574353 -3.89993 0
M  V30 36791 H 3426.33 -0.275744 -5.08052 0
M  V30 36792 H 3425.72 2.89768 -4.85851 0
M  V30 36793 H 3424.28 3.00281 -5.78511 0
M  V30 36794 N 3427.71 1.49635 -0.494676 0
M  V30 36795 C 3428.65 2.26902 0.323741 0
M  V30 36796 C 3429.66 1.33184 0.936257 0
M  V30 36797 O 3430.85 1.58516 0.820667 0
M  V30 36798 C 3427.95 3.0535 1.4702 0
M  V30 36799 C 3427.12 4.26596 0.966153 0
M  V30 36800 C 3426.18 4.87142 1.98946 0
M  V30 36801 O 3425.21 5.4739 1.56055 0
M  V30 36802 N 3426.41 4.7623 3.31941 0
M  V30 36803 H 3429.17 2.97779 -0.338768 0
M  V30 36804 H 3426.73 1.58566 -0.326845 0
M  V30 36805 H 3428.73 3.42729 2.15219 0
M  V30 36806 H 3427.3 2.37121 2.03697 0
M  V30 36807 H 3426.52 3.94049 0.109267 0
M  V30 36808 H 3427.8 5.05158 0.607692 0
M  V30 36809 H 3427.2 4.2837 3.69481 0
M  V30 36810 H 3425.76 5.17812 3.95872 0
M  V30 36811 N 3429.19 0.228241 1.55939 0
M  V30 36812 C 3430.12 -0.71155 2.17875 0
M  V30 36813 C 3431.14 -1.15263 1.14971 0
M  V30 36814 O 3432.33 -1.08262 1.41921 0
M  V30 36815 C 3429.43 -1.97647 2.75297 0
M  V30 36816 C 3428.6 -1.68987 4.03438 0
M  V30 36817 C 3427.66 -2.80252 4.45359 0
M  V30 36818 O 3426.68 -2.48436 5.12121 0
M  V30 36819 N 3427.89 -4.09352 4.11596 0
M  V30 36820 H 3430.65 -0.181704 2.99149 0
M  V30 36821 H 3428.21 0.0474852 1.6183 0
M  V30 36822 H 3430.2 -2.71286 3.0031 0
M  V30 36823 H 3428.77 -2.41661 1.98289 0
M  V30 36824 H 3427.99 -0.789589 3.86211 0
M  V30 36825 H 3429.28 -1.47279 4.87018 0
M  V30 36826 H 3428.68 -4.38042 3.5796 0
M  V30 36827 H 3427.24 -4.79514 4.41485 0
M  V30 36828 N 3430.67 -1.57536 -0.0450825 0
M  V30 36829 C 3431.6 -2.02273 -1.07788 0
M  V30 36830 C 3432.62 -0.932877 -1.33421 0
M  V30 36831 O 3433.8 -1.21042 -1.31191 0
M  V30 36832 C 3430.9 -2.36937 -2.4231 0
M  V30 36833 C 3430.08 -3.68104 -2.36259 0
M  V30 36834 C 3429.14 -3.90136 -3.53101 0
M  V30 36835 O 3428.16 -4.61397 -3.33319 0
M  V30 36836 N 3429.36 -3.34539 -4.74409 0
M  V30 36837 H 3432.13 -2.9149 -0.696692 0
M  V30 36838 H 3429.69 -1.6021 -0.233308 0
M  V30 36839 H 3431.68 -2.48827 -3.19166 0
M  V30 36840 H 3430.25 -1.53473 -2.72332 0
M  V30 36841 H 3429.47 -3.66718 -1.44608 0
M  V30 36842 H 3430.76 -4.54179 -2.29343 0
M  V30 36843 H 3430.16 -2.76748 -4.93383 0
M  V30 36844 H 3428.72 -3.51835 -5.48685 0
M  V30 36845 N 3432.15 0.317045 -1.54378 0
M  V30 36846 C 3433.08 1.41169 -1.80566 0
M  V30 36847 C 3434.09 1.47553 -0.687891 0
M  V30 36848 O 3435.28 1.50159 -0.965111 0
M  V30 36849 C 3432.38 2.7966 -1.91425 0
M  V30 36850 C 3431.56 2.96401 -3.2166 0
M  V30 36851 C 3430.61 4.15293 -3.23139 0
M  V30 36852 O 3429.64 4.08142 -3.96748 0
M  V30 36853 N 3430.84 5.25148 -2.47386 0
M  V30 36854 H 3433.61 1.19065 -2.75034 0
M  V30 36855 H 3431.17 0.507059 -1.53755 0
M  V30 36856 H 3433.16 3.57414 -1.89835 0
M  V30 36857 H 3431.73 2.94784 -1.04025 0
M  V30 36858 H 3430.95 2.05893 -3.36157 0
M  V30 36859 H 3432.24 3.04487 -4.07634 0
M  V30 36860 H 3431.64 5.33834 -1.87183 0
M  V30 36861 H 3430.19 6.01297 -2.51566 0
M  V30 36862 N 3433.63 1.46561 0.57944 0
M  V30 36863 C 3434.56 1.53409 1.70289 0
M  V30 36864 C 3435.57 0.422144 1.57232 0
M  V30 36865 O 3436.76 0.690669 1.64597 0
M  V30 36866 C 3433.86 1.40137 3.08569 0
M  V30 36867 C 3433.03 2.65509 3.47597 0
M  V30 36868 C 3432.09 2.46389 4.64951 0
M  V30 36869 O 3431.12 3.20125 4.70647 0
M  V30 36870 N 3432.32 1.52766 5.60038 0
M  V30 36871 H 3435.09 2.50277 1.64868 0
M  V30 36872 H 3432.65 1.42659 0.765508 0
M  V30 36873 H 3434.64 1.25113 3.84875 0
M  V30 36874 H 3433.21 0.514376 3.08339 0
M  V30 36875 H 3432.43 2.95451 2.60964 0
M  V30 36876 H 3433.72 3.48786 3.7044 0
M  V30 36877 H 3433.11 0.919685 5.58174 0
M  V30 36878 H 3431.67 1.43704 6.35761 0
M  V30 36879 N 3435.1 -0.824347 1.34322 0
M  V30 36880 C 3436.07 -1.91673 1.25675 0
M  V30 36881 C 3437.07 -1.59874 0.172297 0
M  V30 36882 O 3438.26 -1.6894 0.424824 0
M  V30 36883 C 3435.39 -3.27684 0.939986 0
M  V30 36884 H 3436.58 -2.00762 2.22788 0
M  V30 36885 H 3434.14 -1.01815 1.18589 0
M  V30 36886 H 3434.87 -3.24288 -0.0280328 0
M  V30 36887 H 3434.66 -3.52147 1.72438 0
M  V30 36888 H 3436.15 -4.07684 0.904625 0
M  V30 36889 N 3436.58 -1.18028 -1.04437 0
M  V30 36890 C 3437.83 -0.974787 -1.77836 0
M  V30 36891 C 3438.16 0.494722 -1.87793 0
M  V30 36892 O 3437.44 1.36731 -1.38329 0
M  V30 36893 C 3437.72 -1.62574 -3.21312 0
M  V30 36894 C 3437.57 -3.16786 -3.19322 0
M  V30 36895 C 3438.89 -1.33591 -4.19335 0
M  V30 36896 H 3436.01 -0.355541 -0.645569 0
M  V30 36897 H 3438.65 -1.4564 -1.22021 0
M  V30 36898 H 3436.8 -1.21623 -3.68972 0
M  V30 36899 H 3438.47 -3.66847 -2.79681 0
M  V30 36900 H 3436.72 -3.49141 -2.57455 0
M  V30 36901 H 3437.39 -3.57467 -4.2062 0
M  V30 36902 H 3439.86 -1.69066 -3.80205 0
M  V30 36903 H 3438.74 -1.81711 -5.1795 0
M  V30 36904 H 3439 -0.258093 -4.41346 0
M  V30 36905 N 3438.06 1.23288 -0.98172 0
M  V30 36906 C 3439.02 2.23035 -0.528032 0
M  V30 36907 C 3440.02 1.56171 0.383056 0
M  V30 36908 O 3441.21 1.73303 0.176564 0
M  V30 36909 C 3438.35 3.401 0.233441 0
M  V30 36910 H 3439.54 2.64687 -1.41 0
M  V30 36911 H 3437.09 1.36144 -0.767748 0
M  V30 36912 H 3437.83 3.03906 1.13189 0
M  V30 36913 H 3437.61 3.89838 -0.420573 0
M  V30 36914 H 3439.1 4.14102 0.539412 0
M  V30 36915 N 3439.54 0.753533 1.38418 0
M  V30 36916 C 3440.95 0.431122 1.53667 0
M  V30 36917 C 3441.15 -1.05575 1.71628 0
M  V30 36918 O 3440.21 -1.84179 1.72726 0
M  V30 36919 C 3441.52 1.23032 2.74379 0
M  V30 36920 C 3443.07 1.22039 2.88228 0
M  V30 36921 C 3443.55 2.00255 4.119 0
M  V30 36922 N 3445.04 1.97515 4.18977 0
M  V30 36923 C 3445.77 2.54829 5.13663 0
M  V30 36924 N 3445.27 3.20857 6.14022 0
M  V30 36925 N 3447.06 2.4476 5.06013 0
M  V30 36926 H 3439.21 1.71716 1.25009 0
M  V30 36927 H 3441.48 0.72795 0.607283 0
M  V30 36928 H 3441.18 2.28322 2.67511 0
M  V30 36929 H 3441.06 0.847163 3.67564 0
M  V30 36930 H 3443.44 0.175554 2.94577 0
M  V30 36931 H 3443.52 1.64306 1.96054 0
M  V30 36932 H 3443.17 3.0475 4.06313 0
M  V30 36933 H 3443.1 1.55382 5.03154 0
M  V30 36934 H 3445.59 1.49429 3.47101 0
M  V30 36935 H 3445.9 3.62011 6.82765 0
M  V30 36936 H 3444.25 3.24952 6.14354 0
M  V30 36937 H 3447.44 1.92805 4.26549 0
M  V30 36938 H 3447.61 2.89723 5.79624 0
M  V30 36939 N 3441.02 -1.49371 0.502605 0
M  V30 36940 C 3442.43 -1.86618 0.0552198 0
M  V30 36941 C 3442.78 -1.41478 -1.35935 0
M  V30 36942 O 3441.9 -0.793374 -2.01332 0
M  V30 36943 C 3442.5 -3.38671 0.0934329 0
M  V30 36944 C 3441.06 -3.75214 -0.298619 0
M  V30 36945 C 3440.2 -2.73369 0.465264 0
M  V30 36946 H 3443.16 -1.41665 0.715306 0
M  V30 36947 H 3443.18 -3.73978 -0.701483 0
M  V30 36948 H 3442.69 -3.71495 1.12309 0
M  V30 36949 H 3440.79 -3.47999 -1.33145 0
M  V30 36950 H 3440.9 -4.79095 0.0219479 0
M  V30 36951 H 3439.27 -2.54558 -0.0851021 0
M  V30 36952 H 3440.05 -3.09037 1.49503 0
M  V30 36953 N 3442.49 -0.236508 -1.55815 0
M  V30 36954 C 3443.74 0.390338 -1.98295 0
M  V30 36955 C 3444.06 1.59222 -1.12576 0
M  V30 36956 O 3443.33 1.94812 -0.206162 0
M  V30 36957 H 3441.91 0.147207 -0.732352 0
M  V30 36958 H 3444.58 -0.332881 -1.92036 0
M  V30 36959 H 3443.67 0.706541 -3.03997 0
M  V30 36960 N 3443.97 1.57557 0.0367273 0
M  V30 36961 C 3445.39 1.54705 0.392237 0
M  V30 36962 C 3445.59 0.961601 1.77075 0
M  V30 36963 O 3444.64 0.579306 2.45765 0
M  V30 36964 C 3445.96 2.99189 0.301115 0
M  V30 36965 C 3447.51 3.107 0.378758 0
M  V30 36966 C 3447.98 4.569 0.317169 0
M  V30 36967 N 3449.47 4.6167 0.376196 0
M  V30 36968 C 3450.21 5.72323 0.35131 0
M  V30 36969 N 3449.7 6.92237 0.279166 0
M  V30 36970 N 3451.5 5.60672 0.400473 0
M  V30 36971 H 3443.65 1.93967 -0.865489 0
M  V30 36972 H 3445.91 0.889319 -0.328354 0
M  V30 36973 H 3445.62 3.45718 -0.645881 0
M  V30 36974 H 3445.49 3.60872 1.09778 0
M  V30 36975 H 3447.88 2.64122 1.31619 0
M  V30 36976 H 3447.96 2.51862 -0.447116 0
M  V30 36977 H 3447.6 5.04144 -0.616558 0
M  V30 36978 H 3447.53 5.13641 1.16105 0
M  V30 36979 H 3450.02 3.75391 0.434777 0
M  V30 36980 H 3450.34 7.72345 0.265067 0
M  V30 36981 H 3448.68 6.94567 0.245327 0
M  V30 36982 H 3451.87 4.65886 0.454772 0
M  V30 36983 H 3452.04 6.46899 0.37761 0
M  V30 36984 N 3445.45 -0.308854 1.54544 0
M  V30 36985 C 3446.41 -1.36371 1.84216 0
M  V30 36986 C 3447.41 -1.44046 0.714656 0
M  V30 36987 O 3448.6 -1.43818 0.982955 0
M  V30 36988 C 3445.74 -2.74944 2.0154 0
M  V30 36989 H 3446.93 -1.11309 2.78479 0
M  V30 36990 H 3444.48 -0.545115 1.46486 0
M  V30 36991 H 3445.22 -3.0524 1.09539 0
M  V30 36992 H 3445 -2.70765 2.836 0
M  V30 36993 H 3446.49 -3.51229 2.25894 0
M  V30 36994 N 3446.93 -1.46867 -0.571659 0
M  V30 36995 C 3447.89 -1.57835 -1.66195 0
M  V30 36996 C 3448.89 -0.454574 -1.54241 0
M  V30 36997 O 3450.08 -0.719219 -1.5866 0
M  V30 36998 C 3447.21 -1.50915 -3.05675 0
M  V30 36999 H 3448.41 -2.55012 -1.57825 0
M  V30 37000 H 3445.96 -1.34841 -0.79041 0
M  V30 37001 H 3446.7 -0.550585 -3.19592 0
M  V30 37002 H 3446.48 -2.32459 -3.15761 0
M  V30 37003 H 3447.97 -1.61699 -3.85024 0
M  V30 37004 N 3448.41 0.817212 -1.34757 0
M  V30 37005 C 3449.64 1.60533 -1.30525 0
M  V30 37006 C 3450.05 1.88421 0.119508 0
M  V30 37007 O 3449.41 1.47964 1.06831 0
M  V30 37008 C 3449.46 2.94289 -2.09944 0
M  V30 37009 O 3449.18 2.67615 -3.46863 0
M  V30 37010 C 3450.68 3.88679 -2.13174 0
M  V30 37011 H 3447.9 0.49882 -0.448797 0
M  V30 37012 H 3450.44 1.01636 -1.77455 0
M  V30 37013 H 3448.6 3.49728 -1.6664 0
M  V30 37014 H 3449.01 3.52942 -3.87985 0
M  V30 37015 H 3450.49 4.79677 -2.73156 0
M  V30 37016 H 3450.96 4.24477 -1.12765 0
M  V30 37017 H 3451.57 3.39176 -2.56592 0
M  V30 37018 N 3449.89 1.1858 1.0381 0
M  V30 37019 C 3451.11 1.00834 1.81238 0
M  V30 37020 C 3451.54 -0.438498 1.82917 0
M  V30 37021 O 3450.89 -1.31474 1.24837 0
M  V30 37022 C 3450.94 1.57081 3.24589 0
M  V30 37023 O 3450.05 0.793895 4.04686 0
M  V30 37024 H 3449.39 0.357038 0.559839 0
M  V30 37025 H 3451.92 1.57395 1.30721 0
M  V30 37026 H 3451.93 1.59903 3.7536 0
M  V30 37027 H 3450.6 2.62392 3.22681 0
M  V30 37028 H 3449.18 0.838198 3.63357 0
M  V30 37029 N 3451.36 -1.22766 0.988245 0
M  V30 37030 C 3452.61 -1.91013 0.660188 0
M  V30 37031 C 3452.93 -1.77392 -0.809756 0
M  V30 37032 O 3452.2 -1.1582 -1.57996 0
M  V30 37033 H 3450.78 -0.70699 0.241192 0
M  V30 37034 H 3453.44 -1.49222 1.25375 0
M  V30 37035 H 3452.54 -2.98274 0.918656 0
M  V30 37036 N 3452.84 -0.760864 -1.38017 0
M  V30 37037 C 3454.25 -0.387054 -1.82644 0
M  V30 37038 C 3454.6 1.08533 -1.63447 0
M  V30 37039 O 3453.73 1.83961 -1.13961 0
M  V30 37040 C 3454.32 -0.695748 -3.31579 0
M  V30 37041 C 3452.88 -0.375129 -3.74526 0
M  V30 37042 C 3452.03 -0.945196 -2.60694 0
M  V30 37043 H 3454.98 -0.956419 -1.26643 0
M  V30 37044 H 3455 0.0234842 -3.80493 0
M  V30 37045 H 3454.51 -1.76743 -3.45519 0
M  V30 37046 H 3452.61 0.689677 -3.66161 0
M  V30 37047 H 3452.73 -0.875768 -4.71028 0
M  V30 37048 H 3451.09 -0.370109 -2.51997 0
M  V30 37049 H 3451.87 -2.02206 -2.77431 0
M  V30 37050 N 3454.32 1.49102 -0.510519 0
M  V30 37051 C 3455.74 1.58723 -0.167089 0
M  V30 37052 C 3455.94 1.51473 1.32884 0
M  V30 37053 O 3454.99 1.39363 2.10557 0
M  V30 37054 C 3456.3 2.91136 -0.752344 0
M  V30 37055 C 3457.85 3.04623 -0.719311 0
M  V30 37056 C 3458.33 4.39668 -1.2828 0
M  V30 37057 N 3459.82 4.46185 -1.24391 0
M  V30 37058 C 3460.55 5.49147 -1.65 0
M  V30 37059 N 3460.05 6.59164 -2.13247 0
M  V30 37060 N 3461.84 5.39916 -1.56357 0
M  V30 37061 H 3453.99 1.52057 -1.48298 0
M  V30 37062 H 3456.26 0.720849 -0.615696 0
M  V30 37063 H 3455.96 3.02038 -1.80183 0
M  V30 37064 H 3455.84 3.76568 -0.218218 0
M  V30 37065 H 3458.22 2.93345 0.321362 0
M  V30 37066 H 3458.3 2.2085 -1.29069 0
M  V30 37067 H 3457.95 4.51699 -2.3223 0
M  V30 37068 H 3457.88 5.22096 -0.687271 0
M  V30 37069 H 3460.37 3.67258 -0.89051 0
M  V30 37070 H 3460.68 7.3384 -2.42278 0
M  V30 37071 H 3459.03 6.6018 -2.17228 0
M  V30 37072 H 3462.22 4.52859 -1.18477 0
M  V30 37073 H 3462.39 6.2003 -1.88328 0
M  V30 37074 N 3455.8 0.244768 1.55688 0
M  V30 37075 C 3457.21 -0.110131 1.5922 0
M  V30 37076 C 3457.41 -1.57093 1.2619 0
M  V30 37077 O 3456.47 -2.31499 1.0082 0
M  V30 37078 C 3457.78 0.237128 2.99764 0
M  V30 37079 C 3459.33 0.181253 3.12475 0
M  V30 37080 C 3459.81 0.502515 4.55235 0
M  V30 37081 N 3461.3 0.452936 4.6098 0
M  V30 37082 C 3462.03 0.674705 5.69417 0
M  V30 37083 N 3461.53 0.959487 6.86124 0
M  V30 37084 N 3463.32 0.605557 5.58829 0
M  V30 37085 H 3455.47 1.19744 1.75428 0
M  V30 37086 H 3457.73 0.481649 0.816528 0
M  V30 37087 H 3457.44 1.25191 3.28664 0
M  V30 37088 H 3457.31 -0.436794 3.74662 0
M  V30 37089 H 3459.7 -0.824198 2.83357 0
M  V30 37090 H 3459.78 0.888994 2.39855 0
M  V30 37091 H 3459.43 1.50551 4.85074 0
M  V30 37092 H 3459.36 -0.22668 5.26112 0
M  V30 37093 H 3461.85 0.241467 3.77128 0
M  V30 37094 H 3462.16 1.11618 7.64697 0
M  V30 37095 H 3460.51 0.996937 6.87813 0
M  V30 37096 H 3463.7 0.383135 4.66529 0
M  V30 37097 H 3463.87 0.781787 6.43267 0
M  V30 37098 N 3457.28 -1.57574 -0.0283712 0
M  V30 37099 C 3458.51 -1.93283 -0.729738 0
M  V30 37100 C 3458.91 -0.842989 -1.69382 0
M  V30 37101 O 3458.26 0.189254 -1.82723 0
M  V30 37102 C 3458.32 -3.24797 -1.54101 0
M  V30 37103 C 3457.98 -4.50942 -0.741629 0
M  V30 37104 C 3458.98 -5.19883 -0.0416071 0
M  V30 37105 C 3456.66 -4.97455 -0.695966 0
M  V30 37106 C 3458.66 -6.33617 0.693372 0
M  V30 37107 C 3456.35 -6.11085 0.0427584 0
M  V30 37108 C 3457.34 -6.79021 0.736187 0
M  V30 37109 O 3457.03 -7.90477 1.46292 0
M  V30 37110 H 3456.76 -0.642528 -0.21008 0
M  V30 37111 H 3459.32 -2.05397 0.0102638 0
M  V30 37112 H 3457.55 -3.09011 -2.32484 0
M  V30 37113 H 3459.24 -3.45827 -2.12506 0
M  V30 37114 H 3460 -4.84952 -0.0679123 0
M  V30 37115 H 3455.88 -4.44421 -1.2252 0
M  V30 37116 H 3459.43 -6.86578 1.23516 0
M  V30 37117 H 3455.32 -6.45461 0.0709843 0
M  V30 37118 H 3456.09 -8.0684 1.37667 0
M  V30 37119 N 3458.75 0.300654 -1.54706 0
M  V30 37120 C 3460.16 0.873625 -1.64999 0
M  V30 37121 C 3460.52 1.88072 -0.558875 0
M  V30 37122 O 3459.64 2.14248 0.304436 0
M  V30 37123 C 3460.24 1.59133 -2.99102 0
M  V30 37124 C 3458.79 2.1127 -3.11515 0
M  V30 37125 C 3457.94 0.945505 -2.60683 0
M  V30 37126 H 3460.89 0.0776473 -1.5851 0
M  V30 37127 H 3460.91 2.45691 -2.90545 0
M  V30 37128 H 3460.43 0.858106 -3.78495 0
M  V30 37129 H 3458.53 2.87639 -2.36843 0
M  V30 37130 H 3458.64 2.34699 -4.17676 0
M  V30 37131 H 3457 1.33117 -2.17145 0
M  V30 37132 H 3457.79 0.226231 -3.42554 0
M  V30 37133 N 3460.23 1.47168 0.563863 0
M  V30 37134 C 3461.48 1.53148 1.31872 0
M  V30 37135 C 3461.8 0.192552 1.94047 0
M  V30 37136 O 3461.07 -0.782841 1.79578 0
M  V30 37137 H 3459.65 0.564108 0.489684 0
M  V30 37138 H 3462.31 1.83423 0.658944 0
M  V30 37139 H 3461.41 2.29444 2.1157 0
M  V30 37140 N 3461.71 -0.810054 1.35188 0
M  V30 37141 C 3463.12 -1.38379 1.25332 0
M  V30 37142 C 3463.47 -1.95858 -0.115765 0
M  V30 37143 O 3462.6 -1.91035 -1.0166 0
M  V30 37144 C 3463.19 -2.51568 2.26934 0
M  V30 37145 C 3461.75 -3.04814 2.20829 0
M  V30 37146 C 3460.9 -1.77756 2.12833 0
M  V30 37147 H 3463.85 -0.613376 1.46367 0
M  V30 37148 H 3463.87 -3.30023 1.89381 0
M  V30 37149 H 3463.38 -2.09704 3.26567 0
M  V30 37150 H 3461.48 -3.51151 1.24595 0
M  V30 37151 H 3461.6 -3.6303 3.12643 0
M  V30 37152 H 3459.96 -1.9917 1.58756 0
M  V30 37153 H 3460.74 -1.38049 3.14321 0
M  V30 37154 N 3463.19 -1.19129 -1.0318 0
M  V30 37155 C 3464.42 -1.01729 -1.80163 0
M  V30 37156 C 3464.83 0.434063 -1.83743 0
M  V30 37157 O 3464.19 1.3015 -1.27935 0
M  V30 37158 C 3464.24 -1.57572 -3.25351 0
M  V30 37159 O 3463.96 -2.97025 -3.22036 0
M  V30 37160 C 3465.46 -1.44914 -4.18945 0
M  V30 37161 H 3462.68 -0.358708 -0.567071 0
M  V30 37162 H 3465.23 -1.57879 -1.29979 0
M  V30 37163 H 3463.38 -1.05577 -3.72736 0
M  V30 37164 H 3463.79 -3.23242 -4.13055 0
M  V30 37165 H 3465.27 -1.88771 -5.18719 0
M  V30 37166 H 3465.75 -0.399202 -4.37382 0
M  V30 37167 H 3466.35 -1.96024 -3.77431 0
M  V30 37168 N 3464.67 1.2224 -0.994741 0
M  V30 37169 C 3465.63 2.22462 -0.551658 0
M  V30 37170 C 3466.63 1.56568 0.36647 0
M  V30 37171 O 3467.82 1.7348 0.158173 0
M  V30 37172 C 3464.95 3.40328 0.197356 0
M  V30 37173 H 3466.14 2.63176 -1.43799 0
M  V30 37174 H 3463.7 1.35323 -0.782144 0
M  V30 37175 H 3464.43 3.05089 1.09959 0
M  V30 37176 H 3464.22 3.8937 -0.461897 0
M  V30 37177 H 3465.71 4.1465 0.495461 0
M  V30 37178 N 3466.14 0.768172 1.37611 0
M  V30 37179 C 3467.05 0.15269 2.34103 0
M  V30 37180 C 3468.07 -0.683783 1.60001 0
M  V30 37181 O 3469.25 -0.604538 1.92113 0
M  V30 37182 C 3466.31 -0.718894 3.39165 0
M  V30 37183 C 3465.37 0.133625 4.29092 0
M  V30 37184 C 3464.61 -0.696454 5.29136 0
M  V30 37185 O 3464.83 -1.93374 5.36622 0
M  V30 37186 O 3463.76 -0.107546 6.01804 0
M  V30 37187 H 3467.59 0.94995 2.88461 0
M  V30 37188 H 3465.17 0.529277 1.3971 0
M  V30 37189 H 3467.06 -1.21658 4.03457 0
M  V30 37190 H 3465.73 -1.4944 2.8714 0
M  V30 37191 H 3464.64 0.677592 3.67912 0
M  V30 37192 H 3465.97 0.872133 4.84412 0
M  V30 37193 N 3467.62 -1.48829 0.518419 0
M  V30 37194 C 3469.03 -1.86549 0.0750101 0
M  V30 37195 C 3469.38 -1.42912 -1.34427 0
M  V30 37196 O 3468.51 -0.814683 -2.00479 0
M  V30 37197 C 3469.1 -3.38553 0.129348 0
M  V30 37198 C 3467.66 -3.75509 -0.258805 0
M  V30 37199 C 3466.81 -2.7286 0.494233 0
M  V30 37200 H 3469.76 -1.40899 0.730291 0
M  V30 37201 H 3469.78 -3.74701 -0.661778 0
M  V30 37202 H 3469.29 -3.70283 1.16243 0
M  V30 37203 H 3467.4 -3.49391 -1.29447 0
M  V30 37204 H 3467.51 -4.79045 0.0727611 0
M  V30 37205 H 3465.87 -2.54634 -0.0580981 0
M  V30 37206 H 3466.66 -3.07434 1.52773 0
M  V30 37207 N 3469.1 -0.253021 -1.55556 0
M  V30 37208 C 3470.03 0.638007 -2.24615 0
M  V30 37209 C 3471.01 1.17648 -1.22854 0
M  V30 37210 O 3472.2 1.2147 -1.51521 0
M  V30 37211 C 3469.33 1.83231 -2.95032 0
M  V30 37212 C 3468.28 1.42634 -4.03534 0
M  V30 37213 C 3467.61 2.70196 -4.61409 0
M  V30 37214 C 3468.91 0.592867 -5.18924 0
M  V30 37215 H 3470.6 0.0621391 -2.99336 0
M  V30 37216 H 3468.15 0.0284469 -1.43972 0
M  V30 37217 H 3470.1 2.46135 -3.42046 0
M  V30 37218 H 3468.82 2.43365 -2.17809 0
M  V30 37219 H 3467.48 0.820609 -3.57298 0
M  V30 37220 H 3467.13 3.28542 -3.8088 0
M  V30 37221 H 3466.83 2.43754 -5.34657 0
M  V30 37222 H 3468.35 3.33988 -5.1116 0
M  V30 37223 H 3469.77 1.12636 -5.62126 0
M  V30 37224 H 3468.17 0.424253 -5.98598 0
M  V30 37225 H 3469.24 -0.393519 -4.83301 0
M  V30 37226 N 3470.58 1.57587 0.0200142 0
M  V30 37227 C 3471.54 2.06113 1.00251 0
M  V30 37228 C 3472.54 0.966851 1.28486 0
M  V30 37229 O 3473.73 1.23018 1.23338 0
M  V30 37230 C 3470.86 2.48571 2.33292 0
M  V30 37231 H 3472.06 2.94175 0.583164 0
M  V30 37232 H 3469.61 1.54002 0.26705 0
M  V30 37233 H 3470.34 1.63692 2.79956 0
M  V30 37234 H 3470.13 3.2847 2.14125 0
M  V30 37235 H 3471.62 2.8651 3.03812 0
M  V30 37236 N 3472.06 -0.292445 1.54863 0
M  V30 37237 C 3473.3 -1.02455 1.74205 0
M  V30 37238 C 3473.63 -1.87505 0.535431 0
M  V30 37239 O 3472.9 -1.90658 -0.45013 0
M  V30 37240 H 3471.48 -0.381265 0.642375 0
M  V30 37241 H 3474.14 -0.321365 1.92232 0
M  V30 37242 H 3473.23 -1.67273 2.63489 0
M  V30 37243 N 3473.53 -1.47465 -0.55605 0
M  V30 37244 C 3474.81 -1.44631 -1.31686 0
M  V30 37245 C 3475.19 -0.143878 -2.10609 0
M  V30 37246 O 3474.54 0.874625 -2.11098 0
M  V30 37247 C 3474.75 -2.69257 -2.2204 0
M  V30 37248 C 3476.1 -3.16518 -2.83022 0
M  V30 37249 O 3477.12 -2.69992 -2.32342 0
M  V30 37250 O 3475.98 -3.97406 -3.75141 0
M  V30 37251 H 3473.07 -0.576421 -0.593016 0
M  V30 37252 H 3475.62 -1.59667 -0.574857 0
M  V30 37253 H 3474.39 -3.55582 -1.6333 0
M  V30 37254 H 3474.02 -2.56812 -3.03535 0
M  V30 37255 N 3475.01 0.802873 -1.35616 0
M  V30 37256 C 3476.43 1.09898 -1.15735 0
M  V30 37257 C 3476.63 2.01481 0.027674 0
M  V30 37258 O 3475.69 2.42685 0.697153 0
M  V30 37259 C 3477 1.72638 -2.46204 0
M  V30 37260 C 3478.55 1.85042 -2.52445 0
M  V30 37261 C 3479.02 2.51198 -3.82967 0
M  V30 37262 N 3480.51 2.5868 -3.84238 0
M  V30 37263 C 3481.25 3.10646 -4.81961 0
M  V30 37264 N 3480.74 3.63021 -5.90074 0
M  V30 37265 N 3482.54 3.09233 -4.69395 0
M  V30 37266 H 3474.69 0.19414 -2.11511 0
M  V30 37267 H 3476.95 0.148722 -0.936262 0
M  V30 37268 H 3476.66 1.12811 -3.33116 0
M  V30 37269 H 3476.53 2.72297 -2.61025 0
M  V30 37270 H 3478.92 2.44011 -1.65959 0
M  V30 37271 H 3479 0.842274 -2.41535 0
M  V30 37272 H 3478.64 1.92877 -4.69852 0
M  V30 37273 H 3478.57 3.52557 -3.91166 0
M  V30 37274 H 3481.06 2.21577 -3.06124 0
M  V30 37275 H 3481.38 4.00984 -6.6063 0
M  V30 37276 H 3479.72 3.6121 -5.93761 0
M  V30 37277 H 3482.91 2.67595 -3.84071 0
M  V30 37278 H 3483.09 3.49426 -5.45716 0
M  V30 37279 N 3476.49 1.19674 1.02547 0
M  V30 37280 C 3477.9 1.00328 1.57452 0
M  V30 37281 C 3478.25 -0.442855 1.91137 0
M  V30 37282 O 3477.38 -1.32281 1.71262 0
M  V30 37283 C 3477.97 1.81491 2.86088 0
M  V30 37284 C 3476.53 1.66536 3.37554 0
M  V30 37285 C 3475.68 1.79979 2.10957 0
M  V30 37286 H 3478.63 1.33996 0.850341 0
M  V30 37287 H 3478.65 1.31302 3.57127 0
M  V30 37288 H 3478.16 2.86737 2.6154 0
M  V30 37289 H 3476.26 0.638898 3.67082 0
M  V30 37290 H 3476.38 2.47276 4.10355 0
M  V30 37291 H 3474.74 1.23075 2.2299 0
M  V30 37292 H 3475.52 2.86691 1.88847 0
M  V30 37293 N 3477.97 -1.21711 1.00121 0
M  V30 37294 C 3479.38 -1.7244 0.715641 0
M  V30 37295 C 3479.73 -1.80588 -0.766968 0
M  V30 37296 O 3478.86 -1.45784 -1.59925 0
M  V30 37297 C 3479.45 -3.13181 1.2924 0
M  V30 37298 C 3478.01 -3.61282 1.05603 0
M  V30 37299 C 3477.16 -2.38922 1.40753 0
M  V30 37300 H 3480.11 -1.06941 1.17257 0
M  V30 37301 H 3480.13 -3.74463 0.675136 0
M  V30 37302 H 3479.64 -3.07219 2.37146 0
M  V30 37303 H 3477.74 -3.726 -0.00604267 0
M  V30 37304 H 3477.86 -4.46958 1.72525 0
M  V30 37305 H 3476.22 -2.40926 0.826249 0
M  V30 37306 H 3477 -2.35614 2.49682 0
M  V30 37307 N 3479.45 -0.775459 -1.37202 0
M  V30 37308 C 3480.68 -0.352963 -2.03867 0
M  V30 37309 C 3481.09 1.02607 -1.58484 0
M  V30 37310 O 3480.45 1.65563 -0.767801 0
M  V30 37311 C 3480.5 -0.391223 -3.59377 0
M  V30 37312 O 3480.22 -1.71586 -4.031 0
M  V30 37313 C 3481.72 0.0424029 -4.4328 0
M  V30 37314 H 3478.94 -0.147371 -0.654616 0
M  V30 37315 H 3481.48 -1.05042 -1.75461 0
M  V30 37316 H 3479.64 0.257684 -3.86542 0
M  V30 37317 H 3480.05 -1.65704 -4.97637 0
M  V30 37318 H 3481.53 -0.0355186 -5.51989 0
M  V30 37319 H 3482 1.09326 -4.25376 0
M  V30 37320 H 3482.61 -0.578458 -4.21348 0
M  V30 37321 N 3480.93 1.48552 -0.526305 0
M  V30 37322 C 3482.17 2.02098 0.00911287 0
M  V30 37323 C 3482.49 1.40601 1.35116 0
M  V30 37324 O 3481.76 0.570098 1.87421 0
M  V30 37325 H 3480.34 0.746973 0.00635622 0
M  V30 37326 H 3483.01 1.82304 -0.689301 0
M  V30 37327 H 3482.1 3.11869 0.120157 0
M  V30 37328 N 3482.4 0.261267 1.55419 0
M  V30 37329 C 3483.65 -0.358742 1.98891 0
M  V30 37330 C 3483.97 -1.57411 1.15095 0
M  V30 37331 O 3483.24 -1.9446 0.237129 0
M  V30 37332 H 3481.82 -0.135537 0.734601 0
M  V30 37333 H 3484.48 0.36339 1.91482 0
M  V30 37334 H 3483.58 -0.658088 3.05083 0
M  V30 37335 N 3483.88 -1.57596 -0.0116567 0
M  V30 37336 C 3484.83 -2.04158 -1.01505 0
M  V30 37337 C 3485.82 -0.9341 -1.31009 0
M  V30 37338 O 3487.01 -1.19793 -1.30302 0
M  V30 37339 C 3484.14 -2.53887 -2.31076 0
M  V30 37340 C 3483.22 -3.7149 -2.04587 0
M  V30 37341 N 3483.61 -4.83597 -1.48216 0
M  V30 37342 C 3481.91 -3.79197 -2.34788 0
M  V30 37343 C 3482.61 -5.65111 -1.37931 0
M  V30 37344 N 3481.59 -5.10755 -1.86091 0
M  V30 37345 H 3485.39 -2.8825 -0.573506 0
M  V30 37346 H 3482.9 -1.60936 -0.217603 0
M  V30 37347 H 3484.9 -2.85515 -3.03788 0
M  V30 37348 H 3483.56 -1.71209 -2.75894 0
M  V30 37349 H 3484.57 -5.04684 -1.16252 0
M  V30 37350 H 3481.25 -3.07353 -2.82561 0
M  V30 37351 H 3482.64 -6.65195 -0.94688 0
M  V30 37352 N 3485.36 0.284228 -1.55016 0
M  V30 37353 C 3486.58 1.04013 -1.79433 0
M  V30 37354 C 3487.01 1.79562 -0.560286 0
M  V30 37355 O 3486.37 1.74559 0.489773 0
M  V30 37356 C 3486.42 1.98323 -3.01165 0
M  V30 37357 O 3485.52 3.06909 -2.75464 0
M  V30 37358 H 3484.86 0.297955 -0.593396 0
M  V30 37359 H 3487.39 0.316549 -2.02136 0
M  V30 37360 H 3487.4 2.40483 -3.29593 0
M  V30 37361 H 3486.08 1.42744 -3.90637 0
M  V30 37362 H 3484.65 2.69144 -2.58101 0
M  V30 37363 N 3486.84 1.47758 0.548222 0
M  V30 37364 C 3488.06 1.58724 1.33497 0
M  V30 37365 C 3488.49 0.241067 1.86549 0
M  V30 37366 O 3487.85 -0.784488 1.63449 0
M  V30 37367 C 3487.89 2.62297 2.47452 0
M  V30 37368 O 3487 2.18191 3.49952 0
M  V30 37369 H 3486.34 0.532875 0.396156 0
M  V30 37370 H 3488.87 1.93608 0.661606 0
M  V30 37371 H 3488.88 2.83 2.93896 0
M  V30 37372 H 3487.55 3.60037 2.08197 0
M  V30 37373 H 3486.13 2.07626 3.09751 0
M  V30 37374 N 3488.32 -0.79567 1.3604 0
M  V30 37375 C 3489.56 -1.5502 1.29665 0
M  V30 37376 C 3489.88 -1.94595 -0.125554 0
M  V30 37377 O 3489.15 -1.64458 -1.06444 0
M  V30 37378 H 3487.73 -0.574897 0.476972 0
M  V30 37379 H 3490.4 -0.948441 1.70266 0
M  V30 37380 H 3489.49 -2.46064 1.91987 0
M  V30 37381 N 3489.79 -1.20217 -1.0191 0
M  V30 37382 C 3491.21 -0.956481 -1.27764 0
M  V30 37383 C 3491.41 0.365452 -1.98158 0
M  V30 37384 O 3490.47 1.09459 -2.27541 0
M  V30 37385 C 3491.78 -2.13736 -2.11513 0
M  V30 37386 C 3493.33 -2.17806 -2.24788 0
M  V30 37387 C 3493.8 -3.35372 -3.11913 0
M  V30 37388 N 3495.29 -3.3537 -3.19501 0
M  V30 37389 C 3496.03 -4.22985 -3.87132 0
M  V30 37390 N 3495.52 -5.20773 -4.56911 0
M  V30 37391 N 3497.32 -4.10833 -3.83631 0
M  V30 37392 H 3489.47 -2.05252 -0.54639 0
M  V30 37393 H 3491.73 -0.898018 -0.303757 0
M  V30 37394 H 3491.44 -3.09456 -1.67122 0
M  V30 37395 H 3491.31 -2.11619 -3.12245 0
M  V30 37396 H 3493.7 -1.2265 -2.68405 0
M  V30 37397 H 3493.78 -2.23972 -1.23572 0
M  V30 37398 H 3493.42 -4.30814 -2.69002 0
M  V30 37399 H 3493.35 -3.26443 -4.1321 0
M  V30 37400 H 3495.84 -2.64591 -2.69814 0
M  V30 37401 H 3496.16 -5.83956 -5.06177 0
M  V30 37402 H 3494.5 -5.24712 -4.55744 0
M  V30 37403 H 3497.69 -3.33709 -3.28262 0
M  V30 37404 H 3497.87 -4.79326 -4.36063 0
M  V30 37405 N 3491.27 1.21178 -1.00765 0
M  V30 37406 C 3492.5 1.94849 -0.71055 0
M  V30 37407 C 3492.92 1.73737 0.720904 0
M  V30 37408 O 3492.28 1.02591 1.49482 0
M  V30 37409 C 3492.33 3.45265 -1.04041 0
M  V30 37410 O 3491.43 4.12138 -0.147119 0
M  V30 37411 H 3490.77 0.609052 -0.264483 0
M  V30 37412 H 3493.3 1.53862 -1.34861 0
M  V30 37413 H 3493.31 3.95848 -0.988369 0
M  V30 37414 H 3491.99 3.59955 -2.0834 0
M  V30 37415 H 3490.57 3.72021 -0.255912 0
M  V30 37416 N 3492.75 0.782725 1.36789 0
M  V30 37417 C 3494.16 0.416062 1.82005 0
M  V30 37418 C 3494.51 -1.05919 1.65153 0
M  V30 37419 O 3493.64 -1.82125 1.16874 0
M  V30 37420 C 3494.23 0.748411 3.3043 0
M  V30 37421 C 3492.79 0.434665 3.73882 0
M  V30 37422 C 3491.94 0.98655 2.59157 0
M  V30 37423 H 3494.89 0.976445 1.25105 0
M  V30 37424 H 3494.91 0.0370519 3.80482 0
M  V30 37425 H 3494.42 1.82218 3.42664 0
M  V30 37426 H 3492.52 -0.631336 3.67212 0
M  V30 37427 H 3492.64 0.950594 4.69575 0
M  V30 37428 H 3491 0.410153 2.51376 0
M  V30 37429 H 3491.78 2.06594 2.74179 0
M  V30 37430 N 3494.23 -1.48271 0.534176 0
M  V30 37431 C 3495.64 -1.58437 0.192319 0
M  V30 37432 C 3495.84 -1.53568 -1.30457 0
M  V30 37433 O 3494.9 -1.42695 -2.08313 0
M  V30 37434 C 3496.21 -2.89902 0.798566 0
M  V30 37435 C 3497.76 -3.0344 0.767683 0
M  V30 37436 C 3498.24 -4.37572 1.35258 0
M  V30 37437 N 3499.73 -4.4415 1.31474 0
M  V30 37438 C 3500.46 -5.46453 1.73716 0
M  V30 37439 N 3499.96 -6.55688 2.23707 0
M  V30 37440 N 3501.75 -5.3736 1.64927 0
M  V30 37441 H 3493.9 -1.49679 1.50699 0
M  V30 37442 H 3496.17 -0.710962 0.627086 0
M  V30 37443 H 3495.87 -2.99133 1.84965 0
M  V30 37444 H 3495.75 -3.76173 0.278099 0
M  V30 37445 H 3498.13 -2.93819 -0.274652 0
M  V30 37446 H 3498.21 -2.18769 1.32566 0
M  V30 37447 H 3497.86 -4.47947 2.39387 0
M  V30 37448 H 3497.79 -5.20936 0.770245 0
M  V30 37449 H 3500.28 -3.65795 0.948825 0
M  V30 37450 H 3500.59 -7.29893 2.53923 0
M  V30 37451 H 3498.94 -6.5664 2.27703 0
M  V30 37452 H 3502.13 -4.50916 1.25666 0
M  V30 37453 H 3502.3 -6.16955 1.98168 0
M  V30 37454 N 3495.71 -0.269505 -1.55279 0
M  V30 37455 C 3496.64 0.661611 -2.18399 0
M  V30 37456 C 3497.62 1.15635 -1.14312 0
M  V30 37457 O 3498.8 1.23035 -1.4281 0
M  V30 37458 C 3495.93 1.90167 -2.80275 0
M  V30 37459 C 3494.97 1.54288 -3.97615 0
M  V30 37460 S 3495.81 0.625902 -5.3183 0
M  V30 37461 C 3496.96 1.87446 -5.97172 0
M  V30 37462 H 3497.2 0.125273 -2.97036 0
M  V30 37463 H 3494.73 -0.0537983 -1.54306 0
M  V30 37464 H 3496.69 2.61346 -3.16557 0
M  V30 37465 H 3495.35 2.40914 -2.01542 0
M  V30 37466 H 3494.54 2.46547 -4.3958 0
M  V30 37467 H 3494.14 0.911331 -3.62727 0
M  V30 37468 H 3496.44 2.81906 -6.16064 0
M  V30 37469 H 3497.38 1.49791 -6.92075 0
M  V30 37470 H 3497.79 2.03684 -5.26472 0
M  V30 37471 N 3497.18 1.576 0.00329885 0
M  V30 37472 C 3498.09 2.11642 1.01217 0
M  V30 37473 C 3499.11 1.06091 1.37916 0
M  V30 37474 O 3500.29 1.37974 1.46715 0
M  V30 37475 C 3497.35 2.6063 2.28633 0
M  V30 37476 C 3496.41 3.80768 1.98277 0
M  V30 37477 C 3495.65 4.2741 3.19619 0
M  V30 37478 O 3495.87 3.73405 4.3119 0
M  V30 37479 O 3494.8 5.19599 3.03809 0
M  V30 37480 H 3498.63 2.98056 0.582787 0
M  V30 37481 H 3496.21 1.47743 0.221921 0
M  V30 37482 H 3498.1 2.92352 3.03493 0
M  V30 37483 H 3496.77 1.77315 2.70816 0
M  V30 37484 H 3495.68 3.54024 1.20904 0
M  V30 37485 H 3497.01 4.65146 1.60934 0
M  V30 37486 N 3498.66 -0.276003 1.55164 0
M  V30 37487 C 3500.08 -0.623036 1.46937 0
M  V30 37488 C 3500.28 -1.89643 0.68101 0
M  V30 37489 O 3499.33 -2.51717 0.198662 0
M  V30 37490 C 3500.65 -0.752788 2.91125 0
M  V30 37491 C 3502.2 -0.84704 3.01321 0
M  V30 37492 C 3502.67 -1.00859 4.46757 0
M  V30 37493 N 3504.16 -1.07419 4.50572 0
M  V30 37494 C 3504.9 -1.21794 5.60316 0
M  V30 37495 N 3504.39 -1.32907 6.79932 0
M  V30 37496 N 3506.19 -1.2488 5.48052 0
M  V30 37497 H 3498.34 0.560318 2.04876 0
M  V30 37498 H 3500.6 0.189233 0.928921 0
M  V30 37499 H 3500.31 0.112395 3.5152 0
M  V30 37500 H 3500.18 -1.63402 3.3997 0
M  V30 37501 H 3502.57 -1.70269 2.41024 0
M  V30 37502 H 3502.65 0.0587346 2.55733 0
M  V30 37503 H 3502.29 -0.157611 5.07655 0
M  V30 37504 H 3502.22 -1.92897 4.89998 0
M  V30 37505 H 3504.71 -1.00083 3.64406 0
M  V30 37506 H 3505.03 -1.43701 7.59322 0
M  V30 37507 H 3503.37 -1.29917 6.82749 0
M  V30 37508 H 3506.56 -1.15827 4.53544 0
M  V30 37509 H 3506.73 -1.35739 6.33624 0
M  V30 37510 N 3500.14 -1.48046 -0.540378 0
M  V30 37511 C 3501.56 -1.33937 -0.867934 0
M  V30 37512 C 3501.76 -0.342522 -1.98567 0
M  V30 37513 O 3500.81 0.239977 -2.51357 0
M  V30 37514 C 3502.13 -2.73703 -1.24527 0
M  V30 37515 C 3503.67 -2.82114 -1.35575 0
M  V30 37516 C 3504.15 -4.22559 -1.76657 0
M  V30 37517 N 3505.64 -4.25182 -1.83778 0
M  V30 37518 C 3506.37 -5.30782 -2.16929 0
M  V30 37519 N 3505.87 -6.4667 -2.48576 0
M  V30 37520 N 3507.66 -5.18169 -2.17846 0
M  V30 37521 H 3499.81 -2.11482 0.197289 0
M  V30 37522 H 3502.08 -0.947654 0.0256113 0
M  V30 37523 H 3501.78 -3.48161 -0.49767 0
M  V30 37524 H 3501.66 -3.0656 -2.19774 0
M  V30 37525 H 3504.04 -2.07918 -2.09413 0
M  V30 37526 H 3504.13 -2.5289 -0.384743 0
M  V30 37527 H 3503.77 -4.97267 -1.03382 0
M  V30 37528 H 3503.7 -4.4922 -2.74789 0
M  V30 37529 H 3506.19 -3.41586 -1.61639 0
M  V30 37530 H 3506.5 -7.22994 -2.72947 0
M  V30 37531 H 3504.85 -6.49962 -2.46118 0
M  V30 37532 H 3508.04 -4.26654 -1.92572 0
M  V30 37533 H 3508.21 -6.0057 -2.43351 0
M  V30 37534 N 3501.62 0.788444 -1.3646 0
M  V30 37535 C 3502.86 1.54865 -1.30938 0
M  V30 37536 C 3503.2 1.93883 0.110882 0
M  V30 37537 O 3502.47 1.62785 1.06449 0
M  V30 37538 C 3502.76 2.82506 -2.23299 0
M  V30 37539 C 3502.61 2.49849 -3.74026 0
M  V30 37540 C 3503.93 3.84337 -2.14413 0
M  V30 37541 H 3501.05 0.561846 -0.476968 0
M  V30 37542 H 3503.69 0.905776 -1.6702 0
M  V30 37543 H 3501.84 3.37365 -1.92658 0
M  V30 37544 H 3503.51 2.01033 -4.15191 0
M  V30 37545 H 3501.75 1.82778 -3.93414 0
M  V30 37546 H 3502.42 3.41018 -4.34063 0
M  V30 37547 H 3504.9 3.38927 -2.41387 0
M  V30 37548 H 3503.78 4.71396 -2.81207 0
M  V30 37549 H 3504.04 4.27369 -1.13173 0
M  V30 37550 N 3503.1 1.20755 1.01271 0
M  V30 37551 C 3504.51 1.01992 1.56379 0
M  V30 37552 C 3504.86 -0.422558 1.91596 0
M  V30 37553 O 3503.98 -1.30457 1.72655 0
M  V30 37554 C 3504.58 1.84515 2.84147 0
M  V30 37555 C 3503.14 1.70107 3.35769 0
M  V30 37556 C 3502.28 1.82206 2.09036 0
M  V30 37557 H 3505.24 1.3489 0.836081 0
M  V30 37558 H 3505.26 1.35083 3.55715 0
M  V30 37559 H 3504.77 2.89495 2.58485 0
M  V30 37560 H 3502.87 0.677796 3.66383 0
M  V30 37561 H 3502.98 2.51614 4.07709 0
M  V30 37562 H 3501.35 1.25433 2.21673 0
M  V30 37563 H 3502.13 2.88678 1.85795 0
M  V30 37564 N 3504.58 -1.20642 1.01406 0
M  V30 37565 C 3505.82 -1.8957 0.700556 0
M  V30 37566 C 3506.14 -1.7907 -0.771947 0
M  V30 37567 O 3505.41 -1.19145 -1.55503 0
M  V30 37568 H 3503.99 -0.701715 0.256134 0
M  V30 37569 H 3506.66 -1.46529 1.28512 0
M  V30 37570 H 3505.75 -2.96258 0.981717 0
M  V30 37571 N 3506.05 -0.789968 -1.36372 0
M  V30 37572 C 3507.46 -0.425709 -1.81782 0
M  V30 37573 C 3507.82 1.05042 -1.65713 0
M  V30 37574 O 3506.94 1.81503 -1.17838 0
M  V30 37575 C 3507.54 -0.765924 -3.30029 0
M  V30 37576 C 3506.09 -0.454487 -3.73646 0
M  V30 37577 C 3505.24 -1.00028 -2.5863 0
M  V30 37578 H 3508.19 -0.983066 -1.24585 0
M  V30 37579 H 3508.21 -0.0572292 -3.80457 0
M  V30 37580 H 3507.73 -1.84032 -3.41692 0
M  V30 37581 H 3505.83 0.611853 -3.67542 0
M  V30 37582 H 3505.94 -0.975483 -4.69064 0
M  V30 37583 H 3504.3 -0.423478 -2.51155 0
M  V30 37584 H 3505.09 -2.08045 -2.73079 0
M  V30 37585 N 3507.53 1.47986 -0.542031 0
M  V30 37586 C 3508.49 2.28295 0.203496 0
M  V30 37587 C 3509.49 1.36076 0.856738 0
M  V30 37588 O 3510.68 1.58853 0.714933 0
M  V30 37589 C 3507.82 3.15314 1.29576 0
M  V30 37590 H 3509.01 2.95673 -0.501753 0
M  V30 37591 H 3506.56 1.53425 -0.298405 0
M  V30 37592 H 3507.3 2.52594 2.03388 0
M  V30 37593 H 3507.08 3.83164 0.832331 0
M  V30 37594 H 3508.57 3.75863 1.81981 0
M  V30 37595 N 3509.01 0.277736 1.55133 0
M  V30 37596 C 3510.43 -0.0763335 1.59417 0
M  V30 37597 C 3510.63 -1.54381 1.29494 0
M  V30 37598 O 3509.68 -2.29308 1.05707 0
M  V30 37599 C 3510.99 0.300659 2.99193 0
M  V30 37600 C 3512.54 0.247493 3.1202 0
M  V30 37601 C 3513.02 0.598964 4.54067 0
M  V30 37602 N 3514.51 0.550615 4.59916 0
M  V30 37603 C 3515.24 0.795335 5.67857 0
M  V30 37604 N 3514.74 1.10481 6.83934 0
M  V30 37605 N 3516.53 0.723957 5.57418 0
M  V30 37606 H 3508.68 1.23438 1.72849 0
M  V30 37607 H 3510.95 0.49886 0.806128 0
M  V30 37608 H 3510.65 1.32134 3.25935 0
M  V30 37609 H 3510.53 -0.357224 3.75505 0
M  V30 37610 H 3512.91 -0.763909 2.85041 0
M  V30 37611 H 3512.99 0.939671 2.37916 0
M  V30 37612 H 3512.64 1.60806 4.81771 0
M  V30 37613 H 3512.57 -0.115033 5.26474 0
M  V30 37614 H 3515.06 0.321407 3.76531 0
M  V30 37615 H 3515.37 1.27814 7.62157 0
M  V30 37616 H 3513.72 1.14261 6.85543 0
M  V30 37617 H 3516.91 0.482007 4.65612 0
M  V30 37618 H 3517.08 0.918057 6.41464 0
M  V30 37619 N 3510.49 -1.57599 0.00505908 0
M  V30 37620 C 3511.71 -1.95473 -0.693197 0
M  V30 37621 C 3512.14 -0.880275 -1.66231 0
M  V30 37622 O 3511.5 0.161132 -1.80583 0
M  V30 37623 C 3511.54 -3.32444 -1.3969 0
M  V30 37624 O 3510.65 -3.27106 -2.51149 0
M  V30 37625 H 3509.99 -0.637996 -0.184004 0
M  V30 37626 H 3512.52 -2.04513 0.0597553 0
M  V30 37627 H 3512.53 -3.68126 -1.75918 0
M  V30 37628 H 3511.2 -4.10197 -0.686366 0
M  V30 37629 H 3509.78 -3.03107 -2.17211 0
M  V30 37630 N 3511.97 0.267771 -1.55309 0
M  V30 37631 C 3512.88 1.35303 -1.91651 0
M  V30 37632 C 3513.89 1.53766 -0.814376 0
M  V30 37633 O 3515.07 1.67791 -1.11391 0
M  V30 37634 C 3512.13 2.69134 -2.18558 0
M  V30 37635 C 3511.19 2.59374 -3.42088 0
M  V30 37636 C 3510.43 3.86822 -3.67702 0
M  V30 37637 O 3510.65 4.87746 -2.95736 0
M  V30 37638 O 3509.58 3.8671 -4.61236 0
M  V30 37639 H 3513.41 1.07478 -2.84046 0
M  V30 37640 H 3510.99 0.466747 -1.41922 0
M  V30 37641 H 3512.88 3.48257 -2.37266 0
M  V30 37642 H 3511.55 2.96735 -1.29345 0
M  V30 37643 H 3510.46 1.78609 -3.28709 0
M  V30 37644 H 3511.79 2.36722 -4.31536 0
M  V30 37645 N 3513.44 1.48331 0.532519 0
M  V30 37646 C 3514.67 1.60131 1.31806 0
M  V30 37647 C 3515.09 0.26084 1.86283 0
M  V30 37648 O 3514.45 -0.767108 1.64272 0
M  V30 37649 C 3514.5 2.64907 2.44656 0
M  V30 37650 O 3513.6 2.21891 3.47618 0
M  V30 37651 H 3512.94 0.537047 0.390482 0
M  V30 37652 H 3515.47 1.94299 0.641034 0
M  V30 37653 H 3515.48 2.86101 2.90878 0
M  V30 37654 H 3514.16 3.62225 2.04366 0
M  V30 37655 H 3512.74 2.10899 3.07532 0
M  V30 37656 N 3514.92 -0.781196 1.36876 0
M  V30 37657 C 3516.33 -1.3569 1.28239 0
M  V30 37658 C 3516.68 -1.9606 -0.0741942 0
M  V30 37659 O 3515.81 -1.93148 -0.975847 0
M  V30 37660 C 3516.4 -2.46698 2.32219 0
M  V30 37661 C 3514.96 -3.00061 2.27245 0
M  V30 37662 C 3514.11 -1.73202 2.16556 0
M  V30 37663 H 3517.06 -0.582191 1.47635 0
M  V30 37664 H 3517.08 -3.25932 1.96338 0
M  V30 37665 H 3516.59 -2.02729 3.30942 0
M  V30 37666 H 3514.69 -3.48429 1.32016 0
M  V30 37667 H 3514.81 -3.56317 3.20273 0
M  V30 37668 H 3513.17 -1.95758 1.62945 0
M  V30 37669 H 3513.95 -1.3135 3.17178 0
M  V30 37670 N 3516.4 -1.21291 -1.0063 0
M  V30 37671 C 3517.82 -0.969979 -1.26742 0
M  V30 37672 C 3518.02 0.344414 -1.98535 0
M  V30 37673 O 3517.07 1.0704 -2.28689 0
M  V30 37674 C 3518.38 -2.15967 -2.09234 0
M  V30 37675 C 3519.93 -2.20178 -2.22465 0
M  V30 37676 C 3520.41 -3.38662 -3.08338 0
M  V30 37677 N 3521.9 -3.3874 -3.15926 0
M  V30 37678 C 3522.63 -4.27067 -3.82624 0
M  V30 37679 N 3522.13 -5.2559 -4.51362 0
M  V30 37680 N 3523.92 -4.14879 -3.79252 0
M  V30 37681 H 3516.07 -2.0582 -0.52459 0
M  V30 37682 H 3518.34 -0.901189 -0.294215 0
M  V30 37683 H 3518.04 -3.11212 -1.6383 0
M  V30 37684 H 3517.92 -2.14919 -3.09983 0
M  V30 37685 H 3520.3 -1.2549 -2.67089 0
M  V30 37686 H 3520.38 -2.2527 -1.2119 0
M  V30 37687 H 3520.03 -4.33642 -2.64418 0
M  V30 37688 H 3519.96 -3.30808 -4.09724 0
M  V30 37689 H 3522.45 -2.67438 -2.66993 0
M  V30 37690 H 3522.76 -5.89292 -4.99955 0
M  V30 37691 H 3521.11 -5.29516 -4.50153 0
M  V30 37692 H 3524.3 -3.37171 -3.24705 0
M  V30 37693 H 3524.47 -4.83924 -4.30954 0
M  V30 37694 N 3517.88 1.20103 -1.02045 0
M  V30 37695 C 3518.84 2.21242 -0.598721 0
M  V30 37696 C 3519.84 1.5731 0.333178 0
M  V30 37697 O 3521.03 1.73777 0.12134 0
M  V30 37698 C 3518.16 3.4067 0.125123 0
M  V30 37699 H 3519.36 2.60067 -1.49349 0
M  V30 37700 H 3516.91 1.33633 -0.810672 0
M  V30 37701 H 3517.64 3.07353 1.03463 0
M  V30 37702 H 3517.43 3.88303 -0.544384 0
M  V30 37703 H 3518.92 4.15608 0.407396 0
M  V30 37704 N 3519.36 0.797189 1.35951 0
M  V30 37705 C 3520.6 0.378687 2.00861 0
M  V30 37706 C 3520.96 -1.0323 1.61887 0
M  V30 37707 O 3522.16 -1.5523 2.19447 0
M  V30 37708 C 3520.43 0.545907 3.53206 0
M  V30 37709 S 3521.99 0.216435 4.38266 0
M  V30 37710 H 3518.81 0.14428 0.696207 0
M  V30 37711 H 3521.41 1.03738 1.65706 0
M  V30 37712 H 3520.12 1.57298 3.79059 0
M  V30 37713 H 3519.65 -0.128444 3.9319 0
M  V30 37714 H 3521.66 -0.979259 4.86441 0
M  V30 37715 N 3520.83 -1.47696 0.549872 0
M  V30 37716 C 3522.25 -1.58224 0.209113 0
M  V30 37717 C 3522.45 -1.54943 -1.28821 0
M  V30 37718 O 3521.51 -1.44897 -2.06788 0
M  V30 37719 C 3522.82 -2.89039 0.829269 0
M  V30 37720 C 3524.37 -3.02608 0.799824 0
M  V30 37721 C 3524.84 -4.36113 1.39892 0
M  V30 37722 N 3526.33 -4.4273 1.36177 0
M  V30 37723 C 3527.07 -5.44579 1.79502 0
M  V30 37724 N 3526.56 -6.53279 2.30648 0
M  V30 37725 N 3528.36 -5.3558 1.70617 0
M  V30 37726 H 3520.51 -1.48072 1.52278 0
M  V30 37727 H 3522.77 -0.704271 0.634591 0
M  V30 37728 H 3522.48 -2.97155 1.88128 0
M  V30 37729 H 3522.35 -3.75857 0.317982 0
M  V30 37730 H 3524.74 -2.94094 -0.243473 0
M  V30 37731 H 3524.82 -2.17351 1.34879 0
M  V30 37732 H 3524.46 -4.45383 2.44124 0
M  V30 37733 H 3524.39 -5.2009 0.825454 0
M  V30 37734 H 3526.88 -3.64768 0.987569 0
M  V30 37735 H 3527.2 -7.27158 2.6165 0
M  V30 37736 H 3525.54 -6.54188 2.34655 0
M  V30 37737 H 3528.73 -4.49558 1.30442 0
M  V30 37738 H 3528.91 -6.14818 2.04701 0
M  V30 37739 N 3522.31 -0.285959 -1.54984 0
M  V30 37740 C 3523.26 0.611537 -2.19646 0
M  V30 37741 C 3524.25 1.11027 -1.16455 0
M  V30 37742 O 3525.44 1.05354 -1.4223 0
M  V30 37743 C 3522.57 1.79012 -2.92933 0
M  V30 37744 C 3521.65 1.30806 -4.03424 0
M  V30 37745 N 3522.04 0.542904 -5.02878 0
M  V30 37746 C 3520.34 1.59009 -4.16692 0
M  V30 37747 C 3521.04 0.288074 -5.80986 0
M  V30 37748 N 3520.02 0.863601 -5.36696 0
M  V30 37749 H 3523.82 0.0192297 -2.93894 0
M  V30 37750 H 3521.34 -0.0900161 -1.6215 0
M  V30 37751 H 3523.33 2.44448 -3.37714 0
M  V30 37752 H 3521.99 2.38627 -2.20198 0
M  V30 37753 H 3523 0.189214 -5.17554 0
M  V30 37754 H 3519.68 2.19482 -3.55154 0
M  V30 37755 H 3521.07 -0.325455 -6.71111 0
M  V30 37756 N 3523.79 1.57594 -0.0134169 0
M  V30 37757 C 3525.04 1.90766 0.667279 0
M  V30 37758 C 3525.36 0.888877 1.73563 0
M  V30 37759 O 3524.63 -0.0718602 1.95768 0
M  V30 37760 H 3523.21 0.704116 0.249458 0
M  V30 37761 H 3525.87 1.94815 -0.0575132 0
M  V30 37762 H 3524.97 2.90924 1.13002 0
M  V30 37763 N 3525.27 -0.259531 1.55448 0
M  V30 37764 C 3526.52 -0.987365 1.76339 0
M  V30 37765 C 3526.84 -1.86327 0.575083 0
M  V30 37766 O 3526.11 -1.9157 -0.409588 0
M  V30 37767 H 3524.69 -0.367553 0.650318 0
M  V30 37768 H 3527.35 -0.280517 1.92871 0
M  V30 37769 H 3526.45 -1.61646 2.66977 0
M  V30 37770 N 3526.75 -1.48611 -0.524645 0
M  V30 37771 C 3527.71 -1.63042 -1.6109 0
M  V30 37772 C 3528.71 -0.503414 -1.52717 0
M  V30 37773 O 3529.9 -0.769331 -1.56291 0
M  V30 37774 C 3527.03 -1.60563 -3.00719 0
M  V30 37775 H 3528.22 -2.59904 -1.49632 0
M  V30 37776 H 3525.78 -1.37288 -0.747111 0
M  V30 37777 H 3526.51 -0.651982 -3.17679 0
M  V30 37778 H 3526.3 -2.42388 -3.08206 0
M  V30 37779 H 3527.79 -1.73866 -3.79685 0
M  V30 37780 N 3528.22 0.773926 -1.37289 0
M  V30 37781 C 3529.64 1.07418 -1.1804 0
M  V30 37782 C 3529.84 2.01494 -0.0150694 0
M  V30 37783 O 3528.9 2.44109 0.64552 0
M  V30 37784 C 3530.21 1.67377 -2.49811 0
M  V30 37785 C 3531.76 1.79645 -2.56313 0
M  V30 37786 C 3532.23 2.43018 -3.88209 0
M  V30 37787 N 3533.72 2.50471 -3.89639 0
M  V30 37788 C 3534.46 3.00353 -4.88442 0
M  V30 37789 N 3533.95 3.50423 -5.97641 0
M  V30 37790 N 3535.75 2.99207 -4.75848 0
M  V30 37791 H 3527.9 0.149232 -2.11875 0
M  V30 37792 H 3530.16 0.128829 -0.939206 0
M  V30 37793 H 3529.87 1.0572 -3.35434 0
M  V30 37794 H 3529.74 2.66699 -2.66742 0
M  V30 37795 H 3532.13 2.40436 -1.71098 0
M  V30 37796 H 3532.21 0.790851 -2.43268 0
M  V30 37797 H 3531.85 1.82868 -4.73837 0
M  V30 37798 H 3531.78 3.4418 -3.98557 0
M  V30 37799 H 3534.27 2.15034 -3.10755 0
M  V30 37800 H 3534.59 3.86881 -6.68986 0
M  V30 37801 H 3532.93 3.48534 -6.01289 0
M  V30 37802 H 3536.12 2.59388 -3.8966 0
M  V30 37803 H 3536.3 3.37771 -5.53005 0
M  V30 37804 N 3529.7 1.21823 0.99985 0
M  V30 37805 C 3530.95 1.05017 1.74192 0
M  V30 37806 C 3531.3 -0.411354 1.87951 0
M  V30 37807 O 3530.6 -1.30106 1.40652 0
M  V30 37808 C 3530.79 1.68686 3.15087 0
M  V30 37809 C 3530.62 3.20878 3.15067 0
M  V30 37810 C 3529.39 3.89948 3.21354 0
M  V30 37811 C 3531.59 4.17901 2.99772 0
M  V30 37812 N 3529.57 5.29285 3.11015 0
M  V30 37813 C 3530.94 5.44023 2.97386 0
M  V30 37814 C 3533 4.08882 2.84112 0
M  V30 37815 C 3531.7 6.62165 2.80944 0
M  V30 37816 C 3533.72 5.26666 2.69029 0
M  V30 37817 C 3533.09 6.51704 2.67323 0
M  V30 37818 H 3529.19 0.438664 0.647378 0
M  V30 37819 H 3531.77 1.54257 1.18798 0
M  V30 37820 H 3529.94 1.22006 3.6874 0
M  V30 37821 H 3531.67 1.45037 3.77818 0
M  V30 37822 H 3528.43 3.40904 3.28757 0
M  V30 37823 H 3528.85 6.0228 3.09173 0
M  V30 37824 H 3533.49 3.13004 2.84233 0
M  V30 37825 H 3531.21 7.58199 2.7957 0
M  V30 37826 H 3534.8 5.21514 2.57904 0
M  V30 37827 H 3533.68 7.4131 2.55792 0
M  V30 37828 N 3531.18 -1.1956 1.0268 0
M  V30 37829 C 3532.59 -1.70883 0.752057 0
M  V30 37830 C 3532.94 -1.82174 -0.728491 0
M  V30 37831 O 3532.07 -1.49143 -1.56797 0
M  V30 37832 C 3532.66 -3.1037 1.35854 0
M  V30 37833 C 3531.22 -3.58961 1.13243 0
M  V30 37834 C 3530.37 -2.35883 1.45789 0
M  V30 37835 H 3533.32 -1.0443 1.19499 0
M  V30 37836 H 3533.34 -3.72946 0.754413 0
M  V30 37837 H 3532.85 -3.02119 2.43609 0
M  V30 37838 H 3530.95 -3.72528 0.0729926 0
M  V30 37839 H 3531.07 -4.43198 1.81967 0
M  V30 37840 H 3529.43 -2.39119 0.877167 0
M  V30 37841 H 3530.21 -2.30265 2.54623 0
M  V30 37842 N 3532.66 -0.804387 -1.35526 0
M  V30 37843 C 3533.62 -0.21889 -2.28152 0
M  V30 37844 C 3534.62 0.592484 -1.49487 0
M  V30 37845 O 3535.81 0.411289 -1.69275 0
M  V30 37846 C 3532.94 0.695136 -3.33737 0
M  V30 37847 H 3534.14 -1.03581 -2.81445 0
M  V30 37848 H 3531.69 -0.574879 -1.45344 0
M  V30 37849 H 3532.42 1.53582 -2.85627 0
M  V30 37850 H 3532.21 0.115074 -3.91931 0
M  V30 37851 H 3533.7 1.09918 -4.02874 0
M  V30 37852 N 3534.14 1.47403 -0.557697 0
M  V30 37853 C 3535.36 2.07367 -0.0367161 0
M  V30 37854 C 3535.79 1.40756 1.24777 0
M  V30 37855 O 3535.15 0.482711 1.74756 0
M  V30 37856 C 3535.19 3.60322 0.141665 0
M  V30 37857 O 3534.3 3.94429 1.20412 0
M  V30 37858 H 3533.64 0.661996 -0.0515435 0
M  V30 37859 H 3536.17 1.89414 -0.773519 0
M  V30 37860 H 3536.18 4.06446 0.355716 0
M  V30 37861 H 3534.85 4.08202 -0.796505 0
M  V30 37862 H 3533.43 3.60049 0.970526 0
M  V30 37863 N 3535.62 0.294175 1.5483 0
M  V30 37864 C 3536.86 -0.316474 1.99607 0
M  V30 37865 C 3537.18 -1.54934 1.18408 0
M  V30 37866 O 3536.45 -1.93913 0.278323 0
M  V30 37867 H 3535.03 -0.119925 0.737311 0
M  V30 37868 H 3537.7 0.403925 1.90668 0
M  V30 37869 H 3536.79 -0.593228 3.0641 0
M  V30 37870 N 3537.09 -1.57585 0.0217743 0
M  V30 37871 C 3538.5 -1.79368 -0.518079 0
M  V30 37872 C 3538.86 -0.931344 -1.72686 0
M  V30 37873 O 3537.98 -0.139725 -2.15948 0
M  V30 37874 C 3538.58 -3.25306 -0.946653 0
M  V30 37875 C 3537.13 -3.4811 -1.43167 0
M  V30 37876 C 3536.28 -2.74502 -0.392947 0
M  V30 37877 H 3539.23 -1.56753 0.247849 0
M  V30 37878 H 3539.25 -3.34614 -1.81146 0
M  V30 37879 H 3538.77 -3.88043 -0.0666854 0
M  V30 37880 H 3536.87 -2.90616 -2.33181 0
M  V30 37881 H 3536.98 -4.56818 -1.44411 0
M  V30 37882 H 3535.34 -2.39762 -0.859429 0
M  V30 37883 H 3536.13 -3.3995 0.478428 0
M  V30 37884 N 3538.57 0.251283 -1.55584 0
M  V30 37885 C 3539.52 1.31384 -1.86339 0
M  V30 37886 C 3540.51 1.43695 -0.723912 0
M  V30 37887 O 3541.7 1.47011 -0.985743 0
M  V30 37888 C 3538.83 2.67012 -2.15776 0
M  V30 37889 C 3537.91 2.58723 -3.3604 0
M  V30 37890 N 3538.3 2.20063 -4.55418 0
M  V30 37891 C 3536.6 2.89745 -3.39063 0
M  V30 37892 C 3537.3 2.22299 -5.37548 0
M  V30 37893 N 3536.28 2.6163 -4.76498 0
M  V30 37894 H 3540.08 1.00537 -2.7617 0
M  V30 37895 H 3537.59 0.459914 -1.55752 0
M  V30 37896 H 3539.59 3.43689 -2.35973 0
M  V30 37897 H 3538.25 2.9873 -1.27242 0
M  V30 37898 H 3539.26 1.9168 -4.81123 0
M  V30 37899 H 3535.94 3.26031 -2.60787 0
M  V30 37900 H 3537.33 1.94787 -6.43046 0
M  V30 37901 N 3540.05 1.48887 0.516757 0
M  V30 37902 C 3541.3 1.5781 1.27373 0
M  V30 37903 C 3541.63 0.256997 1.92492 0
M  V30 37904 O 3540.9 -0.738161 1.79948 0
M  V30 37905 C 3541.19 2.72599 2.3529 0
M  V30 37906 C 3541.04 4.14456 1.74775 0
M  V30 37907 C 3542.36 2.83091 3.36968 0
M  V30 37908 H 3539.48 0.574426 0.46174 0
M  V30 37909 H 3542.12 1.81112 0.574309 0
M  V30 37910 H 3540.27 2.52862 2.94946 0
M  V30 37911 H 3541.94 4.45668 1.19069 0
M  V30 37912 H 3540.18 4.20838 1.05251 0
M  V30 37913 H 3540.86 4.90619 2.52976 0
M  V30 37914 H 3543.33 3.0101 2.87284 0
M  V30 37915 H 3542.21 3.65114 4.09858 0
M  V30 37916 H 3542.47 1.91791 3.98332 0
M  V30 37917 N 3541.53 -0.766635 1.37697 0
M  V30 37918 C 3542.75 -1.56091 1.36566 0
M  V30 37919 C 3543.18 -1.88045 -0.0455497 0
M  V30 37920 O 3542.54 -1.49611 -1.02402 0
M  V30 37921 C 3542.58 -2.84477 2.21597 0
M  V30 37922 O 3541.69 -3.79073 1.62411 0
M  V30 37923 H 3541.03 -0.472615 0.466402 0
M  V30 37924 H 3543.56 -0.948454 1.81288 0
M  V30 37925 H 3543.57 -3.3353 2.34993 0
M  V30 37926 H 3542.24 -2.60548 3.24172 0
M  V30 37927 H 3540.82 -3.37733 1.58084 0
M  V30 37928 N 3543.01 -1.22351 -0.993375 0
M  V30 37929 C 3543.92 -1.00951 -2.11769 0
M  V30 37930 C 3544.93 0.0420373 -1.73949 0
M  V30 37931 O 3546.11 -0.150584 -2.00836 0
M  V30 37932 C 3543.17 -0.589419 -3.41653 0
M  V30 37933 C 3542.23 -1.71453 -3.93576 0
M  V30 37934 C 3541.47 -1.31439 -5.17262 0
M  V30 37935 O 3541.69 -0.192977 -5.70073 0
M  V30 37936 O 3540.62 -2.13069 -5.62926 0
M  V30 37937 H 3544.45 -1.95146 -2.32705 0
M  V30 37938 H 3542.03 -1.00941 -1.10142 0
M  V30 37939 H 3543.92 -0.365477 -4.19812 0
M  V30 37940 H 3542.59 0.323682 -3.22078 0
M  V30 37941 H 3541.5 -1.99299 -3.16592 0
M  V30 37942 H 3542.83 -2.60548 -4.17583 0
M  V30 37943 N 3544.48 1.19014 -1.03313 0
M  V30 37944 C 3545.73 1.88431 -0.730626 0
M  V30 37945 C 3546.05 1.80275 0.743361 0
M  V30 37946 O 3545.32 1.21604 1.53588 0
M  V30 37947 H 3543.9 0.697552 -0.267265 0
M  V30 37948 H 3546.56 1.44466 -1.30827 0
M  V30 37949 H 3545.66 2.94659 -1.02872 0
M  V30 37950 N 3545.96 0.811563 1.35098 0
M  V30 37951 C 3547.37 0.454575 1.81081 0
M  V30 37952 C 3547.72 -1.02392 1.67363 0
M  V30 37953 O 3546.85 -1.79605 1.20711 0
M  V30 37954 C 3547.44 0.818332 3.28769 0
M  V30 37955 C 3546 0.513873 3.72876 0
M  V30 37956 C 3545.15 1.0413 2.57006 0
M  V30 37957 H 3548.1 1.00276 1.23006 0
M  V30 37958 H 3548.12 0.117749 3.80318 0
M  V30 37959 H 3547.63 1.89445 3.38721 0
M  V30 37960 H 3545.73 -0.553303 3.68469 0
M  V30 37961 H 3545.85 1.04998 4.67453 0
M  V30 37962 H 3544.21 0.463381 2.50449 0
M  V30 37963 H 3544.99 2.12363 2.69735 0
M  V30 37964 N 3547.44 -1.47105 0.565506 0
M  V30 37965 C 3548.85 -1.86216 0.134321 0
M  V30 37966 C 3549.2 -1.47116 -1.29812 0
M  V30 37967 O 3548.33 -0.878051 -1.97786 0
M  V30 37968 C 3548.92 -3.3797 0.236991 0
M  V30 37969 C 3547.48 -3.76142 -0.139209 0
M  V30 37970 C 3546.63 -2.7115 0.580791 0
M  V30 37971 H 3549.58 -1.38504 0.774747 0
M  V30 37972 H 3549.6 -3.76617 -0.542235 0
M  V30 37973 H 3549.11 -3.66397 1.27964 0
M  V30 37974 H 3547.21 -3.53333 -1.18265 0
M  V30 37975 H 3547.33 -4.78571 0.225129 0
M  V30 37976 H 3545.69 -2.5469 0.0229411 0
M  V30 37977 H 3546.47 -3.02418 1.62476 0
M  V30 37978 N 3548.92 -0.302382 -1.54672 0
M  V30 37979 C 3550.17 0.305883 -1.99772 0
M  V30 37980 C 3550.49 1.54304 -1.19228 0
M  V30 37981 O 3549.76 1.93762 -0.288603 0
M  V30 37982 H 3548.34 0.116013 -0.737936 0
M  V30 37983 H 3551 -0.414031 -1.90452 0
M  V30 37984 H 3550.1 0.57697 -3.06721 0
M  V30 37985 N 3550.4 1.57571 -0.0301311 0
M  V30 37986 C 3551.81 1.7964 0.508559 0
M  V30 37987 C 3552.16 0.940489 1.7219 0
M  V30 37988 O 3551.28 0.151175 2.15871 0
M  V30 37989 C 3551.88 3.25803 0.929388 0
M  V30 37990 C 3550.44 3.48864 1.41319 0
M  V30 37991 C 3549.58 2.74706 0.378384 0
M  V30 37992 H 3552.54 1.56619 -0.256159 0
M  V30 37993 H 3552.56 3.3557 1.79369 0
M  V30 37994 H 3552.07 3.88073 0.0461056 0
M  V30 37995 H 3550.17 2.91848 2.31636 0
M  V30 37996 H 3550.28 4.57577 1.41987 0
M  V30 37997 H 3548.65 2.40215 0.846702 0
M  V30 37998 H 3549.43 3.39691 -0.49645 0
M  V30 37999 N 3551.87 -0.243029 1.55715 0
M  V30 38000 C 3553.29 -0.591728 1.48225 0
M  V30 38001 C 3553.49 -1.88156 0.721083 0
M  V30 38002 O 3552.55 -2.51239 0.25201 0
M  V30 38003 C 3553.86 -0.690867 2.92656 0
M  V30 38004 C 3555.41 -0.782935 3.0305 0
M  V30 38005 C 3555.88 -0.913603 4.48795 0
M  V30 38006 N 3557.37 -0.978375 4.52749 0
M  V30 38007 C 3558.11 -1.09881 5.62773 0
M  V30 38008 N 3557.6 -1.18455 6.82598 0
M  V30 38009 N 3559.4 -1.13227 5.50578 0
M  V30 38010 H 3551.55 0.60365 2.03641 0
M  V30 38011 H 3553.81 0.208895 0.924698 0
M  V30 38012 H 3553.52 0.186933 3.51203 0
M  V30 38013 H 3553.39 -1.56154 3.4336 0
M  V30 38014 H 3555.78 -1.65119 2.44581 0
M  V30 38015 H 3555.86 0.112966 2.5555 0
M  V30 38016 H 3555.5 -0.0498942 5.07875 0
M  V30 38017 H 3555.43 -1.8246 4.9398 0
M  V30 38018 H 3557.92 -0.923305 3.66447 0
M  V30 38019 H 3558.24 -1.27562 7.62199 0
M  V30 38020 H 3556.58 -1.15405 6.85351 0
M  V30 38021 H 3559.77 -1.0618 4.55898 0
M  V30 38022 H 3559.95 -1.22268 6.3636 0
M  V30 38023 N 3553.35 -1.49159 -0.508854 0
M  V30 38024 C 3554.3 -1.61644 -1.60796 0
M  V30 38025 C 3555.29 -0.472461 -1.53807 0
M  V30 38026 O 3556.48 -0.725014 -1.6147 0
M  V30 38027 C 3553.61 -1.67899 -2.99441 0
M  V30 38028 C 3552.69 -2.87848 -3.11455 0
M  V30 38029 N 3553.08 -4.12022 -2.9338 0
M  V30 38030 C 3551.38 -2.85622 -3.42544 0
M  V30 38031 C 3552.08 -4.92611 -3.09369 0
M  V30 38032 N 3551.06 -4.25826 -3.37895 0
M  V30 38033 H 3554.86 -2.55377 -1.45463 0
M  V30 38034 H 3552.38 -1.45823 -0.714806 0
M  V30 38035 H 3554.37 -1.7494 -3.7842 0
M  V30 38036 H 3553.03 -0.752974 -3.15849 0
M  V30 38037 H 3554.04 -4.42126 -2.69713 0
M  V30 38038 H 3550.72 -2.02365 -3.65177 0
M  V30 38039 H 3552.11 -6.0123 -2.99954 0
M  V30 38040 N 3554.83 0.759322 -1.38102 0
M  V30 38041 C 3555.78 1.86345 -1.31376 0
M  V30 38042 C 3556.76 1.59663 -0.199141 0
M  V30 38043 O 3557.96 1.71581 -0.43462 0
M  V30 38044 C 3555.09 3.2398 -1.13542 0
M  V30 38045 C 3554.17 3.56572 -2.29602 0
M  V30 38046 N 3554.56 3.60261 -3.5503 0
M  V30 38047 C 3552.86 3.86807 -2.22028 0
M  V30 38048 C 3553.56 3.89956 -4.31636 0
M  V30 38049 N 3552.54 4.06493 -3.60922 0
M  V30 38050 H 3556.34 1.87466 -2.26349 0
M  V30 38051 H 3553.85 0.956392 -1.31251 0
M  V30 38052 H 3555.85 4.02986 -1.06808 0
M  V30 38053 H 3554.51 3.24114 -0.194979 0
M  V30 38054 H 3555.52 3.42161 -3.88775 0
M  V30 38055 H 3552.2 3.9469 -1.36111 0
M  V30 38056 H 3553.59 3.99481 -5.40245 0
M  V30 38057 N 3556.31 1.22876 0.986873 0
M  V30 38058 C 3557.56 1.05487 1.72386 0
M  V30 38059 C 3557.88 -0.410041 1.9064 0
M  V30 38060 O 3557.15 -1.29447 1.47038 0
M  V30 38061 H 3555.73 0.387349 0.638725 0
M  V30 38062 H 3558.39 1.54487 1.18826 0
M  V30 38063 H 3557.49 1.53759 2.71597 0
M  V30 38064 N 3557.79 -1.18464 1.03942 0
M  V30 38065 C 3559.02 -1.92076 0.760942 0
M  V30 38066 C 3559.42 -1.76341 -0.685591 0
M  V30 38067 O 3558.77 -1.08966 -1.47892 0
M  V30 38068 C 3558.83 -3.4395 1.04589 0
M  V30 38069 C 3558.49 -3.83462 2.48608 0
M  V30 38070 C 3559.49 -3.87348 3.46782 0
M  V30 38071 C 3557.18 -4.14793 2.83287 0
M  V30 38072 C 3559.17 -4.22013 4.77685 0
M  V30 38073 C 3556.86 -4.4913 4.14397 0
M  V30 38074 C 3557.85 -4.52716 5.11407 0
M  V30 38075 O 3557.54 -4.86252 6.40167 0
M  V30 38076 H 3557.27 -0.616641 0.277002 0
M  V30 38077 H 3559.83 -1.51238 1.38983 0
M  V30 38078 H 3558.06 -3.85022 0.359875 0
M  V30 38079 H 3559.75 -3.98809 0.755406 0
M  V30 38080 H 3560.51 -3.6328 3.21329 0
M  V30 38081 H 3556.39 -4.1118 2.08451 0
M  V30 38082 H 3559.94 -4.24727 5.53401 0
M  V30 38083 H 3555.83 -4.72658 4.39619 0
M  V30 38084 H 3556.6 -5.0416 6.44799 0
M  V30 38085 N 3559.26 -0.818716 -1.34665 0
M  V30 38086 C 3560.49 -0.417038 -2.02347 0
M  V30 38087 C 3560.9 0.980436 -1.61815 0
M  V30 38088 O 3560.25 1.64519 -0.817261 0
M  V30 38089 C 3560.31 -0.434841 -3.5686 0
M  V30 38090 C 3559.97 -1.78492 -4.20701 0
M  V30 38091 C 3560.97 -2.74512 -4.41519 0
M  V30 38092 C 3558.65 -2.07225 -4.57562 0
M  V30 38093 C 3560.65 -3.9744 -4.98317 0
M  V30 38094 C 3558.33 -3.30414 -5.14072 0
M  V30 38095 C 3559.33 -4.25339 -5.34393 0
M  V30 38096 O 3559.02 -5.46352 -5.89707 0
M  V30 38097 H 3558.75 -0.166101 -0.655276 0
M  V30 38098 H 3561.31 -1.10711 -1.73009 0
M  V30 38099 H 3559.54 0.311905 -3.8544 0
M  V30 38100 H 3561.23 -0.0537971 -4.05864 0
M  V30 38101 H 3561.99 -2.53608 -4.1341 0
M  V30 38102 H 3557.87 -1.34143 -4.41052 0
M  V30 38103 H 3561.41 -4.71543 -5.14094 0
M  V30 38104 H 3557.31 -3.51183 -5.41609 0
M  V30 38105 H 3558.08 -5.47815 -6.08146 0
M  V30 38106 N 3560.74 1.46803 -0.573299 0
M  V30 38107 C 3562.16 1.57871 -0.234258 0
M  V30 38108 C 3562.36 1.56973 1.26339 0
M  V30 38109 O 3561.41 1.48168 2.04456 0
M  V30 38110 C 3562.73 2.87683 -0.875148 0
M  V30 38111 C 3564.28 3.01298 -0.847865 0
M  V30 38112 C 3564.75 4.33832 -1.46812 0
M  V30 38113 N 3566.24 4.40508 -1.43203 0
M  V30 38114 C 3566.98 5.41655 -1.88143 0
M  V30 38115 N 3566.47 6.49527 -2.41012 0
M  V30 38116 N 3568.27 5.32798 -1.79116 0
M  V30 38117 H 3560.42 1.4563 -1.54614 0
M  V30 38118 H 3562.68 0.694086 -0.645715 0
M  V30 38119 H 3562.39 2.94124 -1.92831 0
M  V30 38120 H 3562.26 3.75304 -0.377737 0
M  V30 38121 H 3564.65 2.94444 0.196655 0
M  V30 38122 H 3564.73 2.15177 -1.3832 0
M  V30 38123 H 3564.37 4.41443 -2.51179 0
M  V30 38124 H 3564.3 5.18711 -0.908091 0
M  V30 38125 H 3566.79 3.6315 -1.04548 0
M  V30 38126 H 3567.11 7.22904 -2.73185 0
M  V30 38127 H 3565.45 6.50372 -2.45033 0
M  V30 38128 H 3568.64 4.47426 -1.37577 0
M  V30 38129 H 3568.81 6.11484 -2.14456 0
M  V30 38130 N 3562.22 0.31058 1.54509 0
M  V30 38131 C 3563.47 -0.295285 1.99931 0
M  V30 38132 C 3563.79 -1.5367 1.20044 0
M  V30 38133 O 3563.06 -1.93607 0.298875 0
M  V30 38134 H 3561.64 -0.112098 0.738541 0
M  V30 38135 H 3564.3 0.424125 1.90229 0
M  V30 38136 H 3563.4 -0.560695 3.07022 0
M  V30 38137 N 3563.7 -1.57553 0.0384871 0
M  V30 38138 C 3564.92 -1.96899 -0.651578 0
M  V30 38139 C 3565.35 -0.915337 -1.64326 0
M  V30 38140 O 3564.71 0.122792 -1.80884 0
M  V30 38141 C 3564.76 -3.35332 -1.32607 0
M  V30 38142 O 3563.86 -3.32359 -2.44154 0
M  V30 38143 H 3563.2 -0.641755 -0.17043 0
M  V30 38144 H 3565.73 -2.0434 0.103122 0
M  V30 38145 H 3565.74 -3.71775 -1.6807 0
M  V30 38146 H 3564.42 -4.11561 -0.599203 0
M  V30 38147 H 3562.99 -3.07646 -2.10733 0
M  V30 38148 N 3565.18 0.234767 -1.55842 0
M  V30 38149 C 3566.45 0.984636 -1.6901 0
M  V30 38150 C 3566.83 2.02921 -0.581917 0
M  V30 38151 O 3566.18 2.24737 0.412958 0
M  V30 38152 C 3566.39 1.60703 -3.09799 0
M  V30 38153 C 3567.74 2.1043 -3.68788 0
M  V30 38154 O 3568.76 1.70621 -3.12677 0
M  V30 38155 O 3567.62 2.83559 -4.6718 0
M  V30 38156 H 3564.72 0.459093 -0.687868 0
M  V30 38157 H 3567.26 0.227593 -1.68167 0
M  V30 38158 H 3566.04 0.852101 -3.8191 0
M  V30 38159 H 3565.66 2.42996 -3.14704 0
M  V30 38160 N 3566.66 1.49427 0.500936 0
M  V30 38161 C 3567.89 1.6239 1.27722 0
M  V30 38162 C 3568.29 0.294577 1.86893 0
M  V30 38163 O 3567.64 -0.73 1.68572 0
M  V30 38164 C 3567.7 2.63418 2.44645 0
M  V30 38165 C 3567.36 4.07764 2.06343 0
M  V30 38166 C 3568.36 4.94566 1.60314 0
M  V30 38167 C 3566.04 4.53497 2.15976 0
M  V30 38168 C 3568.04 6.25138 1.24422 0
M  V30 38169 C 3565.73 5.84083 1.79696 0
M  V30 38170 C 3566.72 6.69727 1.33993 0
M  V30 38171 O 3566.41 7.97879 0.982031 0
M  V30 38172 H 3566.14 0.549606 0.393585 0
M  V30 38173 H 3568.7 1.96198 0.607909 0
M  V30 38174 H 3566.93 2.24791 3.14652 0
M  V30 38175 H 3568.62 2.6591 3.0667 0
M  V30 38176 H 3569.38 4.60461 1.52318 0
M  V30 38177 H 3565.26 3.87002 2.50501 0
M  V30 38178 H 3568.81 6.91941 0.886784 0
M  V30 38179 H 3564.7 6.17716 1.87342 0
M  V30 38180 H 3565.47 8.10891 1.1135 0
M  V30 38181 N 3568.13 -0.751987 1.38502 0
M  V30 38182 C 3569.41 -1.50183 1.25318 0
M  V30 38183 C 3569.79 -2.10603 -0.144725 0
M  V30 38184 O 3569.14 -1.97196 -1.15438 0
M  V30 38185 C 3569.35 -2.5669 2.36455 0
M  V30 38186 C 3570.7 -3.23548 2.74957 0
M  V30 38187 O 3571.72 -2.66996 2.35779 0
M  V30 38188 O 3570.58 -4.25839 3.42524 0
M  V30 38189 H 3567.67 -0.666094 0.490151 0
M  V30 38190 H 3570.22 -0.787261 1.50334 0
M  V30 38191 H 3568.99 -2.10303 3.29982 0
M  V30 38192 H 3568.61 -3.35726 2.13012 0
M  V30 38193 N 3569.61 -1.23398 -0.980343 0
M  V30 38194 C 3570.52 -1.03192 -2.10686 0
M  V30 38195 C 3571.54 0.0235853 -1.73984 0
M  V30 38196 O 3572.71 -0.171876 -2.00665 0
M  V30 38197 C 3569.78 -0.625623 -3.41009 0
M  V30 38198 C 3568.84 -1.75618 -3.91736 0
M  V30 38199 C 3568.07 -1.36918 -5.15838 0
M  V30 38200 O 3568.3 -0.25343 -5.69837 0
M  V30 38201 O 3567.23 -2.19028 -5.60634 0
M  V30 38202 H 3571.06 -1.97603 -2.30622 0
M  V30 38203 H 3568.64 -1.02104 -1.09065 0
M  V30 38204 H 3570.52 -0.409983 -4.19401 0
M  V30 38205 H 3569.2 0.289503 -3.22403 0
M  V30 38206 H 3568.1 -2.02646 -3.14461 0
M  V30 38207 H 3569.44 -2.64962 -4.14796 0
M  V30 38208 N 3571.09 1.17911 -1.04569 0
M  V30 38209 C 3572.05 2.19922 -0.645515 0
M  V30 38210 C 3573.05 1.57982 0.299735 0
M  V30 38211 O 3574.24 1.73995 0.0844519 0
M  V30 38212 C 3571.37 3.40859 0.0528336 0
M  V30 38213 H 3572.57 2.5684 -1.54832 0
M  V30 38214 H 3570.12 1.31883 -0.838836 0
M  V30 38215 H 3570.86 3.09478 0.969206 0
M  V30 38216 H 3570.64 3.8706 -0.626626 0
M  V30 38217 H 3572.13 4.16379 0.319148 0
M  V30 38218 N 3572.57 0.825847 1.34229 0
M  V30 38219 C 3573.84 0.337777 1.92661 0
M  V30 38220 C 3574.22 -1.17525 1.7536 0
M  V30 38221 O 3573.57 -1.9837 1.13409 0
M  V30 38222 C 3573.78 0.770329 3.40392 0
M  V30 38223 C 3575.13 0.770841 4.17544 0
M  V30 38224 O 3576.15 0.713096 3.48989 0
M  V30 38225 O 3575.01 0.846697 5.39901 0
M  V30 38226 H 3572.11 0.0928886 0.821767 0
M  V30 38227 H 3574.65 0.910832 1.43185 0
M  V30 38228 H 3573.43 1.81235 3.46799 0
M  V30 38229 H 3573.05 0.17313 3.97223 0
M  V30 38230 N 3574.05 -1.46497 0.581077 0
M  V30 38231 C 3575.29 -2.01993 0.0659007 0
M  V30 38232 C 3575.61 -1.45519 -1.29805 0
M  V30 38233 O 3574.88 -0.639265 -1.85176 0
M  V30 38234 H 3573.46 -0.746694 0.0213716 0
M  V30 38235 H 3576.13 -1.7962 0.756487 0
M  V30 38236 H 3575.22 -3.121 -0.00432642 0
M  V30 38237 N 3575.52 -0.31877 -1.54343 0
M  V30 38238 C 3576.93 0.170276 -1.85922 0
M  V30 38239 C 3577.29 1.52007 -1.24049 0
M  V30 38240 O 3576.41 2.09431 -0.544742 0
M  V30 38241 C 3577.01 0.315743 -3.37326 0
M  V30 38242 C 3575.56 0.749008 -3.68872 0
M  V30 38243 C 3574.71 -0.132139 -2.76985 0
M  V30 38244 H 3577.66 -0.539212 -1.49259 0
M  V30 38245 H 3577.68 1.14744 -3.62786 0
M  V30 38246 H 3577.2 -0.666808 -3.82329 0
M  V30 38247 H 3575.3 1.74147 -3.29399 0
M  V30 38248 H 3575.41 0.55608 -4.75862 0
M  V30 38249 H 3573.77 0.39152 -2.51673 0
M  V30 38250 H 3574.56 -1.11137 -3.24813 0
M  V30 38251 N 3577 1.5753 -0.0468419 0
M  V30 38252 C 3578.25 1.92139 0.626665 0
M  V30 38253 C 3578.57 0.925493 1.71638 0
M  V30 38254 O 3577.84 -0.0303187 1.95877 0
M  V30 38255 H 3576.42 0.709249 0.234466 0
M  V30 38256 H 3579.08 1.94649 -0.0988234 0
M  V30 38257 H 3578.18 2.93256 1.06805 0
M  V30 38258 N 3578.48 -0.226499 1.55964 0
M  V30 38259 C 3579.71 -0.972814 1.8317 0
M  V30 38260 C 3580.13 -1.77359 0.626543 0
M  V30 38261 O 3579.49 -1.76257 -0.424649 0
M  V30 38262 C 3579.54 -1.87009 3.08318 0
M  V30 38263 O 3578.64 -2.96474 2.86665 0
M  V30 38264 H 3577.98 -0.275726 0.604046 0
M  V30 38265 H 3580.51 -0.24131 2.03172 0
M  V30 38266 H 3580.52 -2.28085 3.38292 0
M  V30 38267 H 3579.2 -1.28148 3.95665 0
M  V30 38268 H 3577.77 -2.59379 2.67912 0
M  V30 38269 N 3579.96 -1.4969 -0.493005 0
M  V30 38270 C 3581.21 -1.59265 -1.24415 0
M  V30 38271 C 3581.53 -0.284915 -1.92907 0
M  V30 38272 O 3580.8 0.69627 -1.83109 0
M  V30 38273 H 3579.38 -0.586829 -0.462212 0
M  V30 38274 H 3582.04 -1.86358 -0.57068 0
M  V30 38275 H 3581.14 -2.39277 -2.00382 0
M  V30 38276 N 3581.44 0.744631 -1.38899 0
M  V30 38277 C 3582.68 1.50101 -1.35329 0
M  V30 38278 C 3583.01 1.94927 0.0532445 0
M  V30 38279 O 3582.28 1.68296 1.00267 0
M  V30 38280 H 3580.86 0.556799 -0.49798 0
M  V30 38281 H 3583.52 0.884594 -1.73669 0
M  V30 38282 H 3582.61 2.38769 -2.00987 0
M  V30 38283 N 3582.91 1.23916 0.973785 0
M  V30 38284 C 3584.16 1.0731 1.71257 0
M  V30 38285 C 3584.48 -0.389798 1.91064 0
M  V30 38286 O 3583.75 -1.2788 1.48403 0
M  V30 38287 H 3582.33 0.394101 0.634581 0
M  V30 38288 H 3585 1.55739 1.17181 0
M  V30 38289 H 3584.09 1.56631 2.69951 0
M  V30 38290 N 3584.39 -1.17355 1.05193 0
M  V30 38291 C 3585.3 -2.25017 0.663657 0
M  V30 38292 C 3586.32 -1.7112 -0.315269 0
M  V30 38293 O 3587.49 -2.00703 -0.167363 0
M  V30 38294 C 3584.56 -3.46672 0.0443916 0
M  V30 38295 C 3583.62 -4.15655 1.07377 0
M  V30 38296 C 3582.85 -5.31501 0.483957 0
M  V30 38297 O 3583.08 -5.66007 -0.706592 0
M  V30 38298 O 3582.01 -5.89443 1.21822 0
M  V30 38299 H 3585.84 -2.60517 1.56092 0
M  V30 38300 H 3583.42 -1.24655 0.823496 0
M  V30 38301 H 3585.3 -4.20332 -0.299765 0
M  V30 38302 H 3583.98 -3.1297 -0.826524 0
M  V30 38303 H 3582.89 -3.44012 1.46991 0
M  V30 38304 H 3584.22 -4.53384 1.91583 0
M  V30 38305 N 3585.87 -0.832954 -1.3379 0
M  V30 38306 C 3586.78 -0.264209 -2.33107 0
M  V30 38307 C 3587.8 0.606666 -1.63081 0
M  V30 38308 O 3588.97 0.51219 -1.94778 0
M  V30 38309 C 3586.04 0.556255 -3.42209 0
M  V30 38310 C 3585.1 -0.338198 -4.27966 0
M  V30 38311 C 3584.33 0.443203 -5.31857 0
M  V30 38312 O 3584.55 1.6755 -5.45237 0
M  V30 38313 O 3583.49 -0.179705 -6.01632 0
M  V30 38314 H 3587.31 -1.0865 -2.836 0
M  V30 38315 H 3584.9 -0.595331 -1.37026 0
M  V30 38316 H 3586.78 1.0227 -4.08802 0
M  V30 38317 H 3585.46 1.3557 -2.93943 0
M  V30 38318 H 3584.36 -0.852357 -3.6426 0
M  V30 38319 H 3585.7 -1.10226 -4.79699 0
M  V30 38320 N 3587.35 1.46186 -0.588837 0
M  V30 38321 C 3588.31 2.28827 0.130763 0
M  V30 38322 C 3589.31 1.38733 0.813013 0
M  V30 38323 O 3590.5 1.61047 0.664033 0
M  V30 38324 C 3587.63 3.19277 1.19478 0
M  V30 38325 H 3588.83 2.93927 -0.595565 0
M  V30 38326 H 3586.38 1.52398 -0.347065 0
M  V30 38327 H 3587.11 2.58937 1.95249 0
M  V30 38328 H 3586.9 3.85618 0.710009 0
M  V30 38329 H 3588.39 3.81462 1.69931 0
M  V30 38330 N 3588.83 0.32695 1.54171 0
M  V30 38331 C 3589.76 -0.580098 2.20704 0
M  V30 38332 C 3590.74 -1.11313 1.18525 0
M  V30 38333 O 3591.92 -1.1765 1.47278 0
M  V30 38334 C 3589.05 -1.79633 2.8714 0
M  V30 38335 C 3588.09 -1.39425 4.03067 0
M  V30 38336 S 3588.93 -0.428085 5.33786 0
M  V30 38337 C 3590.08 -1.65153 6.03718 0
M  V30 38338 H 3590.32 -0.0149441 2.97296 0
M  V30 38339 H 3587.85 0.111031 1.54 0
M  V30 38340 H 3589.81 -2.49417 3.26039 0
M  V30 38341 H 3588.47 -2.33268 2.10345 0
M  V30 38342 H 3587.66 -2.30062 4.48428 0
M  V30 38343 H 3587.26 -0.776079 3.65859 0
M  V30 38344 H 3589.56 -2.58847 6.26103 0
M  V30 38345 H 3590.5 -1.24002 6.97158 0
M  V30 38346 H 3590.91 -1.84004 5.33669 0
M  V30 38347 N 3590.3 -1.57503 0.0551955 0
M  V30 38348 C 3591.27 -2.10661 -0.903028 0
M  V30 38349 C 3592.27 -1.02705 -1.23727 0
M  V30 38350 O 3593.46 -1.28762 -1.17328 0
M  V30 38351 C 3590.59 -2.59419 -2.21167 0
M  V30 38352 H 3591.78 -2.96623 -0.442145 0
M  V30 38353 H 3589.34 -1.551 -0.19327 0
M  V30 38354 H 3590.07 -1.76862 -2.71828 0
M  V30 38355 H 3589.86 -3.38313 -1.9821 0
M  V30 38356 H 3591.35 -3.00679 -2.89796 0
M  V30 38357 N 3591.78 0.218225 -1.56082 0
M  V30 38358 C 3593.03 0.940265 -1.78895 0
M  V30 38359 C 3593.35 1.84737 -0.624282 0
M  V30 38360 O 3592.62 1.92589 0.358652 0
M  V30 38361 H 3591.2 0.350182 -0.659835 0
M  V30 38362 H 3593.86 0.229282 -1.93547 0
M  V30 38363 H 3592.96 1.54511 -2.71169 0
M  V30 38364 N 3593.26 1.4995 0.485059 0
M  V30 38365 C 3594.22 1.67256 1.5671 0
M  V30 38366 C 3595.22 0.543727 1.51328 0
M  V30 38367 O 3596.41 0.810499 1.54196 0
M  V30 38368 C 3593.55 1.6848 2.96357 0
M  V30 38369 H 3594.74 2.6378 1.42688 0
M  V30 38370 H 3592.29 1.3922 0.710449 0
M  V30 38371 H 3593.03 0.735979 3.15838 0
M  V30 38372 H 3592.81 2.50474 3.01671 0
M  V30 38373 H 3594.3 1.83871 3.74941 0
M  V30 38374 N 3594.74 -0.737255 1.39292 0
M  V30 38375 C 3595.97 -1.52429 1.3946 0
M  V30 38376 C 3596.38 -1.89195 -0.0132534 0
M  V30 38377 O 3595.72 -1.54458 -0.994403 0
M  V30 38378 C 3595.78 -2.84224 2.2013 0
M  V30 38379 C 3595.45 -2.69904 3.68783 0
M  V30 38380 C 3596.44 -2.38603 4.61914 0
M  V30 38381 C 3594.13 -2.86845 4.12341 0
M  V30 38382 C 3596.12 -2.24421 5.96585 0
M  V30 38383 C 3593.81 -2.72283 5.47088 0
M  V30 38384 C 3594.81 -2.41115 6.39025 0
M  V30 38385 O 3594.5 -2.26641 7.71291 0
M  V30 38386 H 3594.23 -0.477719 0.478289 0
M  V30 38387 H 3596.78 -0.918859 1.83701 0
M  V30 38388 H 3595.01 -3.47018 1.70633 0
M  V30 38389 H 3596.7 -3.45828 2.12503 0
M  V30 38390 H 3597.47 -2.25167 4.29563 0
M  V30 38391 H 3593.35 -3.10097 3.41117 0
M  V30 38392 H 3596.89 -2.00016 6.68311 0
M  V30 38393 H 3592.79 -2.85296 5.79031 0
M  V30 38394 H 3593.55 -2.41728 7.81991 0
M  V30 38395 N 3596.22 -1.24431 -0.967199 0
M  V30 38396 C 3597.49 -0.992283 -1.68562 0
M  V30 38397 C 3597.87 0.485265 -2.05447 0
M  V30 38398 O 3597.22 1.45968 -1.758 0
M  V30 38399 C 3597.43 -1.91567 -2.91724 0
M  V30 38400 C 3598.78 -2.18685 -3.63953 0
M  V30 38401 O 3599.8 -1.89224 -3.01783 0
M  V30 38402 O 3598.66 -2.68719 -4.7587 0
M  V30 38403 H 3595.76 -0.375312 -0.736933 0
M  V30 38404 H 3598.3 -1.35531 -1.02124 0
M  V30 38405 H 3597.08 -2.91392 -2.61163 0
M  V30 38406 H 3596.7 -1.55584 -3.65895 0
M  V30 38407 N 3597.7 1.16795 -1.05814 0
M  V30 38408 C 3598.66 2.19225 -0.668804 0
M  V30 38409 C 3599.66 1.58291 0.282962 0
M  V30 38410 O 3600.85 1.74075 0.0659927 0
M  V30 38411 C 3597.98 3.40896 0.0166779 0
M  V30 38412 H 3599.17 2.55184 -1.57548 0
M  V30 38413 H 3596.73 1.30986 -0.852776 0
M  V30 38414 H 3597.46 3.10489 0.936327 0
M  V30 38415 H 3597.25 3.86374 -0.667644 0
M  V30 38416 H 3598.74 4.16694 0.274967 0
M  V30 38417 N 3599.17 0.840037 1.33346 0
M  V30 38418 C 3600.58 0.492883 1.80077 0
M  V30 38419 C 3600.94 -0.988191 1.69497 0
M  V30 38420 O 3600.06 -1.77004 1.24493 0
M  V30 38421 C 3600.66 0.887885 3.26959 0
M  V30 38422 C 3599.21 0.59285 3.71702 0
M  V30 38423 C 3598.36 1.09558 2.5474 0
M  V30 38424 H 3601.31 1.02863 1.20851 0
M  V30 38425 H 3601.33 0.198394 3.79982 0
M  V30 38426 H 3600.85 1.96587 3.34627 0
M  V30 38427 H 3598.95 -0.475021 3.6956 0
M  V30 38428 H 3599.06 1.1489 4.6512 0
M  V30 38429 H 3597.42 0.516401 2.4941 0
M  V30 38430 H 3598.21 2.18037 2.6517 0
M  V30 38431 N 3600.65 -1.45872 0.596582 0
M  V30 38432 C 3602.06 -1.85889 0.17379 0
M  V30 38433 C 3602.41 -1.49837 -1.26662 0
M  V30 38434 O 3601.54 -0.919807 -1.95879 0
M  V30 38435 C 3602.13 -3.37391 0.308626 0
M  V30 38436 C 3600.69 -3.76353 -0.0593923 0
M  V30 38437 C 3599.84 -2.69857 0.638175 0
M  V30 38438 H 3602.79 -1.36829 0.803952 0
M  V30 38439 H 3602.81 -3.77682 -0.462227 0
M  V30 38440 H 3602.32 -3.636 1.35707 0
M  V30 38441 H 3600.42 -3.55762 -1.10744 0
M  V30 38442 H 3600.54 -4.77986 0.32659 0
M  V30 38443 H 3598.9 -2.54584 0.0769594 0
M  V30 38444 H 3599.68 -2.98903 1.68854 0
M  V30 38445 N 3602.13 -0.335122 -1.53996 0
M  V30 38446 C 3603.54 0.150547 -1.86092 0
M  V30 38447 C 3603.89 1.50683 -1.25655 0
M  V30 38448 O 3603.02 2.08842 -0.566924 0
M  V30 38449 C 3603.61 0.279947 -3.37641 0
M  V30 38450 C 3602.17 0.709842 -3.69646 0
M  V30 38451 C 3601.32 -0.16151 -2.76829 0
M  V30 38452 H 3604.27 -0.555012 -1.48679 0
M  V30 38453 H 3604.29 1.1089 -3.63983 0
M  V30 38454 H 3603.8 -0.707321 -3.816 0
M  V30 38455 H 3601.9 1.70644 -3.31227 0
M  V30 38456 H 3602.02 0.505578 -4.76425 0
M  V30 38457 H 3600.38 0.364804 -2.52074 0
M  V30 38458 H 3601.16 -1.14576 -3.23616 0
M  V30 38459 N 3603.61 1.57472 -0.0635475 0
M  V30 38460 C 3604.85 1.9346 0.60835 0
M  V30 38461 C 3605.19 0.943171 1.69758 0
M  V30 38462 O 3604.46 -0.0289225 1.94478 0
M  V30 38463 C 3604.74 3.39765 1.19296 0
M  V30 38464 C 3604.6 4.49663 0.110941 0
M  V30 38465 C 3605.92 3.86715 2.10094 0
M  V30 38466 H 3603.04 0.7035 0.219675 0
M  V30 38467 H 3605.68 1.89569 -0.127836 0
M  V30 38468 H 3603.83 3.43212 1.82038 0
M  V30 38469 H 3605.5 4.58341 -0.521686 0
M  V30 38470 H 3603.74 4.30177 -0.559484 0
M  V30 38471 H 3604.41 5.4915 0.560236 0
M  V30 38472 H 3606.89 3.85223 1.57298 0
M  V30 38473 H 3605.77 4.89713 2.47937 0
M  V30 38474 H 3606.03 3.24182 3.00597 0
M  V30 38475 N 3605.09 -0.209945 1.56195 0
M  V30 38476 C 3606.5 -0.560154 1.49447 0
M  V30 38477 C 3606.7 -1.86584 0.760831 0
M  V30 38478 O 3605.76 -2.50648 0.305245 0
M  V30 38479 C 3607.07 -0.628635 2.94056 0
M  V30 38480 C 3608.62 -0.718477 3.04642 0
M  V30 38481 C 3609.09 -0.818201 4.50632 0
M  V30 38482 N 3610.58 -0.88212 4.54723 0
M  V30 38483 C 3611.32 -0.979193 5.64977 0
M  V30 38484 N 3610.82 -1.03949 6.84957 0
M  V30 38485 N 3612.61 -1.01523 5.52856 0
M  V30 38486 H 3604.76 0.646709 2.02315 0
M  V30 38487 H 3607.02 0.228462 0.920059 0
M  V30 38488 H 3606.73 0.261386 3.50727 0
M  V30 38489 H 3606.6 -1.48836 3.46595 0
M  V30 38490 H 3608.99 -1.59893 2.48028 0
M  V30 38491 H 3609.07 0.167147 2.55253 0
M  V30 38492 H 3608.71 0.0578449 5.07867 0
M  V30 38493 H 3608.64 -1.71941 4.97739 0
M  V30 38494 H 3611.14 -0.845368 3.68323 0
M  V30 38495 H 3611.45 -1.11366 7.64734 0
M  V30 38496 H 3609.79 -1.00842 6.87645 0
M  V30 38497 H 3612.98 -0.964859 4.58048 0
M  V30 38498 H 3613.16 -1.08743 6.38811 0
M  V30 38499 N 3606.56 -1.50205 -0.4771 0
M  V30 38500 C 3607.51 -1.65018 -1.57331 0
M  V30 38501 C 3608.5 -0.50498 -1.5277 0
M  V30 38502 O 3609.69 -0.759101 -1.59896 0
M  V30 38503 C 3606.82 -1.74213 -2.95812 0
M  V30 38504 C 3605.9 -2.9439 -3.05279 0
M  V30 38505 N 3606.3 -4.18152 -2.84574 0
M  V30 38506 C 3604.59 -2.92823 -3.36408 0
M  V30 38507 C 3605.29 -4.99062 -2.98851 0
M  V30 38508 N 3604.27 -4.32898 -3.28786 0
M  V30 38509 H 3608.07 -2.58405 -1.40014 0
M  V30 38510 H 3605.59 -1.47306 -0.683714 0
M  V30 38511 H 3607.58 -1.82928 -3.74624 0
M  V30 38512 H 3606.24 -0.819801 -3.1418 0
M  V30 38513 H 3607.25 -4.47747 -2.60275 0
M  V30 38514 H 3603.93 -2.10066 -3.60803 0
M  V30 38515 H 3605.32 -6.07457 -2.87133 0
M  V30 38516 N 3608.04 0.729857 -1.39681 0
M  V30 38517 C 3609.01 1.8256 -1.38581 0
M  V30 38518 C 3610.01 1.58308 -0.282021 0
M  V30 38519 O 3611.2 1.65613 -0.540194 0
M  V30 38520 C 3608.33 3.20431 -1.16349 0
M  V30 38521 H 3609.52 1.84938 -2.36089 0
M  V30 38522 H 3607.07 0.934041 -1.25321 0
M  V30 38523 H 3607.81 3.23711 -0.195429 0
M  V30 38524 H 3607.59 3.39431 -1.96287 0
M  V30 38525 H 3609.08 4.00484 -1.18332 0
M  V30 38526 N 3609.52 1.24942 0.960587 0
M  V30 38527 C 3610.75 1.12156 1.74458 0
M  V30 38528 C 3611.17 -0.321282 1.85336 0
M  V30 38529 O 3610.53 -1.23268 1.32946 0
M  V30 38530 C 3610.58 1.77405 3.13942 0
M  V30 38531 O 3609.68 1.04965 3.98818 0
M  V30 38532 H 3609.02 0.391919 0.536 0
M  V30 38533 H 3611.55 1.6539 1.20447 0
M  V30 38534 H 3611.56 1.8345 3.64431 0
M  V30 38535 H 3610.24 2.82382 3.05341 0
M  V30 38536 H 3608.81 1.06758 3.57291 0
M  V30 38537 N 3611 -1.16233 1.06432 0
M  V30 38538 C 3612.22 -1.91237 0.802705 0
M  V30 38539 C 3612.65 -1.76979 -0.637191 0
M  V30 38540 O 3612.01 -1.09606 -1.44417 0
M  V30 38541 C 3612.05 -3.39908 1.20395 0
M  V30 38542 O 3611.16 -4.10966 0.343588 0
M  V30 38543 H 3610.5 -0.59574 0.29324 0
M  V30 38544 H 3613.03 -1.47253 1.42048 0
M  V30 38545 H 3613.04 -3.90681 1.17611 0
M  V30 38546 H 3611.71 -3.49605 2.25276 0
M  V30 38547 H 3610.29 -3.70376 0.433117 0
M  V30 38548 N 3612.48 -0.847097 -1.32899 0
M  V30 38549 C 3613.72 -0.445907 -1.97119 0
M  V30 38550 C 3614.05 1.00011 -1.674 0
M  V30 38551 O 3613.32 1.69785 -0.977234 0
M  V30 38552 H 3611.9 -0.1619 -0.729244 0
M  V30 38553 H 3614.56 -1.08186 -1.62116 0
M  V30 38554 H 3613.65 -0.58473 -3.06574 0
M  V30 38555 N 3613.95 1.45554 -0.604309 0
M  V30 38556 C 3614.92 2.28953 0.106486 0
M  V30 38557 C 3615.92 1.39587 0.798253 0
M  V30 38558 O 3617.11 1.61743 0.646914 0
M  V30 38559 C 3614.24 3.20526 1.16085 0
M  V30 38560 H 3615.43 2.93279 -0.626707 0
M  V30 38561 H 3612.99 1.52021 -0.363209 0
M  V30 38562 H 3613.72 2.60993 1.92492 0
M  V30 38563 H 3613.51 3.86349 0.669069 0
M  V30 38564 H 3615 3.83243 1.65876 0
M  V30 38565 N 3615.43 0.343284 1.53816 0
M  V30 38566 C 3616.66 -0.254708 2.05326 0
M  V30 38567 C 3617.08 -1.44235 1.21827 0
M  V30 38568 O 3616.43 -1.8073 0.253539 0
M  V30 38569 C 3616.48 -0.670012 3.55237 0
M  V30 38570 O 3616.2 0.470399 4.35567 0
M  V30 38571 C 3617.71 -1.32875 4.22917 0
M  V30 38572 H 3614.93 -0.0492206 0.669192 0
M  V30 38573 H 3617.47 0.495194 1.98414 0
M  V30 38574 H 3615.62 -1.36986 3.62372 0
M  V30 38575 H 3616.04 0.139395 5.24315 0
M  V30 38576 H 3617.51 -1.5701 5.29199 0
M  V30 38577 H 3617.99 -2.28222 3.75248 0
M  V30 38578 H 3618.6 -0.670946 4.19974 0
M  V30 38579 N 3616.91 -1.57436 0.0718977 0
M  V30 38580 C 3618.16 -1.93111 -0.596018 0
M  V30 38581 C 3618.48 -0.952682 -1.70144 0
M  V30 38582 O 3617.75 -0.000847376 -1.959 0
M  V30 38583 H 3616.33 -0.71289 -0.223153 0
M  V30 38584 H 3618.99 -1.94467 0.129778 0
M  V30 38585 H 3618.09 -2.94918 -1.02126 0
M  V30 38586 N 3618.39 0.201658 -1.56305 0
M  V30 38587 C 3619.8 0.552221 -1.49742 0
M  V30 38588 C 3620 1.86178 -0.770716 0
M  V30 38589 O 3619.06 2.50483 -0.318533 0
M  V30 38590 C 3620.37 0.613032 -2.94385 0
M  V30 38591 C 3621.92 0.702311 -3.05019 0
M  V30 38592 C 3622.4 0.794292 -4.5106 0
M  V30 38593 N 3623.89 0.857992 -4.55184 0
M  V30 38594 C 3624.62 0.949217 -5.65489 0
M  V30 38595 N 3624.12 1.00315 -6.85499 0
M  V30 38596 N 3625.91 0.985898 -5.53386 0
M  V30 38597 H 3618.06 -0.657429 -2.01969 0
M  V30 38598 H 3620.33 -0.233338 -0.918835 0
M  V30 38599 H 3620.03 -0.279982 -3.50584 0
M  V30 38600 H 3619.91 1.46995 -3.47379 0
M  V30 38601 H 3622.29 1.58576 -2.48873 0
M  V30 38602 H 3622.37 -0.180681 -2.55161 0
M  V30 38603 H 3622.02 -0.0847776 -5.07829 0
M  V30 38604 H 3621.95 1.69299 -4.98644 0
M  V30 38605 H 3624.44 0.825824 -3.68766 0
M  V30 38606 H 3624.75 1.07309 -7.65313 0
M  V30 38607 H 3623.1 0.97194 -6.8817 0
M  V30 38608 H 3626.29 0.940554 -4.58553 0
M  V30 38609 H 3626.46 1.05353 -6.39378 0
M  V30 38610 N 3619.87 1.50456 0.469128 0
M  V30 38611 C 3621.09 1.65577 1.24896 0
M  V30 38612 C 3621.52 0.339614 1.85009 0
M  V30 38613 O 3620.87 -0.696745 1.67377 0
M  V30 38614 C 3620.92 2.75045 2.332 0
M  V30 38615 O 3620.03 2.36435 3.37894 0
M  V30 38616 H 3619.37 0.553126 0.367353 0
M  V30 38617 H 3621.9 1.96843 0.558048 0
M  V30 38618 H 3621.91 2.98181 2.78482 0
M  V30 38619 H 3620.58 3.70567 1.88819 0
M  V30 38620 H 3619.16 2.23753 2.9831 0
M  V30 38621 N 3621.34 -0.722439 1.40066 0
M  V30 38622 C 3622.76 -1.30128 1.33879 0
M  V30 38623 C 3623.11 -1.96198 0.00902818 0
M  V30 38624 O 3622.23 -1.97113 -0.893048 0
M  V30 38625 C 3622.83 -2.36626 2.42473 0
M  V30 38626 C 3621.39 -2.90153 2.39767 0
M  V30 38627 C 3620.53 -1.63861 2.23707 0
M  V30 38628 H 3623.48 -0.51905 1.49972 0
M  V30 38629 H 3623.5 -3.17311 2.09985 0
M  V30 38630 H 3623.02 -1.88511 3.39242 0
M  V30 38631 H 3621.12 -3.42516 1.46675 0
M  V30 38632 H 3621.23 -3.42413 3.35098 0
M  V30 38633 H 3619.59 -1.88671 1.71101 0
M  V30 38634 H 3620.38 -1.1778 3.22464 0
M  V30 38635 N 3622.82 -1.2545 -0.953947 0
M  V30 38636 C 3624.24 -1.02286 -1.22514 0
M  V30 38637 C 3624.44 0.259898 -1.99817 0
M  V30 38638 O 3623.5 0.972438 -2.33023 0
M  V30 38639 C 3624.81 -2.24647 -1.99886 0
M  V30 38640 C 3626.36 -2.29415 -2.12926 0
M  V30 38641 C 3626.83 -3.51434 -2.93697 0
M  V30 38642 N 3628.32 -3.51835 -3.01275 0
M  V30 38643 C 3629.06 -4.42911 -3.64167 0
M  V30 38644 N 3628.55 -5.44261 -4.28663 0
M  V30 38645 N 3630.35 -4.30591 -3.61314 0
M  V30 38646 H 3622.5 -2.0786 -0.436823 0
M  V30 38647 H 3624.76 -0.912857 -0.255728 0
M  V30 38648 H 3624.47 -3.1788 -1.50483 0
M  V30 38649 H 3624.34 -2.27873 -3.00589 0
M  V30 38650 H 3626.73 -1.36705 -2.61526 0
M  V30 38651 H 3626.81 -2.30208 -1.11526 0
M  V30 38652 H 3626.45 -4.44467 -2.45787 0
M  V30 38653 H 3626.38 -3.47888 -3.95325 0
M  V30 38654 H 3628.87 -2.78522 -2.5541 0
M  V30 38655 H 3629.19 -6.09966 -4.74511 0
M  V30 38656 H 3627.53 -5.48132 -4.27289 0
M  V30 38657 H 3630.72 -3.5064 -3.10112 0
M  V30 38658 H 3630.9 -5.01767 -4.10042 0
M  V30 38659 N 3624.3 1.15667 -1.07047 0
M  V30 38660 C 3625.53 1.90267 -0.812779 0
M  V30 38661 C 3625.94 1.77848 0.633691 0
M  V30 38662 O 3625.3 1.1283 1.43442 0
M  V30 38663 C 3625.35 3.4072 -1.20799 0
M  V30 38664 O 3625.07 3.52776 -2.5977 0
M  V30 38665 C 3626.57 4.32351 -0.97915 0
M  V30 38666 H 3623.79 0.603112 -0.294104 0
M  V30 38667 H 3626.34 1.46568 -1.42611 0
M  V30 38668 H 3624.49 3.82093 -0.639043 0
M  V30 38669 H 3624.91 4.46128 -2.75808 0
M  V30 38670 H 3626.38 5.36347 -1.30522 0
M  V30 38671 H 3626.86 4.39118 0.084698 0
M  V30 38672 H 3627.46 3.96716 -1.53285 0
M  V30 38673 N 3625.78 0.854133 1.32447 0
M  V30 38674 C 3627.19 0.511954 1.79544 0
M  V30 38675 C 3627.54 -0.970158 1.70536 0
M  V30 38676 O 3626.67 -1.75674 1.26363 0
M  V30 38677 C 3627.26 0.922513 3.25999 0
M  V30 38678 C 3625.82 0.632241 3.71052 0
M  V30 38679 C 3624.97 1.12254 2.53563 0
M  V30 38680 H 3627.92 1.04139 1.19753 0
M  V30 38681 H 3627.94 0.238685 3.79751 0
M  V30 38682 H 3627.45 2.00125 3.32523 0
M  V30 38683 H 3625.55 -0.435797 3.70043 0
M  V30 38684 H 3625.67 1.19817 4.63876 0
M  V30 38685 H 3624.03 0.542825 2.48848 0
M  V30 38686 H 3624.81 2.20837 2.62842 0
M  V30 38687 N 3627.26 -1.45231 0.61202 0
M  V30 38688 C 3628.67 -1.57195 0.276033 0
M  V30 38689 C 3628.87 -1.60268 -1.22133 0
M  V30 38690 O 3627.93 -1.53537 -2.00456 0
M  V30 38691 C 3629.24 -2.85262 0.951115 0
M  V30 38692 C 3630.79 -2.98944 0.92745 0
M  V30 38693 C 3631.27 -4.29787 1.58263 0
M  V30 38694 N 3632.76 -4.36556 1.54832 0
M  V30 38695 C 3633.49 -5.36476 2.02438 0
M  V30 38696 N 3632.99 -6.42908 2.58149 0
M  V30 38697 N 3634.78 -5.27862 1.93179 0
M  V30 38698 H 3626.93 -1.4148 1.58421 0
M  V30 38699 H 3629.19 -0.676722 0.663891 0
M  V30 38700 H 3628.9 -2.88908 2.00562 0
M  V30 38701 H 3628.77 -3.7417 0.477109 0
M  V30 38702 H 3631.16 -2.94862 -0.118519 0
M  V30 38703 H 3631.24 -2.11434 1.43976 0
M  V30 38704 H 3630.89 -4.34628 2.62795 0
M  V30 38705 H 3630.82 -5.16121 1.0453 0
M  V30 38706 H 3633.31 -3.60251 1.14139 0
M  V30 38707 H 3633.62 -7.15407 2.92256 0
M  V30 38708 H 3631.97 -6.43647 2.6219 0
M  V30 38709 H 3635.16 -4.43621 1.49392 0
M  V30 38710 H 3635.33 -6.05583 2.30593 0
M  V30 38711 N 3628.74 -0.351436 -1.53632 0
M  V30 38712 C 3629.7 0.489254 -2.23917 0
M  V30 38713 C 3630.7 1.02121 -1.24209 0
M  V30 38714 O 3631.89 0.909209 -1.4859 0
M  V30 38715 C 3629.02 1.68236 -2.96495 0
M  V30 38716 H 3630.21 -0.125571 -2.99637 0
M  V30 38717 H 3627.77 -0.102901 -1.55961 0
M  V30 38718 H 3628.5 2.33567 -2.24982 0
M  V30 38719 H 3628.29 1.30803 -3.69639 0
M  V30 38720 H 3629.78 2.27847 -3.49965 0
M  V30 38721 N 3630.21 1.57396 -0.0802459 0
M  V30 38722 C 3631.44 1.98557 0.599145 0
M  V30 38723 C 3631.86 0.958583 1.61842 0
M  V30 38724 O 3631.22 -0.0747907 1.81146 0
M  V30 38725 C 3631.27 3.3873 1.23669 0
M  V30 38726 O 3630.37 3.38716 2.35256 0
M  V30 38727 H 3629.71 0.646048 0.153355 0
M  V30 38728 H 3632.24 2.03995 -0.157263 0
M  V30 38729 H 3632.25 3.761 1.58154 0
M  V30 38730 H 3630.93 4.13005 0.489874 0
M  V30 38731 H 3629.51 3.13125 2.02502 0
M  V30 38732 N 3631.69 -0.193366 1.56409 0
M  V30 38733 C 3632.94 -0.911685 1.80368 0
M  V30 38734 C 3633.26 -1.8372 0.653593 0
M  V30 38735 O 3632.53 -1.93135 -0.327967 0
M  V30 38736 H 3631.11 -0.33964 0.665322 0
M  V30 38737 H 3633.77 -0.198462 1.93887 0
M  V30 38738 H 3632.87 -1.50177 2.73593 0
M  V30 38739 N 3633.17 -1.50702 -0.461142 0
M  V30 38740 C 3634.58 -1.54934 -1.04175 0
M  V30 38741 C 3634.93 -0.358682 -1.92894 0
M  V30 38742 O 3634.06 0.527309 -2.09877 0
M  V30 38743 C 3634.65 -2.80776 -1.89605 0
M  V30 38744 C 3633.21 -2.87657 -2.42756 0
M  V30 38745 C 3632.36 -2.49337 -1.21351 0
M  V30 38746 H 3635.31 -1.56823 -0.243351 0
M  V30 38747 H 3635.33 -2.63194 -2.74789 0
M  V30 38748 H 3634.84 -3.67416 -1.25007 0
M  V30 38749 H 3632.94 -2.05392 -3.10878 0
M  V30 38750 H 3633.06 -3.90777 -2.77183 0
M  V30 38751 H 3631.42 -2.01997 -1.55142 0
M  V30 38752 H 3632.2 -3.38296 -0.58401 0
M  V30 38753 N 3634.65 0.715001 -1.40447 0
M  V30 38754 C 3635.61 1.8108 -1.40509 0
M  V30 38755 C 3636.61 1.58 -0.298796 0
M  V30 38756 O 3637.8 1.6503 -0.557729 0
M  V30 38757 C 3634.93 3.19179 -1.19741 0
M  V30 38758 H 3636.13 1.82423 -2.38037 0
M  V30 38759 H 3633.68 0.920696 -1.26305 0
M  V30 38760 H 3634.41 3.23485 -0.229752 0
M  V30 38761 H 3634.2 3.3733 -1.99877 0
M  V30 38762 H 3635.69 3.99206 -1.22573 0
M  V30 38763 N 3636.13 1.25954 0.947281 0
M  V30 38764 C 3637.37 1.12351 1.70753 0
M  V30 38765 C 3637.73 -0.328688 1.89166 0
M  V30 38766 O 3638.93 -0.586703 2.62319 0
M  V30 38767 C 3637.2 1.86492 3.04886 0
M  V30 38768 S 3638.76 1.8887 3.96073 0
M  V30 38769 H 3635.58 0.401438 0.586829 0
M  V30 38770 H 3638.18 1.59585 1.12929 0
M  V30 38771 H 3636.88 2.91229 2.89161 0
M  V30 38772 H 3636.42 1.39674 3.6777 0
M  V30 38773 H 3638.43 0.971014 4.86606 0
M  V30 38774 N 3637.6 -1.15097 1.07659 0
M  V30 38775 C 3638.57 -2.18133 0.703597 0
M  V30 38776 C 3639.57 -1.58721 -0.257743 0
M  V30 38777 O 3640.76 -1.74158 -0.0382905 0
M  V30 38778 C 3637.89 -3.40879 0.0375578 0
M  V30 38779 H 3639.08 -2.52645 1.61587 0
M  V30 38780 H 3636.64 -1.29613 0.873507 0
M  V30 38781 H 3637.37 -3.11939 -0.886813 0
M  V30 38782 H 3637.16 -3.85263 0.729028 0
M  V30 38783 H 3638.65 -4.17078 -0.20864 0
M  V30 38784 N 3639.08 -0.861145 -1.31993 0
M  V30 38785 C 3640.31 -0.481048 -2.01744 0
M  V30 38786 C 3640.73 0.916498 -1.64262 0
M  V30 38787 O 3640.09 1.60318 -0.846631 0
M  V30 38788 C 3640.14 -0.635196 -3.54961 0
M  V30 38789 O 3639.24 0.329265 -4.11083 0
M  V30 38790 H 3638.58 -0.192463 -0.635495 0
M  V30 38791 H 3641.11 -1.16213 -1.68392 0
M  V30 38792 H 3641.12 -0.52516 -4.04606 0
M  V30 38793 H 3639.8 -1.65428 -3.81584 0
M  V30 38794 H 3638.38 0.174924 -3.72489 0
M  V30 38795 N 3640.56 1.44905 -0.619713 0
M  V30 38796 C 3641.97 1.85589 -0.203342 0
M  V30 38797 C 3642.32 1.51833 1.24263 0
M  V30 38798 O 3641.45 0.950853 1.94391 0
M  V30 38799 C 3642.04 3.36858 -0.362263 0
M  V30 38800 C 3640.6 3.764 -0.000489737 0
M  V30 38801 C 3639.75 2.68807 -0.681026 0
M  V30 38802 H 3642.7 1.35533 -0.825618 0
M  V30 38803 H 3642.72 3.7837 0.402083 0
M  V30 38804 H 3642.23 3.61395 -1.41475 0
M  V30 38805 H 3640.33 3.57479 1.0507 0
M  V30 38806 H 3640.45 4.77405 -0.402592 0
M  V30 38807 H 3638.81 2.54429 -0.117452 0
M  V30 38808 H 3639.59 2.96179 -1.73588 0
M  V30 38809 N 3642.04 0.359579 1.53443 0
M  V30 38810 C 3643.26 -0.23554 2.06058 0
M  V30 38811 C 3643.69 -1.42158 1.23177 0
M  V30 38812 O 3643.05 -1.79577 0.24937 0
M  V30 38813 C 3643.09 -0.612963 3.55352 0
M  V30 38814 O 3642.2 -1.71098 3.75232 0
M  V30 38815 H 3641.54 -0.035715 0.663039 0
M  V30 38816 H 3644.07 0.518443 1.97923 0
M  V30 38817 H 3644.08 -0.885652 3.98272 0
M  V30 38818 H 3642.75 0.254316 4.15122 0
M  V30 38819 H 3641.33 -1.43431 3.44212 0
M  V30 38820 N 3643.52 -1.57351 0.0885919 0
M  V30 38821 C 3644.93 -1.57333 -0.26806 0
M  V30 38822 C 3645.13 -1.09927 -1.68873 0
M  V30 38823 O 3644.19 -0.772771 -2.40384 0
M  V30 38824 C 3645.5 -3.00635 -0.0624125 0
M  V30 38825 C 3647.05 -3.12727 -0.130662 0
M  V30 38826 C 3647.52 -4.57976 0.046911 0
M  V30 38827 N 3649.02 -4.63199 -0.00813951 0
M  V30 38828 C 3649.75 -5.73305 0.104598 0
M  V30 38829 N 3649.25 -6.92267 0.271804 0
M  V30 38830 N 3651.04 -5.62081 0.0463321 0
M  V30 38831 H 3643.19 -1.86476 1.01689 0
M  V30 38832 H 3645.45 -0.860413 0.397986 0
M  V30 38833 H 3645.16 -3.39493 0.918564 0
M  V30 38834 H 3645.03 -3.68454 -0.807537 0
M  V30 38835 H 3647.42 -2.73746 -1.10214 0
M  V30 38836 H 3647.5 -2.47513 0.645845 0
M  V30 38837 H 3647.15 -4.9765 1.01523 0
M  V30 38838 H 3647.08 -5.21243 -0.749209 0
M  V30 38839 H 3649.57 -3.77658 -0.135098 0
M  V30 38840 H 3649.88 -7.72009 0.349517 0
M  V30 38841 H 3648.22 -6.9432 0.307387 0
M  V30 38842 H 3651.42 -4.68026 -0.0831173 0
M  V30 38843 H 3651.59 -6.47854 0.137643 0
M  V30 38844 N 3644.99 0.185069 -1.5651 0
M  V30 38845 C 3645.94 1.23362 -1.91744 0
M  V30 38846 C 3646.93 1.40496 -0.784207 0
M  V30 38847 O 3648.12 1.42697 -1.04721 0
M  V30 38848 C 3645.25 2.5762 -2.26907 0
M  V30 38849 C 3644.34 2.44238 -3.46711 0
M  V30 38850 N 3644.73 2.0055 -4.64342 0
M  V30 38851 C 3643.02 2.75103 -3.51047 0
M  V30 38852 C 3643.73 1.993 -5.46493 0
M  V30 38853 N 3642.7 2.41184 -4.87166 0
M  V30 38854 H 3646.5 0.887329 -2.80185 0
M  V30 38855 H 3644.02 0.39344 -1.57562 0
M  V30 38856 H 3646.01 3.33371 -2.50338 0
M  V30 38857 H 3644.67 2.93064 -1.39798 0
M  V30 38858 H 3645.69 1.71101 -4.8882 0
M  V30 38859 H 3642.36 3.14677 -2.7438 0
M  V30 38860 H 3643.75 1.67338 -6.50729 0
M  V30 38861 N 3646.47 1.50945 0.453144 0
M  V30 38862 C 3647.72 1.62508 1.20149 0
M  V30 38863 C 3648.04 0.335961 1.92084 0
M  V30 38864 O 3647.31 -0.647477 1.84891 0
M  V30 38865 H 3645.89 0.598878 0.446491 0
M  V30 38866 H 3648.55 1.87805 0.52107 0
M  V30 38867 H 3647.65 2.44506 1.93967 0
M  V30 38868 N 3647.95 -0.707543 1.40825 0
M  V30 38869 C 3649.37 -1.01664 1.23031 0
M  V30 38870 C 3649.57 -2.01193 0.111188 0
M  V30 38871 O 3648.62 -2.46911 -0.528317 0
M  V30 38872 C 3649.94 -1.55268 2.57512 0
M  V30 38873 C 3651.48 -1.67212 2.64593 0
M  V30 38874 C 3651.96 -2.2422 3.99361 0
M  V30 38875 N 3653.45 -2.31596 4.01145 0
M  V30 38876 C 3654.18 -2.76706 5.02216 0
M  V30 38877 N 3653.68 -3.2151 6.1368 0
M  V30 38878 N 3655.47 -2.76163 4.89582 0
M  V30 38879 H 3647.62 -0.0479734 2.12346 0
M  V30 38880 H 3649.89 -0.0838719 0.944283 0
M  V30 38881 H 3649.59 -0.895953 3.40096 0
M  V30 38882 H 3649.47 -2.53669 2.79163 0
M  V30 38883 H 3651.85 -2.31999 1.82375 0
M  V30 38884 H 3651.94 -0.673884 2.46764 0
M  V30 38885 H 3651.58 -1.60052 4.82023 0
M  V30 38886 H 3651.51 -3.24773 4.14524 0
M  V30 38887 H 3654 -1.99962 3.20661 0
M  V30 38888 H 3654.31 -3.54522 6.86683 0
M  V30 38889 H 3652.66 -3.19449 6.17234 0
M  V30 38890 H 3655.85 -2.40502 4.01592 0
M  V30 38891 H 3656.02 -3.11002 5.68491 0
M  V30 38892 N 3649.43 -1.26454 -0.940588 0
M  V30 38893 C 3650.84 -1.0358 -1.21422 0
M  V30 38894 C 3651.04 0.23869 -2.00081 0
M  V30 38895 O 3650.1 0.947668 -2.34042 0
M  V30 38896 C 3651.41 -2.26754 -1.97492 0
M  V30 38897 C 3652.96 -2.31661 -2.10481 0
M  V30 38898 C 3653.44 -3.5453 -2.89953 0
M  V30 38899 N 3654.93 -3.5501 -2.97526 0
M  V30 38900 C 3655.66 -4.46749 -3.59448 0
M  V30 38901 N 3655.16 -5.48776 -4.22867 0
M  V30 38902 N 3656.95 -4.34399 -3.56727 0
M  V30 38903 H 3649.1 -2.08311 -0.414752 0
M  V30 38904 H 3651.37 -0.915518 -0.246031 0
M  V30 38905 H 3651.07 -3.19458 -1.47103 0
M  V30 38906 H 3650.95 -2.31048 -2.98155 0
M  V30 38907 H 3653.33 -1.39471 -2.60061 0
M  V30 38908 H 3653.41 -2.31377 -1.09078 0
M  V30 38909 H 3653.06 -4.47049 -2.41059 0
M  V30 38910 H 3652.99 -3.52061 -3.91613 0
M  V30 38911 H 3655.48 -2.81215 -2.52441 0
M  V30 38912 H 3655.79 -6.14965 -4.68015 0
M  V30 38913 H 3654.14 -5.52633 -4.21452 0
M  V30 38914 H 3657.33 -3.53909 -3.06375 0
M  V30 38915 H 3657.5 -5.06088 -4.04697 0
M  V30 38916 N 3650.91 1.14525 -1.08268 0
M  V30 38917 C 3651.84 2.21696 -0.733007 0
M  V30 38918 C 3652.82 1.67714 0.283888 0
M  V30 38919 O 3654 1.93584 0.154573 0
M  V30 38920 C 3651.13 3.47018 -0.139996 0
M  V30 38921 C 3650.09 4.14017 -1.08508 0
M  V30 38922 C 3649.41 5.33525 -0.354357 0
M  V30 38923 C 3650.71 4.62716 -2.42262 0
M  V30 38924 H 3652.41 2.51202 -1.62905 0
M  V30 38925 H 3649.95 1.2074 -0.784717 0
M  V30 38926 H 3651.91 4.21239 0.116626 0
M  V30 38927 H 3650.63 3.16872 0.791173 0
M  V30 38928 H 3649.29 3.41749 -1.32678 0
M  V30 38929 H 3648.94 4.99638 0.58057 0
M  V30 38930 H 3648.64 5.79296 -0.984389 0
M  V30 38931 H 3650.16 6.10508 -0.105755 0
M  V30 38932 H 3651.57 5.28418 -2.22366 0
M  V30 38933 H 3649.97 5.19184 -3.00944 0
M  V30 38934 H 3651.04 3.77861 -3.0389 0
M  V30 38935 N 3652.39 0.868133 1.31534 0
M  V30 38936 C 3653.8 0.530969 1.78991 0
M  V30 38937 C 3654.15 -0.952016 1.71555 0
M  V30 38938 O 3653.27 -1.74324 1.2822 0
M  V30 38939 C 3653.87 0.957038 3.25002 0
M  V30 38940 C 3652.43 0.67156 3.70361 0
M  V30 38941 C 3651.57 1.14937 2.52359 0
M  V30 38942 H 3654.52 1.05403 1.18642 0
M  V30 38943 H 3654.55 0.278949 3.79476 0
M  V30 38944 H 3654.06 2.03641 3.30382 0
M  V30 38945 H 3652.16 -0.396525 3.70484 0
M  V30 38946 H 3652.27 1.2473 4.62579 0
M  V30 38947 H 3650.64 0.569188 2.48259 0
M  V30 38948 H 3651.42 2.23612 2.60485 0
M  V30 38949 N 3653.86 -1.44574 0.627389 0
M  V30 38950 C 3654.81 -2.32418 -0.092008 0
M  V30 38951 C 3655.81 -1.47129 -0.839607 0
M  V30 38952 O 3657.01 -1.63496 -0.75293 0
M  V30 38953 H 3653.39 -0.750433 -0.0485204 0
M  V30 38954 H 3655.36 -2.9085 0.66701 0
M  V30 38955 C 3654.11 -3.31066 -1.06256 0
M  V30 38956 H 3653.43 -3.96702 -0.49673 0
M  V30 38957 H 3654.87 -3.9522 -1.53549 0
M  V30 38958 C 3653.33 -2.59711 -2.14597 0
M  V30 38959 O 3653.86 -2.39323 -3.22626 0
M  V30 38960 N 3652.06 -2.19513 -1.90427 0
M  V30 38961 H 3651.61 -2.36295 -1.02579 0
M  V30 38962 H 3651.57 -1.72096 -2.63116 0
M  V30 38963 N 3655.34 -0.367711 -1.5325 0
M  V30 38964 C 3656.59 0.220878 -2.00889 0
M  V30 38965 C 3656.91 1.49108 -1.25665 0
M  V30 38966 O 3656.18 1.92364 -0.370525 0
M  V30 38967 H 3654.76 0.0846102 -0.742193 0
M  V30 38968 H 3657.42 -0.494435 -1.88524 0
M  V30 38969 H 3656.52 0.44636 -3.08892 0
M  V30 38970 N 3656.82 1.57302 -0.0969353 0
M  V30 38971 C 3658.05 1.98471 0.573837 0
M  V30 38972 C 3658.46 0.974923 1.62148 0
M  V30 38973 O 3657.8 -0.043455 1.83649 0
M  V30 38974 C 3657.86 3.36015 1.27804 0
M  V30 38975 C 3657.53 4.5541 0.380942 0
M  V30 38976 C 3658.52 5.1857 -0.371651 0
M  V30 38977 C 3656.21 5.01413 0.298461 0
M  V30 38978 C 3658.2 6.26104 -1.19468 0
M  V30 38979 C 3655.89 6.08813 -0.528223 0
M  V30 38980 C 3656.89 6.71023 -1.27344 0
M  V30 38981 O 3656.58 7.76352 -2.08644 0
M  V30 38982 H 3656.31 0.65719 0.158358 0
M  V30 38983 H 3658.86 2.04666 -0.173451 0
M  V30 38984 H 3657.09 3.26508 2.07194 0
M  V30 38985 H 3658.78 3.6162 1.84353 0
M  V30 38986 H 3659.55 4.83959 -0.317671 0
M  V30 38987 H 3655.43 4.52751 0.868167 0
M  V30 38988 H 3658.97 6.74592 -1.77685 0
M  V30 38989 H 3654.87 6.42856 -0.583676 0
M  V30 38990 H 3655.63 7.93348 -2.01347 0
M  V30 38991 N 3658.3 -0.176766 1.56606 0
M  V30 38992 C 3659.53 -0.908667 1.85545 0
M  V30 38993 C 3659.94 -1.76574 0.679585 0
M  V30 38994 O 3659.28 -1.80125 -0.360636 0
M  V30 38995 C 3659.34 -1.84029 3.08826 0
M  V30 38996 C 3659 -1.16336 4.41944 0
M  V30 38997 C 3660 -0.531435 5.17177 0
M  V30 38998 C 3657.69 -1.16174 4.88681 0
M  V30 38999 C 3659.68 0.0930721 6.37332 0
M  V30 39000 C 3657.37 -0.533407 6.08768 0
M  V30 39001 C 3658.37 0.0929012 6.82937 0
M  V30 39002 O 3658.05 0.711343 8.00747 0
M  V30 39003 H 3657.79 -0.269706 0.619866 0
M  V30 39004 H 3660.34 -0.183378 2.0458 0
M  V30 39005 H 3658.57 -2.60575 2.85723 0
M  V30 39006 H 3660.26 -2.44155 3.24258 0
M  V30 39007 H 3661.02 -0.5247 4.82153 0
M  V30 39008 H 3656.9 -1.63863 4.30894 0
M  V30 39009 H 3660.45 0.582531 6.95164 0
M  V30 39010 H 3656.34 -0.537708 6.43257 0
M  V30 39011 H 3657.11 0.610054 8.16223 0
M  V30 39012 N 3659.78 -1.51183 -0.445132 0
M  V30 39013 C 3661.19 -1.5603 -1.02525 0
M  V30 39014 C 3661.54 -0.379121 -1.92502 0
M  V30 39015 O 3660.66 0.505019 -2.10425 0
M  V30 39016 C 3661.26 -2.82772 -1.86616 0
M  V30 39017 C 3659.82 -2.90215 -2.39692 0
M  V30 39018 C 3658.96 -2.5061 -1.187 0
M  V30 39019 H 3661.91 -1.57072 -0.226704 0
M  V30 39020 H 3661.94 -2.66094 -2.71982 0
M  V30 39021 H 3661.45 -3.68722 -1.21103 0
M  V30 39022 H 3659.55 -2.08677 -3.08682 0
M  V30 39023 H 3659.66 -3.93695 -2.73022 0
M  V30 39024 H 3658.03 -2.03632 -1.52991 0
M  V30 39025 H 3658.81 -3.38896 -0.548096 0
M  V30 39026 N 3661.25 0.700065 -1.41198 0
M  V30 39027 C 3662.22 1.79579 -1.42422 0
M  V30 39028 C 3663.22 1.57674 -0.315537 0
M  V30 39029 O 3664.41 1.6443 -0.575202 0
M  V30 39030 C 3661.54 3.17891 -1.23119 0
M  V30 39031 H 3662.73 1.79888 -2.39959 0
M  V30 39032 H 3660.28 0.907248 -1.27274 0
M  V30 39033 H 3661.02 3.23223 -0.264049 0
M  V30 39034 H 3660.8 3.35191 -2.03443 0
M  V30 39035 H 3662.29 3.97884 -1.268 0
M  V30 39036 N 3662.73 1.26951 0.933869 0
M  V30 39037 C 3663.68 1.05805 2.01964 0
M  V30 39038 C 3664.67 -0.0119585 1.60896 0
M  V30 39039 O 3665.86 0.205858 1.75799 0
M  V30 39040 C 3662.99 0.700754 3.36072 0
M  V30 39041 C 3662.07 1.80859 3.83603 0
M  V30 39042 N 3662.46 3.04719 4.03707 0
M  V30 39043 C 3660.76 1.69386 4.12583 0
M  V30 39044 C 3661.46 3.7677 4.43192 0
M  V30 39045 N 3660.44 3.04498 4.50313 0
M  V30 39046 H 3664.24 1.9981 2.1553 0
M  V30 39047 H 3661.75 1.17576 1.12025 0
M  V30 39048 H 3663.75 0.530388 4.13512 0
M  V30 39049 H 3662.41 -0.231744 3.23872 0
M  V30 39050 H 3663.42 3.40547 3.9019 0
M  V30 39051 H 3660.1 0.831767 4.09131 0
M  V30 39052 H 3661.49 4.83192 4.66878 0
M  V30 39053 N 3664.21 -1.13949 1.08873 0
M  V30 39054 C 3665.46 -1.84731 0.819697 0
M  V30 39055 C 3665.78 -1.83617 -0.656502 0
M  V30 39056 O 3665.05 -1.28793 -1.47611 0
M  V30 39057 H 3663.63 -0.684006 0.300242 0
M  V30 39058 H 3666.29 -1.38059 1.3757 0
M  V30 39059 H 3665.39 -2.89415 1.16814 0
M  V30 39060 N 3665.69 -0.875096 -1.31072 0
M  V30 39061 C 3666.62 -0.350509 -2.30854 0
M  V30 39062 C 3667.6 0.561356 -1.6057 0
M  V30 39063 O 3668.78 0.477296 -1.88243 0
M  V30 39064 C 3665.91 0.444432 -3.44445 0
M  V30 39065 C 3664.87 -0.374791 -4.26356 0
M  V30 39066 C 3664.19 0.546149 -5.31903 0
M  V30 39067 C 3665.49 -1.61162 -4.96814 0
M  V30 39068 H 3667.19 -1.18431 -2.74981 0
M  V30 39069 H 3664.73 -0.570932 -1.32198 0
M  V30 39070 H 3666.69 0.821987 -4.13305 0
M  V30 39071 H 3665.41 1.31179 -2.99098 0
M  V30 39072 H 3664.07 -0.734358 -3.5917 0
M  V30 39073 H 3663.72 1.41094 -4.82806 0
M  V30 39074 H 3663.42 0.00187844 -5.876 0
M  V30 39075 H 3664.94 0.920436 -6.03623 0
M  V30 39076 H 3666.36 -1.30521 -5.58245 0
M  V30 39077 H 3664.75 -2.09534 -5.6233 0
M  V30 39078 H 3665.82 -2.36158 -4.23506 0
M  V30 39079 N 3667.17 1.44239 -0.635047 0
M  V30 39080 C 3668.13 2.29127 0.0578974 0
M  V30 39081 C 3669.13 1.41249 0.768464 0
M  V30 39082 O 3670.32 1.63078 0.612461 0
M  V30 39083 C 3667.45 3.22916 1.0926 0
M  V30 39084 H 3668.64 2.91883 -0.688775 0
M  V30 39085 H 3666.2 1.51217 -0.395374 0
M  V30 39086 H 3666.93 2.65017 1.86912 0
M  V30 39087 H 3666.72 3.87682 0.586968 0
M  V30 39088 H 3668.21 3.86675 1.57709 0
M  V30 39089 N 3668.64 0.375833 1.53053 0
M  V30 39090 C 3670.06 0.0252045 1.5958 0
M  V30 39091 C 3670.26 -1.45834 1.3905 0
M  V30 39092 O 3669.32 -2.22121 1.20076 0
M  V30 39093 C 3670.63 0.490326 2.96675 0
M  V30 39094 C 3672.18 0.445425 3.09814 0
M  V30 39095 C 3672.65 0.88652 4.49338 0
M  V30 39096 N 3674.14 0.84199 4.55483 0
M  V30 39097 C 3674.88 1.15486 5.6165 0
M  V30 39098 N 3674.37 1.53753 6.75523 0
M  V30 39099 N 3676.17 1.07699 5.51686 0
M  V30 39100 H 3668.32 1.34181 1.64649 0
M  V30 39101 H 3670.58 0.549117 0.772771 0
M  V30 39102 H 3670.29 1.52595 3.16872 0
M  V30 39103 H 3670.16 -0.117694 3.77016 0
M  V30 39104 H 3672.55 -0.581087 2.89322 0
M  V30 39105 H 3672.63 1.08907 2.31458 0
M  V30 39106 H 3672.27 1.9112 4.7057 0
M  V30 39107 H 3672.2 0.220018 5.2614 0
M  V30 39108 H 3674.69 0.560216 3.73724 0
M  V30 39109 H 3675.01 1.76025 7.52486 0
M  V30 39110 H 3673.35 1.57627 6.76889 0
M  V30 39111 H 3676.54 0.777143 4.61604 0
M  V30 39112 H 3676.72 1.32415 6.34327 0
M  V30 39113 N 3670.12 -1.57248 0.105276 0
M  V30 39114 C 3671.53 -1.81862 -0.422272 0
M  V30 39115 C 3671.88 -1.02157 -1.67506 0
M  V30 39116 O 3671.01 -0.253998 -2.14904 0
M  V30 39117 C 3671.6 -3.29867 -0.772885 0
M  V30 39118 C 3670.16 -3.55209 -1.24513 0
M  V30 39119 C 3669.31 -2.76199 -0.246888 0
M  V30 39120 H 3672.26 -1.55218 0.330592 0
M  V30 39121 H 3672.28 -3.43746 -1.63154 0
M  V30 39122 H 3671.79 -3.87851 0.139101 0
M  V30 39123 H 3669.9 -3.02568 -2.17448 0
M  V30 39124 H 3670.01 -4.6383 -1.19993 0
M  V30 39125 H 3668.37 -2.43981 -0.731128 0
M  V30 39126 H 3669.16 -3.36936 0.657956 0
M  V30 39127 N 3671.6 0.168458 -1.56697 0
M  V30 39128 C 3673.02 0.520334 -1.5088 0
M  V30 39129 C 3673.22 1.84501 -0.810033 0
M  V30 39130 O 3672.27 2.49751 -0.371593 0
M  V30 39131 C 3673.59 0.55045 -2.95619 0
M  V30 39132 C 3675.13 0.637454 -3.0644 0
M  V30 39133 C 3675.61 0.698436 -4.52643 0
M  V30 39134 N 3677.1 0.761248 -4.56902 0
M  V30 39135 C 3677.83 0.829055 -5.67375 0
M  V30 39136 N 3677.33 0.857521 -6.87472 0
M  V30 39137 N 3679.12 0.868295 -5.55353 0
M  V30 39138 H 3671.27 -0.700122 -2.00529 0
M  V30 39139 H 3673.54 -0.252775 -0.913679 0
M  V30 39140 H 3673.24 -0.354283 -3.49911 0
M  V30 39141 H 3673.12 1.39594 -3.50419 0
M  V30 39142 H 3675.5 1.53261 -2.5218 0
M  V30 39143 H 3675.59 -0.234764 -2.5472 0
M  V30 39144 H 3675.23 -0.192477 -5.07535 0
M  V30 39145 H 3675.16 1.58684 -5.02122 0
M  V30 39146 H 3677.65 0.747417 -3.70435 0
M  V30 39147 H 3677.96 0.910513 -7.67417 0
M  V30 39148 H 3676.31 0.825751 -6.90077 0
M  V30 39149 H 3679.5 0.843077 -4.60445 0
M  V30 39150 H 3679.67 0.917676 -6.41469 0
M  V30 39151 N 3673.08 1.51417 0.437109 0
M  V30 39152 C 3674.33 1.63773 1.18418 0
M  V30 39153 C 3674.65 0.356315 1.91717 0
M  V30 39154 O 3673.92 -0.627831 1.85567 0
M  V30 39155 H 3672.5 0.60358 0.440114 0
M  V30 39156 H 3675.16 1.88348 0.501122 0
M  V30 39157 H 3674.26 2.46549 1.91363 0
M  V30 39158 N 3674.56 -0.692567 1.41567 0
M  V30 39159 C 3675.97 -1.27259 1.36609 0
M  V30 39160 C 3676.32 -1.96135 0.0506426 0
M  V30 39161 O 3675.44 -1.98963 -0.851036 0
M  V30 39162 C 3676.04 -2.3143 2.47438 0
M  V30 39163 C 3674.6 -2.85002 2.45868 0
M  V30 39164 C 3673.74 -1.59079 2.27132 0
M  V30 39165 H 3676.7 -0.487122 1.51039 0
M  V30 39166 H 3676.72 -3.12786 2.16669 0
M  V30 39167 H 3676.23 -1.81272 3.43165 0
M  V30 39168 H 3674.33 -3.39328 1.53907 0
M  V30 39169 H 3674.44 -3.35228 3.42285 0
M  V30 39170 H 3672.81 -1.84999 1.75064 0
M  V30 39171 H 3673.59 -1.10913 3.24889 0
M  V30 39172 N 3676.03 -1.27445 -0.927123 0
M  V30 39173 C 3677.28 -1.13592 -1.67157 0
M  V30 39174 C 3677.6 0.318617 -1.92379 0
M  V30 39175 O 3676.87 1.22284 -1.53047 0
M  V30 39176 H 3675.45 -0.417382 -0.619517 0
M  V30 39177 H 3678.12 -1.59981 -1.1132 0
M  V30 39178 H 3677.21 -1.66542 -2.63951 0
M  V30 39179 N 3677.51 1.1337 -1.09476 0
M  V30 39180 C 3678.74 1.89041 -0.853126 0
M  V30 39181 C 3679.16 1.78606 0.590044 0
M  V30 39182 O 3678.52 1.13396 1.4146 0
M  V30 39183 C 3678.57 3.36596 -1.29365 0
M  V30 39184 O 3677.67 4.09911 -0.452428 0
M  V30 39185 H 3677.01 0.587756 -0.308932 0
M  V30 39186 H 3679.54 1.43435 -1.45903 0
M  V30 39187 H 3679.55 3.87426 -1.27928 0
M  V30 39188 H 3678.23 3.43509 -2.34466 0
M  V30 39189 H 3676.81 3.69098 -0.531163 0
M  V30 39190 N 3678.99 0.882035 1.30606 0
M  V30 39191 C 3680.41 0.575626 1.48858 0
M  V30 39192 C 3680.61 -0.887356 1.80909 0
M  V30 39193 O 3679.66 -1.66877 1.89495 0
M  V30 39194 C 3680.98 1.48624 2.61403 0
M  V30 39195 C 3682.52 1.48956 2.75284 0
M  V30 39196 C 3683 2.38603 3.90938 0
M  V30 39197 N 3684.49 2.3655 3.98244 0
M  V30 39198 C 3685.22 3.02628 4.87035 0
M  V30 39199 N 3684.72 3.77921 5.80644 0
M  V30 39200 N 3686.51 2.91875 4.8038 0
M  V30 39201 H 3678.66 1.82849 1.08073 0
M  V30 39202 H 3680.93 0.782518 0.535135 0
M  V30 39203 H 3680.63 2.5278 2.44531 0
M  V30 39204 H 3680.51 1.19364 3.57816 0
M  V30 39205 H 3682.89 0.455528 2.91563 0
M  V30 39206 H 3682.98 1.82245 1.79501 0
M  V30 39207 H 3682.62 3.42089 3.75416 0
M  V30 39208 H 3682.55 2.02632 4.86053 0
M  V30 39209 H 3685.04 1.81832 3.31278 0
M  V30 39210 H 3685.35 4.2544 6.45152 0
M  V30 39211 H 3683.7 3.82029 5.80585 0
M  V30 39212 H 3686.89 2.32583 4.0623 0
M  V30 39213 H 3687.06 3.4365 5.49371 0
M  V30 39214 N 3680.47 -1.439 0.642688 0
M  V30 39215 C 3681.42 -2.30734 -0.0552946 0
M  V30 39216 C 3682.39 -1.44148 -0.82526 0
M  V30 39217 O 3683.57 -1.73034 -0.803982 0
M  V30 39218 C 3680.71 -3.29589 -1.02301 0
M  V30 39219 C 3679.82 -4.31275 -0.250247 0
M  V30 39220 C 3678.96 -5.17216 -1.21081 0
M  V30 39221 C 3678 -6.10603 -0.427876 0
M  V30 39222 N 3677.13 -6.89204 -1.33949 0
M  V30 39223 H 3681.97 -2.89876 0.691089 0
M  V30 39224 H 3679.51 -1.42812 0.352575 0
M  V30 39225 H 3681.47 -3.85401 -1.59756 0
M  V30 39226 H 3680.1 -2.7212 -1.73638 0
M  V30 39227 H 3679.15 -3.77842 0.440426 0
M  V30 39228 H 3680.46 -4.97506 0.359024 0
M  V30 39229 H 3679.62 -5.77603 -1.85634 0
M  V30 39230 H 3678.36 -4.51086 -1.854 0
M  V30 39231 H 3677.36 -5.49314 0.231067 0
M  V30 39232 H 3678.59 -6.78773 0.210758 0
M  V30 39233 H 3676.53 -6.25731 -1.96967 0
M  V30 39234 H 3676.45 -7.51918 -0.784523 0
M  V30 39235 H 3677.72 -7.54104 -1.97349 0
M  V30 39236 N 3681.95 -0.383945 -1.52852 0
M  V30 39237 C 3683.2 0.199559 -2.01112 0
M  V30 39238 C 3683.52 1.47767 -1.2724 0
M  V30 39239 O 3682.79 1.9196 -0.390907 0
M  V30 39240 H 3681.37 0.0767335 -0.743048 0
M  V30 39241 H 3684.03 -0.514403 -1.87989 0
M  V30 39242 H 3683.12 0.413573 -3.09348 0
M  V30 39243 N 3683.43 1.5719 -0.113614 0
M  V30 39244 C 3684.36 2.18047 0.835325 0
M  V30 39245 C 3685.34 1.11899 1.28112 0
M  V30 39246 O 3686.52 1.40113 1.34469 0
M  V30 39247 C 3683.65 2.77559 2.08754 0
M  V30 39248 C 3682.61 3.89243 1.77972 0
M  V30 39249 C 3681.93 4.35539 3.10178 0
M  V30 39250 C 3683.23 5.11591 1.05222 0
M  V30 39251 H 3684.93 2.97595 0.328222 0
M  V30 39252 H 3682.47 1.43148 0.156431 0
M  V30 39253 H 3684.42 3.1879 2.75592 0
M  V30 39254 H 3683.15 1.95293 2.61779 0
M  V30 39255 H 3681.81 3.48579 1.13526 0
M  V30 39256 H 3681.46 3.50138 3.61127 0
M  V30 39257 H 3681.16 5.10848 2.90358 0
M  V30 39258 H 3682.68 4.79417 3.78143 0
M  V30 39259 H 3684.09 5.49875 1.62204 0
M  V30 39260 H 3682.49 5.9245 0.955165 0
M  V30 39261 H 3683.56 4.84885 0.0380518 0
M  V30 39262 N 3684.9 -0.160146 1.56784 0
M  V30 39263 C 3685.85 -1.20296 1.93682 0
M  V30 39264 C 3686.84 -1.3923 0.806459 0
M  V30 39265 O 3688.03 -1.41013 1.06978 0
M  V30 39266 C 3685.16 -2.53978 2.30977 0
M  V30 39267 C 3684.24 -2.38691 3.50553 0
M  V30 39268 N 3684.64 -1.93137 4.67474 0
M  V30 39269 C 3682.93 -2.69484 3.55379 0
M  V30 39270 C 3683.63 -1.90581 5.49594 0
M  V30 39271 N 3682.61 -2.33404 4.90942 0
M  V30 39272 H 3686.41 -0.842641 2.81561 0
M  V30 39273 H 3683.93 -0.368324 1.58168 0
M  V30 39274 H 3685.92 -3.29346 2.5561 0
M  V30 39275 H 3684.58 -2.90803 1.44442 0
M  V30 39276 H 3685.59 -1.63303 4.9148 0
M  V30 39277 H 3682.27 -3.10272 2.79352 0
M  V30 39278 H 3683.66 -1.56964 6.53308 0
M  V30 39279 N 3686.38 -1.51647 -0.429072 0
M  V30 39280 C 3687.29 -1.76415 -1.54645 0
M  V30 39281 C 3688.31 -0.648731 -1.61454 0
M  V30 39282 O 3689.48 -0.931919 -1.78542 0
M  V30 39283 C 3686.55 -1.89147 -2.90559 0
M  V30 39284 C 3685.61 -3.13019 -2.93799 0
M  V30 39285 C 3684.84 -3.25134 -4.2323 0
M  V30 39286 O 3685.07 -2.42988 -5.16055 0
M  V30 39287 O 3684 -4.18165 -4.32922 0
M  V30 39288 H 3687.83 -2.71217 -1.36657 0
M  V30 39289 H 3685.41 -1.36248 -0.612922 0
M  V30 39290 H 3687.29 -1.99459 -3.71206 0
M  V30 39291 H 3685.97 -0.975326 -3.08657 0
M  V30 39292 H 3684.87 -3.08179 -2.12076 0
M  V30 39293 H 3686.21 -4.04349 -2.80647 0
M  V30 39294 N 3687.86 0.685049 -1.41932 0
M  V30 39295 C 3689.27 1.26533 -1.37282 0
M  V30 39296 C 3689.62 1.96105 -0.0610434 0
M  V30 39297 O 3688.75 1.99412 0.840473 0
M  V30 39298 C 3689.34 2.30115 -2.48662 0
M  V30 39299 C 3687.9 2.83694 -2.47376 0
M  V30 39300 C 3687.05 1.57872 -2.27973 0
M  V30 39301 H 3690 0.479105 -1.51295 0
M  V30 39302 H 3690.02 3.11632 -2.18325 0
M  V30 39303 H 3689.53 1.7945 -3.44121 0
M  V30 39304 H 3687.63 3.38507 -1.55705 0
M  V30 39305 H 3687.75 3.33408 -3.44058 0
M  V30 39306 H 3686.11 1.84068 -1.76043 0
M  V30 39307 H 3686.89 1.09189 -3.25473 0
M  V30 39308 N 3689.34 1.27935 0.920351 0
M  V30 39309 C 3690.57 1.17366 1.70026 0
M  V30 39310 C 3690.98 -0.271181 1.87246 0
M  V30 39311 O 3690.32 -1.19578 1.39452 0
M  V30 39312 C 3690.38 1.79306 3.11592 0
M  V30 39313 C 3690.04 3.28523 3.17681 0
M  V30 39314 C 3691.04 4.25053 2.99375 0
M  V30 39315 C 3688.73 3.69363 3.40406 0
M  V30 39316 C 3690.72 5.604 3.03695 0
M  V30 39317 C 3688.41 5.04838 3.44358 0
M  V30 39318 C 3689.41 6.00166 3.26021 0
M  V30 39319 O 3689.09 7.3317 3.29722 0
M  V30 39320 H 3688.83 0.408661 0.53849 0
M  V30 39321 H 3691.38 1.69452 1.16083 0
M  V30 39322 H 3689.61 1.21707 3.67048 0
M  V30 39323 H 3691.3 1.63348 3.71581 0
M  V30 39324 H 3692.06 3.94838 2.81653 0
M  V30 39325 H 3687.94 2.95633 3.53726 0
M  V30 39326 H 3691.49 6.34784 2.893 0
M  V30 39327 H 3687.38 5.34707 3.61606 0
M  V30 39328 H 3688.15 7.41713 3.46128 0
M  V30 39329 N 3690.82 -1.12788 1.10076 0
M  V30 39330 C 3692.04 -1.88586 0.863139 0
M  V30 39331 C 3692.47 -1.78916 -0.580564 0
M  V30 39332 O 3691.82 -1.14145 -1.40857 0
M  V30 39333 C 3691.87 -3.35906 1.31148 0
M  V30 39334 O 3690.98 -4.09665 0.47416 0
M  V30 39335 H 3690.32 -0.586109 0.312045 0
M  V30 39336 H 3692.85 -1.42659 1.46661 0
M  V30 39337 H 3692.86 -3.86742 1.2998 0
M  V30 39338 H 3691.53 -3.42261 2.36285 0
M  V30 39339 H 3690.11 -3.68811 0.55073 0
M  V30 39340 N 3692.29 -0.888949 -1.30136 0
M  V30 39341 C 3693.2 -0.362841 -2.31777 0
M  V30 39342 C 3694.22 0.536951 -1.65508 0
M  V30 39343 O 3695.4 0.429117 -1.96775 0
M  V30 39344 C 3692.46 0.410612 -3.4426 0
M  V30 39345 C 3691.52 -0.519409 -4.26146 0
M  V30 39346 C 3690.75 0.217226 -5.33258 0
M  V30 39347 O 3690.98 1.44274 -5.51852 0
M  V30 39348 O 3689.91 -0.434716 -6.00328 0
M  V30 39349 H 3693.74 -1.2058 -2.78737 0
M  V30 39350 H 3691.32 -0.652913 -1.34378 0
M  V30 39351 H 3693.2 0.848395 -4.12771 0
M  V30 39352 H 3691.88 1.22981 -2.99428 0
M  V30 39353 H 3690.79 -1.00608 -3.60318 0
M  V30 39354 H 3692.12 -1.30472 -4.74592 0
M  V30 39355 N 3693.77 1.43557 -0.65031 0
M  V30 39356 C 3695 2.06714 -0.16852 0
M  V30 39357 C 3695.42 1.48406 1.15573 0
M  V30 39358 O 3694.78 0.592872 1.71332 0
M  V30 39359 C 3694.83 3.60493 -0.0877728 0
M  V30 39360 O 3693.93 4.01289 0.950844 0
M  V30 39361 H 3693.27 0.657378 -0.0935397 0
M  V30 39362 H 3695.8 1.84112 -0.892413 0
M  V30 39363 H 3695.81 4.07886 0.0965108 0
M  V30 39364 H 3694.49 4.0231 -1.05449 0
M  V30 39365 H 3693.06 3.65492 0.739584 0
M  V30 39366 N 3695.25 0.392045 1.52646 0
M  V30 39367 C 3696.53 -0.24697 1.94035 0
M  V30 39368 C 3696.91 -1.6412 1.3277 0
M  V30 39369 O 3696.25 -2.23033 0.496861 0
M  V30 39370 C 3696.46 -0.270554 3.4795 0
M  V30 39371 C 3697.81 -0.498182 4.21667 0
M  V30 39372 O 3698.84 -0.350646 3.5447 0
M  V30 39373 O 3697.7 -0.787491 5.40796 0
M  V30 39374 H 3694.79 -0.154237 0.81249 0
M  V30 39375 H 3697.34 0.446752 1.63714 0
M  V30 39376 H 3696.11 0.70593 3.8488 0
M  V30 39377 H 3695.73 -1.00908 3.84582 0
M  V30 39378 N 3696.73 -1.57127 0.121948 0
M  V30 39379 C 3698.01 -1.86832 -0.579054 0
M  V30 39380 C 3698.39 -1.02363 -1.84621 0
M  V30 39381 O 3697.73 -0.103366 -2.28266 0
M  V30 39382 C 3697.94 -3.38017 -0.86866 0
M  V30 39383 C 3699.29 -4.06682 -1.22043 0
M  V30 39384 O 3700.32 -3.43052 -0.958828 0
M  V30 39385 O 3699.17 -5.19007 -1.71155 0
M  V30 39386 H 3696.27 -0.773536 -0.292526 0
M  V30 39387 H 3698.81 -1.68975 0.156674 0
M  V30 39388 H 3697.59 -3.91289 0.0291744 0
M  V30 39389 H 3697.21 -3.61315 -1.65944 0
M  V30 39390 N 3698.21 0.151829 -1.56867 0
M  V30 39391 C 3699.48 0.893663 -1.73991 0
M  V30 39392 C 3699.86 1.99551 -0.688663 0
M  V30 39393 O 3699.21 2.2661 0.293249 0
M  V30 39394 C 3699.42 1.44055 -3.17882 0
M  V30 39395 C 3700.77 1.90585 -3.79424 0
M  V30 39396 O 3701.79 1.53807 -3.21281 0
M  V30 39397 O 3700.65 2.58396 -4.81554 0
M  V30 39398 H 3697.75 0.421986 -0.711236 0
M  V30 39399 H 3700.29 0.138132 -1.69137 0
M  V30 39400 H 3699.06 0.648461 -3.85889 0
M  V30 39401 H 3698.69 2.25972 -3.27143 0
M  V30 39402 N 3699.68 1.51872 0.421024 0
M  V30 39403 C 3700.93 1.66549 1.1676 0
M  V30 39404 C 3701.29 0.384813 1.88512 0
M  V30 39405 O 3700.58 -0.620205 1.81284 0
M  V30 39406 C 3700.77 2.8181 2.19814 0
M  V30 39407 C 3700.6 4.20963 1.58178 0
M  V30 39408 C 3699.37 4.86664 1.35963 0
M  V30 39409 C 3701.57 5.03486 1.04912 0
M  V30 39410 N 3699.55 6.09885 0.700963 0
M  V30 39411 C 3700.92 6.17843 0.516675 0
M  V30 39412 C 3702.98 4.88899 0.942438 0
M  V30 39413 C 3701.68 7.19213 -0.11198 0
M  V30 39414 C 3703.71 5.90492 0.327654 0
M  V30 39415 C 3703.07 7.04132 -0.194168 0
M  V30 39416 H 3699.17 0.663204 0.414348 0
M  V30 39417 H 3701.75 1.89146 0.461732 0
M  V30 39418 H 3699.92 2.60849 2.87771 0
M  V30 39419 H 3701.65 2.85584 2.86747 0
M  V30 39420 H 3698.41 4.44817 1.62588 0
M  V30 39421 H 3698.83 6.75884 0.388598 0
M  V30 39422 H 3703.48 4.01279 1.33172 0
M  V30 39423 H 3701.19 8.06468 -0.513351 0
M  V30 39424 H 3704.78 5.81276 0.246792 0
M  V30 39425 H 3703.66 7.81397 -0.662396 0
M  V30 39426 N 3701.16 -0.677513 1.42294 0
M  V30 39427 C 3702.4 -1.44962 1.44102 0
M  V30 39428 C 3702.77 -1.91922 0.0545612 0
M  V30 39429 O 3703.97 -2.68748 -0.0526246 0
M  V30 39430 C 3702.24 -2.61647 2.43466 0
M  V30 39431 S 3703.8 -3.50534 2.63954 0
M  V30 39432 H 3700.62 -0.495144 0.510249 0
M  V30 39433 H 3703.22 -0.788907 1.78876 0
M  V30 39434 H 3701.92 -2.25381 3.42975 0
M  V30 39435 H 3701.45 -3.32593 2.10108 0
M  V30 39436 H 3703.47 -4.57527 1.9205 0
M  V30 39437 O 3702.68 -1.39132 -0.820027 0
M  V30 39438 H 3703.37 -1.26879 -1.46361 0
M  V30 END ATOM
M  V30 BEGIN BOND
M  V30 END BOND
M  V30 END CTAB
M  END
$$$$
