drugbank_target|O75493 Carbonic anhydrase-related protein 11 (DB00909)
 OpenBabel12092120363D

  0  0  0     0  0            999 V3000
M  V30 BEGIN CTAB
M  V30 COUNTS 5110 5184 0 0 0
M  V30 BEGIN ATOM
M  V30 1 H -0.908 1.98254 -0.117106 0
M  V30 2 N 0 1.576 0 0
M  V30 3 C 0.933 2.03868 1.02534 0
M  V30 4 C 1.911 0.928543 1.3348 0
M  V30 5 O 3.095 1.19667 1.45644 0
M  V30 6 C 0.222 2.43627 2.35294 0
M  V30 7 C -0.732 3.65373 2.2001 0
M  V30 8 S 0.101 5.13292 1.52614 0
M  V30 9 C 1.257 5.56322 2.86805 0
M  V30 10 H 1.49 2.90518 0.631377 0
M  V30 11 H -0.977 1.52953 0.210867 0
M  V30 12 H 0.981 2.67203 3.11629 0
M  V30 13 H -0.358 1.57376 2.7183 0
M  V30 14 H -1.165 3.90944 3.18086 0
M  V30 15 H -1.563 3.418 1.51819 0
M  V30 16 H 0.729 5.58782 3.83104 0
M  V30 17 H 1.672 6.56266 2.65933 0
M  V30 18 H 2.08 4.83886 2.90714 0
M  V30 19 N 1.4781 -0.272755 1.55222 0
M  V30 20 C 2.7261 -1.00234 1.75492 0
M  V30 21 C 3.0471 -1.8681 0.5592 0
M  V30 22 O 2.3171 -1.91215 -0.425882 0
M  V30 23 H 0.8971 -0.373076 0.647166 0
M  V30 24 H 3.5591 -0.296926 1.92625 0
M  V30 25 H 2.6551 -1.63913 2.65592 0
M  V30 26 N 2.9562 -1.48159 -0.537278 0
M  V30 27 C 3.9192 -1.61665 -1.62472 0
M  V30 28 C 4.9192 -0.490395 -1.5314 0
M  V30 29 O 6.1092 -0.755998 -1.5694 0
M  V30 30 C 3.2412 -1.57997 -3.02076 0
M  V30 31 H 4.4342 -2.58621 -1.51839 0
M  V30 32 H 1.9872 -1.36647 -0.758771 0
M  V30 33 H 2.7222 -0.624913 -3.18222 0
M  V30 34 H 2.5072 -2.39755 -3.10258 0
M  V30 35 H 3.9972 -1.70627 -3.81151 0
M  V30 36 N 4.4343 0.785586 -1.36625 0
M  V30 37 C 5.3973 1.87999 -1.31107 0
M  V30 38 C 6.3973 1.59316 -0.217959 0
M  V30 39 O 7.5873 1.67656 -0.472977 0
M  V30 40 C 4.7193 3.24861 -1.03334 0
M  V30 41 H 5.9123 1.94307 -2.2844 0
M  V30 42 H 3.4653 0.983813 -1.21453 0
M  V30 43 H 4.2003 3.24235 -0.0647432 0
M  V30 44 H 3.9853 3.4707 -1.82441 0
M  V30 45 H 5.4753 4.04929 -1.02088 0
M  V30 46 N 5.9124 1.20967 1.01018 0
M  V30 47 C 6.8754 0.965918 2.07853 0
M  V30 48 C 7.8754 -0.0610545 1.60684 0
M  V30 49 O 9.0654 0.175681 1.73312 0
M  V30 50 C 6.1974 0.455513 3.37843 0
M  V30 51 H 7.3904 1.91365 2.3091 0
M  V30 52 H 4.9434 1.02594 1.17916 0
M  V30 53 H 5.6784 -0.497381 3.20463 0
M  V30 54 H 5.4634 1.19622 3.73407 0
M  V30 55 H 6.9534 0.304667 4.16487 0
M  V30 56 N 7.3905 -1.2043 1.01659 0
M  V30 57 C 8.8065 -1.41852 0.731442 0
M  V30 58 C 9.0065 -1.89358 -0.688898 0
M  V30 59 O 8.0625 -2.06247 -1.45666 0
M  V30 60 C 9.3755 -2.44019 1.75714 0
M  V30 61 C 10.9235 -2.57785 1.77527 0
M  V30 62 C 11.3985 -3.63194 2.79023 0
M  V30 63 N 12.8895 -3.70678 2.77763 0
M  V30 64 C 13.6245 -4.51897 3.52954 0
M  V30 65 N 13.1205 -5.36921 4.37821 0
M  V30 66 N 14.9135 -4.4643 3.41551 0
M  V30 67 H 7.0645 -0.879093 1.93354 0
M  V30 68 H 9.3275 -0.448425 0.835236 0
M  V30 69 H 9.0335 -2.1611 2.77469 0
M  V30 70 H 8.9075 -3.43007 1.56927 0
M  V30 71 H 11.2945 -2.85023 0.764569 0
M  V30 72 H 11.3755 -1.58992 2.00387 0
M  V30 73 H 11.0195 -3.36699 3.80258 0
M  V30 74 H 10.9495 -4.61609 2.53425 0
M  V30 75 H 13.4405 -3.09944 2.16201 0
M  V30 76 H 13.7535 -5.95981 4.91962 0
M  V30 77 H 12.0985 -5.36424 4.41899 0
M  V30 78 H 15.2895 -3.79042 2.74672 0
M  V30 79 H 15.4625 -5.09491 4.00404 0
M  V30 80 N 8.8686 -0.792821 -1.36206 0
M  V30 81 C 9.7986 -0.207853 -2.32573 0
M  V30 82 C 10.7796 0.659055 -1.56813 0
M  V30 83 O 11.9646 0.592176 -1.84951 0
M  V30 84 C 9.0946 0.655449 -3.41059 0
M  V30 85 C 8.0486 -0.111842 -4.27854 0
M  V30 86 C 7.3746 0.872274 -5.27537 0
M  V30 87 C 8.6746 -1.30299 -5.05786 0
M  V30 88 H 10.3686 -1.01294 -2.81744 0
M  V30 89 H 7.9146 -0.48854 -1.3546 0
M  V30 90 H 9.8676 1.07464 -4.07467 0
M  V30 91 H 8.5916 1.49328 -2.90463 0
M  V30 92 H 7.2506 -0.512053 -3.63006 0
M  V30 93 H 6.8986 1.70523 -4.73214 0
M  V30 94 H 6.5986 0.363291 -5.86476 0
M  V30 95 H 8.1226 1.28996 -5.96818 0
M  V30 96 H 9.5366 -0.959379 -5.65216 0
M  V30 97 H 7.9336 -1.7455 -5.74154 0
M  V30 98 H 9.0036 -2.09663 -4.37229 0
M  V30 99 N 10.3467 1.47872 -0.545128 0
M  V30 100 C 11.5717 2.07391 -0.0190611 0
M  V30 101 C 11.9967 1.39688 1.25971 0
M  V30 102 O 11.3547 0.467816 1.7516 0
M  V30 103 C 11.4027 3.60188 0.172335 0
M  V30 104 O 10.5067 3.9339 1.23766 0
M  V30 105 H 9.8477 0.662411 -0.0459059 0
M  V30 106 H 12.3777 1.90066 -0.757365 0
M  V30 107 H 12.3877 4.06129 0.390305 0
M  V30 108 H 11.0627 4.08865 -0.761725 0
M  V30 109 H 9.6397 3.5921 1.00114 0
M  V30 110 N 11.8248 0.280983 1.55075 0
M  V30 111 C 12.7878 -0.590896 2.21452 0
M  V30 112 C 13.7878 -1.07682 1.19421 0
M  V30 113 O 14.9778 -0.97605 1.44288 0
M  V30 114 C 12.1098 -1.81587 2.88511 0
M  V30 115 H 13.3028 -0.0112554 2.99898 0
M  V30 116 H 10.8558 0.0316438 1.56268 0
M  V30 117 H 11.5908 -2.43587 2.14093 0
M  V30 118 H 11.3758 -1.4753 3.63287 0
M  V30 119 H 12.8658 -2.43575 3.39206 0
M  V30 120 N 13.3029 -1.57598 0.00835791 0
M  V30 121 C 14.7139 -1.7892 -0.53333 0
M  V30 122 C 15.0649 -0.916609 -1.73473 0
M  V30 123 O 14.1899 -0.121336 -2.1606 0
M  V30 124 C 14.7849 -3.24488 -0.974313 0
M  V30 125 C 13.3439 -3.46878 -1.46125 0
M  V30 126 C 12.4909 -2.74157 -0.416302 0
M  V30 127 H 15.4419 -1.56958 0.234495 0
M  V30 128 H 15.4629 -3.3306 -1.83988 0
M  V30 129 H 14.9749 -3.87972 -0.099718 0
M  V30 130 H 13.0759 -2.8862 -2.35646 0
M  V30 131 H 13.1889 -4.55572 -1.48295 0
M  V30 132 H 11.5529 -2.39022 -0.87981 0
M  V30 133 H 12.3359 -3.40345 0.44947 0
M  V30 134 N 14.781 0.264519 -1.55364 0
M  V30 135 C 16.197 0.61215 -1.47394 0
M  V30 136 C 16.397 1.89134 -0.695018 0
M  V30 137 O 15.453 2.51563 -0.217275 0
M  V30 138 C 16.766 0.731235 -2.91674 0
M  V30 139 C 18.314 0.82473 -3.01939 0
M  V30 140 C 18.789 0.975522 -4.4749 0
M  V30 141 N 20.28 1.04083 -4.51354 0
M  V30 142 C 21.015 1.17646 -5.61201 0
M  V30 143 N 20.511 1.27874 -6.80896 0
M  V30 144 N 22.304 1.20823 -5.48961 0
M  V30 145 H 14.455 -0.575456 -2.04456 0
M  V30 146 H 16.718 -0.196099 -0.927496 0
M  V30 147 H 16.424 -0.138392 -3.51428 0
M  V30 148 H 16.298 1.60883 -3.41169 0
M  V30 149 H 18.685 1.68482 -2.42276 0
M  V30 150 H 18.766 -0.0776479 -2.55682 0
M  V30 151 H 18.41 0.120058 -5.07758 0
M  V30 152 H 18.34 1.89268 -4.91412 0
M  V30 153 H 20.831 0.973846 -3.65136 0
M  V30 154 H 21.144 1.38081 -7.60364 0
M  V30 155 H 19.489 1.24863 -6.83692 0
M  V30 156 H 22.68 1.12469 -4.54388 0
M  V30 157 H 22.853 1.31049 -6.3461 0
M  V30 158 N 16.2591 1.48442 0.529413 0
M  V30 159 C 17.2221 1.62524 1.61612 0
M  V30 160 C 18.2221 0.498509 1.52877 0
M  V30 161 O 19.4121 0.76431 1.56537 0
M  V30 162 C 16.5441 1.59597 3.01233 0
M  V30 163 H 17.7371 2.59423 1.50465 0
M  V30 164 H 15.2901 1.37047 0.751514 0
M  V30 165 H 16.0251 0.641781 3.17886 0
M  V30 166 H 15.8101 2.41397 3.08982 0
M  V30 167 H 17.3001 1.72646 3.80241 0
M  V30 168 N 17.7372 -0.778329 1.37039 0
M  V30 169 C 18.6672 -1.90546 1.34962 0
M  V30 170 C 19.6482 -1.68681 0.219274 0
M  V30 171 O 20.8332 -1.89634 0.418624 0
M  V30 172 C 17.9632 -3.27734 1.14925 0
M  V30 173 C 16.9172 -3.64147 2.24902 0
M  V30 174 C 16.2432 -4.99806 1.89996 0
M  V30 175 C 17.5432 -3.71579 3.67051 0
M  V30 176 H 19.2372 -1.92541 2.29277 0
M  V30 177 H 16.7832 -0.924948 1.10366 0
M  V30 178 H 18.7362 -4.06215 1.12104 0
M  V30 179 H 17.4602 -3.26154 0.170631 0
M  V30 180 H 16.1192 -2.8797 2.26868 0
M  V30 181 H 15.7672 -4.94759 0.906796 0
M  V30 182 H 15.4672 -5.25139 2.63634 0
M  V30 183 H 16.9912 -5.80694 1.88749 0
M  V30 184 H 18.4052 -4.40227 3.67251 0
M  V30 185 H 16.8022 -4.08405 4.39688 0
M  V30 186 H 17.8722 -2.72404 4.01154 0
M  V30 187 N 19.2153 -1.21501 -1.00376 0
M  V30 188 C 20.4613 -1.03452 -1.74429 0
M  V30 189 C 20.7943 0.430764 -1.89362 0
M  V30 190 O 20.0693 1.31962 -1.42886 0
M  V30 191 C 20.3523 -1.73375 -3.15615 0
M  V30 192 C 20.2053 -3.27431 -3.08397 0
M  V30 193 C 21.5243 -1.47732 -4.14564 0
M  V30 194 H 18.6433 -0.377226 -0.633143 0
M  V30 195 H 21.2853 -1.49693 -1.17013 0
M  V30 196 H 19.4353 -1.34064 -3.64636 0
M  V30 197 H 21.1073 -3.76119 -2.67081 0
M  V30 198 H 19.3503 -3.5767 -2.45468 0
M  V30 199 H 20.0213 -3.71524 -4.08258 0
M  V30 200 H 22.4973 -1.8186 -3.74254 0
M  V30 201 H 21.3733 -1.99169 -5.11491 0
M  V30 202 H 21.6343 -0.407589 -4.40217 0
M  V30 203 N 20.6934 1.19889 -1.02296 0
M  V30 204 C 21.6234 2.25141 -0.619174 0
M  V30 205 C 22.6044 1.66051 0.368915 0
M  V30 206 O 23.7894 1.92546 0.252941 0
M  V30 207 C 20.9194 3.4728 0.0368783 0
M  V30 208 C 19.8734 4.19005 -0.872865 0
M  V30 209 C 19.1994 5.34637 -0.0822402 0
M  V30 210 C 20.4994 4.74452 -2.18387 0
M  V30 211 H 22.1934 2.59171 -1.49903 0
M  V30 212 H 19.7394 1.24579 -0.722222 0
M  V30 213 H 21.6924 4.20098 0.330958 0
M  V30 214 H 20.4164 3.12433 0.95149 0
M  V30 215 H 19.0754 3.48061 -1.15105 0
M  V30 216 H 18.7234 4.96034 0.83422 0
M  V30 217 H 18.4234 5.83557 -0.688149 0
M  V30 218 H 19.9474 6.10255 0.205238 0
M  V30 219 H 21.3614 5.39055 -1.95172 0
M  V30 220 H 19.7584 5.33834 -2.74119 0
M  V30 221 H 20.8284 3.92844 -2.84257 0
M  V30 222 N 22.1715 0.800033 1.35784 0
M  V30 223 C 23.4175 0.38701 1.99684 0
M  V30 224 C 23.7725 -1.03268 1.62338 0
M  V30 225 O 23.0655 -1.70543 0.87325 0
M  V30 226 C 23.2595 0.500276 3.53881 0
M  V30 227 C 23.0885 1.92942 4.06206 0
M  V30 228 C 21.8585 2.55637 4.35865 0
M  V30 229 C 24.0565 2.89307 4.25213 0
M  V30 230 N 22.0385 3.9003 4.74078 0
M  V30 231 C 23.4095 4.08556 4.66349 0
M  V30 232 C 25.4645 2.86225 4.07406 0
M  V30 233 C 24.1675 5.25146 4.91543 0
M  V30 234 C 26.1935 4.02011 4.33752 0
M  V30 235 C 25.5555 5.20007 4.75155 0
M  V30 236 H 21.6545 0.189252 0.758754 0
M  V30 237 H 24.2385 1.03988 1.64604 0
M  V30 238 H 22.4095 -0.122568 3.88207 0
M  V30 239 H 24.1415 0.0624733 4.04652 0
M  V30 240 H 20.8965 2.07039 4.25948 0
M  V30 241 H 21.3205 4.59205 4.97454 0
M  V30 242 H 25.9625 1.96154 3.74544 0
M  V30 243 H 23.6805 6.15794 5.23281 0
M  V30 244 H 27.2665 4.00999 4.21534 0
M  V30 245 H 26.1465 6.08113 4.95145 0
M  V30 246 N 23.6496 -1.47581 0.552962 0
M  V30 247 C 24.6126 -2.28439 -0.186605 0
M  V30 248 C 25.6126 -1.36706 -0.84665 0
M  V30 249 O 26.8026 -1.59378 -0.703164 0
M  V30 250 C 23.9346 -3.16264 -1.2724 0
M  V30 251 H 25.1276 -2.95294 0.523609 0
M  V30 252 H 22.6806 -1.532 0.309745 0
M  V30 253 H 23.4156 -2.54091 -2.01514 0
M  V30 254 H 23.2006 -3.83769 -0.803968 0
M  V30 255 H 24.6906 -3.77198 -1.79196 0
M  V30 256 N 25.1277 -0.289203 -1.54924 0
M  V30 257 C 26.0907 0.579144 -2.21762 0
M  V30 258 C 27.0907 1.07047 -1.1999 0
M  V30 259 O 28.2807 0.968384 -1.44803 0
M  V30 260 C 25.4127 1.80055 -2.8947 0
M  V30 261 H 26.6057 -0.00464908 -2.999 0
M  V30 262 H 24.1587 -0.0399306 -1.56249 0
M  V30 263 H 24.8937 2.42449 -2.15381 0
M  V30 264 H 24.6787 1.45602 -3.64064 0
M  V30 265 H 26.1687 2.41773 -3.40493 0
M  V30 266 N 26.6058 1.57591 -0.0167156 0
M  V30 267 C 27.5358 2.12496 0.967858 0
M  V30 268 C 28.5168 1.03807 1.34752 0
M  V30 269 O 29.7018 1.31577 1.42833 0
M  V30 270 C 26.8318 2.64194 2.25431 0
M  V30 271 C 25.7858 3.77559 2.01576 0
M  V30 272 C 25.1118 4.15636 3.36379 0
M  V30 273 C 26.4118 5.04151 1.36489 0
M  V30 274 H 28.1058 2.95013 0.510643 0
M  V30 275 H 25.6518 1.41915 0.244181 0
M  V30 276 H 27.6048 3.01236 2.94678 0
M  V30 277 H 26.3288 1.78821 2.73296 0
M  V30 278 H 24.9878 3.40937 1.34751 0
M  V30 279 H 24.6358 3.27263 3.81979 0
M  V30 280 H 24.3358 4.92022 3.21229 0
M  V30 281 H 25.8598 4.5525 4.06915 0
M  V30 282 H 27.2738 5.38857 1.95718 0
M  V30 283 H 25.6708 5.85453 1.31776 0
M  V30 284 H 26.7408 4.83733 0.336219 0
M  V30 285 N 28.0839 -0.256276 1.55502 0
M  V30 286 C 29.3319 -0.983672 1.76545 0
M  V30 287 C 29.6529 -1.86206 0.578982 0
M  V30 288 O 28.9229 -1.91656 -0.405577 0
M  V30 289 H 27.5029 -0.366191 0.651086 0
M  V30 290 H 30.1649 -0.276479 1.92929 0
M  V30 291 H 29.2609 -1.61087 2.67315 0
M  V30 292 N 29.562 -1.4872 -0.521534 0
M  V30 293 C 30.525 -1.63379 -1.60748 0
M  V30 294 C 31.525 -0.50661 -1.52611 0
M  V30 295 O 32.715 -0.772601 -1.5613 0
M  V30 296 C 29.847 -1.61192 -3.00383 0
M  V30 297 H 31.04 -2.60217 -1.49087 0
M  V30 298 H 28.593 -1.37444 -0.744235 0
M  V30 299 H 29.328 -0.65863 -3.17541 0
M  V30 300 H 29.113 -2.43032 -3.07698 0
M  V30 301 H 30.603 -1.7466 -3.7932 0
M  V30 302 N 31.0401 0.771051 -1.3745 0
M  V30 303 C 32.0031 1.86598 -1.33093 0
M  V30 304 C 33.0031 1.59076 -0.234845 0
M  V30 305 O 34.1931 1.67145 -0.490732 0
M  V30 306 C 31.3251 3.23747 -1.06773 0
M  V30 307 H 32.5181 1.91873 -2.30488 0
M  V30 308 H 30.0711 0.970876 -1.2249 0
M  V30 309 H 30.8061 3.24148 -0.099129 0
M  V30 310 H 30.5911 3.45115 -1.86112 0
M  V30 311 H 32.0811 4.03824 -1.06377 0
M  V30 312 N 32.5182 1.22032 0.997298 0
M  V30 313 C 33.4812 0.987909 2.06816 0
M  V30 314 C 34.4812 -0.0440084 1.6074 0
M  V30 315 O 35.6712 0.194053 1.73116 0
M  V30 316 C 32.8032 0.49132 3.37341 0
M  V30 317 H 33.9962 1.93803 2.28868 0
M  V30 318 H 31.5492 1.03838 1.16822 0
M  V30 319 H 32.2842 -0.463364 3.20973 0
M  V30 320 H 32.0692 1.23575 3.72118 0
M  V30 321 H 33.5592 0.348824 4.16141 0
M  V30 322 N 33.9963 -1.19345 1.0293 0
M  V30 323 C 34.9463 -2.20472 0.58104 0
M  V30 324 C 35.9303 -1.56578 -0.370442 0
M  V30 325 O 37.1223 -1.75963 -0.191344 0
M  V30 326 C 34.2513 -3.43236 -0.066306 0
M  V30 327 C 33.3373 -4.14274 0.907642 0
M  V30 328 N 33.7283 -4.61492 2.07023 0
M  V30 329 C 32.0263 -4.39966 0.731177 0
M  V30 330 C 32.7273 -5.1605 2.68454 0
M  V30 331 N 31.7033 -5.06875 1.96414 0
M  V30 332 H 35.5053 -2.54659 1.46717 0
M  V30 333 H 33.0193 -1.35423 0.896345 0
M  V30 334 H 35.0163 -4.14927 -0.405068 0
M  V30 335 H 33.6763 -3.10549 -0.948118 0
M  V30 336 H 34.6873 -4.56304 2.44963 0
M  V30 337 H 31.3643 -4.17377 -0.101507 0
M  V30 338 H 32.7543 -5.6287 3.66915 0
M  V30 339 N 35.4744 -0.807222 -1.35358 0
M  V30 340 C 36.7234 -0.384376 -1.98004 0
M  V30 341 C 37.0364 1.0543 -1.64754 0
M  V30 342 O 38.2424 1.58029 -2.20769 0
M  V30 343 C 36.6984 -0.636326 -3.5423 0
M  V30 344 C 36.3064 -2.08759 -3.96388 0
M  V30 345 C 38.0504 -0.278869 -4.23583 0
M  V30 346 C 35.9574 -2.28525 -5.45463 0
M  V30 347 H 34.8874 -0.139986 -0.740891 0
M  V30 348 H 37.5384 -0.991369 -1.54415 0
M  V30 349 H 35.9204 0.0406256 -3.95979 0
M  V30 350 H 37.0944 -2.8024 -3.6579 0
M  V30 351 H 35.4094 -2.40497 -3.39926 0
M  V30 352 H 38.0064 -0.404599 -5.33167 0
M  V30 353 H 38.3494 0.775012 -4.09022 0
M  V30 354 H 38.8824 -0.909764 -3.87257 0
M  V30 355 H 35.6214 -3.32361 -5.64992 0
M  V30 356 H 35.1414 -1.61569 -5.77629 0
M  V30 357 H 36.8204 -2.10109 -6.11934 0
M  V30 358 N 36.9525 1.47285 -0.560781 0
M  V30 359 C 38.2005 2.02064 -0.0379868 0
M  V30 360 C 38.5215 1.43711 1.31803 0
M  V30 361 O 37.7915 0.61362 1.86042 0
M  V30 362 H 36.3715 0.746918 -0.0110531 0
M  V30 363 H 39.0335 1.80648 -0.731598 0
M  V30 364 H 38.1295 3.12064 0.0474463 0
M  V30 365 N 38.4306 0.297415 1.54768 0
M  V30 366 C 39.8416 -0.195947 1.85669 0
M  V30 367 C 40.1926 -1.53707 1.21937 0
M  V30 368 O 39.3176 -2.10164 0.515754 0
M  V30 369 C 39.9126 -0.362318 3.36857 0
M  V30 370 C 38.4716 -0.799901 3.67802 0
M  V30 371 C 37.6186 0.0938578 2.77141 0
M  V30 372 H 40.5696 0.518538 1.4999 0
M  V30 373 H 40.5906 -1.19745 3.61167 0
M  V30 374 H 40.1026 0.613921 3.83214 0
M  V30 375 H 38.2036 -1.78682 3.26961 0
M  V30 376 H 38.3166 -0.621773 4.75048 0
M  V30 377 H 36.6806 -0.426254 2.51108 0
M  V30 378 H 37.4636 1.06639 3.26318 0
M  V30 379 N 39.9087 -1.5758 0.0250728 0
M  V30 380 C 40.8717 -2.08896 -0.943139 0
M  V30 381 C 41.8717 -1.00321 -1.25668 0
M  V30 382 O 43.0617 -1.26495 -1.19769 0
M  V30 383 C 40.1937 -2.55143 -2.26086 0
M  V30 384 H 41.3867 -2.95723 -0.498775 0
M  V30 385 H 38.9397 -1.54703 -0.222888 0
M  V30 386 H 39.6747 -1.71633 -2.75159 0
M  V30 387 H 39.4597 -3.34461 -2.04641 0
M  V30 388 H 40.9497 -2.95083 -2.95492 0
M  V30 389 N 41.3868 0.248026 -1.55636 0
M  V30 390 C 42.7978 0.817177 -1.67866 0
M  V30 391 C 43.1488 1.86069 -0.622322 0
M  V30 392 O 42.2738 2.15157 0.231618 0
M  V30 393 C 42.8688 1.489 -3.04326 0
M  V30 394 C 41.4278 2.00587 -3.185 0
M  V30 395 C 40.5748 0.856573 -2.63739 0
M  V30 396 H 43.5258 0.0238579 -1.58682 0
M  V30 397 H 43.5468 2.35698 -2.98708 0
M  V30 398 H 43.0588 0.729279 -3.81186 0
M  V30 399 H 41.1598 2.79443 -2.4646 0
M  V30 400 H 41.2728 2.20402 -4.25393 0
M  V30 401 H 39.6368 1.25678 -2.21534 0
M  V30 402 H 40.4198 0.109953 -3.43124 0
M  V30 403 N 42.8649 1.48995 0.513639 0
M  V30 404 C 44.1419 1.48338 1.27495 0
M  V30 405 C 44.5219 0.204065 2.10111 0
M  V30 406 O 43.8699 -0.813881 2.13514 0
M  V30 407 C 44.0799 2.75498 2.14247 0
M  V30 408 C 45.4279 3.24484 2.73852 0
M  V30 409 O 46.4519 2.76528 2.24523 0
M  V30 410 O 45.3109 4.07974 3.6362 0
M  V30 411 H 42.4049 0.593149 0.576284 0
M  V30 412 H 44.9509 1.61246 0.528948 0
M  V30 413 H 43.7229 3.60109 1.53092 0
M  V30 414 H 43.3459 2.6539 2.96064 0
M  V30 415 N 44.343 -0.763751 1.37857 0
M  V30 416 C 45.754 -1.3405 1.29952 0
M  V30 417 C 46.105 -1.96138 -0.0492898 0
M  V30 418 O 45.23 -1.94372 -0.951239 0
M  V30 419 C 45.825 -2.43729 2.35333 0
M  V30 420 C 44.384 -2.97151 2.31037 0
M  V30 421 C 43.531 -1.70438 2.18738 0
M  V30 422 H 46.482 -0.563396 1.48363 0
M  V30 423 H 46.503 -3.23412 2.00462 0
M  V30 424 H 46.015 -1.9851 3.33489 0
M  V30 425 H 44.116 -3.46724 1.3643 0
M  V30 426 H 44.229 -3.52221 3.24772 0
M  V30 427 H 42.593 -1.93673 1.65418 0
M  V30 428 H 43.376 -1.27312 3.18821 0
M  V30 429 N 45.8211 -1.22559 -0.990812 0
M  V30 430 C 46.7311 -1.01394 -2.11557 0
M  V30 431 C 47.7471 0.0383962 -1.73958 0
M  V30 432 O 48.9231 -0.154787 -2.00804 0
M  V30 433 C 45.9881 -0.596569 -3.41529 0
M  V30 434 C 45.0491 -1.72276 -3.93217 0
M  V30 435 C 44.2821 -1.32521 -5.16985 0
M  V30 436 O 44.5051 -0.204909 -5.70032 0
M  V30 437 O 43.4391 -2.14247 -5.62478 0
M  V30 438 H 47.2651 -1.95633 -2.32296 0
M  V30 439 H 44.8501 -1.01172 -1.0993 0
M  V30 440 H 46.7321 -0.374263 -4.19735 0
M  V30 441 H 45.4071 0.316939 -3.22145 0
M  V30 442 H 44.3141 -1.99961 -3.16174 0
M  V30 443 H 45.6471 -2.61421 -4.17037 0
M  V30 444 N 47.2992 1.18797 -1.03562 0
M  V30 445 C 48.5762 1.84469 -0.650434 0
M  V30 446 C 48.9562 1.92319 0.870433 0
M  V30 447 O 48.3042 1.44528 1.76986 0
M  V30 448 C 48.5142 3.2306 -1.32036 0
M  V30 449 C 49.8622 3.9915 -1.44792 0
M  V30 450 O 50.8862 3.32481 -1.27806 0
M  V30 451 O 49.7452 5.18587 -1.72423 0
M  V30 452 H 46.8392 0.795251 -0.226946 0
M  V30 453 H 49.3852 1.26231 -1.13419 0
M  V30 454 H 48.1572 3.1222 -2.3587 0
M  V30 455 H 47.7802 3.88949 -0.8249 0
M  V30 456 N 48.7773 0.814389 1.34928 0
M  V30 457 C 50.0233 0.408167 1.99263 0
M  V30 458 C 50.3783 -1.0154 1.63424 0
M  V30 459 O 49.6713 -1.69607 0.891289 0
M  V30 460 C 49.8653 0.537781 3.53331 0
M  V30 461 C 49.6943 1.9724 4.04137 0
M  V30 462 C 48.4643 2.60245 4.33129 0
M  V30 463 C 50.6623 2.93801 4.2212 0
M  V30 464 N 48.6443 3.95036 4.69914 0
M  V30 465 C 50.0153 4.1348 4.6199 0
M  V30 466 C 52.0703 2.9053 4.04348 0
M  V30 467 C 50.7733 5.3033 4.85945 0
M  V30 468 C 52.7993 4.06589 4.29464 0
M  V30 469 C 52.1613 5.25017 4.69613 0
M  V30 470 H 48.2603 0.197289 0.756704 0
M  V30 471 H 50.8443 1.05728 1.63492 0
M  V30 472 H 49.0153 -0.0813868 3.88315 0
M  V30 473 H 50.7473 0.105389 4.04563 0
M  V30 474 H 47.5023 2.11545 4.23728 0
M  V30 475 H 47.9263 4.64455 4.92555 0
M  V30 476 H 52.5683 2.00115 3.72443 0
M  V30 477 H 50.2863 6.21309 5.16721 0
M  V30 478 H 53.8723 4.05447 4.17257 0
M  V30 479 H 52.7523 6.1333 4.88667 0
M  V30 480 N 50.2554 -1.46986 0.568584 0
M  V30 481 C 51.5014 -2.0332 0.0571487 0
M  V30 482 C 51.8564 -1.43384 -1.28291 0
M  V30 483 O 51.1494 -0.584304 -1.82473 0
M  V30 484 C 51.3434 -3.57306 -0.081836 0
M  V30 485 C 51.1724 -4.32174 1.24321 0
M  V30 486 C 49.9424 -4.71633 1.81358 0
M  V30 487 C 52.1404 -4.66598 2.16312 0
M  V30 488 N 50.1224 -5.31191 3.07748 0
M  V30 489 C 51.4934 -5.26578 3.27285 0
M  V30 490 C 53.5484 -4.48527 2.16166 0
M  V30 491 C 52.2514 -5.70395 4.38226 0
M  V30 492 C 54.2774 -4.93351 3.26127 0
M  V30 493 C 53.6394 -5.5339 4.3582 0
M  V30 494 H 49.7384 -0.77943 0.063351 0
M  V30 495 H 52.3224 -1.79323 0.758378 0
M  V30 496 H 50.4934 -3.81046 -0.752207 0
M  V30 497 H 52.2254 -4.00282 -0.59637 0
M  V30 498 H 48.9804 -4.53946 1.35019 0
M  V30 499 H 49.4044 -5.65505 3.72201 0
M  V30 500 H 54.0464 -4.01456 1.32638 0
M  V30 501 H 51.7644 -6.16452 5.22506 0
M  V30 502 H 55.3504 -4.81131 3.27115 0
M  V30 503 H 54.2304 -5.87441 5.19503 0
M  V30 504 N 51.7335 -0.305618 -1.54608 0
M  V30 505 C 52.9585 0.307562 -2.05107 0
M  V30 506 C 53.3835 1.46385 -1.18123 0
M  V30 507 O 52.7415 1.8034 -0.186324 0
M  V30 508 C 52.7895 0.73704 -3.52987 0
M  V30 509 O 51.8935 1.84134 -3.6901 0
M  V30 510 H 51.2345 0.0589143 -0.661381 0
M  V30 511 H 53.7645 -0.448807 -1.99617 0
M  V30 512 H 53.7745 1.02459 -3.94925 0
M  V30 513 H 52.4495 -0.108773 -4.15758 0
M  V30 514 H 51.0265 1.55398 -3.38978 0
M  V30 515 N 53.2116 1.57565 -0.0334293 0
M  V30 516 C 54.4416 1.95996 0.653398 0
M  V30 517 C 54.8496 0.908749 1.65947 0
M  V30 518 O 54.1926 -0.117471 1.83324 0
M  V30 519 C 54.2546 3.30589 1.41249 0
M  V30 520 C 53.9186 4.53503 0.564263 0
M  V30 521 C 54.9156 5.19647 -0.16225 0
M  V30 522 C 52.6006 4.99801 0.500398 0
M  V30 523 C 54.5946 6.30412 -0.941255 0
M  V30 524 C 52.2816 6.10448 -0.282308 0
M  V30 525 C 53.2796 6.75612 -1.00184 0
M  V30 526 O 52.9676 7.84134 -1.77171 0
M  V30 527 H 52.6996 0.65027 0.184728 0
M  V30 528 H 55.2536 2.05199 -0.0907841 0
M  V30 529 H 53.4836 3.17888 2.20191 0
M  V30 530 H 55.1726 3.53892 1.98784 0
M  V30 531 H 55.9386 4.84846 -0.12227 0
M  V30 532 H 51.8176 4.48883 1.05002 0
M  V30 533 H 55.3616 6.81208 -1.50339 0
M  V30 534 H 51.2586 6.44686 -0.323989 0
M  V30 535 H 52.0266 8.00822 -1.69194 0
M  V30 536 N 54.6897 -0.239769 1.55765 0
M  V30 537 C 55.6367 -1.29696 1.90913 0
M  V30 538 C 56.6067 -1.47478 0.764164 0
M  V30 539 O 57.7917 -1.61345 1.01845 0
M  V30 540 C 54.9317 -2.64598 2.21544 0
M  V30 541 C 54.0447 -2.54765 3.48882 0
M  V30 542 C 53.1797 -3.82069 3.69049 0
M  V30 543 C 52.2187 -3.66883 4.89963 0
M  V30 544 N 51.3557 -4.86094 5.06614 0
M  V30 545 H 56.1957 -0.990224 2.81067 0
M  V30 546 H 53.7327 -0.477684 1.39128 0
M  V30 547 H 55.6907 -3.43132 2.3731 0
M  V30 548 H 54.3207 -2.93405 1.34585 0
M  V30 549 H 53.3727 -1.67763 3.41409 0
M  V30 550 H 54.6847 -2.39457 4.37563 0
M  V30 551 H 53.8387 -4.69046 3.84812 0
M  V30 552 H 52.5777 -4.00282 2.78614 0
M  V30 553 H 51.5827 -2.78289 4.74168 0
M  V30 554 H 52.8077 -3.50157 5.81865 0
M  V30 555 H 50.7537 -5.04655 4.19117 0
M  V30 556 H 50.6707 -4.73443 5.89396 0
M  V30 557 H 51.9387 -5.74549 5.26795 0
M  V30 558 N 56.1678 -1.49265 -0.50573 0
M  V30 559 C 57.4448 -1.49012 -1.26707 0
M  V30 560 C 57.8248 -0.215205 -2.1 0
M  V30 561 O 57.1728 0.802547 -2.13943 0
M  V30 562 C 57.3828 -2.7663 -2.12783 0
M  V30 563 C 58.7308 -3.25932 -2.72127 0
M  V30 564 O 59.7548 -2.77715 -2.23054 0
M  V30 565 O 58.6138 -4.09897 -3.61451 0
M  V30 566 H 55.7078 -0.596197 -0.57313 0
M  V30 567 H 58.2538 -1.61524 -0.52039 0
M  V30 568 H 57.0258 -3.60916 -1.5118 0
M  V30 569 H 56.6488 -2.66956 -2.94653 0
M  V30 570 N 57.6459 0.756429 -1.3826 0
M  V30 571 C 58.5939 1.89149 -1.35372 0
M  V30 572 C 59.5879 1.67691 -0.24004 0
M  V30 573 O 60.7939 1.75294 -0.408919 0
M  V30 574 H 57.1689 0.622271 -0.422236 0
M  V30 575 H 59.1399 1.88701 -2.31159 0
M  V30 576 C 57.8889 3.26599 -1.19284 0
M  V30 577 H 57.2119 3.43695 -2.0424 0
M  V30 578 H 58.6519 4.06274 -1.21316 0
M  V30 579 C 57.1109 3.3675 0.100454 0
M  V30 580 O 57.6409 3.86951 1.07851 0
M  V30 581 N 55.8469 2.90179 0.15633 0
M  V30 582 H 55.3939 2.49517 -0.640253 0
M  V30 583 H 55.3519 2.97352 1.02123 0
M  V30 584 N 59.124 1.23083 0.984299 0
M  V30 585 C 60.054 1.03292 2.09411 0
M  V30 586 C 61.035 -0.048923 1.7003 0
M  V30 587 O 62.22 0.114967 1.93859 0
M  V30 588 C 59.35 0.619155 3.41736 0
M  V30 589 C 58.304 1.64791 3.95004 0
M  V30 590 C 57.63 1.0897 5.23478 0
M  V30 591 C 58.93 3.03999 4.24714 0
M  V30 592 H 60.624 1.96119 2.26225 0
M  V30 593 H 58.17 0.944344 1.08711 0
M  V30 594 H 60.123 0.467777 4.18796 0
M  V30 595 H 58.847 -0.344786 3.24775 0
M  V30 596 H 57.506 1.78721 3.20085 0
M  V30 597 H 57.154 0.11686 5.02864 0
M  V30 598 H 56.854 1.77704 5.60085 0
M  V30 599 H 58.378 0.950093 6.03163 0
M  V30 600 H 59.792 2.93393 4.92538 0
M  V30 601 H 58.189 3.69936 4.72512 0
M  V30 602 H 59.259 3.53285 3.32142 0
M  V30 603 N 60.6021 -1.18246 1.0419 0
M  V30 604 C 61.5341 -2.2142 0.592088 0
M  V30 605 C 62.5471 -1.59233 -0.338909 0
M  V30 606 O 63.7361 -1.78002 -0.133231 0
M  V30 607 C 60.8361 -3.38546 -0.154854 0
M  V30 608 C 60.0091 -4.3031 0.784328 0
M  V30 609 C 59.0681 -5.26138 0.0804583 0
M  V30 610 O 58.0941 -5.64738 0.711292 0
M  V30 611 N 59.2961 -5.68261 -1.18574 0
M  V30 612 H 62.0611 -2.60636 1.47949 0
M  V30 613 H 59.6221 -1.33044 0.922544 0
M  V30 614 H 61.6141 -3.99678 -0.635606 0
M  V30 615 H 60.1841 -2.98012 -0.943811 0
M  V30 616 H 59.4041 -3.66764 1.44491 0
M  V30 617 H 60.6921 -4.8852 1.42218 0
M  V30 618 H 60.0901 -5.38957 -1.71876 0
M  V30 619 H 58.6471 -6.31584 -1.61074 0
M  V30 620 N 62.0802 -0.821533 -1.34494 0
M  V30 621 C 63.3282 -0.408139 -1.97936 0
M  V30 622 C 63.6492 1.03193 -1.65457 0
M  V30 623 O 62.9192 1.71622 -0.944595 0
M  V30 624 H 61.4992 -0.147928 -0.732206 0
M  V30 625 H 64.1612 -1.05067 -1.64155 0
M  V30 626 H 63.2572 -0.52601 -3.07635 0
M  V30 627 N 63.5583 1.46682 -0.576371 0
M  V30 628 C 64.5063 2.31953 0.17335 0
M  V30 629 C 65.5003 1.44098 0.89062 0
M  V30 630 O 66.7063 1.60759 0.809728 0
M  V30 631 H 63.0813 0.748273 0.0747727 0
M  V30 632 H 65.0523 2.93007 -0.564738 0
M  V30 633 C 63.8013 3.27142 1.17786 0
M  V30 634 H 63.1243 3.94719 0.635361 0
M  V30 635 H 64.5643 3.896 1.67296 0
M  V30 636 C 63.0233 2.52036 2.23561 0
M  V30 637 O 63.5533 2.27877 3.3081 0
M  V30 638 N 61.7593 2.12709 1.97998 0
M  V30 639 H 61.3063 2.32557 1.10792 0
M  V30 640 H 61.2643 1.62776 2.68982 0
M  V30 641 N 65.0364 0.313813 1.54444 0
M  V30 642 C 66.2834 -0.291675 2.00388 0
M  V30 643 C 66.6114 -1.52904 1.2021 0
M  V30 644 O 65.8664 -1.93833 0.269707 0
M  V30 645 C 66.1654 -0.680386 3.50864 0
M  V30 646 C 65.8314 0.456699 4.48581 0
M  V30 647 C 64.4934 0.768824 4.75018 0
M  V30 648 C 66.8454 1.22098 5.06697 0
M  V30 649 C 64.1734 1.84812 5.56831 0
M  V30 650 C 66.5254 2.29029 5.89685 0
M  V30 651 C 65.1894 2.60834 6.14428 0
M  V30 652 H 64.4594 -0.106732 0.733273 0
M  V30 653 H 67.1064 0.43557 1.86481 0
M  V30 654 H 65.4114 -1.48791 3.62448 0
M  V30 655 H 67.1084 -1.16026 3.83847 0
M  V30 656 H 63.6984 0.203337 4.28117 0
M  V30 657 H 67.8824 0.993096 4.86263 0
M  V30 658 H 63.1384 2.09912 5.74236 0
M  V30 659 H 67.3124 2.887 6.33739 0
M  V30 660 H 64.9394 3.44596 6.77612 0
M  V30 661 N 66.5145 -1.57545 0.0417849 0
M  V30 662 C 67.7605 -1.92601 -0.635021 0
M  V30 663 C 68.0935 -0.919627 -1.71045 0
M  V30 664 O 67.3685 0.0557892 -1.9442 0
M  V30 665 C 67.6515 -3.38085 -1.23979 0
M  V30 666 C 67.5045 -4.49467 -0.173057 0
M  V30 667 C 68.8235 -3.83776 -2.15416 0
M  V30 668 H 65.9425 -0.700397 -0.229374 0
M  V30 669 H 68.5845 -1.89728 0.101633 0
M  V30 670 H 66.7345 -3.40664 -1.86762 0
M  V30 671 H 68.4065 -4.59018 0.458312 0
M  V30 672 H 66.6495 -4.30909 0.499996 0
M  V30 673 H 67.3205 -5.48323 -0.636054 0
M  V30 674 H 69.7965 -3.83013 -1.62605 0
M  V30 675 H 68.6725 -4.8624 -2.54679 0
M  V30 676 H 68.9335 -3.19998 -3.05047 0
M  V30 677 N 67.9926 0.231505 -1.5589 0
M  V30 678 C 69.4036 0.799327 -1.68724 0
M  V30 679 C 69.7546 1.85398 -0.642022 0
M  V30 680 O 68.8796 2.1539 0.208784 0
M  V30 681 C 69.4746 1.45664 -3.05888 0
M  V30 682 C 68.0336 1.97197 -3.20609 0
M  V30 683 C 67.1806 0.828552 -2.64632 0
M  V30 684 H 70.1316 0.00702616 -1.58698 0
M  V30 685 H 70.1526 2.32517 -3.01191 0
M  V30 686 H 69.6646 0.688808 -3.81939 0
M  V30 687 H 67.7656 2.76813 -2.4941 0
M  V30 688 H 67.8786 2.15878 -4.27707 0
M  V30 689 H 66.2426 1.23321 -2.22854 0
M  V30 690 H 67.0256 0.0735544 -3.43221 0
M  V30 691 N 69.4707 1.49531 0.497807 0
M  V30 692 C 70.7187 1.58865 1.24926 0
M  V30 693 C 71.0397 0.278721 1.92998 0
M  V30 694 O 70.3097 -0.702144 1.82885 0
M  V30 695 H 68.8897 0.585343 0.464094 0
M  V30 696 H 71.5517 1.86174 0.57666 0
M  V30 697 H 70.6477 2.38633 2.01149 0
M  V30 698 N 70.9488 -0.749086 1.3866 0
M  V30 699 C 72.3598 -1.32664 1.31366 0
M  V30 700 C 72.7108 -1.96179 -0.028484 0
M  V30 701 O 71.8358 -1.9537 -0.93057 0
M  V30 702 C 72.4308 -2.41219 2.37905 0
M  V30 703 C 70.9898 -2.94684 2.34176 0
M  V30 704 C 70.1368 -1.68108 2.20533 0
M  V30 705 H 73.0878 -0.547628 1.48952 0
M  V30 706 H 73.1088 -3.21268 2.0388 0
M  V30 707 H 72.6208 -1.94962 3.35576 0
M  V30 708 H 70.7218 -3.45258 1.401 0
M  V30 709 H 70.8348 -3.48757 3.2849 0
M  V30 710 H 69.1988 -1.91907 1.67463 0
M  V30 711 H 69.9818 -1.23923 3.20153 0
M  V30 712 N 72.4269 -1.23603 -0.977757 0
M  V30 713 C 73.8379 -1.06424 -1.53398 0
M  V30 714 C 74.1889 0.367578 -1.92726 0
M  V30 715 O 73.3139 1.25465 -1.76316 0
M  V30 716 C 73.9089 -1.92568 -2.78753 0
M  V30 717 C 72.4679 -1.79642 -3.30765 0
M  V30 718 C 71.6149 -1.88111 -2.03739 0
M  V30 719 H 74.5659 -1.37227 -0.797152 0
M  V30 720 H 74.5869 -1.45203 -3.51705 0
M  V30 721 H 74.0989 -2.96771 -2.50098 0
M  V30 722 H 72.1999 -0.782325 -3.64294 0
M  V30 723 H 72.3129 -2.63174 -4.00345 0
M  V30 724 H 70.6769 -1.31723 -2.17994 0
M  V30 725 H 71.4599 -2.93875 -1.77461 0
M  V30 726 N 73.905 1.17692 -1.04816 0
M  V30 727 C 75.152 1.87859 -0.75599 0
M  V30 728 C 75.48 1.80812 0.716752 0
M  V30 729 O 74.735 1.20819 1.53952 0
M  V30 730 C 75.034 3.37462 -1.17703 0
M  V30 731 C 74.7 3.64713 -2.65133 0
M  V30 732 C 73.362 3.71859 -3.05408 0
M  V30 733 C 75.714 3.76492 -3.60421 0
M  V30 734 C 73.042 3.88271 -4.39843 0
M  V30 735 C 75.394 3.94421 -4.94585 0
M  V30 736 C 74.058 3.99806 -5.3452 0
M  V30 737 H 73.328 0.687425 -0.276636 0
M  V30 738 H 75.975 1.39255 -1.31455 0
M  V30 739 H 74.28 3.88097 -0.537395 0
M  V30 740 H 75.977 3.90109 -0.928218 0
M  V30 741 H 72.567 3.59772 -2.32942 0
M  V30 742 H 76.751 3.70295 -3.30447 0
M  V30 743 H 72.007 3.90687 -4.70291 0
M  V30 744 H 76.181 4.02477 -5.68318 0
M  V30 745 H 73.808 4.12276 -6.38696 0
M  V30 746 N 75.3831 0.828654 1.34056 0
M  V30 747 C 76.6291 0.429279 1.98818 0
M  V30 748 C 76.9841 -0.998011 1.64492 0
M  V30 749 O 76.2771 -1.68652 0.909228 0
M  V30 750 C 76.4711 0.575226 3.52741 0
M  V30 751 C 76.3001 2.01515 4.02022 0
M  V30 752 C 75.0701 2.64825 4.30344 0
M  V30 753 C 77.2681 2.98261 4.18981 0
M  V30 754 N 75.2501 3.99998 4.65698 0
M  V30 755 C 76.6211 4.18356 4.57578 0
M  V30 756 C 78.6761 2.94802 4.01243 0
M  V30 757 C 77.3791 5.35454 4.80293 0
M  V30 758 C 79.4051 4.11121 4.25128 0
M  V30 759 C 78.7671 5.29969 4.64018 0
M  V30 760 H 74.8661 0.205304 0.754569 0
M  V30 761 H 77.4501 1.07457 1.62361 0
M  V30 762 H 75.6211 -0.0401962 3.88379 0
M  V30 763 H 77.3531 0.148292 4.04428 0
M  V30 764 H 74.1081 2.16027 4.21461 0
M  V30 765 H 74.5321 4.69653 4.87601 0
M  V30 766 H 79.1741 2.04054 3.70299 0
M  V30 767 H 76.8921 6.26755 5.10102 0
M  V30 768 H 80.4781 4.0985 4.12934 0
M  V30 769 H 79.3581 6.18479 4.82134 0
M  V30 770 N 76.8612 -1.46375 0.584142 0
M  V30 771 C 78.1092 -2.01978 0.0701287 0
M  V30 772 C 78.4302 -1.4579 -1.295 0
M  V30 773 O 77.7002 -0.64314 -1.85042 0
M  V30 774 H 76.2802 -0.746648 0.0229345 0
M  V30 775 H 78.9422 -1.79461 0.760245 0
M  V30 776 H 78.0382 -3.121 0.0022064 0
M  V30 777 N 78.3393 -0.321999 -1.54275 0
M  V30 778 C 79.2693 0.537411 -2.27231 0
M  V30 779 C 80.2503 1.12064 -1.27968 0
M  V30 780 O 81.4353 1.14606 -1.56777 0
M  V30 781 C 78.5653 1.69919 -3.02894 0
M  V30 782 C 77.5193 1.24534 -4.09482 0
M  V30 783 C 76.8453 2.49394 -4.72977 0
M  V30 784 C 78.1453 0.361335 -5.21049 0
M  V30 785 H 79.8393 -0.0711406 -2.99315 0
M  V30 786 H 77.3853 -0.0356555 -1.43956 0
M  V30 787 H 79.3383 2.30668 -3.52662 0
M  V30 788 H 78.0623 2.33431 -2.28424 0
M  V30 789 H 76.7213 0.660782 -3.60596 0
M  V30 790 H 76.3693 3.11265 -3.95124 0
M  V30 791 H 76.0693 2.19718 -5.44975 0
M  V30 792 H 77.5933 3.10908 -5.25517 0
M  V30 793 H 79.0073 0.875072 -5.66582 0
M  V30 794 H 77.4043 0.157428 -5.99893 0
M  V30 795 H 78.4743 -0.60822 -4.8107 0
M  V30 796 N 79.8174 1.5752 -0.0501392 0
M  V30 797 C 81.0634 1.92936 0.624798 0
M  V30 798 C 81.3964 0.928685 1.70555 0
M  V30 799 O 80.6714 -0.0454779 1.94447 0
M  V30 800 C 80.9544 3.38737 1.22185 0
M  V30 801 C 80.8074 4.49552 0.149218 0
M  V30 802 C 82.1264 3.84913 2.13378 0
M  V30 803 H 79.2454 0.701604 0.225657 0
M  V30 804 H 81.8874 1.89671 -0.111693 0
M  V30 805 H 80.0374 3.4165 1.84953 0
M  V30 806 H 81.7094 4.58768 -0.482648 0
M  V30 807 H 79.9524 4.30638 -0.522841 0
M  V30 808 H 80.6234 5.48653 0.606966 0
M  V30 809 H 83.0994 3.8387 1.60572 0
M  V30 810 H 81.9754 4.87584 2.52097 0
M  V30 811 H 82.2364 3.21611 3.03346 0
M  V30 812 N 81.2955 -0.223234 1.56011 0
M  V30 813 C 82.2435 -1.29627 1.93131 0
M  V30 814 C 83.2375 -1.48608 0.813146 0
M  V30 815 O 84.4435 -1.49802 0.997966 0
M  V30 816 H 80.8185 -0.434563 0.613726 0
M  V30 817 H 82.7895 -0.955995 2.82672 0
M  V30 818 C 81.5385 -2.63983 2.26292 0
M  V30 819 H 80.8615 -2.50185 3.11846 0
M  V30 820 H 82.3015 -3.3788 2.56151 0
M  V30 821 C 80.7605 -3.18866 1.08747 0
M  V30 822 O 81.2905 -4.00192 0.347727 0
M  V30 823 N 79.4965 -2.77217 0.871743 0
M  V30 824 H 79.0435 -2.1119 1.47501 0
M  V30 825 H 79.0015 -3.1428 0.0869905 0
M  V30 826 N 82.7736 -1.49793 -0.48987 0
M  V30 827 C 83.7366 -1.66752 -1.57246 0
M  V30 828 C 84.7366 -0.538867 -1.51502 0
M  V30 829 O 85.9266 -0.805545 -1.54456 0
M  V30 830 C 83.0586 -1.67528 -2.96896 0
M  V30 831 H 84.2516 -2.63321 -1.43534 0
M  V30 832 H 81.8046 -1.38992 -0.714914 0
M  V30 833 H 82.5396 -0.725837 -3.16073 0
M  V30 834 H 82.3246 -2.49504 -3.02473 0
M  V30 835 H 83.8146 -1.82667 -3.7553 0
M  V30 836 N 84.2517 0.741722 -1.39055 0
M  V30 837 C 85.2147 1.83733 -1.37021 0
M  V30 838 C 86.2147 1.58542 -0.268534 0
M  V30 839 O 87.4047 1.66067 -0.526076 0
M  V30 840 C 84.5367 3.2141 -1.13617 0
M  V30 841 H 85.7297 1.86941 -2.34506 0
M  V30 842 H 83.2827 0.944676 -1.24521 0
M  V30 843 H 84.0177 3.23865 -0.167863 0
M  V30 844 H 83.8027 3.4109 -1.93391 0
M  V30 845 H 85.2927 4.01477 -1.14918 0
M  V30 846 N 85.7298 1.2412 0.971189 0
M  V30 847 C 86.9758 1.09048 1.71698 0
M  V30 848 C 87.3308 -0.367442 1.88859 0
M  V30 849 O 86.6238 -1.26792 1.43646 0
M  V30 850 C 86.8178 1.75983 3.11071 0
M  V30 851 C 86.6468 3.28133 3.07504 0
M  V30 852 C 85.4168 3.97331 3.1218 0
M  V30 853 C 87.6148 4.24773 2.89952 0
M  V30 854 N 85.5968 5.3639 2.98596 0
M  V30 855 C 86.9678 5.50806 2.84627 0
M  V30 856 C 89.0228 4.15392 2.74506 0
M  V30 857 C 87.7258 6.68533 2.65437 0
M  V30 858 C 89.7518 5.32793 2.56682 0
M  V30 859 C 89.1138 6.57756 2.52063 0
M  V30 860 H 85.2128 0.453632 0.636979 0
M  V30 861 H 87.7968 1.56983 1.15171 0
M  V30 862 H 85.9678 1.30566 3.65796 0
M  V30 863 H 87.6998 1.53803 3.74335 0
M  V30 864 H 84.4548 3.48473 3.20724 0
M  V30 865 H 84.8788 6.09321 2.95054 0
M  V30 866 H 89.5208 3.19543 2.76861 0
M  V30 867 H 87.2388 7.64509 2.61825 0
M  V30 868 H 90.8248 5.27383 2.4568 0
M  V30 869 H 89.7048 7.4707 2.38446 0
M  V30 870 N 87.2079 -1.17134 1.05439 0
M  V30 871 C 88.4329 -1.91913 0.786396 0
M  V30 872 C 88.8579 -1.7643 -0.652234 0
M  V30 873 O 88.2159 -1.08372 -1.45345 0
M  V30 874 C 88.2639 -3.40921 1.17497 0
M  V30 875 O 87.3679 -4.11244 0.308589 0
M  V30 876 H 86.7089 -0.598215 0.288158 0
M  V30 877 H 89.2389 -1.48457 1.4079 0
M  V30 878 H 89.2489 -3.91668 1.14281 0
M  V30 879 H 87.9239 -3.5151 2.22292 0
M  V30 880 H 86.5009 -3.70731 0.40157 0
M  V30 881 N 88.686 -0.835752 -1.33615 0
M  V30 882 C 89.616 -0.281739 -2.31794 0
M  V30 883 C 90.597 0.608833 -1.58831 0
M  V30 884 O 91.782 0.533035 -1.86741 0
M  V30 885 C 88.912 0.546612 -3.42971 0
M  V30 886 C 87.866 -0.247904 -4.27281 0
M  V30 887 C 87.192 0.704001 -5.30045 0
M  V30 888 C 88.492 -1.46324 -5.01385 0
M  V30 889 H 90.186 -1.10206 -2.78379 0
M  V30 890 H 87.732 -0.531388 -1.33837 0
M  V30 891 H 89.685 0.944467 -4.1068 0
M  V30 892 H 88.409 1.40011 -2.95067 0
M  V30 893 H 87.068 -0.627281 -3.61194 0
M  V30 894 H 86.716 1.55381 -4.78399 0
M  V30 895 H 86.416 0.176524 -5.87335 0
M  V30 896 H 87.94 1.09944 -6.0062 0
M  V30 897 H 89.354 -1.13871 -5.61877 0
M  V30 898 H 87.751 -1.92728 -5.6831 0
M  V30 899 H 88.821 -2.23467 -4.30338 0
M  V30 900 N 90.1641 1.46063 -0.591896 0
M  V30 901 C 91.4041 2.04228 -0.0838014 0
M  V30 902 C 91.7681 1.45231 1.25587 0
M  V30 903 O 92.9691 1.94653 1.85375 0
M  V30 904 C 91.2401 3.57389 -0.0286282 0
M  V30 905 S 92.7991 4.3678 0.420557 0
M  V30 906 H 89.6171 0.709762 -0.0419319 0
M  V30 907 H 92.2191 1.78983 -0.786465 0
M  V30 908 H 90.9231 3.97843 -1.00743 0
M  V30 909 H 90.4541 3.87185 0.69652 0
M  V30 910 H 92.4691 4.67131 1.67341 0
M  V30 911 N 91.6422 0.330177 1.54103 0
M  V30 912 C 92.6052 -0.520144 2.2322 0
M  V30 913 C 93.6052 -1.03828 1.22786 0
M  V30 914 O 94.7952 -0.929652 1.4732 0
M  V30 915 C 91.9272 -1.72317 2.94142 0
M  V30 916 H 93.1202 0.0841605 2.99782 0
M  V30 917 H 90.6732 0.0813433 1.56088 0
M  V30 918 H 91.4082 -2.36653 2.21734 0
M  V30 919 H 91.1932 -1.35898 3.67796 0
M  V30 920 H 92.6832 -2.3266 3.46784 0
M  V30 921 N 93.1203 -1.57491 0.0584922 0
M  V30 922 C 94.3663 -1.93264 -0.614558 0
M  V30 923 C 94.6993 -0.937717 -1.7006 0
M  V30 924 O 93.9743 0.0351652 -1.94468 0
M  V30 925 C 94.2573 -3.3938 -1.20386 0
M  V30 926 C 94.1103 -4.49625 -0.125375 0
M  V30 927 C 95.4293 -3.86039 -2.11334 0
M  V30 928 H 92.5483 -0.702791 -0.221933 0
M  V30 929 H 95.1903 -1.8961 0.12175 0
M  V30 930 H 93.3403 -3.42626 -1.83139 0
M  V30 931 H 95.0123 -4.58506 0.506971 0
M  V30 932 H 93.2553 -4.30354 0.545672 0
M  V30 933 H 93.9263 -5.48967 -0.577861 0
M  V30 934 H 96.4023 -3.84716 -1.58534 0
M  V30 935 H 95.2783 -4.88914 -2.49507 0
M  V30 936 H 95.5393 -3.23215 -3.01636 0
M  V30 937 N 94.5984 0.214957 -1.56127 0
M  V30 938 C 95.8464 0.936518 -1.79091 0
M  V30 939 C 96.1674 1.84606 -0.628148 0
M  V30 940 O 95.4374 1.92664 0.35462 0
M  V30 941 H 94.0174 0.3488 -0.660566 0
M  V30 942 H 96.6794 0.22523 -1.93594 0
M  V30 943 H 95.7754 1.53943 -2.71492 0
M  V30 944 N 96.0765 1.50051 0.48192 0
M  V30 945 C 97.0235 1.68122 1.58125 0
M  V30 946 C 97.9935 0.522545 1.57666 0
M  V30 947 O 99.1785 0.751844 1.75362 0
M  V30 948 C 96.3185 1.77142 2.96167 0
M  V30 949 C 95.4315 3.0444 3.06497 0
M  V30 950 C 94.5665 3.04321 4.35387 0
M  V30 951 C 93.6055 4.26118 4.3942 0
M  V30 952 N 92.7425 4.238 5.59766 0
M  V30 953 H 97.5825 2.6198 1.42022 0
M  V30 954 H 95.1195 1.29877 0.690687 0
M  V30 955 H 97.0775 1.80352 3.76203 0
M  V30 956 H 95.7075 0.867329 3.1093 0
M  V30 957 H 94.7595 3.10752 2.19402 0
M  V30 958 H 96.0715 3.94426 3.05336 0
M  V30 959 H 95.2255 3.062 5.23762 0
M  V30 960 H 93.9645 2.12147 4.39141 0
M  V30 961 H 92.9695 4.24463 3.49444 0
M  V30 962 H 94.1945 5.19507 4.37366 0
M  V30 963 H 92.1405 3.34474 5.64326 0
M  V30 964 H 92.0575 5.07542 5.60301 0
M  V30 965 H 93.3255 4.2981 6.50295 0
M  V30 966 N 97.5546 -0.734337 1.39446 0
M  V30 967 C 98.9706 -1.03997 1.21065 0
M  V30 968 C 99.1706 -2.01369 0.0727019 0
M  V30 969 O 98.2266 -2.45856 -0.575426 0
M  V30 970 C 99.5396 -1.60163 2.54496 0
M  V30 971 C 101.088 -1.7224 2.61347 0
M  V30 972 C 101.563 -2.31814 3.95002 0
M  V30 973 N 103.054 -2.39223 3.96644 0
M  V30 974 C 103.789 -2.86258 4.96834 0
M  V30 975 N 103.285 -3.33184 6.07421 0
M  V30 976 N 105.078 -2.85473 4.84213 0
M  V30 977 H 97.2286 -0.0885624 2.12215 0
M  V30 978 H 99.4916 -0.10191 0.942506 0
M  V30 979 H 99.1976 -0.960811 3.38321 0
M  V30 980 H 99.0716 -2.5896 2.74262 0
M  V30 981 H 101.459 -2.35443 1.77906 0
M  V30 982 H 101.54 -0.720939 2.4543 0
M  V30 983 H 101.184 -1.69238 4.78875 0
M  V30 984 H 101.114 -3.32638 4.08239 0
M  V30 985 H 103.605 -2.06057 3.16779 0
M  V30 986 H 103.918 -3.67586 6.7978 0
M  V30 987 H 102.263 -3.31191 6.11013 0
M  V30 988 H 105.454 -2.48136 3.96921 0
M  V30 989 H 105.627 -3.21814 5.62441 0
M  V30 990 N 99.0327 -1.24633 -0.964593 0
M  V30 991 C 99.9647 -0.999302 -2.06268 0
M  V30 992 C 100.978 0.0323226 -1.62768 0
M  V30 993 O 102.167 -0.205079 -1.77318 0
M  V30 994 C 99.2667 -0.486816 -3.35385 0
M  V30 995 C 98.4397 -1.5823 -4.07777 0
M  V30 996 C 97.4987 -1.07191 -5.15166 0
M  V30 997 O 96.5247 -1.76426 -5.41168 0
M  V30 998 N 97.7267 0.0920373 -5.80427 0
M  V30 999 H 100.492 -1.94477 -2.28033 0
M  V30 1000 H 98.0527 -1.15704 -1.13244 0
M  V30 1001 H 100.045 -0.130066 -4.04491 0
M  V30 1002 H 98.6147 0.364459 -3.10468 0
M  V30 1003 H 97.8347 -2.11109 -3.32906 0
M  V30 1004 H 99.1227 -2.31854 -4.52903 0
M  V30 1005 H 98.5207 0.670784 -5.61709 0
M  V30 1006 H 97.0777 0.389905 -6.50633 0
M  V30 1007 N 100.511 1.16574 -1.06058 0
M  V30 1008 C 101.736 1.91493 -0.796562 0
M  V30 1009 C 102.161 1.76773 0.642868 0
M  V30 1010 O 101.519 1.09142 1.44768 0
M  V30 1011 C 101.567 3.40293 -1.19303 0
M  V30 1012 O 100.671 4.11074 -0.330394 0
M  V30 1013 H 100.012 0.596678 -0.291326 0
M  V30 1014 H 102.542 1.47708 -1.41575 0
M  V30 1015 H 102.552 3.91057 -1.16356 0
M  V30 1016 H 101.227 3.50326 -2.24153 0
M  V30 1017 H 99.8038 3.70513 -0.421225 0
M  V30 1018 N 101.989 0.842826 1.3317 0
M  V30 1019 C 103.4 0.496651 1.79973 0
M  V30 1020 C 103.751 -0.984641 1.69703 0
M  V30 1021 O 102.876 -1.76743 1.24863 0
M  V30 1022 C 103.471 0.894727 3.26772 0
M  V30 1023 C 102.03 0.600629 3.71577 0
M  V30 1024 C 101.177 1.10091 2.5451 0
M  V30 1025 H 104.128 1.03116 1.20635 0
M  V30 1026 H 104.149 0.206347 3.7994 0
M  V30 1027 H 103.661 1.97287 3.34215 0
M  V30 1028 H 101.762 -0.467284 3.69658 0
M  V30 1029 H 101.875 1.15863 4.64879 0
M  V30 1030 H 100.239 0.52162 2.49301 0
M  V30 1031 H 101.022 2.18591 2.64713 0
M  V30 1032 N 103.467 -1.45747 0.599634 0
M  V30 1033 C 104.713 -2.02592 0.0918643 0
M  V30 1034 C 105.046 -1.46806 -1.27128 0
M  V30 1035 O 104.321 -0.639658 -1.83681 0
M  V30 1036 C 104.604 -3.60073 0.0443398 0
M  V30 1037 C 104.457 -4.26208 1.43759 0
M  V30 1038 C 105.776 -4.35309 -0.647608 0
M  V30 1039 H 102.895 -0.736175 0.034857 0
M  V30 1040 H 105.537 -1.73694 0.770081 0
M  V30 1041 H 103.687 -3.84823 -0.533224 0
M  V30 1042 H 105.359 -4.12668 2.06162 0
M  V30 1043 H 103.602 -3.84916 2.00056 0
M  V30 1044 H 104.273 -5.35069 1.35665 0
M  V30 1045 H 106.749 -4.15805 -0.156776 0
M  V30 1046 H 105.625 -5.45038 -0.649942 0
M  V30 1047 H 105.886 -4.07598 -1.71219 0
M  V30 1048 N 104.945 -0.338344 -1.53925 0
M  V30 1049 C 106.222 0.314774 -1.93051 0
M  V30 1050 C 106.602 1.68669 -1.26941 0
M  V30 1051 O 105.95 2.24636 -0.418445 0
M  V30 1052 C 106.16 0.392249 -3.46789 0
M  V30 1053 C 107.508 0.645554 -4.19664 0
M  V30 1054 O 108.532 0.474575 -3.53024 0
M  V30 1055 O 107.391 0.976408 -5.37707 0
M  V30 1056 H 104.485 0.182598 -0.80659 0
M  V30 1057 H 107.031 -0.389141 -1.65178 0
M  V30 1058 H 105.803 -0.570702 -3.87116 0
M  V30 1059 H 105.426 1.14316 -3.80812 0
M  V30 1060 N 106.423 1.57458 -0.0668435 0
M  V30 1061 C 107.669 1.93587 0.6043 0
M  V30 1062 C 108.002 0.946722 1.69561 0
M  V30 1063 O 107.277 -0.0248516 1.94484 0
M  V30 1064 C 107.56 3.40014 1.18585 0
M  V30 1065 C 107.413 4.49685 0.101529 0
M  V30 1066 C 108.732 3.87154 2.09284 0
M  V30 1067 H 105.851 0.703958 0.218202 0
M  V30 1068 H 108.493 1.89542 -0.131804 0
M  V30 1069 H 106.643 3.43592 1.81319 0
M  V30 1070 H 108.315 4.5823 -0.531279 0
M  V30 1071 H 106.558 4.30059 -0.568487 0
M  V30 1072 H 107.229 5.49266 0.54874 0
M  V30 1073 H 109.705 3.85551 1.56491 0
M  V30 1074 H 108.581 4.90231 2.46911 0
M  V30 1075 H 108.842 3.2481 2.99918 0
M  V30 1076 N 107.901 -0.206675 1.56239 0
M  V30 1077 C 108.811 -1.27686 1.96808 0
M  V30 1078 C 109.827 -1.50455 0.874035 0
M  V30 1079 O 111.003 -1.63295 1.17884 0
M  V30 1080 C 108.068 -2.60358 2.28942 0
M  V30 1081 C 107.129 -2.45762 3.51994 0
M  V30 1082 C 106.362 -3.72108 3.82585 0
M  V30 1083 O 106.585 -4.75776 3.14631 0
M  V30 1084 O 105.519 -3.6833 4.76043 0
M  V30 1085 H 109.345 -0.962593 2.88041 0
M  V30 1086 H 106.93 -0.410746 1.43643 0
M  V30 1087 H 108.812 -3.38687 2.50737 0
M  V30 1088 H 107.487 -2.91435 1.4088 0
M  V30 1089 H 106.394 -1.65584 3.35459 0
M  V30 1090 H 107.727 -2.19621 4.40486 0
M  V30 1091 N 109.379 -1.50304 -0.473955 0
M  V30 1092 C 110.309 -1.71886 -1.58042 0
M  V30 1093 C 111.29 -0.567799 -1.60344 0
M  V30 1094 O 112.475 -0.806623 -1.76656 0
M  V30 1095 C 109.605 -1.81036 -2.96384 0
M  V30 1096 C 108.559 -2.962 -3.08949 0
M  V30 1097 C 107.885 -2.9049 -4.48909 0
M  V30 1098 C 109.185 -4.36752 -2.86434 0
M  V30 1099 H 110.879 -2.64527 -1.40234 0
M  V30 1100 H 108.425 -1.27295 -0.673201 0
M  V30 1101 H 110.378 -1.94719 -3.73714 0
M  V30 1102 H 109.102 -0.850147 -3.15341 0
M  V30 1103 H 107.761 -2.82164 -2.3405 0
M  V30 1104 H 107.409 -1.92321 -4.64781 0
M  V30 1105 H 107.109 -3.67802 -4.58253 0
M  V30 1106 H 108.633 -3.06218 -5.28264 0
M  V30 1107 H 110.047 -4.5133 -3.53517 0
M  V30 1108 H 108.444 -5.15493 -3.07225 0
M  V30 1109 H 109.514 -4.49321 -1.82316 0
M  V30 1110 N 110.857 0.726932 -1.39834 0
M  V30 1111 C 111.804 1.841 -1.39197 0
M  V30 1112 C 112.774 1.642 -0.250502 0
M  V30 1113 O 113.959 1.85494 -0.446846 0
M  V30 1114 C 111.099 3.21697 -1.24919 0
M  V30 1115 C 110.212 3.53247 -2.48678 0
M  V30 1116 C 109.347 4.80289 -2.26928 0
M  V30 1117 C 108.386 5.04707 -3.4632 0
M  V30 1118 N 107.523 6.22956 -3.23836 0
M  V30 1119 H 112.363 1.83979 -2.34427 0
M  V30 1120 H 109.9 0.898876 -1.16442 0
M  V30 1121 H 111.858 4.01137 -1.1465 0
M  V30 1122 H 110.488 3.21076 -0.333153 0
M  V30 1123 H 109.54 2.68447 -2.69519 0
M  V30 1124 H 110.852 3.67205 -3.37582 0
M  V30 1125 H 110.006 5.67725 -2.13947 0
M  V30 1126 H 108.745 4.68519 -1.35431 0
M  V30 1127 H 107.75 4.1573 -3.5979 0
M  V30 1128 H 108.975 5.18357 -4.38729 0
M  V30 1129 H 106.921 6.12459 -2.35011 0
M  V30 1130 H 106.838 6.37539 -4.063 0
M  V30 1131 H 108.106 7.1321 -3.14566 0
M  V30 1132 N 112.336 1.25143 0.95797 0
M  V30 1133 C 113.752 1.01892 1.22842 0
M  V30 1134 C 113.952 -0.266311 1.99732 0
M  V30 1135 O 113.008 -0.979913 2.3271 0
M  V30 1136 C 114.321 2.24004 2.00606 0
M  V30 1137 C 115.869 2.28731 2.13662 0
M  V30 1138 C 116.344 3.5049 2.94823 0
M  V30 1139 N 117.835 3.50866 3.02403 0
M  V30 1140 C 118.57 4.4174 3.65586 0
M  V30 1141 N 118.066 5.42882 4.30408 0
M  V30 1142 N 119.859 4.29429 3.62694 0
M  V30 1143 H 112.01 2.07718 0.443493 0
M  V30 1144 H 114.273 0.912031 0.258657 0
M  V30 1145 H 113.979 3.17395 1.51503 0
M  V30 1146 H 113.853 2.26907 3.01319 0
M  V30 1147 H 116.24 1.35865 2.61963 0
M  V30 1148 H 116.321 2.29848 1.12265 0
M  V30 1149 H 115.965 4.43676 2.47213 0
M  V30 1150 H 115.895 3.46617 3.96439 0
M  V30 1151 H 118.386 2.777 2.56302 0
M  V30 1152 H 118.699 6.0844 4.76467 0
M  V30 1153 H 117.044 5.46758 4.29047 0
M  V30 1154 H 120.235 3.49643 3.11236 0
M  V30 1155 H 120.408 5.00448 4.1165 0
M  V30 1156 N 113.814 -1.1601 1.06675 0
M  V30 1157 C 115.06 -1.86909 0.786945 0
M  V30 1158 C 115.393 -1.81717 -0.685018 0
M  V30 1159 O 114.668 -1.23551 -1.50218 0
M  V30 1160 C 114.951 -3.36313 1.28707 0
M  V30 1161 C 114.804 -3.50175 2.82308 0
M  V30 1162 C 116.123 -4.3084 0.898071 0
M  V30 1163 H 113.242 -0.678677 0.287343 0
M  V30 1164 H 115.884 -1.36336 1.32334 0
M  V30 1165 H 114.034 -3.79513 0.830768 0
M  V30 1166 H 115.706 -3.15886 3.36175 0
M  V30 1167 H 113.949 -2.91959 3.20847 0
M  V30 1168 H 114.62 -4.55116 3.12368 0
M  V30 1169 H 117.096 -3.95561 1.29114 0
M  V30 1170 H 115.972 -5.33876 1.27543 0
M  V30 1171 H 116.233 -4.41662 -0.196651 0
M  V30 1172 N 115.292 -0.849877 -1.32721 0
M  V30 1173 C 116.222 -0.306308 -2.31482 0
M  V30 1174 C 117.203 0.591952 -1.59468 0
M  V30 1175 O 118.388 0.513199 -1.87296 0
M  V30 1176 C 115.518 0.510204 -3.43532 0
M  V30 1177 C 114.472 -0.293209 -4.26994 0
M  V30 1178 C 113.798 0.647743 -5.30762 0
M  V30 1179 C 115.098 -1.51634 -4.99804 0
M  V30 1180 H 116.792 -1.13153 -2.77195 0
M  V30 1181 H 114.338 -0.545553 -1.33266 0
M  V30 1182 H 116.291 0.900856 -4.11658 0
M  V30 1183 H 115.015 1.36874 -2.96535 0
M  V30 1184 H 113.674 -0.665555 -3.60508 0
M  V30 1185 H 113.322 1.50299 -4.8002 0
M  V30 1186 H 113.022 0.11422 -5.87489 0
M  V30 1187 H 114.546 1.03567 -6.01753 0
M  V30 1188 H 115.96 -1.19824 -5.60638 0
M  V30 1189 H 114.357 -1.98745 -5.66234 0
M  V30 1190 H 115.427 -2.28018 -4.27943 0
M  V30 1191 N 116.77 1.45427 -0.607355 0
M  V30 1192 C 118 2.06314 -0.108656 0
M  V30 1193 C 118.408 1.45269 1.21217 0
M  V30 1194 O 117.751 0.561115 1.74921 0
M  V30 1195 C 117.813 3.59345 0.105618 0
M  V30 1196 C 117.477 4.42723 -1.13337 0
M  V30 1197 C 118.474 4.77715 -2.05145 0
M  V30 1198 C 116.159 4.83478 -1.36213 0
M  V30 1199 C 118.153 5.52317 -3.18158 0
M  V30 1200 C 115.84 5.57835 -2.49527 0
M  V30 1201 C 116.838 5.92171 -3.40327 0
M  V30 1202 O 116.526 6.65019 -4.51669 0
M  V30 1203 H 116.258 0.672782 -0.0658842 0
M  V30 1204 H 118.812 1.87664 -0.834945 0
M  V30 1205 H 117.042 3.76394 0.886796 0
M  V30 1206 H 118.731 4.02076 0.555886 0
M  V30 1207 H 119.497 4.46787 -1.88697 0
M  V30 1208 H 115.376 4.56188 -0.664362 0
M  V30 1209 H 118.92 5.79036 -3.89054 0
M  V30 1210 H 114.817 5.88177 -2.65928 0
M  V30 1211 H 115.585 6.83469 -4.50348 0
M  V30 1212 N 118.248 0.346503 1.53744 0
M  V30 1213 C 119.525 -0.304532 1.93215 0
M  V30 1214 C 119.905 -1.67993 1.27834 0
M  V30 1215 O 119.253 -2.24411 0.430352 0
M  V30 1216 C 119.463 -0.373852 3.46992 0
M  V30 1217 C 120.811 -0.62329 4.2 0
M  V30 1218 O 121.835 -0.455847 3.53271 0
M  V30 1219 O 120.694 -0.947879 5.38217 0
M  V30 1220 H 117.788 -0.178318 0.807547 0
M  V30 1221 H 120.334 0.397895 1.64969 0
M  V30 1222 H 119.106 0.591224 3.86808 0
M  V30 1223 H 118.729 -1.12294 3.81413 0
M  V30 1224 N 119.726 -1.57421 0.075193 0
M  V30 1225 C 121.137 -1.81021 -0.456964 0
M  V30 1226 C 121.488 -0.98936 -1.69429 0
M  V30 1227 O 120.613 -0.212865 -2.15351 0
M  V30 1228 C 121.208 -3.28329 -0.83581 0
M  V30 1229 C 119.767 -3.52764 -1.31281 0
M  V30 1230 C 118.914 -2.75676 -0.299648 0
M  V30 1231 H 121.865 -1.55822 0.300856 0
M  V30 1232 H 121.886 -3.40564 -1.69696 0
M  V30 1233 H 121.398 -3.88046 0.0649238 0
M  V30 1234 H 119.499 -2.98355 -2.23193 0
M  V30 1235 H 119.612 -4.61451 -1.28839 0
M  V30 1236 H 117.976 -2.42538 -0.777641 0
M  V30 1237 H 118.759 -3.38132 0.593417 0
M  V30 1238 N 121.204 0.198386 -1.56346 0
M  V30 1239 C 122.451 0.919286 -1.80431 0
M  V30 1240 C 122.779 1.83393 -0.647866 0
M  V30 1241 O 122.034 1.92236 0.366556 0
M  V30 1242 C 122.333 1.77031 -3.10475 0
M  V30 1243 C 121.999 1.00693 -4.39513 0
M  V30 1244 C 120.661 0.796145 -4.74568 0
M  V30 1245 C 123.013 0.469559 -5.19081 0
M  V30 1246 C 120.341 0.0364588 -5.86689 0
M  V30 1247 C 122.693 -0.2769 -6.31994 0
M  V30 1248 C 121.357 -0.49873 -6.65634 0
M  V30 1249 H 120.627 0.336391 -0.660244 0
M  V30 1250 H 123.274 0.185872 -1.90596 0
M  V30 1251 H 121.579 2.5723 -2.95533 0
M  V30 1252 H 123.276 2.33065 -3.26315 0
M  V30 1253 H 119.866 1.18122 -4.12001 0
M  V30 1254 H 124.05 0.619816 -4.92414 0
M  V30 1255 H 119.306 -0.145412 -6.11227 0
M  V30 1256 H 123.48 -0.700684 -6.92866 0
M  V30 1257 H 121.107 -1.0893 -7.52355 0
M  V30 1258 N 122.682 1.50554 0.465978 0
M  V30 1259 C 123.612 1.72722 1.57128 0
M  V30 1260 C 124.593 0.576294 1.6004 0
M  V30 1261 O 125.778 0.81598 1.76225 0
M  V30 1262 C 122.908 1.82605 2.95419 0
M  V30 1263 C 121.862 2.97835 3.07373 0
M  V30 1264 C 121.188 2.92867 4.47363 0
M  V30 1265 C 122.488 4.38265 2.84114 0
M  V30 1266 H 124.182 2.65267 1.38829 0
M  V30 1267 H 121.728 1.2765 0.666441 0
M  V30 1268 H 123.681 1.96698 3.72677 0
M  V30 1269 H 122.405 0.866858 3.14886 0
M  V30 1270 H 121.064 2.83401 2.3255 0
M  V30 1271 H 120.712 1.94783 4.63755 0
M  V30 1272 H 120.412 3.70227 4.56296 0
M  V30 1273 H 121.936 3.09015 5.26633 0
M  V30 1274 H 123.35 4.53198 3.51118 0
M  V30 1275 H 121.747 5.17115 3.04487 0
M  V30 1276 H 122.817 4.50281 1.7993 0
M  V30 1277 N 124.16 -0.719506 1.40217 0
M  V30 1278 C 125.571 -1.29848 1.34151 0
M  V30 1279 C 125.922 -1.96196 0.0131349 0
M  V30 1280 O 125.047 -1.973 -0.88892 0
M  V30 1281 C 125.642 -2.36118 2.42968 0
M  V30 1282 C 124.201 -2.8965 2.40374 0
M  V30 1283 C 123.348 -1.63393 2.24049 0
M  V30 1284 H 126.299 -0.51591 1.5008 0
M  V30 1285 H 126.32 -3.16871 2.10649 0
M  V30 1286 H 125.832 -1.878 3.39636 0
M  V30 1287 H 123.933 -3.42208 1.47392 0
M  V30 1288 H 124.046 -3.4171 3.35814 0
M  V30 1289 H 122.41 -1.88312 1.71495 0
M  V30 1290 H 123.193 -1.17104 3.2271 0
M  V30 1291 N 125.638 -1.25649 -0.95132 0
M  V30 1292 C 127.049 -1.09654 -1.51106 0
M  V30 1293 C 127.4 0.326615 -1.93462 0
M  V30 1294 O 126.525 1.21697 -1.78938 0
M  V30 1295 C 127.12 -1.98437 -2.74605 0
M  V30 1296 C 125.679 -1.86618 -3.2688 0
M  V30 1297 C 124.826 -1.9239 -1.99703 0
M  V30 1298 H 127.777 -1.38887 -0.767865 0
M  V30 1299 H 127.798 -1.5263 -3.48546 0
M  V30 1300 H 127.31 -3.02009 -2.43746 0
M  V30 1301 H 125.411 -0.859421 -3.62553 0
M  V30 1302 H 125.524 -2.71607 -3.94673 0
M  V30 1303 H 123.888 -1.36317 -2.15151 0
M  V30 1304 H 124.671 -2.97573 -1.71188 0
M  V30 1305 N 127.117 1.15442 -1.07289 0
M  V30 1306 C 128.047 2.22312 -0.714107 0
M  V30 1307 C 129.028 1.67467 0.298155 0
M  V30 1308 O 130.213 1.93445 0.171048 0
M  V30 1309 C 127.343 3.47124 -0.110448 0
M  V30 1310 C 126.297 4.14926 -1.04979 0
M  V30 1311 C 125.623 5.33807 -0.308924 0
M  V30 1312 C 126.923 4.64762 -2.38314 0
M  V30 1313 H 128.617 2.5258 -1.6076 0
M  V30 1314 H 126.163 1.21404 -0.77441 0
M  V30 1315 H 128.116 4.21124 0.152482 0
M  V30 1316 H 126.84 3.16187 0.81812 0
M  V30 1317 H 125.499 3.42866 -1.29764 0
M  V30 1318 H 125.147 4.99126 0.623084 0
M  V30 1319 H 124.847 5.80113 -0.935036 0
M  V30 1320 H 126.371 6.10576 -0.0537771 0
M  V30 1321 H 127.785 5.30292 -2.1786 0
M  V30 1322 H 126.182 5.21728 -2.96514 0
M  V30 1323 H 127.252 3.80434 -3.00663 0
M  V30 1324 N 128.595 0.856903 1.32268 0
M  V30 1325 C 130.011 0.547061 1.49931 0
M  V30 1326 C 130.211 -0.921781 1.7918 0
M  V30 1327 O 129.267 -1.70469 1.8627 0
M  V30 1328 C 130.58 1.43599 2.64196 0
M  V30 1329 C 132.128 1.43665 2.78081 0
M  V30 1330 C 132.603 2.31085 3.95428 0
M  V30 1331 N 134.094 2.28893 4.02694 0
M  V30 1332 C 134.829 2.93262 4.92732 0
M  V30 1333 N 134.325 3.66751 5.87763 0
M  V30 1334 N 136.118 2.82638 4.85873 0
M  V30 1335 H 128.269 1.8075 1.11549 0
M  V30 1336 H 130.532 0.772144 0.549997 0
M  V30 1337 H 130.238 2.48058 2.49319 0
M  V30 1338 H 130.112 1.12502 3.60032 0
M  V30 1339 H 132.499 0.399701 2.92381 0
M  V30 1340 H 132.58 1.7878 1.82952 0
M  V30 1341 H 132.224 3.34849 3.81888 0
M  V30 1342 H 132.154 1.93302 4.89839 0
M  V30 1343 H 134.645 1.75466 3.34694 0
M  V30 1344 H 134.958 4.13027 6.53168 0
M  V30 1345 H 133.303 3.70859 5.87783 0
M  V30 1346 H 136.494 2.24774 4.10602 0
M  V30 1347 H 136.667 3.33084 5.55841 0
M  V30 1348 N 130.073 -1.45103 0.615059 0
M  V30 1349 C 131.003 -2.33339 -0.0865619 0
M  V30 1350 C 131.984 -1.4727 -0.851209 0
M  V30 1351 O 133.169 -1.76026 -0.820281 0
M  V30 1352 C 130.299 -3.30095 -1.07956 0
M  V30 1353 C 129.253 -4.25858 -0.427628 0
M  V30 1354 C 128.579 -5.12361 -1.5294 0
M  V30 1355 C 129.879 -5.18165 0.655944 0
M  V30 1356 H 131.573 -2.92254 0.650224 0
M  V30 1357 H 129.119 -1.40532 0.314138 0
M  V30 1358 H 131.072 -3.90698 -1.57901 0
M  V30 1359 H 129.796 -2.69355 -1.84703 0
M  V30 1360 H 128.455 -3.66564 0.0510292 0
M  V30 1361 H 128.103 -4.47984 -2.28734 0
M  V30 1362 H 127.803 -5.77238 -1.09865 0
M  V30 1363 H 129.327 -5.75833 -2.03098 0
M  V30 1364 H 130.741 -5.72796 0.240257 0
M  V30 1365 H 129.138 -5.91559 1.00888 0
M  V30 1366 H 130.208 -4.60144 1.52957 0
M  V30 1367 N 131.551 -0.354651 -1.53558 0
M  V30 1368 C 132.776 0.242153 -2.05981 0
M  V30 1369 C 133.201 1.42553 -1.2272 0
M  V30 1370 O 132.559 1.79656 -0.243604 0
M  V30 1371 C 132.607 0.624367 -3.55154 0
M  V30 1372 O 131.711 1.72301 -3.74681 0
M  V30 1373 H 131.052 0.0378432 -0.662921 0
M  V30 1374 H 133.582 -0.512087 -1.98088 0
M  V30 1375 H 133.592 0.898433 -3.97985 0
M  V30 1376 H 132.267 -0.240989 -4.15201 0
M  V30 1377 H 130.844 1.44535 -3.4375 0
M  V30 1378 N 133.029 1.57378 -0.0835403 0
M  V30 1379 C 134.257 1.98263 0.59157 0
M  V30 1380 C 134.672 0.962302 1.62435 0
M  V30 1381 O 134.029 -0.049581 1.82433 0
M  V30 1382 C 134.08 3.39214 1.24965 0
M  V30 1383 O 133.801 4.37339 0.258186 0
M  V30 1384 C 135.302 3.95038 2.01147 0
M  V30 1385 H 132.522 0.651773 0.159477 0
M  V30 1386 H 135.066 2.03878 -0.159415 0
M  V30 1387 H 133.221 3.34649 1.95164 0
M  V30 1388 H 133.635 5.19371 0.731734 0
M  V30 1389 H 135.109 4.95848 2.42567 0
M  V30 1390 H 135.586 3.32222 2.87272 0
M  V30 1391 H 136.192 4.0304 1.35789 0
M  V30 1392 N 134.507 -0.190092 1.56449 0
M  V30 1393 C 135.755 -0.907908 1.80559 0
M  V30 1394 C 136.076 -1.83583 0.657438 0
M  V30 1395 O 135.346 -1.93203 -0.323924 0
M  V30 1396 H 133.926 -0.338247 0.666032 0
M  V30 1397 H 136.588 -0.194403 1.93928 0
M  V30 1398 H 135.684 -1.49604 2.73907 0
M  V30 1399 N 135.985 -1.50799 -0.457987 0
M  V30 1400 C 137.233 -1.62121 -1.2067 0
M  V30 1401 C 137.554 -0.329793 -1.92191 0
M  V30 1402 O 136.824 0.653409 -1.84682 0
M  V30 1403 H 135.404 -0.597441 -0.448411 0
M  V30 1404 H 138.066 -1.87637 -0.527096 0
M  V30 1405 H 137.162 -2.43882 -1.94751 0
M  V30 1406 N 137.463 0.71206 -1.40597 0
M  V30 1407 C 138.373 1.8562 -1.43466 0
M  V30 1408 C 139.389 1.70902 -0.326902 0
M  V30 1409 O 140.565 1.93105 -0.572043 0
M  V30 1410 C 137.63 3.21451 -1.29884 0
M  V30 1411 C 136.691 3.48398 -2.50833 0
M  V30 1412 C 135.924 4.77749 -2.3789 0
M  V30 1413 O 136.147 5.53089 -1.39459 0
M  V30 1414 O 135.081 5.05111 -3.27333 0
M  V30 1415 H 138.907 1.86155 -2.39958 0
M  V30 1416 H 136.492 0.86295 -1.21957 0
M  V30 1417 H 138.374 4.02579 -1.24531 0
M  V30 1418 H 137.049 3.21636 -0.364997 0
M  V30 1419 H 135.956 2.67265 -2.61763 0
M  V30 1420 H 137.289 3.53014 -3.4299 0
M  V30 1421 N 138.941 1.26152 0.944643 0
M  V30 1422 C 139.888 1.07408 2.04285 0
M  V30 1423 C 140.858 -0.0198413 1.66088 0
M  V30 1424 O 142.043 0.139264 1.90291 0
M  V30 1425 C 139.183 0.70945 3.37729 0
M  V30 1426 C 138.296 1.87926 3.88983 0
M  V30 1427 C 137.431 1.45807 5.10797 0
M  V30 1428 C 136.47 2.5964 5.54305 0
M  V30 1429 N 135.607 2.18226 6.67324 0
M  V30 1430 H 140.447 2.01389 2.1965 0
M  V30 1431 H 137.984 1.00275 1.07626 0
M  V30 1432 H 139.942 0.478948 4.14442 0
M  V30 1433 H 138.572 -0.193389 3.2222 0
M  V30 1434 H 137.624 2.22279 3.08701 0
M  V30 1435 H 138.936 2.73377 4.17213 0
M  V30 1436 H 138.09 1.18781 5.94959 0
M  V30 1437 H 136.829 0.574414 4.84305 0
M  V30 1438 H 135.834 2.87399 4.68702 0
M  V30 1439 H 137.059 3.48599 5.828 0
M  V30 1440 H 135.005 1.3229 6.42523 0
M  V30 1441 H 134.922 2.97221 6.95123 0
M  V30 1442 H 136.19 1.94403 7.54869 0
M  V30 1443 N 140.419 -1.14872 1.07899 0
M  V30 1444 C 141.349 -2.2193 0.725887 0
M  V30 1445 C 142.33 -1.67622 -0.28927 0
M  V30 1446 O 143.515 -1.93533 -0.160787 0
M  V30 1447 C 140.645 -3.47061 0.128856 0
M  V30 1448 C 139.599 -4.14363 1.07178 0
M  V30 1449 C 138.925 -5.33636 0.337229 0
M  V30 1450 C 140.225 -4.63492 2.40775 0
M  V30 1451 H 141.919 -2.51724 1.62097 0
M  V30 1452 H 139.465 -1.20991 0.780838 0
M  V30 1453 H 141.418 -4.21199 -0.130147 0
M  V30 1454 H 140.142 -3.16617 -0.80134 0
M  V30 1455 H 138.801 -3.42173 1.3158 0
M  V30 1456 H 138.449 -4.99449 -0.596606 0
M  V30 1457 H 138.149 -5.79609 0.965788 0
M  V30 1458 H 139.673 -6.10539 0.0861567 0
M  V30 1459 H 141.087 -5.2913 2.20669 0
M  V30 1460 H 139.484 -5.20148 2.99276 0
M  V30 1461 H 140.554 -3.78834 3.02676 0
M  V30 1462 N 141.898 -0.863906 -1.31812 0
M  V30 1463 C 143.314 -0.555004 -1.49639 0
M  V30 1464 C 143.514 0.912266 -1.79666 0
M  V30 1465 O 142.57 1.69479 -1.87171 0
M  V30 1466 C 143.883 -1.44998 -2.63431 0
M  V30 1467 C 145.431 -1.45138 -2.77316 0
M  V30 1468 C 145.906 -2.33179 -3.94197 0
M  V30 1469 N 147.397 -2.31025 -4.01474 0
M  V30 1470 C 148.132 -2.95871 -4.9117 0
M  V30 1471 N 147.628 -3.69863 -5.8581 0
M  V30 1472 N 149.421 -2.85211 -4.84367 0
M  V30 1473 H 141.572 -1.81339 -1.10589 0
M  V30 1474 H 143.835 -0.77505 -0.545895 0
M  V30 1475 H 143.541 -2.49377 -2.48 0
M  V30 1476 H 143.415 -1.14409 -3.59431 0
M  V30 1477 H 145.802 -0.415201 -2.92164 0
M  V30 1478 H 145.883 -1.79747 -1.82001 0
M  V30 1479 H 145.527 -3.3687 -3.80107 0
M  V30 1480 H 145.457 -1.95897 -4.88807 0
M  V30 1481 H 147.948 -1.77238 -3.33759 0
M  V30 1482 H 148.261 -4.16486 -6.50968 0
M  V30 1483 H 146.606 -3.73971 -5.85808 0
M  V30 1484 H 149.797 -2.26948 -4.09405 0
M  V30 1485 H 149.97 -3.36027 -5.54066 0
M  V30 1486 N 143.376 1.44774 -0.622745 0
M  V30 1487 C 144.624 2.01721 -0.123655 0
M  V30 1488 C 144.945 1.49172 1.25589 0
M  V30 1489 O 144.215 0.691974 1.83272 0
M  V30 1490 H 142.795 0.745777 -0.0427225 0
M  V30 1491 H 145.457 1.77382 -0.807559 0
M  V30 1492 H 144.553 3.11984 -0.0849534 0
M  V30 1493 N 144.854 0.36279 1.53368 0
M  V30 1494 C 146.082 -0.228613 2.05633 0
M  V30 1495 C 146.497 -1.42676 1.23649 0
M  V30 1496 O 145.854 -1.80394 0.27647 0
M  V30 1497 C 145.905 -0.624845 3.56059 0
M  V30 1498 O 145.626 0.525675 4.34935 0
M  V30 1499 C 147.127 -1.27493 4.24571 0
M  V30 1500 H 144.347 -0.0407183 0.669763 0
M  V30 1501 H 146.891 0.520352 1.97769 0
M  V30 1502 H 145.046 -1.32373 3.64083 0
M  V30 1503 H 145.46 0.205969 5.24095 0
M  V30 1504 H 146.934 -1.50277 5.31151 0
M  V30 1505 H 147.411 -2.23439 3.78116 0
M  V30 1506 H 148.017 -0.617558 4.20792 0
M  V30 1507 N 146.332 -1.57332 0.0918853 0
M  V30 1508 C 147.262 -2.16872 -0.865371 0
M  V30 1509 C 148.243 -1.10118 -1.29646 0
M  V30 1510 O 149.428 -1.38242 -1.36392 0
M  V30 1511 C 146.558 -2.74649 -2.12569 0
M  V30 1512 C 145.512 -3.86747 -1.83333 0
M  V30 1513 C 144.838 -4.31212 -3.16166 0
M  V30 1514 C 146.138 -5.10089 -1.1228 0
M  V30 1515 H 147.832 -2.97114 -0.369307 0
M  V30 1516 H 145.378 -1.42918 -0.176194 0
M  V30 1517 H 147.331 -3.14952 -2.7997 0
M  V30 1518 H 146.055 -1.91657 -2.64452 0
M  V30 1519 H 144.714 -3.46978 -1.18331 0
M  V30 1520 H 144.362 -3.45115 -3.6593 0
M  V30 1521 H 144.062 -5.06788 -2.97388 0
M  V30 1522 H 145.586 -4.74146 -3.84731 0
M  V30 1523 H 147 -5.47582 -1.69785 0
M  V30 1524 H 145.397 -5.91073 -1.03693 0
M  V30 1525 H 146.467 -4.84786 -0.105041 0
M  V30 1526 N 147.81 0.181792 -1.56548 0
M  V30 1527 C 149.04 0.914618 -1.85252 0
M  V30 1528 C 149.448 1.76791 -0.673914 0
M  V30 1529 O 148.791 1.80009 0.366416 0
M  V30 1530 C 148.853 1.85019 -3.08234 0
M  V30 1531 C 148.517 1.17754 -4.41569 0
M  V30 1532 C 149.514 0.548035 -5.17003 0
M  V30 1533 C 147.199 1.17742 -4.88305 0
M  V30 1534 C 149.193 -0.0726128 -6.37359 0
M  V30 1535 C 146.88 0.552946 -6.08593 0
M  V30 1536 C 147.878 -0.070978 -6.82963 0
M  V30 1537 O 147.566 -0.685635 -8.00971 0
M  V30 1538 H 147.298 0.271695 -0.618998 0
M  V30 1539 H 149.852 0.189944 -2.0452 0
M  V30 1540 H 148.082 2.61491 -2.84885 0
M  V30 1541 H 149.771 2.45195 -3.23472 0
M  V30 1542 H 150.537 0.540174 -4.81982 0
M  V30 1543 H 146.416 1.65246 -4.30366 0
M  V30 1544 H 149.96 -0.560213 -6.95347 0
M  V30 1545 H 145.857 0.558354 -6.43081 0
M  V30 1546 H 146.625 -0.58385 -8.16415 0
M  V30 1547 N 149.288 1.51039 0.449983 0
M  V30 1548 C 150.236 1.71995 1.5659 0
M  V30 1549 C 151.23 0.586029 1.5894 0
M  V30 1550 O 152.436 0.76709 1.62837 0
M  V30 1551 H 148.811 0.543233 0.520001 0
M  V30 1552 H 150.782 2.65562 1.36085 0
M  V30 1553 C 149.531 1.8506 2.9436 0
M  V30 1554 H 148.854 2.71712 2.93279 0
M  V30 1555 H 150.294 2.0374 3.71842 0
M  V30 1556 C 148.753 0.607277 3.31382 0
M  V30 1557 O 149.283 -0.243903 4.00959 0
M  V30 1558 N 147.489 0.455073 2.87015 0
M  V30 1559 H 147.036 1.14879 2.30566 0
M  V30 1560 H 146.994 -0.375611 3.12148 0
M  V30 1561 N 150.766 -0.704594 1.40972 0
M  V30 1562 C 151.994 -1.49354 1.43182 0
M  V30 1563 C 152.409 -1.88768 0.0345508 0
M  V30 1564 O 151.766 -1.56184 -0.944081 0
M  V30 1565 C 151.817 -2.76187 2.33244 0
M  V30 1566 O 151.538 -2.38436 3.67532 0
M  V30 1567 C 153.039 -3.7 2.44162 0
M  V30 1568 H 150.259 -0.460559 0.487982 0
M  V30 1569 H 152.803 -0.868261 1.85153 0
M  V30 1570 H 150.958 -3.34974 1.94606 0
M  V30 1571 H 151.372 -3.20126 4.15475 0
M  V30 1572 H 152.846 -4.55803 3.11364 0
M  V30 1573 H 153.323 -4.13867 1.47006 0
M  V30 1574 H 153.929 -3.17121 2.83398 0
M  V30 1575 N 152.244 -1.26651 -0.937939 0
M  V30 1576 C 153.492 -1.12165 -1.68118 0
M  V30 1577 C 153.813 0.334983 -1.92101 0
M  V30 1578 O 153.083 1.23583 -1.52 0
M  V30 1579 H 151.663 -0.412093 -0.623048 0
M  V30 1580 H 154.325 -1.59027 -1.12678 0
M  V30 1581 H 153.421 -1.64289 -2.6536 0
M  V30 1582 N 153.722 1.14298 -1.08507 0
M  V30 1583 C 155.138 1.37347 -0.812901 0
M  V30 1584 C 155.338 1.93052 0.577325 0
M  V30 1585 O 154.394 2.14389 1.33393 0
M  V30 1586 C 155.707 2.33359 -1.89642 0
M  V30 1587 C 157.255 2.46996 -1.92255 0
M  V30 1588 C 157.73 3.46309 -2.99724 0
M  V30 1589 N 159.221 3.53853 -2.98902 0
M  V30 1590 C 159.956 4.3055 -3.787 0
M  V30 1591 N 159.452 5.10482 -4.6838 0
M  V30 1592 N 161.245 4.25757 -3.66998 0
M  V30 1593 H 153.396 0.764867 -1.9815 0
M  V30 1594 H 155.659 0.398966 -0.859959 0
M  V30 1595 H 155.365 1.99565 -2.89597 0
M  V30 1596 H 155.239 3.33274 -1.76659 0
M  V30 1597 H 157.626 2.80081 -0.929445 0
M  V30 1598 H 157.707 1.47039 -2.09316 0
M  V30 1599 H 157.351 3.13957 -3.99241 0
M  V30 1600 H 157.281 4.46049 -2.79907 0
M  V30 1601 H 159.772 2.96812 -2.33904 0
M  V30 1602 H 160.085 5.66284 -5.25873 0
M  V30 1603 H 158.43 5.09747 -4.72422 0
M  V30 1604 H 161.621 3.62383 -2.96304 0
M  V30 1605 H 161.794 4.85279 -4.29427 0
M  V30 1606 N 155.201 0.870884 1.31352 0
M  V30 1607 C 156.151 0.298889 2.26032 0
M  V30 1608 C 157.135 -0.564595 1.50669 0
M  V30 1609 O 158.327 -0.411323 1.72154 0
M  V30 1610 C 155.456 -0.497842 3.39671 0
M  V30 1611 C 154.542 0.378937 4.22404 0
M  V30 1612 N 154.933 1.47284 4.83881 0
M  V30 1613 C 153.231 0.171535 4.4567 0
M  V30 1614 C 153.932 2.01359 5.45738 0
M  V30 1615 N 152.908 1.31047 5.27568 0
M  V30 1616 H 156.71 1.13494 2.71102 0
M  V30 1617 H 154.224 0.718745 1.45629 0
M  V30 1618 H 156.221 -0.924155 4.06528 0
M  V30 1619 H 154.881 -1.33149 2.96144 0
M  V30 1620 H 155.892 1.85575 4.8351 0
M  V30 1621 H 152.569 -0.626091 4.12779 0
M  V30 1622 H 153.959 2.93143 6.0458 0
M  V30 1623 N 156.679 -1.44442 0.630414 0
M  V30 1624 C 157.925 -2.02351 0.134816 0
M  V30 1625 C 158.258 -1.4947 -1.23986 0
M  V30 1626 O 157.533 -0.678475 -1.82283 0
M  V30 1627 C 157.816 -3.59898 0.120707 0
M  V30 1628 C 157.669 -4.23063 1.52767 0
M  V30 1629 C 158.988 -4.36585 -0.555127 0
M  V30 1630 H 156.107 -0.73527 0.0504646 0
M  V30 1631 H 158.749 -1.72022 0.806751 0
M  V30 1632 H 156.899 -3.85868 -0.451477 0
M  V30 1633 H 158.571 -4.08202 2.14869 0
M  V30 1634 H 156.814 -3.80586 2.08175 0
M  V30 1635 H 157.485 -5.32071 1.46984 0
M  V30 1636 H 159.961 -4.16044 -0.0685429 0
M  V30 1637 H 158.837 -5.46294 -0.534185 0
M  V30 1638 H 159.098 -4.11138 -1.62535 0
M  V30 1639 N 158.157 -0.370918 -1.53173 0
M  V30 1640 C 159.382 0.220293 -2.06227 0
M  V30 1641 C 159.807 1.41243 -1.24225 0
M  V30 1642 O 159.165 1.79387 -0.262645 0
M  V30 1643 C 159.213 0.586663 -3.55796 0
M  V30 1644 O 158.317 1.68317 -3.76488 0
M  V30 1645 H 157.658 0.0308099 -0.663285 0
M  V30 1646 H 160.188 -0.533068 -1.97534 0
M  V30 1647 H 160.198 0.85617 -3.98916 0
M  V30 1648 H 158.873 -0.285013 -4.14922 0
M  V30 1649 H 157.45 1.40881 -3.45264 0
M  V30 1650 N 159.635 1.57281 -0.100228 0
M  V30 1651 C 160.882 1.94537 0.562268 0
M  V30 1652 C 161.21 0.982315 1.67871 0
M  V30 1653 O 160.465 0.00280936 1.957 0
M  V30 1654 C 160.764 3.38305 1.15259 0
M  V30 1655 C 160.43 4.50618 0.159409 0
M  V30 1656 C 159.092 4.81066 -0.113741 0
M  V30 1657 C 161.444 5.18615 -0.518461 0
M  V30 1658 C 158.772 5.76835 -1.07137 0
M  V30 1659 C 161.124 6.15412 -1.46459 0
M  V30 1660 C 159.788 6.44262 -1.74592 0
M  V30 1661 H 159.058 0.711863 0.205748 0
M  V30 1662 H 161.705 1.90679 -0.17715 0
M  V30 1663 H 160.01 3.38766 1.96836 0
M  V30 1664 H 161.707 3.64435 1.67297 0
M  V30 1665 H 158.297 4.2689 0.382491 0
M  V30 1666 H 162.481 4.95264 -0.320581 0
M  V30 1667 H 157.737 5.975 -1.29628 0
M  V30 1668 H 161.911 6.67194 -1.99564 0
M  V30 1669 H 159.538 7.1828 -2.48953 0
M  V30 1670 N 161.113 -0.173488 1.56642 0
M  V30 1671 C 162.043 -1.2171 1.99271 0
M  V30 1672 C 163.024 -1.46289 0.867959 0
M  V30 1673 O 164.209 -1.5766 1.13388 0
M  V30 1674 C 161.339 -2.55651 2.35074 0
M  V30 1675 C 160.293 -2.45645 3.50489 0
M  V30 1676 C 159.619 -3.84056 3.72028 0
M  V30 1677 C 160.919 -1.96302 4.84007 0
M  V30 1678 H 162.613 -0.86275 2.867 0
M  V30 1679 H 160.159 -0.413571 1.37933 0
M  V30 1680 H 162.112 -3.2886 2.63494 0
M  V30 1681 H 160.836 -2.92869 1.44552 0
M  V30 1682 H 159.495 -1.7489 3.22194 0
M  V30 1683 H 159.143 -4.18664 2.788 0
M  V30 1684 H 158.843 -3.7823 4.49684 0
M  V30 1685 H 160.367 -4.58854 4.02846 0
M  V30 1686 H 161.781 -2.59284 5.11317 0
M  V30 1687 H 160.178 -2.01429 5.65284 0
M  V30 1688 H 161.248 -0.917226 4.76146 0
M  V30 1689 N 162.591 -1.51276 -0.441967 0
M  V30 1690 C 164.002 -1.56244 -1.02199 0
M  V30 1691 C 164.353 -0.383149 -1.92422 0
M  V30 1692 O 163.478 0.500613 -2.1053 0
M  V30 1693 C 164.073 -2.83162 -1.86024 0
M  V30 1694 C 162.632 -2.90716 -2.39084 0
M  V30 1695 C 161.779 -2.50858 -1.18175 0
M  V30 1696 H 164.73 -1.5712 -0.223416 0
M  V30 1697 H 164.751 -2.66663 -2.71425 0
M  V30 1698 H 164.263 -3.68974 -1.20331 0
M  V30 1699 H 162.364 -2.09323 -3.08244 0
M  V30 1700 H 162.477 -3.94266 -2.72198 0
M  V30 1701 H 160.841 -2.03951 -1.52565 0
M  V30 1702 H 161.624 -3.3901 -0.541001 0
M  V30 1703 N 164.069 0.697108 -1.41344 0
M  V30 1704 C 165.032 1.79281 -1.42797 0
M  V30 1705 C 166.032 1.57607 -0.318837 0
M  V30 1706 O 167.222 1.64309 -0.578642 0
M  V30 1707 C 164.354 3.17632 -1.23785 0
M  V30 1708 H 165.547 1.79385 -2.40335 0
M  V30 1709 H 163.1 0.904582 -1.27464 0
M  V30 1710 H 163.835 3.23167 -0.270814 0
M  V30 1711 H 163.62 3.34765 -2.04144 0
M  V30 1712 H 165.11 3.97617 -1.27633 0
M  V30 1713 N 165.547 1.27147 0.931209 0
M  V30 1714 C 166.958 1.12044 1.49342 0
M  V30 1715 C 167.309 -0.295795 1.93957 0
M  V30 1716 O 166.434 -1.18835 1.80852 0
M  V30 1717 C 167.029 2.02781 2.71414 0
M  V30 1718 C 165.588 1.91794 3.2387 0
M  V30 1719 C 164.735 1.95543 1.96617 0
M  V30 1720 H 167.686 1.40091 0.745672 0
M  V30 1721 H 167.707 1.58156 3.46074 0
M  V30 1722 H 167.219 3.05848 2.38911 0
M  V30 1723 H 165.32 0.916992 3.6114 0
M  V30 1724 H 165.433 2.77852 3.90302 0
M  V30 1725 H 163.797 1.39722 2.12955 0
M  V30 1726 H 164.58 3.00259 1.66432 0
M  V30 1727 N 167.025 -1.13721 1.09112 0
M  V30 1728 C 168.441 -1.36914 0.820174 0
M  V30 1729 C 168.641 -1.93356 -0.567079 0
M  V30 1730 O 167.697 -2.15093 -1.32255 0
M  V30 1731 C 169.01 -2.3235 1.90877 0
M  V30 1732 C 170.558 -2.45973 1.93562 0
M  V30 1733 C 171.033 -3.44714 3.01556 0
M  V30 1734 N 172.524 -3.52263 3.00775 0
M  V30 1735 C 173.259 -4.28536 3.80978 0
M  V30 1736 N 172.755 -5.07991 4.71081 0
M  V30 1737 N 174.548 -4.23804 3.69251 0
M  V30 1738 H 166.699 -0.754348 1.98553 0
M  V30 1739 H 168.962 -0.3944 0.862063 0
M  V30 1740 H 168.668 -1.98027 2.90651 0
M  V30 1741 H 168.542 -3.32332 1.78424 0
M  V30 1742 H 170.929 -2.79584 0.944286 0
M  V30 1743 H 171.01 -1.45926 2.10093 0
M  V30 1744 H 170.654 -3.11835 4.00901 0
M  V30 1745 H 170.584 -4.44558 2.82269 0
M  V30 1746 H 173.075 -2.95567 2.35475 0
M  V30 1747 H 173.388 -5.63487 5.28869 0
M  V30 1748 H 171.733 -5.07235 4.75119 0
M  V30 1749 H 174.924 -3.60806 2.98222 0
M  V30 1750 H 175.097 -4.82995 4.31995 0
M  V30 1751 N 168.503 -0.877838 -1.30888 0
M  V30 1752 C 169.914 -0.544193 -1.78593 0
M  V30 1753 C 170.265 0.939301 -1.72254 0
M  V30 1754 O 169.39 1.7337 -1.29505 0
M  V30 1755 C 169.985 -0.98105 -3.24285 0
M  V30 1756 C 168.544 -0.698935 -3.69854 0
M  V30 1757 C 167.691 -1.168 -2.51502 0
M  V30 1758 H 170.642 -1.06278 -1.17859 0
M  V30 1759 H 170.663 -0.307009 -3.79259 0
M  V30 1760 H 170.175 -2.06079 -3.28866 0
M  V30 1761 H 168.276 0.369112 -3.70767 0
M  V30 1762 H 168.389 -1.28148 -4.61644 0
M  V30 1763 H 166.753 -0.587535 -2.47831 0
M  V30 1764 H 167.536 -2.25533 -2.58824 0
M  V30 1765 N 169.982 1.44106 -0.638065 0
M  V30 1766 C 171.228 2.02277 -0.145546 0
M  V30 1767 C 171.561 1.50125 1.23191 0
M  V30 1768 O 170.836 0.688133 1.8192 0
M  V30 1769 C 171.119 3.59829 -0.139791 0
M  V30 1770 C 170.972 4.22247 -1.55008 0
M  V30 1771 C 172.291 4.36873 0.531966 0
M  V30 1772 H 169.41 0.734992 -0.0543632 0
M  V30 1773 H 172.052 1.71592 -0.815863 0
M  V30 1774 H 170.202 3.86102 0.431007 0
M  V30 1775 H 171.874 4.07057 -2.1703 0
M  V30 1776 H 170.117 3.79476 -2.10191 0
M  V30 1777 H 170.788 5.31284 -1.49804 0
M  V30 1778 H 173.264 4.16074 0.0464781 0
M  V30 1779 H 172.14 5.4657 0.505206 0
M  V30 1780 H 172.401 4.11995 1.60352 0
M  V30 1781 N 171.46 0.379036 1.52974 0
M  V30 1782 C 172.706 -0.206727 2.01744 0
M  V30 1783 C 173.039 -1.47314 1.26539 0
M  V30 1784 O 172.314 -1.91084 0.362903 0
M  V30 1785 C 172.597 -0.485066 3.56818 0
M  V30 1786 C 172.45 0.795919 4.42702 0
M  V30 1787 C 173.769 -1.28003 4.21074 0
M  V30 1788 H 170.888 -0.0736607 0.73331 0
M  V30 1789 H 173.53 0.506581 1.83122 0
M  V30 1790 H 171.68 -1.09272 3.72816 0
M  V30 1791 H 173.352 1.43307 4.38476 0
M  V30 1792 H 171.595 1.41344 4.10127 0
M  V30 1793 H 172.266 0.555947 5.49193 0
M  V30 1794 H 174.742 -0.765867 4.08991 0
M  V30 1795 H 173.618 -1.44352 5.29579 0
M  V30 1796 H 173.879 -2.29236 3.78026 0
M  V30 1797 N 172.938 -1.57226 0.108567 0
M  V30 1798 C 173.886 -2.16002 -0.862885 0
M  V30 1799 C 174.88 -1.10644 -1.28274 0
M  V30 1800 O 176.086 -1.28966 -1.2557 0
M  V30 1801 H 172.461 -0.691148 -0.296342 0
M  V30 1802 H 174.432 -2.96427 -0.342575 0
M  V30 1803 C 173.181 -2.76576 -2.10716 0
M  V30 1804 H 172.504 -3.5734 -1.793 0
M  V30 1805 H 173.944 -3.21253 -2.76717 0
M  V30 1806 C 172.403 -1.73137 -2.89007 0
M  V30 1807 O 172.933 -1.17842 -3.84026 0
M  V30 1808 N 171.139 -1.43317 -2.52801 0
M  V30 1809 H 170.686 -1.88473 -1.75601 0
M  V30 1810 H 170.644 -0.743485 -3.05483 0
M  V30 1811 N 174.416 0.165178 -1.56732 0
M  V30 1812 C 175.662 0.882112 -1.82611 0
M  V30 1813 C 175.995 1.81628 -0.687378 0
M  V30 1814 O 175.27 1.92009 0.310267 0
M  V30 1815 C 175.553 1.67245 -3.18906 0
M  V30 1816 C 175.406 0.760987 -4.43316 0
M  V30 1817 C 176.725 2.63884 -3.52212 0
M  V30 1818 H 173.844 0.319242 -0.664269 0
M  V30 1819 H 176.486 0.148052 -1.89422 0
M  V30 1820 H 174.636 2.29824 -3.1323 0
M  V30 1821 H 176.308 0.147596 -4.61064 0
M  V30 1822 H 174.551 0.0694102 -4.33744 0
M  V30 1823 H 175.222 1.34962 -5.35247 0
M  V30 1824 H 177.698 2.11429 -3.58381 0
M  V30 1825 H 176.574 3.16245 -4.48643 0
M  V30 1826 H 176.835 3.44377 -2.77231 0
M  V30 1827 N 175.894 1.51508 0.433938 0
M  V30 1828 C 177.119 1.68443 1.21003 0
M  V30 1829 C 177.544 0.382636 1.84167 0
M  V30 1830 O 176.902 -0.65755 1.68956 0
M  V30 1831 C 176.95 2.80405 2.26727 0
M  V30 1832 O 176.054 2.44245 3.32292 0
M  V30 1833 H 175.395 0.561536 0.354363 0
M  V30 1834 H 177.925 1.9809 0.512024 0
M  V30 1835 H 177.935 3.0459 2.71457 0
M  V30 1836 H 176.61 3.74867 1.80132 0
M  V30 1837 H 175.187 2.30644 2.93015 0
M  V30 1838 N 177.372 -0.689602 1.41712 0
M  V30 1839 C 178.62 -1.4468 1.4111 0
M  V30 1840 C 178.941 -1.94986 0.0232196 0
M  V30 1841 O 178.211 -1.72097 -0.935913 0
M  V30 1842 H 176.791 -0.536847 0.519427 0
M  V30 1843 H 179.453 -0.815825 1.77004 0
M  V30 1844 H 178.549 -2.30706 2.10193 0
M  V30 1845 N 178.85 -1.27639 -0.924453 0
M  V30 1846 C 180.098 -1.13941 -1.66918 0
M  V30 1847 C 180.419 0.314589 -1.92446 0
M  V30 1848 O 179.689 1.21964 -1.53303 0
M  V30 1849 H 178.269 -0.418678 -0.618642 0
M  V30 1850 H 180.931 -1.60213 -1.10985 0
M  V30 1851 H 180.027 -1.67094 -2.63602 0
M  V30 1852 N 180.328 1.1314 -1.09713 0
M  V30 1853 C 181.739 1.66029 -0.853885 0
M  V30 1854 C 182.09 1.86241 0.617142 0
M  V30 1855 O 181.215 1.5834 1.47503 0
M  V30 1856 C 181.81 3.01599 -1.5435 0
M  V30 1857 C 180.369 3.51467 -1.34714 0
M  V30 1858 C 179.516 2.26648 -1.59769 0
M  V30 1859 H 182.467 0.970226 -1.25588 0
M  V30 1860 H 182.488 3.67709 -0.978267 0
M  V30 1861 H 182 2.86856 -2.6141 0
M  V30 1862 H 180.101 3.71408 -0.297838 0
M  V30 1863 H 180.214 4.314 -2.08401 0
M  V30 1864 H 178.578 2.33385 -1.01998 0
M  V30 1865 H 179.361 2.14467 -2.68065 0
M  V30 1866 N 181.806 0.884767 1.30421 0
M  V30 1867 C 182.736 0.367574 2.30589 0
M  V30 1868 C 183.717 -0.549464 1.60981 0
M  V30 1869 O 184.902 -0.46336 1.88591 0
M  V30 1870 C 182.032 -0.418944 3.44764 0
M  V30 1871 C 180.986 0.406316 4.26067 0
M  V30 1872 C 180.312 -0.506793 5.32293 0
M  V30 1873 C 181.612 1.64832 4.95608 0
M  V30 1874 H 183.306 1.20462 2.74097 0
M  V30 1875 H 180.852 0.580695 1.31772 0
M  V30 1876 H 182.805 -0.791395 4.13902 0
M  V30 1877 H 181.529 -1.28964 3.0006 0
M  V30 1878 H 180.188 0.760903 3.58617 0
M  V30 1879 H 179.836 -1.37519 4.83836 0
M  V30 1880 H 179.536 0.0415828 5.87585 0
M  V30 1881 H 181.06 -0.875764 6.04287 0
M  V30 1882 H 182.474 1.34646 5.57264 0
M  V30 1883 H 180.871 2.13688 5.60765 0
M  V30 1884 H 181.941 2.39284 4.21748 0
M  V30 1885 N 183.284 -1.43765 0.645699 0
M  V30 1886 C 184.214 -2.33471 -0.0370477 0
M  V30 1887 C 185.195 -1.49042 -0.819779 0
M  V30 1888 O 186.38 -1.77726 -0.782758 0
M  V30 1889 C 183.51 -3.32311 -1.0093 0
M  V30 1890 C 182.464 -4.2667 -0.337201 0
M  V30 1891 C 181.79 -5.1549 -1.42037 0
M  V30 1892 C 183.09 -5.16657 0.765706 0
M  V30 1893 H 184.784 -2.90809 0.712069 0
M  V30 1894 H 182.33 -1.39834 0.343876 0
M  V30 1895 H 184.283 -3.9396 -1.49578 0
M  V30 1896 H 183.007 -2.73213 -1.78948 0
M  V30 1897 H 181.666 -3.66374 0.128771 0
M  V30 1898 H 181.314 -4.52735 -2.1918 0
M  V30 1899 H 181.014 -5.79438 -0.975966 0
M  V30 1900 H 182.538 -5.80012 -1.90838 0
M  V30 1901 H 183.952 -5.72158 0.361702 0
M  V30 1902 H 182.349 -5.89286 1.13413 0
M  V30 1903 H 183.419 -4.56796 1.62683 0
M  V30 1904 N 184.763 -0.387143 -1.52771 0
M  V30 1905 C 185.993 0.195585 -2.05672 0
M  V30 1906 C 186.401 1.41241 -1.25887 0
M  V30 1907 O 185.744 1.81265 -0.298081 0
M  V30 1908 C 185.806 0.632327 -3.53895 0
M  V30 1909 C 185.47 -0.470739 -4.54569 0
M  V30 1910 C 186.467 -1.32746 -5.02667 0
M  V30 1911 C 184.152 -0.637151 -4.98243 0
M  V30 1912 C 186.146 -2.33574 -5.93061 0
M  V30 1913 C 183.833 -1.64877 -5.88438 0
M  V30 1914 C 184.831 -2.49649 -6.35739 0
M  V30 1915 O 184.519 -3.49082 -7.24153 0
M  V30 1916 H 184.251 0.033658 -0.675162 0
M  V30 1917 H 186.805 -0.550221 -1.97893 0
M  V30 1918 H 185.035 1.43008 -3.59285 0
M  V30 1919 H 186.724 1.14048 -3.89548 0
M  V30 1920 H 187.49 -1.21019 -4.69659 0
M  V30 1921 H 183.369 0.0129567 -4.60998 0
M  V30 1922 H 186.913 -2.99777 -6.29904 0
M  V30 1923 H 182.81 -1.76643 -6.2086 0
M  V30 1924 H 183.578 -3.45065 -7.42208 0
M  V30 1925 N 186.241 1.57166 -0.116904 0
M  V30 1926 C 187.466 1.999 0.55271 0
M  V30 1927 C 187.891 0.996039 1.59564 0
M  V30 1928 O 187.249 -0.032556 1.81271 0
M  V30 1929 C 187.297 3.4152 1.15742 0
M  V30 1930 O 186.401 3.44106 2.27299 0
M  V30 1931 H 185.742 0.649447 0.138258 0
M  V30 1932 H 188.272 2.03573 -0.204759 0
M  V30 1933 H 188.282 3.79684 1.49346 0
M  V30 1934 H 186.957 4.14034 0.393493 0
M  V30 1935 H 185.534 3.17759 1.9515 0
M  V30 1936 N 187.719 -0.156864 1.56817 0
M  V30 1937 C 188.669 -1.19891 1.93934 0
M  V30 1938 C 189.653 -1.39061 0.809372 0
M  V30 1939 O 190.845 -1.40789 1.07273 0
M  V30 1940 C 187.974 -2.53493 2.31508 0
M  V30 1941 C 187.06 -2.37957 3.51052 0
M  V30 1942 N 187.451 -1.92158 4.67877 0
M  V30 1943 C 185.749 -2.68739 3.55943 0
M  V30 1944 C 186.45 -1.8943 5.49992 0
M  V30 1945 N 185.426 -2.32375 4.91429 0
M  V30 1946 H 189.228 -0.836746 2.81737 0
M  V30 1947 H 186.742 -0.365012 1.58245 0
M  V30 1948 H 188.739 -3.28811 2.56299 0
M  V30 1949 H 187.399 -2.905 1.45051 0
M  V30 1950 H 188.41 -1.62274 4.91821 0
M  V30 1951 H 185.087 -3.09687 2.80001 0
M  V30 1952 H 186.477 -1.55596 6.53636 0
M  V30 1953 N 189.197 -1.51736 -0.425897 0
M  V30 1954 C 190.613 -1.40166 -0.76326 0
M  V30 1955 C 190.813 -0.492962 -1.95377 0
M  V30 1956 O 189.869 0.0475815 -2.52455 0
M  V30 1957 C 191.182 -2.82403 -1.03291 0
M  V30 1958 C 192.73 -2.91632 -1.13665 0
M  V30 1959 C 193.205 -4.34801 -1.43916 0
M  V30 1960 N 194.696 -4.3796 -1.50816 0
M  V30 1961 C 195.431 -5.4578 -1.75817 0
M  V30 1962 N 194.927 -6.63744 -1.98534 0
M  V30 1963 N 196.72 -5.33274 -1.77694 0
M  V30 1964 H 188.871 -2.09361 0.358 0
M  V30 1965 H 191.134 -0.942941 0.0978094 0
M  V30 1966 H 190.84 -3.50943 -0.230696 0
M  V30 1967 H 190.714 -3.22428 -1.95754 0
M  V30 1968 H 193.101 -2.23284 -1.92947 0
M  V30 1969 H 193.182 -2.55088 -0.190756 0
M  V30 1970 H 192.826 -5.03703 -0.65157 0
M  V30 1971 H 192.756 -4.68868 -2.39729 0
M  V30 1972 H 195.247 -3.52919 -1.35118 0
M  V30 1973 H 195.56 -7.41704 -2.17013 0
M  V30 1974 H 193.905 -6.66839 -1.95832 0
M  V30 1975 H 197.096 -4.40098 -1.59473 0
M  V30 1976 H 197.269 -6.1738 -1.9684 0
M  V30 1977 N 190.675 0.682077 -1.42076 0
M  V30 1978 C 191.605 1.80796 -1.47767 0
M  V30 1979 C 192.586 1.6677 -0.334954 0
M  V30 1980 O 193.771 1.863 -0.548264 0
M  V30 1981 C 190.901 3.19038 -1.37229 0
M  V30 1982 C 189.855 3.47789 -2.49453 0
M  V30 1983 C 189.181 4.8553 -2.23975 0
M  V30 1984 C 190.481 3.45411 -3.91776 0
M  V30 1985 H 192.175 1.7629 -2.41997 0
M  V30 1986 H 189.721 0.846721 -1.16476 0
M  V30 1987 H 191.674 3.97528 -1.39821 0
M  V30 1988 H 190.398 3.24204 -0.394907 0
M  V30 1989 H 189.057 2.71657 -2.46166 0
M  V30 1990 H 188.705 4.87337 -1.24547 0
M  V30 1991 H 188.405 5.0573 -2.99184 0
M  V30 1992 H 189.929 5.66312 -2.28304 0
M  V30 1993 H 191.343 4.13882 -3.96705 0
M  V30 1994 H 189.74 3.77145 -4.66778 0
M  V30 1995 H 190.81 2.44122 -4.18966 0
M  V30 1996 N 192.153 1.28127 0.917671 0
M  V30 1997 C 193.378 1.18007 1.70555 0
M  V30 1998 C 193.803 -0.258257 1.86319 0
M  V30 1999 O 193.161 -1.1869 1.37049 0
M  V30 2000 C 193.209 1.87948 3.07746 0
M  V30 2001 O 192.313 1.18427 3.9503 0
M  V30 2002 H 191.654 0.409867 0.522403 0
M  V30 2003 H 194.184 1.69379 1.1477 0
M  V30 2004 H 194.194 1.95701 3.58001 0
M  V30 2005 H 192.869 2.92573 2.95591 0
M  V30 2006 H 191.446 1.18811 3.53466 0
M  V30 2007 N 193.631 -1.12557 1.10312 0
M  V30 2008 C 194.541 -2.21841 0.763142 0
M  V30 2009 C 195.557 -1.72354 -0.238801 0
M  V30 2010 O 196.733 -2.01249 -0.0778746 0
M  V30 2011 C 193.798 -3.46131 0.198632 0
M  V30 2012 C 192.859 -4.10464 1.25769 0
M  V30 2013 C 192.092 -5.28821 0.72002 0
M  V30 2014 O 192.315 -5.6859 -0.453993 0
M  V30 2015 O 191.249 -5.83437 1.47935 0
M  V30 2016 H 195.075 -2.53312 1.67532 0
M  V30 2017 H 192.66 -1.20867 0.878157 0
M  V30 2018 H 194.542 -4.2125 -0.112401 0
M  V30 2019 H 193.217 -3.16338 -0.686419 0
M  V30 2020 H 192.124 -3.3713 1.62156 0
M  V30 2021 H 193.457 -4.44408 2.11571 0
M  V30 2022 N 195.109 -0.891671 -1.2995 0
M  V30 2023 C 196.039 -0.379797 -2.30391 0
M  V30 2024 C 197.02 0.540919 -1.6127 0
M  V30 2025 O 198.205 0.453352 -1.88834 0
M  V30 2026 C 195.335 0.400654 -3.44981 0
M  V30 2027 C 194.289 -0.428905 -4.25846 0
M  V30 2028 C 193.615 0.478557 -5.32554 0
M  V30 2029 C 194.915 -1.67458 -4.94727 0
M  V30 2030 H 196.609 -1.21914 -2.73454 0
M  V30 2031 H 194.155 -0.587675 -1.31462 0
M  V30 2032 H 196.108 0.769434 -4.14316 0
M  V30 2033 H 194.832 1.27371 -3.0074 0
M  V30 2034 H 193.491 -0.779911 -3.58208 0
M  V30 2035 H 193.139 1.34951 -4.84559 0
M  V30 2036 H 192.839 -0.0727433 -5.87555 0
M  V30 2037 H 194.363 0.843705 -6.04743 0
M  V30 2038 H 195.777 -1.376 -5.56542 0
M  V30 2039 H 194.174 -2.16659 -5.59624 0
M  V30 2040 H 195.244 -2.41518 -4.20473 0
M  V30 2041 N 196.587 1.43421 -0.653314 0
M  V30 2042 C 198.003 1.56341 -0.320886 0
M  V30 2043 C 198.203 1.63696 1.17499 0
M  V30 2044 O 197.259 1.59208 1.95982 0
M  V30 2045 C 198.572 2.82424 -1.03233 0
M  V30 2046 C 200.12 2.96168 -1.01259 0
M  V30 2047 C 200.595 4.25084 -1.70492 0
M  V30 2048 N 202.086 4.31948 -1.67257 0
M  V30 2049 C 202.821 5.30466 -2.17701 0
M  V30 2050 N 202.317 6.35261 -2.76434 0
M  V30 2051 N 204.11 5.2212 -2.082 0
M  V30 2052 H 196.261 1.3689 -1.62403 0
M  V30 2053 H 198.524 0.657455 -0.682977 0
M  V30 2054 H 198.23 2.83053 -2.08744 0
M  V30 2055 H 198.104 3.72653 -0.583948 0
M  V30 2056 H 200.491 2.9508 0.0341235 0
M  V30 2057 H 200.572 2.07229 -1.49966 0
M  V30 2058 H 200.216 4.26932 -2.7512 0
M  V30 2059 H 200.146 5.1292 -1.19251 0
M  V30 2060 H 202.637 3.56838 -1.24398 0
M  V30 2061 H 202.95 7.06754 -3.12601 0
M  V30 2062 H 201.295 6.35884 -2.80495 0
M  V30 2063 H 204.486 4.39166 -1.62021 0
M  V30 2064 H 204.659 5.98739 -2.47822 0
M  V30 2065 N 198.065 0.39524 1.52563 0
M  V30 2066 C 198.995 -0.428384 2.29537 0
M  V30 2067 C 199.976 -1.05831 1.33169 0
M  V30 2068 O 201.161 -1.06995 1.62067 0
M  V30 2069 C 198.291 -1.55274 3.10656 0
M  V30 2070 C 197.245 -1.04855 4.14957 0
M  V30 2071 C 196.571 -2.26543 4.84337 0
M  V30 2072 C 197.871 -0.112324 5.22179 0
M  V30 2073 H 199.565 0.213867 2.98635 0
M  V30 2074 H 197.111 0.104298 1.43622 0
M  V30 2075 H 199.064 -2.1358 3.63265 0
M  V30 2076 H 197.788 -2.22266 2.39302 0
M  V30 2077 H 196.447 -0.487985 3.63338 0
M  V30 2078 H 196.095 -2.92059 4.09525 0
M  V30 2079 H 195.795 -1.93466 5.54837 0
M  V30 2080 H 197.319 -2.85481 5.39753 0
M  V30 2081 H 198.733 -0.603752 5.70112 0
M  V30 2082 H 197.13 0.128968 5.99961 0
M  V30 2083 H 198.2 0.837052 4.77621 0
M  V30 2084 N 199.544 -1.57102 0.125237 0
M  V30 2085 C 200.474 -2.18659 -0.819174 0
M  V30 2086 C 201.455 -1.12843 -1.27281 0
M  V30 2087 O 202.64 -1.41104 -1.33429 0
M  V30 2088 C 199.77 -2.79096 -2.06695 0
M  V30 2089 C 198.724 -3.90548 -1.75088 0
M  V30 2090 C 198.05 -4.37821 -3.06948 0
M  V30 2091 C 199.35 -5.12356 -1.01435 0
M  V30 2092 H 201.044 -2.9783 -0.306202 0
M  V30 2093 H 198.59 -1.4326 -0.145839 0
M  V30 2094 H 200.543 -3.2082 -2.73226 0
M  V30 2095 H 199.267 -1.97223 -2.60328 0
M  V30 2096 H 197.926 -3.49409 -1.10944 0
M  V30 2097 H 197.574 -3.52799 -3.58527 0
M  V30 2098 H 197.274 -5.12982 -2.86571 0
M  V30 2099 H 198.798 -4.822 -3.74587 0
M  V30 2100 H 200.212 -5.5106 -1.58132 0
M  V30 2101 H 198.609 -5.9314 -0.911319 0
M  V30 2102 H 199.679 -4.849 -0.00218681 0
M  V30 2103 N 201.022 0.148545 -1.56898 0
M  V30 2104 C 202.269 0.861418 -1.83264 0
M  V30 2105 C 202.597 1.81239 -0.705883 0
M  V30 2106 O 201.852 1.93305 0.305212 0
M  V30 2107 C 202.151 1.67064 -3.1595 0
M  V30 2108 C 201.817 0.866591 -4.42494 0
M  V30 2109 C 200.479 0.644762 -4.76861 0
M  V30 2110 C 202.831 0.30418 -5.20312 0
M  V30 2111 C 200.159 -0.15021 -5.86508 0
M  V30 2112 C 202.511 -0.477824 -6.30793 0
M  V30 2113 C 201.175 -0.710244 -6.63711 0
M  V30 2114 H 200.445 0.315215 -0.670612 0
M  V30 2115 H 203.092 0.125142 -1.91091 0
M  V30 2116 H 201.397 2.47698 -3.03567 0
M  V30 2117 H 203.094 2.22566 -3.33565 0
M  V30 2118 H 199.684 1.04955 -4.15551 0
M  V30 2119 H 203.868 0.462844 -4.94137 0
M  V30 2120 H 199.124 -0.339796 -6.10455 0
M  V30 2121 H 203.298 -0.92076 -6.90286 0
M  V30 2122 H 200.925 -1.3281 -7.48509 0
M  V30 2123 N 202.5 1.5196 0.417844 0
M  V30 2124 C 203.748 1.65263 1.16329 0
M  V30 2125 C 204.069 0.380634 1.91249 0
M  V30 2126 O 203.339 -0.604214 1.86349 0
M  V30 2127 H 201.919 0.60912 0.432414 0
M  V30 2128 H 204.581 1.88969 0.477162 0
M  V30 2129 H 203.677 2.4896 1.88217 0
M  V30 2130 N 203.978 -0.674533 1.42435 0
M  V30 2131 C 204.941 -1.76986 1.45632 0
M  V30 2132 C 205.941 -1.5708 0.343871 0
M  V30 2133 O 207.131 -1.63367 0.604709 0
M  V30 2134 C 204.263 -3.15623 1.28822 0
M  V30 2135 H 205.456 -1.75539 2.43158 0
M  V30 2136 H 203.009 -0.884189 1.28887 0
M  V30 2137 H 203.744 -3.22696 0.322193 0
M  V30 2138 H 203.529 -3.31475 2.09444 0
M  V30 2139 H 205.019 -3.95537 1.33942 0
M  V30 2140 N 205.456 -1.28612 -0.910864 0
M  V30 2141 C 206.872 -1.06381 -1.18976 0
M  V30 2142 C 207.072 0.191998 -2.00583 0
M  V30 2143 O 206.128 0.892869 -2.36187 0
M  V30 2144 C 207.441 -2.31295 -1.92154 0
M  V30 2145 C 208.989 -2.36503 -2.05025 0
M  V30 2146 C 209.464 -3.61191 -2.81612 0
M  V30 2147 N 210.955 -3.61847 -2.89172 0
M  V30 2148 C 211.69 -4.55004 -3.4894 0
M  V30 2149 N 211.186 -5.58482 -4.09963 0
M  V30 2150 N 212.979 -4.42594 -3.46506 0
M  V30 2151 H 205.13 -2.09221 -0.366094 0
M  V30 2152 H 207.393 -0.921003 -0.224629 0
M  V30 2153 H 207.099 -3.228 -1.39618 0
M  V30 2154 H 206.973 -2.37934 -2.9269 0
M  V30 2155 H 209.36 -1.45494 -2.5674 0
M  V30 2156 H 209.441 -2.33857 -1.03657 0
M  V30 2157 H 209.085 -4.52545 -2.30576 0
M  V30 2158 H 209.015 -3.61092 -3.83302 0
M  V30 2159 H 211.506 -2.87022 -2.45819 0
M  V30 2160 H 211.819 -6.25704 -4.53557 0
M  V30 2161 H 210.164 -5.62305 -4.08459 0
M  V30 2162 H 213.355 -3.60953 -2.98045 0
M  V30 2163 H 213.528 -5.15381 -3.92793 0
M  V30 2164 N 206.934 1.1197 -1.10907 0
M  V30 2165 C 208.211 1.79959 -0.766432 0
M  V30 2166 C 208.591 1.97466 0.746363 0
M  V30 2167 O 207.939 1.55491 1.67436 0
M  V30 2168 C 208.149 3.14009 -1.52314 0
M  V30 2169 C 209.497 3.89134 -1.69883 0
M  V30 2170 O 210.521 3.2368 -1.48692 0
M  V30 2171 O 209.38 5.06572 -2.05054 0
M  V30 2172 H 206.474 0.779208 -0.277062 0
M  V30 2173 H 209.02 1.18762 -1.21217 0
M  V30 2174 H 207.792 2.96587 -2.55249 0
M  V30 2175 H 207.415 3.82915 -1.07059 0
M  V30 2176 N 208.412 0.89855 1.29475 0
M  V30 2177 C 209.66 0.522847 1.9522 0
M  V30 2178 C 209.981 -0.93371 1.71192 0
M  V30 2179 O 209.251 -1.65823 1.04305 0
M  V30 2180 H 207.831 0.190366 0.722336 0
M  V30 2181 H 210.493 1.14459 1.5775 0
M  V30 2182 H 209.589 0.704476 3.04045 0
M  V30 2183 N 209.89 -1.43072 0.660911 0
M  V30 2184 C 210.853 -2.29194 -0.0166406 0
M  V30 2185 C 211.853 -1.42609 -0.742912 0
M  V30 2186 O 213.043 -1.64155 -0.583004 0
M  V30 2187 C 210.175 -3.24831 -1.0343 0
M  V30 2188 H 211.368 -2.90596 0.741208 0
M  V30 2189 H 208.921 -1.5048 0.422532 0
M  V30 2190 H 209.656 -2.68339 -1.82111 0
M  V30 2191 H 209.441 -3.88676 -0.517082 0
M  V30 2192 H 210.931 -3.89451 -1.50723 0
M  V30 2193 N 211.368 -0.403325 -1.52352 0
M  V30 2194 C 212.616 0.174003 -2.0135 0
M  V30 2195 C 212.937 1.46139 -1.29106 0
M  V30 2196 O 212.207 1.91448 -0.415253 0
M  V30 2197 H 210.787 0.0672911 -0.743963 0
M  V30 2198 H 213.449 -0.538235 -1.87321 0
M  V30 2199 H 212.545 0.374254 -3.09848 0
M  V30 2200 N 212.846 1.57033 -0.133567 0
M  V30 2201 C 214.071 2.00475 0.531477 0
M  V30 2202 C 214.496 1.01291 1.58499 0
M  V30 2203 O 213.854 -0.0133279 1.81295 0
M  V30 2204 C 213.902 3.42729 1.12113 0
M  V30 2205 O 213.006 3.46498 2.23636 0
M  V30 2206 H 212.347 0.650876 0.131362 0
M  V30 2207 H 214.877 2.03344 -0.22634 0
M  V30 2208 H 214.887 3.81246 1.4531 0
M  V30 2209 H 213.562 4.14428 0.349557 0
M  V30 2210 H 212.139 3.19811 1.91769 0
M  V30 2211 N 214.325 -0.140222 1.56975 0
M  V30 2212 C 215.235 -1.19223 2.02047 0
M  V30 2213 C 216.251 -1.46612 0.937062 0
M  V30 2214 O 217.427 -1.58148 1.24704 0
M  V30 2215 C 214.492 -2.50414 2.39778 0
M  V30 2216 C 213.553 -2.30612 3.621 0
M  V30 2217 C 212.786 -3.55547 3.98023 0
M  V30 2218 O 213.009 -4.62004 3.34528 0
M  V30 2219 O 211.943 -3.47808 4.91237 0
M  V30 2220 H 215.769 -0.839559 2.91865 0
M  V30 2221 H 213.354 -0.349453 1.45256 0
M  V30 2222 H 215.236 -3.27747 2.64877 0
M  V30 2223 H 213.911 -2.85198 1.53114 0
M  V30 2224 H 212.818 -1.51207 3.4218 0
M  V30 2225 H 214.151 -2.00741 4.49404 0
M  V30 2226 N 215.803 -1.52179 -0.40978 0
M  V30 2227 C 216.753 -1.71857 -1.49831 0
M  V30 2228 C 217.737 -0.572469 -1.50372 0
M  V30 2229 O 218.929 -0.829509 -1.56359 0
M  V30 2230 C 216.058 -1.87206 -2.87765 0
M  V30 2231 C 215.144 -3.07685 -2.91875 0
M  V30 2232 N 215.535 -4.30403 -2.65683 0
M  V30 2233 C 213.833 -3.07505 -3.23043 0
M  V30 2234 C 214.534 -5.11868 -2.76344 0
M  V30 2235 N 213.51 -4.47101 -3.09195 0
M  V30 2236 H 217.312 -2.64381 -1.28375 0
M  V30 2237 H 214.826 -1.50203 -0.617479 0
M  V30 2238 H 216.823 -1.99419 -3.66111 0
M  V30 2239 H 215.483 -0.958814 -3.10221 0
M  V30 2240 H 216.494 -4.58887 -2.4009 0
M  V30 2241 H 213.171 -2.25915 -3.51096 0
M  V30 2242 H 214.561 -6.19634 -2.59814 0
M  V30 2243 N 217.281 0.66697 -1.42791 0
M  V30 2244 C 218.213 1.7925 -1.42836 0
M  V30 2245 C 219.226 1.59496 -0.326333 0
M  V30 2246 O 220.415 1.6847 -0.589916 0
M  V30 2247 C 217.515 3.16476 -1.21229 0
M  V30 2248 C 216.688 3.63011 -2.44013 0
M  V30 2249 C 215.747 4.78993 -2.17834 0
M  V30 2250 O 214.773 4.89137 -2.91091 0
M  V30 2251 N 215.975 5.68248 -1.18635 0
M  V30 2252 H 218.74 1.79695 -2.39854 0
M  V30 2253 H 216.301 0.850338 -1.37771 0
M  V30 2254 H 218.293 3.91734 -1.01621 0
M  V30 2255 H 216.863 3.10884 -0.32706 0
M  V30 2256 H 216.083 2.78346 -2.79137 0
M  V30 2257 H 217.371 3.90845 -3.25757 0
M  V30 2258 H 216.769 5.62712 -0.580615 0
M  V30 2259 H 215.326 6.43285 -1.05013 0
M  V30 2260 N 218.759 1.29093 0.90403 0
M  V30 2261 C 220.008 1.16187 1.64874 0
M  V30 2262 C 220.321 -0.286742 1.93487 0
M  V30 2263 O 221.527 -0.537062 2.66135 0
M  V30 2264 C 219.983 2.03177 2.97064 0
M  V30 2265 C 219.591 3.52836 2.76062 0
M  V30 2266 C 221.335 1.98984 3.74974 0
M  V30 2267 C 219.242 4.31945 4.03952 0
M  V30 2268 H 218.172 0.431246 0.618501 0
M  V30 2269 H 220.823 1.53699 1.00243 0
M  V30 2270 H 219.205 1.5853 3.62883 0
M  V30 2271 H 220.379 4.05507 2.18863 0
M  V30 2272 H 218.694 3.58656 2.11553 0
M  V30 2273 H 221.291 2.55351 4.69787 0
M  V30 2274 H 221.634 0.968815 4.0487 0
M  V30 2275 H 222.167 2.41652 3.15989 0
M  V30 2276 H 218.906 5.34667 3.79225 0
M  V30 2277 H 218.426 3.84045 4.60727 0
M  V30 2278 H 220.105 4.42379 4.72133 0
M  V30 2279 N 220.237 -1.11381 1.11499 0
M  V30 2280 C 221.185 -2.19522 0.768956 0
M  V30 2281 C 222.179 -1.67693 -0.239857 0
M  V30 2282 O 223.385 -1.79727 -0.0990755 0
M  V30 2283 H 219.76 -0.715711 0.230786 0
M  V30 2284 H 221.731 -2.45954 1.68964 0
M  V30 2285 C 220.48 -3.46945 0.229073 0
M  V30 2286 H 219.803 -3.8718 0.996596 0
M  V30 2287 H 221.243 -4.23993 0.0251441 0
M  V30 2288 C 219.702 -3.2042 -1.04079 0
M  V30 2289 O 220.232 -3.41178 -2.12038 0
M  V30 2290 N 218.438 -2.74151 -0.963823 0
M  V30 2291 H 217.985 -2.57459 -0.0851722 0
M  V30 2292 H 217.943 -2.56781 -1.81414 0
M  V30 2293 N 221.715 -0.905404 -1.28997 0
M  V30 2294 C 222.665 -0.358713 -2.25161 0
M  V30 2295 C 223.649 0.524449 -1.52113 0
M  V30 2296 O 224.841 0.365534 -1.73184 0
M  V30 2297 C 221.97 0.407609 -3.40872 0
M  V30 2298 C 221.056 -0.490797 -4.21251 0
M  V30 2299 N 221.447 -1.60061 -4.79806 0
M  V30 2300 C 219.745 -0.289636 -4.45059 0
M  V30 2301 C 220.446 -2.15757 -5.40207 0
M  V30 2302 N 219.422 -1.44988 -5.23908 0
M  V30 2303 H 223.224 -1.20642 -2.67998 0
M  V30 2304 H 220.738 -0.757103 -1.43672 0
M  V30 2305 H 222.735 0.816046 -4.08835 0
M  V30 2306 H 221.395 1.25251 -2.9957 0
M  V30 2307 H 222.406 -1.98329 -4.7842 0
M  V30 2308 H 219.083 0.51643 -4.14294 0
M  V30 2309 H 220.473 -3.09069 -5.96595 0
M  V30 2310 N 223.193 1.4272 -0.668489 0
M  V30 2311 C 224.125 2.2914 0.052613 0
M  V30 2312 C 225.138 1.43339 0.771857 0
M  V30 2313 O 226.327 1.67123 0.627067 0
M  V30 2314 C 223.427 3.20618 1.09804 0
M  V30 2315 C 222.6 4.35039 0.45389 0
M  V30 2316 C 221.659 5.07282 1.39825 0
M  V30 2317 O 220.685 5.62024 0.900978 0
M  V30 2318 N 221.887 5.12206 2.73176 0
M  V30 2319 H 224.652 2.91668 -0.689209 0
M  V30 2320 H 222.213 1.53577 -0.512422 0
M  V30 2321 H 224.205 3.65815 1.73094 0
M  V30 2322 H 222.775 2.59585 1.74167 0
M  V30 2323 H 221.995 3.92567 -0.358396 0
M  V30 2324 H 223.283 5.088 0.00486972 0
M  V30 2325 H 222.681 4.6913 3.16122 0
M  V30 2326 H 221.238 5.61069 3.31729 0
M  V30 2327 N 224.671 0.411399 1.52136 0
M  V30 2328 C 225.919 -0.163322 2.01439 0
M  V30 2329 C 226.24 -1.45453 1.29879 0
M  V30 2330 O 225.51 -1.91225 0.4254 0
M  V30 2331 H 224.09 -0.0633447 0.744309 0
M  V30 2332 H 226.752 0.548161 1.87033 0
M  V30 2333 H 225.848 -0.357817 3.10042 0
M  V30 2334 N 226.149 -1.5696 0.141893 0
M  V30 2335 C 227.396 -1.9596 -0.510492 0
M  V30 2336 C 227.724 -1.02648 -1.65208 0
M  V30 2337 O 226.979 -0.0546947 -1.95624 0
M  V30 2338 C 227.278 -3.41242 -1.06249 0
M  V30 2339 C 226.944 -4.50882 -0.0398791 0
M  V30 2340 C 225.606 -4.80595 0.241247 0
M  V30 2341 C 227.958 -5.17058 0.65578 0
M  V30 2342 C 225.286 -5.73792 1.22393 0
M  V30 2343 C 227.638 -6.11313 1.62724 0
M  V30 2344 C 226.302 -6.39407 1.91612 0
M  V30 2345 H 225.572 -0.717068 -0.186802 0
M  V30 2346 H 228.219 -1.90142 0.227643 0
M  V30 2347 H 226.524 -3.43866 -1.87785 0
M  V30 2348 H 228.221 -3.68742 -1.57576 0
M  V30 2349 H 224.811 -4.27754 -0.269174 0
M  V30 2350 H 228.995 -4.94239 0.451779 0
M  V30 2351 H 224.251 -5.93853 1.45424 0
M  V30 2352 H 228.425 -6.61668 2.17183 0
M  V30 2353 H 226.052 -7.11427 2.6791 0
M  V30 2354 N 227.627 0.131896 -1.57047 0
M  V30 2355 C 228.852 0.860418 -1.8871 0
M  V30 2356 C 229.277 1.73251 -0.73251 0
M  V30 2357 O 228.635 1.785 0.317429 0
M  V30 2358 C 228.683 1.68047 -3.19049 0
M  V30 2359 O 227.787 2.7862 -3.04047 0
M  V30 2360 H 227.128 0.238743 -0.619595 0
M  V30 2361 H 229.658 0.118169 -2.04258 0
M  V30 2362 H 229.668 2.07238 -3.51449 0
M  V30 2363 H 228.343 1.04018 -4.02682 0
M  V30 2364 H 226.92 2.42726 -2.83088 0
M  V30 2365 N 229.106 1.52395 0.401703 0
M  V30 2366 C 230.069 1.75636 1.47257 0
M  V30 2367 C 231.069 0.62628 1.48103 0
M  V30 2368 O 232.259 0.894227 1.49497 0
M  V30 2369 C 229.391 1.84553 2.86624 0
M  V30 2370 H 230.584 2.71241 1.27938 0
M  V30 2371 H 228.137 1.42923 0.632662 0
M  V30 2372 H 228.872 0.908882 3.11303 0
M  V30 2373 H 228.657 2.66715 2.87412 0
M  V30 2374 H 230.147 2.04251 3.64241 0
M  V30 2375 N 230.584 -0.659388 1.43143 0
M  V30 2376 C 231.494 -1.80167 1.50256 0
M  V30 2377 C 232.51 -1.69571 0.390106 0
M  V30 2378 O 233.686 -1.90849 0.643319 0
M  V30 2379 C 230.751 -3.16409 1.41725 0
M  V30 2380 C 229.812 -3.38848 2.63591 0
M  V30 2381 C 229.045 -4.68591 2.55458 0
M  V30 2382 O 229.268 -5.47532 1.59891 0
M  V30 2383 O 228.202 -4.92614 3.45854 0
M  V30 2384 H 232.028 -1.77121 2.46702 0
M  V30 2385 H 229.613 -0.817092 1.25076 0
M  V30 2386 H 231.495 -3.9768 1.39387 0
M  V30 2387 H 230.17 -3.20059 0.484118 0
M  V30 2388 H 229.077 -2.57366 2.71502 0
M  V30 2389 H 230.41 -3.4004 3.55856 0
M  V30 2390 N 232.062 -1.29571 -0.897171 0
M  V30 2391 C 233.308 -1.17863 -1.65034 0
M  V30 2392 C 233.641 0.268729 -1.92332 0
M  V30 2393 O 232.916 1.19378 -1.53555 0
M  V30 2394 C 233.199 -1.995 -2.99786 0
M  V30 2395 C 233.052 -3.5239 -2.79538 0
M  V30 2396 C 234.371 -1.82335 -4.00552 0
M  V30 2397 H 231.49 -0.429528 -0.598895 0
M  V30 2398 H 234.132 -1.59072 -1.03905 0
M  V30 2399 H 232.282 -1.64485 -3.51962 0
M  V30 2400 H 233.954 -3.97401 -2.34244 0
M  V30 2401 H 232.197 -3.77187 -2.14273 0
M  V30 2402 H 232.868 -4.04787 -3.75302 0
M  V30 2403 H 235.344 -2.12924 -3.57495 0
M  V30 2404 H 234.22 -2.41801 -4.92771 0
M  V30 2405 H 234.481 -0.779209 -4.35179 0
M  V30 2406 N 233.54 1.10788 -1.12088 0
M  V30 2407 C 234.472 2.16816 -0.743213 0
M  V30 2408 C 235.485 1.6119 0.228412 0
M  V30 2409 O 236.674 1.78497 0.0102931 0
M  V30 2410 C 233.774 3.38809 -0.0787313 0
M  V30 2411 C 232.947 4.23885 -1.0789 0
M  V30 2412 C 232.006 5.24334 -0.442713 0
M  V30 2413 O 231.032 5.58497 -1.09864 0
M  V30 2414 N 232.234 5.75079 0.791457 0
M  V30 2415 H 234.999 2.49825 -1.65552 0
M  V30 2416 H 232.56 1.26373 -1.012 0
M  V30 2417 H 234.552 4.03107 0.358766 0
M  V30 2418 H 233.122 3.03805 0.736275 0
M  V30 2419 H 232.342 3.55939 -1.69414 0
M  V30 2420 H 233.63 4.77562 -1.75533 0
M  V30 2421 H 233.028 5.49517 1.3434 0
M  V30 2422 H 231.585 6.4118 1.17183 0
M  V30 2423 N 235.018 0.912232 1.28515 0
M  V30 2424 C 235.948 0.416403 2.29757 0
M  V30 2425 C 236.929 -0.515194 1.6211 0
M  V30 2426 O 238.114 -0.423253 1.89532 0
M  V30 2427 C 235.244 -0.34572 3.45575 0
M  V30 2428 C 234.198 0.496599 4.25109 0
M  V30 2429 C 233.524 -0.393771 5.33248 0
M  V30 2430 C 234.824 1.75307 4.92001 0
M  V30 2431 H 236.518 1.26249 2.7148 0
M  V30 2432 H 234.064 0.608515 1.30511 0
M  V30 2433 H 236.017 -0.703422 4.15488 0
M  V30 2434 H 234.741 -1.2257 3.02728 0
M  V30 2435 H 233.4 0.8368 3.56922 0
M  V30 2436 H 233.048 -1.27225 4.86644 0
M  V30 2437 H 232.748 0.166209 5.87365 0
M  V30 2438 H 234.272 -0.747389 6.06009 0
M  V30 2439 H 235.686 1.46437 5.54283 0
M  V30 2440 H 234.083 2.25534 5.56106 0
M  V30 2441 H 235.153 2.48176 4.16577 0
M  V30 2442 N 236.496 -1.42363 0.676048 0
M  V30 2443 C 237.745 -2.00745 0.196037 0
M  V30 2444 C 238.058 -1.54083 -1.20489 0
M  V30 2445 O 239.264 -2.04891 -1.78134 0
M  V30 2446 C 237.72 -3.58651 0.299616 0
M  V30 2447 C 237.328 -4.143 1.70468 0
M  V30 2448 C 239.072 -4.24326 -0.121619 0
M  V30 2449 C 236.979 -5.64574 1.76096 0
M  V30 2450 H 235.909 -0.750787 0.0695301 0
M  V30 2451 H 238.56 -1.63072 0.841412 0
M  V30 2452 H 236.942 -3.93833 -0.413673 0
M  V30 2453 H 238.116 -3.90575 2.44515 0
M  V30 2454 H 236.431 -3.61081 2.07387 0
M  V30 2455 H 239.028 -5.34607 -0.0997362 0
M  V30 2456 H 239.371 -3.99897 -1.15708 0
M  V30 2457 H 239.904 -3.94108 0.540706 0
M  V30 2458 H 236.643 -5.93804 2.77628 0
M  V30 2459 H 236.163 -5.90286 1.06406 0
M  V30 2460 H 237.842 -6.29013 1.51496 0
M  V30 2461 N 237.974 -0.419461 -1.51915 0
M  V30 2462 C 238.924 0.418496 -2.24126 0
M  V30 2463 C 239.908 1.00495 -1.25656 0
M  V30 2464 O 241.1 0.926058 -1.50842 0
M  V30 2465 C 238.229 1.52899 -3.07371 0
M  V30 2466 C 237.315 0.952797 -4.13258 0
M  V30 2467 N 237.706 0.104175 -5.05693 0
M  V30 2468 C 236.004 1.22224 -4.28926 0
M  V30 2469 C 236.705 -0.21752 -5.81293 0
M  V30 2470 N 235.681 0.394293 -5.42168 0
M  V30 2471 H 239.483 -0.236048 -2.92951 0
M  V30 2472 H 236.997 -0.230481 -1.60756 0
M  V30 2473 H 238.994 2.14199 -3.57665 0
M  V30 2474 H 237.654 2.18605 -2.40088 0
M  V30 2475 H 238.665 -0.260924 -5.17242 0
M  V30 2476 H 235.342 1.87812 -3.72871 0
M  V30 2477 H 236.732 -0.906992 -6.6575 0
M  V30 2478 N 239.452 1.56882 -0.150215 0
M  V30 2479 C 240.699 1.96228 0.500093 0
M  V30 2480 C 241.027 1.03522 1.64661 0
M  V30 2481 O 240.282 0.0650683 1.95592 0
M  V30 2482 C 240.581 3.41801 1.04437 0
M  V30 2483 C 240.247 4.50897 0.0159671 0
M  V30 2484 C 238.909 4.8046 -0.266731 0
M  V30 2485 C 241.261 5.16703 -0.683192 0
M  V30 2486 C 238.589 5.73135 -1.25434 0
M  V30 2487 C 240.941 6.10441 -1.65964 0
M  V30 2488 C 239.605 6.38382 -1.95 0
M  V30 2489 H 238.875 0.718048 0.182997 0
M  V30 2490 H 241.522 1.90019 -0.237724 0
M  V30 2491 H 239.827 3.44857 1.85959 0
M  V30 2492 H 241.524 3.69573 1.55618 0
M  V30 2493 H 238.114 4.27891 0.246485 0
M  V30 2494 H 242.298 4.93993 -0.477983 0
M  V30 2495 H 237.554 5.93074 -1.48571 0
M  V30 2496 H 241.728 6.60507 -2.20689 0
M  V30 2497 H 239.355 7.09996 -2.71679 0
M  V30 2498 N 240.93 -0.123565 1.57115 0
M  V30 2499 C 241.878 -1.17082 2.00984 0
M  V30 2500 C 242.872 -1.43136 0.906009 0
M  V30 2501 O 244.078 -1.43152 1.09121 0
M  V30 2502 H 240.453 -0.394653 0.64012 0
M  V30 2503 H 242.424 -0.774292 2.88179 0
M  V30 2504 C 241.173 -2.49057 2.42623 0
M  V30 2505 H 240.496 -2.29846 3.27125 0
M  V30 2506 H 241.936 -3.20906 2.7712 0
M  V30 2507 C 240.395 -3.11305 1.28805 0
M  V30 2508 O 240.925 -3.97171 0.60153 0
M  V30 2509 N 239.131 -2.71111 1.04628 0
M  V30 2510 H 238.678 -2.01382 1.60634 0
M  V30 2511 H 238.636 -3.1309 0.286685 0
M  V30 2512 N 242.408 -1.52605 -0.393616 0
M  V30 2513 C 243.34 -1.73303 -1.49995 0
M  V30 2514 C 244.353 -0.613473 -1.50799 0
M  V30 2515 O 245.542 -0.889049 -1.54784 0
M  V30 2516 C 242.642 -1.77245 -2.88855 0
M  V30 2517 C 241.815 -3.06483 -3.12069 0
M  V30 2518 C 240.874 -3.02033 -4.30886 0
M  V30 2519 O 239.9 -3.75907 -4.27414 0
M  V30 2520 N 241.102 -2.20897 -5.36828 0
M  V30 2521 H 243.867 -2.68756 -1.32629 0
M  V30 2522 H 241.428 -1.51036 -0.583083 0
M  V30 2523 H 243.42 -1.7178 -3.66434 0
M  V30 2524 H 241.99 -0.891993 -2.99603 0
M  V30 2525 H 241.21 -3.25474 -2.22396 0
M  V30 2526 H 242.498 -3.91947 -3.2443 0
M  V30 2527 H 241.896 -1.60336 -5.42502 0
M  V30 2528 H 240.453 -2.21275 -6.13091 0
M  V30 2529 N 243.887 0.651787 -1.4349 0
M  V30 2530 C 244.797 1.79368 -1.5121 0
M  V30 2531 C 245.813 1.69361 -0.399093 0
M  V30 2532 O 246.989 1.90505 -0.653431 0
M  V30 2533 C 244.054 3.15653 -1.43401 0
M  V30 2534 C 243.115 3.37446 -2.65384 0
M  V30 2535 C 242.348 4.67229 -2.57939 0
M  V30 2536 O 242.571 5.46676 -1.62792 0
M  V30 2537 O 241.505 4.90773 -3.48462 0
M  V30 2538 H 245.331 1.7581 -2.47638 0
M  V30 2539 H 242.916 0.810447 -1.25507 0
M  V30 2540 H 244.798 3.96935 -1.41494 0
M  V30 2541 H 243.473 3.19798 -0.501085 0
M  V30 2542 H 242.38 2.55923 -2.72863 0
M  V30 2543 H 243.713 3.38148 -3.57654 0
M  V30 2544 N 245.365 1.30045 0.890287 0
M  V30 2545 C 246.295 1.18541 2.01172 0
M  V30 2546 C 247.276 0.0773356 1.69924 0
M  V30 2547 O 248.461 0.25845 1.92473 0
M  V30 2548 C 245.591 0.870941 3.36202 0
M  V30 2549 C 244.545 1.93637 3.81692 0
M  V30 2550 C 243.871 1.475 5.13953 0
M  V30 2551 C 245.171 3.34666 4.00994 0
M  V30 2552 H 246.865 2.12359 2.11054 0
M  V30 2553 H 244.411 1.02238 1.01407 0
M  V30 2554 H 246.364 0.777141 4.14172 0
M  V30 2555 H 245.088 -0.102926 3.26438 0
M  V30 2556 H 243.747 2.01972 3.05946 0
M  V30 2557 H 243.395 0.489551 5.00612 0
M  V30 2558 H 243.095 2.1876 5.4536 0
M  V30 2559 H 244.619 1.39489 5.94454 0
M  V30 2560 H 246.033 3.2912 4.69417 0
M  V30 2561 H 244.43 4.03966 4.43769 0
M  V30 2562 H 245.5 3.76949 3.05021 0
M  V30 2563 N 246.843 -1.10192 1.12674 0
M  V30 2564 C 248.073 -1.85713 0.905213 0
M  V30 2565 C 248.481 -1.81056 -0.549108 0
M  V30 2566 O 247.824 -1.19927 -1.39151 0
M  V30 2567 C 247.886 -3.34972 1.30516 0
M  V30 2568 C 247.55 -3.63385 2.77129 0
M  V30 2569 C 248.547 -3.59772 3.75313 0
M  V30 2570 C 246.232 -3.91981 3.14096 0
M  V30 2571 C 248.226 -3.84354 5.08479 0
M  V30 2572 C 245.913 -4.16218 4.47443 0
M  V30 2573 C 246.911 -4.12395 5.44444 0
M  V30 2574 O 246.599 -4.36014 6.75387 0
M  V30 2575 H 246.331 -0.593719 0.323223 0
M  V30 2576 H 248.885 -1.40198 1.50112 0
M  V30 2577 H 247.115 -3.81156 0.652463 0
M  V30 2578 H 248.804 -3.91886 1.05736 0
M  V30 2579 H 249.57 -3.37716 3.48099 0
M  V30 2580 H 245.449 -3.94085 2.39202 0
M  V30 2581 H 248.993 -3.81285 5.84181 0
M  V30 2582 H 244.89 -4.37754 4.74386 0
M  V30 2583 H 245.658 -4.53516 6.8137 0
M  V30 2584 N 248.321 -0.919034 -1.28029 0
M  V30 2585 C 249.569 -0.553838 -1.94363 0
M  V30 2586 C 249.89 0.906357 -1.72656 0
M  V30 2587 O 249.16 1.64143 -1.0693 0
M  V30 2588 H 247.74 -0.201834 -0.719216 0
M  V30 2589 H 250.402 -1.16954 -1.55909 0
M  V30 2590 H 249.498 -0.752758 -3.02886 0
M  V30 2591 N 249.799 1.42003 -0.683588 0
M  V30 2592 C 250.747 2.326 0.000815408 0
M  V30 2593 C 251.741 1.50308 0.781278 0
M  V30 2594 O 252.947 1.66322 0.688251 0
M  V30 2595 H 249.322 0.751758 0.0190616 0
M  V30 2596 H 251.293 2.88011 -0.780528 0
M  V30 2597 C 250.042 3.34978 0.93195 0
M  V30 2598 H 249.365 3.98345 0.340817 0
M  V30 2599 H 250.805 4.00936 1.37936 0
M  V30 2600 C 249.264 2.67925 2.04249 0
M  V30 2601 O 249.794 2.51788 3.12995 0
M  V30 2602 N 248 2.2681 1.81675 0
M  V30 2603 H 247.547 2.40135 0.932363 0
M  V30 2604 H 247.505 1.8228 2.56167 0
M  V30 2605 N 251.277 0.427512 1.51691 0
M  V30 2606 C 252.524 -0.142229 2.02 0
M  V30 2607 C 252.852 -1.43566 1.31221 0
M  V30 2608 O 252.107 -1.91298 0.412744 0
M  V30 2609 C 252.406 -0.418249 3.54944 0
M  V30 2610 C 252.072 0.788187 4.43958 0
M  V30 2611 C 250.734 1.11906 4.68007 0
M  V30 2612 C 253.086 1.59347 4.96244 0
M  V30 2613 C 250.414 2.25608 5.41588 0
M  V30 2614 C 252.766 2.7214 5.71072 0
M  V30 2615 C 251.43 3.05692 5.93387 0
M  V30 2616 H 250.7 -0.0520451 0.73917 0
M  V30 2617 H 253.347 0.572697 1.82736 0
M  V30 2618 H 251.652 -1.21496 3.72486 0
M  V30 2619 H 253.349 -0.872339 3.91397 0
M  V30 2620 H 249.939 0.520344 4.2543 0
M  V30 2621 H 254.123 1.35106 4.77556 0
M  V30 2622 H 249.379 2.51929 5.57083 0
M  V30 2623 H 253.553 3.34914 6.10578 0
M  V30 2624 H 251.18 3.9391 6.50184 0
M  V30 2625 N 252.755 -1.56801 0.158532 0
M  V30 2626 C 253.98 -2.01295 -0.499516 0
M  V30 2627 C 254.405 -1.03799 -1.56867 0
M  V30 2628 O 253.763 -0.0155162 -1.81293 0
M  V30 2629 C 253.811 -3.44469 -1.06647 0
M  V30 2630 O 252.915 -3.50012 -2.18095 0
M  V30 2631 H 252.256 -0.652884 -0.12099 0
M  V30 2632 H 254.786 -2.02958 0.258661 0
M  V30 2633 H 254.796 -3.8351 -1.39227 0
M  V30 2634 H 253.471 -4.14932 -0.283581 0
M  V30 2635 H 252.048 -3.22822 -1.86656 0
M  V30 2636 N 254.233 0.115231 -1.57178 0
M  V30 2637 C 255.196 1.12526 -1.99676 0
M  V30 2638 C 256.196 1.34095 -0.88742 0
M  V30 2639 O 257.386 1.30548 -1.15337 0
M  V30 2640 C 254.518 2.4789 -2.34015 0
M  V30 2641 H 255.711 0.759912 -2.90113 0
M  V30 2642 H 253.264 0.359648 -1.52106 0
M  V30 2643 H 253.999 2.89339 -1.4647 0
M  V30 2644 H 253.784 2.33588 -3.14927 0
M  V30 2645 H 255.274 3.20575 -2.67622 0
M  V30 2646 N 255.711 1.52812 0.385517 0
M  V30 2647 C 256.674 1.77188 1.45386 0
M  V30 2648 C 257.674 0.641953 1.4743 0
M  V30 2649 O 258.864 0.910033 1.4854 0
M  V30 2650 C 255.996 1.87582 2.8465 0
M  V30 2651 H 257.189 2.72583 1.25054 0
M  V30 2652 H 254.742 1.43586 0.617467 0
M  V30 2653 H 255.477 0.941849 3.10322 0
M  V30 2654 H 255.262 2.69748 2.84567 0
M  V30 2655 H 256.752 2.08102 3.62054 0
M  V30 2656 N 257.189 -0.644168 1.43834 0
M  V30 2657 C 258.414 -1.43642 1.49605 0
M  V30 2658 C 258.839 -1.8773 0.117913 0
M  V30 2659 O 258.197 -1.57938 -0.890239 0
M  V30 2660 C 258.245 -2.6416 2.45463 0
M  V30 2661 O 257.349 -3.63538 1.94714 0
M  V30 2662 H 256.69 -0.430329 0.50568 0
M  V30 2663 H 259.22 -0.787448 1.8884 0
M  V30 2664 H 259.23 -3.11864 2.63068 0
M  V30 2665 H 257.905 -2.31414 3.45572 0
M  V30 2666 H 256.482 -3.2273 1.86814 0
M  V30 2667 N 258.668 -1.30515 -0.883378 0
M  V30 2668 C 260.084 -1.08881 -1.16692 0
M  V30 2669 C 260.284 0.149409 -2.00945 0
M  V30 2670 O 259.34 0.84257 -2.38027 0
M  V30 2671 C 260.653 -2.35319 -1.87204 0
M  V30 2672 C 262.201 -2.40799 -1.99962 0
M  V30 2673 C 262.676 -3.67083 -2.73887 0
M  V30 2674 N 264.167 -3.679 -2.81432 0
M  V30 2675 C 264.902 -4.62303 -3.3921 0
M  V30 2676 N 264.398 -5.67052 -3.98025 0
M  V30 2677 N 266.191 -4.49845 -3.3704 0
M  V30 2678 H 258.342 -2.09951 -0.321633 0
M  V30 2679 H 260.605 -0.92556 -0.205043 0
M  V30 2680 H 260.311 -3.25689 -1.3274 0
M  V30 2681 H 260.185 -2.44089 -2.87577 0
M  V30 2682 H 262.572 -1.50907 -2.53597 0
M  V30 2683 H 262.653 -2.36003 -0.98673 0
M  V30 2684 H 262.297 -4.57334 -2.20925 0
M  V30 2685 H 262.227 -3.69141 -3.75556 0
M  V30 2686 H 264.718 -2.92171 -2.39676 0
M  V30 2687 H 265.031 -6.35184 -4.40183 0
M  V30 2688 H 263.376 -5.70842 -3.96439 0
M  V30 2689 H 266.567 -3.67194 -2.90321 0
M  V30 2690 H 266.74 -5.23597 -3.81772 0
M  V30 2691 N 260.146 1.09593 -1.13257 0
M  V30 2692 C 261.394 1.81375 -0.891492 0
M  V30 2693 C 261.715 1.86049 0.584009 0
M  V30 2694 O 260.985 1.34481 1.42449 0
M  V30 2695 H 259.565 0.671708 -0.326828 0
M  V30 2696 H 262.227 1.3256 -1.42877 0
M  V30 2697 H 261.323 2.84612 -1.28071 0
M  V30 2698 N 261.624 0.925811 1.2754 0
M  V30 2699 C 263.035 0.610102 1.7645 0
M  V30 2700 C 263.386 -0.874723 1.75622 0
M  V30 2701 O 262.511 -1.68444 1.35851 0
M  V30 2702 C 263.106 1.10073 3.20421 0
M  V30 2703 C 261.665 0.835723 3.67005 0
M  V30 2704 C 260.812 1.26054 2.46993 0
M  V30 2705 H 263.763 1.10579 1.13833 0
M  V30 2706 H 263.784 0.447557 3.77859 0
M  V30 2707 H 263.296 2.18143 3.20991 0
M  V30 2708 H 261.397 -0.231249 3.71882 0
M  V30 2709 H 261.51 1.45193 4.56569 0
M  V30 2710 H 259.874 0.679111 2.45479 0
M  V30 2711 H 260.657 2.34984 2.50275 0
M  V30 2712 N 263.102 -1.41638 0.69111 0
M  V30 2713 C 264.05 -2.32597 0.0115199 0
M  V30 2714 C 265.044 -1.5072 -0.773296 0
M  V30 2715 O 266.25 -1.66685 -0.67942 0
M  V30 2716 H 262.625 -0.751849 -0.0150746 0
M  V30 2717 H 264.596 -2.87593 0.795791 0
M  V30 2718 C 263.345 -3.35467 -0.914172 0
M  V30 2719 H 262.668 -3.9852 -0.319687 0
M  V30 2720 H 264.108 -4.01662 -1.35808 0
M  V30 2721 C 262.567 -2.69004 -2.02826 0
M  V30 2722 O 263.097 -2.53444 -3.11655 0
M  V30 2723 N 261.303 -2.2777 -1.80469 0
M  V30 2724 H 260.85 -2.40626 -0.919615 0
M  V30 2725 H 260.808 -1.83635 -2.55197 0
M  V30 2726 N 264.58 -0.43555 -1.51462 0
M  V30 2727 C 265.828 0.131254 -2.01673 0
M  V30 2728 C 266.149 1.43368 -1.32177 0
M  V30 2729 O 265.419 1.90524 -0.455769 0
M  V30 2730 H 263.999 0.0514954 -0.745223 0
M  V30 2731 H 266.661 -0.577847 -1.86137 0
M  V30 2732 H 265.757 0.308446 -3.10572 0
M  V30 2733 N 266.058 1.56714 -0.166846 0
M  V30 2734 C 266.988 2.20754 0.760913 0
M  V30 2735 C 267.969 1.16178 1.24244 0
M  V30 2736 O 269.154 1.44592 1.29641 0
M  V30 2737 C 266.284 2.84478 1.99223 0
M  V30 2738 C 265.238 3.95053 1.64672 0
M  V30 2739 C 264.564 4.45805 2.95232 0
M  V30 2740 C 265.864 5.14865 0.878155 0
M  V30 2741 H 267.558 2.98537 0.22713 0
M  V30 2742 H 265.104 1.43596 0.107805 0
M  V30 2743 H 267.057 3.27951 2.64624 0
M  V30 2744 H 265.781 2.04056 2.55007 0
M  V30 2745 H 264.44 3.52228 1.01641 0
M  V30 2746 H 264.088 3.62181 3.49047 0
M  V30 2747 H 263.788 5.204 2.7287 0
M  V30 2748 H 265.312 4.91962 3.6167 0
M  V30 2749 H 266.726 5.55059 1.43466 0
M  V30 2750 H 265.123 5.95348 0.753738 0
M  V30 2751 H 266.193 4.84735 -0.126377 0
M  V30 2752 N 267.536 -0.106894 1.57237 0
M  V30 2753 C 268.499 -1.11466 2.0027 0
M  V30 2754 C 269.499 -1.33623 0.894519 0
M  V30 2755 O 270.689 -1.29935 1.16028 0
M  V30 2756 C 267.821 -2.46646 2.35327 0
M  V30 2757 H 269.014 -0.744516 2.90512 0
M  V30 2758 H 266.567 -0.351576 1.52295 0
M  V30 2759 H 267.302 -2.88558 1.48003 0
M  V30 2760 H 267.087 -2.31915 3.16161 0
M  V30 2761 H 268.577 -3.19151 2.69318 0
M  V30 2762 N 269.014 -1.53014 -0.377408 0
M  V30 2763 C 270.263 -1.67845 -1.11853 0
M  V30 2764 C 270.576 -0.430625 -1.90801 0
M  V30 2765 O 271.782 -0.459261 -2.67587 0
M  V30 2766 C 270.238 -2.96668 -2.03756 0
M  V30 2767 C 269.846 -4.28671 -1.30175 0
M  V30 2768 C 271.59 -3.20865 -2.77932 0
M  V30 2769 C 269.497 -5.48591 -2.20911 0
M  V30 2770 H 268.427 -0.625343 -0.421263 0
M  V30 2771 H 271.078 -1.79514 -0.380409 0
M  V30 2772 H 269.46 -2.78773 -2.8125 0
M  V30 2773 H 270.634 -4.57157 -0.578259 0
M  V30 2774 H 268.949 -4.10825 -0.679108 0
M  V30 2775 H 271.546 -4.07642 -3.46024 0
M  V30 2776 H 271.889 -2.36424 -3.4265 0
M  V30 2777 H 272.422 -3.39379 -2.07525 0
M  V30 2778 H 269.161 -6.35474 -1.6079 0
M  V30 2779 H 268.681 -5.244 -2.91144 0
M  V30 2780 H 270.36 -5.8292 -2.80736 0
M  V30 2781 N 270.492 0.636531 -1.44174 0
M  V30 2782 C 271.422 1.76003 -1.53444 0
M  V30 2783 C 272.403 1.65619 -0.387841 0
M  V30 2784 O 273.588 1.84461 -0.607257 0
M  V30 2785 C 270.718 3.14511 -1.4731 0
M  V30 2786 C 269.672 3.39677 -2.60391 0
M  V30 2787 C 268.998 4.78159 -2.39308 0
M  V30 2788 C 270.298 3.32772 -4.02567 0
M  V30 2789 H 271.992 1.68501 -2.47483 0
M  V30 2790 H 269.538 0.809237 -1.19111 0
M  V30 2791 H 271.491 3.92878 -1.52397 0
M  V30 2792 H 270.215 3.22783 -0.49785 0
M  V30 2793 H 268.874 2.63688 -2.54684 0
M  V30 2794 H 268.522 4.83128 -1.39988 0
M  V30 2795 H 268.222 4.95956 -3.15122 0
M  V30 2796 H 269.746 5.58762 -2.46205 0
M  V30 2797 H 271.16 4.01051 -4.09672 0
M  V30 2798 H 269.557 3.62104 -4.7854 0
M  V30 2799 H 270.627 2.30669 -4.2652 0
M  V30 2800 N 271.97 1.30982 0.876444 0
M  V30 2801 C 273.195 1.23373 1.66715 0
M  V30 2802 C 273.62 -0.19885 1.87046 0
M  V30 2803 O 272.978 -1.1427 1.40756 0
M  V30 2804 C 273.026 1.97644 3.01611 0
M  V30 2805 O 272.13 1.30935 3.91062 0
M  V30 2806 H 271.471 0.426279 0.509099 0
M  V30 2807 H 274.001 1.72944 1.09323 0
M  V30 2808 H 274.011 2.06992 3.51594 0
M  V30 2809 H 272.686 3.01829 2.86133 0
M  V30 2810 H 271.263 1.29996 3.49507 0
M  V30 2811 N 273.449 -1.08991 1.13837 0
M  V30 2812 C 274.379 -2.17771 0.842507 0
M  V30 2813 C 275.36 -1.6892 -0.20001 0
M  V30 2814 O 276.545 -1.94113 -0.0579731 0
M  V30 2815 C 273.675 -3.4589 0.312644 0
M  V30 2816 C 272.629 -4.08099 1.28992 0
M  V30 2817 C 271.955 -5.31098 0.619623 0
M  V30 2818 C 273.255 -4.50077 2.65005 0
M  V30 2819 H 274.949 -2.42777 1.75213 0
M  V30 2820 H 272.495 -1.16682 0.843875 0
M  V30 2821 H 274.448 -4.21297 0.0933043 0
M  V30 2822 H 273.172 -3.20419 -0.632382 0
M  V30 2823 H 271.831 -3.34717 1.49533 0
M  V30 2824 H 271.479 -5.0191 -0.33102 0
M  V30 2825 H 271.179 -5.73674 1.27167 0
M  V30 2826 H 272.703 -6.09224 0.409669 0
M  V30 2827 H 274.117 -5.16688 2.48407 0
M  V30 2828 H 272.514 -5.03553 3.26427 0
M  V30 2829 H 273.584 -3.62257 3.22332 0
M  V30 2830 N 274.927 -0.932562 -1.27047 0
M  V30 2831 C 276.174 -0.575559 -1.94148 0
M  V30 2832 C 276.502 0.883984 -1.73251 0
M  V30 2833 O 275.757 1.64655 -1.0577 0
M  V30 2834 C 276.056 -0.853713 -3.47054 0
M  V30 2835 C 275.722 -2.29577 -3.88079 0
M  V30 2836 C 274.384 -2.68999 -3.9899 0
M  V30 2837 C 276.736 -3.23331 -4.08787 0
M  V30 2838 C 274.064 -4.01289 -4.28 0
M  V30 2839 C 276.416 -4.55207 -4.39282 0
M  V30 2840 C 275.08 -4.94457 -4.48407 0
M  V30 2841 H 274.35 -0.210612 -0.710439 0
M  V30 2842 H 276.997 -1.17744 -1.51025 0
M  V30 2843 H 275.302 -0.169204 -3.91434 0
M  V30 2844 H 276.999 -0.55639 -3.97121 0
M  V30 2845 H 273.589 -1.97994 -3.80127 0
M  V30 2846 H 277.773 -2.94074 -3.99793 0
M  V30 2847 H 273.029 -4.31374 -4.33275 0
M  V30 2848 H 277.203 -5.27852 -4.54252 0
M  V30 2849 H 274.83 -5.96994 -4.7064 0
M  V30 2850 N 276.405 1.4127 -0.698611 0
M  V30 2851 C 277.651 2.01478 -0.231207 0
M  V30 2852 C 277.984 1.55215 1.16713 0
M  V30 2853 O 277.259 0.764672 1.78838 0
M  V30 2854 C 277.542 3.58912 -0.292281 0
M  V30 2855 C 277.395 4.15293 -1.72778 0
M  V30 2856 C 278.714 4.38736 0.346194 0
M  V30 2857 H 275.833 0.732025 -0.0854878 0
M  V30 2858 H 278.475 1.67977 -0.887906 0
M  V30 2859 H 276.625 3.87582 0.26686 0
M  V30 2860 H 278.297 3.97486 -2.341 0
M  V30 2861 H 276.54 3.7022 -2.26096 0
M  V30 2862 H 277.211 5.24452 -1.72202 0
M  V30 2863 H 279.687 4.15897 -0.130035 0
M  V30 2864 H 278.563 5.48221 0.272932 0
M  V30 2865 H 278.824 4.18425 1.42734 0
M  V30 2866 N 277.883 0.443576 1.51229 0
M  V30 2867 C 278.831 -0.37904 2.29491 0
M  V30 2868 C 279.825 -1.0153 1.35603 0
M  V30 2869 O 281.031 -0.94955 1.52917 0
M  V30 2870 H 277.406 -0.141053 0.738653 0
M  V30 2871 H 279.377 0.301799 2.9687 0
M  V30 2872 C 278.126 -1.46426 3.15364 0
M  V30 2873 H 277.449 -0.984037 3.87501 0
M  V30 2874 H 278.889 -2.01297 3.7317 0
M  V30 2875 C 277.348 -2.45099 2.31146 0
M  V30 2876 O 277.878 -3.49773 1.9754 0
M  V30 2877 N 276.084 -2.16139 1.94249 0
M  V30 2878 H 275.631 -1.31044 2.21777 0
M  V30 2879 H 275.589 -2.82398 1.38198 0
M  V30 2880 N 279.361 -1.56624 0.175154 0
M  V30 2881 C 280.607 -1.9729 -0.469506 0
M  V30 2882 C 280.94 -1.06128 -1.62636 0
M  V30 2883 O 280.215 -0.109183 -1.94193 0
M  V30 2884 C 280.498 -3.47375 -0.948804 0
M  V30 2885 C 280.351 -4.49317 0.208491 0
M  V30 2886 C 281.67 -4.00652 -1.82116 0
M  V30 2887 H 278.789 -0.717317 -0.16919 0
M  V30 2888 H 281.431 -1.88184 0.262062 0
M  V30 2889 H 279.581 -3.55267 -1.57219 0
M  V30 2890 H 281.253 -4.53482 0.845682 0
M  V30 2891 H 279.496 -4.25121 0.863395 0
M  V30 2892 H 280.167 -5.51741 -0.169059 0
M  V30 2893 H 282.643 -3.95416 -1.2956 0
M  V30 2894 H 281.519 -5.06075 -2.12554 0
M  V30 2895 H 281.78 -3.44699 -2.7683 0
M  V30 2896 N 280.839 0.0985539 -1.57292 0
M  V30 2897 C 281.802 1.10402 -2.00858 0
M  V30 2898 C 282.802 1.33146 -0.901593 0
M  V30 2899 O 283.992 1.29318 -1.16716 0
M  V30 2900 C 281.124 2.45394 -2.36632 0
M  V30 2901 H 282.317 0.729099 -2.90902 0
M  V30 2902 H 279.87 0.343495 -1.52479 0
M  V30 2903 H 280.605 2.87769 -1.49531 0
M  V30 2904 H 280.39 2.30235 -3.17387 0
M  V30 2905 H 281.88 3.17718 -2.71007 0
M  V30 2906 N 282.317 1.53212 0.369288 0
M  V30 2907 C 283.542 1.73423 1.1375 0
M  V30 2908 C 283.967 0.460404 1.82378 0
M  V30 2909 O 283.325 -0.585298 1.71592 0
M  V30 2910 C 283.373 2.89769 2.1463 0
M  V30 2911 O 282.477 2.58119 3.21634 0
M  V30 2912 H 281.818 0.576061 0.330227 0
M  V30 2913 H 284.348 2.00083 0.427547 0
M  V30 2914 H 284.358 3.15829 2.58294 0
M  V30 2915 H 283.033 3.8217 1.64071 0
M  V30 2916 H 281.61 2.42864 2.82969 0
M  V30 2917 N 283.795 -0.628877 1.44509 0
M  V30 2918 C 285.023 -1.41554 1.50897 0
M  V30 2919 C 285.438 -1.8832 0.134564 0
M  V30 2920 O 284.795 -1.60969 -0.859965 0
M  V30 2921 C 284.846 -2.63435 2.47556 0
M  V30 2922 O 284.567 -2.18619 3.79654 0
M  V30 2923 C 286.068 -3.56537 2.63431 0
M  V30 2924 H 283.288 -0.434044 0.511709 0
M  V30 2925 H 285.832 -0.768895 1.89495 0
M  V30 2926 H 283.987 -3.24187 2.12089 0
M  V30 2927 H 284.401 -2.97652 4.31861 0
M  V30 2928 H 285.875 -4.38657 3.35088 0
M  V30 2929 H 286.352 -4.05493 1.68738 0
M  V30 2930 H 286.958 -3.01653 2.9981 0
M  V30 2931 N 285.273 -1.31445 -0.869486 0
M  V30 2932 C 286.498 -1.24256 -1.66058 0
M  V30 2933 C 286.923 0.188928 -1.87149 0
M  V30 2934 O 286.281 1.13522 -1.4136 0
M  V30 2935 C 286.329 -1.9924 -3.00559 0
M  V30 2936 O 285.433 -1.33007 -3.90362 0
M  V30 2937 H 284.774 -0.428973 -0.506831 0
M  V30 2938 H 287.304 -1.73521 -1.08404 0
M  V30 2939 H 287.314 -2.08854 -3.50491 0
M  V30 2940 H 285.989 -3.03342 -2.84528 0
M  V30 2941 H 284.566 -1.31848 -3.48813 0
M  V30 2942 N 286.751 1.08385 -1.14413 0
M  V30 2943 C 287.699 2.17406 -0.826888 0
M  V30 2944 C 288.693 1.6827 0.195312 0
M  V30 2945 O 289.899 1.79927 0.0513892 0
M  V30 2946 H 286.274 0.70934 -0.249681 0
M  V30 2947 H 288.245 2.41388 -1.75426 0
M  V30 2948 C 286.994 3.46215 -0.320979 0
M  V30 2949 H 286.317 3.84401 -1.0989 0
M  V30 2950 H 287.757 4.23777 -0.137549 0
M  V30 2951 C 286.216 3.23067 0.955472 0
M  V30 2952 O 286.746 3.4668 2.02918 0
M  V30 2953 N 284.952 2.7661 0.890798 0
M  V30 2954 H 284.499 2.57594 0.0168815 0
M  V30 2955 H 284.457 2.61501 1.74542 0
M  V30 2956 N 288.23 0.939286 1.26551 0
M  V30 2957 C 289.641 0.628782 1.75793 0
M  V30 2958 C 289.992 -0.856046 1.7654 0
M  V30 2959 O 289.117 -1.66994 1.3763 0
M  V30 2960 C 289.712 1.13465 3.19235 0
M  V30 2961 C 288.271 0.874601 3.66098 0
M  V30 2962 C 287.418 1.28667 2.45642 0
M  V30 2963 H 290.369 1.1178 1.12654 0
M  V30 2964 H 290.39 0.487609 3.77363 0
M  V30 2965 H 289.902 2.21535 3.1866 0
M  V30 2966 H 288.003 -0.191793 3.72106 0
M  V30 2967 H 288.116 1.50028 4.55004 0
M  V30 2968 H 286.48 0.705109 2.44745 0
M  V30 2969 H 287.263 2.37625 2.47769 0
M  V30 2970 N 289.708 -1.40897 0.706093 0
M  V30 2971 C 290.955 -2.01054 0.241531 0
M  V30 2972 C 291.283 -1.55956 -1.16223 0
M  V30 2973 O 290.538 -0.766336 -1.80072 0
M  V30 2974 C 290.837 -3.5646 0.259099 0
M  V30 2975 C 290.503 -4.21106 1.61184 0
M  V30 2976 C 289.165 -4.38479 1.98216 0
M  V30 2977 C 291.517 -4.57256 2.50132 0
M  V30 2978 C 288.845 -4.89282 3.2376 0
M  V30 2979 C 291.197 -5.09454 3.7502 0
M  V30 2980 C 289.861 -5.25037 4.12181 0
M  V30 2981 H 289.131 -0.73571 0.0883825 0
M  V30 2982 H 291.778 -1.68645 0.907257 0
M  V30 2983 H 290.083 -3.88721 -0.490189 0
M  V30 2984 H 291.78 -4.00826 -0.11804 0
M  V30 2985 H 288.37 -4.07966 1.31384 0
M  V30 2986 H 292.554 -4.43479 2.228 0
M  V30 2987 H 287.81 -4.99531 3.52532 0
M  V30 2988 H 291.984 -5.36404 4.44121 0
M  V30 2989 H 289.611 -5.64164 5.09532 0
M  V30 2990 N 291.186 -0.45159 -1.50991 0
M  V30 2991 C 292.116 0.342898 -2.30969 0
M  V30 2992 C 293.097 1.00815 -1.37005 0
M  V30 2993 O 294.282 1.00907 -1.65926 0
M  V30 2994 C 291.412 1.43637 -3.16205 0
M  V30 2995 C 290.366 0.893818 -4.18563 0
M  V30 2996 C 289.692 2.08411 -4.92411 0
M  V30 2997 C 290.992 -0.0815568 -5.22236 0
M  V30 2998 H 292.686 -0.324556 -2.97636 0
M  V30 2999 H 290.232 -0.157531 -1.43136 0
M  V30 3000 H 292.185 1.9995 -3.70942 0
M  V30 3001 H 290.909 2.13232 -2.47386 0
M  V30 3002 H 289.568 0.352798 -3.64898 0
M  V30 3003 H 289.216 2.76658 -4.20082 0
M  V30 3004 H 288.916 1.72741 -5.61636 0
M  V30 3005 H 290.44 2.65251 -5.49976 0
M  V30 3006 H 291.854 0.391742 -5.7196 0
M  V30 3007 H 290.251 -0.351551 -5.99069 0
M  V30 3008 H 291.321 -1.01374 -4.74185 0
M  V30 3009 N 292.664 1.56529 -0.183458 0
M  V30 3010 C 293.889 2.02064 0.467428 0
M  V30 3011 C 294.314 1.06282 1.55196 0
M  V30 3012 O 293.672 0.0443565 1.81246 0
M  V30 3013 C 293.72 3.46122 1.01153 0
M  V30 3014 O 292.824 3.53437 2.12499 0
M  V30 3015 H 292.165 0.654726 0.110588 0
M  V30 3016 H 294.695 2.02521 -0.290917 0
M  V30 3017 H 294.705 3.85676 1.33108 0
M  V30 3018 H 293.38 4.15331 0.217533 0
M  V30 3019 H 291.957 3.2575 1.81497 0
M  V30 3020 N 294.142 -0.090211 1.57342 0
M  V30 3021 C 295.558 -0.444547 1.53284 0
M  V30 3022 C 295.758 -1.80238 0.900914 0
M  V30 3023 O 294.814 -2.4759 0.495513 0
M  V30 3024 C 296.127 -0.402543 2.97993 0
M  V30 3025 C 297.675 -0.48405 3.09234 0
M  V30 3026 C 298.15 -0.472144 4.5556 0
M  V30 3027 N 299.641 -0.532757 4.60126 0
M  V30 3028 C 300.376 -0.545462 5.708 0
M  V30 3029 N 299.872 -0.514082 6.9089 0
M  V30 3030 N 301.665 -0.59064 5.58988 0
M  V30 3031 H 293.816 0.799121 1.96794 0
M  V30 3032 H 296.079 0.297965 0.899956 0
M  V30 3033 H 295.785 0.528106 3.47712 0
M  V30 3034 H 295.659 -1.21969 3.56936 0
M  V30 3035 H 298.046 -1.40512 2.595 0
M  V30 3036 H 298.127 0.361328 2.53235 0
M  V30 3037 H 297.771 0.445 5.05947 0
M  V30 3038 H 297.701 -1.3348 5.09402 0
M  V30 3039 H 300.192 -0.562006 3.73698 0
M  V30 3040 H 300.505 -0.527195 7.71 0
M  V30 3041 H 298.85 -0.481054 6.93333 0
M  V30 3042 H 302.041 -0.61272 4.64073 0
M  V30 3043 H 302.214 -0.597073 6.45243 0
M  V30 3044 N 295.62 -1.53406 -0.361157 0
M  V30 3045 C 296.55 -1.83136 -1.44857 0
M  V30 3046 C 297.531 -0.685174 -1.5569 0
M  V30 3047 O 298.716 -0.93544 -1.70186 0
M  V30 3048 C 295.846 -2.02522 -2.82138 0
M  V30 3049 C 294.8 -3.18302 -2.86126 0
M  V30 3050 C 294.126 -3.22989 -4.26125 0
M  V30 3051 C 295.426 -4.56796 -2.53248 0
M  V30 3052 H 297.12 -2.74201 -1.20226 0
M  V30 3053 H 294.666 -1.31938 -0.576922 0
M  V30 3054 H 296.619 -2.21904 -3.58241 0
M  V30 3055 H 295.343 -1.08172 -3.08166 0
M  V30 3056 H 294.002 -2.98747 -2.12475 0
M  V30 3057 H 293.65 -2.26267 -4.49235 0
M  V30 3058 H 293.35 -4.00781 -4.29708 0
M  V30 3059 H 294.874 -3.44559 -5.04094 0
M  V30 3060 H 296.288 -4.7631 -3.19064 0
M  V30 3061 H 294.685 -5.36862 -2.68141 0
M  V30 3062 H 295.755 -4.61606 -1.48484 0
M  V30 3063 N 297.098 0.621204 -1.44841 0
M  V30 3064 C 298.028 1.74366 -1.55303 0
M  V30 3065 C 299.009 1.65199 -0.405385 0
M  V30 3066 O 300.194 1.83807 -0.626787 0
M  V30 3067 C 297.324 3.12931 -1.50637 0
M  V30 3068 C 296.278 3.36896 -2.63979 0
M  V30 3069 C 295.604 4.75594 -2.44366 0
M  V30 3070 C 296.904 3.28483 -4.06074 0
M  V30 3071 H 298.598 1.65867 -2.49256 0
M  V30 3072 H 296.144 0.796558 -1.19962 0
M  V30 3073 H 298.097 3.9124 -1.56555 0
M  V30 3074 H 296.821 3.22237 -0.532057 0
M  V30 3075 H 295.48 2.60972 -2.57467 0
M  V30 3076 H 295.128 4.81616 -1.45105 0
M  V30 3077 H 294.828 4.92586 -3.20364 0
M  V30 3078 H 296.352 5.5612 -2.52117 0
M  V30 3079 H 297.766 3.96684 -4.13902 0
M  V30 3080 H 296.163 3.57008 -4.82354 0
M  V30 3081 H 297.233 2.26133 -4.28943 0
M  V30 3082 N 298.576 1.31904 0.862503 0
M  V30 3083 C 299.524 1.20125 1.9918 0
M  V30 3084 C 300.518 0.107824 1.69056 0
M  V30 3085 O 301.724 0.270223 1.7796 0
M  V30 3086 H 298.099 0.372148 0.65346 0
M  V30 3087 H 300.07 2.15652 2.06244 0
M  V30 3088 C 298.819 0.933099 3.34946 0
M  V30 3089 H 298.142 1.76664 3.5865 0
M  V30 3090 H 299.582 0.890892 4.14535 0
M  V30 3091 C 298.041 -0.364172 3.34926 0
M  V30 3092 O 298.571 -1.37858 3.77304 0
M  V30 3093 N 296.777 -0.383362 2.8806 0
M  V30 3094 H 296.324 0.442651 2.53768 0
M  V30 3095 H 296.282 -1.25123 2.8843 0
M  V30 3096 N 300.054 -1.07777 1.14986 0
M  V30 3097 C 301.47 -1.32373 0.891596 0
M  V30 3098 C 301.67 -1.9609 -0.463788 0
M  V30 3099 O 300.726 -2.21801 -1.20667 0
M  V30 3100 C 302.039 -2.21905 2.02925 0
M  V30 3101 C 303.587 -2.35367 2.06329 0
M  V30 3102 C 304.062 -3.28245 3.19405 0
M  V30 3103 N 305.553 -3.35824 3.19024 0
M  V30 3104 C 306.288 -4.07739 4.03158 0
M  V30 3105 N 305.784 -4.82306 4.97346 0
M  V30 3106 N 307.577 -4.03635 3.91197 0
M  V30 3107 H 299.728 -0.648039 2.02273 0
M  V30 3108 H 301.991 -0.348149 0.881757 0
M  V30 3109 H 301.697 -1.82342 3.0074 0
M  V30 3110 H 301.571 -3.22407 1.95789 0
M  V30 3111 H 303.958 -2.74186 1.09116 0
M  V30 3112 H 304.039 -1.34585 2.17533 0
M  V30 3113 H 303.683 -2.90146 4.16867 0
M  V30 3114 H 303.613 -4.28971 3.05437 0
M  V30 3115 H 306.104 -2.8267 2.50811 0
M  V30 3116 H 306.417 -5.34661 5.57994 0
M  V30 3117 H 304.762 -4.81337 5.01338 0
M  V30 3118 H 307.953 -3.44491 3.16928 0
M  V30 3119 H 308.126 -4.59417 4.5699 0
M  V30 3120 N 301.532 -0.945985 -1.26051 0
M  V30 3121 C 302.809 -0.513816 -1.88731 0
M  V30 3122 C 303.189 1.00872 -1.8544 0
M  V30 3123 O 302.537 1.8708 -1.312 0
M  V30 3124 C 302.747 -1.08062 -3.31849 0
M  V30 3125 C 304.095 -1.1522 -4.08668 0
M  V30 3126 O 305.119 -1.03155 -3.40936 0
M  V30 3127 O 303.978 -1.34044 -5.29806 0
M  V30 3128 H 301.072 -0.168193 -0.809716 0
M  V30 3129 H 303.618 -1.03886 -1.34186 0
M  V30 3130 H 302.39 -2.1241 -3.2863 0
M  V30 3131 H 302.013 -0.538307 -3.93939 0
M  V30 3132 N 303.011 1.40521 -0.713556 0
M  V30 3133 C 304.239 2.05237 -0.261775 0
M  V30 3134 C 304.654 1.53755 1.09567 0
M  V30 3135 O 304.011 0.693268 1.6882 0
M  V30 3136 C 304.062 3.60763 -0.230706 0
M  V30 3137 O 303.783 4.10345 -1.53455 0
M  V30 3138 C 305.284 4.42651 0.239874 0
M  V30 3139 H 302.504 0.660533 -0.118057 0
M  V30 3140 H 305.048 1.79967 -0.971192 0
M  V30 3141 H 303.203 3.8501 0.429661 0
M  V30 3142 H 303.617 5.04526 -1.43366 0
M  V30 3143 H 305.091 5.51599 0.210468 0
M  V30 3144 H 305.568 4.20082 1.28171 0
M  V30 3145 H 306.174 4.23507 -0.390142 0
M  V30 3146 N 304.489 0.459591 1.5075 0
M  V30 3147 C 305.738 -0.100971 2.01447 0
M  V30 3148 C 306.051 -1.41816 1.34713 0
M  V30 3149 O 307.257 -2.06299 1.76502 0
M  V30 3150 C 305.713 -0.23047 3.59161 0
M  V30 3151 C 305.321 1.0776 4.34847 0
M  V30 3152 C 307.065 -0.743608 4.17936 0
M  V30 3153 C 304.972 0.91253 5.84317 0
M  V30 3154 H 303.902 -0.0415102 0.752856 0
M  V30 3155 H 306.553 0.592742 1.73663 0
M  V30 3156 H 304.935 -0.987703 3.83485 0
M  V30 3157 H 306.109 1.8449 4.22256 0
M  V30 3158 H 304.424 1.52097 3.87628 0
M  V30 3159 H 307.021 -0.883959 5.27343 0
M  V30 3160 H 307.364 -1.73196 3.78562 0
M  V30 3161 H 307.897 -0.04408 3.97776 0
M  V30 3162 H 304.636 1.87391 6.28144 0
M  V30 3163 H 304.156 0.185422 5.99513 0
M  V30 3164 H 305.835 0.574547 6.44444 0
M  V30 3165 N 305.967 -1.56429 0.191757 0
M  V30 3166 C 307.195 -2.01867 -0.453586 0
M  V30 3167 C 307.61 -1.07191 -1.5542 0
M  V30 3168 O 306.967 -0.0762108 -1.82341 0
M  V30 3169 C 307.018 -3.47017 -1.013 0
M  V30 3170 O 306.739 -4.38078 0.0437005 0
M  V30 3171 C 308.24 -4.07956 -1.73456 0
M  V30 3172 H 305.46 -0.661211 -0.114199 0
M  V30 3173 H 308.004 -2.02295 0.299483 0
M  V30 3174 H 306.159 -3.47298 -1.71647 0
M  V30 3175 H 306.573 -5.23178 -0.372212 0
M  V30 3176 H 308.047 -5.1138 -2.07833 0
M  V30 3177 H 308.524 -3.51222 -2.63704 0
M  V30 3178 H 309.13 -4.11437 -1.07702 0
M  V30 3179 N 307.445 0.0818655 -1.57387 0
M  V30 3180 C 308.861 0.436412 -1.53517 0
M  V30 3181 C 309.061 1.79758 -0.910459 0
M  V30 3182 O 308.117 2.47324 -0.508636 0
M  V30 3183 C 309.43 0.386734 -2.98203 0
M  V30 3184 C 310.978 0.467644 -3.09487 0
M  V30 3185 C 311.453 0.447978 -4.55804 0
M  V30 3186 N 312.944 0.508348 -4.60402 0
M  V30 3187 C 313.679 0.515184 -5.71081 0
M  V30 3188 N 313.175 0.477435 -6.91153 0
M  V30 3189 N 314.968 0.560988 -5.59294 0
M  V30 3190 H 307.119 -0.809546 -1.96367 0
M  V30 3191 H 309.382 -0.302733 -0.898363 0
M  V30 3192 H 309.088 -0.546539 -3.47427 0
M  V30 3193 H 308.962 1.20075 -3.57578 0
M  V30 3194 H 311.349 1.39134 -2.60242 0
M  V30 3195 H 311.43 -0.374753 -2.5304 0
M  V30 3196 H 311.074 -0.471826 -5.05704 0
M  V30 3197 H 311.004 1.30777 -5.10103 0
M  V30 3198 H 313.495 0.54218 -3.7399 0
M  V30 3199 H 313.808 0.486299 -7.71268 0
M  V30 3200 H 312.153 0.444278 -6.93579 0
M  V30 3201 H 315.344 0.5881 -4.64391 0
M  V30 3202 H 315.517 0.562846 -6.45551 0
M  V30 3203 N 308.923 1.53595 0.353017 0
M  V30 3204 C 310.172 1.69603 1.09168 0
M  V30 3205 C 310.485 0.460925 1.90092 0
M  V30 3206 O 311.691 0.501774 2.66823 0
M  V30 3207 C 310.147 2.99872 1.9901 0
M  V30 3208 C 309.755 4.30687 1.23339 0
M  V30 3209 C 311.499 3.25246 2.72792 0
M  V30 3210 C 309.406 5.52036 2.12156 0
M  V30 3211 H 308.336 0.631966 0.411261 0
M  V30 3212 H 310.987 1.80096 0.351802 0
M  V30 3213 H 309.369 2.83212 2.7678 0
M  V30 3214 H 310.543 4.58019 0.505456 0
M  V30 3215 H 308.858 4.11853 0.613663 0
M  V30 3216 H 311.455 4.13095 3.39495 0
M  V30 3217 H 311.798 2.41846 3.38846 0
M  V30 3218 H 312.331 3.42638 2.021 0
M  V30 3219 H 309.07 6.37951 1.50659 0
M  V30 3220 H 308.59 5.28966 2.82764 0
M  V30 3221 H 310.269 5.87313 2.71427 0
M  V30 3222 N 310.401 -0.613514 1.45168 0
M  V30 3223 C 311.626 -1.40437 1.52618 0
M  V30 3224 C 312.051 -1.87438 0.157707 0
M  V30 3225 O 311.409 -1.59791 -0.856537 0
M  V30 3226 C 311.457 -2.58894 2.51011 0
M  V30 3227 O 310.561 -3.59326 2.02382 0
M  V30 3228 H 309.902 -0.419506 0.514695 0
M  V30 3229 H 312.432 -0.747215 1.90467 0
M  V30 3230 H 312.442 -3.06214 2.69624 0
M  V30 3231 H 311.117 -2.24032 3.50403 0
M  V30 3232 H 309.694 -3.18695 1.93618 0
M  V30 3233 N 311.879 -1.3236 -0.855495 0
M  V30 3234 C 313.109 -1.25688 -1.6397 0
M  V30 3235 C 313.517 0.177592 -1.88365 0
M  V30 3236 O 312.86 1.12485 -1.45234 0
M  V30 3237 C 312.922 -1.94602 -3.02275 0
M  V30 3238 C 312.586 -3.43937 -3.00926 0
M  V30 3239 C 313.583 -4.39435 -2.77835 0
M  V30 3240 C 311.268 -3.85858 -3.21588 0
M  V30 3241 C 313.262 -5.74829 -2.75409 0
M  V30 3242 C 310.949 -5.21361 -3.18789 0
M  V30 3243 C 311.947 -6.15658 -2.95727 0
M  V30 3244 O 311.635 -7.48681 -2.928 0
M  V30 3245 H 311.367 -0.434972 -0.51747 0
M  V30 3246 H 313.921 -1.75023 -1.075 0
M  V30 3247 H 312.151 -1.39836 -3.60531 0
M  V30 3248 H 313.84 -1.81651 -3.62985 0
M  V30 3249 H 314.606 -4.08374 -2.6164 0
M  V30 3250 H 310.485 -3.12883 -3.38564 0
M  V30 3251 H 314.029 -6.48404 -2.57328 0
M  V30 3252 H 309.926 -5.52052 -3.34528 0
M  V30 3253 H 310.694 -7.5803 -3.0876 0
M  V30 3254 N 313.357 1.07166 -1.15556 0
M  V30 3255 C 314.304 2.14417 -0.854055 0
M  V30 3256 C 315.274 1.64965 0.193806 0
M  V30 3257 O 316.459 1.90703 0.0609443 0
M  V30 3258 C 313.599 3.43304 -0.351574 0
M  V30 3259 C 312.712 4.06537 -1.46123 0
M  V30 3260 C 311.847 5.23266 -0.914677 0
M  V30 3261 C 310.886 5.78464 -2.00114 0
M  V30 3262 N 310.023 6.86521 -1.47083 0
M  V30 3263 H 314.863 2.39548 -1.77259 0
M  V30 3264 H 312.4 1.17543 -0.884425 0
M  V30 3265 H 314.358 4.17179 -0.0419409 0
M  V30 3266 H 312.988 3.18419 0.530037 0
M  V30 3267 H 312.04 3.30297 -1.88701 0
M  V30 3268 H 313.352 4.43567 -2.28144 0
M  V30 3269 H 312.506 6.04131 -0.557698 0
M  V30 3270 H 311.245 4.87658 -0.0636583 0
M  V30 3271 H 310.25 4.96243 -2.36692 0
M  V30 3272 H 311.475 6.16126 -2.85597 0
M  V30 3273 H 309.421 6.52849 -0.642198 0
M  V30 3274 H 309.338 7.22446 -2.22729 0
M  V30 3275 H 310.606 7.71087 -1.14215 0
M  V30 3276 N 314.835 0.952656 1.25548 0
M  V30 3277 C 315.783 0.462354 2.27958 0
M  V30 3278 C 316.777 -0.46634 1.62855 0
M  V30 3279 O 317.983 -0.343287 1.76696 0
M  V30 3280 H 314.358 0.13101 0.7405 0
M  V30 3281 H 316.329 1.33839 2.66702 0
M  V30 3282 C 315.078 -0.24628 3.46827 0
M  V30 3283 H 314.401 0.459192 3.97154 0
M  V30 3284 H 315.841 -0.553393 4.20373 0
M  V30 3285 C 314.3 -1.4681 3.0323 0
M  V30 3286 O 314.83 -2.56591 3.09069 0
M  V30 3287 N 313.036 -1.32874 2.58443 0
M  V30 3288 H 312.583 -0.435536 2.53891 0
M  V30 3289 H 312.541 -2.14742 2.29637 0
M  V30 3290 N 316.313 -1.40141 0.720998 0
M  V30 3291 C 317.59 -1.94677 0.189757 0
M  V30 3292 C 317.97 -1.65879 -1.30566 0
M  V30 3293 O 317.318 -0.979391 -2.06447 0
M  V30 3294 C 317.528 -3.45279 0.508304 0
M  V30 3295 C 318.876 -4.22209 0.449934 0
M  V30 3296 O 319.9 -3.53413 0.444677 0
M  V30 3297 O 318.759 -5.44788 0.432189 0
M  V30 3298 H 315.853 -0.826459 0.0299026 0
M  V30 3299 H 318.399 -1.49719 0.7989 0
M  V30 3300 H 317.171 -3.59619 1.54239 0
M  V30 3301 H 316.794 -3.97386 -0.130525 0
M  V30 3302 N 317.792 -0.46758 -1.50504 0
M  V30 3303 C 318.755 0.317059 -2.26996 0
M  V30 3304 C 319.755 0.923513 -1.31635 0
M  V30 3305 O 320.945 0.793239 -1.55091 0
M  V30 3306 C 318.077 1.45134 -3.08462 0
M  V30 3307 H 319.27 -0.353723 -2.97807 0
M  V30 3308 H 316.823 -0.221545 -1.54722 0
M  V30 3309 H 317.558 2.15728 -2.4214 0
M  V30 3310 H 317.343 1.02232 -3.78538 0
M  V30 3311 H 318.833 2.00493 -3.66323 0
M  V30 3312 N 319.27 1.56325 -0.20005 0
M  V30 3313 C 320.5 2.01811 0.442232 0
M  V30 3314 C 320.908 1.07932 1.55394 0
M  V30 3315 O 320.251 0.0772685 1.83537 0
M  V30 3316 C 320.313 3.43685 1.05457 0
M  V30 3317 C 319.977 4.56928 0.0809833 0
M  V30 3318 C 320.974 5.15009 -0.711471 0
M  V30 3319 C 318.659 5.0229 -0.0315364 0
M  V30 3320 C 320.653 6.16904 -1.60336 0
M  V30 3321 C 318.34 6.04028 -0.926981 0
M  V30 3322 C 319.338 6.6121 -1.71146 0
M  V30 3323 O 319.026 7.60971 -2.59189 0
M  V30 3324 H 318.758 0.666173 0.114848 0
M  V30 3325 H 321.312 2.03085 -0.307511 0
M  V30 3326 H 319.542 3.39413 1.85299 0
M  V30 3327 H 321.231 3.72948 1.60201 0
M  V30 3328 H 321.997 4.80827 -0.634873 0
M  V30 3329 H 317.876 4.57476 0.568902 0
M  V30 3330 H 321.42 6.61464 -2.21611 0
M  V30 3331 H 317.317 6.37634 -1.00468 0
M  V30 3332 H 318.085 7.7841 -2.53023 0
M  V30 3333 N 320.748 -0.0735177 1.57428 0
M  V30 3334 C 321.995 -0.772999 1.87166 0
M  V30 3335 C 322.323 -1.77665 0.791551 0
M  V30 3336 O 321.578 -1.94541 -0.212636 0
M  V30 3337 C 321.877 -1.51799 3.23561 0
M  V30 3338 C 321.543 -0.654484 4.46125 0
M  V30 3339 C 320.205 -0.416511 4.79394 0
M  V30 3340 C 322.557 -0.0555862 5.2117 0
M  V30 3341 C 319.885 0.429869 5.85123 0
M  V30 3342 C 322.237 0.778239 6.27795 0
M  V30 3343 C 320.901 1.0261 6.59566 0
M  V30 3344 H 320.171 -0.282861 0.684888 0
M  V30 3345 H 322.818 -0.0338272 1.9147 0
M  V30 3346 H 321.123 -2.32932 3.1504 0
M  V30 3347 H 322.82 -2.06397 3.43804 0
M  V30 3348 H 319.41 -0.850091 4.20085 0
M  V30 3349 H 323.594 -0.226558 4.95783 0
M  V30 3350 H 318.85 0.630665 6.08139 0
M  V30 3351 H 323.024 1.24906 6.85107 0
M  V30 3352 H 320.651 1.68371 7.4132 0
M  V30 3353 N 322.226 -1.5378 -0.344866 0
M  V30 3354 C 323.156 -1.84662 -1.42906 0
M  V30 3355 C 324.137 -0.701648 -1.54955 0
M  V30 3356 O 325.322 -0.953438 -1.69184 0
M  V30 3357 C 322.452 -2.05503 -2.79974 0
M  V30 3358 C 321.406 -3.21318 -2.82734 0
M  V30 3359 C 320.732 -3.2749 -4.22675 0
M  V30 3360 C 322.032 -4.59456 -2.48389 0
M  V30 3361 H 323.726 -2.75461 -1.17311 0
M  V30 3362 H 321.272 -1.32542 -0.562896 0
M  V30 3363 H 323.225 -2.25691 -3.55867 0
M  V30 3364 H 321.949 -1.11434 -3.07002 0
M  V30 3365 H 320.608 -3.00984 -2.09294 0
M  V30 3366 H 320.256 -2.31019 -4.4681 0
M  V30 3367 H 319.956 -4.05316 -4.25433 0
M  V30 3368 H 321.48 -3.49887 -5.00412 0
M  V30 3369 H 322.894 -4.79667 -3.13995 0
M  V30 3370 H 321.291 -5.39675 -2.62432 0
M  V30 3371 H 322.361 -4.63155 -1.4358 0
M  V30 3372 N 323.704 0.605807 -1.45491 0
M  V30 3373 C 324.636 1.73031 -1.5031 0
M  V30 3374 C 325.649 1.57968 -0.393687 0
M  V30 3375 O 326.838 1.65817 -0.660839 0
M  V30 3376 C 323.938 3.11049 -1.34543 0
M  V30 3377 C 323.111 3.52334 -2.59189 0
M  V30 3378 C 322.17 4.69323 -2.37954 0
M  V30 3379 O 321.196 4.7635 -3.11575 0
M  V30 3380 N 322.398 5.62705 -1.4263 0
M  V30 3381 H 325.163 1.6936 -2.4726 0
M  V30 3382 H 322.724 0.79114 -1.41254 0
M  V30 3383 H 324.716 3.87071 -1.18144 0
M  V30 3384 H 323.286 3.09217 -0.458623 0
M  V30 3385 H 322.506 2.66256 -2.90691 0
M  V30 3386 H 323.794 3.76677 -3.42041 0
M  V30 3387 H 323.192 5.59744 -0.818758 0
M  V30 3388 H 321.749 6.38252 -1.32202 0
M  V30 3389 N 325.182 1.32811 0.848464 0
M  V30 3390 C 326.459 1.14334 1.58704 0
M  V30 3391 C 326.839 -0.293948 2.09043 0
M  V30 3392 O 326.187 -1.29153 1.88499 0
M  V30 3393 C 326.397 2.17626 2.72837 0
M  V30 3394 C 327.745 2.51282 3.42261 0
M  V30 3395 O 328.769 2.16219 2.83068 0
M  V30 3396 O 327.628 3.11413 4.49093 0
M  V30 3397 H 324.722 0.441601 0.699226 0
M  V30 3398 H 327.268 1.44362 0.892053 0
M  V30 3399 H 326.04 3.14211 2.3321 0
M  V30 3400 H 325.663 1.88628 3.50008 0
M  V30 3401 N 326.66 -1.06551 1.16123 0
M  V30 3402 C 327.59 -2.15935 0.88851 0
M  V30 3403 C 328.571 -1.69306 -0.164135 0
M  V30 3404 O 329.756 -1.94193 -0.0167857 0
M  V30 3405 C 326.886 -3.45149 0.385942 0
M  V30 3406 C 325.84 -4.05271 1.3762 0
M  V30 3407 C 325.166 -5.29664 0.732137 0
M  V30 3408 C 326.466 -4.44355 2.74493 0
M  V30 3409 H 328.16 -2.39006 1.80323 0
M  V30 3410 H 325.706 -1.14866 0.868435 0
M  V30 3411 H 327.659 -4.21004 0.182647 0
M  V30 3412 H 326.383 -3.21689 -0.564274 0
M  V30 3413 H 325.042 -3.3147 1.56599 0
M  V30 3414 H 324.69 -5.02499 -0.224483 0
M  V30 3415 H 324.39 -5.70848 1.39307 0
M  V30 3416 H 325.914 -6.08218 0.538802 0
M  V30 3417 H 327.328 -5.11303 2.59311 0
M  V30 3418 H 325.725 -4.96515 3.37035 0
M  V30 3419 H 326.795 -3.55339 3.29943 0
M  V30 3420 N 328.138 -0.959301 -1.25041 0
M  V30 3421 C 329.363 -0.633507 -1.97488 0
M  V30 3422 C 329.788 0.788555 -1.70773 0
M  V30 3423 O 329.146 1.53394 -0.966431 0
M  V30 3424 C 329.194 -0.904057 -3.49083 0
M  V30 3425 O 328.298 0.0147939 -4.12397 0
M  V30 3426 H 327.639 -0.240368 -0.618966 0
M  V30 3427 H 330.169 -1.28717 -1.59038 0
M  V30 3428 H 330.179 -0.832203 -3.99423 0
M  V30 3429 H 328.854 -1.94048 -3.67856 0
M  V30 3430 H 327.431 -0.109664 -3.72739 0
M  V30 3431 N 329.616 1.39756 -0.72842 0
M  V30 3432 C 330.546 2.33289 -0.0991354 0
M  V30 3433 C 331.527 1.53568 0.731489 0
M  V30 3434 O 332.712 1.81987 0.677807 0
M  V30 3435 C 329.842 3.3763 0.813834 0
M  V30 3436 C 328.796 4.2791 0.0878663 0
M  V30 3437 C 328.122 5.22894 1.11741 0
M  V30 3438 C 329.422 5.11314 -1.06563 0
M  V30 3439 H 331.116 2.86163 -0.880408 0
M  V30 3440 H 328.662 1.37591 -0.424819 0
M  V30 3441 H 330.615 4.0201 1.26355 0
M  V30 3442 H 329.339 2.83181 1.62715 0
M  V30 3443 H 327.998 3.65 -0.342159 0
M  V30 3444 H 327.646 4.64744 1.92412 0
M  V30 3445 H 327.346 5.84143 0.636477 0
M  V30 3446 H 328.87 5.90151 1.56697 0
M  V30 3447 H 330.284 5.69076 -0.694671 0
M  V30 3448 H 328.681 5.81671 -1.47577 0
M  V30 3449 H 329.751 4.46534 -1.89038 0
M  V30 3450 N 331.094 0.475555 1.50254 0
M  V30 3451 C 332.004 -0.321501 2.32387 0
M  V30 3452 C 333.02 -0.991755 1.42969 0
M  V30 3453 O 334.196 -0.978747 1.76018 0
M  V30 3454 C 331.261 -1.38667 3.17762 0
M  V30 3455 C 330.322 -0.732538 4.23004 0
M  V30 3456 C 329.555 -1.74695 5.04299 0
M  V30 3457 O 329.778 -2.97399 4.86734 0
M  V30 3458 O 328.712 -1.31631 5.8733 0
M  V30 3459 H 332.538 0.350071 3.01676 0
M  V30 3460 H 330.123 0.237321 1.47503 0
M  V30 3461 H 332.005 -2.00354 3.70724 0
M  V30 3462 H 330.68 -2.04163 2.51196 0
M  V30 3463 H 329.587 -0.0765902 3.74022 0
M  V30 3464 H 330.92 -0.120452 4.92053 0
M  V30 3465 N 332.573 -1.56217 0.208337 0
M  V30 3466 C 333.503 -2.22694 -0.702116 0
M  V30 3467 C 334.484 -1.19432 -1.2112 0
M  V30 3468 O 335.669 -1.47978 -1.25762 0
M  V30 3469 C 332.799 -2.8966 -1.9161 0
M  V30 3470 C 331.753 -3.9928 -1.5414 0
M  V30 3471 C 331.079 -4.53476 -2.83308 0
M  V30 3472 C 332.379 -5.17012 -0.741339 0
M  V30 3473 H 334.073 -2.99034 -0.147898 0
M  V30 3474 H 331.619 -1.43831 -0.0696951 0
M  V30 3475 H 333.572 -3.34852 -2.55836 0
M  V30 3476 H 332.296 -2.10746 -2.49507 0
M  V30 3477 H 330.955 -3.54799 -0.922668 0
M  V30 3478 H 330.603 -3.71308 -3.39322 0
M  V30 3479 H 330.303 -5.27451 -2.58976 0
M  V30 3480 H 331.827 -5.01378 -3.485 0
M  V30 3481 H 333.241 -5.58667 -1.28699 0
M  V30 3482 H 331.638 -5.97137 -0.595627 0
M  V30 3483 H 332.708 -4.8423 0.254851 0
M  V30 3484 N 334.051 0.0651679 -1.57465 0
M  V30 3485 C 334.981 1.07693 -2.07182 0
M  V30 3486 C 335.962 1.39962 -0.966673 0
M  V30 3487 O 337.147 1.49475 -1.2398 0
M  V30 3488 C 334.277 2.3885 -2.52127 0
M  V30 3489 C 333.231 2.20917 -3.66579 0
M  V30 3490 C 332.557 3.57515 -3.97601 0
M  V30 3491 C 333.857 1.62493 -4.9638 0
M  V30 3492 H 335.551 0.663199 -2.91962 0
M  V30 3493 H 333.097 0.317569 -1.40455 0
M  V30 3494 H 335.05 3.09928 -2.85522 0
M  V30 3495 H 333.774 2.82215 -1.64384 0
M  V30 3496 H 332.433 1.52279 -3.33477 0
M  V30 3497 H 332.081 3.98463 -3.06979 0
M  V30 3498 H 331.781 3.46353 -4.74672 0
M  V30 3499 H 333.305 4.30013 -4.33499 0
M  V30 3500 H 334.719 2.23445 -5.27963 0
M  V30 3501 H 333.116 1.62009 -5.77818 0
M  V30 3502 H 334.186 0.587041 -4.81333 0
M  V30 3503 N 335.529 1.53961 0.336706 0
M  V30 3504 C 336.776 1.71536 1.07618 0
M  V30 3505 C 337.104 0.482125 1.8843 0
M  V30 3506 O 336.359 -0.536142 1.88213 0
M  V30 3507 C 336.658 2.93493 2.03953 0
M  V30 3508 C 336.324 4.28811 1.39399 0
M  V30 3509 C 334.986 4.65602 1.21523 0
M  V30 3510 C 337.338 5.12844 0.929541 0
M  V30 3511 C 334.666 5.84037 0.558312 0
M  V30 3512 C 337.018 6.31951 0.286505 0
M  V30 3513 C 335.682 6.67432 0.0954869 0
M  V30 3514 H 334.952 0.627696 0.393801 0
M  V30 3515 H 337.599 1.88186 0.354715 0
M  V30 3516 H 335.904 2.71475 2.82504 0
M  V30 3517 H 337.601 3.04285 2.61174 0
M  V30 3518 H 334.191 3.99858 1.54311 0
M  V30 3519 H 338.375 4.84947 1.05548 0
M  V30 3520 H 333.631 6.10097 0.398995 0
M  V30 3521 H 337.805 6.96352 -0.0814376 0
M  V30 3522 H 335.432 7.59063 -0.415579 0
M  V30 3523 N 337.007 -0.598083 1.45811 0
M  V30 3524 C 338.418 -1.18011 1.44673 0
M  V30 3525 C 338.769 -1.95378 0.179364 0
M  V30 3526 O 337.894 -2.04124 -0.718509 0
M  V30 3527 C 338.489 -2.14677 2.62105 0
M  V30 3528 C 337.048 -2.68236 2.64057 0
M  V30 3529 C 336.195 -1.43816 2.37091 0
M  V30 3530 H 339.146 -0.38686 1.53913 0
M  V30 3531 H 339.167 -2.97878 2.36746 0
M  V30 3532 H 338.679 -1.5834 3.5433 0
M  V30 3533 H 336.78 -3.28486 1.75864 0
M  V30 3534 H 336.893 -3.12021 3.63566 0
M  V30 3535 H 335.257 -1.731 1.86838 0
M  V30 3536 H 336.04 -0.893333 3.31473 0
M  V30 3537 N 338.485 -1.33259 -0.841409 0
M  V30 3538 C 339.395 -1.25332 -1.98316 0
M  V30 3539 C 340.411 -0.164364 -1.73222 0
M  V30 3540 O 341.587 -0.387486 -1.97637 0
M  V30 3541 C 338.652 -0.990078 -3.32262 0
M  V30 3542 C 337.713 -2.16879 -3.70489 0
M  V30 3543 C 336.946 -1.91801 -4.98044 0
M  V30 3544 O 337.169 -0.867075 -5.63771 0
M  V30 3545 O 336.103 -2.78267 -5.33714 0
M  V30 3546 H 339.929 -2.21344 -2.07944 0
M  V30 3547 H 337.514 -1.1328 -0.974058 0
M  V30 3548 H 339.396 -0.860321 -4.12524 0
M  V30 3549 H 338.071 -0.0602155 -3.23644 0
M  V30 3550 H 336.978 -2.35407 -2.90748 0
M  V30 3551 H 338.311 -3.0819 -3.8377 0
M  V30 3552 N 339.963 1.05934 -1.16686 0
M  V30 3553 C 341.188 1.83029 -0.975455 0
M  V30 3554 C 341.613 1.82096 0.471452 0
M  V30 3555 O 340.971 1.22443 1.33706 0
M  V30 3556 C 341.019 3.27372 -1.51195 0
M  V30 3557 O 340.123 4.06054 -0.720701 0
M  V30 3558 H 339.464 0.566194 -0.346872 0
M  V30 3559 H 341.994 1.33541 -1.55009 0
M  V30 3560 H 342.004 3.78186 -1.53099 0
M  V30 3561 H 340.679 3.27366 -2.56523 0
M  V30 3562 H 339.256 3.64812 -0.772458 0
M  V30 3563 N 341.441 0.965919 1.2453 0
M  V30 3564 C 342.688 0.626831 1.92554 0
M  V30 3565 C 343.016 -0.837739 1.75534 0
M  V30 3566 O 342.271 -1.61793 1.10098 0
M  V30 3567 C 342.57 0.945428 3.44669 0
M  V30 3568 C 342.236 2.39785 3.81856 0
M  V30 3569 C 340.898 2.79483 3.91718 0
M  V30 3570 C 343.25 3.34055 4.00071 0
M  V30 3571 C 340.578 4.12496 4.1721 0
M  V30 3572 C 342.93 4.66694 4.27059 0
M  V30 3573 C 341.594 5.06172 4.3514 0
M  V30 3574 H 340.864 0.229374 0.704605 0
M  V30 3575 H 343.511 1.21707 1.4785 0
M  V30 3576 H 341.816 0.272926 3.90848 0
M  V30 3577 H 343.513 0.661484 3.95507 0
M  V30 3578 H 340.103 2.08003 3.74743 0
M  V30 3579 H 344.287 3.04571 3.91855 0
M  V30 3580 H 339.543 4.42709 4.21685 0
M  V30 3581 H 343.717 5.3971 4.40097 0
M  V30 3582 H 341.344 6.09262 4.54646 0
M  V30 3583 N 342.919 -1.39368 0.735821 0
M  V30 3584 C 344.167 -2.00101 0.283562 0
M  V30 3585 C 344.488 -1.5868 -1.13338 0
M  V30 3586 O 343.758 -0.835423 -1.77193 0
M  V30 3587 H 342.338 -0.740024 0.101851 0
M  V30 3588 H 345 -1.70404 0.945962 0
M  V30 3589 H 344.096 -3.10323 0.332604 0
M  V30 3590 N 344.397 -0.483516 -1.5 0
M  V30 3591 C 345.644 0.0671597 -2.02389 0
M  V30 3592 C 345.972 1.38597 -1.36459 0
M  V30 3593 O 345.227 1.89634 -0.483458 0
M  V30 3594 C 345.526 0.286226 -3.56252 0
M  V30 3595 C 345.192 -0.952416 -4.40726 0
M  V30 3596 C 343.854 -1.29199 -4.63531 0
M  V30 3597 C 346.206 -1.77655 -4.89988 0
M  V30 3598 C 343.534 -2.45553 -5.32842 0
M  V30 3599 C 345.886 -2.93147 -5.60578 0
M  V30 3600 C 344.55 -3.27505 -5.81633 0
M  V30 3601 H 343.82 0.0245755 -0.740592 0
M  V30 3602 H 346.467 -0.640124 -1.80485 0
M  V30 3603 H 344.772 1.07587 -3.76739 0
M  V30 3604 H 346.469 0.726473 -3.94365 0
M  V30 3605 H 343.059 -0.677881 -4.23205 0
M  V30 3606 H 347.243 -1.52737 -4.72213 0
M  V30 3607 H 342.499 -2.72431 -5.47349 0
M  V30 3608 H 346.673 -3.57344 -5.97727 0
M  V30 3609 H 344.3 -4.1777 -6.35116 0
M  V30 3610 N 345.875 1.56104 -0.216619 0
M  V30 3611 C 347.124 1.97348 0.416744 0
M  V30 3612 C 347.437 1.10715 1.6125 0
M  V30 3613 O 348.643 1.41836 2.31506 0
M  V30 3614 C 347.099 3.51059 0.792835 0
M  V30 3615 C 346.707 4.46387 -0.379828 0
M  V30 3616 C 348.451 4.01026 1.39208 0
M  V30 3617 C 346.358 5.91397 0.0184223 0
M  V30 3618 H 345.288 0.736942 0.159475 0
M  V30 3619 H 347.939 1.80827 -0.31205 0
M  V30 3620 H 346.321 3.63162 1.57891 0
M  V30 3621 H 347.495 4.46029 -1.15737 0
M  V30 3622 H 345.81 4.06734 -0.891979 0
M  V30 3623 H 348.407 5.0686 1.70286 0
M  V30 3624 H 348.75 3.46587 2.30614 0
M  V30 3625 H 349.283 3.92125 0.669537 0
M  V30 3626 H 346.022 6.49807 -0.862002 0
M  V30 3627 H 345.542 5.94961 0.760384 0
M  V30 3628 H 347.221 6.45455 0.446818 0
M  V30 3629 N 347.353 -0.0568162 1.57498 0
M  V30 3630 C 348.581 -0.765626 1.92213 0
M  V30 3631 C 348.996 -1.70353 0.813961 0
M  V30 3632 O 348.353 -1.81268 -0.211701 0
M  V30 3633 C 348.404 -1.5465 3.2675 0
M  V30 3634 O 348.125 -0.646278 4.33307 0
M  V30 3635 C 349.626 -2.35497 3.75574 0
M  V30 3636 H 346.846 -0.216835 0.634999 0
M  V30 3637 H 349.39 -0.0226146 2.04487 0
M  V30 3638 H 347.545 -2.24165 3.15957 0
M  V30 3639 H 347.959 -1.19093 5.108 0
M  V30 3640 H 349.433 -2.85722 4.72299 0
M  V30 3641 H 349.91 -3.15692 3.05344 0
M  V30 3642 H 350.516 -1.7111 3.8936 0
M  V30 3643 N 348.832 -1.54138 -0.328536 0
M  V30 3644 C 350.062 -1.75807 -1.08516 0
M  V30 3645 C 350.47 -0.50428 -1.82356 0
M  V30 3646 O 349.813 0.534451 -1.75754 0
M  V30 3647 C 349.875 -2.89423 -2.13248 0
M  V30 3648 C 349.539 -4.28504 -1.5885 0
M  V30 3649 C 350.536 -5.09536 -1.03289 0
M  V30 3650 C 348.221 -4.75034 -1.63243 0
M  V30 3651 C 350.215 -6.35206 -0.52845 0
M  V30 3652 C 347.902 -6.00672 -1.12411 0
M  V30 3653 C 348.9 -6.80592 -0.573062 0
M  V30 3654 O 348.588 -8.03867 -0.0723692 0
M  V30 3655 H 348.32 -0.590633 -0.328829 0
M  V30 3656 H 350.874 -2.01819 -0.381868 0
M  V30 3657 H 349.104 -2.5897 -2.87178 0
M  V30 3658 H 350.793 -2.98921 -2.74592 0
M  V30 3659 H 351.559 -4.74745 -0.99206 0
M  V30 3660 H 347.438 -4.12875 -2.05074 0
M  V30 3661 H 350.982 -6.97532 -0.0976774 0
M  V30 3662 H 346.879 -6.34955 -1.162 0
M  V30 3663 H 347.647 -8.18283 -0.188258 0
M  V30 3664 N 350.31 0.590341 -1.46126 0
M  V30 3665 C 351.242 1.71427 -1.52136 0
M  V30 3666 C 352.255 1.57542 -0.41042 0
M  V30 3667 O 353.444 1.65106 -0.678389 0
M  V30 3668 C 350.544 3.09605 -1.37834 0
M  V30 3669 C 349.717 3.49566 -2.62912 0
M  V30 3670 C 348.776 4.66773 -2.42918 0
M  V30 3671 O 347.802 4.73019 -3.1661 0
M  V30 3672 N 349.004 5.61161 -1.4859 0
M  V30 3673 H 351.769 1.66728 -2.49042 0
M  V30 3674 H 349.33 0.776113 -1.42085 0
M  V30 3675 H 351.322 3.85796 -1.22243 0
M  V30 3676 H 349.892 3.08714 -0.491393 0
M  V30 3677 H 349.112 2.63158 -2.93499 0
M  V30 3678 H 350.4 3.73028 -3.46017 0
M  V30 3679 H 349.798 5.58844 -0.87808 0
M  V30 3680 H 348.355 6.36814 -1.38965 0
M  V30 3681 N 351.788 1.33704 0.83433 0
M  V30 3682 C 353.036 1.25169 1.58673 0
M  V30 3683 C 353.357 -0.18127 1.94156 0
M  V30 3684 O 352.627 -1.11113 1.6134 0
M  V30 3685 H 351.207 0.4603 0.58833 0
M  V30 3686 H 353.869 1.67478 0.996847 0
M  V30 3687 H 352.965 1.84856 2.51465 0
M  V30 3688 N 353.266 -1.05314 1.17247 0
M  V30 3689 C 354.491 -1.82509 0.985148 0
M  V30 3690 C 354.916 -1.82343 -0.461788 0
M  V30 3691 O 354.274 -1.23151 -1.33055 0
M  V30 3692 C 354.322 -3.26566 1.52929 0
M  V30 3693 O 353.426 -4.05666 0.742225 0
M  V30 3694 H 352.767 -0.564347 0.349869 0
M  V30 3695 H 355.297 -1.32718 1.55715 0
M  V30 3696 H 355.307 -3.77369 1.55103 0
M  V30 3697 H 353.982 -3.26001 2.58256 0
M  V30 3698 H 352.559 -3.64397 0.791794 0
M  V30 3699 N 354.744 -0.972509 -1.24016 0
M  V30 3700 C 355.674 -0.525548 -2.27509 0
M  V30 3701 C 356.655 0.437262 -1.64384 0
M  V30 3702 O 357.84 0.332343 -1.91335 0
M  V30 3703 C 354.97 0.180448 -3.46831 0
M  V30 3704 C 353.924 -0.698859 -4.22256 0
M  V30 3705 C 353.25 0.138903 -5.3452 0
M  V30 3706 C 354.55 -1.98582 -4.83076 0
M  V30 3707 H 356.244 -1.39058 -2.65148 0
M  V30 3708 H 353.79 -0.67009 -1.27459 0
M  V30 3709 H 355.743 0.504387 -4.18371 0
M  V30 3710 H 354.467 1.07987 -3.08231 0
M  V30 3711 H 353.126 -1.00614 -3.52523 0
M  V30 3712 H 352.774 1.03862 -4.9216 0
M  V30 3713 H 352.474 -0.446259 -5.85903 0
M  V30 3714 H 353.998 0.457404 -6.08884 0
M  V30 3715 H 355.412 -1.72715 -5.46665 0
M  V30 3716 H 353.809 -2.5181 -5.44713 0
M  V30 3717 H 354.879 -2.67769 -4.04262 0
M  V30 3718 N 356.222 1.38976 -0.743202 0
M  V30 3719 C 357.447 2.05161 -0.303936 0
M  V30 3720 C 357.872 1.55677 1.05576 0
M  V30 3721 O 357.23 0.704131 1.67068 0
M  V30 3722 C 357.278 3.59138 -0.324373 0
M  V30 3723 O 356.382 4.06668 0.685204 0
M  V30 3724 H 355.723 0.649815 -0.136518 0
M  V30 3725 H 358.253 1.77852 -1.01142 0
M  V30 3726 H 358.263 4.07639 -0.171618 0
M  V30 3727 H 356.938 3.94515 -1.31647 0
M  V30 3728 H 355.515 3.69561 0.497913 0
M  V30 3729 N 357.7 0.491464 1.49741 0
M  V30 3730 C 358.928 -0.0535151 2.06831 0
M  V30 3731 C 359.343 -1.31683 1.35296 0
M  V30 3732 O 358.7 -1.77402 0.42836 0
M  V30 3733 C 358.751 -0.320835 3.60073 0
M  V30 3734 O 358.472 0.892394 4.28915 0
M  V30 3735 C 359.973 -0.910519 4.33848 0
M  V30 3736 H 357.193 0.0161909 0.670805 0
M  V30 3737 H 359.737 0.68609 1.92647 0
M  V30 3738 H 357.892 -1.0104 3.73991 0
M  V30 3739 H 358.306 0.649401 5.20464 0
M  V30 3740 H 359.78 -1.04721 5.41976 0
M  V30 3741 H 360.257 -1.90589 3.95692 0
M  V30 3742 H 360.863 -0.258712 4.24512 0
M  V30 3743 N 359.178 -1.55987 0.224894 0
M  V30 3744 C 360.589 -1.84553 -0.282345 0
M  V30 3745 C 360.94 -1.14634 -1.59227 0
M  V30 3746 O 360.065 -0.417155 -2.12341 0
M  V30 3747 C 360.66 -3.348 -0.519062 0
M  V30 3748 C 359.219 -3.63671 -0.970604 0
M  V30 3749 C 358.366 -2.77277 -0.0355261 0
M  V30 3750 H 361.317 -1.52245 0.448006 0
M  V30 3751 H 361.338 -3.55187 -1.36463 0
M  V30 3752 H 360.85 -3.8566 0.43449 0
M  V30 3753 H 358.951 -3.1827 -1.9374 0
M  V30 3754 H 359.064 -4.71631 -0.842698 0
M  V30 3755 H 357.428 -2.48846 -0.542927 0
M  V30 3756 H 358.211 -3.30937 0.913003 0
M  V30 3757 N 360.656 0.0484629 -1.57525 0
M  V30 3758 C 362.067 0.597486 -1.76881 0
M  V30 3759 C 362.418 1.76664 -0.853475 0
M  V30 3760 O 361.543 2.16357 -0.0433656 0
M  V30 3761 C 362.138 1.09066 -3.20765 0
M  V30 3762 C 360.697 1.58535 -3.41385 0
M  V30 3763 C 359.844 0.514868 -2.72478 0
M  V30 3764 H 362.795 -0.177758 -1.57701 0
M  V30 3765 H 362.816 1.95875 -3.2621 0
M  V30 3766 H 362.328 0.239521 -3.8736 0
M  V30 3767 H 360.429 2.45898 -2.79937 0
M  V30 3768 H 360.542 1.64622 -4.49929 0
M  V30 3769 H 358.906 0.965407 -2.35695 0
M  V30 3770 H 359.689 -0.32648 -3.41744 0
M  V30 3771 N 362.134 1.5431 0.320358 0
M  V30 3772 C 363.374 1.74395 1.0661 0
M  V30 3773 C 363.738 0.508602 1.85141 0
M  V30 3774 O 364.939 0.586856 2.62316 0
M  V30 3775 C 363.21 2.98619 1.96371 0
M  V30 3776 S 364.769 3.39621 2.77854 0
M  V30 3777 H 361.587 0.613204 0.359863 0
M  V30 3778 H 364.189 1.9249 0.341727 0
M  V30 3779 H 362.893 3.86673 1.3752 0
M  V30 3780 H 362.424 2.83055 2.73209 0
M  V30 3781 H 364.439 2.95172 3.98858 0
M  V30 3782 N 363.613 -0.582584 1.46437 0
M  V30 3783 C 364.838 -1.37168 1.55563 0
M  V30 3784 C 365.263 -1.87061 0.19743 0
M  V30 3785 O 364.621 -1.61572 -0.822451 0
M  V30 3786 C 364.669 -2.53511 2.56446 0
M  V30 3787 O 363.773 -3.54953 2.09958 0
M  V30 3788 H 363.114 -0.408494 0.523477 0
M  V30 3789 H 365.644 -0.706646 1.9201 0
M  V30 3790 H 365.654 -3.00426 2.76058 0
M  V30 3791 H 364.329 -2.16549 3.55076 0
M  V30 3792 H 362.906 -3.14516 2.00334 0
M  V30 3793 N 365.091 -1.34144 -0.827227 0
M  V30 3794 C 366.001 -1.27428 -1.96975 0
M  V30 3795 C 367.017 -0.182728 -1.73038 0
M  V30 3796 O 368.193 -0.408426 -1.97215 0
M  V30 3797 C 365.258 -1.02526 -3.31194 0
M  V30 3798 C 364.319 -2.20796 -3.68168 0
M  V30 3799 C 363.552 -1.97073 -4.95982 0
M  V30 3800 O 363.775 -0.926822 -5.6282 0
M  V30 3801 O 362.709 -2.83912 -5.30733 0
M  V30 3802 H 366.535 -2.23537 -2.05584 0
M  V30 3803 H 364.12 -1.14307 -0.961989 0
M  V30 3804 H 366.002 -0.904026 -4.11589 0
M  V30 3805 H 364.677 -0.0945389 -3.23562 0
M  V30 3806 H 363.584 -2.38477 -2.88235 0
M  V30 3807 H 364.917 -3.12243 -3.8048 0
M  V30 3808 N 366.569 1.04691 -1.17803 0
M  V30 3809 C 367.797 1.81446 -0.99423 0
M  V30 3810 C 368.212 1.83174 0.457459 0
M  V30 3811 O 367.569 1.26265 1.31771 0
M  V30 3812 C 367.62 3.27334 -1.5341 0
M  V30 3813 O 367.341 3.25798 -2.92895 0
M  V30 3814 C 368.842 4.20759 -1.39559 0
M  V30 3815 H 366.062 0.571599 -0.351447 0
M  V30 3816 H 368.606 1.31982 -1.56208 0
M  V30 3817 H 366.761 3.74052 -1.00815 0
M  V30 3818 H 367.175 4.17144 -3.17949 0
M  V30 3819 H 368.649 5.21084 -1.82141 0
M  V30 3820 H 369.126 4.37856 -0.343394 0
M  V30 3821 H 369.732 3.79901 -1.91195 0
M  V30 3822 N 368.047 0.979072 1.23499 0
M  V30 3823 C 369.293 0.648178 1.92163 0
M  V30 3824 C 369.626 -0.816049 1.76222 0
M  V30 3825 O 368.901 -1.58849 1.12237 0
M  V30 3826 C 369.184 1.03773 3.44824 0
M  V30 3827 C 369.037 2.55948 3.69879 0
M  V30 3828 C 370.356 0.580653 4.36253 0
M  V30 3829 H 367.475 0.236952 0.69787 0
M  V30 3830 H 370.117 1.22012 1.45647 0
M  V30 3831 H 368.267 0.551058 3.84572 0
M  V30 3832 H 369.939 3.12179 3.3962 0
M  V30 3833 H 368.182 2.98641 3.14636 0
M  V30 3834 H 368.853 2.78255 4.76737 0
M  V30 3835 H 371.329 0.998465 4.03943 0
M  V30 3836 H 370.205 0.881663 5.41773 0
M  V30 3837 H 370.466 -0.519052 4.39042 0
M  V30 3838 N 369.525 -1.3858 0.750561 0
M  V30 3839 C 370.753 -2.04471 0.316098 0
M  V30 3840 C 371.168 -1.56606 -1.05452 0
M  V30 3841 O 370.525 -0.737784 -1.66922 0
M  V30 3842 C 370.576 -3.60025 0.326275 0
M  V30 3843 O 370.297 -4.06133 1.6428 0
M  V30 3844 C 371.798 -4.43131 -0.122429 0
M  V30 3845 H 369.018 -0.65717 0.135528 0
M  V30 3846 H 371.562 -1.77329 1.01857 0
M  V30 3847 H 369.717 -3.86014 -0.327431 0
M  V30 3848 H 370.131 -5.00547 1.56693 0
M  V30 3849 H 371.605 -5.51963 -0.0641473 0
M  V30 3850 H 372.082 -4.23333 -1.16988 0
M  V30 3851 H 372.688 -4.22323 0.50229 0
M  V30 3852 N 371.003 -0.499398 -1.49478 0
M  V30 3853 C 372.249 0.0377587 -2.03365 0
M  V30 3854 C 372.604 1.3484 -1.37244 0
M  V30 3855 O 371.897 1.85 -0.498547 0
M  V30 3856 C 372.091 0.248424 -3.56536 0
M  V30 3857 C 371.92 -1.04025 -4.37503 0
M  V30 3858 C 370.69 -1.59159 -4.79579 0
M  V30 3859 C 372.888 -1.9431 -4.76181 0
M  V30 3860 N 370.87 -2.82634 -5.44969 0
M  V30 3861 C 372.241 -3.02364 -5.41272 0
M  V30 3862 C 374.296 -1.95008 -4.58123 0
M  V30 3863 C 372.999 -4.1114 -5.90217 0
M  V30 3864 C 375.025 -3.02758 -5.08027 0
M  V30 3865 C 374.387 -4.09531 -5.73118 0
M  V30 3866 H 370.486 -0.026923 -0.781536 0
M  V30 3867 H 373.07 -0.673901 -1.82665 0
M  V30 3868 H 371.241 0.929139 -3.77123 0
M  V30 3869 H 372.973 0.782445 -3.97064 0
M  V30 3870 H 369.728 -1.13696 -4.5975 0
M  V30 3871 H 370.152 -3.45416 -5.82252 0
M  V30 3872 H 374.794 -1.13766 -4.07207 0
M  V30 3873 H 372.512 -4.93181 -6.40155 0
M  V30 3874 H 376.098 -3.04315 -4.95866 0
M  V30 3875 H 374.978 -4.91534 -6.11035 0
M  V30 3876 N 372.481 1.55866 -0.233164 0
M  V30 3877 C 373.73 1.97779 0.39579 0
M  V30 3878 C 374.043 1.12419 1.60066 0
M  V30 3879 O 375.249 1.44283 2.29988 0
M  V30 3880 C 373.705 3.5188 0.755556 0
M  V30 3881 C 373.313 4.45959 -0.427152 0
M  V30 3882 C 375.057 4.02479 1.34946 0
M  V30 3883 C 372.964 5.91383 -0.0443043 0
M  V30 3884 H 371.894 0.738592 0.15165 0
M  V30 3885 H 374.545 1.80486 -0.331212 0
M  V30 3886 H 372.927 3.64816 1.5403 0
M  V30 3887 H 374.101 4.44776 -1.20462 0
M  V30 3888 H 372.416 4.05765 -0.935068 0
M  V30 3889 H 375.013 5.08637 1.649 0
M  V30 3890 H 375.356 3.49014 2.26925 0
M  V30 3891 H 375.889 3.92813 0.62791 0
M  V30 3892 H 372.628 6.48857 -0.930874 0
M  V30 3893 H 372.148 5.95734 0.697238 0
M  V30 3894 H 373.827 6.45893 0.378334 0
M  V30 3895 N 373.959 -0.0401083 1.57549 0
M  V30 3896 C 374.889 -1.04384 2.08869 0
M  V30 3897 C 375.87 -1.38407 0.988817 0
M  V30 3898 O 377.055 -1.47483 1.26342 0
M  V30 3899 C 374.185 -2.34808 2.55895 0
M  V30 3900 C 373.139 -2.15057 3.70047 0
M  V30 3901 C 372.465 -3.51145 4.03239 0
M  V30 3902 C 373.765 -1.54576 4.98902 0
M  V30 3903 H 375.459 -0.616666 2.92981 0
M  V30 3904 H 373.005 -0.295184 1.40942 0
M  V30 3905 H 374.958 -3.05346 2.90417 0
M  V30 3906 H 373.682 -2.79565 1.68853 0
M  V30 3907 H 372.341 -1.46954 3.35857 0
M  V30 3908 H 371.989 -3.93529 3.13279 0
M  V30 3909 H 371.689 -3.38758 4.80122 0
M  V30 3910 H 373.213 -4.23062 4.40285 0
M  V30 3911 H 374.627 -2.15017 5.31451 0
M  V30 3912 H 373.024 -1.52796 5.80322 0
M  V30 3913 H 374.094 -0.51039 4.82206 0
M  V30 3914 N 375.437 -1.54477 -0.31217 0
M  V30 3915 C 376.686 -1.72438 -1.04633 0
M  V30 3916 C 376.999 -0.511163 -1.88803 0
M  V30 3917 O 378.205 -0.572341 -2.65399 0
M  V30 3918 C 376.661 -3.05043 -1.9099 0
M  V30 3919 C 376.269 -4.33806 -1.11877 0
M  V30 3920 C 378.013 -3.32364 -2.64073 0
M  V30 3921 C 375.92 -5.57467 -1.97445 0
M  V30 3922 H 374.85 -0.642647 -0.394361 0
M  V30 3923 H 377.501 -1.80966 -0.303929 0
M  V30 3924 H 375.883 -2.90451 -2.69173 0
M  V30 3925 H 377.057 -4.59199 -0.383843 0
M  V30 3926 H 375.372 -4.13336 -0.504252 0
M  V30 3927 H 377.969 -4.21951 -3.28423 0
M  V30 3928 H 378.312 -2.50745 -3.32314 0
M  V30 3929 H 378.845 -3.47875 -1.92944 0
M  V30 3930 H 375.584 -6.41722 -1.33692 0
M  V30 3931 H 375.104 -5.36277 -2.6864 0
M  V30 3932 H 376.783 -5.94303 -2.5576 0
M  V30 3933 N 376.915 0.57481 -1.46744 0
M  V30 3934 C 378.192 1.3352 -1.4294 0
M  V30 3935 C 378.572 2.10775 -0.117009 0
M  V30 3936 O 377.92 2.09966 0.901474 0
M  V30 3937 C 378.13 2.25456 -2.66403 0
M  V30 3938 C 379.478 2.87035 -3.12883 0
M  V30 3939 O 380.502 2.35766 -2.67007 0
M  V30 3940 O 379.361 3.80179 -3.92589 0
M  V30 3941 H 376.455 0.600318 -0.568812 0
M  V30 3942 H 379.001 0.595171 -1.58921 0
M  V30 3943 H 377.773 1.67851 -3.53471 0
M  V30 3944 H 377.396 3.06785 -2.52921 0
M  V30 3945 N 378.394 1.34581 0.820102 0
M  V30 3946 C 379.81 1.14325 1.11364 0
M  V30 3947 C 380.01 -0.0533648 2.01429 0
M  V30 3948 O 379.066 -0.728044 2.41776 0
M  V30 3949 C 380.379 2.43983 1.75764 0
M  V30 3950 C 381.927 2.50065 1.88246 0
M  V30 3951 C 382.402 3.79732 2.56061 0
M  V30 3952 N 383.893 3.80908 2.63558 0
M  V30 3953 C 384.628 4.77961 3.16766 0
M  V30 3954 N 384.124 5.85397 3.70517 0
M  V30 3955 N 385.917 4.65413 3.15194 0
M  V30 3956 H 378.068 2.11246 0.221096 0
M  V30 3957 H 380.331 0.934289 0.160649 0
M  V30 3958 H 380.037 3.31651 1.1705 0
M  V30 3959 H 379.911 2.57531 2.75604 0
M  V30 3960 H 382.298 1.62834 2.46108 0
M  V30 3961 H 382.379 2.40442 0.873006 0
M  V30 3962 H 382.023 4.67354 1.98853 0
M  V30 3963 H 381.953 3.86639 3.57516 0
M  V30 3964 H 384.444 3.03274 2.25463 0
M  V30 3965 H 384.757 6.55463 4.09376 0
M  V30 3966 H 383.102 5.89107 3.68752 0
M  V30 3967 H 386.293 3.80627 2.72471 0
M  V30 3968 H 386.466 5.41216 3.56356 0
M  V30 3969 N 379.872 -1.04064 1.18357 0
M  V30 3970 C 380.835 -2.10243 0.912707 0
M  V30 3971 C 381.835 -1.60477 -0.101928 0
M  V30 3972 O 383.025 -1.73703 0.131517 0
M  V30 3973 C 380.157 -3.38893 0.369387 0
M  V30 3974 H 381.35 -2.35706 1.85426 0
M  V30 3975 H 378.903 -1.20489 0.995594 0
M  V30 3976 H 379.638 -3.19094 -0.578776 0
M  V30 3977 H 379.423 -3.76331 1.1008 0
M  V30 3978 H 380.913 -4.17128 0.198575 0
M  V30 3979 N 381.35 -0.985608 -1.22978 0
M  V30 3980 C 382.28 -0.549649 -2.26939 0
M  V30 3981 C 383.261 0.419803 -1.64838 0
M  V30 3982 O 384.446 0.31203 -1.91677 0
M  V30 3983 C 381.576 0.143652 -3.47003 0
M  V30 3984 C 380.53 -0.743606 -4.21491 0
M  V30 3985 C 379.856 0.0822027 -5.34637 0
M  V30 3986 C 381.156 -2.03694 -4.80943 0
M  V30 3987 H 382.85 -1.41862 -2.63658 0
M  V30 3988 H 380.396 -0.683571 -1.26741 0
M  V30 3989 H 382.349 0.459985 -4.18882 0
M  V30 3990 H 381.073 1.04711 -3.09359 0
M  V30 3991 H 379.732 -1.04347 -3.51436 0
M  V30 3992 H 379.38 0.986359 -4.93234 0
M  V30 3993 H 379.08 -0.508377 -5.85397 0
M  V30 3994 H 380.604 0.392797 -6.09335 0
M  V30 3995 H 382.018 -1.78504 -5.44802 0
M  V30 3996 H 380.415 -2.57573 -5.42011 0
M  V30 3997 H 381.485 -2.72042 -4.01399 0
M  V30 3998 N 382.828 1.3818 -0.7579 0
M  V30 3999 C 383.776 2.32277 -0.122482 0
M  V30 4000 C 384.77 1.54238 0.700505 0
M  V30 4001 O 385.976 1.69737 0.599119 0
M  V30 4002 H 382.351 0.751712 -0.0208143 0
M  V30 4003 H 384.322 2.83469 -0.932099 0
M  V30 4004 C 383.071 3.39447 0.753076 0
M  V30 4005 H 382.394 3.99591 0.129184 0
M  V30 4006 H 383.834 4.07684 1.16489 0
M  V30 4007 C 382.293 2.78375 1.8976 0
M  V30 4008 O 382.823 2.68025 2.99208 0
M  V30 4009 N 381.029 2.36121 1.69397 0
M  V30 4010 H 380.576 2.4474 0.803762 0
M  V30 4011 H 380.534 1.95602 2.46145 0
M  V30 4012 N 384.306 0.507319 1.49211 0
M  V30 4013 C 385.555 -0.0368315 2.01666 0
M  V30 4014 C 385.868 -1.37459 1.39156 0
M  V30 4015 O 387.074 -2.00579 1.82976 0
M  V30 4016 C 385.53 -0.116089 3.59713 0
M  V30 4017 C 385.138 1.2154 4.31198 0
M  V30 4018 C 386.882 -0.610268 4.2009 0
M  V30 4019 C 384.789 1.09796 5.81119 0
M  V30 4020 H 383.719 -0.0175376 0.753796 0
M  V30 4021 H 386.37 0.647691 1.71689 0
M  V30 4022 H 384.752 -0.8652 3.86433 0
M  V30 4023 H 385.926 1.9783 4.16173 0
M  V30 4024 H 384.241 1.64352 3.82593 0
M  V30 4025 H 386.838 -0.715742 5.29888 0
M  V30 4026 H 387.181 -1.61064 3.8388 0
M  V30 4027 H 387.714 0.0824916 3.97714 0
M  V30 4028 H 384.453 2.0728 6.21864 0
M  V30 4029 H 383.973 0.376058 5.9862 0
M  V30 4030 H 385.652 0.779281 6.4229 0
M  V30 4031 N 385.784 -1.5574 0.241426 0
M  V30 4032 C 387.012 -2.03208 -0.389134 0
M  V30 4033 C 387.427 -1.12082 -1.51931 0
M  V30 4034 O 386.784 -0.134183 -1.82006 0
M  V30 4035 C 386.835 -3.50064 -0.902087 0
M  V30 4036 O 386.556 -4.37717 0.18305 0
M  V30 4037 C 388.057 -4.13268 -1.60389 0
M  V30 4038 H 385.277 -0.664509 -0.0931053 0
M  V30 4039 H 387.821 -2.0124 0.36369 0
M  V30 4040 H 385.976 -3.52583 -1.60511 0
M  V30 4041 H 386.39 -5.24097 -0.205579 0
M  V30 4042 H 387.864 -5.17733 -1.91458 0
M  V30 4043 H 388.341 -3.59434 -2.52397 0
M  V30 4044 H 388.947 -4.14655 -0.945576 0
M  V30 4045 N 387.262 0.0317525 -1.57568 0
M  V30 4046 C 388.487 0.738664 -1.938 0
M  V30 4047 C 388.912 1.68242 -0.841208 0
M  V30 4048 O 388.27 1.80157 0.203267 0
M  V30 4049 C 388.318 1.47417 -3.29091 0
M  V30 4050 O 387.422 2.5872 -3.2115 0
M  V30 4051 H 386.763 0.198856 -0.633524 0
M  V30 4052 H 389.293 -0.0119713 -2.04596 0
M  V30 4053 H 389.303 1.84468 -3.63917 0
M  V30 4054 H 387.978 0.781988 -4.08482 0
M  V30 4055 H 386.555 2.24231 -2.97951 0
M  V30 4056 N 388.74 1.54641 0.303973 0
M  V30 4057 C 389.67 1.88386 1.3796 0
M  V30 4058 C 390.651 0.742485 1.5304 0
M  V30 4059 O 391.836 0.997959 1.66597 0
M  V30 4060 C 388.966 2.12854 2.74427 0
M  V30 4061 C 387.92 3.28702 2.74115 0
M  V30 4062 C 387.246 3.38582 4.13844 0
M  V30 4063 C 388.546 4.65881 2.3612 0
M  V30 4064 H 390.24 2.78474 1.09966 0
M  V30 4065 H 387.786 1.33988 0.527556 0
M  V30 4066 H 389.739 2.35047 3.49758 0
M  V30 4067 H 388.463 1.19535 3.03939 0
M  V30 4068 H 387.122 3.06428 2.0124 0
M  V30 4069 H 386.77 2.42784 4.40528 0
M  V30 4070 H 386.47 4.16453 4.14537 0
M  V30 4071 H 387.994 3.63031 4.90959 0
M  V30 4072 H 389.408 4.87823 3.01167 0
M  V30 4073 H 387.805 5.46444 2.48031 0
M  V30 4074 H 388.875 4.66799 1.3125 0
M  V30 4075 N 390.218 -0.567019 1.47046 0
M  V30 4076 C 391.15 -1.68985 1.54844 0
M  V30 4077 C 392.163 -1.56869 0.435431 0
M  V30 4078 O 393.352 -1.64006 0.70457 0
M  V30 4079 C 390.452 -3.07373 1.42742 0
M  V30 4080 C 389.625 -3.45339 2.6844 0
M  V30 4081 C 388.684 -4.62849 2.50314 0
M  V30 4082 O 387.71 -4.67922 3.24095 0
M  V30 4083 N 388.912 -5.58726 1.57499 0
M  V30 4084 H 391.677 -1.62745 2.51663 0
M  V30 4085 H 389.238 -0.753411 1.43302 0
M  V30 4086 H 391.23 -3.83803 1.28365 0
M  V30 4087 H 389.8 -3.07893 0.540445 0
M  V30 4088 H 389.02 -2.58455 2.97648 0
M  V30 4089 H 390.308 -3.67476 3.51907 0
M  V30 4090 H 389.706 -5.57376 0.966876 0
M  V30 4091 H 388.263 -6.34523 1.49078 0
M  V30 4092 N 391.696 -1.35014 -0.812953 0
M  V30 4093 C 392.629 -1.21761 -1.93001 0
M  V30 4094 C 393.607 -0.10694 -1.62248 0
M  V30 4095 O 394.791 -0.273891 -1.865 0
M  V30 4096 C 391.918 -0.873404 -3.27245 0
M  V30 4097 C 390.964 -1.99523 -3.76952 0
M  V30 4098 S 391.797 -3.61009 -3.95516 0
M  V30 4099 C 392.953 -3.28651 -5.32672 0
M  V30 4100 H 393.186 -2.16315 -2.03948 0
M  V30 4101 H 390.719 -1.20156 -0.969631 0
M  V30 4102 H 392.677 -0.68161 -4.04802 0
M  V30 4103 H 391.338 0.053971 -3.14054 0
M  V30 4104 H 390.531 -1.70838 -4.74163 0
M  V30 4105 H 390.133 -2.14503 -3.06373 0
M  V30 4106 H 392.425 -2.81085 -6.1644 0
M  V30 4107 H 393.368 -4.25039 -5.66346 0
M  V30 4108 H 393.776 -2.6458 -4.98656 0
M  V30 4109 N 393.175 1.03435 -1.18907 0
M  V30 4110 C 394.125 2.09924 -0.889706 0
M  V30 4111 C 395.109 1.60261 0.143216 0
M  V30 4112 O 396.301 1.76892 -0.0617122 0
M  V30 4113 C 393.43 3.40669 -0.424168 0
M  V30 4114 C 392.516 3.97082 -1.48952 0
M  V30 4115 N 392.907 4.27227 -2.70759 0
M  V30 4116 C 391.205 4.25029 -1.35152 0
M  V30 4117 C 391.906 4.7246 -3.39347 0
M  V30 4118 N 390.882 4.7366 -2.66735 0
M  V30 4119 H 394.684 2.31116 -1.81555 0
M  V30 4120 H 392.198 1.21246 -1.08042 0
M  V30 4121 H 394.195 4.16461 -0.191176 0
M  V30 4122 H 392.855 3.20901 0.495263 0
M  V30 4123 H 393.866 4.16678 -3.0757 0
M  V30 4124 H 390.543 4.14554 -0.495126 0
M  V30 4125 H 391.933 5.04751 -4.43481 0
M  V30 4126 N 394.653 0.992116 1.22453 0
M  V30 4127 C 395.878 0.685644 1.95739 0
M  V30 4128 C 396.303 -0.743 1.72804 0
M  V30 4129 O 395.661 -1.50778 1.00676 0
M  V30 4130 C 395.709 0.996293 3.46564 0
M  V30 4131 O 394.813 0.0945512 4.12292 0
M  V30 4132 H 394.154 0.256694 0.612376 0
M  V30 4133 H 396.684 1.32888 1.5557 0
M  V30 4134 H 396.694 0.93781 3.97076 0
M  V30 4135 H 395.369 2.03733 3.62582 0
M  V30 4136 H 393.946 0.208451 3.72317 0
M  V30 4137 N 396.131 -1.37776 0.765217 0
M  V30 4138 C 397.061 -2.32945 0.160953 0
M  V30 4139 C 398.042 -1.55454 -0.690516 0
M  V30 4140 O 399.227 -1.83721 -0.629318 0
M  V30 4141 C 396.357 -3.39669 -0.724031 0
M  V30 4142 C 395.311 -4.27992 0.0256173 0
M  V30 4143 C 394.637 -5.25673 -0.978383 0
M  V30 4144 C 395.937 -5.08309 1.20082 0
M  V30 4145 H 397.631 -2.83728 0.955969 0
M  V30 4146 H 395.177 -1.36416 0.461149 0
M  V30 4147 H 397.13 -4.05219 -1.15652 0
M  V30 4148 H 395.854 -2.87396 -1.5515 0
M  V30 4149 H 394.513 -3.63964 0.438812 0
M  V30 4150 H 394.161 -4.69682 -1.80022 0
M  V30 4151 H 393.861 -5.85625 -0.481378 0
M  V30 4152 H 395.385 -5.94098 -1.40995 0
M  V30 4153 H 396.799 -5.67034 0.845307 0
M  V30 4154 H 395.196 -5.77554 1.62947 0
M  V30 4155 H 396.266 -4.41365 2.00811 0
M  V30 4156 N 397.609 -0.515225 -1.4894 0
M  V30 4157 C 399.025 -0.172099 -1.58669 0
M  V30 4158 C 399.225 1.32405 -1.51892 0
M  V30 4159 O 398.281 2.10116 -1.40027 0
M  V30 4160 C 399.594 -0.761533 -2.90897 0
M  V30 4161 C 401.142 -0.728926 -3.04394 0
M  V30 4162 C 401.617 -1.29667 -4.39261 0
M  V30 4163 N 403.108 -1.25799 -4.4579 0
M  V30 4164 C 403.843 -1.66733 -5.48623 0
M  V30 4165 N 403.339 -2.15327 -6.58488 0
M  V30 4166 N 405.132 -1.58061 -5.39419 0
M  V30 4167 H 397.283 -1.48778 -1.51588 0
M  V30 4168 H 399.546 -0.617968 -0.718901 0
M  V30 4169 H 399.252 -1.81136 -3.01468 0
M  V30 4170 H 399.126 -0.230106 -3.76497 0
M  V30 4171 H 401.513 0.312098 -2.93445 0
M  V30 4172 H 401.594 -1.29766 -2.20442 0
M  V30 4173 H 401.238 -2.33655 -4.50963 0
M  V30 4174 H 401.168 -0.703752 -5.21876 0
M  V30 4175 H 403.659 -0.902102 -3.66975 0
M  V30 4176 H 403.972 -2.44594 -7.33071 0
M  V30 4177 H 402.317 -2.19311 -6.59491 0
M  V30 4178 H 405.508 -1.19906 -4.52482 0
M  V30 4179 H 405.681 -1.90284 -6.19432 0
M  V30 4180 N 399.087 1.5561 -0.249682 0
M  V30 4181 C 400.017 2.24477 0.642826 0
M  V30 4182 C 400.998 1.22601 1.17911 0
M  V30 4183 O 402.183 1.5126 1.21795 0
M  V30 4184 C 399.313 2.94638 1.83863 0
M  V30 4185 C 398.267 4.03227 1.435 0
M  V30 4186 C 397.593 4.60828 2.71186 0
M  V30 4187 C 398.893 5.18796 0.604002 0
M  V30 4188 H 400.587 2.99321 0.0685625 0
M  V30 4189 H 398.133 1.43965 0.0315363 0
M  V30 4190 H 400.086 3.41517 2.46868 0
M  V30 4191 H 398.81 2.17287 2.43832 0
M  V30 4192 H 397.469 3.57121 0.828275 0
M  V30 4193 H 397.117 3.80174 3.29358 0
M  V30 4194 H 396.817 5.34132 2.44901 0
M  V30 4195 H 398.341 5.10442 3.35084 0
M  V30 4196 H 399.755 5.61883 1.13842 0
M  V30 4197 H 398.152 5.98506 0.437097 0
M  V30 4198 H 399.222 4.83384 -0.383147 0
M  V30 4199 N 400.565 -0.0233959 1.57583 0
M  V30 4200 C 401.495 -1.02162 2.09965 0
M  V30 4201 C 402.476 -1.3735 1.00344 0
M  V30 4202 O 403.661 -1.46135 1.27899 0
M  V30 4203 C 400.791 -2.32081 2.58371 0
M  V30 4204 C 399.745 -2.1112 3.72307 0
M  V30 4205 C 399.071 -3.46848 4.06941 0
M  V30 4206 C 400.371 -1.49276 5.00514 0
M  V30 4207 H 402.065 -0.585557 2.93618 0
M  V30 4208 H 399.611 -0.280218 1.41247 0
M  V30 4209 H 401.564 -3.02249 2.93639 0
M  V30 4210 H 400.288 -2.77758 1.71808 0
M  V30 4211 H 398.947 -1.43384 3.37397 0
M  V30 4212 H 398.595 -3.90184 3.17436 0
M  V30 4213 H 398.295 -3.33646 4.83688 0
M  V30 4214 H 399.819 -4.18369 4.44747 0
M  V30 4215 H 401.233 -2.09368 5.33702 0
M  V30 4216 H 399.63 -1.46632 5.8191 0
M  V30 4217 H 400.7 -0.459217 4.82721 0
M  V30 4218 N 402.043 -1.548 -0.295768 0
M  V30 4219 C 403.268 -1.78653 -1.05346 0
M  V30 4220 C 403.693 -0.546894 -1.79974 0
M  V30 4221 O 403.051 0.502763 -1.7419 0
M  V30 4222 C 403.099 -2.99679 -2.00561 0
M  V30 4223 O 402.203 -2.7317 -3.08953 0
M  V30 4224 H 401.544 -0.59116 -0.302367 0
M  V30 4225 H 404.074 -2.01895 -0.331598 0
M  V30 4226 H 404.084 -3.27793 -2.42932 0
M  V30 4227 H 402.759 -3.89562 -1.4565 0
M  V30 4228 H 401.336 -2.56089 -2.71059 0
M  V30 4229 N 403.521 0.559213 -1.47345 0
M  V30 4230 C 404.453 1.68161 -1.55738 0
M  V30 4231 C 405.466 1.56636 -0.443744 0
M  V30 4232 O 406.655 1.6363 -0.713258 0
M  V30 4233 C 403.755 3.06611 -1.4437 0
M  V30 4234 C 402.928 3.4391 -2.70268 0
M  V30 4235 C 401.987 4.61515 -2.52765 0
M  V30 4236 O 401.013 4.66197 -3.26572 0
M  V30 4237 N 402.215 5.57883 -1.6046 0
M  V30 4238 H 404.98 1.61408 -2.52522 0
M  V30 4239 H 402.541 0.7458 -1.43699 0
M  V30 4240 H 404.533 3.83117 -1.30398 0
M  V30 4241 H 403.103 3.07602 -0.556766 0
M  V30 4242 H 402.323 2.56873 -2.99015 0
M  V30 4243 H 403.611 3.65605 -3.53851 0
M  V30 4244 H 403.009 5.56855 -0.996422 0
M  V30 4245 H 401.566 6.33723 -1.52441 0
M  V30 4246 N 404.999 1.35443 0.805782 0
M  V30 4247 C 405.947 1.28465 1.93906 0
M  V30 4248 C 406.941 0.17943 1.68447 0
M  V30 4249 O 408.147 0.345459 1.76654 0
M  V30 4250 H 404.522 0.399528 0.637088 0
M  V30 4251 H 406.493 2.24206 1.96912 0
M  V30 4252 C 405.242 1.07432 3.30687 0
M  V30 4253 H 404.565 1.91716 3.50835 0
M  V30 4254 H 406.005 1.06591 4.10383 0
M  V30 4255 C 404.464 -0.22179 3.36169 0
M  V30 4256 O 404.994 -1.21731 3.82811 0
M  V30 4257 N 403.2 -0.260841 2.89427 0
M  V30 4258 H 402.747 0.549884 2.51663 0
M  V30 4259 H 402.705 -1.12777 2.93477 0
M  V30 4260 N 406.477 -1.02803 1.19454 0
M  V30 4261 C 407.888 -1.57667 0.999899 0
M  V30 4262 C 408.239 -1.91041 -0.446956 0
M  V30 4263 O 407.364 -1.70978 -1.32648 0
M  V30 4264 C 407.959 -2.86477 1.80877 0
M  V30 4265 C 406.518 -3.37911 1.65811 0
M  V30 4266 C 405.665 -2.11343 1.79526 0
M  V30 4267 H 408.616 -0.853214 1.33813 0
M  V30 4268 H 408.637 -3.57408 1.30536 0
M  V30 4269 H 408.149 -2.62155 2.86175 0
M  V30 4270 H 406.25 -3.67218 0.63102 0
M  V30 4271 H 406.363 -4.10885 2.46395 0
M  V30 4272 H 404.727 -2.23254 1.22596 0
M  V30 4273 H 405.51 -1.89461 2.86285 0
M  V30 4274 N 407.956 -0.998596 -1.21925 0
M  V30 4275 C 409.367 -0.711939 -1.72593 0
M  V30 4276 C 409.718 0.770842 -1.80423 0
M  V30 4277 O 408.843 1.60237 -1.4544 0
M  V30 4278 C 409.438 -1.28567 -3.13458 0
M  V30 4279 C 407.997 -1.04828 -3.61508 0
M  V30 4280 C 407.144 -1.4024 -2.39224 0
M  V30 4281 H 410.095 -1.17027 -1.07193 0
M  V30 4282 H 410.116 -0.667098 -3.74607 0
M  V30 4283 H 409.628 -2.36486 -3.07727 0
M  V30 4284 H 407.729 0.0140383 -3.72597 0
M  V30 4285 H 407.842 -1.71566 -4.47328 0
M  V30 4286 H 406.206 -0.821077 -2.41103 0
M  V30 4287 H 406.989 -2.49176 -2.36149 0
M  V30 4288 N 409.434 1.37368 -0.772513 0
M  V30 4289 C 410.659 2.0447 -0.347386 0
M  V30 4290 C 411.084 1.57882 1.0225 0
M  V30 4291 O 410.442 0.73941 1.65537 0
M  V30 4292 C 410.49 3.58369 -0.400479 0
M  V30 4293 O 409.594 4.0803 0.598789 0
M  V30 4294 H 408.935 0.646773 -0.15027 0
M  V30 4295 H 411.465 1.75667 -1.04892 0
M  V30 4296 H 411.475 4.07183 -0.258045 0
M  V30 4297 H 410.15 3.91633 -1.39986 0
M  V30 4298 H 408.727 3.70534 0.419411 0
M  V30 4299 N 410.912 0.523116 1.48665 0
M  V30 4300 C 411.844 -0.280421 2.27478 0
M  V30 4301 C 412.857 -0.910694 1.34945 0
M  V30 4302 O 414.046 -0.790295 1.60052 0
M  V30 4303 C 411.146 -1.41171 3.08097 0
M  V30 4304 C 410.319 -0.884642 4.28361 0
M  V30 4305 C 409.378 -1.89622 4.90846 0
M  V30 4306 O 408.404 -1.4559 5.50265 0
M  V30 4307 N 409.606 -3.22801 4.82472 0
M  V30 4308 H 412.371 0.395481 2.97079 0
M  V30 4309 H 409.932 0.357018 1.57915 0
M  V30 4310 H 411.924 -2.08645 3.4677 0
M  V30 4311 H 410.494 -1.99139 2.40961 0
M  V30 4312 H 409.714 -0.0341177 3.94185 0
M  V30 4313 H 411.002 -0.511268 5.06225 0
M  V30 4314 H 410.4 -3.61246 4.35336 0
M  V30 4315 H 408.957 -3.85927 5.25265 0
M  V30 4316 N 412.39 -1.55475 0.257931 0
M  V30 4317 C 413.639 -1.98383 -0.364275 0
M  V30 4318 C 413.952 -1.14952 -1.58258 0
M  V30 4319 O 415.158 -1.47924 -2.27664 0
M  V30 4320 C 413.614 -3.53037 -0.699479 0
M  V30 4321 C 413.222 -4.45223 0.498046 0
M  V30 4322 C 414.966 -4.04575 -1.28526 0
M  V30 4323 C 412.873 -5.91238 0.138383 0
M  V30 4324 H 411.803 -0.740911 -0.13988 0
M  V30 4325 H 414.454 -1.79936 0.359883 0
M  V30 4326 H 412.836 -3.6722 -1.48207 0
M  V30 4327 H 414.01 -4.42803 1.27522 0
M  V30 4328 H 412.325 -4.04226 0.999503 0
M  V30 4329 H 414.922 -5.11196 -1.56788 0
M  V30 4330 H 415.265 -3.5258 -2.21344 0
M  V30 4331 H 415.798 -3.93762 -0.565337 0
M  V30 4332 H 412.537 -6.47294 1.03398 0
M  V30 4333 H 412.057 -5.96768 -0.602374 0
M  V30 4334 H 413.736 -6.46413 -0.27553 0
M  V30 4335 N 413.868 0.0150385 -1.57593 0
M  V30 4336 C 415.115 0.703001 -1.89906 0
M  V30 4337 C 415.443 1.74604 -0.856944 0
M  V30 4338 O 414.698 1.95197 0.140287 0
M  V30 4339 C 414.997 1.39686 -3.28972 0
M  V30 4340 C 414.663 0.488457 -4.48246 0
M  V30 4341 C 413.325 0.2383 -4.8061 0
M  V30 4342 C 415.677 -0.137881 -5.21018 0
M  V30 4343 C 413.005 -0.646738 -5.83125 0
M  V30 4344 C 415.357 -1.0107 -6.24474 0
M  V30 4345 C 414.021 -1.27019 -6.55303 0
M  V30 4346 H 413.291 0.257246 -0.694914 0
M  V30 4347 H 415.938 -0.037259 -1.91464 0
M  V30 4348 H 414.243 2.21079 -3.23468 0
M  V30 4349 H 415.94 1.93495 -3.51227 0
M  V30 4350 H 412.53 0.693593 -4.22951 0
M  V30 4351 H 416.714 0.0423953 -4.96282 0
M  V30 4352 H 411.97 -0.855937 -6.05379 0
M  V30 4353 H 416.144 -1.50247 -6.79999 0
M  V30 4354 H 413.771 -1.95769 -7.3456 0
M  V30 4355 N 415.346 1.54954 0.287554 0
M  V30 4356 C 416.278 1.83224 1.37701 0
M  V30 4357 C 417.291 0.715898 1.46215 0
M  V30 4358 O 418.48 0.993565 1.48292 0
M  V30 4359 C 415.58 1.96723 2.75959 0
M  V30 4360 C 414.753 3.27253 2.90215 0
M  V30 4361 C 413.812 3.30998 4.09056 0
M  V30 4362 O 412.838 4.04457 4.00503 0
M  V30 4363 N 414.04 2.57353 5.20336 0
M  V30 4364 H 416.805 2.77254 1.138 0
M  V30 4365 H 414.366 1.54694 0.477652 0
M  V30 4366 H 416.358 1.96615 3.5373 0
M  V30 4367 H 414.928 1.09626 2.92747 0
M  V30 4368 H 414.148 3.40022 1.99447 0
M  V30 4369 H 415.436 4.13365 2.96659 0
M  V30 4370 H 414.834 1.97327 5.30169 0
M  V30 4371 H 413.391 2.62984 5.96391 0
M  V30 4372 N 416.824 -0.551391 1.4764 0
M  V30 4373 C 418.049 -1.33837 1.58437 0
M  V30 4374 C 418.474 -1.866 0.237063 0
M  V30 4375 O 417.832 -1.6328 -0.787994 0
M  V30 4376 C 417.88 -2.48014 2.61766 0
M  V30 4377 O 416.984 -3.50419 2.1744 0
M  V30 4378 H 416.325 -0.397299 0.532024 0
M  V30 4379 H 418.855 -0.665759 1.93465 0
M  V30 4380 H 418.865 -2.94503 2.82369 0
M  V30 4381 H 417.54 -2.08969 3.5959 0
M  V30 4382 H 416.117 -3.10196 2.06961 0
M  V30 4383 N 418.302 -1.35869 -0.798587 0
M  V30 4384 C 419.232 -1.32118 -1.92528 0
M  V30 4385 C 420.213 -0.194209 -1.68988 0
M  V30 4386 O 421.398 -0.390426 -1.90235 0
M  V30 4387 C 418.528 -1.10047 -3.29404 0
M  V30 4388 C 417.482 -2.19471 -3.67446 0
M  V30 4389 C 416.808 -1.82555 -5.02571 0
M  V30 4390 C 418.108 -3.61495 -3.76987 0
M  V30 4391 H 419.802 -2.26394 -1.95924 0
M  V30 4392 H 417.348 -1.08981 -0.94123 0
M  V30 4393 H 419.301 -1.06061 -4.07835 0
M  V30 4394 H 418.025 -0.122195 -3.26371 0
M  V30 4395 H 416.684 -2.22568 -2.91306 0
M  V30 4396 H 416.332 -0.833249 -4.9605 0
M  V30 4397 H 416.032 -2.5581 -5.28995 0
M  V30 4398 H 417.556 -1.80108 -5.83432 0
M  V30 4399 H 418.97 -3.60676 -4.4563 0
M  V30 4400 H 417.367 -4.33577 -4.14887 0
M  V30 4401 H 418.437 -3.97065 -2.78329 0
M  V30 4402 N 419.78 1.02168 -1.19998 0
M  V30 4403 C 421.005 1.79833 -1.03319 0
M  V30 4404 C 421.43 1.83504 0.413281 0
M  V30 4405 O 420.788 1.26635 1.29743 0
M  V30 4406 C 420.836 3.22396 -1.61533 0
M  V30 4407 O 419.94 4.03555 -0.849519 0
M  V30 4408 H 419.281 0.554872 -0.364709 0
M  V30 4409 H 421.811 1.28542 -1.59179 0
M  V30 4410 H 421.821 3.73124 -1.65054 0
M  V30 4411 H 420.496 3.19039 -2.66809 0
M  V30 4412 H 419.073 3.62169 -0.888129 0
M  V30 4413 N 421.258 1.00505 1.21394 0
M  V30 4414 C 422.506 0.686415 1.90086 0
M  V30 4415 C 422.827 -0.785264 1.7849 0
M  V30 4416 O 422.097 -1.56387 1.17983 0
M  V30 4417 H 420.677 0.2509 0.703604 0
M  V30 4418 H 423.339 1.27417 1.47482 0
M  V30 4419 H 422.435 0.959621 2.96981 0
M  V30 4420 N 422.737 -1.36956 0.779787 0
M  V30 4421 C 423.685 -2.32053 0.15942 0
M  V30 4422 C 424.679 -1.55333 -0.675878 0
M  V30 4423 O 425.885 -1.70668 -0.57204 0
M  V30 4424 H 422.26 -0.751286 0.0327707 0
M  V30 4425 H 424.231 -2.8195 0.977078 0
M  V30 4426 C 422.98 -3.40602 -0.698977 0
M  V30 4427 H 422.303 -3.99746 -0.0655966 0
M  V30 4428 H 423.743 -4.09486 -1.09989 0
M  V30 4429 C 422.202 -2.81359 -1.85307 0
M  V30 4430 O 422.732 -2.72751 -2.94906 0
M  V30 4431 N 420.938 -2.38786 -1.65619 0
M  V30 4432 H 420.485 -2.45987 -0.764725 0
M  V30 4433 H 420.443 -1.99493 -2.43002 0
M  V30 4434 N 424.215 -0.530993 -1.48385 0
M  V30 4435 C 425.44 0.000729535 -2.074 0
M  V30 4436 C 425.865 1.27298 -1.3848 0
M  V30 4437 O 425.223 1.75599 -0.451081 0
M  V30 4438 C 425.271 0.206697 -3.60007 0
M  V30 4439 O 424.375 1.27514 -3.92191 0
M  V30 4440 H 423.716 -0.039583 -0.662819 0
M  V30 4441 H 426.246 -0.739194 -1.9078 0
M  V30 4442 H 426.256 0.42904 -4.05738 0
M  V30 4443 H 424.931 -0.722675 -4.09573 0
M  V30 4444 H 423.508 1.03537 -3.58238 0
M  V30 4445 N 425.693 1.55336 -0.266172 0
M  V30 4446 C 427.109 1.59356 0.0882065 0
M  V30 4447 C 427.309 1.2834 1.55342 0
M  V30 4448 O 426.365 1.03996 2.30089 0
M  V30 4449 C 427.678 2.99409 -0.278364 0
M  V30 4450 C 429.226 3.12196 -0.224243 0
M  V30 4451 C 429.701 4.545 -0.565123 0
M  V30 4452 N 431.192 4.60313 -0.51634 0
M  V30 4453 C 431.927 5.68434 -0.753013 0
M  V30 4454 N 431.423 6.84738 -1.05383 0
M  V30 4455 N 433.216 5.57942 -0.682414 0
M  V30 4456 H 425.367 1.73764 -1.22147 0
M  V30 4457 H 427.63 0.809822 -0.492841 0
M  V30 4458 H 427.336 3.2691 -1.29703 0
M  V30 4459 H 427.21 3.75228 0.385186 0
M  V30 4460 H 429.597 2.84464 0.78512 0
M  V30 4461 H 429.678 2.38609 -0.921922 0
M  V30 4462 H 429.322 4.82956 -1.57213 0
M  V30 4463 H 429.252 5.26374 0.154248 0
M  V30 4464 H 431.743 3.7676 -0.29335 0
M  V30 4465 H 432.056 7.63088 -1.22133 0
M  V30 4466 H 430.401 6.86375 -1.09151 0
M  V30 4467 H 433.592 4.65958 -0.44731 0
M  V30 4468 H 433.765 6.4213 -0.870248 0
M  V30 4469 N 427.171 -0.0066808 1.57599 0
M  V30 4470 C 428.582 -0.550379 1.78403 0
M  V30 4471 C 428.933 -1.74339 0.900014 0
M  V30 4472 O 428.058 -2.16166 0.100713 0
M  V30 4473 C 428.653 -1.00523 3.23544 0
M  V30 4474 C 427.212 -1.49428 3.45468 0
M  V30 4475 C 426.359 -0.442444 2.73748 0
M  V30 4476 H 429.31 0.219508 1.57175 0
M  V30 4477 H 429.331 -1.87157 3.31289 0
M  V30 4478 H 428.843 -0.136735 3.87859 0
M  V30 4479 H 426.944 -2.3839 2.86358 0
M  V30 4480 H 427.057 -1.52635 4.54136 0
M  V30 4481 H 425.421 -0.902578 2.38171 0
M  V30 4482 H 426.204 0.416973 3.40758 0
M  V30 4483 N 428.649 -1.55105 -0.279332 0
M  V30 4484 C 429.579 -1.90557 -1.34945 0
M  V30 4485 C 430.56 -0.766738 -1.51839 0
M  V30 4486 O 431.745 -1.02434 -1.64988 0
M  V30 4487 C 428.875 -2.17193 -2.71006 0
M  V30 4488 C 427.829 -3.33021 -2.68851 0
M  V30 4489 C 427.155 -3.45123 -4.08405 0
M  V30 4490 C 428.455 -4.69578 -2.28678 0
M  V30 4491 H 430.149 -2.80188 -1.05522 0
M  V30 4492 H 427.695 -1.34811 -0.506173 0
M  V30 4493 H 429.648 -2.40581 -3.45975 0
M  V30 4494 H 428.372 -1.24355 -3.01999 0
M  V30 4495 H 427.031 -3.0959 -1.9634 0
M  V30 4496 H 426.679 -2.49762 -4.3661 0
M  V30 4497 H 426.379 -4.22995 -4.07859 0
M  V30 4498 H 427.903 -3.70796 -4.85121 0
M  V30 4499 H 429.317 -4.92553 -2.93368 0
M  V30 4500 H 427.714 -5.5032 -2.39306 0
M  V30 4501 H 428.784 -4.68828 -1.23807 0
M  V30 4502 N 430.127 0.543554 -1.4793 0
M  V30 4503 C 431.059 1.665 -1.57513 0
M  V30 4504 C 432.072 1.56156 -0.460333 0
M  V30 4505 O 433.261 1.62865 -0.730573 0
M  V30 4506 C 430.361 3.05063 -1.47614 0
M  V30 4507 C 429.534 3.41024 -2.739 0
M  V30 4508 C 428.593 4.58809 -2.57645 0
M  V30 4509 O 427.619 4.62707 -3.31498 0
M  V30 4510 N 428.821 5.56149 -1.66368 0
M  V30 4511 H 431.586 1.5872 -2.5422 0
M  V30 4512 H 429.147 0.730517 -1.44482 0
M  V30 4513 H 431.139 3.81712 -1.34455 0
M  V30 4514 H 429.709 3.06994 -0.589359 0
M  V30 4515 H 428.929 2.53687 -3.01723 0
M  V30 4516 H 430.217 3.61831 -3.57709 0
M  V30 4517 H 429.615 5.55767 -1.05543 0
M  V30 4518 H 428.172 6.32071 -1.59154 0
M  V30 4519 N 431.605 1.3629 0.791371 0
M  V30 4520 C 433.016 1.27225 1.36641 0
M  V30 4521 C 433.367 -0.0887968 1.95999 0
M  V30 4522 O 432.492 -0.990207 1.92416 0
M  V30 4523 C 433.087 2.30375 2.48421 0
M  V30 4524 C 431.646 2.25004 3.01746 0
M  V30 4525 C 430.793 2.15259 1.7481 0
M  V30 4526 H 433.744 1.47198 0.593173 0
M  V30 4527 H 433.765 1.93905 3.27385 0
M  V30 4528 H 433.277 3.29422 2.05189 0
M  V30 4529 H 431.378 1.29417 3.49403 0
M  V30 4530 H 431.491 3.1761 3.58693 0
M  V30 4531 H 429.855 1.61482 1.96966 0
M  V30 4532 H 430.638 3.16191 1.33709 0
M  V30 4533 N 433.083 -1.0153 1.20538 0
M  V30 4534 C 434.013 -2.11972 0.979295 0
M  V30 4535 C 434.994 -1.6985 -0.0921787 0
M  V30 4536 O 436.179 -1.94089 0.0655932 0
M  V30 4537 C 433.309 -3.43201 0.531984 0
M  V30 4538 C 432.263 -3.9907 1.54685 0
M  V30 4539 C 431.589 -5.26082 0.956127 0
M  V30 4540 C 432.889 -4.32313 2.93092 0
M  V30 4541 H 434.583 -2.31143 1.90298 0
M  V30 4542 H 432.129 -1.11079 0.916372 0
M  V30 4543 H 434.082 -4.1985 0.361044 0
M  V30 4544 H 432.806 -3.23792 -0.427327 0
M  V30 4545 H 431.465 -3.2453 1.70517 0
M  V30 4546 H 431.113 -5.02999 -0.0111538 0
M  V30 4547 H 430.813 -5.64426 1.63393 0
M  V30 4548 H 432.337 -6.05386 0.796284 0
M  V30 4549 H 433.751 -4.99845 2.80763 0
M  V30 4550 H 432.148 -4.81774 3.57791 0
M  V30 4551 H 433.218 -3.41025 3.44717 0
M  V30 4552 N 434.561 -1.01147 -1.20859 0
M  V30 4553 C 435.524 -0.582224 -2.21682 0
M  V30 4554 C 436.524 0.344887 -1.57058 0
M  V30 4555 O 437.714 0.134281 -1.73682 0
M  V30 4556 C 434.846 0.150496 -3.40568 0
M  V30 4557 H 436.039 -1.47408 -2.61172 0
M  V30 4558 H 433.592 -0.800695 -1.34233 0
M  V30 4559 H 434.327 1.0575 -3.06574 0
M  V30 4560 H 434.112 -0.515444 -3.88697 0
M  V30 4561 H 435.602 0.438344 -4.15293 0
M  V30 4562 N 436.039 1.36541 -0.78704 0
M  V30 4563 C 436.989 2.27459 -0.156957 0
M  V30 4564 C 437.973 1.46843 0.657709 0
M  V30 4565 O 439.165 1.69245 0.518173 0
M  V30 4566 C 436.294 3.35893 0.709278 0
M  V30 4567 C 435.38 4.23947 -0.114049 0
M  V30 4568 N 435.771 4.92145 -1.16736 0
M  V30 4569 C 434.069 4.4587 0.107497 0
M  V30 4570 C 434.77 5.57261 -1.66837 0
M  V30 4571 N 433.746 5.3473 -0.977992 0
M  V30 4572 H 437.548 2.77669 -0.963185 0
M  V30 4573 H 435.062 1.49839 -0.62627 0
M  V30 4574 H 437.059 3.99953 1.17656 0
M  V30 4575 H 435.719 2.87238 1.51408 0
M  V30 4576 H 436.73 4.94169 -1.54976 0
M  V30 4577 H 433.407 4.08056 0.882994 0
M  V30 4578 H 434.797 6.21728 -2.54762 0
M  V30 4579 N 437.518 0.538854 1.48102 0
M  V30 4580 C 438.934 0.19732 1.58376 0
M  V30 4581 C 439.134 -1.29971 1.5398 0
M  V30 4582 O 438.19 -2.07861 1.43352 0
M  V30 4583 C 439.503 0.807716 2.89649 0
M  V30 4584 C 441.051 0.77726 3.03196 0
M  V30 4585 C 441.526 1.36639 4.37143 0
M  V30 4586 N 443.017 1.32875 4.43732 0
M  V30 4587 C 443.752 1.7544 5.45901 0
M  V30 4588 N 443.248 2.25776 6.54979 0
M  V30 4589 N 445.041 1.66623 5.36836 0
M  V30 4590 H 437.192 1.5117 1.49202 0
M  V30 4591 H 439.455 0.629327 0.708979 0
M  V30 4592 H 439.161 1.85909 2.98548 0
M  V30 4593 H 439.035 0.289975 3.76084 0
M  V30 4594 H 441.422 -0.265374 2.93904 0
M  V30 4595 H 441.503 1.33256 2.18349 0
M  V30 4596 H 441.147 2.408 4.47189 0
M  V30 4597 H 441.077 0.786689 5.20691 0
M  V30 4598 H 443.568 0.96037 3.65493 0
M  V30 4599 H 443.881 2.56226 7.29087 0
M  V30 4600 H 442.226 2.29775 6.55918 0
M  V30 4601 H 445.417 1.27089 4.50517 0
M  V30 4602 H 445.59 2.00115 6.16326 0
M  V30 4603 N 438.996 -1.55193 0.274407 0
M  V30 4604 C 439.959 -2.212 -0.600279 0
M  V30 4605 C 440.959 -1.18963 -1.08187 0
M  V30 4606 O 442.149 -1.43873 -0.982158 0
M  V30 4607 C 439.281 -2.87739 -1.82809 0
M  V30 4608 H 440.474 -2.9989 -0.0239682 0
M  V30 4609 H 438.027 -1.5628 0.0250192 0
M  V30 4610 H 438.762 -2.13058 -2.44493 0
M  V30 4611 H 438.547 -3.62658 -1.49069 0
M  V30 4612 H 440.037 -3.38171 -2.45011 0
M  V30 4613 N 440.474 -0.00167713 -1.576 0
M  V30 4614 C 441.404 0.988091 -2.11563 0
M  V30 4615 C 442.385 1.35736 -1.02517 0
M  V30 4616 O 443.57 1.44082 -1.30208 0
M  V30 4617 C 440.7 2.27941 -2.62031 0
M  V30 4618 C 439.654 2.0517 -3.75619 0
M  V30 4619 C 438.98 3.4033 -4.12407 0
M  V30 4620 C 440.28 1.41294 -5.02825 0
M  V30 4621 H 441.974 0.538771 -2.94513 0
M  V30 4622 H 439.52 0.257712 -1.41675 0
M  V30 4623 H 441.473 2.97539 -2.9841 0
M  V30 4624 H 440.197 2.74989 -1.76205 0
M  V30 4625 H 438.856 1.37998 -3.39635 0
M  V30 4626 H 438.504 3.85085 -3.23603 0
M  V30 4627 H 438.204 3.25909 -4.88935 0
M  V30 4628 H 439.728 4.1124 -4.51347 0
M  V30 4629 H 441.142 2.00851 -5.36965 0
M  V30 4630 H 439.539 1.37356 -5.84169 0
M  V30 4631 H 440.609 0.382362 -4.8339 0
M  V30 4632 N 441.952 1.55251 0.271103 0
M  V30 4633 C 443.368 1.47133 0.618393 0
M  V30 4634 C 443.568 0.686994 1.89427 0
M  V30 4635 O 442.624 0.206609 2.51653 0
M  V30 4636 C 443.937 2.91361 0.743593 0
M  V30 4637 C 445.485 3.01587 0.837522 0
M  V30 4638 C 445.96 4.47073 0.994483 0
M  V30 4639 N 447.451 4.50909 1.05996 0
M  V30 4640 C 448.186 5.60698 1.20024 0
M  V30 4641 N 447.682 6.80348 1.30759 0
M  V30 4642 N 449.475 5.48444 1.23149 0
M  V30 4643 H 441.626 2.04698 -0.566784 0
M  V30 4644 H 443.889 0.928319 -0.192165 0
M  V30 4645 H 443.595 3.51483 -0.123493 0
M  V30 4646 H 443.469 3.40484 1.62328 0
M  V30 4647 H 445.856 2.4156 1.69507 0
M  V30 4648 H 445.937 2.55713 -0.0668086 0
M  V30 4649 H 445.581 5.07703 0.141582 0
M  V30 4650 H 445.511 4.90605 1.91349 0
M  V30 4651 H 448.002 3.6472 0.989316 0
M  V30 4652 H 448.315 7.59772 1.41303 0
M  V30 4653 H 446.66 6.83156 1.27761 0
M  V30 4654 H 449.851 4.53907 1.14394 0
M  V30 4655 H 450.024 6.34049 1.33738 0
M  V30 4656 N 443.43 -0.535701 1.48216 0
M  V30 4657 C 444.678 -1.28928 1.55634 0
M  V30 4658 C 444.999 -1.93645 0.229514 0
M  V30 4659 O 444.269 -1.81038 -0.74846 0
M  V30 4660 H 442.849 -0.47884 0.573342 0
M  V30 4661 H 445.511 -0.623853 1.84646 0
M  V30 4662 H 444.607 -2.07157 2.33436 0
M  V30 4663 N 444.908 -1.36708 -0.784132 0
M  V30 4664 C 445.856 -1.31533 -1.91838 0
M  V30 4665 C 446.85 -0.206205 -1.6814 0
M  V30 4666 O 448.056 -0.373519 -1.76082 0
M  V30 4667 H 444.431 -0.409613 -0.630651 0
M  V30 4668 H 446.402 -2.2731 -1.9332 0
M  V30 4669 C 445.151 -1.12679 -3.28936 0
M  V30 4670 H 444.474 -1.97274 -3.4774 0
M  V30 4671 H 445.914 -1.13106 -4.08636 0
M  V30 4672 C 444.373 0.168281 -3.36479 0
M  V30 4673 O 444.903 1.15625 -3.84699 0
M  V30 4674 N 443.109 0.214762 -2.89805 0
M  V30 4675 H 442.656 -0.589852 -2.50756 0
M  V30 4676 H 442.614 1.08094 -2.95234 0
M  V30 4677 N 446.386 1.0089 -1.21074 0
M  V30 4678 C 447.802 1.2695 -0.967257 0
M  V30 4679 C 448.002 1.9846 0.348673 0
M  V30 4680 O 447.058 2.28459 1.0753 0
M  V30 4681 C 448.371 2.09697 -2.15517 0
M  V30 4682 C 449.919 2.22937 -2.197 0
M  V30 4683 C 450.394 3.09064 -3.37999 0
M  V30 4684 N 451.885 3.16653 -3.38061 0
M  V30 4685 C 452.62 3.8354 -4.26245 0
M  V30 4686 N 452.116 4.52488 -5.2462 0
M  V30 4687 N 453.909 3.80141 -4.14064 0
M  V30 4688 H 446.06 0.529005 -2.05707 0
M  V30 4689 H 448.323 0.296148 -0.900556 0
M  V30 4690 H 448.029 1.64497 -3.10859 0
M  V30 4691 H 447.903 3.10444 -2.14253 0
M  V30 4692 H 450.29 2.67357 -1.24916 0
M  V30 4693 H 450.371 1.21673 -2.2501 0
M  V30 4694 H 450.015 2.65347 -4.33074 0
M  V30 4695 H 449.945 4.10433 -3.29928 0
M  V30 4696 H 452.436 2.67566 -2.66865 0
M  V30 4697 H 452.749 5.01219 -5.88217 0
M  V30 4698 H 451.094 4.51288 -5.28549 0
M  V30 4699 H 454.285 3.25427 -3.36474 0
M  V30 4700 H 454.458 4.31992 -4.82998 0
M  V30 4701 N 447.864 1.01787 1.20321 0
M  V30 4702 C 449.141 0.622978 1.85414 0
M  V30 4703 C 449.521 -0.898887 1.91006 0
M  V30 4704 O 448.869 -1.79112 1.41884 0
M  V30 4705 C 449.079 1.27226 3.24984 0
M  V30 4706 C 450.427 1.3885 4.01255 0
M  V30 4707 O 451.451 1.22857 3.34342 0
M  V30 4708 O 450.31 1.64705 5.2109 0
M  V30 4709 H 447.404 0.215116 0.798533 0
M  V30 4710 H 449.95 1.11533 1.27901 0
M  V30 4711 H 448.722 2.31209 3.15687 0
M  V30 4712 H 448.345 0.767069 3.90131 0
M  V30 4713 N 449.342 -1.36122 0.79427 0
M  V30 4714 C 450.753 -1.81646 0.431446 0
M  V30 4715 C 451.104 -1.66043 -1.04518 0
M  V30 4716 O 450.229 -1.1841 -1.8113 0
M  V30 4717 C 450.824 -3.29785 0.776341 0
M  V30 4718 C 449.383 -3.73501 0.466282 0
M  V30 4719 C 448.53 -2.58313 1.00844 0
M  V30 4720 H 451.481 -1.24274 0.986995 0
M  V30 4721 H 451.502 -3.80437 0.0692413 0
M  V30 4722 H 451.014 -3.4111 1.8511 0
M  V30 4723 H 449.115 -3.67733 -0.600245 0
M  V30 4724 H 449.228 -4.68754 0.990288 0
M  V30 4725 H 447.592 -2.5102 0.431406 0
M  V30 4726 H 448.375 -2.72421 2.08906 0
M  V30 4727 N 450.82 -0.546701 -1.47814 0
M  V30 4728 C 452.236 -0.205717 -1.58269 0
M  V30 4729 C 452.436 1.29153 -1.54667 0
M  V30 4730 O 451.492 2.07098 -1.44453 0
M  V30 4731 C 452.805 -0.823065 -2.89216 0
M  V30 4732 C 454.353 -0.793328 -3.02779 0
M  V30 4733 C 454.828 -1.38955 -4.36412 0
M  V30 4734 N 456.319 -1.35227 -4.43021 0
M  V30 4735 C 457.054 -1.78333 -5.44963 0
M  V30 4736 N 456.55 -2.29246 -6.53772 0
M  V30 4737 N 458.343 -1.69467 -5.35945 0
M  V30 4738 H 450.494 -1.5196 -1.48398 0
M  V30 4739 H 452.757 -0.633078 -0.705632 0
M  V30 4740 H 452.463 -1.8749 -2.97558 0
M  V30 4741 H 452.337 -0.309915 -3.75925 0
M  V30 4742 H 454.724 0.249784 -2.94041 0
M  V30 4743 H 454.805 -1.34412 -2.17639 0
M  V30 4744 H 454.449 -2.43168 -4.45906 0
M  V30 4745 H 454.379 -0.814291 -5.20266 0
M  V30 4746 H 456.87 -0.979739 -3.64979 0
M  V30 4747 H 457.183 -2.60089 -7.27718 0
M  V30 4748 H 455.528 -2.3325 -6.5469 0
M  V30 4749 H 458.719 -1.29477 -4.49837 0
M  V30 4750 H 458.892 -2.03381 -6.15256 0
M  V30 4751 N 452.299 1.55045 -0.282633 0
M  V30 4752 C 453.249 2.19514 0.616249 0
M  V30 4753 C 454.233 1.16216 1.11277 0
M  V30 4754 O 455.425 1.42004 1.05659 0
M  V30 4755 C 452.554 2.92548 1.7964 0
M  V30 4756 C 451.64 4.03142 1.31671 0
M  V30 4757 N 452.031 5.0276 0.553695 0
M  V30 4758 C 450.329 4.1635 1.59903 0
M  V30 4759 C 451.03 5.80923 0.30054 0
M  V30 4760 N 450.006 5.3651 0.875116 0
M  V30 4761 H 453.808 2.93889 0.0255363 0
M  V30 4762 H 451.322 1.62169 -0.0865362 0
M  V30 4763 H 453.319 3.37188 2.45173 0
M  V30 4764 H 451.979 2.19685 2.39099 0
M  V30 4765 H 452.99 5.17512 0.20032 0
M  V30 4766 H 449.667 3.54682 2.20243 0
M  V30 4767 H 451.057 6.7118 -0.311053 0
M  V30 4768 N 453.777 0.010035 1.57597 0
M  V30 4769 C 455.188 -0.531426 1.78977 0
M  V30 4770 C 455.539 -1.73375 0.918454 0
M  V30 4771 O 454.664 -2.16047 0.123635 0
M  V30 4772 C 455.259 -0.97086 3.24592 0
M  V30 4773 C 453.818 -1.45756 3.47033 0
M  V30 4774 C 452.965 -0.413384 2.74201 0
M  V30 4775 H 455.916 0.236166 1.56933 0
M  V30 4776 H 455.937 -1.83633 3.33255 0
M  V30 4777 H 455.449 -0.0955893 3.87982 0
M  V30 4778 H 453.55 -2.35339 2.88871 0
M  V30 4779 H 453.663 -1.4781 4.55729 0
M  V30 4780 H 452.027 -0.877266 2.39115 0
M  V30 4781 H 452.81 0.453092 3.40297 0
M  V30 4782 N 455.255 -1.55392 -0.262866 0
M  V30 4783 C 456.165 -1.92077 -1.34698 0
M  V30 4784 C 457.181 -0.819227 -1.53508 0
M  V30 4785 O 458.357 -1.11921 -1.67439 0
M  V30 4786 C 455.422 -2.19407 -2.68443 0
M  V30 4787 C 454.483 -3.42905 -2.58292 0
M  V30 4788 C 453.716 -3.68921 -3.85659 0
M  V30 4789 O 453.939 -2.97275 -4.8681 0
M  V30 4790 O 452.873 -4.62455 -3.85252 0
M  V30 4791 H 456.699 -2.84384 -1.06581 0
M  V30 4792 H 454.284 -1.42069 -0.462264 0
M  V30 4793 H 456.166 -2.38365 -3.47506 0
M  V30 4794 H 454.841 -1.30282 -2.96325 0
M  V30 4795 H 453.748 -3.29272 -1.7757 0
M  V30 4796 H 455.081 -4.32282 -2.35358 0
M  V30 4797 N 456.733 0.527833 -1.48498 0
M  V30 4798 C 458.149 0.856571 -1.34666 0
M  V30 4799 C 458.349 1.98271 -0.35931 0
M  V30 4800 O 457.405 2.51551 0.218703 0
M  V30 4801 C 458.718 1.22207 -2.74747 0
M  V30 4802 C 460.266 1.33183 -2.83251 0
M  V30 4803 C 460.741 1.73075 -4.24039 0
M  V30 4804 N 462.232 1.80174 -4.26722 0
M  V30 4805 C 462.967 2.1243 -5.32598 0
M  V30 4806 N 462.463 2.43096 -6.4875 0
M  V30 4807 N 464.256 2.13454 -5.19994 0
M  V30 4808 H 456.407 -0.215174 -2.11307 0
M  V30 4809 H 458.67 -0.0336281 -0.947403 0
M  V30 4810 H 458.376 0.468195 -3.4857 0
M  V30 4811 H 458.25 2.17173 -3.08409 0
M  V30 4812 H 460.637 2.07647 -2.09683 0
M  V30 4813 H 460.718 0.363333 -2.53206 0
M  V30 4814 H 460.362 0.991712 -4.98124 0
M  V30 4815 H 460.292 2.70979 -4.51529 0
M  V30 4816 H 462.783 1.58744 -3.42942 0
M  V30 4817 H 463.096 2.6682 -7.25277 0
M  V30 4818 H 461.441 2.40611 -6.52021 0
M  V30 4819 H 464.632 1.88956 -4.28268 0
M  V30 4820 H 464.805 2.38261 -6.02608 0
M  V30 4821 N 458.211 1.37122 0.776871 0
M  V30 4822 C 459.627 1.1781 1.07671 0
M  V30 4823 C 459.827 0.0107454 2.01497 0
M  V30 4824 O 458.883 -0.650756 2.4397 0
M  V30 4825 C 460.196 2.49451 1.67913 0
M  V30 4826 C 461.744 2.55927 1.80195 0
M  V30 4827 C 462.219 3.87686 2.43851 0
M  V30 4828 N 463.71 3.891 2.51307 0
M  V30 4829 C 464.445 4.87797 3.014 0
M  V30 4830 N 463.941 5.96888 3.51705 0
M  V30 4831 N 465.734 4.75205 3.00227 0
M  V30 4832 H 457.885 2.11843 0.153778 0
M  V30 4833 H 460.148 0.938927 0.130844 0
M  V30 4834 H 459.854 3.35207 1.06439 0
M  V30 4835 H 459.728 2.66169 2.67271 0
M  V30 4836 H 462.115 1.70582 2.40803 0
M  V30 4837 H 462.196 2.43097 0.796069 0
M  V30 4838 H 461.84 4.73444 1.83884 0
M  V30 4839 H 461.77 3.97817 3.45035 0
M  V30 4840 H 464.261 3.10293 2.157 0
M  V30 4841 H 464.574 6.68155 3.88316 0
M  V30 4842 H 462.919 6.0054 3.49824 0
M  V30 4843 H 466.11 3.89103 2.60224 0
M  V30 4844 H 466.283 5.52279 3.38957 0
M  V30 4845 N 459.689 -1.00246 1.21608 0
M  V30 4846 C 460.929 -1.75589 1.04631 0
M  V30 4847 C 461.293 -1.87513 -0.412648 0
M  V30 4848 O 462.494 -2.59444 -0.703003 0
M  V30 4849 C 460.765 -3.12893 1.72722 0
M  V30 4850 S 462.324 -4.04095 1.71034 0
M  V30 4851 H 459.142 -0.604133 0.374892 0
M  V30 4852 H 461.744 -1.19927 1.54395 0
M  V30 4853 H 460.448 -3.0185 2.78055 0
M  V30 4854 H 459.979 -3.73628 1.23149 0
M  V30 4855 H 461.994 -4.9045 0.753231 0
M  V30 4856 N 461.167 -1.02423 -1.1978 0
M  V30 4857 C 462.583 -0.740459 -1.41384 0
M  V30 4858 C 462.783 0.676827 -1.89793 0
M  V30 4859 O 461.839 1.4435 -2.0717 0
M  V30 4860 C 463.152 -1.77264 -2.42895 0
M  V30 4861 C 464.7 -1.79165 -2.56649 0
M  V30 4862 C 465.175 -2.8133 -3.6141 0
M  V30 4863 N 466.666 -2.80118 -3.68901 0
M  V30 4864 C 467.401 -3.55824 -4.49641 0
M  V30 4865 N 466.897 -4.41231 -5.34123 0
M  V30 4866 N 468.69 -3.44387 -4.44246 0
M  V30 4867 H 460.841 -1.9391 -0.866764 0
M  V30 4868 H 463.104 -0.838074 -0.443098 0
M  V30 4869 H 462.81 -2.7884 -2.14339 0
M  V30 4870 H 462.684 -1.59108 -3.42001 0
M  V30 4871 H 465.071 -0.782702 -2.84531 0
M  V30 4872 H 465.152 -2.01396 -1.57713 0
M  V30 4873 H 464.796 -3.82394 -3.34271 0
M  V30 4874 H 464.726 -2.56359 -4.59986 0
M  V30 4875 H 467.217 -2.1817 -3.08562 0
M  V30 4876 H 467.53 -4.95747 -5.92836 0
M  V30 4877 H 465.875 -4.45306 -5.33599 0
M  V30 4878 H 469.066 -2.7708 -3.77285 0
M  V30 4879 H 469.239 -4.0364 -5.06931 0
M  V30 4880 N 462.645 1.35699 -0.801477 0
M  V30 4881 C 463.893 1.9852 -0.37871 0
M  V30 4882 C 464.214 1.63907 1.05638 0
M  V30 4883 O 463.484 0.919013 1.73006 0
M  V30 4884 H 462.064 0.734322 -0.137042 0
M  V30 4885 H 464.726 1.65697 -1.02619 0
M  V30 4886 H 463.822 3.08382 -0.480284 0
M  V30 4887 N 464.123 0.554532 1.47522 0
M  V30 4888 C 465.534 0.120446 1.86311 0
M  V30 4889 C 465.885 -1.30904 1.46145 0
M  V30 4890 O 465.01 -1.98434 0.863294 0
M  V30 4891 C 465.605 0.211808 3.38137 0
M  V30 4892 C 464.164 -0.167224 3.76028 0
M  V30 4893 C 463.311 0.560576 2.71575 0
M  V30 4894 H 466.262 0.764408 1.39077 0
M  V30 4895 H 466.283 -0.570275 3.76202 0
M  V30 4896 H 465.795 1.25232 3.6734 0
M  V30 4897 H 463.896 -1.20894 3.52442 0
M  V30 4898 H 464.009 0.189473 4.78725 0
M  V30 4899 H 462.373 0.00396836 2.547 0
M  V30 4900 H 463.156 1.60219 3.0362 0
M  V30 4901 N 465.601 -1.54893 0.290851 0
M  V30 4902 C 466.549 -2.24579 -0.605576 0
M  V30 4903 C 467.543 -1.24824 -1.14522 0
M  V30 4904 O 468.749 -1.42706 -1.09704 0
M  V30 4905 H 465.124 -0.720946 -0.213872 0
M  V30 4906 H 467.095 -2.984 0.0048173 0
M  V30 4907 C 465.844 -2.99224 -1.77088 0
M  V30 4908 H 465.167 -3.75782 -1.36484 0
M  V30 4909 H 466.607 -3.51281 -2.3744 0
M  V30 4910 C 465.066 -2.05602 -2.66888 0
M  V30 4911 O 465.596 -1.61745 -3.67698 0
M  V30 4912 N 463.802 -1.71771 -2.34399 0
M  V30 4913 H 463.349 -2.07633 -1.52468 0
M  V30 4914 H 463.307 -1.09403 -2.94751 0
M  V30 4915 N 467.08 -0.0183926 -1.57589 0
M  V30 4916 C 468.31 0.67207 -1.95363 0
M  V30 4917 C 468.718 1.66807 -0.892872 0
M  V30 4918 O 468.061 1.83204 0.134958 0
M  V30 4919 C 468.123 1.44397 -3.29226 0
M  V30 4920 C 467.787 0.607511 -4.52944 0
M  V30 4921 C 468.784 -0.112657 -5.19778 0
M  V30 4922 C 466.469 0.548068 -4.99301 0
M  V30 4923 C 468.463 -0.881057 -6.31281 0
M  V30 4924 C 466.15 -0.224044 -6.10689 0
M  V30 4925 C 467.148 -0.937323 -6.76538 0
M  V30 4926 O 466.836 -1.6968 -7.85789 0
M  V30 4927 H 466.568 0.190925 -0.648478 0
M  V30 4928 H 469.122 -0.0711994 -2.05277 0
M  V30 4929 H 467.352 2.23214 -3.15773 0
M  V30 4930 H 469.041 2.02152 -3.51979 0
M  V30 4931 H 469.807 -0.0759998 -4.8494 0
M  V30 4932 H 465.686 1.09281 -4.4786 0
M  V30 4933 H 469.23 -1.43832 -6.82611 0
M  V30 4934 H 465.127 -0.262457 -6.44966 0
M  V30 4935 H 465.895 -1.61544 -8.024 0
M  V30 4936 N 468.558 1.5553 0.254621 0
M  V30 4937 C 469.974 1.4778 0.602753 0
M  V30 4938 C 470.174 0.707047 1.88688 0
M  V30 4939 O 469.23 0.233288 2.5142 0
M  V30 4940 C 470.543 2.92133 0.712648 0
M  V30 4941 C 472.091 3.02458 0.805488 0
M  V30 4942 C 472.566 4.48102 0.947009 0
M  V30 4943 N 474.057 4.52008 1.01207 0
M  V30 4944 C 474.792 5.61939 1.1407 0
M  V30 4945 N 474.288 6.81697 1.23536 0
M  V30 4946 N 476.081 5.49719 1.17325 0
M  V30 4947 H 468.232 2.04085 -0.588463 0
M  V30 4948 H 470.495 0.926229 -0.202001 0
M  V30 4949 H 470.201 3.51332 -0.160766 0
M  V30 4950 H 470.075 3.42187 1.58707 0
M  V30 4951 H 472.462 2.43344 1.66936 0
M  V30 4952 H 472.543 2.55627 -0.0939266 0
M  V30 4953 H 472.187 5.07824 0.087725 0
M  V30 4954 H 472.117 4.92607 1.86135 0
M  V30 4955 H 474.608 3.65749 0.950577 0
M  V30 4956 H 474.921 7.61228 1.33236 0
M  V30 4957 H 473.266 6.84473 1.20508 0
M  V30 4958 H 476.457 4.55095 1.09573 0
M  V30 4959 H 476.63 6.35432 1.27005 0
M  V30 4960 N 470.036 -0.519951 1.48776 0
M  V30 4961 C 470.966 -1.63253 1.66945 0
M  V30 4962 C 471.947 -1.62014 0.518224 0
M  V30 4963 O 473.132 -1.79053 0.751919 0
M  V30 4964 C 470.262 -3.0181 1.71836 0
M  V30 4965 C 469.216 -3.17911 2.8656 0
M  V30 4966 C 468.542 -4.5763 2.76548 0
M  V30 4967 C 469.842 -2.99729 4.27738 0
M  V30 4968 H 471.536 -1.48302 2.6009 0
M  V30 4969 H 469.082 -0.712026 1.25165 0
M  V30 4970 H 471.035 -3.79525 1.83135 0
M  V30 4971 H 469.759 -3.17806 0.752775 0
M  V30 4972 H 468.418 -2.42616 2.74833 0
M  V30 4973 H 468.066 -4.70476 1.77937 0
M  V30 4974 H 467.766 -4.69346 3.53536 0
M  V30 4975 H 469.29 -5.37431 2.89828 0
M  V30 4976 H 470.704 -3.67228 4.40246 0
M  V30 4977 H 469.101 -3.22932 5.05801 0
M  V30 4978 H 470.171 -1.96047 4.43502 0
M  V30 4979 N 471.514 -1.37532 -0.769588 0
M  V30 4980 C 472.464 -1.29984 -1.87318 0
M  V30 4981 C 473.448 -0.187242 -1.59807 0
M  V30 4982 O 474.64 -0.421827 -1.719 0
M  V30 4983 C 471.769 -1.11126 -3.24817 0
M  V30 4984 C 470.855 -2.26939 -3.58273 0
M  V30 4985 N 471.246 -3.52336 -3.62895 0
M  V30 4986 C 469.544 -2.19141 -3.8845 0
M  V30 4987 C 470.245 -4.28719 -3.9316 0
M  V30 4988 N 469.221 -3.57884 -4.0917 0
M  V30 4989 H 473.023 -2.24946 -1.89147 0
M  V30 4990 H 470.537 -1.30535 -0.966143 0
M  V30 4991 H 472.534 -1.03803 -4.0377 0
M  V30 4992 H 471.194 -0.17083 -3.2425 0
M  V30 4993 H 472.205 -3.86216 -3.45048 0
M  V30 4994 H 468.882 -1.33167 -3.95693 0
M  V30 4995 H 470.272 -5.37254 -4.03494 0
M  V30 4996 N 472.992 0.995999 -1.22138 0
M  V30 4997 C 474.238 1.73767 -1.04561 0
M  V30 4998 C 474.571 1.89633 0.418698 0
M  V30 4999 O 473.846 1.43723 1.3105 0
M  V30 5000 C 474.129 3.14505 -1.75382 0
M  V30 5001 C 473.982 3.06306 -3.29388 0
M  V30 5002 C 475.301 4.13615 -1.50369 0
M  V30 5003 H 472.42 0.630728 -0.38125 0
M  V30 5004 H 475.062 1.16057 -1.50435 0
M  V30 5005 H 473.212 3.63775 -1.36383 0
M  V30 5006 H 474.884 2.64681 -3.77812 0
M  V30 5007 H 473.127 2.43186 -3.59226 0
M  V30 5008 H 473.798 4.05884 -3.74116 0
M  V30 5009 H 476.274 3.73089 -1.84239 0
M  V30 5010 H 475.15 5.10212 -2.02421 0
M  V30 5011 H 475.411 4.39949 -0.435611 0
M  V30 5012 N 474.47 1.03057 1.19235 0
M  V30 5013 C 475.747 0.642608 1.84743 0
M  V30 5014 C 476.127 -0.878577 1.91948 0
M  V30 5015 O 475.475 -1.77597 1.43776 0
M  V30 5016 C 475.685 1.30665 3.23616 0
M  V30 5017 C 477.033 1.43098 3.9976 0
M  V30 5018 O 478.057 1.26396 3.3302 0
M  V30 5019 O 476.916 1.70223 5.19313 0
M  V30 5020 H 474.01 0.223573 0.796206 0
M  V30 5021 H 476.556 1.12883 1.26711 0
M  V30 5022 H 475.328 2.34544 3.13217 0
M  V30 5023 H 474.951 0.808405 3.89295 0
M  V30 5024 N 475.948 -1.35272 0.808662 0
M  V30 5025 C 477.196 -1.98316 0.389233 0
M  V30 5026 C 477.517 -1.64465 -1.04767 0
M  V30 5027 O 476.787 -0.928175 -1.72516 0
M  V30 5028 H 475.367 -0.733585 0.140935 0
M  V30 5029 H 478.029 -1.6515 1.03496 0
M  V30 5030 H 477.125 -3.08123 0.496631 0
M  V30 5031 N 477.426 -0.562348 -1.47226 0
M  V30 5032 C 478.672 -0.0402761 -2.0276 0
M  V30 5033 C 479.005 1.30823 -1.43523 0
M  V30 5034 O 478.28 1.85249 -0.592705 0
M  V30 5035 C 478.563 0.047311 -3.60069 0
M  V30 5036 C 478.416 -1.32865 -4.29729 0
M  V30 5037 C 479.735 0.758182 -4.3352 0
M  V30 5038 H 476.854 -0.0161105 -0.736824 0
M  V30 5039 H 479.496 -0.725628 -1.75598 0
M  V30 5040 H 477.646 0.630986 -3.83342 0
M  V30 5041 H 479.318 -1.95593 -4.17781 0
M  V30 5042 H 477.561 -1.90195 -3.89882 0
M  V30 5043 H 478.232 -1.22004 -5.38349 0
M  V30 5044 H 480.708 0.262546 -4.15271 0
M  V30 5045 H 479.584 0.78844 -5.43208 0
M  V30 5046 H 479.845 1.81537 -4.03109 0
M  V30 5047 N 478.904 1.54736 -0.299062 0
M  V30 5048 C 480.315 1.8569 0.193971 0
M  V30 5049 C 480.666 1.22101 1.53577 0
M  V30 5050 O 479.791 0.51799 2.10109 0
M  V30 5051 C 480.386 3.36895 0.358733 0
M  V30 5052 C 478.945 3.67887 0.795986 0
M  V30 5053 C 478.092 2.77131 -0.096807 0
M  V30 5054 H 481.043 1.49934 -0.520134 0
M  V30 5055 H 481.064 3.61294 1.19361 0
M  V30 5056 H 480.576 3.83148 -0.617998 0
M  V30 5057 H 478.677 3.27151 1.78334 0
M  V30 5058 H 478.79 4.75114 0.616718 0
M  V30 5059 H 477.154 2.51153 0.423581 0
M  V30 5060 H 477.937 3.26204 -1.06986 0
M  V30 5061 N 480.382 0.0267497 1.57577 0
M  V30 5062 C 481.332 -0.965003 2.06571 0
M  V30 5063 C 482.316 -1.28694 0.965746 0
M  V30 5064 O 483.508 -1.27345 1.22932 0
M  V30 5065 C 480.637 -2.24821 2.59443 0
M  V30 5066 C 479.723 -1.95474 3.76365 0
M  V30 5067 N 480.114 -1.36387 4.87065 0
M  V30 5068 C 478.412 -2.25478 3.84806 0
M  V30 5069 C 479.113 -1.24119 5.68304 0
M  V30 5070 N 478.089 -1.7359 5.15138 0
M  V30 5071 H 481.891 -0.503095 2.89562 0
M  V30 5072 H 479.405 -0.178322 1.61418 0
M  V30 5073 H 481.402 -2.9674 2.92833 0
M  V30 5074 H 480.062 -2.7164 1.77881 0
M  V30 5075 H 481.073 -1.03919 5.07367 0
M  V30 5076 H 477.75 -2.74987 3.14147 0
M  V30 5077 H 479.14 -0.784504 6.67304 0
M  V30 5078 N 481.861 -1.55662 -0.24637 0
M  V30 5079 C 483.109 -1.77168 -0.972411 0
M  V30 5080 C 483.43 -0.590827 -1.85834 0
M  V30 5081 O 482.7 0.393365 -1.9191 0
M  V30 5082 H 481.28 -0.653405 -0.362038 0
M  V30 5083 H 483.942 -1.93101 -0.264189 0
M  V30 5084 H 483.038 -2.68335 -1.59382 0
M  V30 5085 N 483.339 0.512053 -1.4905 0
M  V30 5086 C 484.755 0.84224 -1.35567 0
M  V30 5087 C 484.955 1.97878 -0.380319 0
M  V30 5088 O 484.011 2.51769 0.19201 0
M  V30 5089 C 485.324 1.19286 -2.76028 0
M  V30 5090 C 486.872 1.30171 -2.84648 0
M  V30 5091 C 487.347 1.68568 -4.25851 0
M  V30 5092 N 488.838 1.75638 -4.28609 0
M  V30 5093 C 489.573 2.06769 -5.34821 0
M  V30 5094 N 489.069 2.36201 -6.51292 0
M  V30 5095 N 490.862 2.07927 -5.22229 0
M  V30 5096 H 483.013 -0.237574 -2.11067 0
M  V30 5097 H 485.276 -0.0436747 -0.946993 0
M  V30 5098 H 484.982 0.431199 -3.49047 0
M  V30 5099 H 484.856 2.13889 -3.10695 0
M  V30 5100 H 487.243 2.05411 -2.11873 0
M  V30 5101 H 487.324 0.336457 -2.53578 0
M  V30 5102 H 486.968 0.938824 -4.99148 0
M  V30 5103 H 486.898 2.66174 -4.54377 0
M  V30 5104 H 489.389 1.55097 -3.44606 0
M  V30 5105 H 489.702 2.59112 -7.28066 0
M  V30 5106 H 488.047 2.33681 -6.54536 0
M  V30 5107 H 491.238 1.84403 -4.30248 0
M  V30 5108 H 491.411 2.31856 -6.05101 0
M  V30 5109 O 484.856 1.47522 0.657231 0
M  V30 5110 H 485.547 1.42634 1.31055 0
M  V30 END ATOM
M  V30 BEGIN BOND
M  V30 END BOND
M  V30 END CTAB
M  END
$$$$
