drugbank_target|P55055 Oxysterols receptor LXR-beta (DB03791; DB03848; DB07080; DB07082; DB11994; DB13174)
 OpenBabel12092119563D

  0  0  0     0  0            999 V3000
M  V30 BEGIN CTAB
M  V30 COUNTS 7112 7187 0 0 0
M  V30 BEGIN ATOM
M  V30 1 H -0.908 1.98254 -0.117106 0
M  V30 2 N 0 1.576 0 0
M  V30 3 C 0.933 2.03868 1.02534 0
M  V30 4 C 1.911 0.928543 1.3348 0
M  V30 5 O 3.095 1.19667 1.45644 0
M  V30 6 C 0.222 2.43627 2.35294 0
M  V30 7 C -0.732 3.65373 2.2001 0
M  V30 8 S 0.101 5.13292 1.52614 0
M  V30 9 C 1.257 5.56322 2.86805 0
M  V30 10 H 1.49 2.90518 0.631377 0
M  V30 11 H -0.977 1.52953 0.210867 0
M  V30 12 H 0.981 2.67203 3.11629 0
M  V30 13 H -0.358 1.57376 2.7183 0
M  V30 14 H -1.165 3.90944 3.18086 0
M  V30 15 H -1.563 3.418 1.51819 0
M  V30 16 H 0.729 5.58782 3.83104 0
M  V30 17 H 1.672 6.56266 2.65933 0
M  V30 18 H 2.08 4.83886 2.90714 0
M  V30 19 N 1.4781 -0.272755 1.55222 0
M  V30 20 C 2.7031 -1.02683 1.80197 0
M  V30 21 C 3.1281 -1.79142 0.573551 0
M  V30 22 O 2.4861 -1.74917 -0.476849 0
M  V30 23 C 2.5341 -1.9609 3.02624 0
M  V30 24 O 1.6381 -3.04863 2.77727 0
M  V30 25 H 0.9791 -0.293557 0.595584 0
M  V30 26 H 3.5091 -0.30159 2.02365 0
M  V30 27 H 3.5191 -2.38039 3.31363 0
M  V30 28 H 2.1941 -1.39851 3.91682 0
M  V30 29 H 0.7711 -2.67228 2.60084 0
M  V30 30 N 2.9562 -1.48159 -0.537278 0
M  V30 31 C 4.1812 -1.59707 -1.32319 0
M  V30 32 C 4.6062 -0.254859 -1.86365 0
M  V30 33 O 3.9642 0.772378 -1.64024 0
M  V30 34 C 4.0122 -2.6412 -2.45505 0
M  V30 35 O 3.1162 -2.20774 -3.48328 0
M  V30 36 H 2.4572 -0.535791 -0.392204 0
M  V30 37 H 4.9872 -1.94092 -0.647268 0
M  V30 38 H 4.9972 -2.85166 -2.91795 0
M  V30 39 H 3.6722 -3.61567 -2.05528 0
M  V30 40 H 2.2492 -2.09911 -3.08207 0
M  V30 41 N 4.4343 0.785586 -1.36625 0
M  V30 42 C 5.8453 1.36101 -1.27803 0
M  V30 43 C 6.1963 1.96035 0.0804875 0
M  V30 44 O 5.3213 1.92834 0.982042 0
M  V30 45 C 5.9163 2.47442 -2.31426 0
M  V30 46 C 4.4753 3.00789 -2.26281 0
M  V30 47 C 3.6223 1.73896 -2.15999 0
M  V30 48 H 6.5733 0.586928 -1.47448 0
M  V30 49 H 6.5943 3.2656 -1.95291 0
M  V30 50 H 6.1063 2.03791 -3.30289 0
M  V30 51 H 4.2073 3.48851 -1.30896 0
M  V30 52 H 4.3203 3.57343 -3.19128 0
M  V30 53 H 2.6843 1.9628 -1.62316 0
M  V30 54 H 3.4673 1.32368 -3.16755 0
M  V30 55 N 5.9124 1.20967 1.01018 0
M  V30 56 C 7.1404 1.04956 1.78303 0
M  V30 57 C 7.5554 -0.400915 1.84494 0
M  V30 58 O 6.9124 -1.27826 1.30257 0
M  V30 59 C 6.9634 1.63403 3.22462 0
M  V30 60 O 6.6844 3.02775 3.16637 0
M  V30 61 C 8.1854 1.52432 4.16268 0
M  V30 62 H 5.4054 0.368858 0.560522 0
M  V30 63 H 7.9494 1.60193 1.27116 0
M  V30 64 H 6.1044 1.1227 3.70775 0
M  V30 65 H 6.5184 3.30626 4.07169 0
M  V30 66 H 7.9924 1.98078 5.15237 0
M  V30 67 H 8.4694 0.477875 4.36592 0
M  V30 68 H 9.0754 2.02787 3.73841 0
M  V30 69 N 7.3905 -1.2043 1.01659 0
M  V30 70 C 8.6185 -1.93777 0.725132 0
M  V30 71 C 9.0335 -1.74772 -0.714166 0
M  V30 72 O 8.3905 -1.06169 -1.4844 0
M  V30 73 C 8.4415 -3.45876 1.05129 0
M  V30 74 O 8.1625 -3.6426 2.43406 0
M  V30 75 C 9.6635 -4.36368 0.780891 0
M  V30 76 H 6.8835 -0.615901 0.266284 0
M  V30 77 H 9.4275 -1.52922 1.35776 0
M  V30 78 H 7.5825 -3.8461 0.464065 0
M  V30 79 H 7.9965 -4.58246 2.55169 0
M  V30 80 H 9.4705 -5.41743 1.05918 0
M  V30 81 H 9.9475 -4.38275 -0.284937 0
M  V30 82 H 10.5535 -4.03296 1.35027 0
M  V30 83 N 8.8686 -0.792821 -1.36206 0
M  V30 84 C 10.0936 -0.377701 -2.03932 0
M  V30 85 C 10.5186 0.998947 -1.59382 0
M  V30 86 O 9.8766 1.64421 -0.763903 0
M  V30 87 C 9.9246 -0.453635 -3.57735 0
M  V30 88 O 9.0286 0.538151 -4.08874 0
M  V30 89 H 8.3696 -0.159855 -0.644471 0
M  V30 90 H 10.8996 -1.07488 -1.7409 0
M  V30 91 H 10.9096 -0.318464 -4.06755 0
M  V30 92 H 9.5846 -1.45784 -3.89512 0
M  V30 93 H 8.1616 0.364359 -3.71116 0
M  V30 94 N 10.3467 1.47872 -0.545128 0
M  V30 95 C 11.5717 2.07391 -0.0190611 0
M  V30 96 C 11.9967 1.39688 1.25971 0
M  V30 97 O 11.3547 0.467816 1.7516 0
M  V30 98 C 11.4027 3.60188 0.172335 0
M  V30 99 O 10.5067 3.9339 1.23766 0
M  V30 100 H 9.8477 0.662411 -0.0459059 0
M  V30 101 H 12.3777 1.90066 -0.757365 0
M  V30 102 H 12.3877 4.06129 0.390305 0
M  V30 103 H 11.0627 4.08865 -0.761725 0
M  V30 104 H 9.6397 3.5921 1.00114 0
M  V30 105 N 11.8248 0.280983 1.55075 0
M  V30 106 C 12.7548 -0.597469 2.25727 0
M  V30 107 C 13.7358 -1.15417 1.24952 0
M  V30 108 O 14.9208 -1.18722 1.53684 0
M  V30 109 C 12.0508 -1.7789 2.98283 0
M  V30 110 C 11.0048 -1.35347 4.06036 0
M  V30 111 C 10.3308 -2.61846 4.66198 0
M  V30 112 C 11.6308 -0.499354 5.19907 0
M  V30 113 H 13.3248 -0.00824265 2.99399 0
M  V30 114 H 10.8708 -0.0025244 1.44 0
M  V30 115 H 12.8238 -2.39937 3.46422 0
M  V30 116 H 11.5478 -2.39405 2.22155 0
M  V30 117 H 10.2068 -0.756156 3.58717 0
M  V30 118 H 9.8548 -3.21632 3.86732 0
M  V30 119 H 9.5548 -2.3409 5.38958 0
M  V30 120 H 11.0788 -3.24732 5.1709 0
M  V30 121 H 12.4928 -1.02498 5.64063 0
M  V30 122 H 10.8898 -0.316424 5.99265 0
M  V30 123 H 11.9598 0.480459 4.82514 0
M  V30 124 N 13.3029 -1.57598 0.00835791 0
M  V30 125 C 14.5799 -1.82172 -0.712235 0
M  V30 126 C 14.9599 -0.887873 -1.9152 0
M  V30 127 O 14.3079 0.06146 -2.28417 0
M  V30 128 C 14.5179 -3.30875 -1.11008 0
M  V30 129 C 15.8659 -3.96826 -1.51044 0
M  V30 130 O 16.8899 -3.35248 -1.20364 0
M  V30 131 O 15.7489 -5.05318 -2.08125 0
M  V30 132 H 12.8429 -0.750435 -0.347529 0
M  V30 133 H 15.3889 -1.69665 0.0344523 0
M  V30 134 H 14.1609 -3.90481 -0.252982 0
M  V30 135 H 13.7839 -3.48412 -1.9156 0
M  V30 136 N 14.781 0.264519 -1.55364 0
M  V30 137 C 16.009 1.013 -1.80405 0
M  V30 138 C 16.424 1.79618 -0.581622 0
M  V30 139 O 15.781 1.76879 0.449468 0
M  V30 140 C 15.832 1.96487 -3.03439 0
M  V30 141 O 15.553 1.21341 -4.20961 0
M  V30 142 C 17.054 2.83079 -3.41147 0
M  V30 143 H 14.274 0.298875 -0.600762 0
M  V30 144 H 16.818 0.292736 -2.02394 0
M  V30 145 H 14.973 2.63965 -2.83551 0
M  V30 146 H 15.387 1.85573 -4.90574 0
M  V30 147 H 16.861 3.4565 -4.30384 0
M  V30 148 H 17.338 3.53286 -2.60932 0
M  V30 149 H 17.944 2.2108 -3.63323 0
M  V30 150 N 16.2591 1.48442 0.529413 0
M  V30 151 C 17.6701 1.5002 1.11134 0
M  V30 152 C 18.0211 0.27031 1.94329 0
M  V30 153 O 17.1461 -0.622507 2.07253 0
M  V30 154 C 17.7411 2.71834 2.02217 0
M  V30 155 C 16.3001 2.76283 2.55627 0
M  V30 156 C 15.4471 2.43542 1.326 0
M  V30 157 H 18.3981 1.5555 0.314641 0
M  V30 158 H 18.4191 2.50384 2.8651 0
M  V30 159 H 17.9311 3.61331 1.41639 0
M  V30 160 H 16.0321 1.90995 3.19924 0
M  V30 161 H 16.1451 3.77725 2.94721 0
M  V30 162 H 14.5091 1.94709 1.64196 0
M  V30 163 H 15.2921 3.3528 0.737734 0
M  V30 164 N 17.7372 -0.778329 1.37039 0
M  V30 165 C 18.6672 -1.90546 1.34962 0
M  V30 166 C 19.6482 -1.68681 0.219274 0
M  V30 167 O 20.8332 -1.89634 0.418624 0
M  V30 168 C 17.9632 -3.27734 1.14925 0
M  V30 169 C 16.9172 -3.64147 2.24902 0
M  V30 170 C 16.2432 -4.99806 1.89996 0
M  V30 171 C 17.5432 -3.71579 3.67051 0
M  V30 172 H 19.2372 -1.92541 2.29277 0
M  V30 173 H 16.7832 -0.924948 1.10366 0
M  V30 174 H 18.7362 -4.06215 1.12104 0
M  V30 175 H 17.4602 -3.26154 0.170631 0
M  V30 176 H 16.1192 -2.8797 2.26868 0
M  V30 177 H 15.7672 -4.94759 0.906796 0
M  V30 178 H 15.4672 -5.25139 2.63634 0
M  V30 179 H 16.9912 -5.80694 1.88749 0
M  V30 180 H 18.4052 -4.40227 3.67251 0
M  V30 181 H 16.8022 -4.08405 4.39688 0
M  V30 182 H 17.8722 -2.72404 4.01154 0
M  V30 183 N 19.2153 -1.21501 -1.00376 0
M  V30 184 C 20.6263 -1.03146 -1.55621 0
M  V30 185 C 20.9773 0.408375 -1.91903 0
M  V30 186 O 20.1023 1.29177 -1.73616 0
M  V30 187 C 20.6973 -1.86612 -2.82775 0
M  V30 188 C 19.2563 -1.72586 -3.34501 0
M  V30 189 C 18.4033 -1.83747 -2.07683 0
M  V30 190 H 21.3543 -1.35505 -0.826081 0
M  V30 191 H 21.3753 -1.3771 -3.54706 0
M  V30 192 H 20.8873 -2.91399 -2.56336 0
M  V30 193 H 18.9883 -0.704877 -3.65872 0
M  V30 194 H 19.1013 -2.54623 -4.05837 0
M  V30 195 H 17.4653 -1.27069 -2.20739 0
M  V30 196 H 18.2483 -2.90044 -1.83655 0
M  V30 197 N 20.6934 1.19889 -1.02296 0
M  V30 198 C 21.9414 1.89046 -0.714558 0
M  V30 199 C 22.2624 1.79636 0.758681 0
M  V30 200 O 21.5324 1.20292 1.54618 0
M  V30 201 H 20.1124 0.699802 -0.261317 0
M  V30 202 H 22.7744 1.45574 -1.29592 0
M  V30 203 H 21.8704 2.95524 -1.0036 0
M  V30 204 N 22.1715 0.800033 1.35784 0
M  V30 205 C 23.1195 0.193851 2.31791 0
M  V30 206 C 24.1135 -0.652744 1.56319 0
M  V30 207 O 25.3195 -0.546641 1.71499 0
M  V30 208 H 21.6945 0.04392 0.750716 0
M  V30 209 H 23.6655 1.01883 2.80468 0
M  V30 210 C 22.4145 -0.648338 3.41602 0
M  V30 211 H 21.7375 -0.00624665 3.998 0
M  V30 212 H 23.1775 -1.03898 4.11073 0
M  V30 213 C 21.6365 -1.8111 2.84079 0
M  V30 214 O 22.1665 -2.90825 2.77099 0
M  V30 215 N 20.3725 -1.62056 2.41218 0
M  V30 216 H 19.9195 -0.728123 2.47095 0
M  V30 217 H 19.8775 -2.40013 2.03079 0
M  V30 218 N 23.6496 -1.47581 0.552962 0
M  V30 219 C 24.8976 -2.02082 0.0272703 0
M  V30 220 C 25.2186 -1.4301 -1.32563 0
M  V30 221 O 24.4886 -0.603745 -1.86365 0
M  V30 222 H 23.0686 -0.746966 0.00709182 0
M  V30 223 H 25.7306 -1.81033 0.722008 0
M  V30 224 H 24.8266 -3.12034 -0.0639951 0
M  V30 225 N 25.1277 -0.289203 -1.54924 0
M  V30 226 C 26.5387 0.205791 -1.85562 0
M  V30 227 C 26.8897 1.54351 -1.2112 0
M  V30 228 O 26.0147 2.10435 -0.504601 0
M  V30 229 C 26.6097 0.380177 -3.3666 0
M  V30 230 C 25.1687 0.819395 -3.67373 0
M  V30 231 C 24.3157 -0.079159 -2.77187 0
M  V30 232 H 27.2667 -0.510577 -1.50262 0
M  V30 233 H 27.2877 1.21659 -3.60526 0
M  V30 234 H 26.7997 -0.593589 -3.83534 0
M  V30 235 H 24.9007 1.80413 -3.26009 0
M  V30 236 H 25.0137 0.646957 -4.74712 0
M  V30 237 H 23.3777 0.439565 -2.50878 0
M  V30 238 H 24.1607 -1.04906 -3.26878 0
M  V30 239 N 26.6058 1.57591 -0.0167156 0
M  V30 240 C 28.0168 1.79201 0.523834 0
M  V30 241 C 28.3678 0.925796 1.72984 0
M  V30 242 O 27.4928 0.132792 2.15992 0
M  V30 243 C 28.0878 3.25 0.957091 0
M  V30 244 C 26.6468 3.47648 1.44283 0
M  V30 245 C 25.7938 2.74374 0.401757 0
M  V30 246 H 28.7448 1.56831 -0.242816 0
M  V30 247 H 28.7658 3.34031 1.82219 0
M  V30 248 H 28.2778 3.88019 0.0791415 0
M  V30 249 H 26.3788 2.89866 2.34113 0
M  V30 250 H 26.4918 4.56352 1.45877 0
M  V30 251 H 24.8558 2.39485 0.867121 0
M  V30 252 H 25.6388 3.40102 -0.467513 0
M  V30 253 N 28.0839 -0.256276 1.55502 0
M  V30 254 C 29.0159 -1.33981 1.85962 0
M  V30 255 C 30.0289 -1.44743 0.745212 0
M  V30 256 O 31.2179 -1.4626 1.02324 0
M  V30 257 C 28.3179 -2.7194 2.02242 0
M  V30 258 C 27.4909 -2.83562 3.33033 0
M  V30 259 C 26.5499 -4.02304 3.39172 0
M  V30 260 O 25.5759 -3.92273 4.12444 0
M  V30 261 N 26.7779 -5.15045 2.67784 0
M  V30 262 H 29.5429 -1.08191 2.7949 0
M  V30 263 H 27.1039 -0.446388 1.55624 0
M  V30 264 H 29.0959 -3.49697 2.03701 0
M  V30 265 H 27.6659 -2.90479 1.15502 0
M  V30 266 H 26.8859 -1.92555 3.43971 0
M  V30 267 H 28.1739 -2.88271 4.19258 0
M  V30 268 H 27.5719 -5.26085 2.07968 0
M  V30 269 H 26.1289 -5.90972 2.74947 0
M  V30 270 N 29.562 -1.4872 -0.521534 0
M  V30 271 C 30.973 -1.50607 -1.10337 0
M  V30 272 C 31.324 -0.280612 -1.94183 0
M  V30 273 O 30.449 0.611507 -2.0758 0
M  V30 274 C 31.044 -2.72903 -2.00772 0
M  V30 275 C 29.603 -2.77634 -2.54158 0
M  V30 276 C 28.75 -2.44241 -1.31307 0
M  V30 277 H 31.701 -1.55714 -0.306388 0
M  V30 278 H 31.722 -2.519 -2.85178 0
M  V30 279 H 31.234 -3.62077 -1.39721 0
M  V30 280 H 29.335 -1.92689 -3.18907 0
M  V30 281 H 29.448 -3.79283 -2.92714 0
M  V30 282 H 27.812 -1.95577 -1.63161 0
M  V30 283 H 28.595 -3.35666 -0.719943 0
M  V30 284 N 31.0401 0.771051 -1.3745 0
M  V30 285 C 32.2881 1.52661 -1.32435 0
M  V30 286 C 32.6091 1.9479 0.0905024 0
M  V30 287 O 31.8791 1.66348 1.03466 0
M  V30 288 H 30.4591 0.566218 -0.487244 0
M  V30 289 H 33.1211 0.917636 -1.71946 0
M  V30 290 H 32.2171 2.42568 -1.96385 0
M  V30 291 N 32.5182 1.22032 0.997298 0
M  V30 292 C 33.4812 0.987909 2.06816 0
M  V30 293 C 34.4812 -0.0440084 1.6074 0
M  V30 294 O 35.6712 0.194053 1.73116 0
M  V30 295 C 32.8032 0.49132 3.37341 0
M  V30 296 H 33.9962 1.93803 2.28868 0
M  V30 297 H 31.5492 1.03838 1.16822 0
M  V30 298 H 32.2842 -0.463364 3.20973 0
M  V30 299 H 32.0692 1.23575 3.72118 0
M  V30 300 H 33.5592 0.348824 4.16141 0
M  V30 301 N 33.9963 -1.19345 1.0293 0
M  V30 302 C 35.4073 -1.70725 0.755633 0
M  V30 303 C 35.7583 -1.82326 -0.724676 0
M  V30 304 O 34.8833 -1.49471 -1.56484 0
M  V30 305 C 35.4783 -3.10084 1.36503 0
M  V30 306 C 34.0373 -3.58723 1.13994 0
M  V30 307 C 33.1843 -2.35577 1.46283 0
M  V30 308 H 36.1353 -1.0418 1.19718 0
M  V30 309 H 36.1563 -3.72787 0.762217 0
M  V30 310 H 35.6683 -3.01609 2.44241 0
M  V30 311 H 33.7693 -3.72512 0.0807901 0
M  V30 312 H 33.8823 -4.42816 1.82894 0
M  V30 313 H 32.2463 -2.38935 0.88217 0
M  V30 314 H 33.0293 -2.29731 2.55105 0
M  V30 315 N 35.4744 -0.807222 -1.35358 0
M  V30 316 C 36.6994 -0.399309 -2.0352 0
M  V30 317 C 37.1244 0.981986 -1.60433 0
M  V30 318 O 36.4824 1.63601 -0.781299 0
M  V30 319 C 36.5304 -0.491552 -3.57234 0
M  V30 320 O 35.6344 0.494754 -4.09421 0
M  V30 321 H 34.9754 -0.166682 -0.642739 0
M  V30 322 H 37.5054 -1.09328 -1.72941 0
M  V30 323 H 37.5154 -0.361588 -4.06395 0
M  V30 324 H 36.1904 -1.49907 -3.87944 0
M  V30 325 H 34.7674 0.324977 -3.71481 0
M  V30 326 N 36.9525 1.47285 -0.560781 0
M  V30 327 C 38.1775 2.07359 -0.0410566 0
M  V30 328 C 38.6025 1.41017 1.24483 0
M  V30 329 O 37.9605 0.486368 1.74654 0
M  V30 330 C 38.0085 3.6035 0.134123 0
M  V30 331 O 37.1125 3.94681 1.19587 0
M  V30 332 H 36.4535 0.661887 -0.0529291 0
M  V30 333 H 38.9835 1.89252 -0.777482 0
M  V30 334 H 38.9935 4.0652 0.347207 0
M  V30 335 H 37.6685 4.08034 -0.805047 0
M  V30 336 H 36.2455 3.60251 0.962987 0
M  V30 337 N 38.4306 0.297415 1.54768 0
M  V30 338 C 39.6556 -0.318435 2.04941 0
M  V30 339 C 40.0806 -1.4701 1.17345 0
M  V30 340 O 39.4386 -1.80436 0.176758 0
M  V30 341 C 39.4866 -0.755749 3.52592 0
M  V30 342 O 38.5906 -1.86088 3.68028 0
M  V30 343 H 37.9316 -0.062421 0.661059 0
M  V30 344 H 40.4616 0.438215 1.99852 0
M  V30 345 H 40.4716 -1.04552 3.94376 0
M  V30 346 H 39.1466 0.0867233 4.1581 0
M  V30 347 H 37.7236 -1.57193 3.38149 0
M  V30 348 N 39.9087 -1.5758 0.0250728 0
M  V30 349 C 41.3197 -1.79476 -0.514323 0
M  V30 350 C 41.6707 -0.934956 -1.72491 0
M  V30 351 O 40.7957 -0.144245 -2.15919 0
M  V30 352 C 41.3907 -3.25503 -0.939842 0
M  V30 353 C 39.9497 -3.48408 -1.42438 0
M  V30 354 C 39.0967 -2.74583 -0.387201 0
M  V30 355 H 42.0477 -1.567 0.25113 0
M  V30 356 H 42.0687 -3.34992 -1.80445 0
M  V30 357 H 41.5807 -3.88056 -0.0585628 0
M  V30 358 H 39.6817 -2.91103 -2.32572 0
M  V30 359 H 39.7947 -4.57119 -1.43455 0
M  V30 360 H 38.1587 -2.39942 -0.854409 0
M  V30 361 H 38.9417 -3.39849 0.485543 0
M  V30 362 N 41.3868 0.248026 -1.55636 0
M  V30 363 C 42.6148 0.993808 -1.81469 0
M  V30 364 C 43.0298 1.78991 -0.60064 0
M  V30 365 O 42.3868 1.77345 0.430682 0
M  V30 366 C 42.4378 1.93258 -3.05506 0
M  V30 367 O 42.1588 1.16869 -4.22224 0
M  V30 368 C 43.6598 2.79444 -3.4413 0
M  V30 369 H 40.8798 0.292486 -0.603898 0
M  V30 370 H 43.4238 0.271253 -2.02693 0
M  V30 371 H 41.5788 2.60943 -2.86335 0
M  V30 372 H 41.9928 1.80359 -4.92515 0
M  V30 373 H 43.4668 3.41066 -4.34026 0
M  V30 374 H 43.9438 3.50499 -2.64665 0
M  V30 375 H 44.5498 2.17214 -3.65648 0
M  V30 376 N 42.8649 1.48995 0.513639 0
M  V30 377 C 44.1109 1.58076 1.27042 0
M  V30 378 C 44.4439 0.261026 1.92438 0
M  V30 379 O 43.7189 -0.734393 1.80103 0
M  V30 380 C 44.0019 2.73091 2.34719 0
M  V30 381 C 43.8549 4.14821 1.73907 0
M  V30 382 C 45.1739 2.83796 3.36375 0
M  V30 383 H 42.2929 0.575391 0.460536 0
M  V30 384 H 44.9349 1.81232 0.570516 0
M  V30 385 H 43.0849 2.53479 2.94416 0
M  V30 386 H 44.7569 4.45917 1.18135 0
M  V30 387 H 42.9999 4.21058 1.0437 0
M  V30 388 H 43.6709 4.91147 2.51949 0
M  V30 389 H 46.1469 3.01611 2.86653 0
M  V30 390 H 45.0229 3.65971 4.09093 0
M  V30 391 H 45.2839 1.92624 3.9793 0
M  V30 392 N 44.343 -0.763751 1.37857 0
M  V30 393 C 45.29 -1.87726 1.34267 0
M  V30 394 C 46.26 -1.64807 0.206879 0
M  V30 395 O 47.445 -1.86613 0.397508 0
M  V30 396 C 44.585 -3.24896 1.16346 0
M  V30 397 C 43.698 -3.59716 2.39225 0
M  V30 398 C 42.833 -4.86137 2.14114 0
M  V30 399 C 41.872 -5.13711 3.32817 0
M  V30 400 N 41.009 -6.31323 3.07206 0
M  V30 401 H 45.849 -1.90129 2.29466 0
M  V30 402 H 43.386 -0.929433 1.14017 0
M  V30 403 H 45.344 -4.04036 1.03975 0
M  V30 404 H 43.974 -3.21847 0.247909 0
M  V30 405 H 43.026 -2.75498 2.62307 0
M  V30 406 H 44.338 -3.76027 3.27728 0
M  V30 407 H 43.492 -5.73198 1.9882 0
M  V30 408 H 42.231 -4.71945 1.22961 0
M  V30 409 H 41.236 -4.25123 3.48641 0
M  V30 410 H 42.461 -5.29807 4.24832 0
M  V30 411 H 40.407 -6.18474 2.1869 0
M  V30 412 H 40.324 -6.48087 3.89254 0
M  V30 413 H 41.592 -7.213 2.95546 0
M  V30 414 N 45.8211 -1.22559 -0.990812 0
M  V30 415 C 46.7311 -1.01394 -2.11557 0
M  V30 416 C 47.7471 0.0383962 -1.73958 0
M  V30 417 O 48.9231 -0.154787 -2.00804 0
M  V30 418 C 45.9881 -0.596569 -3.41529 0
M  V30 419 C 45.0491 -1.72276 -3.93217 0
M  V30 420 C 44.2821 -1.32521 -5.16985 0
M  V30 421 O 44.5051 -0.204909 -5.70032 0
M  V30 422 O 43.4391 -2.14247 -5.62478 0
M  V30 423 H 47.2651 -1.95633 -2.32296 0
M  V30 424 H 44.8501 -1.01172 -1.0993 0
M  V30 425 H 46.7321 -0.374263 -4.19735 0
M  V30 426 H 45.4071 0.316939 -3.22145 0
M  V30 427 H 44.3141 -1.99961 -3.16174 0
M  V30 428 H 45.6471 -2.61421 -4.17037 0
M  V30 429 N 47.2992 1.18797 -1.03562 0
M  V30 430 C 48.2092 2.25913 -0.632505 0
M  V30 431 C 49.2252 1.70668 0.338882 0
M  V30 432 O 50.4012 2.00453 0.195076 0
M  V30 433 C 47.4662 3.467 0.00350942 0
M  V30 434 C 46.5272 4.17098 -1.01624 0
M  V30 435 C 45.7602 5.32119 -0.410478 0
M  V30 436 O 45.9832 5.64976 0.784725 0
M  V30 437 O 44.9172 5.9107 -1.13667 0
M  V30 438 H 48.7432 2.62648 -1.52478 0
M  V30 439 H 46.3282 1.25781 -0.806195 0
M  V30 440 H 48.2102 4.19878 0.35781 0
M  V30 441 H 46.8852 3.11798 0.869686 0
M  V30 442 H 45.7922 3.4601 -1.42224 0
M  V30 443 H 47.1252 4.55987 -1.85301 0
M  V30 444 N 48.7773 0.814389 1.34928 0
M  V30 445 C 50.0253 0.397636 1.9815 0
M  V30 446 C 50.3463 -1.04069 1.64908 0
M  V30 447 O 49.6163 -1.72121 0.93548 0
M  V30 448 H 48.1963 0.144043 0.732981 0
M  V30 449 H 50.8583 1.04195 1.6471 0
M  V30 450 H 49.9543 0.509688 3.0791 0
M  V30 451 N 50.2554 -1.46986 0.568584 0
M  V30 452 C 51.6664 -1.86188 0.138219 0
M  V30 453 C 52.0174 -1.47388 -1.29504 0
M  V30 454 O 51.1424 -0.88219 -1.97602 0
M  V30 455 C 51.7374 -3.3792 0.244065 0
M  V30 456 C 50.2964 -3.76171 -0.131335 0
M  V30 457 C 49.4434 -2.71027 0.586465 0
M  V30 458 H 52.3944 -1.38342 0.777645 0
M  V30 459 H 52.4154 -3.76729 -0.534351 0
M  V30 460 H 51.9274 -3.66128 1.28731 0
M  V30 461 H 50.0284 -3.5358 -1.17526 0
M  V30 462 H 50.1414 -4.78523 0.235146 0
M  V30 463 H 48.5054 -2.54684 0.0282722 0
M  V30 464 H 49.2884 -3.02077 1.63109 0
M  V30 465 N 51.7335 -0.305618 -1.54608 0
M  V30 466 C 52.6435 0.57778 -2.27374 0
M  V30 467 C 53.6595 1.14451 -1.31061 0
M  V30 468 O 54.8355 1.16831 -1.6405 0
M  V30 469 C 51.9005 1.73123 -3.00382 0
M  V30 470 C 50.9615 1.19812 -4.12242 0
M  V30 471 C 50.1945 2.2966 -4.81759 0
M  V30 472 O 50.4175 3.49651 -4.50666 0
M  V30 473 O 49.3515 1.96091 -5.69062 0
M  V30 474 H 53.1775 -0.012624 -3.03697 0
M  V30 475 H 50.7625 -0.0719184 -1.49227 0
M  V30 476 H 52.6445 2.40315 -3.4616 0
M  V30 477 H 51.3195 2.30815 -2.26949 0
M  V30 478 H 50.2265 0.491798 -3.70853 0
M  V30 479 H 51.5595 0.666566 -4.87666 0
M  V30 480 N 53.2116 1.57565 -0.0334293 0
M  V30 481 C 54.6226 1.79746 0.504798 0
M  V30 482 C 54.9736 0.944091 1.71992 0
M  V30 483 O 54.0986 0.155694 2.15839 0
M  V30 484 C 54.6936 3.25997 0.922567 0
M  V30 485 C 53.2526 3.49159 1.40588 0
M  V30 486 C 52.3996 2.74785 0.372633 0
M  V30 487 H 55.3506 1.56565 -0.259436 0
M  V30 488 H 55.3716 3.35945 1.78666 0
M  V30 489 H 54.8836 3.88081 0.0379825 0
M  V30 490 H 52.9846 2.92332 2.31025 0
M  V30 491 H 53.0976 4.57873 1.41028 0
M  V30 492 H 51.4616 2.40391 0.841672 0
M  V30 493 H 52.2446 3.39587 -0.503559 0
M  V30 494 N 54.6897 -0.239769 1.55765 0
M  V30 495 C 55.9357 -0.963942 1.79108 0
M  V30 496 C 56.2907 -1.82689 0.60352 0
M  V30 497 O 55.5837 -1.87313 -0.403033 0
M  V30 498 C 55.7777 -1.852 3.05672 0
M  V30 499 C 55.6067 -1.07651 4.36625 0
M  V30 500 C 54.3767 -0.778738 4.99263 0
M  V30 501 C 56.5747 -0.45062 5.12322 0
M  V30 502 N 54.5567 0.0200708 6.13897 0
M  V30 503 C 55.9277 0.212429 6.19636 0
M  V30 504 C 57.9827 -0.361806 4.96584 0
M  V30 505 C 56.6857 0.955772 7.12922 0
M  V30 506 C 58.7117 0.368023 5.90254 0
M  V30 507 C 58.0737 1.01968 6.96981 0
M  V30 508 H 54.1727 -0.333601 0.707272 0
M  V30 509 H 56.7567 -0.236425 1.93259 0
M  V30 510 H 54.9277 -2.55149 2.92837 0
M  V30 511 H 56.6597 -2.51228 3.1728 0
M  V30 512 H 53.4147 -1.09229 4.60832 0
M  V30 513 H 53.8387 0.407777 6.75771 0
M  V30 514 H 58.4807 -0.851286 4.14141 0
M  V30 515 H 56.1987 1.45683 7.9486 0
M  V30 516 H 59.7847 0.437504 5.80153 0
M  V30 517 H 58.6647 1.5754 7.68213 0
M  V30 518 N 56.1678 -1.49265 -0.50573 0
M  V30 519 C 57.5788 -1.51769 -1.08734 0
M  V30 520 C 57.9298 -0.301192 -1.93874 0
M  V30 521 O 57.0548 0.589456 -2.08217 0
M  V30 522 C 57.6498 -2.75017 -1.97867 0
M  V30 523 C 56.2088 -2.80314 -2.51199 0
M  V30 524 C 55.3558 -2.4562 -1.28709 0
M  V30 525 H 58.3068 -1.56031 -0.289855 0
M  V30 526 H 58.3278 -2.5491 -2.82491 0
M  V30 527 H 57.8398 -3.63539 -1.35873 0
M  V30 528 H 55.9408 -1.96061 -3.16845 0
M  V30 529 H 56.0538 -3.82366 -2.88675 0
M  V30 530 H 54.4178 -1.97297 -1.61078 0
M  V30 531 H 55.2008 -3.36411 -0.6843 0
M  V30 532 N 57.6459 0.756429 -1.3826 0
M  V30 533 C 58.8939 1.51248 -1.34047 0
M  V30 534 C 59.2149 1.94875 0.0698372 0
M  V30 535 O 58.4849 1.67436 1.01696 0
M  V30 536 H 57.0649 0.561018 -0.493222 0
M  V30 537 H 59.7269 0.899347 -1.7291 0
M  V30 538 H 58.8229 2.40472 -1.98947 0
M  V30 539 N 59.124 1.23083 0.984299 0
M  V30 540 C 60.372 1.05848 1.72165 0
M  V30 541 C 60.693 -0.406049 1.90726 0
M  V30 542 O 59.963 -1.29139 1.47309 0
M  V30 543 H 58.543 0.388685 0.637913 0
M  V30 544 H 61.205 1.54736 1.18503 0
M  V30 545 H 60.301 1.54327 2.71274 0
M  V30 546 N 60.6021 -1.18246 1.0419 0
M  V30 547 C 62.0131 -1.69914 0.773698 0
M  V30 548 C 62.3641 -1.83085 -0.705297 0
M  V30 549 O 61.4891 -1.51123 -1.5489 0
M  V30 550 C 62.0841 -3.08619 1.39784 0
M  V30 551 C 60.6431 -3.57494 1.17792 0
M  V30 552 C 59.7901 -2.34013 1.48773 0
M  V30 553 H 62.7411 -1.02904 1.20816 0
M  V30 554 H 62.7621 -3.71958 0.801714 0
M  V30 555 H 62.2741 -2.99001 2.47426 0
M  V30 556 H 60.3751 -3.72406 0.120295 0
M  V30 557 H 60.4881 -4.40852 1.87581 0
M  V30 558 H 58.8521 -2.37986 0.907463 0
M  V30 559 H 59.6351 -2.27013 2.57527 0
M  V30 560 N 62.0802 -0.821533 -1.34494 0
M  V30 561 C 63.3572 -0.33159 -1.92769 0
M  V30 562 C 63.7372 1.18088 -1.74981 0
M  V30 563 O 63.0852 1.98733 -1.12772 0
M  V30 564 C 63.2952 -0.759398 -3.40638 0
M  V30 565 C 64.6432 -0.757433 -4.1779 0
M  V30 566 O 65.6672 -0.70189 -3.49216 0
M  V30 567 O 64.5262 -0.829361 -5.4017 0
M  V30 568 H 61.6202 -0.0902502 -0.822061 0
M  V30 569 H 64.1662 -0.906231 -1.43477 0
M  V30 570 H 62.9382 -1.8012 -3.47379 0
M  V30 571 H 62.5612 -0.160378 -3.97276 0
M  V30 572 N 63.5583 1.46682 -0.576371 0
M  V30 573 C 64.9693 1.86112 -0.148091 0
M  V30 574 C 65.3203 1.48073 1.2872 0
M  V30 575 O 64.4453 0.892656 1.97131 0
M  V30 576 C 65.0403 3.37786 -0.261982 0
M  V30 577 C 63.5993 3.76235 0.111384 0
M  V30 578 C 62.7463 2.70713 -0.60083 0
M  V30 579 H 65.6973 1.37927 -0.78497 0
M  V30 580 H 65.7183 3.77007 0.514364 0
M  V30 581 H 65.2303 3.6544 -1.30671 0
M  V30 582 H 63.3313 3.54198 1.15649 0
M  V30 583 H 63.4443 4.78391 -0.26052 0
M  V30 584 H 61.8083 2.54666 -0.0417783 0
M  V30 585 H 62.5913 3.01208 -1.64708 0
M  V30 586 N 65.0364 0.313813 1.54444 0
M  V30 587 C 66.3134 -0.345447 1.92525 0
M  V30 588 C 66.6934 -1.70667 1.24242 0
M  V30 589 O 66.0414 -2.25273 0.382654 0
M  V30 590 C 66.2514 -0.44737 3.46121 0
M  V30 591 C 67.5994 -0.712238 4.18584 0
M  V30 592 O 68.6234 -0.530678 3.52225 0
M  V30 593 O 67.4824 -1.06183 5.36085 0
M  V30 594 H 64.5764 -0.195407 0.803583 0
M  V30 595 H 67.1224 0.362813 1.65776 0
M  V30 596 H 65.8944 0.509043 3.87975 0
M  V30 597 H 65.5174 -1.20359 3.78945 0
M  V30 598 N 66.5145 -1.57545 0.0417849 0
M  V30 599 C 67.7605 -1.92601 -0.635021 0
M  V30 600 C 68.0935 -0.919627 -1.71045 0
M  V30 601 O 67.3685 0.0557892 -1.9442 0
M  V30 602 C 67.6515 -3.38085 -1.23979 0
M  V30 603 C 67.5045 -4.49467 -0.173057 0
M  V30 604 C 68.8235 -3.83776 -2.15416 0
M  V30 605 H 65.9425 -0.700397 -0.229374 0
M  V30 606 H 68.5845 -1.89728 0.101633 0
M  V30 607 H 66.7345 -3.40664 -1.86762 0
M  V30 608 H 68.4065 -4.59018 0.458312 0
M  V30 609 H 66.6495 -4.30909 0.499996 0
M  V30 610 H 67.3205 -5.48323 -0.636054 0
M  V30 611 H 69.7965 -3.83013 -1.62605 0
M  V30 612 H 68.6725 -4.8624 -2.54679 0
M  V30 613 H 68.9335 -3.19998 -3.05047 0
M  V30 614 N 67.9926 0.231505 -1.5589 0
M  V30 615 C 69.4036 0.799327 -1.68724 0
M  V30 616 C 69.7546 1.85398 -0.642022 0
M  V30 617 O 68.8796 2.1539 0.208784 0
M  V30 618 C 69.4746 1.45664 -3.05888 0
M  V30 619 C 68.0336 1.97197 -3.20609 0
M  V30 620 C 67.1806 0.828552 -2.64632 0
M  V30 621 H 70.1316 0.00702616 -1.58698 0
M  V30 622 H 70.1526 2.32517 -3.01191 0
M  V30 623 H 69.6646 0.688808 -3.81939 0
M  V30 624 H 67.7656 2.76813 -2.4941 0
M  V30 625 H 67.8786 2.15878 -4.27707 0
M  V30 626 H 66.2426 1.23321 -2.22854 0
M  V30 627 H 67.0256 0.0735544 -3.43221 0
M  V30 628 N 69.4707 1.49531 0.497807 0
M  V30 629 C 70.7187 1.58865 1.24926 0
M  V30 630 C 71.0397 0.278721 1.92998 0
M  V30 631 O 70.3097 -0.702144 1.82885 0
M  V30 632 H 68.8897 0.585343 0.464094 0
M  V30 633 H 71.5517 1.86174 0.57666 0
M  V30 634 H 70.6477 2.38633 2.01149 0
M  V30 635 N 70.9488 -0.749086 1.3866 0
M  V30 636 C 72.1768 -1.53834 1.38358 0
M  V30 637 C 72.5918 -1.88783 -0.0255219 0
M  V30 638 O 71.9488 -1.53101 -0.993292 0
M  V30 639 C 71.9998 -2.83468 2.2434 0
M  V30 640 O 71.7208 -2.50008 3.5976 0
M  V30 641 C 73.2218 -3.7758 2.32267 0
M  V30 642 H 70.4418 -0.47585 0.473083 0
M  V30 643 H 72.9858 -0.926726 1.82297 0
M  V30 644 H 71.1408 -3.40995 1.83851 0
M  V30 645 H 71.5548 -3.33182 4.05081 0
M  V30 646 H 73.0288 -4.65478 2.96706 0
M  V30 647 H 73.5058 -4.18334 1.33765 0
M  V30 648 H 74.1118 -3.25976 2.73166 0
M  V30 649 N 72.4269 -1.23603 -0.977757 0
M  V30 650 C 73.7039 -0.977897 -1.69401 0
M  V30 651 C 74.0839 0.502738 -2.05026 0
M  V30 652 O 73.4319 1.47459 -1.74551 0
M  V30 653 C 73.6419 -1.89077 -2.93345 0
M  V30 654 C 74.9899 -2.15579 -3.65802 0
M  V30 655 O 76.0139 -1.86648 -3.03383 0
M  V30 656 O 74.8729 -2.64658 -4.78141 0
M  V30 657 H 71.9669 -0.369025 -0.740101 0
M  V30 658 H 74.5129 -1.34657 -1.03274 0
M  V30 659 H 73.2849 -2.89158 -2.63634 0
M  V30 660 H 72.9079 -1.52463 -3.67207 0
M  V30 661 N 73.905 1.17692 -1.04816 0
M  V30 662 C 74.815 2.25229 -0.65643 0
M  V30 663 C 75.831 1.71018 0.320761 0
M  V30 664 O 77.007 2.00649 0.173805 0
M  V30 665 C 74.072 3.46684 -0.0332629 0
M  V30 666 C 73.133 4.15997 -1.06042 0
M  V30 667 C 72.366 5.31654 -0.466893 0
M  V30 668 O 72.589 5.65777 0.724758 0
M  V30 669 O 71.523 5.89831 -1.1993 0
M  V30 670 H 75.349 2.61016 -1.55255 0
M  V30 671 H 72.934 1.24919 -0.81949 0
M  V30 672 H 74.816 4.20234 0.313256 0
M  V30 673 H 73.491 3.12703 0.836566 0
M  V30 674 H 72.398 3.44482 -1.45886 0
M  V30 675 H 73.731 4.53996 -1.90127 0
M  V30 676 N 75.3831 0.828654 1.34056 0
M  V30 677 C 76.3461 0.259927 2.27721 0
M  V30 678 C 77.3461 -0.565478 1.50529 0
M  V30 679 O 78.5361 -0.38075 1.69988 0
M  V30 680 C 75.6681 -0.634944 3.34935 0
M  V30 681 H 76.8611 1.0863 2.79534 0
M  V30 682 H 74.4141 0.600951 1.44285 0
M  V30 683 H 75.1491 -1.48416 2.88346 0
M  V30 684 H 74.9341 -0.0444999 3.92075 0
M  V30 685 H 76.4241 -1.02648 4.04788 0
M  V30 686 N 76.8612 -1.46375 0.584142 0
M  V30 687 C 78.0862 -2.07268 0.0740405 0
M  V30 688 C 78.5112 -1.42979 -1.22223 0
M  V30 689 O 77.8692 -0.514092 -1.73859 0
M  V30 690 C 77.9172 -3.60518 -0.0767769 0
M  V30 691 O 77.0212 -3.96533 -1.13292 0
M  V30 692 H 76.3622 -0.660961 0.0634524 0
M  V30 693 H 78.8922 -1.87991 0.807492 0
M  V30 694 H 78.9022 -4.07021 -0.282489 0
M  V30 695 H 77.5772 -4.06702 0.86986 0
M  V30 696 H 76.1542 -3.61738 -0.905553 0
M  V30 697 N 78.3393 -0.321999 -1.54275 0
M  V30 698 C 79.5643 0.285791 -2.05422 0
M  V30 699 C 79.9893 1.45124 -1.19669 0
M  V30 700 O 79.3473 1.80132 -0.205441 0
M  V30 701 C 79.3953 0.69956 -3.53749 0
M  V30 702 O 78.4993 1.8021 -3.70942 0
M  V30 703 H 77.8403 0.0518962 -0.661969 0
M  V30 704 H 80.3703 -0.469954 -1.9913 0
M  V30 705 H 80.3803 0.982649 -3.9599 0
M  V30 706 H 79.0553 -0.152864 -4.15619 0
M  V30 707 H 77.6323 1.51794 -3.40607 0
M  V30 708 N 79.8174 1.5752 -0.0501392 0
M  V30 709 C 80.7804 2.1037 0.909786 0
M  V30 710 C 81.7804 1.02308 1.24056 0
M  V30 711 O 82.9704 1.28385 1.17741 0
M  V30 712 C 80.1024 2.58708 2.21998 0
M  V30 713 H 81.2954 2.96479 0.451665 0
M  V30 714 H 78.8484 1.55038 0.198248 0
M  V30 715 H 79.5834 1.75989 2.72394 0
M  V30 716 H 79.3684 3.37675 1.99295 0
M  V30 717 H 80.8584 2.99747 2.9076 0
M  V30 718 N 81.2955 -0.223234 1.56011 0
M  V30 719 C 82.5355 -0.954962 1.8072 0
M  V30 720 C 82.8995 -1.81598 0.623384 0
M  V30 721 O 84.1005 -2.58132 0.749745 0
M  V30 722 C 82.3715 -1.77313 3.10314 0
M  V30 723 S 83.9305 -2.56073 3.56332 0
M  V30 724 H 80.7485 -0.320812 0.634508 0
M  V30 725 H 83.3505 -0.220686 1.9425 0
M  V30 726 H 82.0545 -1.13071 3.94516 0
M  V30 727 H 81.5855 -2.54974 2.99586 0
M  V30 728 H 83.6005 -3.79619 3.19536 0
M  V30 729 N 82.7736 -1.49793 -0.48987 0
M  V30 730 C 83.9986 -1.63836 -1.27172 0
M  V30 731 C 84.4236 -0.31402 -1.8546 0
M  V30 732 O 83.7816 0.719803 -1.66399 0
M  V30 733 C 83.8296 -2.71797 -2.36978 0
M  V30 734 O 82.9336 -2.31744 -3.41128 0
M  V30 735 H 82.2746 -0.547997 -0.37496 0
M  V30 736 H 84.8046 -1.96053 -0.585191 0
M  V30 737 H 84.8146 -2.94305 -2.82575 0
M  V30 738 H 83.4896 -3.67923 -1.93921 0
M  V30 739 H 82.0666 -2.1961 -3.01373 0
M  V30 740 N 84.2517 0.741722 -1.39055 0
M  V30 741 C 85.4797 1.53098 -1.39171 0
M  V30 742 C 85.8947 1.88794 0.0155099 0
M  V30 743 O 85.2517 1.53626 0.985159 0
M  V30 744 C 85.3027 2.82274 -2.2584 0
M  V30 745 O 85.0237 2.48097 -3.61081 0
M  V30 746 C 86.5247 3.76343 -2.34266 0
M  V30 747 H 83.7447 0.473335 -0.4756 0
M  V30 748 H 86.2887 0.917045 -1.82785 0
M  V30 749 H 84.4437 3.40015 -1.85656 0
M  V30 750 H 84.8577 3.31029 -4.06842 0
M  V30 751 H 86.3317 4.63898 -2.9917 0
M  V30 752 H 86.8087 4.17619 -1.35982 0
M  V30 753 H 87.4147 3.24523 -2.74891 0
M  V30 754 N 85.7298 1.2412 0.971189 0
M  V30 755 C 87.0068 0.986867 1.6888 0
M  V30 756 C 87.3868 -0.491857 2.0529 0
M  V30 757 O 86.7348 -1.46531 1.75331 0
M  V30 758 C 86.9448 1.9063 2.92338 0
M  V30 759 C 88.2928 2.17515 3.64654 0
M  V30 760 O 89.3168 1.88254 3.02388 0
M  V30 761 O 88.1758 2.6719 4.7673 0
M  V30 762 H 85.2698 0.372944 0.738134 0
M  V30 763 H 87.8158 1.35203 1.02559 0
M  V30 764 H 86.5878 2.90552 2.62097 0
M  V30 765 H 86.2108 1.54408 3.66393 0
M  V30 766 N 87.2079 -1.17134 1.05439 0
M  V30 767 C 88.4539 -1.87979 0.776872 0
M  V30 768 C 88.8089 -1.7965 -0.688751 0
M  V30 769 O 88.1019 -1.19535 -1.4974 0
M  V30 770 C 88.2959 -3.36833 1.19491 0
M  V30 771 C 88.1249 -3.59653 2.69963 0
M  V30 772 C 86.8949 -3.76234 3.37307 0
M  V30 773 C 89.0929 -3.59091 3.68182 0
M  V30 774 N 87.0749 -3.86922 4.76618 0
M  V30 775 C 88.4459 -3.75659 4.93235 0
M  V30 776 C 90.5009 -3.42255 3.61616 0
M  V30 777 C 89.2039 -3.77133 6.12506 0
M  V30 778 C 91.2299 -3.45018 4.8033 0
M  V30 779 C 90.5919 -3.62096 6.04207 0
M  V30 780 H 86.6909 -0.705876 0.336546 0
M  V30 781 H 89.2749 -1.40602 1.34682 0
M  V30 782 H 87.4459 -3.82873 0.652884 0
M  V30 783 H 89.1779 -3.95305 0.866966 0
M  V30 784 H 85.9329 -3.76193 2.87708 0
M  V30 785 H 86.3569 -3.96055 5.49062 0
M  V30 786 H 90.9989 -3.27986 2.66805 0
M  V30 787 H 88.7169 -3.90186 7.07659 0
M  V30 788 H 92.3029 -3.33246 4.76905 0
M  V30 789 H 91.1829 -3.64142 6.94529 0
M  V30 790 N 88.686 -0.835752 -1.33615 0
M  V30 791 C 89.932 -0.430596 -1.98176 0
M  V30 792 C 90.265 1.00684 -1.66061 0
M  V30 793 O 89.54 1.70339 -0.938877 0
M  V30 794 C 89.823 -0.648065 -3.5422 0
M  V30 795 C 89.676 -2.13255 -3.96033 0
M  V30 796 C 90.995 -0.0922113 -4.40003 0
M  V30 797 H 88.114 -0.157924 -0.719881 0
M  V30 798 H 90.756 -1.05069 -1.58305 0
M  V30 799 H 88.906 -0.120237 -3.88314 0
M  V30 800 H 90.578 -2.725 -3.72211 0
M  V30 801 H 88.821 -2.61823 -3.45878 0
M  V30 802 H 89.492 -2.23547 -5.04708 0
M  V30 803 H 91.968 -0.543343 -4.12537 0
M  V30 804 H 90.844 -0.274083 -5.48215 0
M  V30 805 H 91.105 1.00378 -4.30554 0
M  V30 806 N 90.1641 1.46063 -0.591896 0
M  V30 807 C 91.4131 2.01547 -0.0786637 0
M  V30 808 C 91.7261 1.46796 1.29268 0
M  V30 809 O 92.9321 1.94157 1.89777 0
M  V30 810 C 91.3881 3.59787 -0.0900024 0
M  V30 811 C 90.9961 4.23534 -1.46023 0
M  V30 812 C 92.7401 4.22895 0.368806 0
M  V30 813 C 90.6471 5.73881 -1.4288 0
M  V30 814 H 89.5771 0.753564 -0.0256388 0
M  V30 815 H 92.2281 1.677 -0.744905 0
M  V30 816 H 90.6101 3.90752 0.642586 0
M  V30 817 H 91.7841 4.04167 -2.21328 0
M  V30 818 H 90.0991 3.72558 -1.85982 0
M  V30 819 H 92.6961 5.33116 0.411258 0
M  V30 820 H 93.0391 3.9247 1.38827 0
M  V30 821 H 93.5721 3.9659 -0.31001 0
M  V30 822 H 90.3111 6.0898 -2.42536 0
M  V30 823 H 89.8311 5.95486 -0.718095 0
M  V30 824 H 91.5101 6.36776 -1.14565 0
M  V30 825 N 91.6422 0.330177 1.54103 0
M  V30 826 C 93.0532 -0.15652 1.86043 0
M  V30 827 C 93.4042 -1.51086 1.2517 0
M  V30 828 O 92.5292 -2.09023 0.560217 0
M  V30 829 C 93.1242 -0.290784 3.3755 0
M  V30 830 C 91.6832 -0.721705 3.69416 0
M  V30 831 C 90.8302 0.152622 2.7688 0
M  V30 832 H 93.7812 0.550237 1.48856 0
M  V30 833 H 93.8022 -1.12058 3.63625 0
M  V30 834 H 93.3142 0.695068 3.81825 0
M  V30 835 H 91.4152 -1.71706 3.30678 0
M  V30 836 H 91.5282 -0.520869 4.7626 0
M  V30 837 H 89.8922 -0.372894 2.51956 0
M  V30 838 H 90.6752 1.13536 3.23982 0
M  V30 839 N 93.1203 -1.57491 0.0584922 0
M  V30 840 C 94.3973 -1.84346 -0.653918 0
M  V30 841 C 94.7773 -0.948355 -1.88599 0
M  V30 842 O 94.1253 -0.0112403 -2.28497 0
M  V30 843 C 94.3353 -3.34239 -1.00425 0
M  V30 844 C 95.6833 -4.01431 -1.38342 0
M  V30 845 O 96.7073 -3.38907 -1.09637 0
M  V30 846 O 95.5663 -5.11683 -1.91943 0
M  V30 847 H 92.6603 -0.761112 -0.323478 0
M  V30 848 H 95.2063 -1.6947 0.0884125 0
M  V30 849 H 93.9783 -3.91089 -0.128625 0
M  V30 850 H 93.6013 -3.54329 -1.80378 0
M  V30 851 N 94.5984 0.214957 -1.56127 0
M  V30 852 C 96.0094 0.781386 -1.69562 0
M  V30 853 C 96.3604 1.84707 -0.66165 0
M  V30 854 O 95.4854 2.156 0.185927 0
M  V30 855 C 96.0804 1.42411 -3.07416 0
M  V30 856 C 94.6394 1.93786 -3.22683 0
M  V30 857 C 93.7864 0.800438 -2.65496 0
M  V30 858 H 96.7374 -0.00980633 -1.58697 0
M  V30 859 H 96.7584 2.29309 -3.0364 0
M  V30 860 H 96.2704 0.64826 -3.82648 0
M  V30 861 H 94.3714 2.74152 -2.52332 0
M  V30 862 H 94.4844 2.1133 -4.29973 0
M  V30 863 H 92.8484 1.2095 -2.2415 0
M  V30 864 H 93.6314 0.0371471 -3.4328 0
M  V30 865 N 96.0765 1.50051 0.48192 0
M  V30 866 C 96.9865 1.7089 1.60728 0
M  V30 867 C 98.0025 0.591788 1.63627 0
M  V30 868 O 99.1785 0.868817 1.81696 0
M  V30 869 C 96.2435 1.78855 2.97005 0
M  V30 870 C 95.3045 3.02537 3.04581 0
M  V30 871 C 94.5375 3.10112 4.34357 0
M  V30 872 O 94.7605 2.24765 5.24249 0
M  V30 873 O 93.6945 4.02747 4.47301 0
M  V30 874 H 97.5205 2.66264 1.46072 0
M  V30 875 H 95.1055 1.34018 0.660264 0
M  V30 876 H 96.9875 1.86336 3.77964 0
M  V30 877 H 95.6625 0.866628 3.11883 0
M  V30 878 H 94.5695 3.00563 2.22739 0
M  V30 879 H 95.9025 3.94272 2.94636 0
M  V30 880 N 97.5546 -0.734337 1.39446 0
M  V30 881 C 98.4646 -1.87879 1.40495 0
M  V30 882 C 99.4806 -1.714 0.299672 0
M  V30 883 O 100.657 -1.93991 0.541249 0
M  V30 884 C 97.7216 -3.23477 1.24754 0
M  V30 885 C 96.7826 -3.52344 2.45259 0
M  V30 886 C 96.0156 -4.81473 2.30259 0
M  V30 887 O 96.2386 -5.55237 1.30643 0
M  V30 888 O 95.1726 -5.10254 3.19256 0
M  V30 889 H 98.9986 -1.89949 2.36966 0
M  V30 890 H 96.5836 -0.882243 1.20569 0
M  V30 891 H 98.4656 -4.04509 1.18111 0
M  V30 892 H 97.1406 -3.22176 0.313781 0
M  V30 893 H 96.0476 -2.71396 2.57478 0
M  V30 894 H 97.3806 -3.58426 3.37331 0
M  V30 895 N 99.0327 -1.24633 -0.964593 0
M  V30 896 C 99.9427 -1.05859 -2.09359 0
M  V30 897 C 100.959 0.00148855 -1.74 0
M  V30 898 O 102.135 -0.197346 -2.00431 0
M  V30 899 C 99.1997 -0.668879 -3.40187 0
M  V30 900 C 98.2607 -1.80578 -3.89474 0
M  V30 901 C 97.4937 -1.43457 -5.14058 0
M  V30 902 O 97.7167 -0.325775 -5.69469 0
M  V30 903 O 96.6507 -2.2613 -5.57807 0
M  V30 904 H 100.477 -2.00516 -2.28094 0
M  V30 905 H 98.0617 -1.03481 -1.0776 0
M  V30 906 H 99.9437 -0.463211 -4.18846 0
M  V30 907 H 98.6187 0.248536 -3.22744 0
M  V30 908 H 97.5257 -2.06623 -3.11862 0
M  V30 909 H 98.8587 -2.70208 -4.11398 0
M  V30 910 N 100.511 1.16574 -1.06058 0
M  V30 911 C 101.922 1.68662 -0.800632 0
M  V30 912 C 102.273 1.84184 0.67608 0
M  V30 913 O 101.398 1.53568 1.52466 0
M  V30 914 C 101.993 3.06356 -1.44676 0
M  V30 915 C 100.552 3.55575 -1.23465 0
M  V30 916 C 99.6988 2.31616 -1.52477 0
M  V30 917 H 102.65 1.00969 -1.22438 0
M  V30 918 H 102.671 3.70636 -0.860788 0
M  V30 919 H 102.183 2.95027 -2.52152 0
M  V30 920 H 100.284 3.72167 -0.179527 0
M  V30 921 H 100.397 4.37812 -1.94571 0
M  V30 922 H 98.7608 2.36512 -0.945209 0
M  V30 923 H 99.5438 2.22887 -2.61106 0
M  V30 924 N 101.989 0.842826 1.3317 0
M  V30 925 C 102.899 0.281444 2.32906 0
M  V30 926 C 103.915 -0.594587 1.63526 0
M  V30 927 O 105.091 -0.49777 1.95152 0
M  V30 928 C 102.156 -0.530929 3.42611 0
M  V30 929 C 101.217 0.369843 4.27704 0
M  V30 930 C 100.45 -0.403853 5.3217 0
M  V30 931 O 100.673 -1.63513 5.46461 0
M  V30 932 O 99.6069 0.224199 6.01482 0
M  V30 933 H 103.433 1.10744 2.82789 0
M  V30 934 H 101.018 0.60545 1.36582 0
M  V30 935 H 102.9 -0.992437 4.09547 0
M  V30 936 H 101.575 -1.33392 2.94938 0
M  V30 937 H 100.482 0.879275 3.6362 0
M  V30 938 H 101.815 1.13771 4.78871 0
M  V30 939 N 103.467 -1.45747 0.599634 0
M  V30 940 C 104.883 -1.57424 0.26264 0
M  V30 941 C 105.083 -1.59222 -1.23493 0
M  V30 942 O 104.139 -1.51825 -2.01756 0
M  V30 943 C 105.452 -2.86061 0.926795 0
M  V30 944 C 107 -2.99722 0.901967 0
M  V30 945 C 107.475 -4.31119 1.54598 0
M  V30 946 N 108.966 -4.37858 1.5111 0
M  V30 947 C 109.701 -5.3818 1.97863 0
M  V30 948 N 109.197 -6.45083 2.52666 0
M  V30 949 N 110.99 -5.29487 1.88679 0
M  V30 950 H 103.141 -1.42823 1.57211 0
M  V30 951 H 105.404 -0.68235 0.658105 0
M  V30 952 H 105.11 -2.90605 1.98095 0
M  V30 953 H 104.984 -3.74563 0.445238 0
M  V30 954 H 107.371 -2.9475 -0.143617 0
M  V30 955 H 107.452 -2.12652 1.42171 0
M  V30 956 H 107.096 -4.36849 2.59085 0
M  V30 957 H 107.026 -5.16992 1.00132 0
M  V30 958 H 109.517 -3.61209 1.11068 0
M  V30 959 H 109.83 -7.17869 2.86155 0
M  V30 960 H 108.175 -6.45856 2.56701 0
M  V30 961 H 111.366 -4.44877 1.4561 0
M  V30 962 H 111.539 -6.07524 2.25429 0
M  V30 963 N 104.945 -0.338344 -1.53925 0
M  V30 964 C 105.892 0.520845 -2.24846 0
M  V30 965 C 106.862 1.09976 -1.24477 0
M  V30 966 O 108.047 1.13735 -1.53196 0
M  V30 967 C 105.187 1.6685 -3.02084 0
M  V30 968 C 104.3 1.11739 -4.17299 0
M  V30 969 C 103.435 2.23193 -4.82036 0
M  V30 970 C 102.474 1.65407 -5.89328 0
M  V30 971 N 101.611 2.70582 -6.47866 0
M  V30 972 H 106.451 -0.0904881 -2.97863 0
M  V30 973 H 103.988 -0.0564282 -1.46992 0
M  V30 974 H 105.946 2.34407 -3.45122 0
M  V30 975 H 104.576 2.2509 -2.31375 0
M  V30 976 H 103.628 0.332919 -3.7894 0
M  V30 977 H 104.94 0.654677 -4.94485 0
M  V30 978 H 104.094 2.98626 -5.28117 0
M  V30 979 H 102.833 2.72807 -4.04262 0
M  V30 980 H 101.838 0.884779 -5.42634 0
M  V30 981 H 103.063 1.16652 -6.69006 0
M  V30 982 H 101.009 3.1946 -5.72959 0
M  V30 983 H 100.926 2.28917 -7.20509 0
M  V30 984 H 102.194 3.45799 -6.98601 0
M  V30 985 N 106.423 1.57458 -0.0668435 0
M  V30 986 C 107.839 1.56947 0.289772 0
M  V30 987 C 108.039 1.07584 1.70376 0
M  V30 988 O 107.095 0.739486 2.41429 0
M  V30 989 C 108.408 3.0052 0.103943 0
M  V30 990 C 109.956 3.12517 0.173857 0
M  V30 991 C 110.431 4.57997 0.0163682 0
M  V30 992 N 111.922 4.63144 0.0721352 0
M  V30 993 C 112.657 5.73394 -0.0253794 0
M  V30 994 N 112.153 6.92576 -0.176133 0
M  V30 995 N 113.946 5.62091 0.0313305 0
M  V30 996 H 106.097 1.87863 -0.991027 0
M  V30 997 H 108.36 0.86583 -0.38606 0
M  V30 998 H 108.066 3.40729 -0.871572 0
M  V30 999 H 107.94 3.67304 0.858366 0
M  V30 1000 H 110.327 2.72197 1.13985 0
M  V30 1001 H 110.408 2.48381 -0.611586 0
M  V30 1002 H 110.052 4.99005 -0.946374 0
M  V30 1003 H 109.982 5.20158 0.821153 0
M  V30 1004 H 112.473 3.77436 0.187263 0
M  V30 1005 H 112.786 7.72418 -0.242821 0
M  V30 1006 H 111.131 6.94678 -0.211429 0
M  V30 1007 H 114.322 4.67867 0.147773 0
M  V30 1008 H 114.495 6.47982 -0.048121 0
M  V30 1009 N 107.901 -0.206675 1.56239 0
M  V30 1010 C 108.848 -1.25617 1.93621 0
M  V30 1011 C 109.818 -1.45824 0.795274 0
M  V30 1012 O 111.003 -1.59148 1.05245 0
M  V30 1013 C 108.143 -2.59839 2.27107 0
M  V30 1014 C 107.256 -2.47308 3.54207 0
M  V30 1015 C 106.391 -3.74155 3.7707 0
M  V30 1016 C 105.43 -3.56407 4.97635 0
M  V30 1017 N 104.567 -4.75238 5.1681 0
M  V30 1018 H 109.407 -0.930383 2.83104 0
M  V30 1019 H 106.944 -0.448065 1.4011 0
M  V30 1020 H 108.902 -3.38021 2.44535 0
M  V30 1021 H 107.532 -2.90485 1.40778 0
M  V30 1022 H 106.584 -1.60483 3.4489 0
M  V30 1023 H 107.896 -2.30122 4.42544 0
M  V30 1024 H 107.05 -4.60778 3.94675 0
M  V30 1025 H 105.789 -3.94282 2.87042 0
M  V30 1026 H 104.794 -2.68168 4.79964 0
M  V30 1027 H 106.019 -3.37736 5.89161 0
M  V30 1028 H 103.965 -4.95651 4.29728 0
M  V30 1029 H 103.882 -4.60835 5.99306 0
M  V30 1030 H 105.15 -5.63246 5.38864 0
M  V30 1031 N 109.379 -1.50304 -0.473955 0
M  V30 1032 C 110.326 -1.68959 -1.57231 0
M  V30 1033 C 111.296 -0.530899 -1.57387 0
M  V30 1034 O 112.481 -0.761133 -1.74961 0
M  V30 1035 C 109.621 -1.7871 -2.95223 0
M  V30 1036 C 108.734 -3.06061 -3.04878 0
M  V30 1037 C 107.869 -3.06626 -4.33767 0
M  V30 1038 C 106.908 -4.28443 -4.37154 0
M  V30 1039 N 106.045 -4.26763 -5.5751 0
M  V30 1040 H 110.885 -2.6273 -1.40631 0
M  V30 1041 H 108.422 -1.30241 -0.683789 0
M  V30 1042 H 110.38 -1.82344 -3.75242 0
M  V30 1043 H 109.01 -0.883806 -3.10465 0
M  V30 1044 H 108.062 -3.11911 -2.17751 0
M  V30 1045 H 109.374 -3.96039 -3.0324 0
M  V30 1046 H 108.528 -3.08973 -5.22131 0
M  V30 1047 H 107.267 -2.14473 -4.3801 0
M  V30 1048 H 106.272 -4.2631 -3.47188 0
M  V30 1049 H 107.497 -5.2182 -4.34605 0
M  V30 1050 H 105.443 -3.37462 -5.62544 0
M  V30 1051 H 105.36 -5.10507 -5.57601 0
M  V30 1052 H 106.628 -4.33253 -6.48006 0
M  V30 1053 N 110.857 0.726932 -1.39834 0
M  V30 1054 C 112.105 1.4837 -1.37225 0
M  V30 1055 C 112.426 1.94979 0.0284857 0
M  V30 1056 O 111.696 1.69555 0.981213 0
M  V30 1057 H 110.276 0.55043 -0.505011 0
M  V30 1058 H 112.938 0.862468 -1.74778 0
M  V30 1059 H 112.034 2.36198 -2.04003 0
M  V30 1060 N 112.336 1.25143 0.95797 0
M  V30 1061 C 113.747 1.08851 1.51685 0
M  V30 1062 C 114.098 -0.33687 1.93286 0
M  V30 1063 O 113.223 -1.22644 1.7829 0
M  V30 1064 C 113.818 1.96978 2.75654 0
M  V30 1065 C 112.377 1.84881 3.27866 0
M  V30 1066 C 111.524 1.91329 2.0072 0
M  V30 1067 H 114.475 1.38478 0.77522 0
M  V30 1068 H 114.496 1.5078 3.4935 0
M  V30 1069 H 114.008 3.00712 2.45345 0
M  V30 1070 H 112.109 0.840182 3.63004 0
M  V30 1071 H 112.222 2.6951 3.96107 0
M  V30 1072 H 110.586 1.35174 2.15871 0
M  V30 1073 H 111.369 2.96661 1.72764 0
M  V30 1074 N 113.814 -1.1601 1.06675 0
M  V30 1075 C 114.777 -2.18724 0.685001 0
M  V30 1076 C 115.777 -1.58496 -0.271246 0
M  V30 1077 O 116.967 -1.74119 -0.0531156 0
M  V30 1078 C 114.099 -3.40899 0.00853648 0
M  V30 1079 H 115.292 -2.54011 1.59431 0
M  V30 1080 H 112.845 -1.30352 0.862441 0
M  V30 1081 H 113.58 -3.11173 -0.913337 0
M  V30 1082 H 113.365 -3.8587 0.696204 0
M  V30 1083 H 114.855 -4.16886 -0.24414 0
M  V30 1084 N 115.292 -0.849877 -1.32721 0
M  V30 1085 C 116.703 -0.506188 -1.79707 0
M  V30 1086 C 117.054 0.975627 -1.70223 0
M  V30 1087 O 116.179 1.76078 -1.25799 0
M  V30 1088 C 116.774 -0.912044 -3.26293 0
M  V30 1089 C 115.333 -0.620326 -3.71253 0
M  V30 1090 C 114.48 -1.11439 -2.53922 0
M  V30 1091 H 117.431 -1.03754 -1.20087 0
M  V30 1092 H 117.452 -0.226493 -3.79825 0
M  V30 1093 H 116.964 -1.99057 -3.33164 0
M  V30 1094 H 115.065 0.447674 -3.69901 0
M  V30 1095 H 115.178 -1.18327 -4.64258 0
M  V30 1096 H 113.542 -0.534834 -2.49021 0
M  V30 1097 H 114.325 -2.19992 -2.6355 0
M  V30 1098 N 116.77 1.45427 -0.607355 0
M  V30 1099 C 117.717 2.3053 0.111625 0
M  V30 1100 C 118.687 1.4209 0.860216 0
M  V30 1101 O 119.872 1.71019 0.845998 0
M  V30 1102 C 117.012 3.26992 1.10319 0
M  V30 1103 C 116.125 4.30535 0.355493 0
M  V30 1104 C 115.26 5.14105 1.33676 0
M  V30 1105 C 114.299 6.09376 0.576862 0
M  V30 1106 N 113.436 6.85727 1.5074 0
M  V30 1107 H 118.276 2.91477 -0.620093 0
M  V30 1108 H 115.813 1.43631 -0.317594 0
M  V30 1109 H 117.771 3.81385 1.6912 0
M  V30 1110 H 116.401 2.67799 1.80232 0
M  V30 1111 H 115.453 3.78805 -0.348023 0
M  V30 1112 H 116.765 4.98235 -0.237423 0
M  V30 1113 H 115.919 5.72897 1.99684 0
M  V30 1114 H 114.658 4.46423 1.9636 0
M  V30 1115 H 113.663 5.49715 -0.0968519 0
M  V30 1116 H 114.888 6.79085 -0.0449341 0
M  V30 1117 H 112.834 6.20735 2.12189 0
M  V30 1118 H 112.751 7.49778 0.967913 0
M  V30 1119 H 114.019 7.4906 2.15706 0
M  V30 1120 N 118.248 0.346503 1.53744 0
M  V30 1121 C 119.181 -0.552023 2.21423 0
M  V30 1122 C 120.159 -1.09798 1.19929 0
M  V30 1123 O 121.343 -1.1577 1.4876 0
M  V30 1124 C 118.47 -1.75972 2.89398 0
M  V30 1125 C 117.516 -1.34295 4.04805 0
M  V30 1126 S 118.349 -0.360263 5.34287 0
M  V30 1127 C 119.505 -1.57473 6.05767 0
M  V30 1128 H 119.738 0.0228119 2.97291 0
M  V30 1129 H 117.271 0.130579 1.53847 0
M  V30 1130 H 119.229 -2.45256 3.2918 0
M  V30 1131 H 117.89 -2.30578 2.1329 0
M  V30 1132 H 117.083 -2.24349 4.51313 0
M  V30 1133 H 116.685 -0.729555 3.66815 0
M  V30 1134 H 118.977 -2.50875 6.29339 0
M  V30 1135 H 119.92 -1.15138 6.98676 0
M  V30 1136 H 120.328 -1.77212 5.35963 0
M  V30 1137 N 119.726 -1.57421 0.075193 0
M  V30 1138 C 120.656 -2.15942 -0.888324 0
M  V30 1139 C 121.637 -1.08737 -1.30806 0
M  V30 1140 O 122.822 -1.36787 -1.37851 0
M  V30 1141 C 119.952 -2.72379 -2.1547 0
M  V30 1142 C 118.906 -3.8478 -1.87425 0
M  V30 1143 C 118.232 -4.27834 -3.20721 0
M  V30 1144 C 119.532 -5.08869 -1.17684 0
M  V30 1145 H 121.226 -2.96705 -0.400799 0
M  V30 1146 H 118.772 -1.42723 -0.191342 0
M  V30 1147 H 120.725 -3.11965 -2.83295 0
M  V30 1148 H 119.449 -1.88841 -2.6647 0
M  V30 1149 H 118.108 -3.45703 -1.22004 0
M  V30 1150 H 117.756 -3.41214 -3.6957 0
M  V30 1151 H 117.456 -5.03605 -3.02746 0
M  V30 1152 H 118.98 -4.70039 -3.89738 0
M  V30 1153 H 120.394 -5.4575 -1.75584 0
M  V30 1154 H 118.791 -5.8994 -1.09956 0
M  V30 1155 H 119.861 -4.84648 -0.156453 0
M  V30 1156 N 121.204 0.198386 -1.56346 0
M  V30 1157 C 122.452 0.91747 -1.80075 0
M  V30 1158 C 122.773 1.83929 -0.647692 0
M  V30 1159 O 122.043 1.93029 0.334166 0
M  V30 1160 H 120.623 0.341774 -0.664228 0
M  V30 1161 H 123.285 0.204684 -1.93822 0
M  V30 1162 H 122.381 1.51055 -2.7311 0
M  V30 1163 N 122.682 1.50554 0.465978 0
M  V30 1164 C 123.632 1.66177 1.56106 0
M  V30 1165 C 124.616 0.516265 1.52393 0
M  V30 1166 O 125.808 0.770906 1.5933 0
M  V30 1167 C 122.937 1.76396 2.94515 0
M  V30 1168 C 122.023 2.9664 3.03093 0
M  V30 1169 N 122.414 4.20245 2.81474 0
M  V30 1170 C 120.712 2.95304 3.34233 0
M  V30 1171 C 121.413 5.01259 2.95151 0
M  V30 1172 N 120.389 4.35318 3.25576 0
M  V30 1173 H 124.191 2.59434 1.38099 0
M  V30 1174 H 121.705 1.47808 0.6728 0
M  V30 1175 H 123.702 1.85694 3.73261 0
M  V30 1176 H 122.362 0.843017 3.13565 0
M  V30 1177 H 123.373 4.4966 2.56956 0
M  V30 1178 H 120.05 2.12729 3.59239 0
M  V30 1179 H 121.44 6.09564 2.82632 0
M  V30 1180 N 124.16 -0.719506 1.40217 0
M  V30 1181 C 125.07 -1.86378 1.42479 0
M  V30 1182 C 126.086 -1.71073 0.317834 0
M  V30 1183 O 127.262 -1.93406 0.561794 0
M  V30 1184 C 124.327 -3.22136 1.28178 0
M  V30 1185 C 123.388 -3.49723 2.48982 0
M  V30 1186 C 122.621 -4.79004 2.35353 0
M  V30 1187 O 122.844 -5.53821 1.36524 0
M  V30 1188 O 121.778 -5.06839 3.2465 0
M  V30 1189 H 125.604 -1.87425 2.38968 0
M  V30 1190 H 123.189 -0.869405 1.21498 0
M  V30 1191 H 125.071 -4.03234 1.22395 0
M  V30 1192 H 123.746 -3.21825 0.347934 0
M  V30 1193 H 122.653 -2.6865 2.60342 0
M  V30 1194 H 123.986 -3.54828 3.41113 0
M  V30 1195 N 125.638 -1.25649 -0.95132 0
M  V30 1196 C 126.568 -1.08808 -2.06599 0
M  V30 1197 C 127.549 0.00382547 -1.701 0
M  V30 1198 O 128.734 -0.166325 -1.93486 0
M  V30 1199 C 125.864 -0.709542 -3.39975 0
M  V30 1200 C 124.818 -1.75206 -3.90496 0
M  V30 1201 C 124.144 -1.22811 -5.20405 0
M  V30 1202 C 125.444 -3.15153 -4.16504 0
M  V30 1203 H 127.138 -2.02048 -2.20946 0
M  V30 1204 H 124.684 -0.972835 -1.06169 0
M  V30 1205 H 126.637 -0.578649 -4.17408 0
M  V30 1206 H 125.361 0.258556 -3.25575 0
M  V30 1207 H 124.02 -1.87145 -3.15234 0
M  V30 1208 H 123.668 -0.250145 -5.02378 0
M  V30 1209 H 123.368 -1.92492 -5.55176 0
M  V30 1210 H 124.892 -1.10968 -6.00432 0
M  V30 1211 H 126.306 -3.06349 -4.84586 0
M  V30 1212 H 124.703 -3.82333 -4.62538 0
M  V30 1213 H 125.773 -3.61966 -3.22658 0
M  V30 1214 N 127.117 1.15442 -1.07289 0
M  V30 1215 C 128.357 1.8788 -0.805012 0
M  V30 1216 C 128.721 1.80413 0.656907 0
M  V30 1217 O 129.922 2.47874 1.0398 0
M  V30 1218 C 128.193 3.3298 -1.29843 0
M  V30 1219 S 129.752 4.23158 -1.16114 0
M  V30 1220 H 126.57 0.64839 -0.291739 0
M  V30 1221 H 129.172 1.39285 -1.37186 0
M  V30 1222 H 127.876 3.35958 -2.35712 0
M  V30 1223 H 127.407 3.86629 -0.726767 0
M  V30 1224 H 129.422 4.96103 -0.0982778 0
M  V30 1225 N 128.595 0.856903 1.32268 0
M  V30 1226 C 130.011 0.547061 1.49931 0
M  V30 1227 C 130.211 -0.921781 1.7918 0
M  V30 1228 O 129.267 -1.70469 1.8627 0
M  V30 1229 C 130.58 1.43599 2.64196 0
M  V30 1230 C 132.128 1.43665 2.78081 0
M  V30 1231 C 132.603 2.31085 3.95428 0
M  V30 1232 N 134.094 2.28893 4.02694 0
M  V30 1233 C 134.829 2.93262 4.92732 0
M  V30 1234 N 134.325 3.66751 5.87763 0
M  V30 1235 N 136.118 2.82638 4.85873 0
M  V30 1236 H 128.269 1.8075 1.11549 0
M  V30 1237 H 130.532 0.772144 0.549997 0
M  V30 1238 H 130.238 2.48058 2.49319 0
M  V30 1239 H 130.112 1.12502 3.60032 0
M  V30 1240 H 132.499 0.399701 2.92381 0
M  V30 1241 H 132.58 1.7878 1.82952 0
M  V30 1242 H 132.224 3.34849 3.81888 0
M  V30 1243 H 132.154 1.93302 4.89839 0
M  V30 1244 H 134.645 1.75466 3.34694 0
M  V30 1245 H 134.958 4.13027 6.53168 0
M  V30 1246 H 133.303 3.70859 5.87783 0
M  V30 1247 H 136.494 2.24774 4.10602 0
M  V30 1248 H 136.667 3.33084 5.55841 0
M  V30 1249 N 130.073 -1.45103 0.615059 0
M  V30 1250 C 131.319 -2.02483 0.113347 0
M  V30 1251 C 131.652 -1.48146 -1.25564 0
M  V30 1252 O 130.927 -0.659104 -1.82992 0
M  V30 1253 C 131.21 -3.60005 0.0825278 0
M  V30 1254 C 131.063 -4.2466 1.48271 0
M  V30 1255 C 132.382 -4.35972 -0.601401 0
M  V30 1256 H 129.501 -0.735764 0.0426632 0
M  V30 1257 H 132.143 -1.72868 0.788461 0
M  V30 1258 H 130.293 -3.85367 -0.492378 0
M  V30 1259 H 131.965 -4.10458 2.10527 0
M  V30 1260 H 130.208 -3.82772 2.04127 0
M  V30 1261 H 130.879 -5.336 1.41332 0
M  V30 1262 H 133.355 -4.15947 -0.112666 0
M  V30 1263 H 132.231 -5.45697 -0.592097 0
M  V30 1264 H 132.492 -4.09391 -1.66887 0
M  V30 1265 N 131.551 -0.354651 -1.53558 0
M  V30 1266 C 132.791 0.238651 -2.03002 0
M  V30 1267 C 133.155 1.46878 -1.23656 0
M  V30 1268 O 134.356 2.13699 -1.63053 0
M  V30 1269 C 132.627 0.534175 -3.53386 0
M  V30 1270 S 134.186 1.10271 -4.24719 0
M  V30 1271 H 131.004 0.0702908 -0.707517 0
M  V30 1272 H 133.606 -0.494987 -1.8913 0
M  V30 1273 H 132.31 -0.368765 -4.0874 0
M  V30 1274 H 131.841 1.29718 -3.71398 0
M  V30 1275 H 133.856 2.38772 -4.34974 0
M  V30 1276 N 133.029 1.57378 -0.0835403 0
M  V30 1277 C 134.277 1.93547 0.581718 0
M  V30 1278 C 134.598 0.96524 1.69435 0
M  V30 1279 O 133.868 0.0153369 1.95894 0
M  V30 1280 H 132.448 0.714521 0.217874 0
M  V30 1281 H 135.11 1.94366 -0.144158 0
M  V30 1282 H 134.206 2.95665 0.999423 0
M  V30 1283 N 134.507 -0.190092 1.56449 0
M  V30 1284 C 135.784 -0.935886 1.71757 0
M  V30 1285 C 136.164 -2.01173 0.639726 0
M  V30 1286 O 135.512 -2.25827 -0.348502 0
M  V30 1287 C 135.722 -1.51775 3.1427 0
M  V30 1288 C 137.07 -1.99794 3.74656 0
M  V30 1289 O 138.094 -1.61607 3.1743 0
M  V30 1290 O 136.953 -2.70079 4.751 0
M  V30 1291 H 134.047 -0.439229 0.700719 0
M  V30 1292 H 136.593 -0.179395 1.68749 0
M  V30 1293 H 135.365 -0.742505 3.84191 0
M  V30 1294 H 134.988 -2.33894 3.21527 0
M  V30 1295 N 135.985 -1.50799 -0.457987 0
M  V30 1296 C 136.932 -1.70617 -1.5543 0
M  V30 1297 C 137.902 -0.547562 -1.56815 0
M  V30 1298 O 139.087 -0.779647 -1.74144 0
M  V30 1299 C 136.227 -1.81831 -2.93311 0
M  V30 1300 C 135.34 -3.09278 -3.01615 0
M  V30 1301 C 134.475 -3.11209 -4.30491 0
M  V30 1302 C 133.514 -4.33055 -4.32585 0
M  V30 1303 N 132.651 -4.32652 -5.52952 0
M  V30 1304 H 137.491 -2.64207 -1.37836 0
M  V30 1305 H 135.028 -1.30959 -0.669937 0
M  V30 1306 H 136.986 -1.86314 -3.73287 0
M  V30 1307 H 135.616 -0.916685 -3.0951 0
M  V30 1308 H 134.668 -3.14203 -2.1443 0
M  V30 1309 H 135.98 -3.99233 -2.99022 0
M  V30 1310 H 135.134 -3.14494 -5.18824 0
M  V30 1311 H 133.873 -2.19106 -4.35711 0
M  V30 1312 H 132.878 -4.29969 -3.42647 0
M  V30 1313 H 134.103 -5.264 -4.29046 0
M  V30 1314 H 132.049 -3.43409 -5.58933 0
M  V30 1315 H 131.966 -5.16392 -5.52155 0
M  V30 1316 H 133.234 -4.40101 -6.43375 0
M  V30 1317 N 137.463 0.71206 -1.40597 0
M  V30 1318 C 138.426 1.80785 -1.40888 0
M  V30 1319 C 139.426 1.57937 -0.302103 0
M  V30 1320 O 140.616 1.64913 -0.561182 0
M  V30 1321 C 137.748 3.18927 -1.20409 0
M  V30 1322 H 138.941 1.81924 -2.38419 0
M  V30 1323 H 136.494 0.91805 -1.26497 0
M  V30 1324 H 137.229 3.23436 -0.236522 0
M  V30 1325 H 137.014 3.36911 -2.00582 0
M  V30 1326 H 138.504 3.98949 -1.23408 0
M  V30 1327 N 138.941 1.26152 0.944643 0
M  V30 1328 C 140.166 1.14363 1.7302 0
M  V30 1329 C 140.591 -0.29772 1.85729 0
M  V30 1330 O 139.949 -1.2157 1.34501 0
M  V30 1331 C 139.997 1.81378 3.11664 0
M  V30 1332 O 139.101 1.10022 3.97453 0
M  V30 1333 H 138.442 0.398694 0.53098 0
M  V30 1334 H 140.972 1.66906 1.18337 0
M  V30 1335 H 140.982 1.88064 3.62072 0
M  V30 1336 H 139.657 2.86237 3.0173 0
M  V30 1337 H 138.234 1.11287 3.55907 0
M  V30 1338 N 140.419 -1.14872 1.07899 0
M  V30 1339 C 141.667 -1.85422 0.803941 0
M  V30 1340 C 141.988 -1.83051 -0.67211 0
M  V30 1341 O 141.258 -1.27532 -1.48703 0
M  V30 1342 H 139.838 -0.686537 0.294408 0
M  V30 1343 H 142.5 -1.39226 1.3639 0
M  V30 1344 H 141.596 -2.90399 1.14346 0
M  V30 1345 N 141.898 -0.863906 -1.31812 0
M  V30 1346 C 143.145 -0.471836 -1.96926 0
M  V30 1347 C 143.473 0.974578 -1.68322 0
M  V30 1348 O 142.728 1.7003 -0.968933 0
M  V30 1349 C 143.027 -0.668547 -3.51091 0
M  V30 1350 C 142.693 -2.08683 -3.99703 0
M  V30 1351 C 141.355 -2.47471 -4.12688 0
M  V30 1352 C 143.707 -3.01207 -4.25351 0
M  V30 1353 C 141.035 -3.78037 -4.4867 0
M  V30 1354 C 143.387 -4.31282 -4.62794 0
M  V30 1355 C 142.051 -4.69992 -4.73987 0
M  V30 1356 H 141.321 -0.172657 -0.720604 0
M  V30 1357 H 143.968 -1.09573 -1.57054 0
M  V30 1358 H 142.273 0.0385252 -3.91781 0
M  V30 1359 H 143.97 -0.345102 -3.99512 0
M  V30 1360 H 140.56 -1.77566 -3.90087 0
M  V30 1361 H 144.744 -2.72469 -4.14819 0
M  V30 1362 H 140 -4.078 -4.55532 0
M  V30 1363 H 144.174 -5.03031 -4.81594 0
M  V30 1364 H 141.801 -5.71207 -5.01624 0
M  V30 1365 N 143.376 1.44774 -0.622745 0
M  V30 1366 C 144.326 2.2774 0.108889 0
M  V30 1367 C 145.31 1.38189 0.824175 0
M  V30 1368 O 146.502 1.62063 0.711664 0
M  V30 1369 C 143.631 3.25353 1.09546 0
M  V30 1370 C 142.717 4.22392 0.380232 0
M  V30 1371 N 143.108 5.02388 -0.586535 0
M  V30 1372 C 141.406 4.41588 0.625792 0
M  V30 1373 C 142.107 5.72894 -1.00834 0
M  V30 1374 N 141.083 5.42479 -0.348878 0
M  V30 1375 H 144.885 2.86993 -0.63341 0
M  V30 1376 H 142.399 1.5611 -0.447589 0
M  V30 1377 H 144.396 3.83538 1.63414 0
M  V30 1378 H 143.056 2.6766 1.83815 0
M  V30 1379 H 144.067 5.0885 -0.963975 0
M  V30 1380 H 140.744 3.95003 1.352 0
M  V30 1381 H 142.134 6.47158 -1.80656 0
M  V30 1382 N 144.854 0.36279 1.53368 0
M  V30 1383 C 146.084 -0.228281 2.05335 0
M  V30 1384 C 146.492 -1.43226 1.23625 0
M  V30 1385 O 145.835 -1.81717 0.269206 0
M  V30 1386 C 145.897 -0.688549 3.52845 0
M  V30 1387 C 145.561 0.398362 4.5526 0
M  V30 1388 C 146.558 1.24732 5.04716 0
M  V30 1389 C 144.243 0.557805 4.99193 0
M  V30 1390 C 146.237 2.2411 5.96702 0
M  V30 1391 C 143.924 1.55495 5.90986 0
M  V30 1392 C 144.922 2.39503 6.39631 0
M  V30 1393 O 144.61 3.37517 7.29615 0
M  V30 1394 H 144.342 -0.044395 0.674541 0
M  V30 1395 H 146.896 0.518668 1.98744 0
M  V30 1396 H 145.126 -1.48706 3.56964 0
M  V30 1397 H 146.815 -1.20231 3.87685 0
M  V30 1398 H 147.581 1.13532 4.71525 0
M  V30 1399 H 143.46 -0.0862959 4.60919 0
M  V30 1400 H 147.004 2.89718 6.34594 0
M  V30 1401 H 142.901 1.66744 6.23592 0
M  V30 1402 H 143.669 3.33213 7.47604 0
M  V30 1403 N 146.332 -1.57332 0.0918853 0
M  V30 1404 C 147.28 -2.15075 -0.885747 0
M  V30 1405 C 148.274 -1.09277 -1.29441 0
M  V30 1406 O 149.48 -1.27627 -1.26931 0
M  V30 1407 H 145.855 -0.687966 -0.303656 0
M  V30 1408 H 147.826 -2.96047 -0.373995 0
M  V30 1409 C 146.575 -2.74325 -2.13638 0
M  V30 1410 H 145.898 -3.55418 -1.8308 0
M  V30 1411 H 147.338 -3.183 -2.80109 0
M  V30 1412 C 145.797 -1.70062 -2.90827 0
M  V30 1413 O 146.327 -1.13763 -3.85254 0
M  V30 1414 N 144.533 -1.40628 -2.54307 0
M  V30 1415 H 144.08 -1.866 -1.7759 0
M  V30 1416 H 144.038 -0.711043 -3.06254 0
M  V30 1417 N 147.81 0.181792 -1.56548 0
M  V30 1418 C 149.056 0.901431 -1.81665 0
M  V30 1419 C 149.389 1.82347 -0.668075 0
M  V30 1420 O 148.664 1.91669 0.330615 0
M  V30 1421 C 148.947 1.70618 -3.17115 0
M  V30 1422 C 148.8 0.807964 -4.42484 0
M  V30 1423 C 150.119 2.67605 -3.49393 0
M  V30 1424 H 147.238 0.32627 -0.660846 0
M  V30 1425 H 149.88 0.168134 -1.89255 0
M  V30 1426 H 148.03 2.33133 -3.10775 0
M  V30 1427 H 149.702 0.19649 -4.60881 0
M  V30 1428 H 147.945 0.115411 -4.33646 0
M  V30 1429 H 148.616 1.40632 -5.33785 0
M  V30 1430 H 151.092 2.15218 -3.56118 0
M  V30 1431 H 149.968 3.20985 -4.45264 0
M  V30 1432 H 150.229 3.47298 -2.73563 0
M  V30 1433 N 149.288 1.51039 0.449983 0
M  V30 1434 C 150.218 1.74379 1.55288 0
M  V30 1435 C 151.199 0.593236 1.5942 0
M  V30 1436 O 152.384 0.834625 1.7535 0
M  V30 1437 C 149.514 1.85728 2.93466 0
M  V30 1438 C 148.468 3.01078 3.04197 0
M  V30 1439 C 147.794 2.97595 4.44231 0
M  V30 1440 C 149.094 4.41254 2.7945 0
M  V30 1441 H 150.788 2.66725 1.36008 0
M  V30 1442 H 148.334 1.2835 0.652864 0
M  V30 1443 H 150.287 2.0064 3.70569 0
M  V30 1444 H 149.011 0.900207 3.13949 0
M  V30 1445 H 147.67 2.85851 2.29531 0
M  V30 1446 H 147.318 1.99691 4.61663 0
M  V30 1447 H 147.018 3.75046 4.52343 0
M  V30 1448 H 148.542 3.14583 5.23326 0
M  V30 1449 H 149.956 4.56897 3.46292 0
M  V30 1450 H 148.353 5.20315 2.98985 0
M  V30 1451 H 149.423 4.52164 1.75144 0
M  V30 1452 N 150.766 -0.704594 1.40972 0
M  V30 1453 C 151.991 -1.49858 1.43378 0
M  V30 1454 C 152.416 -1.88061 0.038184 0
M  V30 1455 O 151.774 -1.5402 -0.956425 0
M  V30 1456 C 151.822 -2.74333 2.34038 0
M  V30 1457 O 150.926 -3.7147 1.7912 0
M  V30 1458 H 150.267 -0.45139 0.486974 0
M  V30 1459 H 152.797 -0.866832 1.8533 0
M  V30 1460 H 152.807 -3.22741 2.49604 0
M  V30 1461 H 151.482 -2.45863 3.35446 0
M  V30 1462 H 150.059 -3.30363 1.72958 0
M  V30 1463 N 152.244 -1.26651 -0.937939 0
M  V30 1464 C 153.484 -1.13611 -1.69917 0
M  V30 1465 C 153.848 0.314687 -1.89404 0
M  V30 1466 O 155.049 0.567285 -2.62746 0
M  V30 1467 C 153.32 -1.88742 -3.03498 0
M  V30 1468 S 154.879 -1.91794 -3.94665 0
M  V30 1469 H 151.697 -0.405767 -0.583844 0
M  V30 1470 H 154.299 -1.60416 -1.11745 0
M  V30 1471 H 153.003 -2.9336 -2.86999 0
M  V30 1472 H 152.534 -1.42391 -3.66727 0
M  V30 1473 H 154.549 -1.00698 -4.85875 0
M  V30 1474 N 153.722 1.14298 -1.08507 0
M  V30 1475 C 154.632 2.23027 -0.727753 0
M  V30 1476 C 155.648 1.71952 0.26619 0
M  V30 1477 O 156.824 2.011 0.109882 0
M  V30 1478 C 153.889 3.46403 -0.143541 0
M  V30 1479 C 152.95 4.12413 -1.19223 0
M  V30 1480 C 152.183 5.29899 -0.635798 0
M  V30 1481 O 152.406 5.67796 0.544393 0
M  V30 1482 O 151.34 5.85717 -1.38634 0
M  V30 1483 H 155.166 2.55945 -1.63481 0
M  V30 1484 H 152.751 1.22248 -0.858817 0
M  V30 1485 H 154.633 4.21018 0.179404 0
M  V30 1486 H 153.308 3.15206 0.736659 0
M  V30 1487 H 152.215 3.39667 -1.56772 0
M  V30 1488 H 153.548 4.47718 -2.04474 0
M  V30 1489 N 155.201 0.870884 1.31352 0
M  V30 1490 C 156.449 0.48132 1.96285 0
M  V30 1491 C 156.77 -0.969813 1.69173 0
M  V30 1492 O 156.04 -1.67998 1.00764 0
M  V30 1493 H 154.62 0.175002 0.726212 0
M  V30 1494 H 157.282 1.11087 1.60143 0
M  V30 1495 H 156.378 0.639825 3.05471 0
M  V30 1496 N 156.679 -1.44442 0.630414 0
M  V30 1497 C 157.919 -2.03934 0.137919 0
M  V30 1498 C 158.283 -1.48509 -1.21692 0
M  V30 1499 O 159.484 -1.99499 -1.80149 0
M  V30 1500 C 157.755 -3.57187 0.123373 0
M  V30 1501 S 159.314 -4.37741 -0.304604 0
M  V30 1502 H 156.132 -0.708401 0.0607353 0
M  V30 1503 H 158.734 -1.76835 0.833643 0
M  V30 1504 H 157.438 -3.95032 1.11256 0
M  V30 1505 H 156.969 -3.88895 -0.59362 0
M  V30 1506 H 158.984 -4.71403 -1.54897 0
M  V30 1507 N 158.157 -0.370918 -1.53173 0
M  V30 1508 C 159.104 0.473035 -2.259 0
M  V30 1509 C 160.074 1.07311 -1.26781 0
M  V30 1510 O 161.259 1.1046 -1.55574 0
M  V30 1511 C 158.399 1.60405 -3.05556 0
M  V30 1512 C 157.512 1.02863 -4.19575 0
M  V30 1513 C 156.647 2.12918 -4.86661 0
M  V30 1514 C 155.686 1.52869 -5.92704 0
M  V30 1515 N 154.823 2.56779 -6.53459 0
M  V30 1516 H 159.663 -0.153649 -2.97604 0
M  V30 1517 H 157.2 -0.0875946 -1.46839 0
M  V30 1518 H 159.158 2.27034 -3.50016 0
M  V30 1519 H 157.788 2.20131 -2.36097 0
M  V30 1520 H 156.84 0.252465 -3.79561 0
M  V30 1521 H 158.152 0.549642 -4.95762 0
M  V30 1522 H 157.306 2.87356 -5.34333 0
M  V30 1523 H 156.045 2.6417 -4.09958 0
M  V30 1524 H 155.05 0.769479 -5.44389 0
M  V30 1525 H 156.275 1.02435 -6.7133 0
M  V30 1526 H 154.221 3.07235 -5.79606 0
M  V30 1527 H 154.138 2.13583 -7.25202 0
M  V30 1528 H 155.406 3.30903 -7.05779 0
M  V30 1529 N 159.635 1.57281 -0.100228 0
M  V30 1530 C 160.883 1.94153 0.561157 0
M  V30 1531 C 161.204 0.983157 1.68401 0
M  V30 1532 O 160.474 0.0361132 1.95867 0
M  V30 1533 H 159.054 0.716791 0.210283 0
M  V30 1534 H 161.716 1.94202 -0.164765 0
M  V30 1535 H 160.812 2.96709 0.968008 0
M  V30 1536 N 161.113 -0.173488 1.56642 0
M  V30 1537 C 162.36 -0.890465 1.81871 0
M  V30 1538 C 162.688 -1.82339 0.67696 0
M  V30 1539 O 161.943 -1.92795 -0.335926 0
M  V30 1540 C 162.242 -1.72069 3.13252 0
M  V30 1541 C 161.908 -0.936878 4.41059 0
M  V30 1542 C 160.57 -0.720545 4.75775 0
M  V30 1543 C 162.922 -0.386919 5.19762 0
M  V30 1544 C 160.25 0.0568829 5.86672 0
M  V30 1545 C 162.602 0.37741 6.31473 0
M  V30 1546 C 161.266 0.604563 6.64757 0
M  V30 1547 H 160.536 -0.325844 0.665512 0
M  V30 1548 H 163.183 -0.155527 1.90867 0
M  V30 1549 H 161.488 -2.52496 2.99588 0
M  V30 1550 H 163.185 -2.27844 3.29982 0
M  V30 1551 H 159.775 -1.11553 4.13828 0
M  V30 1552 H 163.959 -0.541398 4.93338 0
M  V30 1553 H 159.215 0.242635 6.10918 0
M  V30 1554 H 163.389 0.810825 6.91664 0
M  V30 1555 H 161.016 1.20885 7.50527 0
M  V30 1556 N 162.591 -1.51276 -0.441967 0
M  V30 1557 C 163.838 -1.63715 -1.19179 0
M  V30 1558 C 164.166 -0.351175 -1.91303 0
M  V30 1559 O 163.421 0.664524 -1.84072 0
M  V30 1560 C 163.72 -2.78746 -2.23686 0
M  V30 1561 C 163.386 -4.18189 -1.68607 0
M  V30 1562 C 162.048 -4.56125 -1.53308 0
M  V30 1563 C 164.4 -5.05222 -1.28062 0
M  V30 1564 C 161.728 -5.78804 -0.959317 0
M  V30 1565 C 164.08 -6.28476 -0.721162 0
M  V30 1566 C 162.744 -6.65188 -0.55504 0
M  V30 1567 H 162.014 -0.599076 -0.436106 0
M  V30 1568 H 164.661 -1.85296 -0.48351 0
M  V30 1569 H 162.966 -2.51369 -3.00535 0
M  V30 1570 H 164.663 -2.8557 -2.81515 0
M  V30 1571 H 161.253 -3.88277 -1.8149 0
M  V30 1572 H 165.437 -4.76524 -1.38704 0
M  V30 1573 H 160.693 -6.05899 -0.81833 0
M  V30 1574 H 164.867 -6.95259 -0.398458 0
M  V30 1575 H 162.494 -7.60123 -0.108311 0
M  V30 1576 N 164.069 0.697108 -1.41344 0
M  V30 1577 C 165.485 1.00751 -1.2378 0
M  V30 1578 C 165.685 2.01105 -0.126066 0
M  V30 1579 O 164.741 2.47295 0.51004 0
M  V30 1580 C 166.054 1.53359 -2.58653 0
M  V30 1581 C 167.602 1.6525 -2.65822 0
M  V30 1582 C 168.077 2.2126 -4.01009 0
M  V30 1583 N 169.568 2.28622 -4.02847 0
M  V30 1584 C 170.303 2.72984 -5.04249 0
M  V30 1585 N 169.799 3.16962 -6.16041 0
M  V30 1586 N 171.592 2.72534 -4.91611 0
M  V30 1587 H 163.743 0.0322662 -2.12375 0
M  V30 1588 H 166.006 0.0768853 -0.944877 0
M  V30 1589 H 165.712 0.870773 -3.4075 0
M  V30 1590 H 165.586 2.51597 -2.81032 0
M  V30 1591 H 167.973 2.30644 -1.84086 0
M  V30 1592 H 168.054 0.655614 -2.47256 0
M  V30 1593 H 167.698 1.56482 -4.83193 0
M  V30 1594 H 167.628 3.21698 -4.16915 0
M  V30 1595 H 170.119 1.97585 -3.22131 0
M  V30 1596 H 170.432 3.49434 -6.89287 0
M  V30 1597 H 168.777 3.14875 -6.1958 0
M  V30 1598 H 171.968 2.37525 -4.0336 0
M  V30 1599 H 172.141 3.06789 -5.70775 0
M  V30 1600 N 165.547 1.27147 0.931209 0
M  V30 1601 C 166.963 1.04475 1.20653 0
M  V30 1602 C 167.163 -0.223885 2.00252 0
M  V30 1603 O 166.219 -0.930332 2.34736 0
M  V30 1604 C 167.532 2.28209 1.95809 0
M  V30 1605 C 169.08 2.33211 2.08762 0
M  V30 1606 C 169.555 3.56665 2.87323 0
M  V30 1607 N 171.046 3.57201 2.94892 0
M  V30 1608 C 171.781 4.49395 3.56134 0
M  V30 1609 N 171.277 5.51889 4.18796 0
M  V30 1610 N 173.07 4.37026 3.53504 0
M  V30 1611 H 165.221 2.08612 0.399333 0
M  V30 1612 H 167.484 0.917312 0.239253 0
M  V30 1613 H 167.19 3.20538 1.44736 0
M  V30 1614 H 167.064 2.33247 2.96438 0
M  V30 1615 H 169.451 1.41391 2.59023 0
M  V30 1616 H 169.532 2.32178 1.07364 0
M  V30 1617 H 169.176 4.4882 2.37746 0
M  V30 1618 H 169.106 3.54948 3.88998 0
M  V30 1619 H 171.597 2.83074 2.50354 0
M  V30 1620 H 171.91 6.18409 4.63454 0
M  V30 1621 H 170.255 5.55735 4.17353 0
M  V30 1622 H 173.446 3.56166 3.03749 0
M  V30 1623 H 173.619 5.09067 4.00942 0
M  V30 1624 N 167.025 -1.13721 1.09112 0
M  V30 1625 C 168.25 -1.89314 0.847053 0
M  V30 1626 C 168.675 -1.78416 -0.595774 0
M  V30 1627 O 168.033 -1.12942 -1.41823 0
M  V30 1628 C 168.081 -3.3701 1.28284 0
M  V30 1629 O 167.185 -4.10054 0.439267 0
M  V30 1630 H 166.526 -0.588745 0.307044 0
M  V30 1631 H 169.056 -1.43902 1.45442 0
M  V30 1632 H 169.066 -3.87834 1.26683 0
M  V30 1633 H 167.741 -3.4426 2.33363 0
M  V30 1634 H 166.318 -3.69266 0.519312 0
M  V30 1635 N 168.503 -0.877838 -1.30888 0
M  V30 1636 C 169.749 -0.493426 -1.96706 0
M  V30 1637 C 170.082 0.953504 -1.6918 0
M  V30 1638 O 169.357 1.67266 -0.992594 0
M  V30 1639 C 169.64 -0.760429 -3.51979 0
M  V30 1640 C 169.493 -2.25747 -3.89048 0
M  V30 1641 C 170.812 -0.232148 -4.39487 0
M  V30 1642 H 167.931 -0.180746 -0.714493 0
M  V30 1643 H 170.573 -1.10052 -1.54882 0
M  V30 1644 H 168.723 -0.243715 -3.87735 0
M  V30 1645 H 170.395 -2.84204 -3.63354 0
M  V30 1646 H 168.638 -2.72694 -3.37373 0
M  V30 1647 H 169.309 -2.39491 -4.97341 0
M  V30 1648 H 171.785 -0.674314 -4.106 0
M  V30 1649 H 170.661 -0.448355 -5.47066 0
M  V30 1650 H 170.922 0.866297 -4.33529 0
M  V30 1651 N 169.982 1.44106 -0.638065 0
M  V30 1652 C 171.228 2.02277 -0.145546 0
M  V30 1653 C 171.561 1.50125 1.23191 0
M  V30 1654 O 170.836 0.688133 1.8192 0
M  V30 1655 C 171.119 3.59829 -0.139791 0
M  V30 1656 C 170.972 4.22247 -1.55008 0
M  V30 1657 C 172.291 4.36873 0.531966 0
M  V30 1658 H 169.41 0.734992 -0.0543632 0
M  V30 1659 H 172.052 1.71592 -0.815863 0
M  V30 1660 H 170.202 3.86102 0.431007 0
M  V30 1661 H 171.874 4.07057 -2.1703 0
M  V30 1662 H 170.117 3.79476 -2.10191 0
M  V30 1663 H 170.788 5.31284 -1.49804 0
M  V30 1664 H 173.264 4.16074 0.0464781 0
M  V30 1665 H 172.14 5.4657 0.505206 0
M  V30 1666 H 172.401 4.11995 1.60352 0
M  V30 1667 N 171.46 0.379036 1.52974 0
M  V30 1668 C 172.876 0.0285448 1.59574 0
M  V30 1669 C 173.076 -1.45542 1.39355 0
M  V30 1670 O 172.132 -2.2187 1.20541 0
M  V30 1671 C 173.445 0.496535 2.96572 0
M  V30 1672 C 174.993 0.451909 3.0972 0
M  V30 1673 C 175.468 0.895924 4.49152 0
M  V30 1674 N 176.959 0.851522 4.55306 0
M  V30 1675 C 177.694 1.16661 5.61407 0
M  V30 1676 N 177.19 1.55166 6.752 0
M  V30 1677 N 178.983 1.08853 5.51459 0
M  V30 1678 H 171.134 1.34525 1.64367 0
M  V30 1679 H 173.397 0.550733 0.771619 0
M  V30 1680 H 173.103 1.53258 3.16552 0
M  V30 1681 H 172.977 -0.109802 3.7704 0
M  V30 1682 H 175.364 -0.575029 2.89443 0
M  V30 1683 H 175.445 1.09392 2.3123 0
M  V30 1684 H 175.089 1.92104 4.70168 0
M  V30 1685 H 175.019 0.23103 5.26093 0
M  V30 1686 H 177.51 0.568038 3.73606 0
M  V30 1687 H 177.823 1.776 7.52116 0
M  V30 1688 H 176.168 1.59044 6.76557 0
M  V30 1689 H 179.359 0.786803 4.6144 0
M  V30 1690 H 179.532 1.33742 6.34048 0
M  V30 1691 N 172.938 -1.57226 0.108567 0
M  V30 1692 C 174.186 -1.94448 -0.550853 0
M  V30 1693 C 174.507 -0.992074 -1.67878 0
M  V30 1694 O 173.777 -0.0465 -1.95845 0
M  V30 1695 H 172.357 -0.717897 -0.206479 0
M  V30 1696 H 175.019 -1.94112 0.175062 0
M  V30 1697 H 174.115 -2.97218 -0.952259 0
M  V30 1698 N 174.416 0.165178 -1.56732 0
M  V30 1699 C 175.664 0.879068 -1.8198 0
M  V30 1700 C 175.985 1.82514 -0.686561 0
M  V30 1701 O 175.255 1.93694 0.293146 0
M  V30 1702 H 173.835 0.327608 -0.671329 0
M  V30 1703 H 176.497 0.163526 -1.94213 0
M  V30 1704 H 175.593 1.45228 -2.76252 0
M  V30 1705 N 175.894 1.51508 0.433938 0
M  V30 1706 C 176.857 1.72473 1.50949 0
M  V30 1707 C 177.857 0.594725 1.49398 0
M  V30 1708 O 179.047 0.862315 1.5136 0
M  V30 1709 C 176.179 1.78431 2.90474 0
M  V30 1710 H 177.372 2.68467 1.33662 0
M  V30 1711 H 174.925 1.41549 0.662836 0
M  V30 1712 H 175.66 0.842645 3.13161 0
M  V30 1713 H 175.445 2.60558 2.93005 0
M  V30 1714 H 176.935 1.96479 3.68491 0
M  V30 1715 N 177.372 -0.689602 1.41712 0
M  V30 1716 C 178.788 -1.00093 1.24312 0
M  V30 1717 C 178.988 -2.01036 0.136729 0
M  V30 1718 O 178.044 -2.47562 -0.496918 0
M  V30 1719 C 179.357 -1.51985 2.59463 0
M  V30 1720 C 180.905 -1.63838 2.66695 0
M  V30 1721 C 181.38 -2.1913 4.02177 0
M  V30 1722 N 182.871 -2.26483 4.04054 0
M  V30 1723 C 183.606 -2.70306 5.0569 0
M  V30 1724 N 183.102 -3.13691 6.17713 0
M  V30 1725 N 184.895 -2.69923 4.9305 0
M  V30 1726 H 177.046 -0.0210029 2.1239 0
M  V30 1727 H 179.309 -0.0718733 0.945272 0
M  V30 1728 H 179.015 -0.85269 3.41207 0
M  V30 1729 H 178.889 -2.50103 2.82362 0
M  V30 1730 H 181.276 -2.29664 1.85306 0
M  V30 1731 H 181.357 -0.642492 2.476 0
M  V30 1732 H 181.001 -1.53918 4.84016 0
M  V30 1733 H 180.931 -3.19482 4.18615 0
M  V30 1734 H 183.422 -1.95874 3.23174 0
M  V30 1735 H 183.735 -3.45773 6.9113 0
M  V30 1736 H 182.08 -3.11585 6.21241 0
M  V30 1737 H 185.271 -2.35382 4.04614 0
M  V30 1738 H 185.444 -3.03758 5.72394 0
M  V30 1739 N 178.85 -1.27639 -0.924453 0
M  V30 1740 C 180.266 -1.05113 -1.20097 0
M  V30 1741 C 180.466 0.213262 -2.00368 0
M  V30 1742 O 179.522 0.91787 -2.35226 0
M  V30 1743 C 180.835 -2.29244 -1.94596 0
M  V30 1744 C 182.383 -2.34315 -2.07522 0
M  V30 1745 C 182.858 -3.58183 -2.85427 0
M  V30 1746 N 184.349 -3.5876 -2.92994 0
M  V30 1747 C 185.084 -4.51277 -3.53746 0
M  V30 1748 N 184.58 -5.54102 -4.15863 0
M  V30 1749 N 186.373 -4.38894 -3.51181 0
M  V30 1750 H 178.524 -2.08821 -0.388264 0
M  V30 1751 H 180.787 -0.918568 -0.234385 0
M  V30 1752 H 180.493 -3.21301 -1.43034 0
M  V30 1753 H 180.367 -2.34816 -2.95197 0
M  V30 1754 H 182.754 -1.42762 -2.58269 0
M  V30 1755 H 182.835 -2.32744 -1.06131 0
M  V30 1756 H 182.479 -4.50074 -2.35363 0
M  V30 1757 H 182.409 -3.57006 -3.8711 0
M  V30 1758 H 184.9 -2.84398 -2.4885 0
M  V30 1759 H 185.213 -6.20859 -4.60168 0
M  V30 1760 H 183.558 -5.57941 -4.144 0
M  V30 1761 H 186.749 -3.57772 -3.01856 0
M  V30 1762 H 186.922 -5.11186 -3.98237 0
M  V30 1763 N 180.328 1.1314 -1.09713 0
M  V30 1764 C 181.558 1.88048 -0.855656 0
M  V30 1765 C 181.966 1.79537 0.596919 0
M  V30 1766 O 181.309 1.16196 1.42282 0
M  V30 1767 C 181.371 3.38314 -1.21589 0
M  V30 1768 C 181.035 3.70605 -2.67397 0
M  V30 1769 C 182.032 3.69596 -3.65643 0
M  V30 1770 C 179.717 4.0017 -3.03593 0
M  V30 1771 C 181.711 3.977 -4.9811 0
M  V30 1772 C 179.398 4.27935 -4.36251 0
M  V30 1773 C 180.396 4.26685 -5.33318 0
M  V30 1774 O 180.084 4.53767 -6.63589 0
M  V30 1775 H 179.816 0.60208 -0.307368 0
M  V30 1776 H 182.37 1.44128 -1.46343 0
M  V30 1777 H 180.6 3.82752 -0.551177 0
M  V30 1778 H 182.289 3.94552 -0.953083 0
M  V30 1779 H 183.055 3.46826 -3.39023 0
M  V30 1780 H 178.934 4.00289 -2.2867 0
M  V30 1781 H 182.478 3.9664 -5.73866 0
M  V30 1782 H 178.375 4.50178 -4.62613 0
M  V30 1783 H 179.143 4.71422 -6.69107 0
M  V30 1784 N 181.806 0.884767 1.30421 0
M  V30 1785 C 182.769 0.356277 2.26414 0
M  V30 1786 C 183.769 -0.501124 1.52792 0
M  V30 1787 O 184.959 -0.30831 1.7145 0
M  V30 1788 C 182.091 -0.492316 3.37326 0
M  V30 1789 H 183.284 1.20389 2.74675 0
M  V30 1790 H 180.837 0.661607 1.41607 0
M  V30 1791 H 181.572 -1.36052 2.94381 0
M  V30 1792 H 181.357 0.121832 3.91911 0
M  V30 1793 H 182.847 -0.853871 4.08777 0
M  V30 1794 N 183.284 -1.43765 0.645699 0
M  V30 1795 C 184.524 -2.03776 0.159542 0
M  V30 1796 C 184.888 -1.49792 -1.2011 0
M  V30 1797 O 186.089 -2.01398 -1.78023 0
M  V30 1798 C 184.36 -3.57036 0.161251 0
M  V30 1799 S 185.919 -4.3804 -0.258159 0
M  V30 1800 H 182.737 -0.707717 0.0682454 0
M  V30 1801 H 185.339 -1.75941 0.852352 0
M  V30 1802 H 184.043 -3.9383 1.15439 0
M  V30 1803 H 183.574 -3.89503 -0.552339 0
M  V30 1804 H 185.589 -4.7302 -1.49889 0
M  V30 1805 N 184.763 -0.387143 -1.52771 0
M  V30 1806 C 186.179 -0.037007 -1.59557 0
M  V30 1807 C 186.379 1.44801 -1.40124 0
M  V30 1808 O 185.435 2.21227 -1.21716 0
M  V30 1809 C 186.748 -0.512256 -2.96305 0
M  V30 1810 C 188.296 -0.468328 -3.09476 0
M  V30 1811 C 188.771 -0.919731 -4.4867 0
M  V30 1812 N 190.262 -0.875656 -4.54848 0
M  V30 1813 C 190.997 -1.19637 -5.6078 0
M  V30 1814 N 190.493 -1.58745 -6.74368 0
M  V30 1815 N 192.286 -1.11776 -5.50874 0
M  V30 1816 H 184.437 -1.35395 -1.63652 0
M  V30 1817 H 186.7 -0.554818 -0.768688 0
M  V30 1818 H 186.406 -1.54935 -3.15734 0
M  V30 1819 H 186.28 0.089805 -3.77093 0
M  V30 1820 H 188.667 0.559671 -2.89744 0
M  V30 1821 H 188.748 -1.10616 -2.30646 0
M  V30 1822 H 188.392 -1.94595 -4.69143 0
M  V30 1823 H 188.322 -0.258927 -5.25963 0
M  V30 1824 H 190.813 -0.587843 -3.733 0
M  V30 1825 H 191.126 -1.81586 -7.51163 0
M  V30 1826 H 189.471 -1.6263 -6.75705 0
M  V30 1827 H 192.662 -0.811264 -4.61016 0
M  V30 1828 H 192.835 -1.37103 -6.3333 0
M  V30 1829 N 186.241 1.57166 -0.116904 0
M  V30 1830 C 187.489 1.94737 0.540533 0
M  V30 1831 C 187.81 1.00096 1.67349 0
M  V30 1832 O 187.08 0.0568854 1.95817 0
M  V30 1833 H 185.66 0.718981 0.202669 0
M  V30 1834 H 188.322 1.94017 -0.185353 0
M  V30 1835 H 187.418 2.97719 0.936483 0
M  V30 1836 N 187.719 -0.156864 1.56817 0
M  V30 1837 C 188.967 -0.869404 1.82444 0
M  V30 1838 C 189.288 -1.82147 0.69623 0
M  V30 1839 O 188.558 -1.93847 -0.28287 0
M  V30 1840 H 187.138 -0.324043 0.673056 0
M  V30 1841 H 189.8 -0.153224 1.94297 0
M  V30 1842 H 188.896 -1.43761 2.77019 0
M  V30 1843 N 189.197 -1.51736 -0.425897 0
M  V30 1844 C 190.445 -1.64644 -1.17204 0
M  V30 1845 C 190.766 -0.370486 -1.91448 0
M  V30 1846 O 190.036 0.614088 -1.86026 0
M  V30 1847 H 188.616 -0.606819 -0.435638 0
M  V30 1848 H 191.278 -1.88713 -0.487177 0
M  V30 1849 H 190.374 -2.47958 -1.89534 0
M  V30 1850 N 190.675 0.682077 -1.42076 0
M  V30 1851 C 191.903 1.47057 -1.4554 0
M  V30 1852 C 192.318 1.8869 -0.0645779 0
M  V30 1853 O 191.675 1.57666 0.919115 0
M  V30 1854 C 191.726 2.72442 -2.37609 0
M  V30 1855 O 191.447 2.32559 -3.71279 0
M  V30 1856 C 192.948 3.66069 -2.50017 0
M  V30 1857 H 190.168 0.452737 -0.495248 0
M  V30 1858 H 192.712 0.838695 -1.8651 0
M  V30 1859 H 190.867 3.31835 -1.9991 0
M  V30 1860 H 191.281 3.13475 -4.20516 0
M  V30 1861 H 192.755 4.50792 -3.18576 0
M  V30 1862 H 193.232 4.11476 -1.53572 0
M  V30 1863 H 193.838 3.12572 -2.88407 0
M  V30 1864 N 192.153 1.28127 0.917671 0
M  V30 1865 C 193.393 1.163 1.68088 0
M  V30 1866 C 193.757 -0.284515 1.8988 0
M  V30 1867 O 194.958 -0.525413 2.63615 0
M  V30 1868 C 193.229 1.93546 3.00457 0
M  V30 1869 S 194.788 1.98048 3.91564 0
M  V30 1870 H 191.606 0.415005 0.577315 0
M  V30 1871 H 194.208 1.62173 1.09179 0
M  V30 1872 H 192.912 2.97888 2.82295 0
M  V30 1873 H 192.443 1.48207 3.64415 0
M  V30 1874 H 194.458 1.08415 4.84211 0
M  V30 1875 N 193.631 -1.12557 1.10312 0
M  V30 1876 C 194.563 -2.17971 0.708625 0
M  V30 1877 C 195.576 -1.60806 -0.254027 0
M  V30 1878 O 196.765 -1.78458 -0.0386891 0
M  V30 1879 C 193.865 -3.38891 0.0248198 0
M  V30 1880 C 193.038 -4.25548 1.01132 0
M  V30 1881 C 192.097 -5.24972 0.35924 0
M  V30 1882 O 191.123 -5.60174 1.00965 0
M  V30 1883 N 192.325 -5.73747 -0.882847 0
M  V30 1884 H 195.09 -2.52427 1.61557 0
M  V30 1885 H 192.651 -1.27967 0.991771 0
M  V30 1886 H 194.643 -4.02485 -0.422852 0
M  V30 1887 H 193.213 -3.02596 -0.784514 0
M  V30 1888 H 192.433 -3.58589 1.6373 0
M  V30 1889 H 193.721 -4.80294 1.67914 0
M  V30 1890 H 193.119 -5.4731 -1.43065 0
M  V30 1891 H 191.676 -6.39234 -1.27369 0
M  V30 1892 N 195.109 -0.891671 -1.2995 0
M  V30 1893 C 196.042 -0.307994 -2.26112 0
M  V30 1894 C 197.02 0.575262 -1.52084 0
M  V30 1895 O 198.204 0.523864 -1.81074 0
M  V30 1896 C 195.331 0.561734 -3.34009 0
M  V30 1897 C 194.377 -0.253107 -4.25748 0
M  V30 1898 S 195.21 -1.64572 -5.09584 0
M  V30 1899 C 196.366 -0.782699 -6.20987 0
M  V30 1900 H 196.599 -1.12309 -2.75271 0
M  V30 1901 H 194.132 -0.691509 -1.38049 0
M  V30 1902 H 196.09 1.05777 -3.96638 0
M  V30 1903 H 194.751 1.35099 -2.83561 0
M  V30 1904 H 193.944 0.410908 -5.02322 0
M  V30 1905 H 193.546 -0.682004 -3.67729 0
M  V30 1906 H 195.838 -0.00257476 -6.775 0
M  V30 1907 H 196.781 -1.52026 -6.91588 0
M  V30 1908 H 197.189 -0.340638 -5.63471 0
M  V30 1909 N 196.587 1.43421 -0.653314 0
M  V30 1910 C 197.864 1.95361 -0.0966581 0
M  V30 1911 C 198.244 1.59461 1.38331 0
M  V30 1912 O 197.592 0.879777 2.10884 0
M  V30 1913 C 197.802 3.47311 -0.342988 0
M  V30 1914 C 199.15 4.23875 -0.24798 0
M  V30 1915 O 200.174 3.55133 -0.275553 0
M  V30 1916 O 199.033 5.4623 -0.171771 0
M  V30 1917 H 196.127 0.826945 0.00956291 0
M  V30 1918 H 198.673 1.5336 -0.726558 0
M  V30 1919 H 197.445 3.66569 -1.36906 0
M  V30 1920 H 197.068 3.9631 0.319975 0
M  V30 1921 N 198.065 0.39524 1.52563 0
M  V30 1922 C 199.028 -0.425001 2.25225 0
M  V30 1923 C 200.028 -0.985266 1.27079 0
M  V30 1924 O 201.218 -0.866332 1.5113 0
M  V30 1925 C 198.35 -1.59686 3.01186 0
M  V30 1926 H 199.543 0.211233 2.99155 0
M  V30 1927 H 197.096 0.147472 1.55603 0
M  V30 1928 H 197.831 -2.27035 2.31572 0
M  V30 1929 H 197.616 -1.20176 3.73229 0
M  V30 1930 H 199.106 -2.17743 3.5634 0
M  V30 1931 N 199.544 -1.57102 0.125237 0
M  V30 1932 C 200.791 -1.95407 -0.531248 0
M  V30 1933 C 201.119 -1.0089 -1.66287 0
M  V30 1934 O 200.374 -0.0339431 -1.95671 0
M  V30 1935 C 200.673 -3.40096 -1.09862 0
M  V30 1936 C 200.339 -4.50815 -0.0876989 0
M  V30 1937 C 199.001 -4.80824 0.19026 0
M  V30 1938 C 201.353 -5.17724 0.600902 0
M  V30 1939 C 198.681 -5.75058 1.163 0
M  V30 1940 C 201.033 -6.13005 1.56231 0
M  V30 1941 C 199.697 -6.41403 1.8482 0
M  V30 1942 H 198.967 -0.715046 -0.194397 0
M  V30 1943 H 201.614 -1.90373 0.207463 0
M  V30 1944 H 199.919 -3.41855 -1.91422 0
M  V30 1945 H 201.616 -3.6705 -1.61478 0
M  V30 1946 H 198.206 -4.27444 -0.314528 0
M  V30 1947 H 202.39 -4.94691 0.399333 0
M  V30 1948 H 197.646 -5.95362 1.39117 0
M  V30 1949 H 201.82 -6.63934 2.10153 0
M  V30 1950 H 199.447 -7.14229 2.60349 0
M  V30 1951 N 201.022 0.148545 -1.56898 0
M  V30 1952 C 201.955 1.21293 -1.93296 0
M  V30 1953 C 202.933 1.41637 -0.798599 0
M  V30 1954 O 204.117 1.56275 -1.05406 0
M  V30 1955 C 201.244 2.5721 -2.20365 0
M  V30 1956 C 200.29 2.53469 -3.4301 0
M  V30 1957 S 201.123 2.00315 -4.96623 0
M  V30 1958 C 202.279 3.37964 -5.26812 0
M  V30 1959 H 202.512 0.902393 -2.83274 0
M  V30 1960 H 200.045 0.354094 -1.50285 0
M  V30 1961 H 202.003 3.35427 -2.36641 0
M  V30 1962 H 200.664 2.85454 -1.31054 0
M  V30 1963 H 199.857 3.53518 -3.59223 0
M  V30 1964 H 199.459 1.83359 -3.25968 0
M  V30 1965 H 201.751 4.34066 -5.20185 0
M  V30 1966 H 202.694 3.26606 -6.28279 0
M  V30 1967 H 203.102 3.35028 -4.54331 0
M  V30 1968 N 202.5 1.5196 0.417844 0
M  V30 1969 C 203.916 1.40569 0.755816 0
M  V30 1970 C 204.116 0.503316 1.95113 0
M  V30 1971 O 203.172 -0.0341925 2.52477 0
M  V30 1972 C 204.485 2.82947 1.01791 0
M  V30 1973 C 206.033 2.92231 1.12116 0
M  V30 1974 C 206.508 4.35559 1.41608 0
M  V30 1975 N 207.999 4.38753 1.48491 0
M  V30 1976 C 208.734 5.46705 1.7292 0
M  V30 1977 N 208.23 6.64788 1.95011 0
M  V30 1978 N 210.023 5.34209 1.74863 0
M  V30 1979 H 202.174 2.09168 -0.369098 0
M  V30 1980 H 204.437 0.942409 -0.102809 0
M  V30 1981 H 204.143 3.5106 0.212081 0
M  V30 1982 H 204.017 3.23462 1.94042 0
M  V30 1983 H 206.404 2.24304 1.9176 0
M  V30 1984 H 206.485 2.55185 0.177225 0
M  V30 1985 H 206.129 5.04042 0.624848 0
M  V30 1986 H 206.059 4.70133 2.37239 0
M  V30 1987 H 208.55 3.5363 1.33244 0
M  V30 1988 H 208.863 7.42845 2.13076 0
M  V30 1989 H 207.208 6.67869 1.92293 0
M  V30 1990 H 210.399 4.40937 1.57137 0
M  V30 1991 H 210.572 6.18415 1.93563 0
M  V30 1992 N 203.978 -0.674533 1.42435 0
M  V30 1993 C 205.394 -0.98769 1.25367 0
M  V30 1994 C 205.594 -2.00879 0.158044 0
M  V30 1995 O 204.65 -2.48075 -0.470633 0
M  V30 1996 C 205.963 -1.49224 2.6106 0
M  V30 1997 C 207.511 -1.61 2.68417 0
M  V30 1998 C 207.986 -2.14852 4.04478 0
M  V30 1999 N 209.477 -2.22185 4.06434 0
M  V30 2000 C 210.212 -2.64928 5.08528 0
M  V30 2001 N 209.708 -3.07121 6.21006 0
M  V30 2002 N 211.501 -2.64679 4.95885 0
M  V30 2003 H 203.652 0.00152503 2.124 0
M  V30 2004 H 205.915 -0.0618434 0.945981 0
M  V30 2005 H 205.621 -0.816453 3.42092 0
M  V30 2006 H 205.495 -2.47094 2.84999 0
M  V30 2007 H 207.882 -2.27686 1.87732 0
M  V30 2008 H 207.963 -0.616195 2.48267 0
M  V30 2009 H 207.607 -1.48775 4.85622 0
M  V30 2010 H 207.537 -3.15024 4.2198 0
M  V30 2011 H 210.028 -1.92435 3.25234 0
M  V30 2012 H 210.341 -3.38423 6.94759 0
M  V30 2013 H 208.686 -3.04978 6.24511 0
M  V30 2014 H 211.877 -2.31078 4.07088 0
M  V30 2015 H 212.05 -2.9767 5.75584 0
M  V30 2016 N 205.456 -1.28612 -0.910864 0
M  V30 2017 C 206.403 -1.12786 -2.01365 0
M  V30 2018 C 207.373 -0.024201 -1.66082 0
M  V30 2019 O 208.558 -0.189667 -1.89855 0
M  V30 2020 C 205.698 -0.798743 -3.35729 0
M  V30 2021 C 204.811 -1.98173 -3.83864 0
M  V30 2022 C 203.946 -1.59298 -5.06752 0
M  V30 2023 C 202.985 -2.74245 -5.47226 0
M  V30 2024 N 202.122 -2.35842 -6.61304 0
M  V30 2025 H 206.962 -2.07142 -2.14234 0
M  V30 2026 H 204.499 -1.03093 -1.0493 0
M  V30 2027 H 206.457 -0.588662 -4.13026 0
M  V30 2028 H 205.087 0.10789 -3.2262 0
M  V30 2029 H 204.139 -2.30386 -3.02699 0
M  V30 2030 H 205.451 -2.84343 -4.09818 0
M  V30 2031 H 204.605 -1.34513 -5.916 0
M  V30 2032 H 203.344 -0.702618 -4.82612 0
M  V30 2033 H 202.349 -2.99725 -4.60918 0
M  V30 2034 H 203.574 -3.63928 -5.73353 0
M  V30 2035 H 201.52 -1.49279 -6.38789 0
M  V30 2036 H 201.437 -3.15546 -6.86998 0
M  V30 2037 H 202.705 -2.14348 -7.4945 0
M  V30 2038 N 206.934 1.1197 -1.10907 0
M  V30 2039 C 208.174 1.85224 -0.864378 0
M  V30 2040 C 208.538 1.82411 0.599178 0
M  V30 2041 O 209.739 2.51057 0.960416 0
M  V30 2042 C 208.01 3.2868 -1.40371 0
M  V30 2043 S 209.569 4.1925 -1.29518 0
M  V30 2044 H 206.387 0.63878 -0.312219 0
M  V30 2045 H 208.989 1.3485 -1.41548 0
M  V30 2046 H 207.693 3.28289 -2.46281 0
M  V30 2047 H 207.224 3.84121 -0.849402 0
M  V30 2048 H 209.239 4.95539 -0.256059 0
M  V30 2049 N 208.412 0.89855 1.29475 0
M  V30 2050 C 209.344 0.332726 2.26772 0
M  V30 2051 C 210.357 -0.520323 1.54261 0
M  V30 2052 O 211.546 -0.337668 1.75277 0
M  V30 2053 C 208.646 -0.544334 3.345 0
M  V30 2054 C 207.819 0.282728 4.36485 0
M  V30 2055 C 206.878 -0.526982 5.23555 0
M  V30 2056 O 205.904 0.0551165 5.69173 0
M  V30 2057 N 207.106 -1.83331 5.5079 0
M  V30 2058 H 209.871 1.16897 2.75962 0
M  V30 2059 H 207.432 0.762919 1.42798 0
M  V30 2060 H 209.424 -1.09239 3.89678 0
M  V30 2061 H 207.994 -1.28127 2.85136 0
M  V30 2062 H 207.214 1.01221 3.80983 0
M  V30 2063 H 208.502 0.84918 5.01664 0
M  V30 2064 H 207.9 -2.32898 5.15534 0
M  V30 2065 H 206.457 -2.32852 6.08788 0
M  V30 2066 N 209.89 -1.43072 0.660911 0
M  V30 2067 C 210.822 -2.29108 -0.0647641 0
M  V30 2068 C 211.835 -1.42928 -0.779448 0
M  V30 2069 O 213.024 -1.66788 -0.635921 0
M  V30 2070 C 210.124 -3.20032 -1.11503 0
M  V30 2071 C 209.297 -4.34792 -0.476955 0
M  V30 2072 C 208.356 -5.06534 -1.42513 0
M  V30 2073 O 207.382 -5.61538 -0.930771 0
M  V30 2074 N 208.584 -5.1075 -2.75889 0
M  V30 2075 H 211.349 -2.92029 0.673731 0
M  V30 2076 H 208.91 -1.53846 0.50427 0
M  V30 2077 H 210.902 -3.64892 -1.75032 0
M  V30 2078 H 209.472 -2.58658 -1.75541 0
M  V30 2079 H 208.692 -3.92752 0.337572 0
M  V30 2080 H 209.98 -5.0879 -0.0318525 0
M  V30 2081 H 209.378 -4.67447 -3.18606 0
M  V30 2082 H 207.935 -5.59302 -3.347 0
M  V30 2083 N 211.368 -0.403325 -1.52352 0
M  V30 2084 C 212.608 0.173946 -2.03659 0
M  V30 2085 C 212.972 1.42869 -1.28267 0
M  V30 2086 O 214.173 2.08403 -1.69769 0
M  V30 2087 C 212.444 0.421478 -3.54906 0
M  V30 2088 S 214.003 0.967027 -4.28012 0
M  V30 2089 H 210.821 0.0477461 -0.709395 0
M  V30 2090 H 213.423 -0.554906 -1.87459 0
M  V30 2091 H 212.127 -0.498616 -4.0736 0
M  V30 2092 H 211.658 1.17837 -3.75337 0
M  V30 2093 H 213.673 2.24812 -4.4235 0
M  V30 2094 N 212.846 1.57033 -0.133567 0
M  V30 2095 C 214.262 1.58035 0.222944 0
M  V30 2096 C 214.462 1.14713 1.6566 0
M  V30 2097 O 213.518 0.841218 2.38075 0
M  V30 2098 C 214.831 3.00691 -0.0236116 0
M  V30 2099 C 216.379 3.12973 0.0411512 0
M  V30 2100 C 216.854 4.57654 -0.177899 0
M  V30 2101 N 218.345 4.63033 -0.124365 0
M  V30 2102 C 219.08 5.72771 -0.268553 0
M  V30 2103 N 218.576 6.91206 -0.46972 0
M  V30 2104 N 220.369 5.61718 -0.2071 0
M  V30 2105 H 212.52 1.8349 -1.06981 0
M  V30 2106 H 214.783 0.848677 -0.422436 0
M  V30 2107 H 214.489 3.36726 -1.0153 0
M  V30 2108 H 214.363 3.70614 0.701808 0
M  V30 2109 H 216.75 2.76787 1.02338 0
M  V30 2110 H 216.831 2.45564 -0.716383 0
M  V30 2111 H 216.475 4.94542 -1.15717 0
M  V30 2112 H 216.405 5.23173 0.599797 0
M  V30 2113 H 218.896 3.7789 0.027011 0
M  V30 2114 H 219.209 7.70693 -0.570212 0
M  V30 2115 H 217.554 6.93156 -0.505876 0
M  V30 2116 H 220.745 4.68072 -0.0507986 0
M  V30 2117 H 220.918 6.47195 -0.322909 0
M  V30 2118 N 214.325 -0.140222 1.56975 0
M  V30 2119 C 215.255 -1.17456 2.01808 0
M  V30 2120 C 216.236 -1.44415 0.898794 0
M  V30 2121 O 217.421 -1.5522 1.16707 0
M  V30 2122 C 214.551 -2.50607 2.40444 0
M  V30 2123 C 213.505 -2.38155 3.55621 0
M  V30 2124 C 212.831 -3.76078 3.80091 0
M  V30 2125 C 214.131 -1.85991 4.88062 0
M  V30 2126 H 215.825 -0.801743 2.88466 0
M  V30 2127 H 213.371 -0.38422 1.38779 0
M  V30 2128 H 215.324 -3.23197 2.7041 0
M  V30 2129 H 214.048 -2.89737 1.50732 0
M  V30 2130 H 212.707 -1.68016 3.25832 0
M  V30 2131 H 212.355 -4.12656 2.87618 0
M  V30 2132 H 212.055 -3.68606 4.57606 0
M  V30 2133 H 213.579 -4.50206 4.12488 0
M  V30 2134 H 214.993 -2.4838 5.16701 0
M  V30 2135 H 213.39 -1.89393 5.6943 0
M  V30 2136 H 214.46 -0.816023 4.77984 0
M  V30 2137 N 215.803 -1.52179 -0.40978 0
M  V30 2138 C 217.219 -1.40968 -0.74835 0
M  V30 2139 C 217.419 -0.513657 -1.94843 0
M  V30 2140 O 216.475 0.0208026 -2.52491 0
M  V30 2141 C 217.788 -2.83483 -1.0029 0
M  V30 2142 C 219.336 -2.92821 -1.10565 0
M  V30 2143 C 219.811 -4.36303 -1.39296 0
M  V30 2144 N 221.302 -4.39535 -1.46162 0
M  V30 2145 C 222.037 -5.47614 -1.70018 0
M  V30 2146 N 221.533 -6.65812 -1.91483 0
M  V30 2147 N 223.326 -5.35129 -1.72027 0
M  V30 2148 H 215.477 -2.0897 0.380186 0
M  V30 2149 H 217.74 -0.94185 0.107805 0
M  V30 2150 H 217.446 -3.51168 -0.193461 0
M  V30 2151 H 217.32 -3.24487 -1.92323 0
M  V30 2152 H 219.707 -2.25318 -1.90568 0
M  V30 2153 H 219.788 -2.55276 -0.16369 0
M  V30 2154 H 219.432 -5.04366 -0.598109 0
M  V30 2155 H 219.362 -4.71385 -2.34743 0
M  V30 2156 H 221.853 -3.54332 -1.31367 0
M  V30 2157 H 222.166 -7.43964 -2.09134 0
M  V30 2158 H 220.511 -6.68879 -1.88749 0
M  V30 2159 H 223.702 -4.41764 -1.54796 0
M  V30 2160 H 223.875 -6.19433 -1.9028 0
M  V30 2161 N 217.281 0.66697 -1.42791 0
M  V30 2162 C 218.228 1.7803 -1.4688 0
M  V30 2163 C 219.198 1.6299 -0.319919 0
M  V30 2164 O 220.383 1.83432 -0.525118 0
M  V30 2165 C 217.523 3.1611 -1.38451 0
M  V30 2166 C 216.636 3.42381 -2.63437 0
M  V30 2167 C 215.771 4.70232 -2.47094 0
M  V30 2168 C 214.81 4.89564 -3.67415 0
M  V30 2169 N 213.947 6.08661 -3.49966 0
M  V30 2170 H 218.787 1.7387 -2.42019 0
M  V30 2171 H 216.324 0.84868 -1.20149 0
M  V30 2172 H 218.282 3.95914 -1.31561 0
M  V30 2173 H 216.912 3.19374 -0.469033 0
M  V30 2174 H 215.964 2.56774 -2.80662 0
M  V30 2175 H 217.276 3.52557 -3.52853 0
M  V30 2176 H 216.43 5.5814 -2.37834 0
M  V30 2177 H 215.169 4.62353 -1.5518 0
M  V30 2178 H 214.174 4.00096 -3.77099 0
M  V30 2179 H 215.399 4.99282 -4.6032 0
M  V30 2180 H 213.345 6.0194 -2.60776 0
M  V30 2181 H 213.262 6.19733 -4.32975 0
M  V30 2182 H 214.53 6.99226 -3.44532 0
M  V30 2183 N 218.759 1.29093 0.90403 0
M  V30 2184 C 219.999 1.18076 1.66845 0
M  V30 2185 C 220.363 -0.26436 1.90171 0
M  V30 2186 O 221.564 -0.497423 2.64157 0
M  V30 2187 C 219.835 1.96722 2.98388 0
M  V30 2188 S 221.394 2.0219 3.89441 0
M  V30 2189 H 218.212 0.421104 0.572881 0
M  V30 2190 H 220.814 1.63322 1.07453 0
M  V30 2191 H 219.518 3.00866 2.7912 0
M  V30 2192 H 219.049 1.52064 3.62823 0
M  V30 2193 H 221.064 1.13545 4.83034 0
M  V30 2194 N 220.237 -1.11381 1.11499 0
M  V30 2195 C 221.184 -2.17439 0.773887 0
M  V30 2196 C 222.154 -1.64132 -0.254899 0
M  V30 2197 O 223.339 -1.90345 -0.13168 0
M  V30 2198 C 220.479 -3.44373 0.223917 0
M  V30 2199 C 219.592 -4.1168 1.30934 0
M  V30 2200 C 218.727 -5.263 0.71984 0
M  V30 2201 C 217.766 -5.85493 1.78507 0
M  V30 2202 N 216.903 -6.91507 1.21502 0
M  V30 2203 H 221.743 -2.45962 1.68246 0
M  V30 2204 H 219.28 -1.20744 0.840191 0
M  V30 2205 H 221.238 -4.17047 -0.112921 0
M  V30 2206 H 219.868 -3.16232 -0.647851 0
M  V30 2207 H 218.92 -3.37073 1.76312 0
M  V30 2208 H 220.232 -4.51729 2.11524 0
M  V30 2209 H 219.386 -6.05785 0.333094 0
M  V30 2210 H 218.125 -4.87559 -0.117377 0
M  V30 2211 H 217.13 -5.04686 2.18111 0
M  V30 2212 H 218.355 -6.26301 2.62533 0
M  V30 2213 H 216.301 -6.54783 0.399455 0
M  V30 2214 H 216.218 -7.30214 1.95763 0
M  V30 2215 H 217.486 -7.74795 0.855181 0
M  V30 2216 N 221.715 -0.905404 -1.28997 0
M  V30 2217 C 222.625 -0.392246 -2.31298 0
M  V30 2218 C 223.641 0.515889 -1.66176 0
M  V30 2219 O 224.817 0.404093 -1.97304 0
M  V30 2220 C 221.882 0.36686 -3.44754 0
M  V30 2221 C 220.943 -0.573485 -4.25452 0
M  V30 2222 C 220.176 0.149488 -5.33491 0
M  V30 2223 O 220.399 1.37255 -5.5364 0
M  V30 2224 O 219.333 -0.510919 -5.99728 0
M  V30 2225 H 223.159 -1.2411 -2.77183 0
M  V30 2226 H 220.744 -0.669926 -1.33538 0
M  V30 2227 H 222.626 0.795907 -4.13816 0
M  V30 2228 H 221.301 1.19169 -3.00966 0
M  V30 2229 H 220.208 -1.05176 -3.59011 0
M  V30 2230 H 221.541 -1.36489 -4.72897 0
M  V30 2231 N 223.193 1.4272 -0.668489 0
M  V30 2232 C 224.156 2.292 0.00448567 0
M  V30 2233 C 225.156 1.43001 0.735339 0
M  V30 2234 O 226.346 1.64461 0.57429 0
M  V30 2235 C 223.478 3.25375 1.01705 0
M  V30 2236 H 224.671 2.90199 -0.756608 0
M  V30 2237 H 222.224 1.50254 -0.430506 0
M  V30 2238 H 222.959 2.69301 1.80686 0
M  V30 2239 H 222.744 3.88944 0.496463 0
M  V30 2240 H 224.234 3.90245 1.48655 0
M  V30 2241 N 224.671 0.411399 1.52136 0
M  V30 2242 C 225.919 -0.163322 2.01439 0
M  V30 2243 C 226.24 -1.45453 1.29879 0
M  V30 2244 O 225.51 -1.91225 0.4254 0
M  V30 2245 H 224.09 -0.0633447 0.744309 0
M  V30 2246 H 226.752 0.548161 1.87033 0
M  V30 2247 H 225.848 -0.357817 3.10042 0
M  V30 2248 N 226.149 -1.5696 0.141893 0
M  V30 2249 C 227.082 -2.12271 -0.837627 0
M  V30 2250 C 228.06 -1.04495 -1.24578 0
M  V30 2251 O 229.244 -1.32293 -1.34278 0
M  V30 2252 C 226.371 -2.63822 -2.12404 0
M  V30 2253 C 225.417 -3.83698 -1.86221 0
M  V30 2254 S 226.25 -5.24948 -1.05781 0
M  V30 2255 C 227.406 -5.79884 -2.35552 0
M  V30 2256 H 227.639 -2.95023 -0.367249 0
M  V30 2257 H 225.172 -1.54231 -0.0723014 0
M  V30 2258 H 227.13 -2.94175 -2.86307 0
M  V30 2259 H 225.791 -1.8121 -2.56557 0
M  V30 2260 H 224.984 -4.17995 -2.81596 0
M  V30 2261 H 224.586 -3.5408 -1.20429 0
M  V30 2262 H 226.878 -5.91005 -3.31239 0
M  V30 2263 H 227.821 -6.77544 -2.05767 0
M  V30 2264 H 228.229 -5.08095 -2.45967 0
M  V30 2265 N 227.627 0.131896 -1.57047 0
M  V30 2266 C 229.043 0.485031 -1.52051 0
M  V30 2267 C 229.243 1.82563 -0.85281 0
M  V30 2268 O 228.299 2.48817 -0.429694 0
M  V30 2269 C 229.612 0.481409 -2.96821 0
M  V30 2270 C 231.16 0.565868 -3.07842 0
M  V30 2271 C 231.635 0.592762 -4.54148 0
M  V30 2272 N 233.126 0.654564 -4.58552 0
M  V30 2273 C 233.861 0.696608 -5.69153 0
M  V30 2274 N 233.357 0.697078 -6.89284 0
M  V30 2275 N 235.15 0.738639 -5.57226 0
M  V30 2276 H 227.301 -0.746664 -1.98843 0
M  V30 2277 H 229.564 -0.273999 -0.90754 0
M  V30 2278 H 229.27 -0.435731 -3.4899 0
M  V30 2279 H 229.144 1.3139 -3.53577 0
M  V30 2280 H 231.531 1.47343 -2.55684 0
M  V30 2281 H 231.612 -0.29406 -2.54104 0
M  V30 2282 H 231.256 -0.310701 -5.06949 0
M  V30 2283 H 231.186 1.46939 -5.05684 0
M  V30 2284 H 233.677 0.660887 -3.72076 0
M  V30 2285 H 233.99 0.731426 -7.69331 0
M  V30 2286 H 232.335 0.66471 -6.91814 0
M  V30 2287 H 235.526 0.735545 -4.62285 0
M  V30 2288 H 235.699 0.767938 -6.43434 0
M  V30 2289 N 229.106 1.52395 0.401703 0
M  V30 2290 C 230.016 1.7917 1.51444 0
M  V30 2291 C 231.032 0.677691 1.6026 0
M  V30 2292 O 232.208 0.963909 1.76835 0
M  V30 2293 C 229.273 1.94347 2.87107 0
M  V30 2294 C 228.334 3.18257 2.88116 0
M  V30 2295 C 227.567 3.32701 4.17308 0
M  V30 2296 O 227.79 2.52238 5.11598 0
M  V30 2297 O 226.724 4.25891 4.25324 0
M  V30 2298 H 230.55 2.73633 1.31752 0
M  V30 2299 H 228.135 1.3733 0.588296 0
M  V30 2300 H 230.017 2.06109 3.67555 0
M  V30 2301 H 228.692 1.03073 3.06851 0
M  V30 2302 H 227.599 3.11947 2.06494 0
M  V30 2303 H 228.932 4.09336 2.73322 0
M  V30 2304 N 230.584 -0.659388 1.43143 0
M  V30 2305 C 231.516 -1.7849 1.43784 0
M  V30 2306 C 232.529 -1.5932 0.334787 0
M  V30 2307 O 233.718 -1.68155 0.598842 0
M  V30 2308 C 230.818 -3.15828 1.22906 0
M  V30 2309 C 229.991 -3.61711 2.45934 0
M  V30 2310 C 229.05 -4.77831 2.20371 0
M  V30 2311 O 228.076 -4.87586 2.93681 0
M  V30 2312 N 229.278 -5.67611 1.21647 0
M  V30 2313 H 232.043 -1.7842 2.40803 0
M  V30 2314 H 229.604 -0.84302 1.3822 0
M  V30 2315 H 231.596 -3.91189 1.03697 0
M  V30 2316 H 230.166 -3.10707 0.343542 0
M  V30 2317 H 229.386 -2.76861 2.80609 0
M  V30 2318 H 230.674 -3.89112 3.27825 0
M  V30 2319 H 230.072 -5.62397 0.610449 0
M  V30 2320 H 228.629 -6.42719 1.08423 0
M  V30 2321 N 232.062 -1.29571 -0.897171 0
M  V30 2322 C 233.302 -1.18959 -1.66217 0
M  V30 2323 C 233.666 0.254271 -1.90309 0
M  V30 2324 O 234.867 0.483407 -2.64417 0
M  V30 2325 C 233.138 -1.98302 -2.9734 0
M  V30 2326 S 234.697 -2.04253 -3.88364 0
M  V30 2327 H 231.515 -0.424137 -0.570639 0
M  V30 2328 H 234.117 -1.6389 -1.06585 0
M  V30 2329 H 232.821 -3.02342 -2.77521 0
M  V30 2330 H 232.352 -1.53986 -3.62011 0
M  V30 2331 H 234.367 -1.16105 -4.82425 0
M  V30 2332 N 233.54 1.10788 -1.12088 0
M  V30 2333 C 234.786 1.82942 -0.875226 0
M  V30 2334 C 235.119 1.84779 0.597538 0
M  V30 2335 O 234.394 1.30578 1.44152 0
M  V30 2336 C 234.677 3.29789 -1.44606 0
M  V30 2337 C 234.53 3.36307 -2.98693 0
M  V30 2338 C 235.849 4.26064 -1.10261 0
M  V30 2339 H 232.968 0.664195 -0.319397 0
M  V30 2340 H 235.61 1.29867 -1.38689 0
M  V30 2341 H 233.76 3.75118 -1.01089 0
M  V30 2342 H 235.432 2.99487 -3.50864 0
M  V30 2343 H 233.675 2.76318 -3.34411 0
M  V30 2344 H 234.346 4.39694 -3.33726 0
M  V30 2345 H 236.822 3.88951 -1.4784 0
M  V30 2346 H 235.698 5.27183 -1.52869 0
M  V30 2347 H 235.959 4.42098 -0.0142953 0
M  V30 2348 N 235.018 0.912232 1.28515 0
M  V30 2349 C 235.948 0.416403 2.29757 0
M  V30 2350 C 236.929 -0.515194 1.6211 0
M  V30 2351 O 238.114 -0.423253 1.89532 0
M  V30 2352 C 235.244 -0.34572 3.45575 0
M  V30 2353 C 234.198 0.496599 4.25109 0
M  V30 2354 C 233.524 -0.393771 5.33248 0
M  V30 2355 C 234.824 1.75307 4.92001 0
M  V30 2356 H 236.518 1.26249 2.7148 0
M  V30 2357 H 234.064 0.608515 1.30511 0
M  V30 2358 H 236.017 -0.703422 4.15488 0
M  V30 2359 H 234.741 -1.2257 3.02728 0
M  V30 2360 H 233.4 0.8368 3.56922 0
M  V30 2361 H 233.048 -1.27225 4.86644 0
M  V30 2362 H 232.748 0.166209 5.87365 0
M  V30 2363 H 234.272 -0.747389 6.06009 0
M  V30 2364 H 235.686 1.46437 5.54283 0
M  V30 2365 H 234.083 2.25534 5.56106 0
M  V30 2366 H 235.153 2.48176 4.16577 0
M  V30 2367 N 236.496 -1.42363 0.676048 0
M  V30 2368 C 237.721 -2.06377 0.205705 0
M  V30 2369 C 238.146 -1.50463 -1.12883 0
M  V30 2370 O 237.504 -0.623619 -1.70237 0
M  V30 2371 C 237.552 -3.60277 0.152655 0
M  V30 2372 O 236.656 -4.02935 -0.87845 0
M  V30 2373 H 235.997 -0.655588 0.105359 0
M  V30 2374 H 238.527 -1.82475 0.925412 0
M  V30 2375 H 238.537 -4.07993 -0.0230675 0
M  V30 2376 H 237.212 -4.00346 1.12675 0
M  V30 2377 H 235.789 -3.66764 -0.673668 0
M  V30 2378 N 237.974 -0.419461 -1.51915 0
M  V30 2379 C 238.884 0.407528 -2.31033 0
M  V30 2380 C 239.9 1.04413 -1.3919 0
M  V30 2381 O 241.076 1.0434 -1.72265 0
M  V30 2382 C 238.141 1.50365 -3.12396 0
M  V30 2383 C 237.202 0.889029 -4.19994 0
M  V30 2384 C 236.435 1.93291 -4.97468 0
M  V30 2385 O 236.658 3.15259 -4.75361 0
M  V30 2386 O 235.592 1.53339 -5.8204 0
M  V30 2387 H 239.418 -0.237865 -3.02767 0
M  V30 2388 H 237.003 -0.182413 -1.48282 0
M  V30 2389 H 238.885 2.13975 -3.63032 0
M  V30 2390 H 237.56 2.13345 -2.43445 0
M  V30 2391 H 236.467 0.215353 -3.7348 0
M  V30 2392 H 237.8 0.302991 -4.91267 0
M  V30 2393 N 239.452 1.56882 -0.150215 0
M  V30 2394 C 240.362 2.20494 0.801222 0
M  V30 2395 C 241.378 1.19019 1.26927 0
M  V30 2396 O 242.554 1.51607 1.32579 0
M  V30 2397 C 239.619 2.81659 2.02161 0
M  V30 2398 C 238.68 3.9827 1.60249 0
M  V30 2399 C 237.913 4.56508 2.7647 0
M  V30 2400 O 238.136 4.13627 3.92771 0
M  V30 2401 O 237.07 5.46719 2.51757 0
M  V30 2402 H 240.896 3.02315 0.289717 0
M  V30 2403 H 238.481 1.49202 0.0769684 0
M  V30 2404 H 240.363 3.20522 2.73576 0
M  V30 2405 H 239.038 2.02849 2.52258 0
M  V30 2406 H 237.945 3.64117 0.858477 0
M  V30 2407 H 239.278 4.78609 1.14864 0
M  V30 2408 N 240.93 -0.123565 1.57115 0
M  V30 2409 C 241.862 -1.17739 1.96648 0
M  V30 2410 C 242.875 -1.37906 0.865201 0
M  V30 2411 O 244.064 -1.37062 1.14351 0
M  V30 2412 C 241.164 -2.53821 2.24562 0
M  V30 2413 C 240.337 -2.54317 3.55867 0
M  V30 2414 C 239.396 -3.72112 3.72047 0
M  V30 2415 O 238.422 -3.55907 4.44206 0
M  V30 2416 N 239.624 -4.90498 3.10471 0
M  V30 2417 H 242.389 -0.841147 2.87654 0
M  V30 2418 H 239.95 -0.31289 1.58848 0
M  V30 2419 H 241.942 -3.31175 2.32606 0
M  V30 2420 H 240.512 -2.79645 1.39705 0
M  V30 2421 H 239.732 -1.62711 3.59053 0
M  V30 2422 H 241.02 -2.51701 4.42181 0
M  V30 2423 H 240.418 -5.06567 2.51806 0
M  V30 2424 H 238.975 -5.65544 3.24043 0
M  V30 2425 N 242.408 -1.52605 -0.393616 0
M  V30 2426 C 243.657 -1.66649 -1.13627 0
M  V30 2427 C 243.97 -0.410364 -1.91247 0
M  V30 2428 O 245.176 -0.430854 -2.68059 0
M  V30 2429 C 243.632 -2.9449 -2.06891 0
M  V30 2430 C 243.24 -4.27266 -1.34714 0
M  V30 2431 C 244.984 -3.17899 -2.81319 0
M  V30 2432 C 242.891 -5.46217 -2.26717 0
M  V30 2433 H 241.821 -0.62084 -0.427871 0
M  V30 2434 H 244.472 -1.791 -0.399428 0
M  V30 2435 H 242.854 -2.75774 -2.84191 0
M  V30 2436 H 244.028 -4.56518 -0.626714 0
M  V30 2437 H 242.343 -4.10081 -0.722643 0
M  V30 2438 H 244.94 -4.03949 -3.50328 0
M  V30 2439 H 245.283 -2.32777 -3.45139 0
M  V30 2440 H 245.816 -3.37159 -2.11113 0
M  V30 2441 H 242.555 -6.33733 -1.67521 0
M  V30 2442 H 242.075 -5.21283 -2.96689 0
M  V30 2443 H 243.754 -5.7991 -2.86903 0
M  V30 2444 N 243.887 0.651787 -1.4349 0
M  V30 2445 C 245.303 0.96762 -1.26922 0
M  V30 2446 C 245.503 2.00602 -0.189982 0
M  V30 2447 O 244.559 2.48793 0.431107 0
M  V30 2448 C 245.872 1.45052 -2.63401 0
M  V30 2449 C 247.42 1.5671 -2.70945 0
M  V30 2450 C 247.895 2.0839 -4.07845 0
M  V30 2451 N 249.386 2.1569 -4.09917 0
M  V30 2452 C 250.121 2.56804 -5.12679 0
M  V30 2453 N 249.617 2.97203 -6.25813 0
M  V30 2454 N 251.41 2.56756 -5.00033 0
M  V30 2455 H 243.561 -0.0353158 -2.12371 0
M  V30 2456 H 245.824 0.0467858 -0.946845 0
M  V30 2457 H 245.53 0.761926 -3.43348 0
M  V30 2458 H 245.404 2.42529 -2.88894 0
M  V30 2459 H 247.791 2.2467 -1.9133 0
M  V30 2460 H 247.872 0.57662 -2.49216 0
M  V30 2461 H 247.516 1.41031 -4.87927 0
M  V30 2462 H 247.446 3.08271 -4.26938 0
M  V30 2463 H 249.937 1.87237 -3.28254 0
M  V30 2464 H 250.25 3.27328 -7.00055 0
M  V30 2465 H 248.595 2.95004 -6.29283 0
M  V30 2466 H 251.786 2.24572 -4.10713 0
M  V30 2467 H 251.959 2.88475 -5.80247 0
M  V30 2468 N 245.365 1.30045 0.890287 0
M  V30 2469 C 246.312 1.15976 1.99545 0
M  V30 2470 C 247.282 0.0506202 1.66023 0
M  V30 2471 O 248.467 0.219847 1.89529 0
M  V30 2472 C 245.607 0.852054 3.34416 0
M  V30 2473 C 244.72 2.04255 3.80662 0
M  V30 2474 C 243.855 1.6734 5.04154 0
M  V30 2475 C 242.894 2.82916 5.42794 0
M  V30 2476 N 242.031 2.46333 6.57468 0
M  V30 2477 H 246.871 2.10524 2.10911 0
M  V30 2478 H 244.408 1.04749 1.03276 0
M  V30 2479 H 246.366 0.654296 4.12037 0
M  V30 2480 H 244.996 -0.0565502 3.2275 0
M  V30 2481 H 244.048 2.35172 2.98995 0
M  V30 2482 H 245.36 2.90826 4.05242 0
M  V30 2483 H 244.514 1.43908 5.89386 0
M  V30 2484 H 243.253 0.779308 4.81433 0
M  V30 2485 H 242.258 3.0702 4.56091 0
M  V30 2486 H 243.483 3.73004 5.6749 0
M  V30 2487 H 241.429 1.59423 6.36334 0
M  V30 2488 H 241.346 3.26436 6.81891 0
M  V30 2489 H 242.614 2.26244 7.45945 0
M  V30 2490 N 246.843 -1.10192 1.12674 0
M  V30 2491 C 247.79 -2.16606 0.796906 0
M  V30 2492 C 248.76 -1.64394 -0.237476 0
M  V30 2493 O 249.945 -1.90474 -0.111484 0
M  V30 2494 C 247.085 -3.44116 0.26043 0
M  V30 2495 C 246.198 -4.10268 1.35293 0
M  V30 2496 C 245.333 -5.25507 0.775621 0
M  V30 2497 C 244.372 -5.83567 1.84706 0
M  V30 2498 N 243.509 -6.90179 1.28829 0
M  V30 2499 H 248.349 -2.44163 1.70846 0
M  V30 2500 H 245.886 -1.19846 0.85295 0
M  V30 2501 H 247.844 -4.17143 -0.0686814 0
M  V30 2502 H 246.474 -3.16901 -0.614274 0
M  V30 2503 H 245.526 -3.35184 1.79877 0
M  V30 2504 H 246.838 -4.4946 2.16303 0
M  V30 2505 H 245.992 -6.05398 0.397327 0
M  V30 2506 H 244.731 -4.87656 -0.0656581 0
M  V30 2507 H 243.736 -5.02344 2.23452 0
M  V30 2508 H 244.961 -6.23482 2.69161 0
M  V30 2509 H 242.907 -6.54322 0.468881 0
M  V30 2510 H 242.824 -7.28097 2.03497 0
M  V30 2511 H 244.092 -7.73844 0.937311 0
M  V30 2512 N 248.321 -0.919034 -1.28029 0
M  V30 2513 C 249.268 -0.410005 -2.27129 0
M  V30 2514 C 250.238 0.518405 -1.57803 0
M  V30 2515 O 251.423 0.439451 -1.8567 0
M  V30 2516 C 248.563 0.339054 -3.4343 0
M  V30 2517 C 247.676 -0.622468 -4.27492 0
M  V30 2518 C 246.811 0.145567 -5.31001 0
M  V30 2519 C 245.85 -0.809226 -6.06727 0
M  V30 2520 N 244.987 -0.0743728 -7.02061 0
M  V30 2521 H 249.827 -1.26011 -2.70047 0
M  V30 2522 H 247.364 -0.632663 -1.328 0
M  V30 2523 H 249.322 0.789586 -4.0966 0
M  V30 2524 H 247.952 1.15346 -3.01488 0
M  V30 2525 H 247.004 -1.19153 -3.61257 0
M  V30 2526 H 248.316 -1.35252 -4.80113 0
M  V30 2527 H 247.47 0.656417 -6.03139 0
M  V30 2528 H 246.209 0.908643 -4.79161 0
M  V30 2529 H 245.214 -1.3314 -5.33436 0
M  V30 2530 H 246.439 -1.57194 -6.60656 0
M  V30 2531 H 244.385 0.670616 -6.52563 0
M  V30 2532 H 244.302 -0.744157 -7.52329 0
M  V30 2533 H 245.57 0.416109 -7.78389 0
M  V30 2534 N 249.799 1.42003 -0.683588 0
M  V30 2535 C 251.048 2.00638 -0.206681 0
M  V30 2536 C 251.361 1.5472 1.19671 0
M  V30 2537 O 252.567 2.05833 1.77045 0
M  V30 2538 C 251.023 3.58487 -0.318632 0
M  V30 2539 C 250.631 4.1339 -1.72663 0
M  V30 2540 C 252.375 4.24384 0.0991141 0
M  V30 2541 C 250.282 5.63633 -1.79087 0
M  V30 2542 H 249.212 0.750408 -0.0735107 0
M  V30 2543 H 251.863 1.62624 -0.850048 0
M  V30 2544 H 250.245 3.94047 0.392781 0
M  V30 2545 H 251.419 3.89273 -2.46583 0
M  V30 2546 H 249.734 3.59976 -2.09299 0
M  V30 2547 H 252.331 5.34652 0.0713833 0
M  V30 2548 H 252.674 4.00505 1.13586 0
M  V30 2549 H 253.207 3.93816 -0.561599 0
M  V30 2550 H 249.946 5.92323 -2.80774 0
M  V30 2551 H 249.466 5.89714 -1.09535 0
M  V30 2552 H 251.145 6.28201 -1.5483 0
M  V30 2553 N 251.277 0.427512 1.51691 0
M  V30 2554 C 252.693 0.0792977 1.59403 0
M  V30 2555 C 252.893 -1.41035 1.43914 0
M  V30 2556 O 251.949 -2.17922 1.27539 0
M  V30 2557 C 253.262 0.590636 2.94842 0
M  V30 2558 C 254.81 0.550215 3.08126 0
M  V30 2559 C 255.285 1.03836 4.46074 0
M  V30 2560 N 256.776 0.995943 4.52366 0
M  V30 2561 C 257.511 1.34463 5.57411 0
M  V30 2562 N 257.007 1.76569 6.69922 0
M  V30 2563 N 258.8 1.26343 5.47717 0
M  V30 2564 H 250.951 1.39687 1.60004 0
M  V30 2565 H 253.214 0.575003 0.753708 0
M  V30 2566 H 252.92 1.63251 3.11516 0
M  V30 2567 H 252.794 0.0102061 3.77199 0
M  V30 2568 H 255.181 -0.482654 2.91126 0
M  V30 2569 H 255.262 1.16693 2.27632 0
M  V30 2570 H 254.906 2.06965 4.63819 0
M  V30 2571 H 254.836 0.398286 5.25092 0
M  V30 2572 H 257.327 0.68661 3.7161 0
M  V30 2573 H 257.64 2.01438 7.46085 0
M  V30 2574 H 255.985 1.80488 6.71155 0
M  V30 2575 H 259.176 0.933209 4.58703 0
M  V30 2576 H 259.349 1.53846 6.29472 0
M  V30 2577 N 252.755 -1.56801 0.158532 0
M  V30 2578 C 253.702 -2.17337 -0.776729 0
M  V30 2579 C 254.672 -1.1096 -1.23601 0
M  V30 2580 O 255.857 -1.39054 -1.30647 0
M  V30 2581 C 252.997 -2.80822 -2.00582 0
M  V30 2582 C 252.11 -4.01624 -1.59129 0
M  V30 2583 C 251.245 -4.53072 -2.77306 0
M  V30 2584 C 250.284 -5.66314 -2.32282 0
M  V30 2585 N 249.421 -6.12329 -3.43508 0
M  V30 2586 H 254.261 -2.96918 -0.253701 0
M  V30 2587 H 251.798 -1.46661 -0.113504 0
M  V30 2588 H 253.756 -3.15779 -2.72652 0
M  V30 2589 H 252.386 -2.03866 -2.50277 0
M  V30 2590 H 251.438 -3.72571 -0.767806 0
M  V30 2591 H 252.75 -4.83633 -1.2207 0
M  V30 2592 H 251.904 -4.90145 -3.57551 0
M  V30 2593 H 250.643 -3.70095 -3.17617 0
M  V30 2594 H 249.648 -5.28806 -1.5048 0
M  V30 2595 H 250.873 -6.51085 -1.93043 0
M  V30 2596 H 248.819 -5.32284 -3.83418 0
M  V30 2597 H 248.736 -6.89293 -3.105 0
M  V30 2598 H 250.004 -6.5405 -4.24075 0
M  V30 2599 N 254.233 0.115231 -1.57178 0
M  V30 2600 C 255.165 1.16694 -1.97269 0
M  V30 2601 C 256.178 1.37445 -0.872502 0
M  V30 2602 O 257.367 1.36454 -1.15077 0
M  V30 2603 C 254.467 2.52627 -2.25905 0
M  V30 2604 C 253.64 2.52427 -3.57211 0
M  V30 2605 C 252.699 3.70134 -3.74016 0
M  V30 2606 O 251.725 3.53546 -4.46087 0
M  V30 2607 N 252.927 4.88844 -3.13068 0
M  V30 2608 H 255.692 0.82588 -2.88096 0
M  V30 2609 H 253.253 0.304461 -1.59011 0
M  V30 2610 H 255.245 3.29937 -2.34359 0
M  V30 2611 H 253.815 2.789 -1.41186 0
M  V30 2612 H 253.035 1.60805 -3.5991 0
M  V30 2613 H 254.323 2.49353 -4.43509 0
M  V30 2614 H 253.721 5.05225 -2.54489 0
M  V30 2615 H 252.278 5.63817 -3.27037 0
M  V30 2616 N 255.711 1.52812 0.385517 0
M  V30 2617 C 256.643 1.74096 1.49074 0
M  V30 2618 C 257.656 0.621462 1.50472 0
M  V30 2619 O 258.845 0.897245 1.54311 0
M  V30 2620 C 255.945 1.78774 2.87911 0
M  V30 2621 C 255.118 3.08134 3.10439 0
M  V30 2622 C 254.177 3.04313 4.29278 0
M  V30 2623 O 253.203 3.78168 4.25415 0
M  V30 2624 N 254.405 2.23741 5.35649 0
M  V30 2625 H 257.17 2.69455 1.31202 0
M  V30 2626 H 254.731 1.51343 0.575065 0
M  V30 2627 H 256.723 1.73721 3.65518 0
M  V30 2628 H 255.293 0.907869 2.99126 0
M  V30 2629 H 254.513 3.26649 2.20667 0
M  V30 2630 H 255.801 3.93662 3.22347 0
M  V30 2631 H 255.199 1.63211 5.41645 0
M  V30 2632 H 253.756 2.24524 6.11909 0
M  V30 2633 N 257.189 -0.644168 1.43834 0
M  V30 2634 C 258.121 -1.76955 1.45669 0
M  V30 2635 C 259.134 -1.58956 0.351666 0
M  V30 2636 O 260.323 -1.6751 0.616644 0
M  V30 2637 C 257.423 -3.14507 1.26248 0
M  V30 2638 C 256.596 -3.59083 2.49757 0
M  V30 2639 C 255.655 -4.75467 2.25427 0
M  V30 2640 O 254.681 -4.84444 2.98836 0
M  V30 2641 N 255.883 -5.66289 1.27661 0
M  V30 2642 H 258.648 -1.75856 2.42682 0
M  V30 2643 H 256.209 -0.828312 1.39106 0
M  V30 2644 H 258.201 -3.90067 1.0784 0
M  V30 2645 H 256.771 -3.10325 0.376478 0
M  V30 2646 H 255.991 -2.7387 2.8353 0
M  V30 2647 H 257.279 -3.85613 3.31934 0
M  V30 2648 H 256.677 -5.61718 0.670064 0
M  V30 2649 H 255.234 -6.41533 1.15234 0
M  V30 2650 N 258.668 -1.30515 -0.883378 0
M  V30 2651 C 259.578 -1.18959 -2.02203 0
M  V30 2652 C 260.594 -0.109172 -1.73657 0
M  V30 2653 O 261.77 -0.324413 -1.9877 0
M  V30 2654 C 258.835 -0.883871 -3.35244 0
M  V30 2655 C 257.896 -2.04982 -3.77201 0
M  V30 2656 C 257.129 -1.75859 -5.03894 0
M  V30 2657 O 257.352 -0.687276 -5.66244 0
M  V30 2658 O 256.286 -2.61146 -5.42297 0
M  V30 2659 H 260.112 -2.14616 -2.1488 0
M  V30 2660 H 257.697 -1.10124 -1.0096 0
M  V30 2661 H 259.579 -0.728644 -4.15053 0
M  V30 2662 H 258.254 0.0427798 -3.23672 0
M  V30 2663 H 257.161 -2.26038 -2.9809 0
M  V30 2664 H 258.494 -2.95825 -3.93381 0
M  V30 2665 N 260.146 1.09593 -1.13257 0
M  V30 2666 C 261.371 1.8604 -0.916732 0
M  V30 2667 C 261.796 1.80504 0.529146 0
M  V30 2668 O 261.154 1.18127 1.37534 0
M  V30 2669 C 261.202 3.32017 -1.40703 0
M  V30 2670 O 260.306 4.08141 -0.591153 0
M  V30 2671 H 259.647 0.576943 -0.328683 0
M  V30 2672 H 262.177 1.38405 -1.50682 0
M  V30 2673 H 262.187 3.82865 -1.4099 0
M  V30 2674 H 260.862 3.35361 -2.45979 0
M  V30 2675 H 259.439 3.67084 -0.656005 0
M  V30 2676 N 261.624 0.925811 1.2754 0
M  V30 2677 C 262.556 0.380753 2.26015 0
M  V30 2678 C 263.569 -0.487485 1.5533 0
M  V30 2679 O 264.758 -0.300413 1.75954 0
M  V30 2680 C 261.858 -0.473259 3.35579 0
M  V30 2681 C 261.031 0.375249 4.35787 0
M  V30 2682 C 260.09 -0.415809 5.24555 0
M  V30 2683 O 259.116 0.175834 5.68928 0
M  V30 2684 N 260.318 -1.71607 5.54555 0
M  V30 2685 H 263.083 1.22725 2.73421 0
M  V30 2686 H 260.644 0.793037 1.41147 0
M  V30 2687 H 262.636 -1.00949 3.91907 0
M  V30 2688 H 261.206 -1.2205 2.87789 0
M  V30 2689 H 260.426 1.09279 3.7875 0
M  V30 2690 H 261.714 0.955399 4.99749 0
M  V30 2691 H 261.112 -2.2191 5.20358 0
M  V30 2692 H 259.669 -2.19887 6.1359 0
M  V30 2693 N 263.102 -1.41638 0.69111 0
M  V30 2694 C 264.327 -2.06148 0.227583 0
M  V30 2695 C 264.752 -1.51652 -1.11281 0
M  V30 2696 O 264.11 -0.64164 -1.69566 0
M  V30 2697 C 264.158 -3.60095 0.190858 0
M  V30 2698 O 263.262 -4.03845 -0.835664 0
M  V30 2699 H 262.603 -0.654434 0.112306 0
M  V30 2700 H 265.133 -1.81484 0.944714 0
M  V30 2701 H 265.143 -4.07995 0.020207 0
M  V30 2702 H 263.818 -3.99129 1.16915 0
M  V30 2703 H 262.395 -3.67458 -0.63473 0
M  V30 2704 N 264.58 -0.43555 -1.51462 0
M  V30 2705 C 265.512 0.41257 -2.25456 0
M  V30 2706 C 266.525 0.987822 -1.29406 0
M  V30 2707 O 267.714 0.882266 -1.55172 0
M  V30 2708 C 264.814 1.58894 -2.99342 0
M  V30 2709 C 263.987 1.13288 -4.22474 0
M  V30 2710 C 263.046 2.17917 -4.78956 0
M  V30 2711 O 262.072 1.77425 -5.40841 0
M  V30 2712 N 263.274 3.50382 -4.62832 0
M  V30 2713 H 266.039 -0.221603 -2.9888 0
M  V30 2714 H 263.6 -0.264342 -1.59727 0
M  V30 2715 H 265.592 2.28508 -3.34015 0
M  V30 2716 H 264.162 2.12849 -2.28941 0
M  V30 2717 H 263.382 0.263881 -3.93316 0
M  V30 2718 H 264.67 0.805542 -5.02383 0
M  V30 2719 H 264.068 3.86013 -4.13534 0
M  V30 2720 H 262.625 4.15895 -5.01871 0
M  V30 2721 N 266.058 1.56714 -0.166846 0
M  V30 2722 C 267.283 2.01557 0.488833 0
M  V30 2723 C 267.708 1.0463 1.56314 0
M  V30 2724 O 267.066 0.0251304 1.81283 0
M  V30 2725 C 267.114 3.4503 1.04818 0
M  V30 2726 O 266.218 3.51163 2.16236 0
M  V30 2727 H 265.559 0.653516 0.117526 0
M  V30 2728 H 268.089 2.02818 -0.269421 0
M  V30 2729 H 268.099 3.84243 1.37191 0
M  V30 2730 H 266.774 4.15077 0.261572 0
M  V30 2731 H 265.351 3.23807 1.84942 0
M  V30 2732 N 267.536 -0.106894 1.57237 0
M  V30 2733 C 268.468 -1.15646 1.97885 0
M  V30 2734 C 269.481 -1.36981 0.879779 0
M  V30 2735 O 270.67 -1.35841 1.15799 0
M  V30 2736 C 267.77 -2.51425 2.27241 0
M  V30 2737 C 266.943 -2.50529 3.58545 0
M  V30 2738 C 266.002 -3.68145 3.75973 0
M  V30 2739 O 265.028 -3.51176 4.47956 0
M  V30 2740 N 266.23 -4.87177 3.15656 0
M  V30 2741 H 268.995 -0.81059 2.8853 0
M  V30 2742 H 266.556 -0.296024 1.59171 0
M  V30 2743 H 268.548 -3.28689 2.36105 0
M  V30 2744 H 267.118 -2.78147 1.42663 0
M  V30 2745 H 266.338 -1.58894 3.60758 0
M  V30 2746 H 267.626 -2.46997 4.44826 0
M  V30 2747 H 267.024 -5.03868 2.57165 0
M  V30 2748 H 265.581 -5.62075 3.30023 0
M  V30 2749 N 269.014 -1.53014 -0.377408 0
M  V30 2750 C 270.239 -1.72818 -1.14668 0
M  V30 2751 C 270.664 -0.450725 -1.8262 0
M  V30 2752 O 270.022 0.59439 -1.7128 0
M  V30 2753 C 270.07 -2.88627 -2.16164 0
M  V30 2754 O 269.174 -2.56409 -3.22998 0
M  V30 2755 H 268.515 -0.574301 -0.333278 0
M  V30 2756 H 271.045 -1.99853 -0.438152 0
M  V30 2757 H 271.055 -3.14455 -2.59966 0
M  V30 2758 H 269.73 -3.81294 -1.66095 0
M  V30 2759 H 268.307 -2.4136 -2.84253 0
M  V30 2760 N 270.492 0.636531 -1.44174 0
M  V30 2761 C 271.903 1.21806 -1.41493 0
M  V30 2762 C 272.254 1.95785 -0.1275 0
M  V30 2763 O 271.379 2.02147 0.772376 0
M  V30 2764 C 271.974 2.21551 -2.56321 0
M  V30 2765 C 270.533 2.75143 -2.56853 0
M  V30 2766 C 269.68 1.50052 -2.33195 0
M  V30 2767 H 272.631 0.427531 -1.52833 0
M  V30 2768 H 272.652 3.0405 -2.28765 0
M  V30 2769 H 272.164 1.67679 -3.50008 0
M  V30 2770 H 270.265 3.33033 -1.67093 0
M  V30 2771 H 270.378 3.2155 -3.55165 0
M  V30 2772 H 268.742 1.77993 -1.82183 0
M  V30 2773 H 269.525 0.980903 -3.28988 0
M  V30 2774 N 271.97 1.30982 0.876444 0
M  V30 2775 C 273.216 1.20474 1.63138 0
M  V30 2776 C 273.549 -0.238096 1.92735 0
M  V30 2777 O 272.824 -1.1692 1.55435 0
M  V30 2778 C 273.107 2.04244 2.96574 0
M  V30 2779 C 272.96 3.56793 2.73896 0
M  V30 2780 C 274.279 1.88684 3.97601 0
M  V30 2781 H 271.398 0.439001 0.591985 0
M  V30 2782 H 274.04 1.60704 1.01361 0
M  V30 2783 H 272.19 1.70063 3.493 0
M  V30 2784 H 273.862 4.01077 2.27892 0
M  V30 2785 H 272.105 3.80548 2.08245 0
M  V30 2786 H 272.776 4.10706 3.68815 0
M  V30 2787 H 275.252 2.18584 3.54062 0
M  V30 2788 H 274.128 2.4961 4.88862 0
M  V30 2789 H 274.389 0.848343 4.33884 0
M  V30 2790 N 273.449 -1.08991 1.13837 0
M  V30 2791 C 274.697 -1.80899 0.901098 0
M  V30 2792 C 275.018 -1.86356 -0.574134 0
M  V30 2793 O 274.288 -1.35235 -1.41733 0
M  V30 2794 H 272.868 -0.669966 0.330386 0
M  V30 2795 H 275.53 -1.318 1.43578 0
M  V30 2796 H 274.626 -2.83929 1.29578 0
M  V30 2797 N 274.927 -0.932562 -1.27047 0
M  V30 2798 C 276.338 -0.619451 -1.76124 0
M  V30 2799 C 276.689 0.865397 -1.76083 0
M  V30 2800 O 275.814 1.67722 -1.36742 0
M  V30 2801 C 276.409 -1.11771 -3.19832 0
M  V30 2802 C 274.968 -0.855174 -3.66557 0
M  V30 2803 C 274.115 -1.27362 -2.46321 0
M  V30 2804 H 277.066 -1.11181 -1.13245 0
M  V30 2805 H 277.087 -0.46759 -3.77616 0
M  V30 2806 H 276.599 -2.19842 -3.1983 0
M  V30 2807 H 274.7 0.211524 -3.71999 0
M  V30 2808 H 274.813 -1.47613 -4.55793 0
M  V30 2809 H 273.177 -0.692119 -2.45116 0
M  V30 2810 H 273.96 -2.36307 -2.49025 0
M  V30 2811 N 276.405 1.4127 -0.698611 0
M  V30 2812 C 277.337 2.292 0.00399731 0
M  V30 2813 C 278.35 1.44944 0.741279 0
M  V30 2814 O 279.539 1.68416 0.591477 0
M  V30 2815 C 276.639 3.22875 1.02979 0
M  V30 2816 C 275.812 4.35904 0.36151 0
M  V30 2817 C 274.871 5.10134 1.29033 0
M  V30 2818 O 273.897 5.63809 0.781562 0
M  V30 2819 N 275.099 5.17885 2.6225 0
M  V30 2820 H 277.864 2.9014 -0.750921 0
M  V30 2821 H 275.425 1.52455 -0.544882 0
M  V30 2822 H 277.417 3.69404 1.65296 0
M  V30 2823 H 275.987 2.63221 1.68622 0
M  V30 2824 H 275.207 3.91719 -0.441584 0
M  V30 2825 H 276.495 5.08696 -0.103055 0
M  V30 2826 H 275.893 4.7573 3.061 0
M  V30 2827 H 274.45 5.6798 3.19754 0
M  V30 2828 N 277.883 0.443576 1.51229 0
M  V30 2829 C 279.131 -0.120557 2.0174 0
M  V30 2830 C 279.452 -1.42665 1.32935 0
M  V30 2831 O 278.722 -1.9028 0.465866 0
M  V30 2832 H 277.302 -0.0475426 0.745486 0
M  V30 2833 H 279.964 0.587711 1.85828 0
M  V30 2834 H 279.06 -0.291972 3.10731 0
M  V30 2835 N 279.361 -1.56624 0.175154 0
M  V30 2836 C 280.586 -2.01813 -0.478137 0
M  V30 2837 C 281.011 -1.05457 -1.55757 0
M  V30 2838 O 280.369 -0.0347439 -1.81267 0
M  V30 2839 C 280.417 -3.45581 -1.02987 0
M  V30 2840 O 279.521 -3.52305 -2.14371 0
M  V30 2841 H 278.862 -0.65413 -0.114059 0
M  V30 2842 H 281.392 -2.02673 0.280173 0
M  V30 2843 H 281.402 -3.84965 -1.35151 0
M  V30 2844 H 280.077 -4.1521 -0.239556 0
M  V30 2845 H 278.654 -3.24783 -1.83222 0
M  V30 2846 N 280.839 0.0985539 -1.57292 0
M  V30 2847 C 282.064 0.820196 -1.90493 0
M  V30 2848 C 282.489 1.71658 -0.769094 0
M  V30 2849 O 281.847 1.79133 0.279495 0
M  V30 2850 C 281.895 1.61242 -3.22542 0
M  V30 2851 O 280.999 2.72108 -3.09888 0
M  V30 2852 H 280.34 0.225547 -0.62452 0
M  V30 2853 H 282.87 0.0748159 -2.04463 0
M  V30 2854 H 282.88 1.99737 -3.55766 0
M  V30 2855 H 281.555 0.954535 -4.04798 0
M  V30 2856 H 280.132 2.36667 -2.88172 0
M  V30 2857 N 282.317 1.53212 0.369288 0
M  V30 2858 C 283.542 1.73423 1.1375 0
M  V30 2859 C 283.967 0.460404 1.82378 0
M  V30 2860 O 283.325 -0.585298 1.71592 0
M  V30 2861 C 283.373 2.89769 2.1463 0
M  V30 2862 O 282.477 2.58119 3.21634 0
M  V30 2863 H 281.818 0.576061 0.330227 0
M  V30 2864 H 284.348 2.00083 0.427547 0
M  V30 2865 H 284.358 3.15829 2.58294 0
M  V30 2866 H 283.033 3.8217 1.64071 0
M  V30 2867 H 281.61 2.42864 2.82969 0
M  V30 2868 N 283.795 -0.628877 1.44509 0
M  V30 2869 C 285.02 -1.42048 1.5112 0
M  V30 2870 C 285.445 -1.87594 0.137818 0
M  V30 2871 O 284.803 -1.58873 -0.873437 0
M  V30 2872 C 284.851 -2.61541 2.48251 0
M  V30 2873 O 283.955 -3.61453 1.98559 0
M  V30 2874 H 283.296 -0.424942 0.510216 0
M  V30 2875 H 285.826 -0.767374 1.89664 0
M  V30 2876 H 285.836 -3.09057 2.66361 0
M  V30 2877 H 284.511 -2.27736 3.48007 0
M  V30 2878 H 283.088 -3.20731 1.90227 0
M  V30 2879 N 285.273 -1.31445 -0.869486 0
M  V30 2880 C 286.236 -1.19094 -1.9583 0
M  V30 2881 C 287.236 -0.117906 -1.60367 0
M  V30 2882 O 288.426 -0.367208 -1.70286 0
M  V30 2883 C 285.558 -0.828165 -3.30688 0
M  V30 2884 H 286.751 -2.15842 -2.08212 0
M  V30 2885 H 284.304 -1.15063 -1.05784 0
M  V30 2886 H 285.039 0.138142 -3.24006 0
M  V30 2887 H 284.824 -1.6038 -3.578 0
M  V30 2888 H 286.314 -0.765658 -4.10521 0
M  V30 2889 N 286.751 1.08385 -1.14413 0
M  V30 2890 C 287.976 1.85057 -0.936413 0
M  V30 2891 C 288.401 1.81055 0.509971 0
M  V30 2892 O 287.759 1.1958 1.36273 0
M  V30 2893 C 287.807 3.30505 -1.44217 0
M  V30 2894 O 286.911 4.07491 -0.634409 0
M  V30 2895 H 286.252 0.573425 -0.334784 0
M  V30 2896 H 288.782 1.36799 -1.52142 0
M  V30 2897 H 288.792 3.81348 -1.45043 0
M  V30 2898 H 287.467 3.32734 -2.49522 0
M  V30 2899 H 286.044 3.66368 -0.694902 0
M  V30 2900 N 288.23 0.939286 1.26551 0
M  V30 2901 C 289.478 0.58469 1.93457 0
M  V30 2902 C 289.799 -0.878774 1.74076 0
M  V30 2903 O 289.069 -1.62421 1.09528 0
M  V30 2904 H 287.649 0.21325 0.715914 0
M  V30 2905 H 290.311 1.1942 1.54029 0
M  V30 2906 H 289.407 0.800849 3.0165 0
M  V30 2907 N 289.708 -1.40897 0.706093 0
M  V30 2908 C 291.119 -1.84023 0.315052 0
M  V30 2909 C 291.47 -1.5906 -1.14866 0
M  V30 2910 O 290.595 -1.06651 -1.88293 0
M  V30 2911 C 291.19 -3.34055 0.565038 0
M  V30 2912 C 289.749 -3.7571 0.227806 0
M  V30 2913 C 288.896 -2.64204 0.842122 0
M  V30 2914 H 291.847 -1.303 0.905963 0
M  V30 2915 H 291.868 -3.80107 -0.172843 0
M  V30 2916 H 291.38 -3.52192 1.63042 0
M  V30 2917 H 289.481 -3.63172 -0.832895 0
M  V30 2918 H 289.594 -4.74103 0.690174 0
M  V30 2919 H 287.958 -2.53255 0.270893 0
M  V30 2920 H 288.741 -2.85155 1.91158 0
M  V30 2921 N 291.186 -0.45159 -1.50991 0
M  V30 2922 C 292.434 0.109857 -2.01801 0
M  V30 2923 C 292.755 1.41958 -1.3369 0
M  V30 2924 O 292.025 1.9003 -0.475951 0
M  V30 2925 H 290.605 0.0435884 -0.745727 0
M  V30 2926 H 293.267 -0.597557 -1.85514 0
M  V30 2927 H 292.363 0.275489 -3.10882 0
M  V30 2928 N 292.664 1.56529 -0.183458 0
M  V30 2929 C 293.627 2.17324 0.728223 0
M  V30 2930 C 294.627 1.12453 1.14939 0
M  V30 2931 O 295.817 1.37902 1.06437 0
M  V30 2932 C 292.949 2.76591 1.99274 0
M  V30 2933 H 294.142 2.99241 0.198772 0
M  V30 2934 H 291.695 1.5616 0.0661391 0
M  V30 2935 H 292.43 1.98441 2.56499 0
M  V30 2936 H 292.215 3.5335 1.69959 0
M  V30 2937 H 293.705 3.23311 2.6431 0
M  V30 2938 N 294.142 -0.090211 1.57342 0
M  V30 2939 C 295.367 -0.810082 1.90925 0
M  V30 2940 C 295.792 -1.71248 0.778187 0
M  V30 2941 O 295.15 -1.79278 -0.269991 0
M  V30 2942 C 295.198 -1.59529 3.23393 0
M  V30 2943 O 294.302 -2.70461 3.11327 0
M  V30 2944 H 293.643 -0.222231 0.625707 0
M  V30 2945 H 296.173 -0.0639716 2.045 0
M  V30 2946 H 296.183 -1.97847 3.5682 0
M  V30 2947 H 294.858 -0.933055 4.05299 0
M  V30 2948 H 293.435 -2.35135 2.89423 0
M  V30 2949 N 295.62 -1.53406 -0.361157 0
M  V30 2950 C 297.031 -1.61442 -0.937728 0
M  V30 2951 C 297.382 -0.48461 -1.90121 0
M  V30 2952 O 296.507 0.388312 -2.12888 0
M  V30 2953 C 297.102 -2.92624 -1.70753 0
M  V30 2954 C 295.661 -3.02981 -2.23337 0
M  V30 2955 C 294.808 -2.5677 -1.04712 0
M  V30 2956 H 297.759 -1.58083 -0.139816 0
M  V30 2957 H 297.78 -2.80675 -2.56908 0
M  V30 2958 H 297.292 -3.74834 -1.00604 0
M  V30 2959 H 295.393 -2.25368 -2.96715 0
M  V30 2960 H 295.506 -4.0814 -2.50916 0
M  V30 2961 H 293.87 -2.11752 -1.41539 0
M  V30 2962 H 294.653 -3.41402 -0.360539 0
M  V30 2963 N 297.098 0.621204 -1.44841 0
M  V30 2964 C 298.346 1.37783 -1.47852 0
M  V30 2965 C 298.667 1.94653 -0.116224 0
M  V30 2966 O 297.937 1.76367 0.852737 0
M  V30 2967 H 296.517 0.511453 -0.544449 0
M  V30 2968 H 299.179 0.730446 -1.80694 0
M  V30 2969 H 298.275 2.20414 -2.20961 0
M  V30 2970 N 298.576 1.31904 0.862503 0
M  V30 2971 C 299.824 1.21776 1.61292 0
M  V30 2972 C 300.145 -0.222413 1.93727 0
M  V30 2973 O 299.415 -1.1451 1.58947 0
M  V30 2974 H 297.995 0.447717 0.597962 0
M  V30 2975 H 300.657 1.65326 1.03215 0
M  V30 2976 H 299.753 1.7948 2.5533 0
M  V30 2977 N 300.054 -1.07777 1.14986 0
M  V30 2978 C 301.279 -1.84558 0.946213 0
M  V30 2979 C 301.704 -1.81323 -0.500362 0
M  V30 2980 O 301.062 -1.20301 -1.35637 0
M  V30 2981 C 301.11 -3.29736 1.45968 0
M  V30 2982 O 300.214 -4.07149 0.65601 0
M  V30 2983 H 299.555 -0.571641 0.33782 0
M  V30 2984 H 302.085 -1.35991 1.52865 0
M  V30 2985 H 302.095 -3.80574 1.47063 0
M  V30 2986 H 300.77 -3.31406 2.51283 0
M  V30 2987 H 299.347 -3.65994 0.714322 0
M  V30 2988 N 301.532 -0.945985 -1.26051 0
M  V30 2989 C 302.442 -0.465633 -2.29933 0
M  V30 2990 C 303.458 0.462761 -1.67733 0
M  V30 2991 O 304.634 0.341118 -1.9849 0
M  V30 2992 C 301.699 0.256994 -3.45746 0
M  V30 2993 C 300.76 -0.708549 -4.23412 0
M  V30 2994 C 299.993 -0.0203135 -5.33696 0
M  V30 2995 O 300.216 1.19571 -5.57726 0
M  V30 2996 O 299.15 -0.701459 -5.97799 0
M  V30 2997 H 302.976 -1.32866 -2.73094 0
M  V30 2998 H 300.561 -0.712071 -1.31339 0
M  V30 2999 H 302.443 0.663852 -4.16138 0
M  V30 3000 H 301.118 1.09533 -3.04605 0
M  V30 3001 H 300.025 -1.16545 -3.55483 0
M  V30 3002 H 301.358 -1.51465 -4.68315 0
M  V30 3003 N 303.011 1.40521 -0.713556 0
M  V30 3004 C 303.974 2.29098 -0.0684347 0
M  V30 3005 C 304.974 1.45268 0.689472 0
M  V30 3006 O 306.164 1.66205 0.521677 0
M  V30 3007 C 303.296 3.28446 0.913024 0
M  V30 3008 H 304.489 2.87645 -0.84855 0
M  V30 3009 H 302.042 1.48809 -0.47809 0
M  V30 3010 H 302.777 2.74913 1.72027 0
M  V30 3011 H 302.562 3.90327 0.372472 0
M  V30 3012 H 304.052 3.94777 1.36165 0
M  V30 3013 N 304.489 0.459591 1.5075 0
M  V30 3014 C 305.737 -0.0991532 2.01857 0
M  V30 3015 C 306.058 -1.41247 1.34441 0
M  V30 3016 O 305.328 -1.89775 0.486022 0
M  V30 3017 H 303.908 -0.039633 0.745948 0
M  V30 3018 H 306.57 0.607387 1.85194 0
M  V30 3019 H 305.666 -0.258998 3.11023 0
M  V30 3020 N 305.967 -1.56429 0.191757 0
M  V30 3021 C 307.192 -2.02309 -0.456706 0
M  V30 3022 C 307.617 -1.07103 -1.5463 0
M  V30 3023 O 306.975 -0.0539677 -1.8122 0
M  V30 3024 C 307.023 -3.46654 -0.993159 0
M  V30 3025 O 306.127 -3.54559 -2.10622 0
M  V30 3026 H 305.468 -0.655303 -0.107114 0
M  V30 3027 H 307.998 -2.02364 0.301653 0
M  V30 3028 H 308.008 -3.86377 -1.31061 0
M  V30 3029 H 306.683 -4.1544 -0.195504 0
M  V30 3030 H 305.26 -3.26708 -1.79767 0
M  V30 3031 N 307.445 0.0818655 -1.57387 0
M  V30 3032 C 308.377 1.12484 -1.997 0
M  V30 3033 C 309.39 1.35564 -0.90146 0
M  V30 3034 O 310.579 1.33982 -1.17945 0
M  V30 3035 C 307.679 2.47778 -2.31213 0
M  V30 3036 C 306.852 2.44793 -3.62485 0
M  V30 3037 C 305.911 3.62117 -3.81782 0
M  V30 3038 O 304.937 3.44005 -4.53486 0
M  V30 3039 N 306.139 4.82094 -3.23367 0
M  V30 3040 H 308.904 0.764585 -2.89783 0
M  V30 3041 H 306.465 0.270664 -1.59621 0
M  V30 3042 H 308.457 3.24891 -2.41304 0
M  V30 3043 H 307.027 2.75843 -1.4707 0
M  V30 3044 H 306.247 1.53134 -3.6324 0
M  V30 3045 H 307.535 2.39889 -4.48699 0
M  V30 3046 H 306.933 4.99713 -2.65148 0
M  V30 3047 H 305.49 5.56753 -3.38923 0
M  V30 3048 N 308.923 1.53595 0.353017 0
M  V30 3049 C 310.171 1.70049 1.09215 0
M  V30 3050 C 310.492 0.461406 1.89463 0
M  V30 3051 O 309.762 -0.524633 1.88744 0
M  V30 3052 H 308.342 0.626912 0.40619 0
M  V30 3053 H 311.004 1.90822 0.396585 0
M  V30 3054 H 310.1 2.56718 1.77488 0
M  V30 3055 N 310.401 -0.613514 1.45168 0
M  V30 3056 C 311.626 -1.40437 1.52618 0
M  V30 3057 C 312.051 -1.87438 0.157707 0
M  V30 3058 O 311.409 -1.59791 -0.856537 0
M  V30 3059 C 311.457 -2.58894 2.51011 0
M  V30 3060 O 310.561 -3.59326 2.02382 0
M  V30 3061 H 309.902 -0.419506 0.514695 0
M  V30 3062 H 312.432 -0.747215 1.90467 0
M  V30 3063 H 312.442 -3.06214 2.69624 0
M  V30 3064 H 311.117 -2.24032 3.50403 0
M  V30 3065 H 309.694 -3.18695 1.93618 0
M  V30 3066 N 311.879 -1.3236 -0.855495 0
M  V30 3067 C 313.127 -1.22629 -1.60644 0
M  V30 3068 C 313.448 0.212136 -1.93843 0
M  V30 3069 O 312.718 1.13666 -1.59552 0
M  V30 3070 H 311.298 -0.450882 -0.595579 0
M  V30 3071 H 313.96 -1.65871 -1.02337 0
M  V30 3072 H 313.056 -1.80832 -2.54374 0
M  V30 3073 N 313.357 1.07166 -1.15556 0
M  V30 3074 C 314.267 2.17947 -0.868116 0
M  V30 3075 C 315.283 1.73297 0.156297 0
M  V30 3076 O 316.459 2.01392 -0.0182327 0
M  V30 3077 C 313.524 3.44789 -0.36355 0
M  V30 3078 C 312.585 4.03996 -1.45209 0
M  V30 3079 C 311.818 5.24783 -0.971508 0
M  V30 3080 O 312.041 5.70109 0.182194 0
M  V30 3081 O 310.975 5.75715 -1.75603 0
M  V30 3082 H 314.801 2.4503 -1.79427 0
M  V30 3083 H 312.386 1.16539 -0.934824 0
M  V30 3084 H 314.268 4.21307 -0.0887113 0
M  V30 3085 H 312.943 3.19253 0.534708 0
M  V30 3086 H 311.85 3.29009 -1.78056 0
M  V30 3087 H 313.183 4.33808 -2.32533 0
M  V30 3088 N 314.835 0.952656 1.25548 0
M  V30 3089 C 316.083 0.605176 1.92826 0
M  V30 3090 C 316.404 -0.860261 1.74999 0
M  V30 3091 O 315.674 -1.6125 1.11244 0
M  V30 3092 H 314.254 0.220832 0.713612 0
M  V30 3093 H 316.916 1.21047 1.52754 0
M  V30 3094 H 316.012 0.832798 3.00784 0
M  V30 3095 N 316.313 -1.40141 0.720998 0
M  V30 3096 C 317.223 -2.34486 0.0731031 0
M  V30 3097 C 318.239 -1.57587 -0.737723 0
M  V30 3098 O 319.415 -1.89949 -0.669429 0
M  V30 3099 C 316.48 -3.36528 -0.833656 0
M  V30 3100 C 315.541 -4.29298 -0.0121673 0
M  V30 3101 C 314.774 -5.26466 -0.875742 0
M  V30 3102 O 314.997 -5.29745 -2.11485 0
M  V30 3103 O 313.931 -6.01092 -0.31185 0
M  V30 3104 H 317.757 -2.9152 0.851444 0
M  V30 3105 H 315.342 -1.41427 0.481527 0
M  V30 3106 H 317.224 -3.99093 -1.35289 0
M  V30 3107 H 315.899 -2.81899 -1.59105 0
M  V30 3108 H 314.806 -3.70001 0.552262 0
M  V30 3109 H 316.139 -4.87094 0.707129 0
M  V30 3110 N 317.792 -0.46758 -1.50504 0
M  V30 3111 C 319.04 0.0884469 -2.01906 0
M  V30 3112 C 319.361 1.40532 -1.35188 0
M  V30 3113 O 318.631 1.89515 -0.496079 0
M  V30 3114 H 317.211 0.0356765 -0.746148 0
M  V30 3115 H 319.873 -0.6172 -1.84869 0
M  V30 3116 H 318.969 0.2425 -3.11156 0
M  V30 3117 N 319.27 1.56325 -0.20005 0
M  V30 3118 C 320.516 1.98012 0.438059 0
M  V30 3119 C 320.849 1.08702 1.60927 0
M  V30 3120 O 320.124 0.140064 1.93995 0
M  V30 3121 C 320.407 3.48841 0.893419 0
M  V30 3122 C 320.26 4.48928 -0.279947 0
M  V30 3123 C 321.579 4.03498 1.75719 0
M  V30 3124 H 318.698 0.719918 0.157757 0
M  V30 3125 H 321.34 1.87743 -0.291968 0
M  V30 3126 H 319.49 3.57723 1.51547 0
M  V30 3127 H 321.162 4.52079 -0.91772 0
M  V30 3128 H 319.405 4.23694 -0.930919 0
M  V30 3129 H 320.076 5.5194 0.0812601 0
M  V30 3130 H 322.552 3.97427 1.23253 0
M  V30 3131 H 321.428 5.09393 2.04476 0
M  V30 3132 H 321.689 3.4906 2.71311 0
M  V30 3133 N 320.748 -0.0735177 1.57428 0
M  V30 3134 C 321.68 -1.11423 2.00294 0
M  V30 3135 C 322.693 -1.35084 0.908637 0
M  V30 3136 O 323.882 -1.33355 1.18654 0
M  V30 3137 C 320.982 -2.46548 2.32523 0
M  V30 3138 C 320.155 -2.42867 3.63778 0
M  V30 3139 C 319.214 -3.60087 3.83697 0
M  V30 3140 O 318.24 -3.41595 4.55304 0
M  V30 3141 N 319.442 -4.80372 3.25919 0
M  V30 3142 H 322.207 -0.749206 2.90184 0
M  V30 3143 H 319.768 -0.262195 1.59763 0
M  V30 3144 H 321.76 -3.23607 2.43024 0
M  V30 3145 H 320.33 -2.75059 1.48531 0
M  V30 3146 H 319.55 -1.51206 3.64047 0
M  V30 3147 H 320.838 -2.37506 4.49965 0
M  V30 3148 H 320.236 -4.983 2.67795 0
M  V30 3149 H 318.793 -5.54948 3.41871 0
M  V30 3150 N 322.226 -1.5378 -0.344866 0
M  V30 3151 C 323.156 -1.84662 -1.42906 0
M  V30 3152 C 324.137 -0.701648 -1.54955 0
M  V30 3153 O 325.322 -0.953438 -1.69184 0
M  V30 3154 C 322.452 -2.05503 -2.79974 0
M  V30 3155 C 321.406 -3.21318 -2.82734 0
M  V30 3156 C 320.732 -3.2749 -4.22675 0
M  V30 3157 C 322.032 -4.59456 -2.48389 0
M  V30 3158 H 323.726 -2.75461 -1.17311 0
M  V30 3159 H 321.272 -1.32542 -0.562896 0
M  V30 3160 H 323.225 -2.25691 -3.55867 0
M  V30 3161 H 321.949 -1.11434 -3.07002 0
M  V30 3162 H 320.608 -3.00984 -2.09294 0
M  V30 3163 H 320.256 -2.31019 -4.4681 0
M  V30 3164 H 319.956 -4.05316 -4.25433 0
M  V30 3165 H 321.48 -3.49887 -5.00412 0
M  V30 3166 H 322.894 -4.79667 -3.13995 0
M  V30 3167 H 321.291 -5.39675 -2.62432 0
M  V30 3168 H 322.361 -4.63155 -1.4358 0
M  V30 3169 N 323.704 0.605807 -1.45491 0
M  V30 3170 C 324.932 1.39136 -1.5313 0
M  V30 3171 C 325.347 1.88082 -0.164507 0
M  V30 3172 O 324.704 1.62316 0.834247 0
M  V30 3173 C 324.755 2.59463 -2.51716 0
M  V30 3174 O 324.476 2.12551 -3.83084 0
M  V30 3175 C 325.977 3.52301 -2.6907 0
M  V30 3176 H 323.197 0.425849 -0.51855 0
M  V30 3177 H 325.741 0.73865 -1.90694 0
M  V30 3178 H 323.896 3.20772 -2.17219 0
M  V30 3179 H 324.31 2.90744 -4.36541 0
M  V30 3180 H 325.784 4.33271 -3.42024 0
M  V30 3181 H 326.261 4.02757 -1.75167 0
M  V30 3182 H 326.867 2.96845 -3.04571 0
M  V30 3183 N 325.182 1.32811 0.848464 0
M  V30 3184 C 326.145 1.22194 1.9391 0
M  V30 3185 C 327.145 0.143404 1.60159 0
M  V30 3186 O 328.335 0.394253 1.6968 0
M  V30 3187 C 325.467 0.88067 3.29328 0
M  V30 3188 H 326.66 2.19127 2.04752 0
M  V30 3189 H 324.213 1.16731 1.0394 0
M  V30 3190 H 324.948 -0.0865776 3.24184 0
M  V30 3191 H 324.733 1.66052 3.55203 0
M  V30 3192 H 326.223 0.830871 4.09251 0
M  V30 3193 N 326.66 -1.06551 1.16123 0
M  V30 3194 C 327.623 -2.12132 0.867906 0
M  V30 3195 C 328.623 -1.60224 -0.135944 0
M  V30 3196 O 329.813 -1.73943 0.0946422 0
M  V30 3197 C 326.945 -3.396 0.297419 0
M  V30 3198 H 328.138 -2.39586 1.80385 0
M  V30 3199 H 325.691 -1.22574 0.969812 0
M  V30 3200 H 326.426 -3.17794 -0.64633 0
M  V30 3201 H 326.211 -3.78581 1.02073 0
M  V30 3202 H 327.701 -4.17455 0.110052 0
M  V30 3203 N 328.138 -0.959301 -1.25041 0
M  V30 3204 C 329.07 -0.440543 -2.24926 0
M  V30 3205 C 330.083 0.446131 -1.56568 0
M  V30 3206 O 331.272 0.253657 -1.76689 0
M  V30 3207 C 328.372 0.38412 -3.36716 0
M  V30 3208 C 327.545 -0.490658 -4.34639 0
M  V30 3209 C 326.604 0.276587 -5.25473 0
M  V30 3210 O 325.63 -0.326614 -5.68262 0
M  V30 3211 N 326.832 1.56844 -5.5891 0
M  V30 3212 H 329.597 -1.29931 -2.70071 0
M  V30 3213 H 327.158 -0.830181 -1.38995 0
M  V30 3214 H 329.15 0.905228 -3.94446 0
M  V30 3215 H 327.72 1.14377 -2.90924 0
M  V30 3216 H 326.94 -1.19282 -3.7572 0
M  V30 3217 H 328.228 -1.08756 -4.97041 0
M  V30 3218 H 327.626 2.08036 -5.26059 0
M  V30 3219 H 326.183 2.03541 -6.19205 0
M  V30 3220 N 329.616 1.39756 -0.72842 0
M  V30 3221 C 330.526 2.34444 -0.0855374 0
M  V30 3222 C 331.542 1.57976 0.729356 0
M  V30 3223 O 332.718 1.90301 0.659346 0
M  V30 3224 C 329.783 3.36965 0.815798 0
M  V30 3225 C 328.844 4.29299 -0.0105996 0
M  V30 3226 C 328.077 5.26923 0.84781 0
M  V30 3227 O 328.3 5.30859 2.08673 0
M  V30 3228 O 327.234 6.01249 0.279969 0
M  V30 3229 H 331.06 2.91065 -0.866892 0
M  V30 3230 H 328.645 1.4117 -0.48902 0
M  V30 3231 H 330.527 3.99804 1.33171 0
M  V30 3232 H 329.202 2.82739 1.57608 0
M  V30 3233 H 328.109 3.69703 -0.571877 0
M  V30 3234 H 329.442 4.86712 -0.73295 0
M  V30 3235 N 331.094 0.475555 1.50254 0
M  V30 3236 C 332.024 -0.30611 2.31485 0
M  V30 3237 C 333.005 -0.986228 1.38591 0
M  V30 3238 O 334.19 -0.982541 1.67511 0
M  V30 3239 C 331.32 -1.38588 3.1845 0
M  V30 3240 C 330.274 -0.827115 4.19932 0
M  V30 3241 C 329.6 -2.00551 4.95665 0
M  V30 3242 C 330.9 0.16463 5.2204 0
M  V30 3243 H 332.594 0.371866 2.97082 0
M  V30 3244 H 330.14 0.180282 1.42867 0
M  V30 3245 H 332.093 -1.94023 3.74076 0
M  V30 3246 H 330.817 -2.09269 2.50747 0
M  V30 3247 H 329.476 -0.294702 3.65414 0
M  V30 3248 H 329.124 -2.6994 4.2443 0
M  V30 3249 H 328.824 -1.63784 5.64313 0
M  V30 3250 H 330.348 -2.56468 5.54127 0
M  V30 3251 H 331.762 -0.300699 5.72511 0
M  V30 3252 H 330.159 0.446813 5.98434 0
M  V30 3253 H 331.229 1.08905 4.72512 0
M  V30 3254 N 332.573 -1.56217 0.208337 0
M  V30 3255 C 333.506 -2.15633 -0.746842 0
M  V30 3256 C 334.484 -1.09685 -1.20034 0
M  V30 3257 O 335.668 -1.3787 -1.28547 0
M  V30 3258 C 332.795 -2.72594 -2.01023 0
M  V30 3259 C 331.841 -3.91251 -1.69779 0
M  V30 3260 S 332.674 -5.28962 -0.834209 0
M  V30 3261 C 333.83 -5.89353 -2.10745 0
M  V30 3262 H 334.063 -2.96315 -0.241789 0
M  V30 3263 H 331.596 -1.54398 -0.00682183 0
M  V30 3264 H 333.554 -3.06053 -2.73572 0
M  V30 3265 H 332.215 -1.91929 -2.48641 0
M  V30 3266 H 331.408 -4.29562 -2.63614 0
M  V30 3267 H 331.01 -3.58869 -1.05303 0
M  V30 3268 H 333.302 -6.04522 -3.05875 0
M  V30 3269 H 334.245 -6.85661 -1.76845 0
M  V30 3270 H 334.653 -5.1807 -2.24196 0
M  V30 3271 N 334.051 0.0651679 -1.57465 0
M  V30 3272 C 335.3 0.761916 -1.86756 0
M  V30 3273 C 335.613 1.78406 -0.801925 0
M  V30 3274 O 336.819 2.53084 -0.982885 0
M  V30 3275 C 335.275 1.40603 -3.31299 0
M  V30 3276 C 334.883 0.422115 -4.46007 0
M  V30 3277 C 336.627 2.08476 -3.69781 0
M  V30 3278 C 334.534 1.07252 -5.81593 0
M  V30 3279 H 333.464 0.288308 -0.696702 0
M  V30 3280 H 336.115 0.015344 -1.83494 0
M  V30 3281 H 334.497 2.20109 -3.29193 0
M  V30 3282 H 335.671 -0.343613 -4.59517 0
M  V30 3283 H 333.986 -0.152527 -4.16121 0
M  V30 3284 H 336.583 2.57925 -4.68379 0
M  V30 3285 H 336.926 2.88712 -2.99919 0
M  V30 3286 H 337.459 1.35792 -3.73905 0
M  V30 3287 H 334.198 0.310342 -6.54765 0
M  V30 3288 H 333.718 1.80895 -5.71872 0
M  V30 3289 H 335.397 1.59043 -6.27148 0
M  V30 3290 N 335.529 1.53961 0.336706 0
M  V30 3291 C 336.461 1.78751 1.4346 0
M  V30 3292 C 337.474 0.669019 1.48418 0
M  V30 3293 O 338.663 0.945884 1.51378 0
M  V30 3294 C 335.763 1.87844 2.82078 0
M  V30 3295 C 334.936 3.17854 3.00479 0
M  V30 3296 C 333.995 3.17816 4.19379 0
M  V30 3297 O 333.021 3.91511 4.13168 0
M  V30 3298 N 334.223 2.40669 5.2826 0
M  V30 3299 H 336.988 2.73493 1.22563 0
M  V30 3300 H 334.549 1.53096 0.526625 0
M  V30 3301 H 336.541 1.85261 3.59806 0
M  V30 3302 H 335.111 1.00257 2.96086 0
M  V30 3303 H 334.331 3.33504 2.10163 0
M  V30 3304 H 335.619 4.03718 3.0966 0
M  V30 3305 H 335.017 1.8036 5.36178 0
M  V30 3306 H 333.574 2.43877 6.04456 0
M  V30 3307 N 337.007 -0.598083 1.45811 0
M  V30 3308 C 337.939 -1.72231 1.51225 0
M  V30 3309 C 338.952 -1.57757 0.402059 0
M  V30 3310 O 340.141 -1.65464 0.669624 0
M  V30 3311 C 337.241 -3.10331 1.3619 0
M  V30 3312 C 336.414 -3.50955 2.61054 0
M  V30 3313 C 335.473 -4.68055 2.40439 0
M  V30 3314 O 334.499 -4.74691 3.14097 0
M  V30 3315 N 335.701 -5.61941 1.45612 0
M  V30 3316 H 338.466 -1.68046 2.48154 0
M  V30 3317 H 336.027 -0.783637 1.41671 0
M  V30 3318 H 338.019 -3.86439 1.20195 0
M  V30 3319 H 336.589 -3.0897 0.475015 0
M  V30 3320 H 335.809 -2.64711 2.92099 0
M  V30 3321 H 337.097 -3.74858 3.44034 0
M  V30 3322 H 336.495 -5.59301 0.848431 0
M  V30 3323 H 335.052 -6.37542 1.35585 0
M  V30 3324 N 338.485 -1.33259 -0.841409 0
M  V30 3325 C 339.415 -1.25926 -1.96634 0
M  V30 3326 C 340.396 -0.140349 -1.6952 0
M  V30 3327 O 341.581 -0.329707 -1.91381 0
M  V30 3328 C 338.711 -0.99512 -3.32738 0
M  V30 3329 C 337.665 -2.0767 -3.74242 0
M  V30 3330 C 336.991 -1.66474 -5.08125 0
M  V30 3331 C 338.291 -3.49318 -3.88297 0
M  V30 3332 H 339.985 -2.20046 -2.03027 0
M  V30 3333 H 337.531 -1.05931 -0.975425 0
M  V30 3334 H 339.484 -0.930323 -4.11002 0
M  V30 3335 H 338.208 -0.0183004 -3.26595 0
M  V30 3336 H 336.867 -2.13187 -2.98239 0
M  V30 3337 H 336.515 -0.675012 -4.9845 0
M  V30 3338 H 336.215 -2.3885 -5.36865 0
M  V30 3339 H 337.739 -1.61455 -5.88867 0
M  V30 3340 H 339.153 -3.46316 -4.56879 0
M  V30 3341 H 337.55 -4.20158 -4.28471 0
M  V30 3342 H 338.62 -3.8801 -2.9082 0
M  V30 3343 N 339.963 1.05934 -1.16686 0
M  V30 3344 C 341.209 1.79065 -0.95203 0
M  V30 3345 C 341.542 1.87147 0.518629 0
M  V30 3346 O 340.817 1.36574 1.38484 0
M  V30 3347 C 341.1 3.23359 -1.58464 0
M  V30 3348 C 340.953 3.23336 -3.12689 0
M  V30 3349 C 342.272 4.21004 -1.28232 0
M  V30 3350 H 339.391 0.65005 -0.34728 0
M  V30 3351 H 342.033 1.23868 -1.44072 0
M  V30 3352 H 340.183 3.70493 -1.16908 0
M  V30 3353 H 341.855 2.84336 -3.6325 0
M  V30 3354 H 340.098 2.61886 -3.4583 0
M  V30 3355 H 340.769 4.25144 -3.52075 0
M  V30 3356 H 343.245 3.8233 -1.64203 0
M  V30 3357 H 342.121 5.20225 -1.75092 0
M  V30 3358 H 342.382 4.41639 -0.201791 0
M  V30 3359 N 341.441 0.965919 1.2453 0
M  V30 3360 C 342.404 0.499547 2.2369 0
M  V30 3361 C 343.404 -0.40294 1.5567 0
M  V30 3362 O 344.594 -0.19865 1.73064 0
M  V30 3363 C 341.726 -0.276792 3.39774 0
M  V30 3364 H 342.919 1.37613 2.66463 0
M  V30 3365 H 340.472 0.750324 1.37112 0
M  V30 3366 H 341.207 -1.17055 3.02438 0
M  V30 3367 H 340.992 0.370826 3.90343 0
M  V30 3368 H 342.482 -0.592175 4.1338 0
M  V30 3369 N 342.919 -1.39368 0.735821 0
M  V30 3370 C 343.882 -2.2896 0.104874 0
M  V30 3371 C 344.882 -1.46347 -0.666274 0
M  V30 3372 O 346.072 -1.67014 -0.49517 0
M  V30 3373 C 343.204 -3.29857 -0.860656 0
M  V30 3374 H 344.397 -2.86259 0.894205 0
M  V30 3375 H 341.95 -1.48029 0.501704 0
M  V30 3376 H 342.685 -2.77615 -1.67631 0
M  V30 3377 H 342.47 -3.9087 -0.310327 0
M  V30 3378 H 343.96 -3.96893 -1.29867 0
M  V30 3379 N 344.397 -0.483516 -1.5 0
M  V30 3380 C 345.329 0.340634 -2.26655 0
M  V30 3381 C 346.342 0.946152 -1.32483 0
M  V30 3382 O 347.531 0.832453 -1.579 0
M  V30 3383 C 344.631 1.4929 -3.04246 0
M  V30 3384 C 343.804 0.997903 -4.25865 0
M  V30 3385 C 342.863 2.02569 -4.85646 0
M  V30 3386 O 341.889 1.60128 -5.46212 0
M  V30 3387 N 343.091 3.3548 -4.73744 0
M  V30 3388 H 345.856 -0.316577 -2.98023 0
M  V30 3389 H 343.417 -0.315024 -1.58806 0
M  V30 3390 H 345.409 2.17766 -3.41116 0
M  V30 3391 H 343.979 2.05458 -2.35597 0
M  V30 3392 H 343.199 0.138617 -3.93956 0
M  V30 3393 H 344.487 0.645305 -5.04691 0
M  V30 3394 H 343.885 3.72661 -4.25605 0
M  V30 3395 H 342.442 3.99718 -5.14848 0
M  V30 3396 N 345.875 1.56104 -0.216619 0
M  V30 3397 C 346.805 2.23063 0.690296 0
M  V30 3398 C 347.786 1.20072 1.20485 0
M  V30 3399 O 348.971 1.48643 1.24976 0
M  V30 3400 C 346.101 2.90672 1.90072 0
M  V30 3401 C 345.055 4.00092 1.5202 0
M  V30 3402 C 344.381 4.54972 2.80899 0
M  V30 3403 C 345.681 5.17398 0.71391 0
M  V30 3404 H 347.375 2.99109 0.132038 0
M  V30 3405 H 344.921 1.43866 0.0620664 0
M  V30 3406 H 346.874 3.36204 2.54057 0
M  V30 3407 H 345.598 2.12066 2.48386 0
M  V30 3408 H 344.257 3.55283 0.903839 0
M  V30 3409 H 343.905 3.73102 3.37348 0
M  V30 3410 H 343.605 5.28817 2.56176 0
M  V30 3411 H 345.129 5.0322 3.45836 0
M  V30 3412 H 346.543 5.59342 1.25735 0
M  V30 3413 H 344.94 5.97444 0.563951 0
M  V30 3414 H 346.01 4.84088 -0.280527 0
M  V30 3415 N 347.353 -0.0568162 1.57498 0
M  V30 3416 C 348.285 -1.09292 2.01464 0
M  V30 3417 C 349.298 -1.34112 0.922913 0
M  V30 3418 O 350.487 -1.32089 1.20062 0
M  V30 3419 C 347.587 -2.44068 2.35125 0
M  V30 3420 C 346.76 -2.38995 3.66333 0
M  V30 3421 C 345.819 -3.55997 3.87495 0
M  V30 3422 O 344.845 -3.36746 4.58901 0
M  V30 3423 N 346.047 -4.76888 3.30996 0
M  V30 3424 H 348.812 -0.718386 2.90963 0
M  V30 3425 H 346.373 -0.245235 1.60032 0
M  V30 3426 H 348.365 -3.21011 2.46443 0
M  V30 3427 H 346.935 -2.73468 1.5144 0
M  V30 3428 H 346.155 -1.47336 3.65631 0
M  V30 3429 H 347.443 -2.3272 4.52458 0
M  V30 3430 H 346.841 -4.95431 2.73065 0
M  V30 3431 H 345.398 -5.51291 3.47738 0
M  V30 3432 N 348.832 -1.54138 -0.328536 0
M  V30 3433 C 350.072 -1.73827 -1.07534 0
M  V30 3434 C 350.436 -0.498777 -1.85408 0
M  V30 3435 O 351.637 -0.572937 -2.62623 0
M  V30 3436 C 349.908 -2.97573 -1.97952 0
M  V30 3437 S 351.467 -3.38143 -2.79652 0
M  V30 3438 H 348.285 -0.611287 -0.36311 0
M  V30 3439 H 350.887 -1.92306 -0.351931 0
M  V30 3440 H 349.591 -3.85939 -1.39569 0
M  V30 3441 H 349.122 -2.81603 -2.74706 0
M  V30 3442 H 351.137 -2.93052 -4.00418 0
M  V30 3443 N 350.31 0.590341 -1.46126 0
M  V30 3444 C 351.258 1.72105 -1.5647 0
M  V30 3445 C 352.252 1.63756 -0.433612 0
M  V30 3446 O 353.458 1.69342 -0.610194 0
M  V30 3447 H 349.833 0.568889 -0.491802 0
M  V30 3448 H 351.804 1.6051 -2.51553 0
M  V30 3449 C 350.553 3.10493 -1.56491 0
M  V30 3450 H 349.876 3.17583 -2.4286 0
M  V30 3451 H 351.316 3.8939 -1.67785 0
M  V30 3452 C 349.775 3.3563 -0.292231 0
M  V30 3453 O 350.305 3.96875 0.620739 0
M  V30 3454 N 348.511 2.90026 -0.182523 0
M  V30 3455 H 348.058 2.40367 -0.926356 0
M  V30 3456 H 348.016 3.07218 0.668152 0
M  V30 3457 N 351.788 1.33704 0.83433 0
M  V30 3458 C 352.735 1.24335 1.94447 0
M  V30 3459 C 353.705 0.120991 1.65659 0
M  V30 3460 O 354.89 0.300035 1.88426 0
M  V30 3461 C 352.03 0.993124 3.30501 0
M  V30 3462 C 351.143 2.20217 3.71657 0
M  V30 3463 C 350.278 1.88572 4.96602 0
M  V30 3464 C 349.317 3.05683 5.30306 0
M  V30 3465 N 348.454 2.73997 6.46429 0
M  V30 3466 H 353.294 2.1928 2.01792 0
M  V30 3467 H 350.831 1.09035 0.987404 0
M  V30 3468 H 352.789 0.828467 4.08892 0
M  V30 3469 H 351.419 0.0803902 3.227 0
M  V30 3470 H 350.471 2.47642 2.88752 0
M  V30 3471 H 351.783 3.07752 3.92543 0
M  V30 3472 H 350.937 1.68776 5.82752 0
M  V30 3473 H 349.676 0.982799 4.77695 0
M  V30 3474 H 348.681 3.26088 4.42659 0
M  V30 3475 H 349.906 3.96737 5.51159 0
M  V30 3476 H 347.852 1.86268 6.28999 0
M  V30 3477 H 347.769 3.55064 6.67432 0
M  V30 3478 H 349.037 2.57679 7.35678 0
M  V30 3479 N 353.266 -1.05314 1.17247 0
M  V30 3480 C 354.682 -1.30452 0.919473 0
M  V30 3481 C 354.882 -1.9703 -0.42209 0
M  V30 3482 O 353.938 -2.24311 -1.15935 0
M  V30 3483 C 355.251 -2.17551 2.07586 0
M  V30 3484 C 356.799 -2.30937 2.11275 0
M  V30 3485 C 357.274 -3.21396 3.26296 0
M  V30 3486 N 358.765 -3.28981 3.26076 0
M  V30 3487 C 359.5 -3.99095 4.11716 0
M  V30 3488 N 358.996 -4.71648 5.07465 0
M  V30 3489 N 360.789 -3.95247 3.9967 0
M  V30 3490 H 352.94 -0.604988 2.03602 0
M  V30 3491 H 355.203 -0.329368 0.888944 0
M  V30 3492 H 354.909 -1.75921 3.0454 0
M  V30 3493 H 354.783 -3.18182 2.02584 0
M  V30 3494 H 357.17 -2.71809 1.14907 0
M  V30 3495 H 357.251 -1.2994 2.20339 0
M  V30 3496 H 356.895 -2.81238 4.22927 0
M  V30 3497 H 356.825 -4.22395 3.14467 0
M  V30 3498 H 359.316 -2.77286 2.5675 0
M  V30 3499 H 359.629 -5.22705 5.6921 0
M  V30 3500 H 357.974 -4.70594 5.11435 0
M  V30 3501 H 361.165 -3.37691 3.24164 0
M  V30 3502 H 361.338 -4.4962 4.66632 0
M  V30 3503 N 354.744 -0.972509 -1.24016 0
M  V30 3504 C 355.969 -0.654417 -1.96805 0
M  V30 3505 C 356.394 0.770398 -1.716 0
M  V30 3506 O 355.752 1.52361 -0.982647 0
M  V30 3507 C 355.8 -0.941031 -3.48105 0
M  V30 3508 O 354.904 -0.0289472 -4.1239 0
M  V30 3509 H 354.245 -0.24692 -0.616382 0
M  V30 3510 H 356.775 -1.30396 -1.57664 0
M  V30 3511 H 356.785 -0.87452 -3.98517 0
M  V30 3512 H 355.46 -1.97939 -3.65777 0
M  V30 3513 H 354.037 -0.149192 -3.72601 0
M  V30 3514 N 356.222 1.38976 -0.743202 0
M  V30 3515 C 357.469 2.00343 -0.294752 0
M  V30 3516 C 357.797 1.58983 1.12047 0
M  V30 3517 O 357.052 0.813809 1.77977 0
M  V30 3518 C 357.351 3.55647 -0.353517 0
M  V30 3519 C 357.017 4.16685 -1.72292 0
M  V30 3520 C 355.679 4.3307 -2.09771 0
M  V30 3521 C 358.031 4.50464 -2.62168 0
M  V30 3522 C 355.359 4.80526 -3.36618 0
M  V30 3523 C 357.711 4.99332 -3.88395 0
M  V30 3524 C 356.375 5.13924 -4.25956 0
M  V30 3525 H 355.645 0.733108 -0.107857 0
M  V30 3526 H 358.292 1.6618 -0.951651 0
M  V30 3527 H 356.597 3.89884 0.386954 0
M  V30 3528 H 358.294 4.00998 0.0117269 0
M  V30 3529 H 354.884 4.04339 -1.42155 0
M  V30 3530 H 359.068 4.37416 -2.3448 0
M  V30 3531 H 354.324 4.90008 -3.65653 0
M  V30 3532 H 358.498 5.2444 -4.58187 0
M  V30 3533 H 356.125 5.50457 -5.2431 0
M  V30 3534 N 357.7 0.491464 1.49741 0
M  V30 3535 C 358.925 -0.0557177 2.07325 0
M  V30 3536 C 359.35 -1.30925 1.35056 0
M  V30 3537 O 358.708 -1.76733 0.404365 0
M  V30 3538 C 358.756 -0.302074 3.59333 0
M  V30 3539 O 357.86 -1.37868 3.88672 0
M  V30 3540 H 357.201 0.0219956 0.663636 0
M  V30 3541 H 359.731 0.688352 1.92673 0
M  V30 3542 H 359.741 -0.536464 4.04458 0
M  V30 3543 H 358.416 0.61383 4.11345 0
M  V30 3544 H 356.993 -1.12999 3.55367 0
M  V30 3545 N 359.178 -1.55987 0.224894 0
M  V30 3546 C 360.455 -1.90232 -0.455083 0
M  V30 3547 C 360.835 -1.14269 -1.77499 0
M  V30 3548 O 360.183 -0.253079 -2.27094 0
M  V30 3549 C 360.393 -3.42993 -0.644758 0
M  V30 3550 C 361.741 -4.13821 -0.950669 0
M  V30 3551 O 362.765 -3.4861 -0.731423 0
M  V30 3552 O 361.624 -5.29128 -1.36695 0
M  V30 3553 H 358.718 -0.79108 -0.241084 0
M  V30 3554 H 361.264 -1.67581 0.267327 0
M  V30 3555 H 360.036 -3.90252 0.28613 0
M  V30 3556 H 359.659 -3.71434 -1.41853 0
M  V30 3557 N 360.656 0.0484629 -1.57525 0
M  V30 3558 C 361.588 1.08222 -2.02041 0
M  V30 3559 C 362.601 1.33621 -0.930012 0
M  V30 3560 O 363.79 1.3145 -1.20761 0
M  V30 3561 C 360.89 2.42818 -2.36416 0
M  V30 3562 C 360.063 2.37049 -3.67596 0
M  V30 3563 C 359.122 3.53937 -3.89378 0
M  V30 3564 O 358.148 3.34308 -4.60681 0
M  V30 3565 N 359.35 4.75126 -3.3352 0
M  V30 3566 H 362.115 0.702946 -2.9134 0
M  V30 3567 H 359.676 0.236745 -1.6016 0
M  V30 3568 H 361.668 3.197 -2.48141 0
M  V30 3569 H 360.238 2.72661 -1.52888 0
M  V30 3570 H 359.458 1.45395 -3.66407 0
M  V30 3571 H 360.746 2.30318 -4.53686 0
M  V30 3572 H 360.144 4.93976 -2.75688 0
M  V30 3573 H 358.701 5.49439 -3.50656 0
M  V30 3574 N 362.134 1.5431 0.320358 0
M  V30 3575 C 363.545 1.63872 0.894594 0
M  V30 3576 C 363.896 0.534847 1.88769 0
M  V30 3577 O 363.021 -0.331732 2.13842 0
M  V30 3578 C 363.616 2.97049 1.62934 0
M  V30 3579 C 362.175 3.08796 2.15226 0
M  V30 3580 C 361.322 2.59456 0.978671 0
M  V30 3581 H 364.273 1.58398 0.0978544 0
M  V30 3582 H 364.294 2.87388 2.49376 0
M  V30 3583 H 363.806 3.7737 0.906302 0
M  V30 3584 H 361.907 2.33156 2.90636 0
M  V30 3585 H 362.02 4.14649 2.40006 0
M  V30 3586 H 360.384 2.1543 1.35875 0
M  V30 3587 H 361.167 3.42237 0.269895 0
M  V30 3588 N 363.613 -0.582584 1.46437 0
M  V30 3589 C 364.56 -1.69164 1.5701 0
M  V30 3590 C 365.53 -1.60847 0.414403 0
M  V30 3591 O 366.715 -1.80058 0.631171 0
M  V30 3592 C 363.855 -3.075 1.56646 0
M  V30 3593 C 362.968 -3.2644 2.82951 0
M  V30 3594 C 362.103 -4.55026 2.7409 0
M  V30 3595 C 361.142 -4.6731 3.95333 0
M  V30 3596 N 360.279 -5.87221 3.84858 0
M  V30 3597 H 365.119 -1.59464 2.51744 0
M  V30 3598 H 362.656 -0.777186 1.24893 0
M  V30 3599 H 364.614 -3.8757 1.5442 0
M  V30 3600 H 363.244 -3.16096 0.654439 0
M  V30 3601 H 362.296 -2.39974 2.95155 0
M  V30 3602 H 363.608 -3.31385 3.72808 0
M  V30 3603 H 362.762 -5.43324 2.6997 0
M  V30 3604 H 361.501 -4.52519 1.81873 0
M  V30 3605 H 360.506 -3.77429 3.99784 0
M  V30 3606 H 361.731 -4.71595 4.88646 0
M  V30 3607 H 359.677 -5.85712 2.95427 0
M  V30 3608 H 359.594 -5.93435 4.6837 0
M  V30 3609 H 360.862 -6.7795 3.84713 0
M  V30 3610 N 365.091 -1.34144 -0.827227 0
M  V30 3611 C 366.337 -1.26446 -1.58554 0
M  V30 3612 C 366.67 0.1664 -1.93486 0
M  V30 3613 O 365.945 1.1107 -1.59667 0
M  V30 3614 C 366.228 -2.15111 -2.8879 0
M  V30 3615 C 366.081 -3.66712 -2.60465 0
M  V30 3616 C 367.4 -2.03311 -3.90324 0
M  V30 3617 H 364.519 -0.46067 -0.575284 0
M  V30 3618 H 367.161 -1.64356 -0.953269 0
M  V30 3619 H 365.311 -1.8291 -3.42748 0
M  V30 3620 H 366.983 -4.09259 -2.1285 0
M  V30 3621 H 365.226 -3.88014 -1.93978 0
M  V30 3622 H 365.897 -4.24112 -3.53317 0
M  V30 3623 H 368.373 -2.31574 -3.45706 0
M  V30 3624 H 367.249 -2.67582 -4.79261 0
M  V30 3625 H 367.51 -1.00879 -4.30437 0
M  V30 3626 N 366.569 1.04691 -1.17803 0
M  V30 3627 C 367.797 1.81446 -0.99423 0
M  V30 3628 C 368.212 1.83174 0.457459 0
M  V30 3629 O 367.569 1.26265 1.31771 0
M  V30 3630 C 367.62 3.27334 -1.5341 0
M  V30 3631 O 367.341 3.25798 -2.92895 0
M  V30 3632 C 368.842 4.20759 -1.39559 0
M  V30 3633 H 366.062 0.571599 -0.351447 0
M  V30 3634 H 368.606 1.31982 -1.56208 0
M  V30 3635 H 366.761 3.74052 -1.00815 0
M  V30 3636 H 367.175 4.17144 -3.17949 0
M  V30 3637 H 368.649 5.21084 -1.82141 0
M  V30 3638 H 369.126 4.37856 -0.343394 0
M  V30 3639 H 369.732 3.79901 -1.91195 0
M  V30 3640 N 368.047 0.979072 1.23499 0
M  V30 3641 C 369.458 0.684391 1.73704 0
M  V30 3642 C 369.809 -0.799448 1.79174 0
M  V30 3643 O 368.934 -1.62531 1.42873 0
M  V30 3644 C 369.529 1.23564 3.15464 0
M  V30 3645 C 368.088 0.99063 3.6313 0
M  V30 3646 C 367.235 1.36416 2.41425 0
M  V30 3647 H 370.186 1.15307 1.09041 0
M  V30 3648 H 370.207 0.607417 3.7562 0
M  V30 3649 H 369.719 2.31561 3.1145 0
M  V30 3650 H 367.82 -0.0733136 3.72528 0
M  V30 3651 H 367.933 1.64427 4.5 0
M  V30 3652 H 366.297 0.782616 2.42378 0
M  V30 3653 H 367.08 2.45387 2.40083 0
M  V30 3654 N 369.525 -1.3858 0.750561 0
M  V30 3655 C 370.771 -2.0095 0.31477 0
M  V30 3656 C 371.126 -1.58509 -1.09053 0
M  V30 3657 O 370.419 -0.8112 -1.7358 0
M  V30 3658 C 370.613 -3.55455 0.372373 0
M  V30 3659 C 370.442 -4.12898 1.78173 0
M  V30 3660 C 369.212 -4.44797 2.39757 0
M  V30 3661 C 371.41 -4.35366 2.7379 0
M  V30 3662 N 369.392 -4.87831 3.72685 0
M  V30 3663 C 370.763 -4.80775 3.91478 0
M  V30 3664 C 372.818 -4.1746 2.71351 0
M  V30 3665 C 371.521 -5.10155 5.07084 0
M  V30 3666 C 373.547 -4.47963 3.86113 0
M  V30 3667 C 372.909 -4.93593 5.02539 0
M  V30 3668 H 369.008 -0.765083 0.161776 0
M  V30 3669 H 371.592 -1.68246 0.979867 0
M  V30 3670 H 369.763 -3.87512 -0.26244 0
M  V30 3671 H 371.495 -4.04614 -0.0834479 0
M  V30 3672 H 368.25 -4.33135 1.91548 0
M  V30 3673 H 368.674 -5.13685 4.40972 0
M  V30 3674 H 373.316 -3.81372 1.82524 0
M  V30 3675 H 371.034 -5.45141 5.96529 0
M  V30 3676 H 374.62 -4.35717 3.85542 0
M  V30 3677 H 373.5 -5.16746 5.89867 0
M  V30 3678 N 371.003 -0.499398 -1.49478 0
M  V30 3679 C 372.414 -0.051215 -1.8663 0
M  V30 3680 C 372.765 1.36238 -1.41186 0
M  V30 3681 O 371.89 2.01502 -0.789051 0
M  V30 3682 C 372.485 -0.0861651 -3.3869 0
M  V30 3683 C 371.044 0.30667 -3.75149 0
M  V30 3684 C 370.191 -0.459397 -2.73468 0
M  V30 3685 H 373.142 -0.712264 -1.41818 0
M  V30 3686 H 373.163 0.709507 -3.73826 0
M  V30 3687 H 372.675 -1.11512 -3.71735 0
M  V30 3688 H 370.776 1.33892 -3.47712 0
M  V30 3689 H 370.889 -0.0116669 -4.79099 0
M  V30 3690 H 369.253 0.0905645 -2.54539 0
M  V30 3691 H 370.036 -1.4884 -3.09357 0
M  V30 3692 N 372.481 1.55866 -0.233164 0
M  V30 3693 C 373.411 2.23783 0.666599 0
M  V30 3694 C 374.392 1.21343 1.19205 0
M  V30 3695 O 375.577 1.4996 1.23392 0
M  V30 3696 C 372.707 2.92671 1.86978 0
M  V30 3697 C 371.661 4.01682 1.47768 0
M  V30 3698 C 370.987 4.57926 2.76058 0
M  V30 3699 C 372.287 5.18126 0.658993 0
M  V30 3700 H 373.981 2.99232 0.100306 0
M  V30 3701 H 371.527 1.43924 0.046804 0
M  V30 3702 H 373.48 3.3888 2.50476 0
M  V30 3703 H 372.204 2.14688 2.46123 0
M  V30 3704 H 370.863 3.56222 0.866106 0
M  V30 3705 H 370.511 3.76659 3.33372 0
M  V30 3706 H 370.211 5.31505 2.50552 0
M  V30 3707 H 371.735 5.06859 3.40479 0
M  V30 3708 H 373.149 5.60644 1.19795 0
M  V30 3709 H 371.546 5.98009 0.500552 0
M  V30 3710 H 372.616 4.83763 -0.331856 0
M  V30 3711 N 373.959 -0.0401083 1.57549 0
M  V30 3712 C 375.207 -0.731677 1.8839 0
M  V30 3713 C 375.528 -1.76481 0.829425 0
M  V30 3714 O 374.798 -1.95411 -0.1383 0
M  V30 3715 H 373.378 -0.273225 0.695239 0
M  V30 3716 H 376.04 -0.00867725 1.94898 0
M  V30 3717 H 375.136 -1.22816 2.86919 0
M  V30 3718 N 375.437 -1.54477 -0.31217 0
M  V30 3719 C 376.4 -1.83923 -1.36766 0
M  V30 3720 C 377.4 -0.711563 -1.44199 0
M  V30 3721 O 378.59 -0.979866 -1.44029 0
M  V30 3722 C 375.722 -2.0095 -2.75376 0
M  V30 3723 H 376.915 -2.78239 -1.11906 0
M  V30 3724 H 374.468 -1.46369 -0.548257 0
M  V30 3725 H 375.203 -1.08883 -3.05475 0
M  V30 3726 H 374.988 -2.83018 -2.71373 0
M  V30 3727 H 376.478 -2.2514 -3.51713 0
M  V30 3728 N 376.915 0.57481 -1.46744 0
M  V30 3729 C 378.192 1.3352 -1.4294 0
M  V30 3730 C 378.572 2.10775 -0.117009 0
M  V30 3731 O 377.92 2.09966 0.901474 0
M  V30 3732 C 378.13 2.25456 -2.66403 0
M  V30 3733 C 379.478 2.87035 -3.12883 0
M  V30 3734 O 380.502 2.35766 -2.67007 0
M  V30 3735 O 379.361 3.80179 -3.92589 0
M  V30 3736 H 376.455 0.600318 -0.568812 0
M  V30 3737 H 379.001 0.595171 -1.58921 0
M  V30 3738 H 377.773 1.67851 -3.53471 0
M  V30 3739 H 377.396 3.06785 -2.52921 0
M  V30 3740 N 378.394 1.34581 0.820102 0
M  V30 3741 C 379.805 1.24298 1.39309 0
M  V30 3742 C 380.156 -0.130351 1.95767 0
M  V30 3743 O 379.281 -1.0308 1.90272 0
M  V30 3744 C 379.876 2.25054 2.53251 0
M  V30 3745 C 378.435 2.18552 3.0645 0
M  V30 3746 C 377.582 2.11503 1.79337 0
M  V30 3747 H 380.533 1.45906 0.624262 0
M  V30 3748 H 380.554 1.86917 3.31425 0
M  V30 3749 H 380.066 3.24996 2.1213 0
M  V30 3750 H 378.167 1.21976 3.52069 0
M  V30 3751 H 378.28 3.0993 3.65349 0
M  V30 3752 H 376.644 1.57268 2.00347 0
M  V30 3753 H 377.427 3.13284 1.40386 0
M  V30 3754 N 379.872 -1.04064 1.18357 0
M  V30 3755 C 380.804 -2.12114 0.868358 0
M  V30 3756 C 381.817 -1.62247 -0.134045 0
M  V30 3757 O 383.006 -1.78253 0.0937933 0
M  V30 3758 C 380.106 -3.37773 0.276132 0
M  V30 3759 C 379.279 -4.16874 1.3242 0
M  V30 3760 C 378.338 -5.20861 0.747662 0
M  V30 3761 O 377.364 -5.51141 1.42239 0
M  V30 3762 N 378.566 -5.78715 -0.454823 0
M  V30 3763 H 381.331 -2.39748 1.79836 0
M  V30 3764 H 378.892 -1.20258 1.08396 0
M  V30 3765 H 380.884 -4.04513 -0.123133 0
M  V30 3766 H 379.454 -3.07581 -0.557895 0
M  V30 3767 H 378.674 -3.45456 1.89878 0
M  V30 3768 H 379.962 -4.66516 2.03078 0
M  V30 3769 H 379.36 -5.56415 -1.02073 0
M  V30 3770 H 377.917 -6.46921 -0.79601 0
M  V30 3771 N 381.35 -0.985608 -1.22978 0
M  V30 3772 C 382.575 -0.675254 -1.961 0
M  V30 3773 C 383 0.752154 -1.72407 0
M  V30 3774 O 382.358 1.5131 -0.998751 0
M  V30 3775 C 382.406 -0.977899 -3.47087 0
M  V30 3776 O 381.51 -0.072685 -4.12336 0
M  V30 3777 H 380.851 -0.253443 -0.613728 0
M  V30 3778 H 383.381 -1.32061 -1.56272 0
M  V30 3779 H 383.391 -0.916739 -3.97567 0
M  V30 3780 H 382.066 -2.01807 -3.63657 0
M  V30 3781 H 380.643 -0.188703 -3.72422 0
M  V30 3782 N 382.828 1.3818 -0.7579 0
M  V30 3783 C 384.244 1.5353 -0.435972 0
M  V30 3784 C 384.444 1.71961 1.05032 0
M  V30 3785 O 383.5 1.73307 1.83633 0
M  V30 3786 C 384.813 2.73989 -1.23898 0
M  V30 3787 C 386.361 2.87841 -1.22949 0
M  V30 3788 C 386.836 4.11266 -2.01554 0
M  V30 3789 N 388.327 4.18352 -1.98837 0
M  V30 3790 C 389.062 5.12856 -2.5645 0
M  V30 3791 N 388.558 6.13005 -3.22794 0
M  V30 3792 N 390.351 5.05238 -2.46356 0
M  V30 3793 H 382.502 1.24467 -1.7211 0
M  V30 3794 H 384.765 0.604982 -0.729864 0
M  V30 3795 H 384.471 2.66789 -2.29165 0
M  V30 3796 H 384.345 3.67294 -0.858764 0
M  V30 3797 H 386.732 2.9452 -0.184854 0
M  V30 3798 H 386.813 1.95534 -1.64924 0
M  V30 3799 H 386.457 4.05349 -3.06031 0
M  V30 3800 H 386.387 5.02661 -1.5697 0
M  V30 3801 H 388.878 3.46628 -1.50524 0
M  V30 3802 H 389.191 6.81619 -3.64165 0
M  V30 3803 H 387.536 6.13325 -3.2689 0
M  V30 3804 H 390.727 4.25938 -1.9415 0
M  V30 3805 H 390.9 5.78707 -2.91552 0
M  V30 3806 N 384.306 0.507319 1.49211 0
M  V30 3807 C 385.583 -0.0982702 1.95353 0
M  V30 3808 C 385.963 -1.53516 1.449 0
M  V30 3809 O 385.311 -2.18594 0.66551 0
M  V30 3810 C 385.521 -0.00440283 3.49 0
M  V30 3811 C 386.869 -0.175147 4.24239 0
M  V30 3812 O 387.893 -0.0792891 3.56112 0
M  V30 3813 O 386.752 -0.37276 5.45227 0
M  V30 3814 H 383.846 -0.0918236 0.821887 0
M  V30 3815 H 386.392 0.570307 1.5983 0
M  V30 3816 H 385.164 0.997402 3.78375 0
M  V30 3817 H 384.787 -0.712845 3.91158 0
M  V30 3818 N 385.784 -1.5574 0.241426 0
M  V30 3819 C 386.747 -2.19877 -0.647063 0
M  V30 3820 C 387.747 -1.16642 -1.10686 0
M  V30 3821 O 388.937 -1.41757 -1.01245 0
M  V30 3822 C 386.069 -2.83797 -1.88871 0
M  V30 3823 H 387.262 -2.99772 -0.087574 0
M  V30 3824 H 384.815 -1.56298 -0.00813574 0
M  V30 3825 H 385.55 -2.07824 -2.48957 0
M  V30 3826 H 385.335 -3.59414 -1.56728 0
M  V30 3827 H 386.825 -3.32898 -2.52129 0
M  V30 3828 N 387.262 0.0317525 -1.57568 0
M  V30 3829 C 388.678 0.38735 -1.54828 0
M  V30 3830 C 388.878 1.7677 -0.967187 0
M  V30 3831 O 387.934 2.45581 -0.587063 0
M  V30 3832 C 389.247 0.291667 -2.99282 0
M  V30 3833 C 390.795 0.368946 -3.10818 0
M  V30 3834 C 391.27 0.302741 -4.56998 0
M  V30 3835 N 392.761 0.361617 -4.61786 0
M  V30 3836 C 393.496 0.333238 -5.72431 0
M  V30 3837 N 392.992 0.257308 -6.92322 0
M  V30 3838 N 394.785 0.382769 -5.60795 0
M  V30 3839 H 386.936 -0.871609 -1.93692 0
M  V30 3840 H 389.199 -0.331161 -0.888277 0
M  V30 3841 H 388.905 -0.656794 -3.45513 0
M  V30 3842 H 388.779 1.08638 -3.61217 0
M  V30 3843 H 391.166 1.30784 -2.64536 0
M  V30 3844 H 391.247 -0.455066 -2.5172 0
M  V30 3845 H 390.891 -0.632473 -5.03947 0
M  V30 3846 H 390.821 1.14482 -5.14005 0
M  V30 3847 H 393.312 0.422923 -3.75526 0
M  V30 3848 H 393.625 0.24068 -7.72425 0
M  V30 3849 H 391.97 0.223396 -6.94641 0
M  V30 3850 H 395.161 0.44006 -4.66027 0
M  V30 3851 H 395.334 0.357184 -6.47015 0
M  V30 3852 N 388.74 1.54641 0.303973 0
M  V30 3853 C 389.672 1.81754 1.39636 0
M  V30 3854 C 390.685 0.70035 1.46966 0
M  V30 3855 O 391.874 0.97778 1.49338 0
M  V30 3856 C 388.974 1.93785 2.7803 0
M  V30 3857 C 388.147 3.24156 2.93669 0
M  V30 3858 C 387.206 3.26641 4.12544 0
M  V30 3859 O 386.232 4.00187 4.04771 0
M  V30 3860 N 387.434 2.5182 5.23036 0
M  V30 3861 H 390.199 2.76031 1.16734 0
M  V30 3862 H 387.76 1.54178 0.494033 0
M  V30 3863 H 389.752 1.92852 3.55795 0
M  V30 3864 H 388.322 1.06515 2.93893 0
M  V30 3865 H 387.542 3.37887 2.03042 0
M  V30 3866 H 388.83 4.10195 3.01027 0
M  V30 3867 H 388.228 1.91692 5.32232 0
M  V30 3868 H 386.785 2.56644 5.99147 0
M  V30 3869 N 390.218 -0.567019 1.47046 0
M  V30 3870 C 391.15 -1.68985 1.54844 0
M  V30 3871 C 392.163 -1.56869 0.435431 0
M  V30 3872 O 393.352 -1.64006 0.70457 0
M  V30 3873 C 390.452 -3.07373 1.42742 0
M  V30 3874 C 389.625 -3.45339 2.6844 0
M  V30 3875 C 388.684 -4.62849 2.50314 0
M  V30 3876 O 387.71 -4.67922 3.24095 0
M  V30 3877 N 388.912 -5.58726 1.57499 0
M  V30 3878 H 391.677 -1.62745 2.51663 0
M  V30 3879 H 389.238 -0.753411 1.43302 0
M  V30 3880 H 391.23 -3.83803 1.28365 0
M  V30 3881 H 389.8 -3.07893 0.540445 0
M  V30 3882 H 389.02 -2.58455 2.97648 0
M  V30 3883 H 390.308 -3.67476 3.51907 0
M  V30 3884 H 389.706 -5.57376 0.966876 0
M  V30 3885 H 388.263 -6.34523 1.49078 0
M  V30 3886 N 391.696 -1.35014 -0.812953 0
M  V30 3887 C 393.112 -1.14914 -1.10757 0
M  V30 3888 C 393.312 0.0426818 -2.01455 0
M  V30 3889 O 392.368 0.715212 -2.42159 0
M  V30 3890 C 393.681 -2.44911 -1.74468 0
M  V30 3891 C 395.229 -2.5106 -1.86917 0
M  V30 3892 C 395.704 -3.81085 -2.54044 0
M  V30 3893 N 397.195 -3.82301 -2.61535 0
M  V30 3894 C 397.93 -4.79634 -3.14227 0
M  V30 3895 N 397.426 -5.87353 -3.67407 0
M  V30 3896 N 399.219 -4.67078 -3.12721 0
M  V30 3897 H 391.37 -2.1136 -0.20989 0
M  V30 3898 H 393.633 -0.935128 -0.155692 0
M  V30 3899 H 393.339 -3.32267 -1.15289 0
M  V30 3900 H 393.213 -2.58989 -2.74234 0
M  V30 3901 H 395.6 -1.64137 -2.45241 0
M  V30 3902 H 395.681 -2.40901 -0.860242 0
M  V30 3903 H 395.325 -4.68402 -1.96372 0
M  V30 3904 H 395.255 -3.88529 -3.55461 0
M  V30 3905 H 397.746 -3.04465 -2.23851 0
M  V30 3906 H 398.059 -6.57624 -4.05894 0
M  V30 3907 H 396.404 -5.91054 -3.65623 0
M  V30 3908 H 399.595 -3.82067 -2.70449 0
M  V30 3909 H 399.768 -5.43098 -3.53481 0
M  V30 3910 N 393.175 1.03435 -1.18907 0
M  V30 3911 C 394.422 1.76743 -0.988334 0
M  V30 3912 C 394.75 1.88447 0.481441 0
M  V30 3913 O 394.005 1.39383 1.37371 0
M  V30 3914 C 394.304 3.19792 -1.59586 0
M  V30 3915 C 393.97 3.28108 -3.09283 0
M  V30 3916 C 392.632 3.30084 -3.5014 0
M  V30 3917 C 394.984 3.27696 -4.05296 0
M  V30 3918 C 392.312 3.29299 -4.85571 0
M  V30 3919 C 394.664 3.28451 -5.4065 0
M  V30 3920 C 393.328 3.28723 -5.80946 0
M  V30 3921 H 392.598 0.64675 -0.361657 0
M  V30 3922 H 395.245 1.21442 -1.48068 0
M  V30 3923 H 393.55 3.78136 -1.02568 0
M  V30 3924 H 395.247 3.75171 -1.41589 0
M  V30 3925 H 391.837 3.27294 -2.76725 0
M  V30 3926 H 396.021 3.25354 -3.74778 0
M  V30 3927 H 391.277 3.2783 -5.16079 0
M  V30 3928 H 395.451 3.27082 -6.14809 0
M  V30 3929 H 393.078 3.27868 -6.85862 0
M  V30 3930 N 394.653 0.992116 1.22453 0
M  V30 3931 C 395.616 0.546883 2.2258 0
M  V30 3932 C 396.616 -0.369829 1.56489 0
M  V30 3933 O 397.806 -0.161896 1.73446 0
M  V30 3934 C 394.938 -0.204659 3.40285 0
M  V30 3935 H 396.131 1.43234 2.63484 0
M  V30 3936 H 393.684 0.779239 1.3549 0
M  V30 3937 H 394.419 -1.10614 3.04853 0
M  V30 3938 H 394.204 0.45354 3.89468 0
M  V30 3939 H 395.694 -0.504358 4.14543 0
M  V30 3940 N 396.131 -1.37776 0.765217 0
M  V30 3941 C 397.081 -2.2768 0.12075 0
M  V30 3942 C 398.065 -1.45778 -0.680988 0
M  V30 3943 O 399.257 -1.684 -0.545033 0
M  V30 3944 C 396.386 -3.34722 -0.762626 0
M  V30 3945 C 395.472 -4.24074 0.0465881 0
M  V30 3946 N 395.863 -4.93939 1.08892 0
M  V30 3947 C 394.161 -4.45643 -0.178418 0
M  V30 3948 C 394.862 -5.59845 1.57951 0
M  V30 3949 N 393.838 -5.36218 0.892797 0
M  V30 3950 H 397.64 -2.79166 0.918889 0
M  V30 3951 H 395.154 -1.50816 0.602353 0
M  V30 3952 H 397.151 -3.98031 -1.24005 0
M  V30 3953 H 395.811 -2.84793 -1.55959 0
M  V30 3954 H 396.822 -4.96572 1.47095 0
M  V30 3955 H 393.499 -4.06599 -0.9478 0
M  V30 3956 H 394.889 -6.25703 2.44838 0
M  V30 3957 N 397.609 -0.515225 -1.4894 0
M  V30 3958 C 398.856 0.024215 -2.02486 0
M  V30 3959 C 399.184 1.35671 -1.39368 0
M  V30 3960 O 398.439 1.88566 -0.523574 0
M  V30 3961 C 398.738 0.210595 -3.56779 0
M  V30 3962 C 398.404 -1.04569 -4.38607 0
M  V30 3963 C 397.066 -1.39002 -4.60686 0
M  V30 3964 C 399.418 -1.88008 -4.86109 0
M  V30 3965 C 396.746 -2.568 -5.27514 0
M  V30 3966 C 399.098 -3.04972 -5.54234 0
M  V30 3967 C 397.762 -3.39768 -5.74555 0
M  V30 3968 H 397.032 0.00886088 -0.740947 0
M  V30 3969 H 399.679 -0.678263 -1.79086 0
M  V30 3970 H 397.984 0.99572 -3.78936 0
M  V30 3971 H 399.681 0.642659 -3.95817 0
M  V30 3972 H 396.271 -0.767497 -4.21672 0
M  V30 3973 H 400.455 -1.62719 -4.68867 0
M  V30 3974 H 395.711 -2.8398 -5.41447 0
M  V30 3975 H 399.885 -3.69943 -5.90013 0
M  V30 3976 H 397.512 -4.31148 -6.26112 0
M  V30 3977 N 399.087 1.5561 -0.249682 0
M  V30 3978 C 400.315 2.03411 0.378352 0
M  V30 3979 C 400.73 1.12886 1.51335 0
M  V30 3980 O 400.087 0.143833 1.81932 0
M  V30 3981 C 400.138 3.50537 0.88351 0
M  V30 3982 O 399.859 4.37614 -0.20626 0
M  V30 3983 C 401.36 4.14113 1.58195 0
M  V30 3984 H 398.58 0.664994 0.08958 0
M  V30 3985 H 401.124 2.01044 -0.374357 0
M  V30 3986 H 399.279 3.5343 1.58639 0
M  V30 3987 H 399.693 5.24199 0.177782 0
M  V30 3988 H 401.167 5.18741 1.8871 0
M  V30 3989 H 401.644 3.60767 2.50487 0
M  V30 3990 H 402.25 4.15151 0.923573 0
M  V30 3991 N 400.565 -0.0233959 1.57583 0
M  V30 3992 C 401.475 -1.03907 2.10334 0
M  V30 3993 C 402.491 -1.39257 1.04323 0
M  V30 3994 O 403.667 -1.48462 1.36091 0
M  V30 3995 C 400.732 -2.31938 2.57693 0
M  V30 3996 C 399.793 -2.03117 3.78209 0
M  V30 3997 C 399.026 -3.25043 4.233 0
M  V30 3998 O 399.249 -4.35916 3.67876 0
M  V30 3999 O 398.183 -3.10411 5.15683 0
M  V30 4000 H 402.009 -0.620748 2.97288 0
M  V30 4001 H 399.594 -0.240743 1.47448 0
M  V30 4002 H 401.476 -3.07196 2.88458 0
M  V30 4003 H 400.151 -2.73055 1.73847 0
M  V30 4004 H 399.058 -1.25408 3.52454 0
M  V30 4005 H 400.391 -1.66852 4.63056 0
M  V30 4006 N 402.043 -1.548 -0.295768 0
M  V30 4007 C 402.973 -1.89115 -1.36959 0
M  V30 4008 C 403.954 -0.75059 -1.52644 0
M  V30 4009 O 405.139 -1.00678 -1.66065 0
M  V30 4010 C 402.269 -2.14307 -2.73295 0
M  V30 4011 C 401.223 -3.30151 -2.72368 0
M  V30 4012 C 400.549 -3.40772 -4.12042 0
M  V30 4013 C 401.849 -4.67126 -2.33646 0
M  V30 4014 H 403.543 -2.79053 -1.08488 0
M  V30 4015 H 401.089 -1.34266 -0.520443 0
M  V30 4016 H 403.042 -2.36898 -3.48507 0
M  V30 4017 H 401.766 -1.21145 -3.03301 0
M  V30 4018 H 400.425 -3.0749 -1.99613 0
M  V30 4019 H 400.073 -2.45117 -4.39234 0
M  V30 4020 H 399.773 -4.18645 -4.12322 0
M  V30 4021 H 401.297 -3.6563 -4.89027 0
M  V30 4022 H 402.711 -4.89414 -2.98575 0
M  V30 4023 H 401.108 -5.47751 -2.45129 0
M  V30 4024 H 402.178 -4.67489 -1.28772 0
M  V30 4025 N 403.521 0.559213 -1.47345 0
M  V30 4026 C 404.484 1.64854 -1.59235 0
M  V30 4027 C 405.484 1.53851 -0.467607 0
M  V30 4028 O 406.674 1.58045 -0.732617 0
M  V30 4029 C 403.806 3.04388 -1.53496 0
M  V30 4030 H 404.999 1.55662 -2.56339 0
M  V30 4031 H 402.552 0.778973 -1.35505 0
M  V30 4032 H 403.287 3.19115 -0.577604 0
M  V30 4033 H 403.072 3.13783 -2.35123 0
M  V30 4034 H 404.562 3.83642 -1.6495 0
M  V30 4035 N 404.999 1.35443 0.805782 0
M  V30 4036 C 406.248 1.28097 1.55801 0
M  V30 4037 C 406.561 -0.142428 1.95081 0
M  V30 4038 O 407.767 -0.33817 2.69386 0
M  V30 4039 C 406.223 2.24653 2.81174 0
M  V30 4040 C 405.831 3.72342 2.49129 0
M  V30 4041 C 407.575 2.2625 3.59181 0
M  V30 4042 C 405.482 4.60719 3.70799 0
M  V30 4043 H 404.412 0.475937 0.584808 0
M  V30 4044 H 407.063 1.60712 0.885661 0
M  V30 4045 H 405.445 1.85011 3.50124 0
M  V30 4046 H 406.619 4.20624 1.88181 0
M  V30 4047 H 404.934 3.73361 1.84366 0
M  V30 4048 H 407.531 2.89495 4.49552 0
M  V30 4049 H 407.874 1.26647 3.96568 0
M  V30 4050 H 408.407 2.64426 2.97193 0
M  V30 4051 H 405.146 5.61324 3.3852 0
M  V30 4052 H 404.666 4.17163 4.3097 0
M  V30 4053 H 406.345 4.76182 4.38018 0
M  V30 4054 N 406.477 -1.02803 1.19454 0
M  V30 4055 C 407.726 -1.7562 0.991996 0
M  V30 4056 C 408.039 -1.89672 -0.477901 0
M  V30 4057 O 409.245 -2.59468 -0.799287 0
M  V30 4058 C 407.701 -3.15812 1.72601 0
M  V30 4059 C 407.309 -3.0981 3.23607 0
M  V30 4060 C 409.053 -3.92918 1.60674 0
M  V30 4061 C 406.96 -4.44939 3.89594 0
M  V30 4062 H 405.89 -0.658352 0.367543 0
M  V30 4063 H 408.541 -1.15044 1.42959 0
M  V30 4064 H 406.923 -3.7686 1.21624 0
M  V30 4065 H 408.097 -2.58138 3.81709 0
M  V30 4066 H 406.412 -2.46201 3.35819 0
M  V30 4067 H 409.009 -4.9287 2.07323 0
M  V30 4068 H 409.352 -4.12502 0.561025 0
M  V30 4069 H 409.885 -3.38472 2.09001 0
M  V30 4070 H 406.624 -4.30559 4.94267 0
M  V30 4071 H 406.144 -4.96664 3.36281 0
M  V30 4072 H 407.823 -5.1382 3.93189 0
M  V30 4073 N 407.956 -0.998596 -1.21925 0
M  V30 4074 C 409.181 -0.696015 -1.95372 0
M  V30 4075 C 409.606 0.733826 -1.73195 0
M  V30 4076 O 408.964 1.50242 -1.01474 0
M  V30 4077 C 409.012 -1.01466 -3.4603 0
M  V30 4078 O 408.116 -0.116415 -4.12236 0
M  V30 4079 H 407.457 -0.259938 -0.611006 0
M  V30 4080 H 409.987 -1.33711 -1.54863 0
M  V30 4081 H 409.997 -0.958855 -3.96573 0
M  V30 4082 H 408.672 -2.05653 -3.61497 0
M  V30 4083 H 407.249 -0.228193 -3.72201 0
M  V30 4084 N 409.434 1.37368 -0.772513 0
M  V30 4085 C 410.68 1.99969 -0.337681 0
M  V30 4086 C 411.013 1.61184 1.08321 0
M  V30 4087 O 410.288 0.858395 1.74533 0
M  V30 4088 C 410.571 3.56858 -0.482121 0
M  V30 4089 C 410.424 4.0555 -1.94549 0
M  V30 4090 C 411.743 4.39955 0.113143 0
M  V30 4091 H 408.862 0.726464 -0.124171 0
M  V30 4092 H 411.504 1.63034 -0.975699 0
M  V30 4093 H 409.654 3.88452 0.0610361 0
M  V30 4094 H 411.326 3.84518 -2.54841 0
M  V30 4095 H 409.569 3.57715 -2.45403 0
M  V30 4096 H 410.24 5.14587 -1.9976 0
M  V30 4097 H 412.716 4.14623 -0.35031 0
M  V30 4098 H 411.592 5.48897 -0.0180514 0
M  V30 4099 H 411.853 4.25403 1.20354 0
M  V30 4100 N 410.912 0.523116 1.48665 0
M  V30 4101 C 411.844 -0.280421 2.27478 0
M  V30 4102 C 412.857 -0.910694 1.34945 0
M  V30 4103 O 414.046 -0.790295 1.60052 0
M  V30 4104 C 411.146 -1.41171 3.08097 0
M  V30 4105 C 410.319 -0.884642 4.28361 0
M  V30 4106 C 409.378 -1.89622 4.90846 0
M  V30 4107 O 408.404 -1.4559 5.50265 0
M  V30 4108 N 409.606 -3.22801 4.82472 0
M  V30 4109 H 412.371 0.395481 2.97079 0
M  V30 4110 H 409.932 0.357018 1.57915 0
M  V30 4111 H 411.924 -2.08645 3.4677 0
M  V30 4112 H 410.494 -1.99139 2.40961 0
M  V30 4113 H 409.714 -0.0341177 3.94185 0
M  V30 4114 H 411.002 -0.511268 5.06225 0
M  V30 4115 H 410.4 -3.61246 4.35336 0
M  V30 4116 H 408.957 -3.85927 5.25265 0
M  V30 4117 N 412.39 -1.55475 0.257931 0
M  V30 4118 C 413.3 -2.2549 -0.647425 0
M  V30 4119 C 414.316 -1.2748 -1.18427 0
M  V30 4120 O 415.492 -1.6038 -1.2182 0
M  V30 4121 C 412.557 -2.94916 -1.82278 0
M  V30 4122 C 411.618 -4.08363 -1.32432 0
M  V30 4123 C 410.851 -4.74469 -2.44366 0
M  V30 4124 O 411.074 -4.39701 -3.63344 0
M  V30 4125 O 410.008 -5.62763 -2.13497 0
M  V30 4126 H 413.834 -3.03593 -0.0807707 0
M  V30 4127 H 411.419 -1.49377 0.0259962 0
M  V30 4128 H 413.301 -3.38606 -2.50846 0
M  V30 4129 H 411.976 -2.19744 -2.37685 0
M  V30 4130 H 410.883 -3.69166 -0.605605 0
M  V30 4131 H 412.216 -4.85385 -0.816211 0
M  V30 4132 N 413.868 0.0150385 -1.57593 0
M  V30 4133 C 415.117 0.702115 -1.89085 0
M  V30 4134 C 415.43 1.75764 -0.858277 0
M  V30 4135 O 416.636 2.49829 -1.0629 0
M  V30 4136 C 415.092 1.29992 -3.35604 0
M  V30 4137 C 414.7 0.280007 -4.47124 0
M  V30 4138 C 416.444 1.96606 -3.76227 0
M  V30 4139 C 414.351 0.886949 -5.84711 0
M  V30 4140 H 413.281 0.265997 -0.705522 0
M  V30 4141 H 415.932 -0.0430408 -1.8345 0
M  V30 4142 H 414.314 2.09525 -3.36029 0
M  V30 4143 H 415.488 -0.489631 -4.58191 0
M  V30 4144 H 413.803 -0.284835 -4.15425 0
M  V30 4145 H 416.4 2.42893 -4.76347 0
M  V30 4146 H 416.743 2.79024 -3.08952 0
M  V30 4147 H 417.276 1.23828 -3.78036 0
M  V30 4148 H 414.015 0.101876 -6.55421 0
M  V30 4149 H 413.535 1.6261 -5.77337 0
M  V30 4150 H 415.214 1.39011 -6.3189 0
M  V30 4151 N 415.346 1.54954 0.287554 0
M  V30 4152 C 416.592 1.75132 1.02257 0
M  V30 4153 C 416.925 0.542858 1.86458 0
M  V30 4154 O 416.2 -0.459856 1.88986 0
M  V30 4155 C 416.483 3.04812 1.91733 0
M  V30 4156 C 416.336 4.35985 1.10622 0
M  V30 4157 C 417.655 3.30438 2.90687 0
M  V30 4158 H 414.774 0.637194 0.370341 0
M  V30 4159 H 417.416 1.87678 0.296111 0
M  V30 4160 H 415.566 2.94247 2.53675 0
M  V30 4161 H 417.238 4.58487 0.508636 0
M  V30 4162 H 415.481 4.31865 0.409271 0
M  V30 4163 H 416.152 5.23017 1.76513 0
M  V30 4164 H 418.628 3.40701 2.38877 0
M  V30 4165 H 417.504 4.22467 3.50447 0
M  V30 4166 H 417.765 2.49377 3.65053 0
M  V30 4167 N 416.824 -0.551391 1.4764 0
M  V30 4168 C 418.101 -1.31229 1.45046 0
M  V30 4169 C 418.481 -2.10563 0.150527 0
M  V30 4170 O 417.829 -2.11374 -0.867956 0
M  V30 4171 C 418.039 -2.21189 2.69956 0
M  V30 4172 C 419.387 -2.82021 3.1741 0
M  V30 4173 O 420.411 -2.31488 2.70724 0
M  V30 4174 O 419.27 -3.73885 3.98588 0
M  V30 4175 H 416.364 -0.591193 0.578291 0
M  V30 4176 H 418.91 -0.569813 1.59847 0
M  V30 4177 H 417.682 -1.62207 3.56096 0
M  V30 4178 H 417.305 -3.02722 2.57769 0
M  V30 4179 N 418.302 -1.35869 -0.798587 0
M  V30 4180 C 419.549 -1.29588 -1.55606 0
M  V30 4181 C 419.877 0.127456 -1.94082 0
M  V30 4182 O 419.132 1.09461 -1.62225 0
M  V30 4183 C 419.431 -2.1556 -2.85077 0
M  V30 4184 C 419.097 -3.6424 -2.65781 0
M  V30 4185 C 417.759 -4.04766 -2.60227 0
M  V30 4186 C 420.111 -4.58547 -2.47758 0
M  V30 4187 C 417.439 -5.37753 -2.34603 0
M  V30 4188 C 419.791 -5.91742 -2.23662 0
M  V30 4189 C 418.455 -6.31402 -2.16534 0
M  V30 4190 H 417.725 -0.474197 -0.569402 0
M  V30 4191 H 420.372 -1.67839 -0.922086 0
M  V30 4192 H 418.677 -1.70216 -3.52893 0
M  V30 4193 H 420.374 -2.08031 -3.42818 0
M  V30 4194 H 416.964 -3.32086 -2.70956 0
M  V30 4195 H 421.148 -4.28117 -2.51056 0
M  V30 4196 H 416.404 -5.67474 -2.2756 0
M  V30 4197 H 420.578 -6.6439 -2.08708 0
M  V30 4198 H 418.205 -7.34381 -1.96441 0
M  V30 4199 N 419.78 1.02168 -1.19998 0
M  V30 4200 C 420.743 2.08765 -0.94604 0
M  V30 4201 C 421.743 1.60618 0.0763846 0
M  V30 4202 O 422.933 1.73472 -0.159135 0
M  V30 4203 C 420.065 3.38262 -0.423255 0
M  V30 4204 H 421.258 2.32726 -1.89153 0
M  V30 4205 H 418.811 1.1889 -1.01464 0
M  V30 4206 H 419.546 3.19974 0.527938 0
M  V30 4207 H 419.331 3.74532 -1.16053 0
M  V30 4208 H 420.821 4.16759 -0.264911 0
M  V30 4209 N 421.258 1.00505 1.21394 0
M  V30 4210 C 422.205 0.565496 2.23765 0
M  V30 4211 C 423.175 -0.408466 1.60999 0
M  V30 4212 O 424.36 -0.310503 1.88257 0
M  V30 4213 C 421.5 -0.101667 3.4495 0
M  V30 4214 C 420.613 0.915479 4.22188 0
M  V30 4215 C 419.748 0.220574 5.30742 0
M  V30 4216 C 418.787 1.22527 5.99711 0
M  V30 4217 N 417.924 0.557831 6.9988 0
M  V30 4218 H 422.764 1.44314 2.60725 0
M  V30 4219 H 420.301 0.722643 1.28126 0
M  V30 4220 H 422.259 -0.505504 4.14126 0
M  V30 4221 H 420.889 -0.94303 3.08718 0
M  V30 4222 H 419.941 1.43756 3.52191 0
M  V30 4223 H 421.253 1.68005 4.69655 0
M  V30 4224 H 420.407 -0.239368 6.06228 0
M  V30 4225 H 419.146 -0.576401 4.84282 0
M  V30 4226 H 418.151 1.69571 5.22997 0
M  V30 4227 H 419.376 2.02332 6.48258 0
M  V30 4228 H 417.322 -0.219486 6.55633 0
M  V30 4229 H 417.239 1.26065 7.45415 0
M  V30 4230 H 418.507 0.121095 7.79406 0
M  V30 4231 N 422.737 -1.36956 0.779787 0
M  V30 4232 C 423.669 -2.28833 0.129639 0
M  V30 4233 C 424.682 -1.4902 -0.655511 0
M  V30 4234 O 425.871 -1.71578 -0.492279 0
M  V30 4235 C 422.971 -3.2833 -0.839792 0
M  V30 4236 C 422.144 -4.3727 -0.10675 0
M  V30 4237 C 421.203 -5.16789 -0.990717 0
M  V30 4238 O 420.229 -5.67406 -0.451516 0
M  V30 4239 N 421.431 -5.32294 -2.3161 0
M  V30 4240 H 424.196 -2.85268 0.918803 0
M  V30 4241 H 421.757 -1.49019 0.632841 0
M  V30 4242 H 423.749 -3.78413 -1.43477 0
M  V30 4243 H 422.319 -2.72605 -1.52988 0
M  V30 4244 H 421.539 -3.88478 0.669216 0
M  V30 4245 H 422.827 -5.07229 0.399464 0
M  V30 4246 H 422.225 -4.92768 -2.77843 0
M  V30 4247 H 420.782 -5.85656 -2.86095 0
M  V30 4248 N 424.215 -0.530993 -1.48385 0
M  V30 4249 C 425.461 0.00274135 -2.028 0
M  V30 4250 C 425.794 1.33838 -1.40716 0
M  V30 4251 O 425.069 1.86465 -0.553277 0
M  V30 4252 C 425.352 0.123676 -3.59888 0
M  V30 4253 C 425.205 -1.2372 -4.3245 0
M  V30 4254 C 426.524 0.849967 -4.31814 0
M  V30 4255 H 423.643 -0.000477758 -0.737 0
M  V30 4256 H 426.285 -0.688217 -1.77098 0
M  V30 4257 H 424.435 0.712157 -3.81917 0
M  V30 4258 H 426.107 -1.86687 -4.21836 0
M  V30 4259 H 424.35 -1.81882 -3.93829 0
M  V30 4260 H 425.021 -1.10557 -5.40815 0
M  V30 4261 H 427.497 0.350572 -4.14621 0
M  V30 4262 H 426.373 0.903486 -5.41413 0
M  V30 4263 H 426.634 1.90047 -3.99167 0
M  V30 4264 N 425.693 1.55336 -0.266172 0
M  V30 4265 C 427.104 1.85236 0.233315 0
M  V30 4266 C 427.455 1.18816 1.56132 0
M  V30 4267 O 426.58 0.473307 2.11161 0
M  V30 4268 C 427.175 3.36059 0.430113 0
M  V30 4269 C 425.734 3.66116 0.873842 0
M  V30 4270 C 424.881 2.77274 -0.0380016 0
M  V30 4271 H 427.832 1.51004 -0.488214 0
M  V30 4272 H 427.853 3.58681 1.26998 0
M  V30 4273 H 427.365 3.84373 -0.536588 0
M  V30 4274 H 425.466 3.23295 1.85233 0
M  V30 4275 H 425.579 4.73699 0.717358 0
M  V30 4276 H 423.943 2.50198 0.476759 0
M  V30 4277 H 424.726 3.284 -1.00042 0
M  V30 4278 N 427.171 -0.0066808 1.57599 0
M  V30 4279 C 428.419 -0.691552 1.899 0
M  V30 4280 C 428.74 -1.74682 0.866672 0
M  V30 4281 O 428.01 -1.95661 -0.0968189 0
M  V30 4282 H 426.59 -0.258416 0.700878 0
M  V30 4283 H 429.252 0.0326655 1.94873 0
M  V30 4284 H 428.348 -1.16702 2.8946 0
M  V30 4285 N 428.649 -1.55105 -0.279332 0
M  V30 4286 C 429.896 -1.75412 -1.01177 0
M  V30 4287 C 430.224 -0.551728 -1.86511 0
M  V30 4288 O 429.479 0.465919 -1.90073 0
M  V30 4289 C 429.778 -3.0086 -1.92919 0
M  V30 4290 C 429.444 -4.33689 -1.23387 0
M  V30 4291 C 428.106 -4.69792 -1.04159 0
M  V30 4292 C 430.458 -5.15941 -0.738562 0
M  V30 4293 C 427.786 -5.85707 -0.341166 0
M  V30 4294 C 430.138 -6.32579 -0.0517636 0
M  V30 4295 C 428.802 -6.67326 0.152292 0
M  V30 4296 H 428.072 -0.641879 -0.370233 0
M  V30 4297 H 430.719 -1.89373 -0.284627 0
M  V30 4298 H 429.024 -2.81773 -2.72234 0
M  V30 4299 H 430.721 -3.13768 -2.49701 0
M  V30 4300 H 427.311 -4.05309 -1.39364 0
M  V30 4301 H 431.495 -4.8853 -0.874764 0
M  V30 4302 H 426.751 -6.11157 -0.172287 0
M  V30 4303 H 430.925 -6.9557 0.339828 0
M  V30 4304 H 428.552 -7.56998 0.697014 0
M  V30 4305 N 430.127 0.543554 -1.4793 0
M  V30 4306 C 431.057 1.65888 -1.64327 0
M  V30 4307 C 432.038 1.62818 -0.492383 0
M  V30 4308 O 433.223 1.80226 -0.723338 0
M  V30 4309 C 430.353 3.04506 -1.67013 0
M  V30 4310 C 429.307 3.2243 -2.81466 0
M  V30 4311 C 428.633 4.61972 -2.69233 0
M  V30 4312 C 429.933 3.06496 -4.22915 0
M  V30 4313 H 431.627 1.52421 -2.57698 0
M  V30 4314 H 429.173 0.731849 -1.24016 0
M  V30 4315 H 431.126 3.82391 -1.77074 0
M  V30 4316 H 429.85 3.18964 -0.70212 0
M  V30 4317 H 428.509 2.46957 -2.70938 0
M  V30 4318 H 428.157 4.73247 -1.7043 0
M  V30 4319 H 427.857 4.74911 -3.46025 0
M  V30 4320 H 429.381 5.41974 -2.81242 0
M  V30 4321 H 430.795 3.74186 -4.34348 0
M  V30 4322 H 429.192 3.30938 -5.006 0
M  V30 4323 H 430.262 2.03077 -4.40327 0
M  V30 4324 N 431.605 1.3629 0.791371 0
M  V30 4325 C 432.537 1.26321 1.91248 0
M  V30 4326 C 433.55 0.18313 1.61767 0
M  V30 4327 O 434.739 0.437682 1.73051 0
M  V30 4328 C 431.839 0.925901 3.26007 0
M  V30 4329 C 431.012 2.10746 3.83281 0
M  V30 4330 C 430.071 1.74352 4.96475 0
M  V30 4331 O 429.097 2.46416 5.13096 0
M  V30 4332 N 430.299 0.676058 5.7655 0
M  V30 4333 H 433.064 2.22915 2.00323 0
M  V30 4334 H 430.625 1.29659 0.969546 0
M  V30 4335 H 432.617 0.663636 3.99222 0
M  V30 4336 H 431.187 0.0491581 3.12561 0
M  V30 4337 H 430.407 2.53264 3.02077 0
M  V30 4338 H 431.695 2.8969 4.18279 0
M  V30 4339 H 431.093 0.0776467 5.65647 0
M  V30 4340 H 429.65 0.473612 6.50077 0
M  V30 4341 N 433.083 -1.0153 1.20538 0
M  V30 4342 C 434.013 -2.11972 0.979295 0
M  V30 4343 C 434.994 -1.6985 -0.0921787 0
M  V30 4344 O 436.179 -1.94089 0.0655932 0
M  V30 4345 C 433.309 -3.43201 0.531984 0
M  V30 4346 C 432.263 -3.9907 1.54685 0
M  V30 4347 C 431.589 -5.26082 0.956127 0
M  V30 4348 C 432.889 -4.32313 2.93092 0
M  V30 4349 H 434.583 -2.31143 1.90298 0
M  V30 4350 H 432.129 -1.11079 0.916372 0
M  V30 4351 H 434.082 -4.1985 0.361044 0
M  V30 4352 H 432.806 -3.23792 -0.427327 0
M  V30 4353 H 431.465 -3.2453 1.70517 0
M  V30 4354 H 431.113 -5.02999 -0.0111538 0
M  V30 4355 H 430.813 -5.64426 1.63393 0
M  V30 4356 H 432.337 -6.05386 0.796284 0
M  V30 4357 H 433.751 -4.99845 2.80763 0
M  V30 4358 H 432.148 -4.81774 3.57791 0
M  V30 4359 H 433.218 -3.41025 3.44717 0
M  V30 4360 N 434.561 -1.01147 -1.20859 0
M  V30 4361 C 435.809 -0.696486 -1.89719 0
M  V30 4362 C 436.13 0.775788 -1.78904 0
M  V30 4363 O 435.4 1.55759 -1.18811 0
M  V30 4364 H 433.98 -0.254628 -0.702263 0
M  V30 4365 H 436.642 -1.28197 -1.46804 0
M  V30 4366 H 435.738 -0.975357 -2.96468 0
M  V30 4367 N 436.039 1.36541 -0.78704 0
M  V30 4368 C 437.455 1.52571 -0.46844 0
M  V30 4369 C 437.655 1.7415 1.01361 0
M  V30 4370 O 436.711 1.77163 1.79915 0
M  V30 4371 C 438.024 2.71299 -1.29682 0
M  V30 4372 C 439.572 2.85169 -1.29027 0
M  V30 4373 C 440.047 4.06898 -2.10233 0
M  V30 4374 N 441.538 4.1404 -2.07666 0
M  V30 4375 C 442.273 5.07301 -2.67271 0
M  V30 4376 N 441.769 6.06021 -3.35724 0
M  V30 4377 N 443.562 4.99898 -2.57018 0
M  V30 4378 H 435.713 1.20788 -1.74711 0
M  V30 4379 H 437.976 0.589364 -0.742532 0
M  V30 4380 H 437.682 2.61868 -2.34773 0
M  V30 4381 H 437.556 3.6539 -0.936479 0
M  V30 4382 H 439.943 2.94062 -0.247284 0
M  V30 4383 H 440.024 1.91992 -1.69035 0
M  V30 4384 H 439.668 3.98766 -3.1456 0
M  V30 4385 H 439.598 4.99218 -1.67597 0
M  V30 4386 H 442.089 3.43357 -1.57843 0
M  V30 4387 H 442.402 6.73741 -3.78541 0
M  V30 4388 H 440.747 6.06253 -3.39826 0
M  V30 4389 H 443.938 4.21724 -2.03142 0
M  V30 4390 H 444.111 5.72392 -3.03761 0
M  V30 4391 N 437.518 0.538854 1.48102 0
M  V30 4392 C 438.428 -0.222648 2.33541 0
M  V30 4393 C 439.444 -0.930225 1.47047 0
M  V30 4394 O 440.62 -0.903211 1.80011 0
M  V30 4395 C 437.685 -1.25064 3.23357 0
M  V30 4396 C 436.746 -0.552469 4.2573 0
M  V30 4397 C 435.979 -1.53149 5.11254 0
M  V30 4398 O 436.202 -2.76487 4.9891 0
M  V30 4399 O 435.136 -1.06602 5.92385 0
M  V30 4400 H 438.962 0.477707 2.99919 0
M  V30 4401 H 436.547 0.299669 1.46364 0
M  V30 4402 H 438.429 -1.8445 3.78888 0
M  V30 4403 H 437.104 -1.93325 2.59629 0
M  V30 4404 H 436.011 0.082114 3.7401 0
M  V30 4405 H 437.344 0.0883526 4.92121 0
M  V30 4406 N 438.996 -1.55193 0.274407 0
M  V30 4407 C 440.273 -1.91584 -0.394331 0
M  V30 4408 C 440.653 -1.19858 -1.73774 0
M  V30 4409 O 440.001 -0.3252 -2.26174 0
M  V30 4410 C 440.211 -3.4487 -0.535311 0
M  V30 4411 C 441.559 -4.16636 -0.818534 0
M  V30 4412 O 442.583 -3.5076 -0.620146 0
M  V30 4413 O 441.442 -5.33209 -1.19792 0
M  V30 4414 H 438.536 -0.798349 -0.215794 0
M  V30 4415 H 441.082 -1.66646 0.320507 0
M  V30 4416 H 439.854 -3.89145 0.410141 0
M  V30 4417 H 439.477 -3.75759 -1.29964 0
M  V30 4418 N 440.474 -0.00167713 -1.576 0
M  V30 4419 C 441.406 1.0174 -2.05382 0
M  V30 4420 C 442.419 1.30595 -0.972052 0
M  V30 4421 O 443.608 1.27542 -1.24882 0
M  V30 4422 C 440.708 2.35174 -2.44022 0
M  V30 4423 C 439.881 2.25234 -3.74951 0
M  V30 4424 C 438.94 3.4137 -4.00441 0
M  V30 4425 O 437.966 3.19483 -4.71083 0
M  V30 4426 N 439.168 4.64275 -3.48467 0
M  V30 4427 H 441.933 0.609902 -2.93428 0
M  V30 4428 H 439.494 0.185672 -1.60832 0
M  V30 4429 H 441.486 3.11643 -2.58187 0
M  V30 4430 H 440.056 2.67659 -1.61485 0
M  V30 4431 H 439.276 1.33664 -3.70847 0
M  V30 4432 H 440.564 2.15767 -4.60784 0
M  V30 4433 H 439.962 4.84955 -2.91264 0
M  V30 4434 H 438.519 5.38005 -3.67959 0
M  V30 4435 N 441.952 1.55251 0.271103 0
M  V30 4436 C 443.201 1.75151 1.00025 0
M  V30 4437 C 443.514 0.561041 1.87381 0
M  V30 4438 O 444.72 0.642506 2.63788 0
M  V30 4439 C 443.176 3.09999 1.82835 0
M  V30 4440 C 442.784 4.3662 1.00336 0
M  V30 4441 C 444.528 3.39249 2.55168 0
M  V30 4442 C 442.435 5.62506 1.82595 0
M  V30 4443 H 441.365 0.652877 0.377183 0
M  V30 4444 H 444.016 1.81708 0.255843 0
M  V30 4445 H 442.398 2.97485 2.61378 0
M  V30 4446 H 443.572 4.60055 0.261959 0
M  V30 4447 H 441.887 4.14527 0.394486 0
M  V30 4448 H 444.484 4.3051 3.1712 0
M  V30 4449 H 444.827 2.59467 3.2555 0
M  V30 4450 H 445.36 3.52869 1.83653 0
M  V30 4451 H 442.099 6.45041 1.16631 0
M  V30 4452 H 441.619 5.43211 2.54327 0
M  V30 4453 H 443.298 6.00875 2.39913 0
M  V30 4454 N 443.43 -0.535701 1.48216 0
M  V30 4455 C 444.393 -1.623 1.61838 0
M  V30 4456 C 445.393 -1.53087 0.492024 0
M  V30 4457 O 446.583 -1.5686 0.757668 0
M  V30 4458 C 443.715 -3.01907 1.58319 0
M  V30 4459 H 444.908 -1.51564 2.58783 0
M  V30 4460 H 442.461 -0.757317 1.36727 0
M  V30 4461 H 443.196 -3.18155 0.628299 0
M  V30 4462 H 442.981 -3.10003 2.40085 0
M  V30 4463 H 444.471 -3.80969 1.71033 0
M  V30 4464 N 444.908 -1.36708 -0.784132 0
M  V30 4465 C 445.838 -1.34153 -1.91116 0
M  V30 4466 C 446.819 -0.212121 -1.68772 0
M  V30 4467 O 448.004 -0.410581 -1.8981 0
M  V30 4468 C 445.134 -1.13535 -3.28218 0
M  V30 4469 C 444.088 -2.23356 -3.65097 0
M  V30 4470 C 443.414 -1.87875 -5.00607 0
M  V30 4471 C 444.714 -3.65473 -3.73131 0
M  V30 4472 H 446.408 -2.28459 -1.93512 0
M  V30 4473 H 443.954 -1.09973 -0.929618 0
M  V30 4474 H 445.907 -1.10381 -4.06687 0
M  V30 4475 H 444.631 -0.156804 -3.26223 0
M  V30 4476 H 443.29 -2.25645 -2.88929 0
M  V30 4477 H 442.938 -0.885814 -4.95139 0
M  V30 4478 H 442.638 -2.61406 -5.26252 0
M  V30 4479 H 444.162 -1.86286 -5.81489 0
M  V30 4480 H 445.576 -3.65382 -4.41779 0
M  V30 4481 H 443.973 -4.37953 -4.10265 0
M  V30 4482 H 445.043 -3.99995 -2.74102 0
M  V30 4483 N 446.386 1.0089 -1.21074 0
M  V30 4484 C 447.316 2.1145 -0.990523 0
M  V30 4485 C 448.297 1.69897 0.0831699 0
M  V30 4486 O 449.482 1.94052 -0.0758853 0
M  V30 4487 C 446.612 3.42914 -0.550177 0
M  V30 4488 C 445.566 3.98244 -1.56799 0
M  V30 4489 C 444.892 5.25568 -0.984013 0
M  V30 4490 C 446.192 4.30752 -2.95381 0
M  V30 4491 H 447.886 2.3013 -1.91521 0
M  V30 4492 H 445.432 1.10592 -0.92225 0
M  V30 4493 H 447.385 4.19653 -0.383305 0
M  V30 4494 H 446.109 3.24014 0.41015 0
M  V30 4495 H 444.768 3.23621 -1.72236 0
M  V30 4496 H 444.416 5.02998 -0.0155216 0
M  V30 4497 H 444.116 5.63551 -1.66384 0
M  V30 4498 H 445.64 6.04955 -0.828378 0
M  V30 4499 H 447.054 4.98349 -2.8341 0
M  V30 4500 H 445.451 4.79869 -3.60341 0
M  V30 4501 H 446.521 3.39192 -3.46521 0
M  V30 4502 N 447.864 1.01787 1.20321 0
M  V30 4503 C 448.811 0.589197 2.23153 0
M  V30 4504 C 449.781 -0.391367 1.61423 0
M  V30 4505 O 450.966 -0.290518 1.88575 0
M  V30 4506 C 448.106 -0.0650747 3.45039 0
M  V30 4507 C 447.219 0.960207 4.21194 0
M  V30 4508 C 446.354 0.276854 5.30478 0
M  V30 4509 C 445.393 1.2888 5.98378 0
M  V30 4510 N 444.53 0.632031 6.99249 0
M  V30 4511 H 449.37 1.47071 2.59179 0
M  V30 4512 H 446.907 0.736192 1.27352 0
M  V30 4513 H 448.865 -0.461552 4.14639 0
M  V30 4514 H 447.495 -0.910233 3.09701 0
M  V30 4515 H 446.547 1.47484 3.50646 0
M  V30 4516 H 447.859 1.72977 4.67847 0
M  V30 4517 H 447.013 -0.175056 6.06447 0
M  V30 4518 H 445.752 -0.525004 4.84866 0
M  V30 4519 H 444.757 1.75109 5.21169 0
M  V30 4520 H 445.982 2.09196 6.46076 0
M  V30 4521 H 443.928 -0.149935 6.55829 0
M  V30 4522 H 443.845 1.33964 7.44036 0
M  V30 4523 H 445.113 0.203755 7.79234 0
M  V30 4524 N 449.342 -1.36122 0.79427 0
M  V30 4525 C 450.305 -2.28309 0.201889 0
M  V30 4526 C 451.305 -1.49041 -0.603603 0
M  V30 4527 O 452.495 -1.68964 -0.423888 0
M  V30 4528 C 449.627 -3.3321 -0.719978 0
M  V30 4529 H 450.82 -2.82208 1.01481 0
M  V30 4530 H 448.373 -1.45768 0.564037 0
M  V30 4531 H 449.108 -2.84475 -1.55706 0
M  V30 4532 H 448.893 -3.91835 -0.144266 0
M  V30 4533 H 450.383 -4.02044 -1.12916 0
M  V30 4534 N 450.82 -0.546701 -1.47814 0
M  V30 4535 C 452.045 -0.021268 -2.07389 0
M  V30 4536 C 452.47 1.25822 -1.39822 0
M  V30 4537 O 451.828 1.75111 -0.46968 0
M  V30 4538 C 451.876 0.168502 -3.60206 0
M  V30 4539 O 450.98 1.23347 -3.93522 0
M  V30 4540 H 450.321 -0.0466108 -0.662362 0
M  V30 4541 H 452.851 -0.759387 -1.89985 0
M  V30 4542 H 452.861 0.385982 -4.0617 0
M  V30 4543 H 451.536 -0.766075 -4.08784 0
M  V30 4544 H 450.113 0.997319 -3.59316 0
M  V30 4545 N 452.299 1.55045 -0.282633 0
M  V30 4546 C 453.527 2.04168 0.33512 0
M  V30 4547 C 453.942 1.16071 1.48906 0
M  V30 4548 O 453.299 0.182391 1.81586 0
M  V30 4549 C 453.35 3.52332 0.808957 0
M  V30 4550 O 453.071 4.37078 -0.299038 0
M  V30 4551 C 454.572 4.17375 1.49375 0
M  V30 4552 H 451.792 0.666744 0.0754543 0
M  V30 4553 H 454.336 2.00205 -0.416918 0
M  V30 4554 H 452.491 3.56715 1.51106 0
M  V30 4555 H 452.905 5.24458 0.0665514 0
M  V30 4556 H 454.379 5.22627 1.77664 0
M  V30 4557 H 454.856 3.65999 2.42778 0
M  V30 4558 H 455.462 4.17016 0.835305 0
M  V30 4559 N 453.777 0.010035 1.57597 0
M  V30 4560 C 455.026 -0.671945 1.90178 0
M  V30 4561 C 455.339 -1.74376 0.886131 0
M  V30 4562 O 456.545 -2.48107 1.10252 0
M  V30 4563 C 455.001 -1.24636 3.3763 0
M  V30 4564 C 454.609 -0.208838 4.47513 0
M  V30 4565 C 456.353 -1.90595 3.79307 0
M  V30 4566 C 454.26 -0.793814 5.86048 0
M  V30 4567 H 453.19 -0.25474 0.709665 0
M  V30 4568 H 455.841 0.0722206 1.83358 0
M  V30 4569 H 454.223 -2.04152 3.3932 0
M  V30 4570 H 455.397 0.562463 4.57354 0
M  V30 4571 H 453.712 0.350889 4.14919 0
M  V30 4572 H 456.309 -2.35284 4.80151 0
M  V30 4573 H 456.652 -2.74074 3.13352 0
M  V30 4574 H 457.185 -1.17798 3.79958 0
M  V30 4575 H 453.924 0.00240855 6.555 0
M  V30 4576 H 453.444 -1.53404 5.79851 0
M  V30 4577 H 455.123 -1.2894 6.34022 0
M  V30 4578 N 455.255 -1.55392 -0.262866 0
M  V30 4579 C 456.165 -1.92077 -1.34698 0
M  V30 4580 C 457.181 -0.819227 -1.53508 0
M  V30 4581 O 458.357 -1.11921 -1.67439 0
M  V30 4582 C 455.422 -2.19407 -2.68443 0
M  V30 4583 C 454.483 -3.42905 -2.58292 0
M  V30 4584 C 453.716 -3.68921 -3.85659 0
M  V30 4585 O 453.939 -2.97275 -4.8681 0
M  V30 4586 O 452.873 -4.62455 -3.85252 0
M  V30 4587 H 456.699 -2.84384 -1.06581 0
M  V30 4588 H 454.284 -1.42069 -0.462264 0
M  V30 4589 H 456.166 -2.38365 -3.47506 0
M  V30 4590 H 454.841 -1.30282 -2.96325 0
M  V30 4591 H 453.748 -3.29272 -1.7757 0
M  V30 4592 H 455.081 -4.32282 -2.35358 0
M  V30 4593 N 456.733 0.527833 -1.48498 0
M  V30 4594 C 457.982 1.28003 -1.55878 0
M  V30 4595 C 458.295 1.9414 -0.238577 0
M  V30 4596 O 459.501 2.7083 -0.190643 0
M  V30 4597 C 457.957 2.32272 -2.74914 0
M  V30 4598 C 457.565 1.72196 -4.13585 0
M  V30 4599 C 459.309 3.08488 -2.91608 0
M  V30 4600 C 457.216 2.74417 -5.23879 0
M  V30 4601 H 456.146 0.481413 -0.580308 0
M  V30 4602 H 458.797 0.557195 -1.74836 0
M  V30 4603 H 457.179 3.07601 -2.49395 0
M  V30 4604 H 458.353 1.03041 -4.49132 0
M  V30 4605 H 456.668 1.08464 -4.02025 0
M  V30 4606 H 459.265 3.84879 -3.71177 0
M  V30 4607 H 459.608 3.64481 -2.01145 0
M  V30 4608 H 460.141 2.40274 -3.17038 0
M  V30 4609 H 456.88 2.23242 -6.16314 0
M  V30 4610 H 456.4 3.41893 -4.92818 0
M  V30 4611 H 458.079 3.37362 -5.52083 0
M  V30 4612 N 458.211 1.37122 0.776871 0
M  V30 4613 C 459.144 1.26835 1.89705 0
M  V30 4614 C 460.122 0.14992 1.61907 0
M  V30 4615 O 461.306 0.323242 1.85708 0
M  V30 4616 C 458.433 0.95986 3.24814 0
M  V30 4617 C 457.479 2.09447 3.7153 0
M  V30 4618 S 458.312 3.71368 3.85806 0
M  V30 4619 C 459.468 3.42659 5.23771 0
M  V30 4620 H 459.701 2.21647 1.98141 0
M  V30 4621 H 457.234 1.22685 0.937433 0
M  V30 4622 H 459.192 0.788696 4.02852 0
M  V30 4623 H 457.853 0.0293137 3.14086 0
M  V30 4624 H 457.046 1.8335 4.69467 0
M  V30 4625 H 456.648 2.2255 3.00578 0
M  V30 4626 H 458.94 2.9733 6.0877 0
M  V30 4627 H 459.883 4.39905 5.54878 0
M  V30 4628 H 460.291 2.77708 4.91466 0
M  V30 4629 N 459.689 -1.00246 1.21608 0
M  V30 4630 C 460.619 -2.10921 1.00172 0
M  V30 4631 C 461.6 -1.69938 -0.0741587 0
M  V30 4632 O 462.785 -1.94009 0.0861753 0
M  V30 4633 C 459.915 -3.42618 0.568355 0
M  V30 4634 C 458.869 -3.97407 1.58909 0
M  V30 4635 C 458.195 -5.25038 1.01187 0
M  V30 4636 C 459.495 -4.2918 2.97661 0
M  V30 4637 H 461.189 -2.29112 1.92739 0
M  V30 4638 H 458.735 -1.10101 0.928102 0
M  V30 4639 H 460.688 -4.19444 0.405555 0
M  V30 4640 H 459.412 -3.24227 -0.392961 0
M  V30 4641 H 458.071 -3.22703 1.73949 0
M  V30 4642 H 457.719 -5.02982 0.0421965 0
M  V30 4643 H 457.419 -5.62661 1.6937 0
M  V30 4644 H 458.943 -6.04507 0.860448 0
M  V30 4645 H 460.357 -4.96839 2.86049 0
M  V30 4646 H 458.754 -4.77952 3.6288 0
M  V30 4647 H 459.824 -3.3735 3.48315 0
M  V30 4648 N 461.167 -1.02423 -1.1978 0
M  V30 4649 C 462.097 -0.62157 -2.25075 0
M  V30 4650 C 463.078 0.367148 -1.6609 0
M  V30 4651 O 464.263 0.250892 -1.92573 0
M  V30 4652 C 461.393 0.0331826 -3.47284 0
M  V30 4653 C 460.347 -0.877323 -4.18912 0
M  V30 4654 C 459.673 -0.0879296 -5.34628 0
M  V30 4655 C 460.973 -2.18892 -4.74219 0
M  V30 4656 H 462.667 -1.50179 -2.59011 0
M  V30 4657 H 460.213 -0.723547 -1.24502 0
M  V30 4658 H 462.166 0.326488 -4.20133 0
M  V30 4659 H 460.89 0.948164 -3.12534 0
M  V30 4660 H 459.549 -1.15475 -3.47938 0
M  V30 4661 H 459.197 0.828941 -4.96123 0
M  V30 4662 H 458.897 -0.694359 -5.83483 0
M  V30 4663 H 460.421 0.198743 -6.10276 0
M  V30 4664 H 461.835 -1.95746 -5.38847 0
M  V30 4665 H 460.232 -2.74686 -5.33542 0
M  V30 4666 H 461.302 -2.84674 -3.92541 0
M  V30 4667 N 462.645 1.35699 -0.801477 0
M  V30 4668 C 463.555 2.33661 -0.209691 0
M  V30 4669 C 464.571 1.6162 0.644591 0
M  V30 4670 O 465.747 1.93529 0.557545 0
M  V30 4671 C 462.812 3.40816 0.636033 0
M  V30 4672 C 461.873 4.28639 -0.238147 0
M  V30 4673 C 461.106 5.30676 0.567307 0
M  V30 4674 O 461.329 5.41174 1.8024 0
M  V30 4675 O 460.263 6.01887 -0.0391336 0
M  V30 4676 H 464.089 2.8606 -1.01996 0
M  V30 4677 H 461.674 1.38379 -0.563164 0
M  V30 4678 H 463.556 4.06301 1.11791 0
M  V30 4679 H 462.231 2.90696 1.42399 0
M  V30 4680 H 461.138 3.66152 -0.767044 0
M  V30 4681 H 462.471 4.82143 -0.989915 0
M  V30 4682 N 464.123 0.554532 1.47522 0
M  V30 4683 C 465.351 0.034257 2.06872 0
M  V30 4684 C 465.766 -1.25826 1.40759 0
M  V30 4685 O 465.123 -1.75425 0.503217 0
M  V30 4686 C 465.174 -0.167827 3.6111 0
M  V30 4687 O 464.895 1.07351 4.24744 0
M  V30 4688 C 466.396 -0.72569 4.3732 0
M  V30 4689 H 463.616 0.0446275 0.669514 0
M  V30 4690 H 466.16 0.767181 1.89564 0
M  V30 4691 H 464.315 -0.850872 3.7794 0
M  V30 4692 H 464.729 0.869563 5.17242 0
M  V30 4693 H 466.203 -0.816394 5.45929 0
M  V30 4694 H 466.68 -1.73635 4.0342 0
M  V30 4695 H 467.286 -0.0784292 4.25228 0
M  V30 4696 N 465.601 -1.54893 0.290851 0
M  V30 4697 C 466.564 -2.21824 -0.576784 0
M  V30 4698 C 467.564 -1.20104 -1.06919 0
M  V30 4699 O 468.754 -1.44906 -0.966843 0
M  V30 4700 C 465.886 -2.89662 -1.79747 0
M  V30 4701 H 467.079 -2.99899 0.00784051 0
M  V30 4702 H 464.632 -1.56245 0.0415934 0
M  V30 4703 H 465.367 -2.15639 -2.42219 0
M  V30 4704 H 465.152 -3.64219 -1.45214 0
M  V30 4705 H 466.642 -3.4075 -2.4141 0
M  V30 4706 N 467.08 -0.0183926 -1.57589 0
M  V30 4707 C 468.496 0.337897 -1.55982 0
M  V30 4708 C 468.696 1.73604 -1.02294 0
M  V30 4709 O 467.752 2.43589 -0.664895 0
M  V30 4710 C 469.065 0.196305 -3.00059 0
M  V30 4711 C 470.613 0.269875 -3.11834 0
M  V30 4712 C 471.088 0.157197 -4.5773 0
M  V30 4713 N 472.579 0.214521 -4.62703 0
M  V30 4714 C 473.314 0.150955 -5.73201 0
M  V30 4715 N 472.81 0.0369212 -6.9279 0
M  V30 4716 N 474.603 0.204162 -5.61729 0
M  V30 4717 H 466.754 -0.93279 -1.90821 0
M  V30 4718 H 469.017 -0.359253 -0.877292 0
M  V30 4719 H 468.723 -0.766383 -3.43248 0
M  V30 4720 H 468.597 0.970908 -3.6449 0
M  V30 4721 H 470.984 1.22302 -2.68563 0
M  V30 4722 H 471.065 -0.534918 -2.50144 0
M  V30 4723 H 470.709 -0.792479 -5.01679 0
M  V30 4724 H 470.639 0.980717 -5.17387 0
M  V30 4725 H 473.13 0.303238 -3.76681 0
M  V30 4726 H 473.443 -0.00518321 -7.728 0
M  V30 4727 H 471.788 0.0022886 -6.95 0
M  V30 4728 H 474.979 0.291575 -4.67191 0
M  V30 4729 H 475.152 0.15116 -6.47824 0
M  V30 4730 N 468.558 1.5553 0.254621 0
M  V30 4731 C 469.974 1.4778 0.602753 0
M  V30 4732 C 470.174 0.707047 1.88688 0
M  V30 4733 O 469.23 0.233288 2.5142 0
M  V30 4734 C 470.543 2.92133 0.712648 0
M  V30 4735 C 472.091 3.02458 0.805488 0
M  V30 4736 C 472.566 4.48102 0.947009 0
M  V30 4737 N 474.057 4.52008 1.01207 0
M  V30 4738 C 474.792 5.61939 1.1407 0
M  V30 4739 N 474.288 6.81697 1.23536 0
M  V30 4740 N 476.081 5.49719 1.17325 0
M  V30 4741 H 468.232 2.04085 -0.588463 0
M  V30 4742 H 470.495 0.926229 -0.202001 0
M  V30 4743 H 470.201 3.51332 -0.160766 0
M  V30 4744 H 470.075 3.42187 1.58707 0
M  V30 4745 H 472.462 2.43344 1.66936 0
M  V30 4746 H 472.543 2.55627 -0.0939266 0
M  V30 4747 H 472.187 5.07824 0.087725 0
M  V30 4748 H 472.117 4.92607 1.86135 0
M  V30 4749 H 474.608 3.65749 0.950577 0
M  V30 4750 H 474.921 7.61228 1.33236 0
M  V30 4751 H 473.266 6.84473 1.20508 0
M  V30 4752 H 476.457 4.55095 1.09573 0
M  V30 4753 H 476.63 6.35432 1.27005 0
M  V30 4754 N 470.036 -0.519951 1.48776 0
M  V30 4755 C 471.266 -1.29783 1.60748 0
M  V30 4756 C 471.674 -1.87253 0.27072 0
M  V30 4757 O 471.017 -1.67628 -0.751438 0
M  V30 4758 C 471.079 -2.47984 2.60277 0
M  V30 4759 C 470.743 -2.11526 4.051 0
M  V30 4760 C 471.74 -1.66608 4.92481 0
M  V30 4761 C 469.425 -2.21742 4.50706 0
M  V30 4762 C 471.419 -1.32384 6.23501 0
M  V30 4763 C 469.106 -1.87129 5.81744 0
M  V30 4764 C 470.104 -1.42523 6.67964 0
M  V30 4765 O 469.792 -1.0837 7.96562 0
M  V30 4766 H 469.524 -0.400562 0.544542 0
M  V30 4767 H 472.078 -0.632879 1.95407 0
M  V30 4768 H 470.308 -3.17493 2.2076 0
M  V30 4769 H 471.997 -3.10036 2.61978 0
M  V30 4770 H 472.763 -1.58178 4.58481 0
M  V30 4771 H 468.642 -2.55415 3.83776 0
M  V30 4772 H 472.186 -0.974949 6.90754 0
M  V30 4773 H 468.083 -1.95204 6.15277 0
M  V30 4774 H 468.851 -1.21681 8.09405 0
M  V30 4775 N 471.514 -1.37532 -0.769588 0
M  V30 4776 C 472.462 -1.33561 -1.90432 0
M  V30 4777 C 473.456 -0.224027 -1.67912 0
M  V30 4778 O 474.662 -0.392174 -1.75676 0
M  V30 4779 H 471.037 -0.416279 -0.626271 0
M  V30 4780 H 473.008 -2.29348 -1.90899 0
M  V30 4781 C 471.757 -1.16162 -3.27722 0
M  V30 4782 H 471.08 -2.00951 -3.45628 0
M  V30 4783 H 472.52 -1.17434 -4.07413 0
M  V30 4784 C 470.979 0.132583 -3.36639 0
M  V30 4785 O 471.509 1.11539 -3.85904 0
M  V30 4786 N 469.715 0.184013 -2.90017 0
M  V30 4787 H 469.262 -0.616415 -2.50116 0
M  V30 4788 H 469.22 1.04956 -2.96364 0
M  V30 4789 N 472.992 0.995999 -1.22138 0
M  V30 4790 C 473.942 2.06988 -0.956042 0
M  V30 4791 C 474.926 1.60636 0.0921576 0
M  V30 4792 O 476.118 1.76607 -0.117958 0
M  V30 4793 C 473.247 3.39148 -0.532335 0
M  V30 4794 C 472.333 3.92142 -1.61509 0
M  V30 4795 N 472.724 4.18397 -2.84214 0
M  V30 4796 C 471.022 4.20514 -1.48606 0
M  V30 4797 C 471.723 4.61425 -3.54206 0
M  V30 4798 N 470.699 4.64934 -2.81669 0
M  V30 4799 H 474.501 2.25223 -1.88816 0
M  V30 4800 H 472.015 1.17748 -1.11845 0
M  V30 4801 H 474.012 4.15642 -0.323574 0
M  V30 4802 H 472.672 3.22314 0.392921 0
M  V30 4803 H 473.683 4.06682 -3.20671 0
M  V30 4804 H 470.36 4.12769 -0.626762 0
M  V30 4805 H 471.75 4.90387 -4.59315 0
M  V30 4806 N 474.47 1.03057 1.19235 0
M  V30 4807 C 475.38 0.622922 2.26179 0
M  V30 4808 C 476.396 -0.346113 1.70523 0
M  V30 4809 O 477.572 -0.203572 2.00369 0
M  V30 4810 C 474.637 -0.0182063 3.46695 0
M  V30 4811 C 473.698 0.998546 4.17526 0
M  V30 4812 C 472.931 0.387917 5.32288 0
M  V30 4813 O 473.154 -0.808668 5.64639 0
M  V30 4814 O 472.088 1.1116 5.91546 0
M  V30 4815 H 475.914 1.51363 2.63292 0
M  V30 4816 H 473.499 0.800856 1.26122 0
M  V30 4817 H 475.381 -0.375606 4.19723 0
M  V30 4818 H 474.056 -0.882895 3.11427 0
M  V30 4819 H 472.963 1.40756 3.4661 0
M  V30 4820 H 474.296 1.83366 4.56769 0
M  V30 4821 N 475.948 -1.35272 0.808662 0
M  V30 4822 C 477.176 -2.02946 0.402537 0
M  V30 4823 C 477.591 -1.60937 -0.987147 0
M  V30 4824 O 476.948 -0.807917 -1.63643 0
M  V30 4825 C 476.999 -3.58317 0.47868 0
M  V30 4826 O 476.72 -3.98799 1.81358 0
M  V30 4827 C 478.221 -4.43251 0.0656281 0
M  V30 4828 H 475.441 -0.650831 0.163279 0
M  V30 4829 H 477.985 -1.72849 1.09286 0
M  V30 4830 H 476.14 -3.87055 -0.163415 0
M  V30 4831 H 476.554 -4.93451 1.77781 0
M  V30 4832 H 478.028 -5.51738 0.170017 0
M  V30 4833 H 478.505 -4.27913 -0.989278 0
M  V30 4834 H 479.111 -4.19813 0.68096 0
M  V30 4835 N 477.426 -0.562348 -1.47226 0
M  V30 4836 C 478.336 0.185466 -2.33866 0
M  V30 4837 C 479.352 0.906713 -1.48508 0
M  V30 4838 O 480.528 0.874458 -1.81425 0
M  V30 4839 C 477.593 1.19904 -3.25306 0
M  V30 4840 C 476.654 0.484669 -4.26555 0
M  V30 4841 C 475.887 1.44996 -5.13626 0
M  V30 4842 O 476.11 2.68515 -5.03245 0
M  V30 4843 O 475.044 0.971642 -5.94006 0
M  V30 4844 H 478.87 -0.525361 -2.99121 0
M  V30 4845 H 476.455 -0.322916 -1.45868 0
M  V30 4846 H 478.337 1.78399 -3.81774 0
M  V30 4847 H 477.012 1.8917 -2.62672 0
M  V30 4848 H 475.919 -0.141605 -3.73832 0
M  V30 4849 H 477.252 -0.166634 -4.91918 0
M  V30 4850 N 478.904 1.54736 -0.299062 0
M  V30 4851 C 480.144 2.0201 0.31168 0
M  V30 4852 C 480.508 1.18281 1.5124 0
M  V30 4853 O 481.709 1.55243 2.19438 0
M  V30 4854 C 479.98 3.5123 0.661227 0
M  V30 4855 S 481.539 4.20467 1.2551 0
M  V30 4856 H 478.357 0.704523 0.0957517 0
M  V30 4857 H 480.959 1.90791 -0.426482 0
M  V30 4858 H 479.663 4.09804 -0.221171 0
M  V30 4859 H 479.194 3.66481 1.43023 0
M  V30 4860 H 481.209 4.26083 2.54298 0
M  V30 4861 N 480.382 0.0267497 1.57577 0
M  V30 4862 C 481.631 -0.651736 1.9088 0
M  V30 4863 C 481.944 -1.73427 0.904576 0
M  V30 4864 O 483.15 -2.46923 1.12877 0
M  V30 4865 C 481.606 -1.21048 3.38933 0
M  V30 4866 C 481.214 -0.161362 4.47709 0
M  V30 4867 C 482.958 -1.86562 3.81307 0
M  V30 4868 C 480.865 -0.731611 5.86857 0
M  V30 4869 H 479.795 -0.247198 0.712326 0
M  V30 4870 H 482.446 0.0916641 1.83271 0
M  V30 4871 H 480.828 -2.00542 3.41466 0
M  V30 4872 H 482.002 0.61094 4.56732 0
M  V30 4873 H 480.317 0.394877 4.14523 0
M  V30 4874 H 482.914 -2.30178 4.8262 0
M  V30 4875 H 483.257 -2.70735 3.16241 0
M  V30 4876 H 483.79 -1.13762 3.81186 0
M  V30 4877 H 480.529 0.0719329 6.55461 0
M  V30 4878 H 480.049 -1.47245 5.81445 0
M  V30 4879 H 481.728 -1.22208 6.35354 0
M  V30 4880 N 481.861 -1.55662 -0.24637 0
M  V30 4881 C 483.089 -1.81575 -0.991876 0
M  V30 4882 C 483.504 -0.602545 -1.78927 0
M  V30 4883 O 482.861 0.428795 -1.77391 0
M  V30 4884 C 482.912 -3.05711 -1.92933 0
M  V30 4885 O 482.633 -4.22348 -1.1642 0
M  V30 4886 C 484.134 -3.44428 -2.79078 0
M  V30 4887 H 481.354 -0.604209 -0.291844 0
M  V30 4888 H 483.898 -2.02722 -0.269095 0
M  V30 4889 H 482.053 -2.86612 -2.60638 0
M  V30 4890 H 482.467 -4.92706 -1.79835 0
M  V30 4891 H 483.941 -4.34388 -3.40603 0
M  V30 4892 H 484.418 -2.65037 -3.50217 0
M  V30 4893 H 485.024 -3.65879 -2.16824 0
M  V30 4894 N 483.339 0.512053 -1.4905 0
M  V30 4895 C 484.586 1.26686 -1.57978 0
M  V30 4896 C 484.914 1.92733 -0.261553 0
M  V30 4897 O 484.169 1.80772 0.749667 0
M  V30 4898 C 484.468 2.36446 -2.68008 0
M  V30 4899 C 484.134 1.87932 -4.09869 0
M  V30 4900 C 482.796 1.74419 -4.48477 0
M  V30 4901 C 485.148 1.5149 -4.98698 0
M  V30 4902 C 482.476 1.22827 -5.73699 0
M  V30 4903 C 484.828 1.01355 -6.24428 0
M  V30 4904 C 483.492 0.864735 -6.61875 0
M  V30 4905 H 482.762 0.463577 -0.578081 0
M  V30 4906 H 485.409 0.569421 -1.82838 0
M  V30 4907 H 483.714 3.11933 -2.37076 0
M  V30 4908 H 485.411 2.9453 -2.72127 0
M  V30 4909 H 482.001 1.99405 -3.79389 0
M  V30 4910 H 486.185 1.60782 -4.69535 0
M  V30 4911 H 481.441 1.10008 -6.01422 0
M  V30 4912 H 485.615 0.722351 -6.92644 0
M  V30 4913 H 483.242 0.462777 -7.5879 0
M  V30 4914 N 484.817 1.37938 0.762283 0
M  V30 4915 C 485.747 1.37176 1.88958 0
M  V30 4916 C 486.728 0.238945 1.68413 0
M  V30 4917 O 487.913 0.440726 1.89133 0
M  V30 4918 C 485.043 1.18742 3.2637 0
M  V30 4919 C 483.997 2.29136 3.61498 0
M  V30 4920 C 483.323 1.95816 4.97554 0
M  V30 4921 C 484.623 3.71363 3.6727 0
M  V30 4922 H 486.317 2.31509 1.89853 0
M  V30 4923 H 483.863 1.11438 0.912005 0
M  V30 4924 H 485.816 1.16837 4.04879 0
M  V30 4925 H 484.54 0.208683 3.25933 0
M  V30 4926 H 483.199 2.30213 2.85303 0
M  V30 4927 H 482.847 0.964475 4.93667 0
M  V30 4928 H 482.547 2.69745 5.22026 0
M  V30 4929 H 484.071 1.95513 5.78452 0
M  V30 4930 H 485.485 3.72364 4.35911 0
M  V30 4931 H 483.882 4.44425 4.03245 0
M  V30 4932 H 484.952 4.04305 2.67704 0
M  V30 4933 N 486.295 -0.989507 1.22664 0
M  V30 4934 C 487.242 -2.08024 0.999733 0
M  V30 4935 C 488.212 -1.65909 -0.0797047 0
M  V30 4936 O 489.397 -1.90669 0.0705715 0
M  V30 4937 C 486.537 -3.40067 0.587234 0
M  V30 4938 C 485.65 -3.95505 1.73781 0
M  V30 4939 C 484.785 -5.15722 1.27297 0
M  V30 4940 C 483.824 -5.63305 2.39488 0
M  V30 4941 N 482.961 -6.74758 1.94026 0
M  V30 4942 H 487.801 -2.26768 1.9334 0
M  V30 4943 H 485.338 -1.11171 0.963297 0
M  V30 4944 H 487.296 -4.15899 0.329227 0
M  V30 4945 H 485.926 -3.21314 -0.309426 0
M  V30 4946 H 484.978 -3.16513 2.11006 0
M  V30 4947 H 486.29 -4.26797 2.58158 0
M  V30 4948 H 485.444 -5.98854 0.972546 0
M  V30 4949 H 484.183 -4.86061 0.399445 0
M  V30 4950 H 483.188 -4.78759 2.70315 0
M  V30 4951 H 484.413 -5.94988 3.27362 0
M  V30 4952 H 482.359 -6.46874 1.09041 0
M  V30 4953 H 482.276 -7.05386 2.71968 0
M  V30 4954 H 483.544 -7.61387 1.67062 0
M  V30 4955 N 487.773 -1.03688 -1.18687 0
M  V30 4956 C 489.05 -0.652397 -1.84399 0
M  V30 4957 C 489.43 0.868386 -1.92412 0
M  V30 4958 O 488.778 1.76832 -1.44716 0
M  V30 4959 C 488.988 -1.3238 -3.22919 0
M  V30 4960 C 490.336 -1.45216 -3.98996 0
M  V30 4961 O 491.36 -1.2816 -3.32345 0
M  V30 4962 O 490.219 -1.72975 -5.18403 0
M  V30 4963 H 487.313 -0.227793 -0.795009 0
M  V30 4964 H 489.859 -1.13553 -1.2611 0
M  V30 4965 H 488.631 -2.36202 -3.11968 0
M  V30 4966 H 488.254 -0.829039 -3.88861 0
M  V30 4967 N 489.251 1.34841 -0.815825 0
M  V30 4968 C 490.498 1.98499 -0.400535 0
M  V30 4969 C 490.826 1.64699 1.03463 0
M  V30 4970 O 490.081 0.907006 1.73412 0
M  V30 4971 C 490.38 3.53273 -0.541541 0
M  V30 4972 C 490.046 4.06966 -1.94138 0
M  V30 4973 C 488.708 4.21341 -2.32433 0
M  V30 4974 C 491.06 4.35933 -2.85677 0
M  V30 4975 C 488.388 4.62007 -3.61617 0
M  V30 4976 C 490.74 4.78042 -4.14317 0
M  V30 4977 C 489.404 4.90622 -4.52599 0
M  V30 4978 H 488.674 0.72636 -0.146566 0
M  V30 4979 H 491.321 1.60902 -1.0384 0
M  V30 4980 H 489.626 3.91387 0.179741 0
M  V30 4981 H 491.323 4.00497 -0.20085 0
M  V30 4982 H 487.913 3.96235 -1.63388 0
M  V30 4983 H 492.097 4.24372 -2.57337 0
M  V30 4984 H 487.353 4.69937 -3.91113 0
M  V30 4985 H 491.527 4.99415 -4.85342 0
M  V30 4986 H 489.154 5.2189 -5.52752 0
M  V30 4987 N 490.729 0.570148 1.46925 0
M  V30 4988 C 491.957 0.0561966 2.06824 0
M  V30 4989 C 492.372 -1.24326 1.42086 0
M  V30 4990 O 491.729 -1.74882 0.521794 0
M  V30 4991 C 491.78 -0.129517 3.61268 0
M  V30 4992 O 491.501 1.1185 4.23581 0
M  V30 4993 C 493.002 -0.679266 4.38065 0
M  V30 4994 H 490.222 0.0517261 0.669003 0
M  V30 4995 H 492.766 0.787243 1.8874 0
M  V30 4996 H 490.921 -0.810739 3.78822 0
M  V30 4997 H 491.335 0.924375 5.1629 0
M  V30 4998 H 492.809 -0.758445 5.46765 0
M  V30 4999 H 493.286 -1.69346 4.05239 0
M  V30 5000 H 493.892 -0.0333237 4.25287 0
M  V30 5001 N 492.207 -1.54576 0.307264 0
M  V30 5002 C 493.437 -2.04378 -0.302158 0
M  V30 5003 C 493.845 -1.18381 -1.47589 0
M  V30 5004 O 493.188 -0.20352 -1.82569 0
M  V30 5005 C 493.25 -3.50133 -0.815305 0
M  V30 5006 C 492.914 -4.56401 0.233977 0
M  V30 5007 C 493.911 -5.08884 1.06456 0
M  V30 5008 C 491.596 -5.0088 0.377478 0
M  V30 5009 C 493.59 -6.04394 2.02452 0
M  V30 5010 C 491.277 -5.96208 1.34088 0
M  V30 5011 C 492.275 -6.47849 2.16288 0
M  V30 5012 O 491.963 -7.41308 3.10994 0
M  V30 5013 H 491.695 -0.672502 -0.0686839 0
M  V30 5014 H 494.249 -2.00484 0.446682 0
M  V30 5015 H 492.479 -3.51371 -1.61478 0
M  V30 5016 H 494.168 -3.83098 -1.34129 0
M  V30 5017 H 494.934 -4.75311 0.964596 0
M  V30 5018 H 490.813 -4.60309 -0.252405 0
M  V30 5019 H 494.357 -6.44626 2.66652 0
M  V30 5020 H 490.254 -6.29198 1.44154 0
M  V30 5021 H 491.022 -7.5913 3.06045 0
M  V30 5022 N 493.685 -0.035106 -1.57561 0
M  V30 5023 C 494.91 0.655802 -1.96759 0
M  V30 5024 C 495.335 1.64523 -0.911809 0
M  V30 5025 O 494.693 1.80857 0.126673 0
M  V30 5026 C 494.741 1.33326 -3.35047 0
M  V30 5027 O 493.845 2.44866 -3.31835 0
M  V30 5028 H 493.186 0.171807 -0.641388 0
M  V30 5029 H 495.716 -0.0987369 -2.04362 0
M  V30 5030 H 495.726 1.68867 -3.71413 0
M  V30 5031 H 494.401 0.608033 -4.11431 0
M  V30 5032 H 492.978 2.11392 -3.07193 0
M  V30 5033 N 495.163 1.55791 0.238111 0
M  V30 5034 C 496.11 1.9105 1.29493 0
M  V30 5035 C 497.08 0.765733 1.47397 0
M  V30 5036 O 498.265 1.02017 1.61236 0
M  V30 5037 C 495.405 2.21826 2.64362 0
M  V30 5038 C 494.518 3.49153 2.54394 0
M  V30 5039 C 493.653 3.69455 3.81676 0
M  V30 5040 C 492.692 4.90353 3.66361 0
M  V30 5041 N 491.829 5.07131 4.85554 0
M  V30 5042 H 496.669 2.81172 0.987233 0
M  V30 5043 H 494.206 1.39179 0.476203 0
M  V30 5044 H 496.164 2.37675 3.4288 0
M  V30 5045 H 494.794 1.34897 2.93262 0
M  V30 5046 H 493.846 3.41587 1.67399 0
M  V30 5047 H 495.158 4.37818 2.38991 0
M  V30 5048 H 494.312 3.85311 4.68636 0
M  V30 5049 H 493.051 2.7904 3.99985 0
M  V30 5050 H 492.056 4.74464 2.77784 0
M  V30 5051 H 493.281 5.82237 3.49538 0
M  V30 5052 H 491.227 4.19654 5.04209 0
M  V30 5053 H 491.144 5.89899 4.72816 0
M  V30 5054 H 492.412 5.27407 5.73988 0
M  V30 5055 N 496.642 -0.504142 1.49319 0
M  V30 5056 C 497.919 -1.26548 1.49147 0
M  V30 5057 C 498.299 -2.09977 0.21744 0
M  V30 5058 O 497.647 -2.14028 -0.800269 0
M  V30 5059 C 497.857 -2.12489 2.76857 0
M  V30 5060 C 499.205 -2.7178 3.26222 0
M  V30 5061 O 500.229 -2.22758 2.77952 0
M  V30 5062 O 499.088 -3.61015 4.10281 0
M  V30 5063 H 496.182 -0.572495 0.596806 0
M  V30 5064 H 498.728 -0.51867 1.61579 0
M  V30 5065 H 497.5 -1.50796 3.61077 0
M  V30 5066 H 497.123 -2.94368 2.6727 0
M  V30 5067 N 498.12 -1.38341 -0.754957 0
M  V30 5068 C 499.397 -1.24995 -1.50451 0
M  V30 5069 C 499.777 0.149244 -2.10572 0
M  V30 5070 O 499.125 1.15861 -1.96948 0
M  V30 5071 C 499.335 -2.35904 -2.57197 0
M  V30 5072 C 500.683 -2.74262 -3.24138 0
M  V30 5073 O 501.707 -2.35205 -2.67501 0
M  V30 5074 O 500.566 -3.4161 -4.26574 0
M  V30 5075 H 497.66 -0.48872 -0.667144 0
M  V30 5076 H 500.206 -1.50165 -0.790486 0
M  V30 5077 H 498.978 -3.2953 -2.11011 0
M  V30 5078 H 498.601 -2.12291 -3.36182 0
M  V30 5079 N 499.598 0.982988 -1.23187 0
M  V30 5080 C 500.845 1.72392 -1.06241 0
M  V30 5081 C 501.173 1.9032 0.40108 0
M  V30 5082 O 500.428 1.45084 1.31336 0
M  V30 5083 C 500.727 3.12736 -1.73006 0
M  V30 5084 C 500.393 3.14695 -3.22921 0
M  V30 5085 C 499.055 3.14937 -3.63824 0
M  V30 5086 C 501.407 3.10211 -4.1883 0
M  V30 5087 C 498.735 3.08408 -4.99101 0
M  V30 5088 C 501.087 3.05224 -5.54095 0
M  V30 5089 C 499.751 3.03787 -5.94365 0
M  V30 5090 H 499.021 0.630829 -0.388762 0
M  V30 5091 H 501.668 1.15053 -1.53085 0
M  V30 5092 H 499.973 3.73446 -1.18514 0
M  V30 5093 H 501.67 3.68828 -1.57374 0
M  V30 5094 H 498.26 3.15262 -2.90358 0
M  V30 5095 H 502.444 3.09166 -3.8824 0
M  V30 5096 H 497.7 3.05646 -5.29519 0
M  V30 5097 H 501.874 3.00712 -6.28128 0
M  V30 5098 H 499.501 2.98483 -6.99151 0
M  V30 5099 N 501.076 1.04316 1.18135 0
M  V30 5100 C 502.026 0.606731 2.19779 0
M  V30 5101 C 503.01 -0.352144 1.56999 0
M  V30 5102 O 504.202 -0.170795 1.76174 0
M  V30 5103 C 501.331 -0.0262443 3.4329 0
M  V30 5104 C 500.417 0.955928 4.13186 0
M  V30 5105 N 500.808 2.12395 4.59045 0
M  V30 5106 C 499.106 0.782473 4.39082 0
M  V30 5107 C 499.807 2.74458 5.12882 0
M  V30 5108 N 498.783 2.02316 5.04548 0
M  V30 5109 H 502.585 1.49679 2.5293 0
M  V30 5110 H 500.099 0.912088 1.34368 0
M  V30 5111 H 502.096 -0.356617 4.15372 0
M  V30 5112 H 500.756 -0.911811 3.11635 0
M  V30 5113 H 501.767 2.50272 4.53414 0
M  V30 5114 H 498.444 -0.0527906 4.17467 0
M  V30 5115 H 499.834 3.73459 5.5855 0
M  V30 5116 N 502.554 -1.34406 0.822964 0
M  V30 5117 C 503.97 -1.51275 0.508727 0
M  V30 5118 C 504.17 -1.76776 -0.967083 0
M  V30 5119 O 503.226 -1.81871 -1.75155 0
M  V30 5120 C 504.539 -2.67765 1.36829 0
M  V30 5121 C 506.087 -2.81647 1.36542 0
M  V30 5122 C 506.562 -4.01181 2.20947 0
M  V30 5123 N 508.053 -4.08388 2.18571 0
M  V30 5124 C 508.788 -5.00036 2.80627 0
M  V30 5125 N 508.284 -5.96906 3.51674 0
M  V30 5126 N 510.077 -4.92908 2.70181 0
M  V30 5127 H 502.228 -1.16113 1.77852 0
M  V30 5128 H 504.491 -0.56947 0.757897 0
M  V30 5129 H 504.197 -2.55551 2.41633 0
M  V30 5130 H 504.071 -3.62779 1.03303 0
M  V30 5131 H 506.458 -2.93303 0.325163 0
M  V30 5132 H 506.539 -1.87443 1.74066 0
M  V30 5133 H 506.183 -3.90286 3.25022 0
M  V30 5134 H 506.113 -4.94599 1.80774 0
M  V30 5135 H 508.604 -3.39051 1.66891 0
M  V30 5136 H 508.917 -6.63468 3.96271 0
M  V30 5137 H 507.262 -5.9703 3.5578 0
M  V30 5138 H 510.453 -4.1619 2.14251 0
M  V30 5139 H 510.626 -5.64137 3.18831 0
M  V30 5140 N 504.032 -0.577932 -1.46621 0
M  V30 5141 C 504.995 0.147805 -2.28723 0
M  V30 5142 C 505.995 0.823325 -1.38123 0
M  V30 5143 O 507.185 0.676011 -1.60548 0
M  V30 5144 C 504.317 1.21853 -3.18378 0
M  V30 5145 H 505.51 -0.573654 -2.94362 0
M  V30 5146 H 503.063 -0.335703 -1.52652 0
M  V30 5147 H 503.798 1.97173 -2.57475 0
M  V30 5148 H 503.583 0.738714 -3.85078 0
M  V30 5149 H 505.073 1.72768 -3.80186 0
M  V30 5150 N 505.51 1.54411 -0.315457 0
M  V30 5151 C 506.758 2.00023 0.288971 0
M  V30 5152 C 507.079 1.20529 1.5329 0
M  V30 5153 O 506.349 0.304986 1.93511 0
M  V30 5154 H 504.929 0.738891 0.109766 0
M  V30 5155 H 507.591 1.90094 -0.430129 0
M  V30 5156 H 506.687 3.07198 0.550999 0
M  V30 5157 N 506.988 0.0434614 1.5754 0
M  V30 5158 C 507.918 -0.931651 2.14109 0
M  V30 5159 C 508.899 -1.32971 1.06079 0
M  V30 5160 O 510.084 -1.40579 1.33982 0
M  V30 5161 C 507.214 -2.20914 2.67982 0
M  V30 5162 C 506.168 -1.95139 3.80926 0
M  V30 5163 C 505.494 -3.29276 4.21285 0
M  V30 5164 C 506.794 -1.27913 5.06395 0
M  V30 5165 H 508.488 -0.460497 2.95837 0
M  V30 5166 H 506.034 -0.220058 1.42309 0
M  V30 5167 H 507.987 -2.89522 3.06194 0
M  V30 5168 H 506.711 -2.70221 1.83434 0
M  V30 5169 H 505.37 -1.28945 3.43175 0
M  V30 5170 H 505.018 -3.76369 3.33699 0
M  V30 5171 H 504.718 -3.12831 4.97404 0
M  V30 5172 H 506.242 -3.99129 4.62091 0
M  V30 5173 H 507.656 -1.86544 5.42102 0
M  V30 5174 H 506.053 -1.2182 5.87605 0
M  V30 5175 H 507.123 -0.254066 4.84234 0
M  V30 5176 N 508.466 -1.55915 -0.229846 0
M  V30 5177 C 509.398 -1.88209 -1.30805 0
M  V30 5178 C 510.411 -0.769672 -1.43457 0
M  V30 5179 O 511.6 -1.04792 -1.44502 0
M  V30 5180 C 508.7 -2.06829 -2.68468 0
M  V30 5181 C 507.873 -3.37798 -2.77869 0
M  V30 5182 C 506.932 -3.45952 -3.96489 0
M  V30 5183 O 505.958 -4.19043 -3.85216 0
M  V30 5184 N 507.16 -2.76488 -5.10426 0
M  V30 5185 H 509.925 -2.81286 -1.03431 0
M  V30 5186 H 507.486 -1.5636 -0.41991 0
M  V30 5187 H 509.478 -2.09608 -3.46189 0
M  V30 5188 H 508.048 -1.20416 -2.88477 0
M  V30 5189 H 507.268 -3.4719 -1.86689 0
M  V30 5190 H 508.556 -4.24091 -2.81113 0
M  V30 5191 H 507.954 -2.16868 -5.2248 0
M  V30 5192 H 506.511 -2.84938 -5.8622 0
M  V30 5193 N 509.944 0.496216 -1.49584 0
M  V30 5194 C 511.19 1.25189 -1.59548 0
M  V30 5195 C 511.523 1.9212 -0.283466 0
M  V30 5196 O 510.798 1.80947 0.713324 0
M  V30 5197 C 511.081 2.31516 -2.75812 0
M  V30 5198 C 510.934 1.69054 -4.16822 0
M  V30 5199 C 512.253 3.3304 -2.87702 0
M  V30 5200 H 509.372 0.45379 -0.580727 0
M  V30 5201 H 512.014 0.549327 -1.81886 0
M  V30 5202 H 510.164 2.91438 -2.56897 0
M  V30 5203 H 511.836 1.12923 -4.47265 0
M  V30 5204 H 510.079 0.994485 -4.22247 0
M  V30 5205 H 510.75 2.462 -4.94054 0
M  V30 5206 H 513.226 2.83114 -3.04936 0
M  V30 5207 H 512.102 4.04794 -3.7072 0
M  V30 5208 H 512.363 3.95655 -1.97255 0
M  V30 5209 N 511.423 1.38739 0.74761 0
M  V30 5210 C 512.333 1.38696 1.89211 0
M  V30 5211 C 513.349 0.283303 1.71678 0
M  V30 5212 O 514.525 0.522713 1.94498 0
M  V30 5213 C 511.59 1.21662 3.24653 0
M  V30 5214 C 510.651 2.41886 3.54669 0
M  V30 5215 C 509.884 2.25655 4.83648 0
M  V30 5216 O 510.107 1.25339 5.56459 0
M  V30 5217 O 509.041 3.14372 5.13277 0
M  V30 5218 H 512.867 2.35143 1.92202 0
M  V30 5219 H 510.452 1.19721 0.893708 0
M  V30 5220 H 512.334 1.14246 4.05618 0
M  V30 5221 H 511.009 0.283024 3.2246 0
M  V30 5222 H 509.916 2.54877 2.73841 0
M  V30 5223 H 511.249 3.33895 3.61628 0
M  V30 5224 N 512.901 -0.976442 1.23707 0
M  V30 5225 C 514.148 -1.71827 1.07153 0
M  V30 5226 C 514.476 -1.9053 -0.390982 0
M  V30 5227 O 513.731 -1.45779 -1.30564 0
M  V30 5228 C 514.03 -3.11814 1.74662 0
M  V30 5229 C 513.696 -3.12978 3.24585 0
M  V30 5230 C 512.358 -3.13003 3.6549 0
M  V30 5231 C 514.71 -3.07986 4.20469 0
M  V30 5232 C 512.038 -3.05757 5.00729 0
M  V30 5233 C 514.39 -3.02282 5.55705 0
M  V30 5234 C 513.054 -3.00631 5.95968 0
M  V30 5235 H 512.324 -0.628758 0.392102 0
M  V30 5236 H 514.971 -1.14239 1.53693 0
M  V30 5237 H 513.276 -3.72812 1.20492 0
M  V30 5238 H 514.973 -3.67989 1.59328 0
M  V30 5239 H 511.563 -3.13718 2.92026 0
M  V30 5240 H 515.747 -3.07103 3.89874 0
M  V30 5241 H 511.003 -3.02834 5.31132 0
M  V30 5242 H 515.177 -2.97376 6.29714 0
M  V30 5243 H 512.804 -2.94771 7.00724 0
M  V30 5244 N 514.379 -1.04941 -1.1758 0
M  V30 5245 C 515.628 -0.753124 -1.87112 0
M  V30 5246 C 515.941 0.722507 -1.81767 0
M  V30 5247 O 517.147 1.13265 -2.46746 0
M  V30 5248 C 515.603 -1.29695 -3.35719 0
M  V30 5249 C 515.211 -2.80184 -3.49572 0
M  V30 5250 C 516.955 -1.07759 -4.10595 0
M  V30 5251 C 514.862 -3.2788 -4.92187 0
M  V30 5252 H 513.792 -0.278034 -0.700866 0
M  V30 5253 H 516.443 -1.26637 -1.32798 0
M  V30 5254 H 514.825 -0.711522 -3.89555 0
M  V30 5255 H 515.999 -3.44561 -3.05965 0
M  V30 5256 H 514.314 -3.00632 -2.88113 0
M  V30 5257 H 516.911 -1.40899 -5.15802 0
M  V30 5258 H 517.254 -0.0152302 -4.16297 0
M  V30 5259 H 517.787 -1.62809 -3.62957 0
M  V30 5260 H 514.526 -4.33535 -4.91658 0
M  V30 5261 H 514.046 -2.68245 -5.36475 0
M  V30 5262 H 515.725 -3.22412 -5.60945 0
M  V30 5263 N 515.857 1.33968 -0.830081 0
M  V30 5264 C 516.805 2.31301 -0.245435 0
M  V30 5265 C 517.799 1.57734 0.617762 0
M  V30 5266 O 519.005 1.72674 0.508303 0
M  V30 5267 H 515.38 0.749552 -0.0606316 0
M  V30 5268 H 517.351 2.78129 -1.08105 0
M  V30 5269 C 516.1 3.42961 0.572084 0
M  V30 5270 H 515.423 3.99714 -0.0828118 0
M  V30 5271 H 516.863 4.13286 0.94715 0
M  V30 5272 C 515.322 2.88043 1.74737 0
M  V30 5273 O 515.852 2.83508 2.8458 0
M  V30 5274 N 514.058 2.44768 1.56642 0
M  V30 5275 H 513.605 2.48656 0.672901 0
M  V30 5276 H 513.563 2.08375 2.3543 0
M  V30 5277 N 517.335 0.585699 1.46312 0
M  V30 5278 C 518.746 0.159938 1.86014 0
M  V30 5279 C 519.097 -1.27775 1.48889 0
M  V30 5280 O 518.222 -1.96559 0.90519 0
M  V30 5281 C 518.817 0.283485 3.37612 0
M  V30 5282 C 517.376 -0.0874256 3.76298 0
M  V30 5283 C 516.523 0.618055 2.70325 0
M  V30 5284 H 519.474 0.793737 1.37425 0
M  V30 5285 H 519.495 -0.490348 3.77327 0
M  V30 5286 H 519.007 1.32995 3.64601 0
M  V30 5287 H 517.108 -1.13391 3.54927 0
M  V30 5288 H 517.221 0.290975 4.78216 0
M  V30 5289 H 515.585 0.057993 2.54634 0
M  V30 5290 H 516.368 1.66623 3.00153 0
M  V30 5291 N 518.813 -1.54241 0.323641 0
M  V30 5292 C 520.062 -1.9975 -0.279806 0
M  V30 5293 C 520.375 -1.2156 -1.5324 0
M  V30 5294 O 521.581 -1.57447 -2.21185 0
M  V30 5295 C 520.037 -3.55686 -0.549115 0
M  V30 5296 C 519.645 -4.4271 0.686432 0
M  V30 5297 C 521.389 -4.09663 -1.11251 0
M  V30 5298 C 519.296 -5.90119 0.389022 0
M  V30 5299 H 518.226 -0.746177 -0.10833 0
M  V30 5300 H 520.877 -1.78248 0.435877 0
M  V30 5301 H 519.259 -3.73176 -1.32499 0
M  V30 5302 H 520.433 -4.36996 1.46188 0
M  V30 5303 H 518.748 -3.99623 1.17005 0
M  V30 5304 H 521.345 -5.17386 -1.34965 0
M  V30 5305 H 521.688 -3.61651 -2.06191 0
M  V30 5306 H 522.221 -3.95806 -0.39782 0
M  V30 5307 H 518.96 -6.42326 1.30759 0
M  V30 5308 H 518.48 -5.98785 -0.348722 0
M  V30 5309 H 520.159 -6.47 -0.0011164 0
M  V30 5310 N 520.291 -0.0518155 -1.57515 0
M  V30 5311 C 521.538 0.621823 -1.92716 0
M  V30 5312 C 521.866 1.70813 -0.930229 0
M  V30 5313 O 521.121 1.95616 0.0573708 0
M  V30 5314 C 521.42 1.25607 -3.34601 0
M  V30 5315 C 521.086 0.297901 -4.49915 0
M  V30 5316 C 519.748 0.034243 -4.81188 0
M  V30 5317 C 522.1 -0.358738 -5.19964 0
M  V30 5318 C 519.428 -0.893479 -5.79857 0
M  V30 5319 C 521.78 -1.27466 -6.19625 0
M  V30 5320 C 520.444 -1.54698 -6.49326 0
M  V30 5321 H 519.714 0.227541 -0.705199 0
M  V30 5322 H 522.361 -0.118432 -1.91133 0
M  V30 5323 H 520.666 2.07161 -3.32553 0
M  V30 5324 H 522.363 1.78424 -3.59118 0
M  V30 5325 H 518.953 0.513581 -4.25512 0
M  V30 5326 H 523.137 -0.168133 -4.96015 0
M  V30 5327 H 518.393 -1.11193 -6.01204 0
M  V30 5328 H 522.567 -1.78953 -6.73015 0
M  V30 5329 H 520.194 -2.26748 -7.25596 0
M  V30 5330 N 521.769 1.56035 0.221574 0
M  V30 5331 C 522.679 1.95581 1.29558 0
M  V30 5332 C 523.695 0.859639 1.51282 0
M  V30 5333 O 524.871 1.16321 1.64413 0
M  V30 5334 C 521.936 2.26447 2.62531 0
M  V30 5335 C 520.997 3.49632 2.4911 0
M  V30 5336 C 520.23 3.79017 3.75742 0
M  V30 5337 O 520.453 3.10077 4.78757 0
M  V30 5338 O 519.387 4.72507 3.72855 0
M  V30 5339 H 523.213 2.8711 0.990035 0
M  V30 5340 H 520.798 1.43244 0.424434 0
M  V30 5341 H 522.68 2.47494 3.41064 0
M  V30 5342 H 521.355 1.38092 2.92766 0
M  V30 5343 H 520.262 3.33864 1.68777 0
M  V30 5344 H 521.595 4.3837 2.23814 0
M  V30 5345 N 523.247 -0.488276 1.49845 0
M  V30 5346 C 524.494 -1.24157 1.59973 0
M  V30 5347 C 524.822 -1.92293 0.292182 0
M  V30 5348 O 524.077 -1.81942 -0.720813 0
M  V30 5349 C 524.376 -2.32152 2.71735 0
M  V30 5350 C 524.042 -1.81387 4.12807 0
M  V30 5351 C 522.704 -1.67262 4.51195 0
M  V30 5352 C 525.056 -1.43537 5.01045 0
M  V30 5353 C 522.384 -1.13685 5.7558 0
M  V30 5354 C 524.736 -0.914081 6.25961 0
M  V30 5355 C 523.4 -0.759327 6.63167 0
M  V30 5356 H 522.67 -0.454322 0.585383 0
M  V30 5357 H 525.317 -0.540261 1.83721 0
M  V30 5358 H 523.622 -3.08122 2.42008 0
M  V30 5359 H 525.319 -2.90164 2.76778 0
M  V30 5360 H 521.909 -1.93344 3.82513 0
M  V30 5361 H 526.093 -1.53292 4.72033 0
M  V30 5362 H 521.349 -1.00426 6.03096 0
M  V30 5363 H 525.523 -0.612066 6.93705 0
M  V30 5364 H 523.15 -0.342002 7.5943 0
M  V30 5365 N 524.725 -1.39134 -0.740242 0
M  V30 5366 C 525.95 -1.39518 -1.53459 0
M  V30 5367 C 526.375 0.00968883 -1.88098 0
M  V30 5368 O 525.733 0.995312 -1.51536 0
M  V30 5369 C 525.781 -2.26981 -2.802 0
M  V30 5370 O 524.885 -1.69609 -3.75908 0
M  V30 5371 H 524.226 -0.475328 -0.463637 0
M  V30 5372 H 526.756 -1.83064 -0.913717 0
M  V30 5373 H 526.766 -2.41309 -3.28989 0
M  V30 5374 H 525.441 -3.29081 -2.5432 0
M  V30 5375 H 524.018 -1.64495 -3.34658 0
M  V30 5376 N 526.204 0.969867 -1.24223 0
M  V30 5377 C 527.62 1.23809 -1.00716 0
M  V30 5378 C 527.82 1.99469 0.285358 0
M  V30 5379 O 526.876 2.31764 1.00207 0
M  V30 5380 C 528.189 2.02734 -2.2208 0
M  V30 5381 C 529.737 2.15834 -2.26681 0
M  V30 5382 C 530.212 2.98154 -3.47661 0
M  V30 5383 N 531.703 3.05737 -3.47964 0
M  V30 5384 C 532.438 3.69785 -4.38231 0
M  V30 5385 N 531.934 4.35569 -5.3875 0
M  V30 5386 N 533.727 3.66775 -4.25949 0
M  V30 5387 H 525.878 0.463294 -2.07286 0
M  V30 5388 H 528.141 0.267348 -0.909521 0
M  V30 5389 H 527.847 1.54524 -3.15935 0
M  V30 5390 H 527.721 3.0347 -2.24021 0
M  V30 5391 H 530.108 2.63248 -1.33359 0
M  V30 5392 H 530.189 1.14453 -2.28767 0
M  V30 5393 H 529.833 2.51435 -4.41297 0
M  V30 5394 H 529.763 3.99729 -3.42818 0
M  V30 5395 H 532.254 2.58941 -2.75242 0
M  V30 5396 H 532.567 4.82251 -6.03866 0
M  V30 5397 H 530.912 4.34244 -5.42639 0
M  V30 5398 H 534.103 3.14558 -3.46657 0
M  V30 5399 H 534.276 4.16407 -4.96497 0
M  V30 5400 N 527.682 1.05563 1.17022 0
M  V30 5401 C 528.645 0.664098 2.19368 0
M  V30 5402 C 529.645 -0.286358 1.5823 0
M  V30 5403 O 530.835 -0.069728 1.7406 0
M  V30 5404 C 527.967 -0.0239932 3.40892 0
M  V30 5405 H 529.16 1.57 2.55521 0
M  V30 5406 H 526.713 0.849964 1.31169 0
M  V30 5407 H 527.448 -0.942988 3.10287 0
M  V30 5408 H 527.233 0.659351 3.86516 0
M  V30 5409 H 528.723 -0.283909 4.16634 0
M  V30 5410 N 529.16 -1.33526 0.837174 0
M  V30 5411 C 530.093 -2.27192 0.214233 0
M  V30 5412 C 531.071 -1.49575 -0.637657 0
M  V30 5413 O 532.255 -1.78753 -0.598291 0
M  V30 5414 C 529.382 -3.31401 -0.699367 0
M  V30 5415 C 528.428 -4.26431 0.0768429 0
M  V30 5416 S 529.261 -5.15954 1.4336 0
M  V30 5417 C 530.417 -6.23692 0.525251 0
M  V30 5418 H 530.65 -2.79679 1.00831 0
M  V30 5419 H 528.183 -1.4079 0.633834 0
M  V30 5420 H 530.141 -3.91924 -1.22088 0
M  V30 5421 H 528.802 -2.77732 -1.46709 0
M  V30 5422 H 527.995 -5.00193 -0.618268 0
M  V30 5423 H 527.597 -3.70235 0.529364 0
M  V30 5424 H 529.889 -6.76931 -0.277575 0
M  V30 5425 H 530.832 -6.97283 1.23299 0
M  V30 5426 H 531.24 -5.64398 0.107351 0
M  V30 5427 N 530.638 -0.59345 -1.46 0
M  V30 5428 C 532.054 -0.255965 -1.57534 0
M  V30 5429 C 532.254 1.24167 -1.58697 0
M  V30 5430 O 531.31 2.02398 -1.50968 0
M  V30 5431 C 532.623 -0.91466 -2.86451 0
M  V30 5432 C 534.171 -0.889253 -3.00102 0
M  V30 5433 C 534.646 -1.52769 -4.3177 0
M  V30 5434 N 536.137 -1.49253 -4.38495 0
M  V30 5435 C 536.872 -1.9558 -5.39014 0
M  V30 5436 N 536.368 -2.49929 -6.46148 0
M  V30 5437 N 538.161 -1.86432 -5.30282 0
M  V30 5438 H 530.312 -1.56604 -1.43489 0
M  V30 5439 H 532.575 -0.655207 -0.685133 0
M  V30 5440 H 532.281 -1.96861 -2.91442 0
M  V30 5441 H 532.155 -0.429356 -3.74748 0
M  V30 5442 H 534.542 0.156111 -2.94687 0
M  V30 5443 H 534.623 -1.41268 -2.13253 0
M  V30 5444 H 534.267 -2.57231 -4.37944 0
M  V30 5445 H 534.197 -0.979398 -5.17412 0
M  V30 5446 H 536.688 -1.09536 -3.61677 0
M  V30 5447 H 537.001 -2.83109 -7.19075 0
M  V30 5448 H 535.346 -2.53961 -6.46938 0
M  V30 5449 H 538.537 -1.43722 -4.4549 0
M  V30 5450 H 538.71 -2.22852 -6.08474 0
M  V30 5451 N 532.116 1.54067 -0.331816 0
M  V30 5452 C 533.532 1.59587 0.0205388 0
M  V30 5453 C 533.732 1.34813 1.49759 0
M  V30 5454 O 532.788 1.13661 2.25471 0
M  V30 5455 C 534.101 2.97959 -0.405103 0
M  V30 5456 C 535.649 3.10964 -0.356454 0
M  V30 5457 C 536.124 4.51694 -0.757384 0
M  V30 5458 N 537.615 4.57709 -0.71111 0
M  V30 5459 C 538.35 5.64729 -0.993427 0
M  V30 5460 N 537.846 6.79652 -1.3433 0
M  V30 5461 N 539.639 5.54546 -0.918442 0
M  V30 5462 H 531.79 1.68426 -1.29407 0
M  V30 5463 H 534.053 0.78819 -0.526745 0
M  V30 5464 H 533.759 3.21115 -1.43451 0
M  V30 5465 H 533.633 3.76524 0.225692 0
M  V30 5466 H 536.02 2.87538 0.663763 0
M  V30 5467 H 536.101 2.34484 -1.02229 0
M  V30 5468 H 535.745 4.75853 -1.77555 0
M  V30 5469 H 535.675 5.26555 -0.0691444 0
M  V30 5470 H 538.166 3.75176 -0.452883 0
M  V30 5471 H 538.479 7.57221 -1.54388 0
M  V30 5472 H 536.824 6.81128 -1.38164 0
M  V30 5473 H 540.015 4.63641 -0.644536 0
M  V30 5474 H 540.188 6.37861 -1.14181 0
M  V30 5475 N 533.594 0.0601682 1.57485 0
M  V30 5476 C 534.524 -0.90889 2.15085 0
M  V30 5477 C 535.505 -1.31838 1.07484 0
M  V30 5478 O 536.69 -1.3915 1.35466 0
M  V30 5479 C 533.82 -2.18059 2.7031 0
M  V30 5480 C 532.774 -1.91088 3.82974 0
M  V30 5481 C 532.1 -3.24789 4.24754 0
M  V30 5482 C 533.4 -1.22535 5.07723 0
M  V30 5483 H 535.094 -0.429093 2.96309 0
M  V30 5484 H 532.64 -0.204952 1.42534 0
M  V30 5485 H 534.593 -2.86258 3.09248 0
M  V30 5486 H 533.317 -2.6826 1.8629 0
M  V30 5487 H 531.976 -1.25297 3.44523 0
M  V30 5488 H 531.624 -3.72809 3.37672 0
M  V30 5489 H 531.324 -3.07538 5.00694 0
M  V30 5490 H 532.848 -3.94205 4.66299 0
M  V30 5491 H 534.262 -1.80783 5.4405 0
M  V30 5492 H 532.659 -1.1558 5.88864 0
M  V30 5493 H 533.729 -0.202692 4.84476 0
M  V30 5494 N 535.072 -1.5615 -0.213296 0
M  V30 5495 C 536.32 -1.79191 -0.934612 0
M  V30 5496 C 536.641 -0.630112 -1.84539 0
M  V30 5497 O 535.911 0.35257 -1.92701 0
M  V30 5498 H 534.491 -0.660937 -0.348097 0
M  V30 5499 H 537.153 -1.93618 -0.22317 0
M  V30 5500 H 536.249 -2.71656 -1.53654 0
M  V30 5501 N 536.55 0.480323 -1.50102 0
M  V30 5502 C 537.48 1.58769 -1.71215 0
M  V30 5503 C 538.461 1.60583 -0.560997 0
M  V30 5504 O 539.646 1.76996 -0.799127 0
M  V30 5505 C 536.776 2.97148 -1.79778 0
M  V30 5506 C 535.73 3.10201 -2.94888 0
M  V30 5507 C 535.056 4.50137 -2.88584 0
M  V30 5508 C 536.356 2.88283 -4.35534 0
M  V30 5509 H 538.05 1.41354 -2.6393 0
M  V30 5510 H 535.596 0.678591 -1.27008 0
M  V30 5511 H 537.549 3.74536 -1.93133 0
M  V30 5512 H 536.273 3.15699 -0.836772 0
M  V30 5513 H 534.932 2.35244 -2.81169 0
M  V30 5514 H 534.58 4.65593 -1.90349 0
M  V30 5515 H 534.28 4.59808 -3.65856 0
M  V30 5516 H 535.804 5.29558 -3.03976 0
M  V30 5517 H 537.218 3.55427 -4.49827 0
M  V30 5518 H 535.615 3.09408 -5.14186 0
M  V30 5519 H 536.685 1.84219 -4.48544 0
M  V30 5520 N 538.028 1.39524 0.732853 0
M  V30 5521 C 539.305 1.27373 1.48444 0
M  V30 5522 C 539.685 -0.115725 2.10783 0
M  V30 5523 O 539.033 -1.12713 1.98766 0
M  V30 5524 C 539.243 2.39966 2.53412 0
M  V30 5525 C 540.591 2.79384 3.19733 0
M  V30 5526 O 541.615 2.39431 2.63725 0
M  V30 5527 O 540.474 3.48353 4.21085 0
M  V30 5528 H 537.568 0.499272 0.659285 0
M  V30 5529 H 540.114 1.51403 0.766496 0
M  V30 5530 H 538.886 3.32845 2.05742 0
M  V30 5531 H 538.509 2.17612 3.32762 0
M  V30 5532 N 539.506 -0.963266 1.24736 0
M  V30 5533 C 540.783 -1.68248 0.9976 0
M  V30 5534 C 541.163 -2.05599 -0.478776 0
M  V30 5535 O 540.511 -1.7626 -1.45412 0
M  V30 5536 C 540.721 -2.91118 1.92487 0
M  V30 5537 C 542.069 -3.63261 2.19833 0
M  V30 5538 O 543.093 -3.01184 1.90176 0
M  V30 5539 O 541.952 -4.75019 2.7022 0
M  V30 5540 H 539.046 -0.735744 0.377637 0
M  V30 5541 H 541.592 -1.01696 1.35853 0
M  V30 5542 H 540.364 -2.60242 2.92215 0
M  V30 5543 H 539.987 -3.65402 1.56738 0
M  V30 5544 N 540.985 -1.06182 -1.16461 0
M  V30 5545 C 541.948 -0.675723 -2.19013 0
M  V30 5546 C 542.948 0.277963 -1.58379 0
M  V30 5547 O 544.138 0.0604962 -1.74095 0
M  V30 5548 C 541.27 0.00591459 -3.40899 0
M  V30 5549 H 542.463 -1.58353 -2.54685 0
M  V30 5550 H 540.016 -0.856908 -1.30716 0
M  V30 5551 H 540.751 0.92652 -3.10783 0
M  V30 5552 H 540.536 -0.67984 -3.86161 0
M  V30 5553 H 542.026 0.26181 -4.16778 0
M  V30 5554 N 542.463 1.3308 -0.844243 0
M  V30 5555 C 543.373 2.32876 -0.283922 0
M  V30 5556 C 544.389 1.63589 0.592846 0
M  V30 5557 O 545.565 1.95205 0.495693 0
M  V30 5558 C 542.63 3.42667 0.527283 0
M  V30 5559 C 541.691 4.27664 -0.374394 0
M  V30 5560 C 540.924 5.32212 0.39819 0
M  V30 5561 O 541.147 5.46635 1.62932 0
M  V30 5562 O 540.081 6.01458 -0.2306 0
M  V30 5563 H 543.907 2.82671 -1.11045 0
M  V30 5564 H 541.492 1.36518 -0.606903 0
M  V30 5565 H 543.374 4.09652 0.988078 0
M  V30 5566 H 542.049 2.95079 1.33078 0
M  V30 5567 H 540.956 3.63526 -0.883144 0
M  V30 5568 H 542.289 4.78749 -1.1428 0
M  V30 5569 N 543.941 0.601185 1.45683 0
M  V30 5570 C 545.171 0.0999093 2.06358 0
M  V30 5571 C 545.579 -1.21831 1.44754 0
M  V30 5572 O 544.922 -1.75157 0.553695 0
M  V30 5573 C 544.984 -0.12085 3.59297 0
M  V30 5574 C 544.648 1.11459 4.432 0
M  V30 5575 C 545.645 2.03118 4.7858 0
M  V30 5576 C 543.33 1.34162 4.84051 0
M  V30 5577 C 545.324 3.15814 5.53661 0
M  V30 5578 C 543.011 2.4716 5.58888 0
M  V30 5579 C 544.009 3.37814 5.93608 0
M  V30 5580 O 543.697 4.48846 6.66928 0
M  V30 5581 H 543.429 0.0630316 0.673055 0
M  V30 5582 H 545.983 0.826982 1.88016 0
M  V30 5583 H 544.213 -0.902744 3.76015 0
M  V30 5584 H 545.902 -0.572925 4.01836 0
M  V30 5585 H 546.668 1.86801 4.47583 0
M  V30 5586 H 542.547 0.645018 4.56465 0
M  V30 5587 H 546.091 3.86596 5.8068 0
M  V30 5588 H 541.988 2.63432 5.89299 0
M  V30 5589 H 542.756 4.47446 6.85371 0
M  V30 5590 N 545.419 -1.53889 0.339982 0
M  V30 5591 C 546.382 -2.23547 -0.50592 0
M  V30 5592 C 547.382 -1.23445 -1.03044 0
M  V30 5593 O 548.572 -1.47909 -0.920253 0
M  V30 5594 C 545.704 -2.95234 -1.7044 0
M  V30 5595 H 546.897 -2.99722 0.103247 0
M  V30 5596 H 544.45 -1.56033 0.0912804 0
M  V30 5597 H 545.185 -2.23236 -2.35236 0
M  V30 5598 H 544.97 -3.68654 -1.33553 0
M  V30 5599 H 546.46 -3.48258 -2.30447 0
M  V30 5600 N 546.897 -0.0685191 -1.57451 0
M  V30 5601 C 547.827 0.89747 -2.15564 0
M  V30 5602 C 548.808 1.31266 -1.08181 0
M  V30 5603 O 549.993 1.38429 -1.36202 0
M  V30 5604 C 547.123 2.16623 -2.71463 0
M  V30 5605 C 546.077 1.89054 -3.83982 0
M  V30 5606 C 545.403 3.22532 -4.26471 0
M  V30 5607 C 546.703 1.1984 -5.08366 0
M  V30 5608 H 548.397 0.413373 -2.96533 0
M  V30 5609 H 545.943 0.197391 -1.42641 0
M  V30 5610 H 547.896 2.84614 -3.10761 0
M  V30 5611 H 546.62 2.67269 -1.8771 0
M  V30 5612 H 545.279 1.23469 -3.45183 0
M  V30 5613 H 544.927 3.71013 -3.39644 0
M  V30 5614 H 544.627 3.04879 -5.02317 0
M  V30 5615 H 546.151 3.91727 -4.68383 0
M  V30 5616 H 547.565 1.77896 -5.45001 0
M  V30 5617 H 545.962 1.12456 -5.89469 0
M  V30 5618 H 547.032 0.176996 -4.84577 0
M  V30 5619 N 548.375 1.56261 0.205012 0
M  V30 5620 C 549.305 1.96779 1.257 0
M  V30 5621 C 550.286 0.838309 1.48008 0
M  V30 5622 O 551.471 1.10189 1.59913 0
M  V30 5623 C 548.601 2.29876 2.60335 0
M  V30 5624 C 547.555 3.45469 2.52656 0
M  V30 5625 C 546.881 3.64215 3.91473 0
M  V30 5626 C 548.181 4.79954 2.06014 0
M  V30 5627 H 549.875 2.84904 0.920338 0
M  V30 5628 H 547.421 1.37072 0.441277 0
M  V30 5629 H 549.374 2.56814 3.34102 0
M  V30 5630 H 548.098 1.38622 2.95722 0
M  V30 5631 H 546.757 3.18605 1.81345 0
M  V30 5632 H 546.405 2.70309 4.24196 0
M  V30 5633 H 546.105 4.41973 3.87213 0
M  V30 5634 H 547.629 3.93519 4.66878 0
M  V30 5635 H 549.043 5.05989 2.69533 0
M  V30 5636 H 547.44 5.61111 2.12777 0
M  V30 5637 H 548.51 4.74201 1.01297 0
M  V30 5638 N 549.853 -0.472356 1.50355 0
M  V30 5639 C 551.102 -1.2213 1.60522 0
M  V30 5640 C 551.415 -1.9312 0.310466 0
M  V30 5641 O 552.621 -2.69936 0.291029 0
M  V30 5642 C 551.077 -2.21909 2.83345 0
M  V30 5643 C 550.685 -1.56727 4.19691 0
M  V30 5644 C 552.429 -2.97453 3.02856 0
M  V30 5645 C 550.336 -2.54785 5.33703 0
M  V30 5646 H 549.266 -0.459543 0.597776 0
M  V30 5647 H 551.917 -0.491922 1.76783 0
M  V30 5648 H 550.299 -2.98133 2.60639 0
M  V30 5649 H 551.473 -0.863007 4.52646 0
M  V30 5650 H 549.788 -0.934685 4.05774 0
M  V30 5651 H 552.385 -3.70838 3.85205 0
M  V30 5652 H 552.728 -3.56764 2.14534 0
M  V30 5653 H 553.261 -2.28342 3.25737 0
M  V30 5654 H 550 -2.00214 6.24175 0
M  V30 5655 H 549.52 -3.23367 5.05167 0
M  V30 5656 H 551.199 -3.16639 5.64224 0
M  V30 5657 N 551.331 -1.39911 -0.725443 0
M  V30 5658 C 552.294 -1.39156 -1.82121 0
M  V30 5659 C 553.294 -0.287018 -1.58218 0
M  V30 5660 O 554.484 -0.545421 -1.65441 0
M  V30 5661 C 551.616 -1.1736 -3.20062 0
M  V30 5662 H 552.809 -2.36672 -1.84191 0
M  V30 5663 H 550.362 -1.25615 -0.930079 0
M  V30 5664 H 551.097 -0.205648 -3.23647 0
M  V30 5665 H 550.882 -1.97358 -3.3881 0
M  V30 5666 H 552.372 -1.19596 -4.00108 0
M  V30 5667 N 552.809 0.956637 -1.25245 0
M  V30 5668 C 554.058 1.69537 -1.0927 0
M  V30 5669 C 554.371 1.92136 0.366503 0
M  V30 5670 O 555.577 2.63687 0.64665 0
M  V30 5671 C 554.033 3.05211 -1.9072 0
M  V30 5672 C 553.641 2.90416 -3.41119 0
M  V30 5673 C 555.385 3.82882 -1.83308 0
M  V30 5674 C 553.292 4.21468 -4.14872 0
M  V30 5675 H 552.222 0.635804 -0.405302 0
M  V30 5676 H 554.873 1.06513 -1.49423 0
M  V30 5677 H 553.255 3.69128 -1.43389 0
M  V30 5678 H 554.429 2.35444 -3.9611 0
M  V30 5679 H 552.744 2.26203 -3.49602 0
M  V30 5680 H 555.341 4.79944 -2.35706 0
M  V30 5681 H 555.684 4.0853 -0.800572 0
M  V30 5682 H 556.217 3.25711 -2.28379 0
M  V30 5683 H 552.956 4.01009 -5.18529 0
M  V30 5684 H 552.476 4.76213 -3.64665 0
M  V30 5685 H 554.155 4.90022 -4.22478 0
M  V30 5686 N 554.287 1.06798 1.15896 0
M  V30 5687 C 555.235 0.677525 2.22514 0
M  V30 5688 C 556.229 -0.308994 1.66558 0
M  V30 5689 O 557.435 -0.173308 1.79164 0
M  V30 5690 H 553.81 0.200994 0.724642 0
M  V30 5691 H 555.781 1.5865 2.52731 0
M  V30 5692 C 554.53 0.0854153 3.47595 0
M  V30 5693 H 553.853 0.835645 3.90969 0
M  V30 5694 H 555.293 -0.150199 4.23734 0
M  V30 5695 C 553.752 -1.1724 3.15843 0
M  V30 5696 O 554.282 -2.25965 3.32119 0
M  V30 5697 N 552.488 -1.07636 2.69931 0
M  V30 5698 H 552.035 -0.191559 2.56887 0
M  V30 5699 H 551.993 -1.91876 2.4906 0
M  V30 5700 N 555.766 -1.3263 0.851289 0
M  V30 5701 C 557.015 -1.96633 0.449267 0
M  V30 5702 C 557.328 -1.68131 -0.999562 0
M  V30 5703 O 558.534 -2.25845 -1.50685 0
M  V30 5704 C 556.99 -3.51946 0.752446 0
M  V30 5705 C 556.598 -3.89311 2.21678 0
M  V30 5706 C 558.342 -4.22437 0.417983 0
M  V30 5707 C 556.249 -5.37655 2.46336 0
M  V30 5708 H 555.179 -0.735888 0.164269 0
M  V30 5709 H 557.83 -1.51073 1.0416 0
M  V30 5710 H 556.212 -3.95899 0.0895858 0
M  V30 5711 H 557.386 -3.56378 2.92115 0
M  V30 5712 H 555.701 -3.31836 2.51543 0
M  V30 5713 H 558.298 -5.31549 0.579674 0
M  V30 5714 H 558.641 -4.11349 -0.640115 0
M  V30 5715 H 559.174 -3.84057 1.03659 0
M  V30 5716 H 555.913 -5.5376 3.50757 0
M  V30 5717 H 555.433 -5.72005 1.80473 0
M  V30 5718 H 557.112 -6.04695 2.30115 0
M  V30 5719 N 557.244 -0.608902 -1.45362 0
M  V30 5720 C 558.491 -0.104607 -2.0223 0
M  V30 5721 C 558.819 1.26534 -1.47714 0
M  V30 5722 O 558.074 1.84855 -0.642435 0
M  V30 5723 C 558.373 -0.0167296 -3.57396 0
M  V30 5724 C 558.039 -1.32251 -4.31069 0
M  V30 5725 C 556.701 -1.68019 -4.50914 0
M  V30 5726 C 559.053 -2.18542 -4.73169 0
M  V30 5727 C 556.381 -2.89828 -5.10114 0
M  V30 5728 C 558.733 -3.39602 -5.33717 0
M  V30 5729 C 557.397 -3.7562 -5.51784 0
M  V30 5730 H 556.667 -0.0382785 -0.740011 0
M  V30 5731 H 559.314 -0.790782 -1.7441 0
M  V30 5732 H 557.619 0.752715 -3.84502 0
M  V30 5733 H 559.316 0.389634 -3.99103 0
M  V30 5734 H 555.906 -1.03411 -4.15938 0
M  V30 5735 H 560.09 -1.92208 -4.5757 0
M  V30 5736 H 555.346 -3.17839 -5.22291 0
M  V30 5737 H 559.52 -4.06716 -5.65292 0
M  V30 5738 H 557.147 -4.70093 -5.97425 0
M  V30 5739 N 558.722 1.53707 -0.348139 0
M  V30 5740 C 559.947 2.05877 0.250883 0
M  V30 5741 C 560.372 1.22115 1.43072 0
M  V30 5742 O 559.73 0.235986 1.79758 0
M  V30 5743 C 559.778 3.54886 0.639416 0
M  V30 5744 O 558.882 3.73948 1.73888 0
M  V30 5745 H 558.223 0.662754 0.040653 0
M  V30 5746 H 560.753 1.98303 -0.503685 0
M  V30 5747 H 560.763 3.97601 0.915295 0
M  V30 5748 H 559.438 4.153 -0.223386 0
M  V30 5749 H 558.015 3.43134 1.45991 0
M  V30 5750 N 560.2 0.0768682 1.57412 0
M  V30 5751 C 561.163 -0.873949 2.11884 0
M  V30 5752 C 562.163 -1.22301 1.04398 0
M  V30 5753 O 563.353 -1.15545 1.30365 0
M  V30 5754 C 560.485 -2.17575 2.62438 0
M  V30 5755 H 561.678 -0.401278 2.97203 0
M  V30 5756 H 559.231 -0.171904 1.55352 0
M  V30 5757 H 559.966 -2.69368 1.80587 0
M  V30 5758 H 559.751 -1.93534 3.41009 0
M  V30 5759 H 561.241 -2.85631 3.04639 0
M  V30 5760 N 561.678 -1.56367 -0.196722 0
M  V30 5761 C 562.955 -1.71359 -0.943159 0
M  V30 5762 C 563.335 -0.631192 -2.01443 0
M  V30 5763 O 562.683 0.358071 -2.25677 0
M  V30 5764 C 562.893 -3.13623 -1.53106 0
M  V30 5765 C 564.241 -3.73806 -2.01381 0
M  V30 5766 O 565.265 -3.16742 -1.62951 0
M  V30 5767 O 564.124 -4.73951 -2.7209 0
M  V30 5768 H 561.218 -0.698851 -0.442195 0
M  V30 5769 H 563.764 -1.68672 -0.186547 0
M  V30 5770 H 562.536 -3.83873 -0.758785 0
M  V30 5771 H 562.159 -3.20532 -2.35255 0
M  V30 5772 N 563.156 0.464375 -1.50603 0
M  V30 5773 C 564.572 0.798684 -1.38178 0
M  V30 5774 C 564.772 1.96568 -0.44308 0
M  V30 5775 O 563.828 2.52252 0.111814 0
M  V30 5776 C 565.141 1.10444 -2.79683 0
M  V30 5777 C 566.689 1.2105 -2.88645 0
M  V30 5778 C 567.164 1.54934 -4.30998 0
M  V30 5779 N 568.655 1.61913 -4.3398 0
M  V30 5780 C 569.39 1.8965 -5.41129 0
M  V30 5781 N 568.886 2.15361 -6.58477 0
M  V30 5782 N 570.679 1.91207 -5.28579 0
M  V30 5783 H 562.83 -0.304603 -2.10204 0
M  V30 5784 H 565.093 -0.0737804 -0.945125 0
M  V30 5785 H 564.799 0.319934 -3.50242 0
M  V30 5786 H 564.673 2.03896 -3.17342 0
M  V30 5787 H 567.06 1.98567 -2.18301 0
M  V30 5788 H 567.141 0.255613 -2.5452 0
M  V30 5789 H 566.785 0.779549 -5.01882 0
M  V30 5790 H 566.715 2.51584 -4.62615 0
M  V30 5791 H 569.206 1.44055 -3.49366 0
M  V30 5792 H 569.519 2.35818 -7.35941 0
M  V30 5793 H 567.864 2.1274 -6.6164 0
M  V30 5794 H 571.055 1.70622 -4.35897 0
M  V30 5795 H 571.228 2.12488 -6.12171 0
M  V30 5796 N 564.634 1.40294 0.718013 0
M  V30 5797 C 566.045 1.34289 1.29705 0
M  V30 5798 C 566.396 0.0152228 1.96194 0
M  V30 5799 O 565.521 -0.88682 1.97394 0
M  V30 5800 C 566.116 2.43219 2.3586 0
M  V30 5801 C 564.675 2.40682 2.89394 0
M  V30 5802 C 563.822 2.24223 1.63154 0
M  V30 5803 H 566.773 1.50135 0.514312 0
M  V30 5804 H 566.794 2.10986 3.16647 0
M  V30 5805 H 566.306 3.39836 1.87439 0
M  V30 5806 H 564.407 1.47756 3.42051 0
M  V30 5807 H 564.52 3.36177 3.41353 0
M  V30 5808 H 562.884 1.71696 1.88129 0
M  V30 5809 H 563.667 3.22834 1.16761 0
M  V30 5810 N 566.112 -0.949982 1.2575 0
M  V30 5811 C 567.06 -2.06869 1.06339 0
M  V30 5812 C 568.054 -1.69399 -0.00708901 0
M  V30 5813 O 569.26 -1.79383 0.148897 0
M  V30 5814 H 565.635 -0.677197 0.326969 0
M  V30 5815 H 567.606 -2.20396 2.01167 0
M  V30 5816 C 566.355 -3.40503 0.703769 0
M  V30 5817 H 565.678 -3.69807 1.51931 0
M  V30 5818 H 567.118 -4.19623 0.607677 0
M  V30 5819 C 565.577 -3.31685 -0.5905 0
M  V30 5820 O 566.107 -3.67085 -1.63131 0
M  V30 5821 N 564.313 -2.84797 -0.577859 0
M  V30 5822 H 563.86 -2.56186 0.26951 0
M  V30 5823 H 563.818 -2.79279 -1.44398 0
M  V30 5824 N 567.59 -1.07411 -1.15328 0
M  V30 5825 C 568.836 -0.798831 -1.86404 0
M  V30 5826 C 569.169 0.673433 -1.8215 0
M  V30 5827 O 568.444 1.49428 -1.24505 0
M  V30 5828 C 568.727 -1.30846 -3.35487 0
M  V30 5829 C 568.58 -2.84532 -3.4837 0
M  V30 5830 C 569.899 -0.925486 -4.30259 0
M  V30 5831 H 567.018 -0.291659 -0.676834 0
M  V30 5832 H 569.66 -1.332 -1.35491 0
M  V30 5833 H 567.81 -0.854916 -3.78977 0
M  V30 5834 H 569.482 -3.3818 -3.13739 0
M  V30 5835 H 567.725 -3.22699 -2.8991 0
M  V30 5836 H 568.396 -3.15259 -4.53118 0
M  V30 5837 H 570.872 -1.3163 -3.94731 0
M  V30 5838 H 569.748 -1.3094 -5.33053 0
M  V30 5839 H 570.009 0.168525 -4.41779 0
M  V30 5840 N 569.068 1.32177 -0.85831 0
M  V30 5841 C 570 2.27688 -0.262835 0
M  V30 5842 C 571.013 1.52588 0.567513 0
M  V30 5843 O 572.202 1.74156 0.391407 0
M  V30 5844 C 569.302 3.32668 0.646937 0
M  V30 5845 C 568.475 4.37148 -0.148372 0
M  V30 5846 C 567.534 5.21686 0.687728 0
M  V30 5847 O 566.56 5.69074 0.119934 0
M  V30 5848 N 567.762 5.44892 2.00182 0
M  V30 5849 H 570.527 2.79426 -1.08356 0
M  V30 5850 H 568.088 1.45076 -0.718647 0
M  V30 5851 H 570.08 3.86134 1.2117 0
M  V30 5852 H 568.65 2.81061 1.36834 0
M  V30 5853 H 567.87 3.83915 -0.894572 0
M  V30 5854 H 569.158 5.04038 -0.694514 0
M  V30 5855 H 568.556 5.08128 2.4864 0
M  V30 5856 H 567.113 6.0134 2.51463 0
M  V30 5857 N 570.547 0.616602 1.45037 0
M  V30 5858 C 571.457 -0.0985401 2.34393 0
M  V30 5859 C 572.473 -0.850971 1.51771 0
M  V30 5860 O 573.649 -0.806521 1.84546 0
M  V30 5861 C 570.714 -1.07748 3.29532 0
M  V30 5862 C 569.775 -0.326022 4.2806 0
M  V30 5863 C 569.008 -1.25833 5.18654 0
M  V30 5864 O 569.231 -2.49652 5.12864 0
M  V30 5865 O 568.165 -0.750512 5.97203 0
M  V30 5866 H 571.991 0.636016 2.96966 0
M  V30 5867 H 569.576 0.376832 1.44569 0
M  V30 5868 H 571.458 -1.64107 3.88133 0
M  V30 5869 H 570.133 -1.79291 2.69512 0
M  V30 5870 H 569.04 0.280253 3.73049 0
M  V30 5871 H 570.373 0.349091 4.9096 0
M  V30 5872 N 572.025 -1.5352 0.356285 0
M  V30 5873 C 573.436 -1.86282 -0.12492 0
M  V30 5874 C 573.787 -1.27717 -1.48939 0
M  V30 5875 O 572.912 -0.595614 -2.08042 0
M  V30 5876 C 573.507 -3.37995 -0.23345 0
M  V30 5877 C 572.066 -3.70588 -0.658899 0
M  V30 5878 C 571.213 -2.76581 0.199596 0
M  V30 5879 H 574.164 -1.47901 0.575423 0
M  V30 5880 H 574.185 -3.65475 -1.0587 0
M  V30 5881 H 573.697 -3.8059 0.759776 0
M  V30 5882 H 571.798 -3.33544 -1.66069 0
M  V30 5883 H 571.911 -4.77076 -0.439957 0
M  V30 5884 H 570.275 -2.52552 -0.330076 0
M  V30 5885 H 571.058 -3.22008 1.19019 0
M  V30 5886 N 573.503 -0.0852151 -1.57369 0
M  V30 5887 C 574.751 0.579658 -1.93609 0
M  V30 5888 C 575.072 1.69332 -0.967043 0
M  V30 5889 O 574.342 1.95892 -0.0174215 0
M  V30 5890 H 572.922 0.217113 -0.714752 0
M  V30 5891 H 575.584 -0.146226 -1.94351 0
M  V30 5892 H 574.68 0.996276 -2.95771 0
M  V30 5893 N 574.981 1.5647 0.188427 0
M  V30 5894 C 576.397 1.50204 0.539532 0
M  V30 5895 C 576.597 0.78644 1.85519 0
M  V30 5896 O 575.653 0.339714 2.50204 0
M  V30 5897 C 576.966 2.94893 0.588103 0
M  V30 5898 C 578.514 3.05602 0.67648 0
M  V30 5899 C 578.989 4.51716 0.756101 0
M  V30 5900 N 580.48 4.55894 0.819451 0
M  V30 5901 C 581.215 5.66272 0.90134 0
M  V30 5902 N 580.711 6.86323 0.945118 0
M  V30 5903 N 582.504 5.54201 0.939043 0
M  V30 5904 H 574.655 2.01406 -0.674493 0
M  V30 5905 H 576.918 0.916828 -0.241103 0
M  V30 5906 H 576.624 3.50334 -0.309633 0
M  V30 5907 H 576.498 3.4861 1.44051 0
M  V30 5908 H 578.885 2.50206 1.56465 0
M  V30 5909 H 578.966 2.54999 -0.202262 0
M  V30 5910 H 578.61 5.07739 -0.12774 0
M  V30 5911 H 578.54 5.00058 1.65074 0
M  V30 5912 H 581.031 3.69452 0.794594 0
M  V30 5913 H 581.344 7.66194 1.0083 0
M  V30 5914 H 579.689 6.88968 0.913683 0
M  V30 5915 H 582.88 4.59333 0.901725 0
M  V30 5916 H 583.053 6.40247 0.999402 0
M  V30 5917 N 576.459 -0.456382 1.50847 0
M  V30 5918 C 577.705 -1.20914 1.62811 0
M  V30 5919 C 578.038 -1.91301 0.334304 0
M  V30 5920 O 577.313 -1.82775 -0.665098 0
M  V30 5921 C 577.596 -2.24122 2.81853 0
M  V30 5922 C 577.449 -1.57944 4.21158 0
M  V30 5923 C 578.768 -3.25295 2.96431 0
M  V30 5924 H 575.887 -0.438233 0.592554 0
M  V30 5925 H 578.529 -0.50091 1.83278 0
M  V30 5926 H 576.679 -2.84524 2.64534 0
M  V30 5927 H 578.351 -1.01025 4.50102 0
M  V30 5928 H 576.594 -0.882185 4.24735 0
M  V30 5929 H 577.265 -2.33014 5.00408 0
M  V30 5930 H 579.741 -2.7493 3.12335 0
M  V30 5931 H 578.617 -3.94822 3.81322 0
M  V30 5932 H 578.878 -3.90286 2.07676 0
M  V30 5933 N 577.937 -1.40673 -0.710563 0
M  V30 5934 C 578.847 -1.43663 -1.85467 0
M  V30 5935 C 579.863 -0.328721 -1.70867 0
M  V30 5936 O 581.039 -0.574098 -1.93044 0
M  V30 5937 C 578.104 -1.30226 -3.21313 0
M  V30 5938 C 577.165 -2.51204 -3.48131 0
M  V30 5939 C 576.398 -2.38398 -4.77495 0
M  V30 5940 O 576.621 -1.40048 -5.5294 0
M  V30 5941 O 575.555 -3.2787 -5.04762 0
M  V30 5942 H 579.381 -2.40156 -1.859 0
M  V30 5943 H 576.966 -1.22049 -0.861652 0
M  V30 5944 H 578.848 -1.2496 -4.02446 0
M  V30 5945 H 577.523 -0.368419 -3.21597 0
M  V30 5946 H 576.43 -2.62048 -2.66987 0
M  V30 5947 H 577.763 -3.43366 -3.52648 0
M  V30 5948 N 579.415 0.9433 -1.26252 0
M  V30 5949 C 580.378 2.02326 -1.07689 0
M  V30 5950 C 581.378 1.60779 -0.0259174 0
M  V30 5951 O 582.568 1.72108 -0.269134 0
M  V30 5952 C 579.7 3.34886 -0.63752 0
M  V30 5953 H 580.893 2.20225 -2.0357 0
M  V30 5954 H 578.446 1.12197 -1.08819 0
M  V30 5955 H 579.181 3.22684 0.323377 0
M  V30 5956 H 578.966 3.66393 -1.39637 0
M  V30 5957 H 580.456 4.14231 -0.529418 0
M  V30 5958 N 580.893 1.08022 1.14757 0
M  V30 5959 C 581.823 0.728248 2.21853 0
M  V30 5960 C 582.804 -0.287486 1.67653 0
M  V30 5961 O 583.989 -0.158727 1.9355 0
M  V30 5962 C 581.119 0.132549 3.47047 0
M  V30 5963 C 580.073 1.07619 4.14249 0
M  V30 5964 C 579.399 0.342907 5.33599 0
M  V30 5965 C 580.699 2.41268 4.63235 0
M  V30 5966 H 582.393 1.62365 2.51551 0
M  V30 5967 H 579.939 0.782125 1.20908 0
M  V30 5968 H 581.892 -0.125665 4.21213 0
M  V30 5969 H 580.616 -0.797971 3.16702 0
M  V30 5970 H 579.275 1.31944 3.42033 0
M  V30 5971 H 578.923 -0.59129 4.99513 0
M  V30 5972 H 578.623 0.971955 5.79506 0
M  V30 5973 H 580.147 0.0926538 6.1053 0
M  V30 5974 H 581.561 2.21232 5.28894 0
M  V30 5975 H 579.958 2.9983 5.19829 0
M  V30 5976 H 581.028 3.03079 3.78512 0
M  V30 5977 N 582.371 -1.3172 0.865308 0
M  V30 5978 C 583.303 -2.27545 0.274906 0
M  V30 5979 C 584.316 -1.52887 -0.559413 0
M  V30 5980 O 585.505 -1.74361 -0.382166 0
M  V30 5981 C 582.605 -3.33006 -0.629286 0
M  V30 5982 C 581.778 -4.37063 0.171553 0
M  V30 5983 C 580.837 -5.22044 -0.660052 0
M  V30 5984 O 579.863 -5.69129 -0.0897527 0
M  V30 5985 N 581.065 -5.45946 -1.97289 0
M  V30 5986 H 583.83 -2.78848 1.09836 0
M  V30 5987 H 581.391 -1.44693 0.726331 0
M  V30 5988 H 583.383 -3.86772 -1.19121 0
M  V30 5989 H 581.953 -2.81782 -1.35342 0
M  V30 5990 H 581.173 -3.83436 0.914919 0
M  V30 5991 H 582.461 -5.03662 0.721235 0
M  V30 5992 H 581.859 -5.0944 -2.45942 0
M  V30 5993 H 580.416 -6.02665 -2.4827 0
M  V30 5994 N 583.85 -0.624285 -1.44708 0
M  V30 5995 C 584.782 0.12305 -2.28869 0
M  V30 5996 C 585.795 0.81557 -1.40898 0
M  V30 5997 O 586.984 0.678162 -1.65116 0
M  V30 5998 C 584.084 1.19612 -3.1709 0
M  V30 5999 C 583.257 0.587452 -4.33437 0
M  V30 6000 C 582.316 1.55358 -5.02743 0
M  V30 6001 O 581.341 1.07338 -5.58988 0
M  V30 6002 N 582.543 2.88798 -5.03563 0
M  V30 6003 H 585.308 -0.599193 -2.93649 0
M  V30 6004 H 582.87 -0.464954 -1.5508 0
M  V30 6005 H 584.861 1.84261 -3.60319 0
M  V30 6006 H 583.432 1.82067 -2.54107 0
M  V30 6007 H 582.652 -0.237509 -3.93484 0
M  V30 6008 H 583.94 0.161326 -5.08544 0
M  V30 6009 H 583.338 3.30399 -4.59188 0
M  V30 6010 H 581.894 3.48826 -5.50603 0
M  V30 6011 N 585.328 1.53329 -0.364422 0
M  V30 6012 C 586.739 1.86345 0.115039 0
M  V30 6013 C 587.09 1.28505 1.4826 0
M  V30 6014 O 586.215 0.606639 2.07723 0
M  V30 6015 C 586.81 3.38114 0.215522 0
M  V30 6016 C 585.369 3.70932 0.639237 0
M  V30 6017 C 584.516 2.76471 -0.214261 0
M  V30 6018 H 587.467 1.47593 -0.583258 0
M  V30 6019 H 587.488 3.66031 1.0393 0
M  V30 6020 H 587 3.80182 -0.779948 0
M  V30 6021 H 585.101 3.3442 1.64298 0
M  V30 6022 H 585.214 4.77302 0.41465 0
M  V30 6023 H 583.578 2.52724 0.316678 0
M  V30 6024 H 584.361 3.21373 -1.20725 0
M  V30 6025 N 586.806 0.0935595 1.57322 0
M  V30 6026 C 588.036 -0.578095 1.98347 0
M  V30 6027 C 588.444 -1.62357 0.971441 0
M  V30 6028 O 587.787 -1.83639 -0.0473959 0
M  V30 6029 C 587.849 -1.28525 3.3574 0
M  V30 6030 C 587.513 -0.390714 4.55327 0
M  V30 6031 C 588.51 0.360522 5.18648 0
M  V30 6032 C 586.195 -0.309221 5.01347 0
M  V30 6033 C 588.189 1.18125 6.26359 0
M  V30 6034 C 585.876 0.515157 6.08925 0
M  V30 6035 C 586.874 1.25904 6.71295 0
M  V30 6036 O 586.562 2.06978 7.76798 0
M  V30 6037 H 586.294 -0.159767 0.656849 0
M  V30 6038 H 588.848 0.169058 2.04703 0
M  V30 6039 H 587.078 -2.07894 3.26063 0
M  V30 6040 H 588.767 -1.85128 3.61223 0
M  V30 6041 H 589.533 0.307285 4.84026 0
M  V30 6042 H 585.412 -0.877881 4.52564 0
M  V30 6043 H 588.956 1.76236 6.74971 0
M  V30 6044 H 584.853 0.56988 6.42979 0
M  V30 6045 H 585.621 1.99644 7.93779 0
M  V30 6046 N 588.284 -1.56567 -0.180126 0
M  V30 6047 C 589.53 -1.81761 -0.899497 0
M  V30 6048 C 589.863 -0.670015 -1.82276 0
M  V30 6049 O 589.138 0.328575 -1.91705 0
M  V30 6050 C 589.421 -3.17296 -1.7028 0
M  V30 6051 C 589.274 -4.4257 -0.803255 0
M  V30 6052 C 590.593 -3.49678 -2.67233 0
M  V30 6053 H 587.712 -0.661192 -0.325567 0
M  V30 6054 H 590.354 -1.89272 -0.16612 0
M  V30 6055 H 588.504 -3.11023 -2.32802 0
M  V30 6056 H 590.176 -4.60902 -0.191585 0
M  V30 6057 H 588.419 -4.33658 -0.110796 0
M  V30 6058 H 589.09 -5.33935 -1.40064 0
M  V30 6059 H 591.566 -3.56347 -2.14839 0
M  V30 6060 H 590.442 -4.45605 -3.20511 0
M  V30 6061 H 590.703 -2.73932 -3.47007 0
M  V30 6062 N 589.762 0.448376 -1.51087 0
M  V30 6063 C 590.672 1.56882 -1.74428 0
M  V30 6064 C 591.688 1.62268 -0.62809 0
M  V30 6065 O 592.864 1.79716 -0.909075 0
M  V30 6066 C 589.929 2.92947 -1.85426 0
M  V30 6067 C 588.99 2.97766 -3.09247 0
M  V30 6068 C 588.223 4.27341 -3.19711 0
M  V30 6069 O 588.446 5.19112 -2.36387 0
M  V30 6070 O 587.38 4.38219 -4.12611 0
M  V30 6071 H 591.206 1.40104 -2.69452 0
M  V30 6072 H 588.791 0.630247 -1.35456 0
M  V30 6073 H 590.673 3.73719 -1.94709 0
M  V30 6074 H 589.348 3.09876 -0.935887 0
M  V30 6075 H 588.255 2.15989 -3.0545 0
M  V30 6076 H 589.588 2.8578 -4.00738 0
M  V30 6077 N 591.24 1.41047 0.703093 0
M  V30 6078 C 592.203 1.42036 1.79884 0
M  V30 6079 C 593.203 0.312153 1.57741 0
M  V30 6080 O 594.393 0.571672 1.64553 0
M  V30 6081 C 591.525 1.22437 3.18154 0
M  V30 6082 H 592.718 2.39572 1.80403 0
M  V30 6083 H 590.271 1.27079 0.909977 0
M  V30 6084 H 591.006 0.257112 3.23279 0
M  V30 6085 H 590.791 2.02723 3.35627 0
M  V30 6086 H 592.281 1.25946 3.98155 0
M  V30 6087 N 592.718 -0.936591 1.26751 0
M  V30 6088 C 593.648 -2.05315 1.11212 0
M  V30 6089 C 594.629 -1.70092 0.0160262 0
M  V30 6090 O 595.814 -1.93279 0.188894 0
M  V30 6091 C 592.944 -3.39123 0.749171 0
M  V30 6092 C 591.898 -3.88425 1.79751 0
M  V30 6093 C 591.224 -5.18936 1.28876 0
M  V30 6094 C 592.524 -4.12798 3.19992 0
M  V30 6095 H 594.218 -2.18573 2.04613 0
M  V30 6096 H 591.764 -1.05027 0.985159 0
M  V30 6097 H 593.717 -4.16704 0.627323 0
M  V30 6098 H 592.441 -3.25855 -0.220543 0
M  V30 6099 H 591.1 -3.13028 1.90811 0
M  V30 6100 H 590.748 -5.02051 0.308757 0
M  V30 6101 H 590.448 -5.52892 1.98958 0
M  V30 6102 H 591.972 -5.99096 1.17967 0
M  V30 6103 H 593.386 -4.80977 3.11983 0
M  V30 6104 H 591.783 -4.58044 3.87705 0
M  V30 6105 H 592.853 -3.18412 3.65707 0
M  V30 6106 N 594.196 -1.08629 -1.14182 0
M  V30 6107 C 595.126 -0.740003 -2.21464 0
M  V30 6108 C 596.107 0.278591 -1.67803 0
M  V30 6109 O 597.292 0.148461 -1.93632 0
M  V30 6110 C 594.422 -0.150952 -3.46972 0
M  V30 6111 C 593.376 -1.09815 -4.13672 0
M  V30 6112 C 592.702 -0.3712 -5.3341 0
M  V30 6113 C 594.002 -2.43722 -4.61949 0
M  V30 6114 H 595.696 -1.63697 -2.50686 0
M  V30 6115 H 593.242 -0.788526 -1.20492 0
M  V30 6116 H 595.195 0.103325 -4.21273 0
M  V30 6117 H 593.919 0.781164 -3.1712 0
M  V30 6118 H 592.578 -1.33756 -3.41328 0
M  V30 6119 H 592.226 0.564792 -4.99819 0
M  V30 6120 H 591.926 -1.00267 -5.78982 0
M  V30 6121 H 593.45 -0.12503 -6.10472 0
M  V30 6122 H 594.864 -2.24034 -5.27714 0
M  V30 6123 H 593.261 -3.02582 -5.18232 0
M  V30 6124 H 594.331 -3.05082 -3.76899 0
M  V30 6125 N 595.674 1.31259 -0.872281 0
M  V30 6126 C 596.899 2.0133 -0.498099 0
M  V30 6127 C 597.324 1.65031 0.902568 0
M  V30 6128 O 596.682 0.860164 1.59596 0
M  V30 6129 C 596.73 3.54411 -0.665205 0
M  V30 6130 O 595.834 4.11347 0.294473 0
M  V30 6131 H 595.175 0.633844 -0.197832 0
M  V30 6132 H 597.705 1.67402 -1.17633 0
M  V30 6133 H 597.715 4.04147 -0.559373 0
M  V30 6134 H 596.39 3.80171 -1.68651 0
M  V30 6135 H 594.967 3.72624 0.143403 0
M  V30 6136 N 597.152 0.631951 1.44375 0
M  V30 6137 C 598.382 0.143658 2.061 0
M  V30 6138 C 598.79 -1.18733 1.47306 0
M  V30 6139 O 598.133 -1.73943 0.590724 0
M  V30 6140 C 598.195 -0.0446102 3.59472 0
M  V30 6141 C 597.859 1.20835 4.40736 0
M  V30 6142 C 598.856 2.13224 4.74164 0
M  V30 6143 C 596.541 1.44399 4.81097 0
M  V30 6144 C 598.535 3.27487 5.46838 0
M  V30 6145 C 596.222 2.58959 5.53519 0
M  V30 6146 C 597.22 3.50329 5.86309 0
M  V30 6147 O 596.908 4.62891 6.57257 0
M  V30 6148 H 596.64 0.0772939 0.671567 0
M  V30 6149 H 599.194 0.866677 1.8622 0
M  V30 6150 H 597.424 -0.822783 3.77845 0
M  V30 6151 H 599.113 -0.487561 4.02961 0
M  V30 6152 H 599.879 1.96253 4.4352 0
M  V30 6153 H 595.758 0.741696 4.54994 0
M  V30 6154 H 599.302 3.98826 5.72349 0
M  V30 6155 H 595.199 2.75873 5.83579 0
M  V30 6156 H 595.967 4.61883 6.75726 0
M  V30 6157 N 598.631 -1.53133 0.372548 0
M  V30 6158 C 599.859 -2.05774 -0.215515 0
M  V30 6159 C 600.274 -1.24555 -1.41886 0
M  V30 6160 O 599.631 -0.287951 -1.80214 0
M  V30 6161 C 599.682 -3.5645 -0.602161 0
M  V30 6162 O 599.403 -4.34591 0.553359 0
M  V30 6163 C 600.904 -4.25374 -1.24787 0
M  V30 6164 H 598.124 -0.670009 -0.0364529 0
M  V30 6165 H 600.668 -1.97434 0.532934 0
M  V30 6166 H 598.823 -3.64918 -1.30052 0
M  V30 6167 H 599.237 -5.23954 0.239336 0
M  V30 6168 H 600.711 -5.32097 -1.46891 0
M  V30 6169 H 601.188 -3.79531 -2.21026 0
M  V30 6170 H 601.794 -4.21177 -0.590752 0
M  V30 6171 N 600.109 -0.101901 -1.5727 0
M  V30 6172 C 601.525 0.254739 -1.57554 0
M  V30 6173 C 601.725 1.67937 -1.11352 0
M  V30 6174 O 600.781 2.39722 -0.793081 0
M  V30 6175 C 602.094 0.036975 -3.00677 0
M  V30 6176 C 603.642 0.104199 -3.12827 0
M  V30 6177 C 604.117 -0.0856565 -4.5792 0
M  V30 6178 N 605.608 -0.0310498 -4.6319 0
M  V30 6179 C 606.343 -0.153099 -5.73196 0
M  V30 6180 N 605.839 -0.330364 -6.92012 0
M  V30 6181 N 607.632 -0.0938854 -5.62022 0
M  V30 6182 H 599.783 -1.03263 -1.85609 0
M  V30 6183 H 602.046 -0.405251 -0.857016 0
M  V30 6184 H 601.752 -0.947254 -3.38703 0
M  V30 6185 H 601.626 0.776335 -3.69124 0
M  V30 6186 H 604.013 1.07894 -2.74669 0
M  V30 6187 H 604.094 -0.666762 -2.46957 0
M  V30 6188 H 603.738 -1.05729 -4.96773 0
M  V30 6189 H 603.668 0.705082 -5.21858 0
M  V30 6190 H 606.159 0.103141 -3.77759 0
M  V30 6191 H 606.472 -0.41482 -7.71686 0
M  V30 6192 H 604.817 -0.366119 -6.94035 0
M  V30 6193 H 608.008 0.0435168 -4.6808 0
M  V30 6194 H 608.181 -0.19245 -6.47714 0
M  V30 6195 N 601.587 1.56661 0.17182 0
M  V30 6196 C 602.836 1.81158 0.886831 0
M  V30 6197 C 603.149 0.679072 1.83434 0
M  V30 6198 O 604.355 0.808964 2.59168 0
M  V30 6199 C 602.811 3.20999 1.6275 0
M  V30 6200 C 602.419 4.42117 0.723652 0
M  V30 6201 C 604.163 3.5479 2.33076 0
M  V30 6202 C 602.07 5.7298 1.46452 0
M  V30 6203 H 601 0.675543 0.334899 0
M  V30 6204 H 603.651 1.82967 0.139765 0
M  V30 6205 H 602.033 3.13506 2.4193 0
M  V30 6206 H 603.207 4.60789 -0.0311485 0
M  V30 6207 H 601.522 4.16197 0.130063 0
M  V30 6208 H 604.119 4.49806 2.89099 0
M  V30 6209 H 604.462 2.79646 3.08389 0
M  V30 6210 H 604.995 3.63834 1.6084 0
M  V30 6211 H 601.734 6.51152 0.753729 0
M  V30 6212 H 601.254 5.58285 2.19266 0
M  V30 6213 H 602.933 6.14916 2.01214 0
M  V30 6214 N 603.065 -0.440357 1.51323 0
M  V30 6215 C 604.012 -1.53429 1.72419 0
M  V30 6216 C 604.982 -1.56165 0.565826 0
M  V30 6217 O 606.167 -1.73222 0.799917 0
M  V30 6218 C 603.307 -2.91169 1.85242 0
M  V30 6219 C 602.42 -2.97985 3.12777 0
M  V30 6220 C 601.555 -4.26829 3.16212 0
M  V30 6221 C 600.594 -4.27501 4.38074 0
M  V30 6222 N 599.731 -5.47866 4.39076 0
M  V30 6223 H 604.571 -1.34743 2.65797 0
M  V30 6224 H 602.108 -0.654608 1.31732 0
M  V30 6225 H 604.066 -3.71087 1.90658 0
M  V30 6226 H 602.696 -3.0842 0.952744 0
M  V30 6227 H 601.748 -2.10749 3.16685 0
M  V30 6228 H 603.06 -2.94342 4.02696 0
M  V30 6229 H 602.214 -5.15118 3.20527 0
M  V30 6230 H 600.953 -4.33124 2.24176 0
M  V30 6231 H 599.958 -3.37606 4.33938 0
M  V30 6232 H 601.183 -4.22873 5.31371 0
M  V30 6233 H 599.129 -5.54887 3.49909 0
M  V30 6234 H 599.046 -5.46091 5.22801 0
M  V30 6235 H 600.314 -6.38195 4.4758 0
M  V30 6236 N 604.543 -1.41418 -0.695603 0
M  V30 6237 C 605.959 -1.23887 -1.00619 0
M  V30 6238 C 606.159 -0.128206 -2.01092 0
M  V30 6239 O 605.215 0.507408 -2.47349 0
M  V30 6240 C 606.528 -2.58816 -1.53083 0
M  V30 6241 C 608.076 -2.65998 -1.64967 0
M  V30 6242 C 608.551 -4.01244 -2.20833 0
M  V30 6243 N 610.042 -4.0309 -2.28194 0
M  V30 6244 C 610.777 -5.04539 -2.72448 0
M  V30 6245 N 610.273 -6.16378 -3.16306 0
M  V30 6246 N 612.066 -4.91901 -2.72011 0
M  V30 6247 H 604.217 -2.12379 -0.0300061 0
M  V30 6248 H 606.48 -0.944958 -0.0758797 0
M  V30 6249 H 606.186 -3.40842 -0.867147 0
M  V30 6250 H 606.06 -2.81299 -2.51298 0
M  V30 6251 H 608.447 -1.84331 -2.30448 0
M  V30 6252 H 608.528 -2.47325 -0.652982 0
M  V30 6253 H 608.172 -4.83359 -1.55968 0
M  V30 6254 H 608.102 -4.17257 -3.21254 0
M  V30 6255 H 610.593 -3.22341 -1.97242 0
M  V30 6256 H 610.906 -6.89658 -3.487 0
M  V30 6257 H 609.251 -6.19914 -3.14215 0
M  V30 6258 H 612.442 -4.03613 -2.37095 0
M  V30 6259 H 612.615 -5.71102 -3.06181 0
M  V30 6260 N 606.021 0.929856 -1.27246 0
M  V30 6261 C 607.432 1.49223 -1.12203 0
M  V30 6262 C 607.783 1.93989 0.293731 0
M  V30 6263 O 606.908 1.80978 1.18642 0
M  V30 6264 C 607.503 2.71198 -2.0307 0
M  V30 6265 C 606.062 3.23666 -1.92139 0
M  V30 6266 C 605.209 1.96409 -1.95752 0
M  V30 6267 H 608.16 0.744181 -1.4017 0
M  V30 6268 H 608.181 3.45905 -1.58524 0
M  V30 6269 H 607.693 2.38585 -3.06102 0
M  V30 6270 H 605.794 3.61042 -0.920834 0
M  V30 6271 H 605.907 3.90006 -2.78267 0
M  V30 6272 H 604.271 2.12806 -1.39949 0
M  V30 6273 H 605.054 1.66113 -3.00436 0
M  V30 6274 N 607.499 1.09233 1.13605 0
M  V30 6275 C 608.431 0.687794 2.18637 0
M  V30 6276 C 609.444 -0.26936 1.60556 0
M  V30 6277 O 610.633 -0.0557162 1.78413 0
M  V30 6278 C 607.733 -0.00751901 3.38899 0
M  V30 6279 C 606.906 0.97067 4.26494 0
M  V30 6280 C 605.965 0.309129 5.25291 0
M  V30 6281 O 604.991 0.956149 5.61112 0
M  V30 6282 N 606.193 -0.937555 5.72879 0
M  V30 6283 H 608.958 1.59141 2.53957 0
M  V30 6284 H 606.519 0.979515 1.28907 0
M  V30 6285 H 608.511 -0.461238 4.02063 0
M  V30 6286 H 607.081 -0.813353 3.01833 0
M  V30 6287 H 606.301 1.603 3.60135 0
M  V30 6288 H 607.589 1.63323 4.81875 0
M  V30 6289 H 606.987 -1.48281 5.4592 0
M  V30 6290 H 605.544 -1.33463 6.3799 0
M  V30 6291 N 608.977 -1.30795 0.87923 0
M  V30 6292 C 610.254 -1.91145 0.415086 0
M  V30 6293 C 610.634 -1.7995 -1.10368 0
M  V30 6294 O 609.982 -1.21305 -1.93642 0
M  V30 6295 C 610.192 -3.37014 0.906778 0
M  V30 6296 C 611.54 -4.14101 0.938358 0
M  V30 6297 O 612.564 -3.45834 0.853053 0
M  V30 6298 O 611.423 -5.36054 1.06342 0
M  V30 6299 H 608.517 -0.81736 0.125905 0
M  V30 6300 H 611.063 -1.39401 0.967753 0
M  V30 6301 H 609.835 -3.3922 1.95053 0
M  V30 6302 H 609.458 -3.96204 0.332948 0
M  V30 6303 N 610.455 -0.639598 -1.44038 0
M  V30 6304 C 611.387 0.0987684 -2.28987 0
M  V30 6305 C 612.4 0.80058 -1.41755 0
M  V30 6306 O 613.589 0.660611 -1.65826 0
M  V30 6307 C 610.689 1.16242 -3.18341 0
M  V30 6308 C 609.862 0.541447 -4.34036 0
M  V30 6309 C 608.921 1.50017 -5.04362 0
M  V30 6310 O 607.947 1.01403 -5.60095 0
M  V30 6311 N 609.149 2.83441 -5.06598 0
M  V30 6312 H 611.914 -0.630305 -2.92997 0
M  V30 6313 H 609.475 -0.481376 -1.54578 0
M  V30 6314 H 611.467 1.80429 -3.62253 0
M  V30 6315 H 610.037 1.79362 -2.56024 0
M  V30 6316 H 609.257 -0.27923 -3.9321 0
M  V30 6317 H 610.545 0.107379 -5.08687 0
M  V30 6318 H 609.943 3.2551 -4.62666 0
M  V30 6319 H 608.5 3.42966 -5.54272 0
M  V30 6320 N 611.933 1.52934 -0.380664 0
M  V30 6321 C 612.863 2.29118 0.450268 0
M  V30 6322 C 613.844 1.32153 1.07096 0
M  V30 6323 O 615.029 1.61038 1.08537 0
M  V30 6324 C 612.159 3.09161 1.58231 0
M  V30 6325 C 611.113 4.13938 1.0881 0
M  V30 6326 C 610.439 4.82153 2.31155 0
M  V30 6327 C 611.739 5.22048 0.162146 0
M  V30 6328 H 613.433 2.98826 -0.185361 0
M  V30 6329 H 610.979 1.43715 -0.0905886 0
M  V30 6330 H 612.932 3.61211 2.17036 0
M  V30 6331 H 611.656 2.3717 2.2454 0
M  V30 6332 H 610.315 3.62855 0.522633 0
M  V30 6333 H 609.963 4.06719 2.95953 0
M  V30 6334 H 609.663 5.52966 1.98752 0
M  V30 6335 H 611.187 5.37004 2.90618 0
M  V30 6336 H 612.601 5.6951 0.658126 0
M  V30 6337 H 610.998 6.00057 -0.0717122 0
M  V30 6338 H 612.068 4.78398 -0.791438 0
M  V30 6339 N 613.412 0.11024 1.57214 0
M  V30 6340 C 614.828 -0.24638 1.57687 0
M  V30 6341 C 615.028 -1.67344 1.12241 0
M  V30 6342 O 614.084 -2.39298 0.805783 0
M  V30 6343 C 615.397 -0.0210288 3.00693 0
M  V30 6344 C 616.945 -0.0876077 3.12877 0
M  V30 6345 C 617.42 0.10994 4.57868 0
M  V30 6346 N 618.911 0.0556135 4.63167 0
M  V30 6347 C 619.646 0.183495 5.73106 0
M  V30 6348 N 619.142 0.367058 6.91827 0
M  V30 6349 N 620.935 0.123689 5.61964 0
M  V30 6350 H 613.086 1.04246 1.85058 0
M  V30 6351 H 615.349 0.40979 0.854854 0
M  V30 6352 H 615.055 0.965203 3.38196 0
M  V30 6353 H 614.929 -0.756748 3.69531 0
M  V30 6354 H 617.316 -1.06436 2.75237 0
M  V30 6355 H 617.397 0.67985 2.466 0
M  V30 6356 H 617.041 1.08362 4.96206 0
M  V30 6357 H 616.971 -0.677397 5.22225 0
M  V30 6358 H 619.462 -0.0831062 3.77809 0
M  V30 6359 H 619.775 0.455739 7.71455 0
M  V30 6360 H 618.12 0.40292 6.93831 0
M  V30 6361 H 621.311 -0.0186928 4.68096 0
M  V30 6362 H 621.484 0.226797 6.47603 0
M  V30 6363 N 614.89 -1.56749 -0.16351 0
M  V30 6364 C 616.137 -1.82434 -0.878866 0
M  V30 6365 C 616.465 -0.688557 -1.81904 0
M  V30 6366 O 615.72 0.323644 -1.93005 0
M  V30 6367 C 616.019 -3.14342 -1.70071 0
M  V30 6368 C 615.685 -4.41647 -0.908775 0
M  V30 6369 C 614.347 -4.76224 -0.690236 0
M  V30 6370 C 616.699 -5.19998 -0.353815 0
M  V30 6371 C 614.027 -5.86624 0.0942374 0
M  V30 6372 C 616.379 -6.3122 0.41761 0
M  V30 6373 C 615.043 -6.64358 0.646879 0
M  V30 6374 H 614.313 -0.667574 -0.3216 0
M  V30 6375 H 616.96 -1.90963 -0.14337 0
M  V30 6376 H 615.265 -3.0119 -2.50583 0
M  V30 6377 H 616.962 -3.31426 -2.25738 0
M  V30 6378 H 613.552 -4.1453 -1.08916 0
M  V30 6379 H 617.736 -4.93673 -0.509975 0
M  V30 6380 H 612.992 -6.10751 0.281529 0
M  V30 6381 H 617.166 -6.91133 0.854849 0
M  V30 6382 H 614.793 -7.49742 1.25662 0
M  V30 6383 N 616.368 0.432326 -1.51554 0
M  V30 6384 C 617.779 1.01202 -1.56892 0
M  V30 6385 C 618.13 1.92175 -0.395394 0
M  V30 6386 O 617.255 2.10844 0.487198 0
M  V30 6387 C 617.85 1.84217 -2.8434 0
M  V30 6388 C 616.409 2.37228 -2.92233 0
M  V30 6389 C 615.556 1.16576 -2.51606 0
M  V30 6390 H 618.507 0.213407 -1.57259 0
M  V30 6391 H 618.528 2.69721 -2.68385 0
M  V30 6392 H 618.04 1.17979 -3.69733 0
M  V30 6393 H 616.141 3.06905 -2.11282 0
M  V30 6394 H 616.254 2.69682 -3.95991 0
M  V30 6395 H 614.618 1.51263 -2.04919 0
M  V30 6396 H 615.401 0.519404 -3.39348 0
M  V30 6397 N 617.846 1.41785 0.688094 0
M  V30 6398 C 619.262 1.24419 0.999608 0
M  V30 6399 C 619.462 0.138868 2.01021 0
M  V30 6400 O 618.518 -0.494283 2.47615 0
M  V30 6401 C 619.831 2.59625 1.51709 0
M  V30 6402 C 621.379 2.66869 1.63554 0
M  V30 6403 C 621.854 4.0241 2.18702 0
M  V30 6404 N 623.345 4.04295 2.26053 0
M  V30 6405 C 624.08 5.05977 2.69768 0
M  V30 6406 N 623.576 6.18047 3.13033 0
M  V30 6407 N 625.369 4.93336 2.69398 0
M  V30 6408 H 617.52 2.12392 0.0187427 0
M  V30 6409 H 619.783 0.945347 0.0708673 0
M  V30 6410 H 619.489 3.41297 0.849059 0
M  V30 6411 H 619.363 2.82628 2.49803 0
M  V30 6412 H 621.75 1.8555 2.29467 0
M  V30 6413 H 621.831 2.47668 0.639857 0
M  V30 6414 H 621.475 4.8418 1.53402 0
M  V30 6415 H 621.405 4.18955 3.19037 0
M  V30 6416 H 623.896 3.23383 1.9553 0
M  V30 6417 H 624.209 6.91498 3.45038 0
M  V30 6418 H 622.554 6.21572 3.10923 0
M  V30 6419 H 625.745 4.04865 2.34952 0
M  V30 6420 H 625.918 5.72717 3.03148 0
M  V30 6421 N 619.324 -0.923095 1.27737 0
M  V30 6422 C 620.257 -2.02515 1.05181 0
M  V30 6423 C 621.235 -1.62574 -0.0292204 0
M  V30 6424 O 622.419 -1.88137 0.116848 0
M  V30 6425 C 619.546 -3.33407 0.596468 0
M  V30 6426 C 618.592 -3.92328 1.67276 0
M  V30 6427 S 619.425 -4.24342 3.26641 0
M  V30 6428 C 620.581 -5.58308 2.82919 0
M  V30 6429 H 620.814 -2.21336 1.98488 0
M  V30 6430 H 618.347 -1.06679 1.1162 0
M  V30 6431 H 620.305 -4.09086 0.34044 0
M  V30 6432 H 618.966 -3.125 -0.316614 0
M  V30 6433 H 618.159 -4.86797 1.30556 0
M  V30 6434 H 617.761 -3.2325 1.8811 0
M  V30 6435 H 620.053 -6.37801 2.28509 0
M  V30 6436 H 620.996 -5.99931 3.7615 0
M  V30 6437 H 621.404 -5.19049 2.21919 0
M  V30 6438 N 620.802 -1.09834 -1.13024 0
M  V30 6439 C 621.732 -0.763451 -2.20666 0
M  V30 6440 C 622.713 0.260778 -1.68089 0
M  V30 6441 O 623.898 0.127915 -1.93778 0
M  V30 6442 C 621.028 -0.187744 -3.46792 0
M  V30 6443 C 619.982 -1.14196 -4.12484 0
M  V30 6444 C 619.308 -0.427755 -5.32986 0
M  V30 6445 C 620.608 -2.48607 -4.59338 0
M  V30 6446 H 622.302 -1.66347 -2.48936 0
M  V30 6447 H 619.848 -0.801261 -1.19649 0
M  V30 6448 H 621.801 0.0586375 -4.21359 0
M  V30 6449 H 620.525 0.747485 -3.17931 0
M  V30 6450 H 619.184 -1.37369 -3.3989 0
M  V30 6451 H 618.832 0.511747 -5.0039 0
M  V30 6452 H 618.532 -1.06403 -5.77886 0
M  V30 6453 H 620.056 -0.189772 -6.10305 0
M  V30 6454 H 621.47 -2.29618 -5.25308 0
M  V30 6455 H 619.867 -3.08062 -5.14993 0
M  V30 6456 H 620.937 -3.09062 -3.73642 0
M  V30 6457 N 622.28 1.30327 -0.886154 0
M  V30 6458 C 623.213 2.26241 -0.298407 0
M  V30 6459 C 624.191 1.51839 0.581704 0
M  V30 6460 O 625.375 1.80851 0.531536 0
M  V30 6461 C 622.502 3.33768 0.575888 0
M  V30 6462 C 621.548 4.25852 -0.235057 0
M  V30 6463 S 622.381 5.10277 -1.62411 0
M  V30 6464 C 623.537 6.21313 -0.756368 0
M  V30 6465 H 623.77 2.75744 -1.11141 0
M  V30 6466 H 621.303 1.38341 -0.685651 0
M  V30 6467 H 623.261 3.96186 1.07458 0
M  V30 6468 H 621.922 2.82986 1.363 0
M  V30 6469 H 621.115 5.02143 0.432198 0
M  V30 6470 H 620.717 3.68015 -0.666409 0
M  V30 6471 H 623.009 6.77495 0.0261451 0
M  V30 6472 H 623.952 6.92226 -1.49093 0
M  V30 6473 H 624.36 5.63611 -0.316749 0
M  V30 6474 N 623.758 0.647228 1.43697 0
M  V30 6475 C 624.705 -0.0480092 2.3075 0
M  V30 6476 C 625.675 -0.820705 1.44408 0
M  V30 6477 O 626.86 -0.798515 1.73287 0
M  V30 6478 C 624 -1.01259 3.2991 0
M  V30 6479 C 623.113 -0.236629 4.31351 0
M  V30 6480 C 622.248 -1.19447 5.17596 0
M  V30 6481 C 621.287 -0.408595 6.10735 0
M  V30 6482 N 620.424 -1.31772 6.89623 0
M  V30 6483 H 625.264 0.700238 2.89656 0
M  V30 6484 H 622.801 0.357082 1.427 0
M  V30 6485 H 624.759 -1.58538 3.85903 0
M  V30 6486 H 623.389 -1.72778 2.72667 0
M  V30 6487 H 622.441 0.452353 3.77701 0
M  V30 6488 H 623.753 0.374731 4.9739 0
M  V30 6489 H 622.907 -1.83809 5.78186 0
M  V30 6490 H 621.646 -1.83975 4.51669 0
M  V30 6491 H 620.651 0.24841 5.49239 0
M  V30 6492 H 621.876 0.232188 6.78703 0
M  V30 6493 H 619.822 -1.94991 6.2635 0
M  V30 6494 H 619.739 -0.760779 7.52162 0
M  V30 6495 H 621.007 -1.94967 7.54724 0
M  V30 6496 N 625.236 -1.5273 0.388769 0
M  V30 6497 C 626.166 -2.29353 -0.438111 0
M  V30 6498 C 627.147 -1.32719 -1.06394 0
M  V30 6499 O 628.332 -1.61612 -1.07681 0
M  V30 6500 C 625.462 -3.09995 -1.56589 0
M  V30 6501 C 624.416 -4.14509 -1.06613 0
M  V30 6502 C 623.742 -4.83372 -2.28594 0
M  V30 6503 C 625.042 -5.22127 -0.134459 0
M  V30 6504 H 626.736 -2.98723 0.201206 0
M  V30 6505 H 624.282 -1.43665 0.0982089 0
M  V30 6506 H 626.235 -3.62357 -2.15118 0
M  V30 6507 H 624.959 -2.38357 -2.23279 0
M  V30 6508 H 623.618 -3.63128 -0.503383 0
M  V30 6509 H 623.266 -4.08283 -2.93792 0
M  V30 6510 H 622.966 -5.54012 -1.95817 0
M  V30 6511 H 624.49 -5.38538 -2.87766 0
M  V30 6512 H 625.904 -5.69851 -0.627914 0
M  V30 6513 H 624.301 -6.00011 0.103534 0
M  V30 6514 H 625.371 -4.77971 0.816798 0
M  V30 6515 N 626.714 -0.118576 -1.57153 0
M  V30 6516 C 627.96 0.540326 -1.95469 0
M  V30 6517 C 628.293 1.66356 -1.00196 0
M  V30 6518 O 627.568 1.94461 -0.039104 0
M  V30 6519 C 627.851 1.07342 -3.43729 0
M  V30 6520 C 627.704 -0.0463732 -4.49776 0
M  V30 6521 C 629.023 1.96442 -3.93826 0
M  V30 6522 H 626.142 0.19494 -0.710751 0
M  V30 6523 H 628.784 -0.19405 -1.89006 0
M  V30 6524 H 626.934 1.69925 -3.49368 0
M  V30 6525 H 628.606 -0.681648 -4.56236 0
M  V30 6526 H 626.849 -0.709574 -4.27957 0
M  V30 6527 H 627.52 0.367856 -5.50773 0
M  V30 6528 H 629.996 1.43731 -3.90488 0
M  V30 6529 H 628.872 2.3066 -4.98084 0
M  V30 6530 H 629.133 2.89077 -3.34495 0
M  V30 6531 N 628.193 1.56834 0.155195 0
M  V30 6532 C 629.418 1.87412 0.888337 0
M  V30 6533 C 629.843 0.70671 1.74319 0
M  V30 6534 O 629.201 -0.343892 1.78009 0
M  V30 6535 C 629.249 3.1652 1.72765 0
M  V30 6536 O 628.353 2.99877 2.83103 0
M  V30 6537 H 627.694 0.615983 0.247914 0
M  V30 6538 H 630.224 2.04061 0.148478 0
M  V30 6539 H 630.234 3.48334 2.12433 0
M  V30 6540 H 628.909 4.01094 1.09985 0
M  V30 6541 H 627.486 2.79453 2.46902 0
M  V30 6542 N 629.671 -0.424282 1.51781 0
M  V30 6543 C 630.601 -1.52305 1.7699 0
M  V30 6544 C 631.582 -1.5839 0.620209 0
M  V30 6545 O 632.767 -1.73908 0.864268 0
M  V30 6546 C 629.897 -2.90271 1.90683 0
M  V30 6547 C 628.851 -2.99043 3.06198 0
M  V30 6548 C 628.177 -4.39116 3.05092 0
M  V30 6549 C 629.477 -2.7192 4.45934 0
M  V30 6550 H 631.171 -1.31461 2.68995 0
M  V30 6551 H 628.717 -0.630985 1.29439 0
M  V30 6552 H 630.67 -3.6711 2.06901 0
M  V30 6553 H 629.394 -3.12376 0.953365 0
M  V30 6554 H 628.053 -2.24646 2.89706 0
M  V30 6555 H 627.701 -4.58207 2.07498 0
M  V30 6556 H 627.401 -4.45912 3.82669 0
M  V30 6557 H 628.925 -5.17911 3.2342 0
M  V30 6558 H 630.339 -3.38487 4.62709 0
M  V30 6559 H 628.736 -2.90111 5.25315 0
M  V30 6560 H 629.806 -1.67445 4.55072 0
M  V30 6561 N 631.149 -1.42148 -0.680565 0
M  V30 6562 C 632.565 -1.24947 -0.992995 0
M  V30 6563 C 632.765 -0.149527 -2.00944 0
M  V30 6564 O 631.821 0.481145 -2.47873 0
M  V30 6565 C 633.134 -2.60426 -1.5033 0
M  V30 6566 C 634.682 -2.67733 -1.62137 0
M  V30 6567 C 635.157 -4.03564 -2.16565 0
M  V30 6568 N 636.648 -4.05488 -2.23905 0
M  V30 6569 C 637.383 -5.07401 -2.67081 0
M  V30 6570 N 636.879 -6.19698 -3.09751 0
M  V30 6571 N 638.672 -4.94758 -2.66778 0
M  V30 6572 H 630.823 -2.12399 -0.0074788 0
M  V30 6573 H 633.086 -0.94571 -0.0658529 0
M  V30 6574 H 632.792 -3.41743 -0.830947 0
M  V30 6575 H 632.666 -2.83949 -2.483 0
M  V30 6576 H 635.053 -1.86765 -2.2848 0
M  V30 6577 H 635.134 -2.48004 -0.626713 0
M  V30 6578 H 634.778 -4.84987 -1.50833 0
M  V30 6579 H 634.708 -4.20641 -3.1681 0
M  V30 6580 H 637.199 -3.24415 -1.93812 0
M  V30 6581 H 637.512 -6.93318 -3.41365 0
M  V30 6582 H 635.857 -6.23212 -3.07623 0
M  V30 6583 H 639.048 -4.06105 -2.32801 0
M  V30 6584 H 639.221 -5.74317 -3.00107 0
M  V30 6585 N 632.627 0.916307 -1.28225 0
M  V30 6586 C 633.855 1.69901 -1.18073 0
M  V30 6587 C 634.27 1.86988 0.260968 0
M  V30 6588 O 633.627 1.39505 1.17663 0
M  V30 6589 C 633.678 3.09254 -1.87201 0
M  V30 6590 O 633.399 2.92959 -3.2574 0
M  V30 6591 C 634.9 4.0362 -1.83319 0
M  V30 6592 H 632.12 0.531181 -0.409985 0
M  V30 6593 H 634.664 1.14703 -1.69303 0
M  V30 6594 H 632.819 3.61277 -1.39848 0
M  V30 6595 H 633.233 3.81139 -3.60324 0
M  V30 6596 H 634.707 4.98873 -2.36282 0
M  V30 6597 H 635.184 4.3176 -0.805007 0
M  V30 6598 H 635.79 3.57524 -2.3034 0
M  V30 6599 N 634.105 1.10431 1.1244 0
M  V30 6600 C 635.035 0.775143 2.20258 0
M  V30 6601 C 636.016 -0.25186 1.68225 0
M  V30 6602 O 637.201 -0.117637 1.93843 0
M  V30 6603 C 634.331 0.206133 3.46688 0
M  V30 6604 C 633.285 1.16382 4.11873 0
M  V30 6605 C 632.611 0.456014 5.32752 0
M  V30 6606 C 633.911 2.5104 4.58013 0
M  V30 6607 H 635.605 1.67665 2.4805 0
M  V30 6608 H 633.151 0.807595 1.19222 0
M  V30 6609 H 635.104 -0.036291 4.21384 0
M  V30 6610 H 633.828 -0.730614 3.18323 0
M  V30 6611 H 632.487 1.39169 3.39157 0
M  V30 6612 H 632.135 -0.485203 5.00654 0
M  V30 6613 H 631.835 1.09466 5.77314 0
M  V30 6614 H 633.359 0.222135 6.10196 0
M  V30 6615 H 634.773 2.32401 5.24083 0
M  V30 6616 H 633.17 3.10789 5.13352 0
M  V30 6617 H 634.24 3.11039 3.71998 0
M  V30 6618 N 635.583 -1.29855 0.893053 0
M  V30 6619 C 636.808 -2.00512 0.530066 0
M  V30 6620 C 637.233 -1.66446 -0.876199 0
M  V30 6621 O 636.591 -0.885446 -1.58207 0
M  V30 6622 C 636.639 -3.53308 0.721505 0
M  V30 6623 O 635.743 -4.11764 -0.228994 0
M  V30 6624 H 635.084 -0.630617 0.207891 0
M  V30 6625 H 637.614 -1.6551 1.20282 0
M  V30 6626 H 637.624 -4.03206 0.623599 0
M  V30 6627 H 636.299 -3.77439 1.74678 0
M  V30 6628 H 634.876 -3.72805 -0.0841034 0
M  V30 6629 N 637.061 -0.65484 -1.43351 0
M  V30 6630 C 638.286 -0.175046 -2.0666 0
M  V30 6631 C 638.711 1.15104 -1.4877 0
M  V30 6632 O 638.069 1.71144 -0.598279 0
M  V30 6633 C 638.117 -0.0991544 -3.60464 0
M  V30 6634 O 637.221 0.938169 -4.01587 0
M  V30 6635 H 636.562 -0.0956148 -0.65708 0
M  V30 6636 H 639.092 -0.898222 -1.83829 0
M  V30 6637 H 639.102 0.083632 -4.07914 0
M  V30 6638 H 637.777 -1.06719 -4.01975 0
M  V30 6639 H 636.354 0.72804 -3.65724 0
M  V30 6640 N 638.539 1.52521 -0.396863 0
M  V30 6641 C 639.785 2.01971 0.183169 0
M  V30 6642 C 640.118 1.2825 1.45827 0
M  V30 6643 O 639.393 0.385179 1.90648 0
M  V30 6644 C 639.676 3.5736 0.443391 0
M  V30 6645 C 639.529 4.41743 -0.84753 0
M  V30 6646 C 640.848 4.22539 1.2308 0
M  V30 6647 H 637.967 0.734119 0.0650976 0
M  V30 6648 H 640.609 1.82519 -0.527918 0
M  V30 6649 H 638.759 3.74066 1.04914 0
M  V30 6650 H 640.431 4.36773 -1.48414 0
M  V30 6651 H 638.674 4.0845 -1.4612 0
M  V30 6652 H 639.345 5.48507 -0.620003 0
M  V30 6653 H 641.821 4.09857 0.718084 0
M  V30 6654 H 640.697 5.31227 1.38162 0
M  V30 6655 H 640.958 3.80675 2.24808 0
M  V30 6656 N 640.017 0.126909 1.57088 0
M  V30 6657 C 640.967 -0.831678 2.1229 0
M  V30 6658 C 641.951 -1.22292 1.04564 0
M  V30 6659 O 643.143 -1.19269 1.30782 0
M  V30 6660 C 640.272 -2.07866 2.73215 0
M  V30 6661 C 639.358 -1.71143 3.88035 0
M  V30 6662 N 639.749 -1.05136 4.94753 0
M  V30 6663 C 638.047 -2.00549 3.98367 0
M  V30 6664 C 638.748 -0.877257 5.75047 0
M  V30 6665 N 637.724 -1.40477 5.25135 0
M  V30 6666 H 641.526 -0.317926 2.92175 0
M  V30 6667 H 639.04 -0.0753052 1.62225 0
M  V30 6668 H 641.037 -2.77516 3.11111 0
M  V30 6669 H 639.697 -2.59778 1.94796 0
M  V30 6670 H 640.708 -0.71442 5.12949 0
M  V30 6671 H 637.385 -2.54452 3.30999 0
M  V30 6672 H 638.775 -0.358536 6.70943 0
M  V30 6673 N 641.495 -1.56914 -0.146875 0
M  V30 6674 C 642.72 -1.87881 -0.878386 0
M  V30 6675 C 643.145 -0.715945 -1.73942 0
M  V30 6676 O 642.503 0.334447 -1.78189 0
M  V30 6677 C 642.551 -3.17431 -1.71084 0
M  V30 6678 O 641.655 -3.01374 -2.81509 0
M  V30 6679 H 640.996 -0.617289 -0.244644 0
M  V30 6680 H 643.526 -2.04136 -0.137654 0
M  V30 6681 H 643.536 -3.49455 -2.10582 0
M  V30 6682 H 642.211 -4.01671 -1.07856 0
M  V30 6683 H 640.788 -2.80758 -2.45416 0
M  V30 6684 N 642.974 0.416227 -1.52004 0
M  V30 6685 C 643.884 1.53147 -1.77717 0
M  V30 6686 C 644.9 1.609 -0.662368 0
M  V30 6687 O 646.076 1.77747 -0.946991 0
M  V30 6688 C 643.141 2.88948 -1.91598 0
M  V30 6689 C 642.202 2.9114 -3.15493 0
M  V30 6690 C 641.435 4.20464 -3.28703 0
M  V30 6691 O 641.658 5.13981 -2.47345 0
M  V30 6692 O 640.592 4.29368 -4.21813 0
M  V30 6693 H 644.418 1.34357 -2.72363 0
M  V30 6694 H 642.003 0.601373 -1.36762 0
M  V30 6695 H 643.885 3.69505 -2.02593 0
M  V30 6696 H 642.56 3.07821 -1.00141 0
M  V30 6697 H 641.467 2.09461 -3.09962 0
M  V30 6698 H 642.8 2.77216 -4.06709 0
M  V30 6699 N 644.452 1.42507 0.673017 0
M  V30 6700 C 645.384 1.42074 1.79854 0
M  V30 6701 C 646.397 0.319569 1.59633 0
M  V30 6702 O 647.586 0.582769 1.68719 0
M  V30 6703 C 644.686 1.19886 3.16987 0
M  V30 6704 C 643.859 2.42471 3.64042 0
M  V30 6705 C 642.918 2.15802 4.79913 0
M  V30 6706 O 641.944 2.89015 4.90366 0
M  V30 6707 N 643.146 1.16225 5.68746 0
M  V30 6708 H 645.911 2.3909 1.8071 0
M  V30 6709 H 643.472 1.37409 0.856171 0
M  V30 6710 H 645.464 0.999591 3.92161 0
M  V30 6711 H 644.034 0.313879 3.1102 0
M  V30 6712 H 643.254 2.77954 2.79526 0
M  V30 6713 H 644.542 3.24097 3.92223 0
M  V30 6714 H 643.94 0.556756 5.62954 0
M  V30 6715 H 642.497 1.02285 6.43724 0
M  V30 6716 N 645.93 -0.909495 1.28709 0
M  V30 6717 C 647.176 -1.66151 1.16283 0
M  V30 6718 C 647.509 -1.92067 -0.287069 0
M  V30 6719 O 646.784 -1.52409 -1.20837 0
M  V30 6720 C 647.067 -3.01676 1.9663 0
M  V30 6721 C 646.92 -2.82888 3.49707 0
M  V30 6722 C 648.239 -4.02274 1.78504 0
M  V30 6723 H 645.358 -0.602966 0.423793 0
M  V30 6724 H 648 -1.05418 1.58073 0
M  V30 6725 H 646.15 -3.53515 1.61119 0
M  V30 6726 H 647.822 -2.38026 3.95147 0
M  V30 6727 H 646.065 -2.17862 3.75125 0
M  V30 6728 H 646.736 -3.79147 4.01187 0
M  V30 6729 H 649.212 -3.59511 2.09503 0
M  V30 6730 H 648.088 -4.95056 2.37088 0
M  V30 6731 H 648.349 -4.35903 0.737647 0
M  V30 6732 N 647.408 -1.11026 -1.11852 0
M  V30 6733 C 648.655 -0.85646 -1.83497 0
M  V30 6734 C 648.983 0.617938 -1.84423 0
M  V30 6735 O 648.238 1.47194 -1.28966 0
M  V30 6736 C 648.537 -1.35777 -3.30604 0
M  V30 6737 C 648.203 -2.84465 -3.49843 0
M  V30 6738 C 646.865 -3.25068 -3.54802 0
M  V30 6739 C 649.217 -3.80251 -3.56453 0
M  V30 6740 C 646.545 -4.60194 -3.63921 0
M  V30 6741 C 648.897 -5.15188 -3.67102 0
M  V30 6742 C 647.561 -5.55356 -3.70319 0
M  V30 6743 H 646.831 -0.313401 -0.671462 0
M  V30 6744 H 649.478 -1.38792 -1.31943 0
M  V30 6745 H 647.783 -0.746455 -3.84624 0
M  V30 6746 H 649.48 -1.13779 -3.8452 0
M  V30 6747 H 646.07 -2.52054 -3.46651 0
M  V30 6748 H 650.254 -3.49986 -3.51886 0
M  V30 6749 H 645.51 -4.90728 -3.64686 0
M  V30 6750 H 649.684 -5.89248 -3.71159 0
M  V30 6751 H 647.311 -6.60054 -3.77138 0
M  V30 6752 N 648.886 1.2938 -0.899927 0
M  V30 6753 C 649.849 2.25983 -0.382677 0
M  V30 6754 C 650.849 1.53366 0.483259 0
M  V30 6755 O 652.039 1.71798 0.28828 0
M  V30 6756 C 649.171 3.37878 0.452915 0
M  V30 6757 H 650.364 2.73252 -1.23586 0
M  V30 6758 H 647.917 1.40825 -0.678088 0
M  V30 6759 H 648.652 2.95949 1.32608 0
M  V30 6760 H 648.437 3.91742 -0.167562 0
M  V30 6761 H 649.927 4.09746 0.806107 0
M  V30 6762 N 650.364 0.662433 1.43002 0
M  V30 6763 C 651.294 -0.00979809 2.33498 0
M  V30 6764 C 652.275 -0.802329 1.49989 0
M  V30 6765 O 653.46 -0.761964 1.78627 0
M  V30 6766 C 650.59 -0.970446 3.33466 0
M  V30 6767 C 649.544 -0.287383 4.27034 0
M  V30 6768 C 648.87 -1.36012 5.17112 0
M  V30 6769 C 650.17 0.82595 5.15728 0
M  V30 6770 H 651.864 0.745959 2.89958 0
M  V30 6771 H 649.41 0.360172 1.39423 0
M  V30 6772 H 651.363 -1.44971 3.95679 0
M  V30 6773 H 650.087 -1.75748 2.75282 0
M  V30 6774 H 648.746 0.17152 3.66199 0
M  V30 6775 H 648.394 -2.13882 4.55262 0
M  V30 6776 H 648.094 -0.908276 5.80538 0
M  V30 6777 H 649.618 -1.84056 5.82199 0
M  V30 6778 H 651.032 0.42845 5.71697 0
M  V30 6779 H 649.429 1.20282 5.87922 0
M  V30 6780 H 650.499 1.68003 4.54866 0
M  V30 6781 N 651.842 -1.52309 0.404946 0
M  V30 6782 C 653.258 -1.59503 0.0556255 0
M  V30 6783 C 653.458 -1.41805 -1.43156 0
M  V30 6784 O 652.514 -1.2429 -2.19792 0
M  V30 6785 C 653.827 -2.95687 0.546801 0
M  V30 6786 C 655.375 -3.08909 0.504413 0
M  V30 6787 C 655.85 -4.47566 0.97203 0
M  V30 6788 N 657.341 -4.53795 0.928679 0
M  V30 6789 C 658.076 -5.59346 1.26174 0
M  V30 6790 N 657.572 -6.72469 1.66604 0
M  V30 6791 N 659.365 -5.49532 1.18198 0
M  V30 6792 H 651.516 -1.6206 1.37296 0
M  V30 6793 H 653.779 -0.762161 0.563751 0
M  V30 6794 H 653.485 -3.13905 1.58609 0
M  V30 6795 H 653.359 -3.77172 -0.0457905 0
M  V30 6796 H 655.746 -2.90378 -0.525819 0
M  V30 6797 H 655.827 -2.2934 1.13301 0
M  V30 6798 H 655.471 -4.6684 2.00057 0
M  V30 6799 H 655.401 -5.25625 0.320292 0
M  V30 6800 H 657.892 -3.72588 0.631369 0
M  V30 6801 H 658.205 -7.48993 1.9034 0
M  V30 6802 H 656.55 -6.73761 1.70504 0
M  V30 6803 H 659.741 -4.60038 0.865011 0
M  V30 6804 H 659.914 -6.31687 1.44485 0
M  V30 6805 N 653.32 -0.135238 -1.57019 0
M  V30 6806 C 654.25 0.805235 -2.19176 0
M  V30 6807 C 655.231 1.2656 -1.13651 0
M  V30 6808 O 656.416 1.32528 -1.4195 0
M  V30 6809 C 653.546 2.04914 -2.80406 0
M  V30 6810 C 652.5 1.72598 -3.91655 0
M  V30 6811 C 651.826 3.04154 -4.39766 0
M  V30 6812 C 653.126 0.981709 -5.12991 0
M  V30 6813 H 654.82 0.287232 -2.98019 0
M  V30 6814 H 652.366 0.136714 -1.4335 0
M  V30 6815 H 654.319 2.71178 -3.22553 0
M  V30 6816 H 653.043 2.59067 -1.98877 0
M  V30 6817 H 651.702 1.08717 -3.50109 0
M  V30 6818 H 651.35 3.56274 -3.55075 0
M  V30 6819 H 651.05 2.83299 -5.14796 0
M  V30 6820 H 652.574 3.71509 -4.84576 0
M  V30 6821 H 653.988 1.5462 -5.52056 0
M  V30 6822 H 652.385 0.873533 -5.93708 0
M  V30 6823 H 653.455 -0.0286887 -4.84892 0
M  V30 6824 N 654.798 1.5699 0.138552 0
M  V30 6825 C 655.73 1.95515 1.1961 0
M  V30 6826 C 656.743 0.852002 1.38726 0
M  V30 6827 O 657.932 1.13038 1.38147 0
M  V30 6828 C 655.032 2.2213 2.55952 0
M  V30 6829 C 654.205 3.53424 2.57702 0
M  V30 6830 C 653.264 3.6848 3.75645 0
M  V30 6831 O 652.29 4.4079 3.60129 0
M  V30 6832 N 653.492 3.05777 4.93438 0
M  V30 6833 H 656.257 2.86838 0.868557 0
M  V30 6834 H 653.818 1.58542 0.328033 0
M  V30 6835 H 655.81 2.29435 3.33379 0
M  V30 6836 H 654.38 1.3703 2.80965 0
M  V30 6837 H 653.6 3.57484 1.6613 0
M  V30 6838 H 654.888 4.39759 2.55909 0
M  V30 6839 H 654.286 2.46961 5.08947 0
M  V30 6840 H 652.843 3.18631 5.6861 0
M  V30 6841 N 656.276 -0.40816 1.52223 0
M  V30 6842 C 657.553 -1.16807 1.56893 0
M  V30 6843 C 657.933 -2.08169 0.350537 0
M  V30 6844 O 657.281 -2.18684 -0.662536 0
M  V30 6845 C 657.491 -1.94451 2.8981 0
M  V30 6846 C 658.839 -2.50484 3.42845 0
M  V30 6847 O 659.863 -2.0463 2.91556 0
M  V30 6848 O 658.722 -3.34192 4.3241 0
M  V30 6849 H 655.816 -0.533382 0.632007 0
M  V30 6850 H 658.362 -0.414862 1.64551 0
M  V30 6851 H 657.134 -1.27527 3.69936 0
M  V30 6852 H 656.757 -2.76775 2.85449 0
M  V30 6853 N 657.755 -1.42862 -0.66545 0
M  V30 6854 C 658.702 -1.4707 -1.77874 0
M  V30 6855 C 659.672 -0.321654 -1.62956 0
M  V30 6856 O 660.857 -0.52707 -1.83376 0
M  V30 6857 C 657.997 -1.38788 -3.15962 0
M  V30 6858 C 657.11 -2.63801 -3.42101 0
M  V30 6859 C 656.245 -2.47594 -4.69969 0
M  V30 6860 C 655.284 -3.67936 -4.89172 0
M  V30 6861 N 654.421 -3.50614 -6.08288 0
M  V30 6862 H 659.261 -2.42204 -1.73613 0
M  V30 6863 H 656.798 -1.20239 -0.847401 0
M  V30 6864 H 658.756 -1.31982 -3.95773 0
M  V30 6865 H 657.386 -0.472431 -3.19324 0
M  V30 6866 H 656.438 -2.80935 -2.56475 0
M  V30 6867 H 657.75 -3.53228 -3.52181 0
M  V30 6868 H 656.904 -2.38427 -5.57886 0
M  V30 6869 H 655.643 -1.55672 -4.62188 0
M  V30 6870 H 654.648 -3.77525 -3.99694 0
M  V30 6871 H 655.873 -4.60851 -4.98792 0
M  V30 6872 H 653.819 -2.61417 -6.01662 0
M  V30 6873 H 653.736 -4.33634 -6.19272 0
M  V30 6874 H 655.004 -3.45276 -6.98859 0
M  V30 6875 N 659.233 0.902656 -1.29189 0
M  V30 6876 C 660.18 2.00643 -1.14066 0
M  V30 6877 C 661.15 1.66064 -0.0347756 0
M  V30 6878 O 662.335 1.8973 -0.201752 0
M  V30 6879 C 659.475 3.35214 -0.820104 0
M  V30 6880 C 658.588 3.82594 -2.00614 0
M  V30 6881 C 657.723 5.05727 -1.62522 0
M  V30 6882 C 656.762 5.45469 -2.77724 0
M  V30 6883 N 655.899 6.59789 -2.40048 0
M  V30 6884 H 660.739 2.1291 -2.08502 0
M  V30 6885 H 658.276 1.04271 -1.03759 0
M  V30 6886 H 660.234 4.12643 -0.614949 0
M  V30 6887 H 658.864 3.22682 0.0873452 0
M  V30 6888 H 657.916 3.01226 -2.32308 0
M  V30 6889 H 659.228 4.07999 -2.86946 0
M  V30 6890 H 658.382 5.90732 -1.38277 0
M  V30 6891 H 657.121 4.82155 -0.733333 0
M  V30 6892 H 656.126 4.59 -3.02653 0
M  V30 6893 H 657.351 5.71024 -3.67572 0
M  V30 6894 H 655.297 6.37826 -1.53343 0
M  V30 6895 H 655.214 6.84975 -3.19914 0
M  V30 6896 H 656.482 7.4807 -2.19116 0
M  V30 6897 N 660.711 1.11618 1.11262 0
M  V30 6898 C 661.641 0.79846 2.19424 0
M  V30 6899 C 662.622 -0.234003 1.68483 0
M  V30 6900 O 663.807 -0.0970704 1.93957 0
M  V30 6901 C 660.937 0.242892 3.4645 0
M  V30 6902 C 659.891 1.20744 4.10615 0
M  V30 6903 C 659.217 0.512494 5.32238 0
M  V30 6904 C 660.517 2.55884 4.55325 0
M  V30 6905 H 662.211 1.70286 2.46258 0
M  V30 6906 H 659.757 0.820195 1.18359 0
M  V30 6907 H 661.71 0.00840447 4.21399 0
M  V30 6908 H 660.434 -0.696811 3.1908 0
M  V30 6909 H 659.093 1.42759 3.37662 0
M  V30 6910 H 658.741 -0.432075 5.01141 0
M  V30 6911 H 658.441 1.15583 5.7612 0
M  V30 6912 H 659.965 0.286842 6.09926 0
M  V30 6913 H 661.379 2.37946 5.21588 0
M  V30 6914 H 659.776 3.16216 5.10027 0
M  V30 6915 H 660.846 3.14968 3.68678 0
M  V30 6916 N 662.189 -1.289 0.906776 0
M  V30 6917 C 663.6 -1.77336 0.58384 0
M  V30 6918 C 663.951 -1.74304 -0.900697 0
M  V30 6919 O 663.076 -1.33335 -1.70443 0
M  V30 6920 C 663.671 -3.22019 1.05304 0
M  V30 6921 C 662.23 -3.68205 0.781148 0
M  V30 6922 C 661.377 -2.48837 1.22373 0
M  V30 6923 H 664.328 -1.15462 1.08877 0
M  V30 6924 H 664.349 -3.78481 0.391414 0
M  V30 6925 H 663.861 -3.24194 2.13353 0
M  V30 6926 H 661.962 -3.71497 -0.28643 0
M  V30 6927 H 662.075 -4.58675 1.384 0
M  V30 6928 H 660.439 -2.46461 0.642594 0
M  V30 6929 H 661.222 -2.53736 2.31242 0
M  V30 6930 N 663.667 -0.670007 -1.42649 0
M  V30 6931 C 665.078 -0.268118 -1.84765 0
M  V30 6932 C 665.429 1.18877 -1.56086 0
M  V30 6933 O 664.554 1.90947 -1.01825 0
M  V30 6934 C 665.149 -0.47984 -3.35385 0
M  V30 6935 C 663.708 -0.132116 -3.76168 0
M  V30 6936 C 662.855 -0.774611 -2.66261 0
M  V30 6937 H 665.806 -0.872509 -1.32563 0
M  V30 6938 H 665.827 0.269522 -3.79544 0
M  V30 6939 H 665.339 -1.54026 -3.56227 0
M  V30 6940 H 663.44 0.92505 -3.60934 0
M  V30 6941 H 663.553 -0.569294 -4.75706 0
M  V30 6942 H 661.917 -0.206353 -2.53863 0
M  V30 6943 H 662.7 -1.83839 -2.89928 0
M  V30 6944 N 665.145 1.52092 -0.413018 0
M  V30 6945 C 666.075 2.30021 0.401567 0
M  V30 6946 C 667.056 1.34395 1.04269 0
M  V30 6947 O 668.241 1.63304 1.05097 0
M  V30 6948 C 665.371 3.12447 1.51638 0
M  V30 6949 C 664.325 4.16153 1.00005 0
M  V30 6950 C 663.651 4.86948 2.20875 0
M  V30 6951 C 664.951 5.22275 0.0513757 0
M  V30 6952 H 666.645 2.98365 -0.248704 0
M  V30 6953 H 664.191 1.4349 -0.121052 0
M  V30 6954 H 666.144 3.65733 2.09326 0
M  V30 6955 H 664.868 2.41879 2.19458 0
M  V30 6956 H 663.527 3.63882 0.445549 0
M  V30 6957 H 663.175 4.12905 2.8726 0
M  V30 6958 H 662.875 5.57057 1.86978 0
M  V30 6959 H 664.399 5.43048 2.79162 0
M  V30 6960 H 665.813 5.70778 0.537176 0
M  V30 6961 H 664.21 5.9977 -0.198977 0
M  V30 6962 H 665.28 4.76611 -0.892736 0
M  V30 6963 N 666.623 0.143563 1.56945 0
M  V30 6964 C 667.553 -0.7936 2.196 0
M  V30 6965 C 668.534 -1.25955 1.14321 0
M  V30 6966 O 669.719 -1.31773 1.42651 0
M  V30 6967 C 666.849 -2.03424 2.81489 0
M  V30 6968 C 665.803 -1.70519 3.92565 0
M  V30 6969 C 665.129 -3.01817 4.41373 0
M  V30 6970 C 666.429 -0.95449 5.13504 0
M  V30 6971 H 668.123 -0.271423 2.98167 0
M  V30 6972 H 665.669 -0.12911 1.4342 0
M  V30 6973 H 667.622 -2.69463 3.23987 0
M  V30 6974 H 666.346 -2.58008 2.00248 0
M  V30 6975 H 665.005 -1.06859 3.5068 0
M  V30 6976 H 664.653 -3.54386 3.56959 0
M  V30 6977 H 664.353 -2.80565 5.16292 0
M  V30 6978 H 665.877 -3.68934 4.86539 0
M  V30 6979 H 667.291 -1.5169 5.52868 0
M  V30 6980 H 665.688 -0.842035 5.94163 0
M  V30 6981 H 666.758 0.0544033 4.84869 0
M  V30 6982 N 668.101 -1.57061 -0.130224 0
M  V30 6983 C 669.326 -1.88802 -0.858409 0
M  V30 6984 C 669.751 -0.734353 -1.73173 0
M  V30 6985 O 669.109 0.315529 -1.78533 0
M  V30 6986 C 669.157 -3.19228 -1.67708 0
M  V30 6987 O 668.261 -3.04343 -2.78297 0
M  V30 6988 H 667.602 -0.619849 -0.238083 0
M  V30 6989 H 670.132 -2.04271 -0.115995 0
M  V30 6990 H 670.142 -3.51669 -2.06864 0
M  V30 6991 H 668.817 -4.02793 -1.0359 0
M  V30 6992 H 667.394 -2.83346 -2.42425 0
M  V30 6993 N 669.579 0.400081 -1.52437 0
M  V30 6994 C 670.489 1.51253 -1.79331 0
M  V30 6995 C 671.505 1.60188 -0.679396 0
M  V30 6996 O 672.681 1.76733 -0.965791 0
M  V30 6997 C 669.746 2.869 -1.94652 0
M  V30 6998 C 668.807 2.87777 -3.18564 0
M  V30 6999 C 668.04 4.16954 -3.33145 0
M  V30 7000 O 668.263 5.11329 -2.52783 0
M  V30 7001 O 667.197 4.2487 -4.26343 0
M  V30 7002 H 671.023 1.31461 -2.73773 0
M  V30 7003 H 668.608 0.586834 -1.37392 0
M  V30 7004 H 670.49 3.67336 -2.065 0
M  V30 7005 H 669.165 3.06741 -1.034 0
M  V30 7006 H 668.072 2.06162 -3.12167 0
M  V30 7007 H 669.405 2.72886 -4.09627 0
M  V30 7008 N 671.057 1.43213 0.657864 0
M  V30 7009 C 672.306 1.43871 1.41365 0
M  V30 7010 C 672.619 0.064898 1.95492 0
M  V30 7011 O 673.825 -0.0510796 2.71452 0
M  V30 7012 C 672.281 2.53158 2.55811 0
M  V30 7013 C 671.889 3.96624 2.08311 0
M  V30 7014 C 673.633 2.63004 3.3321 0
M  V30 7015 C 671.54 4.97385 3.1994 0
M  V30 7016 H 670.47 0.535174 0.531136 0
M  V30 7017 H 673.121 1.69185 0.710543 0
M  V30 7018 H 671.503 2.21037 3.2857 0
M  V30 7019 H 672.677 4.38182 1.42593 0
M  V30 7020 H 670.992 3.90781 1.43804 0
M  V30 7021 H 673.589 3.3546 4.16378 0
M  V30 7022 H 673.932 1.67918 3.80932 0
M  V30 7023 H 674.465 2.94403 2.67529 0
M  V30 7024 H 671.204 5.94007 2.77192 0
M  V30 7025 H 670.724 4.60444 3.84385 0
M  V30 7026 H 672.403 5.19877 3.85145 0
M  V30 7027 N 672.536 -0.895792 1.29666 0
M  V30 7028 C 673.782 -1.64921 1.19049 0
M  V30 7029 C 674.137 -1.90707 -0.254678 0
M  V30 7030 O 673.43 -1.5092 -1.18041 0
M  V30 7031 C 673.624 -3.00075 1.94139 0
M  V30 7032 C 673.453 -2.87482 3.4581 0
M  V30 7033 C 672.223 -2.88041 4.15163 0
M  V30 7034 C 674.421 -2.64224 4.41237 0
M  V30 7035 N 672.403 -2.66226 5.5317 0
M  V30 7036 C 673.774 -2.51427 5.66732 0
M  V30 7037 C 675.829 -2.49362 4.30956 0
M  V30 7038 C 674.532 -2.25281 6.83111 0
M  V30 7039 C 676.558 -2.246 5.47091 0
M  V30 7040 C 675.92 -2.12571 6.7156 0
M  V30 7041 H 672.019 -0.608926 0.490646 0
M  V30 7042 H 674.603 -1.05648 1.63544 0
M  V30 7043 H 672.774 -3.574 1.52052 0
M  V30 7044 H 674.506 -3.64544 1.75754 0
M  V30 7045 H 671.261 -2.99471 3.66898 0
M  V30 7046 H 671.685 -2.58361 6.25762 0
M  V30 7047 H 676.327 -2.57403 3.35415 0
M  V30 7048 H 674.045 -2.15978 7.78704 0
M  V30 7049 H 677.631 -2.13939 5.41037 0
M  V30 7050 H 676.511 -1.93676 7.59907 0
M  V30 7051 N 674.014 -1.12206 -1.10668 0
M  V30 7052 C 675.291 -0.787382 -1.79052 0
M  V30 7053 C 675.671 0.723267 -1.98323 0
M  V30 7054 O 675.019 1.6561 -1.57434 0
M  V30 7055 C 675.229 -1.55968 -3.1221 0
M  V30 7056 C 676.577 -1.74413 -3.87125 0
M  V30 7057 O 677.601 -1.5246 -3.21923 0
M  V30 7058 O 676.46 -2.10952 -5.04144 0
M  V30 7059 H 673.554 -0.286137 -0.775922 0
M  V30 7060 H 676.1 -1.22595 -1.1734 0
M  V30 7061 H 674.872 -2.58692 -2.93588 0
M  V30 7062 H 674.495 -1.1152 -3.8164 0
M  V30 7063 N 675.492 1.28418 -0.913599 0
M  V30 7064 C 676.738 1.9527 -0.547484 0
M  V30 7065 C 677.071 1.71745 0.906486 0
M  V30 7066 O 676.346 1.03834 1.64465 0
M  V30 7067 C 676.629 3.49748 -0.857205 0
M  V30 7068 C 676.482 3.82675 -2.3639 0
M  V30 7069 C 677.801 4.3868 -0.353258 0
M  V30 7070 H 674.92 0.709236 -0.200381 0
M  V30 7071 H 677.562 1.51789 -1.14281 0
M  V30 7072 H 675.712 3.86915 -0.350548 0
M  V30 7073 H 677.384 3.55378 -2.94116 0
M  V30 7074 H 675.627 3.29724 -2.81894 0
M  V30 7075 H 676.298 4.90547 -2.53115 0
M  V30 7076 H 678.774 4.08584 -0.787288 0
M  V30 7077 H 677.65 5.45621 -0.599049 0
M  V30 7078 H 677.911 4.35753 0.746413 0
M  V30 7079 N 676.97 0.677563 1.42291 0
M  V30 7080 C 677.92 -0.0218641 2.2799 0
M  V30 7081 C 678.904 -0.770816 1.41235 0
M  V30 7082 O 680.096 -0.649273 1.64662 0
M  V30 7083 C 677.225 -0.970449 3.29298 0
M  V30 7084 C 676.311 -0.218695 4.23536 0
M  V30 7085 N 676.702 0.777908 4.99782 0
M  V30 7086 C 675 -0.456748 4.43655 0
M  V30 7087 C 675.701 1.22632 5.68627 0
M  V30 7088 N 674.677 0.55573 5.40752 0
M  V30 7089 H 678.479 0.742516 2.84366 0
M  V30 7090 H 675.993 0.506862 1.54288 0
M  V30 7091 H 677.99 -1.48652 3.89497 0
M  V30 7092 H 676.65 -1.73463 2.74483 0
M  V30 7093 H 677.661 1.15754 5.04798 0
M  V30 7094 H 674.338 -1.20021 3.99877 0
M  V30 7095 H 675.728 2.05231 6.39789 0
M  V30 7096 N 678.448 -1.51871 0.421078 0
M  V30 7097 C 679.358 -2.31077 -0.405069 0
M  V30 7098 C 680.374 -1.39301 -1.04265 0
M  V30 7099 O 681.55 -1.72376 -1.04157 0
M  V30 7100 C 678.615 -3.12556 -1.50032 0
M  V30 7101 C 677.676 -4.20088 -0.884559 0
M  V30 7102 C 676.909 -4.97673 -1.92762 0
M  V30 7103 O 677.132 -4.75696 -3.14753 0
M  V30 7104 O 676.066 -5.82203 -1.52719 0
M  V30 7105 H 679.892 -3.02742 0.241086 0
M  V30 7106 H 677.477 -1.48263 0.183991 0
M  V30 7107 H 679.359 -3.6326 -2.13589 0
M  V30 7108 H 678.034 -2.43672 -2.13086 0
M  V30 7109 H 676.941 -3.73502 -0.211379 0
M  V30 7110 H 678.274 -4.91298 -0.297763 0
M  V30 7111 O 679.965 -0.292728 -1.58825 0
M  V30 7112 H 680.656 0.273626 -1.91758 0
M  V30 END ATOM
M  V30 BEGIN BOND
M  V30 END BOND
M  V30 END CTAB
M  END
$$$$
