drugbank_target|P07333 Macrophage colony-stimulating factor 1 receptor (DB00619; DB01268; DB06080; DB07167; DB07202; DB12010; DB12147; DB12978)
 OpenBabel12092119413D

  0  0  0     0  0            999 V3000
M  V30 BEGIN CTAB
M  V30 COUNTS 15065 15261 0 0 0
M  V30 BEGIN ATOM
M  V30 1 H -0.908 1.98254 -0.117106 0
M  V30 2 N 0 1.576 0 0
M  V30 3 C 0.933 2.03868 1.02534 0
M  V30 4 C 1.911 0.928543 1.3348 0
M  V30 5 O 3.095 1.19667 1.45644 0
M  V30 6 C 0.222 2.43627 2.35294 0
M  V30 7 C -0.732 3.65373 2.2001 0
M  V30 8 S 0.101 5.13292 1.52614 0
M  V30 9 C 1.257 5.56322 2.86805 0
M  V30 10 H 1.49 2.90518 0.631377 0
M  V30 11 H -0.977 1.52953 0.210867 0
M  V30 12 H 0.981 2.67203 3.11629 0
M  V30 13 H -0.358 1.57376 2.7183 0
M  V30 14 H -1.165 3.90944 3.18086 0
M  V30 15 H -1.563 3.418 1.51819 0
M  V30 16 H 0.729 5.58782 3.83104 0
M  V30 17 H 1.672 6.56266 2.65933 0
M  V30 18 H 2.08 4.83886 2.90714 0
M  V30 19 N 1.4781 -0.272755 1.55222 0
M  V30 20 C 2.7261 -1.00234 1.75492 0
M  V30 21 C 3.0471 -1.8681 0.5592 0
M  V30 22 O 2.3171 -1.91215 -0.425882 0
M  V30 23 H 0.8971 -0.373076 0.647166 0
M  V30 24 H 3.5591 -0.296926 1.92625 0
M  V30 25 H 2.6551 -1.63913 2.65592 0
M  V30 26 N 2.9562 -1.48159 -0.537278 0
M  V30 27 C 4.3672 -1.49429 -1.11928 0
M  V30 28 C 4.7182 -0.26 -1.9447 0
M  V30 29 O 3.8432 0.633489 -2.0692 0
M  V30 30 C 4.4382 -2.70758 -2.03656 0
M  V30 31 C 2.9972 -2.74923 -2.57088 0
M  V30 32 C 2.1442 -2.42835 -1.3389 0
M  V30 33 H 5.0952 -1.55381 -0.322886 0
M  V30 34 H 5.1162 -2.48861 -2.87834 0
M  V30 35 H 4.6282 -3.60575 -1.43553 0
M  V30 36 H 2.7292 -1.89296 -3.20933 0
M  V30 37 H 2.8422 -3.76157 -2.9672 0
M  V30 38 H 1.2062 -1.93836 -1.65226 0
M  V30 39 H 1.9892 -3.34884 -0.755504 0
M  V30 40 N 4.4343 0.785586 -1.36625 0
M  V30 41 C 5.6823 1.54057 -1.30808 0
M  V30 42 C 6.0033 1.94683 0.111157 0
M  V30 43 O 5.2733 1.65241 1.05224 0
M  V30 44 H 3.8533 0.571354 -0.481211 0
M  V30 45 H 6.5153 0.935821 -1.70963 0
M  V30 46 H 5.6113 2.44637 -1.93801 0
M  V30 47 N 5.9124 1.20967 1.01018 0
M  V30 48 C 7.1584 1.02526 1.74975 0
M  V30 49 C 7.4914 -0.4408 1.89131 0
M  V30 50 O 6.7664 -1.32718 1.42184 0
M  V30 51 C 7.0494 1.71699 3.1653 0
M  V30 52 C 6.9024 3.25791 3.10129 0
M  V30 53 C 8.2214 1.45531 4.15342 0
M  V30 54 H 5.3404 0.373863 0.635134 0
M  V30 55 H 7.9824 1.49071 1.17805 0
M  V30 56 H 6.1324 1.32128 3.65341 0
M  V30 57 H 7.8044 3.74697 2.69072 0
M  V30 58 H 6.0474 3.56363 2.47362 0
M  V30 59 H 6.7184 3.69353 4.10222 0
M  V30 60 H 9.1944 1.79872 3.75213 0
M  V30 61 H 8.0704 1.96453 5.1254 0
M  V30 62 H 8.3314 0.384237 4.40427 0
M  V30 63 N 7.3905 -1.2043 1.01659 0
M  V30 64 C 8.3205 -2.25466 0.607226 0
M  V30 65 C 9.3015 -1.65853 -0.377716 0
M  V30 66 O 10.4865 -1.92409 -0.263149 0
M  V30 67 C 7.6165 -3.47256 -0.0552949 0
M  V30 68 C 6.5705 -4.19462 0.850632 0
M  V30 69 C 5.8965 -5.34673 0.0538859 0
M  V30 70 C 7.1965 -4.75603 2.15868 0
M  V30 71 H 8.8905 -2.59962 1.48526 0
M  V30 72 H 6.4365 -1.2496 0.715605 0
M  V30 73 H 8.3895 -4.19917 -0.353233 0
M  V30 74 H 7.1135 -3.11924 -0.968045 0
M  V30 75 H 5.7725 -3.48667 1.13257 0
M  V30 76 H 5.4205 -4.95585 -0.860514 0
M  V30 77 H 5.1205 -5.83913 0.657192 0
M  V30 78 H 6.6445 -6.10138 -0.237598 0
M  V30 79 H 8.0585 -5.40083 1.92311 0
M  V30 80 H 6.4555 -5.3528 2.71284 0
M  V30 81 H 7.5255 -3.94346 2.82169 0
M  V30 82 N 8.8686 -0.792821 -1.36206 0
M  V30 83 C 9.7986 -0.207853 -2.32573 0
M  V30 84 C 10.7796 0.659055 -1.56813 0
M  V30 85 O 11.9646 0.592176 -1.84951 0
M  V30 86 C 9.0946 0.655449 -3.41059 0
M  V30 87 C 8.0486 -0.111842 -4.27854 0
M  V30 88 C 7.3746 0.872274 -5.27537 0
M  V30 89 C 8.6746 -1.30299 -5.05786 0
M  V30 90 H 10.3686 -1.01294 -2.81744 0
M  V30 91 H 7.9146 -0.48854 -1.3546 0
M  V30 92 H 9.8676 1.07464 -4.07467 0
M  V30 93 H 8.5916 1.49328 -2.90463 0
M  V30 94 H 7.2506 -0.512053 -3.63006 0
M  V30 95 H 6.8986 1.70523 -4.73214 0
M  V30 96 H 6.5986 0.363291 -5.86476 0
M  V30 97 H 8.1226 1.28996 -5.96818 0
M  V30 98 H 9.5366 -0.959379 -5.65216 0
M  V30 99 H 7.9336 -1.7455 -5.74154 0
M  V30 100 H 9.0036 -2.09663 -4.37229 0
M  V30 101 N 10.3467 1.47872 -0.545128 0
M  V30 102 C 11.2767 2.32661 0.197793 0
M  V30 103 C 12.2577 1.43041 0.920504 0
M  V30 104 O 13.4427 1.71912 0.90333 0
M  V30 105 C 10.5727 3.24569 1.23582 0
M  V30 106 C 9.5267 4.23333 0.630323 0
M  V30 107 C 8.8527 5.0448 1.77211 0
M  V30 108 C 10.1527 5.20704 -0.407974 0
M  V30 109 H 11.8467 2.95024 -0.510045 0
M  V30 110 H 9.3927 1.4187 -0.246731 0
M  V30 111 H 11.3457 3.8272 1.76362 0
M  V30 112 H 10.0697 2.60236 1.97344 0
M  V30 113 H 8.7287 3.6639 0.123922 0
M  V30 114 H 8.3767 4.36561 2.49847 0
M  V30 115 H 8.0767 5.71339 1.37281 0
M  V30 116 H 9.6007 5.65487 2.3034 0
M  V30 117 H 11.0147 5.7329 0.033305 0
M  V30 118 H 9.4117 5.95699 -0.725486 0
M  V30 119 H 10.4817 4.66917 -1.30828 0
M  V30 120 N 11.8248 0.280983 1.55075 0
M  V30 121 C 12.7548 -0.597469 2.25727 0
M  V30 122 C 13.7358 -1.15417 1.24952 0
M  V30 123 O 14.9208 -1.18722 1.53684 0
M  V30 124 C 12.0508 -1.7789 2.98283 0
M  V30 125 C 11.0048 -1.35347 4.06036 0
M  V30 126 C 10.3308 -2.61846 4.66198 0
M  V30 127 C 11.6308 -0.499354 5.19907 0
M  V30 128 H 13.3248 -0.00824265 2.99399 0
M  V30 129 H 10.8708 -0.0025244 1.44 0
M  V30 130 H 12.8238 -2.39937 3.46422 0
M  V30 131 H 11.5478 -2.39405 2.22155 0
M  V30 132 H 10.2068 -0.756156 3.58717 0
M  V30 133 H 9.8548 -3.21632 3.86732 0
M  V30 134 H 9.5548 -2.3409 5.38958 0
M  V30 135 H 11.0788 -3.24732 5.1709 0
M  V30 136 H 12.4928 -1.02498 5.64063 0
M  V30 137 H 10.8898 -0.316424 5.99265 0
M  V30 138 H 11.9598 0.480459 4.82514 0
M  V30 139 N 13.3029 -1.57598 0.00835791 0
M  V30 140 C 14.2329 -2.1198 -0.979113 0
M  V30 141 C 15.2139 -1.03091 -1.35301 0
M  V30 142 O 16.3989 -1.30818 -1.43528 0
M  V30 143 C 13.5289 -2.62995 -2.26828 0
M  V30 144 C 12.4829 -3.76485 -2.03576 0
M  V30 145 C 11.8089 -4.13846 -3.38579 0
M  V30 146 C 13.1089 -5.0342 -1.39161 0
M  V30 147 H 14.8029 -2.94738 -0.526281 0
M  V30 148 H 12.3489 -1.41783 -0.251704 0
M  V30 149 H 14.3019 -2.99669 -2.96271 0
M  V30 150 H 13.0259 -1.7737 -2.7424 0
M  V30 151 H 11.6849 -3.40217 -1.36557 0
M  V30 152 H 11.3329 -3.25232 -3.83709 0
M  V30 153 H 11.0329 -4.90312 -3.23834 0
M  V30 154 H 12.5569 -4.53086 -4.09323 0
M  V30 155 H 13.9709 -5.37812 -1.98573 0
M  V30 156 H 12.3679 -5.84746 -1.34878 0
M  V30 157 H 13.4379 -4.83548 -0.361868 0
M  V30 158 N 14.781 0.264519 -1.55364 0
M  V30 159 C 16.027 0.99646 -1.76631 0
M  V30 160 C 16.36 1.85632 -0.570478 0
M  V30 161 O 15.635 1.89647 0.43175 0
M  V30 162 C 15.918 1.87187 -3.07625 0
M  V30 163 C 15.771 1.04138 -4.37579 0
M  V30 164 C 17.09 2.85749 -3.34717 0
M  V30 165 H 14.209 0.360841 -0.642622 0
M  V30 166 H 16.851 0.268218 -1.88097 0
M  V30 167 H 15.001 2.49279 -2.9798 0
M  V30 168 H 16.673 0.440517 -4.59192 0
M  V30 169 H 14.916 0.345115 -4.32425 0
M  V30 170 H 15.587 1.68729 -5.2558 0
M  V30 171 H 18.063 2.33793 -3.4421 0
M  V30 172 H 16.939 3.44136 -4.27623 0
M  V30 173 H 17.2 3.61311 -2.54768 0
M  V30 174 N 16.2591 1.48442 0.529413 0
M  V30 175 C 17.2221 1.62524 1.61612 0
M  V30 176 C 18.2221 0.498509 1.52877 0
M  V30 177 O 19.4121 0.76431 1.56537 0
M  V30 178 C 16.5441 1.59597 3.01233 0
M  V30 179 H 17.7371 2.59423 1.50465 0
M  V30 180 H 15.2901 1.37047 0.751514 0
M  V30 181 H 16.0251 0.641781 3.17886 0
M  V30 182 H 15.8101 2.41397 3.08982 0
M  V30 183 H 17.3001 1.72646 3.80241 0
M  V30 184 N 17.7372 -0.778329 1.37039 0
M  V30 185 C 18.9652 -1.56734 1.35063 0
M  V30 186 C 19.3802 -1.88686 -0.0655597 0
M  V30 187 O 18.7372 -1.5096 -1.02554 0
M  V30 188 C 18.7882 -2.88163 2.18276 0
M  V30 189 O 18.5092 -2.57583 3.54376 0
M  V30 190 C 20.0102 -3.82422 2.24206 0
M  V30 191 H 17.2302 -0.485778 0.462883 0
M  V30 192 H 19.7742 -0.965185 1.8029 0
M  V30 193 H 17.9292 -3.44818 1.76576 0
M  V30 194 H 18.3432 -3.41699 3.97922 0
M  V30 195 H 19.8172 -4.71667 2.86765 0
M  V30 196 H 20.2942 -4.21078 1.24861 0
M  V30 197 H 20.9002 -3.31697 2.6619 0
M  V30 198 N 19.2153 -1.21501 -1.00376 0
M  V30 199 C 20.1783 -0.976927 -2.07337 0
M  V30 200 C 21.1783 0.0525322 -1.60714 0
M  V30 201 O 22.3683 -0.184869 -1.73216 0
M  V30 202 C 19.5003 -0.473423 -3.37597 0
M  V30 203 H 20.6933 -1.92587 -2.29892 0
M  V30 204 H 18.2463 -1.03217 -1.17371 0
M  V30 205 H 18.9813 0.480379 -3.20722 0
M  V30 206 H 18.7663 -1.216 -3.72768 0
M  V30 207 H 20.2563 -0.32675 -4.1632 0
M  V30 208 N 20.6934 1.19889 -1.02296 0
M  V30 209 C 21.9394 1.89973 -0.726759 0
M  V30 210 C 22.2944 1.7776 0.73614 0
M  V30 211 O 21.5874 1.15523 1.52856 0
M  V30 212 C 21.7814 3.39883 -1.10518 0
M  V30 213 C 21.6104 3.66684 -2.60332 0
M  V30 214 C 20.3804 3.85045 -3.27213 0
M  V30 215 C 22.5784 3.68727 -3.58532 0
M  V30 216 N 20.5604 3.99422 -4.66192 0
M  V30 217 C 21.9314 3.88604 -4.83101 0
M  V30 218 C 23.9864 3.51722 -3.52414 0
M  V30 219 C 22.6894 3.9324 -6.02292 0
M  V30 220 C 24.7154 3.57632 -4.71013 0
M  V30 221 C 24.0774 3.77988 -5.94394 0
M  V30 222 H 20.1764 0.714551 -0.317712 0
M  V30 223 H 22.7604 1.44123 -1.30907 0
M  V30 224 H 20.9314 3.8447 -0.551142 0
M  V30 225 H 22.6634 3.97464 -0.761853 0
M  V30 226 H 19.4184 3.83689 -2.77632 0
M  V30 227 H 19.8424 4.10473 -5.38368 0
M  V30 228 H 24.4844 3.34945 -2.58015 0
M  V30 229 H 22.2024 4.08811 -6.97065 0
M  V30 230 H 25.7884 3.45773 -4.67902 0
M  V30 231 H 24.6684 3.82428 -6.8463 0
M  V30 232 N 22.1715 0.800033 1.35784 0
M  V30 233 C 23.1215 0.178654 2.27299 0
M  V30 234 C 24.1055 -0.643667 1.47464 0
M  V30 235 O 25.2975 -0.502 1.69732 0
M  V30 236 C 22.4265 -0.677194 3.36555 0
M  V30 237 C 21.5125 0.154497 4.23818 0
M  V30 238 N 21.9035 1.21427 4.91008 0
M  V30 239 C 20.2015 -0.0649462 4.45953 0
M  V30 240 C 20.9025 1.72147 5.55644 0
M  V30 241 N 19.8785 1.02897 5.33773 0
M  V30 242 H 23.6805 0.989637 2.76737 0
M  V30 243 H 21.1945 0.64054 1.49234 0
M  V30 244 H 23.1915 -1.13835 4.01058 0
M  V30 245 H 21.8515 -1.4866 2.8867 0
M  V30 246 H 22.8625 1.59684 4.92668 0
M  V30 247 H 19.5395 -0.844016 4.0888 0
M  V30 248 H 20.9295 2.60683 6.19269 0
M  V30 249 N 23.6496 -1.47581 0.552962 0
M  V30 250 C 24.8976 -2.02082 0.0272703 0
M  V30 251 C 25.2186 -1.4301 -1.32563 0
M  V30 252 O 24.4886 -0.603745 -1.86365 0
M  V30 253 H 23.0686 -0.746966 0.00709182 0
M  V30 254 H 25.7306 -1.81033 0.722008 0
M  V30 255 H 24.8266 -3.12034 -0.0639951 0
M  V30 256 N 25.1277 -0.289203 -1.54924 0
M  V30 257 C 26.0597 0.625583 -2.20497 0
M  V30 258 C 27.0727 1.10667 -1.19402 0
M  V30 259 O 28.2617 1.02615 -1.46056 0
M  V30 260 C 25.3617 1.86702 -2.82835 0
M  V30 261 C 24.5347 1.5304 -4.09753 0
M  V30 262 C 23.5937 2.62576 -4.56005 0
M  V30 263 O 22.6197 2.28167 -5.21468 0
M  V30 264 N 23.8217 3.92901 -4.27328 0
M  V30 265 H 26.5867 0.0642801 -2.99631 0
M  V30 266 H 24.1477 -0.110896 -1.6152 0
M  V30 267 H 26.1397 2.59304 -3.10715 0
M  V30 268 H 24.7097 2.33702 -2.07611 0
M  V30 269 H 23.9297 0.637564 -3.8901 0
M  V30 270 H 25.2177 1.28072 -4.92418 0
M  V30 271 H 24.6157 4.23671 -3.74859 0
M  V30 272 H 23.1727 4.61837 -4.59946 0
M  V30 273 N 26.6058 1.57591 -0.0167156 0
M  V30 274 C 27.8538 1.90906 0.663285 0
M  V30 275 C 28.1748 0.892509 1.73376 0
M  V30 276 O 27.4448 -0.0677623 1.95783 0
M  V30 277 H 26.0248 0.704637 0.247983 0
M  V30 278 H 28.6868 1.94803 -0.0615909 0
M  V30 279 H 27.7828 2.9116 1.12393 0
M  V30 280 N 28.0839 -0.256276 1.55502 0
M  V30 281 C 29.3329 -0.983486 1.76098 0
M  V30 282 C 29.6459 -1.86837 0.578896 0
M  V30 283 O 30.8519 -2.63163 0.667648 0
M  V30 284 C 29.3079 -1.79868 3.1173 0
M  V30 285 C 28.9159 -0.961648 4.37557 0
M  V30 286 C 30.6599 -2.51919 3.41668 0
M  V30 287 C 28.5669 -1.77219 5.64223 0
M  V30 288 H 27.4969 -0.370936 0.656447 0
M  V30 289 H 30.1479 -0.238492 1.81944 0
M  V30 290 H 28.5299 -2.58527 2.99966 0
M  V30 291 H 29.7039 -0.218048 4.60284 0
M  V30 292 H 28.0189 -0.354913 4.14885 0
M  V30 293 H 30.6159 -3.12998 4.33516 0
M  V30 294 H 30.9589 -3.23059 2.62562 0
M  V30 295 H 31.4919 -1.80278 3.54605 0
M  V30 296 H 28.2309 -1.10471 6.46124 0
M  V30 297 H 27.7509 -2.49132 5.45613 0
M  V30 298 H 29.4299 -2.34169 6.03137 0
M  V30 299 N 29.562 -1.4872 -0.521534 0
M  V30 300 C 30.973 -1.50607 -1.10337 0
M  V30 301 C 31.324 -0.280612 -1.94183 0
M  V30 302 O 30.449 0.611507 -2.0758 0
M  V30 303 C 31.044 -2.72903 -2.00772 0
M  V30 304 C 29.603 -2.77634 -2.54158 0
M  V30 305 C 28.75 -2.44241 -1.31307 0
M  V30 306 H 31.701 -1.55714 -0.306388 0
M  V30 307 H 31.722 -2.519 -2.85178 0
M  V30 308 H 31.234 -3.62077 -1.39721 0
M  V30 309 H 29.335 -1.92689 -3.18907 0
M  V30 310 H 29.448 -3.79283 -2.92714 0
M  V30 311 H 27.812 -1.95577 -1.63161 0
M  V30 312 H 28.595 -3.35666 -0.719943 0
M  V30 313 N 31.0401 0.771051 -1.3745 0
M  V30 314 C 32.2861 1.5319 -1.32894 0
M  V30 315 C 32.6191 1.94008 0.0862511 0
M  V30 316 O 31.8941 1.64124 1.04373 0
M  V30 317 C 32.1771 2.79648 -2.26868 0
M  V30 318 C 32.0301 2.45079 -3.77169 0
M  V30 319 C 33.3491 3.81583 -2.19277 0
M  V30 320 H 30.4681 0.555744 -0.484064 0
M  V30 321 H 33.1101 0.884492 -1.68157 0
M  V30 322 H 31.2601 3.34891 -1.96926 0
M  V30 323 H 32.9321 1.95745 -4.1771 0
M  V30 324 H 31.1751 1.77767 -3.95704 0
M  V30 325 H 31.8461 3.35478 -4.38359 0
M  V30 326 H 34.3221 3.35835 -2.45671 0
M  V30 327 H 33.1981 4.67787 -2.87171 0
M  V30 328 H 33.4591 4.25897 -1.18592 0
M  V30 329 N 32.5182 1.22032 0.997298 0
M  V30 330 C 33.7672 1.03637 1.73038 0
M  V30 331 C 34.0802 -0.429475 1.90827 0
M  V30 332 O 35.2862 -0.732995 2.61418 0
M  V30 333 C 33.7422 1.80582 3.11317 0
M  V30 334 C 33.3502 3.31387 3.01474 0
M  V30 335 C 35.0942 1.70621 3.88701 0
M  V30 336 C 33.0012 4.00791 4.3488 0
M  V30 337 H 31.9312 0.384179 0.648785 0
M  V30 338 H 34.5822 1.4584 1.11368 0
M  V30 339 H 32.9642 1.31175 3.73643 0
M  V30 340 H 34.1382 3.88155 2.4834 0
M  V30 341 H 32.4532 3.41976 2.37575 0
M  V30 342 H 35.0502 2.19799 4.87434 0
M  V30 343 H 35.3932 0.665823 4.10941 0
M  V30 344 H 35.9262 2.17547 3.33044 0
M  V30 345 H 32.6652 5.05064 4.1784 0
M  V30 346 H 32.1852 3.48811 4.87945 0
M  V30 347 H 33.8642 4.06139 5.03647 0
M  V30 348 N 33.9963 -1.19345 1.0293 0
M  V30 349 C 34.9063 -2.26245 0.620515 0
M  V30 350 C 35.9223 -1.70486 -0.347928 0
M  V30 351 O 37.0983 -2.00347 -0.205704 0
M  V30 352 C 34.1633 -3.46693 -0.0218957 0
M  V30 353 C 33.2243 -4.17632 0.994102 0
M  V30 354 C 32.4573 -5.32329 0.382253 0
M  V30 355 O 32.6803 -5.64552 -0.814676 0
M  V30 356 O 31.6143 -5.91664 1.10531 0
M  V30 357 H 35.4403 -2.63453 1.51083 0
M  V30 358 H 33.0253 -1.26207 0.799513 0
M  V30 359 H 34.9073 -4.19683 -0.380072 0
M  V30 360 H 33.5823 -3.11333 -0.886209 0
M  V30 361 H 32.4893 -3.4676 1.40387 0
M  V30 362 H 33.8223 -4.56964 1.8288 0
M  V30 363 N 35.4744 -0.807222 -1.35358 0
M  V30 364 C 36.8854 -0.44876 -1.81226 0
M  V30 365 C 37.2364 1.02929 -1.67033 0
M  V30 366 O 36.3614 1.79991 -1.20133 0
M  V30 367 C 36.9564 -0.807774 -3.2903 0
M  V30 368 C 35.5154 -0.501901 -3.73039 0
M  V30 369 C 34.6624 -1.03304 -2.57339 0
M  V30 370 H 37.6134 -0.998808 -1.23327 0
M  V30 371 H 37.6344 -0.10554 -3.80354 0
M  V30 372 H 37.1464 -1.88357 -3.39328 0
M  V30 373 H 35.2474 0.565128 -3.68289 0
M  V30 374 H 35.3604 -1.03497 -4.67787 0
M  V30 375 H 33.7244 -0.455339 -2.50597 0
M  V30 376 H 34.5074 -2.11496 -2.70415 0
M  V30 377 N 36.9525 1.47285 -0.560781 0
M  V30 378 C 38.1775 2.07359 -0.0410566 0
M  V30 379 C 38.6025 1.41017 1.24483 0
M  V30 380 O 37.9605 0.486368 1.74654 0
M  V30 381 C 38.0085 3.6035 0.134123 0
M  V30 382 O 37.1125 3.94681 1.19587 0
M  V30 383 H 36.4535 0.661887 -0.0529291 0
M  V30 384 H 38.9835 1.89252 -0.777482 0
M  V30 385 H 38.9935 4.0652 0.347207 0
M  V30 386 H 37.6685 4.08034 -0.805047 0
M  V30 387 H 36.2455 3.60251 0.962987 0
M  V30 388 N 38.4306 0.297415 1.54768 0
M  V30 389 C 39.6766 -0.313376 2.00364 0
M  V30 390 C 40.0096 -1.53815 1.18553 0
M  V30 391 O 39.2846 -1.92739 0.261103 0
M  V30 392 C 39.5676 -0.673525 3.53745 0
M  V30 393 C 39.4206 0.560133 4.46299 0
M  V30 394 C 40.7396 -1.50143 4.13697 0
M  V30 395 H 37.8586 -0.112428 0.728374 0
M  V30 396 H 40.5006 0.4088 1.8555 0
M  V30 397 H 38.6506 -1.28881 3.665 0
M  V30 398 H 40.3226 1.19863 4.45455 0
M  V30 399 H 38.5656 1.19405 4.17043 0
M  V30 400 H 39.2366 0.26405 5.51368 0
M  V30 401 H 41.7126 -0.981588 4.04356 0
M  V30 402 H 40.5886 -1.72221 5.21182 0
M  V30 403 H 40.8496 -2.48952 3.65343 0
M  V30 404 N 39.9087 -1.5758 0.0250728 0
M  V30 405 C 41.3197 -1.79476 -0.514323 0
M  V30 406 C 41.6707 -0.934956 -1.72491 0
M  V30 407 O 40.7957 -0.144245 -2.15919 0
M  V30 408 C 41.3907 -3.25503 -0.939842 0
M  V30 409 C 39.9497 -3.48408 -1.42438 0
M  V30 410 C 39.0967 -2.74583 -0.387201 0
M  V30 411 H 42.0477 -1.567 0.25113 0
M  V30 412 H 42.0687 -3.34992 -1.80445 0
M  V30 413 H 41.5807 -3.88056 -0.0585628 0
M  V30 414 H 39.6817 -2.91103 -2.32572 0
M  V30 415 H 39.7947 -4.57119 -1.43455 0
M  V30 416 H 38.1587 -2.39942 -0.854409 0
M  V30 417 H 38.9417 -3.39849 0.485543 0
M  V30 418 N 41.3868 0.248026 -1.55636 0
M  V30 419 C 42.2968 1.32859 -1.93354 0
M  V30 420 C 43.3128 1.52719 -0.833838 0
M  V30 421 O 44.4888 1.66363 -1.13513 0
M  V30 422 C 41.5538 2.66337 -2.21958 0
M  V30 423 C 40.6148 2.55008 -3.45354 0
M  V30 424 C 39.8478 3.82121 -3.72584 0
M  V30 425 O 40.0708 4.83951 -3.01907 0
M  V30 426 O 39.0048 3.80822 -4.6611 0
M  V30 427 H 42.8308 1.03862 -2.85388 0
M  V30 428 H 40.4158 0.448686 -1.42503 0
M  V30 429 H 42.2978 3.45216 -2.4167 0
M  V30 430 H 40.9728 2.95068 -1.33103 0
M  V30 431 H 39.8798 1.7442 -3.30951 0
M  V30 432 H 41.2128 2.31222 -4.34508 0
M  V30 433 N 42.8649 1.48995 0.513639 0
M  V30 434 C 43.7949 1.67636 1.62544 0
M  V30 435 C 44.7759 0.525087 1.61793 0
M  V30 436 O 45.9609 0.759502 1.78732 0
M  V30 437 C 43.0909 1.73114 3.01079 0
M  V30 438 C 42.0449 2.87905 3.16693 0
M  V30 439 C 41.3709 2.78486 4.56453 0
M  V30 440 C 42.6709 4.29005 2.97913 0
M  V30 441 H 44.3649 2.60716 1.47198 0
M  V30 442 H 41.9109 1.25465 0.706714 0
M  V30 443 H 43.8639 1.84742 3.78746 0
M  V30 444 H 42.5879 0.766241 3.17484 0
M  V30 445 H 41.2469 2.75859 2.41448 0
M  V30 446 H 40.8949 1.7993 4.69717 0
M  V30 447 H 40.5949 3.55523 4.67843 0
M  V30 448 H 42.1189 2.92104 5.36197 0
M  V30 449 H 43.5329 4.41798 3.65359 0
M  V30 450 H 41.9299 5.07166 3.20785 0
M  V30 451 H 42.9999 4.44329 1.94165 0
M  V30 452 N 44.343 -0.763751 1.37857 0
M  V30 453 C 45.589 -1.52483 1.33704 0
M  V30 454 C 45.922 -1.94051 -0.0759612 0
M  V30 455 O 45.197 -1.64675 -1.03501 0
M  V30 456 C 45.48 -2.78441 2.28348 0
M  V30 457 C 45.333 -2.43075 3.78463 0
M  V30 458 C 46.652 -3.80415 2.21298 0
M  V30 459 H 43.771 -0.553169 0.487005 0
M  V30 460 H 46.413 -0.875562 1.68624 0
M  V30 461 H 44.563 -3.33842 1.987 0
M  V30 462 H 46.235 -1.93527 4.18742 0
M  V30 463 H 44.478 -1.75666 3.96641 0
M  V30 464 H 45.149 -3.33149 4.40132 0
M  V30 465 H 47.625 -3.34527 2.47449 0
M  V30 466 H 46.501 -4.66257 2.89647 0
M  V30 467 H 46.762 -4.25262 1.20849 0
M  V30 468 N 45.8211 -1.22559 -0.990812 0
M  V30 469 C 47.0671 -1.05297 -1.73322 0
M  V30 470 C 47.4001 0.410655 -1.89808 0
M  V30 471 O 46.6751 1.30439 -1.44277 0
M  V30 472 C 46.9581 -1.76713 -3.13759 0
M  V30 473 C 46.8111 -3.30684 -3.04907 0
M  V30 474 C 48.1301 -1.52121 -4.12974 0
M  V30 475 H 45.2491 -0.38392 -0.629106 0
M  V30 476 H 47.8911 -1.50926 -1.15418 0
M  V30 477 H 46.0411 -1.37924 -3.63193 0
M  V30 478 H 47.7131 -3.7893 -2.63077 0
M  V30 479 H 45.9561 -3.60253 -2.41661 0
M  V30 480 H 46.6271 -3.75833 -4.04294 0
M  V30 481 H 49.1031 -1.85819 -3.72304 0
M  V30 482 H 47.9791 -2.04582 -5.0935 0
M  V30 483 H 48.2401 -0.454257 -4.3976 0
M  V30 484 N 47.2992 1.18797 -1.03562 0
M  V30 485 C 48.2462 2.22253 -0.622259 0
M  V30 486 C 49.2162 1.61987 0.36736 0
M  V30 487 O 50.4012 1.88986 0.262492 0
M  V30 488 C 47.5412 3.45097 0.0138462 0
M  V30 489 C 46.6542 4.19722 -1.02263 0
M  V30 490 C 45.7892 5.30009 -0.355573 0
M  V30 491 C 44.8282 5.96399 -1.37749 0
M  V30 492 N 43.9652 6.98234 -0.735766 0
M  V30 493 H 48.8052 2.56968 -1.50903 0
M  V30 494 H 46.3422 1.26245 -0.755017 0
M  V30 495 H 48.3002 4.15279 0.399948 0
M  V30 496 H 46.9302 3.11018 0.864158 0
M  V30 497 H 45.9822 3.48418 -1.52673 0
M  V30 498 H 47.2942 4.65227 -1.79903 0
M  V30 499 H 46.4482 6.0664 0.0850095 0
M  V30 500 H 45.1872 4.85592 0.452967 0
M  V30 501 H 44.1922 5.18512 -1.82826 0
M  V30 502 H 45.4172 6.42899 -2.18764 0
M  V30 503 H 43.3632 6.55979 0.0525597 0
M  V30 504 H 43.2802 7.41965 -1.44995 0
M  V30 505 H 44.5482 7.78845 -0.31941 0
M  V30 506 N 48.7773 0.814389 1.34928 0
M  V30 507 C 50.1883 0.458364 1.80986 0
M  V30 508 C 50.5393 -1.02042 1.67577 0
M  V30 509 O 49.6643 -1.79352 1.21086 0
M  V30 510 C 50.2593 0.825212 3.28597 0
M  V30 511 C 48.8183 0.521677 3.72767 0
M  V30 512 C 47.9653 1.04668 2.56788 0
M  V30 513 H 50.9163 1.00533 1.22795 0
M  V30 514 H 50.9373 0.12571 3.80292 0
M  V30 515 H 50.4493 1.90154 3.38324 0
M  V30 516 H 48.5503 -0.545589 3.68584 0
M  V30 517 H 48.6633 1.05977 4.67232 0
M  V30 518 H 47.0273 0.468622 2.50352 0
M  V30 519 H 47.8103 2.12927 2.6929 0
M  V30 520 N 50.2554 -1.46986 0.568584 0
M  V30 521 C 51.5034 -2.02041 0.0487022 0
M  V30 522 C 51.8244 -1.44408 -1.31039 0
M  V30 523 O 51.0944 -0.623477 -1.85714 0
M  V30 524 H 49.6744 -0.746849 0.015014 0
M  V30 525 H 52.3364 -1.80257 0.741168 0
M  V30 526 H 51.4324 -3.12085 -0.0308961 0
M  V30 527 N 51.7335 -0.305618 -1.54608 0
M  V30 528 C 52.6965 0.555591 -2.22364 0
M  V30 529 C 53.6965 1.05768 -1.21119 0
M  V30 530 O 54.8865 0.952972 -1.45822 0
M  V30 531 C 52.0185 1.76974 -2.91364 0
M  V30 532 H 53.2115 -0.0364572 -2.99878 0
M  V30 533 H 50.7645 -0.0565007 -1.56198 0
M  V30 534 H 51.4995 2.40151 -2.17941 0
M  V30 535 H 51.2845 1.41732 -3.65588 0
M  V30 536 H 52.7745 2.38148 -3.43038 0
M  V30 537 N 53.2116 1.57565 -0.0334293 0
M  V30 538 C 54.4396 1.9628 0.654347 0
M  V30 539 C 54.8546 0.910138 1.65414 0
M  V30 540 O 54.2116 -0.107595 1.82183 0
M  V30 541 C 54.2626 3.35067 1.35693 0
M  V30 542 O 53.9836 4.36296 0.397191 0
M  V30 543 C 55.4846 3.88439 2.13613 0
M  V30 544 H 52.7046 0.646369 0.180132 0
M  V30 545 H 55.2486 2.04282 -0.0944721 0
M  V30 546 H 53.4036 3.2827 2.05712 0
M  V30 547 H 53.8176 5.1678 0.896597 0
M  V30 548 H 55.2916 4.8788 2.58219 0
M  V30 549 H 55.7686 3.22914 2.97696 0
M  V30 550 H 56.3746 3.98516 1.48543 0
M  V30 551 N 54.6897 -0.239769 1.55765 0
M  V30 552 C 55.9357 -0.968234 1.78194 0
M  V30 553 C 56.2687 -1.84701 0.599938 0
M  V30 554 O 55.5437 -1.9031 -0.401524 0
M  V30 555 C 55.8267 -1.8227 3.10564 0
M  V30 556 C 55.6797 -0.971633 4.3918 0
M  V30 557 C 56.9987 -2.80388 3.39221 0
M  V30 558 H 54.1177 -0.350572 0.648281 0
M  V30 559 H 56.7597 -0.238259 1.885 0
M  V30 560 H 54.9097 -2.44507 3.01908 0
M  V30 561 H 56.5817 -0.367408 4.59835 0
M  V30 562 H 54.8247 -0.276276 4.32919 0
M  V30 563 H 55.4957 -1.60346 5.28198 0
M  V30 564 H 57.9717 -2.28287 3.47885 0
M  V30 565 H 56.8477 -3.3729 4.33044 0
M  V30 566 H 57.1087 -3.57212 2.60484 0
M  V30 567 N 56.1678 -1.49265 -0.50573 0
M  V30 568 C 57.3958 -1.62215 -1.28429 0
M  V30 569 C 57.8108 -0.291697 -1.86533 0
M  V30 570 O 57.1678 0.722233 -1.67601 0
M  V30 571 C 57.2188 -2.68735 -2.41793 0
M  V30 572 O 56.9398 -3.96619 -1.86078 0
M  V30 573 C 58.4408 -2.92346 -3.3324 0
M  V30 574 H 55.6608 -0.546239 -0.389697 0
M  V30 575 H 58.2048 -1.95265 -0.607609 0
M  V30 576 H 56.3598 -2.38476 -3.053 0
M  V30 577 H 56.7738 -4.55256 -2.60465 0
M  V30 578 H 58.2478 -3.70623 -4.09075 0
M  V30 579 H 58.7248 -2.02081 -3.89948 0
M  V30 580 H 59.3308 -3.24003 -2.75503 0
M  V30 581 N 57.6459 0.756429 -1.3826 0
M  V30 582 C 58.5759 1.88374 -1.37976 0
M  V30 583 C 59.5569 1.68311 -0.246082 0
M  V30 584 O 60.7419 1.88944 -0.44874 0
M  V30 585 C 57.8719 3.25864 -1.20125 0
M  V30 586 C 56.8259 3.60523 -2.30666 0
M  V30 587 C 56.1519 4.9672 -1.97923 0
M  V30 588 C 57.4519 3.65692 -3.72916 0
M  V30 589 H 59.1459 1.88869 -2.32312 0
M  V30 590 H 56.6919 0.907272 -1.11824 0
M  V30 591 H 58.6449 4.0438 -1.18552 0
M  V30 592 H 57.3689 3.25841 -0.222498 0
M  V30 593 H 56.0279 2.84324 -2.3142 0
M  V30 594 H 55.6759 4.93253 -0.985393 0
M  V30 595 H 55.3759 5.20878 -2.71955 0
M  V30 596 H 56.8999 5.77618 -1.97964 0
M  V30 597 H 58.3139 4.34328 -3.74208 0
M  V30 598 H 56.7109 4.01358 -4.4613 0
M  V30 599 H 57.7809 2.65987 -4.05436 0
M  V30 600 N 59.124 1.23083 0.984299 0
M  V30 601 C 60.54 0.992637 1.24975 0
M  V30 602 C 60.74 -0.308618 1.99123 0
M  V30 603 O 59.796 -1.02905 2.30579 0
M  V30 604 C 61.109 2.19698 2.05312 0
M  V30 605 C 62.657 2.24147 2.18465 0
M  V30 606 C 63.132 3.44157 3.02192 0
M  V30 607 N 64.623 3.44372 3.09777 0
M  V30 608 C 65.358 4.33886 3.74874 0
M  V30 609 N 64.854 5.3363 4.41827 0
M  V30 610 N 66.647 4.21639 3.71721 0
M  V30 611 H 58.798 2.06731 0.487453 0
M  V30 612 H 61.061 0.906339 0.277944 0
M  V30 613 H 60.767 3.1411 1.58201 0
M  V30 614 H 60.641 2.20465 3.06064 0
M  V30 615 H 63.028 1.30277 2.64786 0
M  V30 616 H 63.109 2.27415 1.17115 0
M  V30 617 H 62.753 4.38332 2.56568 0
M  V30 618 H 62.683 3.3813 4.03702 0
M  V30 619 H 65.174 2.72201 2.62135 0
M  V30 620 H 65.487 5.98196 4.89266 0
M  V30 621 H 63.832 5.37534 4.40548 0
M  V30 622 H 67.023 3.42962 3.18582 0
M  V30 623 H 67.196 4.91604 4.22173 0
M  V30 624 N 60.6021 -1.18246 1.0419 0
M  V30 625 C 61.8421 -1.89948 0.754916 0
M  V30 626 C 62.2061 -1.78608 -0.70451 0
M  V30 627 O 63.4071 -2.4503 -1.10516 0
M  V30 628 C 61.6781 -3.36305 1.20969 0
M  V30 629 S 63.2371 -4.26088 1.04854 0
M  V30 630 H 60.0551 -0.655897 0.274446 0
M  V30 631 H 62.6571 -1.42873 1.33445 0
M  V30 632 H 61.3611 -3.42089 2.26722 0
M  V30 633 H 60.8921 -3.8842 0.624004 0
M  V30 634 H 62.9071 -4.96189 -0.0332896 0
M  V30 635 N 62.0802 -0.821533 -1.34494 0
M  V30 636 C 63.3262 -0.409552 -1.98622 0
M  V30 637 C 63.6592 1.0244 -1.64984 0
M  V30 638 O 62.9342 1.71325 -0.920758 0
M  V30 639 C 63.2172 -0.610458 -3.54888 0
M  V30 640 C 63.0702 -2.09043 -3.98273 0
M  V30 641 C 64.3892 -0.0455379 -4.40076 0
M  V30 642 H 61.5082 -0.15028 -0.721516 0
M  V30 643 H 64.1502 -1.03384 -1.59411 0
M  V30 644 H 62.3002 -0.079044 -3.8842 0
M  V30 645 H 63.9722 -2.68537 -3.75081 0
M  V30 646 H 62.2152 -2.58139 -3.48635 0
M  V30 647 H 62.8862 -2.18182 -5.07051 0
M  V30 648 H 65.3622 -0.499557 -4.1309 0
M  V30 649 H 64.2382 -0.215922 -5.48475 0
M  V30 650 H 64.4992 1.04939 -4.29465 0
M  V30 651 N 63.5583 1.46682 -0.576371 0
M  V30 652 C 64.8063 2.02013 -0.0594163 0
M  V30 653 C 65.1273 1.45101 1.30271 0
M  V30 654 O 64.3973 0.633317 1.8538 0
M  V30 655 H 62.9773 0.746759 -0.0189745 0
M  V30 656 H 65.6393 1.79862 -0.750717 0
M  V30 657 H 64.7353 3.12097 0.014345 0
M  V30 658 N 65.0364 0.313813 1.54444 0
M  V30 659 C 65.9844 -0.572171 2.25453 0
M  V30 660 C 66.9784 -1.12657 1.2651 0
M  V30 661 O 68.1844 -1.07573 1.44319 0
M  V30 662 H 64.5594 -0.203146 0.724041 0
M  V30 663 H 66.5304 0.0491145 2.9836 0
M  V30 664 C 65.2794 -1.72626 3.0182 0
M  V30 665 H 64.6024 -1.30891 3.77767 0
M  V30 666 H 66.0424 -2.32199 3.54767 0
M  V30 667 C 64.5014 -2.63806 2.09542 0
M  V30 668 O 65.0314 -3.65256 1.67185 0
M  V30 669 N 63.2374 -2.31824 1.75232 0
M  V30 670 H 62.7844 -1.49368 2.09873 0
M  V30 671 H 62.7424 -2.93095 1.13767 0
M  V30 672 N 66.5145 -1.57545 0.0417849 0
M  V30 673 C 67.7625 -1.91937 -0.632829 0
M  V30 674 C 68.0835 -0.919978 -1.71934 0
M  V30 675 O 67.3535 0.0366064 -1.95866 0
M  V30 676 H 65.9335 -0.708493 -0.236742 0
M  V30 677 H 68.5955 -1.9468 0.0925745 0
M  V30 678 H 67.6915 -2.92912 -1.07746 0
M  V30 679 N 67.9926 0.231505 -1.5589 0
M  V30 680 C 69.2176 0.978689 -1.82856 0
M  V30 681 C 69.6426 1.77559 -0.620846 0
M  V30 682 O 69.0006 1.76119 0.430305 0
M  V30 683 C 69.0486 1.87997 -3.07716 0
M  V30 684 O 68.1526 2.97393 -2.85712 0
M  V30 685 H 67.4936 0.277663 -0.603158 0
M  V30 686 H 70.0236 0.24783 -2.03093 0
M  V30 687 H 70.0336 2.2917 -3.37558 0
M  V30 688 H 68.7086 1.29417 -3.95252 0
M  V30 689 H 67.2856 2.60238 -2.67078 0
M  V30 690 N 69.4707 1.49531 0.497807 0
M  V30 691 C 70.7167 1.59415 1.25358 0
M  V30 692 C 71.0497 0.281422 1.9215 0
M  V30 693 O 70.3247 -0.715249 1.80871 0
M  V30 694 C 70.6077 2.75566 2.3181 0
M  V30 695 C 70.4607 4.16642 1.69498 0
M  V30 696 C 71.7797 2.87347 3.33346 0
M  V30 697 H 68.8987 0.580244 0.454408 0
M  V30 698 H 71.5407 1.81827 0.551262 0
M  V30 699 H 69.6907 2.56587 2.91711 0
M  V30 700 H 71.3627 4.47145 1.13399 0
M  V30 701 H 69.6057 4.22141 0.998978 0
M  V30 702 H 70.2767 4.93792 2.46725 0
M  V30 703 H 72.7527 3.04634 2.83438 0
M  V30 704 H 71.6287 3.70289 4.05188 0
M  V30 705 H 71.8897 1.96834 3.95865 0
M  V30 706 N 70.9488 -0.749086 1.3866 0
M  V30 707 C 71.8588 -1.89358 1.38494 0
M  V30 708 C 72.8748 -1.71708 0.281476 0
M  V30 709 O 74.0508 -1.94554 0.520643 0
M  V30 710 C 71.1158 -3.24782 1.21316 0
M  V30 711 C 70.1768 -3.54926 2.41508 0
M  V30 712 C 69.4098 -4.83888 2.2514 0
M  V30 713 O 69.6328 -5.56592 1.24746 0
M  V30 714 O 68.5668 -5.13612 3.13826 0
M  V30 715 H 72.3928 -1.92452 2.34938 0
M  V30 716 H 69.9778 -0.894981 1.19626 0
M  V30 717 H 71.8598 -4.05739 1.13814 0
M  V30 718 H 70.5348 -3.2249 0.279592 0
M  V30 719 H 69.4418 -2.74112 2.54585 0
M  V30 720 H 70.7748 -3.61983 3.3351 0
M  V30 721 N 72.4269 -1.23603 -0.977757 0
M  V30 722 C 73.6729 -1.08136 -1.72274 0
M  V30 723 C 74.0279 0.377453 -1.88661 0
M  V30 724 O 73.3209 1.27552 -1.42972 0
M  V30 725 C 73.5149 -1.7433 -3.11999 0
M  V30 726 C 73.3439 -3.26498 -3.0924 0
M  V30 727 C 72.1139 -3.9567 -3.14282 0
M  V30 728 C 74.3119 -4.2323 -2.92201 0
M  V30 729 N 72.2939 -5.34799 -3.01436 0
M  V30 730 C 73.6649 -5.49289 -2.87544 0
M  V30 731 C 75.7199 -4.13931 -2.76705 0
M  V30 732 C 74.4229 -6.67116 -2.68978 0
M  V30 733 C 76.4489 -5.31424 -2.59504 0
M  V30 734 C 75.8109 -6.5641 -2.55548 0
M  V30 735 H 71.9099 -0.450247 -0.639376 0
M  V30 736 H 74.4939 -1.5637 -1.16002 0
M  V30 737 H 72.6649 -1.28624 -3.66484 0
M  V30 738 H 74.3969 -1.51815 -3.75146 0
M  V30 739 H 71.1519 -3.46767 -3.22567 0
M  V30 740 H 71.5759 -6.07748 -2.98281 0
M  V30 741 H 76.2179 -3.1807 -2.78552 0
M  V30 742 H 73.9359 -7.63109 -2.65876 0
M  V30 743 H 77.5219 -5.26072 -2.48474 0
M  V30 744 H 76.4019 -7.45795 -2.42405 0
M  V30 745 N 73.905 1.17692 -1.04816 0
M  V30 746 C 75.182 1.83768 -0.669963 0
M  V30 747 C 75.562 1.93232 0.849986 0
M  V30 748 O 74.91 1.46397 1.75443 0
M  V30 749 C 75.12 3.21641 -1.35455 0
M  V30 750 C 76.468 3.97592 -1.49017 0
M  V30 751 O 77.492 3.31107 -1.31326 0
M  V30 752 O 76.351 5.16729 -1.77914 0
M  V30 753 H 73.445 0.792799 -0.235368 0
M  V30 754 H 75.991 1.25021 -1.14751 0
M  V30 755 H 74.763 3.097 -2.39168 0
M  V30 756 H 74.386 3.88052 -0.866107 0
M  V30 757 N 75.3831 0.828654 1.34056 0
M  V30 758 C 76.6311 0.41863 1.97717 0
M  V30 759 C 76.9521 -1.02314 1.66002 0
M  V30 760 O 76.2221 -1.71119 0.953683 0
M  V30 761 H 74.8021 0.151809 0.731412 0
M  V30 762 H 77.4641 1.05936 1.63596 0
M  V30 763 H 76.5601 0.542318 3.07352 0
M  V30 764 N 76.8612 -1.46375 0.584142 0
M  V30 765 C 78.2722 -1.86031 0.157959 0
M  V30 766 C 78.6232 -1.48753 -1.27933 0
M  V30 767 O 77.7482 -0.903098 -1.96655 0
M  V30 768 C 78.3432 -3.37642 0.279892 0
M  V30 769 C 76.9022 -3.76289 -0.09143 0
M  V30 770 C 76.0492 -2.7039 0.615178 0
M  V30 771 H 79.0002 -1.37509 0.792274 0
M  V30 772 H 79.0212 -3.77275 -0.494364 0
M  V30 773 H 78.5332 -3.64742 1.32607 0
M  V30 774 H 76.6342 -3.54806 -1.13769 0
M  V30 775 H 76.7472 -4.78246 0.285886 0
M  V30 776 H 75.1112 -2.5464 0.0552833 0
M  V30 777 H 75.8942 -3.0033 1.66303 0
M  V30 778 N 78.3393 -0.321999 -1.54275 0
M  V30 779 C 79.7503 0.166384 -1.85957 0
M  V30 780 C 80.1013 1.51747 -1.24367 0
M  V30 781 O 79.2263 2.09317 -0.549124 0
M  V30 782 C 79.8213 0.308681 -3.37391 0
M  V30 783 C 78.3803 0.741286 -3.69028 0
M  V30 784 C 77.5273 -0.137937 -2.76957 0
M  V30 785 H 80.4783 -0.542335 -1.49146 0
M  V30 786 H 80.4993 1.13984 -3.63026 0
M  V30 787 H 80.0113 -0.674809 -3.82188 0
M  V30 788 H 78.1123 1.73458 -3.29762 0
M  V30 789 H 78.2253 0.546118 -4.75977 0
M  V30 790 H 76.5893 0.386251 -2.51754 0
M  V30 791 H 77.3723 -1.11816 -3.2458 0
M  V30 792 N 79.8174 1.5752 -0.0501392 0
M  V30 793 C 81.0424 1.97376 0.636997 0
M  V30 794 C 81.4674 0.927466 1.63645 0
M  V30 795 O 80.8254 -0.10941 1.8097 0
M  V30 796 C 80.8734 3.36304 1.30123 0
M  V30 797 O 79.9774 3.34156 2.41689 0
M  V30 798 H 79.3184 0.642998 0.165679 0
M  V30 799 H 81.8484 2.04258 -0.118233 0
M  V30 800 H 81.8584 3.73008 1.65315 0
M  V30 801 H 80.5334 4.11993 0.568746 0
M  V30 802 H 79.1104 3.09196 2.08451 0
M  V30 803 N 81.2955 -0.223234 1.56011 0
M  V30 804 C 82.7065 -0.790368 1.69145 0
M  V30 805 C 83.0575 -1.85055 0.651845 0
M  V30 806 O 82.1825 -2.15498 -0.197359 0
M  V30 807 C 82.7775 -1.4404 3.06656 0
M  V30 808 C 81.3365 -1.95494 3.2165 0
M  V30 809 C 80.4835 -0.814506 2.65068 0
M  V30 810 H 83.4345 0.00139011 1.587 0
M  V30 811 H 83.4555 -2.30916 3.0242 0
M  V30 812 H 82.9675 -0.668543 3.82298 0
M  V30 813 H 81.0685 -2.75487 2.50874 0
M  V30 814 H 81.1815 -2.13607 4.28846 0
M  V30 815 H 79.5455 -1.22137 2.23505 0
M  V30 816 H 80.3285 -0.0553515 3.43255 0
M  V30 817 N 82.7736 -1.49793 -0.48987 0
M  V30 818 C 83.7236 -1.63673 -1.5873 0
M  V30 819 C 84.7076 -0.491956 -1.53195 0
M  V30 820 O 85.8996 -0.745461 -1.60536 0
M  V30 821 C 83.0286 -1.71689 -2.97284 0
M  V30 822 C 82.1146 -2.91781 -3.07774 0
M  V30 823 N 82.5056 -4.15714 -2.88124 0
M  V30 824 C 80.8036 -2.89949 -3.38889 0
M  V30 825 C 81.5046 -4.965 -3.03088 0
M  V30 826 N 80.4806 -4.30083 -3.3246 0
M  V30 827 H 84.2826 -2.57204 -1.42208 0
M  V30 828 H 81.7966 -1.46719 -0.69623 0
M  V30 829 H 83.7936 -1.79732 -3.76168 0
M  V30 830 H 82.4536 -0.793024 -3.14867 0
M  V30 831 H 83.4646 -4.45515 -2.64077 0
M  V30 832 H 80.1416 -2.06987 -3.62578 0
M  V30 833 H 81.5316 -6.04991 -2.92294 0
M  V30 834 N 84.2517 0.741722 -1.39055 0
M  V30 835 C 85.4977 1.50234 -1.37118 0
M  V30 836 C 85.8527 1.92368 0.0350439 0
M  V30 837 O 85.1457 1.63422 1.00019 0
M  V30 838 C 85.3397 2.7592 -2.27163 0
M  V30 839 C 85.1687 2.46074 -3.76401 0
M  V30 840 C 83.9387 2.38704 -4.45364 0
M  V30 841 C 86.1367 2.12062 -4.68545 0
M  V30 842 N 84.1187 2.01258 -5.79973 0
M  V30 843 C 85.4897 1.85005 -5.91754 0
M  V30 844 C 87.5447 1.98473 -4.56632 0
M  V30 845 C 86.2477 1.4573 -7.04383 0
M  V30 846 C 88.2737 1.60599 -5.69176 0
M  V30 847 C 87.6357 1.34423 -6.91455 0
M  V30 848 H 83.7347 0.548858 -0.557027 0
M  V30 849 H 86.3187 0.862642 -1.74547 0
M  V30 850 H 84.4897 3.3768 -1.91904 0
M  V30 851 H 86.2217 3.42068 -2.16267 0
M  V30 852 H 82.9767 2.55574 -3.98721 0
M  V30 853 H 83.4007 1.85147 -6.51191 0
M  V30 854 H 88.0427 2.17381 -3.62637 0
M  V30 855 H 85.7607 1.25562 -7.98286 0
M  V30 856 H 89.3467 1.507 -5.61944 0
M  V30 857 H 88.2267 1.05555 -7.77064 0
M  V30 858 N 85.7298 1.2412 0.971189 0
M  V30 859 C 86.9578 1.10575 1.74874 0
M  V30 860 C 87.3728 -0.342017 1.85676 0
M  V30 861 O 86.7298 -1.23617 1.34258 0
M  V30 862 C 86.7808 1.73579 3.171 0
M  V30 863 O 86.5018 3.12695 3.06844 0
M  V30 864 C 88.0028 1.65598 4.11208 0
M  V30 865 H 85.2228 0.386504 0.548503 0
M  V30 866 H 87.7668 1.64156 1.21955 0
M  V30 867 H 85.9218 1.24009 3.67016 0
M  V30 868 H 86.3358 3.43412 3.96445 0
M  V30 869 H 87.8098 2.1437 5.08674 0
M  V30 870 H 88.2868 0.616532 4.34851 0
M  V30 871 H 88.8928 2.14578 3.67201 0
M  V30 872 N 87.2079 -1.17134 1.05439 0
M  V30 873 C 88.1379 -2.2342 0.678649 0
M  V30 874 C 89.1189 -1.66971 -0.32476 0
M  V30 875 O 90.3039 -1.93149 -0.201802 0
M  V30 876 C 87.4339 -3.47256 0.0552099 0
M  V30 877 C 86.3879 -4.16543 0.98365 0
M  V30 878 C 85.7139 -5.34231 0.223961 0
M  V30 879 C 87.0139 -4.68495 2.3089 0
M  V30 880 H 88.7079 -2.55105 1.56722 0
M  V30 881 H 86.2539 -1.2262 0.754998 0
M  V30 882 H 88.2069 -4.20828 -0.21946 0
M  V30 883 H 86.9309 -3.14846 -0.868319 0
M  V30 884 H 85.5899 -3.44887 1.24293 0
M  V30 885 H 85.2379 -4.98071 -0.702412 0
M  V30 886 H 84.9379 -5.81527 0.842627 0
M  V30 887 H 86.4619 -6.10585 -0.0433671 0
M  V30 888 H 87.8759 -5.33691 2.09396 0
M  V30 889 H 86.2729 -5.26379 2.88176 0
M  V30 890 H 87.3429 -3.85169 2.94572 0
M  V30 891 N 88.686 -0.835752 -1.33615 0
M  V30 892 C 89.916 -0.442701 -2.01801 0
M  V30 893 C 90.324 0.959807 -1.63047 0
M  V30 894 O 89.667 1.63468 -0.838088 0
M  V30 895 C 89.729 -0.480125 -3.56279 0
M  V30 896 C 89.393 -1.8382 -4.18401 0
M  V30 897 C 90.39 -2.80097 -4.37998 0
M  V30 898 C 88.075 -2.13019 -4.54894 0
M  V30 899 C 90.069 -4.03736 -4.9323 0
M  V30 900 C 87.756 -3.36916 -5.09834 0
M  V30 901 C 88.754 -4.32091 -5.28948 0
M  V30 902 O 88.442 -5.53797 -5.82721 0
M  V30 903 H 88.174 -0.17441 -0.653114 0
M  V30 904 H 90.728 -1.129 -1.71589 0
M  V30 905 H 88.958 0.262931 -3.85805 0
M  V30 906 H 90.647 -0.105335 -4.05763 0
M  V30 907 H 91.413 -2.58838 -4.10156 0
M  V30 908 H 87.292 -1.39733 -4.39313 0
M  V30 909 H 90.836 -4.78034 -5.08064 0
M  V30 910 H 86.733 -3.58033 -5.37106 0
M  V30 911 H 87.501 -5.55494 -6.0114 0
M  V30 912 N 90.1641 1.46063 -0.591896 0
M  V30 913 C 91.3891 2.07226 -0.0850314 0
M  V30 914 C 91.8141 1.43625 1.21463 0
M  V30 915 O 91.1721 0.523305 1.73583 0
M  V30 916 C 91.2201 3.60554 0.0576567 0
M  V30 917 O 90.3241 3.97128 1.11188 0
M  V30 918 H 89.6651 0.660615 -0.0669568 0
M  V30 919 H 92.1951 1.8756 -0.81745 0
M  V30 920 H 92.2051 4.07165 0.2609 0
M  V30 921 H 90.8801 4.06235 -0.891416 0
M  V30 922 H 89.4571 3.62213 0.886356 0
M  V30 923 N 91.6422 0.330177 1.54103 0
M  V30 924 C 92.9192 -0.325007 1.92881 0
M  V30 925 C 93.2992 -1.6934 1.26045 0
M  V30 926 O 92.6472 -2.24855 0.406526 0
M  V30 927 C 92.8572 -0.410634 3.46576 0
M  V30 928 C 94.2052 -0.667801 4.19316 0
M  V30 929 O 95.2292 -0.49329 3.52768 0
M  V30 930 O 94.0882 -1.00491 5.37181 0
M  V30 931 H 91.1822 -0.186873 0.80561 0
M  V30 932 H 93.7282 0.380376 1.65382 0
M  V30 933 H 92.5002 0.550164 3.87413 0
M  V30 934 H 92.1232 -1.16333 3.802 0
M  V30 935 N 93.1203 -1.57491 0.0584922 0
M  V30 936 C 94.3683 -1.92597 -0.612436 0
M  V30 937 C 94.6893 -0.938162 -1.70949 0
M  V30 938 O 93.9593 0.0158301 -1.95894 0
M  V30 939 H 92.5393 -0.710964 -0.229214 0
M  V30 940 H 95.2013 -1.94571 0.113218 0
M  V30 941 H 94.2973 -2.94038 -1.04633 0
M  V30 942 N 94.5984 0.214957 -1.56127 0
M  V30 943 C 95.8234 0.95924 -1.83884 0
M  V30 944 C 96.2484 1.7689 -0.639644 0
M  V30 945 O 95.6064 1.76566 0.411601 0
M  V30 946 C 95.6544 1.84723 -3.09693 0
M  V30 947 O 94.7584 2.94346 -2.8885 0
M  V30 948 H 94.0994 0.27125 -0.606069 0
M  V30 949 H 96.6294 0.226276 -2.03345 0
M  V30 950 H 96.6394 2.25576 -3.39969 0
M  V30 951 H 95.3144 1.25218 -3.96602 0
M  V30 952 H 93.8914 2.57391 -2.69823 0
M  V30 953 N 96.0765 1.50051 0.48192 0
M  V30 954 C 97.3015 1.64508 1.26301 0
M  V30 955 C 97.7265 0.323851 1.85291 0
M  V30 956 O 97.0845 -0.710969 1.66778 0
M  V30 957 C 97.1325 2.7305 2.35533 0
M  V30 958 O 96.2365 2.3355 3.39895 0
M  V30 959 H 95.5775 0.549978 0.372048 0
M  V30 960 H 98.1075 1.9636 0.574786 0
M  V30 961 H 98.1175 2.95799 2.8101 0
M  V30 962 H 96.7925 3.68946 1.91967 0
M  V30 963 H 95.3695 2.21205 3.00204 0
M  V30 964 N 97.5546 -0.734337 1.39446 0
M  V30 965 C 98.7796 -1.52866 1.40167 0
M  V30 966 C 99.2046 -1.881 -0.00171513 0
M  V30 967 O 98.5626 -1.51957 -0.988879 0
M  V30 968 C 98.6106 -2.79235 2.28167 0
M  V30 969 O 97.7146 -3.75185 1.71201 0
M  V30 970 H 97.0556 -0.461618 0.477289 0
M  V30 971 H 99.5856 -0.905949 1.8345 0
M  V30 972 H 99.5956 -3.27963 2.42702 0
M  V30 973 H 98.2706 -2.52923 3.30156 0
M  V30 974 H 96.8476 -3.33958 1.65912 0
M  V30 975 N 99.0327 -1.24633 -0.964593 0
M  V30 976 C 100.282 -1.08188 -1.7023 0
M  V30 977 C 100.595 0.37873 -1.91898 0
M  V30 978 O 101.801 0.663427 -2.6327 0
M  V30 979 C 100.257 -1.88773 -3.06419 0
M  V30 980 C 99.8647 -3.39263 -2.92582 0
M  V30 981 C 101.609 -1.80867 -3.84041 0
M  V30 982 C 99.5157 -4.1218 -4.24101 0
M  V30 983 H 98.4457 -0.401245 -0.638372 0
M  V30 984 H 101.097 -1.48742 -1.07462 0
M  V30 985 H 99.4787 -1.41035 -3.70034 0
M  V30 986 H 100.653 -3.94603 -2.37961 0
M  V30 987 H 98.9677 -3.48154 -2.28424 0
M  V30 988 H 101.565 -2.32646 -4.81435 0
M  V30 989 H 101.908 -0.774543 -4.09031 0
M  V30 990 H 102.441 -2.26301 -3.27159 0
M  V30 991 H 99.1797 -5.15965 -4.04303 0
M  V30 992 H 98.6997 -3.61626 -4.78526 0
M  V30 993 H 100.379 -4.19349 -4.92702 0
M  V30 994 N 100.511 1.16574 -1.06058 0
M  V30 995 C 101.441 2.23057 -0.690488 0
M  V30 996 C 102.422 1.67141 0.315901 0
M  V30 997 O 103.607 1.93253 0.191556 0
M  V30 998 C 100.737 3.47222 -0.073625 0
M  V30 999 C 99.6908 4.16016 -1.00573 0
M  V30 1000 C 99.0168 5.34104 -0.252289 0
M  V30 1001 C 100.317 4.67264 -2.33371 0
M  V30 1002 H 102.011 2.54271 -1.58072 0
M  V30 1003 H 99.5568 1.22218 -0.76149 0
M  V30 1004 H 101.51 4.20939 0.19714 0
M  V30 1005 H 100.234 3.15302 0.85161 0
M  V30 1006 H 98.8928 3.44223 -1.2612 0
M  V30 1007 H 98.5408 4.98437 0.675988 0
M  V30 1008 H 98.2408 5.81072 -0.873455 0
M  V30 1009 H 99.7648 6.10599 0.0109857 0
M  V30 1010 H 101.179 5.32573 -2.12223 0
M  V30 1011 H 99.5758 5.24843 -2.90963 0
M  V30 1012 H 100.646 3.83602 -2.96611 0
M  V30 1013 N 101.989 0.842826 1.3317 0
M  V30 1014 C 103.214 0.453129 2.02389 0
M  V30 1015 C 103.639 -0.939105 1.6298 0
M  V30 1016 O 102.997 -1.61472 0.8244 0
M  V30 1017 C 103.045 0.586094 3.55805 0
M  V30 1018 O 102.149 -0.386029 4.10589 0
M  V30 1019 H 101.49 0.183664 0.638094 0
M  V30 1020 H 104.02 1.13875 1.69981 0
M  V30 1021 H 104.03 0.469209 4.05293 0
M  V30 1022 H 102.705 1.6014 3.83833 0
M  V30 1023 H 101.282 -0.226371 3.72212 0
M  V30 1024 N 103.467 -1.45747 0.599634 0
M  V30 1025 C 104.695 -2.06668 0.0978551 0
M  V30 1026 C 105.11 -1.44562 -1.21439 0
M  V30 1027 O 104.467 -0.556923 -1.73795 0
M  V30 1028 C 104.518 -3.61456 -0.0567044 0
M  V30 1029 O 104.239 -4.21242 1.20361 0
M  V30 1030 C 105.74 -4.39345 -0.590869 0
M  V30 1031 H 102.96 -0.667825 0.0651943 0
M  V30 1032 H 105.504 -1.87115 0.82511 0
M  V30 1033 H 103.659 -3.80378 -0.734251 0
M  V30 1034 H 104.073 -5.14323 1.02821 0
M  V30 1035 H 105.547 -5.48182 -0.648131 0
M  V30 1036 H 106.024 -4.08568 -1.61147 0
M  V30 1037 H 106.63 -4.25268 0.0523679 0
M  V30 1038 N 104.945 -0.338344 -1.53925 0
M  V30 1039 C 105.893 0.536231 -2.26335 0
M  V30 1040 C 106.887 1.1063 -1.28286 0
M  V30 1041 O 108.093 1.05264 -1.46012 0
M  V30 1042 H 104.468 0.191602 -0.727181 0
M  V30 1043 H 106.439 -0.0965747 -2.98244 0
M  V30 1044 C 105.188 1.67803 -3.04528 0
M  V30 1045 H 104.511 1.24864 -3.79801 0
M  V30 1046 H 105.951 2.26526 -3.58416 0
M  V30 1047 C 104.41 2.60439 -2.13712 0
M  V30 1048 O 104.94 3.6255 -1.72975 0
M  V30 1049 N 103.146 2.29006 -1.78898 0
M  V30 1050 H 102.693 1.46011 -2.12223 0
M  V30 1051 H 102.651 2.91248 -1.18416 0
M  V30 1052 N 106.423 1.57458 -0.0668435 0
M  V30 1053 C 107.371 2.13639 0.919851 0
M  V30 1054 C 108.365 1.07204 1.31163 0
M  V30 1055 O 109.571 1.25591 1.28945 0
M  V30 1056 H 105.946 0.683048 0.314562 0
M  V30 1057 H 107.917 2.95415 0.421047 0
M  V30 1058 C 106.666 2.70892 2.17975 0
M  V30 1059 H 105.989 3.5246 1.88711 0
M  V30 1060 H 107.429 3.13803 2.85138 0
M  V30 1061 C 105.888 1.65414 2.93496 0
M  V30 1062 O 106.418 1.07619 3.87015 0
M  V30 1063 N 104.624 1.36564 2.56512 0
M  V30 1064 H 104.171 1.83751 1.80536 0
M  V30 1065 H 104.129 0.66223 3.07347 0
M  V30 1066 N 107.901 -0.206675 1.56239 0
M  V30 1067 C 108.864 -1.23976 1.92776 0
M  V30 1068 C 109.864 -1.39041 0.807729 0
M  V30 1069 O 111.054 -1.37051 1.0753 0
M  V30 1070 C 108.186 -2.61112 2.19165 0
M  V30 1071 H 109.379 -0.927764 2.85189 0
M  V30 1072 H 106.932 -0.447718 1.4975 0
M  V30 1073 H 107.667 -2.97386 1.29352 0
M  V30 1074 H 107.452 -2.51552 3.00772 0
M  V30 1075 H 108.942 -3.35633 2.48476 0
M  V30 1076 N 109.379 -1.50304 -0.473955 0
M  V30 1077 C 110.607 -1.64902 -1.24959 0
M  V30 1078 C 111.022 -0.331198 -1.85872 0
M  V30 1079 O 110.379 0.68652 -1.69095 0
M  V30 1080 C 110.43 -2.73803 -2.36038 0
M  V30 1081 O 110.151 -4.00477 -1.77624 0
M  V30 1082 C 111.652 -2.99349 -3.26964 0
M  V30 1083 H 108.872 -0.554383 -0.378022 0
M  V30 1084 H 111.416 -1.9651 -0.566054 0
M  V30 1085 H 109.571 -2.44898 -3.00173 0
M  V30 1086 H 109.985 -4.60678 -2.5075 0
M  V30 1087 H 111.459 -3.79217 -4.01121 0
M  V30 1088 H 111.936 -2.10307 -3.85574 0
M  V30 1089 H 112.542 -3.29774 -2.68569 0
M  V30 1090 N 110.857 0.726932 -1.39834 0
M  V30 1091 C 112.104 1.48664 -1.37496 0
M  V30 1092 C 112.432 1.94482 0.0264678 0
M  V30 1093 O 111.687 1.67692 1.00886 0
M  V30 1094 C 111.986 2.73495 -2.30077 0
M  V30 1095 C 111.652 2.46502 -3.77555 0
M  V30 1096 C 110.314 2.3885 -4.17737 0
M  V30 1097 C 112.666 2.23604 -4.70798 0
M  V30 1098 C 109.994 2.06352 -5.49214 0
M  V30 1099 C 112.346 1.92622 -6.02561 0
M  V30 1100 C 111.01 1.83444 -6.41798 0
M  V30 1101 H 110.28 0.544001 -0.503135 0
M  V30 1102 H 112.927 0.833657 -1.72402 0
M  V30 1103 H 111.232 3.43575 -1.88317 0
M  V30 1104 H 112.929 3.31549 -2.25558 0
M  V30 1105 H 109.519 2.5334 -3.45712 0
M  V30 1106 H 113.703 2.28479 -4.40581 0
M  V30 1107 H 108.959 1.97776 -5.78528 0
M  V30 1108 H 113.133 1.73914 -6.74334 0
M  V30 1109 H 110.76 1.58029 -7.43593 0
M  V30 1110 N 112.336 1.25143 0.95797 0
M  V30 1111 C 113.268 1.01023 2.05735 0
M  V30 1112 C 114.281 -0.0236902 1.62783 0
M  V30 1113 O 115.47 0.21448 1.77207 0
M  V30 1114 C 112.57 0.504595 3.35122 0
M  V30 1115 C 111.743 1.6039 4.06932 0
M  V30 1116 C 110.802 1.09922 5.14591 0
M  V30 1117 O 109.828 1.79293 5.40225 0
M  V30 1118 N 111.03 -0.0612545 5.80468 0
M  V30 1119 H 113.795 1.95683 2.26998 0
M  V30 1120 H 111.356 1.16303 1.12629 0
M  V30 1121 H 113.348 0.151516 4.04416 0
M  V30 1122 H 111.918 -0.347989 3.10657 0
M  V30 1123 H 111.138 2.12872 3.31782 0
M  V30 1124 H 112.426 2.34252 4.51667 0
M  V30 1125 H 111.824 -0.640985 5.62057 0
M  V30 1126 H 110.381 -0.355395 6.5083 0
M  V30 1127 N 113.814 -1.1601 1.06675 0
M  V30 1128 C 114.762 -2.22586 0.675157 0
M  V30 1129 C 115.756 -1.66525 -0.310766 0
M  V30 1130 O 116.962 -1.79145 -0.175215 0
M  V30 1131 H 113.337 -0.724855 0.200223 0
M  V30 1132 H 115.308 -2.52899 1.58381 0
M  V30 1133 C 114.057 -3.47604 0.0817162 0
M  V30 1134 H 113.38 -3.91058 0.831484 0
M  V30 1135 H 114.82 -4.23718 -0.154708 0
M  V30 1136 C 113.279 -3.15718 -1.17576 0
M  V30 1137 O 113.809 -3.31878 -2.26318 0
M  V30 1138 N 112.015 -2.69816 -1.07923 0
M  V30 1139 H 111.562 -2.56866 -0.194293 0
M  V30 1140 H 111.52 -2.48855 -1.92141 0
M  V30 1141 N 115.292 -0.849877 -1.32721 0
M  V30 1142 C 116.52 -0.464754 -2.01613 0
M  V30 1143 C 116.935 0.937191 -1.63897 0
M  V30 1144 O 116.292 1.61081 -0.857856 0
M  V30 1145 C 116.343 -0.588638 -3.56675 0
M  V30 1146 O 116.064 -1.93535 -3.93034 0
M  V30 1147 C 117.565 -0.2019 -4.4284 0
M  V30 1148 H 114.785 -0.183215 -0.645502 0
M  V30 1149 H 117.329 -1.1455 -1.69407 0
M  V30 1150 H 115.484 0.0443159 -3.87375 0
M  V30 1151 H 115.898 -1.92871 -4.87751 0
M  V30 1152 H 117.372 -0.339599 -5.50954 0
M  V30 1153 H 117.849 0.857224 -4.30753 0
M  V30 1154 H 118.455 -0.809733 -4.17521 0
M  V30 1155 N 116.77 1.45427 -0.607355 0
M  V30 1156 C 118.018 2.01841 -0.102253 0
M  V30 1157 C 118.339 1.47832 1.27164 0
M  V30 1158 O 117.609 0.672497 1.83995 0
M  V30 1159 H 116.189 0.746188 -0.0348101 0
M  V30 1160 H 118.851 1.78229 -0.7887 0
M  V30 1161 H 117.947 3.12057 -0.0518585 0
M  V30 1162 N 118.248 0.346503 1.53744 0
M  V30 1163 C 119.476 -0.25041 2.05379 0
M  V30 1164 C 119.891 -1.43979 1.22129 0
M  V30 1165 O 119.248 -1.80677 0.257321 0
M  V30 1166 C 119.299 -0.662575 3.55376 0
M  V30 1167 O 119.02 0.479515 4.35468 0
M  V30 1168 C 120.521 -1.31989 4.23195 0
M  V30 1169 H 117.741 -0.0478198 0.669294 0
M  V30 1170 H 120.285 0.499346 1.9831 0
M  V30 1171 H 118.44 -1.36227 3.62658 0
M  V30 1172 H 118.854 0.15037 5.24284 0
M  V30 1173 H 120.328 -1.55902 5.29527 0
M  V30 1174 H 120.805 -2.27436 3.75725 0
M  V30 1175 H 121.411 -0.662154 4.20114 0
M  V30 1176 N 119.726 -1.57421 0.075193 0
M  V30 1177 C 120.956 -1.97659 -0.601203 0
M  V30 1178 C 121.364 -0.952427 -1.63479 0
M  V30 1179 O 120.707 0.0688241 -1.83571 0
M  V30 1180 C 120.769 -3.34218 -1.32434 0
M  V30 1181 C 120.433 -4.5484 -0.443826 0
M  V30 1182 C 121.43 -5.19034 0.299969 0
M  V30 1183 C 119.115 -5.00952 -0.367709 0
M  V30 1184 C 121.109 -6.27695 1.10807 0
M  V30 1185 C 118.796 -6.09484 0.444058 0
M  V30 1186 C 119.794 -6.72719 1.18061 0
M  V30 1187 O 119.482 -7.79161 1.97898 0
M  V30 1188 H 119.214 -0.65494 -0.167422 0
M  V30 1189 H 121.768 -2.04886 0.145157 0
M  V30 1190 H 119.998 -3.23615 -2.11685 0
M  V30 1191 H 121.687 -3.59038 -1.89331 0
M  V30 1192 H 122.453 -4.84351 0.250776 0
M  V30 1193 H 118.332 -4.51509 -0.930638 0
M  V30 1194 H 121.876 -6.76982 1.68347 0
M  V30 1195 H 117.773 -6.43601 0.494803 0
M  V30 1196 H 118.541 -7.96055 1.90367 0
M  V30 1197 N 121.204 0.198386 -1.56346 0
M  V30 1198 C 122.62 0.549085 -1.49857 0
M  V30 1199 C 122.82 1.86016 -0.774611 0
M  V30 1200 O 121.876 2.50416 -0.323776 0
M  V30 1201 C 123.189 0.606868 -2.94512 0
M  V30 1202 C 124.737 0.695925 -3.05165 0
M  V30 1203 C 125.212 0.784848 -4.51225 0
M  V30 1204 N 126.703 0.848463 -4.55363 0
M  V30 1205 C 127.438 0.937378 -5.65686 0
M  V30 1206 N 126.934 0.9888 -6.85707 0
M  V30 1207 N 128.727 0.974312 -5.53592 0
M  V30 1208 H 120.878 -0.661655 -2.01831 0
M  V30 1209 H 123.141 -0.235261 -0.918344 0
M  V30 1210 H 122.847 -0.28732 -3.50524 0
M  V30 1211 H 122.721 1.46268 -3.47686 0
M  V30 1212 H 125.108 1.58055 -2.49204 0
M  V30 1213 H 125.189 -0.186022 -2.55123 0
M  V30 1214 H 124.833 -0.0954072 -5.0781 0
M  V30 1215 H 124.763 1.68255 -4.98997 0
M  V30 1216 H 127.254 0.818103 -3.68938 0
M  V30 1217 H 127.567 1.05707 -7.65536 0
M  V30 1218 H 125.912 0.957534 -6.88372 0
M  V30 1219 H 129.103 0.930954 -4.58749 0
M  V30 1220 H 129.276 1.04015 -6.39597 0
M  V30 1221 N 122.682 1.50554 0.465978 0
M  V30 1222 C 123.922 1.63439 1.22747 0
M  V30 1223 C 124.286 0.329822 1.89146 0
M  V30 1224 O 125.487 0.334161 2.66715 0
M  V30 1225 C 123.758 2.78542 2.2394 0
M  V30 1226 S 125.317 3.11591 3.0896 0
M  V30 1227 H 122.135 0.576113 0.416672 0
M  V30 1228 H 124.737 1.88357 0.523641 0
M  V30 1229 H 123.441 3.71805 1.7375 0
M  V30 1230 H 122.972 2.55726 2.98944 0
M  V30 1231 H 124.987 2.55811 4.25176 0
M  V30 1232 N 124.16 -0.719506 1.40217 0
M  V30 1233 C 125.388 -1.50864 1.41589 0
M  V30 1234 C 125.803 -1.88794 0.0145275 0
M  V30 1235 O 125.16 -1.55174 -0.960594 0
M  V30 1236 C 125.211 -2.78646 2.30302 0
M  V30 1237 O 124.932 -2.42321 3.64983 0
M  V30 1238 C 126.433 -3.72569 2.40224 0
M  V30 1239 H 123.653 -0.465709 0.48307 0
M  V30 1240 H 126.197 -0.88785 1.84221 0
M  V30 1241 H 124.352 -3.37019 1.91042 0
M  V30 1242 H 124.766 -3.24514 4.12057 0
M  V30 1243 H 126.24 -4.5908 3.06512 0
M  V30 1244 H 126.717 -4.15403 1.42608 0
M  V30 1245 H 127.323 -3.20109 2.80019 0
M  V30 1246 N 125.638 -1.25649 -0.95132 0
M  V30 1247 C 126.548 -1.08073 -2.08224 0
M  V30 1248 C 127.564 -0.0169666 -1.73992 0
M  V30 1249 O 128.74 -0.218593 -2.0021 0
M  V30 1250 C 125.805 -0.704922 -3.39458 0
M  V30 1251 C 124.866 -1.84699 -3.87537 0
M  V30 1252 C 124.099 -1.48902 -5.12508 0
M  V30 1253 O 124.322 -0.386156 -5.69091 0
M  V30 1254 O 123.256 -2.32033 -5.55378 0
M  V30 1255 H 127.082 -2.02924 -2.25954 0
M  V30 1256 H 124.667 -1.04618 -1.06656 0
M  V30 1257 H 126.549 -0.507609 -4.18332 0
M  V30 1258 H 125.224 0.214291 -3.2299 0
M  V30 1259 H 124.131 -2.09919 -3.09653 0
M  V30 1260 H 125.464 -2.74557 -4.08509 0
M  V30 1261 N 127.117 1.15442 -1.07289 0
M  V30 1262 C 128.528 1.67803 -0.818475 0
M  V30 1263 C 128.879 1.8489 0.656507 0
M  V30 1264 O 128.004 1.55176 1.50829 0
M  V30 1265 C 128.599 3.04805 -1.47917 0
M  V30 1266 C 127.158 3.54245 -1.27229 0
M  V30 1267 C 126.305 2.29986 -1.54925 0
M  V30 1268 H 129.256 0.996646 -1.23502 0
M  V30 1269 H 129.277 3.69702 -0.90005 0
M  V30 1270 H 128.789 2.92336 -2.55267 0
M  V30 1271 H 126.89 3.71956 -0.21899 0
M  V30 1272 H 127.003 4.35723 -1.99203 0
M  V30 1273 H 125.367 2.35496 -0.970242 0
M  V30 1274 H 126.15 2.20105 -2.63455 0
M  V30 1275 N 128.595 0.856903 1.32268 0
M  V30 1276 C 129.843 0.460474 1.96784 0
M  V30 1277 C 130.164 -0.987701 1.68135 0
M  V30 1278 O 129.434 -1.69058 0.989765 0
M  V30 1279 H 128.014 0.167289 0.728027 0
M  V30 1280 H 130.676 1.09383 1.61312 0
M  V30 1281 H 129.772 0.60739 3.06133 0
M  V30 1282 N 130.073 -1.45103 0.615059 0
M  V30 1283 C 131.35 -1.95549 0.0448276 0
M  V30 1284 C 131.73 -1.55737 -1.4251 0
M  V30 1285 O 131.078 -0.823556 -2.13143 0
M  V30 1286 C 131.288 -3.48098 0.250785 0
M  V30 1287 C 132.636 -4.24384 0.135509 0
M  V30 1288 O 133.66 -3.55738 0.181299 0
M  V30 1289 O 132.519 -5.46493 0.0268878 0
M  V30 1290 H 129.613 -0.8264 -0.0314845 0
M  V30 1291 H 132.159 -1.55232 0.685642 0
M  V30 1292 H 130.931 -3.7007 1.27139 0
M  V30 1293 H 130.554 -3.95323 -0.424937 0
M  V30 1294 N 131.551 -0.354651 -1.53558 0
M  V30 1295 C 132.962 0.126902 -1.86268 0
M  V30 1296 C 133.313 1.49075 -1.27558 0
M  V30 1297 O 132.438 2.08105 -0.5934 0
M  V30 1298 C 133.033 0.237046 -3.3797 0
M  V30 1299 C 131.592 0.662842 -3.70518 0
M  V30 1300 C 130.739 -0.196652 -2.76602 0
M  V30 1301 H 133.69 -0.573849 -1.47962 0
M  V30 1302 H 133.711 1.06259 -3.65362 0
M  V30 1303 H 133.223 -0.755725 -3.80671 0
M  V30 1304 H 131.324 1.66424 -3.33367 0
M  V30 1305 H 131.437 0.445034 -4.77029 0
M  V30 1306 H 129.801 0.332763 -2.52517 0
M  V30 1307 H 130.584 -1.18676 -3.22135 0
M  V30 1308 N 133.029 1.57378 -0.0835403 0
M  V30 1309 C 133.959 2.1641 0.87686 0
M  V30 1310 C 134.94 1.09429 1.30228 0
M  V30 1311 O 136.125 1.37516 1.37124 0
M  V30 1312 C 133.255 2.73517 2.14022 0
M  V30 1313 C 132.209 3.85769 1.85381 0
M  V30 1314 C 131.535 4.29529 3.18448 0
M  V30 1315 C 132.835 5.09486 1.14984 0
M  V30 1316 H 134.529 2.96914 0.385059 0
M  V30 1317 H 132.075 1.42823 0.18377 0
M  V30 1318 H 134.028 3.13463 2.81636 0
M  V30 1319 H 132.752 1.90252 2.65465 0
M  V30 1320 H 131.411 3.46345 1.20169 0
M  V30 1321 H 131.059 3.43169 3.67755 0
M  V30 1322 H 130.759 5.05204 3.00071 0
M  V30 1323 H 132.283 4.72099 3.8724 0
M  V30 1324 H 133.697 5.46674 1.72687 0
M  V30 1325 H 132.094 5.90515 1.06826 0
M  V30 1326 H 133.164 4.84724 0.130749 0
M  V30 1327 N 134.507 -0.190092 1.56449 0
M  V30 1328 C 135.755 -0.907908 1.80559 0
M  V30 1329 C 136.076 -1.83583 0.657438 0
M  V30 1330 O 135.346 -1.93203 -0.323924 0
M  V30 1331 H 133.926 -0.338247 0.666032 0
M  V30 1332 H 136.588 -0.194403 1.93928 0
M  V30 1333 H 135.684 -1.49604 2.73907 0
M  V30 1334 N 135.985 -1.50799 -0.457987 0
M  V30 1335 C 137.233 -1.62121 -1.2067 0
M  V30 1336 C 137.554 -0.329793 -1.92191 0
M  V30 1337 O 136.824 0.653409 -1.84682 0
M  V30 1338 H 135.404 -0.597441 -0.448411 0
M  V30 1339 H 138.066 -1.87637 -0.527096 0
M  V30 1340 H 137.162 -2.43882 -1.94751 0
M  V30 1341 N 137.463 0.71206 -1.40597 0
M  V30 1342 C 138.688 1.50617 -1.42581 0
M  V30 1343 C 139.113 1.88079 -0.0282102 0
M  V30 1344 O 138.471 1.53511 0.964579 0
M  V30 1345 C 138.519 2.7557 -2.3258 0
M  V30 1346 O 137.623 3.72414 -1.77148 0
M  V30 1347 H 136.964 0.453966 -0.484573 0
M  V30 1348 H 139.494 0.876649 -1.84868 0
M  V30 1349 H 139.504 3.2406 -2.47889 0
M  V30 1350 H 138.179 2.47639 -3.34138 0
M  V30 1351 H 136.756 3.31276 -1.71204 0
M  V30 1352 N 138.941 1.26152 0.944643 0
M  V30 1353 C 139.904 1.07474 2.0244 0
M  V30 1354 C 140.904 0.0242064 1.60782 0
M  V30 1355 O 142.094 0.267302 1.72137 0
M  V30 1356 C 139.226 0.633956 3.34953 0
M  V30 1357 H 140.419 2.03336 2.20442 0
M  V30 1358 H 137.972 1.087 1.12312 0
M  V30 1359 H 138.707 -0.326811 3.22649 0
M  V30 1360 H 138.492 1.39247 3.66542 0
M  V30 1361 H 139.982 0.52501 4.14287 0
M  V30 1362 N 140.419 -1.14872 1.07899 0
M  V30 1363 C 141.382 -2.17986 0.708161 0
M  V30 1364 C 142.382 -1.58775 -0.25442 0
M  V30 1365 O 143.572 -1.74166 -0.034645 0
M  V30 1366 C 140.704 -3.40871 0.0446929 0
M  V30 1367 H 141.897 -2.52306 1.62116 0
M  V30 1368 H 139.45 -1.2943 0.876218 0
M  V30 1369 H 140.185 -3.12124 -0.880281 0
M  V30 1370 H 139.97 -3.8511 0.737091 0
M  V30 1371 H 141.46 -4.17121 -0.19991 0
M  V30 1372 N 141.898 -0.863906 -1.31812 0
M  V30 1373 C 143.147 -0.46801 -1.96195 0
M  V30 1374 C 143.46 0.983474 -1.69077 0
M  V30 1375 O 144.666 1.48523 -2.27273 0
M  V30 1376 C 143.122 -0.785995 -3.51212 0
M  V30 1377 C 142.73 -2.25383 -3.87178 0
M  V30 1378 C 144.474 -0.458274 -4.22019 0
M  V30 1379 C 142.381 -2.51455 -5.3528 0
M  V30 1380 H 141.311 -0.171283 -0.734287 0
M  V30 1381 H 143.962 -1.05597 -1.50072 0
M  V30 1382 H 142.344 -0.127359 -3.95795 0
M  V30 1383 H 143.518 -2.95502 -3.53575 0
M  V30 1384 H 141.833 -2.54698 -3.2942 0
M  V30 1385 H 144.43 -0.630369 -5.30971 0
M  V30 1386 H 144.773 0.600834 -4.11941 0
M  V30 1387 H 145.306 -1.07319 -3.8305 0
M  V30 1388 H 142.045 -3.56025 -5.50387 0
M  V30 1389 H 141.565 -1.85923 -5.70257 0
M  V30 1390 H 143.244 -2.35874 -6.02472 0
M  V30 1391 N 143.376 1.44774 -0.622745 0
M  V30 1392 C 144.326 2.2774 0.108889 0
M  V30 1393 C 145.31 1.38189 0.824175 0
M  V30 1394 O 146.502 1.62063 0.711664 0
M  V30 1395 C 143.631 3.25353 1.09546 0
M  V30 1396 C 142.717 4.22392 0.380232 0
M  V30 1397 N 143.108 5.02388 -0.586535 0
M  V30 1398 C 141.406 4.41588 0.625792 0
M  V30 1399 C 142.107 5.72894 -1.00834 0
M  V30 1400 N 141.083 5.42479 -0.348878 0
M  V30 1401 H 144.885 2.86993 -0.63341 0
M  V30 1402 H 142.399 1.5611 -0.447589 0
M  V30 1403 H 144.396 3.83538 1.63414 0
M  V30 1404 H 143.056 2.6766 1.83815 0
M  V30 1405 H 144.067 5.0885 -0.963975 0
M  V30 1406 H 140.744 3.95003 1.352 0
M  V30 1407 H 142.134 6.47158 -1.80656 0
M  V30 1408 N 144.854 0.36279 1.53368 0
M  V30 1409 C 145.784 -0.476976 2.28576 0
M  V30 1410 C 146.765 -1.08631 1.30894 0
M  V30 1411 O 147.95 -1.10409 1.59761 0
M  V30 1412 C 145.08 -1.61828 3.07293 0
M  V30 1413 C 144.034 -1.13633 4.1264 0
M  V30 1414 C 143.36 -2.36766 4.79423 0
M  V30 1415 C 144.66 -0.223061 5.21823 0
M  V30 1416 H 146.354 0.150474 2.99022 0
M  V30 1417 H 143.9 0.0738103 1.43811 0
M  V30 1418 H 145.853 -2.21237 3.58653 0
M  V30 1419 H 144.577 -2.27292 2.34533 0
M  V30 1420 H 143.236 -0.564945 3.62221 0
M  V30 1421 H 142.884 -3.0068 4.03238 0
M  V30 1422 H 142.584 -2.05192 5.50609 0
M  V30 1423 H 144.108 -2.96865 5.33576 0
M  V30 1424 H 145.522 -0.724545 5.68703 0
M  V30 1425 H 143.919 0.001678 6.001 0
M  V30 1426 H 144.989 0.735553 4.79289 0
M  V30 1427 N 146.332 -1.57332 0.0918853 0
M  V30 1428 C 147.562 -1.98286 -0.580205 0
M  V30 1429 C 147.97 -0.969713 -1.6246 0
M  V30 1430 O 147.313 0.0493501 -1.83634 0
M  V30 1431 C 147.375 -3.35603 -1.28882 0
M  V30 1432 C 147.039 -4.55285 -0.395559 0
M  V30 1433 C 148.036 -5.18687 0.355002 0
M  V30 1434 C 145.721 -5.01314 -0.314556 0
M  V30 1435 C 147.715 -6.26484 1.17458 0
M  V30 1436 C 145.402 -6.08979 0.508677 0
M  V30 1437 C 146.4 -6.71429 1.2519 0
M  V30 1438 O 146.088 -7.77018 2.06151 0
M  V30 1439 H 145.82 -0.656678 -0.160466 0
M  V30 1440 H 148.374 -2.04721 0.16688 0
M  V30 1441 H 146.604 -3.25842 -2.08241 0
M  V30 1442 H 148.293 -3.61026 -1.85512 0
M  V30 1443 H 149.059 -4.84058 0.302134 0
M  V30 1444 H 144.938 -4.5247 -0.882697 0
M  V30 1445 H 148.482 -6.75159 1.75518 0
M  V30 1446 H 144.379 -6.4304 0.563037 0
M  V30 1447 H 145.147 -7.93991 1.98799 0
M  V30 1448 N 147.81 0.181792 -1.56548 0
M  V30 1449 C 149.056 0.901431 -1.81665 0
M  V30 1450 C 149.389 1.82347 -0.668075 0
M  V30 1451 O 148.664 1.91669 0.330615 0
M  V30 1452 C 148.947 1.70618 -3.17115 0
M  V30 1453 C 148.8 0.807964 -4.42484 0
M  V30 1454 C 150.119 2.67605 -3.49393 0
M  V30 1455 H 147.238 0.32627 -0.660846 0
M  V30 1456 H 149.88 0.168134 -1.89255 0
M  V30 1457 H 148.03 2.33133 -3.10775 0
M  V30 1458 H 149.702 0.19649 -4.60881 0
M  V30 1459 H 147.945 0.115411 -4.33646 0
M  V30 1460 H 148.616 1.40632 -5.33785 0
M  V30 1461 H 151.092 2.15218 -3.56118 0
M  V30 1462 H 149.968 3.20985 -4.45264 0
M  V30 1463 H 150.229 3.47298 -2.73563 0
M  V30 1464 N 149.288 1.51039 0.449983 0
M  V30 1465 C 150.235 1.71439 1.54523 0
M  V30 1466 C 151.205 0.555871 1.56522 0
M  V30 1467 O 152.39 0.788871 1.73728 0
M  V30 1468 C 149.53 1.83384 2.92343 0
M  V30 1469 C 148.643 3.10873 2.9997 0
M  V30 1470 C 147.778 3.13488 4.28834 0
M  V30 1471 C 146.817 4.35343 4.30282 0
M  V30 1472 N 145.954 4.35579 5.5065 0
M  V30 1473 H 150.794 2.64934 1.36433 0
M  V30 1474 H 148.331 1.31312 0.662982 0
M  V30 1475 H 150.289 1.88291 3.72293 0
M  V30 1476 H 148.919 0.933086 3.0902 0
M  V30 1477 H 147.971 3.15336 2.12761 0
M  V30 1478 H 149.283 4.00814 2.96901 0
M  V30 1479 H 148.437 3.17241 5.17149 0
M  V30 1480 H 147.176 2.21414 4.34543 0
M  V30 1481 H 146.181 4.3178 3.40362 0
M  V30 1482 H 147.406 5.28668 4.26248 0
M  V30 1483 H 145.352 3.46369 5.57104 0
M  V30 1484 H 145.269 5.19313 5.49409 0
M  V30 1485 H 146.537 4.43507 6.41032 0
M  V30 1486 N 150.766 -0.704594 1.40972 0
M  V30 1487 C 152.043 -1.45847 1.30338 0
M  V30 1488 C 152.423 -2.10973 -0.0732344 0
M  V30 1489 O 151.771 -2.00997 -1.08685 0
M  V30 1490 C 151.981 -2.48525 2.45023 0
M  V30 1491 C 153.329 -3.1404 2.8577 0
M  V30 1492 O 154.353 -2.58848 2.44696 0
M  V30 1493 O 153.212 -4.13981 3.56766 0
M  V30 1494 H 150.306 -0.649092 0.512454 0
M  V30 1495 H 152.852 -0.735836 1.52917 0
M  V30 1496 H 151.624 -1.98994 3.36923 0
M  V30 1497 H 151.247 -3.2831 2.24272 0
M  V30 1498 N 152.244 -1.26651 -0.937939 0
M  V30 1499 C 153.655 -1.1125 -1.49934 0
M  V30 1500 C 154.006 0.306077 -1.93798 0
M  V30 1501 O 153.131 1.19792 -1.80219 0
M  V30 1502 C 153.726 -2.01339 -2.72485 0
M  V30 1503 C 152.285 -1.90074 -3.24883 0
M  V30 1504 C 151.432 -1.94498 -1.97651 0
M  V30 1505 H 154.383 -1.39693 -0.753091 0
M  V30 1506 H 154.404 -1.56319 -3.46907 0
M  V30 1507 H 153.916 -3.04577 -2.40529 0
M  V30 1508 H 152.017 -0.897827 -3.61621 0
M  V30 1509 H 152.13 -2.75778 -3.9177 0
M  V30 1510 H 150.494 -1.38591 -2.13693 0
M  V30 1511 H 151.277 -2.99372 -1.68022 0
M  V30 1512 N 153.722 1.14298 -1.08507 0
M  V30 1513 C 154.685 2.17607 -0.719711 0
M  V30 1514 C 155.685 1.58907 0.245997 0
M  V30 1515 O 156.875 1.74181 0.0254081 0
M  V30 1516 C 154.007 3.40842 -0.0627695 0
M  V30 1517 H 155.2 2.51443 -1.63452 0
M  V30 1518 H 152.753 1.28963 -0.88307 0
M  V30 1519 H 153.488 3.12587 0.863716 0
M  V30 1520 H 153.273 3.84713 -0.757504 0
M  V30 1521 H 154.763 4.17221 0.177786 0
M  V30 1522 N 155.201 0.870884 1.31352 0
M  V30 1523 C 156.617 0.562932 1.49343 0
M  V30 1524 C 156.817 -0.902725 1.80148 0
M  V30 1525 O 155.873 -1.68484 1.88067 0
M  V30 1526 C 157.186 1.46393 2.62659 0
M  V30 1527 C 158.734 1.46607 2.76542 0
M  V30 1528 C 159.209 2.35266 3.92955 0
M  V30 1529 N 160.7 2.33151 4.00243 0
M  V30 1530 C 161.435 2.98471 4.89594 0
M  V30 1531 N 160.931 3.72964 5.8384 0
M  V30 1532 N 162.724 2.87775 4.82848 0
M  V30 1533 H 154.875 1.81923 1.09626 0
M  V30 1534 H 157.138 0.777934 0.541777 0
M  V30 1535 H 156.844 2.50689 2.46674 0
M  V30 1536 H 156.718 1.16314 3.58819 0
M  V30 1537 H 159.105 0.43069 2.9194 0
M  V30 1538 H 159.186 1.8071 1.81046 0
M  V30 1539 H 158.83 3.38881 3.78315 0
M  V30 1540 H 158.76 1.98487 4.87761 0
M  V30 1541 H 161.251 1.79006 3.32814 0
M  V30 1542 H 161.564 4.19932 6.4875 0
M  V30 1543 H 159.909 3.77073 5.83816 0
M  V30 1544 H 163.1 2.29116 4.08195 0
M  V30 1545 H 163.273 3.38961 5.52277 0
M  V30 1546 N 156.679 -1.44442 0.630414 0
M  V30 1547 C 158.09 -1.85434 0.217063 0
M  V30 1548 C 158.441 -1.52748 -1.23136 0
M  V30 1549 O 157.566 -0.965205 -1.93682 0
M  V30 1550 C 158.161 -3.36581 0.387168 0
M  V30 1551 C 156.72 -3.76389 0.0283297 0
M  V30 1552 C 155.867 -2.68296 0.700889 0
M  V30 1553 H 158.818 -1.34919 0.83562 0
M  V30 1554 H 158.839 -3.78657 -0.374086 0
M  V30 1555 H 158.351 -3.60339 1.44144 0
M  V30 1556 H 156.452 -3.58246 -1.02423 0
M  V30 1557 H 156.565 -4.77095 0.437892 0
M  V30 1558 H 154.929 -2.54335 0.136267 0
M  V30 1559 H 155.712 -2.94887 1.75774 0
M  V30 1560 N 158.157 -0.370918 -1.53173 0
M  V30 1561 C 159.403 0.209976 -2.02313 0
M  V30 1562 C 159.758 1.45987 -1.25322 0
M  V30 1563 O 159.051 1.8856 -0.339965 0
M  V30 1564 C 159.245 0.549696 -3.53147 0
M  V30 1565 C 159.074 -0.665721 -4.44745 0
M  V30 1566 C 157.844 -1.17942 -4.91343 0
M  V30 1567 C 160.042 -1.53255 -4.90935 0
M  V30 1568 N 158.024 -2.35431 -5.66962 0
M  V30 1569 C 159.395 -2.55403 -5.64951 0
M  V30 1570 C 161.45 -1.5548 -4.73002 0
M  V30 1571 C 160.153 -3.5964 -6.22938 0
M  V30 1572 C 162.179 -2.58613 -5.31858 0
M  V30 1573 C 161.541 -3.59485 -6.05764 0
M  V30 1574 H 157.64 0.0394095 -0.781006 0
M  V30 1575 H 160.224 -0.516666 -1.8772 0
M  V30 1576 H 158.395 1.24541 -3.67891 0
M  V30 1577 H 160.127 1.11614 -3.89004 0
M  V30 1578 H 156.882 -0.743228 -4.67732 0
M  V30 1579 H 157.306 -2.94827 -6.09431 0
M  V30 1580 H 161.948 -0.788457 -4.15383 0
M  V30 1581 H 159.666 -4.37153 -6.79649 0
M  V30 1582 H 163.252 -2.61195 -5.19873 0
M  V30 1583 H 162.132 -4.3798 -6.50495 0
M  V30 1584 N 159.635 1.57281 -0.100228 0
M  V30 1585 C 160.583 2.15542 0.874328 0
M  V30 1586 C 161.577 1.09962 1.28859 0
M  V30 1587 O 162.783 1.28298 1.26252 0
M  V30 1588 H 159.158 0.689567 0.300003 0
M  V30 1589 H 161.129 2.96241 0.35829 0
M  V30 1590 C 159.878 2.75454 2.1218 0
M  V30 1591 H 159.201 3.56384 1.81193 0
M  V30 1592 H 160.641 3.19781 2.78417 0
M  V30 1593 C 159.1 1.71602 2.89921 0
M  V30 1594 O 159.63 1.15804 3.84646 0
M  V30 1595 N 157.836 1.41975 2.53558 0
M  V30 1596 H 157.383 1.87539 1.76598 0
M  V30 1597 H 157.341 0.727274 3.05873 0
M  V30 1598 N 161.113 -0.173488 1.56642 0
M  V30 1599 C 162.359 -0.891784 1.8214 0
M  V30 1600 C 162.692 -1.8199 0.677736 0
M  V30 1601 O 161.967 -1.91842 -0.320446 0
M  V30 1602 C 162.25 -1.68933 3.18015 0
M  V30 1603 C 162.103 -0.784487 4.42906 0
M  V30 1604 C 163.422 -2.65748 3.50808 0
M  V30 1605 H 160.541 -0.322761 0.662567 0
M  V30 1606 H 163.183 -0.158095 1.89341 0
M  V30 1607 H 161.333 -2.31482 3.12007 0
M  V30 1608 H 163.005 -0.172046 4.60979 0
M  V30 1609 H 161.248 -0.0924117 4.33702 0
M  V30 1610 H 161.919 -1.37799 5.34524 0
M  V30 1611 H 164.395 -2.13327 3.57255 0
M  V30 1612 H 163.271 -3.18619 4.4696 0
M  V30 1613 H 163.532 -3.45842 2.75401 0
M  V30 1614 N 162.591 -1.51276 -0.441967 0
M  V30 1615 C 163.521 -1.752 -1.54361 0
M  V30 1616 C 164.502 -0.601682 -1.59103 0
M  V30 1617 O 165.687 -0.843913 -1.74905 0
M  V30 1618 C 162.817 -1.87282 -2.92477 0
M  V30 1619 C 161.771 -3.02687 -3.02596 0
M  V30 1620 C 161.097 -2.99947 -4.42647 0
M  V30 1621 C 162.397 -4.4273 -2.77106 0
M  V30 1622 H 164.091 -2.67442 -1.34592 0
M  V30 1623 H 161.637 -1.28694 -0.646048 0
M  V30 1624 H 163.59 -2.02602 -3.695 0
M  V30 1625 H 162.314 -0.916844 -3.13467 0
M  V30 1626 H 160.973 -2.87065 -2.28012 0
M  V30 1627 H 160.621 -2.02136 -4.60597 0
M  V30 1628 H 160.321 -3.77439 -4.50348 0
M  V30 1629 H 161.845 -3.17354 -5.2165 0
M  V30 1630 H 163.259 -4.58727 -3.43864 0
M  V30 1631 H 161.656 -5.21893 -2.96222 0
M  V30 1632 H 162.726 -4.53087 -1.72744 0
M  V30 1633 N 164.069 0.697108 -1.41344 0
M  V30 1634 C 165.032 1.79281 -1.42797 0
M  V30 1635 C 166.032 1.57607 -0.318837 0
M  V30 1636 O 167.222 1.64309 -0.578642 0
M  V30 1637 C 164.354 3.17632 -1.23785 0
M  V30 1638 H 165.547 1.79385 -2.40335 0
M  V30 1639 H 163.1 0.904582 -1.27464 0
M  V30 1640 H 163.835 3.23167 -0.270814 0
M  V30 1641 H 163.62 3.34765 -2.04144 0
M  V30 1642 H 165.11 3.97617 -1.27633 0
M  V30 1643 N 165.547 1.27147 0.931209 0
M  V30 1644 C 166.479 1.05364 2.03546 0
M  V30 1645 C 167.492 0.0108438 1.62796 0
M  V30 1646 O 168.681 0.25202 1.76712 0
M  V30 1647 C 165.781 0.575566 3.33977 0
M  V30 1648 C 164.954 1.68985 4.03439 0
M  V30 1649 C 164.013 1.20813 5.12143 0
M  V30 1650 O 163.039 1.90712 5.363 0
M  V30 1651 N 164.241 0.0618851 5.80467 0
M  V30 1652 H 167.006 2.00454 2.22796 0
M  V30 1653 H 164.567 1.18666 1.10136 0
M  V30 1654 H 166.559 0.237264 4.04004 0
M  V30 1655 H 165.129 -0.282016 3.11325 0
M  V30 1656 H 164.349 2.19861 3.27192 0
M  V30 1657 H 165.637 2.4378 4.46597 0
M  V30 1658 H 165.035 -0.521621 5.6329 0
M  V30 1659 H 163.592 -0.217264 6.51438 0
M  V30 1660 N 167.025 -1.13721 1.09112 0
M  V30 1661 C 167.935 -2.22638 0.73957 0
M  V30 1662 C 168.951 -1.72091 -0.257068 0
M  V30 1663 O 170.127 -2.01155 -0.0992154 0
M  V30 1664 C 167.192 -3.46322 0.16191 0
M  V30 1665 C 166.253 -4.11775 1.21408 0
M  V30 1666 C 165.486 -5.29555 0.663891 0
M  V30 1667 O 165.709 -5.68077 -0.514274 0
M  V30 1668 O 164.643 -5.84973 1.41738 0
M  V30 1669 H 168.469 -2.55074 1.64836 0
M  V30 1670 H 166.054 -1.21791 0.865289 0
M  V30 1671 H 167.936 -4.21107 -0.157073 0
M  V30 1672 H 166.611 -3.15593 -0.719932 0
M  V30 1673 H 165.518 -3.3883 1.58571 0
M  V30 1674 H 166.851 -4.46627 2.06845 0
M  V30 1675 N 168.503 -0.877838 -1.30888 0
M  V30 1676 C 169.749 -0.493426 -1.96706 0
M  V30 1677 C 170.082 0.953504 -1.6918 0
M  V30 1678 O 169.357 1.67266 -0.992594 0
M  V30 1679 C 169.64 -0.760429 -3.51979 0
M  V30 1680 C 169.493 -2.25747 -3.89048 0
M  V30 1681 C 170.812 -0.232148 -4.39487 0
M  V30 1682 H 167.931 -0.180746 -0.714493 0
M  V30 1683 H 170.573 -1.10052 -1.54882 0
M  V30 1684 H 168.723 -0.243715 -3.87735 0
M  V30 1685 H 170.395 -2.84204 -3.63354 0
M  V30 1686 H 168.638 -2.72694 -3.37373 0
M  V30 1687 H 169.309 -2.39491 -4.97341 0
M  V30 1688 H 171.785 -0.674314 -4.106 0
M  V30 1689 H 170.661 -0.448355 -5.47066 0
M  V30 1690 H 170.922 0.866297 -4.33529 0
M  V30 1691 N 169.982 1.44106 -0.638065 0
M  V30 1692 C 171.228 2.02277 -0.145546 0
M  V30 1693 C 171.561 1.50125 1.23191 0
M  V30 1694 O 170.836 0.688133 1.8192 0
M  V30 1695 C 171.119 3.59829 -0.139791 0
M  V30 1696 C 170.972 4.22247 -1.55008 0
M  V30 1697 C 172.291 4.36873 0.531966 0
M  V30 1698 H 169.41 0.734992 -0.0543632 0
M  V30 1699 H 172.052 1.71592 -0.815863 0
M  V30 1700 H 170.202 3.86102 0.431007 0
M  V30 1701 H 171.874 4.07057 -2.1703 0
M  V30 1702 H 170.117 3.79476 -2.10191 0
M  V30 1703 H 170.788 5.31284 -1.49804 0
M  V30 1704 H 173.264 4.16074 0.0464781 0
M  V30 1705 H 172.14 5.4657 0.505206 0
M  V30 1706 H 172.401 4.11995 1.60352 0
M  V30 1707 N 171.46 0.379036 1.52974 0
M  V30 1708 C 172.706 -0.206727 2.01744 0
M  V30 1709 C 173.039 -1.47314 1.26539 0
M  V30 1710 O 172.314 -1.91084 0.362903 0
M  V30 1711 C 172.597 -0.485066 3.56818 0
M  V30 1712 C 172.45 0.795919 4.42702 0
M  V30 1713 C 173.769 -1.28003 4.21074 0
M  V30 1714 H 170.888 -0.0736607 0.73331 0
M  V30 1715 H 173.53 0.506581 1.83122 0
M  V30 1716 H 171.68 -1.09272 3.72816 0
M  V30 1717 H 173.352 1.43307 4.38476 0
M  V30 1718 H 171.595 1.41344 4.10127 0
M  V30 1719 H 172.266 0.555947 5.49193 0
M  V30 1720 H 174.742 -0.765867 4.08991 0
M  V30 1721 H 173.618 -1.44352 5.29579 0
M  V30 1722 H 173.879 -2.29236 3.78026 0
M  V30 1723 N 172.938 -1.57226 0.108567 0
M  V30 1724 C 174.185 -1.94833 -0.551943 0
M  V30 1725 C 174.513 -0.991204 -1.67348 0
M  V30 1726 O 173.768 -0.0131878 -1.95696 0
M  V30 1727 C 174.067 -3.38911 -1.13463 0
M  V30 1728 C 173.733 -4.50696 -0.135509 0
M  V30 1729 C 172.395 -4.80998 0.139252 0
M  V30 1730 C 174.747 -5.18333 0.545957 0
M  V30 1731 C 172.075 -5.76259 1.10194 0
M  V30 1732 C 174.427 -6.14627 1.49721 0
M  V30 1733 C 173.091 -6.43327 1.78006 0
M  V30 1734 H 172.361 -0.712944 -0.20197 0
M  V30 1735 H 175.008 -1.90582 0.18726 0
M  V30 1736 H 173.313 -3.39805 -1.95037 0
M  V30 1737 H 175.01 -3.65317 -1.65362 0
M  V30 1738 H 171.6 -4.27087 -0.359846 0
M  V30 1739 H 175.784 -4.95087 0.346842 0
M  V30 1740 H 171.04 -5.96804 1.32795 0
M  V30 1741 H 175.214 -6.66126 2.03099 0
M  V30 1742 H 172.841 -7.1695 2.52759 0
M  V30 1743 N 174.416 0.165178 -1.56732 0
M  V30 1744 C 175.326 1.22423 -2.00125 0
M  V30 1745 C 176.342 1.48084 -0.913619 0
M  V30 1746 O 177.518 1.60112 -1.22172 0
M  V30 1747 C 174.583 2.54197 -2.35764 0
M  V30 1748 C 173.644 2.36343 -3.58386 0
M  V30 1749 C 172.877 3.61834 -3.92316 0
M  V30 1750 O 173.1 4.67267 -3.27135 0
M  V30 1751 O 172.034 3.55579 -4.85641 0
M  V30 1752 H 175.86 0.885886 -2.90492 0
M  V30 1753 H 173.445 0.372518 -1.44681 0
M  V30 1754 H 175.327 3.3192 -2.59629 0
M  V30 1755 H 174.002 2.87598 -1.48557 0
M  V30 1756 H 172.909 1.56632 -3.39731 0
M  V30 1757 H 174.242 2.07865 -4.46154 0
M  V30 1758 N 175.894 1.51508 0.433938 0
M  V30 1759 C 177.171 1.54888 1.19453 0
M  V30 1760 C 177.551 0.315154 2.08734 0
M  V30 1761 O 176.899 -0.699558 2.17528 0
M  V30 1762 C 177.109 2.86467 1.99342 0
M  V30 1763 C 178.457 3.38545 2.56267 0
M  V30 1764 O 179.481 2.88041 2.0955 0
M  V30 1765 O 178.34 4.26675 3.41483 0
M  V30 1766 H 175.434 0.622863 0.544032 0
M  V30 1767 H 177.98 1.63823 0.442732 0
M  V30 1768 H 176.752 3.67718 1.33788 0
M  V30 1769 H 176.375 2.8071 2.8158 0
M  V30 1770 N 177.372 -0.689602 1.41712 0
M  V30 1771 C 178.304 -1.815 1.39966 0
M  V30 1772 C 179.317 -1.59995 0.300917 0
M  V30 1773 O 180.506 -1.69387 0.563039 0
M  V30 1774 C 177.606 -3.18364 1.16179 0
M  V30 1775 C 176.779 -3.66847 2.38206 0
M  V30 1776 C 175.838 -4.82398 2.10186 0
M  V30 1777 O 174.864 -4.93706 2.83272 0
M  V30 1778 N 176.066 -5.70064 1.0958 0
M  V30 1779 H 178.831 -1.83488 2.36965 0
M  V30 1780 H 176.392 -0.872149 1.36401 0
M  V30 1781 H 178.384 -3.93301 0.953756 0
M  V30 1782 H 176.954 -3.11365 0.27756 0
M  V30 1783 H 176.174 -2.82751 2.74673 0
M  V30 1784 H 177.462 -3.95978 3.19498 0
M  V30 1785 H 176.86 -5.63565 0.491019 0
M  V30 1786 H 175.417 -6.44874 0.947656 0
M  V30 1787 N 178.85 -1.27639 -0.924453 0
M  V30 1788 C 180.127 -1.04887 -1.651 0
M  V30 1789 C 180.507 0.415327 -2.06974 0
M  V30 1790 O 179.855 1.39923 -1.80648 0
M  V30 1791 C 180.065 -2.01348 -2.85061 0
M  V30 1792 C 181.413 -2.30899 -3.56329 0
M  V30 1793 O 182.437 -1.99348 -2.95193 0
M  V30 1794 O 181.296 -2.84699 -4.66485 0
M  V30 1795 H 178.39 -0.400083 -0.723784 0
M  V30 1796 H 180.936 -1.38916 -0.974703 0
M  V30 1797 H 179.708 -3.0008 -2.51133 0
M  V30 1798 H 179.331 -1.679 -3.6041 0
M  V30 1799 N 180.328 1.1314 -1.09713 0
M  V30 1800 C 181.291 2.16831 -0.742751 0
M  V30 1801 C 182.291 1.59159 0.229129 0
M  V30 1802 O 183.481 1.74199 0.00693237 0
M  V30 1803 C 180.613 3.40756 -0.0989168 0
M  V30 1804 H 181.806 2.49695 -1.66109 0
M  V30 1805 H 179.359 1.2802 -0.896699 0
M  V30 1806 H 180.094 3.13485 0.830514 0
M  V30 1807 H 179.879 3.83888 -0.798265 0
M  V30 1808 H 181.369 4.17386 0.133524 0
M  V30 1809 N 181.806 0.884767 1.30421 0
M  V30 1810 C 182.736 0.367574 2.30589 0
M  V30 1811 C 183.717 -0.549464 1.60981 0
M  V30 1812 O 184.902 -0.46336 1.88591 0
M  V30 1813 C 182.032 -0.418944 3.44764 0
M  V30 1814 C 180.986 0.406316 4.26067 0
M  V30 1815 C 180.312 -0.506793 5.32293 0
M  V30 1816 C 181.612 1.64832 4.95608 0
M  V30 1817 H 183.306 1.20462 2.74097 0
M  V30 1818 H 180.852 0.580695 1.31772 0
M  V30 1819 H 182.805 -0.791395 4.13902 0
M  V30 1820 H 181.529 -1.28964 3.0006 0
M  V30 1821 H 180.188 0.760903 3.58617 0
M  V30 1822 H 179.836 -1.37519 4.83836 0
M  V30 1823 H 179.536 0.0415828 5.87585 0
M  V30 1824 H 181.06 -0.875764 6.04287 0
M  V30 1825 H 182.474 1.34646 5.57264 0
M  V30 1826 H 180.871 2.13688 5.60765 0
M  V30 1827 H 181.941 2.39284 4.21748 0
M  V30 1828 N 183.284 -1.43765 0.645699 0
M  V30 1829 C 184.214 -2.33471 -0.0370477 0
M  V30 1830 C 185.195 -1.49042 -0.819779 0
M  V30 1831 O 186.38 -1.77726 -0.782758 0
M  V30 1832 C 183.51 -3.32311 -1.0093 0
M  V30 1833 C 182.464 -4.2667 -0.337201 0
M  V30 1834 C 181.79 -5.1549 -1.42037 0
M  V30 1835 C 183.09 -5.16657 0.765706 0
M  V30 1836 H 184.784 -2.90809 0.712069 0
M  V30 1837 H 182.33 -1.39834 0.343876 0
M  V30 1838 H 184.283 -3.9396 -1.49578 0
M  V30 1839 H 183.007 -2.73213 -1.78948 0
M  V30 1840 H 181.666 -3.66374 0.128771 0
M  V30 1841 H 181.314 -4.52735 -2.1918 0
M  V30 1842 H 181.014 -5.79438 -0.975966 0
M  V30 1843 H 182.538 -5.80012 -1.90838 0
M  V30 1844 H 183.952 -5.72158 0.361702 0
M  V30 1845 H 182.349 -5.89286 1.13413 0
M  V30 1846 H 183.419 -4.56796 1.62683 0
M  V30 1847 N 184.763 -0.387143 -1.52771 0
M  V30 1848 C 186.174 0.0873634 -1.86495 0
M  V30 1849 C 186.525 1.46336 -1.30691 0
M  V30 1850 O 185.65 2.068 -0.637409 0
M  V30 1851 C 186.245 0.165305 -3.38396 0
M  V30 1852 C 184.804 0.584101 -3.7184 0
M  V30 1853 C 183.951 -0.255279 -2.76122 0
M  V30 1854 H 186.902 -0.605104 -1.46711 0
M  V30 1855 H 186.923 0.984848 -3.67534 0
M  V30 1856 H 186.435 -0.836301 -3.78982 0
M  V30 1857 H 184.536 1.59315 -3.36823 0
M  V30 1858 H 184.649 0.343749 -4.77865 0
M  V30 1859 H 183.013 0.279126 -2.53166 0
M  V30 1860 H 183.796 -1.25482 -3.19545 0
M  V30 1861 N 186.241 1.57166 -0.116904 0
M  V30 1862 C 187.481 1.97008 0.544715 0
M  V30 1863 C 187.845 0.998713 1.63981 0
M  V30 1864 O 189.046 1.28644 2.36018 0
M  V30 1865 C 187.317 3.41145 1.06559 0
M  V30 1866 S 188.876 4.02998 1.73603 0
M  V30 1867 H 185.694 0.688587 0.177112 0
M  V30 1868 H 188.296 1.94459 -0.201487 0
M  V30 1869 H 187 4.09592 0.257374 0
M  V30 1870 H 186.531 3.4734 1.84712 0
M  V30 1871 H 188.546 3.93585 3.02168 0
M  V30 1872 N 187.719 -0.156864 1.56817 0
M  V30 1873 C 188.649 -1.19589 2.00551 0
M  V30 1874 C 189.63 -1.4536 0.883426 0
M  V30 1875 O 190.815 -1.56449 1.15054 0
M  V30 1876 C 187.945 -2.53143 2.37773 0
M  V30 1877 C 186.899 -2.41913 3.53075 0
M  V30 1878 C 186.225 -3.80088 3.76081 0
M  V30 1879 C 187.525 -1.91157 4.86062 0
M  V30 1880 H 189.219 -0.832293 2.87599 0
M  V30 1881 H 186.765 -0.398918 1.38364 0
M  V30 1882 H 188.718 -3.26047 2.66967 0
M  V30 1883 H 187.442 -2.91319 1.4765 0
M  V30 1884 H 186.101 -1.71462 3.24031 0
M  V30 1885 H 185.749 -4.15683 2.83225 0
M  V30 1886 H 185.449 -3.73439 4.53671 0
M  V30 1887 H 186.973 -4.54556 4.0769 0
M  V30 1888 H 188.387 -2.53846 5.14038 0
M  V30 1889 H 186.784 -1.95422 5.67389 0
M  V30 1890 H 187.854 -0.866673 4.77092 0
M  V30 1891 N 189.197 -1.51736 -0.425897 0
M  V30 1892 C 190.127 -1.76827 -1.52494 0
M  V30 1893 C 191.108 -0.618524 -1.58456 0
M  V30 1894 O 192.293 -0.862416 -1.74 0
M  V30 1895 C 189.423 -1.90374 -2.90474 0
M  V30 1896 C 188.377 -3.0588 -2.99369 0
M  V30 1897 C 187.703 -3.04625 -4.3944 0
M  V30 1898 C 189.003 -4.45644 -2.72394 0
M  V30 1899 H 190.697 -2.68855 -1.31748 0
M  V30 1900 H 188.243 -1.29372 -0.632362 0
M  V30 1901 H 190.196 -2.0651 -3.6733 0
M  V30 1902 H 188.92 -0.95004 -3.12477 0
M  V30 1903 H 187.579 -2.89467 -2.24954 0
M  V30 1904 H 187.227 -2.0701 -4.58428 0
M  V30 1905 H 186.927 -3.82195 -4.46319 0
M  V30 1906 H 188.451 -3.22869 -5.18255 0
M  V30 1907 H 189.865 -4.62348 -3.38979 0
M  V30 1908 H 188.262 -5.25006 -2.9067 0
M  V30 1909 H 189.332 -4.54893 -1.67929 0
M  V30 1910 N 190.675 0.682077 -1.42076 0
M  V30 1911 C 191.903 1.47057 -1.4554 0
M  V30 1912 C 192.318 1.8869 -0.0645779 0
M  V30 1913 O 191.675 1.57666 0.919115 0
M  V30 1914 C 191.726 2.72442 -2.37609 0
M  V30 1915 O 191.447 2.32559 -3.71279 0
M  V30 1916 C 192.948 3.66069 -2.50017 0
M  V30 1917 H 190.168 0.452737 -0.495248 0
M  V30 1918 H 192.712 0.838695 -1.8651 0
M  V30 1919 H 190.867 3.31835 -1.9991 0
M  V30 1920 H 191.281 3.13475 -4.20516 0
M  V30 1921 H 192.755 4.50792 -3.18576 0
M  V30 1922 H 193.232 4.11476 -1.53572 0
M  V30 1923 H 193.838 3.12572 -2.88407 0
M  V30 1924 N 192.153 1.28127 0.917671 0
M  V30 1925 C 193.43 1.05761 1.64542 0
M  V30 1926 C 193.81 -0.404344 2.07191 0
M  V30 1927 O 193.158 -1.38963 1.81388 0
M  V30 1928 C 193.368 2.02857 2.83989 0
M  V30 1929 C 194.716 2.32786 3.551 0
M  V30 1930 O 195.74 2.0091 2.94132 0
M  V30 1931 O 194.599 2.87169 4.64969 0
M  V30 1932 H 191.693 0.403916 0.721652 0
M  V30 1933 H 194.239 1.39431 0.967322 0
M  V30 1934 H 193.011 3.01407 2.49538 0
M  V30 1935 H 192.634 1.69809 3.59514 0
M  V30 1936 N 193.631 -1.12557 1.10312 0
M  V30 1937 C 195.042 -1.65574 0.862678 0
M  V30 1938 C 195.393 -1.86566 -0.607256 0
M  V30 1939 O 194.518 -1.59121 -1.46662 0
M  V30 1940 C 195.113 -3.00776 1.55947 0
M  V30 1941 C 193.672 -3.50748 1.36576 0
M  V30 1942 C 192.819 -2.25797 1.60968 0
M  V30 1943 H 195.77 -0.963552 1.26101 0
M  V30 1944 H 195.791 -3.67185 0.997753 0
M  V30 1945 H 195.303 -2.85465 2.62928 0
M  V30 1946 H 193.404 -3.71245 0.317531 0
M  V30 1947 H 193.517 -4.30289 2.10686 0
M  V30 1948 H 191.881 -2.32841 1.03234 0
M  V30 1949 H 192.664 -2.13043 2.69198 0
M  V30 1950 N 195.109 -0.891671 -1.2995 0
M  V30 1951 C 196.355 -0.514261 -1.96171 0
M  V30 1952 C 196.688 0.935506 -1.70182 0
M  V30 1953 O 195.963 1.66204 -1.01028 0
M  V30 1954 C 196.246 -0.797719 -3.51153 0
M  V30 1955 C 196.099 -2.2986 -3.86632 0
M  V30 1956 C 197.418 -0.278749 -4.39216 0
M  V30 1957 H 194.537 -0.188314 -0.712535 0
M  V30 1958 H 197.179 -1.11689 -1.53706 0
M  V30 1959 H 195.329 -0.284826 -3.87455 0
M  V30 1960 H 197.001 -2.88042 -3.60319 0
M  V30 1961 H 195.244 -2.76257 -3.34462 0
M  V30 1962 H 195.915 -2.44753 -4.94773 0
M  V30 1963 H 198.391 -0.717825 -4.09862 0
M  V30 1964 H 197.267 -0.506353 -5.46559 0
M  V30 1965 H 197.528 0.820266 -4.34424 0
M  V30 1966 N 196.587 1.43421 -0.653314 0
M  V30 1967 C 197.517 2.33487 0.0246656 0
M  V30 1968 C 198.498 1.49475 0.811863 0
M  V30 1969 O 199.683 1.78139 0.773322 0
M  V30 1970 C 196.813 3.32841 0.99166 0
M  V30 1971 C 195.767 4.26842 0.314568 0
M  V30 1972 C 195.093 5.16236 1.39302 0
M  V30 1973 C 196.393 5.16243 -0.793095 0
M  V30 1974 H 198.087 2.90427 -0.727481 0
M  V30 1975 H 195.633 1.39649 -0.351287 0
M  V30 1976 H 197.586 3.94747 1.47487 0
M  V30 1977 H 196.31 2.74158 1.77497 0
M  V30 1978 H 194.969 3.663 -0.148199 0
M  V30 1979 H 194.617 4.53891 2.16776 0
M  V30 1980 H 194.317 5.79948 0.945223 0
M  V30 1981 H 195.841 5.81015 1.87759 0
M  V30 1982 H 197.255 5.71958 -0.392039 0
M  V30 1983 H 195.652 5.88676 -1.16536 0
M  V30 1984 H 196.722 4.55927 -1.65103 0
M  V30 1985 N 198.065 0.39524 1.52563 0
M  V30 1986 C 198.975 -0.444232 2.30356 0
M  V30 1987 C 199.991 -1.06615 1.37511 0
M  V30 1988 O 201.167 -1.07067 1.70583 0
M  V30 1989 C 198.232 -1.55315 3.09964 0
M  V30 1990 C 197.293 -0.955734 4.18526 0
M  V30 1991 C 196.526 -2.01181 4.9433 0
M  V30 1992 O 196.749 -3.22781 4.70285 0
M  V30 1993 O 195.683 -1.62579 5.79527 0
M  V30 1994 H 199.509 0.189667 3.03107 0
M  V30 1995 H 197.094 0.1588 1.48554 0
M  V30 1996 H 198.976 -2.19724 3.59582 0
M  V30 1997 H 197.651 -2.17191 2.4002 0
M  V30 1998 H 196.558 -0.274743 3.7309 0
M  V30 1999 H 197.891 -0.381109 4.90722 0
M  V30 2000 N 199.544 -1.57102 0.125237 0
M  V30 2001 C 200.507 -2.14471 -0.80838 0
M  V30 2002 C 201.507 -1.0811 -1.19033 0
M  V30 2003 O 202.697 -1.33856 -1.11482 0
M  V30 2004 C 199.829 -2.69005 -2.09402 0
M  V30 2005 H 201.022 -2.98297 -0.309696 0
M  V30 2006 H 198.575 -1.55807 -0.124051 0
M  V30 2007 H 199.31 -1.88785 -2.63687 0
M  V30 2008 H 199.095 -3.46799 -1.82957 0
M  V30 2009 H 200.585 -3.13278 -2.76128 0
M  V30 2010 N 201.022 0.148545 -1.56898 0
M  V30 2011 C 202.27 0.859717 -1.82902 0
M  V30 2012 C 202.591 1.81775 -0.70588 0
M  V30 2013 O 201.861 1.93994 0.272586 0
M  V30 2014 H 200.441 0.320469 -0.674766 0
M  V30 2015 H 203.103 0.142918 -1.94375 0
M  V30 2016 H 202.199 1.4229 -2.77777 0
M  V30 2017 N 202.5 1.5196 0.417844 0
M  V30 2018 C 203.746 1.65836 1.16732 0
M  V30 2019 C 204.079 0.382881 1.90388 0
M  V30 2020 O 203.354 -0.618368 1.84408 0
M  V30 2021 C 203.637 2.87466 2.16876 0
M  V30 2022 C 203.49 4.25041 1.47174 0
M  V30 2023 C 204.809 3.04613 3.17646 0
M  V30 2024 H 201.928 0.603515 0.423011 0
M  V30 2025 H 204.57 1.84494 0.454105 0
M  V30 2026 H 202.72 2.71689 2.777 0
M  V30 2027 H 204.392 4.52527 0.895376 0
M  V30 2028 H 202.635 4.26843 0.773806 0
M  V30 2029 H 203.306 5.06176 2.20204 0
M  V30 2030 H 205.782 3.1923 2.66892 0
M  V30 2031 H 204.658 3.91247 3.8499 0
M  V30 2032 H 204.919 2.17541 3.84874 0
M  V30 2033 N 203.978 -0.674533 1.42435 0
M  V30 2034 C 205.203 -1.46784 1.46524 0
M  V30 2035 C 205.628 -1.87938 0.078066 0
M  V30 2036 O 204.986 -1.56014 -0.92354 0
M  V30 2037 C 205.034 -2.69307 2.39805 0
M  V30 2038 O 204.138 -3.67587 1.86959 0
M  V30 2039 H 203.479 -0.440959 0.496439 0
M  V30 2040 H 206.009 -0.827326 1.87127 0
M  V30 2041 H 206.019 -3.17374 2.56393 0
M  V30 2042 H 204.694 -2.38692 3.40586 0
M  V30 2043 H 203.271 -3.2662 1.79927 0
M  V30 2044 N 205.456 -1.28612 -0.910864 0
M  V30 2045 C 206.386 -1.15326 -2.03032 0
M  V30 2046 C 207.367 -0.0502924 -1.70026 0
M  V30 2047 O 208.552 -0.227797 -1.92859 0
M  V30 2048 C 205.682 -0.817343 -3.37545 0
M  V30 2049 C 204.636 -1.8754 -3.84724 0
M  V30 2050 C 203.962 -1.39305 -5.16235 0
M  V30 2051 C 205.262 -3.28244 -4.06267 0
M  V30 2052 H 206.956 -2.08975 -2.14406 0
M  V30 2053 H 204.502 -1.00612 -1.03021 0
M  V30 2054 H 206.455 -0.711151 -4.15356 0
M  V30 2055 H 205.179 0.154846 -3.26233 0
M  V30 2056 H 203.838 -1.97079 -3.09121 0
M  V30 2057 H 203.486 -0.409846 -5.01328 0
M  V30 2058 H 203.186 -2.10057 -5.48771 0
M  V30 2059 H 204.71 -1.30014 -5.96598 0
M  V30 2060 H 206.124 -3.21611 -4.74594 0
M  V30 2061 H 204.521 -3.96855 -4.5014 0
M  V30 2062 H 205.591 -3.72048 -3.10979 0
M  V30 2063 N 206.934 1.1197 -1.10907 0
M  V30 2064 C 208.18 1.8386 -0.855773 0
M  V30 2065 C 208.513 1.84134 0.617103 0
M  V30 2066 O 207.788 1.29041 1.45529 0
M  V30 2067 C 208.071 3.31305 -1.411 0
M  V30 2068 C 207.924 3.39456 -2.9511 0
M  V30 2069 C 209.243 4.2721 -1.05736 0
M  V30 2070 H 206.362 0.667545 -0.312334 0
M  V30 2071 H 209.004 1.31331 -1.37303 0
M  V30 2072 H 207.154 3.76169 -0.97105 0
M  V30 2073 H 208.826 3.03191 -3.47668 0
M  V30 2074 H 207.069 2.79849 -3.31462 0
M  V30 2075 H 207.74 4.43209 -3.29044 0
M  V30 2076 H 210.216 3.90497 -1.43706 0
M  V30 2077 H 209.092 5.28775 -1.47269 0
M  V30 2078 H 209.353 4.42088 0.0325958 0
M  V30 2079 N 208.412 0.89855 1.29475 0
M  V30 2080 C 209.828 0.594483 1.48115 0
M  V30 2081 C 210.028 -0.86431 1.82022 0
M  V30 2082 O 209.084 -1.64457 1.91599 0
M  V30 2083 C 210.397 1.51932 2.59494 0
M  V30 2084 C 211.945 1.5244 2.7337 0
M  V30 2085 C 212.42 2.43548 3.87877 0
M  V30 2086 N 213.911 2.41589 3.95208 0
M  V30 2087 C 214.646 3.08789 4.83153 0
M  V30 2088 N 214.142 3.85265 5.75798 0
M  V30 2089 N 215.935 2.97952 4.76635 0
M  V30 2090 H 208.086 1.84207 1.05742 0
M  V30 2091 H 210.349 0.789251 0.525154 0
M  V30 2092 H 210.055 2.55865 2.41301 0
M  V30 2093 H 209.929 1.23899 3.56271 0
M  V30 2094 H 212.316 0.492518 2.90961 0
M  V30 2095 H 212.397 1.8451 1.77172 0
M  V30 2096 H 212.041 3.46829 3.71041 0
M  V30 2097 H 211.971 2.08788 4.83441 0
M  V30 2098 H 214.462 1.86025 3.28943 0
M  V30 2099 H 214.775 4.33598 6.39697 0
M  V30 2100 H 213.12 3.89371 5.75687 0
M  V30 2101 H 216.311 2.37723 4.03244 0
M  V30 2102 H 216.484 3.50599 5.44962 0
M  V30 2103 N 209.89 -1.43072 0.660911 0
M  V30 2104 C 211.136 -2.0202 0.177708 0
M  V30 2105 C 211.469 -1.52066 -1.20787 0
M  V30 2106 O 210.744 -0.716987 -1.80802 0
M  V30 2107 C 211.027 -3.59561 0.197019 0
M  V30 2108 C 210.88 -4.19727 1.61706 0
M  V30 2109 C 212.199 -4.37664 -0.462396 0
M  V30 2110 H 209.318 -0.734034 0.0660494 0
M  V30 2111 H 211.96 -1.70272 0.843058 0
M  V30 2112 H 210.11 -3.86739 -0.369527 0
M  V30 2113 H 211.782 -4.03553 2.23479 0
M  V30 2114 H 210.025 -3.76084 2.16201 0
M  V30 2115 H 210.696 -5.28834 1.58237 0
M  V30 2116 H 213.172 -4.16095 0.0197215 0
M  V30 2117 H 212.048 -5.47305 -0.418188 0
M  V30 2118 H 212.309 -4.14493 -1.53778 0
M  V30 2119 N 211.368 -0.403325 -1.52352 0
M  V30 2120 C 212.784 -0.0539281 -1.59509 0
M  V30 2121 C 212.984 1.43307 -1.41652 0
M  V30 2122 O 212.04 2.19924 -1.24056 0
M  V30 2123 C 213.353 -0.543654 -2.95745 0
M  V30 2124 C 214.901 -0.501125 -3.08962 0
M  V30 2125 C 215.376 -0.967267 -4.47669 0
M  V30 2126 N 216.867 -0.923849 -4.53893 0
M  V30 2127 C 217.602 -1.25578 -5.5948 0
M  V30 2128 N 217.098 -1.65889 -6.72646 0
M  V30 2129 N 218.891 -1.17613 -5.49658 0
M  V30 2130 H 211.042 -1.37123 -1.62206 0
M  V30 2131 H 213.305 -0.56294 -0.76276 0
M  V30 2132 H 213.011 -1.58275 -3.14073 0
M  V30 2133 H 212.885 0.0498042 -3.77167 0
M  V30 2134 H 215.272 0.528909 -2.90321 0
M  V30 2135 H 215.353 -1.13056 -2.2946 0
M  V30 2136 H 214.997 -1.9956 -4.67053 0
M  V30 2137 H 214.927 -0.314698 -5.25659 0
M  V30 2138 H 217.418 -0.627403 -3.72655 0
M  V30 2139 H 217.731 -1.89543 -7.49195 0
M  V30 2140 H 216.076 -1.69787 -6.73942 0
M  V30 2141 H 219.267 -0.860115 -4.6013 0
M  V30 2142 H 219.44 -1.43812 -6.3184 0
M  V30 2143 N 212.846 1.57033 -0.133567 0
M  V30 2144 C 214.094 1.953 0.519848 0
M  V30 2145 C 214.415 1.01866 1.66278 0
M  V30 2146 O 213.685 0.0776513 1.95746 0
M  V30 2147 H 212.265 0.721091 0.195032 0
M  V30 2148 H 214.927 1.93809 -0.205921 0
M  V30 2149 H 214.023 2.98695 0.904854 0
M  V30 2150 N 214.325 -0.140222 1.56975 0
M  V30 2151 C 215.741 -0.493088 1.51792 0
M  V30 2152 C 215.941 -1.83013 0.843116 0
M  V30 2153 O 214.997 -2.49041 0.416493 0
M  V30 2154 C 216.31 -0.497144 2.96562 0
M  V30 2155 C 217.858 -0.582186 3.07538 0
M  V30 2156 C 218.333 -0.616838 4.53827 0
M  V30 2157 N 219.824 -0.678873 4.58198 0
M  V30 2158 C 220.559 -0.726782 5.68775 0
M  V30 2159 N 220.055 -0.733623 6.88905 0
M  V30 2160 N 221.848 -0.768179 5.56826 0
M  V30 2161 H 213.999 0.736108 1.99237 0
M  V30 2162 H 216.262 0.269182 0.90898 0
M  V30 2163 H 215.968 0.417217 3.49217 0
M  V30 2164 H 215.842 -1.33263 3.52875 0
M  V30 2165 H 218.229 -1.48697 2.54899 0
M  V30 2166 H 218.31 0.280581 2.54257 0
M  V30 2167 H 217.954 0.283812 5.07106 0
M  V30 2168 H 217.884 -1.49619 5.04898 0
M  V30 2169 H 220.375 -0.68061 3.7172 0
M  V30 2170 H 220.688 -0.772215 7.68932 0
M  V30 2171 H 219.033 -0.701389 6.91452 0
M  V30 2172 H 222.224 -0.760051 4.61888 0
M  V30 2173 H 222.397 -0.80205 6.43017 0
M  V30 2174 N 215.803 -1.52179 -0.40978 0
M  V30 2175 C 217.214 -1.58377 -0.988615 0
M  V30 2176 C 217.565 -0.423879 -1.91566 0
M  V30 2177 O 216.69 0.455844 -2.11544 0
M  V30 2178 C 217.285 -2.87044 -1.79976 0
M  V30 2179 C 215.844 -2.95722 -2.32863 0
M  V30 2180 C 214.991 -2.53309 -1.12828 0
M  V30 2181 H 217.942 -1.57558 -0.190039 0
M  V30 2182 H 217.963 -2.7236 -2.65707 0
M  V30 2183 H 217.475 -3.71444 -1.12478 0
M  V30 2184 H 215.576 -2.15814 -3.03735 0
M  V30 2185 H 215.689 -3.99951 -2.63773 0
M  V30 2186 H 214.053 -2.07142 -1.48204 0
M  V30 2187 H 214.836 -3.40082 -0.46897 0
M  V30 2188 N 217.281 0.66697 -1.42791 0
M  V30 2189 C 218.211 1.79218 -1.49677 0
M  V30 2190 C 219.192 1.66405 -0.352623 0
M  V30 2191 O 220.377 1.85708 -0.567993 0
M  V30 2192 C 217.507 3.17565 -1.40605 0
M  V30 2193 C 216.461 3.45124 -2.53127 0
M  V30 2194 C 215.787 4.83127 -2.29112 0
M  V30 2195 C 217.087 3.41236 -3.95418 0
M  V30 2196 H 218.781 1.73713 -2.43853 0
M  V30 2197 H 216.327 0.83432 -1.17367 0
M  V30 2198 H 218.28 3.96022 -1.44029 0
M  V30 2199 H 217.004 3.23767 -0.429271 0
M  V30 2200 H 215.663 2.69031 -2.49034 0
M  V30 2201 H 215.311 4.85988 -1.29709 0
M  V30 2202 H 215.011 5.02528 -3.04531 0
M  V30 2203 H 216.535 5.63859 -2.34297 0
M  V30 2204 H 217.949 4.09651 -4.01073 0
M  V30 2205 H 216.346 3.72173 -4.70752 0
M  V30 2206 H 217.416 2.39665 -4.21532 0
M  V30 2207 N 218.759 1.29093 0.90403 0
M  V30 2208 C 219.692 1.08176 2.00931 0
M  V30 2209 C 220.67 -0.005083 1.62599 0
M  V30 2210 O 221.854 0.144765 1.87943 0
M  V30 2211 C 218.981 0.645897 3.32484 0
M  V30 2212 C 218.027 1.73081 3.89801 0
M  V30 2213 S 218.86 3.32905 4.19446 0
M  V30 2214 C 220.016 2.91176 5.54046 0
M  V30 2215 H 220.249 2.01752 2.18365 0
M  V30 2216 H 217.782 1.13191 1.0501 0
M  V30 2217 H 219.74 0.401131 4.08535 0
M  V30 2218 H 218.401 -0.270188 3.12936 0
M  V30 2219 H 217.594 1.37768 4.84805 0
M  V30 2220 H 217.196 1.92888 3.20422 0
M  V30 2221 H 219.488 2.37952 6.34338 0
M  V30 2222 H 220.431 3.85014 5.94281 0
M  V30 2223 H 220.839 2.296 5.15698 0
M  V30 2224 N 220.237 -1.11381 1.11499 0
M  V30 2225 C 221.653 -1.35143 0.849031 0
M  V30 2226 C 221.853 -1.94515 -0.525938 0
M  V30 2227 O 220.909 -2.1785 -1.27662 0
M  V30 2228 C 222.222 -2.28249 1.95762 0
M  V30 2229 C 223.77 -2.41812 1.98736 0
M  V30 2230 C 224.245 -3.3824 3.088 0
M  V30 2231 N 225.736 -3.45803 3.08179 0
M  V30 2232 C 226.471 -4.20358 3.89982 0
M  V30 2233 N 225.967 -4.97884 4.8175 0
M  V30 2234 N 227.76 -4.15877 3.78157 0
M  V30 2235 H 219.911 -0.712062 2.00109 0
M  V30 2236 H 222.174 -0.376025 0.870235 0
M  V30 2237 H 221.88 -1.91817 2.94787 0
M  V30 2238 H 221.754 -3.28473 1.85433 0
M  V30 2239 H 224.141 -2.77518 1.00338 0
M  V30 2240 H 224.222 -1.41437 2.13141 0
M  V30 2241 H 223.866 -3.03261 4.07425 0
M  V30 2242 H 223.796 -4.38471 2.91635 0
M  V30 2243 H 226.287 -2.90506 2.41691 0
M  V30 2244 H 226.6 -5.52142 5.40702 0
M  V30 2245 H 224.945 -4.97043 4.85771 0
M  V30 2246 H 228.136 -3.544 3.05808 0
M  V30 2247 H 228.309 -4.73723 4.42143 0
M  V30 2248 N 221.715 -0.905404 -1.28997 0
M  V30 2249 C 222.665 -0.358713 -2.25161 0
M  V30 2250 C 223.649 0.524449 -1.52113 0
M  V30 2251 O 224.841 0.365534 -1.73184 0
M  V30 2252 C 221.97 0.407609 -3.40872 0
M  V30 2253 C 221.056 -0.490797 -4.21251 0
M  V30 2254 N 221.447 -1.60061 -4.79806 0
M  V30 2255 C 219.745 -0.289636 -4.45059 0
M  V30 2256 C 220.446 -2.15757 -5.40207 0
M  V30 2257 N 219.422 -1.44988 -5.23908 0
M  V30 2258 H 223.224 -1.20642 -2.67998 0
M  V30 2259 H 220.738 -0.757103 -1.43672 0
M  V30 2260 H 222.735 0.816046 -4.08835 0
M  V30 2261 H 221.395 1.25251 -2.9957 0
M  V30 2262 H 222.406 -1.98329 -4.7842 0
M  V30 2263 H 219.083 0.51643 -4.14294 0
M  V30 2264 H 220.473 -3.09069 -5.96595 0
M  V30 2265 N 223.193 1.4272 -0.668489 0
M  V30 2266 C 224.421 2.05966 -0.196348 0
M  V30 2267 C 224.836 1.50191 1.14403 0
M  V30 2268 O 224.193 0.639208 1.7094 0
M  V30 2269 C 224.244 3.61314 -0.115815 0
M  V30 2270 O 223.965 4.1502 -1.40322 0
M  V30 2271 C 225.466 4.41663 0.380579 0
M  V30 2272 H 222.686 0.663954 -0.0969829 0
M  V30 2273 H 225.23 1.82966 -0.913446 0
M  V30 2274 H 223.385 3.83448 0.551931 0
M  V30 2275 H 223.799 5.08832 -1.27243 0
M  V30 2276 H 225.273 5.5065 0.385848 0
M  V30 2277 H 225.75 4.15792 1.41471 0
M  V30 2278 H 226.356 4.24534 -0.255209 0
M  V30 2279 N 224.671 0.411399 1.52136 0
M  V30 2280 C 225.619 -0.427633 2.28635 0
M  V30 2281 C 226.613 -1.04383 1.33419 0
M  V30 2282 O 227.819 -0.981772 1.50868 0
M  V30 2283 H 224.194 -0.156689 0.735495 0
M  V30 2284 H 226.165 0.238761 2.97443 0
M  V30 2285 C 224.914 -1.53082 3.12188 0
M  V30 2286 H 224.237 -1.06601 3.85326 0
M  V30 2287 H 225.677 -2.09167 3.68816 0
M  V30 2288 C 224.136 -2.49946 2.25895 0
M  V30 2289 O 224.666 -3.53884 1.90076 0
M  V30 2290 N 222.872 -2.2021 1.8962 0
M  V30 2291 H 222.419 -1.35719 2.18948 0
M  V30 2292 H 222.377 -2.85266 1.32176 0
M  V30 2293 N 226.149 -1.5696 0.141893 0
M  V30 2294 C 227.379 -2.00031 -0.516828 0
M  V30 2295 C 227.787 -1.02091 -1.59293 0
M  V30 2296 O 227.13 -0.00909657 -1.83698 0
M  V30 2297 C 227.192 -3.39534 -1.1814 0
M  V30 2298 C 226.856 -4.56313 -0.250513 0
M  V30 2299 C 227.853 -5.17295 0.519839 0
M  V30 2300 C 225.538 -5.02061 -0.154907 0
M  V30 2301 C 227.532 -6.2243 1.3733 0
M  V30 2302 C 225.219 -6.07053 0.702161 0
M  V30 2303 C 226.217 -6.67106 1.46487 0
M  V30 2304 O 225.905 -7.70066 2.30767 0
M  V30 2305 H 225.637 -0.661451 -0.139493 0
M  V30 2306 H 228.191 -2.04086 0.231926 0
M  V30 2307 H 226.421 -3.32302 -1.97769 0
M  V30 2308 H 228.11 -3.66745 -1.73933 0
M  V30 2309 H 228.876 -4.82852 0.45598 0
M  V30 2310 H 224.755 -4.5505 -0.7383 0
M  V30 2311 H 228.299 -6.69233 1.96909 0
M  V30 2312 H 224.196 -6.40923 0.76733 0
M  V30 2313 H 224.964 -7.87264 2.23959 0
M  V30 2314 N 227.627 0.131896 -1.57047 0
M  V30 2315 C 228.852 0.860418 -1.8871 0
M  V30 2316 C 229.277 1.73251 -0.73251 0
M  V30 2317 O 228.635 1.785 0.317429 0
M  V30 2318 C 228.683 1.68047 -3.19049 0
M  V30 2319 O 227.787 2.7862 -3.04047 0
M  V30 2320 H 227.128 0.238743 -0.619595 0
M  V30 2321 H 229.658 0.118169 -2.04258 0
M  V30 2322 H 229.668 2.07238 -3.51449 0
M  V30 2323 H 228.343 1.04018 -4.02682 0
M  V30 2324 H 226.92 2.42726 -2.83088 0
M  V30 2325 N 229.106 1.52395 0.401703 0
M  V30 2326 C 230.353 1.66817 1.14796 0
M  V30 2327 C 230.681 0.401772 1.90305 0
M  V30 2328 O 229.936 -0.615487 1.85769 0
M  V30 2329 C 230.235 2.84578 2.16217 0
M  V30 2330 C 229.901 4.22513 1.5746 0
M  V30 2331 C 228.563 4.60029 1.41161 0
M  V30 2332 C 230.915 5.0844 1.14622 0
M  V30 2333 C 228.243 5.81144 0.80552 0
M  V30 2334 C 230.595 6.30167 0.55428 0
M  V30 2335 C 229.259 6.66426 0.378482 0
M  V30 2336 H 228.529 0.610428 0.420069 0
M  V30 2337 H 231.176 1.86512 0.434212 0
M  V30 2338 H 229.481 2.59248 2.93764 0
M  V30 2339 H 231.178 2.92933 2.73845 0
M  V30 2340 H 227.768 3.92953 1.71132 0
M  V30 2341 H 231.952 4.80034 1.26021 0
M  V30 2342 H 227.208 6.07855 0.657399 0
M  V30 2343 H 231.382 6.96071 0.213983 0
M  V30 2344 H 229.009 7.60143 -0.0932606 0
M  V30 2345 N 230.584 -0.659388 1.43143 0
M  V30 2346 C 231.809 -1.45221 1.48073 0
M  V30 2347 C 232.234 -1.87845 0.097995 0
M  V30 2348 O 231.592 -1.56985 -0.90694 0
M  V30 2349 C 231.64 -2.66748 2.42647 0
M  V30 2350 O 230.744 -3.65583 1.90848 0
M  V30 2351 H 230.085 -0.435669 0.501088 0
M  V30 2352 H 232.615 -0.807432 1.87994 0
M  V30 2353 H 232.625 -3.14637 2.59745 0
M  V30 2354 H 231.3 -2.35067 3.43098 0
M  V30 2355 H 229.877 -3.24693 1.83381 0
M  V30 2356 N 232.062 -1.29571 -0.897171 0
M  V30 2357 C 233.473 -1.15964 -1.46319 0
M  V30 2358 C 233.824 0.244267 -1.94674 0
M  V30 2359 O 232.949 1.13998 -1.83939 0
M  V30 2360 C 233.544 -2.09906 -2.65942 0
M  V30 2361 C 232.103 -2.00314 -3.18671 0
M  V30 2362 C 231.25 -2.00687 -1.91363 0
M  V30 2363 H 234.201 -1.42019 -0.708268 0
M  V30 2364 H 234.222 -1.67276 -3.41759 0
M  V30 2365 H 233.734 -3.12075 -2.30718 0
M  V30 2366 H 231.835 -1.01242 -3.58582 0
M  V30 2367 H 231.948 -2.88102 -3.82798 0
M  V30 2368 H 230.312 -1.45319 -2.09175 0
M  V30 2369 H 231.095 -3.04566 -1.58413 0
M  V30 2370 N 233.54 1.10788 -1.12088 0
M  V30 2371 C 234.786 1.8313 -0.885148 0
M  V30 2372 C 235.141 1.8336 0.582839 0
M  V30 2373 O 234.434 1.28062 1.42516 0
M  V30 2374 C 234.628 3.29294 -1.38926 0
M  V30 2375 C 234.457 3.43302 -2.90472 0
M  V30 2376 C 233.227 3.55928 -3.58669 0
M  V30 2377 C 235.425 3.37014 -3.88492 0
M  V30 2378 N 233.407 3.58475 -4.98366 0
M  V30 2379 C 234.778 3.46263 -5.14298 0
M  V30 2380 C 236.833 3.20589 -3.80955 0
M  V30 2381 C 235.536 3.4078 -6.33452 0
M  V30 2382 C 237.562 3.16427 -4.99628 0
M  V30 2383 C 236.924 3.26253 -6.2429 0
M  V30 2384 H 233.023 0.685054 -0.377128 0
M  V30 2385 H 235.607 1.3251 -1.4265 0
M  V30 2386 H 233.778 3.78416 -0.874999 0
M  V30 2387 H 235.51 3.89578 -1.09596 0
M  V30 2388 H 232.265 3.58779 -3.09151 0
M  V30 2389 H 232.689 3.6337 -5.71219 0
M  V30 2390 H 237.331 3.11873 -2.85474 0
M  V30 2391 H 235.049 3.48263 -7.29204 0
M  V30 2392 H 238.635 3.04874 -4.95523 0
M  V30 2393 H 237.515 3.2303 -7.14578 0
M  V30 2394 N 235.018 0.912232 1.28515 0
M  V30 2395 C 235.968 0.370649 2.24967 0
M  V30 2396 C 236.952 -0.516375 1.52389 0
M  V30 2397 O 238.144 -0.356345 1.73376 0
M  V30 2398 C 235.273 -0.389526 3.41083 0
M  V30 2399 C 234.359 0.51313 4.20984 0
M  V30 2400 N 234.75 1.62604 4.78951 0
M  V30 2401 C 233.048 0.313235 4.44899 0
M  V30 2402 C 233.749 2.18619 5.39055 0
M  V30 2403 N 232.725 1.47765 5.23132 0
M  V30 2404 H 236.527 1.22061 2.67354 0
M  V30 2405 H 234.041 0.764712 1.43269 0
M  V30 2406 H 236.038 -0.794353 4.09262 0
M  V30 2407 H 234.698 -1.2366 3.0023 0
M  V30 2408 H 235.709 2.00864 4.77362 0
M  V30 2409 H 232.386 -0.494452 4.14562 0
M  V30 2410 H 233.776 3.12228 5.94948 0
M  V30 2411 N 236.496 -1.42363 0.676048 0
M  V30 2412 C 237.744 -2.01123 0.198437 0
M  V30 2413 C 238.065 -1.53731 -1.19966 0
M  V30 2414 O 237.335 -0.759518 -1.80577 0
M  V30 2415 H 235.915 -0.743678 0.0703721 0
M  V30 2416 H 238.577 -1.74263 0.872837 0
M  V30 2417 H 237.673 -3.11454 0.200686 0
M  V30 2418 N 237.974 -0.419461 -1.51915 0
M  V30 2419 C 239.221 0.152939 -2.01922 0
M  V30 2420 C 239.549 1.4426 -1.30458 0
M  V30 2421 O 238.804 1.91514 -0.402593 0
M  V30 2422 C 239.103 0.437067 -3.54717 0
M  V30 2423 C 238.769 -0.764632 -4.44369 0
M  V30 2424 C 237.431 -1.09423 -4.68594 0
M  V30 2425 C 239.783 -1.56713 -4.97082 0
M  V30 2426 C 237.111 -2.22732 -5.42777 0
M  V30 2427 C 239.463 -2.69107 -5.72507 0
M  V30 2428 C 238.127 -3.02541 -5.95 0
M  V30 2429 H 237.397 0.0559644 -0.738884 0
M  V30 2430 H 240.044 -0.562998 -1.83037 0
M  V30 2431 H 238.349 1.23469 -3.71837 0
M  V30 2432 H 240.046 0.893083 -3.90928 0
M  V30 2433 H 236.636 -0.497775 -4.257 0
M  V30 2434 H 240.82 -1.32571 -4.78266 0
M  V30 2435 H 236.076 -2.48971 -5.58411 0
M  V30 2436 H 240.25 -3.31671 -6.12346 0
M  V30 2437 H 237.877 -3.90457 -6.52264 0
M  V30 2438 N 239.452 1.56882 -0.150215 0
M  V30 2439 C 240.68 2.00593 0.506948 0
M  V30 2440 C 241.095 1.03033 1.58208 0
M  V30 2441 O 240.452 0.0278396 1.82479 0
M  V30 2442 C 240.503 3.44209 1.10465 0
M  V30 2443 O 240.224 4.3804 0.0724636 0
M  V30 2444 C 241.725 4.03214 1.84211 0
M  V30 2445 H 238.945 0.65795 0.13169 0
M  V30 2446 H 241.489 2.03018 -0.245743 0
M  V30 2447 H 239.644 3.42625 1.80795 0
M  V30 2448 H 240.058 5.22007 0.510793 0
M  V30 2449 H 241.532 5.0569 2.21318 0
M  V30 2450 H 242.009 3.44107 2.72923 0
M  V30 2451 H 242.615 4.08437 1.18572 0
M  V30 2452 N 240.93 -0.123565 1.57115 0
M  V30 2453 C 242.179 -0.830704 1.83799 0
M  V30 2454 C 242.492 -1.81259 0.735158 0
M  V30 2455 O 243.698 -2.56558 0.888278 0
M  V30 2456 C 242.154 -1.52802 3.25852 0
M  V30 2457 C 241.762 -0.587356 4.44133 0
M  V30 2458 C 243.506 -2.22056 3.61789 0
M  V30 2459 C 241.413 -1.28764 5.77212 0
M  V30 2460 H 240.343 -0.313967 0.685522 0
M  V30 2461 H 242.994 -0.0834359 1.8331 0
M  V30 2462 H 241.376 -2.32175 3.20797 0
M  V30 2463 H 242.55 0.172829 4.60476 0
M  V30 2464 H 240.865 -0.00201892 4.164 0
M  V30 2465 H 243.462 -2.75131 4.58483 0
M  V30 2466 H 243.805 -2.99644 2.88997 0
M  V30 2467 H 244.338 -1.49576 3.68608 0
M  V30 2468 H 241.077 -0.55314 6.53162 0
M  V30 2469 H 240.597 -2.01995 5.64764 0
M  V30 2470 H 242.276 -1.8221 6.20813 0
M  V30 2471 N 242.408 -1.52605 -0.393616 0
M  V30 2472 C 243.358 -1.73436 -1.48 0
M  V30 2473 C 244.342 -0.588386 -1.49756 0
M  V30 2474 O 245.534 -0.846047 -1.5547 0
M  V30 2475 C 242.663 -1.90247 -2.85764 0
M  V30 2476 C 241.749 -3.10763 -2.88595 0
M  V30 2477 N 242.14 -4.33196 -2.61103 0
M  V30 2478 C 240.438 -3.10914 -3.19763 0
M  V30 2479 C 241.139 -5.1477 -2.70899 0
M  V30 2480 N 240.115 -4.50356 -3.04435 0
M  V30 2481 H 243.917 -2.65727 -1.25563 0
M  V30 2482 H 241.431 -1.5085 -0.601513 0
M  V30 2483 H 243.428 -2.03291 -3.63976 0
M  V30 2484 H 242.088 -0.991663 -3.09186 0
M  V30 2485 H 243.099 -4.61408 -2.35209 0
M  V30 2486 H 239.776 -2.29626 -3.4868 0
M  V30 2487 H 241.166 -6.22355 -2.53227 0
M  V30 2488 N 243.887 0.651787 -1.4349 0
M  V30 2489 C 245.303 0.96762 -1.26922 0
M  V30 2490 C 245.503 2.00602 -0.189982 0
M  V30 2491 O 244.559 2.48793 0.431107 0
M  V30 2492 C 245.872 1.45052 -2.63401 0
M  V30 2493 C 247.42 1.5671 -2.70945 0
M  V30 2494 C 247.895 2.0839 -4.07845 0
M  V30 2495 N 249.386 2.1569 -4.09917 0
M  V30 2496 C 250.121 2.56804 -5.12679 0
M  V30 2497 N 249.617 2.97203 -6.25813 0
M  V30 2498 N 251.41 2.56756 -5.00033 0
M  V30 2499 H 243.561 -0.0353158 -2.12371 0
M  V30 2500 H 245.824 0.0467858 -0.946845 0
M  V30 2501 H 245.53 0.761926 -3.43348 0
M  V30 2502 H 245.404 2.42529 -2.88894 0
M  V30 2503 H 247.791 2.2467 -1.9133 0
M  V30 2504 H 247.872 0.57662 -2.49216 0
M  V30 2505 H 247.516 1.41031 -4.87927 0
M  V30 2506 H 247.446 3.08271 -4.26938 0
M  V30 2507 H 249.937 1.87237 -3.28254 0
M  V30 2508 H 250.25 3.27328 -7.00055 0
M  V30 2509 H 248.595 2.95004 -6.29283 0
M  V30 2510 H 251.786 2.24572 -4.10713 0
M  V30 2511 H 251.959 2.88475 -5.80247 0
M  V30 2512 N 245.365 1.30045 0.890287 0
M  V30 2513 C 246.328 1.15963 1.977 0
M  V30 2514 C 247.328 0.0923777 1.60534 0
M  V30 2515 O 248.518 0.340071 1.70848 0
M  V30 2516 C 245.65 0.775451 3.31963 0
M  V30 2517 H 246.843 2.12502 2.11619 0
M  V30 2518 H 244.396 1.13366 1.07601 0
M  V30 2519 H 245.131 -0.189671 3.23745 0
M  V30 2520 H 244.916 1.54668 3.60306 0
M  V30 2521 H 246.406 0.700251 4.11687 0
M  V30 2522 N 246.843 -1.10192 1.12674 0
M  V30 2523 C 247.79 -2.16606 0.796906 0
M  V30 2524 C 248.76 -1.64394 -0.237476 0
M  V30 2525 O 249.945 -1.90474 -0.111484 0
M  V30 2526 C 247.085 -3.44116 0.26043 0
M  V30 2527 C 246.198 -4.10268 1.35293 0
M  V30 2528 C 245.333 -5.25507 0.775621 0
M  V30 2529 C 244.372 -5.83567 1.84706 0
M  V30 2530 N 243.509 -6.90179 1.28829 0
M  V30 2531 H 248.349 -2.44163 1.70846 0
M  V30 2532 H 245.886 -1.19846 0.85295 0
M  V30 2533 H 247.844 -4.17143 -0.0686814 0
M  V30 2534 H 246.474 -3.16901 -0.614274 0
M  V30 2535 H 245.526 -3.35184 1.79877 0
M  V30 2536 H 246.838 -4.4946 2.16303 0
M  V30 2537 H 245.992 -6.05398 0.397327 0
M  V30 2538 H 244.731 -4.87656 -0.0656581 0
M  V30 2539 H 243.736 -5.02344 2.23452 0
M  V30 2540 H 244.961 -6.23482 2.69161 0
M  V30 2541 H 242.907 -6.54322 0.468881 0
M  V30 2542 H 242.824 -7.28097 2.03497 0
M  V30 2543 H 244.092 -7.73844 0.937311 0
M  V30 2544 N 248.321 -0.919034 -1.28029 0
M  V30 2545 C 249.568 -0.554934 -1.94748 0
M  V30 2546 C 249.896 0.90231 -1.72304 0
M  V30 2547 O 249.151 1.65767 -1.04018 0
M  V30 2548 C 249.45 -0.816855 -3.4794 0
M  V30 2549 C 249.116 -2.25448 -3.90492 0
M  V30 2550 C 247.778 -2.64752 -4.01821 0
M  V30 2551 C 250.13 -3.18977 -4.12193 0
M  V30 2552 C 247.458 -3.96727 -4.32232 0
M  V30 2553 C 249.81 -4.50523 -4.44086 0
M  V30 2554 C 248.474 -4.89673 -4.53626 0
M  V30 2555 H 247.744 -0.203065 -0.712633 0
M  V30 2556 H 250.391 -1.16136 -1.52265 0
M  V30 2557 H 248.696 -0.127677 -3.91592 0
M  V30 2558 H 250.393 -0.514238 -3.97689 0
M  V30 2559 H 246.983 -1.93952 -3.82205 0
M  V30 2560 H 251.167 -2.89817 -4.02889 0
M  V30 2561 H 246.423 -4.26754 -4.37825 0
M  V30 2562 H 250.597 -5.23005 -4.59825 0
M  V30 2563 H 248.224 -5.91969 -4.76946 0
M  V30 2564 N 249.799 1.42003 -0.683588 0
M  V30 2565 C 251.048 2.00638 -0.206681 0
M  V30 2566 C 251.361 1.5472 1.19671 0
M  V30 2567 O 252.567 2.05833 1.77045 0
M  V30 2568 C 251.023 3.58487 -0.318632 0
M  V30 2569 C 250.631 4.1339 -1.72663 0
M  V30 2570 C 252.375 4.24384 0.0991141 0
M  V30 2571 C 250.282 5.63633 -1.79087 0
M  V30 2572 H 249.212 0.750408 -0.0735107 0
M  V30 2573 H 251.863 1.62624 -0.850048 0
M  V30 2574 H 250.245 3.94047 0.392781 0
M  V30 2575 H 251.419 3.89273 -2.46583 0
M  V30 2576 H 249.734 3.59976 -2.09299 0
M  V30 2577 H 252.331 5.34652 0.0713833 0
M  V30 2578 H 252.674 4.00505 1.13586 0
M  V30 2579 H 253.207 3.93816 -0.561599 0
M  V30 2580 H 249.946 5.92323 -2.80774 0
M  V30 2581 H 249.466 5.89714 -1.09535 0
M  V30 2582 H 251.145 6.28201 -1.5483 0
M  V30 2583 N 251.277 0.427512 1.51691 0
M  V30 2584 C 252.209 -0.424521 2.25234 0
M  V30 2585 C 253.222 -0.994671 1.2888 0
M  V30 2586 O 254.411 -0.890483 1.54702 0
M  V30 2587 C 251.511 -1.60479 2.98496 0
M  V30 2588 C 250.684 -1.15527 4.21868 0
M  V30 2589 C 249.743 -2.20454 4.77793 0
M  V30 2590 O 248.769 -1.8029 5.39893 0
M  V30 2591 N 249.971 -3.52831 4.60967 0
M  V30 2592 H 252.736 0.205749 2.98993 0
M  V30 2593 H 250.297 0.255867 1.59865 0
M  V30 2594 H 252.289 -2.30276 3.32799 0
M  V30 2595 H 250.859 -2.14061 2.27809 0
M  V30 2596 H 250.079 -0.284736 3.9317 0
M  V30 2597 H 251.367 -0.832173 5.01949 0
M  V30 2598 H 250.765 -3.88201 4.11481 0
M  V30 2599 H 249.322 -4.18551 4.99658 0
M  V30 2600 N 252.755 -1.56801 0.158532 0
M  V30 2601 C 253.98 -2.01295 -0.499516 0
M  V30 2602 C 254.405 -1.03799 -1.56867 0
M  V30 2603 O 253.763 -0.0155162 -1.81293 0
M  V30 2604 C 253.811 -3.44469 -1.06647 0
M  V30 2605 O 252.915 -3.50012 -2.18095 0
M  V30 2606 H 252.256 -0.652884 -0.12099 0
M  V30 2607 H 254.786 -2.02958 0.258661 0
M  V30 2608 H 254.796 -3.8351 -1.39227 0
M  V30 2609 H 253.471 -4.14932 -0.283581 0
M  V30 2610 H 252.048 -3.22822 -1.86656 0
M  V30 2611 N 254.233 0.115231 -1.57178 0
M  V30 2612 C 255.165 1.16694 -1.97269 0
M  V30 2613 C 256.178 1.37445 -0.872502 0
M  V30 2614 O 257.367 1.36454 -1.15077 0
M  V30 2615 C 254.467 2.52627 -2.25905 0
M  V30 2616 C 253.64 2.52427 -3.57211 0
M  V30 2617 C 252.699 3.70134 -3.74016 0
M  V30 2618 O 251.725 3.53546 -4.46087 0
M  V30 2619 N 252.927 4.88844 -3.13068 0
M  V30 2620 H 255.692 0.82588 -2.88096 0
M  V30 2621 H 253.253 0.304461 -1.59011 0
M  V30 2622 H 255.245 3.29937 -2.34359 0
M  V30 2623 H 253.815 2.789 -1.41186 0
M  V30 2624 H 253.035 1.60805 -3.5991 0
M  V30 2625 H 254.323 2.49353 -4.43509 0
M  V30 2626 H 253.721 5.05225 -2.54489 0
M  V30 2627 H 252.278 5.63817 -3.27037 0
M  V30 2628 N 255.711 1.52812 0.385517 0
M  V30 2629 C 256.988 1.5861 1.14465 0
M  V30 2630 C 257.368 0.381402 2.07626 0
M  V30 2631 O 256.716 -0.629999 2.19643 0
M  V30 2632 C 256.926 2.92664 1.90128 0
M  V30 2633 C 258.274 3.46526 2.45367 0
M  V30 2634 O 259.298 2.94562 2.0028 0
M  V30 2635 O 258.157 4.37323 3.27736 0
M  V30 2636 H 255.251 0.639855 0.523941 0
M  V30 2637 H 257.797 1.65149 0.390389 0
M  V30 2638 H 256.569 3.71788 1.22022 0
M  V30 2639 H 256.192 2.89527 2.72507 0
M  V30 2640 N 257.189 -0.644168 1.43834 0
M  V30 2641 C 258.419 -1.42939 1.49171 0
M  V30 2642 C 258.827 -1.88874 0.111048 0
M  V30 2643 O 258.17 -1.60656 -0.8908 0
M  V30 2644 C 258.232 -2.69151 2.38324 0
M  V30 2645 C 257.896 -2.45097 3.85715 0
M  V30 2646 C 258.893 -2.07747 4.76589 0
M  V30 2647 C 256.578 -2.59141 4.30292 0
M  V30 2648 C 258.572 -1.8475 6.10038 0
M  V30 2649 C 256.259 -2.35759 5.63792 0
M  V30 2650 C 257.257 -1.9862 6.53482 0
M  V30 2651 O 256.945 -1.75489 7.84512 0
M  V30 2652 H 256.677 -0.445271 0.508635 0
M  V30 2653 H 259.231 -0.79621 1.8934 0
M  V30 2654 H 257.461 -3.3506 1.93058 0
M  V30 2655 H 259.15 -3.31123 2.3476 0
M  V30 2656 H 259.916 -1.96465 4.43426 0
M  V30 2657 H 255.795 -2.87022 3.60749 0
M  V30 2658 H 259.339 -1.55686 6.80006 0
M  V30 2659 H 255.236 -2.46646 5.9652 0
M  V30 2660 H 256.004 -1.89841 7.9618 0
M  V30 2661 N 258.668 -1.30515 -0.883378 0
M  V30 2662 C 259.6 -1.12846 -1.99496 0
M  V30 2663 C 260.613 -0.0712571 -1.62644 0
M  V30 2664 O 261.802 -0.317432 -1.75655 0
M  V30 2665 C 258.902 -0.699123 -3.3161 0
M  V30 2666 C 258.075 -1.83842 -3.96889 0
M  V30 2667 C 257.134 -1.39737 -5.07307 0
M  V30 2668 O 256.16 -2.10485 -5.28852 0
M  V30 2669 N 257.362 -0.277279 -5.79837 0
M  V30 2670 H 260.127 -2.08585 -2.15203 0
M  V30 2671 H 257.688 -1.22672 -1.05656 0
M  V30 2672 H 259.68 -0.387044 -4.02845 0
M  V30 2673 H 258.25 0.166276 -3.12157 0
M  V30 2674 H 257.47 -2.31853 -3.18807 0
M  V30 2675 H 258.758 -2.60187 -4.37241 0
M  V30 2676 H 258.156 0.3122 -5.64838 0
M  V30 2677 H 256.713 -0.0246623 -6.51795 0
M  V30 2678 N 260.146 1.09593 -1.13257 0
M  V30 2679 C 261.386 1.83349 -0.903472 0
M  V30 2680 C 261.75 1.83641 0.560351 0
M  V30 2681 O 262.951 2.53037 0.906947 0
M  V30 2682 C 261.222 3.25629 -1.47311 0
M  V30 2683 S 262.781 4.16408 -1.38382 0
M  V30 2684 H 259.599 0.632014 -0.325699 0
M  V30 2685 H 262.201 1.31817 -1.44376 0
M  V30 2686 H 260.905 3.22991 -2.53189 0
M  V30 2687 H 260.436 3.82233 -0.930689 0
M  V30 2688 H 262.451 4.94884 -0.361113 0
M  V30 2689 N 261.624 0.925811 1.2754 0
M  V30 2690 C 262.849 0.580924 1.99098 0
M  V30 2691 C 263.274 -0.833555 1.68622 0
M  V30 2692 O 262.632 -1.55903 0.925422 0
M  V30 2693 C 262.68 0.811186 3.51358 0
M  V30 2694 O 261.784 -0.124129 4.12213 0
M  V30 2695 H 261.125 0.223873 0.625122 0
M  V30 2696 H 263.655 1.24455 1.62395 0
M  V30 2697 H 263.665 0.72601 4.01489 0
M  V30 2698 H 262.34 1.84227 3.72872 0
M  V30 2699 H 260.917 0.0108006 3.72898 0
M  V30 2700 N 263.102 -1.41638 0.69111 0
M  V30 2701 C 264.065 -2.29178 0.0319786 0
M  V30 2702 C 265.065 -1.44153 -0.712496 0
M  V30 2703 O 266.255 -1.65354 -0.548053 0
M  V30 2704 C 263.387 -3.26952 -0.965161 0
M  V30 2705 H 264.58 -2.88959 0.802681 0
M  V30 2706 H 262.133 -1.4955 0.454356 0
M  V30 2707 H 262.868 -2.72142 -1.76378 0
M  V30 2708 H 262.653 -3.89685 -0.434522 0
M  V30 2709 H 264.143 -3.92561 -1.42428 0
M  V30 2710 N 264.58 -0.43555 -1.51462 0
M  V30 2711 C 265.51 0.367376 -2.30592 0
M  V30 2712 C 266.491 1.02263 -1.35928 0
M  V30 2713 O 267.676 1.02661 -1.64847 0
M  V30 2714 C 264.806 1.46983 -3.14664 0
M  V30 2715 C 263.76 0.938161 -4.17591 0
M  V30 2716 C 263.086 2.13622 -4.90173 0
M  V30 2717 C 264.386 -0.0261621 -5.22293 0
M  V30 2718 H 266.08 -0.292969 -2.97963 0
M  V30 2719 H 263.626 -0.14234 -1.43295 0
M  V30 2720 H 265.579 2.03873 -3.688 0
M  V30 2721 H 264.303 2.15843 -2.4511 0
M  V30 2722 H 262.962 0.391481 -3.64504 0
M  V30 2723 H 262.61 2.81098 -4.17124 0
M  V30 2724 H 262.31 1.78688 -5.59772 0
M  V30 2725 H 263.834 2.7107 -5.47132 0
M  V30 2726 H 265.248 0.452384 -5.71512 0
M  V30 2727 H 263.645 -0.287992 -5.99409 0
M  V30 2728 H 264.715 -0.963391 -4.75233 0
M  V30 2729 N 266.058 1.56714 -0.166846 0
M  V30 2730 C 266.991 2.13577 0.80375 0
M  V30 2731 C 267.969 1.06464 1.22899 0
M  V30 2732 O 269.153 1.34413 1.32157 0
M  V30 2733 C 266.28 2.67168 2.0818 0
M  V30 2734 C 265.326 3.86612 1.80093 0
M  V30 2735 S 266.159 5.26565 0.97416 0
M  V30 2736 C 267.315 5.83558 2.26297 0
M  V30 2737 H 267.548 2.9557 0.320267 0
M  V30 2738 H 265.081 1.54326 0.0477555 0
M  V30 2739 H 267.039 2.98692 2.8159 0
M  V30 2740 H 265.7 1.85269 2.53642 0
M  V30 2741 H 264.893 4.22422 2.7491 0
M  V30 2742 H 264.495 3.55951 1.14781 0
M  V30 2743 H 266.787 5.962 3.21795 0
M  V30 2744 H 267.73 6.80731 1.94962 0
M  V30 2745 H 268.138 5.11944 2.37853 0
M  V30 2746 N 267.536 -0.106894 1.57237 0
M  V30 2747 C 268.784 -0.810921 1.85117 0
M  V30 2748 C 269.105 -1.7984 0.753827 0
M  V30 2749 O 268.375 -1.94649 -0.221056 0
M  V30 2750 H 266.955 -0.302466 0.683025 0
M  V30 2751 H 269.617 -0.0913324 1.94686 0
M  V30 2752 H 268.713 -1.34875 2.81452 0
M  V30 2753 N 269.014 -1.53014 -0.377408 0
M  V30 2754 C 270.262 -1.6829 -1.11906 0
M  V30 2755 C 270.583 -0.431206 -1.90173 0
M  V30 2756 O 269.853 0.554595 -1.87886 0
M  V30 2757 H 268.433 -0.620371 -0.416112 0
M  V30 2758 H 271.095 -1.90167 -0.426893 0
M  V30 2759 H 270.191 -2.53862 -1.8155 0
M  V30 2760 N 270.492 0.636531 -1.44174 0
M  V30 2761 C 271.908 0.954104 -1.27941 0
M  V30 2762 C 272.108 2.0039 -0.211248 0
M  V30 2763 O 271.164 2.49236 0.404695 0
M  V30 2764 C 272.477 1.4225 -2.64925 0
M  V30 2765 C 274.025 1.53827 -2.72592 0
M  V30 2766 C 274.5 2.04053 -4.10032 0
M  V30 2767 N 275.991 2.11331 -4.12182 0
M  V30 2768 C 276.726 2.51352 -5.15374 0
M  V30 2769 N 276.222 2.90549 -6.2893 0
M  V30 2770 N 278.015 2.51438 -5.02728 0
M  V30 2771 H 270.166 -0.0578386 -2.12321 0
M  V30 2772 H 272.429 0.0367406 -0.947288 0
M  V30 2773 H 272.135 0.725466 -3.44136 0
M  V30 2774 H 272.009 2.39451 -2.9145 0
M  V30 2775 H 274.396 2.22628 -1.93702 0
M  V30 2776 H 274.477 0.550154 -2.49814 0
M  V30 2777 H 274.121 1.35848 -4.89395 0
M  V30 2778 H 274.051 3.03726 -4.30184 0
M  V30 2779 H 276.542 1.83745 -3.30222 0
M  V30 2780 H 276.855 3.19884 -7.03487 0
M  V30 2781 H 275.2 2.88313 -6.32377 0
M  V30 2782 H 278.391 2.20203 -4.13072 0
M  V30 2783 H 278.564 2.82304 -5.83274 0
M  V30 2784 N 271.97 1.30982 0.876444 0
M  V30 2785 C 272.917 1.18085 1.98304 0
M  V30 2786 C 273.887 0.0682263 1.6596 0
M  V30 2787 O 275.072 0.239937 1.89285 0
M  V30 2788 C 272.212 0.887475 3.33493 0
M  V30 2789 C 271.325 2.08281 3.78475 0
M  V30 2790 C 270.46 1.72678 5.0235 0
M  V30 2791 C 269.499 2.88657 5.39762 0
M  V30 2792 N 268.636 2.53292 6.54819 0
M  V30 2793 H 273.476 2.1275 2.08666 0
M  V30 2794 H 271.013 1.05839 1.02159 0
M  V30 2795 H 272.971 0.697961 4.1132 0
M  V30 2796 H 271.601 -0.022315 3.22792 0
M  V30 2797 H 270.653 2.3833 2.96484 0
M  V30 2798 H 271.965 2.95108 4.02135 0
M  V30 2799 H 271.119 1.50151 5.87826 0
M  V30 2800 H 269.858 0.830327 4.8058 0
M  V30 2801 H 268.863 3.1184 4.52809 0
M  V30 2802 H 270.088 3.79002 5.63502 0
M  V30 2803 H 268.034 1.66163 6.34607 0
M  V30 2804 H 267.951 3.3365 6.7839 0
M  V30 2805 H 269.219 2.34143 7.43503 0
M  V30 2806 N 273.449 -1.08991 1.13837 0
M  V30 2807 C 274.695 -1.81526 0.90422 0
M  V30 2808 C 275.028 -1.85706 -0.568066 0
M  V30 2809 O 274.303 -1.32855 -1.42056 0
M  V30 2810 C 274.586 -3.27447 1.49835 0
M  V30 2811 C 274.439 -3.31512 3.04006 0
M  V30 2812 C 275.758 -4.24256 1.17025 0
M  V30 2813 H 272.877 -0.659029 0.329923 0
M  V30 2814 H 275.519 -1.27644 1.40737 0
M  V30 2815 H 273.669 -3.73462 1.07044 0
M  V30 2816 H 275.341 -2.93867 3.55584 0
M  V30 2817 H 273.584 -2.70963 3.38765 0
M  V30 2818 H 274.255 -4.34329 3.40679 0
M  V30 2819 H 276.731 -3.86549 1.54009 0
M  V30 2820 H 275.607 -5.24684 1.61237 0
M  V30 2821 H 275.868 -4.42019 0.0846274 0
M  V30 2822 N 274.927 -0.932562 -1.27047 0
M  V30 2823 C 275.86 -0.379774 -2.25018 0
M  V30 2824 C 276.838 0.526587 -1.53837 0
M  V30 2825 O 278.022 0.465992 -1.82649 0
M  V30 2826 C 275.149 0.455187 -3.35627 0
M  V30 2827 C 274.195 -0.388428 -4.24728 0
M  V30 2828 S 275.028 -1.80701 -5.04091 0
M  V30 2829 C 276.184 -0.979865 -6.18182 0
M  V30 2830 H 276.417 -1.2101 -2.71558 0
M  V30 2831 H 273.95 -0.735078 -1.35779 0
M  V30 2832 H 275.908 0.931052 -3.99802 0
M  V30 2833 H 274.569 1.26009 -2.87716 0
M  V30 2834 H 273.762 0.25089 -5.03375 0
M  V30 2835 H 273.364 -0.798649 -3.65373 0
M  V30 2836 H 275.656 -0.218115 -6.77149 0
M  V30 2837 H 276.599 -1.73951 -6.86401 0
M  V30 2838 H 277.007 -0.51973 -5.62102 0
M  V30 2839 N 276.405 1.4127 -0.698611 0
M  V30 2840 C 277.63 2.06024 -0.238512 0
M  V30 2841 C 278.055 1.5224 1.10475 0
M  V30 2842 O 277.413 0.650623 1.69223 0
M  V30 2843 C 277.461 3.59988 -0.209952 0
M  V30 2844 O 276.565 4.04282 0.814235 0
M  V30 2845 H 275.906 0.653829 -0.115775 0
M  V30 2846 H 278.436 1.8098 -0.954326 0
M  V30 2847 H 278.446 4.07979 -0.0418436 0
M  V30 2848 H 277.121 3.98503 -1.1903 0
M  V30 2849 H 275.698 3.6779 0.615234 0
M  V30 2850 N 277.883 0.443576 1.51229 0
M  V30 2851 C 279.132 -0.122332 2.01329 0
M  V30 2852 C 279.445 -1.43237 1.33201 0
M  V30 2853 O 280.651 -2.0816 1.74304 0
M  V30 2854 C 279.107 -0.268551 3.58897 0
M  V30 2855 C 278.715 1.03142 4.35965 0
M  V30 2856 C 280.459 -0.787894 4.17124 0
M  V30 2857 C 278.366 0.850504 5.85252 0
M  V30 2858 H 277.296 -0.0494929 0.752374 0
M  V30 2859 H 279.947 0.574289 1.74282 0
M  V30 2860 H 278.329 -1.02832 3.82415 0
M  V30 2861 H 279.503 1.80001 4.24189 0
M  V30 2862 H 277.818 1.47977 3.89219 0
M  V30 2863 H 280.415 -0.939841 5.26375 0
M  V30 2864 H 280.758 -1.77201 3.76703 0
M  V30 2865 H 281.291 -0.0862669 3.97706 0
M  V30 2866 H 278.03 1.80718 6.30096 0
M  V30 2867 H 277.55 0.121825 5.99676 0
M  V30 2868 H 279.229 0.506163 6.45017 0
M  V30 2869 N 279.361 -1.56624 0.175154 0
M  V30 2870 C 280.586 -2.01813 -0.478137 0
M  V30 2871 C 281.011 -1.05457 -1.55757 0
M  V30 2872 O 280.369 -0.0347439 -1.81267 0
M  V30 2873 C 280.417 -3.45581 -1.02987 0
M  V30 2874 O 279.521 -3.52305 -2.14371 0
M  V30 2875 H 278.862 -0.65413 -0.114059 0
M  V30 2876 H 281.392 -2.02673 0.280173 0
M  V30 2877 H 281.402 -3.84965 -1.35151 0
M  V30 2878 H 280.077 -4.1521 -0.239556 0
M  V30 2879 H 278.654 -3.24783 -1.83222 0
M  V30 2880 N 280.839 0.0985539 -1.57292 0
M  V30 2881 C 282.088 0.801358 -1.85098 0
M  V30 2882 C 282.401 1.80066 -0.763902 0
M  V30 2883 O 283.607 2.55112 -0.928981 0
M  V30 2884 C 282.063 1.47599 -3.28242 0
M  V30 2885 C 281.671 0.516624 -4.45011 0
M  V30 2886 C 283.415 2.16272 -3.65276 0
M  V30 2887 C 281.322 1.19564 -5.79188 0
M  V30 2888 H 280.252 0.303022 -0.69043 0
M  V30 2889 H 282.903 0.0542623 -1.8342 0
M  V30 2890 H 281.285 2.27042 -3.2445 0
M  V30 2891 H 282.459 -0.246065 -4.60143 0
M  V30 2892 H 280.774 -0.064227 -4.1635 0
M  V30 2893 H 283.371 2.67802 -4.62803 0
M  V30 2894 H 283.714 2.95009 -2.93727 0
M  V30 2895 H 284.247 1.43693 -3.70941 0
M  V30 2896 H 280.986 0.449157 -6.53959 0
M  V30 2897 H 280.506 1.92984 -5.67906 0
M  V30 2898 H 282.185 1.7231 -6.23633 0
M  V30 2899 N 282.317 1.53212 0.369288 0
M  V30 2900 C 283.733 1.42902 0.710712 0
M  V30 2901 C 283.933 0.565135 1.93413 0
M  V30 2902 O 282.989 0.0461484 2.52458 0
M  V30 2903 C 284.302 2.86042 0.927382 0
M  V30 2904 C 285.85 2.9565 1.02762 0
M  V30 2905 C 286.325 4.39843 1.27679 0
M  V30 2906 N 287.816 4.43256 1.34457 0
M  V30 2907 C 288.551 5.51929 1.55439 0
M  V30 2908 N 288.047 6.70655 1.73762 0
M  V30 2909 N 289.84 5.39502 1.57779 0
M  V30 2910 H 281.991 2.07888 -0.435457 0
M  V30 2911 H 284.254 0.938661 -0.132739 0
M  V30 2912 H 283.96 3.51557 0.100287 0
M  V30 2913 H 283.834 3.29472 1.83653 0
M  V30 2914 H 286.221 2.30291 1.84527 0
M  V30 2915 H 286.302 2.5562 0.0959504 0
M  V30 2916 H 285.946 5.05774 0.464175 0
M  V30 2917 H 285.876 4.77443 2.22162 0
M  V30 2918 H 288.367 3.5769 1.21926 0
M  V30 2919 H 288.68 7.49248 1.89335 0
M  V30 2920 H 287.025 6.73648 1.70948 0
M  V30 2921 H 290.216 4.45713 1.43029 0
M  V30 2922 H 290.389 6.2426 1.7379 0
M  V30 2923 N 283.795 -0.628877 1.44509 0
M  V30 2924 C 284.725 -1.75187 1.54376 0
M  V30 2925 C 285.706 -1.65411 0.396618 0
M  V30 2926 O 286.891 -1.84137 0.617031 0
M  V30 2927 C 284.021 -3.13725 1.48976 0
M  V30 2928 C 282.975 -3.38291 2.62189 0
M  V30 2929 C 282.301 -4.76883 2.41841 0
M  V30 2930 C 283.601 -3.30632 4.04326 0
M  V30 2931 H 285.295 -1.67187 2.48373 0
M  V30 2932 H 282.841 -0.802909 1.19538 0
M  V30 2933 H 284.794 -3.92064 1.54478 0
M  V30 2934 H 283.518 -3.22515 0.514961 0
M  V30 2935 H 282.177 -2.62334 2.56079 0
M  V30 2936 H 281.825 -4.82378 1.42548 0
M  V30 2937 H 281.525 -4.94278 3.17747 0
M  V30 2938 H 283.049 -5.57449 2.49165 0
M  V30 2939 H 284.463 -3.98873 4.11793 0
M  V30 2940 H 282.86 -3.59561 4.80454 0
M  V30 2941 H 283.93 -2.28404 4.27738 0
M  V30 2942 N 285.273 -1.31445 -0.869486 0
M  V30 2943 C 286.22 -1.19135 -1.97675 0
M  V30 2944 C 287.19 -0.0770266 -1.65921 0
M  V30 2945 O 288.375 -0.249972 -1.89155 0
M  V30 2946 C 285.515 -0.905149 -3.33018 0
M  V30 2947 C 284.628 -2.10285 -3.77365 0
M  V30 2948 C 283.763 -1.75339 -5.01427 0
M  V30 2949 C 282.802 -2.91515 -5.38224 0
M  V30 2950 N 281.939 -2.56762 -6.53466 0
M  V30 2951 H 286.779 -2.13853 -2.07535 0
M  V30 2952 H 284.316 -1.06379 -1.01597 0
M  V30 2953 H 286.274 -0.719765 -4.10944 0
M  V30 2954 H 284.904 0.00519624 -3.228 0
M  V30 2955 H 283.956 -2.39899 -2.95216 0
M  V30 2956 H 285.268 -2.97237 -4.00564 0
M  V30 2957 H 284.422 -1.53266 -5.87022 0
M  V30 2958 H 283.161 -0.855801 -4.80133 0
M  V30 2959 H 282.166 -3.14237 -4.51149 0
M  V30 2960 H 283.391 -3.81985 -5.61484 0
M  V30 2961 H 281.337 -1.69526 -6.33717 0
M  V30 2962 H 281.254 -3.37243 -6.76612 0
M  V30 2963 H 282.522 -2.38083 -7.42251 0
M  V30 2964 N 286.751 1.08385 -1.14413 0
M  V30 2965 C 287.997 1.81044 -0.913834 0
M  V30 2966 C 288.33 1.86004 0.558209 0
M  V30 2967 O 287.605 1.33606 1.4135 0
M  V30 2968 C 287.888 3.26648 -1.51569 0
M  V30 2969 C 287.741 3.29895 -3.0576 0
M  V30 2970 C 289.06 4.23629 -1.19273 0
M  V30 2971 H 286.179 0.65727 -0.333414 0
M  V30 2972 H 288.821 1.26896 -1.41412 0
M  V30 2973 H 286.971 3.72889 -1.09023 0
M  V30 2974 H 288.643 2.91977 -3.57137 0
M  V30 2975 H 286.886 2.69163 -3.40197 0
M  V30 2976 H 287.557 4.32516 -3.42977 0
M  V30 2977 H 290.033 3.85727 -1.56057 0
M  V30 2978 H 288.909 5.23822 -1.64017 0
M  V30 2979 H 289.17 4.41968 -0.108068 0
M  V30 2980 N 288.23 0.939286 1.26551 0
M  V30 2981 C 289.162 0.404704 2.25599 0
M  V30 2982 C 290.175 -0.470983 1.55838 0
M  V30 2983 O 291.364 -0.281734 1.76263 0
M  V30 2984 C 288.464 -0.43764 3.36062 0
M  V30 2985 C 287.637 0.421449 4.35365 0
M  V30 2986 C 286.696 -0.36015 5.24966 0
M  V30 2987 O 285.722 0.236167 5.6871 0
M  V30 2988 N 286.924 -1.65715 5.56344 0
M  V30 2989 H 289.689 1.25618 2.72103 0
M  V30 2990 H 287.25 0.807963 1.40298 0
M  V30 2991 H 289.242 -0.967866 3.92956 0
M  V30 2992 H 287.812 -1.18991 2.89067 0
M  V30 2993 H 287.032 1.1329 3.7757 0
M  V30 2994 H 288.32 1.00835 4.98708 0
M  V30 2995 H 287.718 -2.16378 5.22682 0
M  V30 2996 H 286.275 -2.13366 6.15888 0
M  V30 2997 N 289.708 -1.40897 0.706093 0
M  V30 2998 C 290.655 -2.30751 0.0474474 0
M  V30 2999 C 291.625 -1.47678 -0.76029 0
M  V30 3000 O 292.81 -1.76441 -0.726177 0
M  V30 3001 C 289.95 -3.33815 -0.875309 0
M  V30 3002 C 289.063 -4.31961 -0.0580623 0
M  V30 3003 C 288.198 -5.22093 -0.979425 0
M  V30 3004 C 287.237 -6.11902 -0.155706 0
M  V30 3005 N 286.374 -6.94482 -1.03144 0
M  V30 3006 H 291.214 -2.86513 0.819413 0
M  V30 3007 H 288.751 -1.41102 0.415783 0
M  V30 3008 H 290.709 -3.92129 -1.42446 0
M  V30 3009 H 289.339 -2.79579 -1.61356 0
M  V30 3010 H 288.391 -3.75507 0.608147 0
M  V30 3011 H 289.703 -4.95415 0.580082 0
M  V30 3012 H 288.857 -5.85292 -1.59744 0
M  V30 3013 H 287.596 -4.5889 -1.65141 0
M  V30 3014 H 286.601 -5.47742 0.475309 0
M  V30 3015 H 287.826 -6.77162 0.512635 0
M  V30 3016 H 285.772 -6.33877 -1.68924 0
M  V30 3017 H 285.689 -7.54665 -0.449108 0
M  V30 3018 H 286.957 -7.6214 -1.63593 0
M  V30 3019 N 291.186 -0.45159 -1.50991 0
M  V30 3020 C 292.432 0.110237 -2.025 0
M  V30 3021 C 292.765 1.41109 -1.33424 0
M  V30 3022 O 292.04 1.89135 -0.453659 0
M  V30 3023 C 292.323 0.314271 -3.58726 0
M  V30 3024 C 292.176 -1.00623 -4.38401 0
M  V30 3025 C 293.495 1.07767 -4.26702 0
M  V30 3026 H 290.614 0.0385897 -0.735989 0
M  V30 3027 H 293.256 -0.593374 -1.80497 0
M  V30 3028 H 291.406 0.913601 -3.77605 0
M  V30 3029 H 293.078 -1.64064 -4.31139 0
M  V30 3030 H 291.321 -1.6075 -4.02917 0
M  V30 3031 H 291.992 -0.817341 -5.45915 0
M  V30 3032 H 294.468 0.56986 -4.12179 0
M  V30 3033 H 293.344 1.18921 -5.35863 0
M  V30 3034 H 293.605 2.10939 -3.88532 0
M  V30 3035 N 292.664 1.56529 -0.183458 0
M  V30 3036 C 293.913 1.96419 0.458511 0
M  V30 3037 C 294.226 1.0727 1.63562 0
M  V30 3038 O 295.432 1.36893 2.34462 0
M  V30 3039 C 293.888 3.49298 0.867122 0
M  V30 3040 C 293.496 4.47092 -0.285057 0
M  V30 3041 C 295.24 3.97983 1.47683 0
M  V30 3042 C 293.147 5.91225 0.143862 0
M  V30 3043 H 292.077 0.733394 0.175071 0
M  V30 3044 H 294.728 1.81448 -0.273624 0
M  V30 3045 H 293.11 3.59731 1.65559 0
M  V30 3046 H 294.284 4.48383 -1.0625 0
M  V30 3047 H 292.599 4.08535 -0.805503 0
M  V30 3048 H 295.196 5.03134 1.80999 0
M  V30 3049 H 295.539 3.41618 2.37914 0
M  V30 3050 H 296.072 3.90617 0.752562 0
M  V30 3051 H 292.811 6.5149 -0.723974 0
M  V30 3052 H 292.331 5.93214 0.886413 0
M  V30 3053 H 294.01 6.44362 0.583628 0
M  V30 3054 N 294.142 -0.090211 1.57342 0
M  V30 3055 C 295.553 -0.644173 1.75235 0
M  V30 3056 C 295.904 -1.78865 0.806335 0
M  V30 3057 O 295.029 -2.16395 -0.0140128 0
M  V30 3058 C 295.624 -1.17532 3.1776 0
M  V30 3059 C 294.183 -1.67531 3.37061 0
M  V30 3060 C 293.33 -0.58693 2.71017 0
M  V30 3061 H 296.281 0.135884 1.58117 0
M  V30 3062 H 296.302 -2.04455 3.20902 0
M  V30 3063 H 295.814 -0.342138 3.86589 0
M  V30 3064 H 293.915 -2.53234 2.73319 0
M  V30 3065 H 294.028 -1.76493 4.45406 0
M  V30 3066 H 292.392 -1.02756 2.33052 0
M  V30 3067 H 293.175 0.235758 3.4249 0
M  V30 3068 N 295.62 -1.53406 -0.361157 0
M  V30 3069 C 296.868 -1.69467 -1.10115 0
M  V30 3070 C 297.189 -0.451352 -1.89705 0
M  V30 3071 O 296.459 0.534636 -1.88463 0
M  V30 3072 H 295.039 -0.624749 -0.409508 0
M  V30 3073 H 297.701 -1.90609 -0.406699 0
M  V30 3074 H 296.797 -2.55774 -1.78847 0
M  V30 3075 N 297.098 0.621204 -1.44841 0
M  V30 3076 C 298.509 1.20298 -1.42777 0
M  V30 3077 C 298.86 1.95639 -0.148259 0
M  V30 3078 O 297.985 2.02955 0.750892 0
M  V30 3079 C 298.58 2.1882 -2.58657 0
M  V30 3080 C 297.139 2.72403 -2.59756 0
M  V30 3081 C 296.286 1.4757 -2.34773 0
M  V30 3082 H 299.237 0.411297 -1.53278 0
M  V30 3083 H 299.258 3.01607 -2.31977 0
M  V30 3084 H 298.77 1.63957 -3.51766 0
M  V30 3085 H 296.871 3.31242 -1.70615 0
M  V30 3086 H 296.984 3.17765 -3.58556 0
M  V30 3087 H 295.348 1.76051 -1.8406 0
M  V30 3088 H 296.131 0.945954 -3.3001 0
M  V30 3089 N 298.576 1.31904 0.862503 0
M  V30 3090 C 299.987 1.19803 1.43193 0
M  V30 3091 C 300.338 -0.192567 1.95253 0
M  V30 3092 O 299.463 -1.09081 1.86896 0
M  V30 3093 C 300.058 2.16883 2.60283 0
M  V30 3094 C 298.617 2.08692 3.13248 0
M  V30 3095 C 297.764 2.05691 1.85975 0
M  V30 3096 H 300.715 1.43846 0.670365 0
M  V30 3097 H 300.736 1.76278 3.37204 0
M  V30 3098 H 300.248 3.18083 2.22363 0
M  V30 3099 H 298.349 1.10713 3.55771 0
M  V30 3100 H 298.462 2.9815 3.75025 0
M  V30 3101 H 296.826 1.50814 2.05249 0
M  V30 3102 H 297.609 3.08659 1.50282 0
M  V30 3103 N 300.054 -1.07777 1.14986 0
M  V30 3104 C 301.017 -2.13041 0.845358 0
M  V30 3105 C 302.017 -1.60071 -0.152931 0
M  V30 3106 O 303.207 -1.74033 0.0761879 0
M  V30 3107 C 300.339 -3.39896 0.261383 0
M  V30 3108 H 301.532 -2.41485 1.77834 0
M  V30 3109 H 299.085 -1.23595 0.956757 0
M  V30 3110 H 299.82 -3.17091 -0.68 0
M  V30 3111 H 299.605 -3.79642 0.980514 0
M  V30 3112 H 301.095 -4.17548 0.0657687 0
M  V30 3113 N 301.532 -0.945985 -1.26051 0
M  V30 3114 C 302.462 -0.477172 -2.28572 0
M  V30 3115 C 303.443 0.472032 -1.63419 0
M  V30 3116 O 304.628 0.372853 -1.90587 0
M  V30 3117 C 301.758 0.253975 -3.4637 0
M  V30 3118 C 300.712 -0.609135 -4.23643 0
M  V30 3119 C 300.038 0.252252 -5.34105 0
M  V30 3120 C 301.338 -1.8829 -4.8718 0
M  V30 3121 H 303.032 -1.33402 -2.68038 0
M  V30 3122 H 300.578 -0.642904 -1.28852 0
M  V30 3123 H 302.531 0.593016 -4.17207 0
M  V30 3124 H 301.255 1.145 -3.05871 0
M  V30 3125 H 299.914 -0.931138 -3.54578 0
M  V30 3126 H 299.562 1.14278 -4.89846 0
M  V30 3127 H 299.262 -0.32188 -5.86718 0
M  V30 3128 H 300.786 0.586454 -6.07777 0
M  V30 3129 H 302.2 -1.61081 -5.50205 0
M  V30 3130 H 300.597 -2.40199 -5.49931 0
M  V30 3131 H 301.667 -2.59134 -4.09851 0
M  V30 3132 N 303.011 1.40521 -0.713556 0
M  V30 3133 C 304.239 2.05237 -0.261775 0
M  V30 3134 C 304.654 1.53755 1.09567 0
M  V30 3135 O 304.011 0.693268 1.6882 0
M  V30 3136 C 304.062 3.60763 -0.230706 0
M  V30 3137 O 303.783 4.10345 -1.53455 0
M  V30 3138 C 305.284 4.42651 0.239874 0
M  V30 3139 H 302.504 0.660533 -0.118057 0
M  V30 3140 H 305.048 1.79967 -0.971192 0
M  V30 3141 H 303.203 3.8501 0.429661 0
M  V30 3142 H 303.617 5.04526 -1.43366 0
M  V30 3143 H 305.091 5.51599 0.210468 0
M  V30 3144 H 305.568 4.20082 1.28171 0
M  V30 3145 H 306.174 4.23507 -0.390142 0
M  V30 3146 N 304.489 0.459591 1.5075 0
M  V30 3147 C 305.419 -0.330644 2.31147 0
M  V30 3148 C 306.4 -1.00087 1.37538 0
M  V30 3149 O 307.585 -1.00025 1.66459 0
M  V30 3150 C 304.715 -1.41958 3.16962 0
M  V30 3151 C 303.669 -0.871608 4.19031 0
M  V30 3152 C 302.995 -2.05797 4.9351 0
M  V30 3153 C 304.295 0.109251 5.22186 0
M  V30 3154 H 305.989 0.340336 2.97459 0
M  V30 3155 H 303.535 0.165119 1.4305 0
M  V30 3156 H 305.488 -1.9798 3.71997 0
M  V30 3157 H 304.212 -2.11917 2.48513 0
M  V30 3158 H 302.871 -0.333442 3.6508 0
M  V30 3159 H 302.519 -2.74427 4.21544 0
M  V30 3160 H 302.219 -1.6976 5.62544 0
M  V30 3161 H 303.743 -2.62331 5.51375 0
M  V30 3162 H 305.157 -0.361405 5.7216 0
M  V30 3163 H 303.554 0.383316 5.98875 0
M  V30 3164 H 304.624 1.03887 4.73641 0
M  V30 3165 N 305.967 -1.56429 0.191757 0
M  V30 3166 C 307.213 -1.97777 -0.448554 0
M  V30 3167 C 307.546 -1.07847 -1.61501 0
M  V30 3168 O 306.821 -0.129774 -1.94067 0
M  V30 3169 C 307.104 -3.48362 -0.911906 0
M  V30 3170 C 306.957 -4.4907 0.256136 0
M  V30 3171 C 308.276 -4.02561 -1.77857 0
M  V30 3172 H 305.395 -0.719071 -0.161572 0
M  V30 3173 H 308.037 -1.87896 0.282007 0
M  V30 3174 H 306.187 -3.56914 -1.53442 0
M  V30 3175 H 307.859 -4.5256 0.893733 0
M  V30 3176 H 306.102 -4.24181 0.908436 0
M  V30 3177 H 306.773 -5.51889 -0.11053 0
M  V30 3178 H 309.249 -3.96767 -1.25359 0
M  V30 3179 H 308.125 -5.08301 -2.07174 0
M  V30 3180 H 308.386 -3.47616 -2.73158 0
M  V30 3181 N 307.445 0.0818655 -1.57387 0
M  V30 3182 C 308.856 0.634871 -1.75574 0
M  V30 3183 C 309.207 1.78435 -0.815809 0
M  V30 3184 O 308.332 2.164 0.0025366 0
M  V30 3185 C 308.927 1.15845 -3.18379 0
M  V30 3186 C 307.486 1.65741 -3.37945 0
M  V30 3187 C 306.633 0.572549 -2.71325 0
M  V30 3188 H 309.584 -0.144268 -1.58043 0
M  V30 3189 H 309.605 2.02751 -3.21982 0
M  V30 3190 H 309.117 0.321631 -3.86765 0
M  V30 3191 H 307.218 2.51781 -2.74658 0
M  V30 3192 H 307.331 1.74129 -4.46336 0
M  V30 3193 H 305.695 1.01518 -2.33594 0
M  V30 3194 H 306.478 -0.253918 -3.4236 0
M  V30 3195 N 308.923 1.53595 0.353017 0
M  V30 3196 C 309.886 1.80232 1.41594 0
M  V30 3197 C 310.886 0.673081 1.46035 0
M  V30 3198 O 312.076 0.941335 1.46576 0
M  V30 3199 C 309.208 1.93578 2.80607 0
M  V30 3200 H 310.401 2.75174 1.19244 0
M  V30 3201 H 307.954 1.44864 0.586872 0
M  V30 3202 H 308.689 1.00746 3.08254 0
M  V30 3203 H 308.474 2.75724 2.78781 0
M  V30 3204 H 309.964 2.15735 3.57558 0
M  V30 3205 N 310.401 -0.613514 1.45168 0
M  V30 3206 C 311.311 -1.75296 1.55912 0
M  V30 3207 C 312.327 -1.68244 0.443856 0
M  V30 3208 O 313.503 -1.88706 0.70371 0
M  V30 3209 C 310.568 -3.1174 1.5172 0
M  V30 3210 C 309.629 -3.30291 2.74238 0
M  V30 3211 C 308.862 -4.60226 2.70236 0
M  V30 3212 O 309.085 -5.42168 1.77229 0
M  V30 3213 O 308.019 -4.81361 3.61352 0
M  V30 3214 H 311.845 -1.69183 2.52212 0
M  V30 3215 H 309.43 -0.776886 1.27612 0
M  V30 3216 H 311.312 -3.93044 1.51968 0
M  V30 3217 H 309.987 -3.18357 0.585697 0
M  V30 3218 H 308.894 -2.48598 2.79553 0
M  V30 3219 H 310.227 -3.28547 3.66494 0
M  V30 3220 N 311.879 -1.3236 -0.855495 0
M  V30 3221 C 312.809 -1.23833 -1.97958 0
M  V30 3222 C 313.79 -0.122361 -1.69659 0
M  V30 3223 O 314.975 -0.30939 -1.9172 0
M  V30 3224 C 312.105 -0.959772 -3.33775 0
M  V30 3225 C 311.059 -2.03689 -3.76424 0
M  V30 3226 C 310.385 -1.61075 -5.09862 0
M  V30 3227 C 311.685 -3.4518 -3.9198 0
M  V30 3228 H 313.379 -2.1788 -2.0535 0
M  V30 3229 H 310.925 -1.04891 -0.986605 0
M  V30 3230 H 312.878 -0.886678 -4.11966 0
M  V30 3231 H 311.602 0.0163404 -3.26596 0
M  V30 3232 H 310.261 -2.10012 -3.00484 0
M  V30 3233 H 309.909 -0.622107 -4.99138 0
M  V30 3234 H 309.609 -2.33143 -5.39368 0
M  V30 3235 H 311.133 -1.55201 -5.90546 0
M  V30 3236 H 312.547 -3.4145 -4.60526 0
M  V30 3237 H 310.944 -4.1559 -4.32903 0
M  V30 3238 H 312.014 -3.84903 -2.94919 0
M  V30 3239 N 313.357 1.07166 -1.15556 0
M  V30 3240 C 314.603 1.80065 -0.932984 0
M  V30 3241 C 314.936 1.86586 0.53845 0
M  V30 3242 O 314.211 1.35098 1.39924 0
M  V30 3243 C 314.494 3.25022 -1.55025 0
M  V30 3244 C 314.347 3.26634 -3.09242 0
M  V30 3245 C 315.666 4.22341 -1.2376 0
M  V30 3246 H 312.785 0.653697 -0.340366 0
M  V30 3247 H 315.427 1.25389 -1.4275 0
M  V30 3248 H 313.577 3.71712 -1.12972 0
M  V30 3249 H 315.249 2.88173 -3.60214 0
M  V30 3250 H 313.492 2.65539 -3.43033 0
M  V30 3251 H 314.163 4.28854 -3.47546 0
M  V30 3252 H 316.639 3.8405 -1.60139 0
M  V30 3253 H 315.515 5.22053 -1.69564 0
M  V30 3254 H 315.776 4.41828 -0.154938 0
M  V30 3255 N 314.835 0.952656 1.25548 0
M  V30 3256 C 316.251 0.656769 1.4546 0
M  V30 3257 C 316.451 -0.78633 1.85524 0
M  V30 3258 O 315.507 -1.56183 1.98402 0
M  V30 3259 C 316.82 1.62801 2.52817 0
M  V30 3260 C 318.368 1.63897 2.66659 0
M  V30 3261 C 318.843 2.5978 3.77198 0
M  V30 3262 N 320.334 2.58133 3.84606 0
M  V30 3263 C 321.069 3.29003 4.69621 0
M  V30 3264 N 320.565 4.09339 5.58939 0
M  V30 3265 N 322.358 3.179 4.63569 0
M  V30 3266 H 314.509 1.88526 0.978344 0
M  V30 3267 H 316.772 0.810815 0.491206 0
M  V30 3268 H 316.478 2.65869 2.30232 0
M  V30 3269 H 316.352 1.38898 3.50695 0
M  V30 3270 H 318.739 0.615481 2.8861 0
M  V30 3271 H 318.82 1.91858 1.69187 0
M  V30 3272 H 318.464 3.62254 3.55997 0
M  V30 3273 H 318.394 2.29105 4.7415 0
M  V30 3274 H 320.885 1.99809 3.20757 0
M  V30 3275 H 321.198 4.6034 6.20731 0
M  V30 3276 H 319.543 4.13438 5.58654 0
M  V30 3277 H 322.734 2.54612 3.92798 0
M  V30 3278 H 322.907 3.73398 5.29602 0
M  V30 3279 N 316.313 -1.40141 0.720998 0
M  V30 3280 C 317.562 -2.0002 0.259804 0
M  V30 3281 C 317.875 -1.57839 -1.15526 0
M  V30 3282 O 319.081 -2.10455 -1.71525 0
M  V30 3283 C 317.537 -3.57516 0.413566 0
M  V30 3284 C 317.145 -4.08667 1.83562 0
M  V30 3285 C 318.889 -4.24498 0.0134387 0
M  V30 3286 C 316.796 -5.58686 1.93968 0
M  V30 3287 H 315.726 -0.748195 0.0933806 0
M  V30 3288 H 318.377 -1.60313 0.892866 0
M  V30 3289 H 316.759 -3.9495 -0.288169 0
M  V30 3290 H 317.933 -3.82598 2.56817 0
M  V30 3291 H 316.248 -3.543 2.1877 0
M  V30 3292 H 318.845 -5.34654 0.0703954 0
M  V30 3293 H 319.188 -4.03375 -1.02927 0
M  V30 3294 H 319.721 -3.92188 0.665815 0
M  V30 3295 H 316.46 -5.8467 2.96379 0
M  V30 3296 H 315.98 -5.86602 1.25131 0
M  V30 3297 H 317.659 -6.23875 1.71431 0
M  V30 3298 N 317.792 -0.46758 -1.50504 0
M  V30 3299 C 319.208 -0.121533 -1.59137 0
M  V30 3300 C 319.408 1.3717 -1.47603 0
M  V30 3301 O 318.464 2.14464 -1.33272 0
M  V30 3302 C 319.777 -0.6686 -2.93173 0
M  V30 3303 C 321.325 -0.631716 -3.06559 0
M  V30 3304 C 321.8 -1.15627 -4.43164 0
M  V30 3305 N 323.291 -1.11553 -4.49567 0
M  V30 3306 C 324.026 -1.49195 -5.5365 0
M  V30 3307 N 323.522 -1.94269 -6.65005 0
M  V30 3308 N 325.315 -1.4082 -5.44175 0
M  V30 3309 H 317.466 -1.4388 -1.56245 0
M  V30 3310 H 319.729 -0.594784 -0.738198 0
M  V30 3311 H 319.435 -1.71453 -3.07078 0
M  V30 3312 H 319.309 -0.11021 -3.77039 0
M  V30 3313 H 321.696 0.405297 -2.92304 0
M  V30 3314 H 321.777 -1.22687 -2.24458 0
M  V30 3315 H 321.421 -2.1919 -4.58168 0
M  V30 3316 H 321.351 -0.537365 -5.23851 0
M  V30 3317 H 323.842 -0.784895 -3.69659 0
M  V30 3318 H 324.155 -2.21148 -7.40482 0
M  V30 3319 H 322.5 -1.98219 -6.66134 0
M  V30 3320 H 325.691 -1.0545 -4.56068 0
M  V30 3321 H 325.864 -1.70481 -6.25172 0
M  V30 3322 N 319.27 1.56325 -0.20005 0
M  V30 3323 C 320.518 1.97329 0.436547 0
M  V30 3324 C 320.839 1.08826 1.61808 0
M  V30 3325 O 320.109 0.160604 1.95241 0
M  V30 3326 H 318.689 0.728714 0.164272 0
M  V30 3327 H 321.351 1.92761 -0.287937 0
M  V30 3328 H 320.447 3.02264 0.777353 0
M  V30 3329 N 320.748 -0.0735177 1.57428 0
M  V30 3330 C 321.658 -1.10547 2.06922 0
M  V30 3331 C 322.674 -1.42506 0.998402 0
M  V30 3332 O 323.85 -1.52717 1.31299 0
M  V30 3333 C 320.915 -2.40019 2.50184 0
M  V30 3334 C 319.976 -2.15046 3.71556 0
M  V30 3335 C 319.209 -3.38345 4.12745 0
M  V30 3336 O 319.432 -4.47399 3.53822 0
M  V30 3337 O 318.366 -3.2666 5.05546 0
M  V30 3338 H 322.192 -0.715013 2.95163 0
M  V30 3339 H 319.777 -0.287531 1.46607 0
M  V30 3340 H 321.659 -3.16218 2.78539 0
M  V30 3341 H 320.334 -2.78447 1.65072 0
M  V30 3342 H 319.241 -1.36558 3.48285 0
M  V30 3343 H 320.574 -1.81499 4.57514 0
M  V30 3344 N 322.226 -1.5378 -0.344866 0
M  V30 3345 C 323.189 -1.80981 -1.40637 0
M  V30 3346 C 324.189 -0.680816 -1.45676 0
M  V30 3347 O 325.379 -0.949095 -1.46075 0
M  V30 3348 C 322.511 -1.95063 -2.79577 0
M  V30 3349 H 323.704 -2.75803 -1.17783 0
M  V30 3350 H 321.257 -1.45173 -0.579181 0
M  V30 3351 H 321.992 -1.02379 -3.07716 0
M  V30 3352 H 321.777 -2.77198 -2.77315 0
M  V30 3353 H 323.267 -2.17629 -3.56409 0
M  V30 3354 N 323.704 0.605807 -1.45491 0
M  V30 3355 C 324.667 1.69836 -1.5391 0
M  V30 3356 C 325.667 1.55261 -0.418424 0
M  V30 3357 O 326.857 1.60296 -0.681965 0
M  V30 3358 C 323.989 3.09117 -1.43734 0
M  V30 3359 H 325.182 1.63738 -2.51257 0
M  V30 3360 H 322.735 0.821689 -1.32959 0
M  V30 3361 H 323.47 3.20791 -0.475788 0
M  V30 3362 H 323.255 3.21104 -2.25021 0
M  V30 3363 H 324.745 3.88696 -1.52661 0
M  V30 3364 N 325.182 1.32811 0.848464 0
M  V30 3365 C 326.114 1.18095 1.96433 0
M  V30 3366 C 327.127 0.114354 1.62398 0
M  V30 3367 O 328.316 0.363892 1.74751 0
M  V30 3368 C 325.416 0.786798 3.2964 0
M  V30 3369 C 324.589 1.943 3.91875 0
M  V30 3370 C 323.648 1.53138 5.03423 0
M  V30 3371 O 322.674 2.24432 5.23086 0
M  V30 3372 N 323.876 0.430915 5.78898 0
M  V30 3373 H 326.641 2.14218 2.09597 0
M  V30 3374 H 324.202 1.2543 1.02367 0
M  V30 3375 H 326.194 0.493715 4.01677 0
M  V30 3376 H 324.764 -0.0834541 3.12489 0
M  V30 3377 H 323.984 2.40224 3.12547 0
M  V30 3378 H 325.272 2.71689 4.30189 0
M  V30 3379 H 324.67 -0.162333 5.65467 0
M  V30 3380 H 323.227 0.197466 6.51501 0
M  V30 3381 N 326.66 -1.06551 1.16123 0
M  V30 3382 C 327.909 -1.78687 0.935622 0
M  V30 3383 C 328.222 -1.88056 -0.538001 0
M  V30 3384 O 329.428 -2.56794 -0.88143 0
M  V30 3385 C 327.884 -3.21143 1.62466 0
M  V30 3386 C 327.492 -3.19949 3.13587 0
M  V30 3387 C 329.236 -3.9783 1.48092 0
M  V30 3388 C 327.143 -4.57108 3.75241 0
M  V30 3389 H 326.073 -0.669712 0.346412 0
M  V30 3390 H 328.724 -1.19534 1.39226 0
M  V30 3391 H 327.106 -3.80539 1.09572 0
M  V30 3392 H 328.28 -2.70151 3.73303 0
M  V30 3393 H 326.595 -2.5676 3.27816 0
M  V30 3394 H 329.192 -4.99217 1.91538 0
M  V30 3395 H 329.535 -4.14078 0.429507 0
M  V30 3396 H 330.068 -3.4495 1.98127 0
M  V30 3397 H 326.807 -4.46065 4.80319 0
M  V30 3398 H 326.327 -5.07111 3.20309 0
M  V30 3399 H 328.006 -5.26069 3.76644 0
M  V30 3400 N 328.138 -0.959301 -1.25041 0
M  V30 3401 C 329.384 -0.617525 -1.9317 0
M  V30 3402 C 329.717 0.843981 -1.74902 0
M  V30 3403 O 328.992 1.60615 -1.09696 0
M  V30 3404 C 329.275 -0.982736 -3.46431 0
M  V30 3405 C 329.128 -2.50032 -3.73904 0
M  V30 3406 C 330.447 -0.511176 -4.37121 0
M  V30 3407 H 327.566 -0.22582 -0.701552 0
M  V30 3408 H 330.208 -1.19679 -1.4757 0
M  V30 3409 H 328.358 -0.489806 -3.854 0
M  V30 3410 H 330.03 -3.06737 -3.44544 0
M  V30 3411 H 328.273 -2.93598 -3.19348 0
M  V30 3412 H 328.944 -2.70635 -4.81103 0
M  V30 3413 H 331.42 -0.934075 -4.0548 0
M  V30 3414 H 330.296 -0.795361 -5.43107 0
M  V30 3415 H 330.557 0.588834 -4.38161 0
M  V30 3416 N 329.616 1.39756 -0.72842 0
M  V30 3417 C 330.856 2.025 -0.278078 0
M  V30 3418 C 331.22 1.5654 1.11173 0
M  V30 3419 O 332.421 2.11435 1.65978 0
M  V30 3420 C 330.692 3.55489 -0.369139 0
M  V30 3421 S 332.251 4.388 0.00232983 0
M  V30 3422 H 329.069 0.702534 -0.109391 0
M  V30 3423 H 331.671 1.70672 -0.95348 0
M  V30 3424 H 330.375 3.86429 -1.38204 0
M  V30 3425 H 329.906 3.92061 0.324308 0
M  V30 3426 H 331.921 4.80954 1.22055 0
M  V30 3427 N 331.094 0.475555 1.50254 0
M  V30 3428 C 332.319 -0.0777042 2.07254 0
M  V30 3429 C 332.744 -1.3235 1.3366 0
M  V30 3430 O 332.102 -1.77152 0.385597 0
M  V30 3431 C 332.15 -0.340169 3.58992 0
M  V30 3432 O 331.254 -1.41982 3.87188 0
M  V30 3433 H 330.595 0.0149556 0.663832 0
M  V30 3434 H 333.125 0.667878 1.93392 0
M  V30 3435 H 333.135 -0.579332 4.03866 0
M  V30 3436 H 331.81 0.570167 4.11973 0
M  V30 3437 H 330.387 -1.16762 3.54148 0
M  V30 3438 N 332.573 -1.56217 0.208337 0
M  V30 3439 C 333.536 -2.18455 -0.693557 0
M  V30 3440 C 334.536 -1.14268 -1.13135 0
M  V30 3441 O 335.726 -1.39577 -1.0423 0
M  V30 3442 C 332.858 -2.79727 -1.94848 0
M  V30 3443 H 334.051 -2.99519 -0.15114 0
M  V30 3444 H 331.604 -1.56245 -0.041287 0
M  V30 3445 H 332.339 -2.02497 -2.53309 0
M  V30 3446 H 332.124 -3.56009 -1.64316 0
M  V30 3447 H 333.614 -3.27475 -2.59133 0
M  V30 3448 N 334.051 0.0651679 -1.57465 0
M  V30 3449 C 335.276 0.779605 -1.9219 0
M  V30 3450 C 335.701 1.69988 -0.805333 0
M  V30 3451 O 335.059 1.79685 0.241435 0
M  V30 3452 C 335.107 1.54364 -3.2589 0
M  V30 3453 O 334.211 2.65474 -3.1559 0
M  V30 3454 H 333.552 0.212249 -0.629163 0
M  V30 3455 H 336.082 0.0314294 -2.04576 0
M  V30 3456 H 336.092 1.92146 -3.59922 0
M  V30 3457 H 334.767 0.868457 -4.06732 0
M  V30 3458 H 333.344 2.30501 -2.93128 0
M  V30 3459 N 335.529 1.53961 0.336706 0
M  V30 3460 C 336.754 1.75797 1.10046 0
M  V30 3461 C 337.179 0.498985 1.81361 0
M  V30 3462 O 336.537 -0.548769 1.72795 0
M  V30 3463 C 336.585 2.94257 2.08436 0
M  V30 3464 O 335.689 2.64883 3.16087 0
M  V30 3465 H 335.03 0.582936 0.317934 0
M  V30 3466 H 337.56 2.00945 0.38501 0
M  V30 3467 H 337.57 3.21237 2.51537 0
M  V30 3468 H 336.245 3.85564 1.55927 0
M  V30 3469 H 334.822 2.48812 2.77753 0
M  V30 3470 N 337.007 -0.598083 1.45811 0
M  V30 3471 C 338.253 -1.35882 1.50545 0
M  V30 3472 C 338.586 -1.93616 0.150445 0
M  V30 3473 O 337.861 -1.75604 -0.83628 0
M  V30 3474 C 338.144 -2.49966 2.59208 0
M  V30 3475 C 337.997 -1.97367 4.04186 0
M  V30 3476 C 339.316 -3.52068 2.64076 0
M  V30 3477 H 336.435 -0.492717 0.548087 0
M  V30 3478 H 339.077 -0.673319 1.77669 0
M  V30 3479 H 337.227 -3.08443 2.3621 0
M  V30 3480 H 338.899 -1.43466 4.38423 0
M  V30 3481 H 337.142 -1.283 4.14393 0
M  V30 3482 H 337.813 -2.79649 4.75921 0
M  V30 3483 H 340.289 -3.03448 2.84708 0
M  V30 3484 H 339.165 -4.2937 3.41954 0
M  V30 3485 H 339.426 -4.08304 1.69531 0
M  V30 3486 N 338.485 -1.33259 -0.841409 0
M  V30 3487 C 339.762 -1.15174 -1.58096 0
M  V30 3488 C 340.142 0.282858 -2.09196 0
M  V30 3489 O 339.49 1.28151 -1.89181 0
M  V30 3490 C 339.7 -2.1907 -2.71679 0
M  V30 3491 C 341.048 -2.53093 -3.40924 0
M  V30 3492 O 342.072 -2.17717 -2.81918 0
M  V30 3493 O 340.931 -3.1379 -4.47435 0
M  V30 3494 H 338.025 -0.445303 -0.696875 0
M  V30 3495 H 340.571 -1.44833 -0.884385 0
M  V30 3496 H 339.343 -3.15443 -2.31541 0
M  V30 3497 H 338.966 -1.90481 -3.49002 0
M  V30 3498 N 339.963 1.05934 -1.16686 0
M  V30 3499 C 341.209 1.79065 -0.95203 0
M  V30 3500 C 341.542 1.87147 0.518629 0
M  V30 3501 O 340.817 1.36574 1.38484 0
M  V30 3502 C 341.1 3.23359 -1.58464 0
M  V30 3503 C 340.953 3.23336 -3.12689 0
M  V30 3504 C 342.272 4.21004 -1.28232 0
M  V30 3505 H 339.391 0.65005 -0.34728 0
M  V30 3506 H 342.033 1.23868 -1.44072 0
M  V30 3507 H 340.183 3.70493 -1.16908 0
M  V30 3508 H 341.855 2.84336 -3.6325 0
M  V30 3509 H 340.098 2.61886 -3.4583 0
M  V30 3510 H 340.769 4.25144 -3.52075 0
M  V30 3511 H 343.245 3.8233 -1.64203 0
M  V30 3512 H 342.121 5.20225 -1.75092 0
M  V30 3513 H 342.382 4.41639 -0.201791 0
M  V30 3514 N 341.441 0.965919 1.2453 0
M  V30 3515 C 342.389 0.486506 2.27455 0
M  V30 3516 C 343.383 -0.449041 1.6334 0
M  V30 3517 O 344.589 -0.324527 1.7705 0
M  V30 3518 H 340.964 0.138857 0.739069 0
M  V30 3519 H 342.935 1.3666 2.65267 0
M  V30 3520 C 341.684 -0.209481 3.47068 0
M  V30 3521 H 341.007 0.50129 3.96645 0
M  V30 3522 H 342.447 -0.508775 4.20936 0
M  V30 3523 C 340.906 -1.43586 3.0477 0
M  V30 3524 O 341.436 -2.53299 3.11773 0
M  V30 3525 N 339.642 -1.30126 2.59838 0
M  V30 3526 H 339.189 -0.408583 2.54339 0
M  V30 3527 H 339.147 -2.12294 2.31902 0
M  V30 3528 N 342.919 -1.39368 0.735821 0
M  V30 3529 C 344.166 -2.00497 0.284123 0
M  V30 3530 C 344.494 -1.58387 -1.12889 0
M  V30 3531 O 343.749 -0.804359 -1.78406 0
M  V30 3532 C 344.048 -3.5583 0.334651 0
M  V30 3533 C 343.714 -4.17593 1.7008 0
M  V30 3534 C 342.376 -4.34176 2.07472 0
M  V30 3535 C 344.728 -4.51848 2.59775 0
M  V30 3536 C 342.056 -4.82304 3.34065 0
M  V30 3537 C 344.408 -5.01384 3.85741 0
M  V30 3538 C 343.072 -5.16175 4.23225 0
M  V30 3539 H 342.342 -0.73367 0.103968 0
M  V30 3540 H 344.989 -1.66683 0.942825 0
M  V30 3541 H 343.294 -3.89674 -0.407625 0
M  V30 3542 H 344.991 -4.00986 -0.0329927 0
M  V30 3543 H 341.581 -4.05087 1.40008 0
M  V30 3544 H 345.765 -4.38653 2.32157 0
M  V30 3545 H 341.021 -4.91941 3.63049 0
M  V30 3546 H 345.195 -5.26863 4.55399 0
M  V30 3547 H 342.822 -5.5323 5.21384 0
M  V30 3548 N 344.397 -0.483516 -1.5 0
M  V30 3549 C 345.674 0.129337 -1.95172 0
M  V30 3550 C 346.054 1.55802 -1.4244 0
M  V30 3551 O 345.402 2.19625 -0.630649 0
M  V30 3552 C 345.612 0.0599251 -3.48949 0
M  V30 3553 C 346.96 0.242617 -4.23906 0
M  V30 3554 O 347.984 0.135933 -3.55941 0
M  V30 3555 O 346.843 0.459454 -5.44565 0
M  V30 3556 H 343.937 0.104887 -0.820322 0
M  V30 3557 H 346.483 -0.544807 -1.60717 0
M  V30 3558 H 345.255 -0.937079 -3.79914 0
M  V30 3559 H 344.878 0.774984 -3.89974 0
M  V30 3560 N 345.875 1.56104 -0.216619 0
M  V30 3561 C 347.121 1.98466 0.417033 0
M  V30 3562 C 347.454 1.10403 1.59765 0
M  V30 3563 O 346.729 0.160632 1.93836 0
M  V30 3564 C 347.012 3.49769 0.85637 0
M  V30 3565 C 346.865 4.48606 -0.327546 0
M  V30 3566 C 348.184 4.05339 1.7143 0
M  V30 3567 H 345.303 0.721551 0.150112 0
M  V30 3568 H 347.945 1.87423 -0.311864 0
M  V30 3569 H 346.095 3.5931 1.47745 0
M  V30 3570 H 347.767 4.5108 -0.965618 0
M  V30 3571 H 346.01 4.22682 -0.975805 0
M  V30 3572 H 346.681 5.51995 0.0227149 0
M  V30 3573 H 349.157 3.98712 1.19031 0
M  V30 3574 H 348.033 5.11533 1.99061 0
M  V30 3575 H 348.294 3.51918 2.67593 0
M  V30 3576 N 347.353 -0.0568162 1.57498 0
M  V30 3577 C 348.6 -0.753104 1.87975 0
M  V30 3578 C 348.928 -1.76815 0.81035 0
M  V30 3579 O 348.183 -1.94756 -0.19199 0
M  V30 3580 C 348.482 -1.48359 3.25153 0
M  V30 3581 C 348.148 -0.60713 4.46794 0
M  V30 3582 C 346.81 -0.365642 4.79809 0
M  V30 3583 C 349.162 -0.000305978 5.212 0
M  V30 3584 C 346.49 0.491905 5.84634 0
M  V30 3585 C 348.842 0.844781 6.26934 0
M  V30 3586 C 347.506 1.096 6.58441 0
M  V30 3587 H 346.776 -0.27558 0.687849 0
M  V30 3588 H 349.423 -0.0135173 1.91495 0
M  V30 3589 H 347.728 -2.29577 3.17492 0
M  V30 3590 H 349.425 -2.02739 3.45974 0
M  V30 3591 H 346.015 -0.805487 4.20963 0
M  V30 3592 H 350.199 -0.173961 4.95995 0
M  V30 3593 H 345.455 0.695131 6.07436 0
M  V30 3594 H 349.629 1.32165 6.83744 0
M  V30 3595 H 347.256 1.76224 7.39492 0
M  V30 3596 N 348.832 -1.54138 -0.328536 0
M  V30 3597 C 349.762 -1.86167 -1.40939 0
M  V30 3598 C 350.743 -0.718044 -1.54202 0
M  V30 3599 O 351.928 -0.971328 -1.68163 0
M  V30 3600 C 349.058 -2.08461 -2.77779 0
M  V30 3601 C 348.012 -3.24299 -2.7931 0
M  V30 3602 C 347.338 -3.31955 -4.19178 0
M  V30 3603 C 348.638 -4.62065 -2.43502 0
M  V30 3604 H 350.332 -2.76689 -1.14383 0
M  V30 3605 H 347.878 -1.33132 -0.548806 0
M  V30 3606 H 349.831 -2.29453 -3.53454 0
M  V30 3607 H 348.555 -1.14684 -3.05802 0
M  V30 3608 H 347.214 -3.03187 -2.0609 0
M  V30 3609 H 346.862 -2.35745 -4.44335 0
M  V30 3610 H 346.562 -4.09805 -4.2111 0
M  V30 3611 H 348.086 -3.55175 -4.96672 0
M  V30 3612 H 349.5 -4.8297 -3.08889 0
M  V30 3613 H 347.897 -5.42429 -2.56693 0
M  V30 3614 H 348.967 -4.64652 -1.38659 0
M  V30 3615 N 350.31 0.590341 -1.46126 0
M  V30 3616 C 351.242 1.71427 -1.52136 0
M  V30 3617 C 352.255 1.57542 -0.41042 0
M  V30 3618 O 353.444 1.65106 -0.678389 0
M  V30 3619 C 350.544 3.09605 -1.37834 0
M  V30 3620 C 349.717 3.49566 -2.62912 0
M  V30 3621 C 348.776 4.66773 -2.42918 0
M  V30 3622 O 347.802 4.73019 -3.1661 0
M  V30 3623 N 349.004 5.61161 -1.4859 0
M  V30 3624 H 351.769 1.66728 -2.49042 0
M  V30 3625 H 349.33 0.776113 -1.42085 0
M  V30 3626 H 351.322 3.85796 -1.22243 0
M  V30 3627 H 349.892 3.08714 -0.491393 0
M  V30 3628 H 349.112 2.63158 -2.93499 0
M  V30 3629 H 350.4 3.73028 -3.46017 0
M  V30 3630 H 349.798 5.58844 -0.87808 0
M  V30 3631 H 348.355 6.36814 -1.38965 0
M  V30 3632 N 351.788 1.33704 0.83433 0
M  V30 3633 C 352.738 1.20899 1.93306 0
M  V30 3634 C 353.722 0.110783 1.60518 0
M  V30 3635 O 354.914 0.339331 1.73717 0
M  V30 3636 C 352.043 0.955018 3.29749 0
M  V30 3637 C 351.129 2.09587 3.68692 0
M  V30 3638 N 351.52 3.34621 3.79292 0
M  V30 3639 C 349.818 2.00358 3.98463 0
M  V30 3640 C 350.519 4.09472 4.13167 0
M  V30 3641 N 349.495 3.37954 4.25779 0
M  V30 3642 H 353.297 2.15665 1.99664 0
M  V30 3643 H 350.811 1.25777 1.02732 0
M  V30 3644 H 352.808 0.844208 4.08263 0
M  V30 3645 H 351.468 0.0159317 3.24696 0
M  V30 3646 H 352.479 3.69313 3.63082 0
M  V30 3647 H 349.156 1.14137 4.01596 0
M  V30 3648 H 350.546 5.17391 4.28668 0
M  V30 3649 N 353.266 -1.05314 1.17247 0
M  V30 3650 C 354.214 -2.15137 0.884238 0
M  V30 3651 C 355.208 -1.68729 -0.15063 0
M  V30 3652 O 356.414 -1.8 -0.00366673 0
M  V30 3653 H 352.789 -0.702471 0.2684 0
M  V30 3654 H 354.76 -2.36652 1.81764 0
M  V30 3655 C 353.509 -3.45243 0.412659 0
M  V30 3656 H 352.832 -3.81352 1.20043 0
M  V30 3657 H 354.272 -4.23263 0.249858 0
M  V30 3658 C 352.731 -3.25487 -0.86948 0
M  V30 3659 O 353.261 -3.51938 -1.93655 0
M  V30 3660 N 351.467 -2.78875 -0.817147 0
M  V30 3661 H 351.014 -2.57549 0.0514211 0
M  V30 3662 H 350.972 -2.66036 -1.67547 0
M  V30 3663 N 354.744 -0.972509 -1.24016 0
M  V30 3664 C 355.692 -0.498562 -2.27194 0
M  V30 3665 C 356.686 0.440372 -1.63576 0
M  V30 3666 O 357.892 0.315133 -1.7722 0
M  V30 3667 H 354.267 -0.142775 -0.738322 0
M  V30 3668 H 356.238 -1.38065 -2.64539 0
M  V30 3669 C 354.987 0.191072 -3.47175 0
M  V30 3670 H 354.31 -0.522318 -3.96373 0
M  V30 3671 H 355.75 0.486445 -4.212 0
M  V30 3672 C 354.209 1.41967 -3.05527 0
M  V30 3673 O 354.739 2.51642 -3.13112 0
M  V30 3674 N 352.945 1.28746 -2.60524 0
M  V30 3675 H 352.492 0.395089 -2.54552 0
M  V30 3676 H 352.45 2.11061 -2.33025 0
M  V30 3677 N 356.222 1.38976 -0.743202 0
M  V30 3678 C 357.45 2.04636 -0.30525 0
M  V30 3679 C 357.865 1.56044 1.06281 0
M  V30 3680 O 357.222 0.728921 1.67311 0
M  V30 3681 C 357.273 3.60193 -0.307177 0
M  V30 3682 O 356.994 4.06998 -1.62124 0
M  V30 3683 C 358.495 4.4306 0.145928 0
M  V30 3684 H 355.715 0.65788 -0.132041 0
M  V30 3685 H 358.259 1.77866 -1.00915 0
M  V30 3686 H 356.414 3.85835 0.347898 0
M  V30 3687 H 356.828 5.01371 -1.54036 0
M  V30 3688 H 358.302 5.51921 0.0934183 0
M  V30 3689 H 358.779 4.22706 1.19231 0
M  V30 3690 H 359.385 4.22584 -0.479886 0
M  V30 3691 N 357.7 0.491464 1.49741 0
M  V30 3692 C 358.647 -0.292027 2.28945 0
M  V30 3693 C 359.617 -0.968973 1.34908 0
M  V30 3694 O 360.802 -0.97748 1.6386 0
M  V30 3695 C 357.942 -1.35617 3.17336 0
M  V30 3696 C 357.055 -0.691957 4.26422 0
M  V30 3697 C 356.19 -1.73572 5.02042 0
M  V30 3698 C 355.229 -1.05286 6.02977 0
M  V30 3699 N 354.366 -2.0404 6.71798 0
M  V30 3700 H 359.206 0.389654 2.95442 0
M  V30 3701 H 356.743 0.204003 1.45679 0
M  V30 3702 H 358.701 -1.98502 3.66951 0
M  V30 3703 H 357.331 -2.00674 2.52844 0
M  V30 3704 H 356.383 0.0499523 3.80367 0
M  V30 3705 H 357.695 -0.153946 4.98562 0
M  V30 3706 H 356.849 -2.43987 5.55478 0
M  V30 3707 H 355.588 -2.30757 4.29654 0
M  V30 3708 H 354.593 -0.334446 5.48782 0
M  V30 3709 H 355.818 -0.487636 6.77347 0
M  V30 3710 H 353.764 -2.60205 6.02187 0
M  V30 3711 H 353.681 -1.55279 7.39881 0
M  V30 3712 H 354.949 -2.73772 7.29842 0
M  V30 3713 N 359.178 -1.55987 0.224894 0
M  V30 3714 C 360.108 -2.23426 -0.678457 0
M  V30 3715 C 361.089 -1.20709 -1.19847 0
M  V30 3716 O 362.274 -1.49304 -1.24186 0
M  V30 3717 C 359.404 -2.91676 -1.88527 0
M  V30 3718 C 358.358 -4.00893 -1.49896 0
M  V30 3719 C 357.684 -4.56455 -2.78483 0
M  V30 3720 C 358.984 -5.17769 -0.686461 0
M  V30 3721 H 360.678 -2.99175 -0.116173 0
M  V30 3722 H 358.224 -1.43897 -0.054436 0
M  V30 3723 H 360.177 -3.37547 -2.5227 0
M  V30 3724 H 358.901 -2.1338 -2.47258 0
M  V30 3725 H 357.56 -3.55758 -0.884985 0
M  V30 3726 H 357.208 -3.74886 -3.35365 0
M  V30 3727 H 356.908 -5.30169 -2.53368 0
M  V30 3728 H 358.432 -5.05047 -3.43162 0
M  V30 3729 H 359.846 -5.60001 -1.22767 0
M  V30 3730 H 358.243 -5.97735 -0.532259 0
M  V30 3731 H 359.313 -4.83932 0.306196 0
M  V30 3732 N 360.656 0.0484629 -1.57525 0
M  V30 3733 C 361.619 1.03956 -2.04269 0
M  V30 3734 C 362.619 1.30211 -0.943496 0
M  V30 3735 O 363.809 1.25539 -1.20771 0
M  V30 3736 C 360.941 2.37742 -2.44319 0
M  V30 3737 H 362.134 0.636182 -2.93075 0
M  V30 3738 H 359.687 0.294811 -1.53494 0
M  V30 3739 H 360.422 2.82866 -1.5861 0
M  V30 3740 H 360.207 2.20021 -3.24551 0
M  V30 3741 H 361.697 3.08936 -2.80978 0
M  V30 3742 N 362.134 1.5431 0.320358 0
M  V30 3743 C 363.383 1.7188 1.05546 0
M  V30 3744 C 363.696 0.501143 1.89071 0
M  V30 3745 O 364.902 0.558258 2.65699 0
M  V30 3746 C 363.358 3.04025 1.92605 0
M  V30 3747 C 362.966 4.33207 1.14176 0
M  V30 3748 C 364.71 3.30959 2.65832 0
M  V30 3749 C 362.617 5.56412 2.00399 0
M  V30 3750 H 361.547 0.640547 0.397763 0
M  V30 3751 H 364.198 1.80802 0.313522 0
M  V30 3752 H 362.58 2.89019 2.7071 0
M  V30 3753 H 363.754 4.58989 0.40819 0
M  V30 3754 H 362.069 4.13062 0.526165 0
M  V30 3755 H 364.666 4.20203 3.30656 0
M  V30 3756 H 365.009 2.48979 3.33639 0
M  V30 3757 H 365.542 3.46847 1.94787 0
M  V30 3758 H 362.281 6.41004 1.37094 0
M  V30 3759 H 361.801 5.34844 2.7148 0
M  V30 3760 H 363.48 5.92938 2.58908 0
M  V30 3761 N 363.613 -0.582584 1.46437 0
M  V30 3762 C 365.024 -1.1647 1.45916 0
M  V30 3763 C 365.375 -1.95177 0.200077 0
M  V30 3764 O 364.5 -2.04874 -0.696819 0
M  V30 3765 C 365.095 -2.11885 2.64367 0
M  V30 3766 C 363.654 -2.65421 2.66887 0
M  V30 3767 C 362.801 -1.41294 2.38603 0
M  V30 3768 H 365.752 -0.370514 1.54314 0
M  V30 3769 H 365.773 -2.9535 2.39892 0
M  V30 3770 H 365.285 -1.54573 3.5599 0
M  V30 3771 H 363.386 -3.26602 1.79338 0
M  V30 3772 H 363.499 -3.08147 3.66854 0
M  V30 3773 H 361.863 -1.71109 1.88663 0
M  V30 3774 H 362.646 -0.858125 3.32402 0
M  V30 3775 N 365.091 -1.34144 -0.827227 0
M  V30 3776 C 366.023 -1.21206 -1.9453 0
M  V30 3777 C 367.036 -0.140176 -1.62195 0
M  V30 3778 O 368.225 -0.391647 -1.7415 0
M  V30 3779 C 365.325 -0.839141 -3.28347 0
M  V30 3780 C 364.498 -2.0051 -3.88734 0
M  V30 3781 C 363.557 -1.61128 -5.00923 0
M  V30 3782 O 362.583 -2.32726 -5.19449 0
M  V30 3783 N 363.785 -0.522958 -5.7814 0
M  V30 3784 H 366.55 -2.17525 -2.06162 0
M  V30 3785 H 364.111 -1.27043 -1.00358 0
M  V30 3786 H 366.103 -0.557556 -4.00841 0
M  V30 3787 H 364.673 0.0337293 -3.12582 0
M  V30 3788 H 363.893 -2.45166 -3.08686 0
M  V30 3789 H 365.181 -2.78498 -4.25812 0
M  V30 3790 H 364.579 0.0723518 -5.65654 0
M  V30 3791 H 363.136 -0.301089 -6.51104 0
M  V30 3792 N 366.569 1.04691 -1.17803 0
M  V30 3793 C 367.501 2.12571 -0.857097 0
M  V30 3794 C 368.514 1.62174 0.142647 0
M  V30 3795 O 369.703 1.78301 -0.0843387 0
M  V30 3796 C 366.803 3.37915 -0.258216 0
M  V30 3797 C 365.976 4.1757 -1.30207 0
M  V30 3798 C 365.035 5.2125 -0.720029 0
M  V30 3799 O 364.061 5.51888 -1.39314 0
M  V30 3800 N 365.263 5.78466 0.485507 0
M  V30 3801 H 368.028 2.40698 -1.78562 0
M  V30 3802 H 365.589 1.20831 -1.07757 0
M  V30 3803 H 367.581 4.04442 0.144584 0
M  V30 3804 H 366.151 3.07281 0.574199 0
M  V30 3805 H 365.371 3.46458 -1.88043 0
M  V30 3806 H 366.659 4.67586 -2.00601 0
M  V30 3807 H 366.057 5.55866 1.05022 0
M  V30 3808 H 364.614 6.4649 0.830307 0
M  V30 3809 N 368.047 0.979072 1.23499 0
M  V30 3810 C 369.272 0.664845 1.96455 0
M  V30 3811 C 369.697 -0.761287 1.72006 0
M  V30 3812 O 369.055 -1.51837 0.990713 0
M  V30 3813 C 369.103 0.959479 3.47601 0
M  V30 3814 O 368.207 0.0508168 4.12369 0
M  V30 3815 H 367.548 0.250185 0.615064 0
M  V30 3816 H 370.078 1.31231 1.5697 0
M  V30 3817 H 370.088 0.895642 3.98048 0
M  V30 3818 H 368.763 1.99876 3.64723 0
M  V30 3819 H 367.34 0.16895 3.72517 0
M  V30 3820 N 369.525 -1.3858 0.750561 0
M  V30 3821 C 370.802 -1.94231 0.231009 0
M  V30 3822 C 371.182 -1.68611 -1.27018 0
M  V30 3823 O 370.53 -1.02296 -2.04323 0
M  V30 3824 C 370.74 -3.44123 0.581428 0
M  V30 3825 C 372.088 -4.2116 0.539389 0
M  V30 3826 O 373.112 -3.52391 0.519541 0
M  V30 3827 O 371.971 -5.43749 0.54765 0
M  V30 3828 H 369.065 -0.825639 0.0474263 0
M  V30 3829 H 371.611 -1.4799 0.830478 0
M  V30 3830 H 370.383 -3.56267 1.61833 0
M  V30 3831 H 370.006 -3.97573 -0.0462047 0
M  V30 3832 N 371.003 -0.499398 -1.49478 0
M  V30 3833 C 372.25 0.0456899 -2.02448 0
M  V30 3834 C 372.578 1.37142 -1.37921 0
M  V30 3835 O 371.833 1.89111 -0.503544 0
M  V30 3836 C 372.132 0.248424 -3.56536 0
M  V30 3837 C 371.798 -0.999107 -4.39692 0
M  V30 3838 C 370.46 -1.34108 -4.62135 0
M  V30 3839 C 372.812 -1.82842 -4.88076 0
M  V30 3840 C 370.14 -2.51191 -5.30208 0
M  V30 3841 C 372.492 -2.99076 -5.57437 0
M  V30 3842 C 371.156 -3.33655 -5.78127 0
M  V30 3843 H 370.426 0.0167191 -0.740811 0
M  V30 3844 H 373.073 -0.65923 -1.79795 0
M  V30 3845 H 371.378 1.03586 -3.77859 0
M  V30 3846 H 373.075 0.684605 -3.95113 0
M  V30 3847 H 369.665 -0.722729 -4.22463 0
M  V30 3848 H 373.849 -1.57737 -4.70566 0
M  V30 3849 H 369.105 -2.78221 -5.44429 0
M  V30 3850 H 373.279 -3.63664 -5.93904 0
M  V30 3851 H 370.906 -4.24483 -6.30649 0
M  V30 3852 N 372.481 1.55866 -0.233164 0
M  V30 3853 C 373.431 2.17442 0.685774 0
M  V30 3854 C 374.415 1.12617 1.14918 0
M  V30 3855 O 375.607 1.3857 1.10124 0
M  V30 3856 C 372.736 2.86685 1.88856 0
M  V30 3857 C 371.822 3.98749 1.4443 0
M  V30 3858 N 372.213 5.00744 0.713364 0
M  V30 3859 C 370.511 4.11052 1.73068 0
M  V30 3860 C 371.212 5.79673 0.485205 0
M  V30 3861 N 370.188 5.33454 1.04536 0
M  V30 3862 H 373.99 2.93659 0.119022 0
M  V30 3863 H 371.504 1.62362 -0.0348995 0
M  V30 3864 H 373.501 3.29218 2.55776 0
M  V30 3865 H 372.161 2.11967 2.45967 0
M  V30 3866 H 373.172 5.16613 0.364861 0
M  V30 3867 H 369.849 3.47495 2.31416 0
M  V30 3868 H 371.239 6.71829 -0.097365 0
M  V30 3869 N 373.959 -0.0401083 1.57549 0
M  V30 3870 C 374.907 -1.06264 2.06908 0
M  V30 3871 C 375.901 -1.38132 0.980608 0
M  V30 3872 O 377.107 -1.37167 1.16556 0
M  V30 3873 H 373.482 -0.360166 0.660139 0
M  V30 3874 H 375.453 -0.620445 2.91878 0
M  V30 3875 C 374.202 -2.35846 2.55483 0
M  V30 3876 H 373.525 -2.12183 3.38849 0
M  V30 3877 H 374.965 -3.05765 2.93741 0
M  V30 3878 C 373.424 -3.0404 1.45126 0
M  V30 3879 O 373.954 -3.93424 0.811216 0
M  V30 3880 N 372.16 -2.65184 1.18852 0
M  V30 3881 H 371.707 -1.92584 1.71083 0
M  V30 3882 H 371.665 -3.1113 0.452244 0
M  V30 3883 N 375.437 -1.54477 -0.31217 0
M  V30 3884 C 376.385 -1.85395 -1.40469 0
M  V30 3885 C 377.379 -0.726749 -1.53019 0
M  V30 3886 O 378.585 -0.910582 -1.55269 0
M  V30 3887 H 374.96 -0.587845 -0.46898 0
M  V30 3888 H 376.931 -2.76736 -1.11623 0
M  V30 3889 C 375.68 -2.10811 -2.76503 0
M  V30 3890 H 375.003 -2.97014 -2.67625 0
M  V30 3891 H 376.443 -2.3639 -3.51988 0
M  V30 3892 C 374.902 -0.903165 -3.24568 0
M  V30 3893 O 375.432 -0.118085 -4.01526 0
M  V30 3894 N 373.638 -0.711634 -2.81752 0
M  V30 3895 H 373.185 -1.35171 -2.19286 0
M  V30 3896 H 373.143 0.0930473 -3.14262 0
M  V30 3897 N 376.915 0.57481 -1.46744 0
M  V30 3898 C 378.331 0.898981 -1.31873 0
M  V30 3899 C 378.531 1.99313 -0.29605 0
M  V30 3900 O 377.587 2.50728 0.298621 0
M  V30 3901 C 378.9 1.30886 -2.7072 0
M  V30 3902 C 380.448 1.42127 -2.78871 0
M  V30 3903 C 380.923 1.86478 -4.18318 0
M  V30 3904 N 382.414 1.93658 -4.20774 0
M  V30 3905 C 383.149 2.29267 -5.2557 0
M  V30 3906 N 382.645 2.63612 -6.40688 0
M  V30 3907 N 384.438 2.29889 -5.1294 0
M  V30 3908 H 376.589 -0.147839 -2.11885 0
M  V30 3909 H 378.852 -0.00347013 -0.947994 0
M  V30 3910 H 378.558 0.578853 -3.46904 0
M  V30 3911 H 378.432 2.26874 -3.01343 0
M  V30 3912 H 380.819 2.14213 -2.0297 0
M  V30 3913 H 380.9 0.443705 -2.51922 0
M  V30 3914 H 380.544 1.14968 -4.94717 0
M  V30 3915 H 380.474 2.85207 -4.42679 0
M  V30 3916 H 382.965 1.69574 -3.37718 0
M  V30 3917 H 383.278 2.89759 -7.16421 0
M  V30 3918 H 381.623 2.61232 -6.44036 0
M  V30 3919 H 384.814 2.02485 -4.22039 0
M  V30 3920 H 384.987 2.57312 -5.94722 0
M  V30 3921 N 378.394 1.34581 0.820102 0
M  V30 3922 C 379.624 1.29991 1.6058 0
M  V30 3923 C 380.032 -0.127588 1.88769 0
M  V30 3924 O 379.375 -1.08595 1.48165 0
M  V30 3925 C 379.437 2.02548 2.9701 0
M  V30 3926 C 379.101 3.51794 2.91701 0
M  V30 3927 C 380.098 4.46647 2.66087 0
M  V30 3928 C 377.783 3.94249 3.11245 0
M  V30 3929 C 379.777 5.81929 2.60071 0
M  V30 3930 C 377.464 5.2963 3.04853 0
M  V30 3931 C 378.462 6.23282 2.793 0
M  V30 3932 O 378.15 7.56181 2.72847 0
M  V30 3933 H 377.882 0.448539 0.505756 0
M  V30 3934 H 380.436 1.77811 1.02822 0
M  V30 3935 H 378.666 1.49345 3.56697 0
M  V30 3936 H 380.355 1.91211 3.58041 0
M  V30 3937 H 381.121 4.15168 2.5072 0
M  V30 3938 H 377 3.21749 3.30149 0
M  V30 3939 H 380.544 6.54999 2.40046 0
M  V30 3940 H 376.441 5.60727 3.19774 0
M  V30 3941 H 377.209 7.6595 2.88553 0
M  V30 3942 N 379.872 -1.04064 1.18357 0
M  V30 3943 C 380.804 -2.12114 0.868358 0
M  V30 3944 C 381.817 -1.62247 -0.134045 0
M  V30 3945 O 383.006 -1.78253 0.0937933 0
M  V30 3946 C 380.106 -3.37773 0.276132 0
M  V30 3947 C 379.279 -4.16874 1.3242 0
M  V30 3948 C 378.338 -5.20861 0.747662 0
M  V30 3949 O 377.364 -5.51141 1.42239 0
M  V30 3950 N 378.566 -5.78715 -0.454823 0
M  V30 3951 H 381.331 -2.39748 1.79836 0
M  V30 3952 H 378.892 -1.20258 1.08396 0
M  V30 3953 H 380.884 -4.04513 -0.123133 0
M  V30 3954 H 379.454 -3.07581 -0.557895 0
M  V30 3955 H 378.674 -3.45456 1.89878 0
M  V30 3956 H 379.962 -4.66516 2.03078 0
M  V30 3957 H 379.36 -5.56415 -1.02073 0
M  V30 3958 H 377.917 -6.46921 -0.79601 0
M  V30 3959 N 381.35 -0.985608 -1.22978 0
M  V30 3960 C 382.297 -0.529825 -2.24636 0
M  V30 3961 C 383.267 0.434028 -1.60329 0
M  V30 3962 O 384.452 0.340414 -1.87739 0
M  V30 3963 C 381.592 0.156533 -3.44745 0
M  V30 3964 C 380.705 -0.848197 -4.23591 0
M  V30 3965 C 379.84 -0.136109 -5.31026 0
M  V30 3966 C 378.879 -1.1297 -6.01585 0
M  V30 3967 N 378.016 -0.446415 -7.00679 0
M  V30 3968 H 382.856 -1.40148 -2.62988 0
M  V30 3969 H 380.393 -0.702168 -1.29259 0
M  V30 3970 H 382.351 0.571324 -4.1327 0
M  V30 3971 H 380.981 0.992025 -3.07179 0
M  V30 3972 H 380.033 -1.38135 -3.54433 0
M  V30 3973 H 381.345 -1.60512 -4.72268 0
M  V30 3974 H 380.499 0.335784 -6.0577 0
M  V30 3975 H 379.238 0.653373 -4.83304 0
M  V30 3976 H 378.243 -1.6123 -5.25628 0
M  V30 3977 H 379.468 -1.91993 -6.51395 0
M  V30 3978 H 377.414 0.323763 -6.55201 0
M  V30 3979 H 377.331 -1.1419 -7.47326 0
M  V30 3980 H 378.599 0.00291697 -7.795 0
M  V30 3981 N 382.828 1.3818 -0.7579 0
M  V30 3982 C 384.074 2.00316 -0.316453 0
M  V30 3983 C 384.407 1.60026 1.10025 0
M  V30 3984 O 383.682 0.839835 1.75434 0
M  V30 3985 C 383.965 3.57349 -0.444245 0
M  V30 3986 C 383.818 4.07591 -1.90236 0
M  V30 3987 C 385.137 4.3981 0.1598 0
M  V30 3988 H 382.256 0.727741 -0.116459 0
M  V30 3989 H 384.898 1.6406 -0.958352 0
M  V30 3990 H 383.048 3.88365 0.102233 0
M  V30 3991 H 384.72 3.87199 -2.50748 0
M  V30 3992 H 382.963 3.60297 -2.41595 0
M  V30 3993 H 383.634 5.16677 -1.94291 0
M  V30 3994 H 386.11 4.14971 -0.306314 0
M  V30 3995 H 384.986 5.48885 0.0401675 0
M  V30 3996 H 385.247 4.24102 1.24859 0
M  V30 3997 N 384.306 0.507319 1.49211 0
M  V30 3998 C 385.236 -0.256939 2.32082 0
M  V30 3999 C 386.217 -0.956609 1.40652 0
M  V30 4000 O 387.402 -0.946788 1.69557 0
M  V30 4001 C 384.532 -1.31802 3.21318 0
M  V30 4002 C 383.486 -0.737855 4.21592 0
M  V30 4003 C 382.812 -1.89992 4.99807 0
M  V30 4004 C 384.112 0.275325 5.21574 0
M  V30 4005 H 385.806 0.434798 2.96226 0
M  V30 4006 H 383.352 0.210546 1.42452 0
M  V30 4007 H 385.305 -1.86045 3.78107 0
M  V30 4008 H 384.029 -2.03903 2.5513 0
M  V30 4009 H 382.688 -0.217126 3.65956 0
M  V30 4010 H 382.336 -2.60877 4.30061 0
M  V30 4011 H 382.036 -1.51777 5.6766 0
M  V30 4012 H 383.56 -2.44657 5.59442 0
M  V30 4013 H 384.974 -0.179193 5.7302 0
M  V30 4014 H 383.371 0.573649 5.97352 0
M  V30 4015 H 384.441 1.18903 4.70096 0
M  V30 4016 N 385.784 -1.5574 0.241426 0
M  V30 4017 C 387.012 -2.03208 -0.389134 0
M  V30 4018 C 387.427 -1.12082 -1.51931 0
M  V30 4019 O 386.784 -0.134183 -1.82006 0
M  V30 4020 C 386.835 -3.50064 -0.902087 0
M  V30 4021 O 386.556 -4.37717 0.18305 0
M  V30 4022 C 388.057 -4.13268 -1.60389 0
M  V30 4023 H 385.277 -0.664509 -0.0931053 0
M  V30 4024 H 387.821 -2.0124 0.36369 0
M  V30 4025 H 385.976 -3.52583 -1.60511 0
M  V30 4026 H 386.39 -5.24097 -0.205579 0
M  V30 4027 H 387.864 -5.17733 -1.91458 0
M  V30 4028 H 388.341 -3.59434 -2.52397 0
M  V30 4029 H 388.947 -4.14655 -0.945576 0
M  V30 4030 N 387.262 0.0317525 -1.57568 0
M  V30 4031 C 388.192 1.03274 -2.0942 0
M  V30 4032 C 389.173 1.3788 -0.996143 0
M  V30 4033 O 390.358 1.46811 -1.27122 0
M  V30 4034 C 387.488 2.33448 -2.57137 0
M  V30 4035 C 386.442 2.13091 -3.71182 0
M  V30 4036 C 385.768 3.49001 -4.05095 0
M  V30 4037 C 387.068 1.51928 -4.99715 0
M  V30 4038 H 388.762 0.60112 -2.93303 0
M  V30 4039 H 386.308 0.287705 -1.41097 0
M  V30 4040 H 388.261 3.03802 -2.92032 0
M  V30 4041 H 386.985 2.78665 -1.70333 0
M  V30 4042 H 385.644 1.45171 -3.36632 0
M  V30 4043 H 385.292 3.91862 -3.15362 0
M  V30 4044 H 384.992 3.36207 -4.81911 0
M  V30 4045 H 386.516 4.20721 -4.42522 0
M  V30 4046 H 387.93 2.12196 -5.32584 0
M  V30 4047 H 386.327 1.49716 -5.81124 0
M  V30 4048 H 387.397 0.484811 -4.8247 0
M  V30 4049 N 388.74 1.54641 0.303973 0
M  V30 4050 C 389.688 1.86137 1.39484 0
M  V30 4051 C 390.682 0.734854 1.52631 0
M  V30 4052 O 391.888 0.918803 1.54784 0
M  V30 4053 H 388.263 0.590324 0.465856 0
M  V30 4054 H 390.234 2.77324 1.10154 0
M  V30 4055 C 388.983 2.12274 2.75382 0
M  V30 4056 H 388.306 2.98429 2.66046 0
M  V30 4057 H 389.746 2.38254 3.5073 0
M  V30 4058 C 388.205 0.920365 3.24085 0
M  V30 4059 O 388.735 0.139377 4.01458 0
M  V30 4060 N 386.941 0.726566 2.81371 0
M  V30 4061 H 386.488 1.36332 2.18567 0
M  V30 4062 H 386.446 -0.0763799 3.14307 0
M  V30 4063 N 390.218 -0.567019 1.47046 0
M  V30 4064 C 391.148 -1.68482 1.61667 0
M  V30 4065 C 392.129 -1.6358 0.466418 0
M  V30 4066 O 393.314 -1.81354 0.694574 0
M  V30 4067 C 390.444 -3.07124 1.62148 0
M  V30 4068 C 389.398 -3.26867 2.76301 0
M  V30 4069 C 388.724 -4.66196 2.61849 0
M  V30 4070 C 390.024 -3.13186 4.17986 0
M  V30 4071 H 391.718 -1.56502 2.5524 0
M  V30 4072 H 389.264 -0.751486 1.22836 0
M  V30 4073 H 391.217 -3.8516 1.70968 0
M  V30 4074 H 389.941 -3.2004 0.651287 0
M  V30 4075 H 388.6 -2.51237 2.66975 0
M  V30 4076 H 388.248 -4.75898 1.62879 0
M  V30 4077 H 387.948 -4.80356 3.38425 0
M  V30 4078 H 389.472 -5.46379 2.72584 0
M  V30 4079 H 390.886 -3.81049 4.2834 0
M  V30 4080 H 389.283 -3.3886 4.95272 0
M  V30 4081 H 390.353 -2.10057 4.3704 0
M  V30 4082 N 391.696 -1.35014 -0.812953 0
M  V30 4083 C 392.973 -1.18502 -1.55617 0
M  V30 4084 C 393.353 0.238421 -2.09749 0
M  V30 4085 O 392.701 1.2411 -1.91857 0
M  V30 4086 C 392.911 -2.24783 -2.66971 0
M  V30 4087 C 394.259 -2.60268 -3.35478 0
M  V30 4088 O 395.283 -2.23648 -2.77236 0
M  V30 4089 O 394.142 -3.2321 -4.40678 0
M  V30 4090 H 391.236 -0.459984 -0.687272 0
M  V30 4091 H 393.782 -1.46677 -0.853464 0
M  V30 4092 H 392.554 -3.20284 -2.24798 0
M  V30 4093 H 392.177 -1.97841 -3.44884 0
M  V30 4094 N 393.175 1.03435 -1.18907 0
M  V30 4095 C 394.107 2.1165 -0.879595 0
M  V30 4096 C 395.12 1.62316 0.125439 0
M  V30 4097 O 396.309 1.78201 -0.103245 0
M  V30 4098 C 393.409 3.37622 -0.294042 0
M  V30 4099 C 392.582 4.16166 -1.34629 0
M  V30 4100 C 391.641 5.20457 -0.775274 0
M  V30 4101 O 390.667 5.50379 -1.4516 0
M  V30 4102 N 391.869 5.78949 0.424126 0
M  V30 4103 H 394.634 2.38791 -1.81105 0
M  V30 4104 H 392.195 1.19681 -1.09032 0
M  V30 4105 H 394.187 4.04572 0.101679 0
M  V30 4106 H 392.757 3.07873 0.541575 0
M  V30 4107 H 391.977 3.44444 -1.91707 0
M  V30 4108 H 393.265 4.65432 -2.05549 0
M  V30 4109 H 392.663 5.56948 0.991209 0
M  V30 4110 H 391.22 6.47334 0.761691 0
M  V30 4111 N 394.653 0.992116 1.22453 0
M  V30 4112 C 395.899 0.668523 1.91464 0
M  V30 4113 C 396.232 -0.797313 1.77078 0
M  V30 4114 O 395.507 -1.5765 1.13916 0
M  V30 4115 C 395.79 1.07424 3.43703 0
M  V30 4116 C 395.643 2.59857 3.67143 0
M  V30 4117 C 396.962 0.626891 4.35612 0
M  V30 4118 H 394.081 0.244341 0.695318 0
M  V30 4119 H 396.723 1.2355 1.44345 0
M  V30 4120 H 394.873 0.591816 3.83966 0
M  V30 4121 H 396.545 3.15764 3.3629 0
M  V30 4122 H 394.788 3.01961 3.11451 0
M  V30 4123 H 395.459 2.83296 4.73759 0
M  V30 4124 H 397.935 1.04125 4.02861 0
M  V30 4125 H 396.811 0.939076 5.40807 0
M  V30 4126 H 397.072 -0.472457 4.39568 0
M  V30 4127 N 396.131 -1.37776 0.765217 0
M  V30 4128 C 397.408 -1.93975 0.251596 0
M  V30 4129 C 397.788 -1.69949 -1.25222 0
M  V30 4130 O 397.136 -1.04457 -2.03226 0
M  V30 4131 C 397.346 -3.43487 0.617895 0
M  V30 4132 C 398.694 -4.20564 0.584029 0
M  V30 4133 O 399.718 -3.5182 0.556888 0
M  V30 4134 O 398.577 -5.43138 0.605291 0
M  V30 4135 H 395.671 -0.82509 0.0561806 0
M  V30 4136 H 398.217 -1.47101 0.846128 0
M  V30 4137 H 396.989 -3.5453 1.65602 0
M  V30 4138 H 396.612 -3.976 -0.00403411 0
M  V30 4139 N 397.609 -0.515225 -1.4894 0
M  V30 4140 C 398.856 0.024215 -2.02486 0
M  V30 4141 C 399.184 1.35671 -1.39368 0
M  V30 4142 O 398.439 1.88566 -0.523574 0
M  V30 4143 C 398.738 0.210595 -3.56779 0
M  V30 4144 C 398.404 -1.04569 -4.38607 0
M  V30 4145 C 397.066 -1.39002 -4.60686 0
M  V30 4146 C 399.418 -1.88008 -4.86109 0
M  V30 4147 C 396.746 -2.568 -5.27514 0
M  V30 4148 C 399.098 -3.04972 -5.54234 0
M  V30 4149 C 397.762 -3.39768 -5.74555 0
M  V30 4150 H 397.032 0.00886088 -0.740947 0
M  V30 4151 H 399.679 -0.678263 -1.79086 0
M  V30 4152 H 397.984 0.99572 -3.78936 0
M  V30 4153 H 399.681 0.642659 -3.95817 0
M  V30 4154 H 396.271 -0.767497 -4.21672 0
M  V30 4155 H 400.455 -1.62719 -4.68867 0
M  V30 4156 H 395.711 -2.8398 -5.41447 0
M  V30 4157 H 399.885 -3.69943 -5.90013 0
M  V30 4158 H 397.512 -4.31148 -6.26112 0
M  V30 4159 N 399.087 1.5561 -0.249682 0
M  V30 4160 C 400.019 2.18834 0.681496 0
M  V30 4161 C 401.032 1.16546 1.1367 0
M  V30 4162 O 402.221 1.43397 1.06299 0
M  V30 4163 C 399.321 2.77992 1.9384 0
M  V30 4164 C 398.494 4.05725 1.63419 0
M  V30 4165 C 397.553 4.49174 2.74096 0
M  V30 4166 O 396.579 5.15492 2.41364 0
M  V30 4167 N 397.781 4.17191 4.03649 0
M  V30 4168 H 400.546 2.9937 0.140514 0
M  V30 4169 H 398.107 1.6175 -0.0697541 0
M  V30 4170 H 400.099 3.04015 2.67127 0
M  V30 4171 H 398.669 2.01596 2.38909 0
M  V30 4172 H 397.889 3.87261 0.736358 0
M  V30 4173 H 399.177 4.88999 1.40562 0
M  V30 4174 H 398.575 3.63955 4.33074 0
M  V30 4175 H 397.132 4.48043 4.73393 0
M  V30 4176 N 400.565 -0.0233959 1.57583 0
M  V30 4177 C 401.515 -1.03023 2.03397 0
M  V30 4178 C 402.499 -1.31701 0.924315 0
M  V30 4179 O 403.691 -1.31191 1.18819 0
M  V30 4180 C 400.82 -2.32961 2.52159 0
M  V30 4181 C 399.906 -2.07349 3.69956 0
M  V30 4182 N 400.297 -1.51814 4.82479 0
M  V30 4183 C 398.595 -2.37606 3.77438 0
M  V30 4184 C 399.296 -1.42136 5.64068 0
M  V30 4185 N 398.272 -1.89891 5.09355 0
M  V30 4186 H 402.074 -0.594962 2.87815 0
M  V30 4187 H 399.588 -0.229586 1.60769 0
M  V30 4188 H 401.585 -3.05906 2.83244 0
M  V30 4189 H 400.245 -2.77162 1.69149 0
M  V30 4190 H 401.256 -1.20008 5.03804 0
M  V30 4191 H 397.933 -2.84842 3.05239 0
M  V30 4192 H 399.323 -0.996405 6.64471 0
M  V30 4193 N 402.043 -1.548 -0.295768 0
M  V30 4194 C 403.006 -1.85363 -1.34808 0
M  V30 4195 C 404.006 -0.726817 -1.43436 0
M  V30 4196 O 405.196 -0.995088 -1.42981 0
M  V30 4197 C 402.328 -2.03859 -2.73229 0
M  V30 4198 H 403.521 -2.7941 -1.08949 0
M  V30 4199 H 401.074 -1.46942 -0.532702 0
M  V30 4200 H 401.809 -1.12117 -3.04303 0
M  V30 4201 H 401.594 -2.8588 -2.68356 0
M  V30 4202 H 403.084 -2.28857 -3.49305 0
M  V30 4203 N 403.521 0.559213 -1.47345 0
M  V30 4204 C 404.769 1.31388 -1.53563 0
M  V30 4205 C 405.09 1.93985 -0.198678 0
M  V30 4206 O 404.36 1.79825 0.777167 0
M  V30 4207 H 402.94 0.487901 -0.565652 0
M  V30 4208 H 405.602 0.65315 -1.8363 0
M  V30 4209 H 404.698 2.10844 -2.30111 0
M  V30 4210 N 404.999 1.35443 0.805782 0
M  V30 4211 C 405.947 1.28465 1.93906 0
M  V30 4212 C 406.941 0.17943 1.68447 0
M  V30 4213 O 408.147 0.345459 1.76654 0
M  V30 4214 H 404.522 0.399528 0.637088 0
M  V30 4215 H 406.493 2.24206 1.96912 0
M  V30 4216 C 405.242 1.07432 3.30687 0
M  V30 4217 H 404.565 1.91716 3.50835 0
M  V30 4218 H 406.005 1.06591 4.10383 0
M  V30 4219 C 404.464 -0.22179 3.36169 0
M  V30 4220 O 404.994 -1.21731 3.82811 0
M  V30 4221 N 403.2 -0.260841 2.89427 0
M  V30 4222 H 402.747 0.549884 2.51663 0
M  V30 4223 H 402.705 -1.12777 2.93477 0
M  V30 4224 N 406.477 -1.02803 1.19454 0
M  V30 4225 C 407.707 -1.79581 1.02149 0
M  V30 4226 C 408.115 -1.84182 -0.432851 0
M  V30 4227 O 407.458 -1.28534 -1.31243 0
M  V30 4228 C 407.52 -3.25993 1.51554 0
M  V30 4229 C 407.184 -3.45025 2.99678 0
M  V30 4230 C 408.181 -3.35175 3.97434 0
M  V30 4231 C 405.866 -3.71212 3.38389 0
M  V30 4232 C 407.86 -3.51238 5.31893 0
M  V30 4233 C 405.547 -3.8692 4.73008 0
M  V30 4234 C 406.545 -3.76936 5.69569 0
M  V30 4235 O 406.233 -3.92179 7.01748 0
M  V30 4236 H 405.965 -0.571962 0.360327 0
M  V30 4237 H 408.519 -1.30367 1.58725 0
M  V30 4238 H 406.749 -3.76235 0.893543 0
M  V30 4239 H 408.438 -3.84368 1.30444 0
M  V30 4240 H 409.204 -3.14895 3.68872 0
M  V30 4241 H 405.083 -3.78075 2.6378 0
M  V30 4242 H 408.627 -3.43362 6.07247 0
M  V30 4243 H 404.524 -4.06699 5.01265 0
M  V30 4244 H 405.292 -4.09265 7.08833 0
M  V30 4245 N 407.956 -0.998596 -1.21925 0
M  V30 4246 C 409.181 -0.696015 -1.95372 0
M  V30 4247 C 409.606 0.733826 -1.73195 0
M  V30 4248 O 408.964 1.50242 -1.01474 0
M  V30 4249 C 409.012 -1.01466 -3.4603 0
M  V30 4250 O 408.116 -0.116415 -4.12236 0
M  V30 4251 H 407.457 -0.259938 -0.611006 0
M  V30 4252 H 409.987 -1.33711 -1.54863 0
M  V30 4253 H 409.997 -0.958855 -3.96573 0
M  V30 4254 H 408.672 -2.05653 -3.61497 0
M  V30 4255 H 407.249 -0.228193 -3.72201 0
M  V30 4256 N 409.434 1.37368 -0.772513 0
M  V30 4257 C 410.674 2.01512 -0.342361 0
M  V30 4258 C 411.038 1.59997 1.06136 0
M  V30 4259 O 412.239 2.16609 1.59167 0
M  V30 4260 C 410.51 3.54134 -0.482048 0
M  V30 4261 S 412.069 4.38585 -0.137272 0
M  V30 4262 H 408.887 0.698699 -0.131686 0
M  V30 4263 H 411.489 1.67552 -1.0073 0
M  V30 4264 H 410.193 3.81837 -1.50428 0
M  V30 4265 H 409.724 3.92894 0.199413 0
M  V30 4266 H 411.739 4.84594 1.06692 0
M  V30 4267 N 410.912 0.523116 1.48665 0
M  V30 4268 C 412.158 -0.0134963 2.02796 0
M  V30 4269 C 412.491 -1.34582 1.40004 0
M  V30 4270 O 411.766 -1.86756 0.543381 0
M  V30 4271 C 412.049 -0.14276 3.59817 0
M  V30 4272 C 411.902 1.21425 4.331 0
M  V30 4273 C 413.221 -0.872856 4.31357 0
M  V30 4274 H 410.34 -0.00343074 0.736992 0
M  V30 4275 H 412.982 0.678816 1.7746 0
M  V30 4276 H 411.132 -0.732401 3.81534 0
M  V30 4277 H 412.804 1.84447 4.2282 0
M  V30 4278 H 411.047 1.79791 3.94788 0
M  V30 4279 H 411.718 1.07687 5.41394 0
M  V30 4280 H 414.194 -0.372555 4.14429 0
M  V30 4281 H 413.07 -0.932185 5.40927 0
M  V30 4282 H 413.331 -1.92161 3.98154 0
M  V30 4283 N 412.39 -1.55475 0.257931 0
M  V30 4284 C 413.353 -2.20551 -0.623706 0
M  V30 4285 C 414.353 -1.17809 -1.09443 0
M  V30 4286 O 415.543 -1.42823 -0.997362 0
M  V30 4287 C 412.675 -2.85784 -1.8585 0
M  V30 4288 H 413.868 -2.99848 -0.0557743 0
M  V30 4289 H 411.421 -1.56298 0.0084422 0
M  V30 4290 H 412.156 -2.10453 -2.46739 0
M  V30 4291 H 411.941 -3.61057 -1.52907 0
M  V30 4292 H 413.431 -3.35553 -2.48584 0
M  V30 4293 N 413.868 0.0150385 -1.57593 0
M  V30 4294 C 415.093 0.718067 -1.94573 0
M  V30 4295 C 415.518 1.6734 -0.859005 0
M  V30 4296 O 414.876 1.80362 0.184147 0
M  V30 4297 C 414.924 1.43918 -3.30636 0
M  V30 4298 O 414.028 2.55299 -3.23876 0
M  V30 4299 H 413.369 0.192125 -0.635597 0
M  V30 4300 H 415.899 -0.0336708 -2.04572 0
M  V30 4301 H 415.909 1.80598 -3.65853 0
M  V30 4302 H 414.584 0.738619 -4.09289 0
M  V30 4303 H 413.161 2.21058 -3.00312 0
M  V30 4304 N 415.346 1.54954 0.287554 0
M  V30 4305 C 416.294 1.87606 1.37502 0
M  V30 4306 C 417.288 0.751001 1.51843 0
M  V30 4307 O 418.494 0.935169 1.53801 0
M  V30 4308 H 414.869 0.595231 0.459569 0
M  V30 4309 H 416.84 2.78477 1.07206 0
M  V30 4310 C 415.589 2.15183 2.73115 0
M  V30 4311 H 414.912 3.01234 2.62866 0
M  V30 4312 H 416.352 2.4196 3.48183 0
M  V30 4313 C 414.811 0.954686 3.2309 0
M  V30 4314 O 415.341 0.181949 4.01288 0
M  V30 4315 N 413.547 0.756368 2.80584 0
M  V30 4316 H 413.094 1.38643 2.17108 0
M  V30 4317 H 413.052 -0.0430391 3.14371 0
M  V30 4318 N 416.824 -0.551391 1.4764 0
M  V30 4319 C 418.07 -1.31024 1.54792 0
M  V30 4320 C 418.403 -1.9304 0.211967 0
M  V30 4321 O 417.678 -1.78175 -0.77999 0
M  V30 4322 C 417.961 -2.41593 2.67029 0
M  V30 4323 C 417.814 -1.84408 4.10261 0
M  V30 4324 C 419.133 -3.43488 2.75143 0
M  V30 4325 H 416.252 -0.475031 0.563485 0
M  V30 4326 H 418.894 -0.616454 1.79722 0
M  V30 4327 H 417.044 -3.00772 2.45904 0
M  V30 4328 H 418.716 -1.29445 4.42766 0
M  V30 4329 H 416.959 -1.15051 4.18265 0
M  V30 4330 H 417.63 -2.64367 4.84576 0
M  V30 4331 H 420.106 -2.94236 2.94218 0
M  V30 4332 H 418.982 -4.18274 3.55441 0
M  V30 4333 H 419.243 -4.02703 1.82435 0
M  V30 4334 N 418.302 -1.35869 -0.798587 0
M  V30 4335 C 419.234 -1.25305 -1.91915 0
M  V30 4336 C 420.247 -0.174548 -1.61862 0
M  V30 4337 O 421.436 -0.428499 -1.73281 0
M  V30 4338 C 418.536 -0.9086 -3.26493 0
M  V30 4339 C 417.709 -2.08711 -3.84394 0
M  V30 4340 C 416.768 -1.71717 -4.97393 0
M  V30 4341 O 415.794 -2.43692 -5.14396 0
M  V30 4342 N 416.996 -0.645473 -5.769 0
M  V30 4343 H 419.761 -2.21849 -2.01502 0
M  V30 4344 H 417.322 -1.29143 -0.976408 0
M  V30 4345 H 419.314 -0.642455 -3.99568 0
M  V30 4346 H 417.884 -0.0325815 -3.12583 0
M  V30 4347 H 417.104 -2.51659 -3.03416 0
M  V30 4348 H 418.392 -2.87468 -4.19809 0
M  V30 4349 H 417.79 -0.047648 -5.6568 0
M  V30 4350 H 416.347 -0.43913 -6.50319 0
M  V30 4351 N 419.78 1.02168 -1.19998 0
M  V30 4352 C 421.028 1.75338 -1.00504 0
M  V30 4353 C 421.349 1.89387 0.464506 0
M  V30 4354 O 420.619 1.43268 1.33608 0
M  V30 4355 H 419.199 0.649564 -0.368885 0
M  V30 4356 H 421.861 1.23205 -1.51018 0
M  V30 4357 H 420.957 2.75892 -1.45912 0
M  V30 4358 N 421.258 1.00505 1.21394 0
M  V30 4359 C 422.205 0.565496 2.23765 0
M  V30 4360 C 423.175 -0.408466 1.60999 0
M  V30 4361 O 424.36 -0.310503 1.88257 0
M  V30 4362 C 421.5 -0.101667 3.4495 0
M  V30 4363 C 420.613 0.915479 4.22188 0
M  V30 4364 C 419.748 0.220574 5.30742 0
M  V30 4365 C 418.787 1.22527 5.99711 0
M  V30 4366 N 417.924 0.557831 6.9988 0
M  V30 4367 H 422.764 1.44314 2.60725 0
M  V30 4368 H 420.301 0.722643 1.28126 0
M  V30 4369 H 422.259 -0.505504 4.14126 0
M  V30 4370 H 420.889 -0.94303 3.08718 0
M  V30 4371 H 419.941 1.43756 3.52191 0
M  V30 4372 H 421.253 1.68005 4.69655 0
M  V30 4373 H 420.407 -0.239368 6.06228 0
M  V30 4374 H 419.146 -0.576401 4.84282 0
M  V30 4375 H 418.151 1.69571 5.22997 0
M  V30 4376 H 419.376 2.02332 6.48258 0
M  V30 4377 H 417.322 -0.219486 6.55633 0
M  V30 4378 H 417.239 1.26065 7.45415 0
M  V30 4379 H 418.507 0.121095 7.79406 0
M  V30 4380 N 422.737 -1.36956 0.779787 0
M  V30 4381 C 423.687 -2.27539 0.144892 0
M  V30 4382 C 424.671 -1.46493 -0.665488 0
M  V30 4383 O 425.863 -1.68968 -0.527141 0
M  V30 4384 C 422.992 -3.35512 -0.727082 0
M  V30 4385 C 422.078 -4.24001 0.0915642 0
M  V30 4386 N 422.469 -4.92757 1.14125 0
M  V30 4387 C 420.767 -4.45807 -0.131141 0
M  V30 4388 C 421.468 -5.58138 1.6388 0
M  V30 4389 N 420.444 -5.35241 0.94962 0
M  V30 4390 H 424.246 -2.78176 0.948446 0
M  V30 4391 H 421.76 -1.50169 0.618315 0
M  V30 4392 H 423.757 -3.99324 -1.19776 0
M  V30 4393 H 422.417 -2.86431 -1.52929 0
M  V30 4394 H 423.428 -4.94984 1.52353 0
M  V30 4395 H 420.105 -4.07582 -0.904621 0
M  V30 4396 H 421.495 -6.23071 2.51461 0
M  V30 4397 N 424.215 -0.530993 -1.48385 0
M  V30 4398 C 425.44 0.000729535 -2.074 0
M  V30 4399 C 425.865 1.27298 -1.3848 0
M  V30 4400 O 425.223 1.75599 -0.451081 0
M  V30 4401 C 425.271 0.206697 -3.60007 0
M  V30 4402 O 424.375 1.27514 -3.92191 0
M  V30 4403 H 423.716 -0.039583 -0.662819 0
M  V30 4404 H 426.246 -0.739194 -1.9078 0
M  V30 4405 H 426.256 0.42904 -4.05738 0
M  V30 4406 H 424.931 -0.722675 -4.09573 0
M  V30 4407 H 423.508 1.03537 -3.58238 0
M  V30 4408 N 425.693 1.55336 -0.266172 0
M  V30 4409 C 426.921 2.03801 0.356756 0
M  V30 4410 C 427.336 1.14485 1.50129 0
M  V30 4411 O 426.693 0.163121 1.8177 0
M  V30 4412 C 426.744 3.51455 0.846281 0
M  V30 4413 O 426.465 4.37371 -0.252663 0
M  V30 4414 C 427.966 4.15767 1.53794 0
M  V30 4415 H 425.186 0.665906 0.0825218 0
M  V30 4416 H 427.73 2.00636 -0.39566 0
M  V30 4417 H 425.885 3.55092 1.54881 0
M  V30 4418 H 426.299 5.24358 0.122173 0
M  V30 4419 H 427.773 5.20714 1.83198 0
M  V30 4420 H 428.25 3.63404 2.46646 0
M  V30 4421 H 428.856 4.16107 0.879488 0
M  V30 4422 N 427.171 -0.0066808 1.57599 0
M  V30 4423 C 428.396 -0.707738 1.94951 0
M  V30 4424 C 428.821 -1.66882 0.867868 0
M  V30 4425 O 428.179 -1.80457 -0.17458 0
M  V30 4426 C 428.227 -1.42162 3.31394 0
M  V30 4427 O 427.331 -2.53578 3.25226 0
M  V30 4428 H 426.672 -0.188752 0.636607 0
M  V30 4429 H 429.202 0.0445193 2.04552 0
M  V30 4430 H 429.212 -1.78655 3.66806 0
M  V30 4431 H 427.887 -0.716903 4.09675 0
M  V30 4432 H 426.464 -2.19463 3.01481 0
M  V30 4433 N 428.649 -1.55105 -0.279332 0
M  V30 4434 C 429.582 -1.82467 -1.37044 0
M  V30 4435 C 430.56 -0.677261 -1.47824 0
M  V30 4436 O 431.744 -0.919578 -1.64548 0
M  V30 4437 C 428.871 -1.98066 -2.7475 0
M  V30 4438 C 427.917 -3.20594 -2.81286 0
M  V30 4439 S 428.75 -4.78116 -2.41175 0
M  V30 4440 C 429.906 -4.9668 -3.80867 0
M  V30 4441 H 430.139 -2.74728 -1.1363 0
M  V30 4442 H 427.672 -1.46794 -0.478625 0
M  V30 4443 H 429.63 -2.07739 -3.54055 0
M  V30 4444 H 428.291 -1.06704 -2.9542 0
M  V30 4445 H 427.484 -3.28376 -3.82341 0
M  V30 4446 H 427.086 -3.09479 -2.09996 0
M  V30 4447 H 429.378 -4.82033 -4.76078 0
M  V30 4448 H 430.321 -5.98741 -3.78041 0
M  V30 4449 H 430.729 -4.24698 -3.71876 0
M  V30 4450 N 430.127 0.543554 -1.4793 0
M  V30 4451 C 431.374 1.30008 -1.55255 0
M  V30 4452 C 431.702 1.93245 -0.220612 0
M  V30 4453 O 430.957 1.79141 0.787843 0
M  V30 4454 C 431.256 2.42078 -2.62932 0
M  V30 4455 C 430.922 1.96583 -4.0579 0
M  V30 4456 C 429.584 1.83893 -4.44676 0
M  V30 4457 C 431.936 1.62034 -4.95373 0
M  V30 4458 C 429.264 1.34969 -5.70964 0
M  V30 4459 C 431.616 1.14577 -6.22137 0
M  V30 4460 C 430.28 1.00493 -6.59892 0
M  V30 4461 H 429.55 0.475735 -0.568117 0
M  V30 4462 H 432.197 0.608075 -1.81589 0
M  V30 4463 H 430.502 3.16892 -2.30406 0
M  V30 4464 H 432.199 3.00236 -2.65818 0
M  V30 4465 H 428.789 2.07407 -3.75074 0
M  V30 4466 H 432.973 1.70705 -4.66019 0
M  V30 4467 H 428.229 1.2274 -5.98953 0
M  V30 4468 H 432.403 0.869109 -6.90955 0
M  V30 4469 H 430.03 0.623624 -7.57638 0
M  V30 4470 N 431.605 1.3629 0.791371 0
M  V30 4471 C 432.852 1.30412 1.54916 0
M  V30 4472 C 433.18 -0.117162 1.94147 0
M  V30 4473 O 432.435 -1.08599 1.62803 0
M  V30 4474 C 432.734 2.17068 2.8393 0
M  V30 4475 C 432.4 3.65645 2.63846 0
M  V30 4476 C 431.062 4.0614 2.58077 0
M  V30 4477 C 433.414 4.59855 2.45322 0
M  V30 4478 C 430.742 5.3899 2.31748 0
M  V30 4479 C 433.094 5.9292 2.2052 0
M  V30 4480 C 431.758 6.32542 2.13183 0
M  V30 4481 H 431.028 0.47721 0.566879 0
M  V30 4482 H 433.675 1.68325 0.913172 0
M  V30 4483 H 431.98 1.72085 3.51986 0
M  V30 4484 H 433.677 2.09846 3.4171 0
M  V30 4485 H 430.267 3.33518 2.69191 0
M  V30 4486 H 434.451 4.29443 2.48782 0
M  V30 4487 H 429.707 5.68672 2.24548 0
M  V30 4488 H 433.881 6.65487 2.05182 0
M  V30 4489 H 431.508 7.35412 1.92544 0
M  V30 4490 N 433.083 -1.0153 1.20538 0
M  V30 4491 C 434.499 -1.27461 0.96051 0
M  V30 4492 C 434.699 -1.98273 -0.359193 0
M  V30 4493 O 433.755 -2.27886 -1.0874 0
M  V30 4494 C 435.068 -2.10837 2.14402 0
M  V30 4495 C 436.616 -2.24099 2.18515 0
M  V30 4496 C 437.091 -3.10852 3.36355 0
M  V30 4497 N 438.582 -3.18441 3.36377 0
M  V30 4498 C 439.317 -3.85795 4.24205 0
M  V30 4499 N 438.813 -4.55264 5.22213 0
M  V30 4500 N 440.606 -3.82331 4.12043 0
M  V30 4501 H 432.757 -0.539907 2.05423 0
M  V30 4502 H 435.02 -0.30092 0.898972 0
M  V30 4503 H 434.726 -1.66144 3.09983 0
M  V30 4504 H 434.6 -3.11576 2.12604 0
M  V30 4505 H 436.987 -2.68016 1.23497 0
M  V30 4506 H 437.068 -1.22865 2.24361 0
M  V30 4507 H 436.712 -2.6764 4.31661 0
M  V30 4508 H 436.642 -4.12177 3.27746 0
M  V30 4509 H 439.133 -2.68978 2.65442 0
M  V30 4510 H 439.446 -5.04331 5.85551 0
M  V30 4511 H 437.791 -4.54085 5.26148 0
M  V30 4512 H 440.982 -3.27207 3.34743 0
M  V30 4513 H 441.155 -4.34547 4.807 0
M  V30 4514 N 434.561 -1.01147 -1.20859 0
M  V30 4515 C 435.807 -0.698899 -1.90377 0
M  V30 4516 C 436.14 0.76904 -1.78324 0
M  V30 4517 O 435.415 1.55817 -1.16409 0
M  V30 4518 C 435.698 -1.12878 -3.41951 0
M  V30 4519 C 435.551 -2.65665 -3.62963 0
M  V30 4520 C 436.87 -0.696114 -4.3456 0
M  V30 4521 H 433.989 -0.255372 -0.691342 0
M  V30 4522 H 436.631 -1.25831 -1.42361 0
M  V30 4523 H 434.781 -0.652827 -3.82976 0
M  V30 4524 H 436.453 -3.21074 -3.31224 0
M  V30 4525 H 434.696 -3.06878 -3.06608 0
M  V30 4526 H 435.367 -2.90797 -4.69192 0
M  V30 4527 H 437.843 -1.10521 -4.01154 0
M  V30 4528 H 436.719 -1.025 -5.39245 0
M  V30 4529 H 436.98 0.402465 -4.40264 0
M  V30 4530 N 436.039 1.36541 -0.78704 0
M  V30 4531 C 437.285 1.99599 -0.358872 0
M  V30 4532 C 437.618 1.62323 1.06606 0
M  V30 4533 O 436.893 0.876858 1.73613 0
M  V30 4534 C 437.176 3.56327 -0.519944 0
M  V30 4535 C 437.029 4.03464 -1.98839 0
M  V30 4536 C 438.348 4.4005 0.0664737 0
M  V30 4537 H 435.467 0.725107 -0.131869 0
M  V30 4538 H 438.109 1.6199 -0.992936 0
M  V30 4539 H 436.259 3.88495 0.0198321 0
M  V30 4540 H 437.931 3.81793 -2.58905 0
M  V30 4541 H 436.174 3.55092 -2.49183 0
M  V30 4542 H 436.845 5.12439 -2.05207 0
M  V30 4543 H 439.321 4.14228 -0.394267 0
M  V30 4544 H 438.197 5.48847 -0.0762682 0
M  V30 4545 H 438.458 4.26655 1.15835 0
M  V30 4546 N 437.518 0.538854 1.48102 0
M  V30 4547 C 438.428 -0.222648 2.33541 0
M  V30 4548 C 439.444 -0.930225 1.47047 0
M  V30 4549 O 440.62 -0.903211 1.80011 0
M  V30 4550 C 437.685 -1.25064 3.23357 0
M  V30 4551 C 436.746 -0.552469 4.2573 0
M  V30 4552 C 435.979 -1.53149 5.11254 0
M  V30 4553 O 436.202 -2.76487 4.9891 0
M  V30 4554 O 435.136 -1.06602 5.92385 0
M  V30 4555 H 438.962 0.477707 2.99919 0
M  V30 4556 H 436.547 0.299669 1.46364 0
M  V30 4557 H 438.429 -1.8445 3.78888 0
M  V30 4558 H 437.104 -1.93325 2.59629 0
M  V30 4559 H 436.011 0.082114 3.7401 0
M  V30 4560 H 437.344 0.0883526 4.92121 0
M  V30 4561 N 438.996 -1.55193 0.274407 0
M  V30 4562 C 440.221 -2.04446 -0.348824 0
M  V30 4563 C 440.646 -1.15149 -1.48735 0
M  V30 4564 O 440.004 -0.149952 -1.80679 0
M  V30 4565 C 440.052 -3.51431 -0.808009 0
M  V30 4566 O 439.156 -3.65225 -1.91531 0
M  V30 4567 H 438.497 -0.66006 -0.0722276 0
M  V30 4568 H 441.027 -2.00481 0.408498 0
M  V30 4569 H 441.037 -3.92781 -1.10395 0
M  V30 4570 H 439.712 -4.15892 0.0249865 0
M  V30 4571 H 438.289 -3.35778 -1.62196 0
M  V30 4572 N 440.474 -0.00167713 -1.576 0
M  V30 4573 C 441.437 0.974046 -2.07473 0
M  V30 4574 C 442.437 1.27143 -0.984444 0
M  V30 4575 O 443.627 1.21633 -1.24703 0
M  V30 4576 C 440.759 2.29849 -2.51759 0
M  V30 4577 H 441.952 0.54262 -2.9495 0
M  V30 4578 H 439.505 0.245829 -1.54355 0
M  V30 4579 H 440.24 2.77677 -1.67529 0
M  V30 4580 H 440.025 2.09584 -3.31386 0
M  V30 4581 H 441.515 2.9984 -2.90664 0
M  V30 4582 N 441.952 1.55251 0.271103 0
M  V30 4583 C 443.182 1.79713 1.01916 0
M  V30 4584 C 443.59 0.571613 1.80359 0
M  V30 4585 O 442.933 -0.468853 1.77616 0
M  V30 4586 C 442.995 2.97138 2.02359 0
M  V30 4587 C 442.659 4.34104 1.42837 0
M  V30 4588 C 443.656 5.13019 0.843071 0
M  V30 4589 C 441.341 4.80765 1.455 0
M  V30 4590 C 443.335 6.36729 0.292333 0
M  V30 4591 C 441.022 6.0443 0.900402 0
M  V30 4592 C 442.02 6.8225 0.32007 0
M  V30 4593 O 441.708 8.03582 -0.226031 0
M  V30 4594 H 441.44 0.602431 0.306681 0
M  V30 4595 H 443.994 2.03097 0.306701 0
M  V30 4596 H 442.224 2.6945 2.77369 0
M  V30 4597 H 443.913 3.08907 2.63309 0
M  V30 4598 H 444.679 4.781 0.815178 0
M  V30 4599 H 440.558 4.20202 1.89609 0
M  V30 4600 H 444.102 6.97414 -0.161274 0
M  V30 4601 H 439.999 6.3883 0.925541 0
M  V30 4602 H 440.767 8.18418 -0.115572 0
M  V30 4603 N 443.43 -0.535701 1.48216 0
M  V30 4604 C 444.36 -1.65014 1.65204 0
M  V30 4605 C 445.341 -1.62554 0.501011 0
M  V30 4606 O 446.526 -1.7984 0.732886 0
M  V30 4607 C 443.656 -3.03616 1.68626 0
M  V30 4608 C 442.61 -3.20932 2.83172 0
M  V30 4609 C 441.936 -4.60537 2.71679 0
M  V30 4610 C 443.236 -3.04249 4.24535 0
M  V30 4611 H 444.93 -1.51053 2.58502 0
M  V30 4612 H 442.476 -0.725262 1.24402 0
M  V30 4613 H 444.429 -3.81446 1.79099 0
M  V30 4614 H 443.153 -3.18587 0.719026 0
M  V30 4615 H 441.812 -2.45517 2.72244 0
M  V30 4616 H 441.46 -4.72336 1.72937 0
M  V30 4617 H 441.16 -4.73069 3.48538 0
M  V30 4618 H 442.684 -5.40475 2.84112 0
M  V30 4619 H 444.098 -3.71877 4.36326 0
M  V30 4620 H 442.495 -3.28278 5.02348 0
M  V30 4621 H 443.565 -2.00739 4.41397 0
M  V30 4622 N 444.908 -1.36708 -0.784132 0
M  V30 4623 C 445.856 -1.31533 -1.91838 0
M  V30 4624 C 446.85 -0.206205 -1.6814 0
M  V30 4625 O 448.056 -0.373519 -1.76082 0
M  V30 4626 H 444.431 -0.409613 -0.630651 0
M  V30 4627 H 446.402 -2.2731 -1.9332 0
M  V30 4628 C 445.151 -1.12679 -3.28936 0
M  V30 4629 H 444.474 -1.97274 -3.4774 0
M  V30 4630 H 445.914 -1.13106 -4.08636 0
M  V30 4631 C 444.373 0.168281 -3.36479 0
M  V30 4632 O 444.903 1.15625 -3.84699 0
M  V30 4633 N 443.109 0.214762 -2.89805 0
M  V30 4634 H 442.656 -0.589852 -2.50756 0
M  V30 4635 H 442.614 1.08094 -2.95234 0
M  V30 4636 N 446.386 1.0089 -1.21074 0
M  V30 4637 C 447.316 2.1145 -0.990523 0
M  V30 4638 C 448.297 1.69897 0.0831699 0
M  V30 4639 O 449.482 1.94052 -0.0758853 0
M  V30 4640 C 446.612 3.42914 -0.550177 0
M  V30 4641 C 445.566 3.98244 -1.56799 0
M  V30 4642 C 444.892 5.25568 -0.984013 0
M  V30 4643 C 446.192 4.30752 -2.95381 0
M  V30 4644 H 447.886 2.3013 -1.91521 0
M  V30 4645 H 445.432 1.10592 -0.92225 0
M  V30 4646 H 447.385 4.19653 -0.383305 0
M  V30 4647 H 446.109 3.24014 0.41015 0
M  V30 4648 H 444.768 3.23621 -1.72236 0
M  V30 4649 H 444.416 5.02998 -0.0155216 0
M  V30 4650 H 444.116 5.63551 -1.66384 0
M  V30 4651 H 445.64 6.04955 -0.828378 0
M  V30 4652 H 447.054 4.98349 -2.8341 0
M  V30 4653 H 445.451 4.79869 -3.60341 0
M  V30 4654 H 446.521 3.39192 -3.46521 0
M  V30 4655 N 447.864 1.01787 1.20321 0
M  V30 4656 C 449.089 0.727009 1.9424 0
M  V30 4657 C 449.514 -0.706179 1.74341 0
M  V30 4658 O 448.872 -1.48609 1.03852 0
M  V30 4659 C 448.92 1.06958 3.44372 0
M  V30 4660 O 448.024 0.181983 4.11998 0
M  V30 4661 H 447.365 0.269626 0.606793 0
M  V30 4662 H 449.895 1.36158 1.52716 0
M  V30 4663 H 449.905 1.02182 3.94997 0
M  V30 4664 H 448.58 2.11378 3.58179 0
M  V30 4665 H 447.157 0.287378 3.71791 0
M  V30 4666 N 449.342 -1.36122 0.79427 0
M  V30 4667 C 450.567 -2.03891 0.379871 0
M  V30 4668 C 450.992 -1.59488 -0.997251 0
M  V30 4669 O 450.35 -0.765652 -1.64339 0
M  V30 4670 C 450.398 -3.57687 0.457442 0
M  V30 4671 O 449.502 -4.08931 -0.5338 0
M  V30 4672 H 448.843 -0.6443 0.160541 0
M  V30 4673 H 451.373 -1.73976 1.07673 0
M  V30 4674 H 451.383 -4.06721 0.322792 0
M  V30 4675 H 450.058 -3.89357 1.46199 0
M  V30 4676 H 448.635 -3.71154 -0.360409 0
M  V30 4677 N 450.82 -0.546701 -1.47814 0
M  V30 4678 C 451.73 0.21026 -2.33656 0
M  V30 4679 C 452.746 0.922413 -1.47538 0
M  V30 4680 O 453.922 0.893652 -1.80488 0
M  V30 4681 C 450.987 1.23348 -3.24016 0
M  V30 4682 C 450.048 0.529883 -4.26017 0
M  V30 4683 C 449.281 1.50435 -5.12059 0
M  V30 4684 O 449.504 2.73837 -5.00369 0
M  V30 4685 O 448.438 1.03459 -5.92942 0
M  V30 4686 H 452.264 -0.493605 -2.99662 0
M  V30 4687 H 449.849 -0.307427 -1.46203 0
M  V30 4688 H 451.731 1.82438 -3.79861 0
M  V30 4689 H 450.406 1.91945 -2.60651 0
M  V30 4690 H 449.313 -0.101948 -3.73961 0
M  V30 4691 H 450.646 -0.11445 -4.92067 0
M  V30 4692 N 452.299 1.55045 -0.282633 0
M  V30 4693 C 453.231 2.2023 0.634924 0
M  V30 4694 C 454.244 1.18931 1.11172 0
M  V30 4695 O 455.433 1.4562 1.03233 0
M  V30 4696 C 452.533 2.82041 1.87899 0
M  V30 4697 C 451.706 4.091 1.54776 0
M  V30 4698 C 450.765 4.54887 2.64507 0
M  V30 4699 O 449.791 5.20496 2.30375 0
M  V30 4700 N 450.993 4.25659 3.94709 0
M  V30 4701 H 453.758 2.99601 0.0769811 0
M  V30 4702 H 451.319 1.61565 -0.104048 0
M  V30 4703 H 453.311 3.09613 2.60619 0
M  V30 4704 H 451.881 2.06618 2.3458 0
M  V30 4705 H 451.101 3.88736 0.654049 0
M  V30 4706 H 452.389 4.9187 1.30158 0
M  V30 4707 H 451.787 3.7306 4.25256 0
M  V30 4708 H 450.344 4.57984 4.63782 0
M  V30 4709 N 453.777 0.010035 1.57597 0
M  V30 4710 C 454.725 -0.996272 2.10184 0
M  V30 4711 C 455.719 -1.34942 1.02406 0
M  V30 4712 O 456.925 -1.33389 1.20861 0
M  V30 4713 H 453.3 -0.338982 0.671264 0
M  V30 4714 H 455.271 -0.527272 2.93705 0
M  V30 4715 C 454.02 -2.27599 2.62857 0
M  V30 4716 H 453.343 -2.01295 3.45428 0
M  V30 4717 H 454.783 -2.96265 3.0332 0
M  V30 4718 C 453.242 -2.99269 1.54725 0
M  V30 4719 O 453.772 -3.90644 0.93597 0
M  V30 4720 N 451.978 -2.61269 1.27228 0
M  V30 4721 H 451.525 -1.87043 1.77123 0
M  V30 4722 H 451.483 -3.09534 0.550999 0
M  V30 4723 N 455.255 -1.55392 -0.262866 0
M  V30 4724 C 456.185 -1.91978 -1.32917 0
M  V30 4725 C 457.166 -0.7828 -1.51017 0
M  V30 4726 O 458.351 -1.04178 -1.63892 0
M  V30 4727 C 455.481 -2.20055 -2.68687 0
M  V30 4728 C 454.435 -3.35854 -2.65304 0
M  V30 4729 C 453.761 -3.49435 -4.04721 0
M  V30 4730 C 455.061 -4.71977 -2.23685 0
M  V30 4731 H 456.755 -2.81292 -1.02544 0
M  V30 4732 H 454.301 -1.3534 -0.491846 0
M  V30 4733 H 456.254 -2.44237 -3.43404 0
M  V30 4734 H 454.978 -1.27551 -3.00663 0
M  V30 4735 H 453.637 -3.11655 -1.93045 0
M  V30 4736 H 453.285 -2.54379 -4.33936 0
M  V30 4737 H 452.985 -4.27297 -4.0335 0
M  V30 4738 H 454.509 -3.7592 -4.81161 0
M  V30 4739 H 455.923 -4.95637 -2.88127 0
M  V30 4740 H 454.32 -5.52828 -2.33456 0
M  V30 4741 H 455.39 -4.70115 -1.18827 0
M  V30 4742 N 456.733 0.527833 -1.48498 0
M  V30 4743 C 457.982 1.28003 -1.55878 0
M  V30 4744 C 458.295 1.9414 -0.238577 0
M  V30 4745 O 459.501 2.7083 -0.190643 0
M  V30 4746 C 457.957 2.32272 -2.74914 0
M  V30 4747 C 457.565 1.72196 -4.13585 0
M  V30 4748 C 459.309 3.08488 -2.91608 0
M  V30 4749 C 457.216 2.74417 -5.23879 0
M  V30 4750 H 456.146 0.481413 -0.580308 0
M  V30 4751 H 458.797 0.557195 -1.74836 0
M  V30 4752 H 457.179 3.07601 -2.49395 0
M  V30 4753 H 458.353 1.03041 -4.49132 0
M  V30 4754 H 456.668 1.08464 -4.02025 0
M  V30 4755 H 459.265 3.84879 -3.71177 0
M  V30 4756 H 459.608 3.64481 -2.01145 0
M  V30 4757 H 460.141 2.40274 -3.17038 0
M  V30 4758 H 456.88 2.23242 -6.16314 0
M  V30 4759 H 456.4 3.41893 -4.92818 0
M  V30 4760 H 458.079 3.37362 -5.52083 0
M  V30 4761 N 458.211 1.37122 0.776871 0
M  V30 4762 C 459.143 1.28342 1.89897 0
M  V30 4763 C 460.156 0.200277 1.61563 0
M  V30 4764 O 461.345 0.456012 1.72577 0
M  V30 4765 C 458.445 0.960427 3.25006 0
M  V30 4766 C 457.618 2.148 3.81025 0
M  V30 4767 C 456.677 1.79608 4.94598 0
M  V30 4768 O 455.703 2.51845 5.10454 0
M  V30 4769 N 456.905 0.737171 5.758 0
M  V30 4770 H 459.67 2.25027 1.97947 0
M  V30 4771 H 457.231 1.3068 0.955739 0
M  V30 4772 H 459.223 0.705942 3.98495 0
M  V30 4773 H 457.793 0.0823066 3.12492 0
M  V30 4774 H 457.013 2.56454 2.99374 0
M  V30 4775 H 458.301 2.9411 4.15183 0
M  V30 4776 H 457.699 0.137637 5.65533 0
M  V30 4777 H 456.256 0.542534 6.49538 0
M  V30 4778 N 459.689 -1.00246 1.21608 0
M  V30 4779 C 460.599 -2.12515 0.993709 0
M  V30 4780 C 461.615 -1.73913 -0.0549939 0
M  V30 4781 O 462.791 -2.00943 0.135619 0
M  V30 4782 C 459.856 -3.42083 0.563953 0
M  V30 4783 C 458.917 -3.94843 1.68516 0
M  V30 4784 C 458.15 -5.18226 1.27582 0
M  V30 4785 O 458.373 -5.70201 0.150506 0
M  V30 4786 O 457.307 -5.64497 2.0887 0
M  V30 4787 H 461.133 -2.34152 1.93407 0
M  V30 4788 H 458.718 -1.10891 1.00118 0
M  V30 4789 H 460.6 -4.20073 0.334194 0
M  V30 4790 H 459.275 -3.21828 -0.347665 0
M  V30 4791 H 458.182 -3.18068 1.96935 0
M  V30 4792 H 459.515 -4.19512 2.5743 0
M  V30 4793 N 461.167 -1.02423 -1.1978 0
M  V30 4794 C 462.413 -0.719051 -1.89625 0
M  V30 4795 C 462.746 0.750083 -1.7913 0
M  V30 4796 O 462.021 1.54574 -1.18056 0
M  V30 4797 C 462.304 -1.16499 -3.40735 0
M  V30 4798 C 462.157 -2.695 -3.60125 0
M  V30 4799 C 463.476 -0.742166 -4.33797 0
M  V30 4800 H 460.595 -0.26269 -0.688595 0
M  V30 4801 H 463.237 -1.27333 -1.41018 0
M  V30 4802 H 461.387 -0.69341 -3.82262 0
M  V30 4803 H 463.059 -3.24569 -3.278 0
M  V30 4804 H 461.302 -3.10113 -3.03336 0
M  V30 4805 H 461.973 -2.95757 -4.66081 0
M  V30 4806 H 464.449 -1.1477 -3.99959 0
M  V30 4807 H 463.325 -1.08213 -5.38127 0
M  V30 4808 H 463.586 0.355747 -4.40666 0
M  V30 4809 N 462.645 1.35699 -0.801477 0
M  V30 4810 C 463.873 2.03157 -0.391768 0
M  V30 4811 C 464.288 1.60412 0.995668 0
M  V30 4812 O 463.645 0.799228 1.64069 0
M  V30 4813 C 463.696 3.58566 -0.459671 0
M  V30 4814 O 463.417 3.99756 -1.7924 0
M  V30 4815 C 464.918 4.4328 -0.0421205 0
M  V30 4816 H 462.138 0.651688 -0.159825 0
M  V30 4817 H 464.682 1.73426 -1.08368 0
M  V30 4818 H 462.837 3.86963 0.183939 0
M  V30 4819 H 463.251 4.94387 -1.75162 0
M  V30 4820 H 464.725 5.51821 -0.140754 0
M  V30 4821 H 465.202 4.27383 1.01196 0
M  V30 4822 H 465.808 4.20168 -0.658687 0
M  V30 4823 N 464.123 0.554532 1.47522 0
M  V30 4824 C 465.369 0.0295227 2.02779 0
M  V30 4825 C 465.702 -1.31582 1.42828 0
M  V30 4826 O 464.977 -1.85561 0.582872 0
M  V30 4827 C 465.26 -0.0664057 3.60039 0
M  V30 4828 C 465.113 1.30585 4.30427 0
M  V30 4829 C 466.432 -0.781162 4.33112 0
M  V30 4830 H 463.551 0.0122027 0.736899 0
M  V30 4831 H 466.193 0.716305 1.7598 0
M  V30 4832 H 464.343 -0.651307 3.83002 0
M  V30 4833 H 466.015 1.93374 4.18813 0
M  V30 4834 H 464.258 1.88125 3.90886 0
M  V30 4835 H 464.929 1.19147 5.38988 0
M  V30 4836 H 467.405 -0.284565 4.15126 0
M  V30 4837 H 466.281 -0.817237 5.42782 0
M  V30 4838 H 466.542 -1.83672 4.0214 0
M  V30 4839 N 465.601 -1.54893 0.290851 0
M  V30 4840 C 466.849 -1.99538 -0.320756 0
M  V30 4841 C 467.17 -1.18075 -1.55188 0
M  V30 4842 O 466.44 -0.274162 -1.93972 0
M  V30 4843 H 465.02 -0.737052 -0.121507 0
M  V30 4844 H 467.682 -1.90755 0.399832 0
M  V30 4845 H 466.778 -3.06282 -0.599802 0
M  V30 4846 N 467.08 -0.0183926 -1.57589 0
M  V30 4847 C 467.99 0.982943 -2.13015 0
M  V30 4848 C 469.006 1.36443 -1.07979 0
M  V30 4849 O 470.182 1.44802 -1.3998 0
M  V30 4850 C 467.247 2.25024 -2.63752 0
M  V30 4851 C 466.308 1.93018 -3.83461 0
M  V30 4852 C 465.541 3.13706 -4.31769 0
M  V30 4853 O 465.764 4.2601 -3.79305 0
M  V30 4854 O 464.698 2.96629 -5.23732 0
M  V30 4855 H 468.524 0.541709 -2.9883 0
M  V30 4856 H 466.109 0.201565 -1.48034 0
M  V30 4857 H 467.991 2.99441 -2.96502 0
M  V30 4858 H 466.666 2.68349 -1.81026 0
M  V30 4859 H 465.573 1.16019 -3.55655 0
M  V30 4860 H 466.906 1.54516 -4.67317 0
M  V30 4861 N 468.558 1.5553 0.254621 0
M  V30 4862 C 469.806 1.7665 0.981793 0
M  V30 4863 C 470.127 0.580963 1.86145 0
M  V30 4864 O 469.397 -0.403537 1.91699 0
M  V30 4865 H 467.977 0.651475 0.365498 0
M  V30 4866 H 470.639 1.92958 0.274426 0
M  V30 4867 H 469.735 2.67486 1.60802 0
M  V30 4868 N 470.036 -0.519951 1.48776 0
M  V30 4869 C 470.966 -1.63253 1.66945 0
M  V30 4870 C 471.947 -1.62014 0.518224 0
M  V30 4871 O 473.132 -1.79053 0.751919 0
M  V30 4872 C 470.262 -3.0181 1.71836 0
M  V30 4873 C 469.216 -3.17911 2.8656 0
M  V30 4874 C 468.542 -4.5763 2.76548 0
M  V30 4875 C 469.842 -2.99729 4.27738 0
M  V30 4876 H 471.536 -1.48302 2.6009 0
M  V30 4877 H 469.082 -0.712026 1.25165 0
M  V30 4878 H 471.035 -3.79525 1.83135 0
M  V30 4879 H 469.759 -3.17806 0.752775 0
M  V30 4880 H 468.418 -2.42616 2.74833 0
M  V30 4881 H 468.066 -4.70476 1.77937 0
M  V30 4882 H 467.766 -4.69346 3.53536 0
M  V30 4883 H 469.29 -5.37431 2.89828 0
M  V30 4884 H 470.704 -3.67228 4.40246 0
M  V30 4885 H 469.101 -3.22932 5.05801 0
M  V30 4886 H 470.171 -1.96047 4.43502 0
M  V30 4887 N 471.514 -1.37532 -0.769588 0
M  V30 4888 C 472.462 -1.33561 -1.90432 0
M  V30 4889 C 473.456 -0.224027 -1.67912 0
M  V30 4890 O 474.662 -0.392174 -1.75676 0
M  V30 4891 H 471.037 -0.416279 -0.626271 0
M  V30 4892 H 473.008 -2.29348 -1.90899 0
M  V30 4893 C 471.757 -1.16162 -3.27722 0
M  V30 4894 H 471.08 -2.00951 -3.45628 0
M  V30 4895 H 472.52 -1.17434 -4.07413 0
M  V30 4896 C 470.979 0.132583 -3.36639 0
M  V30 4897 O 471.509 1.11539 -3.85904 0
M  V30 4898 N 469.715 0.184013 -2.90017 0
M  V30 4899 H 469.262 -0.616415 -2.50116 0
M  V30 4900 H 469.22 1.04956 -2.96364 0
M  V30 4901 N 472.992 0.995999 -1.22138 0
M  V30 4902 C 473.922 2.10387 -1.01289 0
M  V30 4903 C 474.903 1.69975 0.0651454 0
M  V30 4904 O 476.088 1.9396 -0.0964628 0
M  V30 4905 C 473.218 3.42312 -0.586517 0
M  V30 4906 C 472.172 3.96558 -1.61014 0
M  V30 4907 C 471.498 5.24494 -1.0397 0
M  V30 4908 C 472.798 4.27595 -2.99933 0
M  V30 4909 H 474.492 2.28086 -1.93951 0
M  V30 4910 H 472.038 1.09607 -0.933928 0
M  V30 4911 H 473.991 4.19223 -0.427793 0
M  V30 4912 H 472.715 3.24431 0.375761 0
M  V30 4913 H 471.374 3.21776 -1.75658 0
M  V30 4914 H 471.022 5.02953 -0.0688703 0
M  V30 4915 H 470.722 5.61755 -1.72352 0
M  V30 4916 H 472.246 6.04042 -0.892494 0
M  V30 4917 H 473.66 4.95315 -2.8868 0
M  V30 4918 H 472.057 4.76021 -3.6541 0
M  V30 4919 H 473.127 3.35498 -3.50099 0
M  V30 4920 N 474.47 1.03057 1.19235 0
M  V30 4921 C 475.417 0.612832 2.22515 0
M  V30 4922 C 476.387 -0.374224 1.61829 0
M  V30 4923 O 477.572 -0.270501 1.88873 0
M  V30 4924 C 474.712 -0.028475 3.45088 0
M  V30 4925 C 473.825 1.00483 4.20151 0
M  V30 4926 C 472.96 0.333102 5.30155 0
M  V30 4927 C 471.999 1.3522 5.96977 0
M  V30 4928 N 471.136 0.70616 6.9854 0
M  V30 4929 H 475.976 1.49812 2.57605 0
M  V30 4930 H 473.513 0.749658 1.26564 0
M  V30 4931 H 475.471 -0.417548 4.15105 0
M  V30 4932 H 474.101 -0.877334 3.10649 0
M  V30 4933 H 473.153 1.51194 3.49062 0
M  V30 4934 H 474.465 1.77929 4.65986 0
M  V30 4935 H 473.619 -0.110725 6.06599 0
M  V30 4936 H 472.358 -0.473547 4.85396 0
M  V30 4937 H 471.363 1.80627 5.19282 0
M  V30 4938 H 472.588 2.16037 6.4382 0
M  V30 4939 H 470.534 -0.0803667 6.55951 0
M  V30 4940 H 470.451 1.41848 7.42573 0
M  V30 4941 H 471.719 0.286391 7.78974 0
M  V30 4942 N 475.948 -1.35272 0.808662 0
M  V30 4943 C 477.194 -1.99003 0.390581 0
M  V30 4944 C 477.527 -1.63999 -1.0401 0
M  V30 4945 O 476.802 -0.904368 -1.72196 0
M  V30 4946 C 477.085 -3.55454 0.576566 0
M  V30 4947 C 476.938 -4.00249 2.05233 0
M  V30 4948 C 478.257 -4.401 0.00354277 0
M  V30 4949 H 475.376 -0.722917 0.143388 0
M  V30 4950 H 478.018 -1.6039 1.01858 0
M  V30 4951 H 476.168 -3.88477 0.0419766 0
M  V30 4952 H 477.84 -3.77626 2.64946 0
M  V30 4953 H 476.083 -3.51082 2.54801 0
M  V30 4954 H 476.754 -5.0911 2.13333 0
M  V30 4955 H 479.23 -4.13548 0.460117 0
M  V30 4956 H 478.106 -5.48656 0.163575 0
M  V30 4957 H 478.367 -4.28444 -1.09032 0
M  V30 4958 N 477.426 -0.562348 -1.47226 0
M  V30 4959 C 478.359 0.230405 -2.27034 0
M  V30 4960 C 479.337 0.915609 -1.3437 0
M  V30 4961 O 480.521 0.933573 -1.63758 0
M  V30 4962 C 477.648 1.32874 -3.11548 0
M  V30 4963 C 476.694 0.751552 -4.19826 0
M  V30 4964 S 477.527 -0.405848 -5.3396 0
M  V30 4965 C 478.683 0.694186 -6.22038 0
M  V30 4966 H 478.916 -0.446811 -2.93923 0
M  V30 4967 H 476.449 -0.348781 -1.50409 0
M  V30 4968 H 478.407 1.95773 -3.60809 0
M  V30 4969 H 477.068 1.97782 -2.44011 0
M  V30 4970 H 476.261 1.57651 -4.78709 0
M  V30 4971 H 475.863 0.198645 -3.73472 0
M  V30 4972 H 478.155 1.58501 -6.58698 0
M  V30 4973 H 479.098 0.142592 -7.07956 0
M  V30 4974 H 479.506 0.989169 -5.55766 0
M  V30 4975 N 478.904 1.54736 -0.299062 0
M  V30 4976 C 480.15 2.00397 0.311244 0
M  V30 4977 C 480.483 1.18716 1.53688 0
M  V30 4978 O 479.758 0.263154 1.92712 0
M  V30 4979 C 480.041 3.53817 0.669761 0
M  V30 4980 C 479.894 4.46239 -0.564882 0
M  V30 4981 C 481.213 4.13856 1.49702 0
M  V30 4982 H 478.332 0.728493 0.111653 0
M  V30 4983 H 480.974 1.85506 -0.410774 0
M  V30 4984 H 479.124 3.66637 1.28491 0
M  V30 4985 H 480.796 4.45328 -1.20337 0
M  V30 4986 H 479.039 4.16916 -1.19849 0
M  V30 4987 H 479.71 5.5134 -0.269918 0
M  V30 4988 H 482.186 4.04461 0.977284 0
M  V30 4989 H 481.062 5.21365 1.71666 0
M  V30 4990 H 481.323 3.65608 2.48563 0
M  V30 4991 N 480.382 0.0267497 1.57577 0
M  V30 4992 C 481.292 -0.971633 2.13533 0
M  V30 4993 C 482.308 -1.35868 1.08701 0
M  V30 4994 O 483.484 -1.44058 1.40746 0
M  V30 4995 C 480.549 -2.23622 2.64941 0
M  V30 4996 C 479.61 -1.90982 3.8448 0
M  V30 4997 C 478.843 -3.11411 4.33427 0
M  V30 4998 O 479.066 -4.23992 3.81558 0
M  V30 4999 O 478 -2.93848 5.25297 0
M  V30 5000 H 481.826 -0.525853 2.99113 0
M  V30 5001 H 479.411 -0.193712 1.48139 0
M  V30 5002 H 481.293 -2.97864 2.98086 0
M  V30 5003 H 479.968 -2.67386 1.82446 0
M  V30 5004 H 478.875 -1.14132 3.56265 0
M  V30 5005 H 480.208 -1.52036 4.6813 0
M  V30 5006 N 481.861 -1.55662 -0.24637 0
M  V30 5007 C 482.824 -1.89558 -1.28842 0
M  V30 5008 C 483.824 -0.772082 -1.41052 0
M  V30 5009 O 485.014 -1.04007 -1.39743 0
M  V30 5010 C 482.146 -2.12449 -2.66605 0
M  V30 5011 H 483.339 -2.82735 -1.00004 0
M  V30 5012 H 480.892 -1.48562 -0.485684 0
M  V30 5013 H 481.627 -1.21742 -3.00582 0
M  V30 5014 H 481.412 -2.94273 -2.59125 0
M  V30 5015 H 482.902 -2.39854 -3.41847 0
M  V30 5016 N 483.339 0.512053 -1.4905 0
M  V30 5017 C 484.569 1.28928 -1.61434 0
M  V30 5018 C 484.977 1.87107 -0.280647 0
M  V30 5019 O 484.32 1.68024 0.742537 0
M  V30 5020 C 484.382 2.466 -2.61588 0
M  V30 5021 C 484.046 2.09375 -4.06216 0
M  V30 5022 C 485.043 1.63994 -4.93358 0
M  V30 5023 C 482.728 2.19348 -4.51876 0
M  V30 5024 C 484.722 1.29076 -6.24194 0
M  V30 5025 C 482.409 1.84041 -5.82728 0
M  V30 5026 C 483.407 1.38978 -6.68711 0
M  V30 5027 O 483.095 1.04144 -7.97126 0
M  V30 5028 H 482.827 0.397668 -0.546659 0
M  V30 5029 H 485.381 0.622507 -1.9574 0
M  V30 5030 H 483.611 3.16318 -2.22441 0
M  V30 5031 H 485.3 3.08642 -2.63619 0
M  V30 5032 H 486.066 1.55744 -4.59313 0
M  V30 5033 H 481.945 2.53376 -3.85125 0
M  V30 5034 H 485.489 0.938303 -6.91261 0
M  V30 5035 H 481.386 1.91938 -6.16304 0
M  V30 5036 H 482.154 1.17387 -8.10039 0
M  V30 5037 N 484.817 1.37938 0.762283 0
M  V30 5038 C 486.228 1.30094 1.33912 0
M  V30 5039 C 486.579 -0.0472026 1.96143 0
M  V30 5040 O 485.704 -0.94917 1.94473 0
M  V30 5041 C 486.299 2.35592 2.43478 0
M  V30 5042 C 484.858 2.31353 2.96905 0
M  V30 5043 C 484.005 2.18919 1.70205 0
M  V30 5044 H 486.956 1.48423 0.561816 0
M  V30 5045 H 486.977 2.00806 3.23199 0
M  V30 5046 H 486.489 3.33701 1.98155 0
M  V30 5047 H 484.59 1.36799 3.46579 0
M  V30 5048 H 484.703 3.25147 3.51875 0
M  V30 5049 H 483.067 1.65624 1.93496 0
M  V30 5050 H 483.85 3.18956 1.26973 0
M  V30 5051 N 486.295 -0.989507 1.22664 0
M  V30 5052 C 487.543 -1.72612 1.05117 0
M  V30 5053 C 487.864 -1.90552 -0.414131 0
M  V30 5054 O 487.134 -1.4676 -1.29762 0
M  V30 5055 H 485.714 -0.639555 0.385977 0
M  V30 5056 H 488.376 -1.19158 1.54232 0
M  V30 5057 H 487.472 -2.71926 1.53175 0
M  V30 5058 N 487.773 -1.03688 -1.18687 0
M  V30 5059 C 488.703 -0.645407 -2.24403 0
M  V30 5060 C 489.684 0.349511 -1.66471 0
M  V30 5061 O 490.869 0.230453 -1.92828 0
M  V30 5062 C 487.999 -0.00365337 -3.473 0
M  V30 5063 C 486.953 -0.921705 -4.17958 0
M  V30 5064 C 486.279 -0.144629 -5.34504 0
M  V30 5065 C 487.579 -2.23909 -4.71871 0
M  V30 5066 H 489.273 -1.52917 -2.57404 0
M  V30 5067 H 486.819 -0.736711 -1.23728 0
M  V30 5068 H 488.772 0.281908 -4.20456 0
M  V30 5069 H 487.496 0.914963 -3.13522 0
M  V30 5070 H 486.155 -1.19159 -3.46694 0
M  V30 5071 H 485.803 0.776274 -4.96974 0
M  V30 5072 H 485.503 -0.756206 -5.82714 0
M  V30 5073 H 487.027 0.134004 -6.10453 0
M  V30 5074 H 488.441 -2.0145 -5.36741 0
M  V30 5075 H 486.838 -2.8033 -5.30599 0
M  V30 5076 H 487.908 -2.88822 -3.895 0
M  V30 5077 N 489.251 1.34841 -0.815825 0
M  V30 5078 C 490.183 2.28409 -0.190265 0
M  V30 5079 C 491.196 1.50705 0.615771 0
M  V30 5080 O 492.385 1.72822 0.446616 0
M  V30 5081 C 489.485 3.30441 0.752446 0
M  V30 5082 C 488.658 4.37399 -0.00922152 0
M  V30 5083 C 487.717 5.19234 0.853351 0
M  V30 5084 O 486.743 5.68404 0.300919 0
M  V30 5085 N 487.945 5.38248 2.17416 0
M  V30 5086 H 490.71 2.82732 -0.994114 0
M  V30 5087 H 488.271 1.47289 -0.672129 0
M  V30 5088 H 490.263 3.82084 1.33394 0
M  V30 5089 H 488.833 2.76565 1.45707 0
M  V30 5090 H 488.053 3.86567 -0.771979 0
M  V30 5091 H 489.341 5.05992 -0.533807 0
M  V30 5092 H 488.739 4.99961 2.6468 0
M  V30 5093 H 487.296 5.93035 2.70467 0
M  V30 5094 N 490.729 0.570148 1.46925 0
M  V30 5095 C 491.977 0.0508523 2.02036 0
M  V30 5096 C 492.298 -1.30885 1.44548 0
M  V30 5097 O 491.568 -1.85647 0.625453 0
M  V30 5098 H 490.148 0.0158088 0.746833 0
M  V30 5099 H 492.81 0.743086 1.80178 0
M  V30 5100 H 491.906 -0.027575 3.12088 0
M  V30 5101 N 492.207 -1.54576 0.307264 0
M  V30 5102 C 493.454 -2.00263 -0.300167 0
M  V30 5103 C 493.782 -1.19561 -1.53413 0
M  V30 5104 O 493.037 -0.261487 -1.93945 0
M  V30 5105 C 493.336 -3.50572 -0.695253 0
M  V30 5106 C 493.002 -4.48771 0.437679 0
M  V30 5107 C 491.664 -4.7534 0.748681 0
M  V30 5108 C 494.016 -5.0721 1.19949 0
M  V30 5109 C 491.344 -5.5761 1.8245 0
M  V30 5110 C 493.696 -5.90651 2.26527 0
M  V30 5111 C 492.36 -6.15528 2.58227 0
M  V30 5112 H 491.63 -0.732814 -0.109839 0
M  V30 5113 H 494.277 -1.86664 0.427661 0
M  V30 5114 H 492.582 -3.61814 -1.50326 0
M  V30 5115 H 494.279 -3.83352 -1.17653 0
M  V30 5116 H 490.869 -4.282 0.185187 0
M  V30 5117 H 495.053 -4.86679 0.972474 0
M  V30 5118 H 490.309 -5.75121 2.07476 0
M  V30 5119 H 494.483 -6.34957 2.86011 0
M  V30 5120 H 492.11 -6.79066 3.4172 0
M  V30 5121 N 493.685 -0.035106 -1.57561 0
M  V30 5122 C 494.633 0.962707 -2.11742 0
M  V30 5123 C 495.627 1.33296 -1.0454 0
M  V30 5124 O 496.833 1.31449 -1.22968 0
M  V30 5125 H 493.208 0.32826 -0.676572 0
M  V30 5126 H 495.179 0.48048 -2.94506 0
M  V30 5127 C 493.928 2.23388 -2.66445 0
M  V30 5128 H 493.251 1.95774 -3.48587 0
M  V30 5129 H 494.691 2.91402 -3.07995 0
M  V30 5130 C 493.15 2.96769 -1.59467 0
M  V30 5131 O 493.68 3.89105 -0.998 0
M  V30 5132 N 491.886 2.59212 -1.31369 0
M  V30 5133 H 491.433 1.84202 -1.80076 0
M  V30 5134 H 491.391 3.08618 -0.600173 0
M  V30 5135 N 495.163 1.55791 0.238111 0
M  V30 5136 C 496.409 1.79211 0.962035 0
M  V30 5137 C 496.764 0.605463 1.82625 0
M  V30 5138 O 496.057 -0.40104 1.87356 0
M  V30 5139 C 496.251 3.05869 1.84875 0
M  V30 5140 C 496.08 4.36739 1.07186 0
M  V30 5141 C 494.85 4.99346 0.773424 0
M  V30 5142 C 497.048 5.1237 0.445168 0
M  V30 5143 N 495.03 6.13894 -0.0266037 0
M  V30 5144 C 496.401 6.19613 -0.219023 0
M  V30 5145 C 498.456 4.96622 0.356522 0
M  V30 5146 C 497.159 7.1282 -0.963358 0
M  V30 5147 C 499.185 5.90214 -0.374304 0
M  V30 5148 C 498.547 6.96872 -1.0271 0
M  V30 5149 H 494.646 0.707627 0.332849 0
M  V30 5150 H 497.23 1.93284 0.234368 0
M  V30 5151 H 495.401 2.93108 2.54837 0
M  V30 5152 H 497.133 3.17547 2.5089 0
M  V30 5153 H 493.888 4.60948 1.08738 0
M  V30 5154 H 494.312 6.75727 -0.414968 0
M  V30 5155 H 498.954 4.14232 0.846878 0
M  V30 5156 H 496.672 7.94704 -1.46529 0
M  V30 5157 H 500.258 5.80106 -0.443678 0
M  V30 5158 H 499.138 7.68045 -1.58358 0
M  V30 5159 N 496.642 -0.504142 1.49319 0
M  V30 5160 C 497.87 -1.28256 1.62351 0
M  V30 5161 C 498.285 -1.86502 0.293682 0
M  V30 5162 O 497.642 -1.67678 -0.720449 0
M  V30 5163 C 497.693 -2.41507 2.68992 0
M  V30 5164 O 497.414 -1.85656 3.96817 0
M  V30 5165 C 498.915 -3.32929 2.927 0
M  V30 5166 H 496.135 -0.389115 0.546654 0
M  V30 5167 H 498.679 -0.605531 1.95329 0
M  V30 5168 H 496.834 -3.05046 2.38801 0
M  V30 5169 H 497.248 -2.59981 4.55533 0
M  V30 5170 H 498.722 -4.0868 3.71058 0
M  V30 5171 H 499.199 -3.89733 2.02496 0
M  V30 5172 H 499.805 -2.75158 3.24296 0
M  V30 5173 N 498.12 -1.38341 -0.754957 0
M  V30 5174 C 499.35 -1.37504 -1.54195 0
M  V30 5175 C 499.758 0.0373787 -1.89163 0
M  V30 5176 O 499.101 1.01402 -1.53178 0
M  V30 5177 C 499.163 -2.16488 -2.87008 0
M  V30 5178 C 498.827 -3.65311 -2.74585 0
M  V30 5179 C 499.824 -4.58834 -2.44474 0
M  V30 5180 C 497.509 -4.08649 -2.9208 0
M  V30 5181 C 499.503 -5.93675 -2.32011 0
M  V30 5182 C 497.19 -5.43571 -2.79237 0
M  V30 5183 C 498.188 -6.35898 -2.49245 0
M  V30 5184 O 497.876 -7.68338 -2.36458 0
M  V30 5185 H 497.608 -0.472159 -0.483779 0
M  V30 5186 H 500.162 -1.82515 -0.94221 0
M  V30 5187 H 498.392 -1.66194 -3.49166 0
M  V30 5188 H 500.081 -2.08076 -3.4851 0
M  V30 5189 H 500.847 -4.26657 -2.30627 0
M  V30 5190 H 496.726 -3.37134 -3.14422 0
M  V30 5191 H 500.27 -6.65706 -2.08522 0
M  V30 5192 H 496.167 -5.75345 -2.92657 0
M  V30 5193 H 496.935 -7.78845 -2.5168 0
M  V30 5194 N 499.598 0.982988 -1.23187 0
M  V30 5195 C 500.528 2.09301 -1.03515 0
M  V30 5196 C 501.509 1.70035 0.0471136 0
M  V30 5197 O 502.694 1.93847 -0.117029 0
M  V30 5198 C 499.824 3.4167 -0.622791 0
M  V30 5199 C 498.778 3.94828 -1.65211 0
M  V30 5200 C 498.104 5.23362 -1.09527 0
M  V30 5201 C 499.404 4.2439 -3.04451 0
M  V30 5202 H 501.098 2.26016 -1.96359 0
M  V30 5203 H 498.644 1.08611 -0.945501 0
M  V30 5204 H 500.597 4.18746 -0.472233 0
M  V30 5205 H 499.321 3.24811 0.341329 0
M  V30 5206 H 497.98 3.19895 -1.79061 0
M  V30 5207 H 497.628 5.02852 -0.122211 0
M  V30 5208 H 497.328 5.59895 -1.783 0
M  V30 5209 H 498.852 6.03062 -0.956511 0
M  V30 5210 H 500.266 4.92225 -2.93917 0
M  V30 5211 H 498.663 4.72118 -3.70438 0
M  V30 5212 H 499.733 3.31765 -3.53638 0
M  V30 5213 N 501.076 1.04316 1.18135 0
M  V30 5214 C 502.324 0.746542 1.87806 0
M  V30 5215 C 502.645 -0.728082 1.80898 0
M  V30 5216 O 501.915 -1.52554 1.22899 0
M  V30 5217 H 500.495 0.273157 0.695265 0
M  V30 5218 H 503.157 1.32044 1.43354 0
M  V30 5219 H 502.253 1.05362 2.93778 0
M  V30 5220 N 502.554 -1.34406 0.822964 0
M  V30 5221 C 503.965 -1.8069 0.469879 0
M  V30 5222 C 504.316 -1.68223 -1.00972 0
M  V30 5223 O 503.441 -1.22226 -1.78577 0
M  V30 5224 C 504.036 -3.28064 0.846118 0
M  V30 5225 C 502.595 -3.72428 0.545402 0
M  V30 5226 C 501.742 -2.56116 1.06301 0
M  V30 5227 H 504.693 -1.22153 1.01313 0
M  V30 5228 H 504.714 -3.80205 0.149922 0
M  V30 5229 H 504.226 -3.37107 1.92304 0
M  V30 5230 H 502.327 -3.68924 -0.522109 0
M  V30 5231 H 502.44 -4.66548 1.0895 0
M  V30 5232 H 500.804 -2.50048 0.484554 0
M  V30 5233 H 501.587 -2.67928 2.14638 0
M  V30 5234 N 504.032 -0.577932 -1.46621 0
M  V30 5235 C 505.279 -0.0616879 -2.02406 0
M  V30 5236 C 505.607 1.29638 -1.44997 0
M  V30 5237 O 504.862 1.86176 -0.60308 0
M  V30 5238 C 505.161 0.0590832 -3.57351 0
M  V30 5239 C 504.827 -1.23077 -4.33777 0
M  V30 5240 C 503.489 -1.58416 -4.54376 0
M  V30 5241 C 505.841 -2.08457 -4.77698 0
M  V30 5242 C 503.169 -2.78943 -5.16147 0
M  V30 5243 C 505.521 -3.28204 -5.408 0
M  V30 5244 C 504.185 -3.63832 -5.59627 0
M  V30 5245 H 503.455 -0.0225732 -0.740656 0
M  V30 5246 H 506.102 -0.753609 -1.76048 0
M  V30 5247 H 504.407 0.834104 -3.82818 0
M  V30 5248 H 506.104 0.474202 -3.98186 0
M  V30 5249 H 502.694 -0.945652 -4.18038 0
M  V30 5250 H 506.878 -1.82459 -4.61544 0
M  V30 5251 H 502.134 -3.06689 -5.28916 0
M  V30 5252 H 506.308 -3.94634 -5.73792 0
M  V30 5253 H 503.935 -4.57315 -6.07262 0
M  V30 5254 N 505.51 1.54411 -0.315457 0
M  V30 5255 C 506.735 2.05299 0.294496 0
M  V30 5256 C 507.16 1.19052 1.4563 0
M  V30 5257 O 506.518 0.197804 1.80218 0
M  V30 5258 C 506.566 3.5345 0.714549 0
M  V30 5259 O 505.67 3.70175 1.81781 0
M  V30 5260 H 505.011 0.661743 0.0547019 0
M  V30 5261 H 507.541 1.99327 -0.461508 0
M  V30 5262 H 507.551 3.9557 0.999426 0
M  V30 5263 H 506.226 4.1568 -0.135244 0
M  V30 5264 H 504.803 3.3996 1.53236 0
M  V30 5265 N 506.988 0.0434614 1.5754 0
M  V30 5266 C 508.265 -0.671479 1.83713 0
M  V30 5267 C 508.645 -1.89495 0.930315 0
M  V30 5268 O 507.993 -2.28498 -0.0105639 0
M  V30 5269 C 508.203 -1.0361 3.33266 0
M  V30 5270 C 509.551 -1.42167 4.00092 0
M  V30 5271 O 510.575 -1.12866 3.37846 0
M  V30 5272 O 509.434 -1.96817 5.09829 0
M  V30 5273 H 506.528 -0.330726 0.75799 0
M  V30 5274 H 509.074 0.0722373 1.69546 0
M  V30 5275 H 507.846 -0.165938 3.90948 0
M  V30 5276 H 507.469 -1.83751 3.52592 0
M  V30 5277 N 508.466 -1.55915 -0.229846 0
M  V30 5278 C 509.416 -1.8813 -1.28807 0
M  V30 5279 C 510.4 -0.743621 -1.42685 0
M  V30 5280 O 511.592 -1.00588 -1.4564 0
M  V30 5281 C 508.721 -2.19431 -2.64017 0
M  V30 5282 C 507.807 -3.39569 -2.54074 0
M  V30 5283 N 508.198 -4.58404 -2.13774 0
M  V30 5284 C 506.496 -3.43019 -2.85051 0
M  V30 5285 C 507.197 -5.40557 -2.1488 0
M  V30 5286 N 506.173 -4.80054 -2.55047 0
M  V30 5287 H 509.975 -2.77527 -0.967261 0
M  V30 5288 H 507.489 -1.5637 -0.438433 0
M  V30 5289 H 509.486 -2.40681 -3.40409 0
M  V30 5290 H 508.146 -1.31341 -2.9695 0
M  V30 5291 H 509.157 -4.83716 -1.8504 0
M  V30 5292 H 505.834 -2.65249 -3.22411 0
M  V30 5293 H 507.224 -6.45666 -1.85918 0
M  V30 5294 N 509.944 0.496216 -1.49584 0
M  V30 5295 C 510.876 1.61404 -1.62731 0
M  V30 5296 C 511.889 1.54613 -0.50978 0
M  V30 5297 O 513.078 1.60458 -0.782017 0
M  V30 5298 C 510.178 3.00212 -1.57245 0
M  V30 5299 C 509.351 3.32138 -2.84611 0
M  V30 5300 C 508.41 4.5038 -2.72112 0
M  V30 5301 O 507.436 4.51926 -3.46051 0
M  V30 5302 N 508.638 5.50575 -1.83977 0
M  V30 5303 H 511.403 1.50552 -2.59141 0
M  V30 5304 H 508.964 0.684182 -1.46733 0
M  V30 5305 H 510.956 3.77241 -1.4653 0
M  V30 5306 H 509.526 3.04964 -0.686729 0
M  V30 5307 H 508.746 2.4396 -3.09641 0
M  V30 5308 H 510.034 3.50268 -3.69039 0
M  V30 5309 H 509.432 5.52128 -1.23171 0
M  V30 5310 H 507.989 6.26687 -1.79182 0
M  V30 5311 N 511.423 1.38739 0.74761 0
M  V30 5312 C 512.834 1.31507 1.32524 0
M  V30 5313 C 513.185 -0.0263963 1.96182 0
M  V30 5314 O 512.31 -0.92849 1.95469 0
M  V30 5315 C 512.905 2.38162 2.40966 0
M  V30 5316 C 511.464 2.34489 2.94434 0
M  V30 5317 C 510.611 2.20712 1.67873 0
M  V30 5318 H 513.562 1.4901 0.546043 0
M  V30 5319 H 513.583 2.04222 3.21051 0
M  V30 5320 H 513.095 3.35783 1.94605 0
M  V30 5321 H 511.196 1.40467 3.45108 0
M  V30 5322 H 511.309 3.28861 3.48407 0
M  V30 5323 H 509.673 1.67667 1.91729 0
M  V30 5324 H 510.456 3.20285 1.23582 0
M  V30 5325 N 512.901 -0.976442 1.23707 0
M  V30 5326 C 513.811 -2.10359 1.03856 0
M  V30 5327 C 514.827 -1.73991 -0.0180919 0
M  V30 5328 O 516.003 -2.0061 0.178211 0
M  V30 5329 C 513.068 -3.40809 0.636387 0
M  V30 5330 C 512.129 -3.91179 1.76854 0
M  V30 5331 C 511.362 -5.15404 1.38546 0
M  V30 5332 O 511.585 -5.69754 0.27142 0
M  V30 5333 O 510.519 -5.5994 2.20797 0
M  V30 5334 H 514.345 -2.29997 1.98331 0
M  V30 5335 H 511.93 -1.08742 1.02448 0
M  V30 5336 H 513.812 -4.19269 0.423223 0
M  V30 5337 H 512.487 -3.22493 -0.279322 0
M  V30 5338 H 511.394 -3.13819 2.03638 0
M  V30 5339 H 512.727 -4.13958 2.6627 0
M  V30 5340 N 514.379 -1.04941 -1.1758 0
M  V30 5341 C 515.79 -0.784501 -1.69418 0
M  V30 5342 C 516.141 0.693625 -1.8353 0
M  V30 5343 O 515.266 1.53925 -1.52106 0
M  V30 5344 C 515.861 -1.41746 -3.07723 0
M  V30 5345 C 514.42 -1.20066 -3.56737 0
M  V30 5346 C 513.567 -1.5026 -2.33061 0
M  V30 5347 H 516.518 -1.21469 -1.02133 0
M  V30 5348 H 516.539 -0.825381 -3.7144 0
M  V30 5349 H 516.051 -2.49325 -2.9742 0
M  V30 5350 H 514.152 -0.144006 -3.72322 0
M  V30 5351 H 514.265 -1.90384 -4.39648 0
M  V30 5352 H 512.629 -0.922598 -2.37403 0
M  V30 5353 H 513.412 -2.58967 -2.25368 0
M  V30 5354 N 515.857 1.33968 -0.830081 0
M  V30 5355 C 516.804 2.29387 -0.255008 0
M  V30 5356 C 517.774 1.53923 0.624243 0
M  V30 5357 O 518.959 1.82262 0.564372 0
M  V30 5358 C 516.099 3.4034 0.571209 0
M  V30 5359 C 515.212 4.30729 -0.331083 0
M  V30 5360 C 514.347 5.2879 0.505389 0
M  V30 5361 C 513.386 6.10819 -0.395843 0
M  V30 5362 N 512.523 7.00948 0.401979 0
M  V30 5363 H 517.363 2.77972 -1.07404 0
M  V30 5364 H 514.9 1.36785 -0.541133 0
M  V30 5365 H 516.858 4.03361 1.06562 0
M  V30 5366 H 515.488 2.9297 1.35529 0
M  V30 5367 H 514.54 3.68507 -0.943759 0
M  V30 5368 H 515.852 4.88181 -1.02377 0
M  V30 5369 H 515.006 5.97297 1.06399 0
M  V30 5370 H 513.745 4.71894 1.23155 0
M  V30 5371 H 512.75 5.41238 -0.966529 0
M  V30 5372 H 513.975 6.69797 -1.12023 0
M  V30 5373 H 511.921 6.46512 1.11168 0
M  V30 5374 H 511.838 7.55643 -0.232167 0
M  V30 5375 H 513.106 7.73774 0.943102 0
M  V30 5376 N 517.335 0.585699 1.46312 0
M  V30 5377 C 518.265 -0.133556 2.33118 0
M  V30 5378 C 519.246 -0.880707 1.45525 0
M  V30 5379 O 520.431 -0.855579 1.74337 0
M  V30 5380 C 517.561 -1.14585 3.27853 0
M  V30 5381 C 516.515 -0.513341 4.2491 0
M  V30 5382 C 515.841 -1.63231 5.09175 0
M  V30 5383 C 517.141 0.551413 5.19381 0
M  V30 5384 H 518.835 0.59121 2.93505 0
M  V30 5385 H 516.381 0.285761 1.41136 0
M  V30 5386 H 518.334 -1.65741 3.87438 0
M  V30 5387 H 517.058 -1.90093 2.65579 0
M  V30 5388 H 515.717 -0.0228349 3.66593 0
M  V30 5389 H 515.365 -2.37713 4.43285 0
M  V30 5390 H 515.065 -1.21473 5.74907 0
M  V30 5391 H 516.589 -2.14658 5.71624 0
M  V30 5392 H 518.003 0.124804 5.73164 0
M  V30 5393 H 516.4 0.889486 5.93471 0
M  V30 5394 H 517.47 1.43655 4.63132 0
M  V30 5395 N 518.813 -1.54241 0.323641 0
M  V30 5396 C 519.776 -2.22997 -0.529602 0
M  V30 5397 C 520.776 -1.22345 -1.04347 0
M  V30 5398 O 521.966 -1.46924 -0.935889 0
M  V30 5399 C 519.098 -2.93409 -1.73562 0
M  V30 5400 H 520.291 -2.99815 0.0714518 0
M  V30 5401 H 517.844 -1.56121 0.0747258 0
M  V30 5402 H 518.579 -2.20729 -2.37591 0
M  V30 5403 H 518.364 -3.67217 -1.37456 0
M  V30 5404 H 519.854 -3.45794 -2.34128 0
M  V30 5405 N 520.291 -0.0518155 -1.57515 0
M  V30 5406 C 521.239 0.940195 -2.12751 0
M  V30 5407 C 522.233 1.3218 -1.05948 0
M  V30 5408 O 523.439 1.30138 -1.24355 0
M  V30 5409 H 519.814 0.321066 -0.680015 0
M  V30 5410 H 521.785 0.449217 -2.94999 0
M  V30 5411 C 520.534 2.2055 -2.68799 0
M  V30 5412 H 519.857 1.92066 -3.50643 0
M  V30 5413 H 521.297 2.88119 -3.11068 0
M  V30 5414 C 519.756 2.95061 -1.62605 0
M  V30 5415 O 520.286 3.88025 -1.03921 0
M  V30 5416 N 518.492 2.57804 -1.34111 0
M  V30 5417 H 518.039 1.82281 -1.8202 0
M  V30 5418 H 517.997 3.07964 -0.632872 0
M  V30 5419 N 521.769 1.56035 0.221574 0
M  V30 5420 C 522.732 1.91584 1.2581 0
M  V30 5421 C 523.732 0.794425 1.39805 0
M  V30 5422 O 524.922 1.06217 1.38071 0
M  V30 5423 C 522.054 2.16663 2.63192 0
M  V30 5424 H 523.247 2.8429 0.954935 0
M  V30 5425 H 520.8 1.49316 0.461988 0
M  V30 5426 H 521.535 1.26508 2.98607 0
M  V30 5427 H 521.32 2.98358 2.5441 0
M  V30 5428 H 522.81 2.45262 3.37988 0
M  V30 5429 N 523.247 -0.488276 1.49845 0
M  V30 5430 C 524.475 -1.26527 1.63702 0
M  V30 5431 C 524.89 -1.8618 0.313447 0
M  V30 5432 O 524.247 -1.68432 -0.702624 0
M  V30 5433 C 524.298 -2.3864 2.71538 0
M  V30 5434 O 524.019 -1.81437 3.98763 0
M  V30 5435 C 525.52 -3.29805 2.96215 0
M  V30 5436 H 522.74 -0.383295 0.55075 0
M  V30 5437 H 525.284 -0.584779 1.95961 0
M  V30 5438 H 523.439 -3.02496 2.42023 0
M  V30 5439 H 523.853 -2.55135 4.58265 0
M  V30 5440 H 525.327 -4.04722 3.75372 0
M  V30 5441 H 525.804 -3.87563 2.06619 0
M  V30 5442 H 526.41 -2.71703 3.27196 0
M  V30 5443 N 524.725 -1.39134 -0.740242 0
M  V30 5444 C 525.953 -1.39334 -1.5295 0
M  V30 5445 C 526.368 0.0135008 -1.88795 0
M  V30 5446 O 525.725 0.983524 -1.5373 0
M  V30 5447 C 525.776 -2.2614 -2.82034 0
M  V30 5448 O 525.497 -3.61345 -2.47712 0
M  V30 5449 C 526.998 -2.34666 -3.76094 0
M  V30 5450 H 524.218 -0.476103 -0.472828 0
M  V30 5451 H 526.762 -1.82883 -0.9151 0
M  V30 5452 H 524.917 -1.86018 -3.39818 0
M  V30 5453 H 525.331 -4.07194 -3.30595 0
M  V30 5454 H 526.805 -2.99663 -4.63579 0
M  V30 5455 H 527.282 -1.36426 -4.17474 0
M  V30 5456 H 527.888 -2.75236 -3.2423 0
M  V30 5457 N 526.204 0.969867 -1.24223 0
M  V30 5458 C 527.151 2.06407 -1.0327 0
M  V30 5459 C 528.121 1.66014 0.0533 0
M  V30 5460 O 529.306 1.90533 -0.100896 0
M  V30 5461 C 526.446 3.3909 -0.641262 0
M  V30 5462 C 525.559 3.9269 -1.80051 0
M  V30 5463 C 524.694 5.13631 -1.35486 0
M  V30 5464 C 523.733 5.59423 -2.48419 0
M  V30 5465 N 522.87 6.71586 -2.04737 0
M  V30 5466 H 527.71 2.23663 -1.96923 0
M  V30 5467 H 525.247 1.09624 -0.980862 0
M  V30 5468 H 527.205 4.15323 -0.395351 0
M  V30 5469 H 525.835 3.21765 0.258269 0
M  V30 5470 H 524.887 3.13116 -2.16014 0
M  V30 5471 H 526.199 4.22636 -2.64916 0
M  V30 5472 H 525.353 5.97231 -1.0677 0
M  V30 5473 H 524.092 4.85364 -0.476722 0
M  V30 5474 H 523.097 4.74398 -2.77897 0
M  V30 5475 H 524.322 5.89705 -3.36786 0
M  V30 5476 H 522.268 6.45058 -1.19318 0
M  V30 5477 H 522.185 7.0097 -2.83156 0
M  V30 5478 H 523.453 7.58633 -1.79154 0
M  V30 5479 N 527.682 1.05563 1.17022 0
M  V30 5480 C 528.959 0.68165 1.83338 0
M  V30 5481 C 529.339 -0.837665 1.93769 0
M  V30 5482 O 528.687 -1.74507 1.47511 0
M  V30 5483 C 528.897 1.375 3.20772 0
M  V30 5484 C 530.245 1.51545 3.96635 0
M  V30 5485 O 531.269 1.33431 3.30264 0
M  V30 5486 O 530.128 1.812 5.15586 0
M  V30 5487 H 527.222 0.240412 0.791285 0
M  V30 5488 H 529.768 1.15545 1.24288 0
M  V30 5489 H 528.54 2.41135 3.08171 0
M  V30 5490 H 528.163 0.890798 3.87493 0
M  V30 5491 N 529.16 -1.33526 0.837174 0
M  V30 5492 C 530.388 -2.02047 0.445494 0
M  V30 5493 C 530.803 -1.62995 -0.952788 0
M  V30 5494 O 530.16 -0.842447 -1.61892 0
M  V30 5495 C 530.211 -3.57221 0.554577 0
M  V30 5496 O 529.932 -3.94863 1.89776 0
M  V30 5497 C 531.433 -4.43012 0.159634 0
M  V30 5498 H 528.653 -0.647221 0.177048 0
M  V30 5499 H 531.197 -1.70492 1.12928 0
M  V30 5500 H 529.352 -3.87315 -0.0812781 0
M  V30 5501 H 529.766 -4.89569 1.88208 0
M  V30 5502 H 531.24 -5.51253 0.28701 0
M  V30 5503 H 531.717 -4.29916 -0.898289 0
M  V30 5504 H 532.323 -4.18274 0.769855 0
M  V30 5505 N 530.638 -0.59345 -1.46 0
M  V30 5506 C 531.868 -0.0889642 -2.06408 0
M  V30 5507 C 532.276 1.22597 -1.44106 0
M  V30 5508 O 531.619 1.75448 -0.544398 0
M  V30 5509 C 531.681 0.139902 -3.59228 0
M  V30 5510 C 531.345 -1.09107 -4.43784 0
M  V30 5511 C 532.342 -2.00577 -4.79651 0
M  V30 5512 C 530.027 -1.31593 -4.84756 0
M  V30 5513 C 532.021 -3.12873 -5.55328 0
M  V30 5514 C 529.708 -2.44192 -5.60191 0
M  V30 5515 C 530.706 -3.34661 -5.95392 0
M  V30 5516 O 530.394 -4.45302 -6.69299 0
M  V30 5517 H 530.126 -0.0594613 -0.67338 0
M  V30 5518 H 532.68 -0.817 -1.88452 0
M  V30 5519 H 530.91 0.922672 -3.75531 0
M  V30 5520 H 532.599 0.594228 -4.01527 0
M  V30 5521 H 533.365 -1.84425 -4.48567 0
M  V30 5522 H 529.244 -0.620801 -4.56801 0
M  V30 5523 H 532.788 -3.83511 -5.82722 0
M  V30 5524 H 528.685 -2.60303 -5.90688 0
M  V30 5525 H 529.453 -4.43805 -6.87735 0
M  V30 5526 N 532.116 1.54067 -0.331816 0
M  V30 5527 C 533.532 1.59587 0.0205388 0
M  V30 5528 C 533.732 1.34813 1.49759 0
M  V30 5529 O 532.788 1.13661 2.25471 0
M  V30 5530 C 534.101 2.97959 -0.405103 0
M  V30 5531 C 535.649 3.10964 -0.356454 0
M  V30 5532 C 536.124 4.51694 -0.757384 0
M  V30 5533 N 537.615 4.57709 -0.71111 0
M  V30 5534 C 538.35 5.64729 -0.993427 0
M  V30 5535 N 537.846 6.79652 -1.3433 0
M  V30 5536 N 539.639 5.54546 -0.918442 0
M  V30 5537 H 531.79 1.68426 -1.29407 0
M  V30 5538 H 534.053 0.78819 -0.526745 0
M  V30 5539 H 533.759 3.21115 -1.43451 0
M  V30 5540 H 533.633 3.76524 0.225692 0
M  V30 5541 H 536.02 2.87538 0.663763 0
M  V30 5542 H 536.101 2.34484 -1.02229 0
M  V30 5543 H 535.745 4.75853 -1.77555 0
M  V30 5544 H 535.675 5.26555 -0.0691444 0
M  V30 5545 H 538.166 3.75176 -0.452883 0
M  V30 5546 H 538.479 7.57221 -1.54388 0
M  V30 5547 H 536.824 6.81128 -1.38164 0
M  V30 5548 H 540.015 4.63641 -0.644536 0
M  V30 5549 H 540.188 6.37861 -1.14181 0
M  V30 5550 N 533.594 0.0601682 1.57485 0
M  V30 5551 C 534.544 -0.920969 2.08572 0
M  V30 5552 C 535.528 -1.26617 0.992827 0
M  V30 5553 O 536.72 -1.24708 1.25606 0
M  V30 5554 C 533.849 -2.19267 2.64153 0
M  V30 5555 C 532.935 -1.87447 3.80427 0
M  V30 5556 N 533.326 -1.26025 4.89848 0
M  V30 5557 C 531.624 -2.17265 3.89502 0
M  V30 5558 C 532.325 -1.12036 5.70809 0
M  V30 5559 N 531.301 -1.62624 5.18705 0
M  V30 5560 H 535.103 -0.441561 2.90564 0
M  V30 5561 H 532.617 -0.144043 1.6176 0
M  V30 5562 H 534.614 -2.90462 2.99061 0
M  V30 5563 H 533.274 -2.67806 1.83603 0
M  V30 5564 H 534.285 -0.931336 5.09457 0
M  V30 5565 H 530.962 -2.68262 3.19909 0
M  V30 5566 H 532.352 -0.642783 6.68818 0
M  V30 5567 N 535.072 -1.5615 -0.213296 0
M  V30 5568 C 536.3 -1.83638 -0.953139 0
M  V30 5569 C 536.715 -0.640362 -1.77609 0
M  V30 5570 O 536.072 0.391071 -1.78261 0
M  V30 5571 C 536.123 -3.09735 -1.86405 0
M  V30 5572 O 535.844 -4.24723 -1.07435 0
M  V30 5573 C 537.345 -3.5027 -2.71709 0
M  V30 5574 H 534.565 -0.610263 -0.278962 0
M  V30 5575 H 537.109 -2.03247 -0.226035 0
M  V30 5576 H 535.264 -2.92077 -2.545 0
M  V30 5577 H 535.678 -4.9641 -1.69343 0
M  V30 5578 H 537.152 -4.41515 -3.31313 0
M  V30 5579 H 537.629 -2.72406 -3.44516 0
M  V30 5580 H 538.235 -3.70396 -2.09015 0
M  V30 5581 N 536.55 0.480323 -1.50102 0
M  V30 5582 C 537.797 1.23307 -1.60629 0
M  V30 5583 C 538.125 1.92135 -0.302375 0
M  V30 5584 O 537.38 1.82321 0.711154 0
M  V30 5585 C 537.679 2.30708 -2.72963 0
M  V30 5586 C 537.345 1.79195 -4.13763 0
M  V30 5587 C 536.007 1.64867 -4.52076 0
M  V30 5588 C 538.359 1.40878 -5.018 0
M  V30 5589 C 535.687 1.10631 -5.76175 0
M  V30 5590 C 538.039 0.880872 -6.26437 0
M  V30 5591 C 536.703 0.724146 -6.6356 0
M  V30 5592 H 535.973 0.451211 -0.587784 0
M  V30 5593 H 538.62 0.53051 -1.84005 0
M  V30 5594 H 536.925 3.06834 -2.43639 0
M  V30 5595 H 538.622 2.88692 -2.78313 0
M  V30 5596 H 535.212 1.91313 -3.83533 0
M  V30 5597 H 539.396 1.50786 -4.7284 0
M  V30 5598 H 534.652 0.972263 -6.0362 0
M  V30 5599 H 538.826 0.575269 -6.9402 0
M  V30 5600 H 536.453 0.301722 -7.59601 0
M  V30 5601 N 538.028 1.39524 0.732853 0
M  V30 5602 C 539.256 1.40143 1.52209 0
M  V30 5603 C 539.671 -0.00348836 1.888 0
M  V30 5604 O 539.028 -0.975357 1.5425 0
M  V30 5605 C 539.079 2.27632 2.8083 0
M  V30 5606 O 538.8 3.62654 2.45792 0
M  V30 5607 C 540.301 2.36658 3.74844 0
M  V30 5608 H 537.521 0.478604 0.470297 0
M  V30 5609 H 540.065 1.83366 0.905388 0
M  V30 5610 H 538.22 1.87818 3.38826 0
M  V30 5611 H 538.634 4.08941 3.28431 0
M  V30 5612 H 540.108 3.02118 4.61984 0
M  V30 5613 H 540.585 1.38638 4.16745 0
M  V30 5614 H 541.191 2.76951 3.22766 0
M  V30 5615 N 539.506 -0.963266 1.24736 0
M  V30 5616 C 540.436 -2.07628 1.06832 0
M  V30 5617 C 541.417 -1.70088 -0.0200566 0
M  V30 5618 O 542.602 -1.93636 0.147854 0
M  V30 5619 C 539.732 -3.40636 0.677069 0
M  V30 5620 C 538.686 -3.9215 1.71471 0
M  V30 5621 C 538.012 -5.21553 1.1784 0
M  V30 5622 C 539.312 -4.19493 3.11164 0
M  V30 5623 H 541.006 -2.22864 1.9993 0
M  V30 5624 H 538.552 -1.07093 0.96266 0
M  V30 5625 H 540.505 -4.17941 0.538792 0
M  V30 5626 H 539.229 -3.25313 -0.289612 0
M  V30 5627 H 537.888 -3.17005 1.84128 0
M  V30 5628 H 537.536 -5.02593 0.202195 0
M  V30 5629 H 537.236 -5.56988 1.87185 0
M  V30 5630 H 538.76 -6.01463 1.05233 0
M  V30 5631 H 540.174 -4.87487 3.01711 0
M  V30 5632 H 538.571 -4.66165 3.77902 0
M  V30 5633 H 539.641 -3.26097 3.58871 0
M  V30 5634 N 540.985 -1.06182 -1.16461 0
M  V30 5635 C 542.21 -0.798599 -1.91408 0
M  V30 5636 C 542.635 0.640987 -1.76842 0
M  V30 5637 O 541.993 1.44652 -1.09296 0
M  V30 5638 C 542.041 -1.19665 -3.40165 0
M  V30 5639 O 541.145 -0.334768 -4.11039 0
M  V30 5640 H 540.486 -0.291961 -0.596368 0
M  V30 5641 H 543.016 -1.41732 -1.47557 0
M  V30 5642 H 543.026 -1.16772 -3.90933 0
M  V30 5643 H 541.701 -2.24526 -3.50087 0
M  V30 5644 H 540.278 -0.425168 -3.70468 0
M  V30 5645 N 542.463 1.3308 -0.844243 0
M  V30 5646 C 543.393 2.3161 -0.296493 0
M  V30 5647 C 544.374 1.59215 0.598707 0
M  V30 5648 O 545.559 1.87077 0.521134 0
M  V30 5649 C 542.689 3.43313 0.524762 0
M  V30 5650 C 541.643 4.27115 -0.275106 0
M  V30 5651 C 540.969 5.30483 0.670236 0
M  V30 5652 C 542.269 5.00443 -1.49514 0
M  V30 5653 H 543.963 2.77672 -1.11976 0
M  V30 5654 H 541.509 1.33496 -0.539899 0
M  V30 5655 H 543.462 4.11273 0.918298 0
M  V30 5656 H 542.186 2.95952 1.3813 0
M  V30 5657 H 540.845 3.60787 -0.650267 0
M  V30 5658 H 540.493 4.79379 1.52332 0
M  V30 5659 H 540.193 5.87435 0.139123 0
M  V30 5660 H 541.717 6.01308 1.06117 0
M  V30 5661 H 543.131 5.61141 -1.17447 0
M  V30 5662 H 541.528 5.67071 -1.96343 0
M  V30 5663 H 542.598 4.28906 -2.26202 0
M  V30 5664 N 543.941 0.601185 1.45683 0
M  V30 5665 C 545.352 0.179659 1.85834 0
M  V30 5666 C 545.703 -1.26189 1.50236 0
M  V30 5667 O 544.828 -1.95587 0.925987 0
M  V30 5668 C 545.423 0.319277 3.37292 0
M  V30 5669 C 543.982 -0.0475092 3.7637 0
M  V30 5670 C 543.129 0.646692 2.69654 0
M  V30 5671 H 546.08 0.808268 1.36575 0
M  V30 5672 H 546.101 -0.4503 3.77826 0
M  V30 5673 H 545.613 1.36855 3.6317 0
M  V30 5674 H 543.714 -1.0962 3.5611 0
M  V30 5675 H 543.827 0.34168 4.7788 0
M  V30 5676 H 542.191 0.0849971 2.54558 0
M  V30 5677 H 542.974 1.69797 2.98369 0
M  V30 5678 N 545.419 -1.53889 0.339982 0
M  V30 5679 C 546.835 -1.59595 -0.0120752 0
M  V30 5680 C 547.035 -1.35605 -1.49042 0
M  V30 5681 O 546.091 -1.14856 -2.24865 0
M  V30 5682 C 547.404 -2.9774 0.420898 0
M  V30 5683 C 548.952 -3.1077 0.37294 0
M  V30 5684 C 549.427 -4.51286 0.781327 0
M  V30 5685 N 550.918 -4.57325 0.735374 0
M  V30 5686 C 551.653 -5.64194 1.02336 0
M  V30 5687 N 551.149 -6.7893 1.37933 0
M  V30 5688 N 552.942 -5.54051 0.947838 0
M  V30 5689 H 545.093 -1.67738 1.30299 0
M  V30 5690 H 547.356 -0.785385 0.530918 0
M  V30 5691 H 547.062 -3.20349 1.45152 0
M  V30 5692 H 546.936 -3.76639 -0.205721 0
M  V30 5693 H 549.323 -2.87886 -0.648505 0
M  V30 5694 H 549.404 -2.33939 1.03472 0
M  V30 5695 H 549.048 -4.74905 1.80077 0
M  V30 5696 H 548.978 -5.26511 0.0970679 0
M  V30 5697 H 551.469 -3.74931 0.472773 0
M  V30 5698 H 551.782 -7.56392 1.58402 0
M  V30 5699 H 550.127 -6.80386 1.41774 0
M  V30 5700 H 553.318 -4.63293 0.669115 0
M  V30 5701 H 553.491 -6.37246 1.17563 0
M  V30 5702 N 546.897 -0.0685191 -1.57451 0
M  V30 5703 C 547.827 0.89747 -2.15564 0
M  V30 5704 C 548.808 1.31266 -1.08181 0
M  V30 5705 O 549.993 1.38429 -1.36202 0
M  V30 5706 C 547.123 2.16623 -2.71463 0
M  V30 5707 C 546.077 1.89054 -3.83982 0
M  V30 5708 C 545.403 3.22532 -4.26471 0
M  V30 5709 C 546.703 1.1984 -5.08366 0
M  V30 5710 H 548.397 0.413373 -2.96533 0
M  V30 5711 H 545.943 0.197391 -1.42641 0
M  V30 5712 H 547.896 2.84614 -3.10761 0
M  V30 5713 H 546.62 2.67269 -1.8771 0
M  V30 5714 H 545.279 1.23469 -3.45183 0
M  V30 5715 H 544.927 3.71013 -3.39644 0
M  V30 5716 H 544.627 3.04879 -5.02317 0
M  V30 5717 H 546.151 3.91727 -4.68383 0
M  V30 5718 H 547.565 1.77896 -5.45001 0
M  V30 5719 H 545.962 1.12456 -5.89469 0
M  V30 5720 H 547.032 0.176996 -4.84577 0
M  V30 5721 N 548.375 1.56261 0.205012 0
M  V30 5722 C 549.322 1.93754 1.25411 0
M  V30 5723 C 550.292 0.796826 1.45739 0
M  V30 5724 O 551.477 1.05414 1.59036 0
M  V30 5725 C 548.617 2.27383 2.59598 0
M  V30 5726 C 547.73 3.5447 2.46931 0
M  V30 5727 C 546.865 3.77468 3.73753 0
M  V30 5728 C 545.904 4.98014 3.55877 0
M  V30 5729 N 545.041 5.17316 4.74688 0
M  V30 5730 H 549.881 2.83203 0.92737 0
M  V30 5731 H 547.418 1.40158 0.446574 0
M  V30 5732 H 549.376 2.44895 3.37761 0
M  V30 5733 H 548.006 1.41088 2.90335 0
M  V30 5734 H 547.058 3.45061 1.60116 0
M  V30 5735 H 548.37 4.42789 2.29651 0
M  V30 5736 H 547.524 3.95165 4.60358 0
M  V30 5737 H 546.263 2.87461 3.93976 0
M  V30 5738 H 545.268 4.80249 2.67657 0
M  V30 5739 H 546.493 5.8952 3.37109 0
M  V30 5740 H 544.439 4.30255 4.95194 0
M  V30 5741 H 544.356 5.99796 4.60197 0
M  V30 5742 H 545.624 5.39463 5.62672 0
M  V30 5743 N 549.853 -0.472356 1.50355 0
M  V30 5744 C 551.264 -1.05326 1.54154 0
M  V30 5745 C 551.615 -1.93155 0.344303 0
M  V30 5746 O 550.74 -2.09479 -0.542928 0
M  V30 5747 C 551.335 -1.91691 2.79356 0
M  V30 5748 C 549.894 -2.44892 2.8584 0
M  V30 5749 C 549.041 -1.23205 2.48426 0
M  V30 5750 H 551.992 -0.255027 1.56637 0
M  V30 5751 H 552.013 -2.76742 2.6114 0
M  V30 5752 H 551.525 -1.27741 3.66475 0
M  V30 5753 H 549.626 -3.12399 2.0307 0
M  V30 5754 H 549.739 -2.80086 3.88701 0
M  V30 5755 H 548.103 -1.56643 2.00836 0
M  V30 5756 H 548.886 -0.609194 3.37852 0
M  V30 5757 N 551.331 -1.39911 -0.725443 0
M  V30 5758 C 552.556 -1.41137 -1.5197 0
M  V30 5759 C 552.981 -0.010262 -1.88097 0
M  V30 5760 O 552.339 0.979184 -1.52583 0
M  V30 5761 C 552.387 -2.2994 -2.77777 0
M  V30 5762 O 551.491 -1.73586 -3.74088 0
M  V30 5763 H 550.832 -0.480219 -0.458569 0
M  V30 5764 H 553.362 -1.84023 -0.894249 0
M  V30 5765 H 553.372 -2.44785 -3.26411 0
M  V30 5766 H 552.047 -3.31759 -2.50816 0
M  V30 5767 H 550.624 -1.68035 -3.32894 0
M  V30 5768 N 552.809 0.956637 -1.25245 0
M  V30 5769 C 553.719 2.0868 -1.0719 0
M  V30 5770 C 554.735 1.73997 -0.00959074 0
M  V30 5771 O 555.911 2.00301 -0.210104 0
M  V30 5772 C 552.976 3.39754 -0.690526 0
M  V30 5773 C 552.037 3.88316 -1.83055 0
M  V30 5774 C 551.27 5.13134 -1.46728 0
M  V30 5775 O 551.493 5.6925 -0.362029 0
M  V30 5776 O 550.427 5.56356 -2.29677 0
M  V30 5777 H 554.253 2.26813 -2.01965 0
M  V30 5778 H 551.838 1.07098 -1.04165 0
M  V30 5779 H 553.72 4.18543 -0.489871 0
M  V30 5780 H 552.395 3.22896 0.227981 0
M  V30 5781 H 551.302 3.1054 -2.08604 0
M  V30 5782 H 552.635 4.09669 -2.72822 0
M  V30 5783 N 554.287 1.06798 1.15896 0
M  V30 5784 C 555.25 0.687328 2.18651 0
M  V30 5785 C 556.25 -0.269559 1.58524 0
M  V30 5786 O 557.44 -0.0512627 1.74125 0
M  V30 5787 C 554.572 0.0121642 3.40898 0
M  V30 5788 H 555.765 1.59701 2.53842 0
M  V30 5789 H 553.318 0.863828 1.3026 0
M  V30 5790 H 554.053 -0.910025 3.1127 0
M  V30 5791 H 553.838 0.700309 3.85795 0
M  V30 5792 H 555.328 -0.239703 4.16911 0
M  V30 5793 N 555.766 -1.3263 0.851289 0
M  V30 5794 C 557.014 -1.96978 0.452128 0
M  V30 5795 C 557.335 -1.67715 -0.99482 0
M  V30 5796 O 556.605 -0.98259 -1.69476 0
M  V30 5797 H 555.185 -0.72873 0.164202 0
M  V30 5798 H 557.847 -1.61774 1.08698 0
M  V30 5799 H 556.943 -3.06387 0.594407 0
M  V30 5800 N 557.244 -0.608902 -1.45362 0
M  V30 5801 C 558.66 -0.272659 -1.57254 0
M  V30 5802 C 558.86 1.22477 -1.60005 0
M  V30 5803 O 557.916 2.00785 -1.53106 0
M  V30 5804 C 559.229 -0.944991 -2.85465 0
M  V30 5805 C 560.777 -0.921033 -2.99142 0
M  V30 5806 C 561.252 -1.5734 -4.30126 0
M  V30 5807 N 562.743 -1.53895 -4.36887 0
M  V30 5808 C 563.478 -2.01286 -5.36909 0
M  V30 5809 N 562.974 -2.56768 -6.43461 0
M  V30 5810 N 564.767 -1.92046 -5.28275 0
M  V30 5811 H 556.918 -1.58117 -1.4182 0
M  V30 5812 H 559.181 -0.662437 -0.678146 0
M  V30 5813 H 558.887 -1.99941 -2.89338 0
M  V30 5814 H 558.761 -0.469079 -3.74272 0
M  V30 5815 H 561.148 0.124846 -2.94836 0
M  V30 5816 H 561.229 -1.43522 -2.11743 0
M  V30 5817 H 560.873 -2.61862 -4.35191 0
M  V30 5818 H 560.803 -1.03422 -5.16344 0
M  V30 5819 H 563.294 -1.13366 -3.60495 0
M  V30 5820 H 563.607 -2.9072 -7.16032 0
M  V30 5821 H 561.952 -2.60808 -6.44208 0
M  V30 5822 H 565.143 -1.48439 -4.43941 0
M  V30 5823 H 565.316 -2.29293 -6.06077 0
M  V30 5824 N 558.722 1.53707 -0.348139 0
M  V30 5825 C 559.952 2.05108 0.247864 0
M  V30 5826 C 560.36 1.22252 1.44399 0
M  V30 5827 O 559.703 0.251853 1.81965 0
M  V30 5828 C 559.765 3.52171 0.722187 0
M  V30 5829 C 559.429 4.5562 -0.354902 0
M  V30 5830 C 560.426 5.05883 -1.19911 0
M  V30 5831 C 558.111 4.99703 -0.510145 0
M  V30 5832 C 560.105 5.98814 -2.18406 0
M  V30 5833 C 557.792 5.92443 -1.49848 0
M  V30 5834 C 558.79 6.41887 -2.33389 0
M  V30 5835 O 558.478 7.32802 -3.3054 0
M  V30 5836 H 558.21 0.674086 0.0508296 0
M  V30 5837 H 560.764 1.99229 -0.49968 0
M  V30 5838 H 558.994 3.55529 1.52105 0
M  V30 5839 H 560.683 3.8652 1.23925 0
M  V30 5840 H 561.449 4.72586 -1.09028 0
M  V30 5841 H 557.328 4.60816 0.130274 0
M  V30 5842 H 560.872 6.3733 -2.83649 0
M  V30 5843 H 556.769 6.25155 -1.60786 0
M  V30 5844 H 557.537 7.50749 -3.26064 0
M  V30 5845 N 560.2 0.0768682 1.57412 0
M  V30 5846 C 561.425 -0.603404 1.98428 0
M  V30 5847 C 561.85 -1.62047 0.955108 0
M  V30 5848 O 561.208 -1.81129 -0.0786778 0
M  V30 5849 C 561.256 -1.24396 3.38464 0
M  V30 5850 O 560.36 -2.35982 3.3821 0
M  V30 5851 H 559.701 -0.154741 0.645718 0
M  V30 5852 H 562.231 0.152885 2.04028 0
M  V30 5853 H 562.241 -1.5896 3.7576 0
M  V30 5854 H 560.916 -0.498735 4.12899 0
M  V30 5855 H 559.493 -2.03173 3.1269 0
M  V30 5856 N 561.678 -1.56367 -0.196722 0
M  V30 5857 C 562.925 -1.80529 -0.917366 0
M  V30 5858 C 563.253 -0.649817 -1.83324 0
M  V30 5859 O 562.508 0.36451 -1.92275 0
M  V30 5860 C 562.807 -3.10663 -1.767 0
M  V30 5861 C 562.473 -4.3962 -1.00225 0
M  V30 5862 C 561.135 -4.74653 -0.791095 0
M  V30 5863 C 563.487 -5.1913 -0.464035 0
M  V30 5864 C 560.815 -5.86692 -0.0302155 0
M  V30 5865 C 563.167 -6.31964 0.283625 0
M  V30 5866 C 561.831 -6.65581 0.505813 0
M  V30 5867 H 561.101 -0.660602 -0.335688 0
M  V30 5868 H 563.748 -1.90615 -0.183844 0
M  V30 5869 H 562.053 -2.95807 -2.56915 0
M  V30 5870 H 563.75 -3.26563 -2.32718 0
M  V30 5871 H 560.34 -4.12127 -1.17684 0
M  V30 5872 H 564.524 -4.9248 -0.614575 0
M  V30 5873 H 559.78 -6.11211 0.151917 0
M  V30 5874 H 563.954 -6.92791 0.708057 0
M  V30 5875 H 561.581 -7.52239 1.0973 0
M  V30 5876 N 563.156 0.464375 -1.50603 0
M  V30 5877 C 564.086 1.56944 -1.72889 0
M  V30 5878 C 565.067 1.59979 -0.577997 0
M  V30 5879 O 566.252 1.76138 -0.817855 0
M  V30 5880 C 563.382 2.95225 -1.8292 0
M  V30 5881 C 562.336 3.07056 -2.98162 0
M  V30 5882 C 561.662 4.47051 -2.93343 0
M  V30 5883 C 562.962 2.83648 -4.38567 0
M  V30 5884 H 564.656 1.38547 -2.65415 0
M  V30 5885 H 562.202 0.665082 -1.27721 0
M  V30 5886 H 564.155 3.72467 -1.97095 0
M  V30 5887 H 562.879 3.14793 -0.870209 0
M  V30 5888 H 561.538 2.32248 -2.83648 0
M  V30 5889 H 561.186 4.63547 -1.95276 0
M  V30 5890 H 560.886 4.55902 -3.70712 0
M  V30 5891 H 562.41 5.26304 -3.09575 0
M  V30 5892 H 563.824 3.50636 -4.53572 0
M  V30 5893 H 562.221 3.03937 -5.17438 0
M  V30 5894 H 563.291 1.79451 -4.50472 0
M  V30 5895 N 564.634 1.40294 0.718013 0
M  V30 5896 C 565.597 1.4012 1.81381 0
M  V30 5897 C 566.597 0.295405 1.58063 0
M  V30 5898 O 567.787 0.554187 1.6515 0
M  V30 5899 C 564.919 1.19056 3.19435 0
M  V30 5900 H 566.112 2.37645 1.82933 0
M  V30 5901 H 563.665 1.26107 0.923405 0
M  V30 5902 H 564.4 0.222809 3.23534 0
M  V30 5903 H 564.185 1.99152 3.37758 0
M  V30 5904 H 565.675 1.21716 3.99468 0
M  V30 5905 N 566.112 -0.949982 1.2575 0
M  V30 5906 C 567.528 -1.22191 1.02672 0
M  V30 5907 C 567.728 -1.99898 -0.253588 0
M  V30 5908 O 566.784 -2.33329 -0.965076 0
M  V30 5909 C 568.097 -1.99175 2.25277 0
M  V30 5910 C 569.645 -2.12201 2.30087 0
M  V30 5911 C 570.12 -2.92586 3.5236 0
M  V30 5912 N 571.611 -3.00163 3.52784 0
M  V30 5913 C 572.346 -3.62766 4.44059 0
M  V30 5914 N 571.842 -4.26943 5.45611 0
M  V30 5915 N 573.635 -3.59953 4.3173 0
M  V30 5916 H 565.786 -0.430258 2.07996 0
M  V30 5917 H 568.049 -0.252844 0.91366 0
M  V30 5918 H 567.755 -1.49479 3.18354 0
M  V30 5919 H 567.629 -2.99868 2.28821 0
M  V30 5920 H 570.016 -2.61093 1.3753 0
M  V30 5921 H 570.097 -1.10799 2.30559 0
M  V30 5922 H 569.741 -2.44383 4.45241 0
M  V30 5923 H 569.671 -3.94224 3.49134 0
M  V30 5924 H 572.162 -2.54529 2.79327 0
M  V30 5925 H 572.475 -4.72583 6.11461 0
M  V30 5926 H 570.82 -4.25557 5.49478 0
M  V30 5927 H 574.011 -3.09003 3.51617 0
M  V30 5928 H 574.184 -4.08455 5.03059 0
M  V30 5929 N 567.59 -1.07411 -1.15328 0
M  V30 5930 C 568.538 -0.689316 -2.22151 0
M  V30 5931 C 569.532 0.300156 -1.6672 0
M  V30 5932 O 570.738 0.163804 -1.79253 0
M  V30 5933 H 567.113 -0.204834 -0.723566 0
M  V30 5934 H 569.084 -1.59988 -2.51886 0
M  V30 5935 C 567.833 -0.103848 -3.47545 0
M  V30 5936 H 567.156 -0.856367 -3.90521 0
M  V30 5937 H 568.596 0.127725 -4.23808 0
M  V30 5938 C 567.055 1.15563 -3.1646 0
M  V30 5939 O 567.585 2.242 -3.33312 0
M  V30 5940 N 565.791 1.06203 -2.70498 0
M  V30 5941 H 565.338 0.177933 -2.56985 0
M  V30 5942 H 565.296 1.90553 -2.50074 0
M  V30 5943 N 569.068 1.32177 -0.85831 0
M  V30 5944 C 570.479 1.79381 -0.517621 0
M  V30 5945 C 570.83 1.70841 0.964769 0
M  V30 5946 O 569.955 1.26917 1.75274 0
M  V30 5947 C 570.55 3.25706 -0.932801 0
M  V30 5948 C 569.109 3.70851 -0.643953 0
M  V30 5949 C 568.256 2.53208 -1.13054 0
M  V30 5950 H 571.207 1.19424 -1.04516 0
M  V30 5951 H 571.228 3.79673 -0.250674 0
M  V30 5952 H 570.74 3.31889 -2.01174 0
M  V30 5953 H 568.841 3.70178 0.424112 0
M  V30 5954 H 568.954 4.63495 -1.21281 0
M  V30 5955 H 567.318 2.48676 -0.550679 0
M  V30 5956 H 568.101 2.62143 -2.21666 0
M  V30 5957 N 570.547 0.616602 1.45037 0
M  V30 5958 C 571.795 0.115103 2.01772 0
M  V30 5959 C 572.116 -1.2622 1.48639 0
M  V30 5960 O 571.386 -1.83563 0.684199 0
M  V30 5961 H 569.966 0.0395607 0.745952 0
M  V30 5962 H 572.628 0.800032 1.77723 0
M  V30 5963 H 571.724 0.0717274 3.12018 0
M  V30 5964 N 572.025 -1.5352 0.356285 0
M  V30 5965 C 573.273 -2.00719 -0.235837 0
M  V30 5966 C 573.594 -1.24551 -1.5004 0
M  V30 5967 O 572.864 -0.356185 -1.92635 0
M  V30 5968 H 571.444 -0.741542 -0.0901366 0
M  V30 5969 H 574.106 -1.88887 0.480378 0
M  V30 5970 H 573.202 -3.08551 -0.469357 0
M  V30 5971 N 573.503 -0.0852151 -1.57369 0
M  V30 5972 C 574.749 0.575588 -1.95086 0
M  V30 5973 C 575.104 1.66402 -0.96582 0
M  V30 5974 O 574.397 1.91598 0.00978463 0
M  V30 5975 C 574.591 1.18482 -3.3719 0
M  V30 5976 C 574.42 0.156928 -4.49426 0
M  V30 5977 C 573.19 -0.263126 -5.04614 0
M  V30 5978 C 575.388 -0.611068 -5.10657 0
M  V30 5979 N 573.37 -1.28032 -6.00401 0
M  V30 5980 C 574.741 -1.48036 -6.02068 0
M  V30 5981 C 576.796 -0.665669 -4.9343 0
M  V30 5982 C 575.499 -2.39943 -6.781 0
M  V30 5983 C 577.525 -1.5723 -5.70116 0
M  V30 5984 C 576.887 -2.42924 -6.61186 0
M  V30 5985 H 572.986 0.181249 -0.760705 0
M  V30 5986 H 575.57 -0.165484 -1.93995 0
M  V30 5987 H 573.741 1.89575 -3.38992 0
M  V30 5988 H 575.473 1.80718 -3.62109 0
M  V30 5989 H 572.228 0.122664 -4.73441 0
M  V30 5990 H 572.652 -1.78682 -6.52994 0
M  V30 5991 H 577.294 -0.0173214 -4.22796 0
M  V30 5992 H 575.012 -3.05807 -7.48002 0
M  V30 5993 H 578.598 -1.61956 -5.58804 0
M  V30 5994 H 577.478 -3.1194 -7.19488 0
M  V30 5995 N 574.981 1.5647 0.188427 0
M  V30 5996 C 576.397 1.50204 0.539532 0
M  V30 5997 C 576.597 0.78644 1.85519 0
M  V30 5998 O 575.653 0.339714 2.50204 0
M  V30 5999 C 576.966 2.94893 0.588103 0
M  V30 6000 C 578.514 3.05602 0.67648 0
M  V30 6001 C 578.989 4.51716 0.756101 0
M  V30 6002 N 580.48 4.55894 0.819451 0
M  V30 6003 C 581.215 5.66272 0.90134 0
M  V30 6004 N 580.711 6.86323 0.945118 0
M  V30 6005 N 582.504 5.54201 0.939043 0
M  V30 6006 H 574.655 2.01406 -0.674493 0
M  V30 6007 H 576.918 0.916828 -0.241103 0
M  V30 6008 H 576.624 3.50334 -0.309633 0
M  V30 6009 H 576.498 3.4861 1.44051 0
M  V30 6010 H 578.885 2.50206 1.56465 0
M  V30 6011 H 578.966 2.54999 -0.202262 0
M  V30 6012 H 578.61 5.07739 -0.12774 0
M  V30 6013 H 578.54 5.00058 1.65074 0
M  V30 6014 H 581.031 3.69452 0.794594 0
M  V30 6015 H 581.344 7.66194 1.0083 0
M  V30 6016 H 579.689 6.88968 0.913683 0
M  V30 6017 H 582.88 4.59333 0.901725 0
M  V30 6018 H 583.053 6.40247 0.999402 0
M  V30 6019 N 576.459 -0.456382 1.50847 0
M  V30 6020 C 577.422 -1.53493 1.70213 0
M  V30 6021 C 578.422 -1.50264 0.572481 0
M  V30 6022 O 579.612 -1.52623 0.839751 0
M  V30 6023 C 576.744 -2.93091 1.741 0
M  V30 6024 H 577.937 -1.37633 2.66453 0
M  V30 6025 H 575.49 -0.683776 1.4055 0
M  V30 6026 H 576.225 -3.14378 0.796063 0
M  V30 6027 H 576.01 -2.9684 2.5618 0
M  V30 6028 H 577.5 -3.71368 1.90987 0
M  V30 6029 N 577.937 -1.40673 -0.710563 0
M  V30 6030 C 578.867 -1.44095 -1.83736 0
M  V30 6031 C 579.848 -0.301286 -1.67411 0
M  V30 6032 O 581.033 -0.510618 -1.87367 0
M  V30 6033 C 578.163 -1.30773 -3.21738 0
M  V30 6034 C 577.117 -2.42395 -3.52745 0
M  V30 6035 C 576.443 -2.14147 -4.89944 0
M  V30 6036 C 577.743 -3.84738 -3.53234 0
M  V30 6037 H 579.437 -2.38396 -1.81129 0
M  V30 6038 H 576.983 -1.14746 -0.870017 0
M  V30 6039 H 578.936 -1.31783 -4.00264 0
M  V30 6040 H 577.66 -0.329507 -3.24934 0
M  V30 6041 H 576.319 -2.40643 -2.76562 0
M  V30 6042 H 575.967 -1.14703 -4.89747 0
M  V30 6043 H 575.667 -2.88934 -5.11655 0
M  V30 6044 H 577.191 -2.16848 -5.70797 0
M  V30 6045 H 578.605 -3.88286 -4.2179 0
M  V30 6046 H 577.002 -4.59085 -3.86473 0
M  V30 6047 H 578.072 -4.13962 -2.52514 0
M  V30 6048 N 579.415 0.9433 -1.26252 0
M  V30 6049 C 580.643 1.72367 -1.14443 0
M  V30 6050 C 581.058 1.86392 0.300572 0
M  V30 6051 O 580.415 1.36978 1.20596 0
M  V30 6052 C 580.466 3.13155 -1.806 0
M  V30 6053 O 580.187 2.99803 -3.19452 0
M  V30 6054 C 581.688 4.07417 -1.74717 0
M  V30 6055 H 578.908 0.539758 -0.398626 0
M  V30 6056 H 581.452 1.18268 -1.66832 0
M  V30 6057 H 579.607 3.64162 -1.32154 0
M  V30 6058 H 580.021 3.88697 -3.52158 0
M  V30 6059 H 581.495 5.03773 -2.25647 0
M  V30 6060 H 581.972 4.3337 -0.713244 0
M  V30 6061 H 582.578 3.6233 -2.22704 0
M  V30 6062 N 580.893 1.08022 1.14757 0
M  V30 6063 C 582.14 0.807509 1.85703 0
M  V30 6064 C 582.468 -0.666617 1.8272 0
M  V30 6065 O 581.723 -1.50562 1.25018 0
M  V30 6066 C 582.022 1.26964 3.34088 0
M  V30 6067 C 581.688 2.7509 3.57262 0
M  V30 6068 C 580.35 3.15547 3.63296 0
M  V30 6069 C 582.702 3.70667 3.66409 0
M  V30 6070 C 580.03 4.50384 3.75994 0
M  V30 6071 C 582.382 5.05274 3.80632 0
M  V30 6072 C 581.046 5.45342 3.84913 0
M  V30 6073 H 580.316 0.295488 0.679535 0
M  V30 6074 H 582.963 1.35245 1.35577 0
M  V30 6075 H 581.268 0.644216 3.86467 0
M  V30 6076 H 582.965 1.03544 3.87401 0
M  V30 6077 H 579.555 2.42775 3.53212 0
M  V30 6078 H 583.739 3.40533 3.61041 0
M  V30 6079 H 578.995 4.80886 3.77569 0
M  V30 6080 H 583.169 5.79201 3.86652 0
M  V30 6081 H 580.796 6.49823 3.94505 0
M  V30 6082 N 582.371 -1.3172 0.865308 0
M  V30 6083 C 583.281 -2.32394 0.320935 0
M  V30 6084 C 584.297 -1.64511 -0.566746 0
M  V30 6085 O 585.473 -1.95969 -0.464575 0
M  V30 6086 C 582.538 -3.43462 -0.472701 0
M  V30 6087 C 581.599 -4.27015 0.442385 0
M  V30 6088 C 580.832 -5.32779 -0.313469 0
M  V30 6089 O 581.055 -5.49158 -1.54214 0
M  V30 6090 O 579.989 -6.01015 0.326257 0
M  V30 6091 H 583.815 -2.80868 1.15528 0
M  V30 6092 H 581.4 -1.35535 0.628545 0
M  V30 6093 H 583.282 -4.11172 -0.922781 0
M  V30 6094 H 581.957 -2.97159 -1.28367 0
M  V30 6095 H 580.864 -3.62075 0.940866 0
M  V30 6096 H 582.197 -4.76871 1.21882 0
M  V30 6097 N 583.85 -0.624285 -1.44708 0
M  V30 6098 C 584.779 0.0717025 -2.3339 0
M  V30 6099 C 585.76 0.841814 -1.47809 0
M  V30 6100 O 586.946 0.809056 -1.76544 0
M  V30 6101 C 584.076 1.05852 -3.30776 0
M  V30 6102 C 583.029 0.400503 -4.26122 0
M  V30 6103 C 582.356 1.49674 -5.13324 0
M  V30 6104 C 583.656 -0.688924 -5.17737 0
M  V30 6105 H 585.35 -0.668819 -2.91834 0
M  V30 6106 H 582.896 -0.32308 -1.40329 0
M  V30 6107 H 584.849 1.5541 -3.91696 0
M  V30 6108 H 583.572 1.82984 -2.70526 0
M  V30 6109 H 582.231 -0.0743687 -3.66525 0
M  V30 6110 H 581.88 2.25877 -4.49431 0
M  V30 6111 H 581.58 1.06188 -5.77926 0
M  V30 6112 H 583.104 1.99427 -5.77115 0
M  V30 6113 H 584.518 -0.276724 -5.72632 0
M  V30 6114 H 582.915 -1.04652 -5.90904 0
M  V30 6115 H 583.985 -1.55884 -4.5916 0
M  V30 6116 N 585.328 1.53329 -0.364422 0
M  V30 6117 C 586.556 2.05657 0.226424 0
M  V30 6118 C 586.971 1.23801 1.42544 0
M  V30 6119 O 586.328 0.27839 1.80364 0
M  V30 6120 C 586.379 3.56125 0.621056 0
M  V30 6121 O 586.1 4.34879 -0.530304 0
M  V30 6122 C 587.601 4.24706 1.27041 0
M  V30 6123 H 584.821 0.669806 0.0400056 0
M  V30 6124 H 587.365 1.97714 -0.522456 0
M  V30 6125 H 585.52 3.64223 1.31985 0
M  V30 6126 H 585.934 5.24073 -0.211546 0
M  V30 6127 H 587.408 5.3131 1.49711 0
M  V30 6128 H 587.885 3.78354 2.23036 0
M  V30 6129 H 588.491 4.20858 0.613079 0
M  V30 6130 N 586.806 0.0935595 1.57322 0
M  V30 6131 C 587.736 -0.863062 2.16964 0
M  V30 6132 C 588.717 -1.29528 1.10256 0
M  V30 6133 O 589.902 -1.36245 1.38387 0
M  V30 6134 C 587.032 -2.12276 2.74875 0
M  V30 6135 C 585.986 -1.82921 3.86942 0
M  V30 6136 C 585.312 -3.15707 4.31548 0
M  V30 6137 C 586.612 -1.11737 5.10208 0
M  V30 6138 H 588.306 -0.366145 2.97153 0
M  V30 6139 H 585.852 -0.174673 1.42937 0
M  V30 6140 H 587.805 -2.79634 3.1525 0
M  V30 6141 H 586.529 -2.64248 1.91938 0
M  V30 6142 H 585.188 -1.17961 3.47103 0
M  V30 6143 H 584.836 -3.65563 3.45504 0
M  V30 6144 H 584.536 -2.96849 5.07104 0
M  V30 6145 H 586.06 -3.84226 4.74555 0
M  V30 6146 H 587.474 -1.69203 5.47762 0
M  V30 6147 H 585.871 -1.03064 5.91183 0
M  V30 6148 H 586.941 -0.0998818 4.84797 0
M  V30 6149 N 588.284 -1.56567 -0.180126 0
M  V30 6150 C 589.7 -1.50488 -0.531559 0
M  V30 6151 C 589.9 -0.796267 -1.851 0
M  V30 6152 O 588.956 -0.352978 -2.50021 0
M  V30 6153 C 590.269 -2.95201 -0.572456 0
M  V30 6154 C 591.817 -3.05957 -0.660264 0
M  V30 6155 C 592.292 -4.5211 -0.732135 0
M  V30 6156 N 593.783 -4.56322 -0.795262 0
M  V30 6157 C 594.518 -5.66742 -0.871296 0
M  V30 6158 N 594.014 -6.86815 -0.908708 0
M  V30 6159 N 595.807 -5.54691 -0.909639 0
M  V30 6160 H 587.958 -2.01045 0.685165 0
M  V30 6161 H 590.221 -0.915536 0.245962 0
M  V30 6162 H 589.927 -3.50165 0.328208 0
M  V30 6163 H 589.801 -3.49369 -1.422 0
M  V30 6164 H 592.188 -2.51032 -1.55136 0
M  V30 6165 H 592.269 -2.54888 0.215783 0
M  V30 6166 H 591.913 -5.07664 0.154664 0
M  V30 6167 H 591.843 -5.00926 -1.6242 0
M  V30 6168 H 594.334 -3.69868 -0.77499 0
M  V30 6169 H 594.647 -7.66718 -0.967654 0
M  V30 6170 H 592.992 -6.89443 -0.877132 0
M  V30 6171 H 596.183 -4.59804 -0.877353 0
M  V30 6172 H 596.356 -6.40768 -0.965434 0
M  V30 6173 N 589.762 0.448376 -1.51087 0
M  V30 6174 C 590.992 1.21965 -1.66757 0
M  V30 6175 C 591.4 1.85748 -0.359753 0
M  V30 6176 O 590.743 1.71022 0.670604 0
M  V30 6177 C 590.805 2.35284 -2.71812 0
M  V30 6178 C 590.469 1.91957 -4.1473 0
M  V30 6179 C 591.466 1.42921 -4.9987 0
M  V30 6180 C 589.151 1.99985 -4.60772 0
M  V30 6181 C 591.145 1.02485 -6.29107 0
M  V30 6182 C 588.832 1.5916 -5.90009 0
M  V30 6183 C 589.83 1.10491 -6.74004 0
M  V30 6184 O 589.518 0.702413 -8.00825 0
M  V30 6185 H 589.25 0.374125 -0.563034 0
M  V30 6186 H 591.804 0.538927 -1.98204 0
M  V30 6187 H 590.034 3.06599 -2.35657 0
M  V30 6188 H 591.723 2.97184 -2.76472 0
M  V30 6189 H 592.489 1.36123 -4.65506 0
M  V30 6190 H 588.368 2.36814 -3.95525 0
M  V30 6191 H 591.912 0.644271 -6.94619 0
M  V30 6192 H 587.809 1.65626 -6.2389 0
M  V30 6193 H 588.577 0.829248 -8.14288 0
M  V30 6194 N 591.24 1.41047 0.703093 0
M  V30 6195 C 592.651 1.35657 1.28274 0
M  V30 6196 C 593.002 0.0360309 1.96167 0
M  V30 6197 O 592.127 -0.865833 1.98324 0
M  V30 6198 C 592.722 2.45707 2.33267 0
M  V30 6199 C 591.281 2.43738 2.86825 0
M  V30 6200 C 590.428 2.25941 1.60767 0
M  V30 6201 H 593.379 1.50672 0.49836 0
M  V30 6202 H 593.4 2.14333 3.14391 0
M  V30 6203 H 592.912 3.41805 1.83824 0
M  V30 6204 H 591.013 1.51375 3.40465 0
M  V30 6205 H 591.126 3.39779 3.37768 0
M  V30 6206 H 589.49 1.73681 1.86298 0
M  V30 6207 H 590.273 3.24054 1.1333 0
M  V30 6208 N 592.718 -0.936591 1.26751 0
M  V30 6209 C 594.129 -1.49816 1.1141 0
M  V30 6210 C 594.48 -1.9383 -0.304015 0
M  V30 6211 O 593.605 -1.80346 -1.196 0
M  V30 6212 C 594.2 -2.72271 2.01629 0
M  V30 6213 C 592.759 -3.2468 1.9042 0
M  V30 6214 C 591.906 -1.97444 1.94708 0
M  V30 6215 H 594.857 -0.751604 1.39773 0
M  V30 6216 H 594.878 -3.46741 1.56688 0
M  V30 6217 H 594.39 -2.40205 3.04833 0
M  V30 6218 H 592.491 -3.61525 0.901674 0
M  V30 6219 H 592.604 -3.91476 2.76195 0
M  V30 6220 H 590.968 -2.13545 1.38818 0
M  V30 6221 H 591.751 -1.67703 2.9955 0
M  V30 6222 N 594.196 -1.08629 -1.14182 0
M  V30 6223 C 595.106 -0.730126 -2.22949 0
M  V30 6224 C 596.122 0.26436 -1.7198 0
M  V30 6225 O 597.298 0.107742 -2.01112 0
M  V30 6226 C 594.363 -0.147227 -3.46387 0
M  V30 6227 C 593.424 -1.19662 -4.12286 0
M  V30 6228 C 592.657 -0.641437 -5.29831 0
M  V30 6229 O 592.88 0.538351 -5.67854 0
M  V30 6230 O 591.814 -1.39257 -5.85569 0
M  V30 6231 H 595.64 -1.63753 -2.55771 0
M  V30 6232 H 593.225 -0.860118 -1.22157 0
M  V30 6233 H 595.107 0.174923 -4.21037 0
M  V30 6234 H 593.782 0.733304 -3.15285 0
M  V30 6235 H 592.689 -1.57133 -3.395 0
M  V30 6236 H 594.022 -2.0495 -4.475 0
M  V30 6237 N 595.674 1.31259 -0.872281 0
M  V30 6238 C 596.92 1.96913 -0.485083 0
M  V30 6239 C 597.253 1.68774 0.960667 0
M  V30 6240 O 596.528 0.985495 1.67685 0
M  V30 6241 C 596.811 3.52299 -0.745502 0
M  V30 6242 C 596.664 3.90002 -2.24095 0
M  V30 6243 C 597.983 4.39582 -0.213516 0
M  V30 6244 H 595.102 0.715252 -0.177716 0
M  V30 6245 H 597.744 1.55347 -1.09395 0
M  V30 6246 H 595.894 3.87835 -0.227276 0
M  V30 6247 H 597.566 3.64555 -2.82661 0
M  V30 6248 H 595.809 3.38526 -2.71261 0
M  V30 6249 H 596.48 4.98352 -2.37381 0
M  V30 6250 H 598.956 4.10882 -0.656902 0
M  V30 6251 H 597.832 5.47251 -0.42516 0
M  V30 6252 H 598.093 4.33158 0.884666 0
M  V30 6253 N 597.152 0.631951 1.44375 0
M  V30 6254 C 598.377 0.142146 2.06912 0
M  V30 6255 C 598.802 -1.17456 1.4692 0
M  V30 6256 O 598.16 -1.72074 0.570975 0
M  V30 6257 C 598.208 0.0417952 3.60576 0
M  V30 6258 O 597.312 -1.00194 4.00044 0
M  V30 6259 H 596.653 0.0851491 0.658518 0
M  V30 6260 H 599.183 0.868863 1.85235 0
M  V30 6261 H 599.193 -0.148517 4.0773 0
M  V30 6262 H 597.868 1.0031 4.03622 0
M  V30 6263 H 596.445 -0.786131 3.64519 0
M  V30 6264 N 598.631 -1.53133 0.372548 0
M  V30 6265 C 599.877 -2.01654 -0.215277 0
M  V30 6266 C 600.21 -1.25914 -1.47849 0
M  V30 6267 O 599.485 -0.3548 -1.91237 0
M  V30 6268 C 599.768 -3.56609 -0.500187 0
M  V30 6269 C 599.621 -4.43036 0.777145 0
M  V30 6270 C 600.94 -4.20528 -1.29786 0
M  V30 6271 H 598.059 -0.732991 -0.0767686 0
M  V30 6272 H 600.701 -1.83335 0.498814 0
M  V30 6273 H 598.851 -3.7235 -1.10852 0
M  V30 6274 H 600.523 -4.39079 1.41447 0
M  V30 6275 H 598.766 -4.10723 1.39604 0
M  V30 6276 H 599.437 -5.49424 0.532662 0
M  V30 6277 H 601.913 -4.08663 -0.783198 0
M  V30 6278 H 600.789 -5.28962 -1.46596 0
M  V30 6279 H 601.05 -3.77051 -2.30836 0
M  V30 6280 N 600.109 -0.101901 -1.5727 0
M  V30 6281 C 601.358 0.559922 -1.93772 0
M  V30 6282 C 601.671 1.68913 -0.98629 0
M  V30 6283 O 602.877 2.41256 -1.24529 0
M  V30 6284 C 601.333 1.04739 -3.44322 0
M  V30 6285 C 600.941 -0.05243 -4.47969 0
M  V30 6286 C 602.685 1.68157 -3.89774 0
M  V30 6287 C 600.592 0.450781 -5.8968 0
M  V30 6288 H 599.522 0.212931 -0.723309 0
M  V30 6289 H 602.173 -0.179001 -1.82625 0
M  V30 6290 H 600.555 1.84021 -3.50645 0
M  V30 6291 H 601.729 -0.828157 -4.53297 0
M  V30 6292 H 600.044 -0.592202 -4.12167 0
M  V30 6293 H 602.641 2.0689 -4.93052 0
M  V30 6294 H 602.984 2.55338 -3.28798 0
M  V30 6295 H 603.517 0.954453 -3.8618 0
M  V30 6296 H 600.256 -0.38458 -6.54371 0
M  V30 6297 H 599.776 1.19336 -5.87809 0
M  V30 6298 H 601.455 0.917555 -6.40461 0
M  V30 6299 N 601.587 1.56661 0.17182 0
M  V30 6300 C 602.833 1.8313 0.88516 0
M  V30 6301 C 603.188 0.682376 1.79893 0
M  V30 6302 O 602.481 -0.321215 1.88888 0
M  V30 6303 C 602.675 3.13435 1.71736 0
M  V30 6304 C 602.504 4.40892 0.885659 0
M  V30 6305 C 601.274 5.02177 0.560939 0
M  V30 6306 C 603.472 5.13797 0.227454 0
M  V30 6307 N 601.454 6.13229 -0.286953 0
M  V30 6308 C 602.825 6.18127 -0.481625 0
M  V30 6309 C 604.88 4.97687 0.145567 0
M  V30 6310 C 603.583 7.08092 -1.26482 0
M  V30 6311 C 605.609 5.88096 -0.624298 0
M  V30 6312 C 604.971 6.91888 -1.32174 0
M  V30 6313 H 601.07 0.721107 0.302536 0
M  V30 6314 H 603.654 1.94104 0.152178 0
M  V30 6315 H 601.825 3.03653 2.42176 0
M  V30 6316 H 603.557 3.27903 2.37196 0
M  V30 6317 H 600.312 4.65145 0.890902 0
M  V30 6318 H 600.736 6.73359 -0.701193 0
M  V30 6319 H 605.378 4.17451 0.670426 0
M  V30 6320 H 603.096 7.87774 -1.80103 0
M  V30 6321 H 606.682 5.77702 -0.689321 0
M  V30 6322 H 605.562 7.60637 -1.90791 0
M  V30 6323 N 603.065 -0.440357 1.51323 0
M  V30 6324 C 604.293 -1.21255 1.67645 0
M  V30 6325 C 604.708 -1.85088 0.37252 0
M  V30 6326 O 604.065 -1.70582 -0.648683 0
M  V30 6327 C 604.116 -2.29881 2.78993 0
M  V30 6328 O 603.837 -1.68659 4.04334 0
M  V30 6329 C 605.338 -3.20214 3.06558 0
M  V30 6330 H 602.558 -0.36558 0.562666 0
M  V30 6331 H 605.102 -0.52214 1.97722 0
M  V30 6332 H 603.257 -2.94643 2.51524 0
M  V30 6333 H 603.671 -2.40426 4.6615 0
M  V30 6334 H 605.145 -3.92575 3.88058 0
M  V30 6335 H 605.622 -3.80794 2.18844 0
M  V30 6336 H 606.228 -2.61156 3.35675 0
M  V30 6337 N 604.543 -1.41418 -0.695603 0
M  V30 6338 C 605.79 -1.40774 -1.45564 0
M  V30 6339 C 606.118 -0.0168604 -1.94493 0
M  V30 6340 O 605.373 0.971259 -1.69897 0
M  V30 6341 C 605.672 -2.36112 -2.68302 0
M  V30 6342 C 605.338 -3.82952 -2.38031 0
M  V30 6343 C 604 -4.22954 -2.29486 0
M  V30 6344 C 606.352 -4.75662 -2.13061 0
M  V30 6345 C 603.68 -5.53674 -1.94067 0
M  V30 6346 C 606.032 -6.06702 -1.79151 0
M  V30 6347 C 604.696 -6.45725 -1.69102 0
M  V30 6348 H 603.966 -0.515128 -0.532658 0
M  V30 6349 H 606.613 -1.74216 -0.795047 0
M  V30 6350 H 604.918 -1.95924 -3.39295 0
M  V30 6351 H 606.615 -2.32887 -3.26442 0
M  V30 6352 H 603.205 -3.5127 -2.45576 0
M  V30 6353 H 607.389 -4.45561 -2.18608 0
M  V30 6354 H 602.645 -5.8279 -1.8484 0
M  V30 6355 H 606.819 -6.78041 -1.5885 0
M  V30 6356 H 604.446 -7.46929 -1.41426 0
M  V30 6357 N 606.021 0.929856 -1.27246 0
M  V30 6358 C 607.27 1.67182 -1.12842 0
M  V30 6359 C 607.583 1.9287 0.325666 0
M  V30 6360 O 608.789 2.64999 0.590572 0
M  V30 6361 C 607.245 3.01097 -1.97151 0
M  V30 6362 C 606.853 2.83115 -3.47203 0
M  V30 6363 C 608.597 3.78907 -1.91389 0
M  V30 6364 C 606.504 4.12573 -4.23719 0
M  V30 6365 H 605.434 0.627064 -0.418697 0
M  V30 6366 H 608.085 1.0332 -1.51649 0
M  V30 6367 H 606.467 3.66004 -1.51186 0
M  V30 6368 H 607.641 2.26989 -4.01015 0
M  V30 6369 H 605.956 2.18736 -3.54321 0
M  V30 6370 H 608.553 4.74837 -2.45834 0
M  V30 6371 H 608.896 4.0674 -0.887047 0
M  V30 6372 H 609.429 3.20794 -2.35237 0
M  V30 6373 H 606.168 3.8992 -5.26918 0
M  V30 6374 H 605.688 4.68371 -3.74685 0
M  V30 6375 H 607.367 4.8095 -4.32777 0
M  V30 6376 N 607.499 1.09233 1.13605 0
M  V30 6377 C 608.447 0.724572 2.21027 0
M  V30 6378 C 609.441 -0.273595 1.67176 0
M  V30 6379 O 610.647 -0.135266 1.79491 0
M  V30 6380 H 607.022 0.216319 0.720215 0
M  V30 6381 H 608.993 1.63975 2.49309 0
M  V30 6382 C 607.742 0.159126 3.47336 0
M  V30 6383 H 607.065 0.918387 3.89109 0
M  V30 6384 H 608.505 -0.0602851 4.23957 0
M  V30 6385 C 606.964 -1.10514 3.18258 0
M  V30 6386 O 607.494 -2.18869 3.36837 0
M  V30 6387 N 605.7 -1.01886 2.72154 0
M  V30 6388 H 605.247 -0.137027 2.57235 0
M  V30 6389 H 605.205 -1.8655 2.53074 0
M  V30 6390 N 608.977 -1.30795 0.87923 0
M  V30 6391 C 610.225 -1.95974 0.493809 0
M  V30 6392 C 610.546 -1.69787 -0.959021 0
M  V30 6393 O 609.816 -1.01832 -1.67353 0
M  V30 6394 H 608.396 -0.725083 0.179622 0
M  V30 6395 H 611.058 -1.59432 1.12105 0
M  V30 6396 H 610.154 -3.05058 0.659263 0
M  V30 6397 N 610.455 -0.639598 -1.44038 0
M  V30 6398 C 611.68 -0.153117 -2.06834 0
M  V30 6399 C 612.105 1.16676 -1.47541 0
M  V30 6400 O 611.463 1.71769 -0.580093 0
M  V30 6401 C 611.511 -0.0609169 -3.60549 0
M  V30 6402 O 610.615 0.98071 -4.00569 0
M  V30 6403 H 609.956 -0.0886402 -0.658057 0
M  V30 6404 H 612.486 -0.878674 -1.84771 0
M  V30 6405 H 612.496 0.126892 -4.07803 0
M  V30 6406 H 611.171 -1.0245 -4.03084 0
M  V30 6407 H 609.748 0.766789 -3.64931 0
M  V30 6408 N 611.933 1.52934 -0.380664 0
M  V30 6409 C 613.181 2.01069 0.203874 0
M  V30 6410 C 613.502 1.26922 1.4804 0
M  V30 6411 O 612.772 0.386787 1.92044 0
M  V30 6412 H 611.352 0.742882 0.0783279 0
M  V30 6413 H 614.014 1.88099 -0.510368 0
M  V30 6414 H 613.11 3.09258 0.42021 0
M  V30 6415 N 613.412 0.11024 1.57214 0
M  V30 6416 C 614.64 -0.557834 1.99238 0
M  V30 6417 C 615.055 -1.60778 0.989734 0
M  V30 6418 O 614.412 -1.82491 -0.0186092 0
M  V30 6419 C 614.463 -1.19189 3.41286 0
M  V30 6420 O 614.184 -0.183919 4.37714 0
M  V30 6421 C 615.685 -1.94413 3.98395 0
M  V30 6422 H 612.905 -0.148392 0.654386 0
M  V30 6423 H 615.449 0.193996 2.03578 0
M  V30 6424 H 613.604 -1.89456 3.37913 0
M  V30 6425 H 614.018 -0.643475 5.20538 0
M  V30 6426 H 615.492 -2.34116 4.99894 0
M  V30 6427 H 615.969 -2.81592 3.3705 0
M  V30 6428 H 616.575 -1.28928 4.05287 0
M  V30 6429 N 614.89 -1.56749 -0.16351 0
M  V30 6430 C 615.82 -2.00042 -1.20438 0
M  V30 6431 C 616.801 -0.877256 -1.45733 0
M  V30 6432 O 617.986 -1.1439 -1.56935 0
M  V30 6433 C 615.116 -2.36697 -2.54149 0
M  V30 6434 C 614.07 -3.52046 -2.43408 0
M  V30 6435 C 613.396 -3.74466 -3.81679 0
M  V30 6436 C 614.696 -4.85247 -1.93216 0
M  V30 6437 H 616.39 -2.87244 -0.844477 0
M  V30 6438 H 613.936 -1.38194 -0.40478 0
M  V30 6439 H 615.889 -2.65582 -3.27176 0
M  V30 6440 H 614.613 -1.46414 -2.91943 0
M  V30 6441 H 613.272 -3.23301 -1.72834 0
M  V30 6442 H 612.92 -2.81461 -4.1688 0
M  V30 6443 H 612.62 -4.52084 -3.75359 0
M  V30 6444 H 614.144 -4.0576 -4.5628 0
M  V30 6445 H 615.558 -5.12957 -2.56023 0
M  V30 6446 H 613.955 -5.66556 -1.97825 0
M  V30 6447 H 615.025 -4.7672 -0.88689 0
M  V30 6448 N 616.368 0.432326 -1.51554 0
M  V30 6449 C 617.298 1.53242 -1.76179 0
M  V30 6450 C 618.279 1.58717 -0.611801 0
M  V30 6451 O 619.464 1.74364 -0.855033 0
M  V30 6452 C 616.594 2.91278 -1.89141 0
M  V30 6453 C 615.548 3.00663 -3.04608 0
M  V30 6454 C 614.874 4.40728 -3.02759 0
M  V30 6455 C 616.174 2.74281 -4.44485 0
M  V30 6456 H 617.868 1.32886 -2.68294 0
M  V30 6457 H 615.414 0.637841 -1.29103 0
M  V30 6458 H 617.367 3.68203 -2.04951 0
M  V30 6459 H 616.091 3.12877 -0.936785 0
M  V30 6460 H 614.75 2.26179 -2.88511 0
M  V30 6461 H 614.398 4.59301 -2.05065 0
M  V30 6462 H 614.098 4.47936 -3.80299 0
M  V30 6463 H 615.622 5.19619 -3.20669 0
M  V30 6464 H 617.036 3.40936 -4.60907 0
M  V30 6465 H 615.433 2.92893 -5.23769 0
M  V30 6466 H 616.503 1.69856 -4.54177 0
M  V30 6467 N 617.846 1.41785 0.688094 0
M  V30 6468 C 619.086 1.43018 1.46032 0
M  V30 6469 C 619.45 0.0402632 1.91958 0
M  V30 6470 O 620.651 -0.0726425 2.68702 0
M  V30 6471 C 618.922 2.4151 2.63453 0
M  V30 6472 S 620.481 2.61335 3.5249 0
M  V30 6473 H 617.299 0.506546 0.498931 0
M  V30 6474 H 619.901 1.78283 0.80221 0
M  V30 6475 H 618.605 3.41286 2.27929 0
M  V30 6476 H 618.136 2.07624 3.34149 0
M  V30 6477 H 620.151 1.88637 4.58945 0
M  V30 6478 N 619.324 -0.923095 1.27737 0
M  V30 6479 C 620.287 -2.00587 1.10894 0
M  V30 6480 C 621.287 -1.60718 0.0514927 0
M  V30 6481 O 622.477 -1.71658 0.296481 0
M  V30 6482 C 619.609 -3.33829 0.690717 0
M  V30 6483 H 620.802 -2.16959 2.07048 0
M  V30 6484 H 618.355 -1.10451 1.1059 0
M  V30 6485 H 619.09 -3.23157 -0.272 0
M  V30 6486 H 618.875 -3.64125 1.45448 0
M  V30 6487 H 620.365 -4.13336 0.595252 0
M  V30 6488 N 620.802 -1.09834 -1.13024 0
M  V30 6489 C 621.765 -0.745058 -2.16752 0
M  V30 6490 C 622.765 0.227435 -1.59183 0
M  V30 6491 O 623.955 0.0050786 -1.74199 0
M  V30 6492 C 621.087 -0.102543 -3.40746 0
M  V30 6493 H 622.28 -1.66375 -2.49518 0
M  V30 6494 H 619.833 -0.898061 -1.27924 0
M  V30 6495 H 620.568 0.827177 -3.13573 0
M  V30 6496 H 620.353 -0.80235 -3.83803 0
M  V30 6497 H 621.843 0.129082 -4.174 0
M  V30 6498 N 622.28 1.30327 -0.886154 0
M  V30 6499 C 623.505 2.0079 -0.519425 0
M  V30 6500 C 623.93 1.65979 0.885013 0
M  V30 6501 O 623.288 0.877043 1.58675 0
M  V30 6502 C 623.336 3.53686 -0.702758 0
M  V30 6503 O 622.44 4.11637 0.250828 0
M  V30 6504 H 621.781 0.63171 -0.204544 0
M  V30 6505 H 624.311 1.66145 -1.19402 0
M  V30 6506 H 624.321 4.03531 -0.602207 0
M  V30 6507 H 622.996 3.78361 -1.72673 0
M  V30 6508 H 621.573 3.72755 0.103873 0
M  V30 6509 N 623.758 0.647228 1.43697 0
M  V30 6510 C 625.006 0.157876 2.01482 0
M  V30 6511 C 625.327 -1.23039 1.51282 0
M  V30 6512 O 624.597 -1.82071 0.722982 0
M  V30 6513 H 623.177 0.0553745 0.744945 0
M  V30 6514 H 625.839 0.83755 1.75986 0
M  V30 6515 H 624.935 0.137895 3.11795 0
M  V30 6516 N 625.236 -1.5273 0.388769 0
M  V30 6517 C 626.466 -2.05693 -0.193397 0
M  V30 6518 C 626.874 -1.26038 -1.41107 0
M  V30 6519 O 626.217 -0.30001 -1.81234 0
M  V30 6520 C 626.279 -3.53962 -0.628561 0
M  V30 6521 C 625.943 -4.54519 0.475576 0
M  V30 6522 C 626.94 -5.02526 1.33281 0
M  V30 6523 C 624.625 -4.98174 0.642453 0
M  V30 6524 C 626.619 -5.92812 2.34205 0
M  V30 6525 C 624.306 -5.88262 1.65503 0
M  V30 6526 C 625.304 -6.35473 2.50325 0
M  V30 6527 O 624.992 -7.23781 3.49852 0
M  V30 6528 H 624.724 -0.675197 -0.0329395 0
M  V30 6529 H 627.278 -1.97835 0.552326 0
M  V30 6530 H 625.508 -3.59437 -1.42625 0
M  V30 6531 H 627.197 -3.89669 -1.13633 0
M  V30 6532 H 627.963 -4.6953 1.21519 0
M  V30 6533 H 623.842 -4.60999 -0.00805093 0
M  V30 6534 H 627.386 -6.29585 3.00447 0
M  V30 6535 H 623.283 -6.20672 1.77304 0
M  V30 6536 H 624.051 -7.4184 3.45855 0
M  V30 6537 N 626.714 -0.118576 -1.57153 0
M  V30 6538 C 628.125 0.40687 -1.82213 0
M  V30 6539 C 628.476 1.66636 -1.03571 0
M  V30 6540 O 627.601 2.14682 -0.272171 0
M  V30 6541 C 628.196 0.744949 -3.30509 0
M  V30 6542 C 626.755 1.21503 -3.5625 0
M  V30 6543 C 625.902 0.223511 -2.76398 0
M  V30 6544 H 628.853 -0.343712 -1.54933 0
M  V30 6545 H 628.874 1.6024 -3.45114 0
M  V30 6546 H 628.386 -0.171911 -3.87719 0
M  V30 6547 H 626.487 2.1488 -3.04396 0
M  V30 6548 H 626.6 1.16065 -4.64829 0
M  V30 6549 H 624.964 0.71046 -2.44591 0
M  V30 6550 H 625.747 -0.686439 -3.36367 0
M  V30 6551 N 628.193 1.56834 0.155195 0
M  V30 6552 C 629.125 1.94235 1.21677 0
M  V30 6553 C 630.138 0.83724 1.39621 0
M  V30 6554 O 631.327 1.11567 1.39338 0
M  V30 6555 C 628.427 2.19402 2.58294 0
M  V30 6556 C 627.6 3.50671 2.61436 0
M  V30 6557 C 626.659 3.64475 3.79532 0
M  V30 6558 O 625.685 4.36945 3.64784 0
M  V30 6559 N 626.887 3.00526 4.96653 0
M  V30 6560 H 629.652 2.85901 0.898932 0
M  V30 6561 H 627.213 1.58185 0.34483 0
M  V30 6562 H 629.205 2.25886 3.35794 0
M  V30 6563 H 627.775 1.34042 2.82403 0
M  V30 6564 H 626.995 3.55702 1.69912 0
M  V30 6565 H 628.283 4.3702 2.60559 0
M  V30 6566 H 627.681 2.41549 5.11538 0
M  V30 6567 H 626.238 3.12583 5.71958 0
M  V30 6568 N 629.671 -0.424282 1.51781 0
M  V30 6569 C 631.082 -1.00368 1.57427 0
M  V30 6570 C 631.433 -1.91962 0.40558 0
M  V30 6571 O 630.558 -2.111 -0.47601 0
M  V30 6572 C 631.153 -1.82707 2.85313 0
M  V30 6573 C 629.712 -2.35675 2.93487 0
M  V30 6574 C 628.859 -1.1524 2.5222 0
M  V30 6575 H 631.81 -0.205064 1.5737 0
M  V30 6576 H 631.831 -2.68294 2.69812 0
M  V30 6577 H 631.343 -1.16017 3.70353 0
M  V30 6578 H 629.444 -3.05781 2.12906 0
M  V30 6579 H 629.557 -2.67578 3.97415 0
M  V30 6580 H 627.921 -1.50174 2.05718 0
M  V30 6581 H 628.704 -0.5014 3.39619 0
M  V30 6582 N 631.149 -1.42148 -0.680565 0
M  V30 6583 C 632.097 -1.45401 -1.81552 0
M  V30 6584 C 633.091 -0.33036 -1.66147 0
M  V30 6585 O 634.297 -0.503103 -1.72826 0
M  V30 6586 H 630.672 -0.455265 -0.59853 0
M  V30 6587 H 632.643 -2.41024 -1.75926 0
M  V30 6588 C 631.392 -1.36769 -3.19671 0
M  V30 6589 H 630.715 -2.22525 -3.32149 0
M  V30 6590 H 632.155 -1.43106 -3.9912 0
M  V30 6591 C 630.614 -0.0817752 -3.36801 0
M  V30 6592 O 631.144 0.867707 -3.92216 0
M  V30 6593 N 629.35 -0.000799811 -2.906 0
M  V30 6594 H 628.897 -0.774231 -2.4569 0
M  V30 6595 H 628.855 0.858961 -3.02439 0
M  V30 6596 N 632.627 0.916307 -1.28225 0
M  V30 6597 C 633.873 1.66765 -1.154 0
M  V30 6598 C 634.206 1.91912 0.297251 0
M  V30 6599 O 633.481 1.51766 1.21644 0
M  V30 6600 C 633.764 3.02715 -1.95028 0
M  V30 6601 C 633.617 2.84738 -3.48201 0
M  V30 6602 C 634.936 4.03215 -1.76369 0
M  V30 6603 H 632.055 0.605205 -0.42059 0
M  V30 6604 H 634.697 1.06255 -1.57512 0
M  V30 6605 H 632.847 3.54365 -1.59242 0
M  V30 6606 H 634.519 2.40118 -3.9388 0
M  V30 6607 H 632.762 2.19848 -3.73964 0
M  V30 6608 H 633.433 3.8127 -3.99171 0
M  V30 6609 H 635.909 3.60617 -2.07593 0
M  V30 6610 H 634.785 4.96306 -2.34459 0
M  V30 6611 H 635.046 4.36288 -0.71452 0
M  V30 6612 N 634.105 1.10431 1.1244 0
M  V30 6613 C 635.333 0.868872 1.87772 0
M  V30 6614 C 635.748 -0.580645 1.7965 0
M  V30 6615 O 635.105 -1.40031 1.17036 0
M  V30 6616 C 635.156 1.30855 3.36986 0
M  V30 6617 O 634.877 2.70123 3.44914 0
M  V30 6618 C 636.378 1.107 4.29256 0
M  V30 6619 H 633.598 0.311868 0.59412 0
M  V30 6620 H 636.142 1.46897 1.42273 0
M  V30 6621 H 634.297 0.752126 3.80029 0
M  V30 6622 H 634.711 2.88923 4.37748 0
M  V30 6623 H 636.185 1.46378 5.32238 0
M  V30 6624 H 636.662 0.0456228 4.39176 0
M  V30 6625 H 637.268 1.64988 3.91994 0
M  V30 6626 N 635.583 -1.29855 0.893053 0
M  V30 6627 C 636.829 -1.96488 0.52574 0
M  V30 6628 C 637.184 -1.69164 -0.916594 0
M  V30 6629 O 636.477 -0.990405 -1.64017 0
M  V30 6630 C 636.671 -3.49515 0.746588 0
M  V30 6631 C 636.5 -3.91715 2.20884 0
M  V30 6632 C 635.27 -4.16915 2.85499 0
M  V30 6633 C 637.468 -4.03934 3.18342 0
M  V30 6634 N 635.45 -4.45634 4.22236 0
M  V30 6635 C 636.821 -4.36629 4.40176 0
M  V30 6636 C 638.876 -3.86387 3.14021 0
M  V30 6637 C 637.579 -4.53605 5.58243 0
M  V30 6638 C 639.605 -4.04569 4.31367 0
M  V30 6639 C 638.967 -4.37617 5.5197 0
M  V30 6640 H 635.066 -0.743657 0.241863 0
M  V30 6641 H 637.65 -1.56927 1.15248 0
M  V30 6642 H 635.821 -3.88113 0.149281 0
M  V30 6643 H 637.553 -4.03224 0.345372 0
M  V30 6644 H 634.308 -4.10423 2.36326 0
M  V30 6645 H 634.732 -4.64114 4.92876 0
M  V30 6646 H 639.374 -3.59906 2.21873 0
M  V30 6647 H 637.092 -4.78925 6.50889 0
M  V30 6648 H 640.678 -3.92452 4.29503 0
M  V30 6649 H 639.558 -4.51395 6.41258 0
M  V30 6650 N 637.061 -0.65484 -1.43351 0
M  V30 6651 C 637.991 0.0221809 -2.33489 0
M  V30 6652 C 638.972 0.810272 -1.49561 0
M  V30 6653 O 640.157 0.771426 -1.78221 0
M  V30 6654 C 637.287 0.988117 -3.32947 0
M  V30 6655 C 636.241 0.310026 -4.26876 0
M  V30 6656 C 635.567 1.38752 -5.16384 0
M  V30 6657 C 636.867 -0.798589 -5.16159 0
M  V30 6658 H 638.561 -0.730571 -2.9035 0
M  V30 6659 H 636.107 -0.352773 -1.39612 0
M  V30 6660 H 638.06 1.47067 -3.94904 0
M  V30 6661 H 636.784 1.77205 -2.74346 0
M  V30 6662 H 635.443 -0.152097 -3.66284 0
M  V30 6663 H 635.091 2.16293 -4.54121 0
M  V30 6664 H 634.791 0.939051 -5.80048 0
M  V30 6665 H 636.315 1.87141 -5.81215 0
M  V30 6666 H 637.729 -0.398126 -5.71916 0
M  V30 6667 H 636.126 -1.17163 -5.88552 0
M  V30 6668 H 637.196 -1.65588 -4.55751 0
M  V30 6669 N 638.539 1.52521 -0.396863 0
M  V30 6670 C 639.471 2.24333 0.469814 0
M  V30 6671 C 640.484 1.2685 1.02043 0
M  V30 6672 O 641.673 1.52876 0.92147 0
M  V30 6673 C 638.773 2.95202 1.66461 0
M  V30 6674 C 637.946 4.19454 1.24003 0
M  V30 6675 C 637.005 4.73255 2.30036 0
M  V30 6676 O 636.031 5.36151 1.91131 0
M  V30 6677 N 637.233 4.53765 3.62047 0
M  V30 6678 H 639.998 2.99347 -0.145468 0
M  V30 6679 H 637.559 1.60348 -0.223606 0
M  V30 6680 H 639.551 3.28092 2.36934 0
M  V30 6681 H 638.121 2.2345 2.18607 0
M  V30 6682 H 637.341 3.92517 0.363892 0
M  V30 6683 H 638.629 5.0017 0.933135 0
M  V30 6684 H 638.027 4.03576 3.96412 0
M  V30 6685 H 636.584 4.91124 4.28533 0
M  V30 6686 N 640.017 0.126909 1.57088 0
M  V30 6687 C 641.257 -0.53216 1.97351 0
M  V30 6688 C 641.621 -1.63342 1.00913 0
M  V30 6689 O 642.822 -2.35194 1.30144 0
M  V30 6690 C 641.093 -1.04385 3.41817 0
M  V30 6691 S 642.652 -1.71033 4.04095 0
M  V30 6692 H 639.47 -0.172724 0.689701 0
M  V30 6693 H 642.072 0.213865 1.94327 0
M  V30 6694 H 640.776 -0.231289 4.09748 0
M  V30 6695 H 640.307 -1.82496 3.48509 0
M  V30 6696 H 642.322 -2.99656 3.95501 0
M  V30 6697 N 641.495 -1.56914 -0.146875 0
M  V30 6698 C 642.72 -1.87881 -0.878386 0
M  V30 6699 C 643.145 -0.715945 -1.73942 0
M  V30 6700 O 642.503 0.334447 -1.78189 0
M  V30 6701 C 642.551 -3.17431 -1.71084 0
M  V30 6702 O 641.655 -3.01374 -2.81509 0
M  V30 6703 H 640.996 -0.617289 -0.244644 0
M  V30 6704 H 643.526 -2.04136 -0.137654 0
M  V30 6705 H 643.536 -3.49455 -2.10582 0
M  V30 6706 H 642.211 -4.01671 -1.07856 0
M  V30 6707 H 640.788 -2.80758 -2.45416 0
M  V30 6708 N 642.974 0.416227 -1.52004 0
M  V30 6709 C 644.222 1.16153 -1.65387 0
M  V30 6710 C 644.543 1.91208 -0.382669 0
M  V30 6711 O 643.813 1.86413 0.602231 0
M  V30 6712 H 642.393 0.431765 -0.60958 0
M  V30 6713 H 645.055 0.475151 -1.89019 0
M  V30 6714 H 644.151 1.87952 -2.4916 0
M  V30 6715 N 644.452 1.42507 0.673017 0
M  V30 6716 C 645.402 1.4258 1.77919 0
M  V30 6717 C 646.386 0.296885 1.58137 0
M  V30 6718 O 647.578 0.539243 1.68586 0
M  V30 6719 C 644.707 1.33238 3.1639 0
M  V30 6720 C 643.793 2.51081 3.41788 0
M  V30 6721 N 644.184 3.76498 3.37761 0
M  V30 6722 C 642.482 2.4538 3.72431 0
M  V30 6723 C 643.183 4.54784 3.62693 0
M  V30 6724 N 642.159 3.8522 3.83544 0
M  V30 6725 H 645.961 2.37442 1.73201 0
M  V30 6726 H 643.475 1.36881 0.873924 0
M  V30 6727 H 645.472 1.31372 3.9566 0
M  V30 6728 H 644.132 0.393794 3.22303 0
M  V30 6729 H 645.143 4.09068 3.17622 0
M  V30 6730 H 641.82 1.60109 3.85579 0
M  V30 6731 H 643.21 5.63774 3.65525 0
M  V30 6732 N 645.93 -0.909495 1.28709 0
M  V30 6733 C 647.158 -1.69272 1.18973 0
M  V30 6734 C 647.573 -1.87123 -0.251048 0
M  V30 6735 O 646.93 -1.40127 -1.16922 0
M  V30 6736 C 646.981 -3.08257 1.88839 0
M  V30 6737 O 646.702 -2.91228 3.27289 0
M  V30 6738 C 648.203 -4.02642 1.85457 0
M  V30 6739 H 645.423 -0.528999 0.412797 0
M  V30 6740 H 647.967 -1.13803 1.69909 0
M  V30 6741 H 646.122 -3.6053 1.41762 0
M  V30 6742 H 646.536 -3.79223 3.6234 0
M  V30 6743 H 648.01 -4.97613 2.38925 0
M  V30 6744 H 648.487 -4.31327 0.827893 0
M  V30 6745 H 649.093 -3.56298 2.32233 0
M  V30 6746 N 647.408 -1.11026 -1.11852 0
M  V30 6747 C 648.685 -0.768347 -1.79877 0
M  V30 6748 C 649.065 0.744261 -1.97545 0
M  V30 6749 O 648.413 1.67271 -1.55669 0
M  V30 6750 C 648.623 -1.52648 -3.13846 0
M  V30 6751 C 649.971 -1.70297 -3.88953 0
M  V30 6752 O 650.995 -1.49037 -3.23522 0
M  V30 6753 O 649.854 -2.05593 -5.06353 0
M  V30 6754 H 646.948 -0.277891 -0.778913 0
M  V30 6755 H 649.494 -1.21343 -1.18633 0
M  V30 6756 H 648.266 -2.55564 -2.96315 0
M  V30 6757 H 647.889 -1.07466 -3.82801 0
M  V30 6758 N 648.886 1.2938 -0.899927 0
M  V30 6759 C 650.302 1.48052 -0.596059 0
M  V30 6760 C 650.502 1.82114 0.862372 0
M  V30 6761 O 649.558 1.91774 1.64253 0
M  V30 6762 C 650.871 2.59332 -1.52208 0
M  V30 6763 C 652.419 2.73208 -1.5273 0
M  V30 6764 C 652.894 3.87617 -2.43961 0
M  V30 6765 N 654.385 3.9495 -2.42009 0
M  V30 6766 C 655.12 4.82824 -3.09303 0
M  V30 6767 N 654.616 5.75387 -3.85877 0
M  V30 6768 N 656.409 4.76317 -2.98459 0
M  V30 6769 H 648.56 1.05546 -1.8432 0
M  V30 6770 H 650.823 0.524314 -0.78981 0
M  V30 6771 H 650.529 2.41029 -2.56121 0
M  V30 6772 H 650.403 3.56139 -1.24278 0
M  V30 6773 H 652.79 2.90908 -0.495614 0
M  V30 6774 H 652.871 1.76975 -1.84698 0
M  V30 6775 H 652.515 3.70672 -3.47224 0
M  V30 6776 H 652.445 4.83218 -2.09303 0
M  V30 6777 H 654.936 3.28744 -1.86375 0
M  V30 6778 H 655.249 6.39235 -4.34279 0
M  V30 6779 H 653.594 5.75272 -3.89984 0
M  V30 6780 H 656.785 4.0299 -2.38152 0
M  V30 6781 H 656.958 5.44589 -3.51179 0
M  V30 6782 N 650.364 0.662433 1.43002 0
M  V30 6783 C 651.604 0.183312 2.03576 0
M  V30 6784 C 651.968 -1.18354 1.51183 0
M  V30 6785 O 653.169 -1.7566 2.03462 0
M  V30 6786 C 651.44 0.202908 3.56824 0
M  V30 6787 S 652.999 -0.20702 4.38311 0
M  V30 6788 H 649.817 0.0765001 0.706872 0
M  V30 6789 H 652.419 0.872827 1.74934 0
M  V30 6790 H 651.123 1.20028 3.92456 0
M  V30 6791 H 650.654 -0.506845 3.90121 0
M  V30 6792 H 652.669 -1.44358 4.74737 0
M  V30 6793 N 651.842 -1.52309 0.404946 0
M  V30 6794 C 653.119 -1.94237 -0.230544 0
M  V30 6795 C 653.499 -1.34154 -1.6299 0
M  V30 6796 O 652.847 -0.515713 -2.22604 0
M  V30 6797 C 653.057 -3.48166 -0.241106 0
M  V30 6798 C 654.405 -4.22074 -0.462488 0
M  V30 6799 O 655.429 -3.54754 -0.320644 0
M  V30 6800 O 654.288 -5.41443 -0.741708 0
M  V30 6801 H 651.382 -0.813766 -0.147358 0
M  V30 6802 H 653.928 -1.6333 0.460587 0
M  V30 6803 H 652.7 -3.84269 0.738467 0
M  V30 6804 H 652.323 -3.85422 -0.97651 0
M  V30 6805 N 653.32 -0.135238 -1.57019 0
M  V30 6806 C 654.23 0.822226 -2.19719 0
M  V30 6807 C 655.246 1.28057 -1.17802 0
M  V30 6808 O 656.422 1.3402 -1.50335 0
M  V30 6809 C 653.487 2.0484 -2.79717 0
M  V30 6810 C 652.548 1.64042 -3.96723 0
M  V30 6811 C 651.781 2.80814 -4.53849 0
M  V30 6812 O 652.004 3.967 -4.0986 0
M  V30 6813 O 650.938 2.56963 -5.44292 0
M  V30 6814 H 654.764 0.318552 -3.02025 0
M  V30 6815 H 652.349 0.0912021 -1.49121 0
M  V30 6816 H 654.231 2.76622 -3.17897 0
M  V30 6817 H 652.906 2.54182 -2.00432 0
M  V30 6818 H 651.813 0.893182 -3.63281 0
M  V30 6819 H 653.146 1.19426 -4.77492 0
M  V30 6820 N 654.798 1.5699 0.138552 0
M  V30 6821 C 655.761 1.97984 1.15478 0
M  V30 6822 C 656.761 0.867416 1.35398 0
M  V30 6823 O 657.951 1.13387 1.32246 0
M  V30 6824 C 655.083 2.3031 2.51337 0
M  V30 6825 H 656.276 2.88953 0.802896 0
M  V30 6826 H 653.829 1.51555 0.382189 0
M  V30 6827 H 654.564 1.42159 2.91481 0
M  V30 6828 H 654.349 3.11425 2.38237 0
M  V30 6829 H 655.839 2.62834 3.24512 0
M  V30 6830 N 656.276 -0.40816 1.52223 0
M  V30 6831 C 657.208 -1.51642 1.71864 0
M  V30 6832 C 658.221 -1.51378 0.599056 0
M  V30 6833 O 659.41 -1.55626 0.874239 0
M  V30 6834 C 656.51 -2.90534 1.74481 0
M  V30 6835 C 655.683 -3.14979 3.03491 0
M  V30 6836 C 654.742 -4.33749 2.97907 0
M  V30 6837 O 653.768 -4.30982 3.71811 0
M  V30 6838 N 654.97 -5.38912 2.15764 0
M  V30 6839 H 657.735 -1.35188 2.67478 0
M  V30 6840 H 655.296 -0.597468 1.50472 0
M  V30 6841 H 657.288 -3.68056 1.68275 0
M  V30 6842 H 655.858 -3.00441 0.863363 0
M  V30 6843 H 655.078 -2.25492 3.23337 0
M  V30 6844 H 656.366 -3.28156 3.88833 0
M  V30 6845 H 655.764 -5.44008 1.55152 0
M  V30 6846 H 654.321 -6.15174 2.15415 0
M  V30 6847 N 657.755 -1.42862 -0.66545 0
M  V30 6848 C 659.001 -1.44043 -1.42757 0
M  V30 6849 C 659.334 -0.0599629 -1.94107 0
M  V30 6850 O 658.609 0.917286 -1.71511 0
M  V30 6851 C 658.892 -2.47266 -2.61786 0
M  V30 6852 C 658.745 -3.94539 -2.16007 0
M  V30 6853 C 660.064 -2.47365 -3.64003 0
M  V30 6854 H 657.183 -0.524506 -0.517748 0
M  V30 6855 H 659.825 -1.74335 -0.755466 0
M  V30 6856 H 657.975 -2.21565 -3.19126 0
M  V30 6857 H 659.647 -4.31254 -1.63762 0
M  V30 6858 H 657.89 -4.07957 -1.47491 0
M  V30 6859 H 658.561 -4.62357 -3.01546 0
M  V30 6860 H 661.037 -2.70243 -3.16399 0
M  V30 6861 H 659.913 -3.21552 -4.44854 0
M  V30 6862 H 660.174 -1.50299 -4.15767 0
M  V30 6863 N 659.233 0.902656 -1.29189 0
M  V30 6864 C 660.163 2.02294 -1.16616 0
M  V30 6865 C 661.144 1.6999 -0.0611175 0
M  V30 6866 O 662.329 1.9271 -0.240072 0
M  V30 6867 C 659.459 3.37018 -0.83882 0
M  V30 6868 C 658.413 3.83522 -1.89986 0
M  V30 6869 C 657.739 5.15337 -1.42589 0
M  V30 6870 C 659.039 4.04169 -3.30824 0
M  V30 6871 H 660.733 2.13071 -2.10336 0
M  V30 6872 H 658.279 1.02378 -1.01266 0
M  V30 6873 H 660.232 4.14895 -0.737584 0
M  V30 6874 H 658.956 3.26325 0.134071 0
M  V30 6875 H 657.615 3.07859 -1.99043 0
M  V30 6876 H 657.263 5.01056 -0.441759 0
M  V30 6877 H 656.963 5.47423 -2.13547 0
M  V30 6878 H 658.487 5.95758 -1.3381 0
M  V30 6879 H 659.901 4.72537 -3.24626 0
M  V30 6880 H 658.298 4.47604 -3.99713 0
M  V30 6881 H 659.368 3.08604 -3.74021 0
M  V30 6882 N 660.711 1.11618 1.11262 0
M  V30 6883 C 661.643 0.734015 2.17129 0
M  V30 6884 C 662.656 -0.235243 1.61091 0
M  V30 6885 O 663.845 -0.0178597 1.78491 0
M  V30 6886 C 660.945 0.0643682 3.38839 0
M  V30 6887 C 660.118 1.06092 4.24339 0
M  V30 6888 C 659.177 0.420482 5.24517 0
M  V30 6889 O 658.203 1.07495 5.58957 0
M  V30 6890 N 659.405 -0.815828 5.74739 0
M  V30 6891 H 662.17 1.64492 2.50524 0
M  V30 6892 H 659.731 1.00664 1.26801 0
M  V30 6893 H 661.723 -0.375851 4.02951 0
M  V30 6894 H 660.293 -0.749147 3.03491 0
M  V30 6895 H 659.513 1.67903 3.56654 0
M  V30 6896 H 660.801 1.73507 4.78302 0
M  V30 6897 H 660.199 -1.36668 5.48943 0
M  V30 6898 H 658.756 -1.199 6.40677 0
M  V30 6899 N 662.189 -1.289 0.906776 0
M  V30 6900 C 663.435 -1.95558 0.53712 0
M  V30 6901 C 663.768 -1.71262 -0.915582 0
M  V30 6902 O 663.043 -1.02961 -1.65013 0
M  V30 6903 C 663.326 -3.50198 0.838645 0
M  V30 6904 C 663.179 -3.83923 2.34357 0
M  V30 6905 C 664.498 -4.38861 0.329988 0
M  V30 6906 H 661.617 -0.710289 0.196617 0
M  V30 6907 H 664.259 -1.52392 1.13475 0
M  V30 6908 H 662.409 -3.87096 0.330024 0
M  V30 6909 H 664.081 -3.56933 2.92227 0
M  V30 6910 H 662.324 -3.31215 2.80141 0
M  V30 6911 H 662.995 -4.91883 2.5051 0
M  V30 6912 H 665.471 -4.08996 0.765609 0
M  V30 6913 H 664.347 -5.45931 0.570105 0
M  V30 6914 H 664.608 -4.35352 -0.769511 0
M  V30 6915 N 663.667 -0.670007 -1.42649 0
M  V30 6916 C 664.913 -0.19923 -2.02422 0
M  V30 6917 C 665.268 1.17947 -1.52007 0
M  V30 6918 O 664.561 1.77939 -0.710512 0
M  V30 6919 C 664.755 -0.168298 -3.57004 0
M  V30 6920 C 664.584 -1.54246 -4.22419 0
M  V30 6921 C 663.354 -2.13904 -4.57792 0
M  V30 6922 C 665.552 -2.4842 -4.50324 0
M  V30 6923 N 663.534 -3.44151 -5.08364 0
M  V30 6924 C 664.905 -3.63317 -5.02395 0
M  V30 6925 C 666.96 -2.47011 -4.32308 0
M  V30 6926 C 665.663 -4.77051 -5.38345 0
M  V30 6927 C 667.689 -3.59838 -4.6933 0
M  V30 6928 C 667.051 -4.73462 -5.21549 0
M  V30 6929 H 663.15 -0.117717 -0.773089 0
M  V30 6930 H 665.734 -0.881955 -1.73579 0
M  V30 6931 H 663.905 0.483824 -3.85375 0
M  V30 6932 H 665.637 0.314914 -4.03473 0
M  V30 6933 H 662.392 -1.66441 -4.4339 0
M  V30 6934 H 662.816 -4.10846 -5.38084 0
M  V30 6935 H 667.458 -1.60394 -3.91195 0
M  V30 6936 H 665.176 -5.64347 -5.78393 0
M  V30 6937 H 668.762 -3.59969 -4.57071 0
M  V30 6938 H 667.642 -5.59321 -5.49663 0
M  V30 6939 N 665.145 1.52092 -0.413018 0
M  V30 6940 C 666.422 1.94356 0.22024 0
M  V30 6941 C 666.802 1.35017 1.62277 0
M  V30 6942 O 666.15 0.527511 2.22328 0
M  V30 6943 C 666.36 3.48289 0.222638 0
M  V30 6944 C 667.708 4.22313 0.440098 0
M  V30 6945 O 668.732 3.54919 0.301826 0
M  V30 6946 O 667.591 5.41829 0.712984 0
M  V30 6947 H 664.685 0.814536 0.14304 0
M  V30 6948 H 667.231 1.63083 -0.469242 0
M  V30 6949 H 666.003 3.83872 -0.758836 0
M  V30 6950 H 665.626 3.85934 0.956057 0
M  V30 6951 N 666.623 0.143563 1.56945 0
M  V30 6952 C 667.9 -0.553285 1.87612 0
M  V30 6953 C 668.28 -1.83195 1.04894 0
M  V30 6954 O 667.628 -2.28102 0.134773 0
M  V30 6955 C 667.838 -0.822055 3.3918 0
M  V30 6956 C 669.186 -1.16435 4.08324 0
M  V30 6957 O 670.21 -0.911522 3.4434 0
M  V30 6958 O 669.069 -1.63996 5.21313 0
M  V30 6959 H 666.163 -0.281851 0.777489 0
M  V30 6960 H 668.709 0.179916 1.68744 0
M  V30 6961 H 667.481 0.0830265 3.91212 0
M  V30 6962 H 667.104 -1.60956 3.63564 0
M  V30 6963 N 668.101 -1.57061 -0.130224 0
M  V30 6964 C 669.512 -1.73539 -0.68856 0
M  V30 6965 C 669.863 -0.760554 -1.80859 0
M  V30 6966 O 668.988 0.0690796 -2.1629 0
M  V30 6967 C 669.583 -3.14666 -1.25581 0
M  V30 6968 C 668.142 -3.32689 -1.76055 0
M  V30 6969 C 667.289 -2.69436 -0.655712 0
M  V30 6970 H 670.24 -1.58412 0.0956002 0
M  V30 6971 H 670.261 -3.15595 -2.12556 0
M  V30 6972 H 669.773 -3.85593 -0.440412 0
M  V30 6973 H 667.874 -2.66786 -2.60108 0
M  V30 6974 H 667.987 -4.4077 -1.87772 0
M  V30 6975 H 666.351 -2.30362 -1.08654 0
M  V30 6976 H 667.134 -3.42979 0.14852 0
M  V30 6977 N 669.579 0.400081 -1.52437 0
M  V30 6978 C 670.809 1.16598 -1.70553 0
M  V30 6979 C 671.217 1.8451 -0.418665 0
M  V30 6980 O 670.56 1.73069 0.615855 0
M  V30 6981 C 670.622 2.26517 -2.7916 0
M  V30 6982 C 670.286 1.78666 -4.20628 0
M  V30 6983 C 671.283 1.26946 -5.04163 0
M  V30 6984 C 668.968 1.85225 -4.66902 0
M  V30 6985 C 670.962 0.824187 -6.32049 0
M  V30 6986 C 668.649 1.40309 -5.94774 0
M  V30 6987 C 669.647 0.889922 -6.77178 0
M  V30 6988 O 669.335 0.447281 -8.02655 0
M  V30 6989 H 669.067 0.356023 -0.574651 0
M  V30 6990 H 671.621 0.475598 -1.99818 0
M  V30 6991 H 669.851 2.98946 -2.45292 0
M  V30 6992 H 671.54 2.88237 -2.85787 0
M  V30 6993 H 672.306 1.21244 -4.69601 0
M  V30 6994 H 668.185 2.24111 -4.02859 0
M  V30 6995 H 671.729 0.422958 -6.96317 0
M  V30 6996 H 667.626 1.45693 -6.28843 0
M  V30 6997 H 668.394 0.569768 -8.16514 0
M  V30 6998 N 671.057 1.43213 0.657864 0
M  V30 6999 C 672.468 1.39669 1.23893 0
M  V30 7000 C 672.819 0.0984217 1.95953 0
M  V30 7001 O 671.944 -0.8023 2.00978 0
M  V30 7002 C 672.539 2.53004 2.25332 0
M  V30 7003 C 671.098 2.5274 2.78926 0
M  V30 7004 C 670.245 2.30941 1.53497 0
M  V30 7005 H 673.196 1.52181 0.450172 0
M  V30 7006 H 673.217 2.24226 3.07413 0
M  V30 7007 H 672.729 3.4748 1.72856 0
M  V30 7008 H 670.83 1.6213 3.35477 0
M  V30 7009 H 670.943 3.50352 3.26787 0
M  V30 7010 H 669.307 1.7952 1.80678 0
M  V30 7011 H 670.09 3.27496 1.02963 0
M  V30 7012 N 672.536 -0.895792 1.29666 0
M  V30 7013 C 673.446 -2.03329 1.17024 0
M  V30 7014 C 674.462 -1.73753 0.0925962 0
M  V30 7015 O 675.638 -1.99071 0.305431 0
M  V30 7016 C 672.703 -3.36072 0.851841 0
M  V30 7017 C 671.764 -3.7914 2.01373 0
M  V30 7018 C 670.997 -5.05549 1.71043 0
M  V30 7019 O 671.22 -5.66874 0.633213 0
M  V30 7020 O 670.154 -5.44764 2.5596 0
M  V30 7021 H 673.98 -2.16918 2.12556 0
M  V30 7022 H 671.565 -1.02007 1.09156 0
M  V30 7023 H 673.447 -4.15729 0.689006 0
M  V30 7024 H 672.122 -3.23616 -0.0736634 0
M  V30 7025 H 671.029 -3.00233 2.23183 0
M  V30 7026 H 672.362 -3.96186 2.92058 0
M  V30 7027 N 674.014 -1.12206 -1.10668 0
M  V30 7028 C 675.26 -0.877172 -1.82848 0
M  V30 7029 C 675.593 0.595571 -1.84842 0
M  V30 7030 O 674.868 1.44013 -1.30731 0
M  V30 7031 C 675.151 -1.44957 -3.29635 0
M  V30 7032 C 675.004 -2.99051 -3.35989 0
M  V30 7033 C 676.323 -1.10714 -4.25946 0
M  V30 7034 H 673.442 -0.320103 -0.663854 0
M  V30 7035 H 676.084 -1.38827 -1.2972 0
M  V30 7036 H 674.234 -1.01488 -3.7501 0
M  V30 7037 H 675.906 -3.51182 -2.99113 0
M  V30 7038 H 674.149 -3.34705 -2.75962 0
M  V30 7039 H 674.82 -3.34194 -4.39339 0
M  V30 7040 H 677.296 -1.48254 -3.88793 0
M  V30 7041 H 676.172 -1.5343 -5.2702 0
M  V30 7042 H 676.433 -0.019 -4.42096 0
M  V30 7043 N 675.492 1.28418 -0.913599 0
M  V30 7044 C 676.422 2.29713 -0.418847 0
M  V30 7045 C 677.403 1.62165 0.513469 0
M  V30 7046 O 678.588 1.89576 0.421235 0
M  V30 7047 C 675.718 3.45612 0.342042 0
M  V30 7048 C 674.672 4.25056 -0.501123 0
M  V30 7049 C 673.998 5.3329 0.388097 0
M  V30 7050 C 675.298 4.91814 -1.75831 0
M  V30 7051 H 676.992 2.71346 -1.26538 0
M  V30 7052 H 674.538 1.30446 -0.609903 0
M  V30 7053 H 676.491 4.15562 0.699 0
M  V30 7054 H 675.215 3.02858 1.22248 0
M  V30 7055 H 673.874 3.56833 -0.840598 0
M  V30 7056 H 673.522 4.8678 1.26707 0
M  V30 7057 H 673.222 5.87347 -0.172459 0
M  V30 7058 H 674.746 6.06088 0.74094 0
M  V30 7059 H 676.16 5.54126 -1.47026 0
M  V30 7060 H 674.557 5.55866 -2.26126 0
M  V30 7061 H 675.627 4.16313 -2.4862 0
M  V30 7062 N 676.97 0.677563 1.42291 0
M  V30 7063 C 678.195 0.207901 2.06355 0
M  V30 7064 C 678.62 -1.12723 1.50583 0
M  V30 7065 O 677.978 -1.70171 0.62543 0
M  V30 7066 C 678.026 0.156489 3.6026 0
M  V30 7067 O 677.13 -0.874162 4.03029 0
M  V30 7068 H 676.471 0.106056 0.655475 0
M  V30 7069 H 679.001 0.927354 1.82377 0
M  V30 7070 H 679.011 -0.0187258 4.07996 0
M  V30 7071 H 677.686 1.13101 4.00226 0
M  V30 7072 H 676.263 -0.669764 3.66836 0
M  V30 7073 N 678.448 -1.51871 0.421078 0
M  V30 7074 C 679.38 -2.25052 -0.434065 0
M  V30 7075 C 680.393 -1.28458 -1.00013 0
M  V30 7076 O 681.582 -1.54323 -0.897033 0
M  V30 7077 C 678.682 -2.97813 -1.61743 0
M  V30 7078 C 677.855 -4.21374 -1.17315 0
M  V30 7079 C 676.914 -4.76854 -2.22478 0
M  V30 7080 O 675.94 -5.39123 -1.82577 0
M  V30 7081 N 677.142 -4.59467 -3.54782 0
M  V30 7082 H 679.907 -2.99077 0.193073 0
M  V30 7083 H 677.468 -1.59972 0.249088 0
M  V30 7084 H 679.46 -3.3182 -2.31685 0
M  V30 7085 H 678.03 -2.26899 -2.15024 0
M  V30 7086 H 677.25 -3.93046 -0.3014 0
M  V30 7087 H 678.538 -5.01591 -0.853444 0
M  V30 7088 H 677.936 -4.09832 -3.89941 0
M  V30 7089 H 676.493 -4.9788 -4.20665 0
M  V30 7090 N 679.926 -0.151884 -1.56866 0
M  V30 7091 C 680.836 0.798876 -2.20579 0
M  V30 7092 C 681.852 1.268 -1.19154 0
M  V30 7093 O 683.028 1.32418 -1.51748 0
M  V30 7094 C 680.093 2.01861 -2.81874 0
M  V30 7095 C 679.154 1.59825 -3.9844 0
M  V30 7096 C 678.387 2.75984 -4.56802 0
M  V30 7097 O 678.61 3.92331 -4.14044 0
M  V30 7098 O 677.544 2.51175 -5.46987 0
M  V30 7099 H 681.37 0.2865 -3.02346 0
M  V30 7100 H 678.955 0.0753806 -1.4921 0
M  V30 7101 H 680.837 2.73235 -3.20813 0
M  V30 7102 H 679.512 2.52042 -2.03117 0
M  V30 7103 H 678.419 0.854601 -3.64208 0
M  V30 7104 H 679.752 1.14355 -4.78731 0
M  V30 7105 N 681.404 1.57128 0.121893 0
M  V30 7106 C 682.815 1.73902 0.679348 0
M  V30 7107 C 683.166 0.770135 1.80453 0
M  V30 7108 O 682.291 -0.0576083 2.16323 0
M  V30 7109 C 682.886 3.15328 1.2391 0
M  V30 7110 C 681.445 3.33618 1.74288 0
M  V30 7111 C 680.592 2.6978 0.641414 0
M  V30 7112 H 683.543 1.58359 -0.104 0
M  V30 7113 H 683.564 3.16718 2.10879 0
M  V30 7114 H 683.076 3.85821 0.419957 0
M  V30 7115 H 681.177 2.68162 2.58689 0
M  V30 7116 H 681.29 4.4176 1.85432 0
M  V30 7117 H 679.654 2.30935 1.0743 0
M  V30 7118 H 680.437 3.42895 -0.166707 0
M  V30 7119 N 682.882 -0.391992 1.52647 0
M  V30 7120 C 684.129 -1.13732 1.67545 0
M  V30 7121 C 684.457 -1.90045 0.413881 0
M  V30 7122 O 683.712 -1.86157 -0.603646 0
M  V30 7123 C 684.011 -2.14401 2.85949 0
M  V30 7124 C 683.677 -1.54767 4.23507 0
M  V30 7125 C 682.339 -1.38229 4.60919 0
M  V30 7126 C 684.691 -1.11382 5.0916 0
M  V30 7127 C 682.019 -0.7685 5.81645 0
M  V30 7128 C 684.371 -0.514143 6.30507 0
M  V30 7129 C 683.035 -0.33604 6.66654 0
M  V30 7130 H 682.305 -0.416174 0.613091 0
M  V30 7131 H 684.952 -0.422327 1.86785 0
M  V30 7132 H 683.257 -2.92108 2.61114 0
M  V30 7133 H 684.954 -2.71974 2.94671 0
M  V30 7134 H 681.544 -1.68626 3.94035 0
M  V30 7135 H 685.728 -1.22962 4.80826 0
M  V30 7136 H 680.984 -0.618681 6.08262 0
M  V30 7137 H 685.158 -0.169657 6.96193 0
M  V30 7138 H 682.785 0.14166 7.60068 0
M  V30 7139 N 684.36 -1.4356 -0.65026 0
M  V30 7140 C 685.31 -1.45392 -1.75628 0
M  V30 7141 C 686.294 -0.322006 -1.57645 0
M  V30 7142 O 687.486 -0.565996 -1.67707 0
M  V30 7143 C 684.615 -1.38254 -3.1423 0
M  V30 7144 C 683.701 -2.56487 -3.3775 0
M  V30 7145 N 684.092 -3.81824 -3.31729 0
M  V30 7146 C 682.39 -2.51274 -3.6848 0
M  V30 7147 C 683.091 -4.60497 -3.55412 0
M  V30 7148 N 682.067 -3.91274 -3.77367 0
M  V30 7149 H 685.869 -2.40167 -1.69402 0
M  V30 7150 H 683.383 -1.38254 -0.852037 0
M  V30 7151 H 685.38 -1.3765 -3.9352 0
M  V30 7152 H 684.04 -0.445019 -3.21636 0
M  V30 7153 H 685.051 -4.14069 -3.11074 0
M  V30 7154 H 681.728 -1.66223 -3.82983 0
M  V30 7155 H 683.118 -5.69518 -3.5651 0
M  V30 7156 N 685.838 0.888903 -1.30139 0
M  V30 7157 C 686.785 1.99422 -1.16188 0
M  V30 7158 C 687.755 1.66017 -0.0523869 0
M  V30 7159 O 688.94 1.89506 -0.221864 0
M  V30 7160 C 686.08 3.34325 -0.855612 0
M  V30 7161 C 685.193 3.80445 -2.0466 0
M  V30 7162 C 684.328 5.03975 -1.67876 0
M  V30 7163 C 683.367 5.42492 -2.83493 0
M  V30 7164 N 682.504 6.57206 -2.47032 0
M  V30 7165 H 687.344 2.10687 -2.10749 0
M  V30 7166 H 684.881 1.03165 -1.04859 0
M  V30 7167 H 686.839 4.11968 -0.658681 0
M  V30 7168 H 685.469 3.22756 0.0531155 0
M  V30 7169 H 684.521 2.98745 -2.3549 0
M  V30 7170 H 685.833 4.04933 -2.91257 0
M  V30 7171 H 684.987 5.89232 -1.44535 0
M  V30 7172 H 683.726 4.8135 -0.784431 0
M  V30 7173 H 682.731 4.55764 -3.07505 0
M  V30 7174 H 683.956 5.67093 -3.73607 0
M  V30 7175 H 681.902 6.36164 -1.601 0
M  V30 7176 H 681.819 6.81543 -3.27161 0
M  V30 7177 H 683.087 7.45704 -2.27038 0
M  V30 7178 N 687.317 1.12792 1.10072 0
M  V30 7179 C 688.563 0.886857 1.82381 0
M  V30 7180 C 688.896 -0.58576 1.85155 0
M  V30 7181 O 688.171 -1.43317 1.31493 0
M  V30 7182 C 688.454 1.46703 3.28862 0
M  V30 7183 C 688.307 3.00829 3.34398 0
M  V30 7184 C 689.626 1.12971 4.25353 0
M  V30 7185 H 686.745 0.32362 0.662148 0
M  V30 7186 H 689.387 1.39513 1.28982 0
M  V30 7187 H 687.537 1.03476 3.74466 0
M  V30 7188 H 689.209 3.52764 2.97247 0
M  V30 7189 H 687.452 3.36164 2.74183 0
M  V30 7190 H 688.123 3.36519 4.3756 0
M  V30 7191 H 690.599 1.50313 3.88001 0
M  V30 7192 H 689.475 1.56223 5.26199 0
M  V30 7193 H 689.736 0.0424452 4.4208 0
M  V30 7194 N 688.795 -1.27931 0.920396 0
M  V30 7195 C 690.023 -1.98805 0.573087 0
M  V30 7196 C 690.438 -1.68724 -0.847201 0
M  V30 7197 O 689.795 -0.943699 -1.56207 0
M  V30 7198 C 689.846 -3.52971 0.780633 0
M  V30 7199 O 689.567 -3.81994 2.14504 0
M  V30 7200 C 691.068 -4.411 0.44105 0
M  V30 7201 H 688.288 -0.634651 0.21785 0
M  V30 7202 H 690.832 -1.62965 1.23542 0
M  V30 7203 H 688.987 -3.87048 0.165204 0
M  V30 7204 H 689.401 -4.76609 2.18962 0
M  V30 7205 H 690.875 -5.48312 0.637006 0
M  V30 7206 H 691.352 -4.34758 -0.62306 0
M  V30 7207 H 691.958 -4.12532 1.0343 0
M  V30 7208 N 690.273 -0.685099 -1.4193 0
M  V30 7209 C 691.519 -0.211971 -2.01689 0
M  V30 7210 C 691.852 1.18189 -1.54094 0
M  V30 7211 O 691.127 1.79559 -0.747572 0
M  V30 7212 C 691.41 -0.258019 -3.59174 0
M  V30 7213 C 691.263 -1.68807 -4.16922 0
M  V30 7214 C 692.582 0.388044 -4.38386 0
M  V30 7215 H 689.701 -0.0784987 -0.732808 0
M  V30 7216 H 692.343 -0.871837 -1.68816 0
M  V30 7217 H 690.493 0.303832 -3.8731 0
M  V30 7218 H 692.165 -2.30296 -3.99702 0
M  V30 7219 H 690.408 -2.22553 -3.72361 0
M  V30 7220 H 691.079 -1.6719 -5.26072 0
M  V30 7221 H 693.555 -0.0903432 -4.16002 0
M  V30 7222 H 692.431 0.325232 -5.47936 0
M  V30 7223 H 692.692 1.4672 -4.17044 0
M  V30 7224 N 691.751 1.51645 -0.429126 0
M  V30 7225 C 692.683 2.25279 0.422124 0
M  V30 7226 C 693.696 1.28986 0.993299 0
M  V30 7227 O 694.885 1.54797 0.888836 0
M  V30 7228 C 691.985 2.98666 1.60162 0
M  V30 7229 C 691.158 4.2199 1.15078 0
M  V30 7230 C 690.217 4.78028 2.19946 0
M  V30 7231 O 689.243 5.40084 1.79716 0
M  V30 7232 N 690.445 4.61342 3.5234 0
M  V30 7233 H 693.21 2.98971 -0.208931 0
M  V30 7234 H 690.771 1.59838 -0.257568 0
M  V30 7235 H 692.763 3.33044 2.29922 0
M  V30 7236 H 691.333 2.28036 2.13818 0
M  V30 7237 H 690.553 3.932 0.280552 0
M  V30 7238 H 691.841 5.02037 0.826831 0
M  V30 7239 H 691.239 4.11894 3.87763 0
M  V30 7240 H 689.796 5.00104 4.18019 0
M  V30 7241 N 693.229 0.160201 1.56784 0
M  V30 7242 C 694.454 -0.497373 2.01348 0
M  V30 7243 C 694.879 -1.56757 1.03966 0
M  V30 7244 O 694.237 -1.81292 0.0174455 0
M  V30 7245 C 694.285 -1.0628 3.44582 0
M  V30 7246 O 693.389 -2.17723 3.50244 0
M  V30 7247 H 692.73 -0.120295 0.653012 0
M  V30 7248 H 695.26 0.260821 2.02931 0
M  V30 7249 H 695.27 -1.38819 3.83658 0
M  V30 7250 H 693.945 -0.279166 4.14962 0
M  V30 7251 H 692.522 -1.86313 3.2302 0
M  V30 7252 N 694.707 -1.5719 -0.113559 0
M  V30 7253 C 695.637 -2.03772 -1.14013 0
M  V30 7254 C 696.618 -0.923176 -1.42869 0
M  V30 7255 O 697.803 -1.19325 -1.53216 0
M  V30 7256 C 694.933 -2.44663 -2.4649 0
M  V30 7257 C 693.887 -3.59612 -2.32085 0
M  V30 7258 C 693.213 -3.8642 -3.69573 0
M  V30 7259 C 694.513 -4.91149 -1.7768 0
M  V30 7260 H 696.207 -2.89785 -0.752665 0
M  V30 7261 H 693.753 -1.39412 -0.360609 0
M  V30 7262 H 695.706 -2.75857 -3.18561 0
M  V30 7263 H 694.43 -1.55628 -2.87137 0
M  V30 7264 H 693.089 -3.28636 -1.62461 0
M  V30 7265 H 692.737 -2.94581 -4.07715 0
M  V30 7266 H 692.437 -4.63797 -3.60786 0
M  V30 7267 H 693.961 -4.2007 -4.4314 0
M  V30 7268 H 695.375 -5.20843 -2.39574 0
M  V30 7269 H 693.772 -5.72562 -1.79701 0
M  V30 7270 H 694.842 -4.79301 -0.734776 0
M  V30 7271 N 696.185 0.383891 -1.52853 0
M  V30 7272 C 697.115 1.47559 -1.80965 0
M  V30 7273 C 698.096 1.5669 -0.661986 0
M  V30 7274 O 699.281 1.71556 -0.910072 0
M  V30 7275 C 696.411 2.85114 -1.98312 0
M  V30 7276 C 695.365 2.9082 -3.14019 0
M  V30 7277 C 694.691 4.30873 -3.16627 0
M  V30 7278 C 695.991 2.60001 -4.52986 0
M  V30 7279 H 697.685 1.24283 -2.72386 0
M  V30 7280 H 695.231 0.596445 -1.31067 0
M  V30 7281 H 697.184 3.61496 -2.16561 0
M  V30 7282 H 695.908 3.09738 -1.03585 0
M  V30 7283 H 694.567 2.16886 -2.9556 0
M  V30 7284 H 694.215 4.52545 -2.19573 0
M  V30 7285 H 693.915 4.3561 -3.94357 0
M  V30 7286 H 695.439 5.09154 -3.37038 0
M  V30 7287 H 696.853 3.261 -4.71521 0
M  V30 7288 H 695.25 2.76081 -5.32822 0
M  V30 7289 H 696.32 1.5532 -4.59351 0
M  V30 7290 N 697.663 1.43903 0.642637 0
M  V30 7291 C 698.891 1.4954 1.42988 0
M  V30 7292 C 699.306 0.116588 1.8844 0
M  V30 7293 O 698.663 -0.875285 1.60141 0
M  V30 7294 C 698.714 2.45031 2.65785 0
M  V30 7295 O 698.435 3.77551 2.22232 0
M  V30 7296 C 699.936 2.60017 3.59035 0
M  V30 7297 H 697.156 0.507544 0.438907 0
M  V30 7298 H 699.7 1.88752 0.786942 0
M  V30 7299 H 697.855 2.08985 3.26196 0
M  V30 7300 H 698.269 4.29001 3.01759 0
M  V30 7301 H 699.743 3.30887 4.41835 0
M  V30 7302 H 700.22 1.64861 4.07084 0
M  V30 7303 H 700.826 2.96918 3.045 0
M  V30 7304 N 699.141 -0.881989 1.30609 0
M  V30 7305 C 700.387 -1.63647 1.19781 0
M  V30 7306 C 700.72 -1.92632 -0.246265 0
M  V30 7307 O 699.995 -1.54938 -1.17577 0
M  V30 7308 C 700.278 -2.97437 2.02985 0
M  V30 7309 C 700.131 -2.75406 3.55628 0
M  V30 7310 C 701.45 -3.98397 1.86997 0
M  V30 7311 H 698.569 -0.593841 0.436488 0
M  V30 7312 H 701.211 -1.02041 1.60273 0
M  V30 7313 H 699.361 -3.50018 1.68581 0
M  V30 7314 H 701.033 -2.2959 4.00107 0
M  V30 7315 H 699.276 -2.09856 3.79662 0
M  V30 7316 H 699.947 -3.70552 4.09139 0
M  V30 7317 H 702.423 -3.54986 2.17081 0
M  V30 7318 H 701.299 -4.89916 2.47536 0
M  V30 7319 H 701.56 -4.3424 0.829943 0
M  V30 7320 N 700.619 -1.13374 -1.09472 0
M  V30 7321 C 701.529 -0.824029 -2.19652 0
M  V30 7322 C 702.545 0.19118 -1.72947 0
M  V30 7323 O 703.721 0.0223464 -2.01388 0
M  V30 7324 C 700.786 -0.294009 -3.45451 0
M  V30 7325 C 699.847 -1.3704 -4.0684 0
M  V30 7326 C 699.08 -0.86558 -5.26634 0
M  V30 7327 O 699.303 0.29702 -5.69626 0
M  V30 7328 O 698.237 -1.63968 -5.79136 0
M  V30 7329 H 702.063 -1.74454 -2.48595 0
M  V30 7330 H 699.648 -0.911155 -1.18399 0
M  V30 7331 H 701.53 -0.00381039 -4.214 0
M  V30 7332 H 700.205 0.598921 -3.18111 0
M  V30 7333 H 699.112 -1.71391 -3.3253 0
M  V30 7334 H 700.445 -2.23746 -4.38405 0
M  V30 7335 N 702.098 1.27442 -0.927168 0
M  V30 7336 C 703.326 1.98498 -0.583622 0
M  V30 7337 C 703.741 1.69171 0.838241 0
M  V30 7338 O 703.098 0.951969 1.55704 0
M  V30 7339 C 703.149 3.52552 -0.799341 0
M  V30 7340 O 702.87 3.80851 -2.16527 0
M  V30 7341 C 704.371 4.4086 -0.464436 0
M  V30 7342 H 701.591 0.633487 -0.221213 0
M  V30 7343 H 704.135 1.62308 -1.24404 0
M  V30 7344 H 702.29 3.86955 -0.185728 0
M  V30 7345 H 702.704 4.75441 -2.21487 0
M  V30 7346 H 704.178 5.47967 -0.666075 0
M  V30 7347 H 704.655 4.35082 0.599995 0
M  V30 7348 H 705.261 4.11977 -1.05617 0
M  V30 7349 N 703.576 0.692616 1.41565 0
M  V30 7350 C 704.506 0.0397325 2.33466 0
M  V30 7351 C 705.487 -0.770334 1.51657 0
M  V30 7352 O 706.672 -0.723903 1.80203 0
M  V30 7353 C 703.802 -0.899495 3.3545 0
M  V30 7354 C 702.756 -0.196738 4.27548 0
M  V30 7355 C 702.082 -1.25012 5.19881 0
M  V30 7356 C 703.382 0.935158 5.1386 0
M  V30 7357 H 705.076 0.807296 2.88311 0
M  V30 7358 H 702.622 0.389665 1.38628 0
M  V30 7359 H 704.575 -1.36545 3.98665 0
M  V30 7360 H 703.299 -1.69869 2.78948 0
M  V30 7361 H 701.958 0.249158 3.65752 0
M  V30 7362 H 701.606 -2.04177 4.59696 0
M  V30 7363 H 701.306 -0.784931 5.82334 0
M  V30 7364 H 702.83 -1.71665 5.85972 0
M  V30 7365 H 704.244 0.549619 5.70659 0
M  V30 7366 H 702.641 1.32726 5.85238 0
M  V30 7367 H 703.711 1.77613 4.512 0
M  V30 7368 N 705.054 -1.51416 0.437162 0
M  V30 7369 C 705.964 -2.31493 -0.380537 0
M  V30 7370 C 706.98 -1.40399 -1.02782 0
M  V30 7371 O 708.156 -1.73471 -1.02323 0
M  V30 7372 C 705.221 -3.1413 -1.46709 0
M  V30 7373 C 704.282 -4.21003 -0.839953 0
M  V30 7374 C 703.515 -4.9969 -1.87473 0
M  V30 7375 O 703.738 -4.79008 -3.09689 0
M  V30 7376 O 702.672 -5.8379 -1.46536 0
M  V30 7377 H 706.498 -3.02469 0.273183 0
M  V30 7378 H 704.083 -1.48059 0.199706 0
M  V30 7379 H 705.965 -3.65505 -2.09724 0
M  V30 7380 H 704.64 -2.45919 -2.10489 0
M  V30 7381 H 703.547 -3.73706 -0.171752 0
M  V30 7382 H 704.88 -4.91587 -0.245638 0
M  V30 7383 N 706.532 -0.168513 -1.56696 0
M  V30 7384 C 707.482 0.7751 -2.14421 0
M  V30 7385 C 708.466 1.19476 -1.07769 0
M  V30 7386 O 709.658 1.15759 -1.33898 0
M  V30 7387 C 706.787 2.00549 -2.7863 0
M  V30 7388 C 705.873 1.60795 -3.92436 0
M  V30 7389 N 706.264 0.919812 -4.97366 0
M  V30 7390 C 704.562 1.89917 -4.03544 0
M  V30 7391 C 705.263 0.724485 -5.77171 0
M  V30 7392 N 704.239 1.26505 -5.28675 0
M  V30 7393 H 708.041 0.240349 -2.92916 0
M  V30 7394 H 705.555 0.0322675 -1.62368 0
M  V30 7395 H 707.552 2.6917 -3.1836 0
M  V30 7396 H 706.212 2.54522 -2.01615 0
M  V30 7397 H 707.223 0.578169 -5.14663 0
M  V30 7398 H 703.9 2.45587 -3.37629 0
M  V30 7399 H 705.29 0.180521 -6.71657 0
M  V30 7400 N 708.01 1.57248 0.105221 0
M  V30 7401 C 708.958 2.02337 1.14728 0
M  V30 7402 C 709.952 0.922652 1.42069 0
M  V30 7403 O 711.158 1.10785 1.41869 0
M  V30 7404 H 707.533 0.644682 0.387155 0
M  V30 7405 H 709.504 2.89063 0.740607 0
M  V30 7406 C 708.253 2.45513 2.46209 0
M  V30 7407 H 707.576 3.29785 2.26013 0
M  V30 7408 H 709.016 2.80846 3.1765 0
M  V30 7409 C 707.475 1.3243 3.09781 0
M  V30 7410 O 708.005 0.647841 3.96442 0
M  V30 7411 N 706.211 1.07785 2.69872 0
M  V30 7412 H 705.758 1.62973 1.99493 0
M  V30 7413 H 705.716 0.323204 3.12734 0
M  V30 7414 N 709.488 -0.375779 1.53054 0
M  V30 7415 C 710.42 -1.47963 1.75042 0
M  V30 7416 C 711.433 -1.50073 0.631031 0
M  V30 7417 O 712.622 -1.53736 0.907052 0
M  V30 7418 C 709.722 -2.86767 1.80604 0
M  V30 7419 C 708.895 -3.08471 3.10104 0
M  V30 7420 C 707.954 -4.27332 3.07041 0
M  V30 7421 O 706.98 -4.22998 3.80869 0
M  V30 7422 N 708.182 -5.34214 2.27147 0
M  V30 7423 H 710.947 -1.29484 2.70285 0
M  V30 7424 H 708.508 -0.565416 1.51706 0
M  V30 7425 H 710.5 -3.64404 1.76045 0
M  V30 7426 H 709.07 -2.98542 0.926897 0
M  V30 7427 H 708.29 -2.18583 3.28048 0
M  V30 7428 H 709.578 -3.19834 3.95706 0
M  V30 7429 H 708.976 -5.40594 1.66656 0
M  V30 7430 H 707.533 -6.10467 2.28415 0
M  V30 7431 N 710.966 -1.44241 -0.634997 0
M  V30 7432 C 712.194 -1.50296 -1.42193 0
M  V30 7433 C 712.609 -0.12658 -1.88375 0
M  V30 7434 O 711.966 0.86678 -1.60603 0
M  V30 7435 C 712.017 -2.46437 -2.64482 0
M  V30 7436 O 711.738 -3.78724 -2.20226 0
M  V30 7437 C 713.239 -2.61918 -3.57651 0
M  V30 7438 H 710.459 -0.509865 -0.43621 0
M  V30 7439 H 713.003 -1.89167 -0.776921 0
M  V30 7440 H 711.158 -2.10712 -3.25083 0
M  V30 7441 H 711.572 -4.30595 -2.9948 0
M  V30 7442 H 713.046 -3.33225 -4.40074 0
M  V30 7443 H 713.523 -1.67017 -4.06204 0
M  V30 7444 H 714.129 -2.98528 -3.02921 0
M  V30 7445 N 712.444 0.87505 -1.31075 0
M  V30 7446 C 713.674 1.65818 -1.2324 0
M  V30 7447 C 714.082 1.8808 0.205536 0
M  V30 7448 O 713.425 1.43548 1.14628 0
M  V30 7449 C 713.487 3.05131 -1.90093 0
M  V30 7450 C 713.151 3.05999 -3.39432 0
M  V30 7451 C 714.148 2.84328 -4.35263 0
M  V30 7452 C 711.833 3.27281 -3.81041 0
M  V30 7453 C 713.827 2.83912 -5.70678 0
M  V30 7454 C 711.514 3.26493 -5.16571 0
M  V30 7455 C 712.512 3.04834 -6.112 0
M  V30 7456 O 712.2 3.03882 -7.44252 0
M  V30 7457 H 711.932 0.52387 -0.427242 0
M  V30 7458 H 714.486 1.10086 -1.73408 0
M  V30 7459 H 712.716 3.62568 -1.34468 0
M  V30 7460 H 714.405 3.65641 -1.76242 0
M  V30 7461 H 715.171 2.67673 -4.04445 0
M  V30 7462 H 711.05 3.43171 -3.07822 0
M  V30 7463 H 714.594 2.66925 -6.44513 0
M  V30 7464 H 710.491 3.42687 -5.47025 0
M  V30 7465 H 711.259 3.19979 -7.53363 0
M  V30 7466 N 713.922 1.13953 1.08869 0
M  V30 7467 C 714.832 0.835666 2.19212 0
M  V30 7468 C 715.848 -0.182005 1.73045 0
M  V30 7469 O 717.024 -0.0116661 2.01397 0
M  V30 7470 C 714.089 0.312325 3.4529 0
M  V30 7471 C 713.15 1.39196 4.06107 0
M  V30 7472 C 712.383 0.893496 5.26168 0
M  V30 7473 O 712.606 -0.266807 5.69776 0
M  V30 7474 O 711.54 1.67037 5.78258 0
M  V30 7475 H 715.366 1.75769 2.47667 0
M  V30 7476 H 712.951 0.917421 1.17914 0
M  V30 7477 H 714.833 0.0261582 4.21392 0
M  V30 7478 H 713.508 -0.582042 3.18424 0
M  V30 7479 H 712.415 1.73152 3.31616 0
M  V30 7480 H 713.748 2.26068 4.37212 0
M  V30 7481 N 715.4 -1.26948 0.933913 0
M  V30 7482 C 716.64 -1.9585 0.585003 0
M  V30 7483 C 717.004 -1.71722 -0.858802 0
M  V30 7484 O 718.205 -2.34366 -1.31629 0
M  V30 7485 C 716.476 -3.45638 0.909352 0
M  V30 7486 S 718.035 -4.33656 0.669892 0
M  V30 7487 H 714.853 -0.677485 0.215721 0
M  V30 7488 H 717.455 -1.54051 1.20368 0
M  V30 7489 H 716.159 -3.60697 1.9577 0
M  V30 7490 H 715.69 -3.92401 0.280115 0
M  V30 7491 H 717.705 -4.93975 -0.469378 0
M  V30 7492 N 716.879 -0.700114 -1.41195 0
M  V30 7493 C 718.295 -0.372114 -1.55201 0
M  V30 7494 C 718.495 1.12053 -1.6747 0
M  V30 7495 O 717.551 1.90642 -1.65566 0
M  V30 7496 C 718.864 -1.12462 -2.78878 0
M  V30 7497 C 720.412 -1.10941 -2.92679 0
M  V30 7498 C 720.887 -1.84376 -4.19249 0
M  V30 7499 N 722.378 -1.81368 -4.26216 0
M  V30 7500 C 723.113 -2.35024 -5.23021 0
M  V30 7501 N 722.609 -2.9717 -6.25829 0
M  V30 7502 N 724.402 -2.25254 -5.14992 0
M  V30 7503 H 716.553 -1.66816 -1.31477 0
M  V30 7504 H 718.816 -0.704223 -0.634644 0
M  V30 7505 H 718.522 -2.17937 -2.76037 0
M  V30 7506 H 718.396 -0.706152 -3.70531 0
M  V30 7507 H 720.783 -0.062911 -2.95033 0
M  V30 7508 H 720.864 -1.56698 -2.02187 0
M  V30 7509 H 720.508 -2.89008 -4.17656 0
M  V30 7510 H 720.438 -1.3605 -5.08722 0
M  V30 7511 H 722.929 -1.36062 -3.52556 0
M  V30 7512 H 723.242 -3.35668 -6.96094 0
M  V30 7513 H 721.587 -3.01249 -6.26318 0
M  V30 7514 H 724.778 -1.76372 -4.33602 0
M  V30 7515 H 724.951 -2.67373 -5.90268 0
M  V30 7516 N 718.357 1.51182 -0.445186 0
M  V30 7517 C 719.32 2.26501 0.350722 0
M  V30 7518 C 720.32 1.3025 0.942952 0
M  V30 7519 O 721.51 1.53897 0.816175 0
M  V30 7520 C 718.642 3.06274 1.49697 0
M  V30 7521 H 719.835 2.98299 -0.309474 0
M  V30 7522 H 717.388 1.55034 -0.198551 0
M  V30 7523 H 718.123 2.38911 2.19299 0
M  V30 7524 H 717.908 3.76979 1.0784 0
M  V30 7525 H 719.398 3.63306 2.05909 0
M  V30 7526 N 719.835 0.176821 1.56605 0
M  V30 7527 C 720.785 -0.763718 2.14829 0
M  V30 7528 C 721.769 -1.18903 1.08401 0
M  V30 7529 O 722.961 -1.15048 1.3451 0
M  V30 7530 C 720.09 -1.99069 2.7969 0
M  V30 7531 C 719.176 -1.58711 3.93283 0
M  V30 7532 N 719.567 -0.893423 4.97847 0
M  V30 7533 C 717.865 -1.87774 4.04545 0
M  V30 7534 C 718.566 -0.693866 5.77547 0
M  V30 7535 N 717.542 -1.23699 5.29339 0
M  V30 7536 H 721.344 -0.224811 2.93039 0
M  V30 7537 H 718.858 -0.0236563 1.62383 0
M  V30 7538 H 720.855 -2.67478 3.19783 0
M  V30 7539 H 719.515 -2.53449 2.02962 0
M  V30 7540 H 720.526 -0.550868 5.14962 0
M  V30 7541 H 717.203 -2.43793 3.38927 0
M  V30 7542 H 718.593 -0.144899 6.71744 0
M  V30 7543 N 721.313 -1.57302 -0.09688 0
M  V30 7544 C 722.261 -2.02942 -1.13654 0
M  V30 7545 C 723.255 -0.930173 -1.41577 0
M  V30 7546 O 724.461 -1.11535 -1.41279 0
M  V30 7547 H 720.836 -0.646726 -0.383731 0
M  V30 7548 H 722.807 -2.89452 -0.725267 0
M  V30 7549 C 721.556 -2.46815 -2.44903 0
M  V30 7550 H 720.879 -3.30979 -2.24261 0
M  V30 7551 H 722.319 -2.82527 -3.16156 0
M  V30 7552 C 720.778 -1.34071 -3.09074 0
M  V30 7553 O 721.308 -0.668856 -3.96092 0
M  V30 7554 N 719.514 -1.09214 -2.69296 0
M  V30 7555 H 719.061 -1.64029 -1.98626 0
M  V30 7556 H 719.019 -0.339785 -3.12559 0
M  V30 7557 N 722.791 0.367657 -1.53252 0
M  V30 7558 C 724.016 1.13566 -1.73544 0
M  V30 7559 C 724.441 1.82329 -0.462344 0
M  V30 7560 O 723.799 1.71655 0.583472 0
M  V30 7561 C 723.847 2.14322 -2.89997 0
M  V30 7562 O 722.951 3.21359 -2.58461 0
M  V30 7563 H 722.292 0.329614 -0.576412 0
M  V30 7564 H 724.822 0.425417 -2.00128 0
M  V30 7565 H 724.832 2.57958 -3.16104 0
M  V30 7566 H 723.507 1.63664 -3.82344 0
M  V30 7567 H 722.084 2.8271 -2.43165 0
M  V30 7568 N 724.269 1.44576 0.627338 0
M  V30 7569 C 725.515 1.47777 1.38888 0
M  V30 7570 C 725.848 0.111406 1.9388 0
M  V30 7571 O 725.123 -0.87149 1.73883 0
M  V30 7572 C 725.406 2.54119 2.55138 0
M  V30 7573 C 725.259 4.00128 2.0547 0
M  V30 7574 C 726.578 2.56929 3.57317 0
M  V30 7575 H 723.697 0.538048 0.50366 0
M  V30 7576 H 726.339 1.76277 0.708978 0
M  V30 7577 H 724.489 2.29948 3.13139 0
M  V30 7578 H 726.161 4.35444 1.5227 0
M  V30 7579 H 724.404 4.11724 1.36623 0
M  V30 7580 H 725.075 4.7019 2.89181 0
M  V30 7581 H 727.551 2.78536 3.09122 0
M  V30 7582 H 726.427 3.33234 4.36173 0
M  V30 7583 H 726.688 1.6127 4.11636 0
M  V30 7584 N 725.747 -0.868086 1.31537 0
M  V30 7585 C 726.995 -1.61807 1.21091 0
M  V30 7586 C 727.316 -1.93631 -0.230623 0
M  V30 7587 O 726.586 -1.5846 -1.15183 0
M  V30 7588 H 725.166 -0.599854 0.445178 0
M  V30 7589 H 727.828 -1.03915 1.64887 0
M  V30 7590 H 726.924 -2.56088 1.78396 0
M  V30 7591 N 727.225 -1.14528 -1.08264 0
M  V30 7592 C 728.45 -0.938381 -1.84957 0
M  V30 7593 C 728.875 0.508044 -1.81109 0
M  V30 7594 O 728.233 1.36146 -1.19724 0
M  V30 7595 C 728.281 -1.44568 -3.30352 0
M  V30 7596 O 727.385 -0.638745 -4.07423 0
M  V30 7597 H 726.726 -0.335394 -0.573068 0
M  V30 7598 H 729.256 -1.52287 -1.36637 0
M  V30 7599 H 729.266 -1.45449 -3.81194 0
M  V30 7600 H 727.941 -2.49876 -3.32468 0
M  V30 7601 H 726.518 -0.698801 -3.66294 0
M  V30 7602 N 728.703 1.26451 -0.940633 0
M  V30 7603 C 729.951 1.93395 -0.586748 0
M  V30 7604 C 730.272 1.7417 0.876921 0
M  V30 7605 O 729.542 1.097 1.62304 0
M  V30 7606 H 728.122 0.715687 -0.214012 0
M  V30 7607 H 730.784 1.53902 -1.19584 0
M  V30 7608 H 729.88 3.01565 -0.804059 0
M  V30 7609 N 730.181 0.707592 1.40822 0
M  V30 7610 C 731.406 0.251626 2.05868 0
M  V30 7611 C 731.831 -1.09503 1.5294 0
M  V30 7612 O 731.189 -1.68806 0.661385 0
M  V30 7613 C 731.237 0.23287 3.59847 0
M  V30 7614 O 730.341 -0.788477 4.04792 0
M  V30 7615 H 729.682 0.119936 0.653078 0
M  V30 7616 H 732.212 0.96583 1.80369 0
M  V30 7617 H 732.222 0.0678204 4.07944 0
M  V30 7618 H 730.897 1.21565 3.97737 0
M  V30 7619 H 729.474 -0.591802 3.68174 0
M  V30 7620 N 731.66 -1.50943 0.453197 0
M  V30 7621 C 732.906 -2.03153 -0.100277 0
M  V30 7622 C 733.261 -1.33032 -1.38997 0
M  V30 7623 O 732.554 -0.441423 -1.86446 0
M  V30 7624 C 732.748 -3.55603 -0.357944 0
M  V30 7625 C 732.577 -4.40495 0.905223 0
M  V30 7626 C 731.347 -4.84247 1.44337 0
M  V30 7627 C 733.545 -4.81931 1.79575 0
M  V30 7628 N 731.527 -5.53403 2.65742 0
M  V30 7629 C 732.898 -5.50314 2.85577 0
M  V30 7630 C 734.953 -4.63903 1.80828 0
M  V30 7631 C 733.656 -6.02581 3.92797 0
M  V30 7632 C 735.682 -5.17097 2.86993 0
M  V30 7633 C 735.044 -5.8544 3.91713 0
M  V30 7634 H 731.143 -0.781995 0.00287755 0
M  V30 7635 H 733.727 -1.84651 0.617411 0
M  V30 7636 H 731.898 -3.74087 -1.04467 0
M  V30 7637 H 733.63 -3.9447 -0.904175 0
M  V30 7638 H 730.385 -4.63029 0.995045 0
M  V30 7639 H 730.809 -5.92598 3.27348 0
M  V30 7640 H 735.451 -4.10512 1.0119 0
M  V30 7641 H 733.169 -6.55018 4.73262 0
M  V30 7642 H 736.755 -5.0499 2.88923 0
M  V30 7643 H 735.635 -6.25861 4.72512 0
M  V30 7644 N 733.138 -0.185124 -1.56509 0
M  V30 7645 C 734.101 0.72591 -2.17401 0
M  V30 7646 C 735.101 1.14819 -1.12575 0
M  V30 7647 O 736.291 1.0629 -1.38015 0
M  V30 7648 C 733.423 1.98979 -2.76803 0
M  V30 7649 H 734.616 0.195588 -2.99262 0
M  V30 7650 H 732.169 0.0644772 -1.56167 0
M  V30 7651 H 732.904 2.56287 -1.98714 0
M  V30 7652 H 732.689 1.69583 -3.53531 0
M  V30 7653 H 734.179 2.63966 -3.23592 0
M  V30 7654 N 734.616 1.57351 0.0885366 0
M  V30 7655 C 735.863 1.86419 0.790824 0
M  V30 7656 C 736.191 0.774561 1.78412 0
M  V30 7657 O 735.446 -0.23119 1.9433 0
M  V30 7658 C 735.745 3.22098 1.5488 0
M  V30 7659 C 735.411 4.4548 0.697025 0
M  V30 7660 C 734.073 4.78975 0.462237 0
M  V30 7661 C 736.425 5.21094 0.105315 0
M  V30 7662 C 733.753 5.85507 -0.374016 0
M  V30 7663 C 736.105 6.28509 -0.718298 0
M  V30 7664 C 734.769 6.60515 -0.963116 0
M  V30 7665 H 734.039 0.682157 0.289383 0
M  V30 7666 H 736.686 1.91429 0.0520961 0
M  V30 7667 H 734.991 3.12803 2.35927 0
M  V30 7668 H 736.688 3.41819 2.09669 0
M  V30 7669 H 733.278 4.19255 0.890137 0
M  V30 7670 H 737.462 4.95544 0.273856 0
M  V30 7671 H 732.718 6.08713 -0.572606 0
M  V30 7672 H 736.892 6.86268 -1.18362 0
M  V30 7673 H 734.519 7.42893 -1.6129 0
M  V30 7674 N 736.094 -0.359525 1.53444 0
M  V30 7675 C 737.343 -1.09886 1.69139 0
M  V30 7676 C 737.656 -1.90285 0.452863 0
M  V30 7677 O 738.862 -2.67033 0.490459 0
M  V30 7678 C 737.318 -2.0028 2.99025 0
M  V30 7679 C 736.926 -1.25164 4.30161 0
M  V30 7680 C 738.67 -2.74168 3.24086 0
M  V30 7681 C 736.577 -2.14494 5.51132 0
M  V30 7682 H 735.507 -0.413936 0.630217 0
M  V30 7683 H 738.158 -0.359434 1.79945 0
M  V30 7684 H 736.54 -2.77978 2.82036 0
M  V30 7685 H 737.714 -0.524867 4.57801 0
M  V30 7686 H 736.029 -0.631116 4.11589 0
M  V30 7687 H 738.626 -3.41243 4.11652 0
M  V30 7688 H 738.969 -3.39868 2.40407 0
M  V30 7689 H 739.502 -2.0355 3.41778 0
M  V30 7690 H 736.241 -1.53362 6.37307 0
M  V30 7691 H 735.761 -2.85004 5.27762 0
M  V30 7692 H 737.44 -2.73914 5.86157 0
M  V30 7693 N 737.572 -1.44907 -0.619662 0
M  V30 7694 C 738.983 -1.42905 -1.20146 0
M  V30 7695 C 739.334 -0.150341 -1.95623 0
M  V30 7696 O 738.459 0.748732 -2.03034 0
M  V30 7697 C 739.054 -2.58889 -2.18545 0
M  V30 7698 C 737.613 -2.60046 -2.72127 0
M  V30 7699 C 736.76 -2.3493 -1.4732 0
M  V30 7700 H 739.711 -1.53321 -0.409666 0
M  V30 7701 H 739.732 -2.32298 -3.0136 0
M  V30 7702 H 739.244 -3.51941 -1.63583 0
M  V30 7703 H 737.345 -1.70968 -3.3106 0
M  V30 7704 H 737.458 -3.58893 -3.17384 0
M  V30 7705 H 735.822 -1.84248 -1.75855 0
M  V30 7706 H 736.605 -3.3011 -0.942442 0
M  V30 7707 N 739.05 0.861098 -1.31996 0
M  V30 7708 C 740.299 1.60965 -1.21545 0
M  V30 7709 C 740.612 1.94325 0.222972 0
M  V30 7710 O 741.818 2.67757 0.449272 0
M  V30 7711 C 740.274 2.90223 -2.12834 0
M  V30 7712 C 739.882 2.64313 -3.61722 0
M  V30 7713 C 741.626 3.68229 -2.11205 0
M  V30 7714 C 739.533 3.89532 -4.44993 0
M  V30 7715 H 738.463 0.603988 -0.451348 0
M  V30 7716 H 741.114 0.951358 -1.56912 0
M  V30 7717 H 739.496 3.57475 -1.70375 0
M  V30 7718 H 740.67 2.05413 -4.12483 0
M  V30 7719 H 738.985 1.99647 -3.65418 0
M  V30 7720 H 741.582 4.61138 -2.70658 0
M  V30 7721 H 741.925 4.01466 -1.1014 0
M  V30 7722 H 742.458 3.07873 -2.51911 0
M  V30 7723 H 739.197 3.61441 -5.46846 0
M  V30 7724 H 738.717 4.47851 -3.98985 0
M  V30 7725 H 740.396 4.57334 -4.57663 0
M  V30 7726 N 740.528 1.15101 1.07655 0
M  V30 7727 C 741.753 0.948177 1.84457 0
M  V30 7728 C 742.178 -0.498432 1.81376 0
M  V30 7729 O 741.536 -1.35509 1.20445 0
M  V30 7730 C 741.584 1.46318 3.29581 0
M  V30 7731 O 740.688 0.660342 4.07079 0
M  V30 7732 H 740.029 0.338428 0.571281 0
M  V30 7733 H 742.559 1.5301 1.35828 0
M  V30 7734 H 742.569 1.47468 3.80417 0
M  V30 7735 H 741.244 2.51635 3.31138 0
M  V30 7736 H 739.821 0.718216 3.65918 0
M  V30 7737 N 742.006 -1.2595 0.947325 0
M  V30 7738 C 742.969 -2.24407 0.466285 0
M  V30 7739 C 743.969 -1.55054 -0.426005 0
M  V30 7740 O 745.159 -1.7275 -0.224319 0
M  V30 7741 C 742.291 -3.39326 -0.327201 0
M  V30 7742 H 743.484 -2.68477 1.33642 0
M  V30 7743 H 741.037 -1.38211 0.729887 0
M  V30 7744 H 741.772 -3.00667 -1.21532 0
M  V30 7745 H 741.557 -3.9085 0.312839 0
M  V30 7746 H 743.047 -4.12455 -0.653477 0
M  V30 7747 N 743.484 -0.715051 -1.40445 0
M  V30 7748 C 744.732 -0.253826 -2.005 0
M  V30 7749 C 745.053 1.15681 -1.5698 0
M  V30 7750 O 744.323 1.78414 -0.809027 0
M  V30 7751 H 742.903 -0.0908537 -0.741454 0
M  V30 7752 H 745.565 -0.920561 -1.7179 0
M  V30 7753 H 744.661 -0.286499 -3.10782 0
M  V30 7754 N 744.962 1.50701 -0.461195 0
M  V30 7755 C 745.925 2.2686 0.326679 0
M  V30 7756 C 746.925 1.31243 0.929085 0
M  V30 7757 O 748.115 1.54754 0.799807 0
M  V30 7758 C 745.247 3.07844 1.46441 0
M  V30 7759 H 746.44 2.97954 -0.341095 0
M  V30 7760 H 743.993 1.54814 -0.214984 0
M  V30 7761 H 744.728 2.41223 2.16753 0
M  V30 7762 H 744.513 3.78101 1.03836 0
M  V30 7763 H 746.003 3.65469 2.02044 0
M  V30 7764 N 746.441 0.193421 1.56409 0
M  V30 7765 C 747.391 -0.74089 2.15627 0
M  V30 7766 C 748.375 -1.17747 1.09656 0
M  V30 7767 O 749.567 -1.13615 1.35723 0
M  V30 7768 C 746.696 -1.96091 2.81786 0
M  V30 7769 C 745.782 -1.54531 3.94944 0
M  V30 7770 N 746.173 -0.840569 4.98767 0
M  V30 7771 C 744.471 -1.83473 4.06514 0
M  V30 7772 C 745.172 -0.632571 5.7825 0
M  V30 7773 N 744.148 -1.18078 5.30621 0
M  V30 7774 H 747.95 -0.193718 2.93261 0
M  V30 7775 H 745.464 -0.00643211 1.62399 0
M  V30 7776 H 747.461 -2.64071 3.22602 0
M  V30 7777 H 746.121 -2.51282 2.05639 0
M  V30 7778 H 747.132 -0.496218 5.15517 0
M  V30 7779 H 743.809 -2.40184 3.41493 0
M  V30 7780 H 745.199 -0.0736433 6.7186 0
M  V30 7781 N 747.919 -1.57396 -0.0801906 0
M  V30 7782 C 749.147 -1.91055 -0.794075 0
M  V30 7783 C 749.562 -0.788583 -1.71542 0
M  V30 7784 O 748.919 0.238587 -1.80934 0
M  V30 7785 C 748.97 -3.24418 -1.59484 0
M  V30 7786 O 748.691 -4.323 -0.710532 0
M  V30 7787 C 750.192 -3.72037 -2.41046 0
M  V30 7788 H 747.412 -0.63171 -0.226238 0
M  V30 7789 H 749.956 -2.04431 -0.0529685 0
M  V30 7790 H 748.111 -3.12595 -2.2883 0
M  V30 7791 H 748.525 -5.08976 -1.26663 0
M  V30 7792 H 749.999 -4.68006 -2.92702 0
M  V30 7793 H 750.476 -3.00624 -3.2019 0
M  V30 7794 H 751.082 -3.86777 -1.76871 0
M  V30 7795 N 749.397 0.351382 -1.53633 0
M  V30 7796 C 750.347 1.4316 -1.77452 0
M  V30 7797 C 751.331 1.48076 -0.62946 0
M  V30 7798 O 752.523 1.53078 -0.888599 0
M  V30 7799 C 749.652 2.80409 -1.98055 0
M  V30 7800 C 748.738 2.79915 -3.18604 0
M  V30 7801 N 749.129 2.49057 -4.40232 0
M  V30 7802 C 747.427 3.11067 -3.19614 0
M  V30 7803 C 748.128 2.566 -5.22045 0
M  V30 7804 N 747.104 2.919 -4.5858 0
M  V30 7805 H 750.906 1.18188 -2.69089 0
M  V30 7806 H 748.42 0.559684 -1.52451 0
M  V30 7807 H 750.417 3.58231 -2.13251 0
M  V30 7808 H 749.077 3.06334 -1.07655 0
M  V30 7809 H 750.088 2.22395 -4.67719 0
M  V30 7810 H 746.765 3.42215 -2.39154 0
M  V30 7811 H 748.155 2.35968 -6.29101 0
M  V30 7812 N 750.875 1.45233 0.611969 0
M  V30 7813 C 752.286 1.4354 1.19387 0
M  V30 7814 C 752.637 0.160713 1.95541 0
M  V30 7815 O 751.762 -0.737954 2.03429 0
M  V30 7816 C 752.357 2.60045 2.17169 0
M  V30 7817 C 750.916 2.61486 2.70744 0
M  V30 7818 C 750.063 2.35708 1.46072 0
M  V30 7819 H 753.014 1.53536 0.401529 0
M  V30 7820 H 753.035 2.33893 3.00124 0
M  V30 7821 H 752.547 3.52803 1.61714 0
M  V30 7822 H 750.648 1.72721 3.30149 0
M  V30 7823 H 750.761 3.60572 3.15476 0
M  V30 7824 H 749.125 1.85178 1.74875 0
M  V30 7825 H 749.908 3.30606 0.924922 0
M  V30 7826 N 752.353 -0.854086 1.3245 0
M  V30 7827 C 753.764 -1.42427 1.20712 0
M  V30 7828 C 754.115 -1.95371 -0.18013 0
M  V30 7829 O 753.24 -1.87587 -1.07889 0
M  V30 7830 C 753.835 -2.58897 2.18536 0
M  V30 7831 C 752.394 -3.11913 2.10683 0
M  V30 7832 C 751.541 -1.84661 2.06871 0
M  V30 7833 H 754.492 -0.661192 1.4427 0
M  V30 7834 H 754.513 -3.36074 1.78422 0
M  V30 7835 H 754.025 -2.20333 3.19492 0
M  V30 7836 H 752.126 -3.55059 1.12977 0
M  V30 7837 H 752.239 -3.73119 3.00532 0
M  V30 7838 H 750.603 -2.04285 1.52118 0
M  V30 7839 H 751.386 -1.48314 3.09609 0
M  V30 7840 N 753.831 -1.1567 -1.07043 0
M  V30 7841 C 755.108 -0.843948 -1.76456 0
M  V30 7842 C 755.488 0.659806 -2.00524 0
M  V30 7843 O 754.836 1.60518 -1.62623 0
M  V30 7844 C 755.046 -1.65822 -3.0709 0
M  V30 7845 C 756.394 -1.8664 -3.8138 0
M  V30 7846 O 757.418 -1.62624 -3.1691 0
M  V30 7847 O 756.277 -2.26884 -4.97178 0
M  V30 7848 H 753.371 -0.310677 -0.766426 0
M  V30 7849 H 755.917 -1.26266 -1.1338 0
M  V30 7850 H 754.689 -2.67902 -2.85209 0
M  V30 7851 H 754.312 -1.23605 -3.77899 0
M  V30 7852 N 755.309 1.25446 -0.953992 0
M  V30 7853 C 756.219 2.29632 -0.480264 0
M  V30 7854 C 757.235 1.68025 0.452071 0
M  V30 7855 O 758.411 1.98703 0.328472 0
M  V30 7856 C 755.476 3.45903 0.234974 0
M  V30 7857 C 754.537 4.22953 -0.735495 0
M  V30 7858 C 753.77 5.33672 -0.0542957 0
M  V30 7859 O 753.993 5.58477 1.16018 0
M  V30 7860 O 752.927 5.9734 -0.739509 0
M  V30 7861 H 756.753 2.72242 -1.34602 0
M  V30 7862 H 754.338 1.30883 -0.720419 0
M  V30 7863 H 756.22 4.16552 0.637341 0
M  V30 7864 H 754.895 3.05296 1.07592 0
M  V30 7865 H 753.802 3.54734 -1.18806 0
M  V30 7866 H 755.135 4.67341 -1.54444 0
M  V30 7867 N 756.787 0.722489 1.40064 0
M  V30 7868 C 758.034 0.264979 2.00759 0
M  V30 7869 C 758.362 -1.14395 1.57302 0
M  V30 7870 O 757.617 -1.79165 0.787298 0
M  V30 7871 C 757.916 0.300682 3.56133 0
M  V30 7872 C 757.582 1.66087 4.19197 0
M  V30 7873 C 756.244 2.03319 4.36136 0
M  V30 7874 C 758.596 2.55452 4.54306 0
M  V30 7875 C 755.924 3.29448 4.8547 0
M  V30 7876 C 758.276 3.8094 5.05042 0
M  V30 7877 C 756.94 4.1828 5.2019 0
M  V30 7878 H 756.21 0.0969625 0.734629 0
M  V30 7879 H 758.857 0.926877 1.67575 0
M  V30 7880 H 757.162 -0.44479 3.89267 0
M  V30 7881 H 758.859 -0.0712542 4.00937 0
M  V30 7882 H 755.449 1.36137 4.06405 0
M  V30 7883 H 759.633 2.27961 4.40849 0
M  V30 7884 H 754.889 3.58338 4.95382 0
M  V30 7885 H 759.063 4.50351 5.31184 0
M  V30 7886 H 756.69 5.16081 5.58179 0
M  V30 7887 N 758.265 -1.50454 0.469181 0
M  V30 7888 C 759.195 -2.31353 -0.31592 0
M  V30 7889 C 760.176 -1.38172 -0.992094 0
M  V30 7890 O 761.361 -1.67093 -0.989633 0
M  V30 7891 C 758.491 -3.1786 -1.39937 0
M  V30 7892 C 757.445 -4.19578 -0.844909 0
M  V30 7893 C 756.771 -4.9481 -2.0265 0
M  V30 7894 C 758.071 -5.22106 0.142499 0
M  V30 7895 H 759.765 -2.97237 0.359269 0
M  V30 7896 H 757.311 -1.42942 0.174224 0
M  V30 7897 H 759.264 -3.7325 -1.95607 0
M  V30 7898 H 757.988 -2.49858 -2.1033 0
M  V30 7899 H 756.647 -3.65285 -0.310189 0
M  V30 7900 H 756.295 -4.23282 -2.71737 0
M  V30 7901 H 755.995 -5.63613 -1.66174 0
M  V30 7902 H 757.519 -5.53035 -2.58815 0
M  V30 7903 H 758.933 -5.72378 -0.324966 0
M  V30 7904 H 757.33 -5.98618 0.421441 0
M  V30 7905 H 758.4 -4.7297 1.06901 0
M  V30 7906 N 759.743 -0.201713 -1.56304 0
M  V30 7907 C 760.99 0.435307 -1.97766 0
M  V30 7908 C 761.318 1.61169 -1.0888 0
M  V30 7909 O 760.573 1.95272 -0.12934 0
M  V30 7910 C 760.872 0.931432 -3.45049 0
M  V30 7911 C 760.538 -0.132287 -4.50706 0
M  V30 7912 C 759.2 -0.424552 -4.79323 0
M  V30 7913 C 761.552 -0.852703 -5.14177 0
M  V30 7914 C 758.88 -1.4421 -5.68701 0
M  V30 7915 C 761.232 -1.85944 -6.04655 0
M  V30 7916 C 759.896 -2.15884 -6.31625 0
M  V30 7917 H 759.166 0.15929 -0.723676 0
M  V30 7918 H 761.813 -0.300069 -1.89134 0
M  V30 7919 H 760.118 1.7452 -3.50785 0
M  V30 7920 H 761.815 1.43383 -3.74489 0
M  V30 7921 H 758.405 0.105671 -4.2847 0
M  V30 7922 H 762.589 -0.640139 -4.92154 0
M  V30 7923 H 757.845 -1.6799 -5.87869 0
M  V30 7924 H 762.019 -2.42286 -6.52894 0
M  V30 7925 H 759.646 -2.94875 -7.0068 0
M  V30 7926 N 761.222 1.57436 0.0718424 0
M  V30 7927 C 762.45 1.91474 0.783932 0
M  V30 7928 C 762.865 0.797669 1.71122 0
M  V30 7929 O 762.222 -0.228989 1.81058 0
M  V30 7930 C 762.273 3.25259 1.57761 0
M  V30 7931 O 761.994 4.3267 0.687596 0
M  V30 7932 C 763.495 3.7331 2.3907 0
M  V30 7933 H 760.715 0.632901 0.222885 0
M  V30 7934 H 763.259 2.04457 0.0421262 0
M  V30 7935 H 761.414 3.13804 2.27169 0
M  V30 7936 H 761.828 5.09641 1.23962 0
M  V30 7937 H 763.302 4.69551 2.90216 0
M  V30 7938 H 763.779 3.02318 3.18591 0
M  V30 7939 H 764.385 3.8771 1.74818 0
M  V30 7940 N 762.7 -0.34323 1.53817 0
M  V30 7941 C 764.111 -0.918823 1.62525 0
M  V30 7942 C 764.462 -1.89542 0.506765 0
M  V30 7943 O 763.587 -2.13326 -0.363441 0
M  V30 7944 C 764.182 -1.67326 2.94597 0
M  V30 7945 C 762.741 -2.19786 3.05567 0
M  V30 7946 C 761.888 -1.01708 2.57974 0
M  V30 7947 H 764.839 -0.121358 1.58235 0
M  V30 7948 H 764.86 -2.53615 2.83654 0
M  V30 7949 H 764.372 -0.962223 3.75983 0
M  V30 7950 H 762.473 -2.94065 2.28816 0
M  V30 7951 H 762.586 -2.46135 4.1104 0
M  V30 7952 H 760.95 -1.39058 2.13389 0
M  V30 7953 H 761.733 -0.320671 3.41799 0
M  V30 7954 N 764.178 -1.45556 -0.604258 0
M  V30 7955 C 765.424 -1.49968 -1.36519 0
M  V30 7956 C 765.757 -0.142236 -1.93678 0
M  V30 7957 O 765.032 0.843717 -1.75247 0
M  V30 7958 C 765.315 -2.58146 -2.51063 0
M  V30 7959 C 765.168 -4.03346 -1.99078 0
M  V30 7960 C 766.487 -2.62581 -3.53184 0
M  V30 7961 H 763.606 -0.545993 -0.495036 0
M  V30 7962 H 766.248 -1.77382 -0.680845 0
M  V30 7963 H 764.398 -2.34901 -3.09441 0
M  V30 7964 H 766.07 -4.37811 -1.45323 0
M  V30 7965 H 764.313 -4.13845 -1.30055 0
M  V30 7966 H 764.984 -4.74731 -2.81664 0
M  V30 7967 H 767.46 -2.83419 -3.04652 0
M  V30 7968 H 766.336 -3.40131 -4.30816 0
M  V30 7969 H 766.597 -1.67798 -4.09019 0
M  V30 7970 N 765.656 0.84705 -1.32902 0
M  V30 7971 C 766.902 1.60414 -1.24078 0
M  V30 7972 C 767.235 1.93217 0.195105 0
M  V30 7973 O 766.51 1.58001 1.13428 0
M  V30 7974 C 766.793 2.91951 -2.108 0
M  V30 7975 C 766.646 2.6588 -3.62805 0
M  V30 7976 C 767.965 3.93299 -1.97494 0
M  V30 7977 H 765.084 0.58206 -0.452079 0
M  V30 7978 H 767.726 0.977562 -1.62922 0
M  V30 7979 H 765.876 3.45425 -1.77802 0
M  V30 7980 H 767.548 2.18902 -4.06054 0
M  V30 7981 H 765.791 1.99716 -3.85092 0
M  V30 7982 H 766.462 3.59574 -4.1882 0
M  V30 7983 H 768.938 3.49105 -2.26417 0
M  V30 7984 H 767.814 4.8318 -2.60438 0
M  V30 7985 H 768.075 4.31887 -0.944782 0
M  V30 7986 N 767.134 1.16236 1.06428 0
M  V30 7987 C 768.38 0.944431 1.79467 0
M  V30 7988 C 768.713 -0.526558 1.86925 0
M  V30 7989 O 767.988 -1.39061 1.35986 0
M  V30 7990 C 768.271 1.57092 3.24028 0
M  V30 7991 C 768.124 3.11315 3.24658 0
M  V30 7992 C 769.443 1.26447 4.21544 0
M  V30 7993 H 766.562 0.344521 0.651517 0
M  V30 7994 H 769.204 1.43545 1.24478 0
M  V30 7995 H 767.354 1.15337 3.70985 0
M  V30 7996 H 769.026 3.62042 2.85873 0
M  V30 7997 H 767.269 3.44716 2.6335 0
M  V30 7998 H 767.94 3.50269 4.26633 0
M  V30 7999 H 770.416 1.62581 3.83023 0
M  V30 8000 H 769.292 1.72885 5.20963 0
M  V30 8001 H 769.553 0.183068 4.41721 0
M  V30 8002 N 768.612 -1.24939 0.960631 0
M  V30 8003 C 769.575 -2.239 0.49006 0
M  V30 8004 C 770.575 -1.55497 -0.409535 0
M  V30 8005 O 771.765 -1.72978 -0.205984 0
M  V30 8006 C 768.897 -3.39654 -0.291193 0
M  V30 8007 H 770.09 -2.67044 1.36482 0
M  V30 8008 H 767.643 -1.37429 0.744505 0
M  V30 8009 H 768.378 -3.01939 -1.18336 0
M  V30 8010 H 768.163 -3.90496 0.354276 0
M  V30 8011 H 769.653 -4.13125 -0.609693 0
M  V30 8012 N 770.09 -0.729906 -1.39679 0
M  V30 8013 C 771.33 -0.280232 -2.0247 0
M  V30 8014 C 771.694 1.11006 -1.56658 0
M  V30 8015 O 772.895 1.65753 -2.11612 0
M  V30 8016 C 771.166 -0.372922 -3.55449 0
M  V30 8017 S 772.725 -0.00233974 -4.388 0
M  V30 8018 H 769.543 -0.110139 -0.702418 0
M  V30 8019 H 772.145 -0.955296 -1.70571 0
M  V30 8020 H 770.849 -1.38616 -3.86282 0
M  V30 8021 H 770.38 0.320136 -3.92095 0
M  V30 8022 H 772.395 1.21544 -4.81084 0
M  V30 8023 N 771.568 1.50203 -0.477153 0
M  V30 8024 C 772.501 2.25343 0.359983 0
M  V30 8025 C 773.479 1.28909 0.991022 0
M  V30 8026 O 774.663 1.58146 1.02578 0
M  V30 8027 C 771.79 3.03431 1.5049 0
M  V30 8028 C 770.836 4.14836 0.99063 0
M  V30 8029 S 771.669 5.35407 -0.0995413 0
M  V30 8030 C 772.825 6.17045 1.04911 0
M  V30 8031 H 773.058 2.95999 -0.277836 0
M  V30 8032 H 770.591 1.52159 -0.262115 0
M  V30 8033 H 772.549 3.49012 2.16105 0
M  V30 8034 H 771.21 2.32289 2.11425 0
M  V30 8035 H 770.403 4.689 1.84794 0
M  V30 8036 H 770.005 3.71723 0.412097 0
M  V30 8037 H 772.297 6.48546 1.95946 0
M  V30 8038 H 773.24 7.05979 0.547596 0
M  V30 8039 H 773.648 5.49193 1.30567 0
M  V30 8040 N 773.046 0.209999 1.56195 0
M  V30 8041 C 774.271 -0.433064 2.02828 0
M  V30 8042 C 774.696 -1.5337 1.08901 0
M  V30 8043 O 774.054 -1.81144 0.0751132 0
M  V30 8044 C 774.102 -0.952635 3.47789 0
M  V30 8045 O 773.206 -2.0647 3.56993 0
M  V30 8046 H 772.547 -0.0994594 0.656509 0
M  V30 8047 H 775.077 0.32525 2.01998 0
M  V30 8048 H 775.087 -1.26542 3.8788 0
M  V30 8049 H 773.762 -0.147007 4.1564 0
M  V30 8050 H 772.339 -1.75942 3.28784 0
M  V30 8051 N 774.524 -1.57472 -0.0634922 0
M  V30 8052 C 775.773 -1.86837 -0.759928 0
M  V30 8053 C 776.086 -0.803823 -1.7832 0
M  V30 8054 O 777.292 -0.985578 -2.52979 0
M  V30 8055 C 775.748 -3.31448 -1.4025 0
M  V30 8056 C 775.356 -4.46052 -0.417368 0
M  V30 8057 C 777.1 -3.70003 -2.08082 0
M  V30 8058 C 775.007 -5.81707 -1.06633 0
M  V30 8059 H 773.937 -0.697009 -0.287567 0
M  V30 8060 H 776.588 -1.83495 -0.0133914 0
M  V30 8061 H 774.97 -3.29427 -2.19759 0
M  V30 8062 H 776.144 -4.5948 0.348503 0
M  V30 8063 H 774.459 -4.16104 0.156955 0
M  V30 8064 H 777.056 -4.68653 -2.57426 0
M  V30 8065 H 777.399 -3.00226 -2.88393 0
M  V30 8066 H 777.932 -3.7405 -1.35394 0
M  V30 8067 H 774.671 -6.54798 -0.303374 0
M  V30 8068 H 774.191 -5.72064 -1.80286 0
M  V30 8069 H 775.87 -6.27317 -1.58376 0
M  V30 8070 N 776.003 0.335068 -1.53997 0
M  V30 8071 C 776.936 1.43533 -1.77407 0
M  V30 8072 C 777.914 1.5017 -0.623529 0
M  V30 8073 O 779.098 1.67756 -0.85966 0
M  V30 8074 C 776.225 2.81712 -1.88033 0
M  V30 8075 C 775.271 2.92661 -3.10245 0
M  V30 8076 S 776.104 2.58254 -4.69111 0
M  V30 8077 C 777.26 3.98525 -4.82627 0
M  V30 8078 H 777.493 1.2346 -2.70453 0
M  V30 8079 H 775.026 0.531234 -1.44973 0
M  V30 8080 H 776.984 3.61314 -1.9484 0
M  V30 8081 H 775.645 2.99075 -0.959849 0
M  V30 8082 H 774.838 3.93931 -3.14379 0
M  V30 8083 H 774.44 2.21017 -3.01708 0
M  V30 8084 H 776.732 4.93146 -4.64557 0
M  V30 8085 H 777.675 3.9938 -5.84723 0
M  V30 8086 H 778.083 3.86945 -4.11016 0
M  V30 8087 N 777.481 1.45874 0.596531 0
M  V30 8088 C 778.444 1.54988 1.68853 0
M  V30 8089 C 779.444 0.428302 1.54991 0
M  V30 8090 O 780.634 0.692158 1.59859 0
M  V30 8091 C 777.766 1.457 3.08195 0
M  V30 8092 H 778.959 2.52294 1.62135 0
M  V30 8093 H 776.512 1.33479 0.813206 0
M  V30 8094 H 777.247 0.496204 3.20481 0
M  V30 8095 H 777.032 2.27061 3.19665 0
M  V30 8096 H 778.522 1.55133 3.87716 0
M  V30 8097 N 778.959 -0.83999 1.33349 0
M  V30 8098 C 779.889 -1.965 1.26135 0
M  V30 8099 C 780.87 -1.69505 0.142152 0
M  V30 8100 O 782.055 -1.91346 0.331743 0
M  V30 8101 C 779.185 -3.32632 0.99866 0
M  V30 8102 C 778.139 -3.74021 2.08068 0
M  V30 8103 C 777.465 -5.07947 1.67014 0
M  V30 8104 C 778.765 -3.87925 3.49731 0
M  V30 8105 H 780.459 -2.02793 2.20262 0
M  V30 8106 H 778.005 -0.974297 1.06035 0
M  V30 8107 H 779.958 -4.10903 0.934696 0
M  V30 8108 H 778.682 -3.26593 0.0217759 0
M  V30 8109 H 777.341 -2.98012 2.13505 0
M  V30 8110 H 776.989 -4.98378 0.680316 0
M  V30 8111 H 776.689 -5.36611 2.39422 0
M  V30 8112 H 778.213 -5.88695 1.62082 0
M  V30 8113 H 779.627 -4.5651 3.46802 0
M  V30 8114 H 778.024 -4.28023 4.20614 0
M  V30 8115 H 779.094 -2.90407 3.88319 0
M  V30 8116 N 780.437 -1.16799 -1.0581 0
M  V30 8117 C 781.367 -0.902241 -2.15364 0
M  V30 8118 C 782.348 0.153351 -1.69407 0
M  V30 8119 O 783.533 0.00442032 -1.94199 0
M  V30 8120 C 780.663 -0.407911 -3.44896 0
M  V30 8121 C 779.617 -1.40197 -4.04387 0
M  V30 8122 C 778.943 -0.765848 -5.29187 0
M  V30 8123 C 780.243 -2.77316 -4.42598 0
M  V30 8124 H 781.937 -1.81841 -2.37853 0
M  V30 8125 H 779.483 -0.875731 -1.14311 0
M  V30 8126 H 781.436 -0.20945 -4.20879 0
M  V30 8127 H 780.16 0.54378 -3.22041 0
M  V30 8128 H 778.819 -1.58707 -3.30466 0
M  V30 8129 H 778.467 0.192482 -5.02632 0
M  V30 8130 H 778.167 -1.42939 -5.69949 0
M  V30 8131 H 779.691 -0.577519 -6.07863 0
M  V30 8132 H 781.105 -2.62561 -5.09642 0
M  V30 8133 H 779.502 -3.4019 -4.94359 0
M  V30 8134 H 780.572 -3.32199 -3.53231 0
M  V30 8135 N 781.915 1.24427 -0.967243 0
M  V30 8136 C 782.845 2.2773 -0.515899 0
M  V30 8137 C 783.826 1.64197 0.444227 0
M  V30 8138 O 785.011 1.91193 0.340451 0
M  V30 8139 C 782.141 3.46751 0.195149 0
M  V30 8140 C 781.095 4.22548 -0.680953 0
M  V30 8141 C 780.421 5.34456 0.161561 0
M  V30 8142 C 781.721 4.83914 -1.96532 0
M  V30 8143 H 783.415 2.65735 -1.37933 0
M  V30 8144 H 780.961 1.27742 -0.664681 0
M  V30 8145 H 782.914 4.18153 0.522117 0
M  V30 8146 H 781.638 3.07771 1.09292 0
M  V30 8147 H 780.297 3.52946 -0.991186 0
M  V30 8148 H 779.945 4.91716 1.05947 0
M  V30 8149 H 779.645 5.86087 -0.421418 0
M  V30 8150 H 781.169 6.08685 0.483211 0
M  V30 8151 H 782.583 5.47392 -1.70396 0
M  V30 8152 H 780.98 5.45775 -2.49499 0
M  V30 8153 H 782.05 4.05393 -2.66053 0
M  V30 8154 N 783.393 0.737304 1.3929 0
M  V30 8155 C 784.323 0.113988 2.33222 0
M  V30 8156 C 785.304 -0.721695 1.54031 0
M  V30 8157 O 786.489 -0.666206 1.82415 0
M  V30 8158 C 783.619 -0.792319 3.38141 0
M  V30 8159 C 782.573 -0.0606178 4.27957 0
M  V30 8160 C 781.899 -1.08409 5.23595 0
M  V30 8161 C 783.199 1.09817 5.10625 0
M  V30 8162 H 784.893 0.898611 2.85596 0
M  V30 8163 H 782.439 0.433571 1.37318 0
M  V30 8164 H 784.392 -1.23793 4.02807 0
M  V30 8165 H 783.116 -1.60908 2.84211 0
M  V30 8166 H 781.775 0.365393 3.64775 0
M  V30 8167 H 781.423 -1.89449 4.6596 0
M  V30 8168 H 781.123 -0.599269 5.84536 0
M  V30 8169 H 782.647 -1.52936 5.91137 0
M  V30 8170 H 784.061 0.730892 5.68622 0
M  V30 8171 H 782.458 1.51278 5.80719 0
M  V30 8172 H 783.528 1.91878 4.45321 0
M  V30 8173 N 784.871 -1.49948 0.485112 0
M  V30 8174 C 785.801 -2.31675 -0.291364 0
M  V30 8175 C 786.782 -1.39216 -0.977383 0
M  V30 8176 O 787.967 -1.68133 -0.971855 0
M  V30 8177 C 785.097 -3.19326 -1.36558 0
M  V30 8178 C 784.051 -4.2045 -0.800359 0
M  V30 8179 C 783.377 -4.96931 -1.97391 0
M  V30 8180 C 784.677 -5.21925 0.197867 0
M  V30 8181 H 786.371 -2.96839 0.390775 0
M  V30 8182 H 783.917 -1.42749 0.189375 0
M  V30 8183 H 785.87 -3.75304 -1.91638 0
M  V30 8184 H 784.594 -2.52074 -2.07668 0
M  V30 8185 H 783.253 -3.65594 -0.271428 0
M  V30 8186 H 782.901 -4.26141 -2.67232 0
M  V30 8187 H 782.601 -5.65344 -1.60187 0
M  V30 8188 H 784.125 -5.55749 -2.52935 0
M  V30 8189 H 785.539 -5.72691 -0.264239 0
M  V30 8190 H 783.936 -5.98138 0.484908 0
M  V30 8191 H 785.006 -4.71809 1.11912 0
M  V30 8192 N 786.349 -0.21828 -1.56081 0
M  V30 8193 C 787.279 0.687922 -2.23136 0
M  V30 8194 C 788.26 1.20357 -1.202 0
M  V30 8195 O 789.445 1.24817 -1.48776 0
M  V30 8196 C 786.575 1.89762 -2.90874 0
M  V30 8197 C 785.529 1.51595 -4.00254 0
M  V30 8198 C 784.855 2.80415 -4.55271 0
M  V30 8199 C 786.155 0.708404 -5.17474 0
M  V30 8200 H 787.849 0.128854 -2.99123 0
M  V30 8201 H 785.395 0.0605354 -1.43873 0
M  V30 8202 H 787.348 2.53699 -3.36474 0
M  V30 8203 H 786.072 2.4816 -2.1233 0
M  V30 8204 H 784.731 0.900058 -3.55379 0
M  V30 8205 H 784.379 3.36951 -3.73461 0
M  V30 8206 H 784.079 2.55613 -5.2909 0
M  V30 8207 H 785.603 3.453 -5.03587 0
M  V30 8208 H 787.017 1.2514 -5.59476 0
M  V30 8209 H 785.414 0.557593 -5.97504 0
M  V30 8210 H 786.484 -0.285679 -4.84058 0
M  V30 8211 N 787.827 1.57504 0.0551401 0
M  V30 8212 C 788.757 2.07864 1.06372 0
M  V30 8213 C 789.738 0.975565 1.39344 0
M  V30 8214 O 790.923 1.24929 1.48682 0
M  V30 8215 C 788.053 2.53643 2.3724 0
M  V30 8216 C 787.007 3.67978 2.18578 0
M  V30 8217 C 786.333 3.9987 3.54976 0
M  V30 8218 C 787.633 4.97405 1.59329 0
M  V30 8219 H 789.327 2.92379 0.644595 0
M  V30 8220 H 786.873 1.40654 0.308619 0
M  V30 8221 H 788.826 2.8749 3.08103 0
M  V30 8222 H 787.55 1.66177 2.81163 0
M  V30 8223 H 786.209 3.3444 1.50152 0
M  V30 8224 H 785.857 3.0951 3.965 0
M  V30 8225 H 785.557 4.76867 3.43324 0
M  V30 8226 H 787.081 4.36228 4.27244 0
M  V30 8227 H 788.495 5.29375 2.20078 0
M  V30 8228 H 786.892 5.78837 1.58327 0
M  V30 8229 H 787.962 4.81697 0.55638 0
M  V30 8230 N 789.305 -0.326896 1.54172 0
M  V30 8231 C 790.235 -1.40741 1.86317 0
M  V30 8232 C 791.216 -1.54125 0.719684 0
M  V30 8233 O 792.401 -1.6806 0.973117 0
M  V30 8234 C 789.531 -2.77557 2.08757 0
M  V30 8235 C 788.485 -2.78965 3.24596 0
M  V30 8236 C 787.811 -4.18824 3.32401 0
M  V30 8237 C 789.111 -2.4301 4.62324 0
M  V30 8238 H 790.805 -1.14088 2.76811 0
M  V30 8239 H 788.351 -0.547389 1.3319 0
M  V30 8240 H 790.304 -3.53209 2.29829 0
M  V30 8241 H 789.028 -3.0568 1.15009 0
M  V30 8242 H 787.687 -2.05767 3.03406 0
M  V30 8243 H 787.335 -4.44083 2.36218 0
M  V30 8244 H 787.035 -4.20673 4.10253 0
M  V30 8245 H 788.559 -4.96294 3.55703 0
M  V30 8246 H 789.973 -3.08375 4.83299 0
M  V30 8247 H 788.37 -2.56116 5.42701 0
M  V30 8248 H 789.44 -1.38165 4.64799 0
M  V30 8249 N 790.784 -1.46188 -0.588786 0
M  V30 8250 C 791.714 -1.59148 -1.70863 0
M  V30 8251 C 792.695 -0.442083 -1.64255 0
M  V30 8252 O 793.88 -0.667575 -1.82365 0
M  V30 8253 C 791.01 -1.5757 -3.09498 0
M  V30 8254 C 789.964 -2.71418 -3.30932 0
M  V30 8255 C 789.29 -2.549 -4.70032 0
M  V30 8256 C 790.59 -4.1329 -3.19356 0
M  V30 8257 H 792.284 -2.52889 -1.60274 0
M  V30 8258 H 789.83 -1.21707 -0.769638 0
M  V30 8259 H 791.783 -1.65231 -3.87655 0
M  V30 8260 H 790.507 -0.603705 -3.20972 0
M  V30 8261 H 789.166 -2.63216 -2.55172 0
M  V30 8262 H 788.814 -1.55797 -4.78264 0
M  V30 8263 H 788.514 -3.31257 -4.85327 0
M  V30 8264 H 790.038 -2.64443 -5.50366 0
M  V30 8265 H 791.452 -4.22636 -3.87365 0
M  V30 8266 H 789.849 -4.90187 -3.46175 0
M  V30 8267 H 790.919 -4.33874 -2.16522 0
M  V30 8268 N 792.262 0.832906 -1.33792 0
M  V30 8269 C 793.192 1.95828 -1.27176 0
M  V30 8270 C 794.173 1.69427 -0.15114 0
M  V30 8271 O 795.358 1.91167 -0.341886 0
M  V30 8272 C 792.488 3.32098 -1.01629 0
M  V30 8273 C 791.442 3.72912 -2.10049 0
M  V30 8274 C 790.768 5.07054 -1.69706 0
M  V30 8275 C 792.068 3.86064 -3.51783 0
M  V30 8276 H 793.762 2.01622 -2.21334 0
M  V30 8277 H 791.308 0.96866 -1.0655 0
M  V30 8278 H 793.261 4.10402 -0.956474 0
M  V30 8279 H 791.985 3.26577 -0.0390956 0
M  V30 8280 H 790.644 2.96876 -2.15082 0
M  V30 8281 H 790.292 4.9801 -0.706737 0
M  V30 8282 H 789.992 5.35333 -2.42264 0
M  V30 8283 H 791.516 5.87827 -1.65202 0
M  V30 8284 H 792.93 4.54665 -3.49218 0
M  V30 8285 H 791.327 4.25787 -4.22878 0
M  V30 8286 H 792.397 2.88344 -3.89854 0
M  V30 8287 N 793.74 1.17359 1.05189 0
M  V30 8288 C 794.97 0.985099 1.81602 0
M  V30 8289 C 795.378 -0.469872 1.83273 0
M  V30 8290 O 794.721 -1.33806 1.25864 0
M  V30 8291 C 794.783 1.44956 3.2898 0
M  V30 8292 C 794.447 2.92666 3.50993 0
M  V30 8293 C 795.444 3.906 3.43115 0
M  V30 8294 C 793.129 3.30841 3.77954 0
M  V30 8295 C 795.123 5.24709 3.61883 0
M  V30 8296 C 792.81 4.65116 3.96371 0
M  V30 8297 C 793.808 5.61859 3.88335 0
M  V30 8298 O 793.496 6.93704 4.06238 0
M  V30 8299 H 793.228 0.348731 0.579105 0
M  V30 8300 H 795.782 1.56066 1.33539 0
M  V30 8301 H 794.012 0.817559 3.77959 0
M  V30 8302 H 795.701 1.22674 3.86919 0
M  V30 8303 H 796.467 3.62453 3.22262 0
M  V30 8304 H 792.346 2.5611 3.83313 0
M  V30 8305 H 795.89 6.00205 3.55527 0
M  V30 8306 H 791.787 4.92969 4.16715 0
M  V30 8307 H 792.555 7.00443 4.23463 0
M  V30 8308 N 795.218 -1.23913 0.973828 0
M  V30 8309 C 796.165 -2.25132 0.508366 0
M  V30 8310 C 797.135 -1.59908 -0.449307 0
M  V30 8311 O 798.32 -1.87405 -0.358313 0
M  V30 8312 C 795.46 -3.4458 -0.189422 0
M  V30 8313 C 794.573 -4.24381 0.807738 0
M  V30 8314 C 793.708 -5.31131 0.0854315 0
M  V30 8315 C 792.747 -6.02635 1.07225 0
M  V30 8316 N 791.884 -7.01073 0.379535 0
M  V30 8317 H 796.724 -2.64313 1.37632 0
M  V30 8318 H 794.261 -1.29924 0.689802 0
M  V30 8319 H 796.219 -4.12706 -0.610733 0
M  V30 8320 H 794.849 -3.06218 -1.02129 0
M  V30 8321 H 793.901 -3.55735 1.34747 0
M  V30 8322 H 795.213 -4.73778 1.55998 0
M  V30 8323 H 794.367 -6.05422 -0.393572 0
M  V30 8324 H 793.106 -4.82658 -0.699461 0
M  V30 8325 H 792.111 -5.27143 1.56207 0
M  V30 8326 H 793.336 -6.53197 1.85769 0
M  V30 8327 H 791.282 -6.54862 -0.386269 0
M  V30 8328 H 791.199 -7.48382 1.07054 0
M  V30 8329 H 792.467 -7.79462 -0.0772984 0
M  V30 8330 N 796.696 -0.74468 -1.38897 0
M  V30 8331 C 797.926 -0.306982 -2.04307 0
M  V30 8332 C 798.334 1.06652 -1.56275 0
M  V30 8333 O 797.677 1.68699 -0.72708 0
M  V30 8334 C 797.739 -0.241186 -3.5869 0
M  V30 8335 C 797.403 -1.55476 -4.2974 0
M  V30 8336 C 798.4 -2.50229 -4.55721 0
M  V30 8337 C 796.085 -1.82173 -4.68101 0
M  V30 8338 C 798.079 -3.69905 -5.19085 0
M  V30 8339 C 795.766 -3.02125 -5.31191 0
M  V30 8340 C 796.764 -3.95812 -5.56616 0
M  V30 8341 O 796.452 -5.13656 -6.18395 0
M  V30 8342 H 796.184 -0.130416 -0.663301 0
M  V30 8343 H 798.738 -1.01192 -1.78744 0
M  V30 8344 H 796.968 0.519925 -3.83189 0
M  V30 8345 H 798.657 0.165806 -4.05561 0
M  V30 8346 H 799.423 -2.30877 -4.26522 0
M  V30 8347 H 795.302 -1.10091 -4.47662 0
M  V30 8348 H 798.846 -4.43047 -5.38846 0
M  V30 8349 H 794.743 -3.21374 -5.59811 0
M  V30 8350 H 795.511 -5.14119 -6.36886 0
M  V30 8351 N 798.174 1.49689 -0.493057 0
M  V30 8352 C 799.121 2.28976 0.28959 0
M  V30 8353 C 800.091 1.35011 0.967536 0
M  V30 8354 O 801.276 1.63964 0.975736 0
M  V30 8355 C 798.416 3.1748 1.35279 0
M  V30 8356 C 797.529 4.26496 0.687418 0
M  V30 8357 C 796.664 5.02226 1.73038 0
M  V30 8358 C 795.703 6.03089 1.04645 0
M  V30 8359 N 794.84 6.72014 2.03325 0
M  V30 8360 H 799.68 2.954 -0.392798 0
M  V30 8361 H 797.217 1.45657 -0.205554 0
M  V30 8362 H 799.175 3.67162 1.98111 0
M  V30 8363 H 797.805 2.53057 2.00405 0
M  V30 8364 H 796.857 3.80362 -0.0540001 0
M  V30 8365 H 798.169 4.98578 0.14864 0
M  V30 8366 H 797.323 5.55737 2.43395 0
M  V30 8367 H 796.062 4.29899 2.303 0
M  V30 8368 H 795.067 5.48817 0.328606 0
M  V30 8369 H 796.292 6.77398 0.480428 0
M  V30 8370 H 794.238 6.02464 2.59564 0
M  V30 8371 H 794.155 7.40046 1.54492 0
M  V30 8372 H 795.423 7.30133 2.72995 0
M  V30 8373 N 799.652 0.226554 1.55963 0
M  V30 8374 C 800.584 -0.713907 2.17798 0
M  V30 8375 C 801.597 -1.15387 1.14846 0
M  V30 8376 O 802.786 -1.08416 1.41804 0
M  V30 8377 C 799.886 -1.97945 2.75084 0
M  V30 8378 C 799.059 -1.69424 4.03255 0
M  V30 8379 C 798.118 -2.80734 4.45056 0
M  V30 8380 O 797.144 -2.4899 5.11852 0
M  V30 8381 N 798.346 -4.09797 4.11152 0
M  V30 8382 H 801.111 -0.18494 2.99129 0
M  V30 8383 H 798.672 0.0457346 1.61835 0
M  V30 8384 H 800.664 -2.71611 3.00016 0
M  V30 8385 H 799.234 -2.41876 1.98027 0
M  V30 8386 H 798.454 -0.793767 3.86126 0
M  V30 8387 H 799.742 -1.47806 4.86858 0
M  V30 8388 H 799.14 -4.38429 3.57486 0
M  V30 8389 H 797.697 -4.79992 4.40966 0
M  V30 8390 N 801.13 -1.57531 -0.0467866 0
M  V30 8391 C 802.077 -2.05387 -1.05285 0
M  V30 8392 C 803.047 -0.939385 -1.36985 0
M  V30 8393 O 804.232 -1.20877 -1.47626 0
M  V30 8394 C 801.372 -2.52343 -2.35408 0
M  V30 8395 C 800.485 -3.77512 -2.10022 0
M  V30 8396 C 799.62 -4.1315 -3.33887 0
M  V30 8397 C 798.659 -5.31286 -3.03976 0
M  V30 8398 N 797.796 -5.62441 -4.20243 0
M  V30 8399 H 802.636 -2.91095 -0.637788 0
M  V30 8400 H 800.173 -1.43939 -0.303322 0
M  V30 8401 H 802.131 -2.77628 -3.11413 0
M  V30 8402 H 800.761 -1.69577 -2.7467 0
M  V30 8403 H 799.813 -3.59417 -1.24594 0
M  V30 8404 H 801.125 -4.63644 -1.83945 0
M  V30 8405 H 800.279 -4.39469 -4.18273 0
M  V30 8406 H 799.018 -3.25634 -3.63062 0
M  V30 8407 H 798.023 -5.04738 -2.17991 0
M  V30 8408 H 799.248 -6.20441 -2.76098 0
M  V30 8409 H 797.194 -4.77885 -4.49402 0
M  V30 8410 H 797.111 -6.43046 -3.97528 0
M  V30 8411 H 798.379 -5.93327 -5.05553 0
M  V30 8412 N 802.608 0.318715 -1.54344 0
M  V30 8413 C 804.019 0.89285 -1.63967 0
M  V30 8414 C 804.37 1.88712 -0.536855 0
M  V30 8415 O 803.495 2.13877 0.329457 0
M  V30 8416 C 804.09 1.62618 -2.97222 0
M  V30 8417 C 802.649 2.14897 -3.09025 0
M  V30 8418 C 801.796 0.975909 -2.5956 0
M  V30 8419 H 804.747 0.0961687 -1.58408 0
M  V30 8420 H 804.768 2.4907 -2.87653 0
M  V30 8421 H 804.28 0.902286 -3.77466 0
M  V30 8422 H 802.381 2.90387 -2.33465 0
M  V30 8423 H 802.494 2.39565 -4.14904 0
M  V30 8424 H 800.858 1.35646 -2.15574 0
M  V30 8425 H 801.641 0.266253 -3.42266 0
M  V30 8426 N 804.086 1.46499 0.581025 0
M  V30 8427 C 805.033 1.5719 1.68997 0
M  V30 8428 C 806.003 0.416114 1.60803 0
M  V30 8429 O 807.188 0.633086 1.79991 0
M  V30 8430 C 804.328 1.56973 3.07333 0
M  V30 8431 C 803.441 2.83298 3.26139 0
M  V30 8432 C 802.576 2.74574 4.54734 0
M  V30 8433 C 801.615 3.9583 4.66889 0
M  V30 8434 N 800.752 3.85482 5.86811 0
M  V30 8435 H 805.592 2.51914 1.59196 0
M  V30 8436 H 803.129 1.24975 0.775857 0
M  V30 8437 H 805.087 1.54832 3.87405 0
M  V30 8438 H 803.717 0.657803 3.16027 0
M  V30 8439 H 802.769 2.95411 2.3966 0
M  V30 8440 H 804.081 3.7316 3.30988 0
M  V30 8441 H 803.235 2.70548 5.43036 0
M  V30 8442 H 801.974 1.82354 4.52325 0
M  V30 8443 H 800.979 4.00186 3.77003 0
M  V30 8444 H 802.204 4.89148 4.71075 0
M  V30 8445 H 800.15 2.96051 5.85397 0
M  V30 8446 H 800.067 4.69002 5.92936 0
M  V30 8447 H 801.335 3.85434 6.7754 0
M  V30 8448 N 805.565 -0.825799 1.34232 0
M  V30 8449 C 806.795 -1.61129 1.29309 0
M  V30 8450 C 807.203 -1.88714 -0.135589 0
M  V30 8451 O 806.546 -1.47703 -1.09222 0
M  V30 8452 C 806.608 -2.97866 2.01287 0
M  V30 8453 C 806.272 -2.9319 3.50555 0
M  V30 8454 C 807.269 -2.67978 4.45515 0
M  V30 8455 C 804.954 -3.12913 3.92926 0
M  V30 8456 C 806.948 -2.62536 5.80822 0
M  V30 8457 C 804.635 -3.07096 5.28333 0
M  V30 8458 C 805.633 -2.8194 6.22092 0
M  V30 8459 O 805.321 -2.7605 7.55018 0
M  V30 8460 H 805.053 -0.507652 0.446391 0
M  V30 8461 H 807.607 -1.03575 1.77374 0
M  V30 8462 H 805.837 -3.57327 1.47832 0
M  V30 8463 H 807.526 -3.58848 1.89691 0
M  V30 8464 H 808.292 -2.52478 4.14101 0
M  V30 8465 H 804.171 -3.3151 3.20347 0
M  V30 8466 H 807.715 -2.42821 6.53975 0
M  V30 8467 H 803.612 -3.22148 5.59367 0
M  V30 8468 H 804.38 -2.91798 7.6472 0
M  V30 8469 N 807.043 -1.17915 -1.04565 0
M  V30 8470 C 807.975 -0.859359 -2.1248 0
M  V30 8471 C 808.988 0.140922 -1.62189 0
M  V30 8472 O 810.177 -0.0862361 -1.78292 0
M  V30 8473 C 807.277 -0.261811 -3.37887 0
M  V30 8474 C 806.45 -1.30651 -4.17431 0
M  V30 8475 C 805.509 -0.725575 -5.21174 0
M  V30 8476 O 804.535 -1.39901 -5.51739 0
M  V30 8477 N 805.737 0.479351 -5.78517 0
M  V30 8478 H 808.502 -1.78818 -2.40508 0
M  V30 8479 H 806.063 -1.07885 -1.20716 0
M  V30 8480 H 808.055 0.14028 -4.04457 0
M  V30 8481 H 806.625 0.570929 -3.07342 0
M  V30 8482 H 805.845 -1.88412 -3.46258 0
M  V30 8483 H 807.133 -2.01099 -4.67372 0
M  V30 8484 H 806.531 1.04431 -5.55977 0
M  V30 8485 H 805.088 0.823427 -6.46578 0
M  V30 8486 N 808.521 1.23394 -0.980386 0
M  V30 8487 C 809.767 1.92094 -0.650223 0
M  V30 8488 C 810.1 1.76309 0.814173 0
M  V30 8489 O 809.375 1.12406 1.5873 0
M  V30 8490 C 809.658 3.44713 -1.04139 0
M  V30 8491 C 809.511 3.69606 -2.56342 0
M  V30 8492 C 810.83 4.36191 -0.585296 0
M  V30 8493 H 807.949 0.697618 -0.237695 0
M  V30 8494 H 810.591 1.45517 -1.22167 0
M  V30 8495 H 808.741 3.84513 -0.55515 0
M  V30 8496 H 810.413 3.39288 -3.1254 0
M  V30 8497 H 808.656 3.14318 -2.98976 0
M  V30 8498 H 809.327 4.76441 -2.78762 0
M  V30 8499 H 811.803 4.03836 -1.00276 0
M  V30 8500 H 810.679 5.41679 -0.887428 0
M  V30 8501 H 810.94 4.39097 0.51438 0
M  V30 8502 N 809.999 0.752036 1.385 0
M  V30 8503 C 811.415 0.42946 1.53713 0
M  V30 8504 C 811.615 -1.0576 1.71514 0
M  V30 8505 O 810.671 -1.84366 1.72527 0
M  V30 8506 C 811.984 1.22735 2.74511 0
M  V30 8507 C 813.532 1.21727 2.8836 0
M  V30 8508 C 814.007 1.99809 4.12117 0
M  V30 8509 N 815.498 1.97062 4.19191 0
M  V30 8510 C 816.233 2.54274 5.13938 0
M  V30 8511 N 815.729 3.20193 6.14368 0
M  V30 8512 N 817.522 2.44212 5.06277 0
M  V30 8513 H 809.673 1.71581 1.25195 0
M  V30 8514 H 811.936 0.727293 0.60807 0
M  V30 8515 H 811.642 2.28032 2.67758 0
M  V30 8516 H 811.516 0.843186 3.67655 0
M  V30 8517 H 813.903 0.172367 2.94596 0
M  V30 8518 H 813.984 1.64094 1.96232 0
M  V30 8519 H 813.628 3.0431 4.06642 0
M  V30 8520 H 813.558 1.54837 5.03322 0
M  V30 8521 H 816.049 1.49054 3.47263 0
M  V30 8522 H 816.362 3.61272 6.83156 0
M  V30 8523 H 814.707 3.24287 6.14705 0
M  V30 8524 H 817.898 1.92343 4.26757 0
M  V30 8525 H 818.071 2.89096 5.79937 0
M  V30 8526 N 811.477 -1.49425 0.500989 0
M  V30 8527 C 812.723 -2.03369 -0.0355945 0
M  V30 8528 C 813.078 -1.37387 -1.34694 0
M  V30 8529 O 812.371 -0.500516 -1.84947 0
M  V30 8530 C 812.565 -3.56562 -0.24463 0
M  V30 8531 C 812.394 -4.37392 1.04491 0
M  V30 8532 C 811.164 -4.7941 1.59669 0
M  V30 8533 C 813.362 -4.75974 1.94817 0
M  V30 8534 N 811.344 -5.44668 2.83214 0
M  V30 8535 C 812.715 -5.4095 3.0294 0
M  V30 8536 C 814.77 -4.57915 1.95495 0
M  V30 8537 C 813.473 -5.89779 4.11768 0
M  V30 8538 C 815.499 -5.07705 3.03298 0
M  V30 8539 C 814.861 -5.72682 4.1014 0
M  V30 8540 H 810.96 -0.781507 0.0277547 0
M  V30 8541 H 813.544 -1.82594 0.675844 0
M  V30 8542 H 811.715 -3.77221 -0.925126 0
M  V30 8543 H 813.447 -3.97147 -0.778219 0
M  V30 8544 H 810.202 -4.59629 1.14185 0
M  V30 8545 H 810.626 -5.81884 3.46035 0
M  V30 8546 H 815.268 -4.07085 1.14199 0
M  V30 8547 H 812.986 -6.3963 4.93862 0
M  V30 8548 H 816.572 -4.95542 3.04843 0
M  V30 8549 H 815.452 -6.10512 4.92184 0
M  V30 8550 N 812.955 -0.234822 -1.55841 0
M  V30 8551 C 813.902 0.6698 -2.20867 0
M  V30 8552 C 814.872 1.18042 -1.16856 0
M  V30 8553 O 816.057 1.23709 -1.45261 0
M  V30 8554 C 813.197 1.86646 -2.90271 0
M  V30 8555 C 812.31 1.39351 -4.08908 0
M  V30 8556 C 811.445 2.54878 -4.66059 0
M  V30 8557 C 810.484 2.04384 -5.76969 0
M  V30 8558 N 809.621 3.13233 -6.28355 0
M  V30 8559 H 814.461 0.10858 -2.97802 0
M  V30 8560 H 811.998 0.041836 -1.4704 0
M  V30 8561 H 813.956 2.56926 -3.28702 0
M  V30 8562 H 812.586 2.40035 -2.15831 0
M  V30 8563 H 811.638 0.585173 -3.75872 0
M  V30 8564 H 812.95 0.983356 -4.89011 0
M  V30 8565 H 812.104 3.33219 -5.07001 0
M  V30 8566 H 810.843 2.99188 -3.85146 0
M  V30 8567 H 809.848 1.24509 -5.35516 0
M  V30 8568 H 811.073 1.61057 -6.59725 0
M  V30 8569 H 809.019 3.57 -5.50352 0
M  V30 8570 H 808.936 2.76511 -7.03618 0
M  V30 8571 H 810.204 3.91669 -6.73955 0
M  V30 8572 N 814.433 1.57553 0.0384317 0
M  V30 8573 C 815.682 1.88022 0.730108 0
M  V30 8574 C 815.995 0.83209 1.77019 0
M  V30 8575 O 817.201 1.0257 2.51379 0
M  V30 8576 C 815.657 3.33637 1.3496 0
M  V30 8577 C 815.265 4.46659 0.346352 0
M  V30 8578 C 817.009 3.73266 2.02169 0
M  V30 8579 C 814.916 5.8333 0.973652 0
M  V30 8580 H 813.846 0.701496 0.276442 0
M  V30 8581 H 816.497 1.83493 -0.0158028 0
M  V30 8582 H 814.879 3.32882 2.1449 0
M  V30 8583 H 816.053 4.58868 -0.421558 0
M  V30 8584 H 814.368 4.15802 -0.223133 0
M  V30 8585 H 816.965 4.72689 2.49938 0
M  V30 8586 H 817.308 3.04776 2.8358 0
M  V30 8587 H 817.841 3.76156 1.29427 0
M  V30 8588 H 814.58 6.55197 0.199163 0
M  V30 8589 H 814.1 5.7486 1.71162 0
M  V30 8590 H 815.779 6.29757 1.48376 0
M  V30 8591 N 815.911 -0.310526 1.54511 0
M  V30 8592 C 817.16 -1.0445 1.72549 0
M  V30 8593 C 817.473 -1.88748 0.513172 0
M  V30 8594 O 818.679 -2.65338 0.575165 0
M  V30 8595 C 817.135 -1.90665 3.05246 0
M  V30 8596 C 816.743 -1.11415 4.33925 0
M  V30 8597 C 818.487 -2.63719 3.32645 0
M  V30 8598 C 816.394 -1.96852 5.57677 0
M  V30 8599 H 815.324 -0.393676 0.643067 0
M  V30 8600 H 817.975 -0.302003 1.80998 0
M  V30 8601 H 816.357 -2.68864 2.90737 0
M  V30 8602 H 817.531 -0.378956 4.59239 0
M  V30 8603 H 815.846 -0.499853 4.13389 0
M  V30 8604 H 818.443 -3.27974 4.223 0
M  V30 8605 H 818.786 -3.32047 2.51098 0
M  V30 8606 H 819.319 -1.92574 3.48081 0
M  V30 8607 H 816.058 -1.33009 6.41864 0
M  V30 8608 H 815.578 -2.68069 5.36562 0
M  V30 8609 H 817.257 -2.55127 5.94575 0
M  V30 8610 N 817.389 -1.46805 -0.573248 0
M  V30 8611 C 818.299 -1.60687 -1.70929 0
M  V30 8612 C 819.315 -0.490084 -1.66956 0
M  V30 8613 O 820.491 -0.755482 -1.86693 0
M  V30 8614 C 817.556 -1.60259 -3.07438 0
M  V30 8615 C 816.617 -2.83242 -3.22603 0
M  V30 8616 C 815.85 -2.82825 -4.52599 0
M  V30 8617 O 816.073 -1.92113 -5.37074 0
M  V30 8618 O 815.007 -3.74489 -4.71213 0
M  V30 8619 H 818.833 -2.56782 -1.62163 0
M  V30 8620 H 816.418 -1.29706 -0.741399 0
M  V30 8621 H 818.3 -1.6275 -3.88704 0
M  V30 8622 H 816.975 -0.673268 -3.16621 0
M  V30 8623 H 815.882 -2.86302 -2.40794 0
M  V30 8624 H 817.215 -3.75415 -3.18315 0
M  V30 8625 N 818.867 0.818669 -1.34668 0
M  V30 8626 C 820.092 1.61193 -1.30505 0
M  V30 8627 C 820.517 1.87734 0.117341 0
M  V30 8628 O 819.875 1.45591 1.08042 0
M  V30 8629 C 819.923 2.92733 -2.1057 0
M  V30 8630 O 819.027 3.85 -1.47813 0
M  V30 8631 H 818.368 0.490085 -0.44801 0
M  V30 8632 H 820.898 1.01701 -1.77534 0
M  V30 8633 H 820.908 3.42262 -2.22082 0
M  V30 8634 H 819.583 2.7274 -3.13984 0
M  V30 8635 H 818.16 3.43525 -1.45069 0
M  V30 8636 N 820.346 1.18468 1.03938 0
M  V30 8637 C 821.576 1.0043 1.80547 0
M  V30 8638 C 821.984 -0.450407 1.83761 0
M  V30 8639 O 821.327 -1.32463 1.27276 0
M  V30 8640 C 821.389 1.48437 3.27424 0
M  V30 8641 C 821.053 2.96372 3.47869 0
M  V30 8642 C 822.05 3.94217 3.38953 0
M  V30 8643 C 819.735 3.34831 3.74424 0
M  V30 8644 C 821.729 5.28517 3.56298 0
M  V30 8645 C 819.416 4.69294 3.91416 0
M  V30 8646 C 820.414 5.65946 3.82354 0
M  V30 8647 O 820.102 6.97974 3.98858 0
M  V30 8648 H 819.834 0.354853 0.575374 0
M  V30 8649 H 822.388 1.57473 1.31876 0
M  V30 8650 H 820.618 0.857601 3.7707 0
M  V30 8651 H 822.307 1.2677 3.85596 0
M  V30 8652 H 823.073 3.6585 3.184 0
M  V30 8653 H 818.952 2.60161 3.80575 0
M  V30 8654 H 822.496 6.03943 3.49141 0
M  V30 8655 H 818.393 4.97361 4.11463 0
M  V30 8656 H 819.161 7.04895 4.1601 0
M  V30 8657 N 821.824 -1.22873 0.986916 0
M  V30 8658 C 822.734 -2.28277 0.540978 0
M  V30 8659 C 823.75 -1.69164 -0.407363 0
M  V30 8660 O 824.926 -1.99504 -0.275674 0
M  V30 8661 C 821.991 -3.46404 -0.143181 0
M  V30 8662 C 821.052 -4.20854 0.847375 0
M  V30 8663 C 820.285 -5.33341 0.19577 0
M  V30 8664 O 820.508 -5.61356 -1.0117 0
M  V30 8665 O 819.442 -5.95169 0.897623 0
M  V30 8666 H 823.268 -2.68578 1.41773 0
M  V30 8667 H 820.853 -1.28927 0.754867 0
M  V30 8668 H 822.735 -4.18096 -0.526676 0
M  V30 8669 H 821.41 -3.08041 -0.994593 0
M  V30 8670 H 820.317 -3.51459 1.28169 0
M  V30 8671 H 821.65 -4.63082 1.6678 0
M  V30 8672 N 823.302 -0.75937 -1.38099 0
M  V30 8673 C 824.55 -0.317485 -1.99591 0
M  V30 8674 C 824.871 1.10628 -1.60581 0
M  V30 8675 O 824.141 1.7575 -0.865378 0
M  V30 8676 H 822.721 -0.114397 -0.738189 0
M  V30 8677 H 825.383 -0.974749 -1.68774 0
M  V30 8678 H 824.479 -0.385227 -3.09713 0
M  V30 8679 N 824.78 1.49157 -0.508906 0
M  V30 8680 C 825.728 2.30922 0.278906 0
M  V30 8681 C 826.722 1.39889 0.955382 0
M  V30 8682 O 827.928 1.56901 0.882169 0
M  V30 8683 H 824.303 0.744087 0.108805 0
M  V30 8684 H 826.274 2.95277 -0.430583 0
M  V30 8685 C 825.023 3.21432 1.32576 0
M  V30 8686 H 824.346 3.91413 0.814634 0
M  V30 8687 H 825.786 3.81568 1.84882 0
M  V30 8688 C 824.245 2.41583 2.34817 0
M  V30 8689 O 824.775 2.1256 3.40854 0
M  V30 8690 N 822.981 2.03462 2.07489 0
M  V30 8691 H 822.528 2.27265 1.21278 0
M  V30 8692 H 822.486 1.50345 2.76123 0
M  V30 8693 N 826.258 0.243083 1.55714 0
M  V30 8694 C 827.483 -0.389944 2.03701 0
M  V30 8695 C 827.908 -1.51025 1.12129 0
M  V30 8696 O 827.266 -1.80944 0.11352 0
M  V30 8697 C 827.314 -0.878649 3.49731 0
M  V30 8698 O 826.418 -1.98851 3.61292 0
M  V30 8699 H 825.759 -0.0855115 0.658471 0
M  V30 8700 H 828.289 0.368023 2.01263 0
M  V30 8701 H 828.299 -1.18287 3.90477 0
M  V30 8702 H 826.974 -0.0588107 4.15858 0
M  V30 8703 H 825.551 -1.68928 3.32442 0
M  V30 8704 N 827.736 -1.57571 -0.0300757 0
M  V30 8705 C 828.966 -1.93204 -0.731828 0
M  V30 8706 C 829.374 -0.841156 -1.69473 0
M  V30 8707 O 828.717 0.191231 -1.82702 0
M  V30 8708 C 828.779 -3.2463 -1.54453 0
M  V30 8709 C 828.443 -4.50862 -0.746507 0
M  V30 8710 C 829.44 -5.19879 -0.0472309 0
M  V30 8711 C 827.125 -4.9738 -0.701347 0
M  V30 8712 C 829.119 -6.33692 0.686518 0
M  V30 8713 C 826.806 -6.11089 0.036148 0
M  V30 8714 C 827.804 -6.791 0.728841 0
M  V30 8715 O 827.492 -7.90635 1.45436 0
M  V30 8716 H 827.224 -0.6423 -0.210775 0
M  V30 8717 H 829.778 -2.05398 0.00804194 0
M  V30 8718 H 828.008 -3.0876 -2.32818 0
M  V30 8719 H 829.697 -3.45597 -2.1288 0
M  V30 8720 H 830.463 -4.84945 -0.0731582 0
M  V30 8721 H 826.342 -4.44288 -1.23001 0
M  V30 8722 H 829.886 -6.86711 1.22773 0
M  V30 8723 H 825.783 -6.45468 0.064002 0
M  V30 8724 H 826.551 -8.06988 1.36794 0
M  V30 8725 N 829.214 0.302327 -1.54673 0
M  V30 8726 C 830.442 1.05669 -1.77881 0
M  V30 8727 C 830.857 1.80983 -0.537648 0
M  V30 8728 O 830.214 1.7573 0.492467 0
M  V30 8729 C 830.265 2.03828 -2.98557 0
M  V30 8730 O 829.986 1.3157 -4.17877 0
M  V30 8731 C 831.487 2.91314 -3.34143 0
M  V30 8732 H 828.707 0.313436 -0.593295 0
M  V30 8733 H 831.251 0.342003 -2.0162 0
M  V30 8734 H 829.406 2.70801 -2.7703 0
M  V30 8735 H 829.82 1.97481 -4.85903 0
M  V30 8736 H 831.294 3.56042 -4.21827 0
M  V30 8737 H 831.771 3.59544 -2.52239 0
M  V30 8738 H 832.377 2.29874 -3.57824 0
M  V30 8739 N 830.692 1.47107 0.565454 0
M  V30 8740 C 831.939 1.53308 1.32299 0
M  V30 8741 C 832.267 0.1919 1.93551 0
M  V30 8742 O 831.522 -0.81435 1.77952 0
M  V30 8743 C 831.821 2.59309 2.45954 0
M  V30 8744 C 831.487 4.02827 2.02586 0
M  V30 8745 C 830.149 4.41897 1.90474 0
M  V30 8746 C 832.501 4.92913 1.6937 0
M  V30 8747 C 829.829 5.68898 1.4343 0
M  V30 8748 C 832.181 6.20368 1.238 0
M  V30 8749 C 830.845 6.58327 1.10278 0
M  V30 8750 H 830.115 0.560993 0.484116 0
M  V30 8751 H 832.762 1.80667 0.634965 0
M  V30 8752 H 831.067 2.25676 3.20277 0
M  V30 8753 H 832.764 2.61332 3.04149 0
M  V30 8754 H 829.354 3.71953 2.12952 0
M  V30 8755 H 833.538 4.63433 1.77605 0
M  V30 8756 H 828.794 5.97065 1.31618 0
M  V30 8757 H 832.968 6.89589 0.971586 0
M  V30 8758 H 830.595 7.56628 0.736027 0
M  V30 8759 N 832.17 -0.811516 1.35101 0
M  V30 8760 C 833.419 -1.56343 1.27435 0
M  V30 8761 C 833.732 -1.95019 -0.150696 0
M  V30 8762 O 834.938 -2.6924 -0.349586 0
M  V30 8763 C 833.394 -2.82124 2.23459 0
M  V30 8764 C 833.002 -2.50706 3.71283 0
M  V30 8765 C 834.746 -3.60137 2.24726 0
M  V30 8766 C 832.653 -3.72748 4.59143 0
M  V30 8767 H 831.583 -0.58682 0.473453 0
M  V30 8768 H 834.234 -0.892465 1.60335 0
M  V30 8769 H 832.616 -3.50905 1.83525 0
M  V30 8770 H 833.79 -1.89962 4.19823 0
M  V30 8771 H 832.105 -1.85947 3.72576 0
M  V30 8772 H 834.702 -4.50775 2.87587 0
M  V30 8773 H 835.045 -3.97101 1.24965 0
M  V30 8774 H 835.578 -2.98311 2.63164 0
M  V30 8775 H 832.317 -3.40896 5.59884 0
M  V30 8776 H 831.837 -4.32735 4.15332 0
M  V30 8777 H 833.516 -4.40033 4.74321 0
M  V30 8778 N 833.648 -1.19017 -1.03309 0
M  V30 8779 C 834.925 -0.899659 -1.73682 0
M  V30 8780 C 835.305 0.595677 -2.02521 0
M  V30 8781 O 834.653 1.55263 -1.67648 0
M  V30 8782 C 834.863 -1.75508 -3.01659 0
M  V30 8783 C 836.211 -1.98679 -3.75249 0
M  V30 8784 O 837.235 -1.72624 -3.11576 0
M  V30 8785 O 836.094 -2.42587 -4.89708 0
M  V30 8786 H 833.188 -0.334903 -0.756154 0
M  V30 8787 H 835.734 -1.29809 -1.09305 0
M  V30 8788 H 834.506 -2.7684 -2.76542 0
M  V30 8789 H 834.129 -1.35565 -3.73775 0
M  V30 8790 N 835.127 1.22348 -0.993418 0
M  V30 8791 C 836.538 1.72893 -0.704616 0
M  V30 8792 C 836.889 1.80095 0.778483 0
M  V30 8793 O 836.014 1.4476 1.60853 0
M  V30 8794 C 836.609 3.14 -1.27237 0
M  V30 8795 C 835.168 3.61949 -1.03294 0
M  V30 8796 C 834.315 2.39816 -1.39225 0
M  V30 8797 H 837.266 1.07688 -1.16572 0
M  V30 8798 H 837.287 3.74886 -0.651212 0
M  V30 8799 H 836.799 3.08727 -2.3518 0
M  V30 8800 H 834.9 3.72588 0.0298329 0
M  V30 8801 H 835.013 4.48051 -1.69668 0
M  V30 8802 H 833.377 2.41448 -0.810849 0
M  V30 8803 H 834.16 2.37203 -2.48172 0
M  V30 8804 N 836.605 0.766683 1.37694 0
M  V30 8805 C 837.833 0.339939 2.04088 0
M  V30 8806 C 838.248 -1.03617 1.57826 0
M  V30 8807 O 837.605 -1.6605 0.757214 0
M  V30 8808 C 837.656 0.368269 3.59619 0
M  V30 8809 O 837.377 1.69009 4.04188 0
M  V30 8810 C 838.878 -0.0707053 4.43244 0
M  V30 8811 H 836.098 0.143189 0.655544 0
M  V30 8812 H 838.642 1.03919 1.76128 0
M  V30 8813 H 836.797 -0.282359 3.8637 0
M  V30 8814 H 837.211 1.62523 4.98685 0
M  V30 8815 H 838.685 0.000273538 5.52 0
M  V30 8816 H 839.162 -1.1204 4.24669 0
M  V30 8817 H 839.768 0.551543 4.21709 0
M  V30 8818 N 838.083 -1.48885 0.516809 0
M  V30 8819 C 839.015 -2.27357 -0.290061 0
M  V30 8820 C 840.028 -1.34558 -0.916406 0
M  V30 8821 O 841.217 -1.59715 -0.797073 0
M  V30 8822 C 838.317 -3.07496 -1.42476 0
M  V30 8823 C 837.49 -4.27982 -0.902793 0
M  V30 8824 C 836.549 -4.90038 -1.91701 0
M  V30 8825 O 835.575 -5.49643 -1.47922 0
M  V30 8826 N 836.777 -4.811 -3.24843 0
M  V30 8827 H 839.542 -2.97244 0.382884 0
M  V30 8828 H 837.103 -1.58064 0.35032 0
M  V30 8829 H 839.095 -3.45882 -2.10113 0
M  V30 8830 H 837.665 -2.40115 -2.00159 0
M  V30 8831 H 836.885 -3.94167 -0.0508272 0
M  V30 8832 H 838.173 -5.06003 -0.532723 0
M  V30 8833 H 837.571 -4.33801 -3.63088 0
M  V30 8834 H 836.128 -5.23625 -3.8815 0
M  V30 8835 N 839.561 -0.251338 -1.55583 0
M  V30 8836 C 840.491 0.640437 -2.24545 0
M  V30 8837 C 841.472 1.17781 -1.22726 0
M  V30 8838 O 842.657 1.21633 -1.5139 0
M  V30 8839 C 839.787 1.8355 -2.94834 0
M  V30 8840 C 838.741 1.4307 -4.03379 0
M  V30 8841 C 838.067 2.70695 -4.61116 0
M  V30 8842 C 839.367 0.59848 -5.1886 0
M  V30 8843 H 841.061 0.0653772 -2.99329 0
M  V30 8844 H 838.607 0.0300042 -1.43969 0
M  V30 8845 H 840.56 2.46505 -3.4178 0
M  V30 8846 H 839.284 2.43601 -2.17546 0
M  V30 8847 H 837.943 0.824474 -3.57209 0
M  V30 8848 H 837.591 3.28954 -3.80524 0
M  V30 8849 H 837.291 2.44332 -5.34393 0
M  V30 8850 H 838.815 3.34541 -5.10798 0
M  V30 8851 H 840.229 1.13244 -5.62004 0
M  V30 8852 H 838.626 0.430728 -5.98552 0
M  V30 8853 H 839.696 -0.38829 -4.83343 0
M  V30 8854 N 841.039 1.57585 0.0217189 0
M  V30 8855 C 842.45 1.7787 0.567377 0
M  V30 8856 C 842.801 0.883337 1.7519 0
M  V30 8857 O 841.926 0.0800819 2.16252 0
M  V30 8858 C 842.521 3.2257 1.03606 0
M  V30 8859 C 841.08 3.44026 1.52718 0
M  V30 8860 C 840.227 2.73313 0.468545 0
M  V30 8861 H 843.178 1.57377 -0.2045 0
M  V30 8862 H 843.199 3.29488 1.9031 0
M  V30 8863 H 842.711 3.87711 0.173739 0
M  V30 8864 H 840.812 2.8407 2.41111 0
M  V30 8865 H 840.925 4.52659 1.56962 0
M  V30 8866 H 839.289 2.37299 0.925263 0
M  V30 8867 H 840.072 3.41141 -0.384438 0
M  V30 8868 N 842.517 -0.29412 1.54831 0
M  V30 8869 C 843.747 -1.04572 1.7818 0
M  V30 8870 C 844.155 -1.81187 0.544776 0
M  V30 8871 O 843.498 -1.769 -0.495169 0
M  V30 8872 C 843.56 -2.06748 2.94101 0
M  V30 8873 C 843.224 -1.49265 4.31936 0
M  V30 8874 C 844.221 -0.919136 5.11711 0
M  V30 8875 C 841.906 -1.52621 4.78552 0
M  V30 8876 C 843.9 -0.386824 6.36225 0
M  V30 8877 C 841.587 -0.990031 6.03027 0
M  V30 8878 C 842.585 -0.421315 6.81699 0
M  V30 8879 O 842.273 0.106713 8.03829 0
M  V30 8880 H 842.005 -0.31559 0.597812 0
M  V30 8881 H 844.559 -0.336817 2.0262 0
M  V30 8882 H 842.789 -2.81339 2.65303 0
M  V30 8883 H 844.478 -2.67865 3.04964 0
M  V30 8884 H 845.244 -0.886062 4.76837 0
M  V30 8885 H 841.123 -1.95826 4.17341 0
M  V30 8886 H 844.667 0.0577248 6.97576 0
M  V30 8887 H 840.564 -1.02027 6.37386 0
M  V30 8888 H 841.332 -0.00593526 8.185 0
M  V30 8889 N 843.995 -1.47404 -0.557645 0
M  V30 8890 C 844.943 -1.60265 -1.68576 0
M  V30 8891 C 845.937 -0.469982 -1.6275 0
M  V30 8892 O 847.143 -0.647764 -1.67941 0
M  V30 8893 H 843.518 -0.504353 -0.557792 0
M  V30 8894 H 845.489 -2.55066 -1.54867 0
M  V30 8895 C 844.238 -1.63369 -3.0693 0
M  V30 8896 H 843.561 -2.49874 -3.12095 0
M  V30 8897 H 845.001 -1.76417 -3.85556 0
M  V30 8898 C 843.46 -0.366921 -3.34896 0
M  V30 8899 O 843.99 0.53218 -3.98159 0
M  V30 8900 N 842.196 -0.247082 -2.89548 0
M  V30 8901 H 841.743 -0.979669 -2.38244 0
M  V30 8902 H 841.701 0.599552 -3.0863 0
M  V30 8903 N 845.473 0.80434 -1.35529 0
M  V30 8904 C 846.383 1.94784 -1.30753 0
M  V30 8905 C 847.399 1.72703 -0.212071 0
M  V30 8906 O 848.575 1.96494 -0.441841 0
M  V30 8907 C 845.64 3.29406 -1.08133 0
M  V30 8908 C 844.701 3.64367 -2.27013 0
M  V30 8909 C 843.934 4.92566 -2.05463 0
M  V30 8910 O 844.157 5.61166 -1.02222 0
M  V30 8911 O 843.091 5.25838 -2.92879 0
M  V30 8912 H 846.917 2.01761 -2.26994 0
M  V30 8913 H 844.502 0.942448 -1.15924 0
M  V30 8914 H 846.384 4.09995 -0.973756 0
M  V30 8915 H 845.059 3.23355 -0.149444 0
M  V30 8916 H 843.966 2.84146 -2.43335 0
M  V30 8917 H 845.299 3.75125 -3.18656 0
M  V30 8918 N 846.951 1.19563 1.02676 0
M  V30 8919 C 847.898 0.935291 2.11 0
M  V30 8920 C 848.868 -0.130685 1.65585 0
M  V30 8921 O 850.053 0.0119062 1.90796 0
M  V30 8922 C 847.193 0.482384 3.41712 0
M  V30 8923 C 846.306 1.61537 4.00662 0
M  V30 8924 C 845.441 1.11378 5.19392 0
M  V30 8925 C 844.48 2.22052 5.70403 0
M  V30 8926 N 843.617 1.73185 6.80405 0
M  V30 8927 H 848.457 1.86275 2.32606 0
M  V30 8928 H 845.994 0.928656 1.14081 0
M  V30 8929 H 847.952 0.20118 4.16715 0
M  V30 8930 H 846.582 -0.408086 3.2021 0
M  V30 8931 H 845.634 2.01173 3.22852 0
M  V30 8932 H 846.946 2.44912 4.34534 0
M  V30 8933 H 846.1 0.787935 6.01562 0
M  V30 8934 H 844.839 0.249789 4.8706 0
M  V30 8935 H 843.844 2.55465 4.86845 0
M  V30 8936 H 845.069 3.08911 6.04774 0
M  V30 8937 H 843.015 0.890973 6.49921 0
M  V30 8938 H 842.932 2.50148 7.13416 0
M  V30 8939 H 844.2 1.4357 7.66164 0
M  V30 8940 N 848.429 -1.21819 0.999893 0
M  V30 8941 C 849.675 -1.91325 0.690373 0
M  V30 8942 C 850.03 -1.76323 -0.769929 0
M  V30 8943 O 849.323 -1.12585 -1.55033 0
M  V30 8944 C 849.517 -3.4193 1.04012 0
M  V30 8945 C 849.346 -3.71585 2.53287 0
M  V30 8946 C 848.116 -3.91219 3.19806 0
M  V30 8947 C 850.314 -3.75502 3.5143 0
M  V30 8948 N 848.296 -4.08246 4.58485 0
M  V30 8949 C 849.667 -3.97753 4.75597 0
M  V30 8950 C 851.722 -3.58383 3.45638 0
M  V30 8951 C 850.425 -4.04662 5.94677 0
M  V30 8952 C 852.451 -3.66555 4.64103 0
M  V30 8953 C 851.813 -3.89263 5.87072 0
M  V30 8954 H 847.912 -0.720484 0.304018 0
M  V30 8955 H 850.496 -1.46595 1.28133 0
M  V30 8956 H 848.667 -3.85452 0.477671 0
M  V30 8957 H 850.399 -3.98846 0.685864 0
M  V30 8958 H 847.154 -3.88917 2.7026 0
M  V30 8959 H 847.578 -4.20673 5.30437 0
M  V30 8960 H 852.22 -3.39807 2.51576 0
M  V30 8961 H 849.938 -4.22039 6.89136 0
M  V30 8962 H 853.524 -3.54639 4.61218 0
M  V30 8963 H 852.404 -3.95424 6.77207 0
M  V30 8964 N 849.908 -0.773975 -1.37286 0
M  V30 8965 C 850.818 -0.162571 -2.34036 0
M  V30 8966 C 851.834 0.677022 -1.60289 0
M  V30 8967 O 853.01 0.596423 -1.92366 0
M  V30 8968 C 850.075 0.70457 -3.39465 0
M  V30 8969 C 849.136 -0.151738 -4.29032 0
M  V30 8970 C 848.369 0.674111 -5.29426 0
M  V30 8971 O 848.592 1.91107 -5.37433 0
M  V30 8972 O 847.526 0.0821398 -6.01844 0
M  V30 8973 H 851.352 -0.962119 -2.88057 0
M  V30 8974 H 848.937 -0.53517 -1.39486 0
M  V30 8975 H 850.819 1.19954 -4.03967 0
M  V30 8976 H 849.494 1.48227 -2.87768 0
M  V30 8977 H 848.401 -0.693118 -3.67623 0
M  V30 8978 H 849.734 -0.892575 -4.84039 0
M  V30 8979 N 851.386 1.48609 -0.524698 0
M  V30 8980 C 852.633 2.02497 0.0113214 0
M  V30 8981 C 852.961 1.40229 1.34781 0
M  V30 8982 O 852.216 0.53557 1.88229 0
M  V30 8983 C 852.515 3.56906 0.187873 0
M  V30 8984 C 852.181 4.37932 -1.07359 0
M  V30 8985 C 850.843 4.59792 -1.41933 0
M  V30 8986 C 853.195 4.84902 -1.911 0
M  V30 8987 C 850.523 5.25868 -2.60154 0
M  V30 8988 C 852.875 5.52281 -3.08495 0
M  V30 8989 C 851.539 5.7238 -3.4342 0
M  V30 8990 H 850.809 0.740988 0.0041428 0
M  V30 8991 H 853.456 1.78651 -0.689652 0
M  V30 8992 H 851.761 3.79563 0.971572 0
M  V30 8993 H 853.458 3.96218 0.617443 0
M  V30 8994 H 850.048 4.21175 -0.794331 0
M  V30 8995 H 854.232 4.67821 -1.65701 0
M  V30 8996 H 849.488 5.39628 -2.87422 0
M  V30 8997 H 853.662 5.87645 -3.73692 0
M  V30 8998 H 851.289 6.23354 -4.35126 0
M  V30 8999 N 852.864 0.259585 1.55447 0
M  V30 9000 C 854.275 -0.241165 1.85136 0
M  V30 9001 C 854.626 -1.56634 1.18153 0
M  V30 9002 O 853.751 -2.11359 0.464351 0
M  V30 9003 C 854.346 -0.444355 3.35873 0
M  V30 9004 C 852.905 -0.889354 3.65742 0
M  V30 9005 C 852.052 0.0262474 2.77288 0
M  V30 9006 H 855.003 0.481808 1.51209 0
M  V30 9007 H 855.024 -1.28517 3.58139 0
M  V30 9008 H 854.536 0.520289 3.84597 0
M  V30 9009 H 852.637 -1.86602 3.22507 0
M  V30 9010 H 852.75 -0.737432 4.73391 0
M  V30 9011 H 851.114 -0.487361 2.49994 0
M  V30 9012 H 851.897 0.986494 3.28821 0
M  V30 9013 N 854.342 -1.57594 -0.0133615 0
M  V30 9014 C 855.758 -1.5527 -0.369255 0
M  V30 9015 C 855.958 -0.987751 -1.7563 0
M  V30 9016 O 855.014 -0.615683 -2.44879 0
M  V30 9017 C 856.327 -2.99602 -0.25672 0
M  V30 9018 C 857.875 -3.11227 -0.332647 0
M  V30 9019 C 858.35 -4.57321 -0.249387 0
M  V30 9020 N 859.841 -4.62177 -0.3077 0
M  V30 9021 C 860.576 -5.72781 -0.26641 0
M  V30 9022 N 860.072 -6.92575 -0.176494 0
M  V30 9023 N 861.865 -5.61204 -0.317295 0
M  V30 9024 H 854.016 -1.92662 0.894154 0
M  V30 9025 H 856.279 -0.884352 0.341505 0
M  V30 9026 H 855.985 -3.44723 0.697072 0
M  V30 9027 H 855.859 -3.6246 -1.04415 0
M  V30 9028 H 858.246 -2.66045 -1.27688 0
M  V30 9029 H 858.327 -2.51171 0.484412 0
M  V30 9030 H 857.971 -5.03174 0.691242 0
M  V30 9031 H 857.901 -5.15306 -1.08476 0
M  V30 9032 H 860.392 -3.75994 -0.379069 0
M  V30 9033 H 860.705 -7.72653 -0.150518 0
M  V30 9034 H 859.05 -6.94854 -0.142314 0
M  V30 9035 H 862.241 -4.66509 -0.385643 0
M  V30 9036 H 862.414 -6.47388 -0.28165 0
M  V30 9037 N 855.82 0.285905 -1.54985 0
M  V30 9038 C 856.768 1.37302 -1.87752 0
M  V30 9039 C 857.762 1.51763 -0.752616 0
M  V30 9040 O 858.968 1.53701 -0.936805 0
M  V30 9041 H 855.343 0.458935 -0.59572 0
M  V30 9042 H 857.314 1.0691 -2.78591 0
M  V30 9043 C 856.063 2.72885 -2.15474 0
M  V30 9044 H 855.386 2.62545 -3.01513 0
M  V30 9045 H 856.826 3.47925 -2.42331 0
M  V30 9046 C 855.285 3.22989 -0.958124 0
M  V30 9047 O 855.815 4.01268 -0.186219 0
M  V30 9048 N 854.021 2.80503 -0.759354 0
M  V30 9049 H 853.568 2.16961 -1.38874 0
M  V30 9050 H 853.526 3.14375 0.0396937 0
M  V30 9051 N 857.298 1.47698 0.54982 0
M  V30 9052 C 858.246 1.61156 1.67724 0
M  V30 9053 C 859.24 0.478606 1.62498 0
M  V30 9054 O 860.446 0.656661 1.67595 0
M  V30 9055 H 856.821 0.507304 0.55511 0
M  V30 9056 H 858.792 2.55884 1.53512 0
M  V30 9057 C 857.541 1.64994 3.06059 0
M  V30 9058 H 856.864 2.51525 3.10765 0
M  V30 9059 H 858.304 1.78459 3.84615 0
M  V30 9060 C 856.763 0.384677 3.34697 0
M  V30 9061 O 857.293 -0.511057 3.98436 0
M  V30 9062 N 855.499 0.262434 2.89413 0
M  V30 9063 H 855.046 0.99229 2.37721 0
M  V30 9064 H 855.004 -0.583177 3.08944 0
M  V30 9065 N 858.776 -0.797141 1.35954 0
M  V30 9066 C 859.706 -1.92387 1.32323 0
M  V30 9067 C 860.687 -1.68967 0.196007 0
M  V30 9068 O 861.872 -1.90193 0.39245 0
M  V30 9069 C 859.002 -3.29286 1.10398 0
M  V30 9070 C 857.956 -3.67212 2.19862 0
M  V30 9071 C 857.282 -5.02377 1.8309 0
M  V30 9072 C 858.582 -3.76602 3.61896 0
M  V30 9073 H 860.276 -1.95683 2.26602 0
M  V30 9074 H 857.822 -0.94007 1.09081 0
M  V30 9075 H 859.775 -4.07721 1.06495 0
M  V30 9076 H 858.499 -3.26358 0.125668 0
M  V30 9077 H 857.158 -2.91069 2.22878 0
M  V30 9078 H 856.806 -4.95961 0.838527 0
M  V30 9079 H 856.506 -5.28722 2.56372 0
M  V30 9080 H 858.03 -5.8324 1.80729 0
M  V30 9081 H 859.444 -4.45246 3.6115 0
M  V30 9082 H 857.841 -4.14425 4.34018 0
M  V30 9083 H 858.911 -2.77906 3.97361 0
M  V30 9084 N 860.254 -1.20106 -1.0204 0
M  V30 9085 C 861.186 -0.904236 -2.10609 0
M  V30 9086 C 862.199 0.106487 -1.62451 0
M  V30 9087 O 863.388 -0.124035 -1.78069 0
M  V30 9088 C 860.488 -0.333423 -3.37256 0
M  V30 9089 C 859.661 -1.39476 -4.14566 0
M  V30 9090 C 858.72 -0.835961 -5.19517 0
M  V30 9091 O 857.746 -1.51573 -5.48648 0
M  V30 9092 N 858.948 0.356531 -5.79404 0
M  V30 9093 H 861.713 -1.8388 -2.36661 0
M  V30 9094 H 859.274 -1.10422 -1.184 0
M  V30 9095 H 861.266 0.0544571 -4.04663 0
M  V30 9096 H 859.836 0.505608 -3.08484 0
M  V30 9097 H 859.056 -1.95714 -3.42184 0
M  V30 9098 H 860.344 -2.10967 -4.63001 0
M  V30 9099 H 859.742 0.926143 -5.58067 0
M  V30 9100 H 858.299 0.686093 -6.48179 0
M  V30 9101 N 861.732 1.21287 -1.00634 0
M  V30 9102 C 862.979 1.90389 -0.6898 0
M  V30 9103 C 863.307 1.78193 0.779574 0
M  V30 9104 O 862.562 1.15358 1.58085 0
M  V30 9105 C 862.861 3.41374 -1.05824 0
M  V30 9106 C 862.527 3.73766 -2.5221 0
M  V30 9107 C 861.189 3.82317 -2.92211 0
M  V30 9108 C 863.541 3.88871 -3.47028 0
M  V30 9109 C 860.869 4.03423 -4.2599 0
M  V30 9110 C 863.221 4.11484 -4.80483 0
M  V30 9111 C 861.885 4.18263 -5.20204 0
M  V30 9112 H 861.155 0.696683 -0.252416 0
M  V30 9113 H 863.802 1.43769 -1.26502 0
M  V30 9114 H 862.107 3.8974 -0.401281 0
M  V30 9115 H 863.804 3.93118 -0.79116 0
M  V30 9116 H 860.394 3.67702 -2.20212 0
M  V30 9117 H 864.578 3.8163 -3.17289 0
M  V30 9118 H 859.834 4.06902 -4.56334 0
M  V30 9119 H 864.008 4.22115 -5.53888 0
M  V30 9120 H 861.635 4.34369 -6.23881 0
M  V30 9121 N 863.21 0.781244 1.36873 0
M  V30 9122 C 864.458 0.349198 1.9906 0
M  V30 9123 C 864.779 -1.0806 1.62321 0
M  V30 9124 O 864.049 -1.74351 0.893229 0
M  V30 9125 H 862.629 0.126126 0.736275 0
M  V30 9126 H 865.291 1.00148 1.67202 0
M  V30 9127 H 864.387 0.434451 3.09061 0
M  V30 9128 N 864.689 -1.48329 0.532571 0
M  V30 9129 C 865.636 -2.29663 -0.228779 0
M  V30 9130 C 866.606 -1.37529 -0.931401 0
M  V30 9131 O 867.791 -1.66493 -0.931921 0
M  V30 9132 C 864.931 -3.20955 -1.26814 0
M  V30 9133 C 864.044 -4.28168 -0.574099 0
M  V30 9134 C 863.179 -5.06638 -1.59661 0
M  V30 9135 C 862.218 -6.05651 -0.88618 0
M  V30 9136 N 861.355 -6.77169 -1.85436 0
M  V30 9137 H 866.195 -2.94255 0.47098 0
M  V30 9138 H 863.732 -1.45061 0.2441 0
M  V30 9139 H 865.69 -3.72285 -1.88307 0
M  V30 9140 H 864.32 -2.58281 -1.93625 0
M  V30 9141 H 863.372 -3.80085 0.154827 0
M  V30 9142 H 864.684 -4.98797 -0.0163984 0
M  V30 9143 H 863.838 -5.61995 -2.28576 0
M  V30 9144 H 862.577 -4.35854 -2.18821 0
M  V30 9145 H 861.582 -5.49495 -0.182981 0
M  V30 9146 H 862.807 -6.78434 -0.300659 0
M  V30 9147 H 860.753 -6.09134 -2.43499 0
M  V30 9148 H 860.67 -7.43882 -1.34816 0
M  V30 9149 H 861.938 -7.37114 -2.53541 0
M  V30 9150 N 866.167 -0.267825 -1.55308 0
M  V30 9151 C 867.395 0.354587 -2.03839 0
M  V30 9152 C 867.81 1.50007 -1.14644 0
M  V30 9153 O 867.167 1.81752 -0.165055 0
M  V30 9154 C 867.218 0.84254 -3.51544 0
M  V30 9155 O 866.939 -0.257318 -4.37344 0
M  V30 9156 C 868.44 1.53351 -4.15931 0
M  V30 9157 H 865.66 0.0818131 -0.665994 0
M  V30 9158 H 868.204 -0.397795 -2.00594 0
M  V30 9159 H 866.359 1.54503 -3.55257 0
M  V30 9160 H 866.773 0.116593 -5.2437 0
M  V30 9161 H 868.247 1.82643 -5.20908 0
M  V30 9162 H 868.724 2.4626 -3.63666 0
M  V30 9163 H 869.33 0.87506 -4.162 0
M  V30 9164 N 867.645 1.57599 0.00500368 0
M  V30 9165 C 868.575 2.11143 0.99705 0
M  V30 9166 C 869.556 1.0194 1.3617 0
M  V30 9167 O 870.741 1.29596 1.44632 0
M  V30 9168 C 867.871 2.61062 2.2905 0
M  V30 9169 C 866.825 3.74745 2.0676 0
M  V30 9170 C 866.151 4.10961 3.42075 0
M  V30 9171 C 867.451 5.02222 1.43424 0
M  V30 9172 H 869.145 2.94281 0.551251 0
M  V30 9173 H 866.691 1.41565 0.263715 0
M  V30 9174 H 868.644 2.97146 2.98801 0
M  V30 9175 H 867.368 1.75038 2.75734 0
M  V30 9176 H 866.027 3.39047 1.39436 0
M  V30 9177 H 865.675 3.21968 3.86453 0
M  V30 9178 H 865.375 4.87549 3.27979 0
M  V30 9179 H 866.899 4.49599 4.1315 0
M  V30 9180 H 868.313 5.36109 2.03125 0
M  V30 9181 H 866.71 5.83581 1.39831 0
M  V30 9182 H 867.78 4.83224 0.40285 0
M  V30 9183 N 869.123 -0.277682 1.55134 0
M  V30 9184 C 870.371 -1.00791 1.75173 0
M  V30 9185 C 870.692 -1.86987 0.553266 0
M  V30 9186 O 869.962 -1.91079 -0.43195 0
M  V30 9187 H 868.542 -0.375129 0.645978 0
M  V30 9188 H 871.204 -0.303041 1.9253 0
M  V30 9189 H 870.3 -1.64756 2.6507 0
M  V30 9190 N 870.601 -1.47988 -0.541979 0
M  V30 9191 C 871.564 -1.61148 -1.62984 0
M  V30 9192 C 872.564 -0.48553 -1.53295 0
M  V30 9193 O 873.754 -0.751012 -1.5718 0
M  V30 9194 C 870.886 -1.57038 -3.02576 0
M  V30 9195 H 872.079 -2.58138 -1.52659 0
M  V30 9196 H 869.632 -1.36405 -0.763106 0
M  V30 9197 H 870.367 -0.614807 -3.18419 0
M  V30 9198 H 870.152 -2.38769 -3.11018 0
M  V30 9199 H 871.642 -1.69416 -3.81691 0
M  V30 9200 N 872.079 0.78992 -1.36375 0
M  V30 9201 C 873.327 1.54472 -1.30319 0
M  V30 9202 C 873.648 1.94647 0.117338 0
M  V30 9203 O 872.918 1.64906 1.05748 0
M  V30 9204 H 871.498 0.572879 -0.479394 0
M  V30 9205 H 874.16 0.941245 -1.70665 0
M  V30 9206 H 873.256 2.45252 -1.93024 0
M  V30 9207 N 873.557 1.20646 1.01402 0
M  V30 9208 C 874.52 0.959314 2.08158 0
M  V30 9209 C 875.52 -0.0661558 1.60664 0
M  V30 9210 O 876.71 0.170177 1.73367 0
M  V30 9211 C 873.842 0.444785 3.37986 0
M  V30 9212 H 875.035 1.90631 2.31517 0
M  V30 9213 H 872.588 1.02219 1.18241 0
M  V30 9214 H 873.323 -0.507553 3.20304 0
M  V30 9215 H 873.108 1.18435 3.73785 0
M  V30 9216 H 874.598 0.291443 4.16582 0
M  V30 9217 N 875.035 -1.20752 1.01276 0
M  V30 9218 C 876.282 -1.90021 0.699887 0
M  V30 9219 C 876.61 -1.78604 -0.770113 0
M  V30 9220 O 875.865 -1.16195 -1.57471 0
M  V30 9221 C 876.164 -3.40808 1.07633 0
M  V30 9222 C 875.83 -3.72423 2.54189 0
M  V30 9223 C 874.492 -3.80762 2.94234 0
M  V30 9224 C 876.844 -3.87025 3.49086 0
M  V30 9225 C 874.172 -4.01158 4.28123 0
M  V30 9226 C 876.524 -4.0893 4.82658 0
M  V30 9227 C 875.188 -4.15498 5.22415 0
M  V30 9228 H 874.458 -0.695335 0.256107 0
M  V30 9229 H 877.105 -1.43096 1.27263 0
M  V30 9230 H 875.41 -3.89521 0.421944 0
M  V30 9231 H 877.107 -3.92693 0.811997 0
M  V30 9232 H 873.697 -3.66529 2.22158 0
M  V30 9233 H 877.881 -3.79942 3.19309 0
M  V30 9234 H 873.137 -4.04476 4.58486 0
M  V30 9235 H 877.311 -4.19172 5.56119 0
M  V30 9236 H 874.938 -4.31055 6.26176 0
M  V30 9237 N 876.513 -0.788492 -1.36457 0
M  V30 9238 C 877.761 -0.359749 -1.98872 0
M  V30 9239 C 878.082 1.07197 -1.62892 0
M  V30 9240 O 877.352 1.73875 -0.902463 0
M  V30 9241 H 875.932 -0.130029 -0.735596 0
M  V30 9242 H 878.594 -1.01033 -1.66668 0
M  V30 9243 H 877.69 -0.450835 -3.08827 0
M  V30 9244 N 877.991 1.48044 -0.54043 0
M  V30 9245 C 878.938 2.29781 0.216597 0
M  V30 9246 C 879.908 1.38021 0.924094 0
M  V30 9247 O 881.093 1.66985 0.923078 0
M  V30 9248 C 878.233 3.21623 1.2511 0
M  V30 9249 C 877.346 4.28467 0.551384 0
M  V30 9250 C 876.481 5.07477 1.56972 0
M  V30 9251 C 875.52 6.06113 0.854048 0
M  V30 9252 N 874.657 6.78143 1.81842 0
M  V30 9253 H 879.497 2.94001 -0.486578 0
M  V30 9254 H 877.034 1.44929 -0.251789 0
M  V30 9255 H 878.992 3.73279 1.8633 0
M  V30 9256 H 877.622 2.59305 1.92252 0
M  V30 9257 H 876.674 3.79997 -0.174982 0
M  V30 9258 H 877.986 4.98799 -0.0100542 0
M  V30 9259 H 877.14 5.63199 2.25592 0
M  V30 9260 H 875.879 4.37008 2.16507 0
M  V30 9261 H 874.884 5.49585 0.153838 0
M  V30 9262 H 876.109 6.78584 0.264675 0
M  V30 9263 H 874.055 6.10417 2.40265 0
M  V30 9264 H 873.972 7.44587 1.3087 0
M  V30 9265 H 875.24 7.38448 2.49628 0
M  V30 9266 N 879.47 0.276058 1.55163 0
M  V30 9267 C 880.716 -0.340959 1.99913 0
M  V30 9268 C 881.049 -1.55434 1.16422 0
M  V30 9269 O 880.324 -1.93081 0.234517 0
M  V30 9270 C 880.607 -0.722211 3.52783 0
M  V30 9271 C 880.46 0.498575 4.47028 0
M  V30 9272 C 881.779 -1.5583 4.11589 0
M  V30 9273 H 878.898 -0.122455 0.726756 0
M  V30 9274 H 881.54 0.38319 1.86096 0
M  V30 9275 H 879.69 -1.33919 3.64689 0
M  V30 9276 H 881.362 1.13713 4.47065 0
M  V30 9277 H 879.605 1.13646 4.18649 0
M  V30 9278 H 880.276 0.188041 5.5168 0
M  V30 9279 H 882.752 -1.03722 4.02965 0
M  V30 9280 H 881.628 -1.79387 5.1876 0
M  V30 9281 H 881.889 -2.53963 3.61877 0
M  V30 9282 N 880.948 -1.576 0.00335426 0
M  V30 9283 C 882.194 -1.90996 -0.681799 0
M  V30 9284 C 882.527 -0.877643 -1.73237 0
M  V30 9285 O 881.802 0.103183 -1.94226 0
M  V30 9286 C 882.085 -3.34961 -1.32187 0
M  V30 9287 C 881.938 -4.48911 -0.28261 0
M  V30 9288 C 883.257 -3.78408 -2.24711 0
M  V30 9289 H 880.376 -0.694596 -0.246386 0
M  V30 9290 H 883.018 -1.89919 0.055336 0
M  V30 9291 H 881.168 -3.36008 -1.95014 0
M  V30 9292 H 882.84 -4.59999 0.346241 0
M  V30 9293 H 881.083 -4.32 0.394768 0
M  V30 9294 H 881.754 -5.46609 -0.769576 0
M  V30 9295 H 884.23 -3.78934 -1.71897 0
M  V30 9296 H 883.106 -4.79885 -2.66461 0
M  V30 9297 H 883.367 -3.12464 -3.1276 0
M  V30 9298 N 882.426 0.269451 -1.5528 0
M  V30 9299 C 883.336 1.35511 -1.91505 0
M  V30 9300 C 884.352 1.53854 -0.812712 0
M  V30 9301 O 885.528 1.67912 -1.1121 0
M  V30 9302 C 882.593 2.6937 -2.18267 0
M  V30 9303 C 881.654 2.59743 -3.41807 0
M  V30 9304 C 880.887 3.87219 -3.67283 0
M  V30 9305 O 881.11 4.88066 -2.95208 0
M  V30 9306 O 880.044 3.87209 -4.60818 0
M  V30 9307 H 883.87 1.07785 -2.8393 0
M  V30 9308 H 881.455 0.468282 -1.41871 0
M  V30 9309 H 883.337 3.48513 -2.36889 0
M  V30 9310 H 882.012 2.96874 -1.29024 0
M  V30 9311 H 880.919 1.78964 -3.28516 0
M  V30 9312 H 882.252 2.37188 -4.3128 0
M  V30 9313 N 883.904 1.48273 0.534124 0
M  V30 9314 C 884.867 1.6201 1.62127 0
M  V30 9315 C 885.867 0.493653 1.53035 0
M  V30 9316 O 887.057 0.759337 1.56779 0
M  V30 9317 C 884.189 1.5864 3.01739 0
M  V30 9318 H 885.382 2.58944 1.51288 0
M  V30 9319 H 882.935 1.36808 0.755861 0
M  V30 9320 H 883.67 0.631685 3.18088 0
M  V30 9321 H 883.455 2.40415 3.09747 0
M  V30 9322 H 884.945 1.71438 3.80787 0
M  V30 9323 N 885.382 -0.782676 1.36792 0
M  V30 9324 C 886.61 -1.57162 1.34565 0
M  V30 9325 C 887.025 -1.88664 -0.0715501 0
M  V30 9326 O 886.382 -1.50633 -1.03033 0
M  V30 9327 C 886.433 -2.88854 2.1736 0
M  V30 9328 O 886.154 -2.58707 3.53557 0
M  V30 9329 C 887.655 -3.83132 2.2299 0
M  V30 9330 H 884.875 -0.487245 0.461338 0
M  V30 9331 H 887.419 -0.970905 1.79982 0
M  V30 9332 H 885.574 -3.45377 1.7548 0
M  V30 9333 H 885.988 -3.42961 3.96835 0
M  V30 9334 H 887.462 -4.72575 2.85266 0
M  V30 9335 H 887.939 -4.21472 1.23524 0
M  V30 9336 H 888.545 -3.32541 2.65135 0
M  V30 9337 N 886.86 -1.21182 -1.00761 0
M  V30 9338 C 887.823 -0.970339 -2.07646 0
M  V30 9339 C 888.823 0.0576345 -1.60697 0
M  V30 9340 O 890.013 -0.179369 -1.73274 0
M  V30 9341 C 887.145 -0.462703 -3.37745 0
M  V30 9342 H 888.338 -1.91856 -2.30502 0
M  V30 9343 H 885.891 -1.02844 -1.17698 0
M  V30 9344 H 886.626 0.490559 -3.20568 0
M  V30 9345 H 886.411 -1.20416 -3.73152 0
M  V30 9346 H 887.901 -0.313531 -4.16421 0
M  V30 9347 N 888.338 1.20213 -1.01915 0
M  V30 9348 C 889.585 1.89647 -0.709955 0
M  V30 9349 C 889.913 1.7901 0.760631 0
M  V30 9350 O 889.168 1.17028 1.56853 0
M  V30 9351 C 889.467 3.40232 -1.09438 0
M  V30 9352 C 889.133 3.7107 -2.5616 0
M  V30 9353 C 887.795 3.79196 -2.96249 0
M  V30 9354 C 890.147 3.85169 -3.51133 0
M  V30 9355 C 887.475 3.98882 -4.30244 0
M  V30 9356 C 889.827 4.06365 -4.8482 0
M  V30 9357 C 888.491 4.12722 -5.24611 0
M  V30 9358 H 887.761 0.693967 -0.259791 0
M  V30 9359 H 890.408 1.42419 -1.2802 0
M  V30 9360 H 888.713 3.89292 -0.442596 0
M  V30 9361 H 890.41 3.92257 -0.832811 0
M  V30 9362 H 887 3.65346 -2.24099 0
M  V30 9363 H 891.184 3.78243 -3.21319 0
M  V30 9364 H 886.44 4.02039 -4.60624 0
M  V30 9365 H 890.614 4.16216 -5.58334 0
M  V30 9366 H 888.241 4.27728 -6.28453 0
M  V30 9367 N 889.816 0.795718 1.36037 0
M  V30 9368 C 891.064 0.370291 1.98679 0
M  V30 9369 C 891.385 -1.06332 1.63458 0
M  V30 9370 O 890.655 -1.73394 0.911671 0
M  V30 9371 H 889.235 0.133928 0.734896 0
M  V30 9372 H 891.897 1.01915 1.6613 0
M  V30 9373 H 890.993 0.467207 3.08583 0
M  V30 9374 N 891.294 -1.47756 0.548274 0
M  V30 9375 C 892.224 -2.32702 -0.19284 0
M  V30 9376 C 893.205 -1.43237 -0.917457 0
M  V30 9377 O 894.39 -1.72103 -0.89967 0
M  V30 9378 C 891.52 -3.24831 -1.22891 0
M  V30 9379 C 890.474 -4.23466 -0.621312 0
M  V30 9380 C 889.8 -5.04856 -1.76137 0
M  V30 9381 C 891.1 -5.20616 0.419055 0
M  V30 9382 H 892.794 -2.94914 0.516323 0
M  V30 9383 H 890.34 -1.41818 0.24975 0
M  V30 9384 H 892.293 -3.83094 -1.75547 0
M  V30 9385 H 891.017 -2.60656 -1.9679 0
M  V30 9386 H 889.676 -3.66416 -0.116123 0
M  V30 9387 H 889.324 -4.37091 -2.48918 0
M  V30 9388 H 889.024 -5.71629 -1.36065 0
M  V30 9389 H 890.548 -5.65976 -2.29136 0
M  V30 9390 H 891.962 -5.73296 -0.0211034 0
M  V30 9391 H 890.359 -5.95543 0.738163 0
M  V30 9392 H 891.429 -4.66638 1.31822 0
M  V30 9393 N 892.772 -0.284283 -1.55015 0
M  V30 9394 C 894.02 0.329212 -1.99401 0
M  V30 9395 C 894.341 1.55687 -1.17416 0
M  V30 9396 O 893.611 1.94087 -0.265937 0
M  V30 9397 H 892.191 0.12463 -0.73653 0
M  V30 9398 H 894.853 -0.391743 -1.90922 0
M  V30 9399 H 893.949 0.61278 -3.06025 0
M  V30 9400 N 894.251 1.57596 -0.0117121 0
M  V30 9401 C 895.198 2.09153 0.975897 0
M  V30 9402 C 896.168 0.989579 1.33404 0
M  V30 9403 O 897.353 1.26273 1.43038 0
M  V30 9404 C 894.493 2.60906 2.2588 0
M  V30 9405 C 893.606 3.85046 1.95866 0
M  V30 9406 C 892.741 4.25257 3.18323 0
M  V30 9407 C 891.78 5.42202 2.84049 0
M  V30 9408 N 890.917 5.77651 3.99079 0
M  V30 9409 H 895.757 2.93261 0.52931 0
M  V30 9410 H 893.294 1.44965 0.249691 0
M  V30 9411 H 895.252 2.88995 3.00895 0
M  V30 9412 H 893.882 1.79654 2.68187 0
M  V30 9413 H 892.934 3.63794 1.11168 0
M  V30 9414 H 894.246 4.70151 1.66611 0
M  V30 9415 H 893.4 4.5469 4.01674 0
M  V30 9416 H 892.139 3.38884 3.50726 0
M  V30 9417 H 891.144 5.1248 1.99107 0
M  V30 9418 H 892.369 6.3026 2.52881 0
M  V30 9419 H 890.315 4.94235 4.31356 0
M  V30 9420 H 890.232 6.57356 3.73388 0
M  V30 9421 H 891.5 6.11681 4.83183 0
M  V30 9422 N 895.729 -0.261212 1.5542 0
M  V30 9423 C 896.639 -1.34493 1.92221 0
M  V30 9424 C 897.655 -1.53421 0.82086 0
M  V30 9425 O 898.831 -1.6732 1.12099 0
M  V30 9426 C 895.896 -2.68209 2.19692 0
M  V30 9427 C 894.957 -2.57927 3.43179 0
M  V30 9428 C 894.19 -3.85266 3.69331 0
M  V30 9429 O 894.413 -4.86493 2.97793 0
M  V30 9430 O 893.347 -3.8476 4.62865 0
M  V30 9431 H 897.173 -1.06278 2.84497 0
M  V30 9432 H 894.758 -0.460752 1.42118 0
M  V30 9433 H 896.64 -3.47252 2.38734 0
M  V30 9434 H 895.315 -2.96186 1.30597 0
M  V30 9435 H 894.222 -1.77219 3.2946 0
M  V30 9436 H 895.555 -2.34898 4.32532 0
M  V30 9437 N 897.207 -1.48554 -0.526253 0
M  V30 9438 C 898.484 -1.47252 -1.28748 0
M  V30 9439 C 898.864 -0.186245 -2.10277 0
M  V30 9440 O 898.212 0.831954 -2.12816 0
M  V30 9441 C 898.422 -2.73672 -2.16575 0
M  V30 9442 C 899.77 -3.22151 -2.76593 0
M  V30 9443 O 900.794 -2.74614 -2.2686 0
M  V30 9444 O 899.653 -4.04877 -3.67066 0
M  V30 9445 H 896.747 -0.588242 -0.581292 0
M  V30 9446 H 899.293 -1.60792 -0.5426 0
M  V30 9447 H 898.065 -3.58798 -1.56139 0
M  V30 9448 H 897.688 -2.6287 -2.98304 0
M  V30 9449 N 898.685 0.775411 -1.37205 0
M  V30 9450 C 899.648 1.8702 -1.325 0
M  V30 9451 C 900.648 1.5915 -0.229793 0
M  V30 9452 O 901.838 1.673 -0.485423 0
M  V30 9453 C 898.97 3.24085 -1.05745 0
M  V30 9454 H 900.163 1.92604 -2.29878 0
M  V30 9455 H 897.716 0.97476 -1.22181 0
M  V30 9456 H 898.451 3.24178 -0.0888371 0
M  V30 9457 H 898.236 3.45705 -1.85016 0
M  V30 9458 H 899.726 4.0416 -1.05094 0
M  V30 9459 N 900.163 1.21714 1.00117 0
M  V30 9460 C 901.409 1.03823 1.74208 0
M  V30 9461 C 901.742 -0.426733 1.89454 0
M  V30 9462 O 901.017 -1.31658 1.43166 0
M  V30 9463 C 901.3 1.74047 3.15246 0
M  V30 9464 C 901.153 3.28087 3.077 0
M  V30 9465 C 902.472 1.48614 4.14249 0
M  V30 9466 H 899.591 0.378573 0.632338 0
M  V30 9467 H 902.233 1.49942 1.16694 0
M  V30 9468 H 900.383 1.3484 3.64349 0
M  V30 9469 H 902.055 3.76686 2.6628 0
M  V30 9470 H 900.298 3.58191 2.44707 0
M  V30 9471 H 900.969 3.72392 4.07466 0
M  V30 9472 H 903.445 1.82656 3.73866 0
M  V30 9473 H 902.321 2.00257 5.11066 0
M  V30 9474 H 902.582 0.416957 4.40129 0
M  V30 9475 N 901.641 -1.19671 1.02551 0
M  V30 9476 C 902.571 -2.25009 0.623965 0
M  V30 9477 C 903.552 -1.66129 -0.36538 0
M  V30 9478 O 904.737 -1.92599 -0.248842 0
M  V30 9479 C 901.867 -3.47287 -0.0294869 0
M  V30 9480 C 900.821 -4.18818 0.881781 0
M  V30 9481 C 900.147 -5.34618 0.0936189 0
M  V30 9482 C 901.447 -4.73986 2.19396 0
M  V30 9483 H 903.141 -2.58851 1.50454 0
M  V30 9484 H 900.687 -1.24425 0.724872 0
M  V30 9485 H 902.64 -4.20168 -0.322016 0
M  V30 9486 H 901.364 -3.12635 -0.944838 0
M  V30 9487 H 900.023 -3.47815 1.15845 0
M  V30 9488 H 899.671 -4.9621 -0.823661 0
M  V30 9489 H 899.371 -5.83409 0.700568 0
M  V30 9490 H 900.895 -6.10297 -0.192249 0
M  V30 9491 H 902.309 -5.38639 1.96319 0
M  V30 9492 H 900.706 -5.3325 2.75254 0
M  V30 9493 H 901.776 -3.92238 2.85092 0
M  V30 9494 N 903.119 -0.802921 -1.35613 0
M  V30 9495 C 904.066 -0.20874 -2.29854 0
M  V30 9496 C 905.036 0.655128 -1.52634 0
M  V30 9497 O 906.221 0.600979 -1.81088 0
M  V30 9498 C 903.361 0.639663 -3.3912 0
M  V30 9499 C 902.474 -0.244234 -4.31309 0
M  V30 9500 C 901.609 0.611825 -5.27665 0
M  V30 9501 C 900.648 -0.272698 -6.11492 0
M  V30 9502 N 899.785 0.543122 -6.99996 0
M  V30 9503 H 904.625 -1.01782 -2.80079 0
M  V30 9504 H 902.162 -0.513465 -1.37848 0
M  V30 9505 H 904.12 1.14668 -4.01132 0
M  V30 9506 H 902.75 1.41404 -2.9018 0
M  V30 9507 H 901.802 -0.869322 -3.70334 0
M  V30 9508 H 903.114 -0.925202 -4.90144 0
M  V30 9509 H 902.268 1.18412 -5.95032 0
M  V30 9510 H 901.007 1.32637 -4.69317 0
M  V30 9511 H 900.012 -0.857287 -5.43075 0
M  V30 9512 H 901.237 -0.985051 -6.71918 0
M  V30 9513 H 899.183 1.24171 -6.44141 0
M  V30 9514 H 899.1 -0.0798767 -7.55958 0
M  V30 9515 H 900.368 1.09881 -7.71717 0
M  V30 9516 N 904.597 1.47463 -0.556102 0
M  V30 9517 C 905.843 2.02775 -0.0316806 0
M  V30 9518 C 906.176 1.42967 1.3143 0
M  V30 9519 O 905.451 0.584847 1.85499 0
M  V30 9520 C 905.734 3.60046 0.0625742 0
M  V30 9521 C 905.587 4.30288 -1.31043 0
M  V30 9522 C 906.906 4.33195 0.776553 0
M  V30 9523 H 904.025 0.736886 -0.0129869 0
M  V30 9524 H 906.667 1.75904 -0.718177 0
M  V30 9525 H 904.817 3.83071 0.647231 0
M  V30 9526 H 906.489 4.18607 -1.9382 0
M  V30 9527 H 904.732 3.90685 -1.8854 0
M  V30 9528 H 905.403 5.38861 -1.1972 0
M  V30 9529 H 907.879 4.15156 0.280147 0
M  V30 9530 H 906.755 5.42869 0.81146 0
M  V30 9531 H 907.016 4.02336 1.83244 0
M  V30 9532 N 906.075 0.2925 1.54862 0
M  V30 9533 C 907.038 -0.574423 2.21885 0
M  V30 9534 C 908.038 -1.06791 1.20218 0
M  V30 9535 O 909.228 -0.9653 1.45009 0
M  V30 9536 C 906.36 -1.79438 2.89853 0
M  V30 9537 H 907.553 0.0110319 2.99898 0
M  V30 9538 H 905.106 0.043256 1.5624 0
M  V30 9539 H 905.841 -2.4199 2.15897 0
M  V30 9540 H 905.626 -1.44827 3.64373 0
M  V30 9541 H 907.116 -2.41048 3.41007 0
M  V30 9542 N 907.553 -1.57587 0.0200696 0
M  V30 9543 C 908.799 -1.91708 -0.661503 0
M  V30 9544 C 909.132 -0.895968 -1.72296 0
M  V30 9545 O 908.407 0.082577 -1.94325 0
M  V30 9546 C 908.69 -3.36344 -1.28627 0
M  V30 9547 C 908.543 -4.49186 -0.234982 0
M  V30 9548 C 909.862 -3.80771 -2.20685 0
M  V30 9549 H 906.981 -0.69717 -0.239005 0
M  V30 9550 H 909.623 -1.8985 0.0754764 0
M  V30 9551 H 907.773 -3.38058 -1.91439 0
M  V30 9552 H 909.445 -4.59606 0.395011 0
M  V30 9553 H 907.688 -4.31557 0.440565 0
M  V30 9554 H 908.359 -5.47395 -0.711558 0
M  V30 9555 H 910.835 -3.80735 -1.67868 0
M  V30 9556 H 909.711 -4.82685 -2.61356 0
M  V30 9557 H 909.972 -3.15764 -3.09428 0
M  V30 9558 N 909.032 0.252966 -1.55557 0
M  V30 9559 C 909.979 1.3131 -1.89806 0
M  V30 9560 C 910.949 1.48121 -0.751633 0
M  V30 9561 O 912.134 1.62202 -1.00474 0
M  V30 9562 C 909.274 2.66467 -2.19293 0
M  V30 9563 C 908.387 2.57714 -3.46709 0
M  V30 9564 C 907.522 3.85184 -3.65796 0
M  V30 9565 C 906.561 3.71023 -4.86835 0
M  V30 9566 N 905.698 4.90371 -5.02474 0
M  V30 9567 H 910.538 1.01402 -2.80217 0
M  V30 9568 H 908.075 0.489462 -1.38718 0
M  V30 9569 H 910.033 3.45132 -2.34392 0
M  V30 9570 H 908.663 2.94536 -1.32093 0
M  V30 9571 H 907.715 1.70651 -3.39974 0
M  V30 9572 H 909.027 2.43158 -4.35517 0
M  V30 9573 H 908.181 4.72292 -3.80822 0
M  V30 9574 H 906.92 4.0263 -2.7521 0
M  V30 9575 H 905.925 2.82299 -4.71792 0
M  V30 9576 H 907.15 3.55078 -5.78875 0
M  V30 9577 H 905.096 5.0819 -4.14824 0
M  V30 9578 H 905.013 4.78423 -5.85361 0
M  V30 9579 H 906.281 5.78995 -5.21905 0
M  V30 9580 N 910.51 1.48831 0.518367 0
M  V30 9581 C 911.443 1.588 1.63884 0
M  V30 9582 C 912.421 0.437847 1.56594 0
M  V30 9583 O 913.605 0.651042 1.769 0
M  V30 9584 C 910.732 1.52681 3.02335 0
M  V30 9585 C 909.778 2.7268 3.27945 0
M  V30 9586 S 910.611 4.34536 3.12951 0
M  V30 9587 C 911.767 4.31034 4.53828 0
M  V30 9588 H 912 2.53587 1.5518 0
M  V30 9589 H 909.533 1.37507 0.702218 0
M  V30 9590 H 911.491 1.49837 3.82177 0
M  V30 9591 H 910.152 0.592107 3.08469 0
M  V30 9592 H 909.345 2.64569 4.28974 0
M  V30 9593 H 908.947 2.72847 2.55794 0
M  V30 9594 H 911.239 4.01683 5.45579 0
M  V30 9595 H 912.182 5.32282 4.66991 0
M  V30 9596 H 912.59 3.61343 4.33695 0
M  V30 9597 N 911.988 -0.768124 1.37614 0
M  V30 9598 C 912.918 -1.89537 1.36374 0
M  V30 9599 C 913.899 -1.68513 0.231803 0
M  V30 9600 O 915.084 -1.89318 0.432705 0
M  V30 9601 C 912.214 -3.26871 1.17358 0
M  V30 9602 C 911.168 -3.62466 2.27602 0
M  V30 9603 C 910.494 -4.9838 1.93705 0
M  V30 9604 C 911.794 -3.68841 3.69802 0
M  V30 9605 H 913.488 -1.90832 2.30702 0
M  V30 9606 H 911.034 -0.91672 1.11051 0
M  V30 9607 H 912.987 -4.05371 1.15119 0
M  V30 9608 H 911.711 -3.26018 0.194865 0
M  V30 9609 H 910.37 -2.86276 2.29002 0
M  V30 9610 H 910.018 -4.94071 0.943539 0
M  V30 9611 H 909.718 -5.23165 2.6753 0
M  V30 9612 H 911.242 -5.79276 1.93059 0
M  V30 9613 H 912.656 -4.37485 3.70513 0
M  V30 9614 H 911.053 -4.05126 4.42711 0
M  V30 9615 H 912.123 -2.69415 4.03167 0
M  V30 9616 N 913.466 -1.22244 -0.994698 0
M  V30 9617 C 914.413 -0.990906 -2.08446 0
M  V30 9618 C 915.383 0.086737 -1.65873 0
M  V30 9619 O 916.568 -0.0624882 -1.90698 0
M  V30 9620 C 913.708 -0.572813 -3.40313 0
M  V30 9621 C 912.821 -1.72103 -3.96238 0
M  V30 9622 C 911.956 -1.2511 -5.16257 0
M  V30 9623 C 910.995 -2.37098 -5.64315 0
M  V30 9624 N 910.132 -1.91164 -6.75574 0
M  V30 9625 H 914.972 -1.92377 -2.27585 0
M  V30 9626 H 912.509 -0.958576 -1.11578 0
M  V30 9627 H 914.467 -0.311594 -4.16035 0
M  V30 9628 H 913.097 0.323044 -3.21179 0
M  V30 9629 H 912.149 -2.09662 -3.17405 0
M  V30 9630 H 913.461 -2.56347 -4.27888 0
M  V30 9631 H 912.615 -0.947152 -5.99261 0
M  V30 9632 H 911.354 -0.378836 -4.86226 0
M  V30 9633 H 910.359 -2.68283 -4.799 0
M  V30 9634 H 911.584 -3.24837 -5.96371 0
M  V30 9635 H 909.53 -1.06298 -6.47331 0
M  V30 9636 H 909.447 -2.68975 -7.06533 0
M  V30 9637 H 910.715 -1.63833 -7.62088 0
M  V30 9638 N 914.944 1.19125 -1.03184 0
M  V30 9639 C 916.169 1.93379 -0.749628 0
M  V30 9640 C 916.594 1.75153 0.685785 0
M  V30 9641 O 915.952 1.05579 1.47386 0
M  V30 9642 C 916 3.43101 -1.1097 0
M  V30 9643 O 915.104 4.11758 -0.230053 0
M  V30 9644 H 914.445 0.603605 -0.276689 0
M  V30 9645 H 916.975 1.51116 -1.37931 0
M  V30 9646 H 916.985 3.93778 -1.06785 0
M  V30 9647 H 915.66 3.55688 -2.15544 0
M  V30 9648 H 914.237 3.7143 -0.330748 0
M  V30 9649 N 916.422 0.810101 1.35185 0
M  V30 9650 C 917.65 0.404696 2.02903 0
M  V30 9651 C 918.065 -0.985434 1.61042 0
M  V30 9652 O 917.422 -1.63557 0.809658 0
M  V30 9653 C 917.473 0.482493 3.58266 0
M  V30 9654 O 917.194 1.81782 3.98606 0
M  V30 9655 C 918.695 0.070345 4.43244 0
M  V30 9656 H 915.915 0.163972 0.650657 0
M  V30 9657 H 918.459 1.0947 1.72733 0
M  V30 9658 H 916.614 -0.159296 3.87072 0
M  V30 9659 H 917.028 1.78306 4.93262 0
M  V30 9660 H 918.502 0.175888 5.5172 0
M  V30 9661 H 918.979 -0.984724 4.28018 0
M  V30 9662 H 919.585 0.685427 4.1974 0
M  V30 9663 N 917.9 -1.47166 0.563914 0
M  V30 9664 C 918.863 -2.28571 -0.169624 0
M  V30 9665 C 919.863 -1.37331 -0.836467 0
M  V30 9666 O 921.053 -1.59896 -0.6913 0
M  V30 9667 C 918.185 -3.17201 -1.24886 0
M  V30 9668 H 919.378 -2.94896 0.545539 0
M  V30 9669 H 916.931 -1.52966 0.321121 0
M  V30 9670 H 917.666 -2.55582 -1.99621 0
M  V30 9671 H 917.451 -3.84356 -0.775426 0
M  V30 9672 H 918.941 -3.7852 -1.76388 0
M  V30 9673 N 919.378 -0.300708 -1.54705 0
M  V30 9674 C 920.328 0.590589 -2.20218 0
M  V30 9675 C 921.312 1.09913 -1.17507 0
M  V30 9676 O 922.504 1.03995 -1.43227 0
M  V30 9677 C 919.633 1.76214 -2.94625 0
M  V30 9678 C 918.719 1.26957 -4.04651 0
M  V30 9679 N 919.11 0.494982 -5.03372 0
M  V30 9680 C 917.408 1.55033 -4.18188 0
M  V30 9681 C 918.109 0.232724 -5.81234 0
M  V30 9682 N 917.085 0.812443 -5.37494 0
M  V30 9683 H 920.887 -0.00876354 -2.93899 0
M  V30 9684 H 918.401 -0.105456 -1.62057 0
M  V30 9685 H 920.398 2.41221 -3.40027 0
M  V30 9686 H 919.058 2.36519 -2.22461 0
M  V30 9687 H 920.069 0.13991 -5.17711 0
M  V30 9688 H 916.746 2.16089 -3.57228 0
M  V30 9689 H 918.136 -0.389362 -6.70771 0
M  V30 9690 N 920.856 1.57574 -0.0284266 0
M  V30 9691 C 921.819 2.09096 0.938691 0
M  V30 9692 C 922.819 1.00588 1.25454 0
M  V30 9693 O 924.009 1.2675 1.19499 0
M  V30 9694 C 921.141 2.55624 2.25542 0
M  V30 9695 H 922.334 2.95829 0.49248 0
M  V30 9696 H 919.887 1.5475 0.219594 0
M  V30 9697 H 920.622 1.72218 2.74793 0
M  V30 9698 H 920.407 3.34896 2.03929 0
M  V30 9699 H 921.897 2.95712 2.94863 0
M  V30 9700 N 922.334 -0.244713 1.55689 0
M  V30 9701 C 923.611 -0.995407 1.68378 0
M  V30 9702 C 923.991 -2.03288 0.568949 0
M  V30 9703 O 923.339 -2.24469 -0.427299 0
M  V30 9704 C 923.549 -1.62678 3.08767 0
M  V30 9705 C 924.897 -2.1278 3.67437 0
M  V30 9706 O 925.921 -1.72614 3.11581 0
M  V30 9707 O 924.78 -2.86536 4.65359 0
M  V30 9708 H 921.874 -0.463476 0.684923 0
M  V30 9709 H 924.42 -0.238326 1.68018 0
M  V30 9710 H 923.192 -0.876469 3.81358 0
M  V30 9711 H 922.815 -2.45 3.13146 0
M  V30 9712 N 923.813 -1.49104 -0.510467 0
M  V30 9713 C 924.723 -1.67792 -1.6396 0
M  V30 9714 C 925.739 -0.560454 -1.64727 0
M  V30 9715 O 926.915 -0.833985 -1.83321 0
M  V30 9716 C 923.98 -1.73154 -3.00364 0
M  V30 9717 C 923.041 -2.9667 -3.10299 0
M  V30 9718 C 922.274 -3.01767 -4.40196 0
M  V30 9719 O 922.497 -2.1472 -5.28443 0
M  V30 9720 O 921.431 -3.94137 -4.54906 0
M  V30 9721 H 925.257 -2.63428 -1.51126 0
M  V30 9722 H 922.842 -1.32734 -0.685719 0
M  V30 9723 H 924.724 -1.79089 -3.81451 0
M  V30 9724 H 923.399 -0.806952 -3.1348 0
M  V30 9725 H 922.306 -2.96257 -2.28435 0
M  V30 9726 H 923.639 -3.88578 -3.02106 0
M  V30 9727 N 925.291 0.760815 -1.38019 0
M  V30 9728 C 926.238 1.8744 -1.34666 0
M  V30 9729 C 927.208 1.64762 -0.210386 0
M  V30 9730 O 928.393 1.86528 -0.401479 0
M  V30 9731 C 925.533 3.24648 -1.17037 0
M  V30 9732 C 924.646 3.59206 -2.3999 0
M  V30 9733 C 923.781 4.8568 -2.15148 0
M  V30 9734 C 922.82 5.13002 -3.3391 0
M  V30 9735 N 921.957 6.30668 -3.08549 0
M  V30 9736 H 926.797 1.8964 -2.29871 0
M  V30 9737 H 924.334 0.927004 -1.14215 0
M  V30 9738 H 926.292 4.03814 -1.04834 0
M  V30 9739 H 924.922 3.21793 -0.254758 0
M  V30 9740 H 923.974 2.74939 -2.62893 0
M  V30 9741 H 925.286 3.75328 -3.28527 0
M  V30 9742 H 924.44 5.72773 -2.00039 0
M  V30 9743 H 923.179 4.71682 -1.23965 0
M  V30 9744 H 922.184 4.2438 -3.49545 0
M  V30 9745 H 923.409 5.28901 -4.25958 0
M  V30 9746 H 921.355 6.18008 -2.20006 0
M  V30 9747 H 921.272 6.47257 -3.90633 0
M  V30 9748 H 922.54 7.20669 -2.9708 0
M  V30 9749 N 926.769 1.22769 0.988202 0
M  V30 9750 C 927.679 1.01844 2.11341 0
M  V30 9751 C 928.695 -0.0346937 1.73965 0
M  V30 9752 O 929.871 0.159061 2.00771 0
M  V30 9753 C 926.936 0.603837 3.41401 0
M  V30 9754 C 925.997 1.73113 3.92849 0
M  V30 9755 C 925.23 1.33621 5.16702 0
M  V30 9756 O 925.453 0.217041 5.69987 0
M  V30 9757 O 924.387 2.15444 5.62021 0
M  V30 9758 H 928.213 1.96127 2.31879 0
M  V30 9759 H 925.798 1.01405 1.09715 0
M  V30 9760 H 927.68 0.383196 4.19654 0
M  V30 9761 H 926.355 -0.310082 3.22211 0
M  V30 9762 H 925.262 2.00634 3.15748 0
M  V30 9763 H 926.595 2.62308 4.1648 0
M  V30 9764 N 928.247 -1.18576 1.03814 0
M  V30 9765 C 929.21 -2.2033 0.63146 0
M  V30 9766 C 930.21 -1.57787 -0.309816 0
M  V30 9767 O 931.4 -1.73938 -0.0955598 0
M  V30 9768 C 928.532 -3.40818 -0.0745963 0
M  V30 9769 H 929.725 -2.57824 1.53189 0
M  V30 9770 H 927.278 -1.32416 0.830398 0
M  V30 9771 H 928.013 -3.08853 -0.988947 0
M  V30 9772 H 927.798 -3.87453 0.6019 0
M  V30 9773 H 929.288 -4.16166 -0.345727 0
M  V30 9774 N 929.725 -0.817259 -1.34754 0
M  V30 9775 C 930.655 -0.249769 -2.3216 0
M  V30 9776 C 931.636 0.630663 -1.57977 0
M  V30 9777 O 932.821 0.558719 -1.85989 0
M  V30 9778 C 929.951 0.593825 -3.42186 0
M  V30 9779 C 928.905 -0.188997 -4.27583 0
M  V30 9780 C 928.231 0.776979 -5.29025 0
M  V30 9781 C 929.531 -1.39401 -5.03354 0
M  V30 9782 H 931.225 -1.06359 -2.79872 0
M  V30 9783 H 928.771 -0.512894 -1.34556 0
M  V30 9784 H 930.724 1.00097 -4.09339 0
M  V30 9785 H 929.448 1.44064 -2.93109 0
M  V30 9786 H 928.107 -0.577445 -3.62024 0
M  V30 9787 H 927.755 1.61959 -4.76212 0
M  V30 9788 H 927.455 0.257448 -5.87036 0
M  V30 9789 H 928.979 1.18211 -5.99048 0
M  V30 9790 H 930.393 -1.06117 -5.63393 0
M  V30 9791 H 928.79 -1.84878 -5.70912 0
M  V30 9792 H 929.86 -2.17515 -4.33377 0
M  V30 9793 N 931.203 1.46865 -0.571711 0
M  V30 9794 C 932.136 2.27176 0.215944 0
M  V30 9795 C 933.114 1.34951 0.907035 0
M  V30 9796 O 934.298 1.64349 0.923127 0
M  V30 9797 C 931.425 3.12388 1.30888 0
M  V30 9798 C 930.471 4.20296 0.724804 0
M  V30 9799 S 931.304 5.33691 -0.439839 0
M  V30 9800 C 932.46 6.22468 0.654564 0
M  V30 9801 H 932.693 2.93633 -0.465518 0
M  V30 9802 H 930.226 1.50184 -0.358351 0
M  V30 9803 H 932.184 3.62049 1.93471 0
M  V30 9804 H 930.845 2.45265 1.96224 0
M  V30 9805 H 930.038 4.79703 1.54599 0
M  V30 9806 H 929.64 3.73591 0.174861 0
M  V30 9807 H 931.932 6.59694 1.54304 0
M  V30 9808 H 932.875 7.08033 0.0975111 0
M  V30 9809 H 933.283 5.56384 0.953762 0
M  V30 9810 N 932.681 0.308908 1.54543 0
M  V30 9811 C 933.906 -0.303196 2.05172 0
M  V30 9812 C 934.331 -1.46133 1.18434 0
M  V30 9813 O 933.689 -1.803 0.190162 0
M  V30 9814 C 933.737 -0.729526 3.53143 0
M  V30 9815 O 932.841 -1.83348 3.69401 0
M  V30 9816 H 932.182 -0.0575066 0.661505 0
M  V30 9817 H 934.712 0.453055 1.99521 0
M  V30 9818 H 934.722 -1.01619 3.95143 0
M  V30 9819 H 933.397 0.117622 4.15734 0
M  V30 9820 H 931.974 -1.54676 3.39308 0
M  V30 9821 N 934.159 -1.57557 0.0367827 0
M  V30 9822 C 935.069 -2.14148 -0.958017 0
M  V30 9823 C 936.085 -1.09564 -1.35173 0
M  V30 9824 O 937.261 -1.4166 -1.43158 0
M  V30 9825 C 934.326 -2.6636 -2.21931 0
M  V30 9826 C 933.387 -3.85688 -1.8853 0
M  V30 9827 C 932.62 -4.35401 -3.08645 0
M  V30 9828 O 932.843 -3.8425 -4.21554 0
M  V30 9829 O 931.777 -5.27158 -2.90497 0
M  V30 9830 H 935.603 -2.99442 -0.506797 0
M  V30 9831 H 933.188 -1.48259 -0.184275 0
M  V30 9832 H 935.07 -2.99976 -2.9596 0
M  V30 9833 H 933.745 -1.84145 -2.66219 0
M  V30 9834 H 932.652 -3.56985 -1.11861 0
M  V30 9835 H 933.985 -4.69089 -1.49052 0
M  V30 9836 N 935.637 0.236453 -1.55816 0
M  V30 9837 C 936.567 1.29639 -1.94206 0
M  V30 9838 C 937.548 1.49667 -0.808319 0
M  V30 9839 O 938.733 1.621 -1.06945 0
M  V30 9840 C 935.863 2.64914 -2.24584 0
M  V30 9841 C 934.817 2.59565 -3.40308 0
M  V30 9842 C 934.143 3.98732 -3.56254 0
M  V30 9843 C 935.443 2.15642 -4.75706 0
M  V30 9844 H 937.137 0.977552 -2.82992 0
M  V30 9845 H 934.683 0.468804 -1.36155 0
M  V30 9846 H 936.636 3.39209 -2.50031 0
M  V30 9847 H 935.36 2.98455 -1.32636 0
M  V30 9848 H 934.019 1.87728 -3.14887 0
M  V30 9849 H 933.667 4.29556 -2.61707 0
M  V30 9850 H 933.367 3.96039 -4.34082 0
M  V30 9851 H 934.891 4.74711 -3.84033 0
M  V30 9852 H 936.305 2.79673 -5.00456 0
M  V30 9853 H 934.702 2.24039 -5.56711 0
M  V30 9854 H 935.772 1.10831 -4.72064 0
M  V30 9855 N 937.115 1.49373 0.502552 0
M  V30 9856 C 938.062 1.65927 1.60427 0
M  V30 9857 C 939.032 0.500768 1.58371 0
M  V30 9858 O 940.217 0.727606 1.76382 0
M  V30 9859 C 937.357 1.73043 2.9858 0
M  V30 9860 C 936.47 3.00187 3.10663 0
M  V30 9861 C 935.605 2.98292 4.3954 0
M  V30 9862 C 934.644 4.20022 4.4525 0
M  V30 9863 N 933.781 4.16046 5.65553 0
M  V30 9864 H 938.621 2.59998 1.45619 0
M  V30 9865 H 936.158 1.28912 0.708519 0
M  V30 9866 H 938.116 1.7515 3.78653 0
M  V30 9867 H 936.746 0.824397 3.12095 0
M  V30 9868 H 935.798 3.07699 2.23663 0
M  V30 9869 H 937.11 3.9018 3.10742 0
M  V30 9870 H 936.264 2.98953 5.27932 0
M  V30 9871 H 935.003 2.06075 4.42023 0
M  V30 9872 H 934.008 4.19607 3.5526 0
M  V30 9873 H 935.233 5.13431 4.44484 0
M  V30 9874 H 933.179 3.26665 5.68881 0
M  V30 9875 H 933.096 4.99773 5.67242 0
M  V30 9876 H 934.364 4.20807 6.56156 0
M  V30 9877 N 938.594 -0.753485 1.38421 0
M  V30 9878 C 939.843 -1.50797 1.33952 0
M  V30 9879 C 940.156 -1.95482 -0.0678464 0
M  V30 9880 O 941.362 -2.7048 -0.235078 0
M  V30 9881 C 939.818 -2.72393 2.35224 0
M  V30 9882 C 939.426 -2.34733 3.81582 0
M  V30 9883 C 941.17 -3.50281 2.39798 0
M  V30 9884 C 939.077 -3.52939 4.7454 0
M  V30 9885 H 938.007 -0.566211 0.497916 0
M  V30 9886 H 940.658 -0.823659 1.63976 0
M  V30 9887 H 939.04 -3.42806 1.98243 0
M  V30 9888 H 940.214 -1.71985 4.27502 0
M  V30 9889 H 938.529 -1.69978 3.80127 0
M  V30 9890 H 941.126 -4.38172 3.06447 0
M  V30 9891 H 941.469 -3.91444 1.41695 0
M  V30 9892 H 942.002 -2.86881 2.75579 0
M  V30 9893 H 938.741 -3.16843 5.73839 0
M  V30 9894 H 938.261 -4.1473 4.33312 0
M  V30 9895 H 939.94 -4.19519 4.92557 0
M  V30 9896 N 940.072 -1.23292 -0.981677 0
M  V30 9897 C 941.005 -0.956198 -2.07201 0
M  V30 9898 C 941.983 0.105027 -1.6226 0
M  V30 9899 O 943.167 -0.0289582 -1.88478 0
M  V30 9900 C 940.294 -0.44029 -3.35826 0
M  V30 9901 C 939.34 -1.48792 -3.99704 0
M  V30 9902 S 940.173 -3.06491 -4.39117 0
M  V30 9903 C 941.329 -2.56567 -5.70898 0
M  V30 9904 H 941.562 -1.87947 -2.30355 0
M  V30 9905 H 939.095 -1.06522 -1.1177 0
M  V30 9906 H 941.053 -0.149237 -4.10229 0
M  V30 9907 H 939.714 0.462045 -3.10683 0
M  V30 9908 H 938.907 -1.07706 -4.92357 0
M  V30 9909 H 938.509 -1.72826 -3.31673 0
M  V30 9910 H 940.801 -1.98508 -6.47766 0
M  V30 9911 H 941.744 -3.47755 -6.16824 0
M  V30 9912 H 942.152 -1.97465 -5.28836 0
M  V30 9913 N 941.55 1.18024 -1.04442 0
M  V30 9914 C 942.775 1.92573 -0.770097 0
M  V30 9915 C 943.2 1.75871 0.667169 0
M  V30 9916 O 942.558 1.07136 1.46258 0
M  V30 9917 C 942.606 3.41904 -1.14602 0
M  V30 9918 O 941.71 4.11491 -0.273712 0
M  V30 9919 H 941.051 0.600636 -0.283076 0
M  V30 9920 H 943.581 1.49645 -1.39526 0
M  V30 9921 H 943.591 3.92623 -1.10956 0
M  V30 9922 H 942.266 3.53382 -2.19304 0
M  V30 9923 H 940.843 3.71059 -0.370124 0
M  V30 9924 N 943.028 0.824394 1.34319 0
M  V30 9925 C 943.978 0.219624 2.2694 0
M  V30 9926 C 944.962 -0.616964 1.48601 0
M  V30 9927 O 946.154 -0.471303 1.7061 0
M  V30 9928 C 943.283 -0.616379 3.37721 0
M  V30 9929 C 942.369 0.230917 4.23471 0
M  V30 9930 N 942.76 1.30264 4.88738 0
M  V30 9931 C 941.058 0.0155016 4.45997 0
M  V30 9932 C 941.759 1.82141 5.52449 0
M  V30 9933 N 940.735 1.12508 5.3183 0
M  V30 9934 H 944.537 1.03939 2.74907 0
M  V30 9935 H 942.051 0.667353 1.48055 0
M  V30 9936 H 944.048 -1.06582 4.03046 0
M  V30 9937 H 942.708 -1.43429 2.91304 0
M  V30 9938 H 943.719 1.68545 4.89707 0
M  V30 9939 H 940.396 -0.770128 4.10336 0
M  V30 9940 H 941.786 2.7181 6.14466 0
M  V30 9941 N 944.506 -1.46559 0.579492 0
M  V30 9942 C 945.436 -2.33059 -0.143437 0
M  V30 9943 C 946.417 -1.4515 -0.886868 0
M  V30 9944 O 947.602 -1.73973 -0.862961 0
M  V30 9945 C 944.732 -3.27364 -1.15973 0
M  V30 9946 C 943.686 -4.24689 -0.531348 0
M  V30 9947 C 943.012 -5.08479 -1.65388 0
M  V30 9948 C 944.312 -5.1961 0.529391 0
M  V30 9949 H 946.006 -2.93753 0.578762 0
M  V30 9950 H 943.552 -1.41256 0.279775 0
M  V30 9951 H 945.505 -3.86732 -1.67382 0
M  V30 9952 H 944.229 -2.64771 -1.91217 0
M  V30 9953 H 942.888 -3.6658 -0.0383749 0
M  V30 9954 H 942.536 -4.42273 -2.3959 0
M  V30 9955 H 942.236 -5.74387 -1.23909 0
M  V30 9956 H 943.76 -5.70709 -2.17079 0
M  V30 9957 H 945.174 -5.73212 0.100506 0
M  V30 9958 H 943.571 -5.93843 0.86432 0
M  V30 9959 H 944.641 -4.63737 1.4169 0
M  V30 9960 N 945.984 -0.3171 -1.54377 0
M  V30 9961 C 947.232 0.286842 -2.00054 0
M  V30 9962 C 947.553 1.53161 -1.20692 0
M  V30 9963 O 946.823 1.93479 -0.307045 0
M  V30 9964 H 945.403 0.108979 -0.739008 0
M  V30 9965 H 948.065 -0.432152 -1.90049 0
M  V30 9966 H 947.161 0.547729 -3.07256 0
M  V30 9967 N 947.462 1.57535 -0.0451378 0
M  V30 9968 C 948.394 2.08109 0.960372 0
M  V30 9969 C 949.407 1.0077 1.27864 0
M  V30 9970 O 950.596 1.28351 1.24049 0
M  V30 9971 C 947.696 2.50414 2.28355 0
M  V30 9972 C 946.869 3.8102 2.14808 0
M  V30 9973 C 945.928 4.09702 3.30198 0
M  V30 9974 O 944.954 4.79715 3.0637 0
M  V30 9975 N 946.156 3.61138 4.54489 0
M  V30 9976 H 948.921 2.94999 0.528752 0
M  V30 9977 H 946.482 1.61283 0.141248 0
M  V30 9978 H 948.474 2.66683 3.04405 0
M  V30 9979 H 947.044 1.68805 2.63104 0
M  V30 9980 H 946.264 3.74392 1.23387 0
M  V30 9981 H 947.552 4.66559 2.02978 0
M  V30 9982 H 946.95 3.04527 4.76739 0
M  V30 9983 H 945.507 3.82656 5.27653 0
M  V30 9984 N 948.94 -0.228186 1.55939 0
M  V30 9985 C 949.89 -1.28607 1.88267 0
M  V30 9986 C 950.874 -1.42606 0.745139 0
M  V30 9987 O 952.066 -1.45533 1.00743 0
M  V30 9988 C 949.195 -2.63783 2.19712 0
M  V30 9989 C 948.281 -2.53712 3.3984 0
M  V30 9990 N 948.672 -2.13287 4.58631 0
M  V30 9991 C 946.97 -2.84686 3.43322 0
M  V30 9992 C 947.671 -2.14305 5.40785 0
M  V30 9993 N 946.647 -2.54536 4.80325 0
M  V30 9994 H 950.449 -0.964307 2.7763 0
M  V30 9995 H 947.963 -0.436769 1.56416 0
M  V30 9996 H 949.96 -3.40152 2.41044 0
M  V30 9997 H 948.62 -2.9681 1.31657 0
M  V30 9998 H 949.631 -1.84525 4.83912 0
M  V30 9999 H 946.308 -3.22129 2.65592 0
M  V30 10000 H 947.698 -1.85231 6.45863 0
M  V30 10001 N 950.418 -1.49637 -0.494624 0
M  V30 10002 C 951.328 -1.69522 -1.62172 0
M  V30 10003 C 952.344 -0.577894 -1.64123 0
M  V30 10004 O 953.52 -0.853382 -1.82426 0
M  V30 10005 C 950.585 -1.7633 -2.9851 0
M  V30 10006 C 949.646 -2.99944 -3.07135 0
M  V30 10007 C 948.879 -3.06419 -4.36971 0
M  V30 10008 O 949.102 -2.20312 -5.26136 0
M  V30 10009 O 948.036 -3.9894 -4.507 0
M  V30 10010 H 951.862 -2.65017 -1.48324 0
M  V30 10011 H 949.447 -1.33454 -0.671603 0
M  V30 10012 H 951.329 -1.83125 -3.7953 0
M  V30 10013 H 950.004 -0.840155 -3.12607 0
M  V30 10014 H 948.911 -2.98664 -2.2528 0
M  V30 10015 H 950.244 -3.9176 -2.97968 0
M  V30 10016 N 951.896 0.746133 -1.38819 0
M  V30 10017 C 952.844 1.88137 -1.36774 0
M  V30 10018 C 953.838 1.67508 -0.252495 0
M  V30 10019 O 955.044 1.74985 -0.421935 0
M  V30 10020 H 951.419 0.619116 -0.426849 0
M  V30 10021 H 953.39 1.86978 -2.32555 0
M  V30 10022 C 952.139 3.25703 -1.21708 0
M  V30 10023 H 951.462 3.42168 -2.06788 0
M  V30 10024 H 952.902 4.05361 -1.24332 0
M  V30 10025 C 951.361 3.36816 0.0754257 0
M  V30 10026 O 951.891 3.87742 1.04972 0
M  V30 10027 N 950.097 2.90287 0.134761 0
M  V30 10028 H 949.644 2.49034 -0.658779 0
M  V30 10029 H 949.602 2.98103 0.999109 0
M  V30 10030 N 953.375 1.23811 0.975125 0
M  V30 10031 C 954.624 1.06741 1.71141 0
M  V30 10032 C 954.937 -0.394986 1.9157 0
M  V30 10033 O 956.143 -0.685723 2.62698 0
M  V30 10034 C 954.599 1.86168 3.08009 0
M  V30 10035 C 954.207 3.36771 2.95448 0
M  V30 10036 C 955.951 1.77604 3.85561 0
M  V30 10037 C 953.858 4.0857 4.2758 0
M  V30 10038 H 952.788 0.395819 0.64175 0
M  V30 10039 H 955.439 1.47825 1.0872 0
M  V30 10040 H 953.821 1.37893 3.71216 0
M  V30 10041 H 954.995 3.92571 2.41298 0
M  V30 10042 H 953.31 3.46205 2.31368 0
M  V30 10043 H 955.907 2.28556 4.83391 0
M  V30 10044 H 956.25 0.739837 4.09673 0
M  V30 10045 H 956.783 2.23519 3.29065 0
M  V30 10046 H 953.522 5.12518 4.08663 0
M  V30 10047 H 953.042 3.57556 4.81574 0
M  V30 10048 H 954.721 4.15157 4.9624 0
M  V30 10049 N 954.853 -1.17469 1.05066 0
M  V30 10050 C 956.099 -1.87976 0.761113 0
M  V30 10051 C 956.432 -1.80756 -0.709995 0
M  V30 10052 O 955.707 -1.21469 -1.51906 0
M  V30 10053 C 955.99 -3.38055 1.2406 0
M  V30 10054 C 955.843 -3.54032 2.77455 0
M  V30 10055 C 957.162 -4.32036 0.838612 0
M  V30 10056 H 954.281 -0.682573 0.277963 0
M  V30 10057 H 956.923 -1.38147 1.30443 0
M  V30 10058 H 955.073 -3.80622 0.778388 0
M  V30 10059 H 956.745 -3.20489 3.3179 0
M  V30 10060 H 954.988 -2.96352 3.16793 0
M  V30 10061 H 955.659 -4.59377 3.06066 0
M  V30 10062 H 958.135 -3.97303 1.23651 0
M  V30 10063 H 957.011 -5.35583 1.20173 0
M  V30 10064 H 957.272 -4.41349 -0.257498 0
M  V30 10065 N 956.331 -0.831506 -1.3388 0
M  V30 10066 C 957.279 -0.247896 -2.31275 0
M  V30 10067 C 958.273 0.616083 -1.578 0
M  V30 10068 O 959.479 0.506465 -1.72728 0
M  V30 10069 H 955.854 -0.0614293 -0.749487 0
M  V30 10070 H 957.825 -1.08401 -2.78014 0
M  V30 10071 C 956.574 0.568434 -3.43022 0
M  V30 10072 H 955.897 -0.0870654 -3.99705 0
M  V30 10073 H 957.337 0.942751 -4.13386 0
M  V30 10074 C 955.796 1.74431 -2.88228 0
M  V30 10075 O 956.326 2.84278 -2.83811 0
M  V30 10076 N 954.532 1.56382 -2.44935 0
M  V30 10077 H 954.079 0.670255 -2.48727 0
M  V30 10078 H 954.037 2.35208 -2.08625 0
M  V30 10079 N 957.809 1.4625 -0.587256 0
M  V30 10080 C 958.739 2.33132 0.131076 0
M  V30 10081 C 959.72 1.45619 0.879158 0
M  V30 10082 O 960.905 1.74428 0.853723 0
M  V30 10083 C 958.035 3.27975 1.14236 0
M  V30 10084 C 956.989 4.24965 0.508819 0
M  V30 10085 C 956.315 5.09349 1.62689 0
M  V30 10086 C 957.615 5.19322 -0.55694 0
M  V30 10087 H 959.309 2.93442 -0.594333 0
M  V30 10088 H 956.855 1.41106 -0.287263 0
M  V30 10089 H 958.808 3.87614 1.65328 0
M  V30 10090 H 957.532 2.65781 1.8981 0
M  V30 10091 H 956.191 3.66595 0.0189337 0
M  V30 10092 H 955.839 4.43537 2.37242 0
M  V30 10093 H 955.539 5.75036 1.20861 0
M  V30 10094 H 957.063 5.71852 2.14049 0
M  V30 10095 H 958.477 5.73151 -0.130903 0
M  V30 10096 H 956.874 5.93376 -0.895801 0
M  V30 10097 H 957.944 4.62979 -1.44148 0
M  V30 10098 N 959.287 0.325282 1.54207 0
M  V30 10099 C 960.217 -0.532574 2.27345 0
M  V30 10100 C 961.198 -1.11791 1.28206 0
M  V30 10101 O 962.383 -1.14272 1.57021 0
M  V30 10102 C 959.513 -1.69274 3.03255 0
M  V30 10103 C 958.467 -1.23662 4.09746 0
M  V30 10104 C 957.793 -2.48386 4.73506 0
M  V30 10105 C 959.093 -0.350244 5.21124 0
M  V30 10106 H 960.787 0.0775108 2.993 0
M  V30 10107 H 958.333 0.0387193 1.43948 0
M  V30 10108 H 960.286 -2.29917 3.53152 0
M  V30 10109 H 959.01 -2.32944 2.28921 0
M  V30 10110 H 957.669 -0.653106 3.60735 0
M  V30 10111 H 957.317 -3.10424 3.95786 0
M  V30 10112 H 957.017 -2.18558 5.45441 0
M  V30 10113 H 958.541 -3.09789 5.26178 0
M  V30 10114 H 959.955 -0.863011 5.66767 0
M  V30 10115 H 958.352 -0.14466 5.99926 0
M  V30 10116 H 959.422 0.618457 4.8094 0
M  V30 10117 N 960.765 -1.57509 0.0534917 0
M  V30 10118 C 962.013 -1.92402 -0.618548 0
M  V30 10119 C 962.334 -0.93273 -1.71246 0
M  V30 10120 O 961.604 0.0220495 -1.95888 0
M  V30 10121 H 960.184 -0.710233 -0.23147 0
M  V30 10122 H 962.846 -1.94606 0.10704 0
M  V30 10123 H 961.942 -2.93704 -1.05566 0
M  V30 10124 N 962.243 0.219913 -1.56058 0
M  V30 10125 C 963.206 1.25606 -1.91718 0
M  V30 10126 C 964.206 1.39721 -0.795912 0
M  V30 10127 O 965.396 1.37958 -1.06364 0
M  V30 10128 C 962.528 2.62961 -2.16943 0
M  V30 10129 H 963.721 0.951909 -2.84392 0
M  V30 10130 H 961.274 0.460398 -1.49365 0
M  V30 10131 H 962.009 2.98472 -1.26826 0
M  V30 10132 H 961.794 2.54093 -2.98629 0
M  V30 10133 H 963.284 3.37727 -2.45622 0
M  V30 10134 N 963.721 1.49897 0.486681 0
M  V30 10135 C 964.961 1.61732 1.24988 0
M  V30 10136 C 965.325 0.303724 1.89582 0
M  V30 10137 O 966.526 0.297373 2.6715 0
M  V30 10138 C 964.797 2.75429 2.27757 0
M  V30 10139 S 966.356 3.07304 3.13225 0
M  V30 10140 H 963.174 0.570316 0.424571 0
M  V30 10141 H 965.776 1.87617 0.549549 0
M  V30 10142 H 964.48 3.69376 1.78857 0
M  V30 10143 H 964.011 2.51582 3.0244 0
M  V30 10144 H 966.026 2.49928 4.28661 0
M  V30 10145 N 965.199 -0.738761 1.39212 0
M  V30 10146 C 966.427 -1.52801 1.39497 0
M  V30 10147 C 966.842 -1.88797 -0.0114917 0
M  V30 10148 O 966.199 -1.53835 -0.981887 0
M  V30 10149 C 966.25 -2.81793 2.2644 0
M  V30 10150 O 965.971 -2.47328 3.61608 0
M  V30 10151 C 967.472 -3.75844 2.35067 0
M  V30 10152 H 964.692 -0.472322 0.476606 0
M  V30 10153 H 967.236 -0.913153 1.8298 0
M  V30 10154 H 965.391 -3.3962 1.8638 0
M  V30 10155 H 965.805 -3.30162 4.07545 0
M  V30 10156 H 967.279 -4.6326 3.00157 0
M  V30 10157 H 967.756 -4.17329 1.3687 0
M  V30 10158 H 968.362 -3.23937 2.75581 0
M  V30 10159 N 966.677 -1.24326 -0.968545 0
M  V30 10160 C 967.627 -1.00191 -2.04807 0
M  V30 10161 C 968.611 0.0563524 -1.60801 0
M  V30 10162 O 969.803 -0.157268 -1.763 0
M  V30 10163 C 966.932 -0.607749 -3.37878 0
M  V30 10164 C 966.018 -1.70204 -3.88447 0
M  V30 10165 N 966.409 -2.93463 -4.11962 0
M  V30 10166 C 964.707 -1.57936 -4.171 0
M  V30 10167 C 965.408 -3.64397 -4.5342 0
M  V30 10168 N 964.384 -2.91956 -4.58544 0
M  V30 10169 H 968.186 -1.93786 -2.20962 0
M  V30 10170 H 965.7 -1.1444 -1.15227 0
M  V30 10171 H 967.697 -0.416079 -4.14819 0
M  V30 10172 H 966.357 0.321026 -3.23109 0
M  V30 10173 H 967.368 -3.2965 -3.99438 0
M  V30 10174 H 964.045 -0.718552 -4.1127 0
M  V30 10175 H 965.435 -4.70125 -4.80034 0
M  V30 10176 N 968.156 1.1691 -1.05688 0
M  V30 10177 C 969.404 1.86922 -0.768409 0
M  V30 10178 C 969.725 1.81735 0.706921 0
M  V30 10179 O 968.995 1.24671 1.51109 0
M  V30 10180 H 967.575 0.69203 -0.281253 0
M  V30 10181 H 970.237 1.41803 -1.33708 0
M  V30 10182 H 969.333 2.92528 -1.08783 0
M  V30 10183 N 969.634 0.838594 1.33437 0
M  V30 10184 C 970.882 0.433312 1.974 0
M  V30 10185 C 971.203 -1.01078 1.66758 0
M  V30 10186 O 970.473 -1.70406 0.966373 0
M  V30 10187 H 969.053 0.15724 0.730263 0
M  V30 10188 H 971.715 1.07149 1.62804 0
M  V30 10189 H 970.811 0.565144 3.06941 0
M  V30 10190 N 971.112 -1.45937 0.595003 0
M  V30 10191 C 972.523 -1.85908 0.171779 0
M  V30 10192 C 972.874 -1.497 -1.26824 0
M  V30 10193 O 971.999 -0.917688 -1.95978 0
M  V30 10194 C 972.594 -3.37425 0.304976 0
M  V30 10195 C 971.153 -3.76346 -0.0634635 0
M  V30 10196 C 970.3 -2.69926 0.635255 0
M  V30 10197 H 973.251 -1.36916 0.802471 0
M  V30 10198 H 973.272 -3.77632 -0.466313 0
M  V30 10199 H 972.784 -3.63747 1.35314 0
M  V30 10200 H 970.885 -3.55642 -1.11129 0
M  V30 10201 H 970.998 -4.78021 0.321419 0
M  V30 10202 H 969.362 -2.54592 0.0742054 0
M  V30 10203 H 970.145 -2.99086 1.68531 0
M  V30 10204 N 972.59 -0.333456 -1.54032 0
M  V30 10205 C 973.836 0.266527 -2.01041 0
M  V30 10206 C 974.169 1.51006 -1.2211 0
M  V30 10207 O 973.444 1.92078 -0.306016 0
M  V30 10208 C 973.727 0.59078 -3.55221 0
M  V30 10209 C 973.58 -0.664143 -4.4487 0
M  V30 10210 C 974.899 1.40447 -4.17088 0
M  V30 10211 H 972.018 0.0953979 -0.7308 0
M  V30 10212 H 974.66 -0.451995 -1.84545 0
M  V30 10213 H 972.81 1.20292 -3.69408 0
M  V30 10214 H 974.482 -1.30227 -4.42537 0
M  V30 10215 H 972.725 -1.29106 -4.14143 0
M  V30 10216 H 973.396 -0.392664 -5.50602 0
M  V30 10217 H 975.872 0.886946 -4.06537 0
M  V30 10218 H 974.748 1.6001 -5.2506 0
M  V30 10219 H 975.009 2.40357 -3.71054 0
M  V30 10220 N 974.068 1.57479 -0.061844 0
M  V30 10221 C 974.998 2.15181 0.9066 0
M  V30 10222 C 975.979 1.07624 1.31724 0
M  V30 10223 O 977.164 1.35614 1.39006 0
M  V30 10224 C 974.294 2.70542 2.17771 0
M  V30 10225 C 973.248 3.83178 1.9068 0
M  V30 10226 C 972.574 4.25099 3.24337 0
M  V30 10227 C 973.874 5.07853 1.21994 0
M  V30 10228 H 975.568 2.96355 0.42594 0
M  V30 10229 H 973.114 1.42556 0.203435 0
M  V30 10230 H 975.067 3.09552 2.85929 0
M  V30 10231 H 973.791 1.86575 2.68062 0
M  V30 10232 H 972.45 3.44656 1.24931 0
M  V30 10233 H 972.098 3.38069 3.72449 0
M  V30 10234 H 971.798 5.01021 3.07005 0
M  V30 10235 H 973.322 4.66718 3.93709 0
M  V30 10236 H 974.736 5.44242 1.80204 0
M  V30 10237 H 973.133 5.88987 1.14954 0
M  V30 10238 H 974.203 4.84497 0.197536 0
M  V30 10239 N 975.546 -0.211634 1.56173 0
M  V30 10240 C 976.792 -0.935935 1.79911 0
M  V30 10241 C 977.125 -1.83589 0.633155 0
M  V30 10242 O 976.4 -1.91004 -0.367132 0
M  V30 10243 C 976.683 -1.76638 3.13801 0
M  V30 10244 C 976.536 -0.892259 4.40861 0
M  V30 10245 C 977.855 -2.74224 3.44223 0
M  V30 10246 H 974.974 -0.338822 0.654499 0
M  V30 10247 H 977.616 -0.20422 1.88899 0
M  V30 10248 H 975.766 -2.39021 3.0627 0
M  V30 10249 H 977.438 -0.284407 4.60422 0
M  V30 10250 H 975.681 -0.198145 4.33347 0
M  V30 10251 H 976.352 -1.50793 5.31004 0
M  V30 10252 H 978.828 -2.21975 3.51946 0
M  V30 10253 H 977.704 -3.29424 4.39057 0
M  V30 10254 H 977.965 -3.52455 2.66885 0
M  V30 10255 N 977.024 -1.50153 -0.478725 0
M  V30 10256 C 978.273 -1.60002 -1.22809 0
M  V30 10257 C 978.586 -0.302277 -1.9325 0
M  V30 10258 O 979.792 -0.279583 -2.70057 0
M  V30 10259 C 978.248 -2.82402 -2.23108 0
M  V30 10260 C 977.856 -4.19023 -1.58505 0
M  V30 10261 C 979.6 -3.01593 -2.98734 0
M  V30 10262 C 977.507 -5.32618 -2.57045 0
M  V30 10263 H 976.437 -0.595822 -0.462073 0
M  V30 10264 H 979.088 -1.76573 -0.499412 0
M  V30 10265 H 977.47 -2.59373 -2.99235 0
M  V30 10266 H 978.644 -4.52277 -0.882187 0
M  V30 10267 H 976.959 -4.05374 -0.951877 0
M  V30 10268 H 979.556 -3.8363 -3.72468 0
M  V30 10269 H 979.899 -2.1302 -3.57671 0
M  V30 10270 H 980.432 -3.24766 -2.29721 0
M  V30 10271 H 977.171 -6.23321 -2.02858 0
M  V30 10272 H 976.691 -5.03792 -3.25505 0
M  V30 10273 H 978.37 -5.62877 -3.19028 0
M  V30 10274 N 978.502 0.731368 -1.39602 0
M  V30 10275 C 979.73 1.52059 -1.40305 0
M  V30 10276 C 980.145 1.888 0.00147921 0
M  V30 10277 O 979.502 1.54354 0.973715 0
M  V30 10278 C 979.553 2.80588 -2.27931 0
M  V30 10279 O 979.274 2.45406 -3.62915 0
M  V30 10280 C 980.775 3.74592 -2.37056 0
M  V30 10281 H 977.995 0.469787 -0.479104 0
M  V30 10282 H 980.539 0.903436 -1.83462 0
M  V30 10283 H 978.694 3.38626 -1.88178 0
M  V30 10284 H 979.108 3.27996 -4.09291 0
M  V30 10285 H 980.582 4.61662 -3.02609 0
M  V30 10286 H 981.059 4.16597 -1.39081 0
M  V30 10287 H 981.665 3.22471 -2.77295 0
M  V30 10288 N 979.98 1.24838 0.961938 0
M  V30 10289 C 980.89 1.06304 2.09133 0
M  V30 10290 C 981.906 0.00221475 1.74 0
M  V30 10291 O 983.082 0.201611 2.00388 0
M  V30 10292 C 980.147 0.676117 3.40043 0
M  V30 10293 C 979.208 1.81407 3.89089 0
M  V30 10294 C 978.441 1.44551 5.13752 0
M  V30 10295 O 978.664 0.337894 5.69398 0
M  V30 10296 O 977.598 2.27316 5.57325 0
M  V30 10297 H 981.424 2.01001 2.27667 0
M  V30 10298 H 979.009 1.0371 1.07539 0
M  V30 10299 H 980.891 0.472124 4.18747 0
M  V30 10300 H 979.566 -0.241667 3.22797 0
M  V30 10301 H 978.473 2.07286 3.11421 0
M  V30 10302 H 979.806 2.71083 4.10822 0
M  V30 10303 N 981.458 -1.16348 1.06306 0
M  V30 10304 C 982.688 -1.90505 0.799453 0
M  V30 10305 C 983.096 -1.77686 -0.649955 0
M  V30 10306 O 982.439 -1.11921 -1.45669 0
M  V30 10307 C 982.501 -3.41775 1.11492 0
M  V30 10308 C 982.165 -3.7838 2.56277 0
M  V30 10309 C 983.162 -3.80288 3.54509 0
M  V30 10310 C 980.847 -4.09007 2.9158 0
M  V30 10311 C 982.841 -4.12312 4.86084 0
M  V30 10312 C 980.528 -4.40697 4.23354 0
M  V30 10313 C 981.526 -4.4233 5.20416 0
M  V30 10314 O 981.214 -4.73267 6.49826 0
M  V30 10315 H 980.946 -0.61094 0.289359 0
M  V30 10316 H 983.5 -1.48409 1.41999 0
M  V30 10317 H 981.73 -3.84219 0.437306 0
M  V30 10318 H 983.419 -3.97207 0.835533 0
M  V30 10319 H 984.185 -3.56738 3.28577 0
M  V30 10320 H 980.064 -4.06901 2.16686 0
M  V30 10321 H 983.608 -4.13501 5.61838 0
M  V30 10322 H 979.505 -4.63713 4.49044 0
M  V30 10323 H 980.273 -4.91078 6.54817 0
M  V30 10324 N 982.937 -0.845659 -1.3299 0
M  V30 10325 C 984.177 -0.450819 -1.99366 0
M  V30 10326 C 984.541 0.973297 -1.65502 0
M  V30 10327 O 985.742 1.47222 -2.24898 0
M  V30 10328 C 984.013 -0.672825 -3.5101 0
M  V30 10329 S 985.572 -0.374216 -4.37201 0
M  V30 10330 H 982.39 -0.169273 -0.690556 0
M  V30 10331 H 984.992 -1.09642 -1.61861 0
M  V30 10332 H 983.696 -1.70855 -3.73145 0
M  V30 10333 H 983.227 -0.0133185 -3.93398 0
M  V30 10334 H 985.242 0.803342 -4.89654 0
M  V30 10335 N 984.415 1.45619 -0.602734 0
M  V30 10336 C 985.655 2.0416 -0.0989764 0
M  V30 10337 C 986.019 1.4616 1.24504 0
M  V30 10338 O 987.22 1.96025 1.83923 0
M  V30 10339 C 985.491 3.57357 -0.0551869 0
M  V30 10340 S 987.05 4.3708 0.388086 0
M  V30 10341 H 983.868 0.709431 -0.0472054 0
M  V30 10342 H 986.47 1.78394 -0.799745 0
M  V30 10343 H 985.174 3.97083 -1.03697 0
M  V30 10344 H 984.705 3.87692 0.667727 0
M  V30 10345 H 986.72 4.68362 1.63865 0
M  V30 10346 N 985.893 0.34162 1.53853 0
M  V30 10347 C 987.123 -0.256557 2.05001 0
M  V30 10348 C 987.531 -1.44916 1.21639 0
M  V30 10349 O 986.874 -1.8207 0.244138 0
M  V30 10350 C 986.936 -0.737109 3.51862 0
M  V30 10351 C 986.6 0.335584 4.55766 0
M  V30 10352 C 987.597 1.17765 5.06387 0
M  V30 10353 C 985.282 0.488958 4.99914 0
M  V30 10354 C 987.276 2.15865 5.99734 0
M  V30 10355 C 984.963 1.47336 5.93073 0
M  V30 10356 C 985.961 2.30666 6.4287 0
M  V30 10357 O 985.649 3.2743 7.34197 0
M  V30 10358 H 985.381 -0.0536867 0.673865 0
M  V30 10359 H 987.935 0.49123 1.99439 0
M  V30 10360 H 986.165 -1.53611 3.54881 0
M  V30 10361 H 987.854 -1.25562 3.85991 0
M  V30 10362 H 988.62 1.07023 4.73044 0
M  V30 10363 H 984.499 -0.149807 4.60757 0
M  V30 10364 H 988.043 2.80945 6.38526 0
M  V30 10365 H 983.94 1.58134 6.25831 0
M  V30 10366 H 984.708 3.22879 7.52125 0
M  V30 10367 N 987.371 -1.57444 0.0701946 0
M  V30 10368 C 988.619 -1.93047 -0.598106 0
M  V30 10369 C 988.94 -0.950841 -1.70247 0
M  V30 10370 O 988.21 0.00127177 -1.959 0
M  V30 10371 H 986.79 -0.712648 -0.223924 0
M  V30 10372 H 989.452 -1.94481 0.127674 0
M  V30 10373 H 988.548 -2.94807 -1.02445 0
M  V30 10374 N 988.849 0.203349 -1.56283 0
M  V30 10375 C 990.126 0.950415 -1.70958 0
M  V30 10376 C 990.506 2.01708 -0.622647 0
M  V30 10377 O 989.854 2.25523 0.367635 0
M  V30 10378 C 990.064 1.54434 -3.12971 0
M  V30 10379 C 991.412 2.02964 -3.72949 0
M  V30 10380 O 992.436 1.64293 -3.16048 0
M  V30 10381 O 991.295 2.74097 -4.72793 0
M  V30 10382 H 988.389 0.445154 -0.69697 0
M  V30 10383 H 990.935 0.193695 -1.68591 0
M  V30 10384 H 989.707 0.77505 -3.83547 0
M  V30 10385 H 989.33 2.36611 -3.19532 0
M  V30 10386 N 990.327 1.50405 0.470755 0
M  V30 10387 C 991.257 1.72222 1.57676 0
M  V30 10388 C 992.238 0.57121 1.60222 0
M  V30 10389 O 993.423 0.810381 1.76484 0
M  V30 10390 C 990.553 1.81666 2.95998 0
M  V30 10391 C 989.507 2.96857 3.08318 0
M  V30 10392 C 988.833 2.91445 4.4829 0
M  V30 10393 C 990.133 4.37361 2.85504 0
M  V30 10394 H 991.827 2.64825 1.39671 0
M  V30 10395 H 989.373 1.27438 0.67049 0
M  V30 10396 H 991.326 1.95514 3.73299 0
M  V30 10397 H 990.05 0.856856 3.1516 0
M  V30 10398 H 988.709 2.82661 2.33449 0
M  V30 10399 H 988.357 1.93309 4.64371 0
M  V30 10400 H 988.057 3.68776 4.57469 0
M  V30 10401 H 989.581 3.07341 5.27611 0
M  V30 10402 H 990.995 4.52081 3.52555 0
M  V30 10403 H 989.392 5.16145 3.06127 0
M  V30 10404 H 990.462 4.49708 1.81359 0
M  V30 10405 N 991.805 -0.723954 1.39988 0
M  V30 10406 C 992.735 -1.85103 1.42335 0
M  V30 10407 C 993.716 -1.6769 0.285297 0
M  V30 10408 O 994.901 -1.87846 0.492716 0
M  V30 10409 C 992.031 -3.22972 1.27697 0
M  V30 10410 C 990.985 -3.55041 2.39018 0
M  V30 10411 C 990.311 -4.91965 2.09462 0
M  V30 10412 C 991.611 -3.56889 3.8135 0
M  V30 10413 H 993.305 -1.83396 2.36656 0
M  V30 10414 H 990.851 -0.880926 1.13911 0
M  V30 10415 H 992.804 -4.01503 1.27958 0
M  V30 10416 H 991.528 -3.25233 0.298487 0
M  V30 10417 H 990.187 -2.78845 2.37993 0
M  V30 10418 H 989.835 -4.90819 1.10025 0
M  V30 10419 H 989.535 -5.14389 2.84038 0
M  V30 10420 H 991.059 -5.7284 2.11391 0
M  V30 10421 H 992.473 -4.25476 3.84243 0
M  V30 10422 H 990.87 -3.90836 4.55376 0
M  V30 10423 H 991.94 -2.56452 4.11534 0
M  V30 10424 N 993.283 -1.25346 -0.955304 0
M  V30 10425 C 994.231 -1.05461 -2.07318 0
M  V30 10426 C 995.225 0.0142699 -1.69394 0
M  V30 10427 O 996.431 -0.141292 -1.79445 0
M  V30 10428 H 992.806 -0.324095 -0.678577 0
M  V30 10429 H 994.777 -2.00231 -2.21247 0
M  V30 10430 C 993.526 -0.689329 -3.40798 0
M  V30 10431 H 992.849 -1.50362 -3.70447 0
M  V30 10432 H 994.289 -0.589883 -4.19877 0
M  V30 10433 C 992.748 0.604556 -3.31431 0
M  V30 10434 O 993.278 1.64686 -3.6639 0
M  V30 10435 N 991.484 0.589927 -2.84549 0
M  V30 10436 H 991.031 -0.258647 -2.56298 0
M  V30 10437 H 990.989 1.4558 -2.78664 0
M  V30 10438 N 994.761 1.15782 -1.06922 0
M  V30 10439 C 996.008 1.86465 -0.789752 0
M  V30 10440 C 996.336 1.82075 0.684022 0
M  V30 10441 O 995.591 1.23576 1.51748 0
M  V30 10442 C 995.89 3.35284 -1.2377 0
M  V30 10443 C 995.556 3.59871 -2.71668 0
M  V30 10444 C 994.218 3.6629 -3.12066 0
M  V30 10445 C 996.57 3.69929 -3.67154 0
M  V30 10446 C 993.898 3.80275 -4.46775 0
M  V30 10447 C 996.25 3.85436 -5.01619 0
M  V30 10448 C 994.914 3.901 -5.41644 0
M  V30 10449 H 994.184 0.682324 -0.288991 0
M  V30 10450 H 996.831 1.36861 -1.33945 0
M  V30 10451 H 995.136 3.87065 -0.607309 0
M  V30 10452 H 996.833 3.88371 -0.998431 0
M  V30 10453 H 993.423 3.55512 -2.39393 0
M  V30 10454 H 997.607 3.64274 -3.37073 0
M  V30 10455 H 992.863 3.8214 -4.77262 0
M  V30 10456 H 997.037 3.92161 -5.75485 0
M  V30 10457 H 994.664 4.00688 -6.46029 0
M  V30 10458 N 996.239 0.8527 1.3254 0
M  V30 10459 C 997.169 0.311234 2.31416 0
M  V30 10460 C 998.15 -0.588557 1.59593 0
M  V30 10461 O 999.335 -0.509211 1.87405 0
M  V30 10462 C 996.465 -0.502892 3.4364 0
M  V30 10463 C 995.419 0.302296 4.26931 0
M  V30 10464 C 994.745 -0.636445 5.30899 0
M  V30 10465 C 996.045 1.52697 4.99481 0
M  V30 10466 H 997.739 1.13742 2.76953 0
M  V30 10467 H 995.285 0.548389 1.33149 0
M  V30 10468 H 997.238 -0.892092 4.11849 0
M  V30 10469 H 995.962 -1.36242 2.96826 0
M  V30 10470 H 994.621 0.673226 3.60365 0
M  V30 10471 H 994.269 -1.49277 4.80339 0
M  V30 10472 H 993.969 -0.101716 5.87512 0
M  V30 10473 H 995.493 -1.02286 6.01972 0
M  V30 10474 H 996.907 1.21017 5.60382 0
M  V30 10475 H 995.304 1.9995 5.65809 0
M  V30 10476 H 996.374 2.28929 4.27457 0
M  V30 10477 N 997.718 -1.45297 0.610449 0
M  V30 10478 C 999.134 -1.57225 0.274332 0
M  V30 10479 C 999.334 -1.60136 -1.22306 0
M  V30 10480 O 998.39 -1.5332 -2.00622 0
M  V30 10481 C 999.703 -2.85365 0.948028 0
M  V30 10482 C 1001.25 -2.99044 0.924216 0
M  V30 10483 C 1001.73 -4.29958 1.57798 0
M  V30 10484 N 1003.22 -4.36723 1.5436 0
M  V30 10485 C 1003.95 -5.36695 2.01857 0
M  V30 10486 N 1003.45 -6.43187 2.57453 0
M  V30 10487 N 1005.24 -5.28071 1.92608 0
M  V30 10488 H 997.392 -1.41651 1.58268 0
M  V30 10489 H 999.655 -0.67744 0.663158 0
M  V30 10490 H 999.361 -2.89125 2.00249 0
M  V30 10491 H 999.235 -3.74222 0.473062 0
M  V30 10492 H 1001.62 -2.94849 -0.121709 0
M  V30 10493 H 1001.7 -2.1159 1.43748 0
M  V30 10494 H 1001.35 -4.34912 2.62325 0
M  V30 10495 H 1001.28 -5.16234 1.03972 0
M  V30 10496 H 1003.77 -3.60374 1.13749 0
M  V30 10497 H 1004.08 -7.15722 2.91482 0
M  V30 10498 H 1002.43 -6.4393 2.61493 0
M  V30 10499 H 1005.62 -4.43783 1.48912 0
M  V30 10500 H 1005.79 -6.05832 2.29938 0
M  V30 10501 N 999.196 -0.349774 -1.5367 0
M  V30 10502 C 1000.61 0.00191293 -1.596 0
M  V30 10503 C 1000.81 1.48175 -1.36552 0
M  V30 10504 O 999.868 2.24129 -1.16285 0
M  V30 10505 C 1001.18 -0.439848 -2.97466 0
M  V30 10506 C 1002.73 -0.392721 -3.10526 0
M  V30 10507 C 1003.2 -0.810047 -4.5078 0
M  V30 10508 N 1004.69 -0.764478 -4.56848 0
M  V30 10509 C 1005.43 -1.05927 -5.63531 0
M  V30 10510 N 1004.93 -1.42253 -6.78038 0
M  V30 10511 N 1006.72 -0.983098 -5.53436 0
M  V30 10512 H 998.87 -1.31364 -1.66905 0
M  V30 10513 H 1001.13 -0.535908 -0.781989 0
M  V30 10514 H 1000.84 -1.47189 -3.19419 0
M  V30 10515 H 1000.71 0.181735 -3.76762 0
M  V30 10516 H 1003.1 0.630161 -2.88293 0
M  V30 10517 H 1003.18 -1.04959 -2.33275 0
M  V30 10518 H 1002.82 -1.83097 -4.73749 0
M  V30 10519 H 1002.75 -0.130591 -5.26438 0
M  V30 10520 H 1005.25 -0.496637 -3.74622 0
M  V30 10521 H 1005.56 -1.63215 -7.55368 0
M  V30 10522 H 1003.9 -1.46104 -6.79469 0
M  V30 10523 H 1007.09 -0.698601 -4.62858 0
M  V30 10524 H 1007.27 -1.21618 -6.36485 0
M  V30 10525 N 1000.67 1.57404 -0.0785433 0
M  V30 10526 C 1001.62 2.13104 0.88631 0
M  V30 10527 C 1002.59 1.04527 1.29086 0
M  V30 10528 O 1003.78 1.32226 1.37553 0
M  V30 10529 C 1000.92 2.70252 2.14611 0
M  V30 10530 C 1000.03 3.93007 1.79358 0
M  V30 10531 C 999.164 4.38376 3 0
M  V30 10532 C 998.203 5.53761 2.60796 0
M  V30 10533 N 997.34 5.94058 3.74219 0
M  V30 10534 H 1002.18 2.95243 0.404452 0
M  V30 10535 H 999.717 1.45894 0.187982 0
M  V30 10536 H 1001.67 3.01497 2.88367 0
M  V30 10537 H 1000.3 1.90868 2.60326 0
M  V30 10538 H 999.357 3.68181 0.956384 0
M  V30 10539 H 1000.67 4.76795 1.4652 0
M  V30 10540 H 999.823 4.71317 3.82027 0
M  V30 10541 H 998.562 3.53455 3.36037 0
M  V30 10542 H 997.567 5.20464 1.77192 0
M  V30 10543 H 998.792 6.40419 2.25922 0
M  V30 10544 H 996.738 5.12085 4.10005 0
M  V30 10545 H 996.655 6.72602 3.45171 0
M  V30 10546 H 997.923 6.31624 4.56805 0
M  V30 10547 N 1002.15 -0.195058 1.56388 0
M  V30 10548 C 1003.11 -1.2254 1.93692 0
M  V30 10549 C 1004.11 -1.38437 0.81804 0
M  V30 10550 O 1005.3 -1.36248 1.08545 0
M  V30 10551 C 1002.44 -2.59476 2.21099 0
M  V30 10552 H 1003.63 -0.906544 2.8587 0
M  V30 10553 H 1001.18 -0.436577 1.50079 0
M  V30 10554 H 1001.92 -2.96417 1.31558 0
M  V30 10555 H 1001.7 -2.4931 3.02634 0
M  V30 10556 H 1003.19 -3.33777 2.50964 0
M  V30 10557 N 1003.63 -1.50653 -0.462772 0
M  V30 10558 C 1004.54 -1.72923 -1.58539 0
M  V30 10559 C 1005.56 -0.612577 -1.6286 0
M  V30 10560 O 1006.73 -0.891885 -1.80575 0
M  V30 10561 C 1003.8 -1.82623 -2.94703 0
M  V30 10562 C 1002.86 -3.06392 -3.00704 0
M  V30 10563 C 1002.09 -3.15618 -4.30373 0
M  V30 10564 O 1002.31 -2.31423 -5.21344 0
M  V30 10565 O 1001.25 -4.0841 -4.42136 0
M  V30 10566 H 1005.07 -2.68103 -1.42669 0
M  V30 10567 H 1002.66 -1.34848 -0.643144 0
M  V30 10568 H 1004.54 -1.91134 -3.7556 0
M  V30 10569 H 1003.22 -0.906275 -3.10754 0
M  V30 10570 H 1002.12 -3.03375 -2.18894 0
M  V30 10571 H 1003.46 -3.97992 -2.89591 0
M  V30 10572 N 1005.11 0.71652 -1.4037 0
M  V30 10573 C 1006.07 1.81231 -1.40313 0
M  V30 10574 C 1007.07 1.58032 -0.297087 0
M  V30 10575 O 1008.26 1.65091 -0.555944 0
M  V30 10576 C 1005.39 3.19308 -1.19395 0
M  V30 10577 H 1006.59 1.8268 -2.3784 0
M  V30 10578 H 1004.14 0.922062 -1.26205 0
M  V30 10579 H 1004.87 3.2351 -0.226252 0
M  V30 10580 H 1004.66 3.37546 -1.99512 0
M  V30 10581 H 1006.15 3.99339 -1.22141 0
M  V30 10582 N 1006.59 1.25851 0.948643 0
M  V30 10583 C 1007.52 1.0108 2.04593 0
M  V30 10584 C 1008.5 -0.0619691 1.62482 0
M  V30 10585 O 1009.68 0.0789196 1.88335 0
M  V30 10586 C 1006.81 0.529174 3.34541 0
M  V30 10587 C 1005.85 1.59337 3.95618 0
M  V30 10588 S 1006.69 3.18026 4.30836 0
M  V30 10589 C 1007.84 2.71613 5.63895 0
M  V30 10590 H 1008.08 1.93988 2.2529 0
M  V30 10591 H 1005.61 1.09448 1.08906 0
M  V30 10592 H 1007.57 0.25795 4.09689 0
M  V30 10593 H 1006.23 -0.37951 3.11799 0
M  V30 10594 H 1005.42 1.20722 4.89328 0
M  V30 10595 H 1005.02 1.81559 3.26975 0
M  V30 10596 H 1007.32 2.15612 6.42275 0
M  V30 10597 H 1008.26 3.63986 6.07387 0
M  V30 10598 H 1008.67 2.11417 5.23415 0
M  V30 10599 N 1008.06 -1.15214 1.07534 0
M  V30 10600 C 1008.99 -2.2216 0.718837 0
M  V30 10601 C 1009.98 -1.6753 -0.29459 0
M  V30 10602 O 1011.16 -1.93481 -0.166931 0
M  V30 10603 C 1008.29 -3.471 0.117836 0
M  V30 10604 C 1007.24 -4.14701 1.05862 0
M  V30 10605 C 1006.57 -5.3374 0.320284 0
M  V30 10606 C 1007.87 -4.64254 2.39302 0
M  V30 10607 H 1009.56 -2.52237 1.61297 0
M  V30 10608 H 1007.11 -1.21239 0.776992 0
M  V30 10609 H 1009.06 -4.21156 -0.143519 0
M  V30 10610 H 1007.79 -3.16361 -0.811389 0
M  V30 10611 H 1006.45 -3.42589 1.30493 0
M  V30 10612 H 1006.09 -4.99257 -0.61246 0
M  V30 10613 H 1005.79 -5.79912 0.947381 0
M  V30 10614 H 1007.32 -6.10563 0.0667721 0
M  V30 10615 H 1008.73 -5.29827 2.18988 0
M  V30 10616 H 1007.13 -5.21095 2.97623 0
M  V30 10617 H 1008.2 -3.79793 3.01472 0
M  V30 10618 N 1009.54 -0.859717 -1.32086 0
M  V30 10619 C 1010.79 -0.464662 -1.96686 0
M  V30 10620 C 1011.11 0.98412 -1.68345 0
M  V30 10621 O 1010.38 1.68847 -0.993361 0
M  V30 10622 H 1008.96 -0.168838 -0.727669 0
M  V30 10623 H 1011.62 -1.09726 -1.61079 0
M  V30 10624 H 1010.72 -0.613904 -3.06003 0
M  V30 10625 N 1011.02 1.44971 -0.618145 0
M  V30 10626 C 1012.43 1.85611 -0.201334 0
M  V30 10627 C 1012.78 1.51698 1.24427 0
M  V30 10628 O 1011.91 0.94875 1.94493 0
M  V30 10629 C 1012.5 3.36897 -0.358619 0
M  V30 10630 C 1011.06 3.764 0.00358196 0
M  V30 10631 C 1010.21 2.68881 -0.678118 0
M  V30 10632 H 1013.16 1.35622 -0.824152 0
M  V30 10633 H 1013.18 3.78326 0.406176 0
M  V30 10634 H 1012.69 3.61548 -1.41084 0
M  V30 10635 H 1010.79 3.57365 1.05457 0
M  V30 10636 H 1010.91 4.77449 -0.397427 0
M  V30 10637 H 1009.27 2.54442 -0.114699 0
M  V30 10638 H 1010.05 2.96367 -1.73268 0
M  V30 10639 N 1012.5 0.357919 1.53482 0
M  V30 10640 C 1013.72 -0.237769 2.06033 0
M  V30 10641 C 1014.15 -1.42292 1.23023 0
M  V30 10642 O 1013.51 -1.79604 0.247427 0
M  V30 10643 C 1013.55 -0.616806 3.55286 0
M  V30 10644 O 1012.66 -1.71503 3.75047 0
M  V30 10645 H 1012 -0.0364322 0.663 0
M  V30 10646 H 1014.53 0.516301 1.97979 0
M  V30 10647 H 1014.54 -0.88996 3.98175 0
M  V30 10648 H 1013.21 0.249825 4.15149 0
M  V30 10649 H 1011.79 -1.43803 3.44057 0
M  V30 10650 N 1013.98 -1.5736 0.0868897 0
M  V30 10651 C 1014.91 -2.16596 -0.872252 0
M  V30 10652 C 1015.89 -1.09706 -1.29995 0
M  V30 10653 O 1017.07 -1.37808 -1.36831 0
M  V30 10654 C 1014.2 -2.73972 -2.1344 0
M  V30 10655 C 1013.16 -3.86163 -1.8456 0
M  V30 10656 C 1012.48 -4.30206 -3.17533 0
M  V30 10657 C 1013.78 -5.0973 -1.13899 0
M  V30 10658 H 1015.48 -2.96995 -0.378738 0
M  V30 10659 H 1013.02 -1.42861 -0.18073 0
M  V30 10660 H 1014.98 -3.14062 -2.80968 0
M  V30 10661 H 1013.7 -1.90817 -2.6506 0
M  V30 10662 H 1012.36 -3.466 -1.19432 0
M  V30 10663 H 1012.01 -3.43951 -3.67024 0
M  V30 10664 H 1011.71 -5.05841 -2.98996 0
M  V30 10665 H 1013.23 -4.72922 -3.86234 0
M  V30 10666 H 1014.64 -5.4704 -1.71523 0
M  V30 10667 H 1013.04 -5.90741 -1.05569 0
M  V30 10668 H 1014.11 -4.8475 -0.120432 0
M  V30 10669 N 1015.45 0.186762 -1.56489 0
M  V30 10670 C 1016.68 0.925916 -1.85584 0
M  V30 10671 C 1017.1 1.75708 -0.671446 0
M  V30 10672 O 1016.46 1.7728 0.379687 0
M  V30 10673 C 1016.51 1.79107 -3.12975 0
M  V30 10674 O 1015.61 2.89088 -2.94112 0
M  V30 10675 H 1014.96 0.260275 -0.610863 0
M  V30 10676 H 1017.49 0.189561 -2.0372 0
M  V30 10677 H 1017.5 2.19408 -3.43983 0
M  V30 10678 H 1016.17 1.18044 -3.98796 0
M  V30 10679 H 1014.75 2.52482 -2.74422 0
M  V30 10680 N 1016.93 1.50896 0.454776 0
M  V30 10681 C 1018.34 1.55372 1.0352 0
M  V30 10682 C 1018.69 0.366822 1.9274 0
M  V30 10683 O 1017.82 -0.518444 2.10098 0
M  V30 10684 C 1018.41 2.81574 1.88418 0
M  V30 10685 C 1016.97 2.88679 2.4154 0
M  V30 10686 C 1016.12 2.49847 1.20298 0
M  V30 10687 H 1019.07 1.56924 0.236729 0
M  V30 10688 H 1019.09 2.64352 2.73676 0
M  V30 10689 H 1018.6 3.67941 1.23455 0
M  V30 10690 H 1016.71 2.06702 3.10008 0
M  V30 10691 H 1016.82 3.91944 2.7553 0
M  V30 10692 H 1015.18 2.02651 1.54288 0
M  V30 10693 H 1015.97 3.3854 0.569723 0
M  V30 10694 N 1018.41 -0.709066 1.40748 0
M  V30 10695 C 1019.66 -1.46611 1.39103 0
M  V30 10696 C 1019.98 -1.95 -0.00365366 0
M  V30 10697 O 1019.25 -1.70791 -0.959541 0
M  V30 10698 H 1017.83 -0.543954 0.511979 0
M  V30 10699 H 1020.49 -0.840141 1.75863 0
M  V30 10700 H 1019.59 -2.33581 2.06994 0
M  V30 10701 N 1019.89 -1.26353 -0.941956 0
M  V30 10702 C 1020.82 -1.03634 -2.04432 0
M  V30 10703 C 1021.83 0.00295864 -1.628 0
M  V30 10704 O 1023.02 -0.237029 -1.76919 0
M  V30 10705 C 1020.12 -0.547231 -3.34453 0
M  V30 10706 C 1019.3 -1.65559 -4.04857 0
M  V30 10707 C 1018.36 -1.16466 -5.13149 0
M  V30 10708 O 1017.38 -1.86158 -5.37898 0
M  V30 10709 N 1018.58 -0.0126703 -5.80499 0
M  V30 10710 H 1021.35 -1.98558 -2.24488 0
M  V30 10711 H 1018.91 -1.17728 -1.11138 0
M  V30 10712 H 1020.9 -0.203004 -4.04191 0
M  V30 10713 H 1019.47 0.308401 -3.11075 0
M  V30 10714 H 1018.69 -2.17079 -3.29044 0
M  V30 10715 H 1019.98 -2.39985 -4.48647 0
M  V30 10716 H 1019.38 0.569358 -5.62828 0
M  V30 10717 H 1017.93 0.272486 -6.5123 0
M  V30 10718 N 1021.37 1.14642 -1.08144 0
M  V30 10719 C 1022.64 1.81774 -0.72232 0
M  V30 10720 C 1023.02 1.95587 0.794294 0
M  V30 10721 O 1022.37 1.51361 1.71178 0
M  V30 10722 C 1022.58 3.1763 -1.44611 0
M  V30 10723 C 1023.93 3.93161 -1.60343 0
M  V30 10724 O 1024.95 3.2721 -1.40755 0
M  V30 10725 O 1023.81 5.11422 -1.9264 0
M  V30 10726 H 1020.91 0.785733 -0.257978 0
M  V30 10727 H 1023.45 1.21683 -1.18285 0
M  V30 10728 H 1022.23 3.02723 -2.4794 0
M  V30 10729 H 1021.85 3.85412 -0.976892 0
M  V30 10730 N 1022.85 0.866709 1.31628 0
M  V30 10731 C 1024.26 0.529032 1.79048 0
M  V30 10732 C 1024.61 -0.953871 1.71452 0
M  V30 10733 O 1023.73 -1.74462 1.28031 0
M  V30 10734 C 1024.33 0.953522 3.25105 0
M  V30 10735 C 1022.89 0.667554 3.70433 0
M  V30 10736 C 1022.03 1.14664 2.52483 0
M  V30 10737 H 1024.98 1.05275 1.18756 0
M  V30 10738 H 1025.01 0.274844 3.79506 0
M  V30 10739 H 1024.52 2.03283 3.30602 0
M  V30 10740 H 1022.62 -0.400532 3.70441 0
M  V30 10741 H 1022.73 1.2423 4.62714 0
M  V30 10742 H 1021.1 0.566502 2.4832 0
M  V30 10743 H 1021.88 2.2333 2.60727 0
M  V30 10744 N 1024.32 -1.44642 0.625825 0
M  V30 10745 C 1025.23 -2.34451 -0.0836134 0
M  V30 10746 C 1026.25 -1.5231 -0.841289 0
M  V30 10747 O 1027.43 -1.85056 -0.794754 0
M  V30 10748 C 1024.49 -3.30211 -1.05648 0
M  V30 10749 C 1023.55 -4.28259 -0.298759 0
M  V30 10750 C 1022.78 -5.19444 -1.22528 0
M  V30 10751 O 1023.01 -5.14444 -2.46382 0
M  V30 10752 O 1021.94 -5.97668 -0.71247 0
M  V30 10753 H 1025.77 -2.96555 0.654912 0
M  V30 10754 H 1023.35 -1.44327 0.386029 0
M  V30 10755 H 1025.23 -3.8917 -1.61632 0
M  V30 10756 H 1023.91 -2.70648 -1.77571 0
M  V30 10757 H 1022.82 -3.72863 0.304001 0
M  V30 10758 H 1024.15 -4.90728 0.380345 0
M  V30 10759 N 1025.8 -0.366053 -1.5329 0
M  V30 10760 C 1027.05 0.223051 -2.00865 0
M  V30 10761 C 1027.37 1.49244 -1.25504 0
M  V30 10762 O 1026.64 1.92404 -0.368444 0
M  V30 10763 H 1025.22 0.085413 -0.742101 0
M  V30 10764 H 1027.88 -0.492396 -1.88578 0
M  V30 10765 H 1026.98 0.449701 -3.08843 0
M  V30 10766 N 1027.28 1.57312 -0.0952337 0
M  V30 10767 C 1028.53 1.93974 0.567319 0
M  V30 10768 C 1028.85 0.977805 1.68713 0
M  V30 10769 O 1028.12 0.0298944 1.95877 0
M  V30 10770 H 1026.7 0.71612 0.212558 0
M  V30 10771 H 1029.36 1.94254 -0.158598 0
M  V30 10772 H 1028.46 2.964 0.977423 0
M  V30 10773 N 1028.76 -0.17846 1.56586 0
M  V30 10774 C 1030 -0.897562 1.81856 0
M  V30 10775 C 1030.34 -1.82204 0.671955 0
M  V30 10776 O 1029.61 -1.91739 -0.326535 0
M  V30 10777 C 1029.89 -1.69942 3.17477 0
M  V30 10778 C 1029.75 -0.798545 4.42655 0
M  V30 10779 C 1031.07 -2.66861 3.49962 0
M  V30 10780 H 1028.19 -0.324863 0.661539 0
M  V30 10781 H 1030.83 -0.164106 1.8929 0
M  V30 10782 H 1028.98 -2.32471 3.11271 0
M  V30 10783 H 1030.65 -0.18668 4.60922 0
M  V30 10784 H 1028.89 -0.106181 4.3367 0
M  V30 10785 H 1029.56 -1.39496 5.34083 0
M  V30 10786 H 1032.04 -2.1446 3.56576 0
M  V30 10787 H 1030.92 -3.20037 4.45946 0
M  V30 10788 H 1031.18 -3.46715 2.74301 0
M  V30 10789 N 1030.24 -1.51135 -0.446768 0
M  V30 10790 C 1031.51 -1.5387 -1.20762 0
M  V30 10791 C 1031.89 -0.297446 -2.08994 0
M  V30 10792 O 1031.24 0.717975 -2.16927 0
M  V30 10793 C 1031.45 -2.84767 -2.01764 0
M  V30 10794 C 1032.8 -3.3636 -2.59128 0
M  V30 10795 O 1033.82 -2.86254 -2.11984 0
M  V30 10796 O 1032.68 -4.23765 -3.45088 0
M  V30 10797 H 1029.78 -0.618228 -0.549293 0
M  V30 10798 H 1032.32 -1.63442 -0.456605 0
M  V30 10799 H 1031.09 -3.6657 -1.36901 0
M  V30 10800 H 1030.72 -2.78313 -2.8395 0
M  V30 10801 N 1031.71 0.701592 -1.41122 0
M  V30 10802 C 1032.94 1.48833 -1.43291 0
M  V30 10803 C 1033.35 1.89168 -0.0348668 0
M  V30 10804 O 1032.69 1.56937 0.9548 0
M  V30 10805 C 1032.76 2.78533 -2.27287 0
M  V30 10806 C 1032.42 2.60438 -3.75528 0
M  V30 10807 C 1033.42 2.26778 -4.67833 0
M  V30 10808 C 1031.1 2.76266 -4.19503 0
M  V30 10809 C 1033.1 2.09176 -6.021 0
M  V30 10810 C 1030.78 2.58281 -5.53836 0
M  V30 10811 C 1031.78 2.24786 -6.4495 0
M  V30 10812 O 1031.47 2.06952 -7.76805 0
M  V30 10813 H 1031.2 0.465401 -0.490284 0
M  V30 10814 H 1033.76 0.871843 -1.85979 0
M  V30 10815 H 1031.99 3.42566 -1.79403 0
M  V30 10816 H 1033.67 3.40312 -2.21229 0
M  V30 10817 H 1034.44 2.1417 -4.35151 0
M  V30 10818 H 1030.32 3.01322 -3.48893 0
M  V30 10819 H 1033.86 1.82955 -6.73181 0
M  V30 10820 H 1029.76 2.70478 -5.86099 0
M  V30 10821 H 1030.53 2.21762 -7.87886 0
M  V30 10822 N 1033.19 1.2685 0.935242 0
M  V30 10823 C 1034.14 1.08923 2.03481 0
M  V30 10824 C 1035.11 -0.00749786 1.66098 0
M  V30 10825 O 1036.29 0.153401 1.90182 0
M  V30 10826 C 1033.43 0.734529 3.37192 0
M  V30 10827 C 1032.55 1.90812 3.87576 0
M  V30 10828 C 1031.68 1.49599 5.097 0
M  V30 10829 C 1030.72 2.63752 5.5236 0
M  V30 10830 N 1029.86 2.23179 6.65684 0
M  V30 10831 H 1034.7 2.03016 2.18148 0
M  V30 10832 H 1032.23 1.01072 1.06878 0
M  V30 10833 H 1034.19 0.509734 4.14074 0
M  V30 10834 H 1032.82 -0.169438 3.22355 0
M  V30 10835 H 1031.87 2.24567 3.0704 0
M  V30 10836 H 1033.19 2.7647 4.1517 0
M  V30 10837 H 1032.34 1.23199 5.9406 0
M  V30 10838 H 1031.08 0.61039 4.83865 0
M  V30 10839 H 1030.08 2.90874 4.66554 0
M  V30 10840 H 1031.31 3.5292 5.80193 0
M  V30 10841 H 1029.26 1.37061 6.41522 0
M  V30 10842 H 1029.17 3.02379 6.92895 0
M  V30 10843 H 1030.44 2.00007 7.53404 0
M  V30 10844 N 1034.67 -1.14067 1.0875 0
M  V30 10845 C 1035.62 -2.21332 0.715195 0
M  V30 10846 C 1036.61 -1.67059 -0.280679 0
M  V30 10847 O 1037.82 -1.79432 -0.142874 0
M  V30 10848 H 1034.19 -0.721126 0.213264 0
M  V30 10849 H 1036.16 -2.50002 1.62916 0
M  V30 10850 C 1034.91 -3.474 0.144401 0
M  V30 10851 H 1034.24 -3.89495 0.901884 0
M  V30 10852 H 1035.68 -4.23928 -0.0782564 0
M  V30 10853 C 1034.14 -3.17787 -1.11862 0
M  V30 10854 O 1034.67 -3.35906 -2.20295 0
M  V30 10855 N 1032.87 -2.71719 -1.03039 0
M  V30 10856 H 1032.42 -2.57175 -0.14793 0
M  V30 10857 H 1032.38 -2.52281 -1.87621 0
M  V30 10858 N 1036.15 -0.873678 -1.31166 0
M  V30 10859 C 1037.4 -0.482577 -1.95842 0
M  V30 10860 C 1037.71 0.970881 -1.69804 0
M  V30 10861 O 1038.92 1.4683 -2.28371 0
M  V30 10862 C 1037.37 -0.812074 -3.50619 0
M  V30 10863 C 1036.98 -2.28254 -3.85492 0
M  V30 10864 C 1038.72 -0.489624 -4.21667 0
M  V30 10865 C 1036.63 -2.55426 -5.33396 0
M  V30 10866 H 1035.56 -0.176736 -0.732994 0
M  V30 10867 H 1038.21 -1.06709 -1.49283 0
M  V30 10868 H 1036.59 -0.156769 -3.9569 0
M  V30 10869 H 1037.77 -2.98122 -3.51369 0
M  V30 10870 H 1036.08 -2.5714 -3.27518 0
M  V30 10871 H 1038.68 -0.669811 -5.30488 0
M  V30 10872 H 1039.02 0.570204 -4.12376 0
M  V30 10873 H 1039.56 -1.10163 -3.82242 0
M  V30 10874 H 1036.3 -3.60106 -5.47726 0
M  V30 10875 H 1035.82 -1.90156 -5.68859 0
M  V30 10876 H 1037.49 -2.40345 -6.00702 0
M  V30 10877 N 1037.63 1.44308 -0.633487 0
M  V30 10878 C 1038.58 2.27814 0.0919619 0
M  V30 10879 C 1039.56 1.38798 0.813882 0
M  V30 10880 O 1040.75 1.62587 0.699601 0
M  V30 10881 C 1037.88 3.26158 1.07125 0
M  V30 10882 C 1036.97 4.22663 0.348831 0
M  V30 10883 N 1037.36 5.01938 -0.623854 0
M  V30 10884 C 1035.66 4.42041 0.592958 0
M  V30 10885 C 1036.36 5.72129 -1.05088 0
M  V30 10886 N 1035.33 5.42205 -0.389183 0
M  V30 10887 H 1039.14 2.86515 -0.654721 0
M  V30 10888 H 1036.65 1.55773 -0.459178 0
M  V30 10889 H 1038.65 3.84742 1.60559 0
M  V30 10890 H 1037.31 2.69019 1.81821 0
M  V30 10891 H 1038.32 5.08119 -1.00176 0
M  V30 10892 H 1034.99 3.95997 1.32261 0
M  V30 10893 H 1036.38 6.45797 -1.85461 0
M  V30 10894 N 1039.1 0.374177 1.53094 0
M  V30 10895 C 1040.03 -0.459976 2.28925 0
M  V30 10896 C 1041.02 -1.07656 1.31698 0
M  V30 10897 O 1042.2 -1.09219 1.60577 0
M  V30 10898 C 1039.33 -1.5954 3.08487 0
M  V30 10899 C 1038.28 -1.10563 4.13473 0
M  V30 10900 C 1037.61 -2.33196 4.81169 0
M  V30 10901 C 1038.91 -0.184275 5.21975 0
M  V30 10902 H 1040.6 0.172692 2.98902 0
M  V30 10903 H 1038.15 0.0844956 1.43752 0
M  V30 10904 H 1040.1 -2.18565 3.60288 0
M  V30 10905 H 1038.83 -2.25543 2.36216 0
M  V30 10906 H 1037.49 -0.53801 3.62631 0
M  V30 10907 H 1037.13 -2.97675 4.05461 0
M  V30 10908 H 1036.83 -2.01094 5.52119 0
M  V30 10909 H 1038.36 -2.92892 5.35767 0
M  V30 10910 H 1039.77 -0.682262 5.69226 0
M  V30 10911 H 1038.17 0.0462746 6.00082 0
M  V30 10912 H 1039.24 0.771152 4.78729 0
M  V30 10913 N 1040.58 -1.57259 0.103575 0
M  V30 10914 C 1041.49 -2.18018 -0.866327 0
M  V30 10915 C 1042.51 -1.15198 -1.30404 0
M  V30 10916 O 1043.68 -1.47605 -1.37021 0
M  V30 10917 C 1040.75 -2.75533 -2.10434 0
M  V30 10918 C 1039.81 -3.93337 -1.72002 0
M  V30 10919 C 1039.04 -4.481 -2.89901 0
M  V30 10920 O 1039.27 -4.01784 -4.04877 0
M  V30 10921 O 1038.2 -5.39004 -2.67877 0
M  V30 10922 H 1042.03 -3.01322 -0.379338 0
M  V30 10923 H 1039.61 -1.48907 -0.121228 0
M  V30 10924 H 1041.49 -3.12259 -2.8297 0
M  V30 10925 H 1040.17 -1.9527 -2.58169 0
M  V30 10926 H 1039.08 -3.61408 -0.966193 0
M  V30 10927 H 1040.41 -4.74989 -1.29022 0
M  V30 10928 N 1042.06 0.170153 -1.56679 0
M  V30 10929 C 1043.01 1.21064 -1.965 0
M  V30 10930 C 1043.98 1.43928 -0.829092 0
M  V30 10931 O 1045.16 1.56649 -1.08931 0
M  V30 10932 C 1042.3 2.54468 -2.33109 0
M  V30 10933 C 1041.42 2.38974 -3.59883 0
M  V30 10934 C 1040.55 3.65252 -3.857 0
M  V30 10935 C 1039.59 3.44696 -5.05817 0
M  V30 10936 N 1038.73 4.63047 -5.27761 0
M  V30 10937 H 1043.57 0.864055 -2.85198 0
M  V30 10938 H 1041.1 0.415243 -1.41117 0
M  V30 10939 H 1043.06 3.32222 -2.52358 0
M  V30 10940 H 1041.69 2.8712 -1.4752 0
M  V30 10941 H 1040.74 1.5239 -3.48542 0
M  V30 10942 H 1042.06 2.19731 -4.47794 0
M  V30 10943 H 1041.21 4.51441 -4.05322 0
M  V30 10944 H 1039.95 3.87475 -2.96166 0
M  V30 10945 H 1038.95 2.56893 -4.86092 0
M  V30 10946 H 1040.18 3.23894 -5.96883 0
M  V30 10947 H 1038.12 4.85487 -4.41179 0
M  V30 10948 H 1038.04 4.46722 -6.09898 0
M  V30 10949 H 1039.31 5.50516 -5.51863 0
M  V30 10950 N 1043.54 1.5137 0.438746 0
M  V30 10951 C 1044.49 1.72582 1.53245 0
M  V30 10952 C 1045.46 0.567488 1.56105 0
M  V30 10953 O 1046.64 0.80176 1.73137 0
M  V30 10954 C 1043.78 1.85551 2.90972 0
M  V30 10955 C 1042.89 3.13094 2.97652 0
M  V30 10956 C 1042.03 3.16666 4.26493 0
M  V30 10957 C 1041.07 4.38529 4.27035 0
M  V30 10958 N 1040.2 4.39659 5.47398 0
M  V30 10959 H 1045.04 2.65941 1.3446 0
M  V30 10960 H 1042.58 1.31801 0.653206 0
M  V30 10961 H 1044.54 1.91053 3.70884 0
M  V30 10962 H 1043.17 0.956025 3.08318 0
M  V30 10963 H 1042.22 3.16909 2.10412 0
M  V30 10964 H 1043.53 4.03009 2.93914 0
M  V30 10965 H 1042.69 3.21075 5.14777 0
M  V30 10966 H 1041.43 2.24637 4.32885 0
M  V30 10967 H 1040.43 4.34297 3.37144 0
M  V30 10968 H 1041.66 5.31821 4.22307 0
M  V30 10969 H 1039.6 3.50499 5.54514 0
M  V30 10970 H 1039.52 5.23382 5.45534 0
M  V30 10971 H 1040.79 4.48259 6.37718 0
M  V30 10972 N 1045.02 -0.694098 1.41492 0
M  V30 10973 C 1046.25 -1.48071 1.44078 0
M  V30 10974 C 1046.65 -1.89147 0.0448984 0
M  V30 10975 O 1046 -1.57441 -0.946464 0
M  V30 10976 C 1046.06 -2.77324 2.28761 0
M  V30 10977 C 1045.72 -2.58443 3.76904 0
M  V30 10978 C 1046.72 -2.24294 4.69029 0
M  V30 10979 C 1044.41 -2.74037 4.20962 0
M  V30 10980 C 1046.4 -2.0598 6.03201 0
M  V30 10981 C 1044.09 -2.5534 5.55198 0
M  V30 10982 C 1045.08 -2.21362 6.46133 0
M  V30 10983 O 1044.77 -2.02829 7.77892 0
M  V30 10984 H 1044.5 -0.462794 0.492745 0
M  V30 10985 H 1047.06 -0.861968 1.86438 0
M  V30 10986 H 1045.29 -3.4161 1.81217 0
M  V30 10987 H 1046.98 -3.39134 2.23031 0
M  V30 10988 H 1047.74 -2.11859 4.36281 0
M  V30 10989 H 1043.62 -2.99467 3.50486 0
M  V30 10990 H 1047.17 -1.79382 6.74142 0
M  V30 10991 H 1043.06 -2.67366 5.87525 0
M  V30 10992 H 1043.83 -2.17581 7.89051 0
M  V30 10993 N 1046.49 -1.27344 -0.928501 0
M  V30 10994 C 1047.74 -1.13804 -1.67859 0
M  V30 10995 C 1048.07 0.31555 -1.91619 0
M  V30 10996 O 1047.35 1.23087 -1.50599 0
M  V30 10997 C 1047.63 -1.9213 -3.04562 0
M  V30 10998 C 1047.48 -3.45468 -2.88048 0
M  V30 10999 C 1048.8 -1.72513 -4.04879 0
M  V30 11000 H 1045.92 -0.414796 -0.609191 0
M  V30 11001 H 1048.56 -1.5649 -1.07753 0
M  V30 11002 H 1046.71 -1.55853 -3.55868 0
M  V30 11003 H 1048.39 -3.9157 -2.43865 0
M  V30 11004 H 1046.63 -3.71849 -2.23407 0
M  V30 11005 H 1047.3 -3.95515 -3.85061 0
M  V30 11006 H 1049.78 -2.04143 -3.62581 0
M  V30 11007 H 1048.65 -2.29713 -4.98521 0
M  V30 11008 H 1048.91 -0.672856 -4.3695 0
M  V30 11009 N 1047.97 1.13488 -1.09353 0
M  V30 11010 C 1049.39 1.36739 -0.823086 0
M  V30 11011 C 1049.59 1.93476 0.562963 0
M  V30 11012 O 1048.64 2.15374 1.31796 0
M  V30 11013 C 1049.96 2.31943 -1.91371 0
M  V30 11014 C 1051.51 2.4556 -1.94085 0
M  V30 11015 C 1051.98 3.44072 -3.02289 0
M  V30 11016 N 1053.47 3.51622 -3.01524 0
M  V30 11017 C 1054.21 4.27724 -3.8189 0
M  V30 11018 N 1053.7 5.06987 -4.72161 0
M  V30 11019 N 1055.5 4.23018 -3.70152 0
M  V30 11020 H 1047.65 0.75012 -1.98713 0
M  V30 11021 H 1049.91 0.392564 -0.862901 0
M  V30 11022 H 1049.62 1.97408 -2.91072 0
M  V30 11023 H 1049.49 3.31952 -1.79131 0
M  V30 11024 H 1051.88 2.79382 -0.950234 0
M  V30 11025 H 1051.96 1.45479 -2.10403 0
M  V30 11026 H 1051.6 3.10981 -4.01564 0
M  V30 11027 H 1051.53 4.43956 -2.83214 0
M  V30 11028 H 1054.02 2.95066 -2.36103 0
M  V30 11029 H 1054.34 5.6236 -5.30067 0
M  V30 11030 H 1052.68 5.06222 -4.76197 0
M  V30 11031 H 1055.87 3.60171 -2.98989 0
M  V30 11032 H 1056.04 4.82075 -4.33022 0
M  V30 11033 N 1049.45 0.880621 1.30701 0
M  V30 11034 C 1050.87 0.574015 1.4892 0
M  V30 11035 C 1051.07 -0.889312 1.80813 0
M  V30 11036 O 1050.12 -1.67082 1.89314 0
M  V30 11037 C 1051.44 1.48341 2.61563 0
M  V30 11038 C 1052.98 1.48658 2.75445 0
M  V30 11039 C 1053.46 2.3818 3.91196 0
M  V30 11040 N 1054.95 2.36119 3.985 0
M  V30 11041 C 1055.69 3.02101 4.87363 0
M  V30 11042 N 1055.18 3.77293 5.81052 0
M  V30 11043 N 1056.97 2.91356 4.80696 0
M  V30 11044 H 1049.13 1.82732 1.08271 0
M  V30 11045 H 1051.39 0.781939 0.535981 0
M  V30 11046 H 1051.09 2.52515 2.44804 0
M  V30 11047 H 1050.97 1.18977 3.57944 0
M  V30 11048 H 1053.36 0.452374 2.91612 0
M  V30 11049 H 1053.44 1.8205 1.79698 0
M  V30 11050 H 1053.08 3.41683 3.75786 0
M  V30 11051 H 1053.01 2.02106 4.86272 0
M  V30 11052 H 1055.5 1.81474 3.31475 0
M  V30 11053 H 1055.81 4.24742 6.45612 0
M  V30 11054 H 1054.16 3.81401 5.80998 0
M  V30 11055 H 1057.35 2.32143 4.06481 0
M  V30 11056 H 1057.52 3.43056 5.49742 0
M  V30 11057 N 1050.93 -1.4397 0.641131 0
M  V30 11058 C 1052.21 -1.95436 0.0800918 0
M  V30 11059 C 1052.59 -1.58282 -1.39678 0
M  V30 11060 O 1051.93 -0.861867 -2.11623 0
M  V30 11061 C 1052.14 -3.47589 0.313531 0
M  V30 11062 C 1053.49 -4.2407 0.212034 0
M  V30 11063 O 1054.52 -3.55353 0.245434 0
M  V30 11064 O 1053.38 -5.46356 0.125455 0
M  V30 11065 H 1050.47 -0.826834 -0.0165735 0
M  V30 11066 H 1053.02 -1.5397 0.71353 0
M  V30 11067 H 1051.79 -3.67716 1.33793 0
M  V30 11068 H 1051.41 -3.96025 -0.353563 0
M  V30 11069 N 1052.41 -0.382291 -1.52893 0
M  V30 11070 C 1053.63 0.204961 -2.06385 0
M  V30 11071 C 1054.06 1.40316 -1.25271 0
M  V30 11072 O 1053.42 1.79187 -0.275969 0
M  V30 11073 C 1053.46 0.560205 -3.56222 0
M  V30 11074 O 1052.57 1.65515 -3.77728 0
M  V30 11075 H 1051.91 0.0258798 -0.663495 0
M  V30 11076 H 1054.44 -0.547733 -1.97132 0
M  V30 11077 H 1054.45 0.826501 -3.99541 0
M  V30 11078 H 1053.12 -0.31584 -4.14699 0
M  V30 11079 H 1051.7 1.38311 -3.46301 0
M  V30 11080 N 1053.89 1.57202 -0.111913 0
M  V30 11081 C 1055.13 1.94565 0.546713 0
M  V30 11082 C 1055.45 0.995644 1.67666 0
M  V30 11083 O 1054.72 0.0506681 1.95834 0
M  V30 11084 H 1053.3 0.718334 0.204951 0
M  V30 11085 H 1055.97 1.94074 -0.179193 0
M  V30 11086 H 1055.06 2.9742 0.945931 0
M  V30 11087 N 1055.36 -0.161842 1.56767 0
M  V30 11088 C 1056.61 -0.876925 1.82527 0
M  V30 11089 C 1056.94 -1.81831 0.690492 0
M  V30 11090 O 1056.19 -1.9304 -0.32159 0
M  V30 11091 C 1056.49 -1.69736 3.14522 0
M  V30 11092 C 1056.16 -0.904075 4.41743 0
M  V30 11093 C 1054.82 -0.685168 4.76297 0
M  V30 11094 C 1057.17 -0.348282 5.20035 0
M  V30 11095 C 1054.5 0.10048 5.86614 0
M  V30 11096 C 1056.85 0.424327 6.31175 0
M  V30 11097 C 1055.52 0.653948 6.64289 0
M  V30 11098 H 1054.79 -0.320889 0.667915 0
M  V30 11099 H 1057.43 -0.141338 1.90978 0
M  V30 11100 H 1055.74 -2.50262 3.01456 0
M  V30 11101 H 1057.44 -2.25386 3.31666 0
M  V30 11102 H 1054.03 -1.08474 4.14646 0
M  V30 11103 H 1058.21 -0.504721 4.93727 0
M  V30 11104 H 1053.47 0.288029 6.10721 0
M  V30 11105 H 1057.64 0.862203 6.91042 0
M  V30 11106 H 1055.27 1.26459 7.49608 0
M  V30 11107 N 1056.84 -1.516 -0.430713 0
M  V30 11108 C 1058.07 -1.687 -1.20644 0
M  V30 11109 C 1058.49 -0.386555 -1.84085 0
M  V30 11110 O 1057.85 0.653952 -1.69095 0
M  V30 11111 C 1057.9 -2.80887 -2.2613 0
M  V30 11112 O 1057 -2.44952 -3.31772 0
M  V30 11113 H 1056.34 -0.562289 -0.353167 0
M  V30 11114 H 1058.87 -1.98198 -0.507807 0
M  V30 11115 H 1058.88 -3.05167 -2.70809 0
M  V30 11116 H 1057.56 -3.75249 -1.79334 0
M  V30 11117 H 1056.13 -2.31267 -2.92523 0
M  V30 11118 N 1058.32 0.686584 -1.41858 0
M  V30 11119 C 1059.54 1.4802 -1.45275 0
M  V30 11120 C 1059.97 1.87997 -0.0621297 0
M  V30 11121 O 1059.33 1.55226 0.936733 0
M  V30 11122 C 1059.38 2.7133 -2.37513 0
M  V30 11123 O 1058.48 3.69159 -1.83836 0
M  V30 11124 H 1057.82 0.445152 -0.492682 0
M  V30 11125 H 1060.35 0.843161 -1.86419 0
M  V30 11126 H 1060.36 3.19537 -2.53693 0
M  V30 11127 H 1059.04 2.41571 -3.3855 0
M  V30 11128 H 1057.61 3.28134 -1.77151 0
M  V30 11129 N 1059.8 1.27835 0.921735 0
M  V30 11130 C 1060.73 1.06874 2.02758 0
M  V30 11131 C 1061.74 0.0229418 1.62784 0
M  V30 11132 O 1062.93 0.265145 1.7652 0
M  V30 11133 C 1060.03 0.60037 3.3354 0
M  V30 11134 C 1059.2 1.71979 4.02172 0
M  V30 11135 C 1058.26 1.24615 5.11231 0
M  V30 11136 O 1057.29 1.94692 5.34868 0
M  V30 11137 N 1058.49 0.105021 5.80405 0
M  V30 11138 H 1061.26 2.02105 2.213 0
M  V30 11139 H 1058.82 1.19481 1.09251 0
M  V30 11140 H 1060.81 0.267281 4.03816 0
M  V30 11141 H 1059.38 -0.258872 3.11526 0
M  V30 11142 H 1058.6 2.22287 3.25549 0
M  V30 11143 H 1059.89 2.47092 4.44773 0
M  V30 11144 H 1059.29 -0.479745 5.63662 0
M  V30 11145 H 1057.84 -0.168846 6.51581 0
M  V30 11146 N 1061.28 -1.12907 1.09954 0
M  V30 11147 C 1062.52 -1.83941 0.837255 0
M  V30 11148 C 1062.84 -1.84234 -0.638984 0
M  V30 11149 O 1062.11 -1.30193 -1.46378 0
M  V30 11150 H 1060.69 -0.681115 0.306743 0
M  V30 11151 H 1063.36 -1.36743 1.38879 0
M  V30 11152 H 1062.45 -2.88289 1.19565 0
M  V30 11153 N 1062.75 -0.88754 -1.30232 0
M  V30 11154 C 1064 -0.508031 -1.96334 0
M  V30 11155 C 1064.33 0.940905 -1.69884 0
M  V30 11156 O 1063.61 1.66523 -1.005 0
M  V30 11157 C 1063.89 -0.786566 -3.51405 0
M  V30 11158 C 1063.74 -2.28632 -3.8736 0
M  V30 11159 C 1065.06 -0.264803 -4.39303 0
M  V30 11160 H 1062.18 -0.186051 -0.71313 0
M  V30 11161 H 1064.82 -1.112 -1.5406 0
M  V30 11162 H 1062.97 -0.272523 -3.87543 0
M  V30 11163 H 1064.65 -2.86896 -3.61231 0
M  V30 11164 H 1062.89 -2.75194 -3.35337 0
M  V30 11165 H 1063.56 -2.43181 -4.95547 0
M  V30 11166 H 1066.04 -0.704809 -4.10087 0
M  V30 11167 H 1064.91 -0.488998 -5.46717 0
M  V30 11168 H 1065.17 0.834055 -4.34161 0
M  V30 11169 N 1064.23 1.43628 -0.648757 0
M  V30 11170 C 1065.51 1.95391 -0.0904551 0
M  V30 11171 C 1065.89 1.59021 1.38837 0
M  V30 11172 O 1065.24 0.873078 2.11163 0
M  V30 11173 C 1065.45 3.47418 -0.33196 0
M  V30 11174 C 1066.8 4.23952 -0.234521 0
M  V30 11175 O 1067.82 3.55218 -0.264276 0
M  V30 11176 O 1066.68 5.46282 -0.154428 0
M  V30 11177 H 1063.77 0.82691 0.0121884 0
M  V30 11178 H 1066.32 1.5359 -0.721685 0
M  V30 11179 H 1065.09 3.67001 -1.35741 0
M  V30 11180 H 1064.71 3.96207 0.332556 0
M  V30 11181 N 1065.71 0.390394 1.52688 0
M  V30 11182 C 1066.94 -0.191485 2.06012 0
M  V30 11183 C 1067.35 -1.40422 1.26202 0
M  V30 11184 O 1066.71 -1.79866 0.308963 0
M  V30 11185 C 1066.76 -0.560521 3.57128 0
M  V30 11186 O 1066.48 0.60404 4.33916 0
M  V30 11187 C 1067.98 -1.19814 4.26801 0
M  V30 11188 H 1065.2 -0.0286311 0.670389 0
M  V30 11189 H 1067.75 0.555939 1.96798 0
M  V30 11190 H 1065.9 -1.25784 3.66411 0
M  V30 11191 H 1066.32 0.300467 5.23639 0
M  V30 11192 H 1067.79 -1.40672 5.33775 0
M  V30 11193 H 1068.27 -2.16582 3.82085 0
M  V30 11194 H 1068.87 -0.541558 4.21838 0
M  V30 11195 N 1067.19 -1.57141 0.120249 0
M  V30 11196 C 1068.42 -1.993 -0.544346 0
M  V30 11197 C 1068.83 -0.998858 -1.60684 0
M  V30 11198 O 1068.17 0.0162197 -1.83693 0
M  V30 11199 C 1068.23 -3.37874 -1.22808 0
M  V30 11200 C 1067.9 -4.55924 -0.313374 0
M  V30 11201 C 1068.89 -5.17962 0.448501 0
M  V30 11202 C 1066.58 -5.018 -0.224082 0
M  V30 11203 C 1068.57 -6.24264 1.28739 0
M  V30 11204 C 1066.26 -6.07963 0.618437 0
M  V30 11205 C 1067.26 -6.69061 1.3728 0
M  V30 11206 O 1066.94 -7.73173 2.20133 0
M  V30 11207 H 1066.68 -0.659466 -0.148596 0
M  V30 11208 H 1069.23 -2.04387 0.203779 0
M  V30 11209 H 1067.46 -3.29545 -2.02329 0
M  V30 11210 H 1069.15 -3.64314 -1.7897 0
M  V30 11211 H 1069.92 -4.83434 0.389395 0
M  V30 11212 H 1065.79 -4.53989 -0.80094 0
M  V30 11213 H 1069.34 -6.71883 1.87667 0
M  V30 11214 H 1065.24 -6.4192 0.678932 0
M  V30 11215 H 1066 -7.90276 2.13088 0
M  V30 11216 N 1068.67 0.153526 -1.5685 0
M  V30 11217 C 1069.91 0.868517 -1.83261 0
M  V30 11218 C 1070.25 1.81112 -0.700857 0
M  V30 11219 O 1069.52 1.92235 0.295989 0
M  V30 11220 C 1069.8 1.6487 -3.2014 0
M  V30 11221 C 1069.66 0.728021 -4.43869 0
M  V30 11222 C 1070.98 2.61259 -3.54163 0
M  V30 11223 H 1068.09 0.314297 -0.666623 0
M  V30 11224 H 1070.74 0.133971 -1.89527 0
M  V30 11225 H 1068.89 2.2749 -3.1493 0
M  V30 11226 H 1070.56 0.113328 -4.61161 0
M  V30 11227 H 1068.8 0.0371744 -4.33784 0
M  V30 11228 H 1069.47 1.30981 -5.36235 0
M  V30 11229 H 1071.95 2.0876 -3.59942 0
M  V30 11230 H 1070.82 3.12902 -4.50981 0
M  V30 11231 H 1071.09 3.42307 -2.79782 0
M  V30 11232 N 1070.14 1.51827 0.422667 0
M  V30 11233 C 1071.05 1.77066 1.53899 0
M  V30 11234 C 1072.07 0.655541 1.61179 0
M  V30 11235 O 1073.25 0.939448 1.78147 0
M  V30 11236 C 1070.31 1.90372 2.89758 0
M  V30 11237 C 1069.37 3.14256 2.92475 0
M  V30 11238 C 1068.61 3.26918 4.21853 0
M  V30 11239 O 1068.83 2.45164 5.15025 0
M  V30 11240 O 1067.76 4.19989 4.31153 0
M  V30 11241 H 1071.59 2.71791 1.35511 0
M  V30 11242 H 1069.17 1.36506 0.607165 0
M  V30 11243 H 1071.06 2.01024 3.70361 0
M  V30 11244 H 1069.73 0.988347 3.08242 0
M  V30 11245 H 1068.64 3.09072 2.10773 0
M  V30 11246 H 1069.97 4.0553 2.78937 0
M  V30 11247 N 1071.62 -0.679052 1.4222 0
M  V30 11248 C 1072.56 -1.80369 1.39794 0
M  V30 11249 C 1073.53 -1.60462 0.262806 0
M  V30 11250 O 1074.72 -1.82992 0.452352 0
M  V30 11251 C 1071.84 -3.17305 1.18471 0
M  V30 11252 C 1070.89 -3.55969 2.34922 0
M  V30 11253 S 1071.72 -3.58884 3.97445 0
M  V30 11254 C 1072.88 -4.98519 3.78457 0
M  V30 11255 H 1073.11 -1.82152 2.34964 0
M  V30 11256 H 1070.65 -0.84932 1.28942 0
M  V30 11257 H 1072.6 -3.96348 1.06856 0
M  V30 11258 H 1071.26 -3.13112 0.248944 0
M  V30 11259 H 1070.46 -4.55491 2.1574 0
M  V30 11260 H 1070.06 -2.84275 2.4303 0
M  V30 11261 H 1072.35 -5.86481 3.39184 0
M  V30 11262 H 1073.29 -5.22748 4.77641 0
M  V30 11263 H 1073.7 -4.70836 3.11406 0
M  V30 11264 N 1073.1 -1.28322 -0.914942 0
M  V30 11265 C 1074.52 -1.06003 -1.19313 0
M  V30 11266 C 1074.72 0.198366 -2.00521 0
M  V30 11267 O 1073.77 0.900364 -2.35902 0
M  V30 11268 C 1075.09 -2.30684 -1.92887 0
M  V30 11269 C 1076.63 -2.35851 -2.05775 0
M  V30 11270 C 1077.11 -3.60295 -2.82757 0
M  V30 11271 N 1078.6 -3.60928 -2.9032 0
M  V30 11272 C 1079.33 -4.53894 -3.50383 0
M  V30 11273 N 1078.83 -5.57178 -4.11734 0
M  V30 11274 N 1080.62 -4.41492 -3.4791 0
M  V30 11275 H 1072.77 -2.09104 -0.372735 0
M  V30 11276 H 1075.04 -0.920285 -0.227552 0
M  V30 11277 H 1074.74 -3.22355 -1.40643 0
M  V30 11278 H 1074.62 -2.37003 -2.93444 0
M  V30 11279 H 1077 -1.44678 -2.57201 0
M  V30 11280 H 1077.09 -2.33526 -1.04399 0
M  V30 11281 H 1076.73 -4.51811 -2.32011 0
M  V30 11282 H 1076.66 -3.59873 -3.84446 0
M  V30 11283 H 1079.15 -2.8624 -2.46729 0
M  V30 11284 H 1079.46 -6.24261 -4.55541 0
M  V30 11285 H 1077.81 -5.61005 -4.10242 0
M  V30 11286 H 1081 -3.60005 -2.99189 0
M  V30 11287 H 1081.17 -5.14132 -3.94427 0
M  V30 11288 N 1074.58 1.12322 -1.10551 0
M  V30 11289 C 1075.99 1.6539 -0.8662 0
M  V30 11290 C 1076.34 1.86695 0.603284 0
M  V30 11291 O 1075.47 1.59432 1.46323 0
M  V30 11292 C 1076.06 3.00443 -1.56587 0
M  V30 11293 C 1074.62 3.50456 -1.37323 0
M  V30 11294 C 1073.77 2.25454 -1.61449 0
M  V30 11295 H 1076.72 0.960866 -1.26305 0
M  V30 11296 H 1076.74 3.66972 -1.00557 0
M  V30 11297 H 1076.25 2.84905 -2.63535 0
M  V30 11298 H 1074.35 3.71176 -0.325431 0
M  V30 11299 H 1074.46 4.29839 -2.11601 0
M  V30 11300 H 1072.83 2.32621 -1.03729 0
M  V30 11301 H 1073.61 2.12469 -2.69651 0
M  V30 11302 N 1076.06 0.894434 1.2976 0
M  V30 11303 C 1077.3 0.518435 1.96061 0
M  V30 11304 C 1077.64 -0.931882 1.70381 0
M  V30 11305 O 1076.91 -1.65988 1.01381 0
M  V30 11306 C 1077.19 0.80519 3.50982 0
M  V30 11307 C 1077.05 2.30683 3.86142 0
M  V30 11308 C 1078.37 0.288096 4.39156 0
M  V30 11309 H 1075.48 0.18983 0.712133 0
M  V30 11310 H 1078.13 1.12016 1.53468 0
M  V30 11311 H 1076.28 0.293071 3.87393 0
M  V30 11312 H 1077.95 2.88808 3.59705 0
M  V30 11313 H 1076.19 2.76968 3.33873 0
M  V30 11314 H 1076.86 2.45805 4.94251 0
M  V30 11315 H 1079.34 0.726547 4.09708 0
M  V30 11316 H 1078.21 0.517985 5.4645 0
M  V30 11317 H 1078.48 -0.811018 4.34597 0
M  V30 11318 N 1077.53 -1.43282 0.656365 0
M  V30 11319 C 1078.76 -2.06641 0.177245 0
M  V30 11320 C 1079.18 -1.48893 -1.14946 0
M  V30 11321 O 1078.54 -0.600099 -1.7108 0
M  V30 11322 C 1078.59 -3.60453 0.10299 0
M  V30 11323 O 1077.69 -4.01687 -0.933895 0
M  V30 11324 H 1077.04 -0.656978 0.096314 0
M  V30 11325 H 1079.57 -1.83733 0.900178 0
M  V30 11326 H 1079.58 -4.07923 -0.079291 0
M  V30 11327 H 1078.25 -4.01861 1.07147 0
M  V30 11328 H 1076.83 -3.65801 -0.724148 0
M  V30 11329 N 1079.01 -0.398486 -1.52479 0
M  V30 11330 C 1080.24 0.180557 -2.06111 0
M  V30 11331 C 1080.66 1.39751 -1.26945 0
M  V30 11332 O 1080.01 1.79699 -0.318497 0
M  V30 11333 C 1080.06 0.541573 -3.5742 0
M  V30 11334 O 1079.79 -0.627043 -4.33589 0
M  V30 11335 C 1081.29 1.17549 -4.27431 0
M  V30 11336 H 1078.51 0.0250754 -0.670531 0
M  V30 11337 H 1081.05 -0.566368 -1.96501 0
M  V30 11338 H 1079.21 1.23839 -3.67073 0
M  V30 11339 H 1079.62 -0.328233 -5.23472 0
M  V30 11340 H 1081.09 1.37839 -5.34513 0
M  V30 11341 H 1081.57 2.14553 -3.83228 0
M  V30 11342 H 1082.18 0.51918 -4.22119 0
M  V30 11343 N 1080.49 1.57075 -0.12858 0
M  V30 11344 C 1081.72 2.00305 0.537839 0
M  V30 11345 C 1082.14 1.00787 1.58819 0
M  V30 11346 O 1081.5 -0.0190839 1.8129 0
M  V30 11347 C 1081.55 3.42371 1.13201 0
M  V30 11348 O 1080.65 3.45786 2.24735 0
M  V30 11349 H 1079.99 0.650456 0.133428 0
M  V30 11350 H 1082.52 2.03415 -0.219882 0
M  V30 11351 H 1082.53 3.80783 1.4652 0
M  V30 11352 H 1081.21 4.14315 0.362713 0
M  V30 11353 H 1079.78 3.19201 1.92783 0
M  V30 11354 N 1081.97 -0.145205 1.5693 0
M  V30 11355 C 1083.19 -0.876386 1.87974 0
M  V30 11356 C 1083.62 -1.73866 0.717795 0
M  V30 11357 O 1082.98 -1.78224 -0.332551 0
M  V30 11358 C 1083.03 -1.70746 3.17613 0
M  V30 11359 O 1082.13 -2.81188 3.01674 0
M  V30 11360 H 1081.47 -0.243987 0.617549 0
M  V30 11361 H 1084 -0.135482 2.04151 0
M  V30 11362 H 1084.01 -2.1021 3.49679 0
M  V30 11363 H 1082.69 -1.07429 4.01786 0
M  V30 11364 H 1081.26 -2.45117 2.81019 0
M  V30 11365 N 1083.45 -1.52049 -0.414609 0
M  V30 11366 C 1084.4 -1.75603 -1.52533 0
M  V30 11367 C 1085.39 -0.622965 -1.57529 0
M  V30 11368 O 1086.6 -0.804886 -1.61002 0
M  V30 11369 H 1082.97 -0.555222 -0.507181 0
M  V30 11370 H 1084.94 -2.68666 -1.2985 0
M  V30 11371 C 1083.69 -1.9188 -2.89961 0
M  V30 11372 H 1083.01 -2.78483 -2.86857 0
M  V30 11373 H 1084.45 -2.12363 -3.66985 0
M  V30 11374 C 1082.91 -0.684453 -3.29874 0
M  V30 11375 O 1083.44 0.150256 -4.01419 0
M  V30 11376 N 1081.65 -0.521936 -2.85874 0
M  V30 11377 H 1081.2 -1.20229 -2.27822 0
M  V30 11378 H 1081.15 0.302655 -3.1294 0
M  V30 11379 N 1084.93 0.6715 -1.42579 0
M  V30 11380 C 1086.2 1.42766 -1.33706 0
M  V30 11381 C 1086.58 2.11086 0.0239748 0
M  V30 11382 O 1085.93 2.03479 1.03964 0
M  V30 11383 C 1086.14 2.42739 -2.50756 0
M  V30 11384 C 1087.49 3.07284 -2.93021 0
M  V30 11385 O 1088.51 2.53066 -2.50671 0
M  V30 11386 O 1087.37 4.05541 -3.66331 0
M  V30 11387 H 1084.47 0.636955 -0.527463 0
M  V30 11388 H 1087.01 0.699946 -1.54593 0
M  V30 11389 H 1085.78 1.91076 -3.41476 0
M  V30 11390 H 1085.41 3.22986 -2.31874 0
M  V30 11391 N 1086.4 1.28806 0.908124 0
M  V30 11392 C 1087.63 1.19271 1.69674 0
M  V30 11393 C 1088.05 -0.244403 1.86505 0
M  V30 11394 O 1087.41 -1.17668 1.37927 0
M  V30 11395 C 1087.46 1.9023 3.06341 0
M  V30 11396 O 1086.56 1.2136 3.94139 0
M  V30 11397 H 1085.9 0.413738 0.519343 0
M  V30 11398 H 1088.43 1.70227 1.13508 0
M  V30 11399 H 1088.44 1.98356 3.56537 0
M  V30 11400 H 1087.12 2.94762 2.93408 0
M  V30 11401 H 1085.7 1.21435 3.52573 0
M  V30 11402 N 1087.88 -1.11734 1.11145 0
M  V30 11403 C 1089.13 -1.83405 0.858413 0
M  V30 11404 C 1089.46 -1.84488 -0.615975 0
M  V30 11405 O 1088.71 -1.29123 -1.47057 0
M  V30 11406 C 1089.01 -3.3046 1.36129 0
M  V30 11407 C 1088.68 -3.4954 2.84837 0
M  V30 11408 C 1087.34 -3.54456 3.25445 0
M  V30 11409 C 1089.69 -3.56048 3.8063 0
M  V30 11410 C 1087.02 -3.63431 4.60581 0
M  V30 11411 C 1089.37 -3.66554 5.15579 0
M  V30 11412 C 1088.03 -3.69728 5.55749 0
M  V30 11413 H 1087.3 -0.671128 0.314115 0
M  V30 11414 H 1089.95 -1.31795 1.38933 0
M  V30 11415 H 1088.26 -3.84544 0.750547 0
M  V30 11416 H 1089.95 -3.84398 1.14188 0
M  V30 11417 H 1086.54 -3.46382 2.52423 0
M  V30 11418 H 1090.73 -3.51513 3.5036 0
M  V30 11419 H 1085.98 -3.64164 4.91116 0
M  V30 11420 H 1090.16 -3.70532 5.89643 0
M  V30 11421 H 1087.78 -3.76435 6.60455 0
M  V30 11422 N 1089.36 -0.901303 -1.29284 0
M  V30 11423 C 1090.58 -0.542823 -2.0017 0
M  V30 11424 C 1091.01 0.865583 -1.67001 0
M  V30 11425 O 1090.37 1.5764 -0.895502 0
M  V30 11426 C 1090.42 -0.743987 -3.52842 0
M  V30 11427 O 1089.52 0.202771 -4.11901 0
M  V30 11428 H 1088.86 -0.211903 -0.62928 0
M  V30 11429 H 1091.39 -1.21333 -1.64741 0
M  V30 11430 H 1091.4 -0.64926 -4.02801 0
M  V30 11431 H 1090.08 -1.77077 -3.7632 0
M  V30 11432 H 1088.65 0.0603637 -3.72851 0
M  V30 11433 N 1090.84 1.42931 -0.663954 0
M  V30 11434 C 1091.75 2.3459 0.0214234 0
M  V30 11435 C 1092.76 1.54487 0.800611 0
M  V30 11436 O 1093.94 1.87098 0.74541 0
M  V30 11437 C 1091 3.32896 0.968556 0
M  V30 11438 C 1090.07 4.28901 0.185108 0
M  V30 11439 C 1089.3 5.2251 1.08713 0
M  V30 11440 O 1089.52 5.20795 2.32655 0
M  V30 11441 O 1088.46 5.99347 0.553758 0
M  V30 11442 H 1092.28 2.94714 -0.733308 0
M  V30 11443 H 1089.87 1.43252 -0.424159 0
M  V30 11444 H 1091.75 3.93318 1.51257 0
M  V30 11445 H 1090.42 2.75261 1.70333 0
M  V30 11446 H 1089.33 3.71926 -0.402752 0
M  V30 11447 H 1090.66 4.89547 -0.510319 0
M  V30 11448 N 1092.32 0.406567 1.52266 0
M  V30 11449 C 1093.25 -0.45552 2.24628 0
M  V30 11450 C 1094.26 -1.01234 1.27497 0
M  V30 11451 O 1095.45 -0.911718 1.5346 0
M  V30 11452 C 1092.55 -1.64578 2.96256 0
M  V30 11453 C 1091.72 -1.2133 4.20235 0
M  V30 11454 C 1090.78 -2.27018 4.7471 0
M  V30 11455 O 1089.81 -1.87714 5.37357 0
M  V30 11456 N 1091.01 -3.5915 4.56061 0
M  V30 11457 H 1093.77 0.164525 2.99248 0
M  V30 11458 H 1091.34 0.233812 1.60203 0
M  V30 11459 H 1093.33 -2.3484 3.29594 0
M  V30 11460 H 1091.9 -2.1718 2.24837 0
M  V30 11461 H 1091.12 -0.338892 3.92741 0
M  V30 11462 H 1092.41 -0.901268 5.00754 0
M  V30 11463 H 1091.8 -3.93834 4.06092 0
M  V30 11464 H 1090.36 -4.25397 4.93843 0
M  V30 11465 N 1093.79 -1.57004 0.136909 0
M  V30 11466 C 1095.07 -1.87375 -0.561233 0
M  V30 11467 C 1095.45 -1.04117 -1.83638 0
M  V30 11468 O 1094.8 -0.125103 -2.28157 0
M  V30 11469 C 1095.01 -3.38829 -0.836426 0
M  V30 11470 C 1096.36 -4.07826 -1.18164 0
M  V30 11471 O 1097.38 -3.4395 -0.92611 0
M  V30 11472 O 1096.24 -5.20614 -1.66204 0
M  V30 11473 H 1093.33 -0.776287 -0.285145 0
M  V30 11474 H 1095.88 -1.68818 0.172761 0
M  V30 11475 H 1094.65 -3.91244 0.066442 0
M  V30 11476 H 1094.28 -3.62879 -1.62496 0
M  V30 11477 N 1095.27 0.136881 -1.57004 0
M  V30 11478 C 1096.2 1.17026 -2.02057 0
M  V30 11479 C 1097.18 1.44223 -0.901866 0
M  V30 11480 O 1098.37 1.54971 -1.17037 0
M  V30 11481 C 1095.5 2.50095 -2.40977 0
M  V30 11482 C 1094.45 2.37398 -3.56127 0
M  V30 11483 C 1093.78 3.75268 -3.80891 0
M  V30 11484 C 1095.08 1.84952 -4.88457 0
M  V30 11485 H 1096.77 0.795601 -2.88636 0
M  V30 11486 H 1094.32 0.381266 -1.38861 0
M  V30 11487 H 1096.27 3.22621 -2.71097 0
M  V30 11488 H 1095 2.89416 -1.51348 0
M  V30 11489 H 1093.65 1.67322 -3.26188 0
M  V30 11490 H 1093.3 4.12043 -2.88496 0
M  V30 11491 H 1093 3.67631 -4.5839 0
M  V30 11492 H 1094.53 4.49327 -4.13446 0
M  V30 11493 H 1095.94 2.4728 -5.17229 0
M  V30 11494 H 1094.34 1.88181 -5.69832 0
M  V30 11495 H 1095.41 0.805848 -4.78157 0
M  V30 11496 N 1096.75 1.52266 0.40654 0
M  V30 11497 C 1098.03 1.57018 1.1664 0
M  V30 11498 C 1098.41 0.352752 2.08132 0
M  V30 11499 O 1097.76 -0.660208 2.18754 0
M  V30 11500 C 1097.97 2.90016 1.94143 0
M  V30 11501 C 1099.31 3.43112 2.50119 0
M  V30 11502 O 1100.34 2.91773 2.0432 0
M  V30 11503 O 1099.2 4.32765 3.33731 0
M  V30 11504 H 1096.29 0.632574 0.532709 0
M  V30 11505 H 1098.84 1.64595 0.413111 0
M  V30 11506 H 1097.61 3.70071 1.27134 0
M  V30 11507 H 1097.23 2.85744 2.76471 0
M  V30 11508 N 1098.23 -0.663929 1.42933 0
M  V30 11509 C 1099.18 -1.77717 1.47259 0
M  V30 11510 C 1100.15 -1.62922 0.323387 0
M  V30 11511 O 1101.33 -1.83319 0.529021 0
M  V30 11512 C 1098.47 -3.15814 1.39124 0
M  V30 11513 C 1097.58 -3.4182 2.64165 0
M  V30 11514 C 1096.72 -4.69705 2.48094 0
M  V30 11515 C 1095.76 -4.88781 3.68456 0
M  V30 11516 N 1094.89 -6.07915 3.51261 0
M  V30 11517 H 1099.73 -1.73355 2.42388 0
M  V30 11518 H 1097.27 -0.846121 1.2033 0
M  V30 11519 H 1099.23 -3.95633 1.32403 0
M  V30 11520 H 1097.86 -3.19274 0.475829 0
M  V30 11521 H 1096.91 -2.56176 2.81208 0
M  V30 11522 H 1098.22 -3.51805 3.53602 0
M  V30 11523 H 1097.38 -5.57632 2.39021 0
M  V30 11524 H 1096.12 -4.62022 1.56164 0
M  V30 11525 H 1095.12 -3.99292 3.7795 0
M  V30 11526 H 1096.35 -4.98301 4.61381 0
M  V30 11527 H 1094.29 -6.01384 2.62057 0
M  V30 11528 H 1094.21 -6.1881 4.34293 0
M  V30 11529 H 1095.48 -6.98492 3.4602 0
M  V30 11530 N 1099.71 -1.29285 -0.901281 0
M  V30 11531 C 1100.62 -1.16161 -2.03823 0
M  V30 11532 C 1101.63 -0.0852298 -1.73791 0
M  V30 11533 O 1102.81 -0.29699 -1.99198 0
M  V30 11534 C 1099.87 -0.837586 -3.3643 0
M  V30 11535 C 1098.93 -1.99764 -3.7999 0
M  V30 11536 C 1098.17 -1.68898 -5.0627 0
M  V30 11537 O 1098.39 -0.609177 -5.67138 0
M  V30 11538 O 1097.32 -2.53648 -5.45845 0
M  V30 11539 H 1101.15 -2.11635 -2.17817 0
M  V30 11540 H 1098.74 -1.08722 -1.02468 0
M  V30 11541 H 1100.62 -0.671376 -4.16017 0
M  V30 11542 H 1099.29 0.0873811 -3.23582 0
M  V30 11543 H 1098.2 -2.21908 -3.01177 0
M  V30 11544 H 1099.53 -2.90376 -3.9742 0
M  V30 11545 N 1101.18 1.11143 -1.11736 0
M  V30 11546 C 1102.46 1.79384 -0.779785 0
M  V30 11547 C 1102.84 1.98015 0.731668 0
M  V30 11548 O 1102.19 1.56731 1.66276 0
M  V30 11549 C 1102.4 3.12868 -1.54643 0
M  V30 11550 C 1103.75 3.8786 -1.7277 0
M  V30 11551 O 1104.77 3.22566 -1.51094 0
M  V30 11552 O 1103.63 5.05034 -2.08813 0
M  V30 11553 H 1100.72 0.777128 -0.282845 0
M  V30 11554 H 1103.27 1.17858 -1.22096 0
M  V30 11555 H 1102.04 2.94682 -2.57446 0
M  V30 11556 H 1101.67 3.82109 -1.09901 0
M  V30 11557 N 1102.66 0.908147 1.28804 0
M  V30 11558 C 1103.91 0.53734 1.94826 0
M  V30 11559 C 1104.23 -0.920962 1.71882 0
M  V30 11560 O 1103.5 -1.65043 1.05534 0
M  V30 11561 H 1102.08 0.195729 0.720902 0
M  V30 11562 H 1104.74 1.15628 1.56895 0
M  V30 11563 H 1103.84 0.727052 3.03513 0
M  V30 11564 N 1104.14 -1.42577 0.671525 0
M  V30 11565 C 1105.56 -1.5592 0.340769 0
M  V30 11566 C 1105.76 -1.65179 -1.15405 0
M  V30 11567 O 1104.81 -1.61691 -1.93939 0
M  V30 11568 C 1106.13 -2.81087 1.06821 0
M  V30 11569 C 1107.67 -2.94855 1.05022 0
M  V30 11570 C 1108.15 -4.22878 1.75892 0
M  V30 11571 N 1109.64 -4.29783 1.72744 0
M  V30 11572 C 1110.37 -5.2765 2.24439 0
M  V30 11573 N 1109.87 -6.31689 2.84501 0
M  V30 11574 N 1111.66 -5.19426 2.14832 0
M  V30 11575 H 1103.81 -1.34811 1.64133 0
M  V30 11576 H 1106.08 -0.648704 0.691294 0
M  V30 11577 H 1105.78 -2.80371 2.12332 0
M  V30 11578 H 1105.66 -3.71879 0.631356 0
M  V30 11579 H 1108.04 -2.951 0.00345633 0
M  V30 11580 H 1108.13 -2.05303 1.52592 0
M  V30 11581 H 1107.77 -4.23394 2.80535 0
M  V30 11582 H 1107.7 -5.1136 1.25773 0
M  V30 11583 H 1110.19 -3.55225 1.28932 0
M  V30 11584 H 1110.5 -7.02715 3.21575 0
M  V30 11585 H 1108.85 -6.3226 2.88569 0
M  V30 11586 H 1112.04 -4.37067 1.676 0
M  V30 11587 H 1112.21 -5.95535 2.55426 0
M  V30 11588 N 1105.62 -0.414636 -1.52048 0
M  V30 11589 C 1107.03 0.0537107 -1.86623 0
M  V30 11590 C 1107.38 1.43955 -1.3331 0
M  V30 11591 O 1106.51 2.05616 -0.674606 0
M  V30 11592 C 1107.1 0.104241 -3.3864 0
M  V30 11593 C 1105.66 0.516936 -3.72833 0
M  V30 11594 C 1104.81 -0.305042 -2.75617 0
M  V30 11595 H 1107.76 -0.631469 -1.45596 0
M  V30 11596 H 1107.78 0.918395 -3.6925 0
M  V30 11597 H 1107.29 -0.904523 -3.77412 0
M  V30 11598 H 1105.39 1.53214 -3.39641 0
M  V30 11599 H 1105.5 0.2575 -4.78408 0
M  V30 11600 H 1103.87 0.233416 -2.53628 0
M  V30 11601 H 1104.65 -1.31226 -3.1723 0
M  V30 11602 N 1107.1 1.56929 -0.145233 0
M  V30 11603 C 1108.03 2.19685 0.791263 0
M  V30 11604 C 1109.01 1.14455 1.25833 0
M  V30 11605 O 1110.19 1.42791 1.31622 0
M  V30 11606 C 1107.32 2.81705 2.03124 0
M  V30 11607 C 1106.28 3.92746 1.70101 0
M  V30 11608 C 1105.6 4.41694 3.01347 0
M  V30 11609 C 1106.9 5.13606 0.949025 0
M  V30 11610 H 1108.6 2.98196 0.26825 0
M  V30 11611 H 1106.14 1.43434 0.127584 0
M  V30 11612 H 1108.1 3.24273 2.69119 0
M  V30 11613 H 1106.82 2.00523 2.57795 0
M  V30 11614 H 1105.48 3.50794 1.06486 0
M  V30 11615 H 1105.13 3.57336 3.54006 0
M  V30 11616 H 1104.83 5.1659 2.80016 0
M  V30 11617 H 1106.35 4.86931 3.68416 0
M  V30 11618 H 1107.76 5.53029 1.51102 0
M  V30 11619 H 1106.16 5.94252 0.835711 0
M  V30 11620 H 1107.23 4.84863 -0.0595631 0
M  V30 11621 N 1108.58 -0.128553 1.57075 0
M  V30 11622 C 1109.49 -1.17718 2.02927 0
M  V30 11623 C 1110.5 -1.45912 0.947932 0
M  V30 11624 O 1111.68 -1.57217 1.25876 0
M  V30 11625 C 1108.74 -2.48625 2.41633 0
M  V30 11626 C 1107.8 -2.27914 3.63804 0
M  V30 11627 C 1107.04 -3.52579 4.00654 0
M  V30 11628 O 1107.26 -4.59505 3.37952 0
M  V30 11629 O 1106.19 -3.44147 4.93808 0
M  V30 11630 H 1110.02 -0.817846 2.92481 0
M  V30 11631 H 1107.6 -0.338649 1.45511 0
M  V30 11632 H 1109.49 -3.2577 2.67305 0
M  V30 11633 H 1108.16 -2.84052 1.55229 0
M  V30 11634 H 1107.07 -1.4866 3.43294 0
M  V30 11635 H 1108.4 -1.97395 4.50883 0
M  V30 11636 N 1110.05 -1.5248 -0.398459 0
M  V30 11637 C 1110.98 -1.79549 -1.49279 0
M  V30 11638 C 1111.96 -0.647004 -1.57315 0
M  V30 11639 O 1113.15 -0.893661 -1.72416 0
M  V30 11640 C 1110.28 -1.95582 -2.86993 0
M  V30 11641 C 1109.23 -3.1123 -2.93803 0
M  V30 11642 C 1108.56 -3.12501 -4.33874 0
M  V30 11643 C 1109.86 -4.50485 -2.64312 0
M  V30 11644 H 1111.55 -2.71187 -1.26877 0
M  V30 11645 H 1109.1 -1.30492 -0.608924 0
M  V30 11646 H 1111.05 -2.13102 -3.63546 0
M  V30 11647 H 1109.78 -1.00625 -3.10712 0
M  V30 11648 H 1108.44 -2.93477 -2.19697 0
M  V30 11649 H 1108.08 -2.15245 -4.54619 0
M  V30 11650 H 1107.78 -3.90183 -4.39353 0
M  V30 11651 H 1109.31 -3.32164 -5.12347 0
M  V30 11652 H 1110.72 -4.68387 -3.30585 0
M  V30 11653 H 1109.12 -5.30163 -2.81153 0
M  V30 11654 H 1110.19 -4.57848 -1.59696 0
M  V30 11655 N 1111.53 0.65634 -1.43283 0
M  V30 11656 C 1112.95 0.971645 -1.26614 0
M  V30 11657 C 1113.15 2.00662 -0.183612 0
M  V30 11658 O 1112.2 2.48654 0.439003 0
M  V30 11659 C 1113.52 1.45888 -2.6294 0
M  V30 11660 C 1115.06 1.57569 -2.70446 0
M  V30 11661 C 1115.54 2.09684 -4.07181 0
M  V30 11662 N 1117.03 2.16991 -4.0923 0
M  V30 11663 C 1117.77 2.5843 -5.11861 0
M  V30 11664 N 1117.26 2.99188 -6.24867 0
M  V30 11665 N 1119.05 2.58342 -4.99215 0
M  V30 11666 H 1111.21 -0.028573 -2.12381 0
M  V30 11667 H 1113.47 0.0497918 -0.946691 0
M  V30 11668 H 1113.17 0.772823 -3.43104 0
M  V30 11669 H 1113.05 2.43445 -2.88122 0
M  V30 11670 H 1115.44 2.25277 -1.90616 0
M  V30 11671 H 1115.52 0.584529 -2.49032 0
M  V30 11672 H 1115.16 1.42579 -4.87477 0
M  V30 11673 H 1115.09 3.09625 -4.25958 0
M  V30 11674 H 1117.58 1.88278 -3.27658 0
M  V30 11675 H 1117.89 3.29549 -6.99012 0
M  V30 11676 H 1116.24 2.97 -6.28344 0
M  V30 11677 H 1119.43 2.25875 -4.09998 0
M  V30 11678 H 1119.6 2.90316 -5.79328 0
M  V30 11679 N 1113.01 1.29761 0.894412 0
M  V30 11680 C 1114.29 1.08711 1.62608 0
M  V30 11681 C 1114.67 -0.366907 2.07887 0
M  V30 11682 O 1114.01 -1.35669 1.83865 0
M  V30 11683 C 1114.22 2.07947 2.80284 0
M  V30 11684 C 1115.57 2.39153 3.50843 0
M  V30 11685 O 1116.6 2.06183 2.9046 0
M  V30 11686 O 1115.46 2.95509 4.59713 0
M  V30 11687 H 1112.55 0.416866 0.714249 0
M  V30 11688 H 1115.1 1.41153 0.942015 0
M  V30 11689 H 1113.87 3.05859 2.44061 0
M  V30 11690 H 1113.49 1.76266 3.56393 0
M  V30 11691 N 1114.49 -1.10549 1.12324 0
M  V30 11692 C 1115.42 -2.18911 0.812416 0
M  V30 11693 C 1116.4 -1.68628 -0.22327 0
M  V30 11694 O 1117.58 -1.94015 -0.0847184 0
M  V30 11695 C 1114.71 -3.46288 0.264947 0
M  V30 11696 C 1113.67 -4.09838 1.23356 0
M  V30 11697 C 1112.99 -5.31901 0.546374 0
M  V30 11698 C 1114.29 -4.53686 2.58778 0
M  V30 11699 H 1115.99 -2.45169 1.71851 0
M  V30 11700 H 1113.53 -1.17834 0.827715 0
M  V30 11701 H 1115.49 -4.21385 0.0352364 0
M  V30 11702 H 1114.21 -3.19517 -0.676479 0
M  V30 11703 H 1112.87 -3.36746 1.44906 0
M  V30 11704 H 1112.52 -5.01406 -0.400157 0
M  V30 11705 H 1112.22 -5.75372 1.19249 0
M  V30 11706 H 1113.74 -6.09731 0.325673 0
M  V30 11707 H 1115.16 -5.20063 2.41263 0
M  V30 11708 H 1113.55 -5.08003 3.19457 0
M  V30 11709 H 1114.62 -3.66665 3.17309 0
M  V30 11710 N 1115.97 -0.914965 -1.28321 0
M  V30 11711 C 1116.9 -0.421292 -2.29668 0
M  V30 11712 C 1117.88 0.511743 -1.6222 0
M  V30 11713 O 1119.06 0.419218 -1.89621 0
M  V30 11714 C 1116.19 0.338364 -3.45648 0
M  V30 11715 C 1115.15 -0.505646 -4.25003 0
M  V30 11716 C 1114.47 0.382421 -5.33331 0
M  V30 11717 C 1115.77 -1.76354 -4.91626 0
M  V30 11718 H 1117.47 -1.26826 -2.71211 0
M  V30 11719 H 1115.01 -0.611291 -1.30381 0
M  V30 11720 H 1116.96 0.694578 -4.15636 0
M  V30 11721 H 1115.69 1.21925 -3.02988 0
M  V30 11722 H 1114.35 -0.844395 -3.56743 0
M  V30 11723 H 1114 1.26189 -4.86914 0
M  V30 11724 H 1113.7 -0.17871 -5.87328 0
M  V30 11725 H 1115.22 0.73449 -6.06166 0
M  V30 11726 H 1116.63 -1.47616 -5.5397 0
M  V30 11727 H 1115.03 -2.26717 -5.55625 0
M  V30 11728 H 1116.1 -2.49063 -4.16048 0
M  V30 11729 N 1117.44 1.42219 -0.679077 0
M  V30 11730 C 1118.39 2.27992 0.0194379 0
M  V30 11731 C 1119.38 1.41317 0.769313 0
M  V30 11732 O 1120.57 1.64731 0.647521 0
M  V30 11733 C 1117.7 3.29401 0.966945 0
M  V30 11734 C 1116.78 4.23559 0.214187 0
M  V30 11735 N 1117.18 4.99699 -0.783226 0
M  V30 11736 C 1115.47 4.43703 0.452026 0
M  V30 11737 C 1116.17 5.68496 -1.23237 0
M  V30 11738 N 1115.15 5.40692 -0.561484 0
M  V30 11739 H 1118.95 2.84287 -0.745542 0
M  V30 11740 H 1116.47 1.54234 -0.508504 0
M  V30 11741 H 1118.46 3.89655 1.48238 0
M  V30 11742 H 1117.12 2.74667 1.7317 0
M  V30 11743 H 1118.13 5.04675 -1.16291 0
M  V30 11744 H 1114.81 4.00004 1.19595 0
M  V30 11745 H 1116.2 6.3957 -2.05912 0
M  V30 11746 N 1118.92 0.422693 1.51826 0
M  V30 11747 C 1120.17 -0.148641 2.01954 0
M  V30 11748 C 1120.5 -1.43982 1.30765 0
M  V30 11749 O 1119.75 -1.91428 0.406668 0
M  V30 11750 C 1120.05 -0.429516 3.5481 0
M  V30 11751 C 1119.72 0.774088 4.44206 0
M  V30 11752 C 1118.38 1.1042 4.6836 0
M  V30 11753 C 1120.73 1.5777 4.96747 0
M  V30 11754 C 1118.06 2.23887 5.42302 0
M  V30 11755 C 1120.41 2.70325 5.71933 0
M  V30 11756 C 1119.07 3.03807 5.94355 0
M  V30 11757 H 1118.34 -0.0543917 0.739001 0
M  V30 11758 H 1120.99 0.566892 1.82917 0
M  V30 11759 H 1119.3 -1.22678 3.72099 0
M  V30 11760 H 1120.99 -0.884761 3.91118 0
M  V30 11761 H 1117.58 0.506834 4.25593 0
M  V30 11762 H 1121.77 1.33589 4.77983 0
M  V30 11763 H 1117.02 2.50159 5.5788 0
M  V30 11764 H 1121.2 3.32974 6.11638 0
M  V30 11765 H 1118.82 3.91844 6.51431 0
M  V30 11766 N 1120.4 -1.5685 0.153553 0
M  V30 11767 C 1121.62 -2.01135 -0.505904 0
M  V30 11768 C 1122.05 -1.03301 -1.57196 0
M  V30 11769 O 1121.41 -0.00976022 -1.81297 0
M  V30 11770 C 1121.46 -3.44129 -1.0774 0
M  V30 11771 O 1120.56 -3.49318 -2.19205 0
M  V30 11772 H 1119.9 -0.652496 -0.123062 0
M  V30 11773 H 1122.43 -2.03039 0.252216 0
M  V30 11774 H 1122.44 -3.83066 -1.40444 0
M  V30 11775 H 1121.12 -4.1484 -0.296754 0
M  V30 11776 H 1119.69 -3.22227 -1.8768 0
M  V30 11777 N 1121.88 0.120221 -1.57141 0
M  V30 11778 C 1123.1 0.84637 -1.89344 0
M  V30 11779 C 1123.53 1.72702 -0.745365 0
M  V30 11780 O 1122.89 1.7873 0.304155 0
M  V30 11781 C 1122.93 1.65671 -3.20289 0
M  V30 11782 O 1122.04 2.76353 -3.06109 0
M  V30 11783 H 1121.38 0.234132 -0.621352 0
M  V30 11784 H 1123.91 0.102986 -2.04341 0
M  V30 11785 H 1123.92 2.04621 -3.52979 0
M  V30 11786 H 1122.59 1.01023 -4.03444 0
M  V30 11787 H 1121.17 2.40615 -2.84884 0
M  V30 11788 N 1123.36 1.52689 0.390367 0
M  V30 11789 C 1124.29 1.73622 1.49626 0
M  V30 11790 C 1125.3 0.616682 1.50668 0
M  V30 11791 O 1126.49 0.892341 1.54595 0
M  V30 11792 C 1123.59 1.77859 2.88477 0
M  V30 11793 C 1122.76 3.07146 3.11416 0
M  V30 11794 C 1121.82 3.02949 4.30242 0
M  V30 11795 O 1120.85 3.76816 4.26613 0
M  V30 11796 N 1122.05 2.22039 5.36357 0
M  V30 11797 H 1124.82 2.69037 1.32057 0
M  V30 11798 H 1122.38 1.51159 0.579867 0
M  V30 11799 H 1124.37 1.72559 3.66067 0
M  V30 11800 H 1122.94 0.898367 2.99413 0
M  V30 11801 H 1122.16 3.25947 2.21703 0
M  V30 11802 H 1123.45 3.92637 3.23595 0
M  V30 11803 H 1122.84 1.6149 5.4216 0
M  V30 11804 H 1121.4 2.2258 6.12619 0
M  V30 11805 N 1124.83 -0.648732 1.43629 0
M  V30 11806 C 1126.08 -1.41066 1.45699 0
M  V30 11807 C 1126.41 -1.94024 0.082612 0
M  V30 11808 O 1125.69 -1.7257 -0.897207 0
M  V30 11809 C 1125.97 -2.58882 2.50304 0
M  V30 11810 C 1125.82 -2.11387 3.97033 0
M  V30 11811 C 1127.14 -3.61092 2.51597 0
M  V30 11812 H 1124.26 -0.511591 0.530512 0
M  V30 11813 H 1126.9 -0.735069 1.75205 0
M  V30 11814 H 1125.05 -3.16518 2.25274 0
M  V30 11815 H 1126.73 -1.58718 4.33136 0
M  V30 11816 H 1124.97 -1.4272 4.0965 0
M  V30 11817 H 1125.64 -2.96129 4.65845 0
M  V30 11818 H 1128.12 -3.13223 2.73917 0
M  V30 11819 H 1126.99 -4.41071 3.26722 0
M  V30 11820 H 1127.25 -4.13985 1.55141 0
M  V30 11821 N 1126.31 -1.30234 -0.887518 0
M  V30 11822 C 1127.28 -1.16384 -1.97452 0
M  V30 11823 C 1128.28 -0.0957942 -1.60514 0
M  V30 11824 O 1129.47 -0.343706 -1.70776 0
M  V30 11825 C 1126.6 -0.782514 -3.31797 0
M  V30 11826 H 1127.79 -2.12952 -2.11167 0
M  V30 11827 H 1125.34 -1.13594 -1.07359 0
M  V30 11828 H 1126.08 0.18278 -3.23785 0
M  V30 11829 H 1125.86 -1.55434 -3.59976 0
M  V30 11830 H 1127.35 -0.709011 -4.11537 0
M  V30 11831 N 1127.79 1.09952 -1.12909 0
M  V30 11832 C 1128.72 2.16257 -0.759305 0
M  V30 11833 C 1129.74 1.61355 0.216427 0
M  V30 11834 O 1130.92 1.785 -0.00297224 0
M  V30 11835 C 1128.02 3.38741 -0.103908 0
M  V30 11836 C 1127.2 4.23072 -1.11037 0
M  V30 11837 C 1126.26 5.23991 -0.481667 0
M  V30 11838 O 1125.28 5.57665 -1.14011 0
M  V30 11839 N 1126.48 5.75652 0.748698 0
M  V30 11840 H 1129.25 2.48588 -1.67405 0
M  V30 11841 H 1126.81 1.25617 -1.02137 0
M  V30 11842 H 1128.8 4.03362 0.328799 0
M  V30 11843 H 1127.37 3.04344 0.713677 0
M  V30 11844 H 1126.59 3.5467 -1.72054 0
M  V30 11845 H 1127.88 4.76244 -1.79078 0
M  V30 11846 H 1127.28 5.505 1.30253 0
M  V30 11847 H 1125.84 6.42033 1.12415 0
M  V30 11848 N 1129.27 0.921757 1.27833 0
M  V30 11849 C 1130.52 0.557974 1.94245 0
M  V30 11850 C 1130.84 -0.90268 1.72849 0
M  V30 11851 O 1130.11 -1.63915 1.07279 0
M  V30 11852 H 1128.69 0.203364 0.718785 0
M  V30 11853 H 1131.35 1.17286 1.5566 0
M  V30 11854 H 1130.45 0.759202 3.02725 0
M  V30 11855 N 1130.75 -1.41857 0.686609 0
M  V30 11856 C 1131.68 -2.28174 -0.0347358 0
M  V30 11857 C 1132.66 -1.41732 -0.796928 0
M  V30 11858 O 1133.84 -1.71165 -0.789607 0
M  V30 11859 C 1130.97 -3.21801 -1.0565 0
M  V30 11860 C 1130.01 -4.24727 -0.388523 0
M  V30 11861 S 1130.85 -5.28508 0.862546 0
M  V30 11862 C 1132 -6.25701 -0.157849 0
M  V30 11863 H 1132.24 -2.89005 0.697381 0
M  V30 11864 H 1129.77 -1.46861 0.476562 0
M  V30 11865 H 1131.73 -3.76278 -1.64089 0
M  V30 11866 H 1130.39 -2.60082 -1.76114 0
M  V30 11867 H 1129.58 -4.90471 -1.15991 0
M  V30 11868 H 1129.18 -3.73799 0.122567 0
M  V30 11869 H 1131.48 -6.6987 -1.01393 0
M  V30 11870 H 1132.42 -7.06569 0.465437 0
M  V30 11871 H 1132.83 -5.62204 -0.508614 0
M  V30 11872 N 1132.22 -0.430739 -1.51599 0
M  V30 11873 C 1133.19 0.372319 -2.26156 0
M  V30 11874 C 1134.19 0.955338 -1.29344 0
M  V30 11875 O 1135.38 0.830823 -1.53111 0
M  V30 11876 C 1132.51 1.52613 -3.04831 0
M  V30 11877 H 1133.7 -0.280996 -2.98581 0
M  V30 11878 H 1131.26 -0.183749 -1.55216 0
M  V30 11879 H 1131.99 2.21569 -2.36807 0
M  V30 11880 H 1131.78 1.11433 -3.75932 0
M  V30 11881 H 1133.27 2.09366 -3.61325 0
M  V30 11882 N 1133.7 1.56767 -0.161869 0
M  V30 11883 C 1134.95 1.96594 0.485496 0
M  V30 11884 C 1135.28 1.04743 1.63887 0
M  V30 11885 O 1134.53 0.079602 1.95538 0
M  V30 11886 C 1134.83 3.42567 1.01894 0
M  V30 11887 C 1134.5 4.50897 -0.0175419 0
M  V30 11888 C 1133.16 4.80249 -0.302429 0
M  V30 11889 C 1135.51 5.16181 -0.721572 0
M  V30 11890 C 1132.84 5.72187 -1.2969 0
M  V30 11891 C 1135.19 6.09191 -1.70496 0
M  V30 11892 C 1133.86 6.36915 -1.99739 0
M  V30 11893 H 1133.13 0.719388 0.177656 0
M  V30 11894 H 1135.77 1.89837 -0.251839 0
M  V30 11895 H 1134.08 3.4623 1.83391 0
M  V30 11896 H 1135.77 3.70719 1.52867 0
M  V30 11897 H 1132.36 4.28062 0.21468 0
M  V30 11898 H 1136.55 4.93624 -0.514681 0
M  V30 11899 H 1131.8 5.91953 -1.52974 0
M  V30 11900 H 1135.98 6.58849 -2.25591 0
M  V30 11901 H 1133.61 7.07958 -2.76948 0
M  V30 11902 N 1135.18 -0.111886 1.57202 0
M  V30 11903 C 1136.11 -1.13796 2.03894 0
M  V30 11904 C 1137.09 -1.4277 0.924696 0
M  V30 11905 O 1138.28 -1.53089 1.19488 0
M  V30 11906 C 1135.41 -2.46229 2.44925 0
M  V30 11907 C 1134.36 -2.31702 3.59859 0
M  V30 11908 C 1133.69 -3.69161 3.86813 0
M  V30 11909 C 1134.99 -1.77158 4.91337 0
M  V30 11910 H 1136.68 -0.749581 2.89865 0
M  V30 11911 H 1134.23 -0.359126 1.3945 0
M  V30 11912 H 1136.18 -3.18267 2.76195 0
M  V30 11913 H 1134.9 -2.86971 1.55933 0
M  V30 11914 H 1133.56 -1.62112 3.28809 0
M  V30 11915 H 1133.21 -4.07401 2.95015 0
M  V30 11916 H 1132.91 -3.60292 4.6418 0
M  V30 11917 H 1134.43 -4.42693 4.20542 0
M  V30 11918 H 1135.85 -2.3902 5.21097 0
M  V30 11919 H 1134.25 -1.79091 5.72753 0
M  V30 11920 H 1135.32 -0.729675 4.79379 0
M  V30 11921 N 1136.66 -1.52894 -0.382264 0
M  V30 11922 C 1137.62 -1.77497 -1.45008 0
M  V30 11923 C 1138.62 -0.64509 -1.47293 0
M  V30 11924 O 1139.81 -0.913192 -1.48346 0
M  V30 11925 C 1136.94 -1.88188 -2.8425 0
M  V30 11926 H 1138.14 -2.72849 -1.24473 0
M  V30 11927 H 1135.69 -1.43717 -0.61441 0
M  V30 11928 H 1136.42 -0.948451 -3.10121 0
M  V30 11929 H 1136.21 -2.70353 -2.83992 0
M  V30 11930 H 1137.7 -2.08873 -3.6161 0
M  V30 11931 N 1138.14 0.641106 -1.43971 0
M  V30 11932 C 1139.36 1.43324 -1.4991 0
M  V30 11933 C 1139.79 1.87705 -0.121908 0
M  V30 11934 O 1139.15 1.58127 0.886875 0
M  V30 11935 C 1139.19 2.63637 -2.46025 0
M  V30 11936 O 1138.3 3.63123 -1.95488 0
M  V30 11937 H 1137.64 0.429252 -0.506595 0
M  V30 11938 H 1140.17 0.783427 -1.89007 0
M  V30 11939 H 1140.18 3.11304 -2.63731 0
M  V30 11940 H 1138.85 2.30678 -3.46064 0
M  V30 11941 H 1137.43 3.22332 -1.87501 0
M  V30 11942 N 1139.62 1.30703 0.880598 0
M  V30 11943 C 1140.56 1.17455 1.98678 0
M  V30 11944 C 1141.53 0.0629569 1.65981 0
M  V30 11945 O 1142.72 0.233926 1.89361 0
M  V30 11946 C 1139.86 0.876882 3.33774 0
M  V30 11947 C 1138.97 2.07078 3.79134 0
M  V30 11948 C 1138.11 1.71082 5.02896 0
M  V30 11949 C 1137.14 2.86942 5.40676 0
M  V30 11950 N 1136.28 2.51212 6.55619 0
M  V30 11951 H 1141.12 2.12086 2.09341 0
M  V30 11952 H 1138.66 1.05514 1.02495 0
M  V30 11953 H 1140.62 0.684899 4.1154 0
M  V30 11954 H 1139.25 -0.0325633 3.22784 0
M  V30 11955 H 1138.3 2.37388 2.97239 0
M  V30 11956 H 1139.61 2.9383 4.0307 0
M  V30 11957 H 1138.76 1.48284 5.883 0
M  V30 11958 H 1137.5 0.815064 4.80841 0
M  V30 11959 H 1136.51 3.10401 4.53797 0
M  V30 11960 H 1137.73 3.77211 5.64703 0
M  V30 11961 H 1135.68 1.64147 6.35131 0
M  V30 11962 H 1135.6 3.31495 6.79446 0
M  V30 11963 H 1136.86 2.31781 7.44243 0
M  V30 11964 N 1141.09 -1.09351 1.1349 0
M  V30 11965 C 1142.04 -2.18099 0.808426 0
M  V30 11966 C 1143.04 -1.68099 -0.209571 0
M  V30 11967 O 1144.24 -1.79877 -0.0666417 0
M  V30 11968 H 1140.62 -0.711432 0.243658 0
M  V30 11969 H 1142.59 -2.42867 1.73373 0
M  V30 11970 C 1141.34 -3.46475 0.291615 0
M  V30 11971 H 1140.66 -3.85319 1.06627 0
M  V30 11972 H 1142.1 -4.23878 0.101616 0
M  V30 11973 C 1140.56 -3.22245 -0.982827 0
M  V30 11974 O 1141.09 -3.44947 -2.0585 0
M  V30 11975 N 1139.29 -2.75845 -0.914218 0
M  V30 11976 H 1138.84 -2.57571 -0.03872 0
M  V30 11977 H 1138.8 -2.60011 -1.76753 0
M  V30 11978 N 1142.57 -0.928524 -1.27343 0
M  V30 11979 C 1143.81 -0.576696 -1.96096 0
M  V30 11980 C 1144.18 0.866074 -1.71357 0
M  V30 11981 O 1145.38 1.32621 -2.33805 0
M  V30 11982 C 1143.65 -0.894692 -3.4602 0
M  V30 11983 S 1145.21 -0.651503 -4.33936 0
M  V30 11984 H 1142.02 -0.212847 -0.678393 0
M  V30 11985 H 1144.63 -1.19714 -1.5456 0
M  V30 11986 H 1143.33 -1.94239 -3.61524 0
M  V30 11987 H 1142.86 -0.263478 -3.92517 0
M  V30 11988 H 1144.88 0.490314 -4.93772 0
M  V30 11989 N 1144.05 1.41491 -0.694123 0
M  V30 11990 C 1145.3 2.00479 -0.221585 0
M  V30 11991 C 1145.61 1.55605 1.18518 0
M  V30 11992 O 1146.82 2.07143 1.7551 0
M  V30 11993 C 1145.27 3.5824 -0.345264 0
M  V30 11994 C 1144.88 4.12096 -1.7573 0
M  V30 11995 C 1146.63 4.24446 0.0675731 0
M  V30 11996 C 1144.53 5.62286 -1.83271 0
M  V30 11997 H 1143.46 0.749841 -0.0790854 0
M  V30 11998 H 1146.11 1.61987 -0.86211 0
M  V30 11999 H 1144.5 3.94328 0.363487 0
M  V30 12000 H 1145.67 3.8743 -2.49469 0
M  V30 12001 H 1143.98 3.58411 -2.11969 0
M  V30 12002 H 1146.58 5.34691 0.0316485 0
M  V30 12003 H 1146.92 4.01338 1.10606 0
M  V30 12004 H 1147.46 3.93388 -0.59085 0
M  V30 12005 H 1144.2 5.9022 -2.85168 0
M  V30 12006 H 1143.72 5.88883 -1.13914 0
M  V30 12007 H 1145.4 6.27033 -1.59494 0
M  V30 12008 N 1145.53 0.438773 1.51369 0
M  V30 12009 C 1146.48 -0.389921 2.24641 0
M  V30 12010 C 1147.46 -0.988871 1.26926 0
M  V30 12011 O 1148.65 -0.906774 1.52009 0
M  V30 12012 C 1145.78 -1.48972 3.09293 0
M  V30 12013 C 1144.87 -0.900093 4.14438 0
M  V30 12014 N 1145.26 -0.0397688 5.05784 0
M  V30 12015 C 1143.56 -1.16752 4.30447 0
M  V30 12016 C 1144.26 0.291527 5.80969 0
M  V30 12017 N 1143.23 -0.325219 5.42626 0
M  V30 12018 H 1147.04 0.273335 2.92626 0
M  V30 12019 H 1144.55 0.250934 1.6045 0
M  V30 12020 H 1146.55 -2.09627 3.60364 0
M  V30 12021 H 1145.21 -2.1553 2.42852 0
M  V30 12022 H 1146.22 0.326771 5.16868 0
M  V30 12023 H 1142.9 -1.83049 3.75232 0
M  V30 12024 H 1144.29 0.991699 6.64541 0
M  V30 12025 N 1147.01 -1.56678 0.170181 0
M  V30 12026 C 1148.42 -1.58512 -0.185999 0
M  V30 12027 C 1148.62 -1.18548 -1.62937 0
M  V30 12028 O 1147.68 -0.896554 -2.36047 0
M  V30 12029 C 1148.99 -3.00554 0.0937842 0
M  V30 12030 C 1150.54 -3.12984 0.0319057 0
M  V30 12031 C 1151.01 -4.57115 0.284664 0
M  V30 12032 N 1152.5 -4.62617 0.2324 0
M  V30 12033 C 1153.24 -5.71988 0.40216 0
M  V30 12034 N 1152.74 -6.89921 0.630915 0
M  V30 12035 N 1154.53 -5.61082 0.338144 0
M  V30 12036 H 1146.68 -1.80944 1.11235 0
M  V30 12037 H 1148.94 -0.838586 0.442128 0
M  V30 12038 H 1148.65 -3.34265 1.09362 0
M  V30 12039 H 1148.52 -3.72151 -0.615118 0
M  V30 12040 H 1150.91 -2.791 -0.958502 0
M  V30 12041 H 1150.99 -2.43825 0.773501 0
M  V30 12042 H 1150.63 -4.91707 1.27227 0
M  V30 12043 H 1150.56 -5.2443 -0.477529 0
M  V30 12044 H 1153.06 -3.7785 0.0611933 0
M  V30 12045 H 1153.37 -7.69153 0.749931 0
M  V30 12046 H 1151.71 -6.91787 0.667516 0
M  V30 12047 H 1154.9 -4.67826 0.16003 0
M  V30 12048 H 1155.08 -6.46265 0.473872 0
M  V30 12049 N 1148.48 0.103547 -1.57259 0
M  V30 12050 C 1149.76 0.839768 -1.76656 0
M  V30 12051 C 1150.14 1.9734 -0.749666 0
M  V30 12052 O 1149.49 2.27405 0.223466 0
M  V30 12053 C 1149.7 1.34218 -3.22159 0
M  V30 12054 C 1151.05 1.78835 -3.85102 0
M  V30 12055 O 1152.07 1.43861 -3.25857 0
M  V30 12056 O 1150.93 2.43474 -4.89267 0
M  V30 12057 H 1148.02 0.399928 -0.723869 0
M  V30 12058 H 1150.57 0.0860857 -1.69482 0
M  V30 12059 H 1149.34 0.52956 -3.877 0
M  V30 12060 H 1148.96 2.15811 -3.33933 0
M  V30 12061 N 1149.96 1.53094 0.37415 0
M  V30 12062 C 1151.21 1.69111 1.11934 0
M  V30 12063 C 1151.54 0.437252 1.89213 0
M  V30 12064 O 1150.82 -0.565298 1.86104 0
M  V30 12065 C 1151.1 2.93559 2.08554 0
M  V30 12066 C 1150.95 4.29082 1.3494 0
M  V30 12067 C 1152.27 3.13586 3.08791 0
M  V30 12068 H 1149.39 0.615383 0.405553 0
M  V30 12069 H 1152.03 1.85719 0.401078 0
M  V30 12070 H 1150.18 2.79531 2.69805 0
M  V30 12071 H 1151.85 4.54906 0.765402 0
M  V30 12072 H 1150.1 4.28884 0.651238 0
M  V30 12073 H 1150.77 5.12275 2.05616 0
M  V30 12074 H 1153.24 3.26743 2.57639 0
M  V30 12075 H 1152.12 4.02112 3.73627 0
M  V30 12076 H 1152.38 2.28475 3.78486 0
M  V30 12077 N 1151.44 -0.633461 1.44309 0
M  V30 12078 C 1152.4 -1.72743 1.50641 0
M  V30 12079 C 1153.4 -1.56031 0.388718 0
M  V30 12080 O 1154.59 -1.61568 0.651251 0
M  V30 12081 C 1151.72 -3.11804 1.37809 0
M  V30 12082 H 1152.92 -1.68503 2.48086 0
M  V30 12083 H 1150.47 -0.846912 1.31366 0
M  V30 12084 H 1151.21 -3.2164 0.414483 0
M  V30 12085 H 1150.99 -3.2534 2.18852 0
M  V30 12086 H 1152.48 -3.91538 1.45216 0
M  V30 12087 N 1152.92 -1.31168 -0.873655 0
M  V30 12088 C 1153.88 -1.18471 -1.96207 0
M  V30 12089 C 1154.88 -0.112814 -1.60404 0
M  V30 12090 O 1156.07 -0.3618 -1.70401 0
M  V30 12091 C 1153.2 -0.817662 -3.30949 0
M  V30 12092 H 1154.4 -2.1518 -2.08896 0
M  V30 12093 H 1151.95 -1.14727 -1.06149 0
M  V30 12094 H 1152.68 0.148428 -3.2396 0
M  V30 12095 H 1152.47 -1.59244 -3.58307 0
M  V30 12096 H 1153.96 -0.75262 -4.10762 0
M  V30 12097 N 1154.4 1.08748 -1.14068 0
M  V30 12098 C 1155.81 1.33125 -0.880341 0
M  V30 12099 C 1156.01 1.9569 0.480396 0
M  V30 12100 O 1155.07 2.2077 1.22543 0
M  V30 12101 C 1156.38 2.23618 -2.01036 0
M  V30 12102 C 1157.93 2.37108 -2.04326 0
M  V30 12103 C 1158.4 3.30941 -3.1661 0
M  V30 12104 N 1159.9 3.38517 -3.16166 0
M  V30 12105 C 1160.63 4.11142 -3.99687 0
M  V30 12106 N 1160.13 4.86505 -4.93239 0
M  V30 12107 N 1161.92 4.06938 -3.87761 0
M  V30 12108 H 1154.07 0.665164 -2.01716 0
M  V30 12109 H 1156.33 0.355612 -0.878774 0
M  V30 12110 H 1156.04 1.84885 -2.99183 0
M  V30 12111 H 1155.91 3.24056 -1.93049 0
M  V30 12112 H 1158.3 2.75101 -1.06787 0
M  V30 12113 H 1158.38 1.36424 -2.16384 0
M  V30 12114 H 1158.03 2.93669 -4.14392 0
M  V30 12115 H 1157.96 4.31545 -3.01789 0
M  V30 12116 H 1160.45 2.84786 -2.48405 0
M  V30 12117 H 1160.76 5.39372 -5.53441 0
M  V30 12118 H 1159.1 4.8557 -4.9724 0
M  V30 12119 H 1162.3 3.47166 -3.13996 0
M  V30 12120 H 1162.47 4.63275 -4.53079 0
M  V30 12121 N 1155.87 0.935264 1.26849 0
M  V30 12122 C 1156.82 0.430895 2.28574 0
M  V30 12123 C 1157.82 -0.488739 1.62196 0
M  V30 12124 O 1159.02 -0.367605 1.76206 0
M  V30 12125 H 1155.4 0.120793 0.742235 0
M  V30 12126 H 1157.37 1.3015 2.68521 0
M  V30 12127 C 1156.12 -0.294053 3.46454 0
M  V30 12128 H 1155.44 0.404416 3.97749 0
M  V30 12129 H 1156.88 -0.611272 4.19571 0
M  V30 12130 C 1155.34 -1.50975 3.01178 0
M  V30 12131 O 1155.87 -2.60826 3.05504 0
M  V30 12132 N 1154.08 -1.36423 2.56587 0
M  V30 12133 H 1153.62 -0.470483 2.53267 0
M  V30 12134 H 1153.58 -2.17886 2.26656 0
M  V30 12135 N 1157.35 -1.41121 0.701616 0
M  V30 12136 C 1158.6 -2.01428 0.235495 0
M  V30 12137 C 1158.93 -1.55463 -1.16382 0
M  V30 12138 O 1158.21 -0.768477 -1.78675 0
M  V30 12139 C 1158.49 -3.58849 0.299919 0
M  V30 12140 C 1158.34 -4.14924 1.73661 0
M  V30 12141 C 1159.66 -4.38809 -0.336856 0
M  V30 12142 H 1156.78 -0.731842 0.0870456 0
M  V30 12143 H 1159.42 -1.67787 0.891479 0
M  V30 12144 H 1157.57 -3.87638 -0.258611 0
M  V30 12145 H 1159.24 -3.96987 2.34945 0
M  V30 12146 H 1157.49 -3.69738 2.26884 0
M  V30 12147 H 1158.16 -5.24085 1.73318 0
M  V30 12148 H 1160.63 -4.15868 0.138886 0
M  V30 12149 H 1159.51 -5.48278 -0.261264 0
M  V30 12150 H 1159.77 -4.18728 -1.41843 0
M  V30 12151 N 1158.83 -0.446794 -1.51134 0
M  V30 12152 C 1159.76 0.350229 -2.30858 0
M  V30 12153 C 1160.74 1.0125 -1.36684 0
M  V30 12154 O 1161.93 1.01433 -1.65605 0
M  V30 12155 C 1159.06 1.4464 -3.15748 0
M  V30 12156 C 1158.01 0.907102 -4.18277 0
M  V30 12157 C 1157.34 2.09974 -4.91747 0
M  V30 12158 C 1158.64 -0.0649758 -5.2226 0
M  V30 12159 H 1160.33 -0.315105 -2.97737 0
M  V30 12160 H 1157.88 -0.152985 -1.43185 0
M  V30 12161 H 1159.83 2.01127 -3.70305 0
M  V30 12162 H 1158.55 2.14016 -2.46708 0
M  V30 12163 H 1157.21 0.364382 -3.64785 0
M  V30 12164 H 1156.86 2.77991 -4.19202 0
M  V30 12165 H 1156.56 1.74523 -5.61084 0
M  V30 12166 H 1158.08 2.66996 -5.49131 0
M  V30 12167 H 1159.5 0.4099 -5.71833 0
M  V30 12168 H 1157.9 -0.332529 -5.99178 0
M  V30 12169 H 1158.97 -0.998681 -4.74504 0
M  V30 12170 N 1160.31 1.56586 -0.178487 0
M  V30 12171 C 1161.24 2.21313 0.744486 0
M  V30 12172 C 1162.22 1.17098 1.23377 0
M  V30 12173 O 1163.4 1.45551 1.28563 0
M  V30 12174 C 1160.53 2.8595 1.97103 0
M  V30 12175 C 1159.49 3.96266 1.61732 0
M  V30 12176 C 1158.81 4.47987 2.91911 0
M  V30 12177 C 1160.11 5.15503 0.839868 0
M  V30 12178 H 1161.81 2.98698 0.204938 0
M  V30 12179 H 1159.35 1.43672 0.0971306 0
M  V30 12180 H 1161.31 3.29909 2.6218 0
M  V30 12181 H 1160.03 2.05946 2.53484 0
M  V30 12182 H 1158.69 3.52974 0.990208 0
M  V30 12183 H 1158.34 3.64765 3.46346 0
M  V30 12184 H 1158.04 5.22413 2.68995 0
M  V30 12185 H 1159.56 4.94637 3.58004 0
M  V30 12186 H 1160.98 5.5611 1.39337 0
M  V30 12187 H 1159.37 5.95891 0.709473 0
M  V30 12188 H 1160.44 4.84628 -0.162396 0
M  V30 12189 N 1161.79 -0.095206 1.57312 0
M  V30 12190 C 1163.01 -0.81227 1.90289 0
M  V30 12191 C 1163.43 -1.72287 0.772178 0
M  V30 12192 O 1162.79 -1.80698 -0.255841 0
M  V30 12193 C 1162.84 -1.62572 3.22882 0
M  V30 12194 O 1162.56 -0.75175 4.31602 0
M  V30 12195 C 1164.06 -2.44585 3.6972 0
M  V30 12196 H 1161.28 -0.232256 0.629522 0
M  V30 12197 H 1163.82 -0.0724733 2.04372 0
M  V30 12198 H 1161.98 -2.31803 3.10397 0
M  V30 12199 H 1162.39 -1.31514 5.07744 0
M  V30 12200 H 1163.87 -2.97155 4.65191 0
M  V30 12201 H 1164.34 -3.23044 2.97555 0
M  V30 12202 H 1164.95 -1.80554 3.85072 0
M  V30 12203 N 1163.26 -1.53291 -0.366026 0
M  V30 12204 C 1164.21 -1.80367 -1.4687 0
M  V30 12205 C 1165.21 -0.672767 -1.55468 0
M  V30 12206 O 1166.41 -0.8557 -1.5836 0
M  V30 12207 H 1162.79 -0.571076 -0.48926 0
M  V30 12208 H 1164.76 -2.72661 -1.21237 0
M  V30 12209 C 1163.51 -2.01008 -2.8371 0
M  V30 12210 H 1162.83 -2.87468 -2.77853 0
M  V30 12211 H 1164.27 -2.2393 -3.60043 0
M  V30 12212 C 1162.73 -0.789054 -3.27529 0
M  V30 12213 O 1163.26 0.0224712 -4.01694 0
M  V30 12214 N 1161.47 -0.612621 -2.84069 0
M  V30 12215 H 1161.01 -1.27416 -2.23881 0
M  V30 12216 H 1160.97 0.202943 -3.13744 0
M  V30 12217 N 1164.74 0.6258 -1.44643 0
M  V30 12218 C 1165.99 1.38251 -1.47414 0
M  V30 12219 C 1166.31 1.94689 -0.110043 0
M  V30 12220 O 1165.58 1.76095 0.858333 0
M  V30 12221 H 1164.16 0.513179 -0.542823 0
M  V30 12222 H 1166.82 0.736179 -1.80462 0
M  V30 12223 H 1165.92 2.21115 -2.2026 0
M  V30 12224 N 1166.22 1.31629 0.866686 0
M  V30 12225 C 1167.17 1.16149 1.96197 0
M  V30 12226 C 1168.15 0.0716068 1.60741 0
M  V30 12227 O 1169.35 0.296868 1.74493 0
M  V30 12228 C 1166.48 0.874322 3.3198 0
M  V30 12229 C 1165.56 2.00534 3.73693 0
M  V30 12230 N 1165.95 3.25272 3.87339 0
M  V30 12231 C 1164.25 1.90582 4.0323 0
M  V30 12232 C 1164.95 3.99275 4.2303 0
M  V30 12233 N 1163.93 3.27471 4.33894 0
M  V30 12234 H 1167.73 2.10732 2.04864 0
M  V30 12235 H 1165.24 1.23234 1.05769 0
M  V30 12236 H 1167.24 0.7444 4.102 0
M  V30 12237 H 1165.9 -0.0632521 3.24638 0
M  V30 12238 H 1166.91 3.60349 3.71979 0
M  V30 12239 H 1163.59 1.0431 4.0426 0
M  V30 12240 H 1164.98 5.06784 4.41157 0
M  V30 12241 N 1167.7 -1.08142 1.14644 0
M  V30 12242 C 1168.95 -1.80849 0.917685 0
M  V30 12243 C 1169.28 -1.86123 -0.554249 0
M  V30 12244 O 1168.55 -1.33907 -1.41065 0
M  V30 12245 C 1168.84 -3.26325 1.52264 0
M  V30 12246 C 1168.69 -3.29244 3.06461 0
M  V30 12247 C 1170.01 -4.23375 1.20175 0
M  V30 12248 H 1167.13 -0.656559 0.334812 0
M  V30 12249 H 1169.77 -1.26595 1.41682 0
M  V30 12250 H 1167.92 -3.72656 1.09817 0
M  V30 12251 H 1169.59 -2.91216 3.57758 0
M  V30 12252 H 1167.83 -2.68438 3.40769 0
M  V30 12253 H 1168.51 -4.31785 3.43897 0
M  V30 12254 H 1170.98 -3.85394 1.56877 0
M  V30 12255 H 1169.86 -5.23472 1.65132 0
M  V30 12256 H 1170.12 -4.41944 0.117474 0
M  V30 12257 N 1169.18 -0.941978 -1.26351 0
M  V30 12258 C 1170.14 -0.456768 -2.24602 0
M  V30 12259 C 1171.14 0.432574 -1.54872 0
M  V30 12260 O 1172.33 0.23164 -1.72653 0
M  V30 12261 C 1169.46 0.341583 -3.39184 0
M  V30 12262 H 1170.66 -1.32503 -2.69041 0
M  V30 12263 H 1168.21 -0.724021 -1.38519 0
M  V30 12264 H 1168.94 1.22806 -3.00149 0
M  V30 12265 H 1168.73 -0.296268 -3.90979 0
M  V30 12266 H 1170.22 0.670955 -4.12175 0
M  V30 12267 N 1170.66 1.40747 -0.709091 0
M  V30 12268 C 1171.6 2.30741 -0.0523584 0
M  V30 12269 C 1172.57 1.4784 0.757145 0
M  V30 12270 O 1173.76 1.76595 0.72242 0
M  V30 12271 C 1170.9 3.34 0.868203 0
M  V30 12272 C 1170.01 4.31972 0.0488686 0
M  V30 12273 C 1169.15 5.223 0.968311 0
M  V30 12274 C 1168.18 6.11934 0.142682 0
M  V30 12275 N 1167.32 6.947 1.01665 0
M  V30 12276 H 1172.16 2.86338 -0.825509 0
M  V30 12277 H 1169.7 1.41013 -0.418785 0
M  V30 12278 H 1171.66 3.92431 1.41611 0
M  V30 12279 H 1170.29 2.79921 1.6076 0
M  V30 12280 H 1169.34 3.75377 -0.616137 0
M  V30 12281 H 1170.65 4.95291 -0.590625 0
M  V30 12282 H 1169.8 5.85631 1.58498 0
M  V30 12283 H 1168.54 4.5924 1.64164 0
M  V30 12284 H 1167.55 5.47639 -0.486965 0
M  V30 12285 H 1168.77 6.77052 -0.527046 0
M  V30 12286 H 1166.72 6.34236 1.67575 0
M  V30 12287 H 1166.64 7.54759 0.433045 0
M  V30 12288 H 1167.9 7.62487 1.6197 0
M  V30 12289 N 1172.13 0.454803 1.50895 0
M  V30 12290 C 1173.38 -0.107367 2.01414 0
M  V30 12291 C 1173.7 -1.42243 1.34262 0
M  V30 12292 O 1174.9 -2.06858 1.75846 0
M  V30 12293 C 1173.36 -0.241872 3.59086 0
M  V30 12294 C 1172.97 1.06379 4.35187 0
M  V30 12295 C 1174.71 -0.756873 4.17698 0
M  V30 12296 C 1172.62 0.893973 5.84604 0
M  V30 12297 H 1171.55 -0.0439003 0.752721 0
M  V30 12298 H 1174.2 0.587225 1.7385 0
M  V30 12299 H 1172.58 -0.999873 3.83169 0
M  V30 12300 H 1173.75 1.83148 4.2284 0
M  V30 12301 H 1172.07 1.50865 3.88109 0
M  V30 12302 H 1174.67 -0.900697 5.27059 0
M  V30 12303 H 1175.01 -1.74397 3.7801 0
M  V30 12304 H 1175.54 -0.0567088 3.9776 0
M  V30 12305 H 1172.28 1.85395 6.28736 0
M  V30 12306 H 1171.8 0.166387 5.99569 0
M  V30 12307 H 1173.48 0.554084 6.44623 0
M  V30 12308 N 1173.61 -1.56489 0.186789 0
M  V30 12309 C 1174.86 -1.96952 -0.453261 0
M  V30 12310 C 1175.18 -1.07451 -1.62725 0
M  V30 12311 O 1174.45 -0.144046 -1.9537 0
M  V30 12312 H 1173.03 -0.727295 -0.170445 0
M  V30 12313 H 1175.69 -1.92999 0.271584 0
M  V30 12314 H 1174.79 -3.01594 -0.802951 0
M  V30 12315 N 1175.09 0.086862 -1.5736 0
M  V30 12316 C 1176.37 0.820984 -1.77537 0
M  V30 12317 C 1176.75 1.96534 -0.770554 0
M  V30 12318 O 1176.09 2.27629 0.199334 0
M  V30 12319 C 1176.3 1.30793 -3.23565 0
M  V30 12320 C 1177.65 1.7474 -3.86977 0
M  V30 12321 O 1178.68 1.40396 -3.27364 0
M  V30 12322 O 1177.54 2.38271 -4.91822 0
M  V30 12323 H 1174.63 0.392228 -0.72807 0
M  V30 12324 H 1177.18 0.0681051 -1.69563 0
M  V30 12325 H 1175.95 0.488409 -3.8824 0
M  V30 12326 H 1175.57 2.12258 -3.36203 0
M  V30 12327 N 1176.57 1.53483 0.357892 0
M  V30 12328 C 1177.81 1.70037 1.09971 0
M  V30 12329 C 1178.14 0.456112 1.89076 0
M  V30 12330 O 1177.4 -0.562029 1.87456 0
M  V30 12331 C 1177.7 2.90654 2.07978 0
M  V30 12332 C 1177.36 4.26849 1.45295 0
M  V30 12333 C 1176.02 4.63884 1.27928 0
M  V30 12334 C 1178.38 5.11514 1.00013 0
M  V30 12335 C 1175.7 5.83213 0.638745 0
M  V30 12336 C 1178.06 6.31496 0.373568 0
M  V30 12337 C 1176.72 6.67237 0.187457 0
M  V30 12338 H 1175.99 0.622209 0.402414 0
M  V30 12339 H 1178.64 1.87679 0.380615 0
M  V30 12340 H 1176.94 2.67556 2.86219 0
M  V30 12341 H 1178.64 3.00656 2.65343 0
M  V30 12342 H 1175.23 3.97693 1.59807 0
M  V30 12343 H 1179.41 4.83446 1.12221 0
M  V30 12344 H 1174.67 6.09489 0.483035 0
M  V30 12345 H 1178.84 6.96398 0.0145346 0
M  V30 12346 H 1176.47 7.59564 -0.310933 0
M  V30 12347 N 1178.05 -0.61812 1.44973 0
M  V30 12348 C 1179.29 -1.37468 1.48145 0
M  V30 12349 C 1179.61 -1.94628 0.120366 0
M  V30 12350 O 1178.88 -1.76548 -0.848982 0
M  V30 12351 H 1177.46 -0.510293 0.545536 0
M  V30 12352 H 1180.13 -0.726598 1.8085 0
M  V30 12353 H 1179.22 -2.19944 2.2143 0
M  V30 12354 N 1179.52 -1.32087 -0.859693 0
M  V30 12355 C 1180.45 -1.23204 -1.98351 0
M  V30 12356 C 1181.43 -0.116974 -1.69697 0
M  V30 12357 O 1182.62 -0.303301 -1.91817 0
M  V30 12358 C 1179.75 -0.949171 -3.34078 0
M  V30 12359 C 1178.7 -2.02493 -3.77069 0
M  V30 12360 C 1178.03 -1.59455 -5.1037 0
M  V30 12361 C 1179.33 -3.43934 -3.93074 0
M  V30 12362 H 1181.02 -2.17227 -2.0604 0
M  V30 12363 H 1178.57 -1.04577 -0.989931 0
M  V30 12364 H 1180.52 -0.873594 -4.12245 0
M  V30 12365 H 1179.25 0.0267095 -3.26589 0
M  V30 12366 H 1177.91 -2.09057 -3.01149 0
M  V30 12367 H 1177.55 -0.606256 -4.99333 0
M  V30 12368 H 1177.25 -2.31429 -5.40106 0
M  V30 12369 H 1178.78 -1.53325 -5.91036 0
M  V30 12370 H 1180.19 -3.39986 -4.61608 0
M  V30 12371 H 1178.59 -4.14214 -4.3422 0
M  V30 12372 H 1179.66 -3.83965 -2.9614 0
M  V30 12373 N 1181 1.07532 -1.15215 0
M  V30 12374 C 1181.96 2.1286 -0.84989 0
M  V30 12375 C 1182.96 1.60103 0.149524 0
M  V30 12376 O 1184.15 1.74017 -0.0798918 0
M  V30 12377 C 1181.29 3.3984 -0.268617 0
M  V30 12378 H 1182.48 2.41106 -1.78347 0
M  V30 12379 H 1180.03 1.23392 -0.959386 0
M  V30 12380 H 1180.77 3.17235 0.67325 0
M  V30 12381 H 1180.55 3.79433 -0.988592 0
M  V30 12382 H 1182.04 4.17533 -0.0746554 0
M  V30 12383 N 1182.48 0.948665 1.2585 0
M  V30 12384 C 1183.9 0.652147 1.45668 0
M  V30 12385 C 1184.1 -0.792217 1.85273 0
M  V30 12386 O 1183.15 -1.56812 1.97905 0
M  V30 12387 C 1184.47 1.61998 2.53332 0
M  V30 12388 C 1186.01 1.6305 2.67178 0
M  V30 12389 C 1186.49 2.58582 3.78021 0
M  V30 12390 N 1187.98 2.56911 3.85423 0
M  V30 12391 C 1188.71 3.27511 4.70664 0
M  V30 12392 N 1188.21 4.07563 5.60236 0
M  V30 12393 N 1190 3.16427 4.64576 0
M  V30 12394 H 1182.15 1.88215 0.984325 0
M  V30 12395 H 1184.42 0.809251 0.493778 0
M  V30 12396 H 1184.12 2.65137 2.31075 0
M  V30 12397 H 1184 1.37784 3.51134 0
M  V30 12398 H 1186.38 0.606315 2.88804 0
M  V30 12399 H 1186.47 1.9132 1.69795 0
M  V30 12400 H 1186.11 3.61122 3.57146 0
M  V30 12401 H 1186.04 2.27598 4.74875 0
M  V30 12402 H 1188.53 1.9879 3.21389 0
M  V30 12403 H 1188.84 4.58367 6.22189 0
M  V30 12404 H 1187.19 4.11662 5.59964 0
M  V30 12405 H 1190.38 2.53364 3.93604 0
M  V30 12406 H 1190.55 3.71714 5.30785 0
M  V30 12407 N 1183.96 -1.40369 0.716545 0
M  V30 12408 C 1185.24 -1.94737 0.183576 0
M  V30 12409 C 1185.62 -1.65464 -1.31092 0
M  V30 12410 O 1184.96 -0.972832 -2.06756 0
M  V30 12411 C 1185.17 -3.45438 0.497339 0
M  V30 12412 C 1186.52 -4.2235 0.436526 0
M  V30 12413 O 1187.55 -3.53553 0.433454 0
M  V30 12414 O 1186.4 -5.44923 0.41489 0
M  V30 12415 H 1183.5 -0.82655 0.0272785 0
M  V30 12416 H 1186.04 -1.49972 0.794143 0
M  V30 12417 H 1184.82 -3.60107 1.53097 0
M  V30 12418 H 1184.44 -3.97342 -0.143141 0
M  V30 12419 N 1185.44 -0.462799 -1.50652 0
M  V30 12420 C 1186.69 0.0966838 -2.01468 0
M  V30 12421 C 1187 1.41529 -1.35014 0
M  V30 12422 O 1188.2 2.05923 -1.76941 0
M  V30 12423 C 1186.66 0.222826 -3.5921 0
M  V30 12424 C 1186.27 -1.08686 -4.34616 0
M  V30 12425 C 1188.01 0.734711 -4.18094 0
M  V30 12426 C 1185.92 -0.924964 -5.84122 0
M  V30 12427 H 1184.85 0.0399078 -0.752943 0
M  V30 12428 H 1187.5 -0.596437 -1.73536 0
M  V30 12429 H 1185.88 0.979539 -3.83694 0
M  V30 12430 H 1187.06 -1.85388 -4.21862 0
M  V30 12431 H 1185.37 -1.52922 -3.87303 0
M  V30 12432 H 1187.97 0.872734 -5.2753 0
M  V30 12433 H 1188.31 1.72389 -3.7893 0
M  V30 12434 H 1188.84 0.0356139 -3.97784 0
M  V30 12435 H 1185.58 -1.88727 -6.27744 0
M  V30 12436 H 1185.1 -0.198181 -5.99473 0
M  V30 12437 H 1186.78 -0.588262 -6.4432 0
M  V30 12438 N 1186.91 1.56388 -0.195085 0
M  V30 12439 C 1187.85 2.14992 0.765096 0
M  V30 12440 C 1188.83 1.08663 1.20959 0
M  V30 12441 O 1190.01 1.36775 1.29711 0
M  V30 12442 C 1187.14 2.7088 2.03327 0
M  V30 12443 C 1186.18 3.89797 1.7309 0
M  V30 12444 S 1187.02 5.28236 0.879025 0
M  V30 12445 C 1188.17 5.87545 2.15734 0
M  V30 12446 H 1188.4 2.961 0.266902 0
M  V30 12447 H 1185.94 1.54387 0.0199116 0
M  V30 12448 H 1187.9 3.03723 2.76157 0
M  V30 12449 H 1186.56 1.89814 2.50259 0
M  V30 12450 H 1185.75 4.27312 2.67246 0
M  V30 12451 H 1185.35 3.57964 1.08342 0
M  V30 12452 H 1187.64 6.01907 3.10989 0
M  V30 12453 H 1188.59 6.84137 1.82652 0
M  V30 12454 H 1188.99 5.16151 2.2858 0
M  V30 12455 N 1188.39 -0.0785156 1.57404 0
M  V30 12456 C 1189.34 -1.11278 2.04255 0
M  V30 12457 C 1190.33 -1.40482 0.946633 0
M  V30 12458 O 1191.54 -1.39968 1.13177 0
M  V30 12459 H 1187.92 -0.376157 0.65116 0
M  V30 12460 H 1189.89 -0.691437 2.90279 0
M  V30 12461 C 1188.64 -2.42006 2.49656 0
M  V30 12462 H 1187.96 -2.20383 3.33574 0
M  V30 12463 H 1189.4 -3.12837 2.86197 0
M  V30 12464 C 1187.86 -3.07488 1.37669 0
M  V30 12465 O 1188.39 -3.95285 0.715036 0
M  V30 12466 N 1186.59 -2.68004 1.1235 0
M  V30 12467 H 1186.14 -1.96698 1.66336 0
M  V30 12468 H 1186.1 -3.12141 0.376238 0
M  V30 12469 N 1189.87 -1.5367 -0.349747 0
M  V30 12470 C 1191.15 -1.61238 -1.10732 0
M  V30 12471 C 1191.53 -0.429756 -2.06679 0
M  V30 12472 O 1190.88 0.578564 -2.21054 0
M  V30 12473 C 1191.09 -2.97022 -1.83245 0
M  V30 12474 C 1192.43 -3.52158 -2.37212 0
M  V30 12475 O 1193.46 -2.99156 -1.9335 0
M  V30 12476 O 1192.32 -4.44853 -3.1744 0
M  V30 12477 H 1189.41 -0.65191 -0.508864 0
M  V30 12478 H 1191.96 -1.66015 -0.351738 0
M  V30 12479 H 1190.73 -3.74535 -1.13311 0
M  V30 12480 H 1190.35 -2.95808 -2.65675 0
M  V30 12481 N 1191.35 0.610423 -1.45298 0
M  V30 12482 C 1192.57 1.40112 -1.52917 0
M  V30 12483 C 1193 1.87404 -0.161696 0
M  V30 12484 O 1192.36 1.59973 0.853135 0
M  V30 12485 C 1192.4 2.58359 -2.51561 0
M  V30 12486 O 1191.51 3.58895 -2.03146 0
M  V30 12487 H 1190.85 0.41841 -0.515586 0
M  V30 12488 H 1193.38 0.743159 -1.90626 0
M  V30 12489 H 1193.39 3.0564 -2.70275 0
M  V30 12490 H 1192.06 2.23286 -3.50879 0
M  V30 12491 H 1190.64 3.18282 -1.94296 0
M  V30 12492 N 1192.83 1.32541 0.852676 0
M  V30 12493 C 1193.77 1.21602 1.98282 0
M  V30 12494 C 1194.77 0.120384 1.68972 0
M  V30 12495 O 1195.97 0.283441 1.77754 0
M  V30 12496 H 1192.35 0.376994 0.650676 0
M  V30 12497 H 1194.32 2.17179 2.04636 0
M  V30 12498 C 1193.07 0.957965 3.34243 0
M  V30 12499 H 1192.39 1.79324 3.57327 0
M  V30 12500 H 1193.83 0.921673 4.13861 0
M  V30 12501 C 1192.29 -0.339271 3.35187 0
M  V30 12502 O 1192.82 -1.3505 3.78318 0
M  V30 12503 N 1191.03 -0.361944 2.88337 0
M  V30 12504 H 1190.57 0.461497 2.53432 0
M  V30 12505 H 1190.53 -1.22976 2.89352 0
M  V30 12506 N 1194.3 -1.0692 1.15784 0
M  V30 12507 C 1195.53 -1.83045 0.958031 0
M  V30 12508 C 1195.94 -1.82555 -0.497027 0
M  V30 12509 O 1195.29 -1.23864 -1.35659 0
M  V30 12510 C 1195.35 -3.31096 1.40056 0
M  V30 12511 C 1195.01 -3.55299 2.87423 0
M  V30 12512 C 1196.01 -3.48875 3.85463 0
M  V30 12513 C 1193.69 -3.82824 3.25194 0
M  V30 12514 C 1195.69 -3.69633 5.19279 0
M  V30 12515 C 1193.37 -4.03232 4.59181 0
M  V30 12516 C 1194.37 -3.96633 5.56032 0
M  V30 12517 O 1194.06 -4.16492 6.87597 0
M  V30 12518 H 1193.79 -0.584218 0.340095 0
M  V30 12519 H 1196.35 -1.35841 1.54066 0
M  V30 12520 H 1194.58 -3.79131 0.761361 0
M  V30 12521 H 1196.27 -3.88697 1.16916 0
M  V30 12522 H 1197.03 -3.27608 3.57629 0
M  V30 12523 H 1192.91 -3.87073 2.50391 0
M  V30 12524 H 1196.45 -3.64398 5.94861 0
M  V30 12525 H 1192.35 -4.23988 4.86729 0
M  V30 12526 H 1193.12 -4.33815 6.9408 0
M  V30 12527 N 1195.78 -0.955326 -1.25345 0
M  V30 12528 C 1197.03 -0.606149 -1.92377 0
M  V30 12529 C 1197.34 0.860927 -1.75634 0
M  V30 12530 O 1198.55 1.3201 -2.37246 0
M  V30 12531 C 1197.01 -1.03341 -3.44744 0
M  V30 12532 C 1196.61 -2.52308 -3.70196 0
M  V30 12533 C 1198.36 -0.756797 -4.17699 0
M  V30 12534 C 1196.27 -2.88831 -5.16072 0
M  V30 12535 H 1195.2 -0.222994 -0.720271 0
M  V30 12536 H 1197.85 -1.15987 -1.42194 0
M  V30 12537 H 1196.23 -0.408096 -3.93892 0
M  V30 12538 H 1197.4 -3.19864 -3.31698 0
M  V30 12539 H 1195.72 -2.77448 -3.10502 0
M  V30 12540 H 1198.31 -1.00583 -5.25154 0
M  V30 12541 H 1198.66 0.306794 -4.15168 0
M  V30 12542 H 1199.19 -1.34249 -3.74462 0
M  V30 12543 H 1195.93 -3.9421 -5.23716 0
M  V30 12544 H 1195.45 -2.25948 -5.55614 0
M  V30 12545 H 1197.13 -2.78061 -5.84201 0
M  V30 12546 N 1197.26 1.39987 -0.723979 0
M  V30 12547 C 1198.51 2.01028 -0.267511 0
M  V30 12548 C 1198.84 1.57295 1.13894 0
M  V30 12549 O 1198.12 0.796805 1.7743 0
M  V30 12550 C 1198.4 3.58326 -0.356971 0
M  V30 12551 C 1198.25 4.12109 -1.8024 0
M  V30 12552 C 1199.57 4.39289 0.267003 0
M  V30 12553 H 1196.69 0.730364 -0.0986775 0
M  V30 12554 H 1199.33 1.66348 -0.91806 0
M  V30 12555 H 1197.48 3.88001 0.196908 0
M  V30 12556 H 1199.15 3.93199 -2.41231 0
M  V30 12557 H 1197.4 3.66082 -2.32737 0
M  V30 12558 H 1198.07 5.21261 -1.81634 0
M  V30 12559 H 1200.54 4.15595 -0.20503 0
M  V30 12560 H 1199.42 5.48624 0.174004 0
M  V30 12561 H 1199.68 4.20931 1.35164 0
M  V30 12562 N 1198.74 0.470782 1.50404 0
M  V30 12563 C 1199.69 -0.32355 2.28521 0
M  V30 12564 C 1200.66 -0.987472 1.3356 0
M  V30 12565 O 1201.84 -0.999969 1.62497 0
M  V30 12566 C 1198.98 -1.39977 3.15437 0
M  V30 12567 C 1198.09 -0.750656 4.25428 0
M  V30 12568 C 1197.23 -1.80474 4.99602 0
M  V30 12569 C 1196.27 -1.13586 6.01469 0
M  V30 12570 N 1195.41 -2.13279 6.68922 0
M  V30 12571 H 1200.25 0.348902 2.9595 0
M  V30 12572 H 1197.78 0.183908 1.45946 0
M  V30 12573 H 1199.74 -2.0354 3.6418 0
M  V30 12574 H 1198.37 -2.04139 2.50054 0
M  V30 12575 H 1197.42 -0.00247092 3.804 0
M  V30 12576 H 1198.73 -0.222638 4.98303 0
M  V30 12577 H 1197.89 -2.51619 5.52062 0
M  V30 12578 H 1196.63 -2.36657 4.26433 0
M  V30 12579 H 1195.63 -0.410042 5.48269 0
M  V30 12580 H 1196.86 -0.580935 6.76611 0
M  V30 12581 H 1194.8 -2.68479 5.98544 0
M  V30 12582 H 1194.72 -1.65461 7.37671 0
M  V30 12583 H 1195.99 -2.83804 7.26 0
M  V30 12584 N 1200.22 -1.56282 0.203376 0
M  V30 12585 C 1201.47 -1.97421 -0.432346 0
M  V30 12586 C 1201.79 -1.0917 -1.61576 0
M  V30 12587 O 1201.06 -0.164759 -1.95206 0
M  V30 12588 H 1199.64 -0.729062 -0.162721 0
M  V30 12589 H 1202.3 -1.927 0.292039 0
M  V30 12590 H 1201.39 -3.02429 -0.770918 0
M  V30 12591 N 1201.7 0.070167 -1.57444 0
M  V30 12592 C 1202.64 1.10193 -2.04842 0
M  V30 12593 C 1203.64 1.39978 -0.954069 0
M  V30 12594 O 1204.84 1.39366 -1.13917 0
M  V30 12595 H 1201.22 0.372699 -0.653146 0
M  V30 12596 H 1203.19 0.676033 -2.90641 0
M  V30 12597 C 1201.94 2.40679 -2.50936 0
M  V30 12598 H 1201.26 2.1861 -3.34738 0
M  V30 12599 H 1202.7 3.11315 -2.87852 0
M  V30 12600 C 1201.16 3.06754 -1.39297 0
M  V30 12601 O 1201.69 3.949 -0.735989 0
M  V30 12602 N 1199.9 2.67404 -1.13769 0
M  V30 12603 H 1199.44 1.95813 -1.67376 0
M  V30 12604 H 1199.4 3.11937 -0.392787 0
M  V30 12605 N 1203.17 1.53854 0.341593 0
M  V30 12606 C 1204.14 1.8128 1.40251 0
M  V30 12607 C 1205.14 0.683915 1.45531 0
M  V30 12608 O 1206.33 0.952202 1.45872 0
M  V30 12609 C 1203.46 1.95658 2.79161 0
M  V30 12610 H 1204.65 2.76053 1.17195 0
M  V30 12611 H 1202.2 1.45296 0.57609 0
M  V30 12612 H 1202.94 1.03034 3.07497 0
M  V30 12613 H 1202.72 2.77788 2.76724 0
M  V30 12614 H 1204.21 2.18387 3.55945 0
M  V30 12615 N 1204.65 -0.602709 1.4562 0
M  V30 12616 C 1206.07 -0.923983 1.30133 0
M  V30 12617 C 1206.27 -1.99842 0.25796 0
M  V30 12618 O 1205.32 -2.50112 -0.346414 0
M  V30 12619 C 1206.64 -1.36029 2.68173 0
M  V30 12620 C 1208.18 -1.47423 2.76108 0
M  V30 12621 C 1208.66 -1.94427 4.14683 0
M  V30 12622 N 1210.15 -2.01653 4.17002 0
M  V30 12623 C 1210.89 -2.39255 5.211 0
M  V30 12624 N 1210.38 -2.75791 6.3554 0
M  V30 12625 N 1212.17 -2.39636 5.08459 0
M  V30 12626 H 1204.33 0.107377 2.12128 0
M  V30 12627 H 1206.59 -0.0146216 0.947887 0
M  V30 12628 H 1206.29 -0.644949 3.45736 0
M  V30 12629 H 1206.17 -2.32584 2.96959 0
M  V30 12630 H 1208.56 -2.18047 1.98845 0
M  V30 12631 H 1208.64 -0.4917 2.5103 0
M  V30 12632 H 1208.28 -1.24389 4.92433 0
M  V30 12633 H 1208.21 -2.93603 4.37156 0
M  V30 12634 H 1210.7 -1.75988 3.3442 0
M  V30 12635 H 1211.01 -3.03378 7.10761 0
M  V30 12636 H 1209.36 -2.73475 6.38934 0
M  V30 12637 H 1212.55 -2.10502 4.18098 0
M  V30 12638 H 1212.72 -2.68614 5.89704 0
M  V30 12639 N 1206.13 -1.32992 -0.845635 0
M  V30 12640 C 1207.06 -1.25301 -1.97033 0
M  V30 12641 C 1208.04 -0.134966 -1.69564 0
M  V30 12642 O 1209.23 -0.323629 -1.91484 0
M  V30 12643 C 1206.36 -0.984551 -3.33052 0
M  V30 12644 C 1205.31 -2.06481 -3.749 0
M  V30 12645 C 1204.64 -1.6486 -5.08651 0
M  V30 12646 C 1205.94 -3.48083 -3.89404 0
M  V30 12647 H 1207.63 -2.194 -2.03725 0
M  V30 12648 H 1205.18 -1.05621 -0.978783 0
M  V30 12649 H 1207.13 -0.917269 -4.11296 0
M  V30 12650 H 1205.85 -0.00793116 -3.26599 0
M  V30 12651 H 1204.51 -2.1224 -2.98915 0
M  V30 12652 H 1204.16 -0.659183 -4.98662 0
M  V30 12653 H 1203.86 -2.37145 -5.37621 0
M  V30 12654 H 1205.38 -1.59585 -5.89377 0
M  V30 12655 H 1206.8 -3.44863 -4.57976 0
M  V30 12656 H 1205.19 -4.18796 -4.29802 0
M  V30 12657 H 1206.26 -3.87084 -2.92051 0
M  V30 12658 N 1207.61 1.06304 -1.1635 0
M  V30 12659 C 1209.02 1.60566 -0.952652 0
M  V30 12660 C 1209.37 1.8963 0.503473 0
M  V30 12661 O 1208.49 1.66964 1.37666 0
M  V30 12662 C 1209.09 2.9172 -1.72292 0
M  V30 12663 C 1207.65 3.42684 -1.55707 0
M  V30 12664 C 1206.8 2.16579 -1.73172 0
M  V30 12665 H 1209.75 0.892563 -1.31221 0
M  V30 12666 H 1209.77 3.61126 -1.19868 0
M  V30 12667 H 1209.28 2.70535 -2.78267 0
M  V30 12668 H 1207.38 3.68929 -0.521726 0
M  V30 12669 H 1207.49 4.18018 -2.34088 0
M  V30 12670 H 1205.86 2.26795 -1.15914 0
M  V30 12671 H 1206.64 1.97877 -2.80535 0
M  V30 12672 N 1209.09 0.96196 1.24836 0
M  V30 12673 C 1210.33 0.621634 1.93038 0
M  V30 12674 C 1210.66 -0.840257 1.75081 0
M  V30 12675 O 1209.94 -1.60381 1.10038 0
M  V30 12676 C 1210.22 0.990107 3.46221 0
M  V30 12677 C 1210.08 2.50827 3.73371 0
M  V30 12678 C 1211.39 0.520478 4.37011 0
M  V30 12679 H 1208.51 0.227312 0.701069 0
M  V30 12680 H 1211.16 1.19993 1.47315 0
M  V30 12681 H 1209.31 0.498008 3.85295 0
M  V30 12682 H 1210.98 3.07469 3.4389 0
M  V30 12683 H 1209.22 2.94277 3.18722 0
M  V30 12684 H 1209.89 2.71659 4.80526 0
M  V30 12685 H 1212.37 0.942703 4.05281 0
M  V30 12686 H 1211.24 0.806918 5.42937 0
M  V30 12687 H 1211.5 -0.579507 4.38285 0
M  V30 12688 N 1210.56 -1.39601 0.731392 0
M  V30 12689 C 1211.51 -2.30628 0.0890606 0
M  V30 12690 C 1212.48 -1.49025 -0.73353 0
M  V30 12691 O 1213.67 -1.77722 -0.694234 0
M  V30 12692 C 1210.81 -3.35339 -0.814956 0
M  V30 12693 C 1209.92 -4.31995 0.0198606 0
M  V30 12694 C 1209.05 -5.23774 -0.885095 0
M  V30 12695 C 1208.09 -6.12083 -0.045311 0
M  V30 12696 N 1207.23 -6.9623 -0.906002 0
M  V30 12697 H 1212.07 -2.84988 0.870958 0
M  V30 12698 H 1209.61 -1.40329 0.441166 0
M  V30 12699 H 1211.56 -3.94634 -1.3535 0
M  V30 12700 H 1210.19 -2.82443 -1.56287 0
M  V30 12701 H 1209.25 -3.74349 0.675778 0
M  V30 12702 H 1210.56 -4.94289 0.669346 0
M  V30 12703 H 1209.71 -5.88078 -1.49161 0
M  V30 12704 H 1208.45 -4.61794 -1.56837 0
M  V30 12705 H 1207.46 -5.46795 0.574028 0
M  V30 12706 H 1208.68 -6.76128 0.634692 0
M  V30 12707 H 1206.63 -6.36821 -1.57463 0
M  V30 12708 H 1206.54 -7.55352 -0.312914 0
M  V30 12709 H 1207.81 -7.64967 -1.49819 0
M  V30 12710 N 1212.04 -0.478751 -1.50152 0
M  V30 12711 C 1213.29 0.0657809 -2.03294 0
M  V30 12712 C 1213.64 1.36719 -1.35373 0
M  V30 12713 O 1212.94 1.8567 -0.473005 0
M  V30 12714 C 1213.13 0.297535 -3.56159 0
M  V30 12715 C 1212.96 -0.979859 -4.38895 0
M  V30 12716 C 1211.73 -1.52535 -4.81727 0
M  V30 12717 C 1213.93 -1.8773 -4.78813 0
M  V30 12718 N 1211.91 -2.75097 -5.48812 0
M  V30 12719 C 1213.28 -2.94876 -5.45388 0
M  V30 12720 C 1215.34 -1.88676 -4.60767 0
M  V30 12721 C 1214.04 -4.02968 -5.95827 0
M  V30 12722 C 1216.06 -2.95728 -5.12151 0
M  V30 12723 C 1215.43 -4.01594 -5.78707 0
M  V30 12724 H 1211.53 -0.0161501 -0.781833 0
M  V30 12725 H 1214.11 -0.648664 -1.83577 0
M  V30 12726 H 1212.28 0.981023 -3.75806 0
M  V30 12727 H 1214.01 0.837091 -3.95948 0
M  V30 12728 H 1210.77 -1.07349 -4.61273 0
M  V30 12729 H 1211.19 -3.37359 -5.86956 0
M  V30 12730 H 1215.83 -1.08143 -4.08736 0
M  V30 12731 H 1213.55 -4.84312 -6.46891 0
M  V30 12732 H 1217.14 -2.97453 -5.00013 0
M  V30 12733 H 1216.02 -4.83067 -6.17751 0
M  V30 12734 N 1213.52 1.56172 -0.211661 0
M  V30 12735 C 1214.45 2.15791 0.74225 0
M  V30 12736 C 1215.43 1.0994 1.198 0
M  V30 12737 O 1216.62 1.38143 1.28253 0
M  V30 12738 C 1213.74 2.73021 2.00443 0
M  V30 12739 C 1212.79 3.91611 1.68946 0
M  V30 12740 S 1213.62 5.29139 0.822949 0
M  V30 12741 C 1214.78 5.898 2.09491 0
M  V30 12742 H 1215.01 2.96366 0.235482 0
M  V30 12743 H 1212.54 1.544 0.0035357 0
M  V30 12744 H 1214.5 3.06635 2.7292 0
M  V30 12745 H 1213.16 1.92457 2.48232 0
M  V30 12746 H 1212.36 4.30122 2.62699 0
M  V30 12747 H 1211.96 3.59093 1.04539 0
M  V30 12748 H 1214.25 6.05172 3.04587 0
M  V30 12749 H 1215.19 6.86036 1.75386 0
M  V30 12750 H 1215.6 5.18546 2.23093 0
M  V30 12751 N 1215 -0.0618163 1.57479 0
M  V30 12752 C 1215.96 -1.05684 2.0338 0
M  V30 12753 C 1216.96 -1.31006 0.932423 0
M  V30 12754 O 1218.15 -1.26559 1.19702 0
M  V30 12755 C 1215.28 -2.39805 2.42294 0
M  V30 12756 H 1216.48 -0.661006 2.92525 0
M  V30 12757 H 1214.03 -0.307814 1.53239 0
M  V30 12758 H 1214.76 -2.84201 1.56207 0
M  V30 12759 H 1214.55 -2.22764 3.22674 0
M  V30 12760 H 1216.04 -3.11307 2.78349 0
M  V30 12761 N 1216.48 -1.54033 -0.333429 0
M  V30 12762 C 1217.89 -1.63107 -0.908455 0
M  V30 12763 C 1218.24 -0.518823 -1.89216 0
M  V30 12764 O 1217.36 0.34985 -2.13553 0
M  V30 12765 C 1217.96 -2.95657 -1.65447 0
M  V30 12766 C 1216.52 -3.0696 -2.17836 0
M  V30 12767 C 1215.66 -2.58617 -1.00063 0
M  V30 12768 H 1218.62 -1.58309 -0.11128 0
M  V30 12769 H 1218.64 -2.85263 -2.51804 0
M  V30 12770 H 1218.15 -3.76588 -0.938263 0
M  V30 12771 H 1216.25 -2.30683 -2.92602 0
M  V30 12772 H 1216.36 -4.12599 -2.43513 0
M  V30 12773 H 1214.73 -2.1427 -1.37697 0
M  V30 12774 H 1215.51 -3.41996 -0.298901 0
M  V30 12775 N 1217.95 0.594978 -1.45938 0
M  V30 12776 C 1218.86 1.73296 -1.58132 0
M  V30 12777 C 1219.88 1.67665 -0.465245 0
M  V30 12778 O 1221.06 1.87794 -0.727684 0
M  V30 12779 C 1218.12 3.09783 -1.55677 0
M  V30 12780 C 1217.18 3.26772 -2.78422 0
M  V30 12781 C 1216.42 4.56748 -2.76075 0
M  V30 12782 O 1216.64 5.39867 -1.84119 0
M  V30 12783 O 1215.57 4.76721 -3.67452 0
M  V30 12784 H 1219.4 1.65957 -2.54346 0
M  V30 12785 H 1216.98 0.760572 -1.28591 0
M  V30 12786 H 1218.87 3.91077 -1.56961 0
M  V30 12787 H 1217.54 3.17585 -0.626191 0
M  V30 12788 H 1216.45 2.45018 -2.82696 0
M  V30 12789 H 1217.78 3.23853 -3.70648 0
M  V30 12790 N 1219.43 1.33438 0.838571 0
M  V30 12791 C 1220.66 1.28097 1.63113 0
M  V30 12792 C 1221.08 -0.145197 1.87539 0
M  V30 12793 O 1220.44 -1.10191 1.43971 0
M  V30 12794 C 1220.49 2.06201 2.95827 0
M  V30 12795 O 1219.59 1.42082 3.87152 0
M  V30 12796 H 1218.93 0.440685 0.496681 0
M  V30 12797 H 1221.46 1.76004 1.04325 0
M  V30 12798 H 1221.47 2.16977 3.45521 0
M  V30 12799 H 1220.15 3.099 2.77371 0
M  V30 12800 H 1218.73 1.39953 3.45641 0
M  V30 12801 N 1220.91 -1.05686 1.16912 0
M  V30 12802 C 1222.16 -1.77987 0.948875 0
M  V30 12803 C 1222.47 -1.8845 -0.524011 0
M  V30 12804 O 1223.68 -2.57442 -0.862322 0
M  V30 12805 C 1222.13 -3.19927 1.64848 0
M  V30 12806 C 1221.74 -3.1761 3.15956 0
M  V30 12807 C 1223.49 -3.96719 1.51044 0
M  V30 12808 C 1221.39 -4.54307 3.78628 0
M  V30 12809 H 1220.32 -0.667119 0.35138 0
M  V30 12810 H 1222.97 -1.18496 1.40111 0
M  V30 12811 H 1221.36 -3.79714 1.12397 0
M  V30 12812 H 1222.53 -2.67369 3.75301 0
M  V30 12813 H 1220.85 -2.54317 3.29715 0
M  V30 12814 H 1223.44 -4.97779 1.95243 0
M  V30 12815 H 1223.79 -4.13748 0.460268 0
M  V30 12816 H 1224.32 -3.43468 2.00685 0
M  V30 12817 H 1221.06 -4.42484 4.8362 0
M  V30 12818 H 1220.58 -5.04717 3.24069 0
M  V30 12819 H 1222.26 -5.23255 3.80543 0
M  V30 12820 N 1222.39 -0.968567 -1.24324 0
M  V30 12821 C 1223.64 -0.630928 -1.9242 0
M  V30 12822 C 1223.96 0.834001 -1.75712 0
M  V30 12823 O 1223.22 1.61558 -1.10442 0
M  V30 12824 C 1223.52 -0.952762 -3.44467 0
M  V30 12825 C 1223.18 -2.40597 -3.81345 0
M  V30 12826 C 1221.85 -2.80316 -3.91122 0
M  V30 12827 C 1224.2 -3.34906 -3.99359 0
M  V30 12828 C 1221.53 -4.13383 -4.16331 0
M  V30 12829 C 1223.88 -4.67602 -4.26065 0
M  V30 12830 C 1222.54 -5.07097 -4.34061 0
M  V30 12831 H 1221.81 -0.230873 -0.704116 0
M  V30 12832 H 1224.46 -1.22022 -1.47591 0
M  V30 12833 H 1222.76 -0.281244 -3.90789 0
M  V30 12834 H 1224.46 -0.6699 -3.95365 0
M  V30 12835 H 1221.05 -2.088 -3.743 0
M  V30 12836 H 1225.23 -3.05404 -3.91206 0
M  V30 12837 H 1220.49 -4.43606 -4.20742 0
M  V30 12838 H 1224.66 -5.40646 -4.38948 0
M  V30 12839 H 1222.29 -6.10229 -4.53349 0
M  V30 12840 N 1223.87 1.39211 -0.738786 0
M  V30 12841 C 1225.14 1.9442 -0.214533 0
M  V30 12842 C 1225.52 1.67528 1.28443 0
M  V30 12843 O 1224.87 1.0056 2.05183 0
M  V30 12844 C 1225.08 3.44603 -0.552232 0
M  V30 12845 C 1226.43 4.21602 -0.503663 0
M  V30 12846 O 1227.45 3.52819 -0.489647 0
M  V30 12847 O 1226.31 5.44194 -0.50153 0
M  V30 12848 H 1223.41 0.826011 -0.0404247 0
M  V30 12849 H 1225.95 1.48689 -0.817902 0
M  V30 12850 H 1224.72 3.57626 -1.58806 0
M  V30 12851 H 1224.35 3.9752 0.0799096 0
M  V30 12852 N 1225.34 0.486708 1.49896 0
M  V30 12853 C 1226.58 -0.0613987 2.04308 0
M  V30 12854 C 1226.95 -1.3558 1.35948 0
M  V30 12855 O 1228.15 -1.98726 1.81001 0
M  V30 12856 C 1226.42 -0.225167 3.5669 0
M  V30 12857 S 1227.98 -0.729581 4.32692 0
M  V30 12858 H 1224.8 -0.00856238 0.710948 0
M  V30 12859 H 1227.4 0.657414 1.84115 0
M  V30 12860 H 1226.1 0.722447 4.03991 0
M  V30 12861 H 1225.63 -0.969639 3.81263 0
M  V30 12862 H 1227.65 -2.00082 4.54072 0
M  V30 12863 N 1226.82 -1.56058 0.219941 0
M  V30 12864 C 1228.07 -1.98554 -0.412808 0
M  V30 12865 C 1228.4 -1.10742 -1.5953 0
M  V30 12866 O 1227.68 -0.164757 -1.93801 0
M  V30 12867 C 1227.96 -3.4995 -0.848923 0
M  V30 12868 C 1227.81 -4.48535 0.337094 0
M  V30 12869 C 1229.13 -4.05703 -1.70567 0
M  V30 12870 H 1226.25 -0.721869 -0.148576 0
M  V30 12871 H 1228.89 -1.87356 0.315852 0
M  V30 12872 H 1227.04 -3.59624 -1.46979 0
M  V30 12873 H 1228.72 -4.50874 0.975216 0
M  V30 12874 H 1226.96 -4.22474 0.984798 0
M  V30 12875 H 1227.63 -5.51999 -0.0109665 0
M  V30 12876 H 1230.11 -3.98964 -1.18182 0
M  V30 12877 H 1228.98 -5.11955 -1.97972 0
M  V30 12878 H 1229.24 -3.52487 -2.66844 0
M  V30 12879 N 1228.3 0.053464 -1.57509 0
M  V30 12880 C 1229.53 0.760429 -1.92096 0
M  V30 12881 C 1229.94 1.70703 -0.815905 0
M  V30 12882 O 1229.28 1.82398 0.218332 0
M  V30 12883 C 1229.34 1.59255 -3.22301 0
M  V30 12884 C 1229.01 0.813355 -4.49704 0
M  V30 12885 C 1230.01 0.124402 -5.19751 0
M  V30 12886 C 1227.69 0.775106 -4.96284 0
M  V30 12887 C 1229.68 -0.59237 -6.34641 0
M  V30 12888 C 1227.37 0.0545728 -6.11076 0
M  V30 12889 C 1228.37 -0.627948 -6.80107 0
M  V30 12890 O 1228.06 -1.33683 -7.92707 0
M  V30 12891 H 1227.79 0.220287 -0.639101 0
M  V30 12892 H 1230.34 0.0224505 -2.05388 0
M  V30 12893 H 1228.57 2.37376 -3.05269 0
M  V30 12894 H 1230.26 2.17987 -3.42398 0
M  V30 12895 H 1231.03 0.145141 -4.84783 0
M  V30 12896 H 1226.91 1.29583 -4.42413 0
M  V30 12897 H 1230.45 -1.12565 -6.88458 0
M  V30 12898 H 1226.35 0.0318254 -6.45492 0
M  V30 12899 H 1227.12 -1.24799 -8.0893 0
M  V30 12900 N 1229.78 1.54207 0.325255 0
M  V30 12901 C 1231.01 1.76293 1.08298 0
M  V30 12902 C 1231.42 0.510722 1.81761 0
M  V30 12903 O 1230.78 -0.5185 1.7498 0
M  V30 12904 C 1230.83 2.95498 2.08238 0
M  V30 12905 O 1230.55 4.15877 1.37759 0
M  V30 12906 C 1232.05 3.29781 2.96242 0
M  V30 12907 H 1229.27 0.588576 0.322209 0
M  V30 12908 H 1231.82 2.0109 0.371896 0
M  V30 12909 H 1229.97 2.72979 2.74884 0
M  V30 12910 H 1230.39 4.82918 2.04672 0
M  V30 12911 H 1231.86 4.16495 3.62265 0
M  V30 12912 H 1232.34 2.46874 3.63249 0
M  V30 12913 H 1232.94 3.54372 2.3516 0
M  V30 12914 N 1231.26 -0.58723 1.46251 0
M  V30 12915 C 1232.5 -1.3476 1.51551 0
M  V30 12916 C 1232.84 -1.93499 0.16483 0
M  V30 12917 O 1232.11 -1.7622 -0.823207 0
M  V30 12918 C 1232.39 -2.48033 2.61059 0
M  V30 12919 C 1232.25 -1.94358 4.05642 0
M  V30 12920 C 1233.57 -3.50096 2.66685 0
M  V30 12921 H 1230.69 -0.48863 0.551733 0
M  V30 12922 H 1233.33 -0.660097 1.78165 0
M  V30 12923 H 1231.48 -3.06679 2.38496 0
M  V30 12924 H 1233.15 -1.40204 4.39478 0
M  V30 12925 H 1231.39 -1.25217 4.15335 0
M  V30 12926 H 1232.06 -2.76105 4.77986 0
M  V30 12927 H 1234.54 -3.01324 2.86955 0
M  V30 12928 H 1233.42 -4.26817 3.45135 0
M  V30 12929 H 1233.68 -4.07032 1.7256 0
M  V30 12930 N 1232.74 -1.33881 -0.831482 0
M  V30 12931 C 1233.67 -1.20587 -1.94914 0
M  V30 12932 C 1234.68 -0.135026 -1.62239 0
M  V30 12933 O 1235.87 -0.386116 -1.74274 0
M  V30 12934 C 1232.97 -0.828712 -3.28612 0
M  V30 12935 C 1232.14 -1.99275 -3.89369 0
M  V30 12936 C 1231.2 -1.59537 -5.01432 0
M  V30 12937 O 1230.23 -2.31076 -5.20185 0
M  V30 12938 N 1231.43 -0.5046 -5.78303 0
M  V30 12939 H 1234.19 -2.16869 -2.06852 0
M  V30 12940 H 1231.76 -1.26723 -1.00761 0
M  V30 12941 H 1233.75 -0.544827 -4.01016 0
M  V30 12942 H 1232.32 0.0436534 -3.1257 0
M  V30 12943 H 1231.54 -2.44185 -3.09463 0
M  V30 12944 H 1232.83 -2.77145 -4.26694 0
M  V30 12945 H 1232.22 0.0903105 -5.65628 0
M  V30 12946 H 1230.78 -0.280415 -6.51197 0
M  V30 12947 N 1234.21 1.05064 -1.1747 0
M  V30 12948 C 1235.44 1.82299 -0.98903 0
M  V30 12949 C 1235.86 1.82441 0.457907 0
M  V30 12950 O 1235.22 1.23433 1.32793 0
M  V30 12951 C 1235.27 3.26239 -1.53624 0
M  V30 12952 O 1234.37 4.05507 -0.750857 0
M  V30 12953 H 1233.71 0.563601 -0.35107 0
M  V30 12954 H 1236.24 1.32386 -1.55997 0
M  V30 12955 H 1236.25 3.77038 -1.55906 0
M  V30 12956 H 1234.93 3.25451 -2.58949 0
M  V30 12957 H 1233.51 3.64227 -0.799548 0
M  V30 12958 N 1235.69 0.975146 1.23809 0
M  V30 12959 C 1236.97 0.557725 1.8748 0
M  V30 12960 C 1237.35 -0.965164 1.87744 0
M  V30 12961 O 1236.7 -1.83966 1.35531 0
M  V30 12962 C 1236.91 1.15777 3.29236 0
M  V30 12963 C 1238.25 1.24726 4.05868 0
M  V30 12964 O 1239.28 1.11084 3.38436 0
M  V30 12965 O 1238.14 1.46373 5.26533 0
M  V30 12966 H 1235.23 0.187045 0.80557 0
M  V30 12967 H 1237.78 1.06989 1.31725 0
M  V30 12968 H 1236.55 2.20023 3.23583 0
M  V30 12969 H 1236.17 0.630103 3.92575 0
M  V30 12970 N 1237.17 -1.38817 0.746158 0
M  V30 12971 C 1238.42 -2.00577 0.299458 0
M  V30 12972 C 1238.75 -1.59087 -1.11378 0
M  V30 12973 O 1238.02 -0.824932 -1.7614 0
M  V30 12974 C 1238.31 -3.57713 0.413932 0
M  V30 12975 C 1238.16 -4.09189 1.86774 0
M  V30 12976 C 1239.48 -4.39659 -0.197082 0
M  V30 12977 H 1236.6 -0.728702 0.110285 0
M  V30 12978 H 1239.24 -1.64866 0.944408 0
M  V30 12979 H 1237.39 -3.88265 -0.135155 0
M  V30 12980 H 1239.06 -3.89311 2.47456 0
M  V30 12981 H 1237.3 -3.62333 2.38532 0
M  V30 12982 H 1237.98 -5.18305 1.89904 0
M  V30 12983 H 1240.45 -4.15216 0.271121 0
M  V30 12984 H 1239.33 -5.48832 -0.0867011 0
M  V30 12985 H 1239.59 -4.23028 -1.2845 0
M  V30 12986 N 1238.65 -0.49465 -1.49636 0
M  V30 12987 C 1239.89 0.0442152 -2.03352 0
M  V30 12988 C 1240.25 1.35275 -1.36815 0
M  V30 12989 O 1239.54 1.85158 -0.492671 0
M  V30 12990 C 1239.74 0.259743 -3.56455 0
M  V30 12991 C 1239.56 -1.02635 -4.37831 0
M  V30 12992 C 1238.33 -1.57636 -4.80082 0
M  V30 12993 C 1240.53 -1.92797 -4.76795 0
M  V30 12994 N 1238.51 -2.80902 -5.45864 0
M  V30 12995 C 1239.89 -3.00644 -5.4223 0
M  V30 12996 C 1241.94 -1.93552 -4.5874 0
M  V30 12997 C 1240.64 -4.09265 -5.91519 0
M  V30 12998 C 1242.67 -3.01144 -5.08986 0
M  V30 12999 C 1242.03 -4.07709 -5.74415 0
M  V30 13000 H 1238.13 -0.0244415 -0.781618 0
M  V30 13001 H 1240.71 -0.668098 -1.82878 0
M  V30 13002 H 1238.89 0.941108 -3.76826 0
M  V30 13003 H 1240.62 0.795048 -3.96814 0
M  V30 13004 H 1237.37 -1.12236 -4.60109 0
M  V30 13005 H 1237.8 -3.43565 -5.83345 0
M  V30 13006 H 1242.44 -1.12473 -4.07566 0
M  V30 13007 H 1240.16 -4.91146 -6.41717 0
M  V30 13008 H 1243.74 -3.02739 -4.9683 0
M  V30 13009 H 1242.62 -4.89591 -6.12593 0
M  V30 13010 N 1240.13 1.55939 -0.228214 0
M  V30 13011 C 1241.35 2.0332 0.409364 0
M  V30 13012 C 1241.78 1.10683 1.52088 0
M  V30 13013 O 1241.13 0.0962484 1.81044 0
M  V30 13014 C 1241.18 3.48877 0.911981 0
M  V30 13015 O 1240.29 3.59378 2.02289 0
M  V30 13016 H 1239.63 0.657625 0.0917909 0
M  V30 13017 H 1242.16 2.01605 -0.348802 0
M  V30 13018 H 1242.17 3.89331 1.22007 0
M  V30 13019 H 1240.84 4.15783 0.0984902 0
M  V30 13020 H 1239.42 3.30815 1.72093 0
M  V30 13021 N 1241.6 -0.0451101 1.57535 0
M  V30 13022 C 1242.83 -0.750231 1.92497 0
M  V30 13023 C 1243.24 -1.70268 0.824946 0
M  V30 13024 O 1242.59 -1.82511 -0.208656 0
M  V30 13025 C 1242.65 -1.57543 3.23141 0
M  V30 13026 C 1242.31 -0.789495 4.50129 0
M  V30 13027 C 1243.31 -0.0968367 5.1981 0
M  V30 13028 C 1240.99 -0.748776 4.96688 0
M  V30 13029 C 1242.99 0.626018 6.34318 0
M  V30 13030 C 1240.67 -0.0221652 6.11096 0
M  V30 13031 C 1241.67 0.664006 6.79765 0
M  V30 13032 O 1241.36 1.37885 7.91987 0
M  V30 13033 H 1241.09 -0.216895 0.64026 0
M  V30 13034 H 1243.65 -0.011558 2.05397 0
M  V30 13035 H 1241.88 -2.35754 3.06524 0
M  V30 13036 H 1243.57 -2.16168 3.4355 0
M  V30 13037 H 1244.33 -0.119429 4.84853 0
M  V30 13038 H 1240.21 -1.27235 4.43094 0
M  V30 13039 H 1243.75 1.16215 6.87852 0
M  V30 13040 H 1239.65 0.00240707 6.455 0
M  V30 13041 H 1240.42 1.29087 8.08257 0
M  V30 13042 N 1243.08 -1.54377 -0.317073 0
M  V30 13043 C 1244.33 -1.72551 -1.05216 0
M  V30 13044 C 1244.65 -0.5055 -1.88334 0
M  V30 13045 O 1243.92 0.480439 -1.89917 0
M  V30 13046 H 1242.5 -0.636222 -0.391447 0
M  V30 13047 H 1245.16 -1.91696 -0.35194 0
M  V30 13048 H 1244.26 -2.60791 -1.71448 0
M  V30 13049 N 1244.56 0.579466 -1.4656 0
M  V30 13050 C 1245.81 1.33379 -1.51304 0
M  V30 13051 C 1246.12 1.94855 -0.170507 0
M  V30 13052 O 1247.33 2.71331 -0.0957704 0
M  V30 13053 C 1245.78 2.41748 -2.66619 0
M  V30 13054 C 1245.39 1.8656 -4.07307 0
M  V30 13055 C 1247.14 3.18502 -2.80636 0
M  V30 13056 C 1245.04 2.92578 -5.13957 0
M  V30 13057 H 1243.97 0.501422 -0.56311 0
M  V30 13058 H 1246.62 0.618025 -1.72779 0
M  V30 13059 H 1245.01 3.16138 -2.3848 0
M  V30 13060 H 1246.18 1.18692 -4.45252 0
M  V30 13061 H 1244.5 1.22464 -3.97984 0
M  V30 13062 H 1247.09 3.9763 -3.57483 0
M  V30 13063 H 1247.44 3.71295 -1.8827 0
M  V30 13064 H 1247.97 2.51219 -3.08437 0
M  V30 13065 H 1244.71 2.44668 -6.08126 0
M  V30 13066 H 1244.23 3.58926 -4.80554 0
M  V30 13067 H 1245.91 3.56471 -5.39942 0
M  V30 13068 N 1246.04 1.3432 0.824371 0
M  V30 13069 C 1246.97 1.2842 1.95014 0
M  V30 13070 C 1247.95 0.161925 1.69328 0
M  V30 13071 O 1249.13 0.354052 1.90945 0
M  V30 13072 C 1246.26 1.03741 3.31444 0
M  V30 13073 C 1245.22 2.12419 3.71567 0
M  V30 13074 C 1244.54 1.72931 5.05963 0
M  V30 13075 C 1245.84 3.54235 3.83817 0
M  V30 13076 H 1247.54 2.22614 2.00209 0
M  V30 13077 H 1245.08 1.07165 0.961856 0
M  V30 13078 H 1247.04 0.982586 4.09784 0
M  V30 13079 H 1245.76 0.0598892 3.26545 0
M  V30 13080 H 1244.42 2.16968 2.955 0
M  V30 13081 H 1244.07 0.738433 4.9755 0
M  V30 13082 H 1243.77 2.45668 5.3378 0
M  V30 13083 H 1245.29 1.68941 5.86763 0
M  V30 13084 H 1246.71 3.52106 4.52432 0
M  V30 13085 H 1245.1 4.25581 4.23085 0
M  V30 13086 H 1246.17 3.91682 2.85856 0
M  V30 13087 N 1247.52 -1.0444 1.18026 0
M  V30 13088 C 1248.45 -2.14297 0.927314 0
M  V30 13089 C 1249.43 -1.69575 -0.13357 0
M  V30 13090 O 1250.61 -1.94191 0.0182439 0
M  V30 13091 C 1247.74 -3.44397 0.448134 0
M  V30 13092 C 1246.7 -4.02723 1.44907 0
M  V30 13093 C 1246.02 -5.28257 0.827555 0
M  V30 13094 C 1247.32 -4.39331 2.82463 0
M  V30 13095 H 1249.02 -2.35715 1.84605 0
M  V30 13096 H 1246.56 -1.13281 0.889012 0
M  V30 13097 H 1248.52 -4.20606 0.258554 0
M  V30 13098 H 1247.24 -3.22654 -0.506159 0
M  V30 13099 H 1245.9 -3.28591 1.62552 0
M  V30 13100 H 1245.55 -5.02822 -0.13381 0
M  V30 13101 H 1245.25 -5.68242 1.49581 0
M  V30 13102 H 1246.77 -6.07147 0.64842 0
M  V30 13103 H 1248.18 -5.06543 2.68491 0
M  V30 13104 H 1246.58 -4.90355 3.45936 0
M  V30 13105 H 1247.65 -3.4933 3.36299 0
M  V30 13106 N 1248.99 -0.981699 -1.2329 0
M  V30 13107 C 1250.24 -0.661895 -1.92329 0
M  V30 13108 C 1250.6 0.79602 -1.75161 0
M  V30 13109 O 1249.89 1.56687 -1.10271 0
M  V30 13110 C 1250.08 -0.989244 -3.43437 0
M  V30 13111 C 1249.91 -2.47743 -3.75305 0
M  V30 13112 C 1248.68 -3.13963 -3.95924 0
M  V30 13113 C 1250.88 -3.45817 -3.80677 0
M  V30 13114 N 1248.86 -4.52374 -4.15008 0
M  V30 13115 C 1250.23 -4.6964 -4.04769 0
M  V30 13116 C 1252.29 -3.4028 -3.63475 0
M  V30 13117 C 1250.99 -5.88605 -4.13445 0
M  V30 13118 C 1253.02 -4.5861 -3.73405 0
M  V30 13119 C 1252.38 -5.81229 -3.97935 0
M  V30 13120 H 1248.48 -0.293289 -0.724918 0
M  V30 13121 H 1251.06 -1.25942 -1.48481 0
M  V30 13122 H 1249.23 -0.420398 -3.86118 0
M  V30 13123 H 1250.96 -0.626579 -3.9982 0
M  V30 13124 H 1247.72 -2.64456 -3.92887 0
M  V30 13125 H 1248.14 -5.24134 -4.28501 0
M  V30 13126 H 1252.79 -2.46504 -3.43505 0
M  V30 13127 H 1250.5 -6.82795 -4.32223 0
M  V30 13128 H 1254.09 -4.55903 -3.61447 0
M  V30 13129 H 1252.97 -6.71263 -4.05433 0
M  V30 13130 N 1250.47 1.3842 -0.753509 0
M  V30 13131 C 1251.38 2.34252 -0.127811 0
M  V30 13132 C 1252.4 1.59266 0.700743 0
M  V30 13133 O 1253.57 1.9146 0.624914 0
M  V30 13134 C 1250.64 3.38382 0.754886 0
M  V30 13135 C 1249.7 4.2921 -0.0880312 0
M  V30 13136 C 1248.93 5.28367 0.75263 0
M  V30 13137 O 1249.16 5.34537 1.99064 0
M  V30 13138 O 1248.09 6.01656 0.171475 0
M  V30 13139 H 1251.92 2.89454 -0.91925 0
M  V30 13140 H 1249.5 1.40265 -0.514404 0
M  V30 13141 H 1251.38 4.02141 1.25938 0
M  V30 13142 H 1250.06 2.85536 1.52482 0
M  V30 13143 H 1248.97 3.68611 -0.638468 0
M  V30 13144 H 1250.3 4.85311 -0.82062 0
M  V30 13145 N 1251.95 0.502579 1.49372 0
M  V30 13146 C 1253.2 -0.0432341 2.01654 0
M  V30 13147 C 1253.51 -1.379 1.38719 0
M  V30 13148 O 1254.72 -2.01159 1.82338 0
M  V30 13149 C 1253.17 -0.127509 3.59674 0
M  V30 13150 C 1252.78 1.20171 4.31582 0
M  V30 13151 C 1254.53 -0.623603 4.19895 0
M  V30 13152 C 1252.43 1.07951 5.81464 0
M  V30 13153 H 1251.36 -0.0199308 0.753737 0
M  V30 13154 H 1254.01 0.642237 1.71894 0
M  V30 13155 H 1252.4 -0.877465 3.86156 0
M  V30 13156 H 1253.57 1.96508 4.16799 0
M  V30 13157 H 1251.89 1.63136 3.83113 0
M  V30 13158 H 1254.48 -0.732562 5.29658 0
M  V30 13159 H 1254.83 -1.62282 3.83367 0
M  V30 13160 H 1255.36 0.0698641 3.97739 0
M  V30 13161 H 1252.1 2.05304 6.22519 0
M  V30 13162 H 1251.62 0.357051 5.98736 0
M  V30 13163 H 1253.3 0.758885 6.42534 0
M  V30 13164 N 1253.43 -1.55816 0.23648 0
M  V30 13165 C 1254.68 -1.98686 -0.391146 0
M  V30 13166 C 1255 -1.12443 -1.58703 0
M  V30 13167 O 1254.26 -0.172805 -1.94936 0
M  V30 13168 C 1254.56 -3.47039 -0.85434 0
M  V30 13169 C 1254.22 -4.50299 0.232651 0
M  V30 13170 C 1252.89 -4.78259 0.531218 0
M  V30 13171 C 1255.24 -5.1215 0.967027 0
M  V30 13172 C 1252.57 -5.65347 1.56842 0
M  V30 13173 C 1254.92 -6.00363 1.99367 0
M  V30 13174 C 1253.58 -6.2666 2.299 0
M  V30 13175 H 1252.85 -0.727045 -0.14313 0
M  V30 13176 H 1255.5 -1.88419 0.342125 0
M  V30 13177 H 1253.8 -3.54585 -1.66663 0
M  V30 13178 H 1255.5 -3.7759 -1.35005 0
M  V30 13179 H 1252.09 -4.28599 -0.0102014 0
M  V30 13180 H 1256.27 -4.90606 0.749609 0
M  V30 13181 H 1251.53 -5.83981 1.81043 0
M  V30 13182 H 1255.7 -6.47335 2.56769 0
M  V30 13183 H 1253.33 -6.93938 3.1041 0
M  V30 13184 N 1254.91 0.036755 -1.57557 0
M  V30 13185 C 1256.13 0.744813 -1.93565 0
M  V30 13186 C 1256.56 1.68508 -0.835863 0
M  V30 13187 O 1255.91 1.80091 0.208986 0
M  V30 13188 C 1255.96 1.48461 -3.28621 0
M  V30 13189 O 1255.07 2.59739 -3.20327 0
M  V30 13190 H 1254.41 0.200866 -0.632889 0
M  V30 13191 H 1256.94 -0.00547543 -2.04599 0
M  V30 13192 H 1256.95 1.85622 -3.63329 0
M  V30 13193 H 1255.62 0.794953 -4.08232 0
M  V30 13194 H 1254.2 2.25176 -2.97237 0
M  V30 13195 N 1256.39 1.54543 0.308881 0
M  V30 13196 C 1257.32 1.87947 1.38557 0
M  V30 13197 C 1258.3 0.737622 1.53275 0
M  V30 13198 O 1259.48 0.992664 1.66913 0
M  V30 13199 C 1256.61 2.11982 2.75102 0
M  V30 13200 C 1255.57 3.2783 2.75158 0
M  V30 13201 C 1254.89 3.37266 4.14917 0
M  V30 13202 C 1256.19 4.65129 2.37598 0
M  V30 13203 H 1257.89 2.78123 1.1085 0
M  V30 13204 H 1255.43 1.3382 0.531808 0
M  V30 13205 H 1257.38 2.33935 3.50503 0
M  V30 13206 H 1256.11 1.18569 3.04317 0
M  V30 13207 H 1254.77 3.05787 2.02212 0
M  V30 13208 H 1254.42 2.41384 4.41296 0
M  V30 13209 H 1254.12 4.15135 4.15857 0
M  V30 13210 H 1255.64 3.61471 4.92109 0
M  V30 13211 H 1257.05 4.86865 3.02714 0
M  V30 13212 H 1255.45 5.45653 2.49765 0
M  V30 13213 H 1256.52 4.6638 1.32731 0
M  V30 13214 N 1257.86 -0.571685 1.46866 0
M  V30 13215 C 1259.11 -1.32685 1.52444 0
M  V30 13216 C 1259.43 -1.94147 0.182225 0
M  V30 13217 O 1258.7 -1.79159 -0.792385 0
M  V30 13218 H 1257.28 -0.492679 0.561495 0
M  V30 13219 H 1259.94 -0.668694 1.8307 0
M  V30 13220 H 1259.04 -2.12788 2.28315 0
M  V30 13221 N 1259.34 -1.34755 -0.817236 0
M  V30 13222 C 1260.27 -1.29452 -1.94331 0
M  V30 13223 C 1261.25 -0.170902 -1.69239 0
M  V30 13224 O 1262.44 -0.364173 -1.90755 0
M  V30 13225 C 1259.57 -1.05497 -3.30889 0
M  V30 13226 C 1258.52 -2.14386 -3.70436 0
M  V30 13227 C 1257.85 -1.75612 -5.05039 0
M  V30 13228 C 1259.15 -3.56265 -3.81933 0
M  V30 13229 H 1260.84 -2.23672 -1.99025 0
M  V30 13230 H 1258.39 -1.07674 -0.956159 0
M  V30 13231 H 1260.34 -1.0043 -4.09257 0
M  V30 13232 H 1259.06 -0.0772059 -3.26509 0
M  V30 13233 H 1257.72 -2.18532 -2.94345 0
M  V30 13234 H 1257.37 -0.764809 -4.97152 0
M  V30 13235 H 1257.07 -2.48495 -5.3247 0
M  V30 13236 H 1258.6 -1.72051 -5.85859 0
M  V30 13237 H 1260.01 -3.545 -4.50558 0
M  V30 13238 H 1258.41 -4.27818 -4.20822 0
M  V30 13239 H 1259.48 -3.93192 -2.83775 0
M  V30 13240 N 1260.82 1.03812 -1.18578 0
M  V30 13241 C 1261.77 2.13994 -0.911563 0
M  V30 13242 C 1262.76 1.68907 0.129131 0
M  V30 13243 O 1263.97 1.7999 -0.0192557 0
M  V30 13244 H 1260.34 0.698996 -0.277324 0
M  V30 13245 H 1262.31 2.34318 -1.84763 0
M  V30 13246 C 1261.06 3.44689 -0.456591 0
M  V30 13247 H 1260.39 3.79793 -1.2489 0
M  V30 13248 H 1261.83 4.22911 -0.303738 0
M  V30 13249 C 1260.28 3.26568 0.827961 0
M  V30 13250 O 1260.81 3.54376 1.89158 0
M  V30 13251 N 1259.02 2.79893 0.781567 0
M  V30 13252 H 1258.57 2.57462 -0.0842145 0
M  V30 13253 H 1258.53 2.68148 1.64146 0
M  V30 13254 N 1262.3 0.988223 1.22768 0
M  V30 13255 C 1263.71 0.697281 1.7319 0
M  V30 13256 C 1264.06 -0.786111 1.79763 0
M  V30 13257 O 1263.18 -1.61465 1.44077 0
M  V30 13258 C 1263.78 1.25905 3.14537 0
M  V30 13259 C 1262.34 1.01759 3.62384 0
M  V30 13260 C 1261.49 1.38207 2.40404 0
M  V30 13261 H 1264.44 1.16114 1.08181 0
M  V30 13262 H 1264.46 0.635315 3.75159 0
M  V30 13263 H 1263.97 2.33869 3.09721 0
M  V30 13264 H 1262.07 -0.045627 3.72572 0
M  V30 13265 H 1262.18 1.67767 4.48766 0
M  V30 13266 H 1260.55 0.800607 2.4179 0
M  V30 13267 H 1261.33 2.47165 2.38253 0
M  V30 13268 N 1263.78 -1.38018 0.760839 0
M  V30 13269 C 1265.01 -2.03934 0.330804 0
M  V30 13270 C 1265.41 -1.57509 -1.04821 0
M  V30 13271 O 1264.76 -0.746718 -1.67839 0
M  V30 13272 C 1264.82 -3.58384 0.28303 0
M  V30 13273 C 1264.48 -4.27896 1.6048 0
M  V30 13274 C 1265.48 -4.52769 2.5553 0
M  V30 13275 C 1263.16 -4.65943 1.87624 0
M  V30 13276 C 1265.16 -5.14732 3.75938 0
M  V30 13277 C 1262.85 -5.27629 3.08304 0
M  V30 13278 C 1263.84 -5.51959 4.02281 0
M  V30 13279 O 1263.53 -6.12358 5.20838 0
M  V30 13280 H 1263.26 -0.661733 0.138148 0
M  V30 13281 H 1265.82 -1.77551 1.03271 0
M  V30 13282 H 1264.05 -3.83769 -0.47517 0
M  V30 13283 H 1265.74 -4.05727 -0.118464 0
M  V30 13284 H 1266.5 -4.23798 2.35839 0
M  V30 13285 H 1262.38 -4.46346 1.15308 0
M  V30 13286 H 1265.93 -5.33639 4.49305 0
M  V30 13287 H 1261.82 -5.56023 3.27886 0
M  V30 13288 H 1262.59 -6.30842 5.21517 0
M  V30 13289 N 1265.25 -0.510493 -1.49103 0
M  V30 13290 C 1266.66 -0.0650831 -1.86587 0
M  V30 13291 C 1267.02 1.35185 -1.42195 0
M  V30 13292 O 1266.14 2.0091 -0.804004 0
M  V30 13293 C 1266.74 -0.111333 -3.38617 0
M  V30 13294 C 1265.29 0.278782 -3.75366 0
M  V30 13295 C 1264.44 -0.479707 -2.73119 0
M  V30 13296 H 1267.39 -0.722784 -1.41285 0
M  V30 13297 H 1267.41 0.681706 -3.74343 0
M  V30 13298 H 1266.93 -1.14271 -3.70896 0
M  V30 13299 H 1265.03 1.31304 -3.48698 0
M  V30 13300 H 1265.14 -0.047271 -4.79077 0
M  V30 13301 H 1263.5 0.0716459 -2.54599 0
M  V30 13302 H 1264.29 -1.51135 -3.08242 0
M  V30 13303 N 1266.73 1.55688 -0.24474 0
M  V30 13304 C 1267.98 1.98498 0.379852 0
M  V30 13305 C 1268.3 1.13416 1.58625 0
M  V30 13306 O 1267.57 0.216456 1.947 0
M  V30 13307 H 1266.15 0.73312 0.143334 0
M  V30 13308 H 1268.81 1.91858 -0.343027 0
M  V30 13309 H 1267.91 3.04367 0.690463 0
M  V30 13310 N 1268.21 -0.0283989 1.57574 0
M  V30 13311 C 1269.46 -0.718121 1.88483 0
M  V30 13312 C 1269.77 -1.76485 0.843345 0
M  V30 13313 O 1270.98 -2.50721 1.04169 0
M  V30 13314 C 1269.43 -1.32832 3.3449 0
M  V30 13315 C 1269.04 -0.317905 4.46871 0
M  V30 13316 C 1270.79 -1.99788 3.74546 0
M  V30 13317 C 1268.69 -0.936489 5.83938 0
M  V30 13318 H 1267.62 -0.271969 0.703242 0
M  V30 13319 H 1270.27 0.0274862 1.83479 0
M  V30 13320 H 1268.66 -2.12366 3.34241 0
M  V30 13321 H 1269.83 0.450767 4.5859 0
M  V30 13322 H 1268.14 0.249605 4.15651 0
M  V30 13323 H 1270.74 -2.46923 4.74271 0
M  V30 13324 H 1271.08 -2.81633 3.06575 0
M  V30 13325 H 1271.62 -1.27029 3.76973 0
M  V30 13326 H 1268.36 -0.15744 6.55311 0
M  V30 13327 H 1267.88 -1.67499 5.75938 0
M  V30 13328 H 1269.56 -1.44363 6.30689 0
M  V30 13329 N 1269.69 -1.54705 -0.300681 0
M  V30 13330 C 1270.62 -1.88679 -1.37559 0
M  V30 13331 C 1271.6 -0.74574 -1.52881 0
M  V30 13332 O 1272.78 -1.0015 -1.66384 0
M  V30 13333 C 1269.91 -2.13438 -2.73974 0
M  V30 13334 C 1268.87 -3.29284 -2.73415 0
M  V30 13335 C 1268.19 -3.39462 -4.13122 0
M  V30 13336 C 1269.49 -4.66382 -2.35128 0
M  V30 13337 H 1271.19 -2.78707 -1.09373 0
M  V30 13338 H 1268.73 -1.341 -0.524704 0
M  V30 13339 H 1270.69 -2.35791 -3.49257 0
M  V30 13340 H 1269.41 -1.20181 -3.03684 0
M  V30 13341 H 1268.07 -3.06855 -2.00588 0
M  V30 13342 H 1267.72 -2.43721 -4.4001 0
M  V30 13343 H 1267.42 -4.17334 -4.1365 0
M  V30 13344 H 1268.94 -3.64075 -4.90185 0
M  V30 13345 H 1270.36 -4.88463 -3.00128 0
M  V30 13346 H 1268.75 -5.4697 -2.46867 0
M  V30 13347 H 1269.82 -4.67078 -1.30256 0
M  V30 13348 N 1271.17 0.563888 -1.47167 0
M  V30 13349 C 1272.41 1.32331 -1.53676 0
M  V30 13350 C 1272.75 1.93213 -0.195593 0
M  V30 13351 O 1272.02 1.77508 0.795068 0
M  V30 13352 C 1272.3 2.43848 -2.64972 0
M  V30 13353 C 1272.16 1.8788 -4.08682 0
M  V30 13354 C 1273.48 3.45809 -2.72221 0
M  V30 13355 H 1270.59 0.479791 -0.559437 0
M  V30 13356 H 1273.24 0.631669 -1.79192 0
M  V30 13357 H 1271.39 3.02846 -2.43345 0
M  V30 13358 H 1273.06 1.33195 -4.41652 0
M  V30 13359 H 1271.3 1.18593 -4.17275 0
M  V30 13360 H 1271.97 2.68465 -4.82318 0
M  V30 13361 H 1274.45 2.9672 -2.91713 0
M  V30 13362 H 1273.32 4.21272 -3.51882 0
M  V30 13363 H 1273.59 4.04236 -1.79014 0
M  V30 13364 N 1272.64 1.35187 0.810078 0
M  V30 13365 C 1273.59 1.27848 1.94313 0
M  V30 13366 C 1274.59 0.174081 1.68503 0
M  V30 13367 O 1275.79 0.339848 1.76763 0
M  V30 13368 H 1272.17 0.397504 0.638353 0
M  V30 13369 H 1274.14 2.23579 1.97623 0
M  V30 13370 C 1272.89 1.06382 3.31026 0
M  V30 13371 H 1272.21 1.90601 3.51441 0
M  V30 13372 H 1273.65 1.05287 4.1072 0
M  V30 13373 C 1272.11 -0.232462 3.36097 0
M  V30 13374 O 1272.64 -1.22946 3.82423 0
M  V30 13375 N 1270.85 -0.270028 2.89343 0
M  V30 13376 H 1270.39 0.541891 2.51836 0
M  V30 13377 H 1270.35 -1.13708 2.93117 0
M  V30 13378 N 1274.12 -1.03182 1.19127 0
M  V30 13379 C 1275.35 -1.80703 1.01791 0
M  V30 13380 C 1275.77 -1.83147 -0.428824 0
M  V30 13381 O 1275.13 -1.2553 -1.30812 0
M  V30 13382 C 1275.18 -3.23754 1.58794 0
M  V30 13383 O 1274.28 -4.04261 0.815274 0
M  V30 13384 H 1273.62 -0.557944 0.359992 0
M  V30 13385 H 1276.15 -1.29887 1.58084 0
M  V30 13386 H 1276.16 -3.7451 1.61884 0
M  V30 13387 H 1274.84 -3.2129 2.64094 0
M  V30 13388 H 1273.42 -3.62909 0.857392 0
M  V30 13389 N 1275.6 -0.99472 -1.22242 0
M  V30 13390 C 1276.55 -0.546504 -2.24236 0
M  V30 13391 C 1277.52 0.422101 -1.60647 0
M  V30 13392 O 1278.7 0.326452 -1.87987 0
M  V30 13393 C 1275.84 0.130909 -3.44852 0
M  V30 13394 C 1274.96 -0.879653 -4.22949 0
M  V30 13395 C 1274.09 -0.175569 -5.3091 0
M  V30 13396 C 1273.13 -1.17438 -6.00729 0
M  V30 13397 N 1272.27 -0.498474 -7.00328 0
M  V30 13398 H 1277.11 -1.42099 -2.61939 0
M  V30 13399 H 1274.64 -0.711755 -1.28734 0
M  V30 13400 H 1276.6 0.540596 -4.13683 0
M  V30 13401 H 1275.23 0.96917 -3.07907 0
M  V30 13402 H 1274.28 -1.40765 -3.53397 0
M  V30 13403 H 1275.6 -1.64017 -4.71062 0
M  V30 13404 H 1274.75 0.290756 -6.06003 0
M  V30 13405 H 1273.49 0.617438 -4.83776 0
M  V30 13406 H 1272.49 -1.65131 -5.24416 0
M  V30 13407 H 1273.72 -1.96829 -6.4995 0
M  V30 13408 H 1271.66 0.275063 -6.55423 0
M  V30 13409 H 1271.58 -1.19741 -7.46457 0
M  V30 13410 H 1272.85 -0.0550119 -7.79481 0
M  V30 13411 N 1277.08 1.37613 -0.768148 0
M  V30 13412 C 1278.33 1.99779 -0.330841 0
M  V30 13413 C 1278.65 1.60978 1.09162 0
M  V30 13414 O 1277.91 0.845778 1.7648 0
M  V30 13415 C 1278.21 3.54952 -0.417608 0
M  V30 13416 C 1277.87 4.13509 -1.7978 0
M  V30 13417 C 1276.54 4.29216 -2.17549 0
M  V30 13418 C 1278.89 4.45662 -2.7025 0
M  V30 13419 C 1276.22 4.74376 -3.45231 0
M  V30 13420 C 1278.57 4.92245 -3.97338 0
M  V30 13421 C 1277.23 5.06157 -4.35157 0
M  V30 13422 H 1276.5 0.731044 -0.121063 0
M  V30 13423 H 1279.15 1.64437 -0.98147 0
M  V30 13424 H 1277.45 3.90519 0.316567 0
M  V30 13425 H 1279.15 4.00954 -0.0606037 0
M  V30 13426 H 1275.74 4.01709 -1.49425 0
M  V30 13427 H 1279.92 4.33116 -2.42332 0
M  V30 13428 H 1275.18 4.83333 -3.74431 0
M  V30 13429 H 1279.35 5.16091 -4.67572 0
M  V30 13430 H 1276.98 5.4091 -5.34154 0
M  V30 13431 N 1278.56 0.518393 1.4883 0
M  V30 13432 C 1279.79 -0.0161765 2.06594 0
M  V30 13433 C 1280.19 -1.29771 1.37681 0
M  V30 13434 O 1279.54 -1.77991 0.454421 0
M  V30 13435 C 1279.6 -0.322505 3.5805 0
M  V30 13436 C 1279.26 0.863848 4.48761 0
M  V30 13437 C 1280.26 1.75912 4.89235 0
M  V30 13438 C 1277.95 1.06757 4.90824 0
M  V30 13439 C 1279.94 2.84211 5.70528 0
M  V30 13440 C 1277.63 2.15372 5.7189 0
M  V30 13441 C 1278.62 3.03932 6.11649 0
M  V30 13442 O 1278.31 4.1067 6.9109 0
M  V30 13443 H 1278.04 0.0251212 0.675533 0
M  V30 13444 H 1280.6 0.720052 1.92365 0
M  V30 13445 H 1278.83 -1.11256 3.7035 0
M  V30 13446 H 1280.52 -0.797764 3.97983 0
M  V30 13447 H 1281.28 1.61362 4.5737 0
M  V30 13448 H 1277.16 0.387566 4.59368 0
M  V30 13449 H 1280.71 3.53364 6.01481 0
M  V30 13450 H 1276.6 2.2991 6.03168 0
M  V30 13451 H 1277.37 4.08237 7.09426 0
M  V30 13452 N 1280.03 -1.55556 0.252993 0
M  V30 13453 C 1280.98 -2.21634 -0.643979 0
M  V30 13454 C 1281.95 -1.18226 -1.1667 0
M  V30 13455 O 1283.14 -1.46694 -1.22006 0
M  V30 13456 C 1280.28 -2.92429 -1.83246 0
M  V30 13457 C 1279.39 -4.10506 -1.34569 0
M  V30 13458 C 1278.52 -4.69001 -2.49421 0
M  V30 13459 C 1277.56 -5.79315 -1.97636 0
M  V30 13460 N 1276.7 -6.31967 -3.05878 0
M  V30 13461 H 1281.54 -2.97909 -0.0738178 0
M  V30 13462 H 1279.08 -1.47079 -0.0246728 0
M  V30 13463 H 1281.04 -3.31678 -2.53072 0
M  V30 13464 H 1279.67 -2.18617 -2.375 0
M  V30 13465 H 1278.72 -3.76529 -0.541268 0
M  V30 13466 H 1280.03 -4.90125 -0.92622 0
M  V30 13467 H 1279.18 -5.10855 -3.27279 0
M  V30 13468 H 1277.92 -3.88612 -2.94673 0
M  V30 13469 H 1276.93 -5.36933 -1.18251 0
M  V30 13470 H 1278.15 -6.6156 -1.53347 0
M  V30 13471 H 1276.1 -5.5448 -3.50553 0
M  V30 13472 H 1276.02 -7.06797 -2.68281 0
M  V30 13473 H 1277.28 -6.7848 -3.83777 0
M  V30 13474 N 1281.51 0.0200419 -1.57587 0
M  V30 13475 C 1282.44 1.01715 -2.10181 0
M  V30 13476 C 1283.42 1.37136 -1.00636 0
M  V30 13477 O 1284.61 1.45862 -1.2821 0
M  V30 13478 C 1281.74 2.31531 -2.58865 0
M  V30 13479 C 1280.69 2.10327 -3.72755 0
M  V30 13480 C 1280.02 3.45981 -4.07678 0
M  V30 13481 C 1281.32 1.4821 -5.0083 0
M  V30 13482 H 1283.01 0.579307 -2.93742 0
M  V30 13483 H 1280.56 0.277211 -1.41307 0
M  V30 13484 H 1282.51 3.01623 -2.94281 0
M  V30 13485 H 1281.24 2.77392 -1.72399 0
M  V30 13486 H 1279.89 1.42665 -3.37701 0
M  V30 13487 H 1279.54 3.89508 -3.18265 0
M  V30 13488 H 1279.24 3.32616 -4.84397 0
M  V30 13489 H 1280.77 4.17421 -4.45637 0
M  V30 13490 H 1282.18 2.08232 -5.34146 0
M  V30 13491 H 1280.58 1.45393 -5.82221 0
M  V30 13492 H 1281.65 0.448942 -4.82817 0
M  V30 13493 N 1282.99 1.54862 0.292472 0
M  V30 13494 C 1284.24 1.74807 1.02813 0
M  V30 13495 C 1284.57 0.536935 1.8663 0
M  V30 13496 O 1283.84 -0.465854 1.88839 0
M  V30 13497 C 1284.13 3.04202 1.927 0
M  V30 13498 C 1283.98 4.35631 1.12006 0
M  V30 13499 C 1285.3 3.29514 2.91734 0
M  V30 13500 H 1282.42 0.636015 0.372362 0
M  V30 13501 H 1285.06 1.87583 0.302069 0
M  V30 13502 H 1283.21 2.9344 2.54608 0
M  V30 13503 H 1284.88 4.58323 0.52319 0
M  V30 13504 H 1283.13 4.31733 0.42298 0
M  V30 13505 H 1283.8 5.22454 1.78172 0
M  V30 13506 H 1286.27 3.39941 2.39957 0
M  V30 13507 H 1285.15 4.21352 3.51786 0
M  V30 13508 H 1285.41 2.48216 3.65843 0
M  V30 13509 N 1284.47 -0.556076 1.47464 0
M  V30 13510 C 1285.42 -1.66304 1.60036 0
M  V30 13511 C 1286.39 -1.60074 0.443348 0
M  V30 13512 O 1287.57 -1.7889 0.663545 0
M  V30 13513 C 1284.71 -3.04624 1.62167 0
M  V30 13514 C 1283.82 -3.21283 2.88793 0
M  V30 13515 C 1282.96 -4.50008 2.82252 0
M  V30 13516 C 1282 -4.60103 4.03698 0
M  V30 13517 N 1281.13 -5.80184 3.95387 0
M  V30 13518 H 1285.97 -1.54897 2.5458 0
M  V30 13519 H 1283.51 -0.754533 1.26274 0
M  V30 13520 H 1285.47 -3.84721 1.61386 0
M  V30 13521 H 1284.1 -3.14865 0.711348 0
M  V30 13522 H 1283.15 -2.34611 2.99436 0
M  V30 13523 H 1284.46 -3.24607 3.78724 0
M  V30 13524 H 1283.62 -5.38366 2.79726 0
M  V30 13525 H 1282.36 -4.49165 1.90005 0
M  V30 13526 H 1281.36 -3.70157 4.06527 0
M  V30 13527 H 1282.59 -4.62704 4.97073 0
M  V30 13528 H 1280.53 -5.80288 3.05944 0
M  V30 13529 H 1280.45 -5.8489 4.78998 0
M  V30 13530 H 1281.72 -6.709 3.96879 0
M  V30 13531 N 1285.95 -1.35615 -0.802897 0
M  V30 13532 C 1287.22 -1.19655 -1.54732 0
M  V30 13533 C 1287.6 0.222827 -2.09921 0
M  V30 13534 O 1286.95 1.2268 -1.92774 0
M  V30 13535 C 1287.16 -2.26761 -2.65293 0
M  V30 13536 C 1288.51 -2.62754 -3.33535 0
M  V30 13537 O 1289.53 -2.25702 -2.75567 0
M  V30 13538 O 1288.39 -3.26476 -4.38264 0
M  V30 13539 H 1285.49 -0.465079 -0.683835 0
M  V30 13540 H 1288.03 -1.47307 -0.84254 0
M  V30 13541 H 1286.81 -3.21946 -2.22411 0
M  V30 13542 H 1286.43 -2.00399 -3.43404 0
M  V30 13543 N 1287.43 1.02549 -1.19673 0
M  V30 13544 C 1288.67 1.75656 -0.999463 0
M  V30 13545 C 1288.99 1.89238 0.470517 0
M  V30 13546 O 1288.26 1.42843 1.34062 0
M  V30 13547 H 1286.84 0.650732 -0.366821 0
M  V30 13548 H 1289.51 1.23684 -1.50627 0
M  V30 13549 H 1288.6 2.76353 -1.45035 0
M  V30 13550 N 1288.9 1.00119 1.21713 0
M  V30 13551 C 1290.13 0.699416 1.94401 0
M  V30 13552 C 1290.54 -0.741376 1.7407 0
M  V30 13553 O 1289.88 -1.51286 1.04203 0
M  V30 13554 C 1289.95 0.935875 3.47105 0
M  V30 13555 C 1289.61 2.36276 3.91181 0
M  V30 13556 C 1290.61 3.34276 3.9819 0
M  V30 13557 C 1288.29 2.6994 4.23601 0
M  V30 13558 C 1290.29 4.6401 4.37005 0
M  V30 13559 C 1287.97 3.99891 4.62094 0
M  V30 13560 C 1288.97 4.96737 4.68766 0
M  V30 13561 O 1288.66 6.24364 5.06384 0
M  V30 13562 H 1288.39 0.257233 0.625146 0
M  V30 13563 H 1290.95 1.34098 1.55585 0
M  V30 13564 H 1289.18 0.237133 3.85972 0
M  V30 13565 H 1290.86 0.628075 4.01011 0
M  V30 13566 H 1291.63 3.09603 3.73324 0
M  V30 13567 H 1287.51 1.95257 4.17607 0
M  V30 13568 H 1291.05 5.39601 4.42128 0
M  V30 13569 H 1286.95 4.2435 4.86412 0
M  V30 13570 H 1287.72 6.28424 5.24429 0
M  V30 13571 N 1290.38 -1.37203 0.775435 0
M  V30 13572 C 1291.31 -2.28873 0.122374 0
M  V30 13573 C 1292.33 -1.48811 -0.660239 0
M  V30 13574 O 1293.52 -1.7142 -0.497724 0
M  V30 13575 C 1290.62 -3.28062 -0.850212 0
M  V30 13576 C 1289.79 -4.37234 -0.120633 0
M  V30 13577 C 1288.85 -5.16472 -1.00712 0
M  V30 13578 O 1287.87 -5.6726 -0.469528 0
M  V30 13579 N 1289.08 -5.31556 -2.33299 0
M  V30 13580 H 1291.84 -2.85559 0.909741 0
M  V30 13581 H 1289.4 -1.49219 0.628107 0
M  V30 13582 H 1291.39 -3.77956 -1.44678 0
M  V30 13583 H 1289.96 -2.72118 -1.53853 0
M  V30 13584 H 1289.18 -3.88688 0.656879 0
M  V30 13585 H 1290.47 -5.07354 0.383358 0
M  V30 13586 H 1289.87 -4.91883 -2.79406 0
M  V30 13587 H 1288.43 -5.84745 -2.87953 0
M  V30 13588 N 1291.86 -0.526279 -1.48553 0
M  V30 13589 C 1292.79 0.2857 -2.26404 0
M  V30 13590 C 1293.77 0.948104 -1.32098 0
M  V30 13591 O 1294.95 0.973228 -1.61433 0
M  V30 13592 C 1292.08 1.40432 -3.08215 0
M  V30 13593 C 1291.13 0.853705 -4.17869 0
M  V30 13594 S 1291.96 -0.275518 -5.34791 0
M  V30 13595 C 1293.12 0.845667 -6.20161 0
M  V30 13596 H 1293.35 -0.375004 -2.94925 0
M  V30 13597 H 1290.88 -0.311999 -1.51215 0
M  V30 13598 H 1292.84 2.04513 -3.55928 0
M  V30 13599 H 1291.5 2.03673 -2.39115 0
M  V30 13600 H 1290.69 1.69278 -4.74722 0
M  V30 13601 H 1290.3 0.289659 -3.72877 0
M  V30 13602 H 1292.59 1.74517 -6.54637 0
M  V30 13603 H 1293.53 0.315189 -7.07398 0
M  V30 13604 H 1293.94 1.1244 -5.53188 0
M  V30 13605 N 1293.34 1.5542 -0.261239 0
M  V30 13606 C 1294.3 2.20683 0.619011 0
M  V30 13607 C 1295.3 1.18042 1.09192 0
M  V30 13608 O 1296.49 1.43035 0.99432 0
M  V30 13609 C 1293.62 2.86179 1.85242 0
M  V30 13610 H 1294.82 2.99859 0.0493924 0
M  V30 13611 H 1292.37 1.56296 -0.0117687 0
M  V30 13612 H 1293.1 2.10978 2.4629 0
M  V30 13613 H 1292.89 3.61381 1.52138 0
M  V30 13614 H 1294.38 3.36081 2.47869 0
M  V30 13615 N 1294.82 -0.0116844 1.57596 0
M  V30 13616 C 1295.75 -1.03477 2.04512 0
M  V30 13617 C 1296.76 -1.31414 0.960945 0
M  V30 13618 O 1297.95 -1.28596 1.23796 0
M  V30 13619 C 1295.05 -2.37234 2.42019 0
M  V30 13620 C 1294.22 -2.28405 3.73028 0
M  V30 13621 C 1293.28 -3.44753 3.97532 0
M  V30 13622 O 1292.31 -3.23465 4.68358 0
M  V30 13623 N 1293.51 -4.67212 3.44518 0
M  V30 13624 H 1296.27 -0.634758 2.92901 0
M  V30 13625 H 1293.84 -0.1993 1.60669 0
M  V30 13626 H 1295.83 -3.13821 2.55535 0
M  V30 13627 H 1294.4 -2.69018 1.5921 0
M  V30 13628 H 1293.62 -1.36804 3.697 0
M  V30 13629 H 1294.91 -2.19666 4.58938 0
M  V30 13630 H 1294.3 -4.87407 2.87142 0
M  V30 13631 H 1292.86 -5.41105 3.63384 0
M  V30 13632 N 1296.29 -1.55015 -0.284256 0
M  V30 13633 C 1297.7 -1.65915 -0.856104 0
M  V30 13634 C 1298.06 -0.578758 -1.8747 0
M  V30 13635 O 1297.18 0.281733 -2.14558 0
M  V30 13636 C 1297.78 -3.0077 -1.55957 0
M  V30 13637 C 1296.33 -3.13735 -2.0796 0
M  V30 13638 C 1295.48 -2.61669 -0.917849 0
M  V30 13639 H 1298.43 -1.58583 -0.0608587 0
M  V30 13640 H 1298.45 -2.9313 -2.42601 0
M  V30 13641 H 1297.97 -3.79382 -0.81798 0
M  V30 13642 H 1296.07 -2.39875 -2.85115 0
M  V30 13643 H 1296.18 -4.20138 -2.30263 0
M  V30 13644 H 1294.54 -2.18542 -1.3081 0
M  V30 13645 H 1295.33 -3.42774 -0.189946 0
M  V30 13646 N 1297.77 0.548248 -1.47757 0
M  V30 13647 C 1298.73 1.63666 -1.60456 0
M  V30 13648 C 1299.73 1.53499 -0.479028 0
M  V30 13649 O 1300.92 1.57497 -0.744342 0
M  V30 13650 C 1298.06 3.03239 -1.55754 0
M  V30 13651 H 1299.25 1.53752 -2.57488 0
M  V30 13652 H 1296.8 0.768881 -1.36081 0
M  V30 13653 H 1297.54 3.18677 -0.601303 0
M  V30 13654 H 1297.32 3.12027 -2.37448 0
M  V30 13655 H 1298.81 3.82406 -1.67797 0
M  V30 13656 N 1299.25 1.36039 0.795694 0
M  V30 13657 C 1300.5 1.29919 1.5533 0
M  V30 13658 C 1300.82 -0.123325 1.94109 0
M  V30 13659 O 1300.08 -1.09115 1.62457 0
M  V30 13660 C 1300.38 2.16166 2.84617 0
M  V30 13661 C 1300.04 3.64805 2.65006 0
M  V30 13662 C 1298.71 4.05319 2.59365 0
M  V30 13663 C 1301.06 4.59073 2.46781 0
M  V30 13664 C 1298.39 5.38251 2.33458 0
M  V30 13665 C 1300.74 5.92216 2.22402 0
M  V30 13666 C 1299.4 6.31862 2.1519 0
M  V30 13667 H 1298.67 0.475408 0.568391 0
M  V30 13668 H 1301.32 1.68035 0.918512 0
M  V30 13669 H 1299.62 1.70967 3.5253 0
M  V30 13670 H 1301.32 2.0876 3.42375 0
M  V30 13671 H 1297.91 3.32662 2.70248 0
M  V30 13672 H 1302.1 4.28651 2.50144 0
M  V30 13673 H 1297.35 5.67957 2.26352 0
M  V30 13674 H 1301.53 6.64833 2.07293 0
M  V30 13675 H 1299.15 7.34797 1.94878 0
M  V30 13676 N 1300.73 -1.01913 1.20215 0
M  V30 13677 C 1301.69 -2.08563 0.950481 0
M  V30 13678 C 1302.69 -1.60634 -0.0729659 0
M  V30 13679 O 1303.88 -1.73437 0.162826 0
M  V30 13680 C 1301.01 -3.38171 0.430453 0
M  V30 13681 H 1302.21 -2.32323 1.89647 0
M  V30 13682 H 1299.76 -1.18674 1.01716 0
M  V30 13683 H 1300.49 -3.20086 -0.521126 0
M  V30 13684 H 1300.28 -3.74284 1.1685 0
M  V30 13685 H 1301.77 -4.16702 0.273781 0
M  V30 13686 N 1302.21 -1.00763 -1.2118 0
M  V30 13687 C 1303.62 -0.724746 -1.72059 0
M  V30 13688 C 1303.97 0.757413 -1.80991 0
M  V30 13689 O 1303.09 1.59152 -1.46627 0
M  V30 13690 C 1303.69 -1.30893 -3.12494 0
M  V30 13691 C 1302.25 -1.07511 -3.60719 0
M  V30 13692 C 1301.39 -1.42014 -2.38175 0
M  V30 13693 H 1304.35 -1.17821 -1.0632 0
M  V30 13694 H 1304.37 -0.694919 -3.741 0
M  V30 13695 H 1303.88 -2.38767 -3.05961 0
M  V30 13696 H 1301.98 -0.0136518 -3.72597 0
M  V30 13697 H 1302.09 -1.74885 -4.4604 0
M  V30 13698 H 1300.46 -0.838972 -2.40486 0
M  V30 13699 H 1301.24 -2.50924 -2.34291 0
M  V30 13700 N 1303.68 1.3679 -0.7827 0
M  V30 13701 C 1304.63 2.30139 -0.174595 0
M  V30 13702 C 1305.6 1.51645 0.677714 0
M  V30 13703 O 1306.79 1.80176 0.627796 0
M  V30 13704 C 1303.93 3.38133 0.689936 0
M  V30 13705 C 1303.04 4.31624 -0.180179 0
M  V30 13706 C 1302.17 5.26698 0.69009 0
M  V30 13707 C 1301.21 6.1183 -0.181891 0
M  V30 13708 N 1300.35 6.99113 0.646977 0
M  V30 13709 H 1305.19 2.81559 -0.97613 0
M  V30 13710 H 1302.73 1.38595 -0.492944 0
M  V30 13711 H 1304.69 3.99386 1.2061 0
M  V30 13712 H 1303.32 2.88049 1.45696 0
M  V30 13713 H 1302.37 3.71583 -0.81425 0
M  V30 13714 H 1303.68 4.91464 -0.852337 0
M  V30 13715 H 1302.83 5.93209 1.27232 0
M  V30 13716 H 1301.57 4.67297 1.3959 0
M  V30 13717 H 1300.58 5.44288 -0.776572 0
M  V30 13718 H 1301.8 6.73306 -0.885195 0
M  V30 13719 H 1299.75 6.42227 1.3372 0
M  V30 13720 H 1299.67 7.55993 0.0323547 0
M  V30 13721 H 1300.93 7.7 1.21325 0
M  V30 13722 N 1305.16 0.53415 1.48272 0
M  V30 13723 C 1306.11 -0.239672 2.31362 0
M  V30 13724 C 1307.1 -0.931501 1.4149 0
M  V30 13725 O 1308.31 -0.855411 1.58375 0
M  V30 13726 H 1304.69 -0.09616 0.745827 0
M  V30 13727 H 1306.66 0.480638 2.94504 0
M  V30 13728 C 1305.41 -1.27102 3.23636 0
M  V30 13729 H 1304.73 -0.748082 3.92739 0
M  V30 13730 H 1306.17 -1.78379 3.84652 0
M  V30 13731 C 1304.63 -2.30683 2.45534 0
M  V30 13732 O 1305.16 -3.37197 2.18314 0
M  V30 13733 N 1303.36 -2.04006 2.06954 0
M  V30 13734 H 1302.91 -1.17403 2.29291 0
M  V30 13735 H 1302.87 -2.73531 1.5501 0
M  V30 13736 N 1306.64 -1.55279 0.269478 0
M  V30 13737 C 1307.89 -1.98649 -0.349522 0
M  V30 13738 C 1308.2 -1.16125 -1.57399 0
M  V30 13739 O 1309.41 -1.49612 -2.26558 0
M  V30 13740 C 1307.86 -3.53547 -0.673224 0
M  V30 13741 C 1307.47 -4.44841 0.531119 0
M  V30 13742 C 1309.22 -4.05519 -1.25516 0
M  V30 13743 C 1307.12 -5.91119 0.182317 0
M  V30 13744 H 1306.05 -0.74193 -0.13437 0
M  V30 13745 H 1308.7 -1.79664 0.373246 0
M  V30 13746 H 1307.09 -3.68311 -1.45474 0
M  V30 13747 H 1308.26 -4.41843 1.3081 0
M  V30 13748 H 1306.58 -4.03472 1.02952 0
M  V30 13749 H 1309.17 -5.12347 -1.52984 0
M  V30 13750 H 1309.52 -3.54215 -2.18718 0
M  V30 13751 H 1310.05 -3.94172 -0.536059 0
M  V30 13752 H 1306.79 -6.46507 1.08206 0
M  V30 13753 H 1306.31 -5.97199 -0.558008 0
M  V30 13754 H 1307.99 -6.466 -0.227484 0
M  V30 13755 N 1308.12 0.00332656 -1.576 0
M  V30 13756 C 1309.35 0.69893 -1.94418 0
M  V30 13757 C 1309.76 1.68021 -0.8698 0
M  V30 13758 O 1309.1 1.83 0.160193 0
M  V30 13759 C 1309.16 1.4892 -3.27205 0
M  V30 13760 C 1308.83 0.669874 -4.52064 0
M  V30 13761 C 1309.82 -0.0410157 -5.19884 0
M  V30 13762 C 1307.51 0.616824 -4.98498 0
M  V30 13763 C 1309.5 -0.793976 -6.32436 0
M  V30 13764 C 1307.19 -0.139864 -6.1094 0
M  V30 13765 C 1308.19 -0.844001 -6.77765 0
M  V30 13766 O 1307.87 -1.58835 -7.88052 0
M  V30 13767 H 1307.61 0.199843 -0.645785 0
M  V30 13768 H 1310.16 -0.0429034 -2.05355 0
M  V30 13769 H 1308.39 2.27544 -3.12667 0
M  V30 13770 H 1310.08 2.06983 -3.4916 0
M  V30 13771 H 1310.85 -0.00916281 -4.84999 0
M  V30 13772 H 1306.72 1.15442 -4.46312 0
M  V30 13773 H 1310.27 -1.34411 -6.84529 0
M  V30 13774 H 1306.17 -0.173549 -6.45267 0
M  V30 13775 H 1306.93 -1.50471 -8.0455 0
M  V30 13776 N 1309.6 1.55164 0.276031 0
M  V30 13777 C 1310.82 1.7998 1.03063 0
M  V30 13778 C 1311.25 0.569769 1.79263 0
M  V30 13779 O 1310.6 -0.48054 1.74816 0
M  V30 13780 C 1310.65 3.02209 1.96728 0
M  V30 13781 O 1309.76 2.77083 3.05449 0
M  V30 13782 H 1309.1 0.594963 0.294814 0
M  V30 13783 H 1311.63 2.02301 0.305861 0
M  V30 13784 H 1311.64 3.3086 2.38738 0
M  V30 13785 H 1310.31 3.91386 1.40677 0
M  V30 13786 H 1308.89 2.5952 2.67776 0
M  V30 13787 N 1311.07 -0.540404 1.48045 0
M  V30 13788 C 1312.32 -1.2932 1.54787 0
M  V30 13789 C 1312.64 -1.94335 0.222109 0
M  V30 13790 O 1313.84 -2.70982 0.167675 0
M  V30 13791 C 1312.3 -2.34594 2.72935 0
M  V30 13792 C 1311.91 -1.75696 4.1211 0
M  V30 13793 C 1313.65 -3.10949 2.88982 0
M  V30 13794 C 1311.56 -2.78849 5.21534 0
M  V30 13795 H 1310.49 -0.486315 0.576206 0
M  V30 13796 H 1313.14 -0.571998 1.74357 0
M  V30 13797 H 1311.52 -3.09704 2.46778 0
M  V30 13798 H 1312.69 -1.06845 4.48242 0
M  V30 13799 H 1311.01 -1.11869 4.01091 0
M  V30 13800 H 1313.61 -3.88012 3.679 0
M  V30 13801 H 1313.95 -3.66173 1.98048 0
M  V30 13802 H 1314.48 -2.42953 3.1499 0
M  V30 13803 H 1311.22 -2.28459 6.144 0
M  V30 13804 H 1310.74 -3.46059 4.89901 0
M  V30 13805 H 1312.42 -3.4203 5.49203 0
M  V30 13806 N 1312.55 -1.36459 -0.788468 0
M  V30 13807 C 1313.49 -1.25222 -1.90774 0
M  V30 13808 C 1314.46 -0.136188 -1.62029 0
M  V30 13809 O 1315.65 -0.307486 -1.85975 0
M  V30 13810 C 1312.77 -0.932287 -3.25616 0
M  V30 13811 C 1311.82 -2.0629 -3.73292 0
M  V30 13812 S 1312.65 -3.68084 -3.8894 0
M  V30 13813 C 1313.81 -3.38206 -5.26657 0
M  V30 13814 H 1314.04 -2.19959 -2.00013 0
M  V30 13815 H 1311.58 -1.21886 -0.947801 0
M  V30 13816 H 1313.53 -0.754514 -4.03506 0
M  V30 13817 H 1312.19 -0.00268413 -3.141 0
M  V30 13818 H 1311.39 -1.79363 -4.71004 0
M  V30 13819 H 1310.99 -2.19994 -3.02454 0
M  V30 13820 H 1313.28 -2.92158 -6.11269 0
M  V30 13821 H 1314.22 -4.35185 -5.58587 0
M  V30 13822 H 1314.63 -2.73531 -4.93802 0
M  V30 13823 N 1314.03 1.01274 -1.20754 0
M  V30 13824 C 1314.96 2.10029 -0.917628 0
M  V30 13825 C 1315.98 1.62516 0.0961411 0
M  V30 13826 O 1317.16 1.77986 -0.135371 0
M  V30 13827 C 1314.26 3.37037 -0.354891 0
M  V30 13828 C 1313.44 4.1367 -1.42113 0
M  V30 13829 C 1312.5 5.18974 -0.869023 0
M  V30 13830 O 1311.52 5.47671 -1.55063 0
M  V30 13831 N 1312.72 5.79619 0.319631 0
M  V30 13832 H 1315.49 2.35485 -1.85383 0
M  V30 13833 H 1313.05 1.17695 -1.11173 0
M  V30 13834 H 1315.04 4.0469 0.0286895 0
M  V30 13835 H 1313.61 3.088 0.485956 0
M  V30 13836 H 1312.83 3.40931 -1.97889 0
M  V30 13837 H 1314.12 4.61649 -2.13911 0
M  V30 13838 H 1313.52 5.58646 0.89059 0
M  V30 13839 H 1312.08 6.48603 0.644807 0
M  V30 13840 N 1315.51 1.01404 1.20644 0
M  V30 13841 C 1316.47 0.586941 2.21557 0
M  V30 13842 C 1317.47 -0.341543 1.57131 0
M  V30 13843 O 1318.66 -0.130585 1.7371 0
M  V30 13844 C 1315.79 -0.143248 3.40599 0
M  V30 13845 H 1316.99 1.47964 2.60858 0
M  V30 13846 H 1314.54 0.803551 1.34063 0
M  V30 13847 H 1315.28 -1.05097 3.06798 0
M  V30 13848 H 1315.06 0.523716 3.88587 0
M  V30 13849 H 1316.55 -0.429504 4.15385 0
M  V30 13850 N 1316.99 -1.36373 0.789944 0
M  V30 13851 C 1318.23 -2.0106 0.367995 0
M  V30 13852 C 1318.59 -1.61336 -1.0409 0
M  V30 13853 O 1319.79 -2.18618 -1.56396 0
M  V30 13854 C 1318.06 -3.53492 0.527106 0
M  V30 13855 S 1319.62 -4.38375 0.193113 0
M  V30 13856 H 1316.44 -0.696965 0.140573 0
M  V30 13857 H 1319.04 -1.66256 1.02855 0
M  V30 13858 H 1317.75 -3.7989 1.55279 0
M  V30 13859 H 1317.28 -3.93116 -0.149364 0
M  V30 13860 H 1319.29 -4.85913 -1.00513 0
M  V30 13861 N 1318.47 -0.542005 -1.47987 0
M  V30 13862 C 1319.71 -0.0205021 -2.0339 0
M  V30 13863 C 1320.07 1.30854 -1.41049 0
M  V30 13864 O 1319.36 1.83496 -0.551328 0
M  V30 13865 C 1319.55 0.146208 -3.57101 0
M  V30 13866 C 1319.38 -1.16513 -4.34344 0
M  V30 13867 C 1318.15 -1.72829 -4.74824 0
M  V30 13868 C 1320.35 -2.07869 -4.7042 0
M  V30 13869 N 1318.33 -2.98126 -5.36651 0
M  V30 13870 C 1319.7 -3.17743 -5.3239 0
M  V30 13871 C 1321.76 -2.08049 -4.5235 0
M  V30 13872 C 1320.46 -4.27876 -5.78199 0
M  V30 13873 C 1322.49 -3.17184 -4.99147 0
M  V30 13874 C 1321.85 -4.25777 -5.61153 0
M  V30 13875 H 1317.95 -0.0492957 -0.780445 0
M  V30 13876 H 1320.53 -0.725941 -1.8066 0
M  V30 13877 H 1318.7 0.820747 -3.79629 0
M  V30 13878 H 1320.44 0.668402 -3.99142 0
M  V30 13879 H 1317.19 -1.26817 -4.56305 0
M  V30 13880 H 1317.61 -3.6195 -5.7212 0
M  V30 13881 H 1322.26 -1.25382 -4.03781 0
M  V30 13882 H 1319.97 -5.11313 -6.25767 0
M  V30 13883 H 1323.56 -3.18392 -4.86947 0
M  V30 13884 H 1322.44 -5.08833 -5.96707 0
M  V30 13885 N 1319.94 1.55134 -0.277709 0
M  V30 13886 C 1320.91 2.21327 0.595569 0
M  V30 13887 C 1321.91 1.19193 1.07933 0
M  V30 13888 O 1323.1 1.44081 0.979093 0
M  V30 13889 C 1320.23 2.88127 1.82196 0
M  V30 13890 H 1321.42 2.99895 0.0175855 0
M  V30 13891 H 1318.97 1.56274 -0.0283453 0
M  V30 13892 H 1319.71 2.13578 2.44039 0
M  V30 13893 H 1319.49 3.62974 1.48297 0
M  V30 13894 H 1320.98 3.38691 2.44291 0
M  V30 13895 N 1321.42 0.00503138 1.57599 0
M  V30 13896 C 1322.35 -0.983586 2.11773 0
M  V30 13897 C 1323.33 -1.35518 1.02805 0
M  V30 13898 O 1324.52 -1.43804 1.30514 0
M  V30 13899 C 1321.65 -2.27383 2.62515 0
M  V30 13900 C 1320.6 -2.0437 3.76054 0
M  V30 13901 C 1319.93 -3.39451 4.1313 0
M  V30 13902 C 1321.23 -1.40223 5.03125 0
M  V30 13903 H 1322.92 -0.532501 2.94627 0
M  V30 13904 H 1320.47 -0.254696 1.4173 0
M  V30 13905 H 1322.42 -2.96903 2.99043 0
M  V30 13906 H 1321.14 -2.74614 1.7679 0
M  V30 13907 H 1319.8 -1.37275 3.39928 0
M  V30 13908 H 1319.45 -3.84395 3.24422 0
M  V30 13909 H 1319.15 -3.24868 4.89627 0
M  V30 13910 H 1320.68 -4.10279 4.52221 0
M  V30 13911 H 1322.09 -1.99708 5.37392 0
M  V30 13912 H 1320.49 -1.36112 5.8446 0
M  V30 13913 H 1321.56 -0.372073 4.8347 0
M  V30 13914 N 1322.9 -1.55308 -0.267798 0
M  V30 13915 C 1323.81 -1.91649 -1.35307 0
M  V30 13916 C 1324.83 -0.814349 -1.53767 0
M  V30 13917 O 1326 -1.11388 -1.67793 0
M  V30 13918 C 1323.07 -2.18553 -2.69138 0
M  V30 13919 C 1322.13 -3.42083 -2.5938 0
M  V30 13920 C 1321.36 -3.67695 -3.86828 0
M  V30 13921 O 1321.58 -2.95728 -4.87751 0
M  V30 13922 O 1320.52 -4.61229 -3.86718 0
M  V30 13923 H 1324.34 -2.84044 -1.07483 0
M  V30 13924 H 1321.93 -1.41921 -0.466772 0
M  V30 13925 H 1323.81 -2.3726 -3.48261 0
M  V30 13926 H 1322.49 -1.2934 -2.96737 0
M  V30 13927 H 1321.39 -3.28706 -1.78614 0
M  V30 13928 H 1322.73 -4.31532 -2.36729 0
M  V30 13929 N 1324.38 0.532545 -1.4833 0
M  V30 13930 C 1325.79 1.11451 -1.49785 0
M  V30 13931 C 1326.14 1.94386 -0.266207 0
M  V30 13932 O 1325.26 2.07121 0.62688 0
M  V30 13933 C 1325.86 2.0279 -2.71407 0
M  V30 13934 C 1324.42 2.56209 -2.75742 0
M  V30 13935 C 1323.57 1.33114 -2.43261 0
M  V30 13936 H 1326.52 0.317924 -1.55483 0
M  V30 13937 H 1326.54 2.87038 -2.49779 0
M  V30 13938 H 1326.05 1.42401 -3.61031 0
M  V30 13939 H 1324.15 3.20327 -1.9032 0
M  V30 13940 H 1324.26 2.95518 -3.77102 0
M  V30 13941 H 1322.63 1.64607 -1.94362 0
M  V30 13942 H 1323.41 0.744809 -3.35123 0
M  V30 13943 N 1325.86 1.36875 0.78122 0
M  V30 13944 C 1327.08 1.34732 1.57019 0
M  V30 13945 C 1327.5 -0.0695423 1.88672 0
M  V30 13946 O 1326.86 -1.02873 1.50743 0
M  V30 13947 C 1326.91 2.17668 2.88623 0
M  V30 13948 O 1326.63 3.53832 2.5833 0
M  V30 13949 C 1328.13 2.23398 3.82895 0
M  V30 13950 H 1325.35 0.461857 0.486754 0
M  V30 13951 H 1327.89 1.80086 0.968989 0
M  V30 13952 H 1326.05 1.75848 3.4519 0
M  V30 13953 H 1326.46 3.972 3.42538 0
M  V30 13954 H 1327.94 2.85769 4.72271 0
M  V30 13955 H 1328.41 1.23972 4.2134 0
M  V30 13956 H 1329.02 2.65489 3.32258 0
M  V30 13957 N 1327.33 -1.00632 1.21289 0
M  V30 13958 C 1328.28 -2.07791 0.938459 0
M  V30 13959 C 1329.27 -1.60552 -0.105773 0
M  V30 13960 O 1330.46 -1.767 0.102981 0
M  V30 13961 C 1327.59 -3.39587 0.503563 0
M  V30 13962 C 1326.67 -3.93497 1.58179 0
M  V30 13963 N 1327.07 -4.20792 2.80656 0
M  V30 13964 C 1325.36 -4.21759 1.45035 0
M  V30 13965 C 1326.06 -4.64411 3.50281 0
M  V30 13966 N 1325.04 -4.67305 2.77717 0
M  V30 13967 H 1328.84 -2.26816 1.869 0
M  V30 13968 H 1326.36 -1.18692 1.10842 0
M  V30 13969 H 1328.35 -4.15902 0.288323 0
M  V30 13970 H 1327.01 -3.21969 -0.420233 0
M  V30 13971 H 1328.02 -4.09386 3.17212 0
M  V30 13972 H 1324.7 -4.13285 0.591745 0
M  V30 13973 H 1326.09 -4.94263 4.55141 0
M  V30 13974 N 1328.81 -1.02043 -1.20104 0
M  V30 13975 C 1330.23 -0.735967 -1.41618 0
M  V30 13976 C 1330.43 0.68285 -1.89577 0
M  V30 13977 O 1329.48 1.45007 -2.06711 0
M  V30 13978 C 1330.8 -1.76492 -2.43457 0
M  V30 13979 C 1332.34 -1.78349 -2.57217 0
M  V30 13980 C 1332.82 -2.80181 -3.62302 0
M  V30 13981 N 1334.31 -2.78945 -3.69789 0
M  V30 13982 C 1335.05 -3.54395 -4.50768 0
M  V30 13983 N 1334.54 -4.39533 -5.35521 0
M  V30 13984 N 1336.33 -3.42974 -4.45337 0
M  V30 13985 H 1328.49 -1.93634 -0.872916 0
M  V30 13986 H 1330.75 -0.836663 -0.445757 0
M  V30 13987 H 1330.45 -2.78158 -2.15223 0
M  V30 13988 H 1330.33 -1.58022 -3.42504 0
M  V30 13989 H 1332.72 -0.773665 -2.84778 0
M  V30 13990 H 1332.8 -2.00894 -1.58352 0
M  V30 13991 H 1332.44 -3.81331 -3.35484 0
M  V30 13992 H 1332.37 -2.54898 -4.60798 0
M  V30 13993 H 1334.86 -2.17189 -3.09253 0
M  V30 13994 H 1335.17 -4.93863 -5.94407 0
M  V30 13995 H 1333.52 -4.43609 -5.3501 0
M  V30 13996 H 1336.71 -2.75881 -3.78163 0
M  V30 13997 H 1336.88 -4.02028 -5.0821 0
M  V30 13998 N 1330.29 1.35952 -0.797165 0
M  V30 13999 C 1331.7 1.81554 -0.435311 0
M  V30 14000 C 1332.05 1.66266 1.04164 0
M  V30 14001 O 1331.18 1.18796 1.80877 0
M  V30 14002 C 1331.77 3.29619 -0.783358 0
M  V30 14003 C 1330.33 3.73401 -0.47423 0
M  V30 14004 C 1329.48 2.58098 -1.01394 0
M  V30 14005 H 1332.43 1.24064 -0.989638 0
M  V30 14006 H 1332.45 3.80421 -0.0773381 0
M  V30 14007 H 1331.96 3.40715 -1.85836 0
M  V30 14008 H 1330.06 3.6786 0.592418 0
M  V30 14009 H 1330.18 4.68542 -1.00026 0
M  V30 14010 H 1328.54 2.50927 -0.436747 0
M  V30 14011 H 1329.32 2.71976 -2.09485 0
M  V30 14012 N 1331.77 0.549846 1.47697 0
M  V30 14013 C 1333 0.0276889 2.06881 0
M  V30 14014 C 1333.41 -1.26273 1.40359 0
M  V30 14015 O 1332.77 -1.75584 0.497644 0
M  V30 14016 C 1332.82 -0.179291 3.61055 0
M  V30 14017 O 1332.54 1.06002 4.25083 0
M  V30 14018 C 1334.04 -0.739571 4.37087 0
M  V30 14019 H 1331.26 0.0425016 0.669653 0
M  V30 14020 H 1333.81 0.761158 1.89807 0
M  V30 14021 H 1331.96 -0.862867 3.77668 0
M  V30 14022 H 1332.37 0.853137 5.17515 0
M  V30 14023 H 1333.85 -0.833722 5.45668 0
M  V30 14024 H 1334.33 -1.74915 4.02867 0
M  V30 14025 H 1334.93 -0.0919294 4.25201 0
M  V30 14026 N 1333.25 -1.54984 0.285932 0
M  V30 14027 C 1334.49 -1.9983 -0.327737 0
M  V30 14028 C 1334.82 -1.17435 -1.55046 0
M  V30 14029 O 1334.08 -0.234735 -1.94287 0
M  V30 14030 C 1334.38 -3.49581 -0.7435 0
M  V30 14031 C 1334.04 -4.49331 0.375792 0
M  V30 14032 C 1332.7 -4.76327 0.683103 0
M  V30 14033 C 1335.06 -5.08815 1.12947 0
M  V30 14034 C 1332.38 -5.60071 1.74748 0
M  V30 14035 C 1334.74 -5.93716 2.18366 0
M  V30 14036 C 1333.4 -6.19028 2.4972 0
M  V30 14037 H 1332.67 -0.731231 -0.119928 0
M  V30 14038 H 1335.32 -1.87235 0.401896 0
M  V30 14039 H 1333.62 -3.59708 -1.55298 0
M  V30 14040 H 1335.32 -3.81694 -1.22924 0
M  V30 14041 H 1331.91 -4.28414 0.126159 0
M  V30 14042 H 1336.09 -4.87973 0.905313 0
M  V30 14043 H 1331.35 -5.77925 1.9953 0
M  V30 14044 H 1335.52 -6.38838 2.77233 0
M  V30 14045 H 1333.15 -6.83711 3.3233 0
M  V30 14046 N 1334.72 -0.0133892 -1.57594 0
M  V30 14047 C 1335.66 1.00211 -2.06132 0
M  V30 14048 C 1336.67 1.29869 -0.98173 0
M  V30 14049 O 1337.86 1.2661 -1.25826 0
M  V30 14050 C 1334.96 2.33354 -2.45763 0
M  V30 14051 C 1334.13 2.22441 -3.76615 0
M  V30 14052 C 1333.19 3.38385 -4.02967 0
M  V30 14053 O 1332.22 3.15973 -4.73445 0
M  V30 14054 N 1333.42 4.61672 -3.51908 0
M  V30 14055 H 1336.18 0.588079 -2.93874 0
M  V30 14056 H 1333.74 0.173714 -1.60965 0
M  V30 14057 H 1335.74 3.09716 -2.60496 0
M  V30 14058 H 1334.31 2.66451 -1.6347 0
M  V30 14059 H 1333.53 1.30905 -3.7183 0
M  V30 14060 H 1334.81 2.12337 -4.62375 0
M  V30 14061 H 1334.21 4.82777 -2.9486 0
M  V30 14062 H 1332.77 5.35256 -3.71947 0
M  V30 14063 N 1336.2 1.55448 0.259558 0
M  V30 14064 C 1337.13 1.85678 1.34373 0
M  V30 14065 C 1338.15 0.742155 1.449 0
M  V30 14066 O 1339.34 1.02015 1.46476 0
M  V30 14067 C 1336.44 2.01668 2.72366 0
M  V30 14068 C 1335.61 3.32434 2.84265 0
M  V30 14069 C 1334.67 3.38322 4.03019 0
M  V30 14070 O 1333.69 4.11616 3.93143 0
M  V30 14071 N 1334.9 2.66697 5.1561 0
M  V30 14072 H 1337.66 2.79261 1.08781 0
M  V30 14073 H 1335.22 1.5553 0.449672 0
M  V30 14074 H 1337.21 2.02963 3.50126 0
M  V30 14075 H 1335.78 1.14889 2.90722 0
M  V30 14076 H 1335 3.43564 1.93281 0
M  V30 14077 H 1336.29 4.18649 2.89155 0
M  V30 14078 H 1335.69 2.06857 5.26523 0
M  V30 14079 H 1334.25 2.73699 5.91551 0
M  V30 14080 N 1337.68 -0.524672 1.4861 0
M  V30 14081 C 1338.93 -1.27671 1.5615 0
M  V30 14082 C 1339.24 -1.94088 0.242709 0
M  V30 14083 O 1340.45 -2.70789 0.196407 0
M  V30 14084 C 1338.9 -2.31686 2.75408 0
M  V30 14085 C 1338.51 -1.71315 4.13951 0
M  V30 14086 C 1340.26 -3.07867 2.92264 0
M  V30 14087 C 1338.16 -2.73302 5.24462 0
M  V30 14088 H 1337.09 -0.480177 0.581332 0
M  V30 14089 H 1339.74 -0.553473 1.74954 0
M  V30 14090 H 1338.13 -3.07069 2.50049 0
M  V30 14091 H 1339.3 -1.02085 4.4935 0
M  V30 14092 H 1337.62 -1.07608 4.02255 0
M  V30 14093 H 1340.21 -3.84088 3.71995 0
M  V30 14094 H 1340.56 -3.64052 2.01921 0
M  V30 14095 H 1341.09 -2.39599 3.17549 0
M  V30 14096 H 1337.83 -2.21929 6.16788 0
M  V30 14097 H 1337.35 -3.40843 4.93544 0
M  V30 14098 H 1339.03 -3.36186 5.528 0
M  V30 14099 N 1339.16 -1.37287 -0.77395 0
M  V30 14100 C 1340.4 -1.33771 -1.54547 0
M  V30 14101 C 1340.76 0.0778134 -1.91842 0
M  V30 14102 O 1341.96 0.237682 -2.67747 0
M  V30 14103 C 1340.23 -2.24859 -2.77801 0
M  V30 14104 S 1341.79 -2.39172 -3.67889 0
M  V30 14105 H 1338.61 -0.474918 -0.529126 0
M  V30 14106 H 1341.21 -1.73015 -0.910287 0
M  V30 14107 H 1339.92 -3.2663 -2.48478 0
M  V30 14108 H 1339.45 -1.86691 -3.4628 0
M  V30 14109 H 1341.46 -1.60068 -4.69673 0
M  V30 14110 N 1340.64 0.999871 -1.21821 0
M  V30 14111 C 1341.86 1.7794 -1.06546 0
M  V30 14112 C 1342.29 1.84219 0.380115 0
M  V30 14113 O 1341.64 1.28955 1.27438 0
M  V30 14114 C 1341.69 3.1943 -1.67322 0
M  V30 14115 O 1340.8 4.01957 -0.922171 0
M  V30 14116 H 1340.14 0.548204 -0.374658 0
M  V30 14117 H 1342.67 1.2565 -1.61472 0
M  V30 14118 H 1342.68 3.70086 -1.71757 0
M  V30 14119 H 1341.35 3.14175 -2.7252 0
M  V30 14120 H 1339.93 3.60509 -0.95331 0
M  V30 14121 N 1342.11 1.02678 1.19562 0
M  V30 14122 C 1343.36 0.722016 1.89191 0
M  V30 14123 C 1343.69 -0.749217 1.79491 0
M  V30 14124 O 1342.94 -1.56105 1.18025 0
M  V30 14125 C 1343.24 1.11603 3.39529 0
M  V30 14126 C 1342.91 2.58518 3.69431 0
M  V30 14127 C 1341.57 2.98658 3.77302 0
M  V30 14128 C 1343.92 3.53579 3.82925 0
M  V30 14129 C 1341.25 4.32776 3.96134 0
M  V30 14130 C 1343.6 4.87398 4.0327 0
M  V30 14131 C 1342.27 5.27229 4.09373 0
M  V30 14132 H 1341.54 0.264204 0.692298 0
M  V30 14133 H 1344.18 1.28924 1.41601 0
M  V30 14134 H 1342.49 0.467374 3.89002 0
M  V30 14135 H 1344.19 0.857771 3.91718 0
M  V30 14136 H 1340.78 2.26421 3.63911 0
M  V30 14137 H 1344.96 3.23721 3.76189 0
M  V30 14138 H 1340.22 4.63175 3.99098 0
M  V30 14139 H 1344.39 5.60973 4.12653 0
M  V30 14140 H 1342.02 6.31164 4.23718 0
M  V30 14141 N 1343.59 -1.35528 0.804364 0
M  V30 14142 C 1344.52 -2.32388 0.227604 0
M  V30 14143 C 1345.5 -1.57368 -0.645709 0
M  V30 14144 O 1346.69 -1.85448 -0.576441 0
M  V30 14145 C 1343.82 -3.41603 -0.62645 0
M  V30 14146 C 1342.77 -4.27743 0.148187 0
M  V30 14147 C 1342.1 -5.28259 -0.827425 0
M  V30 14148 C 1343.4 -5.04661 1.34591 0
M  V30 14149 H 1345.09 -2.80874 1.03684 0
M  V30 14150 H 1342.64 -1.3504 0.500031 0
M  V30 14151 H 1344.59 -4.08365 -1.03999 0
M  V30 14152 H 1343.32 -2.91721 -1.46855 0
M  V30 14153 H 1341.97 -3.62558 0.542874 0
M  V30 14154 H 1341.62 -4.74645 -1.66496 0
M  V30 14155 H 1341.32 -5.86763 -0.313453 0
M  V30 14156 H 1342.85 -5.97893 -1.23921 0
M  V30 14157 H 1344.26 -5.6438 1.00736 0
M  V30 14158 H 1342.66 -5.7265 1.79422 0
M  V30 14159 H 1343.73 -4.35432 2.1337 0
M  V30 14160 N 1345.07 -0.557671 -1.47404 0
M  V30 14161 C 1346 0.227253 -2.28071 0
M  V30 14162 C 1347.02 0.878951 -1.37034 0
M  V30 14163 O 1348.21 0.752725 -1.61853 0
M  V30 14164 C 1345.31 1.33942 -3.11308 0
M  V30 14165 C 1344.48 0.784425 -4.30309 0
M  V30 14166 C 1343.54 1.78114 -4.95138 0
M  V30 14167 O 1342.56 1.32708 -5.53514 0
M  V30 14168 N 1343.77 3.11453 -4.89875 0
M  V30 14169 H 1346.53 -0.464709 -2.96075 0
M  V30 14170 H 1344.09 -0.393777 -1.57038 0
M  V30 14171 H 1346.08 2.00495 -3.51545 0
M  V30 14172 H 1344.65 1.93461 -2.45543 0
M  V30 14173 H 1343.87 -0.0578917 -3.94157 0
M  V30 14174 H 1345.16 0.39298 -5.0728 0
M  V30 14175 H 1344.56 3.50987 -4.43649 0
M  V30 14176 H 1343.12 3.73563 -5.34129 0
M  V30 14177 N 1346.55 1.54831 -0.294147 0
M  V30 14178 C 1347.46 2.26939 0.594621 0
M  V30 14179 C 1348.48 1.30209 1.15419 0
M  V30 14180 O 1349.65 1.6318 1.18044 0
M  V30 14181 C 1346.72 2.9909 1.75345 0
M  V30 14182 C 1345.78 4.11342 1.22865 0
M  V30 14183 C 1345.01 4.80043 2.33225 0
M  V30 14184 O 1345.23 4.48062 3.52983 0
M  V30 14185 O 1344.17 5.67593 2.00304 0
M  V30 14186 H 1347.99 3.03698 0.00989235 0
M  V30 14187 H 1345.58 1.49276 -0.0608528 0
M  V30 14188 H 1347.46 3.44369 2.42875 0
M  V30 14189 H 1346.14 2.25232 2.32492 0
M  V30 14190 H 1345.04 3.70478 0.519279 0
M  V30 14191 H 1346.38 4.87158 0.702703 0
M  V30 14192 N 1348.03 0.0217466 1.57585 0
M  V30 14193 C 1348.96 -0.99116 2.06661 0
M  V30 14194 C 1349.97 -1.29346 0.988604 0
M  V30 14195 O 1351.16 -1.25941 1.26496 0
M  V30 14196 C 1348.26 -2.32047 2.46997 0
M  V30 14197 C 1347.43 -2.20441 3.77789 0
M  V30 14198 C 1346.49 -3.36243 4.04755 0
M  V30 14199 O 1345.52 -3.13458 4.75114 0
M  V30 14200 N 1346.72 -4.598 3.54351 0
M  V30 14201 H 1349.49 -0.572486 2.94181 0
M  V30 14202 H 1347.05 -0.165175 1.61055 0
M  V30 14203 H 1349.04 -3.0833 2.62135 0
M  V30 14204 H 1347.61 -2.65581 1.64881 0
M  V30 14205 H 1346.83 -1.28931 3.72519 0
M  V30 14206 H 1348.12 -2.09882 4.63494 0
M  V30 14207 H 1347.52 -4.81207 2.97416 0
M  V30 14208 H 1346.07 -5.33276 3.7478 0
M  V30 14209 N 1349.51 -1.55583 -0.251311 0
M  V30 14210 C 1350.47 -1.89148 -1.29443 0
M  V30 14211 C 1351.47 -0.7676 -1.41296 0
M  V30 14212 O 1352.66 -1.03563 -1.40073 0
M  V30 14213 C 1349.79 -2.11601 -2.67279 0
M  V30 14214 H 1350.98 -2.82416 -1.00901 0
M  V30 14215 H 1348.54 -1.48407 -0.490398 0
M  V30 14216 H 1349.27 -1.20787 -3.00967 0
M  V30 14217 H 1349.06 -2.93449 -2.60058 0
M  V30 14218 H 1350.55 -2.38768 -3.42607 0
M  V30 14219 N 1350.98 0.516783 -1.48886 0
M  V30 14220 C 1351.92 1.63632 -1.60491 0
M  V30 14221 C 1352.93 1.55301 -0.488424 0
M  V30 14222 O 1354.12 1.6152 -0.75983 0
M  V30 14223 C 1351.22 3.02351 -1.53093 0
M  V30 14224 C 1350.39 3.36028 -2.80006 0
M  V30 14225 C 1349.45 4.54087 -2.65879 0
M  V30 14226 O 1348.48 4.56652 -3.3979 0
M  V30 14227 N 1349.68 5.53058 -1.76372 0
M  V30 14228 H 1352.44 1.54109 -2.57042 0
M  V30 14229 H 1350 0.704338 -1.45776 0
M  V30 14230 H 1352 3.79225 -1.41318 0
M  V30 14231 H 1350.57 3.05881 -0.644637 0
M  V30 14232 H 1349.79 2.48204 -3.06249 0
M  V30 14233 H 1351.07 3.5532 -3.64177 0
M  V30 14234 H 1350.47 5.53773 -1.1555 0
M  V30 14235 H 1349.03 6.29097 -1.70529 0
M  V30 14236 N 1352.46 1.37696 0.766659 0
M  V30 14237 C 1353.37 1.36075 1.91104 0
M  V30 14238 C 1354.39 0.259617 1.72052 0
M  V30 14239 O 1355.56 0.49586 1.952 0
M  V30 14240 C 1352.63 1.17176 3.26298 0
M  V30 14241 C 1351.69 2.36975 3.57968 0
M  V30 14242 C 1350.92 2.18968 4.86712 0
M  V30 14243 O 1351.15 1.17658 5.58133 0
M  V30 14244 O 1350.08 3.07269 5.17561 0
M  V30 14245 H 1353.91 2.32472 1.95424 0
M  V30 14246 H 1351.49 1.18478 0.910122 0
M  V30 14247 H 1353.37 1.08645 4.07154 0
M  V30 14248 H 1352.05 0.238559 3.2282 0
M  V30 14249 H 1350.95 2.51079 2.77327 0
M  V30 14250 H 1352.29 3.2888 3.66195 0
M  V30 14251 N 1353.94 -0.993397 1.22349 0
M  V30 14252 C 1355.22 -1.7063 0.956275 0
M  V30 14253 C 1355.6 -2.0437 -0.52877 0
M  V30 14254 O 1354.94 -1.72662 -1.49667 0
M  V30 14255 C 1355.15 -2.95725 1.85331 0
M  V30 14256 C 1356.5 -3.68514 2.10909 0
M  V30 14257 O 1357.53 -3.05732 1.82775 0
M  V30 14258 O 1356.39 -4.81468 2.58556 0
M  V30 14259 H 1353.48 -0.744734 0.359583 0
M  V30 14260 H 1356.03 -1.04979 1.33333 0
M  V30 14261 H 1354.8 -2.6729 2.85782 0
M  V30 14262 H 1354.42 -3.69116 1.47781 0
M  V30 14263 N 1355.42 -1.03311 -1.19015 0
M  V30 14264 C 1356.83 -0.750946 -1.4083 0
M  V30 14265 C 1357.03 0.662704 -1.90291 0
M  V30 14266 O 1356.09 1.42806 -2.08237 0
M  V30 14267 C 1357.4 -1.79064 -2.41571 0
M  V30 14268 C 1358.95 -1.81068 -2.55311 0
M  V30 14269 C 1359.43 -2.84008 -3.59309 0
M  V30 14270 N 1360.92 -2.82852 -3.6681 0
M  V30 14271 C 1361.65 -3.59156 -4.46984 0
M  V30 14272 N 1361.15 -4.45188 -5.30829 0
M  V30 14273 N 1362.94 -3.47679 -4.41674 0
M  V30 14274 H 1355.09 -1.94548 -0.852329 0
M  V30 14275 H 1357.35 -0.841344 -0.436858 0
M  V30 14276 H 1357.06 -2.80425 -2.12261 0
M  V30 14277 H 1356.93 -1.61646 -3.40809 0
M  V30 14278 H 1359.32 -0.803825 -2.83941 0
M  V30 14279 H 1359.4 -2.02562 -1.56212 0
M  V30 14280 H 1359.05 -3.84867 -3.3142 0
M  V30 14281 H 1358.98 -2.59771 -4.58069 0
M  V30 14282 H 1361.47 -2.20457 -3.06932 0
M  V30 14283 H 1361.78 -5.00139 -5.89135 0
M  V30 14284 H 1360.13 -4.49259 -5.30275 0
M  V30 14285 H 1363.32 -2.79876 -3.75216 0
M  V30 14286 H 1363.49 -4.07396 -5.03917 0
M  V30 14287 N 1356.9 1.35099 -0.81154 0
M  V30 14288 C 1358.31 1.51701 -0.495883 0
M  V30 14289 C 1358.51 1.7595 0.982035 0
M  V30 14290 O 1357.57 1.8038 1.7669 0
M  V30 14291 C 1358.88 2.68916 -1.34554 0
M  V30 14292 C 1360.43 2.82795 -1.34149 0
M  V30 14293 C 1360.9 4.0304 -2.17538 0
M  V30 14294 N 1362.39 4.10227 -2.151 0
M  V30 14295 C 1363.13 5.02397 -2.76377 0
M  V30 14296 N 1362.63 5.99866 -3.46601 0
M  V30 14297 N 1364.42 4.95181 -2.65992 0
M  V30 14298 H 1356.57 1.17617 -1.76862 0
M  V30 14299 H 1358.83 0.575875 -0.753042 0
M  V30 14300 H 1358.54 2.57591 -2.39458 0
M  V30 14301 H 1358.41 3.63641 -1.00223 0
M  V30 14302 H 1360.8 2.93568 -0.300285 0
M  V30 14303 H 1360.88 1.88912 -1.7247 0
M  V30 14304 H 1360.52 3.93027 -3.21702 0
M  V30 14305 H 1360.45 4.96114 -1.76574 0
M  V30 14306 H 1362.95 3.40454 -1.6401 0
M  V30 14307 H 1363.26 6.66803 -3.90632 0
M  V30 14308 H 1361.6 6.00025 -3.50706 0
M  V30 14309 H 1364.79 4.17991 -2.10715 0
M  V30 14310 H 1364.97 5.6682 -3.14036 0
M  V30 14311 N 1358.37 0.56548 1.47106 0
M  V30 14312 C 1359.28 -0.180488 2.33905 0
M  V30 14313 C 1360.3 -0.90355 1.48701 0
M  V30 14314 O 1361.48 -0.870595 1.81611 0
M  V30 14315 C 1358.54 -1.19212 3.2556 0
M  V30 14316 C 1357.6 -0.475589 4.26658 0
M  V30 14317 C 1356.83 -1.43902 5.13934 0
M  V30 14318 O 1357.06 -2.67443 5.03816 0
M  V30 14319 O 1355.99 -0.958998 5.94211 0
M  V30 14320 H 1359.82 0.531726 2.99009 0
M  V30 14321 H 1357.4 0.32602 1.45799 0
M  V30 14322 H 1359.28 -1.77586 3.82153 0
M  V30 14323 H 1357.96 -1.8861 2.63074 0
M  V30 14324 H 1356.87 0.149561 3.73801 0
M  V30 14325 H 1358.2 0.177103 4.91881 0
M  V30 14326 N 1359.85 -1.54672 0.302354 0
M  V30 14327 C 1361.27 -1.59519 -0.0509899 0
M  V30 14328 C 1361.47 -1.31931 -1.52304 0
M  V30 14329 O 1360.52 -1.09338 -2.27599 0
M  V30 14330 C 1361.84 -2.98678 0.348168 0
M  V30 14331 C 1363.39 -3.11587 0.297046 0
M  V30 14332 C 1363.86 -4.53057 0.671046 0
M  V30 14333 N 1365.35 -4.58983 0.623633 0
M  V30 14334 C 1366.09 -5.66522 0.885476 0
M  V30 14335 N 1365.58 -6.82092 1.21336 0
M  V30 14336 N 1367.38 -5.56198 0.812448 0
M  V30 14337 H 1359.53 -1.70865 1.2617 0
M  V30 14338 H 1361.79 -0.798099 0.511608 0
M  V30 14339 H 1361.5 -3.23794 1.37297 0
M  V30 14340 H 1361.37 -3.76025 -0.297505 0
M  V30 14341 H 1363.76 -2.86219 -0.718515 0
M  V30 14342 H 1363.84 -2.36392 0.977361 0
M  V30 14343 H 1363.48 -4.79155 1.68442 0
M  V30 14344 H 1363.41 -5.26591 -0.0313537 0
M  V30 14345 H 1365.9 -3.75972 0.381203 0
M  V30 14346 H 1366.22 -7.6003 1.39909 0
M  V30 14347 H 1364.56 -6.83641 1.25141 0
M  V30 14348 H 1367.75 -4.64787 0.555939 0
M  V30 14349 H 1367.92 -6.39924 1.01988 0
M  V30 14350 N 1361.33 -0.0301034 -1.57571 0
M  V30 14351 C 1362.61 0.68703 -1.83137 0
M  V30 14352 C 1362.99 1.90277 -0.914216 0
M  V30 14353 O 1362.34 2.2848 0.0299358 0
M  V30 14354 C 1362.55 1.06431 -3.32375 0
M  V30 14355 C 1363.89 1.45554 -3.98873 0
M  V30 14356 O 1364.92 1.15727 -3.36877 0
M  V30 14357 O 1363.78 2.01133 -5.08142 0
M  V30 14358 H 1360.87 0.337141 -0.755159 0
M  V30 14359 H 1363.42 -0.0578604 -1.69601 0
M  V30 14360 H 1362.19 0.199077 -3.90793 0
M  V30 14361 H 1361.81 1.86734 -3.51022 0
M  V30 14362 N 1362.81 1.55714 0.243056 0
M  V30 14363 C 1364.04 1.81522 0.986577 0
M  V30 14364 C 1364.45 0.604051 1.79298 0
M  V30 14365 O 1363.79 -0.43674 1.78433 0
M  V30 14366 C 1363.85 3.0074 1.96967 0
M  V30 14367 C 1363.52 4.3661 1.34983 0
M  V30 14368 C 1364.51 5.14456 0.7504 0
M  V30 14369 C 1362.2 4.83311 1.36805 0
M  V30 14370 C 1364.19 6.37153 0.177438 0
M  V30 14371 C 1361.88 6.05956 0.791233 0
M  V30 14372 C 1362.88 6.82716 0.196959 0
M  V30 14373 O 1362.56 8.03044 -0.370938 0
M  V30 14374 H 1362.3 0.607864 0.295765 0
M  V30 14375 H 1364.85 2.03617 0.270018 0
M  V30 14376 H 1363.08 2.74409 2.72464 0
M  V30 14377 H 1364.77 3.13606 2.57694 0
M  V30 14378 H 1365.54 4.79493 0.728809 0
M  V30 14379 H 1361.41 4.23553 1.81999 0
M  V30 14380 H 1364.96 6.97009 -0.287042 0
M  V30 14381 H 1360.86 6.40396 0.810164 0
M  V30 14382 H 1361.62 8.18077 -0.263173 0
M  V30 14383 N 1364.29 -0.50888 1.49158 0
M  V30 14384 C 1365.51 -1.28771 1.61943 0
M  V30 14385 C 1365.93 -1.86594 0.287759 0
M  V30 14386 O 1365.29 -1.67448 -0.725769 0
M  V30 14387 C 1365.34 -2.4236 2.68224 0
M  V30 14388 O 1365.06 -1.86915 3.96225 0
M  V30 14389 C 1366.56 -3.33856 2.91642 0
M  V30 14390 H 1363.78 -0.390849 0.545416 0
M  V30 14391 H 1366.32 -0.611729 1.95136 0
M  V30 14392 H 1364.48 -3.05803 2.37831 0
M  V30 14393 H 1364.89 -2.61426 4.54705 0
M  V30 14394 H 1366.37 -4.09856 3.69759 0
M  V30 14395 H 1366.84 -3.90374 2.01258 0
M  V30 14396 H 1367.45 -2.76187 3.23421 0
M  V30 14397 N 1365.76 -1.381 -0.759346 0
M  V30 14398 C 1366.71 -1.34972 -1.89434 0
M  V30 14399 C 1367.71 -0.236499 -1.67741 0
M  V30 14400 O 1368.91 -0.405218 -1.7538 0
M  V30 14401 H 1365.29 -0.420922 -0.62316 0
M  V30 14402 H 1367.26 -2.3076 -1.89189 0
M  V30 14403 C 1366.01 -1.18594 -3.2685 0
M  V30 14404 H 1365.33 -2.03514 -3.44125 0
M  V30 14405 H 1366.77 -1.20458 -4.06529 0
M  V30 14406 C 1365.23 0.107562 -3.36728 0
M  V30 14407 O 1365.76 1.08668 -3.86722 0
M  V30 14408 N 1363.97 0.162455 -2.90146 0
M  V30 14409 H 1363.51 -0.634985 -2.49651 0
M  V30 14410 H 1363.47 1.02751 -2.97136 0
M  V30 14411 N 1367.24 0.986894 -1.22875 0
M  V30 14412 C 1368.17 2.09628 -1.0285 0
M  V30 14413 C 1369.15 1.70019 0.0525118 0
M  V30 14414 O 1370.34 1.93883 -0.110874 0
M  V30 14415 C 1367.47 3.41866 -0.61194 0
M  V30 14416 C 1366.42 3.95351 -1.63956 0
M  V30 14417 C 1365.75 5.23707 -1.07865 0
M  V30 14418 C 1367.05 4.25354 -3.03102 0
M  V30 14419 H 1368.74 2.26639 -1.95641 0
M  V30 14420 H 1366.29 1.0891 -0.942048 0
M  V30 14421 H 1368.24 4.18893 -0.458936 0
M  V30 14422 H 1366.97 3.24701 0.35164 0
M  V30 14423 H 1365.62 3.20462 -1.78045 0
M  V30 14424 H 1365.27 5.02888 -0.106246 0
M  V30 14425 H 1364.97 5.60459 -1.76522 0
M  V30 14426 H 1366.5 6.03362 -0.937359 0
M  V30 14427 H 1367.91 4.93156 -2.92353 0
M  V30 14428 H 1366.31 4.73292 -3.68938 0
M  V30 14429 H 1367.38 3.32887 -3.52583 0
M  V30 14430 N 1368.72 1.0394 1.18466 0
M  V30 14431 C 1370.13 0.77011 1.70077 0
M  V30 14432 C 1370.48 -0.70916 1.82935 0
M  V30 14433 O 1369.61 -1.55209 1.50795 0
M  V30 14434 C 1370.2 1.39132 3.08914 0
M  V30 14435 C 1368.76 1.17037 3.57742 0
M  V30 14436 C 1367.91 1.48279 2.34326 0
M  V30 14437 H 1370.86 1.20598 1.03159 0
M  V30 14438 H 1370.88 0.793861 3.72126 0
M  V30 14439 H 1370.39 2.46795 2.99523 0
M  V30 14440 H 1368.49 0.112435 3.7243 0
M  V30 14441 H 1368.61 1.8665 4.41247 0
M  V30 14442 H 1366.97 0.902438 2.38177 0
M  V30 14443 H 1367.75 2.57047 2.27556 0
M  V30 14444 N 1370.2 -1.34667 0.818693 0
M  V30 14445 C 1371.42 -2.03173 0.416585 0
M  V30 14446 C 1371.85 -1.61261 -0.968321 0
M  V30 14447 O 1371.21 -0.79517 -1.62932 0
M  V30 14448 C 1371.25 -3.56803 0.521884 0
M  V30 14449 O 1370.36 -4.09827 -0.459953 0
M  V30 14450 H 1369.7 -0.6413 0.172136 0
M  V30 14451 H 1372.23 -1.72006 1.10794 0
M  V30 14452 H 1372.24 -4.06073 0.3961 0
M  V30 14453 H 1370.91 -3.86656 1.53198 0
M  V30 14454 H 1369.49 -3.71744 -0.293405 0
M  V30 14455 N 1371.68 -0.573274 -1.46804 0
M  V30 14456 C 1372.9 -0.0586717 -2.07317 0
M  V30 14457 C 1373.33 1.2328 -1.42069 0
M  V30 14458 O 1372.68 1.74235 -0.501188 0
M  V30 14459 C 1372.73 0.103503 -3.60451 0
M  V30 14460 O 1371.84 1.16229 -3.95682 0
M  V30 14461 H 1371.18 -0.0585504 -0.661414 0
M  V30 14462 H 1373.71 -0.793532 -1.88585 0
M  V30 14463 H 1373.72 0.312658 -4.068 0
M  V30 14464 H 1372.39 -0.839684 -4.07335 0
M  V30 14465 H 1370.97 0.932347 -3.61056 0
M  V30 14466 N 1373.15 1.5451 -0.310553 0
M  V30 14467 C 1374.38 2.05204 0.301013 0
M  V30 14468 C 1374.8 1.1859 1.46007 0
M  V30 14469 O 1374.16 0.192081 1.8028 0
M  V30 14470 C 1374.21 3.53221 0.725767 0
M  V30 14471 O 1373.31 3.69596 1.82955 0
M  V30 14472 H 1372.66 0.661566 0.0568026 0
M  V30 14473 H 1375.19 1.99473 -0.455178 0
M  V30 14474 H 1375.2 3.9525 1.01198 0
M  V30 14475 H 1373.87 4.15721 -0.122046 0
M  V30 14476 H 1372.45 3.39472 1.54315 0
M  V30 14477 N 1374.63 0.0384594 1.57553 0
M  V30 14478 C 1376.05 -0.318006 1.564 0
M  V30 14479 C 1376.25 -1.72287 1.04496 0
M  V30 14480 O 1375.31 -2.42722 0.695861 0
M  V30 14481 C 1376.62 -0.158079 3.00284 0
M  V30 14482 C 1378.17 -0.230143 3.12153 0
M  V30 14483 C 1378.64 -0.0988948 4.57893 0
M  V30 14484 N 1380.13 -0.15558 4.62939 0
M  V30 14485 C 1380.87 -0.077948 5.73347 0
M  V30 14486 N 1380.36 0.0513054 6.92781 0
M  V30 14487 N 1382.16 -0.132612 5.61944 0
M  V30 14488 H 1374.31 0.957014 1.89618 0
M  V30 14489 H 1376.57 0.370396 0.872646 0
M  V30 14490 H 1376.28 0.810032 3.42245 0
M  V30 14491 H 1376.15 -0.924413 3.65697 0
M  V30 14492 H 1378.54 -1.18872 2.70099 0
M  V30 14493 H 1378.62 0.56673 2.49443 0
M  V30 14494 H 1378.26 0.856301 5.00629 0
M  V30 14495 H 1378.19 -0.91475 5.18594 0
M  V30 14496 H 1380.68 -0.255245 3.77037 0
M  V30 14497 H 1381 0.103595 7.72731 0
M  V30 14498 H 1379.34 0.0862166 6.94947 0
M  V30 14499 H 1382.53 -0.232056 4.67524 0
M  V30 14500 H 1382.71 -0.0686506 6.47964 0
M  V30 14501 N 1376.11 -1.55841 -0.234795 0
M  V30 14502 C 1377.34 -1.82649 -0.982547 0
M  V30 14503 C 1377.76 -0.617097 -1.77689 0
M  V30 14504 O 1377.12 0.434022 -1.76028 0
M  V30 14505 C 1377.17 -3.07319 -1.88646 0
M  V30 14506 O 1376.27 -2.85084 -2.97995 0
M  V30 14507 H 1375.61 -0.60257 -0.278936 0
M  V30 14508 H 1378.14 -2.03041 -0.252117 0
M  V30 14509 H 1378.15 -3.37073 -2.29882 0
M  V30 14510 H 1376.83 -3.94978 -1.30251 0
M  V30 14511 H 1375.4 -2.66528 -2.60801 0
M  V30 14512 N 1377.59 0.500963 -1.49426 0
M  V30 14513 C 1378.84 1.25261 -1.58601 0
M  V30 14514 C 1379.16 1.93056 -0.274647 0
M  V30 14515 O 1378.43 1.82736 0.706003 0
M  V30 14516 H 1377.01 0.465328 -0.584362 0
M  V30 14517 H 1379.67 0.580588 -1.86052 0
M  V30 14518 H 1378.77 2.01652 -2.38208 0
M  V30 14519 N 1379.07 1.38501 0.752011 0
M  V30 14520 C 1380.32 1.34529 1.50819 0
M  V30 14521 C 1380.64 -0.0636155 1.94896 0
M  V30 14522 O 1379.91 -1.01161 1.6776 0
M  V30 14523 H 1378.49 0.49501 0.559441 0
M  V30 14524 H 1381.15 1.73196 0.893822 0
M  V30 14525 H 1380.24 1.99713 2.39835 0
M  V30 14526 N 1380.55 -0.980364 1.23396 0
M  V30 14527 C 1381.77 -1.76223 1.09363 0
M  V30 14528 C 1382.2 -1.84801 -0.350759 0
M  V30 14529 O 1381.55 -1.30966 -1.2537 0
M  V30 14530 C 1381.6 -3.16728 1.72383 0
M  V30 14531 O 1380.71 -4.00439 0.986002 0
M  V30 14532 H 1380.05 -0.542174 0.383332 0
M  V30 14533 H 1382.58 -1.23066 1.6345 0
M  V30 14534 H 1382.59 -3.67307 1.77623 0
M  V30 14535 H 1381.26 -3.098 2.77483 0
M  V30 14536 H 1379.84 -3.58946 1.01054 0
M  V30 14537 N 1382.02 -1.04567 -1.17913 0
M  V30 14538 C 1383.27 -0.750538 -1.87647 0
M  V30 14539 C 1383.59 0.72423 -1.81052 0
M  V30 14540 O 1382.86 1.52292 -1.23223 0
M  V30 14541 H 1381.44 -0.274636 -0.694683 0
M  V30 14542 H 1384.1 -1.32349 -1.43072 0
M  V30 14543 H 1383.2 -1.05987 -2.93553 0
M  V30 14544 N 1383.5 1.34231 -0.825823 0
M  V30 14545 C 1384.73 2.02949 -0.427354 0
M  V30 14546 C 1385.15 1.61772 0.959755 0
M  V30 14547 O 1384.51 0.803799 1.62508 0
M  V30 14548 C 1384.56 3.56522 -0.540799 0
M  V30 14549 O 1383.66 4.10065 0.438213 0
M  V30 14550 H 1383 0.640378 -0.175535 0
M  V30 14551 H 1385.53 1.71416 -1.11704 0
M  V30 14552 H 1385.54 4.05857 -0.41763 0
M  V30 14553 H 1384.22 3.85839 -1.55246 0
M  V30 14554 H 1382.79 3.71894 0.273687 0
M  V30 14555 N 1384.98 0.581051 1.46498 0
M  V30 14556 C 1386.2 0.0696654 2.07283 0
M  V30 14557 C 1386.63 -1.22525 1.42721 0
M  V30 14558 O 1385.99 -1.73967 0.510421 0
M  V30 14559 C 1386.04 -0.0843864 3.60501 0
M  V30 14560 O 1385.14 -1.14129 3.96293 0
M  V30 14561 H 1384.48 0.0620572 0.661094 0
M  V30 14562 H 1387.01 0.803522 1.88161 0
M  V30 14563 H 1387.02 -0.29108 4.0696 0
M  V30 14564 H 1385.7 0.861274 4.06884 0
M  V30 14565 H 1384.27 -0.913186 3.61546 0
M  V30 14566 N 1386.46 -1.54343 0.318742 0
M  V30 14567 C 1387.68 -2.05361 -0.290126 0
M  V30 14568 C 1388.11 -1.19362 -1.45376 0
M  V30 14569 O 1387.47 -0.201639 -1.80175 0
M  V30 14570 C 1387.51 -3.53601 -0.707025 0
M  V30 14571 O 1386.62 -3.70561 -1.80992 0
M  V30 14572 H 1385.96 -0.661858 -0.0532933 0
M  V30 14573 H 1388.49 -1.99228 0.46575 0
M  V30 14574 H 1388.5 -3.95782 -0.991005 0
M  V30 14575 H 1387.17 -4.1565 0.144091 0
M  V30 14576 H 1385.75 -3.40286 -1.52513 0
M  V30 14577 N 1387.94 -0.0468143 -1.5753 0
M  V30 14578 C 1389.16 0.641161 -1.97241 0
M  V30 14579 C 1389.59 1.6384 -0.92401 0
M  V30 14580 O 1388.94 1.80946 0.113229 0
M  V30 14581 C 1388.99 1.30832 -3.36029 0
M  V30 14582 O 1388.1 2.42394 -3.33645 0
M  V30 14583 H 1387.44 0.167035 -0.642647 0
M  V30 14584 H 1389.97 -0.113921 -2.04283 0
M  V30 14585 H 1389.98 1.66102 -3.72658 0
M  V30 14586 H 1388.65 0.57744 -4.11872 0
M  V30 14587 H 1387.23 2.09104 -3.08756 0
M  V30 14588 N 1389.41 1.55964 0.226527 0
M  V30 14589 C 1390.32 1.95169 1.30178 0
M  V30 14590 C 1391.34 0.854831 1.51554 0
M  V30 14591 O 1392.52 1.15798 1.64781 0
M  V30 14592 C 1389.58 2.25612 2.63249 0
M  V30 14593 C 1388.64 3.4884 2.50219 0
M  V30 14594 C 1387.88 3.77822 3.76944 0
M  V30 14595 O 1388.1 3.08556 4.79739 0
M  V30 14596 O 1387.03 4.7132 3.74354 0
M  V30 14597 H 1390.86 2.86794 0.999145 0
M  V30 14598 H 1388.44 1.43109 0.42898 0
M  V30 14599 H 1390.33 2.4641 3.41848 0
M  V30 14600 H 1389 1.37162 2.93203 0
M  V30 14601 H 1387.91 3.33326 1.69836 0
M  V30 14602 H 1389.24 4.37657 2.25205 0
M  V30 14603 N 1390.89 -0.493031 1.4969 0
M  V30 14604 C 1391.82 -1.60215 1.69863 0
M  V30 14605 C 1392.8 -1.61053 0.547362 0
M  V30 14606 O 1393.99 -1.77667 0.784093 0
M  V30 14607 C 1391.12 -2.98662 1.77252 0
M  V30 14608 C 1390.07 -3.1269 2.92248 0
M  V30 14609 C 1389.4 -4.52567 2.84758 0
M  V30 14610 C 1390.7 -2.91965 4.33074 0
M  V30 14611 H 1392.39 -1.43587 2.62723 0
M  V30 14612 H 1389.94 -0.689334 1.26429 0
M  V30 14613 H 1391.89 -3.7616 1.89951 0
M  V30 14614 H 1390.62 -3.16397 0.809976 0
M  V30 14615 H 1389.27 -2.37619 2.79164 0
M  V30 14616 H 1388.92 -4.6719 1.86394 0
M  V30 14617 H 1388.62 -4.62893 3.61944 0
M  V30 14618 H 1390.15 -5.32116 2.99475 0
M  V30 14619 H 1391.56 -3.59228 4.46798 0
M  V30 14620 H 1389.96 -3.13756 5.11544 0
M  V30 14621 H 1391.03 -1.88015 4.46966 0
M  V30 14622 N 1392.37 -1.38898 -0.744656 0
M  V30 14623 C 1393.28 -1.39098 -1.88915 0
M  V30 14624 C 1394.3 -0.286956 -1.71617 0
M  V30 14625 O 1395.47 -0.526852 -1.94387 0
M  V30 14626 C 1392.54 -1.22352 -3.24393 0
M  V30 14627 C 1391.6 -2.4264 -3.54153 0
M  V30 14628 C 1390.83 -2.26683 -4.83167 0
M  V30 14629 O 1391.05 -1.26523 -5.56191 0
M  V30 14630 O 1389.99 -3.15464 -5.12607 0
M  V30 14631 H 1393.81 -2.35551 -1.91701 0
M  V30 14632 H 1391.4 -1.19911 -0.891158 0
M  V30 14633 H 1393.28 -1.15109 -4.05374 0
M  V30 14634 H 1391.96 -0.289886 -3.22399 0
M  V30 14635 H 1390.86 -2.55459 -2.73298 0
M  V30 14636 H 1392.2 -3.34664 -3.60917 0
M  V30 14637 N 1393.85 0.973806 -1.23914 0
M  V30 14638 C 1394.76 2.10138 -1.04304 0
M  V30 14639 C 1395.77 1.73994 0.0143888 0
M  V30 14640 O 1396.95 2.00572 -0.182481 0
M  V30 14641 C 1394.02 3.40673 -0.643639 0
M  V30 14642 C 1393.08 3.90802 -1.77686 0
M  V30 14643 C 1392.31 5.15108 -1.39642 0
M  V30 14644 O 1392.53 5.69695 -0.283546 0
M  V30 14645 O 1391.47 5.59468 -2.21988 0
M  V30 14646 H 1395.29 2.29574 -1.9882 0
M  V30 14647 H 1392.88 1.08524 -1.02679 0
M  V30 14648 H 1394.76 4.19178 -0.432145 0
M  V30 14649 H 1393.43 3.22551 0.272458 0
M  V30 14650 H 1392.34 3.13385 -2.04305 0
M  V30 14651 H 1393.67 4.1339 -2.67151 0
M  V30 14652 N 1395.33 1.05191 1.17357 0
M  V30 14653 C 1396.24 0.663617 2.25018 0
M  V30 14654 C 1397.25 -0.315299 1.71119 0
M  V30 14655 O 1398.43 -0.167398 2.00703 0
M  V30 14656 C 1395.49 0.0443307 3.46672 0
M  V30 14657 C 1394.55 1.07369 4.15656 0
M  V30 14658 C 1393.79 0.483864 5.31502 0
M  V30 14659 O 1394.01 -0.706692 5.66005 0
M  V30 14660 O 1392.94 1.21812 5.89445 0
M  V30 14661 H 1396.77 1.56088 2.60519 0
M  V30 14662 H 1394.36 0.823474 1.24657 0
M  V30 14663 H 1396.24 -0.299839 4.20332 0
M  V30 14664 H 1394.91 -0.826579 3.12969 0
M  V30 14665 H 1393.82 1.46985 3.44015 0
M  V30 14666 H 1395.15 1.91575 4.53387 0
M  V30 14667 N 1396.8 -1.33791 0.83293 0
M  V30 14668 C 1398.03 -2.0272 0.438111 0
M  V30 14669 C 1398.45 -1.62279 -0.951163 0
M  V30 14670 O 1397.81 -0.812406 -1.62079 0
M  V30 14671 C 1397.86 -3.5623 0.559698 0
M  V30 14672 O 1396.96 -4.10292 -0.41646 0
M  V30 14673 H 1396.31 -0.639438 0.178928 0
M  V30 14674 H 1398.84 -1.70821 1.12612 0
M  V30 14675 H 1398.85 -4.0563 0.439148 0
M  V30 14676 H 1397.52 -3.8501 1.5729 0
M  V30 14677 H 1396.1 -3.72034 -0.25396 0
M  V30 14678 N 1398.28 -0.588812 -1.46187 0
M  V30 14679 C 1399.51 -0.0806571 -2.07243 0
M  V30 14680 C 1399.93 1.21766 -1.43369 0
M  V30 14681 O 1399.29 1.73694 -0.51964 0
M  V30 14682 C 1399.34 0.065267 -3.60541 0
M  V30 14683 O 1398.44 1.12026 -3.96893 0
M  V30 14684 H 1397.78 -0.0655622 -0.660755 0
M  V30 14685 H 1400.31 -0.813489 -1.87733 0
M  V30 14686 H 1400.32 0.269494 -4.07109 0
M  V30 14687 H 1399 -0.88284 -4.06422 0
M  V30 14688 H 1397.58 0.894 -3.62025 0
M  V30 14689 N 1399.76 1.54172 -0.326923 0
M  V30 14690 C 1400.99 2.05512 0.279231 0
M  V30 14691 C 1401.41 1.20131 1.44741 0
M  V30 14692 O 1400.77 0.211191 1.80066 0
M  V30 14693 C 1400.82 3.53971 0.688263 0
M  V30 14694 O 1399.92 3.71516 1.79025 0
M  V30 14695 H 1399.26 0.662131 0.0497826 0
M  V30 14696 H 1401.79 1.98979 -0.476309 0
M  V30 14697 H 1401.8 3.96302 0.970002 0
M  V30 14698 H 1400.48 4.15568 -0.166132 0
M  V30 14699 H 1399.05 3.4109 1.50706 0
M  V30 14700 N 1401.24 0.0551678 1.57503 0
M  V30 14701 C 1402.15 -0.932959 2.15251 0
M  V30 14702 C 1403.16 -1.33885 1.11134 0
M  V30 14703 O 1404.34 -1.41495 1.43321 0
M  V30 14704 C 1401.41 -2.18807 2.68932 0
M  V30 14705 C 1400.47 -1.84016 3.87862 0
M  V30 14706 C 1399.7 -3.03543 4.38973 0
M  V30 14707 O 1399.92 -4.17041 3.89144 0
M  V30 14708 O 1398.86 -2.84325 5.30512 0
M  V30 14709 H 1402.68 -0.471816 3.00013 0
M  V30 14710 H 1400.27 -0.16696 1.48464 0
M  V30 14711 H 1402.15 -2.92439 3.0341 0
M  V30 14712 H 1400.82 -2.64051 1.87239 0
M  V30 14713 H 1399.73 -1.07687 3.58266 0
M  V30 14714 H 1401.06 -1.43567 4.70796 0
M  V30 14715 N 1402.72 -1.56081 -0.218252 0
M  V30 14716 C 1403.67 -1.89082 -1.27405 0
M  V30 14717 C 1404.65 -0.754204 -1.42129 0
M  V30 14718 O 1405.84 -1.01668 -1.44888 0
M  V30 14719 C 1402.97 -2.21387 -2.62379 0
M  V30 14720 C 1402.06 -3.41448 -2.51543 0
M  V30 14721 N 1402.45 -4.5998 -2.10362 0
M  V30 14722 C 1400.75 -3.45128 -2.82494 0
M  V30 14723 C 1401.45 -5.42139 -2.10857 0
M  V30 14724 N 1400.42 -4.81936 -2.51472 0
M  V30 14725 H 1404.23 -2.78238 -0.946609 0
M  V30 14726 H 1401.74 -1.56691 -0.426801 0
M  V30 14727 H 1403.74 -2.43205 -3.38611 0
M  V30 14728 H 1402.4 -1.33545 -2.95966 0
M  V30 14729 H 1403.41 -4.85077 -1.8144 0
M  V30 14730 H 1400.08 -2.67638 -3.20431 0
M  V30 14731 H 1401.47 -6.47029 -1.81114 0
M  V30 14732 N 1404.2 0.485086 -1.49949 0
M  V30 14733 C 1405.13 1.59312 -1.7071 0
M  V30 14734 C 1406.11 1.6076 -0.555896 0
M  V30 14735 O 1407.29 1.77249 -0.793504 0
M  V30 14736 C 1404.42 2.97718 -1.78834 0
M  V30 14737 C 1403.38 3.11136 -2.93902 0
M  V30 14738 C 1402.7 4.51051 -2.87154 0
M  V30 14739 C 1404 2.89665 -4.34617 0
M  V30 14740 H 1405.7 1.42192 -2.6348 0
M  V30 14741 H 1403.24 0.68262 -1.26792 0
M  V30 14742 H 1405.19 3.75148 -1.91943 0
M  V30 14743 H 1403.92 3.15963 -0.826744 0
M  V30 14744 H 1402.58 2.36135 -2.80421 0
M  V30 14745 H 1402.23 4.66195 -1.88869 0
M  V30 14746 H 1401.93 4.60967 -3.64394 0
M  V30 14747 H 1403.45 5.3052 -3.02293 0
M  V30 14748 H 1404.86 3.56853 -4.48697 0
M  V30 14749 H 1403.26 3.11039 -5.13201 0
M  V30 14750 H 1404.33 1.85642 -4.47956 0
M  V30 14751 N 1405.67 1.39291 0.737279 0
M  V30 14752 C 1406.9 1.39659 1.52653 0
M  V30 14753 C 1407.32 -0.00948259 1.88798 0
M  V30 14754 O 1406.67 -0.980249 1.53939 0
M  V30 14755 C 1406.72 2.2674 2.81552 0
M  V30 14756 O 1406.45 3.61871 2.46943 0
M  V30 14757 C 1407.95 2.35466 3.75594 0
M  V30 14758 H 1405.17 0.477108 0.471814 0
M  V30 14759 H 1407.71 1.83077 0.911205 0
M  V30 14760 H 1405.87 1.86741 3.39421 0
M  V30 14761 H 1406.28 4.07897 3.29728 0
M  V30 14762 H 1407.75 3.00649 4.62941 0
M  V30 14763 H 1408.23 1.37314 4.17183 0
M  V30 14764 H 1408.84 2.75925 3.23644 0
M  V30 14765 N 1407.15 -0.967221 1.24429 0
M  V30 14766 C 1408.39 -1.72521 1.09617 0
M  V30 14767 C 1408.76 -1.88618 -0.358774 0
M  V30 14768 O 1409.96 -2.61351 -0.628408 0
M  V30 14769 C 1408.23 -3.07818 1.81612 0
M  V30 14770 S 1409.79 -3.99031 1.82537 0
M  V30 14771 H 1406.6 -0.593148 0.392041 0
M  V30 14772 H 1409.21 -1.15456 1.57766 0
M  V30 14773 H 1407.91 -2.93762 2.86586 0
M  V30 14774 H 1407.44 -3.69948 1.33799 0
M  V30 14775 H 1409.46 -4.88091 0.893391 0
M  V30 14776 N 1408.63 -1.05812 -1.16797 0
M  V30 14777 C 1409.87 -0.781055 -1.88889 0
M  V30 14778 C 1410.23 0.679797 -1.79563 0
M  V30 14779 O 1411.43 1.07124 -2.46532 0
M  V30 14780 C 1409.71 -1.25598 -3.34604 0
M  V30 14781 S 1411.26 -1.10724 -4.24601 0
M  V30 14782 H 1408.08 -0.28347 -0.652047 0
M  V30 14783 H 1410.68 -1.35404 -1.41018 0
M  V30 14784 H 1409.39 -2.31421 -3.38928 0
M  V30 14785 H 1408.92 -0.677541 -3.87522 0
M  V30 14786 H 1410.93 -0.0351807 -4.96188 0
M  V30 14787 N 1410.11 1.33347 -0.840014 0
M  V30 14788 C 1411.02 2.32965 -0.276527 0
M  V30 14789 C 1412.03 1.634 0.598037 0
M  V30 14790 O 1413.21 1.95046 0.501888 0
M  V30 14791 C 1410.27 3.42498 0.53816 0
M  V30 14792 C 1409.34 4.27781 -0.360814 0
M  V30 14793 C 1408.57 5.32083 0.415085 0
M  V30 14794 O 1408.79 5.46115 1.64666 0
M  V30 14795 O 1407.73 6.01528 -0.211503 0
M  V30 14796 H 1411.55 2.83022 -1.10147 0
M  V30 14797 H 1409.14 1.3671 -0.602566 0
M  V30 14798 H 1411.02 4.09336 1.00108 0
M  V30 14799 H 1409.69 2.94655 1.34015 0
M  V30 14800 H 1408.6 3.63805 -0.871598 0
M  V30 14801 H 1409.93 4.7911 -1.1276 0
M  V30 14802 N 1411.59 0.596556 1.45873 0
M  V30 14803 C 1412.52 -0.166704 2.28593 0
M  V30 14804 C 1413.53 -0.84231 1.39316 0
M  V30 14805 O 1414.72 -0.709548 1.63792 0
M  V30 14806 C 1411.82 -1.25641 3.1475 0
M  V30 14807 C 1410.99 -0.67006 4.32237 0
M  V30 14808 C 1410.05 -1.64924 4.99686 0
M  V30 14809 O 1409.08 -1.17986 5.56838 0
M  V30 14810 N 1410.28 -2.98355 4.9796 0
M  V30 14811 H 1413.04 0.543045 2.94739 0
M  V30 14812 H 1410.61 0.435274 1.55939 0
M  V30 14813 H 1412.6 -1.91104 3.56737 0
M  V30 14814 H 1411.17 -1.86883 2.50586 0
M  V30 14815 H 1410.39 0.162375 3.93865 0
M  V30 14816 H 1411.68 -0.258345 5.08144 0
M  V30 14817 H 1411.07 -3.39101 4.52799 0
M  V30 14818 H 1409.63 -3.5927 5.43846 0
M  V30 14819 N 1413.06 -1.53996 0.335095 0
M  V30 14820 C 1414.31 -2.00375 -0.263475 0
M  V30 14821 C 1414.63 -1.22471 -1.51742 0
M  V30 14822 O 1413.9 -0.329604 -1.93107 0
M  V30 14823 H 1412.48 -0.740229 -0.100347 0
M  V30 14824 H 1415.14 -1.89531 0.454302 0
M  V30 14825 H 1414.24 -3.07874 -0.511834 0
M  V30 14826 N 1414.54 -0.0635198 -1.57472 0
M  V30 14827 C 1415.82 0.648029 -1.84553 0
M  V30 14828 C 1416.2 1.88295 -0.954371 0
M  V30 14829 O 1415.55 2.28492 -0.0185351 0
M  V30 14830 C 1415.76 0.993573 -3.34558 0
M  V30 14831 C 1417.1 1.3706 -4.0187 0
M  V30 14832 O 1418.13 1.08555 -3.39255 0
M  V30 14833 O 1416.99 1.90309 -5.12294 0
M  V30 14834 H 1414.08 0.321047 -0.76214 0
M  V30 14835 H 1416.63 -0.0938223 -1.6944 0
M  V30 14836 H 1415.4 0.116139 -3.91128 0
M  V30 14837 H 1415.02 1.79246 -3.54904 0
M  V30 14838 N 1416.02 1.56195 0.209972 0
M  V30 14839 C 1417.27 1.78941 0.930744 0
M  V30 14840 C 1417.58 0.634139 1.85035 0
M  V30 14841 O 1418.79 0.745524 2.61064 0
M  V30 14842 C 1417.24 3.16935 1.70529 0
M  V30 14843 C 1416.85 4.40221 0.83125 0
M  V30 14844 C 1418.6 3.49 2.41659 0
M  V30 14845 C 1416.5 5.69238 1.60381 0
M  V30 14846 H 1415.43 0.667176 0.351273 0
M  V30 14847 H 1418.08 1.82572 0.184341 0
M  V30 14848 H 1416.47 3.07513 2.49503 0
M  V30 14849 H 1417.64 4.60728 0.081227 0
M  V30 14850 H 1415.95 4.15756 0.231517 0
M  V30 14851 H 1418.55 4.42623 2.99982 0
M  V30 14852 H 1418.89 2.72042 3.15117 0
M  V30 14853 H 1419.43 3.59804 1.69665 0
M  V30 14854 H 1416.17 6.49121 0.912292 0
M  V30 14855 H 1415.69 5.52772 2.32815 0
M  V30 14856 H 1417.37 6.09827 2.16149 0
M  V30 14857 N 1417.5 -0.477127 1.50204 0
M  V30 14858 C 1418.46 -1.55824 1.68082 0
M  V30 14859 C 1419.46 -1.51039 0.551719 0
M  V30 14860 O 1420.65 -1.53766 0.818638 0
M  V30 14861 C 1417.78 -2.95462 1.70044 0
M  V30 14862 H 1418.98 -1.41292 2.64531 0
M  V30 14863 H 1416.53 -0.70308 1.39594 0
M  V30 14864 H 1417.26 -3.15445 0.752663 0
M  V30 14865 H 1417.05 -3.00343 2.52065 0
M  V30 14866 H 1418.54 -3.73964 1.85851 0
M  V30 14867 N 1418.98 -1.3968 -0.729882 0
M  V30 14868 C 1419.91 -1.34713 -1.85432 0
M  V30 14869 C 1420.92 -0.254999 -1.60791 0
M  V30 14870 O 1422.11 -0.514324 -1.7093 0
M  V30 14871 C 1419.21 -1.07019 -3.21559 0
M  V30 14872 C 1418.38 -2.27609 -3.73515 0
M  V30 14873 C 1417.44 -1.96292 -4.88217 0
M  V30 14874 O 1416.47 -2.69025 -5.01612 0
M  V30 14875 N 1417.67 -0.932181 -5.72967 0
M  V30 14876 H 1420.44 -2.31616 -1.90195 0
M  V30 14877 H 1418 -1.33849 -0.910834 0
M  V30 14878 H 1419.99 -0.84079 -3.9587 0
M  V30 14879 H 1418.56 -0.188323 -3.12032 0
M  V30 14880 H 1417.78 -2.66468 -2.90497 0
M  V30 14881 H 1419.07 -3.08033 -4.04961 0
M  V30 14882 H 1418.46 -0.329507 -5.6474 0
M  V30 14883 H 1417.02 -0.762684 -6.47322 0
M  V30 14884 N 1420.45 0.960609 -1.2494 0
M  V30 14885 C 1421.87 1.51915 -1.0853 0
M  V30 14886 C 1422.22 1.93215 0.340949 0
M  V30 14887 O 1421.34 1.78031 1.2302 0
M  V30 14888 C 1421.94 2.76069 -1.96396 0
M  V30 14889 C 1420.5 3.28255 -1.84189 0
M  V30 14890 C 1419.64 2.01124 -1.90905 0
M  V30 14891 H 1422.59 0.778141 -1.38314 0
M  V30 14892 H 1422.61 3.49668 -1.50042 0
M  V30 14893 H 1422.13 2.45979 -3.00193 0
M  V30 14894 H 1420.23 3.6318 -0.832518 0
M  V30 14895 H 1420.34 3.96675 -2.68673 0
M  V30 14896 H 1418.7 2.16155 -1.34718 0
M  V30 14897 H 1419.49 1.73389 -2.96295 0
M  V30 14898 N 1421.93 1.0643 1.16234 0
M  V30 14899 C 1422.86 0.697605 2.22836 0
M  V30 14900 C 1423.84 -0.310563 1.67241 0
M  V30 14901 O 1425.03 -0.185385 1.93313 0
M  V30 14902 C 1422.16 0.0847097 3.47197 0
M  V30 14903 C 1421.11 1.019 4.15693 0
M  V30 14904 C 1420.44 0.269339 5.34021 0
M  V30 14905 C 1421.74 2.34861 4.66516 0
M  V30 14906 H 1423.43 1.58883 2.53765 0
M  V30 14907 H 1420.98 0.765388 1.21975 0
M  V30 14908 H 1422.93 -0.1837 4.20999 0
M  V30 14909 H 1421.66 -0.84154 3.15572 0
M  V30 14910 H 1420.31 1.27218 3.43818 0
M  V30 14911 H 1419.96 -0.660072 4.9865 0
M  V30 14912 H 1419.66 0.892001 5.8079 0
M  V30 14913 H 1421.19 0.00850775 6.10599 0
M  V30 14914 H 1422.6 2.13922 5.31893 0
M  V30 14915 H 1421 2.92637 5.23912 0
M  V30 14916 H 1422.07 2.97834 3.82653 0
M  V30 14917 N 1423.41 -1.329 0.847073 0
M  V30 14918 C 1424.34 -2.31546 0.301422 0
M  V30 14919 C 1425.32 -1.59342 -0.595317 0
M  V30 14920 O 1426.51 -1.87188 -0.517151 0
M  V30 14921 C 1423.64 -3.43423 -0.517454 0
M  V30 14922 C 1422.59 -4.27055 0.284195 0
M  V30 14923 C 1421.92 -5.30624 -0.658944 0
M  V30 14924 C 1423.22 -5.00123 1.50578 0
M  V30 14925 H 1424.91 -2.77433 1.12567 0
M  V30 14926 H 1422.46 -1.3338 0.542739 0
M  V30 14927 H 1424.41 -4.11467 -0.909543 0
M  V30 14928 H 1423.13 -2.96246 -1.37499 0
M  V30 14929 H 1421.79 -3.60648 0.657944 0
M  V30 14930 H 1421.44 -4.79702 -1.51311 0
M  V30 14931 H 1421.14 -5.87464 -0.12662 0
M  V30 14932 H 1422.66 -6.01533 -1.04837 0
M  V30 14933 H 1424.08 -5.6089 1.18641 0
M  V30 14934 H 1422.48 -5.66652 1.97549 0
M  V30 14935 H 1423.55 -4.28424 2.27115 0
M  V30 14936 N 1424.89 -0.604284 -1.45555 0
M  V30 14937 C 1425.82 0.154579 -2.28678 0
M  V30 14938 C 1426.83 0.83491 -1.39761 0
M  V30 14939 O 1428.02 0.700852 -1.64166 0
M  V30 14940 C 1425.12 1.2397 -3.15412 0
M  V30 14941 C 1424.3 0.647128 -4.32586 0
M  V30 14942 C 1423.35 1.62272 -5.00554 0
M  V30 14943 O 1422.38 1.15031 -5.57455 0
M  V30 14944 N 1423.58 2.9571 -4.99536 0
M  V30 14945 H 1426.35 -0.558668 -2.94447 0
M  V30 14946 H 1423.91 -0.443538 -1.55706 0
M  V30 14947 H 1425.9 1.89209 -3.57746 0
M  V30 14948 H 1424.47 1.85552 -2.51574 0
M  V30 14949 H 1423.69 -0.183261 -3.93774 0
M  V30 14950 H 1424.98 0.231394 -5.08274 0
M  V30 14951 H 1424.38 3.36695 -4.54591 0
M  V30 14952 H 1422.93 3.56381 -5.45744 0
M  V30 14953 N 1426.37 1.53816 -0.343257 0
M  V30 14954 C 1427.78 1.86169 0.140709 0
M  V30 14955 C 1428.13 1.26449 1.50017 0
M  V30 14956 O 1427.25 0.577955 2.08539 0
M  V30 14957 C 1427.85 3.37785 0.262097 0
M  V30 14958 C 1426.41 3.70016 0.690294 0
M  V30 14959 C 1425.55 2.7674 -0.17614 0
M  V30 14960 H 1428.51 1.48383 -0.562863 0
M  V30 14961 H 1428.53 3.64564 1.08964 0
M  V30 14962 H 1428.04 3.81221 -0.727481 0
M  V30 14963 H 1426.14 3.32124 1.68891 0
M  V30 14964 H 1426.25 4.76686 0.480388 0
M  V30 14965 H 1424.62 2.52263 0.351476 0
M  V30 14966 H 1425.4 3.23006 -1.16285 0
M  V30 14967 N 1427.84 0.0718701 1.57436 0
M  V30 14968 C 1428.79 -0.913026 2.13931 0
M  V30 14969 C 1429.79 -1.3082 1.07622 0
M  V30 14970 O 1430.99 -1.28544 1.26002 0
M  V30 14971 H 1427.37 -0.31238 0.684049 0
M  V30 14972 H 1429.34 -0.411613 2.95547 0
M  V30 14973 C 1428.09 -2.17109 2.71586 0
M  V30 14974 H 1427.41 -1.87585 3.53061 0
M  V30 14975 H 1428.85 -2.84134 3.14712 0
M  V30 14976 C 1427.31 -2.92967 1.6635 0
M  V30 14977 O 1427.84 -3.8667 1.08854 0
M  V30 14978 N 1426.05 -2.56075 1.37383 0
M  V30 14979 H 1425.59 -1.79949 1.84326 0
M  V30 14980 H 1425.55 -3.07134 0.672039 0
M  V30 14981 N 1429.32 -1.56304 -0.201686 0
M  V30 14982 C 1430.27 -1.94901 -1.26949 0
M  V30 14983 C 1431.26 -0.833574 -1.47472 0
M  V30 14984 O 1432.47 -1.01854 -1.48411 0
M  V30 14985 H 1428.85 -0.619663 -0.426053 0
M  V30 14986 H 1430.82 -2.83964 -0.9169 0
M  V30 14987 C 1429.57 -2.29913 -2.60835 0
M  V30 14988 H 1428.89 -3.15268 -2.45858 0
M  V30 14989 H 1430.33 -2.60789 -3.34313 0
M  V30 14990 C 1428.79 -1.13136 -3.17335 0
M  V30 14991 O 1429.32 -0.402915 -3.99674 0
M  V30 14992 N 1427.52 -0.909912 -2.75987 0
M  V30 14993 H 1427.07 -1.50402 -2.09134 0
M  V30 14994 H 1427.03 -0.130348 -3.1413 0
M  V30 14995 N 1430.8 0.469154 -1.50455 0
M  V30 14996 C 1432.03 1.24252 -1.65061 0
M  V30 14997 C 1432.44 1.86226 -0.334121 0
M  V30 14998 O 1431.78 1.70082 0.694109 0
M  V30 14999 C 1431.84 2.39007 -2.68544 0
M  V30 15000 C 1431.51 1.97655 -4.12046 0
M  V30 15001 C 1432.5 1.49796 -4.97852 0
M  V30 15002 C 1430.19 2.06316 -4.57973 0
M  V30 15003 C 1432.18 1.11145 -6.27635 0
M  V30 15004 C 1429.87 1.67276 -5.8776 0
M  V30 15005 C 1430.87 1.19769 -6.72417 0
M  V30 15006 O 1430.56 0.812708 -7.99781 0
M  V30 15007 H 1430.29 0.381848 -0.557824 0
M  V30 15008 H 1432.84 0.566191 -1.97442 0
M  V30 15009 H 1431.07 3.09817 -2.31409 0
M  V30 15010 H 1432.76 3.00965 -2.7235 0
M  V30 15011 H 1433.53 1.42525 -4.63586 0
M  V30 15012 H 1429.41 2.42242 -3.92224 0
M  V30 15013 H 1432.95 0.739936 -6.93665 0
M  V30 15014 H 1428.85 1.74208 -6.21548 0
M  V30 15015 H 1429.62 0.941386 -8.13068 0
M  V30 15016 N 1432.28 1.40065 0.722464 0
M  V30 15017 C 1433.21 1.35695 1.84715 0
M  V30 15018 C 1434.22 0.263522 1.60653 0
M  V30 15019 O 1435.41 0.523382 1.70655 0
M  V30 15020 C 1432.51 1.08722 3.20987 0
M  V30 15021 C 1431.69 2.29586 3.72302 0
M  V30 15022 C 1430.74 1.98879 4.87169 0
M  V30 15023 O 1429.77 2.71681 5.00178 0
M  V30 15024 N 1430.97 0.962554 5.72464 0
M  V30 15025 H 1433.74 2.32621 1.88964 0
M  V30 15026 H 1431.3 1.3433 0.903723 0
M  V30 15027 H 1433.29 0.861772 3.95418 0
M  V30 15028 H 1431.86 0.204869 3.11928 0
M  V30 15029 H 1431.08 2.68004 2.8908 0
M  V30 15030 H 1432.37 3.10176 4.03322 0
M  V30 15031 H 1431.77 0.359452 5.64557 0
M  V30 15032 H 1430.32 0.797003 6.46909 0
M  V30 15033 N 1433.76 -0.95397 1.25448 0
M  V30 15034 C 1435 -1.69866 1.10235 0
M  V30 15035 C 1435.33 -1.91204 -0.356552 0
M  V30 15036 O 1434.59 -1.4811 -1.27914 0
M  V30 15037 C 1434.89 -3.08613 1.80258 0
M  V30 15038 C 1434.55 -3.07072 3.30178 0
M  V30 15039 C 1433.21 -3.0636 3.71076 0
M  V30 15040 C 1435.57 -3.00351 4.25956 0
M  V30 15041 C 1432.89 -2.96675 5.06163 0
M  V30 15042 C 1435.25 -2.92209 5.61067 0
M  V30 15043 C 1433.91 -2.89832 6.01293 0
M  V30 15044 H 1433.18 -0.621583 0.40338 0
M  V30 15045 H 1435.83 -1.11448 1.55729 0
M  V30 15046 H 1434.13 -3.70578 1.27197 0
M  V30 15047 H 1435.83 -3.65055 1.6594 0
M  V30 15048 H 1432.42 -3.084 2.97637 0
M  V30 15049 H 1436.6 -3.0002 3.9535 0
M  V30 15050 H 1431.86 -2.93204 5.36508 0
M  V30 15051 H 1436.03 -2.8597 6.34976 0
M  V30 15052 H 1433.66 -2.82084 7.05927 0
M  V30 15053 N 1435.24 -1.07045 -1.15668 0
M  V30 15054 C 1436.48 -0.801045 -1.8805 0
M  V30 15055 C 1436.84 0.660714 -1.80274 0
M  V30 15056 O 1438.04 1.04503 -2.47654 0
M  V30 15057 C 1436.31 -1.2914 -3.33253 0
M  V30 15058 S 1437.87 -1.15221 -4.23402 0
M  V30 15059 H 1434.69 -0.29037 -0.649004 0
M  V30 15060 H 1437.29 -1.36892 -1.39574 0
M  V30 15061 H 1435.99 -2.35003 -3.36455 0
M  V30 15062 H 1435.53 -0.718605 -3.86781 0
M  V30 15063 H 1437.54 -0.087806 -4.96122 0
M  V30 15064 O 1436.75 1.27733 -0.98826 0
M  V30 15065 H 1437.44 1.82965 -0.635898 0
M  V30 END ATOM
M  V30 BEGIN BOND
M  V30 END BOND
M  V30 END CTAB
M  END
$$$$
