drugbank_target|O15554 Intermediate conductance calcium-activated potassium channel protein 4 (DB00257; DB00468; DB01159)
 OpenBabel12092119313D

  0  0  0     0  0            999 V3000
M  V30 BEGIN CTAB
M  V30 COUNTS 6853 6924 0 0 0
M  V30 BEGIN ATOM
M  V30 1 H -0.908 1.98254 -0.117106 0
M  V30 2 N 0 1.576 0 0
M  V30 3 C 0.933 2.03868 1.02534 0
M  V30 4 C 1.911 0.928543 1.3348 0
M  V30 5 O 3.095 1.19667 1.45644 0
M  V30 6 C 0.222 2.43627 2.35294 0
M  V30 7 C -0.732 3.65373 2.2001 0
M  V30 8 S 0.101 5.13292 1.52614 0
M  V30 9 C 1.257 5.56322 2.86805 0
M  V30 10 H 1.49 2.90518 0.631377 0
M  V30 11 H -0.977 1.52953 0.210867 0
M  V30 12 H 0.981 2.67203 3.11629 0
M  V30 13 H -0.358 1.57376 2.7183 0
M  V30 14 H -1.165 3.90944 3.18086 0
M  V30 15 H -1.563 3.418 1.51819 0
M  V30 16 H 0.729 5.58782 3.83104 0
M  V30 17 H 1.672 6.56266 2.65933 0
M  V30 18 H 2.08 4.83886 2.90714 0
M  V30 19 N 1.4781 -0.272755 1.55222 0
M  V30 20 C 2.7261 -1.00234 1.75492 0
M  V30 21 C 3.0471 -1.8681 0.5592 0
M  V30 22 O 2.3171 -1.91215 -0.425882 0
M  V30 23 H 0.8971 -0.373076 0.647166 0
M  V30 24 H 3.5591 -0.296926 1.92625 0
M  V30 25 H 2.6551 -1.63913 2.65592 0
M  V30 26 N 2.9562 -1.48159 -0.537278 0
M  V30 27 C 4.2042 -1.55497 -1.29094 0
M  V30 28 C 4.5252 -0.227454 -1.93669 0
M  V30 29 O 3.7952 0.750386 -1.80959 0
M  V30 30 H 2.3752 -0.572832 -0.47945 0
M  V30 31 H 5.0372 -1.84579 -0.625818 0
M  V30 32 H 4.1332 -2.33216 -2.07405 0
M  V30 33 N 4.4343 0.785586 -1.36625 0
M  V30 34 C 5.7113 1.53198 -1.21613 0
M  V30 35 C 6.0913 2.10187 0.196113 0
M  V30 36 O 5.4393 1.94318 1.20219 0
M  V30 37 C 5.6493 2.62388 -2.30116 0
M  V30 38 C 6.9973 3.30167 -2.66974 0
M  V30 39 O 8.0213 2.72674 -2.29188 0
M  V30 40 O 6.8803 4.34077 -3.32023 0
M  V30 41 H 3.9743 0.677865 -0.473738 0
M  V30 42 H 6.5203 0.823739 -1.48367 0
M  V30 43 H 5.2923 2.18299 -3.24748 0
M  V30 44 H 4.9153 3.40827 -2.0475 0
M  V30 45 N 5.9124 1.20967 1.01018 0
M  V30 46 C 6.8424 0.988272 2.11555 0
M  V30 47 C 7.8234 -0.0849778 1.69888 0
M  V30 48 O 9.0084 0.0738202 1.9406 0
M  V30 49 C 6.1384 0.546528 3.42973 0
M  V30 50 C 5.0924 1.56375 3.9841 0
M  V30 51 C 4.4184 0.97842 5.25672 0
M  V30 52 C 5.7184 2.94922 4.31066 0
M  V30 53 H 7.4124 1.91276 2.30334 0
M  V30 54 H 4.9584 0.921073 1.1069 0
M  V30 55 H 6.9114 0.378839 4.19694 0
M  V30 56 H 5.6354 -0.413598 3.23971 0
M  V30 57 H 4.2944 1.71891 3.23804 0
M  V30 58 H 3.9424 0.0101688 5.02999 0
M  V30 59 H 3.6424 1.65784 5.63728 0
M  V30 60 H 5.1664 0.821939 6.05043 0
M  V30 61 H 6.5804 2.8288 4.9865 0
M  V30 62 H 4.9774 3.5983 4.80253 0
M  V30 63 H 6.0474 3.4616 3.39561 0
M  V30 64 N 7.3905 -1.2043 1.01659 0
M  V30 65 C 8.6365 -1.90079 0.706963 0
M  V30 66 C 8.9695 -1.78648 -0.761474 0
M  V30 67 O 8.2445 -1.17069 -1.55323 0
M  V30 68 C 8.5275 -3.41469 1.14327 0
M  V30 69 C 8.3805 -3.61833 2.67201 0
M  V30 70 C 9.6995 -4.34261 0.714529 0
M  V30 71 H 6.8185 -0.690254 0.2583 0
M  V30 72 H 9.4605 -1.41826 1.26433 0
M  V30 73 H 7.6105 -3.82696 0.669056 0
M  V30 74 H 9.2825 -3.2986 3.22475 0
M  V30 75 H 7.5255 -3.05304 3.08175 0
M  V30 76 H 8.1965 -4.67955 2.92783 0
M  V30 77 H 10.6725 -4.00682 1.12221 0
M  V30 78 H 9.5485 -5.38806 1.04784 0
M  V30 79 H 9.8095 -4.40431 -0.383799 0
M  V30 80 N 8.8686 -0.792821 -1.36206 0
M  V30 81 C 9.7986 -0.207853 -2.32573 0
M  V30 82 C 10.7796 0.659055 -1.56813 0
M  V30 83 O 11.9646 0.592176 -1.84951 0
M  V30 84 C 9.0946 0.655449 -3.41059 0
M  V30 85 C 8.0486 -0.111842 -4.27854 0
M  V30 86 C 7.3746 0.872274 -5.27537 0
M  V30 87 C 8.6746 -1.30299 -5.05786 0
M  V30 88 H 10.3686 -1.01294 -2.81744 0
M  V30 89 H 7.9146 -0.48854 -1.3546 0
M  V30 90 H 9.8676 1.07464 -4.07467 0
M  V30 91 H 8.5916 1.49328 -2.90463 0
M  V30 92 H 7.2506 -0.512053 -3.63006 0
M  V30 93 H 6.8986 1.70523 -4.73214 0
M  V30 94 H 6.5986 0.363291 -5.86476 0
M  V30 95 H 8.1226 1.28996 -5.96818 0
M  V30 96 H 9.5366 -0.959379 -5.65216 0
M  V30 97 H 7.9336 -1.7455 -5.74154 0
M  V30 98 H 9.0036 -2.09663 -4.37229 0
M  V30 99 N 10.3467 1.47872 -0.545128 0
M  V30 100 C 11.5947 2.02093 -0.016553 0
M  V30 101 C 11.9157 1.42305 1.3332 0
M  V30 102 O 11.1857 0.593853 1.86682 0
M  V30 103 H 9.7657 0.746993 -0.00313038 0
M  V30 104 H 12.4277 1.81414 -0.712397 0
M  V30 105 H 11.5237 3.11996 0.0805422 0
M  V30 106 N 11.8248 0.280983 1.55075 0
M  V30 107 C 12.7548 -0.597469 2.25727 0
M  V30 108 C 13.7358 -1.15417 1.24952 0
M  V30 109 O 14.9208 -1.18722 1.53684 0
M  V30 110 C 12.0508 -1.7789 2.98283 0
M  V30 111 C 11.0048 -1.35347 4.06036 0
M  V30 112 C 10.3308 -2.61846 4.66198 0
M  V30 113 C 11.6308 -0.499354 5.19907 0
M  V30 114 H 13.3248 -0.00824265 2.99399 0
M  V30 115 H 10.8708 -0.0025244 1.44 0
M  V30 116 H 12.8238 -2.39937 3.46422 0
M  V30 117 H 11.5478 -2.39405 2.22155 0
M  V30 118 H 10.2068 -0.756156 3.58717 0
M  V30 119 H 9.8548 -3.21632 3.86732 0
M  V30 120 H 9.5548 -2.3409 5.38958 0
M  V30 121 H 11.0788 -3.24732 5.1709 0
M  V30 122 H 12.4928 -1.02498 5.64063 0
M  V30 123 H 10.8898 -0.316424 5.99265 0
M  V30 124 H 11.9598 0.480459 4.82514 0
M  V30 125 N 13.3029 -1.57598 0.00835791 0
M  V30 126 C 14.5509 -1.90551 -0.6734 0
M  V30 127 C 14.8719 -0.883301 -1.73847 0
M  V30 128 O 14.1419 0.0781442 -1.95744 0
M  V30 129 H 12.7219 -0.703312 -0.251717 0
M  V30 130 H 15.3839 -1.94833 0.0512592 0
M  V30 131 H 14.4799 -2.9056 -1.13935 0
M  V30 132 N 14.781 0.264519 -1.55364 0
M  V30 133 C 15.744 1.31046 -1.88042 0
M  V30 134 C 16.744 1.41943 -0.755569 0
M  V30 135 O 17.934 1.40947 -1.02369 0
M  V30 136 C 15.066 2.69067 -2.09323 0
M  V30 137 H 16.259 1.03297 -2.81549 0
M  V30 138 H 13.812 0.502989 -1.47986 0
M  V30 139 H 14.547 3.01982 -1.18226 0
M  V30 140 H 14.332 2.62542 -2.91229 0
M  V30 141 H 15.822 3.44623 -2.35848 0
M  V30 142 N 16.2591 1.48442 0.529413 0
M  V30 143 C 17.1891 1.65902 1.64313 0
M  V30 144 C 18.1701 0.507897 1.6234 0
M  V30 145 O 19.3551 0.740503 1.79528 0
M  V30 146 C 16.4851 1.69911 3.02898 0
M  V30 147 C 15.4391 2.8453 3.19729 0
M  V30 148 C 14.7651 2.73629 4.59381 0
M  V30 149 C 16.0651 4.25821 3.02447 0
M  V30 150 H 17.7591 2.5914 1.49955 0
M  V30 151 H 15.3051 1.24709 0.719982 0
M  V30 152 H 17.2581 1.80715 3.80684 0
M  V30 153 H 15.9821 0.732524 3.18279 0
M  V30 154 H 14.6411 2.73283 2.44361 0
M  V30 155 H 14.2891 1.74938 4.71599 0
M  V30 156 H 13.9891 3.50541 4.71588 0
M  V30 157 H 15.5131 2.86401 5.39265 0
M  V30 158 H 16.9271 4.37898 3.70024 0
M  V30 159 H 15.3241 5.03735 3.26146 0
M  V30 160 H 16.3941 4.42244 1.98867 0
M  V30 161 N 17.7372 -0.778329 1.37039 0
M  V30 162 C 19.1532 -1.07796 1.17695 0
M  V30 163 C 19.3532 -2.01498 0.00860115 0
M  V30 164 O 18.4092 -2.43901 -0.653352 0
M  V30 165 C 19.7222 -1.68178 2.49272 0
M  V30 166 C 21.2702 -1.80467 2.55735 0
M  V30 167 C 21.7452 -2.44263 3.87427 0
M  V30 168 N 23.2362 -2.51721 3.88833 0
M  V30 169 C 23.9712 -3.01919 4.87476 0
M  V30 170 N 23.4672 -3.5234 5.96513 0
M  V30 171 N 25.2602 -3.00733 4.74885 0
M  V30 172 H 17.4112 -0.156032 2.11826 0
M  V30 173 H 19.6742 -0.131844 0.938787 0
M  V30 174 H 19.3802 -1.06796 3.35093 0
M  V30 175 H 19.2542 -2.67554 2.65885 0
M  V30 176 H 21.6412 -2.40984 1.70325 0
M  V30 177 H 21.7222 -0.798656 2.43013 0
M  V30 178 H 21.3662 -1.84388 4.73248 0
M  V30 179 H 21.2962 -3.45458 3.9745 0
M  V30 180 H 23.7872 -2.1603 3.10063 0
M  V30 181 H 24.1002 -3.89027 6.67741 0
M  V30 182 H 22.4452 -3.50462 6.00168 0
M  V30 183 H 25.6362 -2.60638 3.88826 0
M  V30 184 H 25.8092 -3.39545 5.51918 0
M  V30 185 N 19.2153 -1.21501 -1.00376 0
M  V30 186 C 20.6313 -0.972629 -1.26539 0
M  V30 187 C 20.8313 0.340257 -1.98606 0
M  V30 188 O 19.8873 1.06561 -2.28913 0
M  V30 189 C 21.2003 -2.16404 -2.08781 0
M  V30 190 C 22.7483 -2.20643 -2.22004 0
M  V30 191 C 23.2233 -3.39306 -3.07629 0
M  V30 192 N 24.7143 -3.39401 -3.15217 0
M  V30 193 C 25.4493 -4.27867 -3.81729 0
M  V30 194 N 24.9453 -5.26533 -4.5026 0
M  V30 195 N 26.7383 -4.15672 -3.78382 0
M  V30 196 H 18.8893 -2.05929 -0.520281 0
M  V30 197 H 21.1523 -0.901803 -0.292328 0
M  V30 198 H 20.8583 -3.11554 -1.63178 0
M  V30 199 H 20.7323 -2.15567 -3.09533 0
M  V30 200 H 23.1193 -1.26048 -2.66825 0
M  V30 201 H 23.2003 -2.25523 -1.20718 0
M  V30 202 H 22.8443 -4.34195 -2.63509 0
M  V30 203 H 22.7743 -3.31665 -4.09031 0
M  V30 204 H 25.2653 -2.67997 -2.66432 0
M  V30 205 H 25.5783 -5.90337 -4.98721 0
M  V30 206 H 23.9233 -5.30457 -4.49044 0
M  V30 207 H 27.1143 -3.3785 -3.23998 0
M  V30 208 H 27.2873 -4.84825 -4.2994 0
M  V30 209 N 20.6934 1.19889 -1.02296 0
M  V30 210 C 22.1094 1.41462 -0.738954 0
M  V30 211 C 22.3094 1.89721 0.678846 0
M  V30 212 O 21.3654 2.07016 1.4457 0
M  V30 213 C 22.6784 2.43083 -1.77005 0
M  V30 214 C 24.2264 2.5684 -1.78892 0
M  V30 215 C 24.7014 3.61709 -2.80945 0
M  V30 216 N 26.1924 3.69199 -2.79725 0
M  V30 217 C 26.9274 4.50019 -3.55345 0
M  V30 218 N 26.4234 5.34592 -4.40662 0
M  V30 219 N 28.2164 4.44612 -3.43914 0
M  V30 220 H 20.3674 0.868827 -1.93817 0
M  V30 221 H 22.6304 0.44399 -0.837602 0
M  V30 222 H 22.3364 2.14636 -2.78612 0
M  V30 223 H 22.2104 3.4217 -1.58744 0
M  V30 224 H 24.5974 2.84614 -0.779674 0
M  V30 225 H 24.6784 1.57927 -2.01228 0
M  V30 226 H 24.3224 3.34678 -3.82038 0
M  V30 227 H 24.2524 4.60259 -2.5587 0
M  V30 228 H 26.7434 3.08794 -2.17842 0
M  V30 229 H 27.0564 5.93363 -4.95116 0
M  V30 230 H 25.4014 5.34073 -4.44737 0
M  V30 231 H 28.5924 3.7758 -2.76679 0
M  V30 232 H 28.7654 5.0736 -4.031 0
M  V30 233 N 22.1715 0.800033 1.35784 0
M  V30 234 C 23.1185 0.203848 2.29898 0
M  V30 235 C 24.0885 -0.658375 1.52495 0
M  V30 236 O 25.2735 -0.604832 1.8096 0
M  V30 237 C 22.4135 -0.64688 3.38983 0
M  V30 238 C 21.5265 0.235054 4.3136 0
M  V30 239 C 20.6615 -0.623054 5.27533 0
M  V30 240 C 19.7005 0.259682 6.11549 0
M  V30 241 N 18.8375 -0.558019 6.99879 0
M  V30 242 H 23.6775 1.01186 2.80295 0
M  V30 243 H 21.2145 0.51053 1.37957 0
M  V30 244 H 23.1725 -1.15521 4.00887 0
M  V30 245 H 21.8025 -1.42021 2.89879 0
M  V30 246 H 20.8545 0.861438 3.70518 0
M  V30 247 H 22.1665 0.914768 4.9034 0
M  V30 248 H 21.3205 -1.19678 5.94779 0
M  V30 249 H 20.0595 -1.33636 4.69034 0
M  V30 250 H 19.0645 0.845726 5.43256 0
M  V30 251 H 20.2895 0.970748 6.72126 0
M  V30 252 H 18.2355 -1.25542 6.43875 0
M  V30 253 H 18.1525 0.0637872 7.55973 0
M  V30 254 H 19.4205 -1.11523 7.71481 0
M  V30 255 N 23.6496 -1.47581 0.552962 0
M  V30 256 C 25.0656 -1.5818 0.212424 0
M  V30 257 C 25.2656 -1.55213 -1.28496 0
M  V30 258 O 24.3216 -1.45329 -2.06484 0
M  V30 259 C 25.6346 -2.88865 0.835318 0
M  V30 260 C 27.1826 -3.0244 0.806156 0
M  V30 261 C 27.6576 -4.35819 1.40804 0
M  V30 262 N 29.1486 -4.42444 1.37103 0
M  V30 263 C 29.8836 -5.44202 1.80641 0
M  V30 264 N 29.3796 -6.52795 2.32015 0
M  V30 265 N 31.1726 -5.35222 1.71738 0
M  V30 266 H 23.3236 -1.47753 1.52587 0
M  V30 267 H 25.5866 -0.702941 0.636064 0
M  V30 268 H 25.2926 -2.9676 1.88749 0
M  V30 269 H 25.1666 -3.7579 0.325848 0
M  V30 270 H 27.5536 -2.94144 -0.237317 0
M  V30 271 H 27.6346 -2.17068 1.35334 0
M  V30 272 H 27.2786 -4.44871 2.45056 0
M  V30 273 H 27.2086 -5.19916 0.836338 0
M  V30 274 H 29.6996 -3.6456 0.995202 0
M  V30 275 H 30.0126 -7.26609 2.63171 0
M  V30 276 H 28.3576 -6.53696 2.36023 0
M  V30 277 H 31.5486 -4.49284 1.31382 0
M  V30 278 H 31.7216 -6.14389 2.05987 0
M  V30 279 N 25.1277 -0.289203 -1.54924 0
M  V30 280 C 26.0577 0.58549 -2.2604 0
M  V30 281 C 27.0387 1.14753 -1.25562 0
M  V30 282 O 28.2237 1.17906 -1.54311 0
M  V30 283 C 25.3537 1.76305 -2.99222 0
M  V30 284 C 24.3077 1.33191 -4.06748 0
M  V30 285 C 23.6337 2.5937 -4.6758 0
M  V30 286 C 24.9337 0.471775 -5.20165 0
M  V30 287 H 26.6277 -0.00763532 -2.99399 0
M  V30 288 H 24.1737 -0.00511229 -1.43999 0
M  V30 289 H 26.1267 2.38097 -3.47689 0
M  V30 290 H 24.8507 2.38223 -2.23422 0
M  V30 291 H 23.5097 0.737121 -3.59113 0
M  V30 292 H 23.1577 3.19576 -3.88433 0
M  V30 293 H 22.8577 2.31228 -5.40192 0
M  V30 294 H 24.3817 3.21985 -5.18804 0
M  V30 295 H 25.7957 0.995056 -5.64599 0
M  V30 296 H 24.1927 0.284639 -5.99425 0
M  V30 297 H 25.2627 -0.506041 -4.82252 0
M  V30 298 N 26.6058 1.57591 -0.0167156 0
M  V30 299 C 27.5358 2.12496 0.967858 0
M  V30 300 C 28.5168 1.03807 1.34752 0
M  V30 301 O 29.7018 1.31577 1.42833 0
M  V30 302 C 26.8318 2.64194 2.25431 0
M  V30 303 C 25.7858 3.77559 2.01576 0
M  V30 304 C 25.1118 4.15636 3.36379 0
M  V30 305 C 26.4118 5.04151 1.36489 0
M  V30 306 H 28.1058 2.95013 0.510643 0
M  V30 307 H 25.6518 1.41915 0.244181 0
M  V30 308 H 27.6048 3.01236 2.94678 0
M  V30 309 H 26.3288 1.78821 2.73296 0
M  V30 310 H 24.9878 3.40937 1.34751 0
M  V30 311 H 24.6358 3.27263 3.81979 0
M  V30 312 H 24.3358 4.92022 3.21229 0
M  V30 313 H 25.8598 4.5525 4.06915 0
M  V30 314 H 27.2738 5.38857 1.95718 0
M  V30 315 H 25.6708 5.85453 1.31776 0
M  V30 316 H 26.7408 4.83733 0.336219 0
M  V30 317 N 28.0839 -0.256276 1.55502 0
M  V30 318 C 28.9939 -1.33882 1.92647 0
M  V30 319 C 30.0099 -1.53159 0.825727 0
M  V30 320 O 31.1859 -1.66963 1.12629 0
M  V30 321 C 28.2509 -2.6751 2.20543 0
M  V30 322 C 27.3119 -2.56836 3.43997 0
M  V30 323 C 26.5449 -3.84092 3.70553 0
M  V30 324 O 26.7679 -4.85545 2.99336 0
M  V30 325 O 25.7019 -3.83288 4.64084 0
M  V30 326 H 29.5279 -1.05374 2.84833 0
M  V30 327 H 27.1129 -0.456237 1.42263 0
M  V30 328 H 28.9949 -3.46492 2.39835 0
M  V30 329 H 27.6699 -2.9577 1.31536 0
M  V30 330 H 26.5769 -1.76172 3.30021 0
M  V30 331 H 27.9099 -2.33523 4.33275 0
M  V30 332 N 29.562 -1.4872 -0.521534 0
M  V30 333 C 30.494 -1.59968 -1.64143 0
M  V30 334 C 31.507 -0.483463 -1.55456 0
M  V30 335 O 32.696 -0.75467 -1.61762 0
M  V30 336 C 29.796 -1.52127 -3.02838 0
M  V30 337 C 28.969 -2.78932 -3.36921 0
M  V30 338 C 28.028 -2.64428 -4.54933 0
M  V30 339 O 27.054 -3.38331 -4.57735 0
M  V30 340 N 28.256 -1.74606 -5.53618 0
M  V30 341 H 31.021 -2.56548 -1.54929 0
M  V30 342 H 28.582 -1.45551 -0.708988 0
M  V30 343 H 30.574 -1.40106 -3.79674 0
M  V30 344 H 29.144 -0.634868 -3.06085 0
M  V30 345 H 28.364 -3.05455 -2.4918 0
M  V30 346 H 29.652 -3.63041 -3.56481 0
M  V30 347 H 29.05 -1.13782 -5.54139 0
M  V30 348 H 27.607 -1.6852 -6.29638 0
M  V30 349 N 31.0401 0.771051 -1.3745 0
M  V30 350 C 31.9501 1.91538 -1.35464 0
M  V30 351 C 32.9661 1.72134 -0.254123 0
M  V30 352 O 34.1421 1.95358 -0.489626 0
M  V30 353 C 31.2071 3.26671 -1.16134 0
M  V30 354 C 30.2681 3.58723 -2.35831 0
M  V30 355 C 29.5011 4.87409 -2.17413 0
M  V30 356 O 29.7241 5.58506 -1.15876 0
M  V30 357 O 28.6581 5.18539 -3.05615 0
M  V30 358 H 32.4841 1.96165 -2.31847 0
M  V30 359 H 30.0691 0.9139 -1.18187 0
M  V30 360 H 31.9511 4.07499 -1.07345 0
M  V30 361 H 30.6261 3.22894 -0.228251 0
M  V30 362 H 29.5331 2.78127 -2.50192 0
M  V30 363 H 30.8661 3.67243 -3.27709 0
M  V30 364 N 32.5182 1.22032 0.997298 0
M  V30 365 C 33.4652 0.986467 2.08656 0
M  V30 366 C 34.4352 -0.0902671 1.65855 0
M  V30 367 O 35.6202 0.0584294 1.90711 0
M  V30 368 C 32.7602 0.565569 3.40434 0
M  V30 369 C 31.8732 1.71259 3.96604 0
M  V30 370 C 31.0082 1.24011 5.16522 0
M  V30 371 C 30.0472 2.35896 5.64818 0
M  V30 372 N 29.1842 1.89726 6.7598 0
M  V30 373 H 34.0242 1.91892 2.27994 0
M  V30 374 H 31.5612 0.956199 1.11782 0
M  V30 375 H 33.5192 0.302738 4.161 0
M  V30 376 H 32.1492 -0.329879 3.2111 0
M  V30 377 H 31.2012 2.08986 3.17851 0
M  V30 378 H 32.5132 2.55436 4.28432 0
M  V30 379 H 31.6672 0.934395 5.99461 0
M  V30 380 H 30.4062 0.368487 4.86306 0
M  V30 381 H 29.4112 2.67261 4.8047 0
M  V30 382 H 30.6362 3.23567 5.97061 0
M  V30 383 H 28.5822 1.0492 6.47555 0
M  V30 384 H 28.4992 2.67471 7.07103 0
M  V30 385 H 29.7672 1.62211 7.62435 0
M  V30 386 N 33.9963 -1.19345 1.0293 0
M  V30 387 C 35.2213 -1.93538 0.745511 0
M  V30 388 C 35.6463 -1.75007 -0.689511 0
M  V30 389 O 35.0043 -1.05265 -1.47611 0
M  V30 390 C 35.0523 -3.43336 1.10239 0
M  V30 391 O 34.1563 -4.11806 0.221289 0
M  V30 392 H 33.4973 -0.604193 0.275404 0
M  V30 393 H 36.0273 -1.5141 1.37609 0
M  V30 394 H 36.0373 -3.94004 1.05947 0
M  V30 395 H 34.7123 -3.56146 2.14786 0
M  V30 396 H 33.2893 -3.715 0.322842 0
M  V30 397 N 35.4744 -0.807222 -1.35358 0
M  V30 398 C 36.4044 -0.232509 -2.3234 0
M  V30 399 C 37.3854 0.642386 -1.57504 0
M  V30 400 O 38.5704 0.572526 -1.85569 0
M  V30 401 C 35.7004 0.619238 -3.41735 0
M  V30 402 C 34.6544 -0.157215 -4.27711 0
M  V30 403 C 33.9804 0.816273 -5.28433 0
M  V30 404 C 35.2804 -1.35656 -5.04376 0
M  V30 405 H 36.9744 -1.04276 -2.80654 0
M  V30 406 H 34.5204 -0.50288 -1.34934 0
M  V30 407 H 36.4734 1.03137 -4.08584 0
M  V30 408 H 35.1974 1.46239 -2.92031 0
M  V30 409 H 33.8564 -0.550525 -3.62443 0
M  V30 410 H 33.5044 1.65494 -4.74996 0
M  V30 411 H 33.2044 0.301067 -5.86828 0
M  V30 412 H 34.7284 1.22659 -5.98153 0
M  V30 413 H 36.1424 -1.01927 -5.64166 0
M  V30 414 H 34.5394 -1.8063 -5.7227 0
M  V30 415 H 35.6094 -2.14288 -4.34981 0
M  V30 416 N 36.9525 1.47285 -0.560781 0
M  V30 417 C 37.9155 2.28535 0.174488 0
M  V30 418 C 38.9155 1.37153 0.839388 0
M  V30 419 O 40.1055 1.59748 0.694702 0
M  V30 420 C 37.2375 3.16934 1.25561 0
M  V30 421 H 38.4305 2.95012 -0.539262 0
M  V30 422 H 35.9835 1.53034 -0.317865 0
M  V30 423 H 36.7185 2.55157 2.00164 0
M  V30 424 H 36.5035 3.8419 0.783604 0
M  V30 425 H 37.9935 3.78143 1.77193 0
M  V30 426 N 38.4306 0.297415 1.54768 0
M  V30 427 C 39.6786 -0.312295 1.99673 0
M  V30 428 C 39.9996 -1.54686 1.18732 0
M  V30 429 O 39.2696 -1.93854 0.282382 0
M  V30 430 H 37.8496 -0.118381 0.73756 0
M  V30 431 H 40.5116 0.407915 1.90583 0
M  V30 432 H 39.6076 -0.586813 3.06534 0
M  V30 433 N 39.9087 -1.5758 0.0250728 0
M  V30 434 C 41.1547 -1.92746 -0.649648 0
M  V30 435 C 41.5097 -0.901588 -1.69968 0
M  V30 436 O 40.8027 0.0829251 -1.9142 0
M  V30 437 C 40.9967 -3.32421 -1.31268 0
M  V30 438 C 40.8257 -4.48499 -0.328394 0
M  V30 439 C 39.5957 -5.05251 0.070284 0
M  V30 440 C 41.7937 -5.12618 0.415665 0
M  V30 441 N 39.7757 -6.04851 1.05016 0
M  V30 442 C 41.1467 -6.0728 1.24943 0
M  V30 443 C 43.2017 -4.95612 0.476803 0
M  V30 444 C 41.9047 -6.86766 2.1388 0
M  V30 445 C 43.9307 -5.75703 1.3535 0
M  V30 446 C 43.2927 -6.69978 2.17504 0
M  V30 447 H 39.3917 -0.753231 -0.210159 0
M  V30 448 H 41.9757 -1.94486 0.0912999 0
M  V30 449 H 40.1467 -3.31508 -2.02379 0
M  V30 450 H 41.8787 -3.54946 -1.94411 0
M  V30 451 H 38.6337 -4.72628 -0.303323 0
M  V30 452 H 39.0577 -6.5934 1.53622 0
M  V30 453 H 43.6997 -4.22554 -0.144105 0
M  V30 454 H 41.4177 -7.59132 2.77027 0
M  V30 455 H 45.0037 -5.64579 1.40504 0
M  V30 456 H 43.8837 -7.30873 2.84244 0
M  V30 457 N 41.3868 0.248026 -1.55636 0
M  V30 458 C 42.3498 1.29044 -1.89421 0
M  V30 459 C 43.3498 1.41134 -0.770581 0
M  V30 460 O 44.5398 1.39854 -1.03858 0
M  V30 461 C 41.6718 2.66831 -2.12165 0
M  V30 462 H 42.8648 1.00305 -2.82629 0
M  V30 463 H 40.4178 0.487265 -1.48511 0
M  V30 464 H 41.1528 3.00711 -1.21422 0
M  V30 465 H 40.9378 2.59438 -2.93997 0
M  V30 466 H 42.4278 3.42103 -2.3949 0
M  V30 467 N 42.8649 1.48995 0.513639 0
M  V30 468 C 43.7949 1.67636 1.62544 0
M  V30 469 C 44.7759 0.525087 1.61793 0
M  V30 470 O 45.9609 0.759502 1.78732 0
M  V30 471 C 43.0909 1.73114 3.01079 0
M  V30 472 C 42.0449 2.87905 3.16693 0
M  V30 473 C 41.3709 2.78486 4.56453 0
M  V30 474 C 42.6709 4.29005 2.97913 0
M  V30 475 H 44.3649 2.60716 1.47198 0
M  V30 476 H 41.9109 1.25465 0.706714 0
M  V30 477 H 43.8639 1.84742 3.78746 0
M  V30 478 H 42.5879 0.766241 3.17484 0
M  V30 479 H 41.2469 2.75859 2.41448 0
M  V30 480 H 40.8949 1.7993 4.69717 0
M  V30 481 H 40.5949 3.55523 4.67843 0
M  V30 482 H 42.1189 2.92104 5.36197 0
M  V30 483 H 43.5329 4.41798 3.65359 0
M  V30 484 H 41.9299 5.07166 3.20785 0
M  V30 485 H 42.9999 4.44329 1.94165 0
M  V30 486 N 44.343 -0.763751 1.37857 0
M  V30 487 C 45.589 -1.52483 1.33704 0
M  V30 488 C 45.922 -1.94051 -0.0759612 0
M  V30 489 O 45.197 -1.64675 -1.03501 0
M  V30 490 C 45.48 -2.78441 2.28348 0
M  V30 491 C 45.333 -2.43075 3.78463 0
M  V30 492 C 46.652 -3.80415 2.21298 0
M  V30 493 H 43.771 -0.553169 0.487005 0
M  V30 494 H 46.413 -0.875562 1.68624 0
M  V30 495 H 44.563 -3.33842 1.987 0
M  V30 496 H 46.235 -1.93527 4.18742 0
M  V30 497 H 44.478 -1.75666 3.96641 0
M  V30 498 H 45.149 -3.33149 4.40132 0
M  V30 499 H 47.625 -3.34527 2.47449 0
M  V30 500 H 46.501 -4.66257 2.89647 0
M  V30 501 H 46.762 -4.25262 1.20849 0
M  V30 502 N 45.8211 -1.22559 -0.990812 0
M  V30 503 C 46.7511 -1.0218 -2.09956 0
M  V30 504 C 47.7321 0.0579394 -1.70001 0
M  V30 505 O 48.9171 -0.104684 -1.93918 0
M  V30 506 C 46.0471 -0.601023 -3.4206 0
M  V30 507 C 45.0011 -1.62694 -3.95872 0
M  V30 508 C 44.3271 -1.06193 -5.24049 0
M  V30 509 C 45.6271 -3.01743 -4.2632 0
M  V30 510 H 47.3211 -1.94916 -2.27262 0
M  V30 511 H 44.8671 -0.938566 -1.09211 0
M  V30 512 H 46.8201 -0.445561 -4.19038 0
M  V30 513 H 45.5441 0.362005 -3.24588 0
M  V30 514 H 44.2031 -1.77021 -3.21028 0
M  V30 515 H 43.8511 -0.0901903 -5.02919 0
M  V30 516 H 43.5511 -1.74732 -5.61019 0
M  V30 517 H 45.0751 -0.918092 -6.03658 0
M  V30 518 H 46.4891 -2.90777 -4.94087 0
M  V30 519 H 44.8861 -3.67425 -4.74467 0
M  V30 520 H 45.9561 -3.51518 -3.34011 0
M  V30 521 N 47.2992 1.18797 -1.03562 0
M  V30 522 C 48.2622 2.20464 -0.626769 0
M  V30 523 C 49.2622 1.57721 0.313173 0
M  V30 524 O 50.4522 1.73917 0.0992615 0
M  V30 525 C 47.5842 3.40802 0.0818498 0
M  V30 526 H 48.7772 2.58149 -1.5264 0
M  V30 527 H 46.3302 1.32593 -0.827578 0
M  V30 528 H 47.0652 3.08642 0.995518 0
M  V30 529 H 46.8502 3.8758 -0.593652 0
M  V30 530 H 48.3402 4.16092 0.354584 0
M  V30 531 N 48.7773 0.814389 1.34928 0
M  V30 532 C 50.0253 0.397636 1.9815 0
M  V30 533 C 50.3463 -1.04069 1.64908 0
M  V30 534 O 49.6163 -1.72121 0.93548 0
M  V30 535 H 48.1963 0.144043 0.732981 0
M  V30 536 H 50.8583 1.04195 1.6471 0
M  V30 537 H 49.9543 0.509688 3.0791 0
M  V30 538 N 50.2554 -1.46986 0.568584 0
M  V30 539 C 51.4834 -2.0683 0.0539956 0
M  V30 540 C 51.8984 -1.41953 -1.24478 0
M  V30 541 O 51.2554 -0.519933 -1.74937 0
M  V30 542 C 51.3064 -3.61254 -0.133362 0
M  V30 543 O 51.0274 -4.237 1.11399 0
M  V30 544 C 52.5284 -4.37992 -0.683927 0
M  V30 545 H 49.7484 -0.669058 0.0510141 0
M  V30 546 H 52.2924 -1.88824 0.785234 0
M  V30 547 H 50.4474 -3.78735 -0.81477 0
M  V30 548 H 50.8614 -5.16388 0.91888 0
M  V30 549 H 52.3354 -5.46684 -0.764263 0
M  V30 550 H 52.8124 -4.05058 -1.69778 0
M  V30 551 H 53.4184 -4.25283 -0.0378494 0
M  V30 552 N 51.7335 -0.305618 -1.54608 0
M  V30 553 C 52.9815 0.301701 -1.99835 0
M  V30 554 C 53.3025 1.54054 -1.19551 0
M  V30 555 O 52.5725 1.93702 -0.292658 0
M  V30 556 H 51.1525 0.114468 -0.738178 0
M  V30 557 H 53.8145 -0.418016 -1.90364 0
M  V30 558 H 52.9105 0.570548 -3.06841 0
M  V30 559 N 53.2116 1.57565 -0.0334293 0
M  V30 560 C 54.4606 1.91155 0.643639 0
M  V30 561 C 54.7736 0.91192 1.73042 0
M  V30 562 O 55.9796 1.13923 2.46442 0
M  V30 563 C 54.4356 3.39443 1.1961 0
M  V30 564 C 54.0436 4.47774 0.142381 0
M  V30 565 C 55.7876 3.82094 1.84944 0
M  V30 566 C 53.6946 5.87162 0.706727 0
M  V30 567 H 52.6246 0.713368 0.244176 0
M  V30 568 H 55.2756 1.8323 -0.0994323 0
M  V30 569 H 53.6576 3.42313 1.99092 0
M  V30 570 H 54.8316 4.56469 -0.630296 0
M  V30 571 H 53.1466 4.14352 -0.412446 0
M  V30 572 H 55.7436 4.83591 2.2813 0
M  V30 573 H 56.0866 3.17386 2.69392 0
M  V30 574 H 56.6196 3.81665 1.12145 0
M  V30 575 H 53.3586 6.55424 -0.0997178 0
M  V30 576 H 52.8786 5.82064 1.44779 0
M  V30 577 H 54.5576 6.35866 1.19514 0
M  V30 578 N 54.6897 -0.239769 1.55765 0
M  V30 579 C 55.9377 -0.964892 1.77579 0
M  V30 580 C 56.2587 -1.85582 0.598699 0
M  V30 581 O 55.5287 -1.92075 -0.385226 0
M  V30 582 H 54.1087 -0.359265 0.654933 0
M  V30 583 H 56.7707 -0.256001 1.93211 0
M  V30 584 H 55.8667 -1.58243 2.69009 0
M  V30 585 N 56.1678 -1.49265 -0.50573 0
M  V30 586 C 57.0978 -1.68495 -1.61653 0
M  V30 587 C 58.0788 -0.53366 -1.61512 0
M  V30 588 O 59.2638 -0.76897 -1.78327 0
M  V30 589 C 56.3938 -1.74709 -3.00157 0
M  V30 590 C 55.3478 -2.89581 -3.15162 0
M  V30 591 C 54.6738 -2.80903 -4.5497 0
M  V30 592 C 55.9738 -4.30578 -2.95634 0
M  V30 593 H 57.6678 -2.61493 -1.45814 0
M  V30 594 H 55.2138 -1.25838 -0.70005 0
M  V30 595 H 57.1668 -1.86748 -3.77761 0
M  V30 596 H 55.8908 -0.783067 -3.17074 0
M  V30 597 H 54.5498 -2.77136 -2.39982 0
M  V30 598 H 54.1978 -1.82419 -4.68756 0
M  V30 599 H 53.8978 -3.57999 -4.65951 0
M  V30 600 H 55.4218 -2.94944 -5.34641 0
M  V30 601 H 56.8358 -4.4373 -3.63011 0
M  V30 602 H 55.2328 -5.0886 -3.18091 0
M  V30 603 H 56.3028 -4.45352 -1.91806 0
M  V30 604 N 57.6459 0.756429 -1.3826 0
M  V30 605 C 58.5789 1.87802 -1.29637 0
M  V30 606 C 59.5569 1.61667 -0.173939 0
M  V30 607 O 60.7409 1.85208 -0.350775 0
M  V30 608 C 57.8679 3.23354 -1.00797 0
M  V30 609 C 56.9139 3.68379 -2.14939 0
M  V30 610 S 57.7469 3.8025 -3.77054 0
M  V30 611 C 58.9029 5.18626 -3.50396 0
M  V30 612 H 59.1359 1.94829 -2.24564 0
M  V30 613 H 56.6689 0.919117 -1.24063 0
M  V30 614 H 58.6269 4.01637 -0.848413 0
M  V30 615 H 57.2879 3.14008 -0.0759369 0
M  V30 616 H 56.4809 4.66693 -1.90299 0
M  V30 617 H 56.0829 2.97242 -2.26988 0
M  V30 618 H 58.3749 6.04289 -3.06334 0
M  V30 619 H 59.3179 5.48286 -4.48094 0
M  V30 620 H 59.7259 4.87289 -2.84973 0
M  V30 621 N 59.124 1.23083 0.984299 0
M  V30 622 C 60.37 1.06214 1.72761 0
M  V30 623 C 60.703 -0.400584 1.90024 0
M  V30 624 O 59.978 -1.29672 1.44967 0
M  V30 625 C 60.261 1.78375 3.12817 0
M  V30 626 C 60.114 3.32296 3.03149 0
M  V30 627 C 61.433 1.54309 4.12161 0
M  V30 628 H 58.552 0.387251 0.627061 0
M  V30 629 H 61.194 1.51536 1.14616 0
M  V30 630 H 59.344 1.39848 3.62457 0
M  V30 631 H 61.016 3.8032 2.61064 0
M  V30 632 H 59.259 3.6153 2.39747 0
M  V30 633 H 59.93 3.77972 4.02295 0
M  V30 634 H 62.406 1.87791 3.71314 0
M  V30 635 H 61.282 2.07281 5.08258 0
M  V30 636 H 61.543 0.477572 4.39513 0
M  V30 637 N 60.6021 -1.18246 1.0419 0
M  V30 638 C 61.5321 -2.24127 0.654914 0
M  V30 639 C 62.5131 -1.66617 -0.342451 0
M  V30 640 O 63.6981 -1.92924 -0.222277 0
M  V30 641 C 60.8281 -3.47295 0.0183757 0
M  V30 642 C 59.7821 -4.17563 0.939414 0
M  V30 643 C 59.1081 -5.34438 0.167286 0
M  V30 644 C 60.4081 -4.70917 2.25908 0
M  V30 645 H 62.1021 -2.56753 1.54007 0
M  V30 646 H 59.6481 -1.23414 0.74195 0
M  V30 647 H 61.6011 -4.20572 -0.264082 0
M  V30 648 H 60.3251 -3.13907 -0.901664 0
M  V30 649 H 58.9841 -3.46186 1.20628 0
M  V30 650 H 58.6321 -4.97298 -0.7552 0
M  V30 651 H 58.3321 -5.82388 0.780901 0
M  V30 652 H 59.8561 -6.10504 -0.108125 0
M  V30 653 H 61.2701 -5.35882 2.03724 0
M  V30 654 H 59.6671 -5.29406 2.82577 0
M  V30 655 H 60.7371 -3.88272 2.9047 0
M  V30 656 N 62.0802 -0.821533 -1.34494 0
M  V30 657 C 63.0302 -0.214793 -2.26986 0
M  V30 658 C 64.0142 0.620125 -1.4847 0
M  V30 659 O 65.2062 0.474933 -1.70509 0
M  V30 660 C 62.3352 0.623566 -3.37589 0
M  V30 661 C 61.4212 -0.221904 -4.23519 0
M  V30 662 N 61.8122 -1.29223 -4.89014 0
M  V30 663 C 60.1102 -0.00600922 -4.46 0
M  V30 664 C 60.8112 -1.80965 -5.52835 0
M  V30 665 N 59.7872 -1.11376 -5.32068 0
M  V30 666 H 63.5892 -1.03354 -2.75128 0
M  V30 667 H 61.1032 -0.6642 -1.48196 0
M  V30 668 H 63.1002 1.0744 -4.02818 0
M  V30 669 H 61.7602 1.44049 -2.90998 0
M  V30 670 H 62.7712 -1.67502 -4.90065 0
M  V30 671 H 59.4482 0.77886 -4.10171 0
M  V30 672 H 60.8382 -2.70502 -6.15043 0
M  V30 673 N 63.5583 1.46682 -0.576371 0
M  V30 674 C 64.5213 2.28707 0.150239 0
M  V30 675 C 65.5213 1.38035 0.824794 0
M  V30 676 O 66.7113 1.60476 0.677719 0
M  V30 677 C 63.8433 3.18248 1.22192 0
M  V30 678 H 65.0363 2.94423 -0.570521 0
M  V30 679 H 62.5893 1.52688 -0.334078 0
M  V30 680 H 63.3243 2.57265 1.97447 0
M  V30 681 H 63.1093 3.85 0.742812 0
M  V30 682 H 64.5993 3.80001 1.73172 0
M  V30 683 N 65.0364 0.313813 1.54444 0
M  V30 684 C 65.9464 -0.565714 2.27677 0
M  V30 685 C 66.9624 -1.13754 1.31666 0
M  V30 686 O 68.1384 -1.15959 1.64668 0
M  V30 687 C 65.2034 -1.71528 3.01296 0
M  V30 688 C 64.2644 -1.17624 4.12872 0
M  V30 689 C 63.4974 -2.27102 4.8297 0
M  V30 690 O 63.7204 -3.47256 4.52514 0
M  V30 691 O 62.6544 -1.9307 5.70094 0
M  V30 692 H 66.4804 0.0287296 3.03686 0
M  V30 693 H 64.0654 0.0798312 1.49187 0
M  V30 694 H 65.9474 -2.38476 3.4743 0
M  V30 695 H 64.6224 -2.29608 2.2817 0
M  V30 696 H 63.5294 -0.472124 3.71109 0
M  V30 697 H 64.8624 -0.640695 4.88012 0
M  V30 698 N 66.5145 -1.57545 0.0417849 0
M  V30 699 C 67.4475 -2.06514 -0.970928 0
M  V30 700 C 68.4255 -0.963607 -1.30971 0
M  V30 701 O 69.6095 -1.23486 -1.4242 0
M  V30 702 C 66.7365 -2.4978 -2.28752 0
M  V30 703 C 65.7825 -3.71078 -2.10246 0
M  V30 704 S 66.6155 -5.17158 -1.38952 0
M  V30 705 C 67.7715 -5.6373 -2.71954 0
M  V30 706 H 68.0045 -2.9209 -0.554129 0
M  V30 707 H 65.5375 -1.53459 -0.17024 0
M  V30 708 H 67.4955 -2.75371 -3.04435 0
M  V30 709 H 66.1565 -1.64527 -2.67562 0
M  V30 710 H 65.3495 -3.9924 -3.07609 0
M  V30 711 H 64.9515 -3.45705 -1.42704 0
M  V30 712 H 67.2435 -5.68743 -3.68154 0
M  V30 713 H 68.1865 -6.63086 -2.4844 0
M  V30 714 H 68.5945 -4.91424 -2.77782 0
M  V30 715 N 67.9926 0.231505 -1.5589 0
M  V30 716 C 68.9226 1.29022 -1.94617 0
M  V30 717 C 69.9036 1.4941 -0.813067 0
M  V30 718 O 71.0886 1.6176 -1.07459 0
M  V30 719 C 68.2186 2.64199 -2.25424 0
M  V30 720 C 67.1726 2.58484 -3.41131 0
M  V30 721 C 66.4986 3.97599 -3.57518 0
M  V30 722 C 67.7986 2.1413 -4.76388 0
M  V30 723 H 69.4926 0.968563 -2.83301 0
M  V30 724 H 67.0386 0.464479 -1.36303 0
M  V30 725 H 68.9916 3.38413 -2.51107 0
M  V30 726 H 67.7156 2.98032 -1.33583 0
M  V30 727 H 66.3746 1.86727 -3.15481 0
M  V30 728 H 66.0226 4.28723 -2.6307 0
M  V30 729 H 65.7226 3.94659 -4.35337 0
M  V30 730 H 67.2466 4.7349 -3.85538 0
M  V30 731 H 68.6606 2.78083 -5.01341 0
M  V30 732 H 67.0576 2.2227 -5.57419 0
M  V30 733 H 68.1276 1.09331 -4.72414 0
M  V30 734 N 69.4707 1.49531 0.497807 0
M  V30 735 C 70.7167 1.60388 1.25089 0
M  V30 736 C 71.0717 0.288328 1.90227 0
M  V30 737 O 70.3647 -0.711706 1.77891 0
M  V30 738 C 70.5587 2.70252 2.33878 0
M  V30 739 C 70.3877 4.12363 1.79408 0
M  V30 740 C 69.1577 4.7911 1.60566 0
M  V30 741 C 71.3557 4.97491 1.30412 0
M  V30 742 N 69.3377 6.05525 1.01059 0
M  V30 743 C 70.7087 6.14411 0.830595 0
M  V30 744 C 72.7637 4.83466 1.19015 0
M  V30 745 C 71.4667 7.1885 0.254371 0
M  V30 746 C 73.4927 5.88057 0.627892 0
M  V30 747 C 72.8547 7.04208 0.16461 0
M  V30 748 H 68.9537 0.641246 0.447579 0
M  V30 749 H 71.5377 1.86549 0.557441 0
M  V30 750 H 69.7087 2.45858 3.0068 0
M  V30 751 H 71.4407 2.70613 3.00917 0
M  V30 752 H 68.1957 4.35961 1.85026 0
M  V30 753 H 68.6197 6.73028 0.732236 0
M  V30 754 H 73.2617 3.93978 1.53431 0
M  V30 755 H 70.9797 8.08036 -0.102052 0
M  V30 756 H 74.5657 5.79266 0.542444 0
M  V30 757 H 73.4457 7.83757 -0.263669 0
M  V30 758 N 70.9488 -0.749086 1.3866 0
M  V30 759 C 72.1958 -1.50833 1.35114 0
M  V30 760 C 72.5238 -1.94415 -0.0574049 0
M  V30 761 O 71.7788 -1.66065 -1.03541 0
M  V30 762 C 72.0778 -2.7712 2.25697 0
M  V30 763 C 71.7438 -2.52477 3.73585 0
M  V30 764 C 70.4058 -2.45466 4.13884 0
M  V30 765 C 72.7578 -2.31066 4.67181 0
M  V30 766 C 70.0858 -2.15064 5.45861 0
M  V30 767 C 72.4378 -2.02183 5.9942 0
M  V30 768 C 71.1018 -1.93631 6.38798 0
M  V30 769 H 70.3718 -0.551936 0.494416 0
M  V30 770 H 73.0188 -0.860979 1.71054 0
M  V30 771 H 71.3238 -3.46528 1.82827 0
M  V30 772 H 73.0208 -3.35096 2.20254 0
M  V30 773 H 69.6108 -2.58807 3.41638 0
M  V30 774 H 73.7948 -2.35459 4.3689 0
M  V30 775 H 69.0508 -2.06954 5.75308 0
M  V30 776 H 73.2248 -1.8462 6.71482 0
M  V30 777 H 70.8518 -1.69839 7.40985 0
M  V30 778 N 72.4269 -1.23603 -0.977757 0
M  V30 779 C 73.6749 -1.06759 -1.71601 0
M  V30 780 C 73.9959 0.395929 -1.90938 0
M  V30 781 O 73.2659 1.28356 -1.47992 0
M  V30 782 H 71.8459 -0.392062 -0.635843 0
M  V30 783 H 74.5079 -1.55362 -1.1768 0
M  V30 784 H 73.6039 -1.55763 -2.70452 0
M  V30 785 N 73.905 1.17692 -1.04816 0
M  V30 786 C 75.153 1.87488 -0.754497 0
M  V30 787 C 75.474 1.81205 0.720407 0
M  V30 788 O 74.744 1.23544 1.52032 0
M  V30 789 H 73.324 0.694101 -0.276102 0
M  V30 790 H 75.986 1.42793 -1.32651 0
M  V30 791 H 75.082 2.93328 -1.06606 0
M  V30 792 N 75.3831 0.828654 1.34056 0
M  V30 793 C 76.6231 0.425394 1.99924 0
M  V30 794 C 76.9871 -0.994294 1.64249 0
M  V30 795 O 78.1881 -1.50074 2.23005 0
M  V30 796 C 76.4591 0.628071 3.51838 0
M  V30 797 S 78.0181 0.318511 4.37642 0
M  V30 798 H 74.8361 0.160465 0.692656 0
M  V30 799 H 77.4381 1.07572 1.63244 0
M  V30 800 H 76.1421 1.66089 3.7529 0
M  V30 801 H 75.6731 -0.0367799 3.93383 0
M  V30 802 H 77.6881 -0.865632 4.88591 0
M  V30 803 N 76.8612 -1.46375 0.584142 0
M  V30 804 C 78.0862 -2.07268 0.0740405 0
M  V30 805 C 78.5112 -1.42979 -1.22223 0
M  V30 806 O 77.8692 -0.514092 -1.73859 0
M  V30 807 C 77.9172 -3.60518 -0.0767769 0
M  V30 808 O 77.0212 -3.96533 -1.13292 0
M  V30 809 H 76.3622 -0.660961 0.0634524 0
M  V30 810 H 78.8922 -1.87991 0.807492 0
M  V30 811 H 78.9022 -4.07021 -0.282489 0
M  V30 812 H 77.5772 -4.06702 0.86986 0
M  V30 813 H 76.1542 -3.61738 -0.905553 0
M  V30 814 N 78.3393 -0.321999 -1.54275 0
M  V30 815 C 79.5853 0.274234 -2.01543 0
M  V30 816 C 79.9403 1.499 -1.20614 0
M  V30 817 O 79.2333 1.89546 -0.279804 0
M  V30 818 C 79.4273 0.661769 -3.5122 0
M  V30 819 C 79.2563 -0.523892 -4.46638 0
M  V30 820 C 78.0263 -1.02251 -4.94846 0
M  V30 821 C 80.2243 -1.37558 -4.95563 0
M  V30 822 N 78.2063 -2.17274 -5.74165 0
M  V30 823 C 79.5773 -2.37301 -5.7279 0
M  V30 824 C 81.6323 -1.40353 -4.77709 0
M  V30 825 C 80.3353 -3.3964 -6.34064 0
M  V30 826 C 82.3613 -2.41562 -5.39817 0
M  V30 827 C 81.7233 -3.40031 -6.16894 0
M  V30 828 H 77.8223 0.0642367 -0.779357 0
M  V30 829 H 80.4063 -0.456683 -1.89268 0
M  V30 830 H 78.5773 1.36182 -3.63743 0
M  V30 831 H 80.3093 1.23934 -3.85256 0
M  V30 832 H 77.0643 -0.594046 -4.6986 0
M  V30 833 H 77.4883 -2.75289 -6.18502 0
M  V30 834 H 82.1303 -0.655907 -4.17681 0
M  V30 835 H 79.8483 -4.15309 -6.93213 0
M  V30 836 H 83.4343 -2.44524 -5.2792 0
M  V30 837 H 82.3143 -4.17063 -6.64099 0
M  V30 838 N 79.8174 1.5752 -0.0501392 0
M  V30 839 C 80.7804 2.1037 0.909786 0
M  V30 840 C 81.7804 1.02308 1.24056 0
M  V30 841 O 82.9704 1.28385 1.17741 0
M  V30 842 C 80.1024 2.58708 2.21998 0
M  V30 843 H 81.2954 2.96479 0.451665 0
M  V30 844 H 78.8484 1.55038 0.198248 0
M  V30 845 H 79.5834 1.75989 2.72394 0
M  V30 846 H 79.3684 3.37675 1.99295 0
M  V30 847 H 80.8584 2.99747 2.9076 0
M  V30 848 N 81.2955 -0.223234 1.56011 0
M  V30 849 C 82.2255 -1.27988 1.95298 0
M  V30 850 C 83.2065 -1.48976 0.820979 0
M  V30 851 O 84.3915 -1.61188 1.08315 0
M  V30 852 C 81.5215 -2.63 2.26822 0
M  V30 853 C 80.4755 -2.56671 3.42497 0
M  V30 854 C 79.8015 -3.95697 3.59622 0
M  V30 855 C 81.1015 -2.11601 4.77517 0
M  V30 856 H 82.7955 -0.953525 2.8381 0
M  V30 857 H 80.3415 -0.457244 1.36548 0
M  V30 858 H 82.2945 -3.37077 2.52898 0
M  V30 859 H 81.0185 -2.9732 1.35161 0
M  V30 860 H 79.6775 -1.85051 3.16467 0
M  V30 861 H 79.3255 -4.27322 2.6534 0
M  V30 862 H 79.0255 -3.92345 4.37424 0
M  V30 863 H 80.5495 -4.71438 3.88044 0
M  V30 864 H 81.9635 -2.7542 5.02809 0
M  V30 865 H 80.3605 -2.19311 5.5859 0
M  V30 866 H 81.4305 -1.06824 4.72987 0
M  V30 867 N 82.7736 -1.49793 -0.48987 0
M  V30 868 C 84.0036 -1.6333 -1.26518 0
M  V30 869 C 84.4116 -0.308392 -1.8667 0
M  V30 870 O 83.7546 0.717512 -1.69108 0
M  V30 871 C 83.8166 -2.6522 -2.4269 0
M  V30 872 C 83.4806 -4.09279 -2.03321 0
M  V30 873 C 84.4776 -4.95738 -1.56652 0
M  V30 874 C 82.1626 -4.55082 -2.12616 0
M  V30 875 C 84.1566 -6.26041 -1.19795 0
M  V30 876 C 81.8436 -5.85396 -1.75371 0
M  V30 877 C 82.8416 -6.707 -1.29036 0
M  V30 878 O 82.5296 -7.98584 -0.92299 0
M  V30 879 H 82.2616 -0.552502 -0.389509 0
M  V30 880 H 84.8156 -1.96642 -0.593381 0
M  V30 881 H 83.0456 -2.27112 -3.12981 0
M  V30 882 H 84.7346 -2.68171 -3.04695 0
M  V30 883 H 85.5006 -4.61575 -1.48908 0
M  V30 884 H 81.3796 -3.88844 -2.47631 0
M  V30 885 H 84.9236 -6.92578 -0.835582 0
M  V30 886 H 80.8206 -6.19085 -1.82768 0
M  V30 887 H 81.5886 -8.11692 -1.05349 0
M  V30 888 N 84.2517 0.741722 -1.39055 0
M  V30 889 C 85.1817 1.869 -1.39966 0
M  V30 890 C 86.1627 1.6804 -0.26392 0
M  V30 891 O 87.3477 1.88458 -0.468755 0
M  V30 892 C 84.4777 3.24572 -1.23574 0
M  V30 893 C 83.4317 3.58056 -2.34477 0
M  V30 894 C 82.7577 4.94593 -2.0318 0
M  V30 895 C 84.0577 3.61716 -3.76774 0
M  V30 896 H 85.7517 1.86395 -2.34302 0
M  V30 897 H 83.2977 0.895361 -1.1278 0
M  V30 898 H 85.2507 4.031 -1.22834 0
M  V30 899 H 83.9747 3.25587 -0.257045 0
M  V30 900 H 82.6337 2.81854 -2.34423 0
M  V30 901 H 82.2817 4.92181 -1.03765 0
M  V30 902 H 81.9817 5.17964 -2.77465 0
M  V30 903 H 83.5057 5.75486 -2.04079 0
M  V30 904 H 84.9197 4.30335 -3.78794 0
M  V30 905 H 83.3167 3.96603 -4.50362 0
M  V30 906 H 84.3867 2.61672 -4.08235 0
M  V30 907 N 85.7298 1.2412 0.971189 0
M  V30 908 C 86.9768 1.07881 1.71371 0
M  V30 909 C 87.3048 -0.382901 1.90694 0
M  V30 910 O 86.5598 -1.29945 1.46331 0
M  V30 911 C 86.8588 1.75983 3.11071 0
M  V30 912 C 86.5248 3.25909 3.11599 0
M  V30 913 C 85.1868 3.66813 3.11451 0
M  V30 914 C 87.5388 4.21771 3.062 0
M  V30 915 C 84.8668 5.02021 3.03631 0
M  V30 916 C 87.2188 5.56982 2.99923 0
M  V30 917 C 85.8828 5.97237 2.98102 0
M  V30 918 H 85.1528 0.394764 0.62709 0
M  V30 919 H 87.7998 1.54176 1.13587 0
M  V30 920 H 86.1048 1.22072 3.72298 0
M  V30 921 H 87.8018 1.60887 3.6731 0
M  V30 922 H 84.3918 2.93353 3.12477 0
M  V30 923 H 88.5758 3.91172 3.05447 0
M  V30 924 H 83.8318 5.32411 3.0058 0
M  V30 925 H 88.0058 6.30969 2.94704 0
M  V30 926 H 85.6328 7.01967 2.91798 0
M  V30 927 N 87.2079 -1.17134 1.05439 0
M  V30 928 C 88.1379 -2.2342 0.678649 0
M  V30 929 C 89.1189 -1.66971 -0.32476 0
M  V30 930 O 90.3039 -1.93149 -0.201802 0
M  V30 931 C 87.4339 -3.47256 0.0552099 0
M  V30 932 C 86.3879 -4.16543 0.98365 0
M  V30 933 C 85.7139 -5.34231 0.223961 0
M  V30 934 C 87.0139 -4.68495 2.3089 0
M  V30 935 H 88.7079 -2.55105 1.56722 0
M  V30 936 H 86.2539 -1.2262 0.754998 0
M  V30 937 H 88.2069 -4.20828 -0.21946 0
M  V30 938 H 86.9309 -3.14846 -0.868319 0
M  V30 939 H 85.5899 -3.44887 1.24293 0
M  V30 940 H 85.2379 -4.98071 -0.702412 0
M  V30 941 H 84.9379 -5.81527 0.842627 0
M  V30 942 H 86.4619 -6.10585 -0.0433671 0
M  V30 943 H 87.8759 -5.33691 2.09396 0
M  V30 944 H 86.2729 -5.26379 2.88176 0
M  V30 945 H 87.3429 -3.85169 2.94572 0
M  V30 946 N 88.686 -0.835752 -1.33615 0
M  V30 947 C 89.932 -0.430596 -1.98176 0
M  V30 948 C 90.265 1.00684 -1.66061 0
M  V30 949 O 89.54 1.70339 -0.938877 0
M  V30 950 C 89.823 -0.648065 -3.5422 0
M  V30 951 C 89.676 -2.13255 -3.96033 0
M  V30 952 C 90.995 -0.0922113 -4.40003 0
M  V30 953 H 88.114 -0.157924 -0.719881 0
M  V30 954 H 90.756 -1.05069 -1.58305 0
M  V30 955 H 88.906 -0.120237 -3.88314 0
M  V30 956 H 90.578 -2.725 -3.72211 0
M  V30 957 H 88.821 -2.61823 -3.45878 0
M  V30 958 H 89.492 -2.23547 -5.04708 0
M  V30 959 H 91.968 -0.543343 -4.12537 0
M  V30 960 H 90.844 -0.274083 -5.48215 0
M  V30 961 H 91.105 1.00378 -4.30554 0
M  V30 962 N 90.1641 1.46063 -0.591896 0
M  V30 963 C 91.1111 2.30399 0.136069 0
M  V30 964 C 92.0811 1.41169 0.875238 0
M  V30 965 O 93.2661 1.70112 0.86409 0
M  V30 966 C 90.4061 3.25804 1.13781 0
M  V30 967 C 89.5191 4.30134 0.401137 0
M  V30 968 C 88.6541 5.12659 1.39121 0
M  V30 969 C 87.6931 6.0873 0.641462 0
M  V30 970 N 86.8301 6.8409 1.58004 0
M  V30 971 H 91.6701 2.92118 -0.589144 0
M  V30 972 H 89.2071 1.43959 -0.302342 0
M  V30 973 H 91.1651 3.79569 1.73156 0
M  V30 974 H 89.7951 2.65872 1.83062 0
M  V30 975 H 88.8471 3.79152 -0.307826 0
M  V30 976 H 90.1591 4.98458 -0.184565 0
M  V30 977 H 89.3131 5.70747 2.05749 0
M  V30 978 H 88.0521 4.44316 2.01084 0
M  V30 979 H 87.0571 5.49786 -0.0385419 0
M  V30 980 H 88.2821 6.79095 0.0270945 0
M  V30 981 H 86.2281 6.18449 2.18761 0
M  V30 982 H 86.1451 7.48709 1.04738 0
M  V30 983 H 87.4131 7.4673 2.23639 0
M  V30 984 N 91.6422 0.330177 1.54103 0
M  V30 985 C 92.8822 -0.270916 2.02597 0
M  V30 986 C 93.2462 -1.48826 1.21304 0
M  V30 987 O 94.4472 -2.16266 1.59633 0
M  V30 988 C 92.7182 -0.590328 3.52491 0
M  V30 989 S 94.2772 -1.17014 4.2291 0
M  V30 990 H 91.0952 -0.0815379 0.706309 0
M  V30 991 H 93.6972 0.464835 1.89893 0
M  V30 992 H 92.4012 0.303691 4.09275 0
M  V30 993 H 91.9322 -1.3561 3.69288 0
M  V30 994 H 93.9472 -2.45662 4.3112 0
M  V30 995 N 93.1203 -1.57491 0.0584922 0
M  V30 996 C 94.3483 -1.97296 -0.623037 0
M  V30 997 C 94.7633 -0.936338 -1.63946 0
M  V30 998 O 94.1203 0.0785981 -1.82331 0
M  V30 999 C 94.1713 -3.37183 -1.30345 0
M  V30 1000 O 93.8923 -4.36872 -0.32773 0
M  V30 1001 C 95.3933 -3.91788 -2.07406 0
M  V30 1002 H 92.6133 -0.649153 -0.169826 0
M  V30 1003 H 95.1573 -2.04106 0.12696 0
M  V30 1004 H 93.3123 -3.31502 -2.00463 0
M  V30 1005 H 93.7263 -5.18141 -0.814269 0
M  V30 1006 H 95.2003 -4.91926 -2.50425 0
M  V30 1007 H 95.6773 -3.27609 -2.92521 0
M  V30 1008 H 96.2833 -4.00829 -1.42184 0
M  V30 1009 N 94.5984 0.214957 -1.56127 0
M  V30 1010 C 95.8474 0.936451 -1.78643 0
M  V30 1011 C 96.1604 1.85237 -0.628229 0
M  V30 1012 O 97.3664 2.613 -0.737186 0
M  V30 1013 C 95.8224 1.7154 -3.16389 0
M  V30 1014 C 95.4304 0.845299 -4.39953 0
M  V30 1015 C 97.1744 2.42772 -3.48227 0
M  V30 1016 C 95.0814 1.62198 -5.68723 0
M  V30 1017 H 94.0114 0.353401 -0.666051 0
M  V30 1018 H 96.6624 0.190169 -1.82512 0
M  V30 1019 H 95.0444 2.50484 -3.06715 0
M  V30 1020 H 96.2184 0.0959353 -4.607 0
M  V30 1021 H 94.5334 0.244789 -4.1568 0
M  V30 1022 H 97.1304 3.01394 -4.41663 0
M  V30 1023 H 97.4734 3.15984 -2.71035 0
M  V30 1024 H 98.0064 1.70813 -3.5926 0
M  V30 1025 H 94.7454 0.933011 -6.48826 0
M  V30 1026 H 94.2654 2.34579 -5.52026 0
M  V30 1027 H 95.9444 2.18095 -6.09133 0
M  V30 1028 N 96.0765 1.50051 0.48192 0
M  V30 1029 C 97.3015 1.64508 1.26301 0
M  V30 1030 C 97.7265 0.323851 1.85291 0
M  V30 1031 O 97.0845 -0.710969 1.66778 0
M  V30 1032 C 97.1325 2.7305 2.35533 0
M  V30 1033 O 96.2365 2.3355 3.39895 0
M  V30 1034 H 95.5775 0.549978 0.372048 0
M  V30 1035 H 98.1075 1.9636 0.574786 0
M  V30 1036 H 98.1175 2.95799 2.8101 0
M  V30 1037 H 96.7925 3.68946 1.91967 0
M  V30 1038 H 95.3695 2.21205 3.00204 0
M  V30 1039 N 97.5546 -0.734337 1.39446 0
M  V30 1040 C 98.8036 -1.48937 1.36017 0
M  V30 1041 C 99.1166 -1.95557 -0.0409005 0
M  V30 1042 O 100.323 -2.70779 -0.19778 0
M  V30 1043 C 98.7786 -2.69125 2.38955 0
M  V30 1044 C 98.3866 -2.29452 3.8478 0
M  V30 1045 C 100.131 -3.46944 2.44603 0
M  V30 1046 C 98.0376 -3.46366 4.79358 0
M  V30 1047 H 96.9676 -0.559296 0.505672 0
M  V30 1048 H 99.6186 -0.800983 1.65095 0
M  V30 1049 H 98.0006 -3.40041 2.02948 0
M  V30 1050 H 99.1746 -1.66077 4.29831 0
M  V30 1051 H 97.4896 -1.64723 3.82433 0
M  V30 1052 H 100.087 -4.33907 3.12456 0
M  V30 1053 H 100.43 -3.89454 1.47076 0
M  V30 1054 H 100.963 -2.83056 2.79507 0
M  V30 1055 H 97.7016 -3.08905 5.78151 0
M  V30 1056 H 97.2216 -4.08719 4.38986 0
M  V30 1057 H 98.9006 -4.12691 4.98292 0
M  V30 1058 N 99.0327 -1.24633 -0.964593 0
M  V30 1059 C 100.258 -1.11596 -1.74818 0
M  V30 1060 C 100.683 0.32723 -1.85232 0
M  V30 1061 O 100.041 1.23695 -1.32549 0
M  V30 1062 C 100.089 -1.76397 -3.1451 0
M  V30 1063 O 99.1927 -1.03685 -3.99153 0
M  V30 1064 H 98.5337 -0.390196 -0.537255 0
M  V30 1065 H 101.064 -1.65002 -1.20977 0
M  V30 1066 H 101.074 -1.8228 -3.65018 0
M  V30 1067 H 99.7487 -2.81401 -3.06246 0
M  V30 1068 H 98.3257 -1.05611 -3.57632 0
M  V30 1069 N 100.511 1.16574 -1.06058 0
M  V30 1070 C 101.739 1.90952 -0.796552 0
M  V30 1071 C 102.154 1.77302 0.648808 0
M  V30 1072 O 101.511 1.11605 1.44397 0
M  V30 1073 C 101.562 3.41736 -1.17894 0
M  V30 1074 O 101.283 3.54975 -2.56758 0
M  V30 1075 C 102.784 4.33169 -0.942308 0
M  V30 1076 H 100.004 0.605594 -0.288959 0
M  V30 1077 H 102.548 1.47777 -1.41358 0
M  V30 1078 H 100.703 3.82623 -0.606491 0
M  V30 1079 H 101.117 4.4846 -2.72 0
M  V30 1080 H 102.591 5.37439 -1.25952 0
M  V30 1081 H 103.068 4.3903 0.122078 0
M  V30 1082 H 103.674 3.98007 -1.49902 0
M  V30 1083 N 101.989 0.842826 1.3317 0
M  V30 1084 C 103.236 0.440447 1.97652 0
M  V30 1085 C 103.564 -1.00123 1.6675 0
M  V30 1086 O 102.819 -1.7155 0.941761 0
M  V30 1087 C 103.118 0.612607 3.52111 0
M  V30 1088 C 102.784 2.02297 4.02972 0
M  V30 1089 C 101.446 2.40874 4.16573 0
M  V30 1090 C 103.798 2.94402 4.30089 0
M  V30 1091 C 101.126 3.70852 4.54627 0
M  V30 1092 C 103.478 4.23865 4.69597 0
M  V30 1093 C 102.142 4.62392 4.81404 0
M  V30 1094 H 101.412 0.161171 0.72326 0
M  V30 1095 H 104.059 1.07061 1.58777 0
M  V30 1096 H 102.364 -0.100849 3.9167 0
M  V30 1097 H 104.061 0.2815 4.00011 0
M  V30 1098 H 100.651 1.71338 3.92863 0
M  V30 1099 H 104.835 2.65835 4.19101 0
M  V30 1100 H 100.091 4.00501 4.61962 0
M  V30 1101 H 104.265 4.95306 4.89536 0
M  V30 1102 H 101.892 5.63154 5.10648 0
M  V30 1103 N 103.467 -1.45747 0.599634 0
M  V30 1104 C 104.397 -2.33235 -0.111306 0
M  V30 1105 C 105.378 -1.46359 -0.866781 0
M  V30 1106 O 106.563 -1.75146 -0.838904 0
M  V30 1107 C 103.693 -3.28932 -1.11451 0
M  V30 1108 C 102.647 -4.25381 -0.472772 0
M  V30 1109 C 101.973 -5.1071 -1.58365 0
M  V30 1110 C 103.273 -5.18831 0.600948 0
M  V30 1111 H 104.967 -2.92927 0.61919 0
M  V30 1112 H 102.513 -1.40857 0.299215 0
M  V30 1113 H 104.466 -3.89002 -1.62036 0
M  V30 1114 H 103.19 -2.67381 -1.8755 0
M  V30 1115 H 101.849 -3.66598 0.0121472 0
M  V30 1116 H 101.497 -4.45533 -2.33473 0
M  V30 1117 H 101.197 -5.7604 -1.15982 0
M  V30 1118 H 102.721 -5.73647 -2.09194 0
M  V30 1119 H 104.135 -5.73019 0.179491 0
M  V30 1120 H 102.532 -5.92595 0.946076 0
M  V30 1121 H 103.602 -4.6174 1.48068 0
M  V30 1122 N 104.945 -0.338344 -1.53925 0
M  V30 1123 C 105.875 0.51328 -2.27789 0
M  V30 1124 C 106.856 1.107 -1.29149 0
M  V30 1125 O 108.041 1.12937 -1.57984 0
M  V30 1126 C 105.171 1.66697 -3.04679 0
M  V30 1127 C 104.125 1.20183 -4.1078 0
M  V30 1128 C 103.451 2.44363 -4.75595 0
M  V30 1129 C 104.751 0.30605 -5.21403 0
M  V30 1130 H 106.445 -0.102883 -2.99223 0
M  V30 1131 H 103.991 -0.0509219 -1.4391 0
M  V30 1132 H 105.944 2.26915 -3.55088 0
M  V30 1133 H 104.668 2.30995 -2.30887 0
M  V30 1134 H 103.327 0.622499 -3.61276 0
M  V30 1135 H 102.975 3.07057 -3.98403 0
M  V30 1136 H 102.675 2.13925 -5.47275 0
M  V30 1137 H 104.199 3.05317 -5.28786 0
M  V30 1138 H 105.613 0.814929 -5.67478 0
M  V30 1139 H 104.01 0.0937929 -6.00027 0
M  V30 1140 H 105.08 -0.65921 -4.80398 0
M  V30 1141 N 106.423 1.57458 -0.0668435 0
M  V30 1142 C 107.353 2.15468 0.899764 0
M  V30 1143 C 108.334 1.08042 1.31381 0
M  V30 1144 O 109.519 1.36054 1.38574 0
M  V30 1145 C 106.649 2.71232 2.16911 0
M  V30 1146 C 105.603 3.83781 1.89463 0
M  V30 1147 C 104.929 4.26127 3.22986 0
M  V30 1148 C 106.229 5.08238 1.20381 0
M  V30 1149 H 107.923 2.96488 0.416529 0
M  V30 1150 H 105.469 1.4262 0.198908 0
M  V30 1151 H 107.422 3.10458 2.84945 0
M  V30 1152 H 106.146 1.87426 2.67468 0
M  V30 1153 H 104.805 3.45051 1.23836 0
M  V30 1154 H 104.453 3.39249 3.71374 0
M  V30 1155 H 104.153 5.01993 3.05413 0
M  V30 1156 H 105.677 4.67966 3.92225 0
M  V30 1157 H 107.091 5.44811 1.78475 0
M  V30 1158 H 105.488 5.89349 1.13083 0
M  V30 1159 H 106.558 4.84558 0.182153 0
M  V30 1160 N 107.901 -0.206675 1.56239 0
M  V30 1161 C 109.141 -0.93574 1.81723 0
M  V30 1162 C 109.505 -1.80927 0.642609 0
M  V30 1163 O 110.706 -2.57323 0.777081 0
M  V30 1164 C 108.977 -1.74012 3.12177 0
M  V30 1165 S 110.536 -2.52279 3.59028 0
M  V30 1166 H 107.354 -0.314065 0.637875 0
M  V30 1167 H 109.956 -0.200071 1.94474 0
M  V30 1168 H 108.66 -1.0888 3.95693 0
M  V30 1169 H 108.191 -2.51782 3.02274 0
M  V30 1170 H 110.206 -3.76209 3.23545 0
M  V30 1171 N 109.379 -1.50304 -0.473955 0
M  V30 1172 C 110.309 -1.71886 -1.58042 0
M  V30 1173 C 111.29 -0.567799 -1.60344 0
M  V30 1174 O 112.475 -0.806623 -1.76656 0
M  V30 1175 C 109.605 -1.81036 -2.96384 0
M  V30 1176 C 108.559 -2.962 -3.08949 0
M  V30 1177 C 107.885 -2.9049 -4.48909 0
M  V30 1178 C 109.185 -4.36752 -2.86434 0
M  V30 1179 H 110.879 -2.64527 -1.40234 0
M  V30 1180 H 108.425 -1.27295 -0.673201 0
M  V30 1181 H 110.378 -1.94719 -3.73714 0
M  V30 1182 H 109.102 -0.850147 -3.15341 0
M  V30 1183 H 107.761 -2.82164 -2.3405 0
M  V30 1184 H 107.409 -1.92321 -4.64781 0
M  V30 1185 H 107.109 -3.67802 -4.58253 0
M  V30 1186 H 108.633 -3.06218 -5.28264 0
M  V30 1187 H 110.047 -4.5133 -3.53517 0
M  V30 1188 H 108.444 -5.15493 -3.07225 0
M  V30 1189 H 109.514 -4.49321 -1.82316 0
M  V30 1190 N 110.857 0.726932 -1.39834 0
M  V30 1191 C 112.106 1.48214 -1.36805 0
M  V30 1192 C 112.419 1.95576 0.0305291 0
M  V30 1193 O 113.625 2.7088 0.183417 0
M  V30 1194 C 112.081 2.67854 -2.40379 0
M  V30 1195 C 111.689 2.27408 -3.85992 0
M  V30 1196 C 113.433 3.45641 -2.46439 0
M  V30 1197 C 111.34 3.43819 -4.81189 0
M  V30 1198 H 110.27 0.556606 -0.508631 0
M  V30 1199 H 112.921 0.792216 -1.65518 0
M  V30 1200 H 111.303 3.3896 -2.04749 0
M  V30 1201 H 112.477 1.63795 -4.30706 0
M  V30 1202 H 110.792 1.62692 -3.83302 0
M  V30 1203 H 113.389 4.32244 -3.14753 0
M  V30 1204 H 113.732 3.88669 -1.49139 0
M  V30 1205 H 114.265 2.8157 -2.81004 0
M  V30 1206 H 111.004 3.05834 -5.79781 0
M  V30 1207 H 110.524 4.06385 -4.41148 0
M  V30 1208 H 112.203 4.10043 -5.00474 0
M  V30 1209 N 112.336 1.25143 0.95797 0
M  V30 1210 C 113.582 1.09855 1.70469 0
M  V30 1211 C 113.915 -0.360187 1.90831 0
M  V30 1212 O 113.19 -1.26568 1.47685 0
M  V30 1213 C 113.473 1.8497 3.08963 0
M  V30 1214 C 113.326 3.38652 2.96032 0
M  V30 1215 C 114.645 1.63016 4.08795 0
M  V30 1216 H 111.764 0.400465 0.618706 0
M  V30 1217 H 114.406 1.53933 1.11376 0
M  V30 1218 H 112.556 1.47505 3.59409 0
M  V30 1219 H 114.228 3.85772 2.52938 0
M  V30 1220 H 112.471 3.66534 2.32025 0
M  V30 1221 H 113.142 3.8642 3.94187 0
M  V30 1222 H 115.618 1.95625 3.67247 0
M  V30 1223 H 114.494 2.18015 5.03747 0
M  V30 1224 H 114.755 0.570692 4.38401 0
M  V30 1225 N 113.814 -1.1601 1.06675 0
M  V30 1226 C 114.777 -2.18724 0.685001 0
M  V30 1227 C 115.777 -1.58496 -0.271246 0
M  V30 1228 O 116.967 -1.74119 -0.0531156 0
M  V30 1229 C 114.099 -3.40899 0.00853648 0
M  V30 1230 H 115.292 -2.54011 1.59431 0
M  V30 1231 H 112.845 -1.30352 0.862441 0
M  V30 1232 H 113.58 -3.11173 -0.913337 0
M  V30 1233 H 113.365 -3.8587 0.696204 0
M  V30 1234 H 114.855 -4.16886 -0.24414 0
M  V30 1235 N 115.292 -0.849877 -1.32721 0
M  V30 1236 C 116.539 -0.450923 -1.97416 0
M  V30 1237 C 116.867 0.992376 -1.67279 0
M  V30 1238 O 116.122 1.71048 -0.950845 0
M  V30 1239 C 116.421 -0.631272 -3.51781 0
M  V30 1240 C 116.087 -2.04432 -4.01894 0
M  V30 1241 C 114.749 -2.4308 -4.1529 0
M  V30 1242 C 117.101 -2.96679 -4.28522 0
M  V30 1243 C 114.429 -3.73257 -4.52654 0
M  V30 1244 C 116.781 -4.26349 -4.67343 0
M  V30 1245 C 115.445 -4.64939 -4.78945 0
M  V30 1246 H 114.715 -0.165004 -0.722395 0
M  V30 1247 H 117.362 -1.07901 -1.58207 0
M  V30 1248 H 115.667 0.0800767 -3.91718 0
M  V30 1249 H 117.364 -0.302709 -3.99856 0
M  V30 1250 H 113.954 -1.73419 -3.91949 0
M  V30 1251 H 118.138 -2.68054 -4.17685 0
M  V30 1252 H 113.394 -4.02946 -4.59831 0
M  V30 1253 H 117.568 -4.97895 -4.86902 0
M  V30 1254 H 115.195 -5.65855 -5.07654 0
M  V30 1255 N 116.77 1.45427 -0.607355 0
M  V30 1256 C 117.72 2.27612 0.133038 0
M  V30 1257 C 118.704 1.37307 0.838785 0
M  V30 1258 O 119.896 1.61299 0.728813 0
M  V30 1259 C 117.025 3.24173 1.12991 0
M  V30 1260 C 116.111 4.21965 0.425011 0
M  V30 1261 N 116.502 5.02982 -0.533217 0
M  V30 1262 C 114.8 4.40899 0.672593 0
M  V30 1263 C 115.501 5.73931 -0.947518 0
M  V30 1264 N 114.477 5.42819 -0.291321 0
M  V30 1265 H 118.279 2.87649 -0.602935 0
M  V30 1266 H 115.793 1.56576 -0.431006 0
M  V30 1267 H 117.79 3.81783 1.67473 0
M  V30 1268 H 116.45 2.65696 1.86644 0
M  V30 1269 H 117.461 5.09843 -0.90995 0
M  V30 1270 H 114.138 3.93547 1.39382 0
M  V30 1271 H 115.528 6.49037 -1.73782 0
M  V30 1272 N 118.248 0.346503 1.53744 0
M  V30 1273 C 119.211 -0.496439 2.23759 0
M  V30 1274 C 120.211 -1.0252 1.2388 0
M  V30 1275 O 121.401 -0.913974 1.48297 0
M  V30 1276 C 118.533 -1.69187 2.95954 0
M  V30 1277 H 119.726 0.115952 2.99676 0
M  V30 1278 H 117.279 0.0978939 1.55993 0
M  V30 1279 H 118.014 -2.34288 2.24231 0
M  V30 1280 H 117.799 -1.31989 3.69217 0
M  V30 1281 H 119.289 -2.28969 3.49232 0
M  V30 1282 N 119.726 -1.57421 0.075193 0
M  V30 1283 C 120.673 -2.12915 -0.890843 0
M  V30 1284 C 121.643 -1.04252 -1.29309 0
M  V30 1285 O 122.828 -1.31933 -1.37834 0
M  V30 1286 C 119.968 -2.69795 -2.15186 0
M  V30 1287 C 119.081 -3.92624 -1.80194 0
M  V30 1288 C 118.216 -4.37736 -3.00933 0
M  V30 1289 C 117.255 -5.53205 -2.61974 0
M  V30 1290 N 116.392 -5.9326 -3.75483 0
M  V30 1291 H 121.232 -2.95156 -0.410735 0
M  V30 1292 H 118.769 -1.45854 -0.191086 0
M  V30 1293 H 120.727 -3.00883 -2.89008 0
M  V30 1294 H 119.357 -1.90313 -2.60731 0
M  V30 1295 H 118.409 -3.67977 -0.964218 0
M  V30 1296 H 119.721 -4.76482 -1.47534 0
M  V30 1297 H 118.875 -4.70503 -3.8303 0
M  V30 1298 H 117.614 -3.52739 -3.36789 0
M  V30 1299 H 116.619 -5.20086 -1.783 0
M  V30 1300 H 117.844 -6.39936 -2.27284 0
M  V30 1301 H 115.79 -5.11212 -4.11094 0
M  V30 1302 H 115.707 -6.71865 -3.46602 0
M  V30 1303 H 116.975 -6.30651 -4.58148 0
M  V30 1304 N 121.204 0.198386 -1.56346 0
M  V30 1305 C 122.114 1.2664 -1.97483 0
M  V30 1306 C 123.13 1.49989 -0.882002 0
M  V30 1307 O 124.306 1.62668 -1.18748 0
M  V30 1308 C 121.371 2.59141 -2.30319 0
M  V30 1309 C 120.432 2.43892 -3.53292 0
M  V30 1310 C 119.665 3.70074 -3.84553 0
M  V30 1311 O 119.888 4.74101 -3.1715 0
M  V30 1312 O 118.822 3.658 -4.7799 0
M  V30 1313 H 122.648 0.947304 -2.88548 0
M  V30 1314 H 120.233 0.403123 -1.43859 0
M  V30 1315 H 122.115 3.37352 -2.5253 0
M  V30 1316 H 120.79 2.90684 -1.42423 0
M  V30 1317 H 119.697 1.63803 -3.36332 0
M  V30 1318 H 121.03 2.17282 -4.41644 0
M  V30 1319 N 122.682 1.50554 0.465978 0
M  V30 1320 C 123.928 1.62038 1.21949 0
M  V30 1321 C 124.261 0.322116 1.9151 0
M  V30 1322 O 123.536 -0.676723 1.82348 0
M  V30 1323 C 123.819 2.80421 2.25912 0
M  V30 1324 C 123.672 4.20144 1.60622 0
M  V30 1325 C 124.991 2.94354 3.27176 0
M  V30 1326 H 122.11 0.589752 0.441998 0
M  V30 1327 H 124.752 1.82956 0.51257 0
M  V30 1328 H 122.902 2.62717 2.86203 0
M  V30 1329 H 124.574 4.49449 1.03889 0
M  V30 1330 H 122.817 4.24165 0.909211 0
M  V30 1331 H 123.488 4.98914 2.36196 0
M  V30 1332 H 125.964 3.10578 2.76913 0
M  V30 1333 H 124.84 3.788 3.97242 0
M  V30 1334 H 125.101 2.05186 3.916 0
M  V30 1335 N 124.16 -0.719506 1.40217 0
M  V30 1336 C 125.092 -1.84428 1.36084 0
M  V30 1337 C 126.105 -1.60597 0.266913 0
M  V30 1338 O 127.294 -1.70544 0.526983 0
M  V30 1339 C 124.394 -3.20757 1.094 0
M  V30 1340 C 123.567 -3.71817 2.30372 0
M  V30 1341 C 122.626 -4.86748 1.99907 0
M  V30 1342 O 121.652 -4.99603 2.72737 0
M  V30 1343 N 122.854 -5.7226 0.974635 0
M  V30 1344 H 125.619 -1.88473 2.33019 0
M  V30 1345 H 123.18 -0.900885 1.3452 0
M  V30 1346 H 125.172 -3.95235 0.870116 0
M  V30 1347 H 123.742 -3.11884 0.211452 0
M  V30 1348 H 122.962 -2.88514 2.68614 0
M  V30 1349 H 124.25 -4.02666 3.11026 0
M  V30 1350 H 123.648 -5.6448 0.371368 0
M  V30 1351 H 122.205 -6.46739 0.810656 0
M  V30 1352 N 125.638 -1.25649 -0.95132 0
M  V30 1353 C 126.568 -1.08808 -2.06599 0
M  V30 1354 C 127.549 0.00382547 -1.701 0
M  V30 1355 O 128.734 -0.166325 -1.93486 0
M  V30 1356 C 125.864 -0.709542 -3.39975 0
M  V30 1357 C 124.818 -1.75206 -3.90496 0
M  V30 1358 C 124.144 -1.22811 -5.20405 0
M  V30 1359 C 125.444 -3.15153 -4.16504 0
M  V30 1360 H 127.138 -2.02048 -2.20946 0
M  V30 1361 H 124.684 -0.972835 -1.06169 0
M  V30 1362 H 126.637 -0.578649 -4.17408 0
M  V30 1363 H 125.361 0.258556 -3.25575 0
M  V30 1364 H 124.02 -1.87145 -3.15234 0
M  V30 1365 H 123.668 -0.250145 -5.02378 0
M  V30 1366 H 123.368 -1.92492 -5.55176 0
M  V30 1367 H 124.892 -1.10968 -6.00432 0
M  V30 1368 H 126.306 -3.06349 -4.84586 0
M  V30 1369 H 124.703 -3.82333 -4.62538 0
M  V30 1370 H 125.773 -3.61966 -3.22658 0
M  V30 1371 N 127.117 1.15442 -1.07289 0
M  V30 1372 C 128.364 1.86213 -0.795668 0
M  V30 1373 C 128.692 1.82291 0.678238 0
M  V30 1374 O 127.947 1.24057 1.51355 0
M  V30 1375 C 128.246 3.3489 -1.24834 0
M  V30 1376 C 127.912 3.59007 -2.72809 0
M  V30 1377 C 126.574 3.65298 -3.13227 0
M  V30 1378 C 128.926 3.68762 -3.68326 0
M  V30 1379 C 126.254 3.78854 -4.4798 0
M  V30 1380 C 128.606 3.83842 -5.0284 0
M  V30 1381 C 127.27 3.88378 -5.4288 0
M  V30 1382 H 126.54 0.681403 -0.291155 0
M  V30 1383 H 129.187 1.36435 -1.34379 0
M  V30 1384 H 127.492 3.8687 -0.619595 0
M  V30 1385 H 129.189 3.88052 -1.01076 0
M  V30 1386 H 125.779 3.5475 -2.40521 0
M  V30 1387 H 129.963 3.63202 -3.38227 0
M  V30 1388 H 125.219 3.80623 -4.78472 0
M  V30 1389 H 129.393 3.90332 -5.76727 0
M  V30 1390 H 127.02 3.98635 -6.47298 0
M  V30 1391 N 128.595 0.856903 1.32268 0
M  V30 1392 C 129.528 0.247937 2.26849 0
M  V30 1393 C 130.506 -0.615382 1.50505 0
M  V30 1394 O 131.69 -0.571689 1.79622 0
M  V30 1395 C 128.817 -0.650093 3.32403 0
M  V30 1396 C 127.863 0.140138 4.2627 0
M  V30 1397 S 128.696 1.51004 5.13769 0
M  V30 1398 C 129.852 0.61778 6.22844 0
M  V30 1399 H 130.085 1.04971 2.78152 0
M  V30 1400 H 127.618 0.654665 1.39834 0
M  V30 1401 H 129.576 -1.16256 3.93694 0
M  V30 1402 H 128.237 -1.4257 2.7988 0
M  V30 1403 H 127.43 -0.543945 5.01056 0
M  V30 1404 H 127.032 0.584267 3.69408 0
M  V30 1405 H 129.324 -0.177053 6.77269 0
M  V30 1406 H 130.267 1.33636 6.95375 0
M  V30 1407 H 130.675 0.191124 5.64176 0
M  V30 1408 N 130.073 -1.45103 0.615059 0
M  V30 1409 C 131.301 -2.06553 0.11977 0
M  V30 1410 C 131.716 -1.45842 -1.19898 0
M  V30 1411 O 131.073 -0.575325 -1.73194 0
M  V30 1412 C 131.124 -3.61495 -0.018364 0
M  V30 1413 O 130.845 -4.19942 1.24822 0
M  V30 1414 C 132.346 -4.39947 -0.544237 0
M  V30 1415 H 129.566 -0.667096 0.0722739 0
M  V30 1416 H 132.11 -1.8623 0.84491 0
M  V30 1417 H 130.265 -3.81135 -0.693865 0
M  V30 1418 H 130.679 -5.13204 1.0827 0
M  V30 1419 H 132.153 -5.48838 -0.589953 0
M  V30 1420 H 132.63 -4.10255 -1.56805 0
M  V30 1421 H 133.236 -4.25188 0.0974703 0
M  V30 1422 N 131.551 -0.354651 -1.53558 0
M  V30 1423 C 132.828 0.294281 -1.93374 0
M  V30 1424 C 133.208 1.67313 -1.28723 0
M  V30 1425 O 132.556 2.24179 -0.442247 0
M  V30 1426 C 132.766 0.355445 -3.47185 0
M  V30 1427 C 134.114 0.601007 -4.20325 0
M  V30 1428 O 135.138 0.437106 -3.53508 0
M  V30 1429 O 133.997 0.919322 -5.38712 0
M  V30 1430 H 131.091 0.174033 -0.808481 0
M  V30 1431 H 133.637 -0.406638 -1.64756 0
M  V30 1432 H 132.409 -0.611729 -3.86489 0
M  V30 1433 H 132.032 1.1027 -3.82003 0
M  V30 1434 N 133.029 1.57378 -0.0835403 0
M  V30 1435 C 133.977 2.14602 0.89714 0
M  V30 1436 C 134.971 1.08589 1.30018 0
M  V30 1437 O 136.177 1.26952 1.27606 0
M  V30 1438 H 132.552 0.686346 0.3073 0
M  V30 1439 H 134.523 2.95845 0.38969 0
M  V30 1440 C 133.272 2.73188 2.15089 0
M  V30 1441 H 132.595 3.54442 1.84962 0
M  V30 1442 H 134.035 3.1681 2.81793 0
M  V30 1443 C 132.494 1.68517 2.91725 0
M  V30 1444 O 133.024 1.11718 3.85852 0
M  V30 1445 N 131.23 1.39277 2.55049 0
M  V30 1446 H 130.777 1.85655 1.78577 0
M  V30 1447 H 130.735 0.694791 3.06627 0
M  V30 1448 N 134.507 -0.190092 1.56449 0
M  V30 1449 C 135.755 -0.907908 1.80559 0
M  V30 1450 C 136.076 -1.83583 0.657438 0
M  V30 1451 O 135.346 -1.93203 -0.323924 0
M  V30 1452 H 133.926 -0.338247 0.666032 0
M  V30 1453 H 136.588 -0.194403 1.93928 0
M  V30 1454 H 135.684 -1.49604 2.73907 0
M  V30 1455 N 135.985 -1.50799 -0.457987 0
M  V30 1456 C 136.915 -1.73553 -1.5621 0
M  V30 1457 C 137.896 -0.584774 -1.59732 0
M  V30 1458 O 139.081 -0.825314 -1.7579 0
M  V30 1459 C 136.211 -1.84169 -2.94447 0
M  V30 1460 C 135.165 -2.99461 -3.0579 0
M  V30 1461 C 134.491 -2.95235 -4.45803 0
M  V30 1462 C 135.791 -4.39766 -2.81786 0
M  V30 1463 H 137.485 -2.66 -1.37421 0
M  V30 1464 H 135.031 -1.28002 -0.659662 0
M  V30 1465 H 136.984 -1.98672 -3.71628 0
M  V30 1466 H 135.708 -0.883545 -3.14422 0
M  V30 1467 H 134.367 -2.8463 -2.31044 0
M  V30 1468 H 134.015 -1.97239 -4.62715 0
M  V30 1469 H 133.715 -3.72642 -4.54326 0
M  V30 1470 H 135.239 -3.11803 -5.24987 0
M  V30 1471 H 136.653 -4.55054 -3.4871 0
M  V30 1472 H 135.05 -5.18722 -3.0174 0
M  V30 1473 H 136.12 -4.51229 -1.7754 0
M  V30 1474 N 137.463 0.71206 -1.40597 0
M  V30 1475 C 138.879 1.02058 -1.22704 0
M  V30 1476 C 139.079 2.01228 -0.104729 0
M  V30 1477 O 138.135 2.4674 0.53624 0
M  V30 1478 C 139.448 1.56094 -2.57012 0
M  V30 1479 C 140.996 1.6806 -2.64054 0
M  V30 1480 C 141.471 2.25501 -3.9864 0
M  V30 1481 N 142.962 2.32882 -4.004 0
M  V30 1482 C 143.697 2.78317 -5.01325 0
M  V30 1483 N 143.193 3.23478 -6.12645 0
M  V30 1484 N 144.986 2.77733 -4.88693 0
M  V30 1485 H 137.137 0.0547896 -2.12329 0
M  V30 1486 H 139.4 0.0869027 -0.944008 0
M  V30 1487 H 139.106 0.906865 -3.39807 0
M  V30 1488 H 138.98 2.54564 -2.78347 0
M  V30 1489 H 141.367 2.32583 -1.81629 0
M  V30 1490 H 141.448 0.681802 -2.46546 0
M  V30 1491 H 141.092 1.61598 -4.81506 0
M  V30 1492 H 141.022 3.26102 -4.13479 0
M  V30 1493 H 143.513 2.00991 -3.20017 0
M  V30 1494 H 143.826 3.56725 -6.85542 0
M  V30 1495 H 142.171 3.21429 -6.16205 0
M  V30 1496 H 145.362 2.4179 -4.00818 0
M  V30 1497 H 145.535 3.12826 -5.67489 0
M  V30 1498 N 138.941 1.26152 0.944643 0
M  V30 1499 C 140.218 1.02247 1.66748 0
M  V30 1500 C 140.598 -0.448202 2.06287 0
M  V30 1501 O 139.946 -1.42779 1.78399 0
M  V30 1502 C 140.156 1.96788 2.88228 0
M  V30 1503 C 141.504 2.25201 3.59958 0
M  V30 1504 O 142.528 1.94626 2.98327 0
M  V30 1505 O 141.387 2.77242 4.70956 0
M  V30 1506 H 138.481 0.388517 0.730057 0
M  V30 1507 H 141.027 1.37348 0.99668 0
M  V30 1508 H 139.799 2.96047 2.55875 0
M  V30 1509 H 139.422 1.62145 3.63035 0
M  V30 1510 N 140.419 -1.14872 1.07899 0
M  V30 1511 C 141.665 -1.86289 0.81657 0
M  V30 1512 C 142.02 -1.8107 -0.65049 0
M  V30 1513 O 141.313 -1.22684 -1.47171 0
M  V30 1514 C 141.507 -3.34223 1.26609 0
M  V30 1515 C 141.336 -3.53846 2.77531 0
M  V30 1516 C 140.106 -3.68995 3.45212 0
M  V30 1517 C 142.304 -3.51201 3.75716 0
M  V30 1518 N 140.286 -3.76725 4.84718 0
M  V30 1519 C 141.657 -3.65112 5.01092 0
M  V30 1520 C 143.712 -3.34507 3.68794 0
M  V30 1521 C 142.415 -3.64056 6.20368 0
M  V30 1522 C 144.441 -3.34752 4.8754 0
M  V30 1523 C 143.803 -3.49199 6.11751 0
M  V30 1524 H 139.902 -0.698579 0.351443 0
M  V30 1525 H 142.486 -1.37713 1.37634 0
M  V30 1526 H 140.657 -3.81402 0.73395 0
M  V30 1527 H 142.389 -3.93377 0.95062 0
M  V30 1528 H 139.144 -3.70006 2.95622 0
M  V30 1529 H 139.568 -3.8432 5.5734 0
M  V30 1530 H 144.21 -3.22253 2.73702 0
M  V30 1531 H 141.928 -3.75087 7.15776 0
M  V30 1532 H 145.514 -3.23055 4.83866 0
M  V30 1533 H 144.394 -3.49328 7.02097 0
M  V30 1534 N 141.898 -0.863906 -1.31812 0
M  V30 1535 C 143.314 -0.555004 -1.49639 0
M  V30 1536 C 143.514 0.912266 -1.79666 0
M  V30 1537 O 142.57 1.69479 -1.87171 0
M  V30 1538 C 143.883 -1.44998 -2.63431 0
M  V30 1539 C 145.431 -1.45138 -2.77316 0
M  V30 1540 C 145.906 -2.33179 -3.94197 0
M  V30 1541 N 147.397 -2.31025 -4.01474 0
M  V30 1542 C 148.132 -2.95871 -4.9117 0
M  V30 1543 N 147.628 -3.69863 -5.8581 0
M  V30 1544 N 149.421 -2.85211 -4.84367 0
M  V30 1545 H 141.572 -1.81339 -1.10589 0
M  V30 1546 H 143.835 -0.77505 -0.545895 0
M  V30 1547 H 143.541 -2.49377 -2.48 0
M  V30 1548 H 143.415 -1.14409 -3.59431 0
M  V30 1549 H 145.802 -0.415201 -2.92164 0
M  V30 1550 H 145.883 -1.79747 -1.82001 0
M  V30 1551 H 145.527 -3.3687 -3.80107 0
M  V30 1552 H 145.457 -1.95897 -4.88807 0
M  V30 1553 H 147.948 -1.77238 -3.33759 0
M  V30 1554 H 148.261 -4.16486 -6.50968 0
M  V30 1555 H 146.606 -3.73971 -5.85808 0
M  V30 1556 H 149.797 -2.26948 -4.09405 0
M  V30 1557 H 149.97 -3.36027 -5.54066 0
M  V30 1558 N 143.376 1.44774 -0.622745 0
M  V30 1559 C 144.622 2.0242 -0.124083 0
M  V30 1560 C 144.955 1.4881 1.24777 0
M  V30 1561 O 144.23 0.668799 1.8264 0
M  V30 1562 C 144.513 3.59957 -0.101619 0
M  V30 1563 C 144.366 4.23867 -1.50521 0
M  V30 1564 C 145.685 4.36284 0.578272 0
M  V30 1565 H 142.804 0.735528 -0.0465645 0
M  V30 1566 H 145.446 1.72447 -0.797617 0
M  V30 1567 H 143.596 3.85623 0.471934 0
M  V30 1568 H 145.268 4.09336 -2.12701 0
M  V30 1569 H 143.511 3.81684 -2.06154 0
M  V30 1570 H 144.182 5.32843 -1.4416 0
M  V30 1571 H 146.658 4.16001 0.0906057 0
M  V30 1572 H 145.534 5.46004 0.563149 0
M  V30 1573 H 145.795 4.10271 1.64713 0
M  V30 1574 N 144.854 0.36279 1.53368 0
M  V30 1575 C 145.817 -0.472679 2.24273 0
M  V30 1576 C 146.817 -1.012 1.24961 0
M  V30 1577 O 148.007 -0.898194 1.49259 0
M  V30 1578 C 145.139 -1.66039 2.97731 0
M  V30 1579 H 146.332 0.14773 2.99536 0
M  V30 1580 H 143.885 0.114434 1.55881 0
M  V30 1581 H 144.62 -2.31896 2.26704 0
M  V30 1582 H 144.405 -1.28066 3.70596 0
M  V30 1583 H 145.895 -2.25252 3.51641 0
M  V30 1584 N 146.332 -1.57332 0.0918853 0
M  V30 1585 C 147.262 -2.16872 -0.865371 0
M  V30 1586 C 148.243 -1.10118 -1.29646 0
M  V30 1587 O 149.428 -1.38242 -1.36392 0
M  V30 1588 C 146.558 -2.74649 -2.12569 0
M  V30 1589 C 145.512 -3.86747 -1.83333 0
M  V30 1590 C 144.838 -4.31212 -3.16166 0
M  V30 1591 C 146.138 -5.10089 -1.1228 0
M  V30 1592 H 147.832 -2.97114 -0.369307 0
M  V30 1593 H 145.378 -1.42918 -0.176194 0
M  V30 1594 H 147.331 -3.14952 -2.7997 0
M  V30 1595 H 146.055 -1.91657 -2.64452 0
M  V30 1596 H 144.714 -3.46978 -1.18331 0
M  V30 1597 H 144.362 -3.45115 -3.6593 0
M  V30 1598 H 144.062 -5.06788 -2.97388 0
M  V30 1599 H 145.586 -4.74146 -3.84731 0
M  V30 1600 H 147 -5.47582 -1.69785 0
M  V30 1601 H 145.397 -5.91073 -1.03693 0
M  V30 1602 H 146.467 -4.84786 -0.105041 0
M  V30 1603 N 147.81 0.181792 -1.56548 0
M  V30 1604 C 149.038 0.915947 -1.85521 0
M  V30 1605 C 149.453 1.76282 -0.676016 0
M  V30 1606 O 148.81 1.79012 0.355077 0
M  V30 1607 C 148.861 1.80126 -3.13427 0
M  V30 1608 O 148.582 0.988562 -4.26801 0
M  V30 1609 C 150.083 2.64597 -3.55673 0
M  V30 1610 H 147.303 0.26661 -0.61576 0
M  V30 1611 H 149.847 0.185039 -2.03661 0
M  V30 1612 H 148.002 2.48563 -2.97145 0
M  V30 1613 H 148.416 1.59308 -4.99721 0
M  V30 1614 H 149.89 3.2235 -4.48101 0
M  V30 1615 H 150.367 3.38958 -2.79292 0
M  V30 1616 H 150.973 2.0151 -3.74532 0
M  V30 1617 N 149.288 1.51039 0.449983 0
M  V30 1618 C 150.536 1.62759 1.19808 0
M  V30 1619 C 150.857 0.339981 1.92013 0
M  V30 1620 O 150.127 -0.643606 1.85026 0
M  V30 1621 H 148.707 0.599811 0.445237 0
M  V30 1622 H 151.369 1.87914 0.517138 0
M  V30 1623 H 150.465 2.44911 1.93455 0
M  V30 1624 N 150.766 -0.704594 1.40972 0
M  V30 1625 C 152.182 -1.01406 1.23244 0
M  V30 1626 C 152.382 -2.01169 0.115399 0
M  V30 1627 O 151.438 -2.47021 -0.523147 0
M  V30 1628 C 152.751 -1.54728 2.57836 0
M  V30 1629 C 154.299 -1.66658 2.64942 0
M  V30 1630 C 154.774 -2.23383 3.9983 0
M  V30 1631 N 156.265 -2.30756 4.01629 0
M  V30 1632 C 157 -2.75655 5.02794 0
M  V30 1633 N 156.496 -3.20225 6.14352 0
M  V30 1634 N 158.289 -2.75138 4.90159 0
M  V30 1635 H 150.44 -0.0435285 2.12355 0
M  V30 1636 H 152.703 -0.0818951 0.944456 0
M  V30 1637 H 152.409 -0.888832 3.40283 0
M  V30 1638 H 152.283 -2.53084 2.79693 0
M  V30 1639 H 154.67 -2.31617 1.8286 0
M  V30 1640 H 154.751 -0.668717 2.46904 0
M  V30 1641 H 154.395 -1.59043 4.82357 0
M  V30 1642 H 154.325 -3.23904 4.15203 0
M  V30 1643 H 156.816 -1.99291 3.21079 0
M  V30 1644 H 157.129 -3.53084 6.87424 0
M  V30 1645 H 155.474 -3.18156 6.17901 0
M  V30 1646 H 158.665 -2.39661 4.02095 0
M  V30 1647 H 158.838 -3.09812 5.6914 0
M  V30 1648 N 152.244 -1.26651 -0.937939 0
M  V30 1649 C 153.176 -1.04283 -2.04102 0
M  V30 1650 C 154.189 -0.00221014 -1.628 0
M  V30 1651 O 155.378 -0.242645 -1.76843 0
M  V30 1652 C 152.478 -0.557846 -3.34277 0
M  V30 1653 C 151.651 -1.66843 -4.04329 0
M  V30 1654 C 150.71 -1.18095 -5.12777 0
M  V30 1655 O 149.736 -1.87865 -5.37304 0
M  V30 1656 N 150.938 -0.0311006 -5.80492 0
M  V30 1657 H 153.703 -1.9927 -2.23856 0
M  V30 1658 H 151.264 -1.1808 -1.10764 0
M  V30 1659 H 153.256 -0.215836 -4.04124 0
M  V30 1660 H 151.826 0.298523 -3.11171 0
M  V30 1661 H 151.046 -2.18123 -3.28353 0
M  V30 1662 H 152.334 -2.41408 -4.47883 0
M  V30 1663 H 151.732 0.551486 -5.63005 0
M  V30 1664 H 150.289 0.251809 -6.51313 0
M  V30 1665 N 153.722 1.14298 -1.08507 0
M  V30 1666 C 154.685 2.17607 -0.719711 0
M  V30 1667 C 155.685 1.58907 0.245997 0
M  V30 1668 O 156.875 1.74181 0.0254081 0
M  V30 1669 C 154.007 3.40842 -0.0627695 0
M  V30 1670 H 155.2 2.51443 -1.63452 0
M  V30 1671 H 152.753 1.28963 -0.88307 0
M  V30 1672 H 153.488 3.12587 0.863716 0
M  V30 1673 H 153.273 3.84713 -0.757504 0
M  V30 1674 H 154.763 4.17221 0.177786 0
M  V30 1675 N 155.201 0.870884 1.31352 0
M  V30 1676 C 156.164 0.332243 2.26779 0
M  V30 1677 C 157.164 -0.517302 1.52252 0
M  V30 1678 O 158.354 -0.326477 1.71113 0
M  V30 1679 C 155.486 -0.528066 3.36785 0
M  V30 1680 H 156.679 1.17469 2.75937 0
M  V30 1681 H 154.232 0.64655 1.423 0
M  V30 1682 H 154.967 -1.39167 2.92922 0
M  V30 1683 H 154.752 0.0802582 3.92018 0
M  V30 1684 H 156.242 -0.897179 4.07849 0
M  V30 1685 N 156.679 -1.44442 0.630414 0
M  V30 1686 C 157.611 -2.2892 -0.113347 0
M  V30 1687 C 158.624 -1.41243 -0.80959 0
M  V30 1688 O 159.813 -1.65402 -0.671156 0
M  V30 1689 C 156.913 -3.17594 -1.18266 0
M  V30 1690 C 156.086 -4.33682 -0.569073 0
M  V30 1691 C 155.145 -5.03397 -1.53226 0
M  V30 1692 O 154.171 -5.59438 -1.04967 0
M  V30 1693 N 155.373 -5.04783 -2.86661 0
M  V30 1694 H 158.138 -2.93392 0.611636 0
M  V30 1695 H 155.699 -1.54881 0.471523 0
M  V30 1696 H 157.691 -3.61097 -1.82732 0
M  V30 1697 H 156.261 -2.54876 -1.80988 0
M  V30 1698 H 155.481 -3.9338 0.254187 0
M  V30 1699 H 156.769 -5.08608 -0.139767 0
M  V30 1700 H 156.167 -4.60584 -3.28449 0
M  V30 1701 H 154.724 -5.52077 -3.46489 0
M  V30 1702 N 158.157 -0.370918 -1.53173 0
M  V30 1703 C 159.406 0.218249 -2.00516 0
M  V30 1704 C 159.719 1.49429 -1.26215 0
M  V30 1705 O 160.925 2.16239 -1.64174 0
M  V30 1706 C 159.381 0.43948 -3.57207 0
M  V30 1707 C 158.989 -0.822244 -4.4039 0
M  V30 1708 C 160.733 0.986012 -4.1289 0
M  V30 1709 C 158.64 -0.570304 -5.88644 0
M  V30 1710 H 157.57 0.0853333 -0.749156 0
M  V30 1711 H 160.221 -0.490483 -1.76823 0
M  V30 1712 H 158.603 1.20961 -3.77074 0
M  V30 1713 H 159.777 -1.59557 -4.32294 0
M  V30 1714 H 158.092 -1.29238 -3.95836 0
M  V30 1715 H 160.689 1.18991 -5.21292 0
M  V30 1716 H 161.032 1.94972 -3.6782 0
M  V30 1717 H 161.565 0.27592 -3.96842 0
M  V30 1718 H 158.304 -1.50449 -6.38001 0
M  V30 1719 H 157.824 0.164427 -5.99575 0
M  V30 1720 H 159.503 -0.19784 -6.46697 0
M  V30 1721 N 159.635 1.57281 -0.100228 0
M  V30 1722 C 160.881 1.94826 0.563101 0
M  V30 1723 C 161.214 0.982475 1.67514 0
M  V30 1724 O 160.489 0.0164069 1.94493 0
M  V30 1725 C 160.772 3.42453 1.11346 0
M  V30 1726 C 160.625 4.498 0.00612081 0
M  V30 1727 C 161.944 3.91506 2.01024 0
M  V30 1728 H 159.063 0.708428 0.203221 0
M  V30 1729 H 161.705 1.8922 -0.171979 0
M  V30 1730 H 159.855 3.47361 1.7399 0
M  V30 1731 H 161.527 4.57 -0.628357 0
M  V30 1732 H 159.77 4.28756 -0.659581 0
M  V30 1733 H 160.441 5.50306 0.432109 0
M  V30 1734 H 162.917 3.88784 1.48278 0
M  V30 1735 H 161.793 4.95358 2.36457 0
M  V30 1736 H 162.054 3.31099 2.92961 0
M  V30 1737 N 161.113 -0.173488 1.56642 0
M  V30 1738 C 162.043 -1.2171 1.99271 0
M  V30 1739 C 163.024 -1.46289 0.867959 0
M  V30 1740 O 164.209 -1.5766 1.13388 0
M  V30 1741 C 161.339 -2.55651 2.35074 0
M  V30 1742 C 160.293 -2.45645 3.50489 0
M  V30 1743 C 159.619 -3.84056 3.72028 0
M  V30 1744 C 160.919 -1.96302 4.84007 0
M  V30 1745 H 162.613 -0.86275 2.867 0
M  V30 1746 H 160.159 -0.413571 1.37933 0
M  V30 1747 H 162.112 -3.2886 2.63494 0
M  V30 1748 H 160.836 -2.92869 1.44552 0
M  V30 1749 H 159.495 -1.7489 3.22194 0
M  V30 1750 H 159.143 -4.18664 2.788 0
M  V30 1751 H 158.843 -3.7823 4.49684 0
M  V30 1752 H 160.367 -4.58854 4.02846 0
M  V30 1753 H 161.781 -2.59284 5.11317 0
M  V30 1754 H 160.178 -2.01429 5.65284 0
M  V30 1755 H 161.248 -0.917226 4.76146 0
M  V30 1756 N 162.591 -1.51276 -0.441967 0
M  V30 1757 C 163.501 -1.75092 -1.56141 0
M  V30 1758 C 164.517 -0.634963 -1.62001 0
M  V30 1759 O 165.693 -0.916686 -1.79329 0
M  V30 1760 C 162.758 -1.86666 -2.92158 0
M  V30 1761 C 161.819 -3.10506 -2.96453 0
M  V30 1762 C 161.052 -3.21519 -4.25982 0
M  V30 1763 O 161.275 -2.38586 -5.18105 0
M  V30 1764 O 160.209 -4.14465 -4.36466 0
M  V30 1765 H 164.035 -2.70044 -1.38961 0
M  V30 1766 H 161.62 -1.35722 -0.624499 0
M  V30 1767 H 163.502 -1.96292 -3.72891 0
M  V30 1768 H 162.177 -0.949014 -3.09476 0
M  V30 1769 H 161.084 -3.06363 -2.14692 0
M  V30 1770 H 162.417 -4.01945 -2.84079 0
M  V30 1771 N 164.069 0.697108 -1.41344 0
M  V30 1772 C 164.999 1.82353 -1.45841 0
M  V30 1773 C 165.98 1.67115 -0.317247 0
M  V30 1774 O 167.165 1.86871 -0.528474 0
M  V30 1775 C 164.295 3.20476 -1.33838 0
M  V30 1776 C 163.249 3.50415 -2.4575 0
M  V30 1777 C 162.575 4.87878 -2.18813 0
M  V30 1778 C 163.875 3.49546 -3.88091 0
M  V30 1779 H 165.569 1.78846 -2.40113 0
M  V30 1780 H 163.115 0.859028 -1.15571 0
M  V30 1781 H 165.068 3.98988 -1.35596 0
M  V30 1782 H 163.792 3.24604 -0.360498 0
M  V30 1783 H 162.451 2.74253 -2.43271 0
M  V30 1784 H 162.099 4.8863 -1.19371 0
M  V30 1785 H 161.799 5.08875 -2.93803 0
M  V30 1786 H 163.323 5.68702 -2.22284 0
M  V30 1787 H 164.737 4.18066 -3.92293 0
M  V30 1788 H 163.134 3.82075 -4.62751 0
M  V30 1789 H 164.204 2.48552 -4.16353 0
M  V30 1790 N 165.547 1.27147 0.931209 0
M  V30 1791 C 166.793 1.13446 1.68101 0
M  V30 1792 C 167.126 -0.319628 1.91552 0
M  V30 1793 O 166.401 -1.23407 1.50336 0
M  V30 1794 C 166.684 1.91482 3.0497 0
M  V30 1795 C 166.537 3.44855 2.88782 0
M  V30 1796 C 167.856 1.71651 4.05246 0
M  V30 1797 H 164.975 0.413498 0.610072 0
M  V30 1798 H 167.617 1.56261 1.08086 0
M  V30 1799 H 165.767 1.55095 3.56199 0
M  V30 1800 H 167.439 3.9105 2.44698 0
M  V30 1801 H 165.682 3.71373 2.24198 0
M  V30 1802 H 166.353 3.94694 3.85902 0
M  V30 1803 H 168.829 2.0337 3.63015 0
M  V30 1804 H 167.705 2.28651 4.99009 0
M  V30 1805 H 167.966 0.663555 4.37092 0
M  V30 1806 N 167.025 -1.13721 1.09112 0
M  V30 1807 C 168.271 -1.85198 0.826414 0
M  V30 1808 C 168.604 -1.83129 -0.646319 0
M  V30 1809 O 167.879 -1.2671 -1.47563 0
M  V30 1810 C 168.162 -3.33507 1.35812 0
M  V30 1811 C 168.015 -3.44108 2.89672 0
M  V30 1812 C 169.334 -4.28838 0.989256 0
M  V30 1813 H 166.453 -0.67243 0.301675 0
M  V30 1814 H 169.095 -1.33499 1.35197 0
M  V30 1815 H 167.245 -3.77666 0.911082 0
M  V30 1816 H 168.917 -3.08684 3.428 0
M  V30 1817 H 167.16 -2.85087 3.26967 0
M  V30 1818 H 167.831 -4.48388 3.21951 0
M  V30 1819 H 170.307 -3.92734 1.37475 0
M  V30 1820 H 169.183 -5.31051 1.38838 0
M  V30 1821 H 169.444 -4.4198 -0.102924 0
M  V30 1822 N 168.503 -0.877838 -1.30888 0
M  V30 1823 C 169.743 -0.499301 -1.98208 0
M  V30 1824 C 170.107 0.932649 -1.67826 0
M  V30 1825 O 171.308 1.41694 -2.28421 0
M  V30 1826 C 169.579 -0.758221 -3.49265 0
M  V30 1827 S 171.138 -0.480719 -4.36159 0
M  V30 1828 H 167.956 -0.186062 -0.686223 0
M  V30 1829 H 170.558 -1.13556 -1.59139 0
M  V30 1830 H 169.262 -1.79903 -3.68867 0
M  V30 1831 H 168.793 -0.109247 -3.93248 0
M  V30 1832 H 170.808 0.683698 -4.91467 0
M  V30 1833 N 169.982 1.44106 -0.638065 0
M  V30 1834 C 171.23 2.01579 -0.145043 0
M  V30 1835 C 171.551 1.50496 1.24 0
M  V30 1836 O 170.821 0.711374 1.82527 0
M  V30 1837 H 169.401 0.745282 -0.05063 0
M  V30 1838 H 172.063 1.76516 -0.826327 0
M  V30 1839 H 171.159 3.11877 -0.118039 0
M  V30 1840 N 171.46 0.379036 1.52974 0
M  V30 1841 C 172.39 -0.452706 2.29069 0
M  V30 1842 C 173.371 -1.07237 1.32039 0
M  V30 1843 O 174.556 -1.08708 1.60923 0
M  V30 1844 C 171.686 -1.5856 3.08992 0
M  V30 1845 C 170.64 -1.0925 4.13822 0
M  V30 1846 C 169.966 -2.31668 4.81907 0
M  V30 1847 C 171.266 -0.167702 5.22031 0
M  V30 1848 H 172.96 0.182181 2.98845 0
M  V30 1849 H 170.506 0.0890592 1.43724 0
M  V30 1850 H 172.459 -2.1742 3.6098 0
M  V30 1851 H 171.183 -2.24792 2.36931 0
M  V30 1852 H 169.842 -0.526494 3.628 0
M  V30 1853 H 169.49 -2.96386 4.06404 0
M  V30 1854 H 169.19 -1.9934 5.52754 0
M  V30 1855 H 170.714 -2.91189 5.36695 0
M  V30 1856 H 172.128 -0.664186 5.6944 0
M  V30 1857 H 170.525 0.0653265 6.00064 0
M  V30 1858 H 171.595 0.786347 4.78482 0
M  V30 1859 N 172.938 -1.57226 0.108567 0
M  V30 1860 C 173.888 -2.11305 -0.856396 0
M  V30 1861 C 174.872 -1.03129 -1.23504 0
M  V30 1862 O 176.064 -1.29381 -1.20787 0
M  V30 1863 C 173.193 -2.70771 -2.11041 0
M  V30 1864 C 172.279 -3.86011 -1.7566 0
M  V30 1865 N 172.67 -4.93492 -1.10902 0
M  V30 1866 C 170.968 -3.95999 -2.05185 0
M  V30 1867 C 171.669 -5.73984 -0.944308 0
M  V30 1868 N 170.645 -5.2346 -1.46596 0
M  V30 1869 H 174.447 -2.91784 -0.352002 0
M  V30 1870 H 171.961 -1.62126 -0.0942324 0
M  V30 1871 H 173.958 -3.07851 -2.81128 0
M  V30 1872 H 172.618 -1.91751 -2.62034 0
M  V30 1873 H 173.629 -5.1208 -0.774235 0
M  V30 1874 H 170.306 -3.28007 -2.58298 0
M  V30 1875 H 171.696 -6.70479 -0.436813 0
M  V30 1876 N 174.416 0.165178 -1.56732 0
M  V30 1877 C 175.827 0.727046 -1.71962 0
M  V30 1878 C 176.178 1.82508 -0.720078 0
M  V30 1879 O 175.303 2.16082 0.117242 0
M  V30 1880 C 175.898 1.32559 -3.11791 0
M  V30 1881 C 174.457 1.83422 -3.28684 0
M  V30 1882 C 173.604 0.715567 -2.67908 0
M  V30 1883 H 176.555 -0.0602896 -1.58585 0
M  V30 1884 H 176.576 2.19533 -3.10782 0
M  V30 1885 H 176.088 0.526195 -3.84516 0
M  V30 1886 H 174.189 2.65986 -2.60926 0
M  V30 1887 H 174.302 1.97543 -4.36478 0
M  V30 1888 H 172.666 1.13758 -2.27884 0
M  V30 1889 H 173.449 -0.0720836 -3.43224 0
M  V30 1890 N 175.894 1.51508 0.433938 0
M  V30 1891 C 176.857 1.72473 1.50949 0
M  V30 1892 C 177.857 0.594725 1.49398 0
M  V30 1893 O 179.047 0.862315 1.5136 0
M  V30 1894 C 176.179 1.78431 2.90474 0
M  V30 1895 H 177.372 2.68467 1.33662 0
M  V30 1896 H 174.925 1.41549 0.662836 0
M  V30 1897 H 175.66 0.842645 3.13161 0
M  V30 1898 H 175.445 2.60558 2.93005 0
M  V30 1899 H 176.935 1.96479 3.68491 0
M  V30 1900 N 177.372 -0.689602 1.41712 0
M  V30 1901 C 178.783 -1.26973 1.36875 0
M  V30 1902 C 179.134 -1.96124 0.054748 0
M  V30 1903 O 178.259 -1.99141 -0.84687 0
M  V30 1904 C 178.854 -2.30912 2.47922 0
M  V30 1905 C 177.413 -2.84486 2.46464 0
M  V30 1906 C 176.56 -1.58603 2.27465 0
M  V30 1907 H 179.511 -0.48396 1.51141 0
M  V30 1908 H 179.532 -3.12331 2.17323 0
M  V30 1909 H 179.044 -1.80554 3.43543 0
M  V30 1910 H 177.145 -3.39005 1.54617 0
M  V30 1911 H 177.258 -3.34511 3.42986 0
M  V30 1912 H 175.622 -1.84632 1.75451 0
M  V30 1913 H 176.405 -1.10233 3.25121 0
M  V30 1914 N 178.85 -1.27639 -0.924453 0
M  V30 1915 C 180.096 -1.14336 -1.67497 0
M  V30 1916 C 180.429 0.309465 -1.91718 0
M  V30 1917 O 179.704 1.22608 -1.50989 0
M  V30 1918 C 179.987 -1.93096 -3.0395 0
M  V30 1919 C 179.84 -3.46381 -2.8695 0
M  V30 1920 C 181.159 -1.73798 -4.0433 0
M  V30 1921 H 178.278 -0.416728 -0.607871 0
M  V30 1922 H 180.92 -1.56832 -1.07256 0
M  V30 1923 H 179.07 -1.56982 -3.55372 0
M  V30 1924 H 180.742 -3.92343 -2.42621 0
M  V30 1925 H 178.985 -3.72557 -2.22225 0
M  V30 1926 H 179.656 -3.96735 -3.83804 0
M  V30 1927 H 182.132 -2.05293 -3.61931 0
M  V30 1928 H 181.008 -2.31294 -4.97789 0
M  V30 1929 H 181.269 -0.686725 -4.36734 0
M  V30 1930 N 180.328 1.1314 -1.09713 0
M  V30 1931 C 181.744 1.36477 -0.827423 0
M  V30 1932 C 181.944 1.93654 0.556817 0
M  V30 1933 O 181 2.15791 1.31112 0
M  V30 1934 C 182.313 2.31334 -1.92106 0
M  V30 1935 C 183.861 2.44943 -1.94864 0
M  V30 1936 C 184.336 3.4311 -3.0338 0
M  V30 1937 N 185.827 3.50662 -3.02639 0
M  V30 1938 C 186.562 4.2651 -3.83246 0
M  V30 1939 N 186.058 5.05485 -4.73768 0
M  V30 1940 N 187.851 4.2184 -3.71493 0
M  V30 1941 H 180.002 0.743807 -1.9895 0
M  V30 1942 H 182.265 0.389823 -0.864143 0
M  V30 1943 H 181.971 1.96483 -2.91698 0
M  V30 1944 H 181.845 3.31381 -1.80184 0
M  V30 1945 H 184.232 2.79079 -0.959099 0
M  V30 1946 H 184.313 1.4481 -2.10864 0
M  V30 1947 H 183.957 3.09704 -4.02549 0
M  V30 1948 H 183.887 4.43055 -2.84622 0
M  V30 1949 H 186.378 2.94315 -2.37039 0
M  V30 1950 H 186.691 5.60675 -5.3185 0
M  V30 1951 H 185.036 5.04708 -4.77802 0
M  V30 1952 H 188.227 3.5922 -3.00131 0
M  V30 1953 H 188.4 4.80697 -4.3455 0
M  V30 1954 N 181.806 0.884767 1.30421 0
M  V30 1955 C 183.054 0.502112 1.95763 0
M  V30 1956 C 183.375 -0.951815 1.70192 0
M  V30 1957 O 182.645 -1.6692 1.0254 0
M  V30 1958 H 181.225 0.182694 0.724315 0
M  V30 1959 H 183.887 1.1278 1.58955 0
M  V30 1960 H 182.983 0.672188 3.04775 0
M  V30 1961 N 183.284 -1.43765 0.645699 0
M  V30 1962 C 184.695 -1.85193 0.236719 0
M  V30 1963 C 185.046 -1.54045 -1.21509 0
M  V30 1964 O 184.171 -0.985694 -1.92647 0
M  V30 1965 C 184.766 -3.36151 0.422845 0
M  V30 1966 C 183.325 -3.76338 0.0682492 0
M  V30 1967 C 182.472 -2.67538 0.729306 0
M  V30 1968 H 185.423 -1.34025 0.849883 0
M  V30 1969 H 185.444 -3.79032 -0.333904 0
M  V30 1970 H 184.956 -3.5879 1.47958 0
M  V30 1971 H 183.057 -3.59312 -0.986179 0
M  V30 1972 H 183.17 -4.76603 0.488469 0
M  V30 1973 H 181.534 -2.54176 0.163235 0
M  V30 1974 H 182.317 -2.93006 1.78892 0
M  V30 1975 N 184.763 -0.387143 -1.52771 0
M  V30 1976 C 186.174 0.0873634 -1.86495 0
M  V30 1977 C 186.525 1.46336 -1.30691 0
M  V30 1978 O 185.65 2.068 -0.637409 0
M  V30 1979 C 186.245 0.165305 -3.38396 0
M  V30 1980 C 184.804 0.584101 -3.7184 0
M  V30 1981 C 183.951 -0.255279 -2.76122 0
M  V30 1982 H 186.902 -0.605104 -1.46711 0
M  V30 1983 H 186.923 0.984848 -3.67534 0
M  V30 1984 H 186.435 -0.836301 -3.78982 0
M  V30 1985 H 184.536 1.59315 -3.36823 0
M  V30 1986 H 184.649 0.343749 -4.77865 0
M  V30 1987 H 183.013 0.279126 -2.53166 0
M  V30 1988 H 183.796 -1.25482 -3.19545 0
M  V30 1989 N 186.241 1.57166 -0.116904 0
M  V30 1990 C 187.481 1.97008 0.544715 0
M  V30 1991 C 187.845 0.998713 1.63981 0
M  V30 1992 O 189.046 1.28644 2.36018 0
M  V30 1993 C 187.317 3.41145 1.06559 0
M  V30 1994 S 188.876 4.02998 1.73603 0
M  V30 1995 H 185.694 0.688587 0.177112 0
M  V30 1996 H 188.296 1.94459 -0.201487 0
M  V30 1997 H 187 4.09592 0.257374 0
M  V30 1998 H 186.531 3.4734 1.84712 0
M  V30 1999 H 188.546 3.93585 3.02168 0
M  V30 2000 N 187.719 -0.156864 1.56817 0
M  V30 2001 C 188.965 -0.872416 1.83076 0
M  V30 2002 C 189.298 -1.81261 0.697001 0
M  V30 2003 O 188.573 -1.92171 -0.30008 0
M  V30 2004 C 188.856 -1.65551 3.19789 0
M  V30 2005 C 188.709 -0.737467 4.43713 0
M  V30 2006 C 190.028 -2.62012 3.53606 0
M  V30 2007 H 187.147 -0.315715 0.665953 0
M  V30 2008 H 189.789 -0.138004 1.89498 0
M  V30 2009 H 187.939 -2.28159 3.14445 0
M  V30 2010 H 189.611 -0.123143 4.61136 0
M  V30 2011 H 187.854 -0.0464067 4.33775 0
M  V30 2012 H 188.525 -1.32122 5.35955 0
M  V30 2013 H 191.001 -2.09525 3.59497 0
M  V30 2014 H 189.877 -3.13861 4.50314 0
M  V30 2015 H 190.138 -3.42902 2.79053 0
M  V30 2016 N 189.197 -1.51736 -0.425897 0
M  V30 2017 C 190.129 -1.70083 -1.53638 0
M  V30 2018 C 191.142 -0.581349 -1.52066 0
M  V30 2019 O 192.331 -0.856017 -1.56635 0
M  V30 2020 C 189.431 -1.71078 -2.9255 0
M  V30 2021 C 188.604 -2.99795 -3.185 0
M  V30 2022 C 187.663 -2.92825 -4.37196 0
M  V30 2023 O 186.689 -3.66756 -4.35291 0
M  V30 2024 N 187.891 -2.0946 -5.41393 0
M  V30 2025 H 190.656 -2.65882 -1.383 0
M  V30 2026 H 188.217 -1.49765 -0.614988 0
M  V30 2027 H 190.209 -1.63969 -3.69995 0
M  V30 2028 H 188.779 -0.828242 -3.01428 0
M  V30 2029 H 187.999 -3.20684 -2.2925 0
M  V30 2030 H 189.287 -3.84977 -3.32671 0
M  V30 2031 H 188.685 -1.48792 -5.45781 0
M  V30 2032 H 187.242 -2.08221 -6.17647 0
M  V30 2033 N 190.675 0.682077 -1.42076 0
M  V30 2034 C 191.952 1.43755 -1.32642 0
M  V30 2035 C 192.332 2.11063 0.0396611 0
M  V30 2036 O 191.68 2.02701 1.05474 0
M  V30 2037 C 191.89 2.44596 -2.48946 0
M  V30 2038 C 193.238 3.09454 -2.9073 0
M  V30 2039 O 194.262 2.54922 -2.48783 0
M  V30 2040 O 193.121 4.08253 -3.63307 0
M  V30 2041 H 190.215 0.640857 -0.522715 0
M  V30 2042 H 192.761 0.711415 -1.54068 0
M  V30 2043 H 191.533 1.93609 -3.40046 0
M  V30 2044 H 191.156 3.24701 -2.29467 0
M  V30 2045 N 192.153 1.28127 0.917671 0
M  V30 2046 C 193.083 1.14248 2.03641 0
M  V30 2047 C 194.064 0.0412748 1.7005 0
M  V30 2048 O 195.249 0.217566 1.92977 0
M  V30 2049 C 192.379 0.799431 3.37974 0
M  V30 2050 C 191.333 1.85497 3.85713 0
M  V30 2051 C 190.659 1.36565 5.16966 0
M  V30 2052 C 191.959 3.26085 4.08002 0
M  V30 2053 H 193.653 2.07835 2.15511 0
M  V30 2054 H 191.199 1.00064 1.03553 0
M  V30 2055 H 193.152 0.689114 4.15727 0
M  V30 2056 H 191.876 -0.172145 3.26146 0
M  V30 2057 H 190.535 1.95437 3.10161 0
M  V30 2058 H 190.183 0.383253 5.01538 0
M  V30 2059 H 189.883 2.07143 5.49878 0
M  V30 2060 H 191.407 1.26848 5.97279 0
M  V30 2061 H 192.821 3.19089 4.76293 0
M  V30 2062 H 191.218 3.94462 4.52238 0
M  V30 2063 H 192.288 3.70394 3.12948 0
M  V30 2064 N 193.631 -1.12557 1.10312 0
M  V30 2065 C 194.879 -1.83675 0.843091 0
M  V30 2066 C 195.2 -1.84435 -0.633131 0
M  V30 2067 O 194.47 -1.30657 -1.45964 0
M  V30 2068 H 193.05 -0.680138 0.308904 0
M  V30 2069 H 195.712 -1.36301 1.39313 0
M  V30 2070 H 194.808 -2.87908 1.2048 0
M  V30 2071 N 195.109 -0.891671 -1.2995 0
M  V30 2072 C 196.072 -0.36828 -2.26222 0
M  V30 2073 C 197.072 0.493014 -1.53056 0
M  V30 2074 O 198.262 0.299213 -1.71611 0
M  V30 2075 C 195.394 0.47442 -3.37583 0
M  V30 2076 H 196.587 -1.21844 -2.74033 0
M  V30 2077 H 194.14 -0.669107 -1.41254 0
M  V30 2078 H 194.875 1.34489 -2.95099 0
M  V30 2079 H 194.66 -0.142615 -3.91841 0
M  V30 2080 H 196.15 0.83218 -4.09224 0
M  V30 2081 N 196.587 1.43421 -0.653314 0
M  V30 2082 C 197.998 1.85065 -0.246537 0
M  V30 2083 C 198.349 1.54688 1.2069 0
M  V30 2084 O 197.474 0.995896 1.92122 0
M  V30 2085 C 198.069 3.35922 -0.440666 0
M  V30 2086 C 196.628 3.76297 -0.0882064 0
M  V30 2087 C 195.775 2.67147 -0.743484 0
M  V30 2088 H 198.726 1.33572 -0.856979 0
M  V30 2089 H 198.747 3.79204 0.313798 0
M  V30 2090 H 198.259 3.58 -1.49858 0
M  V30 2091 H 196.36 3.5983 0.96711 0
M  V30 2092 H 196.473 4.76338 -0.513738 0
M  V30 2093 H 194.837 2.54086 -0.176712 0
M  V30 2094 H 195.62 2.92053 -1.80443 0
M  V30 2095 N 198.065 0.39524 1.52563 0
M  V30 2096 C 198.995 -0.428384 2.29537 0
M  V30 2097 C 199.976 -1.05831 1.33169 0
M  V30 2098 O 201.161 -1.06995 1.62067 0
M  V30 2099 C 198.291 -1.55274 3.10656 0
M  V30 2100 C 197.245 -1.04855 4.14957 0
M  V30 2101 C 196.571 -2.26543 4.84337 0
M  V30 2102 C 197.871 -0.112324 5.22179 0
M  V30 2103 H 199.565 0.213867 2.98635 0
M  V30 2104 H 197.111 0.104298 1.43622 0
M  V30 2105 H 199.064 -2.1358 3.63265 0
M  V30 2106 H 197.788 -2.22266 2.39302 0
M  V30 2107 H 196.447 -0.487985 3.63338 0
M  V30 2108 H 196.095 -2.92059 4.09525 0
M  V30 2109 H 195.795 -1.93466 5.54837 0
M  V30 2110 H 197.319 -2.85481 5.39753 0
M  V30 2111 H 198.733 -0.603752 5.70112 0
M  V30 2112 H 197.13 0.128968 5.99961 0
M  V30 2113 H 198.2 0.837052 4.77621 0
M  V30 2114 N 199.544 -1.57102 0.125237 0
M  V30 2115 C 200.772 -1.99761 -0.538797 0
M  V30 2116 C 201.187 -1.00503 -1.59827 0
M  V30 2117 O 200.544 0.00119474 -1.825 0
M  V30 2118 C 200.595 -3.42408 -1.15927 0
M  V30 2119 O 200.316 -4.37869 -0.142143 0
M  V30 2120 C 201.817 -4.00232 -1.90602 0
M  V30 2121 H 199.037 -0.655772 -0.14214 0
M  V30 2122 H 201.581 -2.03383 0.213413 0
M  V30 2123 H 199.736 -3.39706 -1.86223 0
M  V30 2124 H 200.15 -5.21128 -0.593775 0
M  V30 2125 H 201.624 -5.02105 -2.29335 0
M  V30 2126 H 202.101 -3.39721 -2.78363 0
M  V30 2127 H 202.707 -4.06499 -1.25055 0
M  V30 2128 N 201.022 0.148545 -1.56898 0
M  V30 2129 C 202.247 0.880385 -1.87787 0
M  V30 2130 C 202.672 1.74018 -0.714093 0
M  V30 2131 O 202.03 1.78153 0.336343 0
M  V30 2132 C 202.078 1.71422 -3.17249 0
M  V30 2133 O 201.182 2.8183 -3.01074 0
M  V30 2134 H 200.523 0.245301 -0.617028 0
M  V30 2135 H 203.053 0.139826 -2.04122 0
M  V30 2136 H 203.063 2.10954 -3.49231 0
M  V30 2137 H 201.738 1.08284 -4.01556 0
M  V30 2138 H 200.315 2.45715 -2.80497 0
M  V30 2139 N 202.5 1.5196 0.417844 0
M  V30 2140 C 203.911 1.57851 0.997 0
M  V30 2141 C 204.262 0.413714 1.91789 0
M  V30 2142 O 203.387 -0.467057 2.113 0
M  V30 2143 C 203.982 2.86085 1.81496 0
M  V30 2144 C 202.541 2.94483 2.34428 0
M  V30 2145 C 201.688 2.52707 1.14169 0
M  V30 2146 H 204.639 1.57455 0.198392 0
M  V30 2147 H 204.66 2.70947 2.67148 0
M  V30 2148 H 204.172 3.70842 1.14446 0
M  V30 2149 H 202.273 2.142 3.04875 0
M  V30 2150 H 202.386 3.98546 2.65891 0
M  V30 2151 H 200.75 2.06353 1.49301 0
M  V30 2152 H 201.533 3.39828 0.486999 0
M  V30 2153 N 203.978 -0.674533 1.42435 0
M  V30 2154 C 204.91 -1.80005 1.41883 0
M  V30 2155 C 205.923 -1.59667 0.31787 0
M  V30 2156 O 207.112 -1.68781 0.580973 0
M  V30 2157 C 204.212 -3.17114 1.19549 0
M  V30 2158 C 203.385 -3.64299 2.42084 0
M  V30 2159 C 202.444 -4.80142 2.15291 0
M  V30 2160 O 201.47 -4.90673 2.88493 0
M  V30 2161 N 202.672 -5.68869 1.1562 0
M  V30 2162 H 205.437 -1.80964 2.38898 0
M  V30 2163 H 202.998 -0.857633 1.37318 0
M  V30 2164 H 204.99 -3.92267 0.995417 0
M  V30 2165 H 203.56 -3.11053 0.310569 0
M  V30 2166 H 202.78 -2.79822 2.77657 0
M  V30 2167 H 204.068 -3.92567 3.23679 0
M  V30 2168 H 203.466 -5.63012 0.550765 0
M  V30 2169 H 202.023 -6.43833 1.016 0
M  V30 2170 N 205.456 -1.28612 -0.910864 0
M  V30 2171 C 206.867 -1.14406 -1.47541 0
M  V30 2172 C 207.218 0.264901 -1.94403 0
M  V30 2173 O 206.343 1.15942 -1.82719 0
M  V30 2174 C 206.938 -2.07073 -2.68153 0
M  V30 2175 C 205.497 -1.96923 -3.20778 0
M  V30 2176 C 204.644 -1.98646 -1.93481 0
M  V30 2177 H 207.595 -1.41259 -0.723291 0
M  V30 2178 H 207.616 -1.63642 -3.43514 0
M  V30 2179 H 207.128 -3.09611 -2.34015 0
M  V30 2180 H 205.229 -0.97433 -3.59635 0
M  V30 2181 H 205.342 -2.84026 -3.85832 0
M  V30 2182 H 203.706 -1.43093 -2.10705 0
M  V30 2183 H 204.489 -3.02868 -1.61634 0
M  V30 2184 N 206.934 1.1197 -1.10907 0
M  V30 2185 C 208.18 1.84059 -0.865674 0
M  V30 2186 C 208.535 1.82731 0.602254 0
M  V30 2187 O 207.828 1.26543 1.43866 0
M  V30 2188 C 208.022 3.30749 -1.35425 0
M  V30 2189 C 207.851 3.46363 -2.86815 0
M  V30 2190 C 206.621 3.59712 -3.54874 0
M  V30 2191 C 208.819 3.41116 -3.84895 0
M  V30 2192 N 206.801 3.63741 -4.94536 0
M  V30 2193 C 208.172 3.51698 -5.10596 0
M  V30 2194 C 210.227 3.24612 -3.77533 0
M  V30 2195 C 208.93 3.4748 -6.29802 0
M  V30 2196 C 210.956 3.21708 -4.96244 0
M  V30 2197 C 210.318 3.32856 -6.20795 0
M  V30 2198 H 206.417 0.689015 -0.369841 0
M  V30 2199 H 209.001 1.34016 -1.41237 0
M  V30 2200 H 207.172 3.79322 -0.834814 0
M  V30 2201 H 208.904 3.90718 -1.05458 0
M  V30 2202 H 205.659 3.62038 -3.05329 0
M  V30 2203 H 206.083 3.69408 -5.67333 0
M  V30 2204 H 210.725 3.14883 -2.8215 0
M  V30 2205 H 208.443 3.55978 -7.25469 0
M  V30 2206 H 212.029 3.10113 -4.92261 0
M  V30 2207 H 210.909 3.3059 -7.11112 0
M  V30 2208 N 208.412 0.89855 1.29475 0
M  V30 2209 C 209.823 0.572537 1.77705 0
M  V30 2210 C 210.174 -0.911778 1.73727 0
M  V30 2211 O 209.299 -1.71288 1.32247 0
M  V30 2212 C 209.894 1.03252 3.22683 0
M  V30 2213 C 208.453 0.757687 3.68695 0
M  V30 2214 C 207.6 1.20787 2.49612 0
M  V30 2215 H 210.551 1.08139 1.16153 0
M  V30 2216 H 210.572 0.367307 3.78723 0
M  V30 2217 H 210.084 2.11285 3.25546 0
M  V30 2218 H 208.185 -0.310079 3.71308 0
M  V30 2219 H 208.298 1.35476 4.59547 0
M  V30 2220 H 206.662 0.626888 2.46865 0
M  V30 2221 H 207.445 2.29622 2.55203 0
M  V30 2222 N 209.89 -1.43072 0.660911 0
M  V30 2223 C 211.138 -2.01323 0.177094 0
M  V30 2224 C 211.459 -1.5245 -1.2159 0
M  V30 2225 O 210.729 -0.740322 -1.81373 0
M  V30 2226 H 209.309 -0.744382 0.0624804 0
M  V30 2227 H 211.971 -1.75179 0.854305 0
M  V30 2228 H 211.067 -3.11649 0.167641 0
M  V30 2229 N 211.368 -0.403325 -1.52352 0
M  V30 2230 C 212.615 0.174347 -2.01748 0
M  V30 2231 C 212.943 1.45636 -1.2892 0
M  V30 2232 O 212.198 1.9193 -0.382258 0
M  V30 2233 C 212.497 0.474665 -3.54234 0
M  V30 2234 C 212.163 -0.717458 -4.45155 0
M  V30 2235 C 210.825 -1.04447 -4.69728 0
M  V30 2236 C 213.177 -1.51432 -4.98716 0
M  V30 2237 C 210.505 -2.16963 -5.45109 0
M  V30 2238 C 212.857 -2.6302 -5.75329 0
M  V30 2239 C 211.521 -2.96213 -5.98175 0
M  V30 2240 H 210.791 0.0637981 -0.738248 0
M  V30 2241 H 213.438 -0.543553 -1.83624 0
M  V30 2242 H 211.743 1.27406 -3.70506 0
M  V30 2243 H 213.44 0.934496 -3.89959 0
M  V30 2244 H 210.03 -0.452596 -4.26204 0
M  V30 2245 H 214.214 -1.27491 -4.79645 0
M  V30 2246 H 209.47 -2.43034 -5.61021 0
M  V30 2247 H 213.644 -3.25158 -6.15829 0
M  V30 2248 H 211.271 -3.83516 -6.56368 0
M  V30 2249 N 212.846 1.57033 -0.133567 0
M  V30 2250 C 213.776 2.1909 0.807567 0
M  V30 2251 C 214.757 1.13517 1.26681 0
M  V30 2252 O 215.942 1.41809 1.32679 0
M  V30 2253 C 213.072 2.80188 2.05212 0
M  V30 2254 C 212.026 3.91471 1.73015 0
M  V30 2255 C 211.352 4.39443 3.04622 0
M  V30 2256 C 212.652 5.12886 0.987168 0
M  V30 2257 H 214.346 2.97988 0.290403 0
M  V30 2258 H 211.892 1.43335 0.138239 0
M  V30 2259 H 213.845 3.22264 2.71521 0
M  V30 2260 H 212.569 1.98601 2.59278 0
M  V30 2261 H 211.228 3.49993 1.0909 0
M  V30 2262 H 210.876 3.54695 3.56651 0
M  V30 2263 H 210.576 5.14495 2.83847 0
M  V30 2264 H 212.1 4.8418 3.72024 0
M  V30 2265 H 213.514 5.51891 1.55208 0
M  V30 2266 H 211.911 5.93615 0.87985 0
M  V30 2267 H 212.981 4.84894 -0.0235286 0
M  V30 2268 N 214.325 -0.140222 1.56975 0
M  V30 2269 C 215.573 -0.850005 1.83356 0
M  V30 2270 C 215.894 -1.81399 0.71551 0
M  V30 2271 O 215.164 -1.94136 -0.262294 0
M  V30 2272 H 213.744 -0.316886 0.676456 0
M  V30 2273 H 216.406 -0.132608 1.94448 0
M  V30 2274 H 215.502 -1.40814 2.78528 0
M  V30 2275 N 215.803 -1.52179 -0.40978 0
M  V30 2276 C 216.735 -1.71703 -1.51825 0
M  V30 2277 C 217.748 -0.597445 -1.51441 0
M  V30 2278 O 218.937 -0.872582 -1.55719 0
M  V30 2279 C 216.037 -1.74171 -2.90719 0
M  V30 2280 C 215.21 -3.03156 -3.15302 0
M  V30 2281 C 214.269 -2.97445 -4.34065 0
M  V30 2282 O 213.295 -3.71352 -4.31377 0
M  V30 2283 N 214.497 -2.15191 -5.39141 0
M  V30 2284 H 217.262 -2.67334 -1.35472 0
M  V30 2285 H 214.823 -1.50409 -0.599069 0
M  V30 2286 H 216.815 -1.67884 -3.68235 0
M  V30 2287 H 215.385 -0.860166 -3.00533 0
M  V30 2288 H 214.605 -3.23097 -2.25836 0
M  V30 2289 H 215.893 -3.88484 -3.28569 0
M  V30 2290 H 215.291 -1.54573 -5.44173 0
M  V30 2291 H 213.848 -2.1476 -6.15403 0
M  V30 2292 N 217.281 0.66697 -1.42791 0
M  V30 2293 C 218.529 1.42417 -1.43394 0
M  V30 2294 C 218.85 1.94925 -0.0542373 0
M  V30 2295 O 218.12 1.73564 0.908415 0
M  V30 2296 H 216.7 0.528515 -0.527902 0
M  V30 2297 H 219.362 0.787562 -1.78279 0
M  V30 2298 H 218.458 2.27333 -2.13837 0
M  V30 2299 N 218.759 1.29093 0.90403 0
M  V30 2300 C 219.669 1.15727 2.0407 0
M  V30 2301 C 220.685 0.0815308 1.73809 0
M  V30 2302 O 221.861 0.292749 1.99261 0
M  V30 2303 C 218.926 0.830424 3.36608 0
M  V30 2304 C 217.987 1.98955 3.80415 0
M  V30 2305 C 217.22 1.6782 5.06628 0
M  V30 2306 O 217.443 0.597105 5.67266 0
M  V30 2307 O 216.377 2.52486 5.46383 0
M  V30 2308 H 220.203 2.11171 2.18267 0
M  V30 2309 H 217.788 1.08504 1.027 0
M  V30 2310 H 219.67 0.662521 4.16159 0
M  V30 2311 H 218.345 -0.0942678 3.23563 0
M  V30 2312 H 217.252 2.21267 3.01648 0
M  V30 2313 H 218.585 2.89529 3.98037 0
M  V30 2314 N 220.237 -1.11381 1.11499 0
M  V30 2315 C 221.2 -2.15622 0.777153 0
M  V30 2316 C 222.2 -1.59504 -0.203779 0
M  V30 2317 O 223.39 -1.74188 0.020782 0
M  V30 2318 C 220.522 -3.40556 0.153116 0
M  V30 2319 H 221.715 -2.47021 1.70061 0
M  V30 2320 H 219.268 -1.26577 0.916952 0
M  V30 2321 H 220.003 -3.14767 -0.780536 0
M  V30 2322 H 219.788 -3.8257 0.859238 0
M  V30 2323 H 221.278 -4.17546 -0.0671044 0
M  V30 2324 N 221.715 -0.905404 -1.28997 0
M  V30 2325 C 222.645 -0.404212 -2.29975 0
M  V30 2326 C 223.626 0.523784 -1.61835 0
M  V30 2327 O 224.811 0.433298 -1.89304 0
M  V30 2328 C 221.941 0.364042 -3.45387 0
M  V30 2329 C 220.895 -0.474048 -4.25367 0
M  V30 2330 C 220.221 0.422045 -5.33032 0
M  V30 2331 C 221.521 -1.72696 -4.92923 0
M  V30 2332 H 223.215 -1.24807 -2.72146 0
M  V30 2333 H 220.761 -0.601585 -1.30832 0
M  V30 2334 H 222.714 0.725447 -4.15109 0
M  V30 2335 H 221.438 1.24174 -3.02074 0
M  V30 2336 H 220.097 -0.81786 -3.57361 0
M  V30 2337 H 219.745 1.29804 -4.85963 0
M  V30 2338 H 219.445 -0.135057 -5.87445 0
M  V30 2339 H 220.969 0.779517 -6.05604 0
M  V30 2340 H 222.383 -1.43495 -5.55051 0
M  V30 2341 H 220.78 -2.22582 -5.57295 0
M  V30 2342 H 221.85 -2.45964 -4.17887 0
M  V30 2343 N 223.193 1.4272 -0.668489 0
M  V30 2344 C 224.123 2.335 -0.000100175 0
M  V30 2345 C 225.104 1.50328 0.795964 0
M  V30 2346 O 226.289 1.78949 0.754385 0
M  V30 2347 C 223.419 3.33874 0.956302 0
M  V30 2348 C 222.373 4.27152 0.269278 0
M  V30 2349 C 221.699 5.17684 1.33818 0
M  V30 2350 C 222.999 5.15373 -0.847805 0
M  V30 2351 H 224.693 2.89639 -0.758244 0
M  V30 2352 H 222.239 1.39269 -0.366079 0
M  V30 2353 H 224.192 3.9629 1.43292 0
M  V30 2354 H 222.916 2.76025 1.74579 0
M  V30 2355 H 221.575 3.66123 -0.187042 0
M  V30 2356 H 221.223 4.56165 2.1195 0
M  V30 2357 H 220.923 5.80918 0.883659 0
M  V30 2358 H 222.447 5.82974 1.81586 0
M  V30 2359 H 223.861 5.7151 -0.452681 0
M  V30 2360 H 222.258 5.87407 -1.22773 0
M  V30 2361 H 223.328 4.5415 -1.69929 0
M  V30 2362 N 224.671 0.411399 1.52136 0
M  V30 2363 C 225.896 -0.165538 2.06738 0
M  V30 2364 C 226.321 -1.379 1.27926 0
M  V30 2365 O 225.679 -1.78628 0.310114 0
M  V30 2366 C 225.727 -0.492124 3.57226 0
M  V30 2367 O 224.831 -1.58276 3.80818 0
M  V30 2368 H 224.172 -0.0132132 0.663869 0
M  V30 2369 H 226.702 0.585253 1.96051 0
M  V30 2370 H 226.712 -0.750104 4.01045 0
M  V30 2371 H 225.387 0.394922 4.14021 0
M  V30 2372 H 223.964 -1.31677 3.48877 0
M  V30 2373 N 226.149 -1.5696 0.141893 0
M  V30 2374 C 227.079 -2.19516 -0.795936 0
M  V30 2375 C 228.06 -1.14187 -1.26077 0
M  V30 2376 O 229.245 -1.42511 -1.31925 0
M  V30 2377 C 226.375 -2.81272 -2.03723 0
M  V30 2378 C 225.329 -3.92384 -1.70936 0
M  V30 2379 C 224.655 -4.41052 -3.02287 0
M  V30 2380 C 225.955 -5.13403 -0.959954 0
M  V30 2381 H 227.649 -2.98138 -0.274596 0
M  V30 2382 H 225.195 -1.43406 -0.130636 0
M  V30 2383 H 227.148 -3.237 -2.69808 0
M  V30 2384 H 225.872 -1.99973 -2.58221 0
M  V30 2385 H 224.531 -3.50566 -1.07232 0
M  V30 2386 H 224.179 -3.56582 -3.54765 0
M  V30 2387 H 223.879 -5.15993 -2.81114 0
M  V30 2388 H 225.403 -4.86146 -3.69451 0
M  V30 2389 H 226.817 -5.52706 -1.52279 0
M  V30 2390 H 225.214 -5.94073 -0.848357 0
M  V30 2391 H 226.284 -4.84875 0.0492434 0
M  V30 2392 N 227.627 0.131896 -1.57047 0
M  V30 2393 C 228.59 1.14638 -1.98471 0
M  V30 2394 C 229.59 1.35029 -0.873148 0
M  V30 2395 O 230.78 1.31764 -1.13946 0
M  V30 2396 C 227.912 2.50358 -2.31373 0
M  V30 2397 H 229.105 0.79064 -2.8929 0
M  V30 2398 H 226.658 0.375761 -1.51716 0
M  V30 2399 H 227.393 2.90876 -1.43393 0
M  V30 2400 H 227.178 2.36915 -3.12432 0
M  V30 2401 H 228.668 3.23395 -2.64207 0
M  V30 2402 N 229.106 1.52395 0.401703 0
M  V30 2403 C 230.039 1.70999 1.51111 0
M  V30 2404 C 231.017 0.55765 1.52738 0
M  V30 2405 O 232.201 0.785912 1.71335 0
M  V30 2406 C 229.328 1.75607 2.8962 0
M  V30 2407 C 228.374 2.97227 3.05873 0
M  V30 2408 S 229.207 4.57439 2.78405 0
M  V30 2409 C 230.363 4.64844 4.19131 0
M  V30 2410 H 230.596 2.6483 1.35102 0
M  V30 2411 H 228.129 1.42527 0.593762 0
M  V30 2412 H 230.087 1.78947 3.69443 0
M  V30 2413 H 228.748 0.828914 3.02965 0
M  V30 2414 H 227.941 2.96955 4.07227 0
M  V30 2415 H 227.543 2.91813 2.33925 0
M  V30 2416 H 229.835 4.42677 5.12877 0
M  V30 2417 H 230.778 5.66807 4.24424 0
M  V30 2418 H 231.186 3.93804 4.04448 0
M  V30 2419 N 230.584 -0.659388 1.43143 0
M  V30 2420 C 231.514 -1.78422 1.50625 0
M  V30 2421 C 232.495 -1.66216 0.361443 0
M  V30 2422 O 233.68 -1.85404 0.577834 0
M  V30 2423 C 230.81 -3.16815 1.42287 0
M  V30 2424 C 229.764 -3.43777 2.54954 0
M  V30 2425 C 229.09 -4.81905 2.31671 0
M  V30 2426 C 230.39 -3.39134 3.97222 0
M  V30 2427 H 232.084 -1.72417 2.44771 0
M  V30 2428 H 229.63 -0.828084 1.17808 0
M  V30 2429 H 231.583 -3.95253 1.46127 0
M  V30 2430 H 230.307 -3.23534 0.446435 0
M  V30 2431 H 228.966 -2.67707 2.50457 0
M  V30 2432 H 228.614 -4.85294 1.32284 0
M  V30 2433 H 228.314 -5.00906 3.07192 0
M  V30 2434 H 229.838 -5.62609 2.37284 0
M  V30 2435 H 231.252 -4.07518 4.03239 0
M  V30 2436 H 229.649 -3.69671 4.72719 0
M  V30 2437 H 230.719 -2.37426 4.22797 0
M  V30 2438 N 232.062 -1.29571 -0.897171 0
M  V30 2439 C 232.992 -1.17473 -2.01798 0
M  V30 2440 C 233.973 -0.068323 -1.69963 0
M  V30 2441 O 235.158 -0.248239 -1.92607 0
M  V30 2442 C 232.288 -0.853099 -3.36659 0
M  V30 2443 C 231.242 -1.9161 -3.82713 0
M  V30 2444 C 230.568 -1.44773 -5.14728 0
M  V30 2445 C 231.868 -3.32535 -4.02763 0
M  V30 2446 H 233.562 -2.11237 -2.12177 0
M  V30 2447 H 231.108 -1.01699 -1.01948 0
M  V30 2448 H 233.061 -0.755165 -4.14578 0
M  V30 2449 H 231.785 0.120236 -3.26379 0
M  V30 2450 H 230.444 -2.00346 -3.07013 0
M  V30 2451 H 230.092 -0.462995 -5.00865 0
M  V30 2452 H 229.792 -2.15865 -5.46513 0
M  V30 2453 H 231.316 -1.36334 -5.95185 0
M  V30 2454 H 232.73 -3.26626 -4.71156 0
M  V30 2455 H 231.127 -4.01607 -4.45905 0
M  V30 2456 H 232.197 -3.75326 -3.07016 0
M  V30 2457 N 233.54 1.10788 -1.12088 0
M  V30 2458 C 234.956 1.34691 -0.856186 0
M  V30 2459 C 235.156 1.94791 0.515615 0
M  V30 2460 O 234.212 2.18524 1.26505 0
M  V30 2461 C 235.525 2.27208 -1.9697 0
M  V30 2462 C 237.073 2.40755 -2.00016 0
M  V30 2463 C 237.548 3.36598 -3.1059 0
M  V30 2464 N 239.039 3.44164 -3.10008 0
M  V30 2465 C 239.774 4.18284 -3.92206 0
M  V30 2466 N 239.27 4.95322 -4.84384 0
M  V30 2467 N 241.063 4.13865 -3.80357 0
M  V30 2468 H 233.214 0.70144 -2.00483 0
M  V30 2469 H 235.477 0.371405 -0.872217 0
M  V30 2470 H 235.183 1.90251 -2.958 0
M  V30 2471 H 235.057 3.27485 -1.87172 0
M  V30 2472 H 237.444 2.76982 -1.01808 0
M  V30 2473 H 237.525 1.40305 -2.13888 0
M  V30 2474 H 237.169 3.01096 -4.09028 0
M  V30 2475 H 237.099 4.36918 -2.93956 0
M  V30 2476 H 239.59 2.8922 -2.43228 0
M  V30 2477 H 239.903 5.49267 -5.43623 0
M  V30 2478 H 238.248 4.94459 -4.884 0
M  V30 2479 H 241.439 3.52773 -3.07683 0
M  V30 2480 H 241.612 4.71372 -4.44649 0
M  V30 2481 N 235.018 0.912232 1.28515 0
M  V30 2482 C 235.948 0.416403 2.29757 0
M  V30 2483 C 236.929 -0.515194 1.6211 0
M  V30 2484 O 238.114 -0.423253 1.89532 0
M  V30 2485 C 235.244 -0.34572 3.45575 0
M  V30 2486 C 234.198 0.496599 4.25109 0
M  V30 2487 C 233.524 -0.393771 5.33248 0
M  V30 2488 C 234.824 1.75307 4.92001 0
M  V30 2489 H 236.518 1.26249 2.7148 0
M  V30 2490 H 234.064 0.608515 1.30511 0
M  V30 2491 H 236.017 -0.703422 4.15488 0
M  V30 2492 H 234.741 -1.2257 3.02728 0
M  V30 2493 H 233.4 0.8368 3.56922 0
M  V30 2494 H 233.048 -1.27225 4.86644 0
M  V30 2495 H 232.748 0.166209 5.87365 0
M  V30 2496 H 234.272 -0.747389 6.06009 0
M  V30 2497 H 235.686 1.46437 5.54283 0
M  V30 2498 H 234.083 2.25534 5.56106 0
M  V30 2499 H 235.153 2.48176 4.16577 0
M  V30 2500 N 236.496 -1.42363 0.676048 0
M  V30 2501 C 237.726 -2.05561 0.206967 0
M  V30 2502 C 238.134 -1.50887 -1.14148 0
M  V30 2503 O 237.477 -0.643933 -1.72044 0
M  V30 2504 C 237.539 -3.5944 0.0659508 0
M  V30 2505 C 237.203 -4.36812 1.34331 0
M  V30 2506 C 238.2 -4.67383 2.27704 0
M  V30 2507 C 235.885 -4.76429 1.59125 0
M  V30 2508 C 237.879 -5.36509 3.44147 0
M  V30 2509 C 235.566 -5.45294 2.75857 0
M  V30 2510 C 236.564 -5.75259 3.68193 0
M  V30 2511 O 236.252 -6.42712 4.82883 0
M  V30 2512 H 235.984 -0.668872 0.0979084 0
M  V30 2513 H 238.538 -1.83467 0.923531 0
M  V30 2514 H 236.768 -3.80197 -0.706204 0
M  V30 2515 H 238.457 -4.0427 -0.363418 0
M  V30 2516 H 239.223 -4.37275 2.09799 0
M  V30 2517 H 235.102 -4.52498 0.881258 0
M  V30 2518 H 238.646 -5.59814 4.16238 0
M  V30 2519 H 234.543 -5.7482 2.93688 0
M  V30 2520 H 235.311 -6.61204 4.82444 0
M  V30 2521 N 237.974 -0.419461 -1.51915 0
M  V30 2522 C 238.904 0.391813 -2.30189 0
M  V30 2523 C 239.885 1.03699 -1.34836 0
M  V30 2524 O 241.07 1.04403 -1.63748 0
M  V30 2525 C 238.2 1.50312 -3.13087 0
M  V30 2526 C 237.154 0.9824 -4.16573 0
M  V30 2527 C 236.48 2.18809 -4.8788 0
M  V30 2528 C 237.78 0.0292356 -5.22292 0
M  V30 2529 H 239.474 -0.26135 -2.98257 0
M  V30 2530 H 237.02 -0.127134 -1.43438 0
M  V30 2531 H 238.973 2.07773 -3.66617 0
M  V30 2532 H 237.697 2.18431 -2.42807 0
M  V30 2533 H 236.356 0.430119 -3.64068 0
M  V30 2534 H 236.004 2.85507 -4.14119 0
M  V30 2535 H 235.704 1.84615 -5.57845 0
M  V30 2536 H 237.228 2.76858 -5.44226 0
M  V30 2537 H 238.642 0.512976 -5.71 0
M  V30 2538 H 237.039 -0.2244 -5.9968 0
M  V30 2539 H 238.109 -0.912931 -4.76228 0
M  V30 2540 N 239.452 1.56882 -0.150215 0
M  V30 2541 C 240.698 1.96518 0.500834 0
M  V30 2542 C 241.031 1.03527 1.64304 0
M  V30 2543 O 240.306 0.0782751 1.94342 0
M  V30 2544 C 240.589 3.45822 1.00395 0
M  V30 2545 C 240.442 4.49591 -0.136983 0
M  V30 2546 C 241.761 3.97704 1.88467 0
M  V30 2547 H 238.88 0.714535 0.18058 0
M  V30 2548 H 241.522 1.88577 -0.232091 0
M  V30 2549 H 239.672 3.5272 1.62851 0
M  V30 2550 H 241.344 4.5477 -0.77343 0
M  V30 2551 H 239.587 4.26441 -0.795652 0
M  V30 2552 H 240.258 5.51402 0.256815 0
M  V30 2553 H 242.734 3.93304 1.35834 0
M  V30 2554 H 241.61 5.0263 2.20578 0
M  V30 2555 H 241.871 3.40252 2.82279 0
M  V30 2556 N 240.93 -0.123565 1.57115 0
M  V30 2557 C 242.341 -0.681198 1.73829 0
M  V30 2558 C 242.692 -1.80535 0.768214 0
M  V30 2559 O 241.817 -2.16317 -0.0599103 0
M  V30 2560 C 242.412 -1.24246 3.15196 0
M  V30 2561 C 240.971 -1.74643 3.33432 0
M  V30 2562 C 240.118 -0.644284 2.69711 0
M  V30 2563 H 243.069 0.102315 1.5837 0
M  V30 2564 H 243.09 -2.11216 3.16493 0
M  V30 2565 H 242.602 -0.424062 3.85776 0
M  V30 2566 H 240.703 -2.58974 2.67886 0
M  V30 2567 H 240.816 -1.85902 4.41562 0
M  V30 2568 H 239.18 -1.07676 2.3082 0
M  V30 2569 H 239.963 0.163058 3.42913 0
M  V30 2570 N 242.408 -1.52605 -0.393616 0
M  V30 2571 C 243.824 -1.41753 -0.733357 0
M  V30 2572 C 244.024 -0.534293 -1.94287 0
M  V30 2573 O 243.08 -0.0059787 -2.52499 0
M  V30 2574 C 244.393 -2.84531 -0.972772 0
M  V30 2575 C 245.941 -2.93978 -1.07453 0
M  V30 2576 C 246.416 -4.37756 -1.3466 0
M  V30 2577 N 247.907 -4.4106 -1.41492 0
M  V30 2578 C 248.642 -5.49387 -1.642 0
M  V30 2579 N 248.138 -6.67806 -1.8441 0
M  V30 2580 N 249.931 -5.36923 -1.66342 0
M  V30 2581 H 242.082 -2.08555 0.402328 0
M  V30 2582 H 244.345 -0.940654 0.117789 0
M  V30 2583 H 244.051 -3.51353 -0.156204 0
M  V30 2584 H 243.925 -3.26508 -1.88871 0
M  V30 2585 H 246.312 -2.27326 -1.88167 0
M  V30 2586 H 246.393 -2.55435 -0.136605 0
M  V30 2587 H 246.037 -5.04972 -0.544581 0
M  V30 2588 H 245.967 -4.73848 -2.2973 0
M  V30 2589 H 248.458 -3.55705 -1.27601 0
M  V30 2590 H 248.771 -7.46141 -2.01231 0
M  V30 2591 H 247.116 -6.70843 -1.81644 0
M  V30 2592 H 250.307 -4.43381 -1.50102 0
M  V30 2593 H 250.48 -6.21416 -1.837 0
M  V30 2594 N 243.887 0.651787 -1.4349 0
M  V30 2595 C 244.85 1.74647 -1.48429 0
M  V30 2596 C 245.85 1.56513 -0.368817 0
M  V30 2597 O 247.04 1.62385 -0.630623 0
M  V30 2598 C 244.172 3.13533 -1.33827 0
M  V30 2599 H 245.365 1.71649 -2.4592 0
M  V30 2600 H 242.918 0.863573 -1.30277 0
M  V30 2601 H 243.653 3.22142 -0.37349 0
M  V30 2602 H 243.438 3.28101 -2.14691 0
M  V30 2603 H 244.928 3.93356 -1.40218 0
M  V30 2604 N 245.365 1.30045 0.890287 0
M  V30 2605 C 246.611 1.18737 1.64406 0
M  V30 2606 C 246.944 -0.258525 1.92472 0
M  V30 2607 O 246.219 -1.18562 1.54186 0
M  V30 2608 C 246.502 2.01087 2.98724 0
M  V30 2609 C 246.355 3.53867 2.77665 0
M  V30 2610 C 247.674 1.84457 3.9958 0
M  V30 2611 H 244.793 0.432698 0.596608 0
M  V30 2612 H 247.435 1.5962 1.0306 0
M  V30 2613 H 245.585 1.66349 3.51084 0
M  V30 2614 H 247.257 3.98637 2.32133 0
M  V30 2615 H 245.5 3.78318 2.12269 0
M  V30 2616 H 246.171 4.06772 3.7315 0
M  V30 2617 H 248.647 2.14817 3.56361 0
M  V30 2618 H 247.523 2.44411 4.91482 0
M  V30 2619 H 247.784 0.802276 4.3476 0
M  V30 2620 N 246.843 -1.10192 1.12674 0
M  V30 2621 C 247.773 -2.18652 0.819362 0
M  V30 2622 C 248.754 -1.68698 -0.217915 0
M  V30 2623 O 249.939 -1.94041 -0.0785581 0
M  V30 2624 C 247.069 -3.46202 0.27594 0
M  V30 2625 C 246.023 -4.09444 1.24656 0
M  V30 2626 C 245.349 -5.31725 0.563258 0
M  V30 2627 C 246.649 -4.52863 2.60217 0
M  V30 2628 H 248.343 -2.44622 1.72628 0
M  V30 2629 H 245.889 -1.17571 0.831451 0
M  V30 2630 H 247.842 -4.21372 0.0486149 0
M  V30 2631 H 246.566 -3.1973 -0.666331 0
M  V30 2632 H 245.225 -3.36284 1.45974 0
M  V30 2633 H 244.873 -5.0153 -0.384235 0
M  V30 2634 H 244.573 -5.74991 1.21075 0
M  V30 2635 H 246.097 -6.09624 0.34503 0
M  V30 2636 H 247.511 -5.19294 2.42913 0
M  V30 2637 H 245.908 -5.06986 3.21068 0
M  V30 2638 H 246.978 -3.65656 3.18471 0
M  V30 2639 N 248.321 -0.919034 -1.28029 0
M  V30 2640 C 249.251 -0.428581 -2.29533 0
M  V30 2641 C 250.232 0.50659 -1.62381 0
M  V30 2642 O 251.417 0.413195 -1.89753 0
M  V30 2643 C 248.547 0.327388 -3.45753 0
M  V30 2644 C 247.501 -0.519137 -4.2484 0
M  V30 2645 C 246.827 0.365486 -5.33449 0
M  V30 2646 C 248.127 -1.77914 -4.91064 0
M  V30 2647 H 249.821 -1.27687 -2.70807 0
M  V30 2648 H 247.367 -0.615428 -1.30186 0
M  V30 2649 H 249.32 0.681378 -4.15855 0
M  V30 2650 H 248.044 1.20963 -3.03374 0
M  V30 2651 H 246.703 -0.855717 -3.56473 0
M  V30 2652 H 246.351 1.24642 -4.87312 0
M  V30 2653 H 246.051 -0.197356 -5.87268 0
M  V30 2654 H 247.575 0.715241 -6.06396 0
M  V30 2655 H 248.989 -1.49374 -5.53498 0
M  V30 2656 H 247.386 -2.2848 -5.54903 0
M  V30 2657 H 248.456 -2.50382 -4.15255 0
M  V30 2658 N 249.799 1.42003 -0.683588 0
M  V30 2659 C 251.215 1.55625 -0.353976 0
M  V30 2660 C 251.415 1.66151 1.14 0
M  V30 2661 O 250.471 1.63329 1.92561 0
M  V30 2662 C 251.784 2.80171 -1.092 0
M  V30 2663 C 253.332 2.93954 -1.07518 0
M  V30 2664 C 253.807 4.21372 -1.79471 0
M  V30 2665 N 255.298 4.28303 -1.76381 0
M  V30 2666 C 256.033 5.25729 -2.28904 0
M  V30 2667 N 255.529 6.29254 -2.89846 0
M  V30 2668 N 257.322 5.17586 -2.19228 0
M  V30 2669 H 249.473 1.33415 -1.6527 0
M  V30 2670 H 251.736 0.64282 -0.696769 0
M  V30 2671 H 251.442 2.78561 -2.14701 0
M  V30 2672 H 251.316 3.7133 -0.662862 0
M  V30 2673 H 253.703 2.95086 -0.028475 0
M  V30 2674 H 253.784 2.04002 -1.54328 0
M  V30 2675 H 253.428 4.21001 -2.84114 0
M  V30 2676 H 253.358 5.10275 -1.30104 0
M  V30 2677 H 255.849 3.54119 -1.31939 0
M  V30 2678 H 256.162 6.99964 -3.27522 0
M  V30 2679 H 254.507 6.29791 -2.93919 0
M  V30 2680 H 257.698 4.35631 -1.71299 0
M  V30 2681 H 257.871 5.93348 -2.60466 0
M  V30 2682 N 251.277 0.427512 1.51691 0
M  V30 2683 C 252.502 -0.143601 2.06902 0
M  V30 2684 C 252.927 -1.36536 1.29382 0
M  V30 2685 O 252.285 -1.78289 0.329043 0
M  V30 2686 C 252.333 -0.454207 3.57728 0
M  V30 2687 O 251.437 -1.54228 3.82475 0
M  V30 2688 H 250.778 -0.00617128 0.663971 0
M  V30 2689 H 253.308 0.606014 1.95419 0
M  V30 2690 H 253.318 -0.707525 4.01818 0
M  V30 2691 H 251.993 0.438812 4.13579 0
M  V30 2692 H 250.57 -1.2797 3.50254 0
M  V30 2693 N 252.755 -1.56801 0.158532 0
M  V30 2694 C 254.003 -1.96102 -0.488712 0
M  V30 2695 C 254.324 -1.04498 -1.64636 0
M  V30 2696 O 253.594 -0.108783 -1.95598 0
M  V30 2697 H 252.174 -0.724102 -0.183535 0
M  V30 2698 H 254.836 -1.93457 0.236728 0
M  V30 2699 H 253.932 -3.00097 -0.857219 0
M  V30 2700 N 254.233 0.115231 -1.57178 0
M  V30 2701 C 255.479 0.82357 -1.85325 0
M  V30 2702 C 255.812 1.79349 -0.744814 0
M  V30 2703 O 255.087 1.92899 0.249024 0
M  V30 2704 C 255.37 1.57014 -3.24066 0
M  V30 2705 C 255.223 0.619565 -4.45513 0
M  V30 2706 C 256.542 2.52545 -3.60429 0
M  V30 2707 H 253.661 0.297948 -0.674089 0
M  V30 2708 H 256.303 0.0877138 -1.89797 0
M  V30 2709 H 254.453 2.19742 -3.20383 0
M  V30 2710 H 256.125 0.000837639 -4.613 0
M  V30 2711 H 254.368 -0.0686174 -4.33746 0
M  V30 2712 H 255.039 1.17866 -5.3927 0
M  V30 2713 H 257.515 1.9992 -3.64926 0
M  V30 2714 H 256.391 3.01811 -4.58477 0
M  V30 2715 H 256.652 3.35383 -2.88047 0
M  V30 2716 N 255.711 1.52812 0.385517 0
M  V30 2717 C 256.641 1.80808 1.47752 0
M  V30 2718 C 257.622 0.660318 1.5676 0
M  V30 2719 O 258.807 0.908246 1.71652 0
M  V30 2720 C 255.937 1.98008 2.85324 0
M  V30 2721 C 254.891 3.13709 2.91154 0
M  V30 2722 C 254.217 3.16169 4.31209 0
M  V30 2723 C 255.517 4.52709 2.60483 0
M  V30 2724 H 257.211 2.72253 1.24573 0
M  V30 2725 H 254.757 1.31003 0.597839 0
M  V30 2726 H 256.71 2.16176 3.61726 0
M  V30 2727 H 255.434 1.03255 3.09848 0
M  V30 2728 H 254.093 2.95329 2.17201 0
M  V30 2729 H 253.741 2.19092 4.52778 0
M  V30 2730 H 253.441 3.93894 4.36029 0
M  V30 2731 H 254.965 3.36496 5.09512 0
M  V30 2732 H 256.379 4.71173 3.26602 0
M  V30 2733 H 254.776 5.32528 2.76648 0
M  V30 2734 H 255.846 4.59186 1.55809 0
M  V30 2735 N 257.189 -0.644168 1.43834 0
M  V30 2736 C 258.119 -1.76814 1.52509 0
M  V30 2737 C 259.1 -1.65823 0.379052 0
M  V30 2738 O 260.285 -1.84781 0.597466 0
M  V30 2739 C 257.415 -3.15288 1.4564 0
M  V30 2740 C 256.369 -3.41053 2.58586 0
M  V30 2741 C 255.695 -4.79421 2.36769 0
M  V30 2742 C 256.995 -3.34902 4.00797 0
M  V30 2743 H 258.689 -1.69812 2.46586 0
M  V30 2744 H 256.235 -0.815542 1.1868 0
M  V30 2745 H 258.188 -3.93681 1.50311 0
M  V30 2746 H 256.912 -3.23043 0.480725 0
M  V30 2747 H 255.571 -2.65035 2.53282 0
M  V30 2748 H 255.219 -4.83863 1.37424 0
M  V30 2749 H 254.919 -4.9762 3.12487 0
M  V30 2750 H 256.443 -5.6006 2.43238 0
M  V30 2751 H 257.857 -4.03218 4.07539 0
M  V30 2752 H 256.254 -3.64637 4.76613 0
M  V30 2753 H 257.324 -2.32928 4.25291 0
M  V30 2754 N 258.668 -1.30515 -0.883378 0
M  V30 2755 C 259.616 -1.16941 -2.01066 0
M  V30 2756 C 260.61 -0.0809148 -1.69207 0
M  V30 2757 O 261.816 -0.241877 -1.78367 0
M  V30 2758 H 258.191 -0.361705 -0.659298 0
M  V30 2759 H 260.162 -2.12344 -2.09649 0
M  V30 2760 C 258.911 -0.879694 -3.36388 0
M  V30 2761 H 258.234 -1.70936 -3.61415 0
M  V30 2762 H 259.674 -0.82483 -4.159 0
M  V30 2763 C 258.133 0.417409 -3.34304 0
M  V30 2764 O 258.663 1.43843 -3.75063 0
M  V30 2765 N 256.869 0.429141 -2.87414 0
M  V30 2766 H 256.416 -0.402222 -2.5444 0
M  V30 2767 H 256.374 1.29696 -2.86403 0
M  V30 2768 N 260.146 1.09593 -1.13257 0
M  V30 2769 C 261.109 2.14359 -0.811358 0
M  V30 2770 C 262.109 1.59808 0.178377 0
M  V30 2771 O 263.299 1.74132 -0.0484911 0
M  V30 2772 C 260.431 3.40269 -0.207276 0
M  V30 2773 H 261.624 2.44284 -1.73969 0
M  V30 2774 H 259.177 1.25102 -0.936973 0
M  V30 2775 H 259.912 3.15969 0.73036 0
M  V30 2776 H 259.697 3.81154 -0.919992 0
M  V30 2777 H 261.187 4.176 0.000667944 0
M  V30 2778 N 261.624 0.925811 1.2754 0
M  V30 2779 C 262.849 0.580924 1.99098 0
M  V30 2780 C 263.274 -0.833555 1.68622 0
M  V30 2781 O 262.632 -1.55903 0.925422 0
M  V30 2782 C 262.68 0.811186 3.51358 0
M  V30 2783 O 261.784 -0.124129 4.12213 0
M  V30 2784 H 261.125 0.223873 0.625122 0
M  V30 2785 H 263.655 1.24455 1.62395 0
M  V30 2786 H 263.665 0.72601 4.01489 0
M  V30 2787 H 262.34 1.84227 3.72872 0
M  V30 2788 H 260.917 0.0108006 3.72898 0
M  V30 2789 N 263.102 -1.41638 0.69111 0
M  V30 2790 C 264.332 -2.0533 0.228758 0
M  V30 2791 C 264.74 -1.52089 -1.12541 0
M  V30 2792 O 264.083 -0.662145 -1.71351 0
M  V30 2793 C 264.145 -3.59349 0.10407 0
M  V30 2794 C 263.809 -4.35362 1.38956 0
M  V30 2795 C 264.806 -4.64942 2.32648 0
M  V30 2796 C 262.491 -4.74714 1.64169 0
M  V30 2797 C 264.485 -5.32828 3.49818 0
M  V30 2798 C 262.172 -5.42338 2.81625 0
M  V30 2799 C 263.17 -5.71322 3.74273 0
M  V30 2800 O 262.858 -6.37554 4.89673 0
M  V30 2801 H 262.59 -0.667796 0.104997 0
M  V30 2802 H 265.144 -1.82477 0.942938 0
M  V30 2803 H 263.374 -3.80924 -0.665839 0
M  V30 2804 H 265.063 -4.04633 -0.320519 0
M  V30 2805 H 265.829 -4.35025 2.14425 0
M  V30 2806 H 261.708 -4.51538 0.929202 0
M  V30 2807 H 265.252 -5.55368 4.22152 0
M  V30 2808 H 261.149 -5.71673 2.99768 0
M  V30 2809 H 261.917 -6.56049 4.8943 0
M  V30 2810 N 264.58 -0.43555 -1.51462 0
M  V30 2811 C 265.996 -0.0877501 -1.59359 0
M  V30 2812 C 266.196 1.4027 -1.4466 0
M  V30 2813 O 265.252 2.17243 -1.28693 0
M  V30 2814 C 266.565 -0.606264 -2.94525 0
M  V30 2815 C 268.113 -0.566548 -3.0783 0
M  V30 2816 C 268.588 -1.06201 -4.45517 0
M  V30 2817 N 270.079 -1.01992 -4.51832 0
M  V30 2818 C 270.814 -1.37417 -5.5669 0
M  V30 2819 N 270.31 -1.80119 -6.68976 0
M  V30 2820 N 272.103 -1.29245 -5.47039 0
M  V30 2821 H 264.254 -1.40533 -1.59261 0
M  V30 2822 H 266.517 -0.578992 -0.750648 0
M  V30 2823 H 266.223 -1.64901 -3.10645 0
M  V30 2824 H 266.097 -0.0302097 -3.77188 0
M  V30 2825 H 268.484 0.467208 -2.91378 0
M  V30 2826 H 268.565 -1.17898 -2.2701 0
M  V30 2827 H 268.209 -2.09422 -4.62715 0
M  V30 2828 H 268.139 -0.426127 -5.24873 0
M  V30 2829 H 270.63 -0.706308 -3.71241 0
M  V30 2830 H 270.943 -2.05392 -7.45006 0
M  V30 2831 H 269.288 -1.84044 -6.70189 0
M  V30 2832 H 272.479 -0.957522 -4.58202 0
M  V30 2833 H 272.652 -1.57182 -6.28648 0
M  V30 2834 N 266.058 1.56714 -0.166846 0
M  V30 2835 C 267.283 2.01557 0.488833 0
M  V30 2836 C 267.708 1.0463 1.56314 0
M  V30 2837 O 267.066 0.0251304 1.81283 0
M  V30 2838 C 267.114 3.4503 1.04818 0
M  V30 2839 O 266.218 3.51163 2.16236 0
M  V30 2840 H 265.559 0.653516 0.117526 0
M  V30 2841 H 268.089 2.02818 -0.269421 0
M  V30 2842 H 268.099 3.84243 1.37191 0
M  V30 2843 H 266.774 4.15077 0.261572 0
M  V30 2844 H 265.351 3.23807 1.84942 0
M  V30 2845 N 267.536 -0.106894 1.57237 0
M  V30 2846 C 268.785 -0.811163 1.8467 0
M  V30 2847 C 269.098 -1.80469 0.754342 0
M  V30 2848 O 270.304 -2.55601 0.915439 0
M  V30 2849 C 268.76 -1.49337 3.27454 0
M  V30 2850 C 268.368 -0.540217 4.44731 0
M  V30 2851 C 270.112 -2.18206 3.64124 0
M  V30 2852 C 268.019 -1.22634 5.78545 0
M  V30 2853 H 266.949 -0.306679 0.688813 0
M  V30 2854 H 269.6 -0.0639887 1.83388 0
M  V30 2855 H 267.982 -2.2876 3.23241 0
M  V30 2856 H 269.156 0.221659 4.60267 0
M  V30 2857 H 267.471 0.042146 4.16379 0
M  V30 2858 H 270.068 -2.70253 4.61376 0
M  V30 2859 H 270.411 -2.96562 2.92158 0
M  V30 2860 H 270.944 -1.45658 3.70174 0
M  V30 2861 H 267.683 -0.483832 6.53712 0
M  V30 2862 H 267.203 -1.95993 5.66874 0
M  V30 2863 H 268.882 -1.75615 6.2271 0
M  V30 2864 N 269.014 -1.53014 -0.377408 0
M  V30 2865 C 270.262 -1.6829 -1.11906 0
M  V30 2866 C 270.583 -0.431206 -1.90173 0
M  V30 2867 O 269.853 0.554595 -1.87886 0
M  V30 2868 H 268.433 -0.620371 -0.416112 0
M  V30 2869 H 271.095 -1.90167 -0.426893 0
M  V30 2870 H 270.191 -2.53862 -1.8155 0
M  V30 2871 N 270.492 0.636531 -1.44174 0
M  V30 2872 C 271.455 1.73063 -1.50273 0
M  V30 2873 C 272.455 1.56113 -0.385397 0
M  V30 2874 O 273.645 1.61707 -0.64781 0
M  V30 2875 C 270.777 3.12096 -1.37145 0
M  V30 2876 H 271.97 1.69031 -2.47727 0
M  V30 2877 H 269.523 0.849706 -1.31186 0
M  V30 2878 H 270.258 3.21728 -0.407636 0
M  V30 2879 H 270.043 3.25805 -2.18159 0
M  V30 2880 H 271.533 3.91846 -1.44382 0
M  V30 2881 N 271.97 1.30982 0.876444 0
M  V30 2882 C 272.9 1.20668 1.99903 0
M  V30 2883 C 273.881 0.095354 1.69833 0
M  V30 2884 O 275.066 0.27885 1.92188 0
M  V30 2885 C 272.196 0.90655 3.3526 0
M  V30 2886 C 271.15 1.97675 3.79617 0
M  V30 2887 C 270.476 1.52943 5.1236 0
M  V30 2888 C 271.776 3.389 3.97422 0
M  V30 2889 H 273.47 2.14586 2.0879 0
M  V30 2890 H 271.016 1.03308 1.00317 0
M  V30 2891 H 272.969 0.821025 4.13324 0
M  V30 2892 H 271.693 -0.0682969 3.26529 0
M  V30 2893 H 270.352 2.05205 3.03787 0
M  V30 2894 H 270 0.54262 5.00065 0
M  V30 2895 H 269.7 2.24532 5.43009 0
M  V30 2896 H 271.224 1.45786 5.92941 0
M  V30 2897 H 272.638 3.34081 4.659 0
M  V30 2898 H 271.035 4.0865 4.3946 0
M  V30 2899 H 272.105 3.80163 3.01006 0
M  V30 2900 N 273.449 -1.08991 1.13837 0
M  V30 2901 C 274.397 -2.17841 0.815347 0
M  V30 2902 C 275.391 -1.68164 -0.204233 0
M  V30 2903 O 276.597 -1.79897 -0.0609304 0
M  V30 2904 H 272.972 -0.710654 0.245915 0
M  V30 2905 H 274.943 -2.42315 1.74143 0
M  V30 2906 C 273.692 -3.46381 0.302614 0
M  V30 2907 H 273.015 -3.84979 1.0785 0
M  V30 2908 H 274.455 -4.23844 0.115074 0
M  V30 2909 C 272.914 -3.22556 -0.972591 0
M  V30 2910 O 273.444 -3.45599 -2.04754 0
M  V30 2911 N 271.65 -2.76134 -0.905455 0
M  V30 2912 H 271.197 -2.57582 -0.0305421 0
M  V30 2913 H 271.155 -2.60571 -1.75926 0
M  V30 2914 N 274.927 -0.932562 -1.27047 0
M  V30 2915 C 275.859 -0.392734 -2.2581 0
M  V30 2916 C 276.872 0.479241 -1.55586 0
M  V30 2917 O 278.061 0.291078 -1.76111 0
M  V30 2918 C 275.161 0.455456 -3.35826 0
M  V30 2919 C 274.334 -0.398355 -4.35582 0
M  V30 2920 C 273.393 0.387985 -5.24768 0
M  V30 2921 O 272.419 -0.206003 -5.68827 0
M  V30 2922 N 273.621 1.68664 -5.55457 0
M  V30 2923 H 276.386 -1.24173 -2.72766 0
M  V30 2924 H 273.947 -0.800511 -1.40725 0
M  V30 2925 H 275.939 0.988692 -3.92437 0
M  V30 2926 H 274.509 1.20522 -2.88432 0
M  V30 2927 H 273.729 -1.11286 -3.78165 0
M  V30 2928 H 275.017 -0.981889 -4.99236 0
M  V30 2929 H 274.415 2.19147 -5.21528 0
M  V30 2930 H 272.972 2.1663 -6.14748 0
M  V30 2931 N 276.405 1.4127 -0.698611 0
M  V30 2932 C 277.651 2.01478 -0.231207 0
M  V30 2933 C 277.984 1.55215 1.16713 0
M  V30 2934 O 277.259 0.764672 1.78838 0
M  V30 2935 C 277.542 3.58912 -0.292281 0
M  V30 2936 C 277.395 4.15293 -1.72778 0
M  V30 2937 C 278.714 4.38736 0.346194 0
M  V30 2938 H 275.833 0.732025 -0.0854878 0
M  V30 2939 H 278.475 1.67977 -0.887906 0
M  V30 2940 H 276.625 3.87582 0.26686 0
M  V30 2941 H 278.297 3.97486 -2.341 0
M  V30 2942 H 276.54 3.7022 -2.26096 0
M  V30 2943 H 277.211 5.24452 -1.72202 0
M  V30 2944 H 279.687 4.15897 -0.130035 0
M  V30 2945 H 278.563 5.48221 0.272932 0
M  V30 2946 H 278.824 4.18425 1.42734 0
M  V30 2947 N 277.883 0.443576 1.51229 0
M  V30 2948 C 279.299 0.0962001 1.5931 0
M  V30 2949 C 279.499 -1.39501 1.45402 0
M  V30 2950 O 278.555 -2.16557 1.29843 0
M  V30 2951 C 279.868 0.621875 2.94199 0
M  V30 2952 C 281.416 0.582865 3.07525 0
M  V30 2953 C 281.891 1.08562 4.44948 0
M  V30 2954 N 283.382 1.04387 4.51284 0
M  V30 2955 C 284.117 1.40368 5.55954 0
M  V30 2956 N 283.613 1.83664 6.68011 0
M  V30 2957 N 285.406 1.32145 5.46346 0
M  V30 2958 H 277.557 1.41376 1.58514 0
M  V30 2959 H 279.82 0.582965 0.747567 0
M  V30 2960 H 279.526 1.66546 3.09767 0
M  V30 2961 H 279.4 0.0502125 3.77167 0
M  V30 2962 H 281.787 -0.451749 2.91622 0
M  V30 2963 H 281.868 1.191 2.26382 0
M  V30 2964 H 281.512 2.11873 4.61598 0
M  V30 2965 H 281.442 0.453956 5.2464 0
M  V30 2966 H 283.933 0.725986 3.70861 0
M  V30 2967 H 284.246 2.0934 7.43906 0
M  V30 2968 H 282.591 1.87596 6.69203 0
M  V30 2969 H 285.782 0.981808 4.57688 0
M  V30 2970 H 285.955 1.60514 6.27805 0
M  V30 2971 N 279.361 -1.56624 0.175154 0
M  V30 2972 C 280.608 -1.96999 -0.468811 0
M  V30 2973 C 280.936 -1.06129 -1.62994 0
M  V30 2974 O 280.191 -0.0961771 -1.95464 0
M  V30 2975 C 280.49 -3.43419 -0.989864 0
M  V30 2976 C 280.156 -4.50866 0.0557687 0
M  V30 2977 C 278.818 -4.79975 0.343134 0
M  V30 2978 C 281.17 -5.15551 0.765308 0
M  V30 2979 C 278.498 -5.71066 1.34536 0
M  V30 2980 C 280.85 -6.07724 1.75654 0
M  V30 2981 C 279.514 -6.35199 2.05132 0
M  V30 2982 H 278.784 -0.720869 -0.17155 0
M  V30 2983 H 281.431 -1.89616 0.267924 0
M  V30 2984 H 279.736 -3.47772 -1.80449 0
M  V30 2985 H 281.433 -3.72002 -1.49719 0
M  V30 2986 H 278.023 -4.28229 -0.178381 0
M  V30 2987 H 282.207 -4.9317 0.556513 0
M  V30 2988 H 277.463 -5.90635 1.57988 0
M  V30 2989 H 281.637 -6.56912 2.31169 0
M  V30 2990 H 279.264 -7.05584 2.8294 0
M  V30 2991 N 280.839 0.0985539 -1.57292 0
M  V30 2992 C 282.255 0.45267 -1.53046 0
M  V30 2993 C 282.455 1.80713 -0.891342 0
M  V30 2994 O 281.511 2.4785 -0.482375 0
M  V30 2995 C 282.824 0.418341 -2.97776 0
M  V30 2996 C 284.372 0.500443 -3.08973 0
M  V30 2997 C 284.847 0.496297 -4.55303 0
M  V30 2998 N 286.338 0.557151 -4.59837 0
M  V30 2999 C 287.073 0.575726 -5.70502 0
M  V30 3000 N 286.569 0.550714 -6.90608 0
M  V30 3001 N 288.362 0.620277 -5.58667 0
M  V30 3002 H 280.513 -0.788673 -1.97215 0
M  V30 3003 H 282.776 -0.293188 -0.901524 0
M  V30 3004 H 282.482 -0.509659 -3.47988 0
M  V30 3005 H 282.356 1.2386 -3.56284 0
M  V30 3006 H 284.743 1.41886 -2.58751 0
M  V30 3007 H 284.824 -0.347894 -2.53423 0
M  V30 3008 H 284.468 -0.418162 -5.06176 0
M  V30 3009 H 284.398 1.3618 -5.08687 0
M  V30 3010 H 286.889 0.581816 -3.73394 0
M  V30 3011 H 287.202 0.568075 -7.70709 0
M  V30 3012 H 285.547 0.517816 -6.93068 0
M  V30 3013 H 288.738 0.637322 -4.63741 0
M  V30 3014 H 288.911 0.631283 -6.44918 0
M  V30 3015 N 282.317 1.53212 0.369288 0
M  V30 3016 C 283.267 1.75769 1.45222 0
M  V30 3017 C 284.251 0.612136 1.48801 0
M  V30 3018 O 285.443 0.870674 1.54105 0
M  V30 3019 C 282.572 1.94769 2.82701 0
M  V30 3020 C 281.658 3.15315 2.83615 0
M  V30 3021 N 282.049 4.37295 2.54178 0
M  V30 3022 C 280.347 3.15962 3.14776 0
M  V30 3023 C 281.048 5.19015 2.62675 0
M  V30 3024 N 280.024 4.55142 2.97232 0
M  V30 3025 H 283.826 2.67691 1.2132 0
M  V30 3026 H 281.34 1.51787 0.577438 0
M  V30 3027 H 283.337 2.09056 3.60696 0
M  V30 3028 H 281.997 1.04073 3.07569 0
M  V30 3029 H 283.008 4.65091 2.27839 0
M  V30 3030 H 279.685 2.35144 3.44983 0
M  V30 3031 H 281.075 6.26305 2.43294 0
M  V30 3032 N 283.795 -0.628877 1.44509 0
M  V30 3033 C 285.041 -1.38863 1.48623 0
M  V30 3034 C 285.396 -1.92038 0.117933 0
M  V30 3035 O 284.689 -1.70853 -0.86716 0
M  V30 3036 C 284.883 -2.56995 2.48371 0
M  V30 3037 C 284.712 -2.15385 3.94765 0
M  V30 3038 C 283.482 -2.02558 4.62924 0
M  V30 3039 C 285.68 -1.74158 4.83915 0
M  V30 3040 N 283.662 -1.54534 5.94132 0
M  V30 3041 C 285.033 -1.37396 6.04584 0
M  V30 3042 C 287.088 -1.61559 4.7096 0
M  V30 3043 C 285.791 -0.892948 7.13736 0
M  V30 3044 C 287.817 -1.14862 5.80139 0
M  V30 3045 C 287.179 -0.790516 6.9995 0
M  V30 3046 H 283.278 -0.502858 0.59888 0
M  V30 3047 H 285.862 -0.72121 1.8085 0
M  V30 3048 H 284.033 -3.21362 2.1813 0
M  V30 3049 H 285.765 -3.23801 2.42766 0
M  V30 3050 H 282.52 -2.23082 4.1777 0
M  V30 3051 H 282.944 -1.32815 6.63844 0
M  V30 3052 H 287.586 -1.87876 3.78764 0
M  V30 3053 H 285.304 -0.617291 8.05739 0
M  V30 3054 H 288.89 -1.05569 5.72142 0
M  V30 3055 H 287.77 -0.434713 7.82994 0
M  V30 3056 N 285.273 -1.31445 -0.869486 0
M  V30 3057 C 286.52 -1.21158 -1.62256 0
M  V30 3058 C 286.848 0.230155 -1.93133 0
M  V30 3059 O 286.103 1.17906 -1.56194 0
M  V30 3060 C 286.402 -2.00145 -2.96102 0
M  V30 3061 C 286.068 -3.4964 -2.84715 0
M  V30 3062 C 284.73 -3.90403 -2.81317 0
M  V30 3063 C 287.082 -4.44769 -2.71716 0
M  V30 3064 C 284.41 -5.24561 -2.62778 0
M  V30 3065 C 286.762 -5.79054 -2.54714 0
M  V30 3066 C 285.426 -6.19037 -2.49699 0
M  V30 3067 H 284.696 -0.443348 -0.593737 0
M  V30 3068 H 287.343 -1.62715 -1.00976 0
M  V30 3069 H 285.648 -1.5127 -3.6142 0
M  V30 3070 H 287.345 -1.89566 -3.53363 0
M  V30 3071 H 283.935 -3.17256 -2.88178 0
M  V30 3072 H 288.119 -4.14208 -2.73397 0
M  V30 3073 H 283.375 -5.54613 -2.57321 0
M  V30 3074 H 287.549 -6.52393 -2.43632 0
M  V30 3075 H 285.176 -7.22935 -2.35093 0
M  V30 3076 N 286.751 1.08385 -1.14413 0
M  V30 3077 C 287.997 1.81044 -0.913834 0
M  V30 3078 C 288.33 1.86004 0.558209 0
M  V30 3079 O 287.605 1.33606 1.4135 0
M  V30 3080 C 287.888 3.26648 -1.51569 0
M  V30 3081 C 287.741 3.29895 -3.0576 0
M  V30 3082 C 289.06 4.23629 -1.19273 0
M  V30 3083 H 286.179 0.65727 -0.333414 0
M  V30 3084 H 288.821 1.26896 -1.41412 0
M  V30 3085 H 286.971 3.72889 -1.09023 0
M  V30 3086 H 288.643 2.91977 -3.57137 0
M  V30 3087 H 286.886 2.69163 -3.40197 0
M  V30 3088 H 287.557 4.32516 -3.42977 0
M  V30 3089 H 290.033 3.85727 -1.56057 0
M  V30 3090 H 288.909 5.23822 -1.64017 0
M  V30 3091 H 289.17 4.41968 -0.108068 0
M  V30 3092 N 288.23 0.939286 1.26551 0
M  V30 3093 C 289.193 0.451987 2.24699 0
M  V30 3094 C 290.193 -0.435869 1.5478 0
M  V30 3095 O 291.383 -0.235314 1.72603 0
M  V30 3096 C 288.515 -0.348801 3.39111 0
M  V30 3097 H 289.708 1.3193 2.69322 0
M  V30 3098 H 287.261 0.721072 1.38673 0
M  V30 3099 H 287.996 -1.23444 2.99887 0
M  V30 3100 H 287.781 0.287945 3.91041 0
M  V30 3101 H 289.271 -0.679726 4.12031 0
M  V30 3102 N 289.708 -1.40897 0.706093 0
M  V30 3103 C 290.655 -2.30751 0.0474474 0
M  V30 3104 C 291.625 -1.47678 -0.76029 0
M  V30 3105 O 292.81 -1.76441 -0.726177 0
M  V30 3106 C 289.95 -3.33815 -0.875309 0
M  V30 3107 C 289.063 -4.31961 -0.0580623 0
M  V30 3108 C 288.198 -5.22093 -0.979425 0
M  V30 3109 C 287.237 -6.11902 -0.155706 0
M  V30 3110 N 286.374 -6.94482 -1.03144 0
M  V30 3111 H 291.214 -2.86513 0.819413 0
M  V30 3112 H 288.751 -1.41102 0.415783 0
M  V30 3113 H 290.709 -3.92129 -1.42446 0
M  V30 3114 H 289.339 -2.79579 -1.61356 0
M  V30 3115 H 288.391 -3.75507 0.608147 0
M  V30 3116 H 289.703 -4.95415 0.580082 0
M  V30 3117 H 288.857 -5.85292 -1.59744 0
M  V30 3118 H 287.596 -4.5889 -1.65141 0
M  V30 3119 H 286.601 -5.47742 0.475309 0
M  V30 3120 H 287.826 -6.77162 0.512635 0
M  V30 3121 H 285.772 -6.33877 -1.68924 0
M  V30 3122 H 285.689 -7.54665 -0.449108 0
M  V30 3123 H 286.957 -7.6214 -1.63593 0
M  V30 3124 N 291.186 -0.45159 -1.50991 0
M  V30 3125 C 292.116 0.342898 -2.30969 0
M  V30 3126 C 293.097 1.00815 -1.37005 0
M  V30 3127 O 294.282 1.00907 -1.65926 0
M  V30 3128 C 291.412 1.43637 -3.16205 0
M  V30 3129 C 290.366 0.893818 -4.18563 0
M  V30 3130 C 289.692 2.08411 -4.92411 0
M  V30 3131 C 290.992 -0.0815568 -5.22236 0
M  V30 3132 H 292.686 -0.324556 -2.97636 0
M  V30 3133 H 290.232 -0.157531 -1.43136 0
M  V30 3134 H 292.185 1.9995 -3.70942 0
M  V30 3135 H 290.909 2.13232 -2.47386 0
M  V30 3136 H 289.568 0.352798 -3.64898 0
M  V30 3137 H 289.216 2.76658 -4.20082 0
M  V30 3138 H 288.916 1.72741 -5.61636 0
M  V30 3139 H 290.44 2.65251 -5.49976 0
M  V30 3140 H 291.854 0.391742 -5.7196 0
M  V30 3141 H 290.251 -0.351551 -5.99069 0
M  V30 3142 H 291.321 -1.01374 -4.74185 0
M  V30 3143 N 292.664 1.56529 -0.183458 0
M  V30 3144 C 293.894 2.01331 0.463612 0
M  V30 3145 C 294.302 1.06278 1.5653 0
M  V30 3146 O 293.645 0.0577976 1.83609 0
M  V30 3147 C 293.707 3.42547 1.09096 0
M  V30 3148 C 293.371 4.56817 0.129442 0
M  V30 3149 C 294.368 5.15734 -0.656807 0
M  V30 3150 C 292.053 5.02295 0.02174 0
M  V30 3151 C 294.047 6.1857 -1.53784 0
M  V30 3152 C 291.734 6.04978 -0.862864 0
M  V30 3153 C 292.732 6.62988 -1.64123 0
M  V30 3154 O 292.42 7.63677 -2.51103 0
M  V30 3155 H 292.152 0.664917 0.121907 0
M  V30 3156 H 294.706 2.034 -0.285954 0
M  V30 3157 H 292.936 3.37428 1.88889 0
M  V30 3158 H 294.625 3.71228 1.64148 0
M  V30 3159 H 295.391 4.81473 -0.583839 0
M  V30 3160 H 291.27 4.56847 0.617392 0
M  V30 3161 H 294.814 6.63777 -2.14583 0
M  V30 3162 H 290.711 6.38663 -0.93699 0
M  V30 3163 H 291.479 7.81049 -2.44753 0
M  V30 3164 N 294.142 -0.090211 1.57342 0
M  V30 3165 C 295.075 -1.14035 1.97664 0
M  V30 3166 C 296.053 -1.38576 0.850616 0
M  V30 3167 O 297.237 -1.52255 1.11134 0
M  V30 3168 C 294.364 -2.48854 2.2976 0
M  V30 3169 C 293.41 -2.40564 3.52181 0
M  V30 3170 S 294.243 -1.81745 5.03715 0
M  V30 3171 C 295.399 -3.18178 5.38993 0
M  V30 3172 H 295.632 -0.796636 2.86428 0
M  V30 3173 H 293.165 -0.298072 1.51496 0
M  V30 3174 H 295.123 -3.26413 2.48927 0
M  V30 3175 H 293.784 -2.80393 1.41558 0
M  V30 3176 H 292.977 -3.39942 3.72096 0
M  V30 3177 H 292.579 -1.71135 3.32549 0
M  V30 3178 H 294.871 -4.14461 5.35937 0
M  V30 3179 H 295.814 -3.03062 6.39968 0
M  V30 3180 H 296.222 -3.17935 4.66452 0
M  V30 3181 N 295.62 -1.53406 -0.361157 0
M  V30 3182 C 296.568 -1.80832 -1.46296 0
M  V30 3183 C 297.562 -0.677699 -1.55253 0
M  V30 3184 O 298.768 -0.860723 -1.58087 0
M  V30 3185 H 295.143 -0.572627 -0.487445 0
M  V30 3186 H 297.114 -2.73045 -1.20371 0
M  V30 3187 C 295.863 -2.01907 -2.8307 0
M  V30 3188 H 295.186 -2.88349 -2.76938 0
M  V30 3189 H 296.626 -2.25072 -3.59331 0
M  V30 3190 C 295.085 -0.799449 -3.27277 0
M  V30 3191 O 295.615 0.00971761 -4.01699 0
M  V30 3192 N 293.821 -0.621637 -2.83873 0
M  V30 3193 H 293.368 -1.28126 -2.23476 0
M  V30 3194 H 293.326 0.19298 -3.13807 0
M  V30 3195 N 297.098 0.621204 -1.44841 0
M  V30 3196 C 298.326 1.40752 -1.51646 0
M  V30 3197 C 298.741 1.88246 -0.144549 0
M  V30 3198 O 298.098 1.61422 0.851416 0
M  V30 3199 C 298.149 2.62119 -2.4895 0
M  V30 3200 O 297.87 2.16602 -3.80808 0
M  V30 3201 C 299.371 3.55135 -2.65319 0
M  V30 3202 H 296.591 0.431325 -0.514004 0
M  V30 3203 H 299.135 0.758835 -1.899 0
M  V30 3204 H 297.29 3.23058 -2.13805 0
M  V30 3205 H 297.704 2.95358 -4.33433 0
M  V30 3206 H 299.178 4.36874 -3.37409 0
M  V30 3207 H 299.655 4.04592 -1.70886 0
M  V30 3208 H 300.261 3.00058 -3.01405 0
M  V30 3209 N 298.576 1.31904 0.862503 0
M  V30 3210 C 299.526 1.16772 1.95827 0
M  V30 3211 C 300.51 0.0767098 1.60717 0
M  V30 3212 O 301.702 0.302407 1.74398 0
M  V30 3213 C 298.831 0.884858 3.317 0
M  V30 3214 C 297.917 2.0172 3.73055 0
M  V30 3215 N 298.308 3.265 3.86305 0
M  V30 3216 C 296.606 1.91861 4.02623 0
M  V30 3217 C 297.307 4.00616 4.2176 0
M  V30 3218 N 296.283 3.28847 4.32852 0
M  V30 3219 H 300.085 2.11382 2.04193 0
M  V30 3220 H 297.599 1.2357 1.05377 0
M  V30 3221 H 299.596 0.757419 4.09962 0
M  V30 3222 H 298.256 -0.0529448 3.24657 0
M  V30 3223 H 299.267 3.61529 3.70833 0
M  V30 3224 H 295.944 1.05593 4.03926 0
M  V30 3225 H 297.334 5.08182 4.39546 0
M  V30 3226 N 300.054 -1.07777 1.14986 0
M  V30 3227 C 301.465 -1.61766 0.932127 0
M  V30 3228 C 301.816 -1.88974 -0.527581 0
M  V30 3229 O 300.941 -1.65198 -1.39781 0
M  V30 3230 C 301.536 -2.93891 1.68563 0
M  V30 3231 C 300.095 -3.44639 1.5133 0
M  V30 3232 C 299.242 -2.18767 1.704 0
M  V30 3233 H 302.193 -0.909201 1.30074 0
M  V30 3234 H 302.214 -3.62623 1.15259 0
M  V30 3235 H 301.726 -2.74057 2.74799 0
M  V30 3236 H 299.827 -3.69564 0.474702 0
M  V30 3237 H 299.94 -4.20966 2.28746 0
M  V30 3238 H 298.304 -2.28253 1.13016 0
M  V30 3239 H 299.087 -2.01433 2.77992 0
M  V30 3240 N 301.532 -0.945985 -1.26051 0
M  V30 3241 C 302.78 -0.594941 -1.93145 0
M  V30 3242 C 303.101 0.86953 -1.7454 0
M  V30 3243 O 302.371 1.61838 -1.10387 0
M  V30 3244 H 300.951 -0.217044 -0.714773 0
M  V30 3245 H 303.613 -1.20235 -1.53393 0
M  V30 3246 H 302.709 -0.816835 -3.01221 0
M  V30 3247 N 303.011 1.40521 -0.713556 0
M  V30 3248 C 304.427 1.54839 -0.386907 0
M  V30 3249 C 304.627 1.68532 1.1045 0
M  V30 3250 O 303.683 1.67377 1.89053 0
M  V30 3251 C 304.996 2.77792 -1.15118 0
M  V30 3252 C 306.544 2.91607 -1.13729 0
M  V30 3253 C 307.019 4.1747 -1.88368 0
M  V30 3254 N 308.51 4.24466 -1.85427 0
M  V30 3255 C 309.245 5.20755 -2.40004 0
M  V30 3256 N 308.741 6.22965 -3.03129 0
M  V30 3257 N 310.534 5.1282 -2.30158 0
M  V30 3258 H 302.685 1.29879 -1.68063 0
M  V30 3259 H 304.948 0.627896 -0.710247 0
M  V30 3260 H 304.654 2.73944 -2.20561 0
M  V30 3261 H 304.528 3.6984 -0.741477 0
M  V30 3262 H 306.915 2.94959 -0.0910608 0
M  V30 3263 H 306.996 2.00682 -1.5862 0
M  V30 3264 H 306.64 4.1488 -2.9298 0
M  V30 3265 H 306.57 5.074 -1.40898 0
M  V30 3266 H 309.061 3.51241 -1.3942 0
M  V30 3267 H 309.374 6.92859 -3.42295 0
M  V30 3268 H 307.719 6.23415 -3.07212 0
M  V30 3269 H 310.91 4.31899 -1.80501 0
M  V30 3270 H 311.083 5.87689 -2.72993 0
M  V30 3271 N 304.489 0.459591 1.5075 0
M  V30 3272 C 305.419 -0.330644 2.31147 0
M  V30 3273 C 306.4 -1.00087 1.37538 0
M  V30 3274 O 307.585 -1.00025 1.66459 0
M  V30 3275 C 304.715 -1.41958 3.16962 0
M  V30 3276 C 303.669 -0.871608 4.19031 0
M  V30 3277 C 302.995 -2.05797 4.9351 0
M  V30 3278 C 304.295 0.109251 5.22186 0
M  V30 3279 H 305.989 0.340336 2.97459 0
M  V30 3280 H 303.535 0.165119 1.4305 0
M  V30 3281 H 305.488 -1.9798 3.71997 0
M  V30 3282 H 304.212 -2.11917 2.48513 0
M  V30 3283 H 302.871 -0.333442 3.6508 0
M  V30 3284 H 302.519 -2.74427 4.21544 0
M  V30 3285 H 302.219 -1.6976 5.62544 0
M  V30 3286 H 303.743 -2.62331 5.51375 0
M  V30 3287 H 305.157 -0.361405 5.7216 0
M  V30 3288 H 303.554 0.383316 5.98875 0
M  V30 3289 H 304.624 1.03887 4.73641 0
M  V30 3290 N 305.967 -1.56429 0.191757 0
M  V30 3291 C 306.897 -2.21937 -0.725696 0
M  V30 3292 C 307.878 -1.1814 -1.2238 0
M  V30 3293 O 309.063 -1.46636 -1.27325 0
M  V30 3294 C 306.193 -2.87611 -1.94672 0
M  V30 3295 C 305.147 -3.97623 -1.58366 0
M  V30 3296 C 304.473 -4.50446 -2.88102 0
M  V30 3297 C 305.773 -5.16197 -0.796133 0
M  V30 3298 H 307.467 -2.98861 -0.179606 0
M  V30 3299 H 305.013 -1.43749 -0.0849464 0
M  V30 3300 H 306.966 -3.3212 -2.59373 0
M  V30 3301 H 305.69 -2.08087 -2.51728 0
M  V30 3302 H 304.349 -3.53801 -0.960247 0
M  V30 3303 H 303.997 -3.67688 -3.43241 0
M  V30 3304 H 303.697 -5.24675 -2.64556 0
M  V30 3305 H 305.221 -4.97654 -3.53798 0
M  V30 3306 H 306.635 -5.57271 -1.34618 0
M  V30 3307 H 305.032 -5.96471 -0.658928 0
M  V30 3308 H 306.102 -4.84473 0.203478 0
M  V30 3309 N 307.445 0.0818655 -1.57387 0
M  V30 3310 C 308.375 1.09885 -2.06028 0
M  V30 3311 C 309.356 1.4098 -0.951774 0
M  V30 3312 O 310.541 1.50781 -1.22387 0
M  V30 3313 C 307.671 2.4151 -2.4958 0
M  V30 3314 C 306.625 2.24792 -3.64215 0
M  V30 3315 C 305.951 3.61712 -3.93787 0
M  V30 3316 C 307.251 1.67749 -4.94629 0
M  V30 3317 H 308.945 0.694128 -2.91243 0
M  V30 3318 H 306.491 0.332448 -1.4011 0
M  V30 3319 H 308.444 3.12939 -2.82219 0
M  V30 3320 H 307.168 2.83943 -1.61381 0
M  V30 3321 H 305.827 1.55807 -3.31843 0
M  V30 3322 H 305.475 4.01697 -3.02735 0
M  V30 3323 H 305.175 3.51368 -4.70971 0
M  V30 3324 H 306.699 4.34587 -4.28913 0
M  V30 3325 H 308.113 2.29032 -5.25564 0
M  V30 3326 H 306.51 1.68128 -5.76067 0
M  V30 3327 H 307.58 0.638059 -4.80684 0
M  V30 3328 N 308.923 1.53595 0.353017 0
M  V30 3329 C 310.171 1.70049 1.09215 0
M  V30 3330 C 310.492 0.461406 1.89463 0
M  V30 3331 O 309.762 -0.524633 1.88744 0
M  V30 3332 H 308.342 0.626912 0.40619 0
M  V30 3333 H 311.004 1.90822 0.396585 0
M  V30 3334 H 310.1 2.56718 1.77488 0
M  V30 3335 N 310.401 -0.613514 1.45168 0
M  V30 3336 C 311.331 -1.7354 1.56225 0
M  V30 3337 C 312.312 -1.64981 0.41414 0
M  V30 3338 O 313.497 -1.83472 0.636526 0
M  V30 3339 C 310.627 -3.12128 1.52295 0
M  V30 3340 C 309.581 -3.35491 2.65762 0
M  V30 3341 C 308.907 -4.74291 2.46885 0
M  V30 3342 C 310.207 -3.26325 4.0781 0
M  V30 3343 H 311.901 -1.64543 2.50132 0
M  V30 3344 H 309.447 -0.790185 1.20383 0
M  V30 3345 H 311.4 -3.90404 1.58628 0
M  V30 3346 H 310.124 -3.2195 0.549139 0
M  V30 3347 H 308.783 -2.59603 2.58847 0
M  V30 3348 H 308.431 -4.80839 1.47657 0
M  V30 3349 H 308.131 -4.9088 3.22972 0
M  V30 3350 H 309.655 -5.54775 2.55063 0
M  V30 3351 H 311.069 -3.94483 4.16 0
M  V30 3352 H 309.466 -3.54445 4.8424 0
M  V30 3353 H 310.536 -2.23855 4.30136 0
M  V30 3354 N 311.879 -1.3236 -0.855495 0
M  V30 3355 C 313.107 -1.2587 -1.64208 0
M  V30 3356 C 313.522 0.173457 -1.88002 0
M  V30 3357 O 312.879 1.11027 -1.44842 0
M  V30 3358 C 312.93 -2.01424 -3.00184 0
M  V30 3359 O 312.651 -3.39051 -2.77445 0
M  V30 3360 C 314.152 -2.01948 -3.94629 0
M  V30 3361 H 311.372 -0.434318 -0.511477 0
M  V30 3362 H 313.916 -1.74469 -1.0668 0
M  V30 3363 H 312.071 -1.56549 -3.5436 0
M  V30 3364 H 312.485 -3.77711 -3.63916 0
M  V30 3365 H 313.959 -2.59297 -4.87308 0
M  V30 3366 H 314.436 -1.00554 -4.27534 0
M  V30 3367 H 315.042 -2.46767 -3.4639 0
M  V30 3368 N 313.357 1.07166 -1.15556 0
M  V30 3369 C 314.287 2.16403 -0.877046 0
M  V30 3370 C 315.268 1.69217 0.173111 0
M  V30 3371 O 316.453 1.94181 0.027084 0
M  V30 3372 C 313.583 3.45349 -0.367632 0
M  V30 3373 C 312.537 4.05995 -1.35468 0
M  V30 3374 C 311.863 5.30045 -0.704038 0
M  V30 3375 C 313.163 4.45804 -2.72132 0
M  V30 3376 H 314.857 2.39959 -1.79053 0
M  V30 3377 H 312.403 1.15325 -0.862331 0
M  V30 3378 H 314.356 4.21095 -0.160317 0
M  V30 3379 H 313.08 3.21385 0.581326 0
M  V30 3380 H 311.739 3.32296 -1.54839 0
M  V30 3381 H 311.387 5.02373 0.251128 0
M  V30 3382 H 311.087 5.71579 -1.36277 0
M  V30 3383 H 312.611 6.08495 -0.50654 0
M  V30 3384 H 314.025 5.12671 -2.56595 0
M  V30 3385 H 312.422 4.98296 -3.34397 0
M  V30 3386 H 313.492 3.57083 -3.28054 0
M  V30 3387 N 314.835 0.952656 1.25548 0
M  V30 3388 C 316.083 0.605176 1.92826 0
M  V30 3389 C 316.404 -0.860261 1.74999 0
M  V30 3390 O 315.674 -1.6125 1.11244 0
M  V30 3391 H 314.254 0.220832 0.713612 0
M  V30 3392 H 316.916 1.21047 1.52754 0
M  V30 3393 H 316.012 0.832798 3.00784 0
M  V30 3394 N 316.313 -1.40141 0.720998 0
M  V30 3395 C 317.243 -2.33339 0.0867621 0
M  V30 3396 C 318.224 -1.53178 -0.739622 0
M  V30 3397 O 319.409 -1.81625 -0.687449 0
M  V30 3398 C 316.539 -3.37194 -0.831728 0
M  V30 3399 C 315.493 -4.27857 -0.110558 0
M  V30 3400 C 314.819 -5.22294 -1.14513 0
M  V30 3401 C 316.119 -5.11872 1.0385 0
M  V30 3402 H 317.813 -2.86626 0.865219 0
M  V30 3403 H 315.359 -1.37814 0.417516 0
M  V30 3404 H 317.312 -4.01335 -1.28485 0
M  V30 3405 H 316.036 -2.82314 -1.64214 0
M  V30 3406 H 314.695 -3.65176 0.322797 0
M  V30 3407 H 314.343 -4.63717 -1.94874 0
M  V30 3408 H 314.043 -5.83797 -0.667446 0
M  V30 3409 H 315.567 -5.89312 -1.59824 0
M  V30 3410 H 316.981 -5.69436 0.664482 0
M  V30 3411 H 315.378 -5.82445 1.4449 0
M  V30 3412 H 316.448 -4.4753 1.86668 0
M  V30 3413 N 317.792 -0.46758 -1.50504 0
M  V30 3414 C 319.038 0.0808869 -2.03239 0
M  V30 3415 C 319.393 1.37721 -1.34353 0
M  V30 3416 O 318.686 1.86016 -0.459194 0
M  V30 3417 C 318.88 0.323995 -3.55928 0
M  V30 3418 C 318.709 -0.947215 -4.39611 0
M  V30 3419 C 317.479 -1.48951 -4.82848 0
M  V30 3420 C 319.677 -1.84166 -4.80195 0
M  V30 3421 N 317.659 -2.71011 -5.50842 0
M  V30 3422 C 319.03 -2.90815 -5.47564 0
M  V30 3423 C 321.085 -1.85246 -4.62156 0
M  V30 3424 C 319.788 -3.98529 -5.98805 0
M  V30 3425 C 321.814 -2.91914 -5.14335 0
M  V30 3426 C 321.176 -3.97282 -5.81676 0
M  V30 3427 H 317.275 -0.0103394 -0.781932 0
M  V30 3428 H 319.859 -0.635003 -1.84054 0
M  V30 3429 H 318.03 1.00892 -3.75067 0
M  V30 3430 H 319.762 0.866492 -3.95315 0
M  V30 3431 H 316.517 -1.03918 -4.62058 0
M  V30 3432 H 316.941 -3.32988 -5.89447 0
M  V30 3433 H 321.583 -1.05103 -4.09528 0
M  V30 3434 H 319.301 -4.79491 -6.50472 0
M  V30 3435 H 322.887 -2.93729 -5.0221 0
M  V30 3436 H 321.767 -4.78462 -6.21324 0
M  V30 3437 N 319.27 1.56325 -0.20005 0
M  V30 3438 C 320.2 2.22318 0.713916 0
M  V30 3439 C 321.181 1.18788 1.21752 0
M  V30 3440 O 322.366 1.47309 1.26545 0
M  V30 3441 C 319.496 2.88639 1.93144 0
M  V30 3442 C 318.45 3.98457 1.56255 0
M  V30 3443 C 317.776 4.51967 2.85709 0
M  V30 3444 C 319.076 5.16612 0.768747 0
M  V30 3445 H 320.77 2.98952 0.163755 0
M  V30 3446 H 318.316 1.43792 0.0773219 0
M  V30 3447 H 320.269 3.33491 2.57608 0
M  V30 3448 H 318.993 2.09419 2.50621 0
M  V30 3449 H 317.652 3.54305 0.941471 0
M  V30 3450 H 317.3 3.69503 3.41287 0
M  V30 3451 H 317 5.26071 2.6177 0
M  V30 3452 H 318.524 4.99523 3.51154 0
M  V30 3453 H 319.938 5.57977 1.3166 0
M  V30 3454 H 318.335 5.96812 0.627286 0
M  V30 3455 H 319.405 4.84358 -0.229168 0
M  V30 3456 N 320.748 -0.0735177 1.57428 0
M  V30 3457 C 321.976 -0.785969 1.9139 0
M  V30 3458 C 322.391 -1.71207 0.795847 0
M  V30 3459 O 321.748 -1.81033 -0.230915 0
M  V30 3460 C 321.799 -1.58107 3.25091 0
M  V30 3461 O 321.52 -0.6922 4.32597 0
M  V30 3462 C 323.021 -2.39467 3.73055 0
M  V30 3463 H 320.241 -0.223558 0.632663 0
M  V30 3464 H 322.785 -0.044302 2.04452 0
M  V30 3465 H 320.94 -2.27503 3.13562 0
M  V30 3466 H 321.354 -1.24504 5.09508 0
M  V30 3467 H 322.828 -2.90716 4.69242 0
M  V30 3468 H 323.305 -3.18913 3.01979 0
M  V30 3469 H 323.911 -1.7523 3.87523 0
M  V30 3470 N 322.226 -1.5378 -0.344866 0
M  V30 3471 C 323.454 -1.74899 -1.10534 0
M  V30 3472 C 323.869 -0.487534 -1.82397 0
M  V30 3473 O 323.226 0.540741 -1.74305 0
M  V30 3474 C 323.277 -2.92822 -2.11984 0
M  V30 3475 O 322.998 -4.14089 -1.43044 0
M  V30 3476 C 324.499 -3.25982 -3.00417 0
M  V30 3477 H 321.719 -0.584426 -0.329678 0
M  V30 3478 H 324.263 -2.006 -0.397474 0
M  V30 3479 H 322.418 -2.69457 -2.78338 0
M  V30 3480 H 322.832 -4.80272 -2.10805 0
M  V30 3481 H 324.306 -4.11848 -3.67539 0
M  V30 3482 H 324.783 -2.42228 -3.66363 0
M  V30 3483 H 325.389 -3.51349 -2.39654 0
M  V30 3484 N 323.704 0.605807 -1.45491 0
M  V30 3485 C 324.667 1.69836 -1.5391 0
M  V30 3486 C 325.667 1.55261 -0.418424 0
M  V30 3487 O 326.857 1.60296 -0.681965 0
M  V30 3488 C 323.989 3.09117 -1.43734 0
M  V30 3489 H 325.182 1.63738 -2.51257 0
M  V30 3490 H 322.735 0.821689 -1.32959 0
M  V30 3491 H 323.47 3.20791 -0.475788 0
M  V30 3492 H 323.255 3.21104 -2.25021 0
M  V30 3493 H 324.745 3.88696 -1.52661 0
M  V30 3494 N 325.182 1.32811 0.848464 0
M  V30 3495 C 326.428 1.24917 1.60522 0
M  V30 3496 C 326.783 -0.185761 1.91501 0
M  V30 3497 O 326.076 -1.12524 1.55077 0
M  V30 3498 C 326.27 2.04831 2.92881 0
M  V30 3499 C 326.099 3.55949 2.74828 0
M  V30 3500 C 324.869 4.25277 2.72887 0
M  V30 3501 C 327.067 4.50476 2.48145 0
M  V30 3502 N 325.049 5.62408 2.46111 0
M  V30 3503 C 326.42 5.75427 2.30832 0
M  V30 3504 C 328.475 4.39665 2.33664 0
M  V30 3505 C 327.178 6.90789 2.00508 0
M  V30 3506 C 329.204 5.54833 2.04731 0
M  V30 3507 C 328.566 6.78787 1.88223 0
M  V30 3508 H 324.665 0.512279 0.590842 0
M  V30 3509 H 327.249 1.67246 0.996839 0
M  V30 3510 H 325.42 1.64837 3.51686 0
M  V30 3511 H 327.152 1.88782 3.57971 0
M  V30 3512 H 323.907 3.77456 2.86049 0
M  V30 3513 H 324.331 6.3467 2.35634 0
M  V30 3514 H 328.973 3.44477 2.45144 0
M  V30 3515 H 326.691 7.85984 1.87765 0
M  V30 3516 H 330.277 5.48398 1.94295 0
M  V30 3517 H 329.157 7.66396 1.66155 0
M  V30 3518 N 326.66 -1.06551 1.16123 0
M  V30 3519 C 327.906 -1.79567 0.94252 0
M  V30 3520 C 328.239 -1.86869 -0.528547 0
M  V30 3521 O 327.514 -1.35838 -1.39206 0
M  V30 3522 C 327.797 -3.24195 1.56747 0
M  V30 3523 C 327.65 -3.24989 3.10969 0
M  V30 3524 C 328.969 -4.21678 1.25998 0
M  V30 3525 H 326.088 -0.651883 0.343828 0
M  V30 3526 H 328.73 -1.2463 1.43413 0
M  V30 3527 H 326.88 -3.71107 1.14942 0
M  V30 3528 H 328.552 -2.86258 3.61737 0
M  V30 3529 H 326.795 -2.63716 3.44436 0
M  V30 3530 H 327.466 -4.27005 3.49815 0
M  V30 3531 H 329.942 -3.83196 1.62174 0
M  V30 3532 H 328.818 -5.21146 1.7233 0
M  V30 3533 H 329.079 -4.4174 0.178367 0
M  V30 3534 N 328.138 -0.959301 -1.25041 0
M  V30 3535 C 329.068 -0.501388 -2.28053 0
M  V30 3536 C 330.049 0.454673 -1.63911 0
M  V30 3537 O 331.234 0.352618 -1.90972 0
M  V30 3538 C 328.364 0.217224 -3.4662 0
M  V30 3539 C 327.318 -0.654034 -4.22973 0
M  V30 3540 C 326.644 0.195589 -5.34342 0
M  V30 3541 C 327.944 -1.93447 -4.85155 0
M  V30 3542 H 329.638 -1.36238 -2.66608 0
M  V30 3543 H 327.184 -0.656534 -1.28163 0
M  V30 3544 H 329.137 0.548732 -4.17812 0
M  V30 3545 H 327.861 1.1125 -3.07068 0
M  V30 3546 H 326.52 -0.968693 -3.5357 0
M  V30 3547 H 326.168 1.09076 -4.91031 0
M  V30 3548 H 325.868 -0.384091 -5.86343 0
M  V30 3549 H 327.392 0.521958 -6.08365 0
M  V30 3550 H 328.806 -1.66908 -5.48466 0
M  V30 3551 H 327.203 -2.46018 -5.47353 0
M  V30 3552 H 328.273 -2.63466 -4.07079 0
M  V30 3553 N 329.616 1.39756 -0.72842 0
M  V30 3554 C 330.841 2.05472 -0.282159 0
M  V30 3555 C 331.266 1.54549 1.07221 0
M  V30 3556 O 330.624 0.686372 1.67805 0
M  V30 3557 C 330.672 3.59462 -0.286264 0
M  V30 3558 O 329.776 4.05918 0.728298 0
M  V30 3559 H 329.117 0.651226 -0.129618 0
M  V30 3560 H 331.647 1.78915 -0.992499 0
M  V30 3561 H 331.657 4.07798 -0.128373 0
M  V30 3562 H 330.332 3.95889 -1.27456 0
M  V30 3563 H 328.909 3.69012 0.537081 0
M  V30 3564 N 331.094 0.475555 1.50254 0
M  V30 3565 C 332.34 -0.0780073 2.0265 0
M  V30 3566 C 332.673 -1.38968 1.35652 0
M  V30 3567 O 331.948 -1.8839 0.483691 0
M  V30 3568 C 332.231 -0.257161 3.59181 0
M  V30 3569 C 332.084 1.07585 4.36744 0
M  V30 3570 C 333.403 -1.00965 4.28362 0
M  V30 3571 H 330.522 -0.0268758 0.73651 0
M  V30 3572 H 333.164 0.622015 1.7953 0
M  V30 3573 H 331.314 -0.853412 3.79011 0
M  V30 3574 H 332.986 1.70902 4.28474 0
M  V30 3575 H 331.229 1.6714 4.00308 0
M  V30 3576 H 331.9 0.904088 5.44546 0
M  V30 3577 H 334.376 -0.504214 4.13034 0
M  V30 3578 H 333.252 -1.10381 5.37687 0
M  V30 3579 H 333.513 -2.04731 3.91839 0
M  V30 3580 N 332.573 -1.56217 0.208337 0
M  V30 3581 C 333.536 -2.18455 -0.693557 0
M  V30 3582 C 334.536 -1.14268 -1.13135 0
M  V30 3583 O 335.726 -1.39577 -1.0423 0
M  V30 3584 C 332.858 -2.79727 -1.94848 0
M  V30 3585 H 334.051 -2.99519 -0.15114 0
M  V30 3586 H 331.604 -1.56245 -0.041287 0
M  V30 3587 H 332.339 -2.02497 -2.53309 0
M  V30 3588 H 332.124 -3.56009 -1.64316 0
M  V30 3589 H 333.614 -3.27475 -2.59133 0
M  V30 3590 N 334.051 0.0651679 -1.57465 0
M  V30 3591 C 334.961 1.09448 -2.07505 0
M  V30 3592 C 335.977 1.41974 -1.00595 0
M  V30 3593 O 337.153 1.52018 -1.32107 0
M  V30 3594 C 334.218 2.38689 -2.51453 0
M  V30 3595 C 333.279 2.13073 -3.72691 0
M  V30 3596 C 332.512 3.36152 -4.14533 0
M  V30 3597 O 332.735 4.45517 -3.56189 0
M  V30 3598 O 331.669 3.23974 -5.07272 0
M  V30 3599 H 335.495 0.69935 -2.95538 0
M  V30 3600 H 333.08 0.279752 -1.46757 0
M  V30 3601 H 334.962 3.14736 -2.80212 0
M  V30 3602 H 333.637 2.77568 -1.66546 0
M  V30 3603 H 332.544 1.34709 -3.49005 0
M  V30 3604 H 333.877 1.79071 -4.5847 0
M  V30 3605 N 335.529 1.53961 0.336706 0
M  V30 3606 C 336.945 1.44378 0.680241 0
M  V30 3607 C 337.145 0.606034 1.9217 0
M  V30 3608 O 336.201 0.099688 2.52303 0
M  V30 3609 C 337.514 2.87945 0.8665 0
M  V30 3610 C 339.062 2.97763 0.964682 0
M  V30 3611 C 339.537 4.42453 1.18321 0
M  V30 3612 N 341.028 4.46008 1.25025 0
M  V30 3613 C 341.763 5.55102 1.43697 0
M  V30 3614 N 341.259 6.7419 1.59498 0
M  V30 3615 N 343.052 5.42727 1.463 0
M  V30 3616 H 335.203 2.06918 -0.479455 0
M  V30 3617 H 337.466 0.935634 -0.152619 0
M  V30 3618 H 337.172 3.51691 0.0256937 0
M  V30 3619 H 337.046 3.33293 1.76623 0
M  V30 3620 H 339.433 2.34153 1.796 0
M  V30 3621 H 339.514 2.55766 0.041708 0
M  V30 3622 H 339.158 5.06645 0.356788 0
M  V30 3623 H 339.088 4.82048 2.11985 0
M  V30 3624 H 341.579 3.60196 1.14312 0
M  V30 3625 H 341.892 7.53095 1.734 0
M  V30 3626 H 340.237 6.77123 1.56621 0
M  V30 3627 H 343.428 4.48647 1.33543 0
M  V30 3628 H 343.601 6.27806 1.6051 0
M  V30 3629 N 337.007 -0.598083 1.45811 0
M  V30 3630 C 337.939 -1.72231 1.51225 0
M  V30 3631 C 338.952 -1.57757 0.402059 0
M  V30 3632 O 340.141 -1.65464 0.669624 0
M  V30 3633 C 337.241 -3.10331 1.3619 0
M  V30 3634 C 336.414 -3.50955 2.61054 0
M  V30 3635 C 335.473 -4.68055 2.40439 0
M  V30 3636 O 334.499 -4.74691 3.14097 0
M  V30 3637 N 335.701 -5.61941 1.45612 0
M  V30 3638 H 338.466 -1.68046 2.48154 0
M  V30 3639 H 336.027 -0.783637 1.41671 0
M  V30 3640 H 338.019 -3.86439 1.20195 0
M  V30 3641 H 336.589 -3.0897 0.475015 0
M  V30 3642 H 335.809 -2.64711 2.92099 0
M  V30 3643 H 337.097 -3.74858 3.44034 0
M  V30 3644 H 336.495 -5.59301 0.848431 0
M  V30 3645 H 335.052 -6.37542 1.35585 0
M  V30 3646 N 338.485 -1.33259 -0.841409 0
M  V30 3647 C 339.448 -1.23221 -1.9326 0
M  V30 3648 C 340.448 -0.151895 -1.60081 0
M  V30 3649 O 341.638 -0.403246 -1.69468 0
M  V30 3650 C 338.77 -0.898123 -3.28856 0
M  V30 3651 H 339.963 -2.2021 -2.03587 0
M  V30 3652 H 337.516 -1.17281 -1.03319 0
M  V30 3653 H 338.251 0.0693841 -3.24226 0
M  V30 3654 H 338.036 -1.67934 -3.54317 0
M  V30 3655 H 339.526 -0.852563 -4.08805 0
M  V30 3656 N 339.963 1.05934 -1.16686 0
M  V30 3657 C 341.209 1.79065 -0.95203 0
M  V30 3658 C 341.542 1.87147 0.518629 0
M  V30 3659 O 340.817 1.36574 1.38484 0
M  V30 3660 C 341.1 3.23359 -1.58464 0
M  V30 3661 C 340.953 3.23336 -3.12689 0
M  V30 3662 C 342.272 4.21004 -1.28232 0
M  V30 3663 H 339.391 0.65005 -0.34728 0
M  V30 3664 H 342.033 1.23868 -1.44072 0
M  V30 3665 H 340.183 3.70493 -1.16908 0
M  V30 3666 H 341.855 2.84336 -3.6325 0
M  V30 3667 H 340.098 2.61886 -3.4583 0
M  V30 3668 H 340.769 4.25144 -3.52075 0
M  V30 3669 H 343.245 3.8233 -1.64203 0
M  V30 3670 H 342.121 5.20225 -1.75092 0
M  V30 3671 H 342.382 4.41639 -0.201791 0
M  V30 3672 N 341.441 0.965919 1.2453 0
M  V30 3673 C 342.389 0.486506 2.27455 0
M  V30 3674 C 343.383 -0.449041 1.6334 0
M  V30 3675 O 344.589 -0.324527 1.7705 0
M  V30 3676 H 340.964 0.138857 0.739069 0
M  V30 3677 H 342.935 1.3666 2.65267 0
M  V30 3678 C 341.684 -0.209481 3.47068 0
M  V30 3679 H 341.007 0.50129 3.96645 0
M  V30 3680 H 342.447 -0.508775 4.20936 0
M  V30 3681 C 340.906 -1.43586 3.0477 0
M  V30 3682 O 341.436 -2.53299 3.11773 0
M  V30 3683 N 339.642 -1.30126 2.59838 0
M  V30 3684 H 339.189 -0.408583 2.54339 0
M  V30 3685 H 339.147 -2.12294 2.31902 0
M  V30 3686 N 342.919 -1.39368 0.735821 0
M  V30 3687 C 343.882 -2.2896 0.104874 0
M  V30 3688 C 344.882 -1.46347 -0.666274 0
M  V30 3689 O 346.072 -1.67014 -0.49517 0
M  V30 3690 C 343.204 -3.29857 -0.860656 0
M  V30 3691 H 344.397 -2.86259 0.894205 0
M  V30 3692 H 341.95 -1.48029 0.501704 0
M  V30 3693 H 342.685 -2.77615 -1.67631 0
M  V30 3694 H 342.47 -3.9087 -0.310327 0
M  V30 3695 H 343.96 -3.96893 -1.29867 0
M  V30 3696 N 344.397 -0.483516 -1.5 0
M  V30 3697 C 345.625 0.0644831 -2.06799 0
M  V30 3698 C 346.04 1.32399 -1.34596 0
M  V30 3699 O 345.397 1.77626 -0.418946 0
M  V30 3700 C 345.448 0.339927 -3.59898 0
M  V30 3701 O 345.169 -0.869635 -4.29382 0
M  V30 3702 C 346.67 0.933515 -4.33359 0
M  V30 3703 H 343.89 -0.0126333 -0.670881 0
M  V30 3704 H 346.434 -0.675864 -1.93009 0
M  V30 3705 H 344.589 1.03022 -3.7345 0
M  V30 3706 H 345.003 -0.62179 -5.20801 0
M  V30 3707 H 346.477 1.07593 -5.41413 0
M  V30 3708 H 346.954 1.92685 -3.94676 0
M  V30 3709 H 347.56 0.281221 -4.24369 0
M  V30 3710 N 345.875 1.56104 -0.216619 0
M  V30 3711 C 347.123 1.97781 0.415593 0
M  V30 3712 C 347.444 1.10536 1.60645 0
M  V30 3713 O 346.714 0.181303 1.95059 0
M  V30 3714 H 345.294 0.730415 0.156534 0
M  V30 3715 H 347.956 1.92445 -0.308366 0
M  V30 3716 H 347.052 3.03072 0.74525 0
M  V30 3717 N 347.353 -0.0568162 1.57498 0
M  V30 3718 C 348.303 -1.07315 2.01166 0
M  V30 3719 C 349.287 -1.33632 0.896171 0
M  V30 3720 O 350.479 -1.33682 1.16009 0
M  V30 3721 C 347.608 -2.38257 2.47161 0
M  V30 3722 C 346.694 -2.1515 3.65474 0
M  V30 3723 N 347.085 -1.62014 4.7915 0
M  V30 3724 C 345.383 -2.45559 3.72313 0
M  V30 3725 C 346.084 -1.54069 5.60926 0
M  V30 3726 N 345.06 -2.00652 5.05213 0
M  V30 3727 H 348.862 -0.655878 2.86488 0
M  V30 3728 H 346.376 -0.263635 1.60246 0
M  V30 3729 H 348.373 -3.11845 2.76691 0
M  V30 3730 H 347.033 -2.80687 1.63232 0
M  V30 3731 H 348.044 -1.30667 5.01145 0
M  V30 3732 H 344.721 -2.91253 2.99129 0
M  V30 3733 H 346.111 -1.13712 6.62208 0
M  V30 3734 N 348.832 -1.54138 -0.328536 0
M  V30 3735 C 349.762 -1.86167 -1.40939 0
M  V30 3736 C 350.743 -0.718044 -1.54202 0
M  V30 3737 O 351.928 -0.971328 -1.68163 0
M  V30 3738 C 349.058 -2.08461 -2.77779 0
M  V30 3739 C 348.012 -3.24299 -2.7931 0
M  V30 3740 C 347.338 -3.31955 -4.19178 0
M  V30 3741 C 348.638 -4.62065 -2.43502 0
M  V30 3742 H 350.332 -2.76689 -1.14383 0
M  V30 3743 H 347.878 -1.33132 -0.548806 0
M  V30 3744 H 349.831 -2.29453 -3.53454 0
M  V30 3745 H 348.555 -1.14684 -3.05802 0
M  V30 3746 H 347.214 -3.03187 -2.0609 0
M  V30 3747 H 346.862 -2.35745 -4.44335 0
M  V30 3748 H 346.562 -4.09805 -4.2111 0
M  V30 3749 H 348.086 -3.55175 -4.96672 0
M  V30 3750 H 349.5 -4.8297 -3.08889 0
M  V30 3751 H 347.897 -5.42429 -2.56693 0
M  V30 3752 H 348.967 -4.64652 -1.38659 0
M  V30 3753 N 350.31 0.590341 -1.46126 0
M  V30 3754 C 351.535 1.37991 -1.54833 0
M  V30 3755 C 351.96 1.87163 -0.187506 0
M  V30 3756 O 351.318 1.61133 0.831008 0
M  V30 3757 C 351.366 2.54867 -2.55098 0
M  V30 3758 O 350.47 3.56061 -2.08073 0
M  V30 3759 H 349.811 0.411265 -0.521303 0
M  V30 3760 H 352.341 0.716819 -1.91632 0
M  V30 3761 H 352.351 3.01886 -2.74461 0
M  V30 3762 H 351.026 2.18429 -3.53923 0
M  V30 3763 H 349.603 3.15574 -1.98664 0
M  V30 3764 N 351.788 1.33704 0.83433 0
M  V30 3765 C 353.065 1.16011 1.57483 0
M  V30 3766 C 353.445 -0.27176 2.09343 0
M  V30 3767 O 352.793 -1.27146 1.89858 0
M  V30 3768 C 353.003 2.20507 2.70514 0
M  V30 3769 C 354.351 2.54898 3.39577 0
M  V30 3770 O 355.375 2.19209 2.80759 0
M  V30 3771 O 354.234 3.16158 4.45765 0
M  V30 3772 H 351.328 0.448992 0.694503 0
M  V30 3773 H 353.874 1.453 0.876691 0
M  V30 3774 H 352.646 3.16667 2.29865 0
M  V30 3775 H 352.269 1.92329 3.47987 0
M  V30 3776 N 353.266 -1.05314 1.17247 0
M  V30 3777 C 354.494 -1.81971 0.984593 0
M  V30 3778 C 354.909 -1.82929 -0.467166 0
M  V30 3779 O 354.266 -1.25564 -1.32438 0
M  V30 3780 C 354.317 -3.28143 1.51672 0
M  V30 3781 O 354.038 -3.27347 2.91163 0
M  V30 3782 C 355.539 -4.21493 1.37326 0
M  V30 3783 H 352.759 -0.573455 0.348411 0
M  V30 3784 H 355.303 -1.32808 1.55506 0
M  V30 3785 H 353.458 -3.74582 0.988302 0
M  V30 3786 H 353.872 -4.18824 3.15732 0
M  V30 3787 H 355.346 -5.22043 1.79375 0
M  V30 3788 H 355.823 -4.38031 0.320169 0
M  V30 3789 H 356.429 -3.80909 1.89178 0
M  V30 3790 N 354.744 -0.972509 -1.24016 0
M  V30 3791 C 355.674 -0.525548 -2.27509 0
M  V30 3792 C 356.655 0.437262 -1.64384 0
M  V30 3793 O 357.84 0.332343 -1.91335 0
M  V30 3794 C 354.97 0.180448 -3.46831 0
M  V30 3795 C 353.924 -0.698859 -4.22256 0
M  V30 3796 C 353.25 0.138903 -5.3452 0
M  V30 3797 C 354.55 -1.98582 -4.83076 0
M  V30 3798 H 356.244 -1.39058 -2.65148 0
M  V30 3799 H 353.79 -0.67009 -1.27459 0
M  V30 3800 H 355.743 0.504387 -4.18371 0
M  V30 3801 H 354.467 1.07987 -3.08231 0
M  V30 3802 H 353.126 -1.00614 -3.52523 0
M  V30 3803 H 352.774 1.03862 -4.9216 0
M  V30 3804 H 352.474 -0.446259 -5.85903 0
M  V30 3805 H 353.998 0.457404 -6.08884 0
M  V30 3806 H 355.412 -1.72715 -5.46665 0
M  V30 3807 H 353.809 -2.5181 -5.44713 0
M  V30 3808 H 354.879 -2.67769 -4.04262 0
M  V30 3809 N 356.222 1.38976 -0.743202 0
M  V30 3810 C 357.468 2.01114 -0.304109 0
M  V30 3811 C 357.823 1.57929 1.09892 0
M  V30 3812 O 357.116 0.801983 1.74008 0
M  V30 3813 C 357.31 3.55647 -0.353517 0
M  V30 3814 C 357.139 4.13837 -1.75981 0
M  V30 3815 C 355.909 4.46062 -2.37395 0
M  V30 3816 C 358.107 4.36812 -2.71477 0
M  V30 3817 N 356.089 4.898 -3.70093 0
M  V30 3818 C 357.46 4.82844 -3.88923 0
M  V30 3819 C 359.515 4.18893 -2.69134 0
M  V30 3820 C 358.218 5.12837 -5.04371 0
M  V30 3821 C 360.244 4.50005 -3.83731 0
M  V30 3822 C 359.606 4.96251 -4.99914 0
M  V30 3823 H 355.705 0.765931 -0.157716 0
M  V30 3824 H 358.289 1.68763 -0.970931 0
M  V30 3825 H 356.46 3.87368 0.282987 0
M  V30 3826 H 358.192 4.04564 0.104904 0
M  V30 3827 H 354.947 4.34145 -1.89248 0
M  V30 3828 H 355.371 5.16016 -4.38242 0
M  V30 3829 H 360.013 3.82335 -1.80499 0
M  V30 3830 H 357.731 5.48297 -5.9363 0
M  V30 3831 H 361.317 4.37755 -3.83225 0
M  V30 3832 H 360.197 5.19867 -5.87118 0
M  V30 3833 N 357.7 0.491464 1.49741 0
M  V30 3834 C 358.63 -0.28154 2.31796 0
M  V30 3835 C 359.611 -0.971473 1.3963 0
M  V30 3836 O 360.796 -0.964719 1.68543 0
M  V30 3837 C 357.926 -1.35203 3.19902 0
M  V30 3838 C 356.88 -0.782529 4.20786 0
M  V30 3839 C 356.206 -1.95283 4.97764 0
M  V30 3840 C 357.506 0.21999 5.21837 0
M  V30 3841 H 359.2 0.403355 2.96671 0
M  V30 3842 H 356.746 0.195425 1.42668 0
M  V30 3843 H 358.699 -1.90045 3.76113 0
M  V30 3844 H 357.423 -2.06598 2.52953 0
M  V30 3845 H 356.082 -0.255928 3.65706 0
M  V30 3846 H 355.73 -2.65423 4.2727 0
M  V30 3847 H 355.43 -1.57789 5.66018 0
M  V30 3848 H 356.954 -2.50577 5.56816 0
M  V30 3849 H 358.368 -0.23996 5.72798 0
M  V30 3850 H 356.765 0.51026 5.97927 0
M  V30 3851 H 357.835 1.13911 4.7133 0
M  V30 3852 N 359.178 -1.55987 0.224894 0
M  V30 3853 C 360.427 -1.97566 -0.406273 0
M  V30 3854 C 360.74 -1.11569 -1.6066 0
M  V30 3855 O 361.946 -1.43062 -2.3075 0
M  V30 3856 C 360.402 -3.51474 -0.774207 0
M  V30 3857 C 360.01 -4.46179 0.403496 0
M  V30 3858 C 361.754 -4.01758 -1.37079 0
M  V30 3859 C 359.661 -5.91399 0.0129412 0
M  V30 3860 H 358.591 -0.737777 -0.155565 0
M  V30 3861 H 361.242 -1.80659 0.321635 0
M  V30 3862 H 359.624 -3.63994 -1.55963 0
M  V30 3863 H 360.798 -4.45409 1.18101 0
M  V30 3864 H 359.113 -4.06255 0.913536 0
M  V30 3865 H 361.71 -5.07756 -1.67596 0
M  V30 3866 H 362.053 -3.47805 -2.28773 0
M  V30 3867 H 362.586 -3.92475 -0.648733 0
M  V30 3868 H 359.325 -6.49341 0.896451 0
M  V30 3869 H 358.845 -5.95356 -0.728821 0
M  V30 3870 H 360.524 -6.45683 -0.412582 0
M  V30 3871 N 360.656 0.0484629 -1.57525 0
M  V30 3872 C 362.067 0.597486 -1.76881 0
M  V30 3873 C 362.418 1.76664 -0.853475 0
M  V30 3874 O 361.543 2.16357 -0.0433656 0
M  V30 3875 C 362.138 1.09066 -3.20765 0
M  V30 3876 C 360.697 1.58535 -3.41385 0
M  V30 3877 C 359.844 0.514868 -2.72478 0
M  V30 3878 H 362.795 -0.177758 -1.57701 0
M  V30 3879 H 362.816 1.95875 -3.2621 0
M  V30 3880 H 362.328 0.239521 -3.8736 0
M  V30 3881 H 360.429 2.45898 -2.79937 0
M  V30 3882 H 360.542 1.64622 -4.49929 0
M  V30 3883 H 358.906 0.965407 -2.35695 0
M  V30 3884 H 359.689 -0.32648 -3.41744 0
M  V30 3885 N 362.134 1.5431 0.320358 0
M  V30 3886 C 363.383 1.7188 1.05546 0
M  V30 3887 C 363.696 0.501143 1.89071 0
M  V30 3888 O 364.902 0.558258 2.65699 0
M  V30 3889 C 363.358 3.04025 1.92605 0
M  V30 3890 C 362.966 4.33207 1.14176 0
M  V30 3891 C 364.71 3.30959 2.65832 0
M  V30 3892 C 362.617 5.56412 2.00399 0
M  V30 3893 H 361.547 0.640547 0.397763 0
M  V30 3894 H 364.198 1.80802 0.313522 0
M  V30 3895 H 362.58 2.89019 2.7071 0
M  V30 3896 H 363.754 4.58989 0.40819 0
M  V30 3897 H 362.069 4.13062 0.526165 0
M  V30 3898 H 364.666 4.20203 3.30656 0
M  V30 3899 H 365.009 2.48979 3.33639 0
M  V30 3900 H 365.542 3.46847 1.94787 0
M  V30 3901 H 362.281 6.41004 1.37094 0
M  V30 3902 H 361.801 5.34844 2.7148 0
M  V30 3903 H 363.48 5.92938 2.58908 0
M  V30 3904 N 363.613 -0.582584 1.46437 0
M  V30 3905 C 364.841 -1.36682 1.55324 0
M  V30 3906 C 365.256 -1.87796 0.194409 0
M  V30 3907 O 364.613 -1.63623 -0.808318 0
M  V30 3908 C 364.664 -2.55426 2.55812 0
M  V30 3909 O 364.385 -2.0643 3.86417 0
M  V30 3910 C 365.886 -3.47976 2.74641 0
M  V30 3911 H 363.106 -0.417545 0.525259 0
M  V30 3912 H 365.65 -0.708219 1.91845 0
M  V30 3913 H 363.805 -3.17275 2.22295 0
M  V30 3914 H 364.219 -2.83762 4.41111 0
M  V30 3915 H 365.693 -4.27775 3.48874 0
M  V30 3916 H 366.17 -3.99919 1.81553 0
M  V30 3917 H 366.776 -2.91962 3.09255 0
M  V30 3918 N 365.091 -1.34144 -0.827227 0
M  V30 3919 C 366.338 -1.26258 -1.58319 0
M  V30 3920 C 366.666 0.168595 -1.93768 0
M  V30 3921 O 365.921 1.12877 -1.59866 0
M  V30 3922 C 366.22 -2.09464 -2.89585 0
M  V30 3923 C 365.886 -3.58521 -2.73448 0
M  V30 3924 C 364.548 -3.99155 -2.68754 0
M  V30 3925 C 366.9 -4.53189 -2.57428 0
M  V30 3926 C 364.228 -5.32656 -2.45957 0
M  V30 3927 C 366.58 -5.86864 -2.36163 0
M  V30 3928 C 365.244 -6.26667 -2.29879 0
M  V30 3929 H 364.514 -0.462013 -0.579332 0
M  V30 3930 H 367.161 -1.65845 -0.95748 0
M  V30 3931 H 365.466 -1.62692 -3.56425 0
M  V30 3932 H 367.163 -2.00712 -3.47154 0
M  V30 3933 H 363.753 -3.26264 -2.77939 0
M  V30 3934 H 367.937 -4.22696 -2.60081 0
M  V30 3935 H 363.193 -5.62519 -2.39546 0
M  V30 3936 H 367.367 -6.59813 -2.22754 0
M  V30 3937 H 364.994 -7.30049 -2.11975 0
M  V30 3938 N 366.569 1.04691 -1.17803 0
M  V30 3939 C 367.499 2.14494 -0.92275 0
M  V30 3940 C 368.48 1.69546 0.137179 0
M  V30 3941 O 369.665 1.94195 -0.0141108 0
M  V30 3942 C 366.795 3.44491 -0.440803 0
M  V30 3943 C 365.749 4.03031 -1.4405 0
M  V30 3944 C 365.075 5.28432 -0.81631 0
M  V30 3945 C 366.375 4.39932 -2.81527 0
M  V30 3946 H 368.069 2.36107 -1.84103 0
M  V30 3947 H 365.615 1.1347 -0.886599 0
M  V30 3948 H 367.568 4.2066 -0.249602 0
M  V30 3949 H 366.292 3.22546 0.513025 0
M  V30 3950 H 364.951 3.28937 -1.61853 0
M  V30 3951 H 364.599 5.02792 0.144511 0
M  V30 3952 H 364.299 5.68559 -1.48371 0
M  V30 3953 H 365.823 6.07284 -0.635496 0
M  V30 3954 H 367.237 5.07113 -2.67412 0
M  V30 3955 H 365.634 4.9109 -3.44892 0
M  V30 3956 H 366.704 3.50045 -3.35554 0
M  V30 3957 N 368.047 0.979072 1.23499 0
M  V30 3958 C 369.275 0.665202 1.95915 0
M  V30 3959 C 369.69 -0.767571 1.72493 0
M  V30 3960 O 369.047 -1.51635 1.01554 0
M  V30 3961 C 369.098 0.944438 3.48945 0
M  V30 3962 O 368.819 2.3209 3.71572 0
M  V30 3963 C 370.32 0.646336 4.38563 0
M  V30 3964 H 367.54 0.247218 0.623798 0
M  V30 3965 H 370.084 1.31009 1.57025 0
M  V30 3966 H 368.239 0.345575 3.85856 0
M  V30 3967 H 368.653 2.40957 4.65876 0
M  V30 3968 H 370.127 0.892091 5.44744 0
M  V30 3969 H 370.604 -0.419575 4.37191 0
M  V30 3970 H 371.21 1.22562 4.07258 0
M  V30 3971 N 369.525 -1.3858 0.750561 0
M  V30 3972 C 370.774 -1.99424 0.302172 0
M  V30 3973 C 371.087 -1.60254 -1.12152 0
M  V30 3974 O 372.293 -2.14046 -1.67023 0
M  V30 3975 C 370.749 -3.56558 0.489307 0
M  V30 3976 C 370.357 -4.04682 1.92189 0
M  V30 3977 C 372.101 -4.24374 0.103478 0
M  V30 3978 C 370.008 -5.54446 2.05775 0
M  V30 3979 H 368.938 -0.746046 0.10923 0
M  V30 3980 H 371.589 -1.58383 0.92667 0
M  V30 3981 H 369.971 -3.95472 -0.204329 0
M  V30 3982 H 371.145 -3.77065 2.64875 0
M  V30 3983 H 369.46 -3.4958 2.26236 0
M  V30 3984 H 372.057 -5.34384 0.183787 0
M  V30 3985 H 372.4 -4.05468 -0.943481 0
M  V30 3986 H 372.933 -3.90688 0.748854 0
M  V30 3987 H 369.672 -5.78252 3.08714 0
M  V30 3988 H 369.192 -5.83816 1.37546 0
M  V30 3989 H 370.871 -6.20099 1.84626 0
M  V30 3990 N 371.003 -0.499398 -1.49478 0
M  V30 3991 C 372.251 0.0455996 -2.02049 0
M  V30 3992 C 372.572 1.37633 -1.38138 0
M  V30 3993 O 371.842 1.8842 -0.536166 0
M  V30 3994 H 370.422 0.0198416 -0.746736 0
M  V30 3995 H 373.084 -0.656274 -1.83519 0
M  V30 3996 H 372.18 0.176445 -3.11601 0
M  V30 3997 N 372.481 1.55866 -0.233164 0
M  V30 3998 C 373.711 2.02704 0.399325 0
M  V30 3999 C 374.119 1.11204 1.53069 0
M  V30 4000 O 373.462 0.116182 1.83332 0
M  V30 4001 C 373.524 3.45844 0.981429 0
M  V30 4002 C 373.188 4.56997 -0.0159561 0
M  V30 4003 C 374.185 5.13384 -0.820552 0
M  V30 4004 C 371.87 5.0211 -0.138072 0
M  V30 4005 C 373.864 6.13365 -1.73386 0
M  V30 4006 C 371.551 6.01926 -1.0549 0
M  V30 4007 C 372.549 6.57431 -1.85132 0
M  V30 4008 O 372.237 7.55302 -2.75272 0
M  V30 4009 H 371.969 0.668459 0.100692 0
M  V30 4010 H 374.523 2.02387 -0.35052 0
M  V30 4011 H 372.753 3.43267 1.78058 0
M  V30 4012 H 374.442 3.76262 1.52255 0
M  V30 4013 H 375.208 4.79372 -0.736721 0
M  V30 4014 H 371.087 4.5858 0.471737 0
M  V30 4015 H 374.631 6.56614 -2.35592 0
M  V30 4016 H 370.528 6.35359 -1.1397 0
M  V30 4017 H 371.296 7.72867 -2.69477 0
M  V30 4018 N 373.959 -0.0401083 1.57549 0
M  V30 4019 C 375.207 -0.731677 1.8839 0
M  V30 4020 C 375.528 -1.76481 0.829425 0
M  V30 4021 O 374.798 -1.95411 -0.1383 0
M  V30 4022 H 373.378 -0.273225 0.695239 0
M  V30 4023 H 376.04 -0.00867725 1.94898 0
M  V30 4024 H 375.136 -1.22816 2.86919 0
M  V30 4025 N 375.437 -1.54477 -0.31217 0
M  V30 4026 C 376.714 -1.63891 -1.06767 0
M  V30 4027 C 377.094 -0.480028 -2.0557 0
M  V30 4028 O 376.442 0.524487 -2.22399 0
M  V30 4029 C 376.652 -3.01402 -1.75948 0
M  V30 4030 C 378 -3.57838 -2.28554 0
M  V30 4031 O 379.024 -3.03782 -1.85998 0
M  V30 4032 O 377.883 -4.52462 -3.06497 0
M  V30 4033 H 374.977 -0.664125 -0.492816 0
M  V30 4034 H 377.523 -1.66823 -0.311149 0
M  V30 4035 H 376.295 -3.77187 -1.04144 0
M  V30 4036 H 375.918 -3.02199 -2.58383 0
M  V30 4037 N 376.915 0.57481 -1.46744 0
M  V30 4038 C 378.161 1.3347 -1.52688 0
M  V30 4039 C 378.494 1.93353 -0.181229 0
M  V30 4040 O 377.769 1.76912 0.808237 0
M  V30 4041 C 378.052 2.45811 -2.63152 0
M  V30 4042 C 377.905 1.90912 -4.07275 0
M  V30 4043 C 379.224 3.47822 -2.69644 0
M  V30 4044 H 376.343 0.483935 -0.555856 0
M  V30 4045 H 378.985 0.644968 -1.78718 0
M  V30 4046 H 377.135 3.04646 -2.41088 0
M  V30 4047 H 378.807 1.36473 -4.4065 0
M  V30 4048 H 377.05 1.21691 -4.16382 0
M  V30 4049 H 377.721 2.72042 -4.80309 0
M  V30 4050 H 380.197 2.9888 -2.895 0
M  V30 4051 H 379.073 4.23876 -3.48742 0
M  V30 4052 H 379.334 4.05555 -1.76005 0
M  V30 4053 N 378.394 1.34581 0.820102 0
M  V30 4054 C 379.64 1.27285 1.57881 0
M  V30 4055 C 379.973 -0.156137 1.93571 0
M  V30 4056 O 379.248 -1.10222 1.60254 0
M  V30 4057 C 379.531 2.16639 2.87645 0
M  V30 4058 C 379.384 3.68088 2.58517 0
M  V30 4059 C 380.703 2.05378 3.8924 0
M  V30 4060 H 377.822 0.463714 0.572833 0
M  V30 4061 H 380.464 1.64859 0.944539 0
M  V30 4062 H 378.614 1.84725 3.41773 0
M  V30 4063 H 380.286 4.10382 2.10676 0
M  V30 4064 H 378.529 3.89038 1.91917 0
M  V30 4065 H 379.2 4.2598 3.51063 0
M  V30 4066 H 381.676 2.33404 3.44473 0
M  V30 4067 H 380.552 2.7012 4.77835 0
M  V30 4068 H 380.813 1.0316 4.29896 0
M  V30 4069 N 379.872 -1.04064 1.18357 0
M  V30 4070 C 381.283 -1.58719 0.98312 0
M  V30 4071 C 381.634 -1.90556 -0.467193 0
M  V30 4072 O 380.759 -1.69561 -1.34454 0
M  V30 4073 C 381.354 -2.88379 1.77828 0
M  V30 4074 C 379.913 -3.3965 1.62218 0
M  V30 4075 C 379.06 -2.13235 1.77274 0
M  V30 4076 H 382.011 -0.867359 1.32901 0
M  V30 4077 H 382.032 -3.58773 1.26737 0
M  V30 4078 H 381.544 -2.65176 2.83379 0
M  V30 4079 H 379.645 -3.67866 0.592036 0
M  V30 4080 H 379.758 -4.13475 2.42023 0
M  V30 4081 H 378.122 -2.24542 1.20221 0
M  V30 4082 H 378.905 -1.92487 2.8426 0
M  V30 4083 N 381.35 -0.985608 -1.22978 0
M  V30 4084 C 382.598 -0.656087 -1.91154 0
M  V30 4085 C 382.919 0.813561 -1.77218 0
M  V30 4086 O 382.189 1.58244 -1.1548 0
M  V30 4087 H 380.769 -0.239674 -0.707506 0
M  V30 4088 H 383.431 -1.25054 -1.49491 0
M  V30 4089 H 382.527 -0.912253 -2.9847 0
M  V30 4090 N 382.828 1.3818 -0.7579 0
M  V30 4091 C 384.056 2.04301 -0.326937 0
M  V30 4092 C 384.471 1.57163 1.0462 0
M  V30 4093 O 383.828 0.746626 1.66529 0
M  V30 4094 C 383.879 3.59846 -0.345363 0
M  V30 4095 O 383.6 4.05256 -1.66432 0
M  V30 4096 C 385.101 4.4319 0.098927 0
M  V30 4097 H 382.321 0.656443 -0.139012 0
M  V30 4098 H 384.865 1.76786 -1.02796 0
M  V30 4099 H 383.02 3.86182 0.306955 0
M  V30 4100 H 383.434 4.99709 -1.59345 0
M  V30 4101 H 384.908 5.51989 0.0348745 0
M  V30 4102 H 385.385 4.23947 1.14741 0
M  V30 4103 H 385.991 4.22051 -0.52468 0
M  V30 4104 N 384.306 0.507319 1.49211 0
M  V30 4105 C 385.239 -0.314509 2.26022 0
M  V30 4106 C 386.217 -0.964849 1.30879 0
M  V30 4107 O 387.401 -0.993707 1.6018 0
M  V30 4108 C 384.528 -1.44346 3.06402 0
M  V30 4109 C 383.574 -0.90685 4.16748 0
M  V30 4110 S 384.407 0.207392 5.35098 0
M  V30 4111 C 385.563 -0.924573 6.19033 0
M  V30 4112 H 385.796 0.337416 2.95379 0
M  V30 4113 H 383.329 0.292718 1.516 0
M  V30 4114 H 385.287 -2.09029 3.53295 0
M  V30 4115 H 383.948 -2.06702 2.36502 0
M  V30 4116 H 383.141 -1.75309 4.72528 0
M  V30 4117 H 382.743 -0.33712 3.72478 0
M  V30 4118 H 385.035 -1.82839 6.52362 0
M  V30 4119 H 385.978 -0.405248 7.06939 0
M  V30 4120 H 386.386 -1.19476 5.51712 0
M  V30 4121 N 385.784 -1.5574 0.241426 0
M  V30 4122 C 387.03 -1.99846 -0.378555 0
M  V30 4123 C 387.385 -1.12665 -1.55963 0
M  V30 4124 O 386.678 -0.180966 -1.90743 0
M  V30 4125 C 386.872 -3.47308 -0.843317 0
M  V30 4126 C 386.701 -4.48756 0.291178 0
M  V30 4127 C 385.471 -4.9949 0.764077 0
M  V30 4128 C 387.669 -5.02039 1.11631 0
M  V30 4129 N 385.651 -5.84676 1.87156 0
M  V30 4130 C 387.022 -5.84343 2.07226 0
M  V30 4131 C 389.077 -4.84354 1.15349 0
M  V30 4132 C 387.78 -6.50851 3.06245 0
M  V30 4133 C 389.806 -5.51636 2.13195 0
M  V30 4134 C 389.168 -6.33724 3.07528 0
M  V30 4135 H 385.267 -0.774968 -0.104634 0
M  V30 4136 H 387.851 -1.91385 0.357751 0
M  V30 4137 H 386.022 -3.56178 -1.54893 0
M  V30 4138 H 387.754 -3.78299 -1.43779 0
M  V30 4139 H 384.509 -4.72311 0.349175 0
M  V30 4140 H 384.933 -6.31967 2.42789 0
M  V30 4141 H 389.575 -4.20525 0.438057 0
M  V30 4142 H 387.293 -7.1385 3.78739 0
M  V30 4143 H 390.879 -5.39909 2.16771 0
M  V30 4144 H 389.759 -6.84867 3.82003 0
M  V30 4145 N 387.262 0.0317525 -1.57568 0
M  V30 4146 C 388.51 0.721676 -1.88776 0
M  V30 4147 C 388.831 1.76039 -0.838772 0
M  V30 4148 O 388.101 1.95482 0.127935 0
M  V30 4149 H 386.681 0.269534 -0.696678 0
M  V30 4150 H 389.343 -0.00165879 -1.949 0
M  V30 4151 H 388.439 1.21293 -2.87566 0
M  V30 4152 N 388.74 1.54641 0.303973 0
M  V30 4153 C 389.687 1.85386 1.37479 0
M  V30 4154 C 390.657 0.702528 1.50512 0
M  V30 4155 O 391.842 0.950867 1.65418 0
M  V30 4156 C 388.982 2.10413 2.73533 0
M  V30 4157 C 388.095 3.38049 2.68974 0
M  V30 4158 C 387.23 3.52934 3.97002 0
M  V30 4159 C 386.269 4.74373 3.86829 0
M  V30 4160 N 385.406 4.8608 5.06627 0
M  V30 4161 H 390.246 2.76732 1.1056 0
M  V30 4162 H 387.783 1.37034 0.534805 0
M  V30 4163 H 389.741 2.22919 3.52652 0
M  V30 4164 H 388.371 1.22338 2.98719 0
M  V30 4165 H 387.423 3.3418 1.81736 0
M  V30 4166 H 388.735 4.27288 2.57346 0
M  V30 4167 H 387.889 3.65088 4.84557 0
M  V30 4168 H 386.628 2.61824 4.1146 0
M  V30 4169 H 385.633 4.62255 2.97658 0
M  V30 4170 H 386.858 5.66888 3.73918 0
M  V30 4171 H 384.804 3.97891 5.21554 0
M  V30 4172 H 384.721 5.69315 4.9741 0
M  V30 4173 H 385.989 5.02587 5.95841 0
M  V30 4174 N 390.218 -0.567019 1.47046 0
M  V30 4175 C 391.467 -1.32091 1.5243 0
M  V30 4176 C 391.78 -1.94704 0.187021 0
M  V30 4177 O 392.986 -2.7124 0.118771 0
M  V30 4178 C 391.442 -2.39479 2.68659 0
M  V30 4179 C 391.05 -1.831 4.08874 0
M  V30 4180 C 392.794 -3.16111 2.83327 0
M  V30 4181 C 390.701 -2.8821 5.16419 0
M  V30 4182 H 389.631 -0.496629 0.56734 0
M  V30 4183 H 392.282 -0.603354 1.73297 0
M  V30 4184 H 390.664 -3.14105 2.41152 0
M  V30 4185 H 391.838 -1.14913 4.46242 0
M  V30 4186 H 390.153 -1.19085 3.99008 0
M  V30 4187 H 392.75 -3.94585 3.60842 0
M  V30 4188 H 393.093 -3.69686 1.91411 0
M  V30 4189 H 393.626 -2.48595 3.10556 0
M  V30 4190 H 390.365 -2.39504 6.10179 0
M  V30 4191 H 389.885 -3.54839 4.8358 0
M  V30 4192 H 391.564 -3.51881 5.42945 0
M  V30 4193 N 391.696 -1.35014 -0.812953 0
M  V30 4194 C 392.942 -1.2812 -1.57204 0
M  V30 4195 C 393.275 0.145869 -1.93651 0
M  V30 4196 O 392.55 1.0937 -1.60836 0
M  V30 4197 C 392.833 -2.18162 -2.86492 0
M  V30 4198 C 392.686 -3.69454 -2.56561 0
M  V30 4199 C 394.005 -2.07439 -3.88145 0
M  V30 4200 H 391.124 -0.466746 -0.570366 0
M  V30 4201 H 393.766 -1.65357 -0.935783 0
M  V30 4202 H 391.916 -1.86535 -3.40789 0
M  V30 4203 H 393.588 -4.11493 -2.08497 0
M  V30 4204 H 391.831 -3.9005 -1.89851 0
M  V30 4205 H 392.502 -4.27835 -3.48799 0
M  V30 4206 H 394.978 -2.35228 -3.4323 0
M  V30 4207 H 393.854 -2.7265 -4.76396 0
M  V30 4208 H 394.115 -1.05439 -4.29343 0
M  V30 4209 N 393.175 1.03435 -1.18907 0
M  V30 4210 C 394.415 1.78302 -0.999391 0
M  V30 4211 C 394.779 1.86353 0.462219 0
M  V30 4212 O 395.98 2.57489 0.771543 0
M  V30 4213 C 394.251 3.17362 -1.64365 0
M  V30 4214 S 395.81 4.08488 -1.6026 0
M  V30 4215 H 392.628 0.613861 -0.358742 0
M  V30 4216 H 395.23 1.23979 -1.51161 0
M  V30 4217 H 393.934 3.09116 -2.69955 0
M  V30 4218 H 393.465 3.76762 -1.13199 0
M  V30 4219 H 395.48 4.92274 -0.622932 0
M  V30 4220 N 394.653 0.992116 1.22453 0
M  V30 4221 C 395.583 0.561677 2.26644 0
M  V30 4222 C 396.564 -0.411055 1.65059 0
M  V30 4223 O 397.749 -0.301861 1.9184 0
M  V30 4224 C 394.879 -0.125247 3.47074 0
M  V30 4225 C 393.833 0.765948 4.21091 0
M  V30 4226 C 393.159 -0.0538484 5.34673 0
M  V30 4227 C 394.459 2.06242 4.79856 0
M  V30 4228 H 396.153 1.43259 2.62902 0
M  V30 4229 H 393.699 0.690283 1.26377 0
M  V30 4230 H 395.652 -0.437764 4.1912 0
M  V30 4231 H 394.376 -1.03069 3.0991 0
M  V30 4232 H 393.035 1.0621 3.50878 0
M  V30 4233 H 392.683 -0.960188 4.9375 0
M  V30 4234 H 392.383 0.539415 5.85119 0
M  V30 4235 H 393.907 -0.360477 6.09535 0
M  V30 4236 H 395.321 1.8139 5.43848 0
M  V30 4237 H 393.718 2.60444 5.40638 0
M  V30 4238 H 394.788 2.74167 3.99951 0
M  V30 4239 N 396.131 -1.37776 0.765217 0
M  V30 4240 C 397.371 -2.01691 0.331669 0
M  V30 4241 C 397.735 -1.59432 -1.06983 0
M  V30 4242 O 398.936 -2.15761 -1.60314 0
M  V30 4243 C 397.207 -3.54385 0.463261 0
M  V30 4244 S 398.766 -4.38652 0.114011 0
M  V30 4245 H 395.584 -0.699387 0.127979 0
M  V30 4246 H 398.186 -1.68084 0.998396 0
M  V30 4247 H 396.89 -3.82629 1.48401 0
M  V30 4248 H 396.421 -3.92783 -0.220246 0
M  V30 4249 H 398.436 -4.84021 -1.09261 0
M  V30 4250 N 397.609 -0.515225 -1.4894 0
M  V30 4251 C 398.837 0.0206034 -2.0689 0
M  V30 4252 C 399.252 1.29514 -1.37374 0
M  V30 4253 O 398.609 1.76698 -0.456529 0
M  V30 4254 C 398.66 0.26351 -3.60538 0
M  V30 4255 O 398.381 -0.960517 -4.27441 0
M  V30 4256 C 399.882 0.841383 -4.35242 0
M  V30 4257 H 397.102 -0.0268608 -0.670462 0
M  V30 4258 H 399.646 -0.716651 -1.91532 0
M  V30 4259 H 397.801 0.950777 -3.75552 0
M  V30 4260 H 398.215 -0.73212 -5.19365 0
M  V30 4261 H 399.689 0.96085 -5.43573 0
M  V30 4262 H 400.166 1.8427 -3.98674 0
M  V30 4263 H 400.772 0.191143 -4.2487 0
M  V30 4264 N 399.087 1.5561 -0.249682 0
M  V30 4265 C 400.335 1.98618 0.373548 0
M  V30 4266 C 400.656 1.13919 1.58264 0
M  V30 4267 O 399.926 0.222637 1.94631 0
M  V30 4268 H 398.506 0.733571 0.141006 0
M  V30 4269 H 401.168 1.91748 -0.349117 0
M  V30 4270 H 400.264 3.04584 0.680796 0
M  V30 4271 N 400.565 -0.0233959 1.57583 0
M  V30 4272 C 401.811 -0.714119 1.89811 0
M  V30 4273 C 402.144 -1.74702 0.848113 0
M  V30 4274 O 401.419 -1.94023 -0.136135 0
M  V30 4275 C 401.702 -1.37853 3.32669 0
M  V30 4276 C 401.555 -0.358764 4.48367 0
M  V30 4277 C 402.874 -2.31101 3.7454 0
M  V30 4278 H 399.993 -0.25814 0.690314 0
M  V30 4279 H 402.635 0.0230927 1.89986 0
M  V30 4280 H 400.785 -2.00689 3.3265 0
M  V30 4281 H 402.457 0.268115 4.6052 0
M  V30 4282 H 400.7 0.321387 4.32608 0
M  V30 4283 H 401.371 -0.862242 5.45224 0
M  V30 4284 H 403.847 -1.78304 3.75961 0
M  V30 4285 H 402.723 -2.74567 4.75294 0
M  V30 4286 H 402.984 -3.18018 3.0711 0
M  V30 4287 N 402.043 -1.548 -0.295768 0
M  V30 4288 C 402.976 -1.81003 -1.38972 0
M  V30 4289 C 403.954 -0.661544 -1.48534 0
M  V30 4290 O 405.138 -0.902074 -1.65514 0
M  V30 4291 C 402.265 -1.95141 -2.76835 0
M  V30 4292 C 401.311 -3.17592 -2.84671 0
M  V30 4293 S 402.144 -4.75531 -2.46232 0
M  V30 4294 C 403.3 -4.92613 -3.86114 0
M  V30 4295 H 403.533 -2.73507 -1.16537 0
M  V30 4296 H 401.066 -1.46278 -0.494168 0
M  V30 4297 H 403.024 -2.03972 -3.56238 0
M  V30 4298 H 401.685 -1.03565 -2.96535 0
M  V30 4299 H 400.878 -3.24303 -3.85803 0
M  V30 4300 H 400.48 -3.07235 -2.13267 0
M  V30 4301 H 402.772 -4.76957 -4.81164 0
M  V30 4302 H 403.715 -5.94698 -3.8437 0
M  V30 4303 H 404.123 -4.2073 -3.76359 0
M  V30 4304 N 403.521 0.559213 -1.47345 0
M  V30 4305 C 404.769 1.31388 -1.53563 0
M  V30 4306 C 405.09 1.93985 -0.198678 0
M  V30 4307 O 404.36 1.79825 0.777167 0
M  V30 4308 H 402.94 0.487901 -0.565652 0
M  V30 4309 H 405.602 0.65315 -1.8363 0
M  V30 4310 H 404.698 2.10844 -2.30111 0
M  V30 4311 N 404.999 1.35443 0.805782 0
M  V30 4312 C 406.245 1.28952 1.56522 0
M  V30 4313 C 406.578 -0.135597 1.93726 0
M  V30 4314 O 405.853 -1.08516 1.61414 0
M  V30 4315 C 406.136 2.19678 2.85331 0
M  V30 4316 C 405.989 3.7081 2.54598 0
M  V30 4317 C 407.308 2.09495 3.8704 0
M  V30 4318 H 404.427 0.469764 0.567883 0
M  V30 4319 H 407.069 1.65851 0.927001 0
M  V30 4320 H 405.219 1.8834 3.39795 0
M  V30 4321 H 406.891 4.12593 2.06312 0
M  V30 4322 H 405.134 3.91051 1.8778 0
M  V30 4323 H 405.805 4.29679 3.46525 0
M  V30 4324 H 408.281 2.37045 3.41978 0
M  V30 4325 H 407.157 2.75173 4.74943 0
M  V30 4326 H 407.418 1.07714 4.28777 0
M  V30 4327 N 406.477 -1.02803 1.19454 0
M  V30 4328 C 407.717 -1.77769 1.00883 0
M  V30 4329 C 408.081 -1.86596 -0.45233 0
M  V30 4330 O 409.282 -2.57895 -0.757877 0
M  V30 4331 C 407.553 -3.16486 1.66046 0
M  V30 4332 S 409.112 -4.07632 1.62424 0
M  V30 4333 H 405.93 -0.611949 0.361993 0
M  V30 4334 H 408.532 -1.23175 1.51816 0
M  V30 4335 H 407.236 -3.0768 2.7159 0
M  V30 4336 H 406.767 -3.76156 1.15196 0
M  V30 4337 H 408.782 -4.91937 0.64903 0
M  V30 4338 N 407.956 -0.998596 -1.21925 0
M  V30 4339 C 409.196 -0.685948 -1.92546 0
M  V30 4340 C 409.56 0.768441 -1.75952 0
M  V30 4341 O 410.761 1.19277 -2.40887 0
M  V30 4342 C 409.032 -1.08767 -3.40448 0
M  V30 4343 S 410.591 -0.894251 -4.29591 0
M  V30 4344 H 407.409 -0.250622 -0.665364 0
M  V30 4345 H 410.011 -1.28207 -1.47591 0
M  V30 4346 H 408.715 -2.14242 -3.50041 0
M  V30 4347 H 408.246 -0.48357 -3.90417 0
M  V30 4348 H 410.261 0.212149 -4.95746 0
M  V30 4349 N 409.434 1.37368 -0.772513 0
M  V30 4350 C 410.662 2.03942 -0.348588 0
M  V30 4351 C 411.077 1.58264 1.02947 0
M  V30 4352 O 410.434 0.764246 1.65727 0
M  V30 4353 C 410.485 3.5946 -0.38351 0
M  V30 4354 O 410.206 4.03468 -1.70721 0
M  V30 4355 C 411.707 4.4327 0.0519152 0
M  V30 4356 H 408.927 0.654931 -0.145966 0
M  V30 4357 H 411.471 1.75686 -1.04665 0
M  V30 4358 H 409.626 3.86486 0.265978 0
M  V30 4359 H 410.04 4.97991 -1.64636 0
M  V30 4360 H 411.514 5.51995 -0.0236733 0
M  V30 4361 H 411.991 4.2514 1.10238 0
M  V30 4362 H 412.597 4.21471 -0.569415 0
M  V30 4363 N 410.912 0.523116 1.48665 0
M  V30 4364 C 411.875 -0.232592 2.28017 0
M  V30 4365 C 412.875 -0.874021 1.34972 0
M  V30 4366 O 414.065 -0.735132 1.57929 0
M  V30 4367 C 411.197 -1.33586 3.13636 0
M  V30 4368 H 412.39 0.464008 2.96289 0
M  V30 4369 H 409.943 0.278816 1.53793 0
M  V30 4370 H 410.678 -2.06593 2.4998 0
M  V30 4371 H 410.463 -0.881125 3.82071 0
M  V30 4372 H 411.953 -1.86759 3.73511 0
M  V30 4373 N 412.39 -1.55475 0.257931 0
M  V30 4374 C 413.32 -2.24815 -0.630912 0
M  V30 4375 C 414.301 -1.23224 -1.17259 0
M  V30 4376 O 415.486 -1.51904 -1.20991 0
M  V30 4377 C 412.616 -2.95609 -1.82298 0
M  V30 4378 C 411.57 -4.03982 -1.41359 0
M  V30 4379 C 410.896 -4.6226 -2.68738 0
M  V30 4380 C 412.196 -5.19109 -0.57648 0
M  V30 4381 H 413.89 -2.99354 -0.0526878 0
M  V30 4382 H 411.436 -1.4398 -0.023901 0
M  V30 4383 H 413.389 -3.42822 -2.45054 0
M  V30 4384 H 412.113 -2.18577 -2.42676 0
M  V30 4385 H 410.772 -3.57555 -0.809324 0
M  V30 4386 H 410.42 -3.81915 -3.27338 0
M  V30 4387 H 410.12 -5.35424 -2.42065 0
M  V30 4388 H 411.644 -5.12212 -3.32372 0
M  V30 4389 H 413.058 -5.62479 -1.10861 0
M  V30 4390 H 411.455 -5.98729 -0.405351 0
M  V30 4391 H 412.525 -4.83174 0.408776 0
M  V30 4392 N 413.868 0.0150385 -1.57593 0
M  V30 4393 C 414.798 1.01047 -2.10503 0
M  V30 4394 C 415.779 1.36816 -1.01071 0
M  V30 4395 O 416.964 1.45455 -1.28672 0
M  V30 4396 C 414.094 2.30708 -2.59598 0
M  V30 4397 C 413.048 2.09142 -3.73421 0
M  V30 4398 C 412.374 3.44685 -4.08774 0
M  V30 4399 C 413.674 1.46619 -5.01298 0
M  V30 4400 H 415.368 0.569978 -2.93925 0
M  V30 4401 H 412.914 0.272724 -1.41394 0
M  V30 4402 H 414.867 3.00687 -2.95238 0
M  V30 4403 H 413.591 2.76843 -1.73279 0
M  V30 4404 H 412.25 1.41592 -3.38153 0
M  V30 4405 H 411.898 3.88495 -3.195 0
M  V30 4406 H 411.598 3.31077 -4.8545 0
M  V30 4407 H 413.122 4.16004 -4.4696 0
M  V30 4408 H 414.536 2.06535 -5.34805 0
M  V30 4409 H 412.933 1.43544 -5.82679 0
M  V30 4410 H 414.003 0.433611 -4.82957 0
M  V30 4411 N 415.346 1.54954 0.287554 0
M  V30 4412 C 416.592 1.75132 1.02257 0
M  V30 4413 C 416.925 0.542858 1.86458 0
M  V30 4414 O 416.2 -0.459856 1.88986 0
M  V30 4415 C 416.483 3.04812 1.91733 0
M  V30 4416 C 416.336 4.35985 1.10622 0
M  V30 4417 C 417.655 3.30438 2.90687 0
M  V30 4418 H 414.774 0.637194 0.370341 0
M  V30 4419 H 417.416 1.87678 0.296111 0
M  V30 4420 H 415.566 2.94247 2.53675 0
M  V30 4421 H 417.238 4.58487 0.508636 0
M  V30 4422 H 415.481 4.31865 0.409271 0
M  V30 4423 H 416.152 5.23017 1.76513 0
M  V30 4424 H 418.628 3.40701 2.38877 0
M  V30 4425 H 417.504 4.22467 3.50447 0
M  V30 4426 H 417.765 2.49377 3.65053 0
M  V30 4427 N 416.824 -0.551391 1.4764 0
M  V30 4428 C 417.787 -1.64007 1.60107 0
M  V30 4429 C 418.787 -1.53601 0.47576 0
M  V30 4430 O 419.977 -1.57655 0.740988 0
M  V30 4431 C 417.109 -3.03569 1.55108 0
M  V30 4432 H 418.302 -1.543 2.57161 0
M  V30 4433 H 415.855 -0.771776 1.35917 0
M  V30 4434 H 416.59 -3.18804 0.594519 0
M  V30 4435 H 416.375 -3.12532 2.36783 0
M  V30 4436 H 417.865 -3.82762 1.66982 0
M  V30 4437 N 418.302 -1.35869 -0.798587 0
M  V30 4438 C 419.548 -1.2978 -1.55836 0
M  V30 4439 C 419.881 0.125322 -1.93795 0
M  V30 4440 O 419.156 1.07658 -1.61987 0
M  V30 4441 C 419.439 -2.21188 -2.84162 0
M  V30 4442 C 419.292 -3.72155 -2.52628 0
M  V30 4443 C 420.611 -2.11545 -3.85923 0
M  V30 4444 H 417.73 -0.472769 -0.565383 0
M  V30 4445 H 420.372 -1.66341 -0.918192 0
M  V30 4446 H 418.522 -1.90139 -3.38791 0
M  V30 4447 H 420.194 -4.13682 -2.04121 0
M  V30 4448 H 418.437 -3.92042 -1.85704 0
M  V30 4449 H 419.108 -4.31511 -3.44242 0
M  V30 4450 H 421.584 -2.38855 -3.40716 0
M  V30 4451 H 420.46 -2.77688 -4.73477 0
M  V30 4452 H 420.721 -1.09987 -4.282 0
M  V30 4453 N 419.78 1.02168 -1.19998 0
M  V30 4454 C 421.026 1.75945 -1.00852 0
M  V30 4455 C 421.359 1.88702 0.458828 0
M  V30 4456 O 420.634 1.40911 1.34069 0
M  V30 4457 C 420.917 3.18154 -1.68671 0
M  V30 4458 C 420.77 3.13224 -3.22817 0
M  V30 4459 C 422.089 4.16711 -1.41561 0
M  V30 4460 H 419.208 0.638673 -0.367785 0
M  V30 4461 H 421.85 1.19222 -1.4794 0
M  V30 4462 H 420 3.66586 -1.28636 0
M  V30 4463 H 421.672 2.72635 -3.72112 0
M  V30 4464 H 419.915 2.50751 -3.53986 0
M  V30 4465 H 420.586 4.13728 -3.65422 0
M  V30 4466 H 423.062 3.76913 -1.76284 0
M  V30 4467 H 421.938 5.14391 -1.91553 0
M  V30 4468 H 422.199 4.40774 -0.342193 0
M  V30 4469 N 421.258 1.00505 1.21394 0
M  V30 4470 C 422.221 0.570459 2.21987 0
M  V30 4471 C 423.221 -0.353211 1.56873 0
M  V30 4472 O 424.411 -0.14349 1.73608 0
M  V30 4473 C 421.543 -0.168555 3.40483 0
M  V30 4474 H 422.736 1.46021 2.6195 0
M  V30 4475 H 420.289 0.793565 1.34656 0
M  V30 4476 H 421.024 -1.07374 3.06009 0
M  V30 4477 H 420.809 0.494823 3.88965 0
M  V30 4478 H 422.299 -0.460362 4.15055 0
M  V30 4479 N 422.737 -1.36956 0.779787 0
M  V30 4480 C 424.153 -1.52817 0.460342 0
M  V30 4481 C 424.353 -1.7361 -1.02283 0
M  V30 4482 O 423.409 -1.76207 -1.80852 0
M  V30 4483 C 424.722 -2.71983 1.28241 0
M  V30 4484 C 426.27 -2.85849 1.27512 0
M  V30 4485 C 426.745 -4.08008 2.08072 0
M  V30 4486 N 428.236 -4.15135 2.05467 0
M  V30 4487 C 428.971 -5.08711 2.64577 0
M  V30 4488 N 428.467 -6.07792 3.32506 0
M  V30 4489 N 430.26 -5.01254 2.54363 0
M  V30 4490 H 422.411 -1.21713 1.74068 0
M  V30 4491 H 424.674 -0.593294 0.739396 0
M  V30 4492 H 424.38 -2.63109 2.33381 0
M  V30 4493 H 424.254 -3.65882 0.917088 0
M  V30 4494 H 426.641 -2.94189 0.231686 0
M  V30 4495 H 426.722 -1.92886 1.68014 0
M  V30 4496 H 426.366 -4.00429 3.12441 0
M  V30 4497 H 426.296 -5.001 1.64947 0
M  V30 4498 H 428.787 -3.44189 1.5602 0
M  V30 4499 H 429.1 -6.75739 3.74963 0
M  V30 4500 H 427.445 -6.08047 3.36606 0
M  V30 4501 H 430.636 -4.22795 2.00902 0
M  V30 4502 H 430.809 -5.73995 3.00722 0
M  V30 4503 N 424.215 -0.530993 -1.48385 0
M  V30 4504 C 425.162 0.231223 -2.29639 0
M  V30 4505 C 426.132 0.932864 -1.37429 0
M  V30 4506 O 427.317 0.933692 -1.66394 0
M  V30 4507 C 424.457 1.27155 -3.2082 0
M  V30 4508 C 423.57 0.578655 -4.28107 0
M  V30 4509 C 422.705 1.602 -5.06467 0
M  V30 4510 C 421.744 0.892625 -6.05556 0
M  V30 4511 N 420.881 1.86157 -6.76971 0
M  V30 4512 H 425.721 -0.467848 -2.94305 0
M  V30 4513 H 423.258 -0.242556 -1.45086 0
M  V30 4514 H 425.216 1.88703 -3.72085 0
M  V30 4515 H 423.846 1.939 -2.58075 0
M  V30 4516 H 422.898 -0.150782 -3.80101 0
M  V30 4517 H 424.21 0.0217065 -4.98795 0
M  V30 4518 H 423.364 2.29173 -5.61751 0
M  V30 4519 H 422.103 2.19285 -4.35621 0
M  V30 4520 H 421.108 0.188829 -5.49476 0
M  V30 4521 H 422.333 0.307878 -6.78402 0
M  V30 4522 H 420.279 2.44147 -6.08875 0
M  V30 4523 H 420.196 1.35608 -7.43738 0
M  V30 4524 H 421.464 2.54325 -7.36844 0
M  V30 4525 N 425.693 1.55336 -0.266172 0
M  V30 4526 C 426.623 2.25146 0.618981 0
M  V30 4527 C 427.604 1.23845 1.16604 0
M  V30 4528 O 428.789 1.52544 1.20183 0
M  V30 4529 C 425.919 2.96572 1.80728 0
M  V30 4530 C 424.873 4.04726 1.39215 0
M  V30 4531 C 424.199 4.63678 2.66283 0
M  V30 4532 C 425.499 5.19407 0.548942 0
M  V30 4533 H 427.193 2.99377 0.0368116 0
M  V30 4534 H 424.739 1.43991 0.0162651 0
M  V30 4535 H 426.692 3.44116 2.43232 0
M  V30 4536 H 425.416 2.19861 2.41514 0
M  V30 4537 H 424.075 3.57979 0.790351 0
M  V30 4538 H 423.723 3.83646 3.25308 0
M  V30 4539 H 423.423 5.367 2.39222 0
M  V30 4540 H 424.947 5.13967 3.29651 0
M  V30 4541 H 426.361 5.63059 1.07876 0
M  V30 4542 H 424.758 5.98936 0.373593 0
M  V30 4543 H 425.828 4.8295 -0.434394 0
M  V30 4544 N 427.171 -0.0066808 1.57599 0
M  V30 4545 C 428.081 -1.01671 2.11424 0
M  V30 4546 C 429.097 -1.38143 1.05795 0
M  V30 4547 O 430.273 -1.47011 1.37658 0
M  V30 4548 C 427.338 -2.29192 2.60139 0
M  V30 4549 C 426.399 -1.99094 3.80342 0
M  V30 4550 C 425.632 -3.20535 4.26724 0
M  V30 4551 O 425.855 -4.3199 3.72479 0
M  V30 4552 O 424.789 -3.04924 5.18946 0
M  V30 4553 H 428.615 -0.589181 2.9793 0
M  V30 4554 H 426.2 -0.225091 1.47695 0
M  V30 4555 H 428.082 -3.0412 2.917 0
M  V30 4556 H 426.757 -2.71195 1.76733 0
M  V30 4557 H 425.664 -1.21663 3.53764 0
M  V30 4558 H 426.997 -1.61931 4.648 0
M  V30 4559 N 428.649 -1.55105 -0.279332 0
M  V30 4560 C 429.896 -1.75412 -1.01177 0
M  V30 4561 C 430.224 -0.551728 -1.86511 0
M  V30 4562 O 429.479 0.465919 -1.90073 0
M  V30 4563 C 429.778 -3.0086 -1.92919 0
M  V30 4564 C 429.444 -4.33689 -1.23387 0
M  V30 4565 C 428.106 -4.69792 -1.04159 0
M  V30 4566 C 430.458 -5.15941 -0.738562 0
M  V30 4567 C 427.786 -5.85707 -0.341166 0
M  V30 4568 C 430.138 -6.32579 -0.0517636 0
M  V30 4569 C 428.802 -6.67326 0.152292 0
M  V30 4570 H 428.072 -0.641879 -0.370233 0
M  V30 4571 H 430.719 -1.89373 -0.284627 0
M  V30 4572 H 429.024 -2.81773 -2.72234 0
M  V30 4573 H 430.721 -3.13768 -2.49701 0
M  V30 4574 H 427.311 -4.05309 -1.39364 0
M  V30 4575 H 431.495 -4.8853 -0.874764 0
M  V30 4576 H 426.751 -6.11157 -0.172287 0
M  V30 4577 H 430.925 -6.9557 0.339828 0
M  V30 4578 H 428.552 -7.56998 0.697014 0
M  V30 4579 N 430.127 0.543554 -1.4793 0
M  V30 4580 C 431.075 1.67039 -1.61866 0
M  V30 4581 C 432.069 1.62294 -0.48549 0
M  V30 4582 O 433.275 1.67315 -0.66376 0
M  V30 4583 H 429.65 0.552954 -0.509652 0
M  V30 4584 H 431.621 1.52426 -2.56533 0
M  V30 4585 C 430.37 3.05357 -1.6629 0
M  V30 4586 H 429.693 3.09696 -2.5284 0
M  V30 4587 H 431.133 3.83855 -1.80088 0
M  V30 4588 C 429.592 3.34531 -0.398861 0
M  V30 4589 O 430.122 3.98649 0.494162 0
M  V30 4590 N 428.328 2.89299 -0.2747 0
M  V30 4591 H 427.875 2.37298 -1.00236 0
M  V30 4592 H 427.833 3.09188 0.570075 0
M  V30 4593 N 431.605 1.3629 0.791371 0
M  V30 4594 C 432.552 1.30458 1.90393 0
M  V30 4595 C 433.522 0.173632 1.6519 0
M  V30 4596 O 434.707 0.35983 1.87376 0
M  V30 4597 C 431.847 1.09777 3.27174 0
M  V30 4598 C 430.96 2.31929 3.64462 0
M  V30 4599 C 430.095 2.04276 4.90352 0
M  V30 4600 C 429.134 3.224 5.20312 0
M  V30 4601 N 428.271 2.94424 6.37385 0
M  V30 4602 H 433.111 2.25589 1.94714 0
M  V30 4603 H 430.648 1.12122 0.952216 0
M  V30 4604 H 432.606 0.958133 4.06049 0
M  V30 4605 H 431.236 0.183014 3.22281 0
M  V30 4606 H 430.288 2.56703 2.80727 0
M  V30 4607 H 431.6 3.20085 3.82553 0
M  V30 4608 H 430.754 1.87231 5.77087 0
M  V30 4609 H 429.493 1.13428 4.74326 0
M  V30 4610 H 428.498 3.40005 4.32061 0
M  V30 4611 H 429.723 4.14071 5.38258 0
M  V30 4612 H 427.669 2.06185 6.22755 0
M  V30 4613 H 427.586 3.76118 6.55798 0
M  V30 4614 H 428.854 2.80953 7.27108 0
M  V30 4615 N 433.083 -1.0153 1.20538 0
M  V30 4616 C 434.046 -2.0826 0.957098 0
M  V30 4617 C 435.046 -1.60657 -0.0678655 0
M  V30 4618 O 436.236 -1.73385 0.168332 0
M  V30 4619 C 433.368 -3.38033 0.441188 0
M  V30 4620 H 434.561 -2.31719 1.90384 0
M  V30 4621 H 432.114 -1.1835 1.02093 0
M  V30 4622 H 432.849 -3.20249 -0.510961 0
M  V30 4623 H 432.634 -3.73911 1.18038 0
M  V30 4624 H 434.124 -4.16613 0.287009 0
M  V30 4625 N 434.561 -1.01147 -1.20859 0
M  V30 4626 C 435.471 -0.58686 -2.27141 0
M  V30 4627 C 436.487 0.373198 -1.69951 0
M  V30 4628 O 437.663 0.235423 -2.00019 0
M  V30 4629 C 434.728 0.0733602 -3.46622 0
M  V30 4630 C 433.789 -0.931995 -4.19061 0
M  V30 4631 C 433.022 -0.303186 -5.32838 0
M  V30 4632 O 433.245 0.898395 -5.63281 0
M  V30 4633 O 432.179 -1.01735 -5.9324 0
M  V30 4634 H 436.005 -1.47155 -2.65667 0
M  V30 4635 H 433.59 -0.780689 -1.2738 0
M  V30 4636 H 435.472 0.442333 -4.19072 0
M  V30 4637 H 434.147 0.932329 -3.09983 0
M  V30 4638 H 433.054 -1.35224 -3.48805 0
M  V30 4639 H 434.387 -1.76076 -4.59628 0
M  V30 4640 N 436.039 1.36541 -0.78704 0
M  V30 4641 C 436.986 2.30082 -0.181901 0
M  V30 4642 C 437.956 1.5186 0.672896 0
M  V30 4643 O 439.141 1.80374 0.622072 0
M  V30 4644 C 436.281 3.3835 0.679197 0
M  V30 4645 C 435.394 4.31565 -0.193882 0
M  V30 4646 C 434.529 5.26915 0.673364 0
M  V30 4647 C 433.568 6.11769 -0.201315 0
M  V30 4648 N 432.705 6.99315 0.624777 0
M  V30 4649 H 437.545 2.81248 -0.985064 0
M  V30 4650 H 435.082 1.38437 -0.497342 0
M  V30 4651 H 437.04 3.99767 1.19341 0
M  V30 4652 H 435.67 2.8851 1.44781 0
M  V30 4653 H 434.722 3.71323 -0.826044 0
M  V30 4654 H 436.034 4.91191 -0.867937 0
M  V30 4655 H 435.188 5.9361 1.25348 0
M  V30 4656 H 433.927 4.67737 1.38105 0
M  V30 4657 H 432.932 5.44039 -0.793849 0
M  V30 4658 H 434.157 6.73022 -0.906568 0
M  V30 4659 H 432.103 6.42648 1.3168 0
M  V30 4660 H 432.02 7.56 0.00835237 0
M  V30 4661 H 433.288 7.70382 1.18879 0
M  V30 4662 N 437.518 0.538854 1.48102 0
M  V30 4663 C 438.468 -0.23907 2.26743 0
M  V30 4664 C 439.452 -0.901923 1.33245 0
M  V30 4665 O 440.644 -0.803263 1.57723 0
M  V30 4666 C 437.773 -1.2799 3.18549 0
M  V30 4667 C 436.859 -0.621388 4.19523 0
M  V30 4668 N 437.25 0.298004 5.04921 0
M  V30 4669 C 435.548 -0.877533 4.37282 0
M  V30 4670 C 436.249 0.678757 5.77726 0
M  V30 4671 N 435.225 0.0377881 5.43587 0
M  V30 4672 H 439.027 0.468096 2.90148 0
M  V30 4673 H 436.541 0.357497 1.58416 0
M  V30 4674 H 438.538 -1.851 3.73555 0
M  V30 4675 H 437.198 -1.98835 2.567 0
M  V30 4676 H 438.209 0.671126 5.13533 0
M  V30 4677 H 434.886 -1.57588 3.86616 0
M  V30 4678 H 436.276 1.43316 6.56437 0
M  V30 4679 N 438.996 -1.55193 0.274407 0
M  V30 4680 C 440.242 -1.99877 -0.343086 0
M  V30 4681 C 440.575 -1.16256 -1.55558 0
M  V30 4682 O 439.85 -0.232462 -1.93106 0
M  V30 4683 C 440.133 -3.52706 -0.725965 0
M  V30 4684 C 439.986 -4.47081 0.493818 0
M  V30 4685 C 441.305 -4.11422 -1.56268 0
M  V30 4686 H 438.424 -0.726625 -0.123229 0
M  V30 4687 H 441.066 -1.86136 0.38121 0
M  V30 4688 H 439.216 -3.64546 -1.34307 0
M  V30 4689 H 440.888 -4.47186 1.13237 0
M  V30 4690 H 439.131 -4.1877 1.13201 0
M  V30 4691 H 439.802 -5.51699 0.18217 0
M  V30 4692 H 442.278 -4.02855 -1.04151 0
M  V30 4693 H 441.154 -5.18568 -1.79939 0
M  V30 4694 H 441.415 -3.61607 -2.54348 0
M  V30 4695 N 440.474 -0.00167713 -1.576 0
M  V30 4696 C 441.424 0.997744 -2.0501 0
M  V30 4697 C 442.408 1.30214 -0.94515 0
M  V30 4698 O 443.6 1.29284 -1.20891 0
M  V30 4699 C 440.729 2.2892 -2.55833 0
M  V30 4700 C 439.815 2.01437 -3.73208 0
M  V30 4701 N 440.206 1.44119 -4.84833 0
M  V30 4702 C 438.504 2.31571 -3.8117 0
M  V30 4703 C 439.205 1.33145 -5.66257 0
M  V30 4704 N 438.181 1.81763 -5.12312 0
M  V30 4705 H 441.983 0.549098 -2.88725 0
M  V30 4706 H 439.497 0.20398 -1.61114 0
M  V30 4707 H 441.494 3.01361 -2.88075 0
M  V30 4708 H 440.154 2.74436 -1.73537 0
M  V30 4709 H 441.165 1.11978 -5.0565 0
M  V30 4710 H 437.842 2.7995 -3.09732 0
M  V30 4711 H 439.232 0.890567 -6.65972 0
M  V30 4712 N 441.952 1.55251 0.271103 0
M  V30 4713 C 442.9 1.89054 1.35504 0
M  V30 4714 C 443.894 0.767064 1.51038 0
M  V30 4715 O 445.1 0.951429 1.528 0
M  V30 4716 H 441.475 0.600072 0.45323 0
M  V30 4717 H 443.446 2.79598 1.04247 0
M  V30 4718 C 442.195 2.18068 2.70817 0
M  V30 4719 H 441.518 3.04005 2.59656 0
M  V30 4720 H 442.958 2.4564 3.45597 0
M  V30 4721 C 441.417 0.988901 3.2206 0
M  V30 4722 O 441.947 0.224501 4.01072 0
M  V30 4723 N 440.153 0.786085 2.79766 0
M  V30 4724 H 439.7 1.40937 2.15626 0
M  V30 4725 H 439.658 -0.00969349 3.14399 0
M  V30 4726 N 443.43 -0.535701 1.48216 0
M  V30 4727 C 444.677 -1.29183 1.55942 0
M  V30 4728 C 445.005 -1.93125 0.230857 0
M  V30 4729 O 444.26 -1.79556 -0.778331 0
M  V30 4730 C 444.559 -2.4068 2.64212 0
M  V30 4731 C 444.225 -1.94428 4.06827 0
M  V30 4732 C 442.887 -1.81532 4.45645 0
M  V30 4733 C 445.239 -1.59405 4.96225 0
M  V30 4734 C 442.567 -1.31939 5.71672 0
M  V30 4735 C 444.919 -1.11276 6.22736 0
M  V30 4736 C 443.583 -0.969924 6.60416 0
M  V30 4737 H 442.853 -0.472715 0.570632 0
M  V30 4738 H 445.5 -0.598437 1.81909 0
M  V30 4739 H 443.805 -3.15666 2.32083 0
M  V30 4740 H 445.502 -2.98822 2.67407 0
M  V30 4741 H 442.092 -2.05415 3.76168 0
M  V30 4742 H 446.276 -1.68231 4.66917 0
M  V30 4743 H 441.532 -1.19562 5.99596 0
M  V30 4744 H 445.706 -0.832453 6.91407 0
M  V30 4745 H 443.333 -0.583436 7.57958 0
M  V30 4746 N 444.908 -1.36708 -0.784132 0
M  V30 4747 C 445.841 -1.25827 -1.90375 0
M  V30 4748 C 446.819 -0.141331 -1.61985 0
M  V30 4749 O 448.003 -0.313389 -1.85877 0
M  V30 4750 C 445.13 -0.942621 -3.25319 0
M  V30 4751 C 444.176 -2.07474 -3.72635 0
M  V30 4752 S 445.009 -3.69317 -3.8777 0
M  V30 4753 C 446.165 -3.39876 -5.25581 0
M  V30 4754 H 446.398 -2.20593 -1.99314 0
M  V30 4755 H 443.931 -1.22186 -0.943926 0
M  V30 4756 H 445.889 -0.767321 -4.03265 0
M  V30 4757 H 444.55 -0.0126566 -3.14097 0
M  V30 4758 H 443.743 -1.80858 -4.70432 0
M  V30 4759 H 443.345 -2.20953 -3.01754 0
M  V30 4760 H 445.637 -2.94097 -6.10339 0
M  V30 4761 H 446.58 -4.36956 -5.57203 0
M  V30 4762 H 446.988 -2.75098 -4.92931 0
M  V30 4763 N 446.386 1.0089 -1.21074 0
M  V30 4764 C 447.319 2.09279 -0.909806 0
M  V30 4765 C 448.297 1.61986 0.141145 0
M  V30 4766 O 449.481 1.88495 0.0130332 0
M  V30 4767 C 446.608 3.36723 -0.365374 0
M  V30 4768 C 445.654 4.02919 -1.39852 0
M  V30 4769 S 446.487 4.45835 -2.96633 0
M  V30 4770 C 447.643 5.76471 -2.43786 0
M  V30 4771 H 447.876 2.34484 -1.82769 0
M  V30 4772 H 445.409 1.14115 -1.04006 0
M  V30 4773 H 447.367 4.10459 -0.0578203 0
M  V30 4774 H 446.028 3.09577 0.531136 0
M  V30 4775 H 445.221 4.94634 -0.967117 0
M  V30 4776 H 444.823 3.35441 -1.65395 0
M  V30 4777 H 447.115 6.52027 -1.84029 0
M  V30 4778 H 448.058 6.24418 -3.33928 0
M  V30 4779 H 448.466 5.33104 -1.85636 0
M  V30 4780 N 447.864 1.01787 1.20321 0
M  V30 4781 C 449.141 0.622978 1.85414 0
M  V30 4782 C 449.521 -0.898887 1.91006 0
M  V30 4783 O 448.869 -1.79112 1.41884 0
M  V30 4784 C 449.079 1.27226 3.24984 0
M  V30 4785 C 450.427 1.3885 4.01255 0
M  V30 4786 O 451.451 1.22857 3.34342 0
M  V30 4787 O 450.31 1.64705 5.2109 0
M  V30 4788 H 447.404 0.215116 0.798533 0
M  V30 4789 H 449.95 1.11533 1.27901 0
M  V30 4790 H 448.722 2.31209 3.15687 0
M  V30 4791 H 448.345 0.767069 3.90131 0
M  V30 4792 N 449.342 -1.36122 0.79427 0
M  V30 4793 C 450.591 -1.98361 0.365464 0
M  V30 4794 C 450.904 -1.6374 -1.06997 0
M  V30 4795 O 452.11 -2.19251 -1.60129 0
M  V30 4796 C 450.566 -3.54821 0.602496 0
M  V30 4797 C 450.174 -3.98362 2.04967 0
M  V30 4798 C 451.918 -4.2383 0.238437 0
M  V30 4799 C 449.825 -5.47619 2.2331 0
M  V30 4800 H 448.755 -0.742193 0.13291 0
M  V30 4801 H 451.406 -1.55354 0.976589 0
M  V30 4802 H 449.788 -3.95922 -0.078409 0
M  V30 4803 H 450.962 -3.68447 2.76737 0
M  V30 4804 H 449.277 -3.42206 2.37243 0
M  V30 4805 H 451.874 -5.33529 0.353705 0
M  V30 4806 H 452.217 -4.08264 -0.814006 0
M  V30 4807 H 452.75 -3.88108 0.872769 0
M  V30 4808 H 449.489 -5.68138 3.26955 0
M  V30 4809 H 449.009 -5.79145 1.5605 0
M  V30 4810 H 450.688 -6.13911 2.0426 0
M  V30 4811 N 450.82 -0.546701 -1.47814 0
M  V30 4812 C 451.752 0.244196 -2.27895 0
M  V30 4813 C 452.765 0.88911 -1.36377 0
M  V30 4814 O 453.954 0.764733 -1.61289 0
M  V30 4815 C 451.054 1.36252 -3.10304 0
M  V30 4816 C 450.227 0.816382 -4.29714 0
M  V30 4817 C 449.286 1.81789 -4.93801 0
M  V30 4818 O 448.312 1.36818 -5.52512 0
M  V30 4819 N 449.514 3.15085 -4.87547 0
M  V30 4820 H 452.279 -0.442694 -2.96412 0
M  V30 4821 H 449.84 -0.382095 -1.57327 0
M  V30 4822 H 451.832 2.03102 -3.50045 0
M  V30 4823 H 450.402 1.95281 -2.44099 0
M  V30 4824 H 449.622 -0.0285981 -3.9419 0
M  V30 4825 H 450.91 0.430668 -5.06974 0
M  V30 4826 H 450.308 3.54275 -4.41028 0
M  V30 4827 H 448.865 3.77522 -5.31339 0
M  V30 4828 N 452.299 1.55045 -0.282633 0
M  V30 4829 C 453.529 2.03872 0.334635 0
M  V30 4830 C 453.937 1.16018 1.49454 0
M  V30 4831 O 453.28 0.174449 1.8287 0
M  V30 4832 C 453.342 3.48791 0.870905 0
M  V30 4833 C 453.006 4.56715 -0.161338 0
M  V30 4834 C 454.003 5.10513 -0.983466 0
M  V30 4835 C 451.688 5.01417 -0.297745 0
M  V30 4836 C 453.682 6.07538 -1.92811 0
M  V30 4837 C 451.369 5.98265 -1.24586 0
M  V30 4838 C 452.367 6.51208 -2.05954 0
M  V30 4839 O 452.055 7.46162 -2.99162 0
M  V30 4840 H 451.787 0.671324 0.0793742 0
M  V30 4841 H 454.341 2.01169 -0.41473 0
M  V30 4842 H 452.571 3.48758 1.67047 0
M  V30 4843 H 454.26 3.80916 1.40207 0
M  V30 4844 H 455.026 4.76785 -0.888856 0
M  V30 4845 H 450.905 4.59849 0.325604 0
M  V30 4846 H 454.449 6.48787 -2.56363 0
M  V30 4847 H 450.346 6.31412 -1.34126 0
M  V30 4848 H 451.114 7.63903 -2.93929 0
M  V30 4849 N 453.777 0.010035 1.57597 0
M  V30 4850 C 455.005 -0.683413 1.95287 0
M  V30 4851 C 455.42 -1.66747 0.885481 0
M  V30 4852 O 454.777 -1.82003 -0.134629 0
M  V30 4853 C 454.828 -1.40652 3.33015 0
M  V30 4854 O 454.549 -0.461916 4.35658 0
M  V30 4855 C 456.05 -2.19356 3.85225 0
M  V30 4856 H 453.27 -0.189708 0.643624 0
M  V30 4857 H 455.814 0.0641359 2.04399 0
M  V30 4858 H 453.969 -2.10562 3.2518 0
M  V30 4859 H 454.383 -0.973215 5.15392 0
M  V30 4860 H 455.857 -2.65433 4.83993 0
M  V30 4861 H 456.334 -3.02457 3.18459 0
M  V30 4862 H 456.94 -1.54442 3.96267 0
M  V30 4863 N 455.255 -1.55392 -0.262866 0
M  V30 4864 C 456.202 -1.88966 -1.32516 0
M  V30 4865 C 457.172 -0.742187 -1.48596 0
M  V30 4866 O 458.357 -0.99439 -1.62839 0
M  V30 4867 C 455.497 -2.17592 -2.67858 0
M  V30 4868 C 454.61 -3.45061 -2.59917 0
M  V30 4869 C 453.745 -3.63336 -3.87505 0
M  V30 4870 C 452.784 -4.84462 -3.74116 0
M  V30 4871 N 451.921 -4.99342 -4.93561 0
M  V30 4872 H 456.761 -2.79566 -1.03184 0
M  V30 4873 H 454.298 -1.38404 -0.498285 0
M  V30 4874 H 456.256 -2.3219 -3.46617 0
M  V30 4875 H 454.886 -1.30215 -2.95371 0
M  V30 4876 H 453.938 -3.38881 -1.72812 0
M  V30 4877 H 455.25 -4.3396 -2.45926 0
M  V30 4878 H 454.404 -3.77807 -4.74707 0
M  V30 4879 H 453.143 -2.72641 -4.04374 0
M  V30 4880 H 452.148 -4.69985 -2.85297 0
M  V30 4881 H 453.373 -5.76603 -3.58757 0
M  V30 4882 H 451.319 -4.1158 -5.10821 0
M  V30 4883 H 451.236 -5.82303 -4.82141 0
M  V30 4884 H 452.504 -5.18208 -5.82306 0
M  V30 4885 N 456.733 0.527833 -1.48498 0
M  V30 4886 C 457.643 1.65907 -1.65867 0
M  V30 4887 C 458.659 1.6537 -0.541192 0
M  V30 4888 O 459.835 1.84282 -0.812534 0
M  V30 4889 C 456.9 3.02364 -1.69637 0
M  V30 4890 C 455.961 3.1374 -2.93028 0
M  V30 4891 C 455.194 4.43688 -2.96609 0
M  V30 4892 O 455.417 5.30913 -2.08538 0
M  V30 4893 O 454.351 4.59475 -3.88802 0
M  V30 4894 H 458.177 1.5419 -2.61647 0
M  V30 4895 H 455.762 0.701163 -1.31924 0
M  V30 4896 H 457.644 3.83515 -1.74625 0
M  V30 4897 H 456.319 3.14401 -0.770312 0
M  V30 4898 H 455.226 2.31877 -2.93571 0
M  V30 4899 H 456.559 3.06621 -3.85026 0
M  V30 4900 N 458.211 1.37122 0.776871 0
M  V30 4901 C 459.144 1.26835 1.89705 0
M  V30 4902 C 460.122 0.14992 1.61907 0
M  V30 4903 O 461.306 0.323242 1.85708 0
M  V30 4904 C 458.433 0.95986 3.24814 0
M  V30 4905 C 457.479 2.09447 3.7153 0
M  V30 4906 S 458.312 3.71368 3.85806 0
M  V30 4907 C 459.468 3.42659 5.23771 0
M  V30 4908 H 459.701 2.21647 1.98141 0
M  V30 4909 H 457.234 1.22685 0.937433 0
M  V30 4910 H 459.192 0.788696 4.02852 0
M  V30 4911 H 457.853 0.0293137 3.14086 0
M  V30 4912 H 457.046 1.8335 4.69467 0
M  V30 4913 H 456.648 2.2255 3.00578 0
M  V30 4914 H 458.94 2.9733 6.0877 0
M  V30 4915 H 459.883 4.39905 5.54878 0
M  V30 4916 H 460.291 2.77708 4.91466 0
M  V30 4917 N 459.689 -1.00246 1.21608 0
M  V30 4918 C 460.636 -2.09073 0.977613 0
M  V30 4919 C 461.606 -1.65815 -0.097297 0
M  V30 4920 O 462.791 -1.90734 0.0503445 0
M  V30 4921 C 459.931 -3.40671 0.551133 0
M  V30 4922 C 459.044 -3.97326 1.69576 0
M  V30 4923 C 458.179 -5.17043 1.2182 0
M  V30 4924 C 457.218 -5.65813 2.335 0
M  V30 4925 N 456.355 -6.76778 1.86859 0
M  V30 4926 H 461.195 -2.28806 1.90924 0
M  V30 4927 H 458.732 -1.12186 0.951452 0
M  V30 4928 H 460.69 -4.16225 0.285097 0
M  V30 4929 H 459.32 -3.20967 -0.343489 0
M  V30 4930 H 458.372 -3.18734 2.07637 0
M  V30 4931 H 459.684 -4.29511 2.53617 0
M  V30 4932 H 458.838 -5.99852 0.908975 0
M  V30 4933 H 457.577 -4.86458 0.347869 0
M  V30 4934 H 456.582 -4.81599 2.65222 0
M  V30 4935 H 457.807 -5.98427 3.21033 0
M  V30 4936 H 455.753 -6.47994 1.02174 0
M  V30 4937 H 455.67 -7.08231 2.64471 0
M  V30 4938 H 456.938 -7.63116 1.58978 0
M  V30 4939 N 461.167 -1.02423 -1.1978 0
M  V30 4940 C 462.077 -0.610919 -2.26506 0
M  V30 4941 C 463.093 0.355152 -1.70337 0
M  V30 4942 O 464.269 0.214195 -2.00258 0
M  V30 4943 C 461.334 0.0365921 -3.46681 0
M  V30 4944 C 460.395 -0.976389 -4.18049 0
M  V30 4945 C 459.628 -0.359683 -5.32487 0
M  V30 4946 O 459.851 0.838601 -5.64202 0
M  V30 4947 O 458.785 -1.08022 -5.92127 0
M  V30 4948 H 462.611 -1.49965 -2.64091 0
M  V30 4949 H 460.196 -0.794156 -1.26545 0
M  V30 4950 H 462.078 0.39786 -4.19518 0
M  V30 4951 H 460.753 0.899398 -3.10954 0
M  V30 4952 H 459.66 -1.38916 -3.47352 0
M  V30 4953 H 460.993 -1.80941 -4.57735 0
M  V30 4954 N 462.645 1.35699 -0.801477 0
M  V30 4955 C 463.87 2.03687 -0.390678 0
M  V30 4956 C 464.295 1.60015 0.988778 0
M  V30 4957 O 463.653 0.774357 1.63931 0
M  V30 4958 C 463.701 3.57439 -0.476404 0
M  V30 4959 O 462.805 4.09208 0.512106 0
M  V30 4960 H 462.146 0.64344 -0.163956 0
M  V30 4961 H 464.676 1.73403 -1.08594 0
M  V30 4962 H 464.686 4.06544 -0.344357 0
M  V30 4963 H 463.361 3.88576 -1.48262 0
M  V30 4964 H 461.938 3.7134 0.340721 0
M  V30 4965 N 464.123 0.554532 1.47522 0
M  V30 4966 C 465.086 -0.184174 2.28459 0
M  V30 4967 C 466.086 -0.845195 1.36796 0
M  V30 4968 O 467.276 -0.701467 1.59452 0
M  V30 4969 C 464.408 -1.26903 3.16399 0
M  V30 4970 H 465.601 0.526751 2.95238 0
M  V30 4971 H 463.154 0.311375 1.53167 0
M  V30 4972 H 463.889 -2.01244 2.54306 0
M  V30 4973 H 463.674 -0.799883 3.83854 0
M  V30 4974 H 465.164 -1.78794 3.77389 0
M  V30 4975 N 465.601 -1.54893 0.290851 0
M  V30 4976 C 466.564 -2.21824 -0.576784 0
M  V30 4977 C 467.564 -1.20104 -1.06919 0
M  V30 4978 O 468.754 -1.44906 -0.966843 0
M  V30 4979 C 465.886 -2.89662 -1.79747 0
M  V30 4980 H 467.079 -2.99899 0.00784051 0
M  V30 4981 H 464.632 -1.56245 0.0415934 0
M  V30 4982 H 465.367 -2.15639 -2.42219 0
M  V30 4983 H 465.152 -3.64219 -1.45214 0
M  V30 4984 H 466.642 -3.4075 -2.4141 0
M  V30 4985 N 467.08 -0.0183926 -1.57589 0
M  V30 4986 C 468.496 0.337897 -1.55982 0
M  V30 4987 C 468.696 1.73604 -1.02294 0
M  V30 4988 O 467.752 2.43589 -0.664895 0
M  V30 4989 C 469.065 0.196305 -3.00059 0
M  V30 4990 C 470.613 0.269875 -3.11834 0
M  V30 4991 C 471.088 0.157197 -4.5773 0
M  V30 4992 N 472.579 0.214521 -4.62703 0
M  V30 4993 C 473.314 0.150955 -5.73201 0
M  V30 4994 N 472.81 0.0369212 -6.9279 0
M  V30 4995 N 474.603 0.204162 -5.61729 0
M  V30 4996 H 466.754 -0.93279 -1.90821 0
M  V30 4997 H 469.017 -0.359253 -0.877292 0
M  V30 4998 H 468.723 -0.766383 -3.43248 0
M  V30 4999 H 468.597 0.970908 -3.6449 0
M  V30 5000 H 470.984 1.22302 -2.68563 0
M  V30 5001 H 471.065 -0.534918 -2.50144 0
M  V30 5002 H 470.709 -0.792479 -5.01679 0
M  V30 5003 H 470.639 0.980717 -5.17387 0
M  V30 5004 H 473.13 0.303238 -3.76681 0
M  V30 5005 H 473.443 -0.00518321 -7.728 0
M  V30 5006 H 471.788 0.0022886 -6.95 0
M  V30 5007 H 474.979 0.291575 -4.67191 0
M  V30 5008 H 475.152 0.15116 -6.47824 0
M  V30 5009 N 468.558 1.5553 0.254621 0
M  V30 5010 C 469.804 1.77262 0.985193 0
M  V30 5011 C 470.137 0.582286 1.85265 0
M  V30 5012 O 469.412 -0.419666 1.89919 0
M  V30 5013 C 469.695 3.0881 1.85225 0
M  V30 5014 C 469.548 4.38233 1.0135 0
M  V30 5015 C 470.867 3.3653 2.83612 0
M  V30 5016 H 467.986 0.644906 0.356742 0
M  V30 5017 H 470.628 1.88264 0.256236 0
M  V30 5018 H 468.778 2.99562 2.47376 0
M  V30 5019 H 470.45 4.59463 0.411269 0
M  V30 5020 H 468.693 4.32636 0.317574 0
M  V30 5021 H 469.364 5.26644 1.65379 0
M  V30 5022 H 471.84 3.45691 2.31596 0
M  V30 5023 H 470.716 4.29805 3.41407 0
M  V30 5024 H 470.977 2.57064 3.59681 0
M  V30 5025 N 470.036 -0.519951 1.48776 0
M  V30 5026 C 470.966 -1.63253 1.66945 0
M  V30 5027 C 471.947 -1.62014 0.518224 0
M  V30 5028 O 473.132 -1.79053 0.751919 0
M  V30 5029 C 470.262 -3.0181 1.71836 0
M  V30 5030 C 469.216 -3.17911 2.8656 0
M  V30 5031 C 468.542 -4.5763 2.76548 0
M  V30 5032 C 469.842 -2.99729 4.27738 0
M  V30 5033 H 471.536 -1.48302 2.6009 0
M  V30 5034 H 469.082 -0.712026 1.25165 0
M  V30 5035 H 471.035 -3.79525 1.83135 0
M  V30 5036 H 469.759 -3.17806 0.752775 0
M  V30 5037 H 468.418 -2.42616 2.74833 0
M  V30 5038 H 468.066 -4.70476 1.77937 0
M  V30 5039 H 467.766 -4.69346 3.53536 0
M  V30 5040 H 469.29 -5.37431 2.89828 0
M  V30 5041 H 470.704 -3.67228 4.40246 0
M  V30 5042 H 469.101 -3.22932 5.05801 0
M  V30 5043 H 470.171 -1.96047 4.43502 0
M  V30 5044 N 471.514 -1.37532 -0.769588 0
M  V30 5045 C 472.446 -1.29347 -1.89214 0
M  V30 5046 C 473.459 -0.208842 -1.61455 0
M  V30 5047 O 474.648 -0.465158 -1.72333 0
M  V30 5048 C 471.748 -0.977649 -3.24492 0
M  V30 5049 C 470.921 -2.16817 -3.7988 0
M  V30 5050 C 469.98 -1.82229 -4.93639 0
M  V30 5051 O 469.006 -2.54548 -5.09111 0
M  V30 5052 N 470.208 -0.767696 -5.75401 0
M  V30 5053 H 472.973 -2.26073 -1.96751 0
M  V30 5054 H 470.534 -1.31185 -0.948795 0
M  V30 5055 H 472.526 -0.727065 -3.98115 0
M  V30 5056 H 471.096 -0.0988777 -3.12444 0
M  V30 5057 H 470.316 -2.58038 -2.9801 0
M  V30 5058 H 471.604 -2.96308 -4.13617 0
M  V30 5059 H 471.002 -0.167626 -5.65452 0
M  V30 5060 H 469.559 -0.576973 -6.49241 0
M  V30 5061 N 472.992 0.995999 -1.22138 0
M  V30 5062 C 473.902 2.11985 -1.00496 0
M  V30 5063 C 474.918 1.7394 0.0457701 0
M  V30 5064 O 476.094 2.00868 -0.146273 0
M  V30 5065 C 473.159 3.41779 -0.582086 0
M  V30 5066 C 472.22 3.93943 -1.70608 0
M  V30 5067 C 471.453 5.17542 -1.30328 0
M  V30 5068 O 471.676 5.70114 -0.180743 0
M  V30 5069 O 470.61 5.63382 -2.11861 0
M  V30 5070 H 474.436 2.33123 -1.94647 0
M  V30 5071 H 472.021 1.10358 -1.00705 0
M  V30 5072 H 473.903 4.1989 -0.356467 0
M  V30 5073 H 472.578 3.22007 0.330592 0
M  V30 5074 H 471.485 3.17019 -1.98619 0
M  V30 5075 H 472.818 4.18141 -2.59651 0
M  V30 5076 N 474.47 1.03057 1.19235 0
M  V30 5077 C 475.433 0.617418 2.20727 0
M  V30 5078 C 476.433 -0.319856 1.57587 0
M  V30 5079 O 477.623 -0.106633 1.73873 0
M  V30 5080 C 474.755 -0.096296 3.40764 0
M  V30 5081 H 475.948 1.51544 2.58794 0
M  V30 5082 H 473.501 0.821949 1.32942 0
M  V30 5083 H 474.236 -1.00859 3.08217 0
M  V30 5084 H 474.021 0.577217 3.87828 0
M  V30 5085 H 475.511 -0.372219 4.15938 0
M  V30 5086 N 475.948 -1.35272 0.808662 0
M  V30 5087 C 477.194 -1.99434 0.399717 0
M  V30 5088 C 477.549 -1.62992 -1.02232 0
M  V30 5089 O 476.842 -0.884091 -1.69983 0
M  V30 5090 C 477.036 -3.53556 0.522798 0
M  V30 5091 C 476.865 -4.04969 1.95525 0
M  V30 5092 C 475.635 -4.34228 2.58407 0
M  V30 5093 C 477.833 -4.23362 2.92009 0
M  V30 5094 N 475.815 -4.71585 3.93041 0
M  V30 5095 C 477.186 -4.63739 4.11517 0
M  V30 5096 C 479.241 -4.05576 2.88813 0
M  V30 5097 C 477.944 -4.88189 5.28265 0
M  V30 5098 C 479.97 -4.31184 4.04765 0
M  V30 5099 C 479.332 -4.71834 5.23022 0
M  V30 5100 H 475.431 -0.757534 0.19408 0
M  V30 5101 H 478.015 -1.63939 1.05034 0
M  V30 5102 H 476.186 -3.88277 -0.0978471 0
M  V30 5103 H 477.918 -4.04604 0.0882378 0
M  V30 5104 H 474.673 -4.24621 2.09747 0
M  V30 5105 H 475.097 -4.9452 4.62363 0
M  V30 5106 H 479.739 -3.73288 1.98535 0
M  V30 5107 H 477.457 -5.1935 6.19113 0
M  V30 5108 H 481.043 -4.18972 4.03675 0
M  V30 5109 H 479.923 -4.91263 6.11253 0
M  V30 5110 N 477.426 -0.562348 -1.47226 0
M  V30 5111 C 478.359 0.230405 -2.27034 0
M  V30 5112 C 479.337 0.915609 -1.3437 0
M  V30 5113 O 480.521 0.933573 -1.63758 0
M  V30 5114 C 477.648 1.32874 -3.11548 0
M  V30 5115 C 476.694 0.751552 -4.19826 0
M  V30 5116 S 477.527 -0.405848 -5.3396 0
M  V30 5117 C 478.683 0.694186 -6.22038 0
M  V30 5118 H 478.916 -0.446811 -2.93923 0
M  V30 5119 H 476.449 -0.348781 -1.50409 0
M  V30 5120 H 478.407 1.95773 -3.60809 0
M  V30 5121 H 477.068 1.97782 -2.44011 0
M  V30 5122 H 476.261 1.57651 -4.78709 0
M  V30 5123 H 475.863 0.198645 -3.73472 0
M  V30 5124 H 478.155 1.58501 -6.58698 0
M  V30 5125 H 479.098 0.142592 -7.07956 0
M  V30 5126 H 479.506 0.989169 -5.55766 0
M  V30 5127 N 478.904 1.54736 -0.299062 0
M  V30 5128 C 480.151 2.00101 0.310784 0
M  V30 5129 C 480.479 1.18746 1.54045 0
M  V30 5130 O 479.734 0.251198 1.94081 0
M  V30 5131 C 480.033 3.50199 0.713835 0
M  V30 5132 C 479.699 4.48997 -0.413873 0
M  V30 5133 C 478.361 4.7573 -0.723462 0
M  V30 5134 C 480.713 5.07839 -1.17257 0
M  V30 5135 C 478.041 5.5857 -1.79491 0
M  V30 5136 C 480.393 5.91844 -2.23392 0
M  V30 5137 C 479.057 6.16889 -2.54959 0
M  V30 5138 H 478.327 0.732221 0.113724 0
M  V30 5139 H 480.974 1.86888 -0.417756 0
M  V30 5140 H 479.279 3.61012 1.52243 0
M  V30 5141 H 480.976 3.82723 1.19684 0
M  V30 5142 H 477.566 4.28292 -0.162476 0
M  V30 5143 H 481.75 4.87188 -0.946651 0
M  V30 5144 H 477.006 5.76213 -2.04423 0
M  V30 5145 H 481.18 6.36465 -2.8264 0
M  V30 5146 H 478.807 6.80869 -3.38114 0
M  V30 5147 N 480.382 0.0267497 1.57577 0
M  V30 5148 C 481.612 -0.6617 1.95717 0
M  V30 5149 C 482.02 -1.66331 0.901706 0
M  V30 5150 O 481.363 -1.83273 -0.125241 0
M  V30 5151 C 481.425 -1.42649 3.29987 0
M  V30 5152 C 481.089 -0.583482 4.5326 0
M  V30 5153 C 482.086 0.140221 5.19711 0
M  V30 5154 C 479.771 -0.521581 4.99585 0
M  V30 5155 C 481.765 0.914523 6.30805 0
M  V30 5156 C 479.452 0.256428 6.10562 0
M  V30 5157 C 480.45 0.973189 6.76031 0
M  V30 5158 O 480.138 1.73845 7.84878 0
M  V30 5159 H 479.87 -0.187483 0.649481 0
M  V30 5160 H 482.424 0.0820847 2.05236 0
M  V30 5161 H 480.654 -2.21536 3.16952 0
M  V30 5162 H 482.343 -2.00282 3.53047 0
M  V30 5163 H 483.109 0.101716 4.84893 0
M  V30 5164 H 478.988 -1.06904 4.48433 0
M  V30 5165 H 482.532 1.4745 6.81839 0
M  V30 5166 H 478.429 0.296657 6.44818 0
M  V30 5167 H 479.197 1.65797 8.01532 0
M  V30 5168 N 481.861 -1.55662 -0.24637 0
M  V30 5169 C 482.808 -1.90361 -1.30504 0
M  V30 5170 C 483.778 -0.757905 -1.47801 0
M  V30 5171 O 484.963 -1.01161 -1.61775 0
M  V30 5172 C 482.103 -2.2042 -2.65535 0
M  V30 5173 C 481.216 -3.47799 -2.56242 0
M  V30 5174 C 480.351 -3.67426 -3.8363 0
M  V30 5175 C 479.39 -4.88403 -3.68956 0
M  V30 5176 N 478.527 -5.04548 -4.88237 0
M  V30 5177 H 483.367 -2.80645 -1.00213 0
M  V30 5178 H 480.904 -1.38924 -0.483577 0
M  V30 5179 H 482.862 -2.35853 -3.44135 0
M  V30 5180 H 481.492 -1.3334 -2.93973 0
M  V30 5181 H 480.544 -3.40694 -1.69208 0
M  V30 5182 H 481.856 -4.36544 -2.4131 0
M  V30 5183 H 481.01 -3.82821 -4.70673 0
M  V30 5184 H 479.749 -2.76914 -4.01459 0
M  V30 5185 H 478.754 -4.72984 -2.80296 0
M  V30 5186 H 479.979 -5.80375 -3.52621 0
M  V30 5187 H 477.925 -4.16974 -5.06427 0
M  V30 5188 H 477.842 -5.87384 -4.75937 0
M  V30 5189 H 479.11 -5.24355 -5.76777 0
M  V30 5190 N 483.339 0.512053 -1.4905 0
M  V30 5191 C 484.289 1.61142 -1.61298 0
M  V30 5192 C 485.273 1.53908 -0.46916 0
M  V30 5193 O 486.465 1.61625 -0.721547 0
M  V30 5194 C 483.594 2.998 -1.67256 0
M  V30 5195 C 482.68 3.12072 -2.87179 0
M  V30 5196 N 483.071 2.94263 -4.11391 0
M  V30 5197 C 481.369 3.43156 -2.84886 0
M  V30 5198 C 482.07 3.10426 -4.91946 0
M  V30 5199 N 481.046 3.38808 -4.251 0
M  V30 5200 H 484.848 1.46011 -2.55065 0
M  V30 5201 H 482.362 0.717934 -1.45669 0
M  V30 5202 H 484.359 3.78794 -1.74128 0
M  V30 5203 H 483.019 3.1601 -0.746195 0
M  V30 5204 H 484.03 2.70661 -4.41546 0
M  V30 5205 H 480.707 3.65611 -2.01581 0
M  V30 5206 H 482.097 3.01243 -6.00585 0
M  V30 5207 N 484.817 1.37938 0.762283 0
M  V30 5208 C 486.045 1.36883 1.55147 0
M  V30 5209 C 486.46 -0.0435348 1.8875 0
M  V30 5210 O 485.817 -1.00786 1.52146 0
M  V30 5211 C 485.868 2.21624 2.85596 0
M  V30 5212 O 485.589 3.57358 2.5343 0
M  V30 5213 C 487.09 2.28653 3.7978 0
M  V30 5214 H 484.31 0.468521 0.480343 0
M  V30 5215 H 486.854 1.81404 0.944079 0
M  V30 5216 H 485.009 1.80588 3.42734 0
M  V30 5217 H 485.423 4.01883 3.37032 0
M  V30 5218 H 486.897 2.9225 4.68288 0
M  V30 5219 H 487.374 1.29767 4.19592 0
M  V30 5220 H 487.98 2.70043 3.28568 0
M  V30 5221 N 486.295 -0.989507 1.22664 0
M  V30 5222 C 487.711 -1.25395 0.987331 0
M  V30 5223 C 487.911 -1.9899 -0.317056 0
M  V30 5224 O 486.967 -2.30141 -1.03882 0
M  V30 5225 C 488.28 -2.06242 2.18826 0
M  V30 5226 C 489.828 -2.19413 2.23219 0
M  V30 5227 C 490.303 -3.03648 3.42873 0
M  V30 5228 N 491.794 -3.11234 3.43056 0
M  V30 5229 C 492.529 -3.7671 4.32293 0
M  V30 5230 N 492.025 -4.44085 5.31752 0
M  V30 5231 N 493.818 -3.73505 4.2006 0
M  V30 5232 H 485.969 -0.496212 2.06522 0
M  V30 5233 H 488.232 -0.281784 0.905153 0
M  V30 5234 H 487.938 -1.59531 3.13437 0
M  V30 5235 H 487.812 -3.06996 2.19165 0
M  V30 5236 H 490.199 -2.65336 1.29154 0
M  V30 5237 H 490.28 -1.18078 2.26917 0
M  V30 5238 H 489.924 -2.58424 4.37241 0
M  V30 5239 H 489.854 -4.05132 3.36416 0
M  V30 5240 H 492.345 -2.63287 2.71088 0
M  V30 5241 H 492.658 -4.91797 5.96117 0
M  V30 5242 H 491.003 -4.42822 5.35662 0
M  V30 5243 H 494.194 -3.20033 3.41609 0
M  V30 5244 H 494.367 -4.24253 4.8981 0
M  V30 5245 N 487.773 -1.03688 -1.18687 0
M  V30 5246 C 489.189 -0.755413 -1.4059 0
M  V30 5247 C 489.389 0.656659 -1.905 0
M  V30 5248 O 488.445 1.42144 -2.08689 0
M  V30 5249 C 489.758 -1.7983 -2.41001 0
M  V30 5250 C 491.306 -1.81877 -2.54735 0
M  V30 5251 C 491.781 -2.85148 -3.58406 0
M  V30 5252 N 493.272 -2.84015 -3.6591 0
M  V30 5253 C 494.007 -3.60573 -4.45841 0
M  V30 5254 N 493.503 -4.46871 -5.29413 0
M  V30 5255 N 495.296 -3.49079 -4.40568 0
M  V30 5256 H 487.447 -1.94818 -0.846148 0
M  V30 5257 H 489.71 -0.842727 -0.434184 0
M  V30 5258 H 489.416 -2.81097 -2.1137 0
M  V30 5259 H 489.29 -1.62727 -3.40294 0
M  V30 5260 H 491.677 -0.812836 -2.83685 0
M  V30 5261 H 491.758 -2.03057 -1.55568 0
M  V30 5262 H 491.402 -3.85918 -3.30197 0
M  V30 5263 H 491.332 -2.61224 -4.57241 0
M  V30 5264 H 493.823 -2.21431 -3.0623 0
M  V30 5265 H 494.136 -5.02007 -5.87545 0
M  V30 5266 H 492.481 -4.5094 -5.28846 0
M  V30 5267 H 495.672 -2.81066 -3.74325 0
M  V30 5268 H 495.845 -4.08994 -5.02621 0
M  V30 5269 N 489.251 1.34841 -0.815825 0
M  V30 5270 C 490.198 2.29644 -0.230664 0
M  V30 5271 C 491.168 1.53253 0.640533 0
M  V30 5272 O 492.353 1.81653 0.583672 0
M  V30 5273 C 489.493 3.39715 0.607275 0
M  V30 5274 C 488.606 4.31056 -0.28538 0
M  V30 5275 C 487.741 5.28225 0.561446 0
M  V30 5276 C 486.78 6.11204 -0.331035 0
M  V30 5277 N 485.917 7.00483 0.476302 0
M  V30 5278 H 490.757 2.79095 -1.0445 0
M  V30 5279 H 488.294 1.37351 -0.526595 0
M  V30 5280 H 490.252 4.02208 1.10835 0
M  V30 5281 H 488.882 2.91517 1.38629 0
M  V30 5282 H 487.934 3.69487 -0.904621 0
M  V30 5283 H 489.246 4.89239 -0.97193 0
M  V30 5284 H 488.4 5.96135 1.12728 0
M  V30 5285 H 487.139 4.70562 1.28153 0
M  V30 5286 H 486.144 5.42232 -0.909069 0
M  V30 5287 H 487.369 6.70947 -1.04912 0
M  V30 5288 H 485.315 6.45296 1.18019 0
M  V30 5289 H 485.232 7.55847 -0.152008 0
M  V30 5290 H 486.5 7.7273 1.02512 0
M  V30 5291 N 490.729 0.570148 1.46925 0
M  V30 5292 C 491.639 -0.173061 2.33961 0
M  V30 5293 C 492.655 -0.898825 1.48987 0
M  V30 5294 O 493.831 -0.864825 1.81887 0
M  V30 5295 C 490.896 -1.18177 3.25937 0
M  V30 5296 C 489.957 -0.462041 4.26806 0
M  V30 5297 C 489.19 -1.4227 5.14388 0
M  V30 5298 O 489.413 -2.65842 5.04662 0
M  V30 5299 O 488.347 -0.940127 5.94513 0
M  V30 5300 H 492.173 0.541216 2.98839 0
M  V30 5301 H 489.758 0.330647 1.45695 0
M  V30 5302 H 491.64 -1.76372 3.82715 0
M  V30 5303 H 490.315 -1.87774 2.63671 0
M  V30 5304 H 489.222 0.161429 3.73752 0
M  V30 5305 H 490.555 0.192719 4.91823 0
M  V30 5306 N 492.207 -1.54576 0.307264 0
M  V30 5307 C 493.432 -2.05139 -0.305379 0
M  V30 5308 C 493.857 -1.18278 -1.46259 0
M  V30 5309 O 493.215 -0.188243 -1.8032 0
M  V30 5310 C 493.263 -3.53066 -0.733283 0
M  V30 5311 O 492.367 -3.69206 -1.83741 0
M  V30 5312 H 491.708 -0.661444 -0.0582105 0
M  V30 5313 H 494.238 -1.99569 0.450931 0
M  V30 5314 H 494.248 -3.95034 -1.02039 0
M  V30 5315 H 492.923 -4.15746 0.113198 0
M  V30 5316 H 491.5 -3.39143 -1.55037 0
M  V30 5317 N 493.685 -0.035106 -1.57561 0
M  V30 5318 C 494.635 0.954034 -2.0708 0
M  V30 5319 C 495.619 1.2818 -0.972558 0
M  V30 5320 O 496.811 1.26691 -1.23606 0
M  V30 5321 C 493.94 2.23442 -2.60631 0
M  V30 5322 C 493.026 1.93475 -3.77396 0
M  V30 5323 N 493.417 1.33802 -4.87781 0
M  V30 5324 C 491.715 2.23434 -3.85996 0
M  V30 5325 C 492.416 1.21103 -5.68954 0
M  V30 5326 N 491.392 1.70855 -5.16052 0
M  V30 5327 H 495.194 0.487731 -2.89825 0
M  V30 5328 H 492.708 0.169759 -1.6151 0
M  V30 5329 H 494.705 2.95183 -2.94402 0
M  V30 5330 H 493.365 2.70693 -1.79319 0
M  V30 5331 H 494.376 1.01227 -5.07911 0
M  V30 5332 H 491.053 2.73317 -3.15601 0
M  V30 5333 H 492.443 0.749105 -6.67711 0
M  V30 5334 N 495.163 1.55791 0.238111 0
M  V30 5335 C 496.126 1.90239 1.27835 0
M  V30 5336 C 497.126 0.779552 1.4064 0
M  V30 5337 O 498.316 1.04747 1.3919 0
M  V30 5338 C 495.448 2.13859 2.65475 0
M  V30 5339 H 496.641 2.83262 0.985034 0
M  V30 5340 H 494.194 1.48818 0.477799 0
M  V30 5341 H 494.929 1.23334 2.99932 0
M  V30 5342 H 494.714 2.95643 2.57561 0
M  V30 5343 H 496.204 2.41664 3.40571 0
M  V30 5344 N 496.642 -0.504142 1.49319 0
M  V30 5345 C 497.605 -1.5883 1.65244 0
M  V30 5346 C 498.605 -1.52009 0.524386 0
M  V30 5347 O 499.795 -1.55218 0.79077 0
M  V30 5348 C 496.927 -2.98481 1.64687 0
M  V30 5349 H 498.12 -1.4604 2.61939 0
M  V30 5350 H 495.673 -0.728144 1.38303 0
M  V30 5351 H 496.408 -3.16751 0.695644 0
M  V30 5352 H 496.193 -3.0484 2.46607 0
M  V30 5353 H 497.683 -3.77256 1.79075 0
M  V30 5354 N 498.12 -1.38341 -0.754957 0
M  V30 5355 C 499.536 -1.19508 -1.05783 0
M  V30 5356 C 499.736 -0.0428005 -2.01455 0
M  V30 5357 O 498.792 0.611861 -2.44975 0
M  V30 5358 C 500.105 -2.52091 -1.63923 0
M  V30 5359 C 501.653 -2.58762 -1.76101 0
M  V30 5360 C 502.128 -3.91517 -2.37652 0
M  V30 5361 N 503.619 -3.93049 -2.45085 0
M  V30 5362 C 504.354 -4.9253 -2.93602 0
M  V30 5363 N 503.85 -6.02408 -3.42165 0
M  V30 5364 N 505.643 -4.79921 -2.92629 0
M  V30 5365 H 497.794 -2.1206 -0.120056 0
M  V30 5366 H 500.057 -0.94089 -0.11589 0
M  V30 5367 H 499.763 -3.36858 -1.01093 0
M  V30 5368 H 499.637 -2.70388 -2.63003 0
M  V30 5369 H 502.024 -1.74391 -2.38058 0
M  V30 5370 H 502.105 -2.44333 -0.757294 0
M  V30 5371 H 501.749 -4.76309 -1.76329 0
M  V30 5372 H 501.679 -4.03256 -3.38662 0
M  V30 5373 H 504.17 -3.13685 -2.10736 0
M  V30 5374 H 504.483 -6.74248 -3.77637 0
M  V30 5375 H 502.828 -6.0603 -3.40225 0
M  V30 5376 H 506.019 -3.93194 -2.54001 0
M  V30 5377 H 506.192 -5.57601 -3.30128 0
M  V30 5378 N 499.598 0.982988 -1.23187 0
M  V30 5379 C 501.014 1.2487 -0.993967 0
M  V30 5380 C 501.214 1.99155 0.306498 0
M  V30 5381 O 500.27 2.30688 1.0266 0
M  V30 5382 C 501.583 2.05078 -2.19917 0
M  V30 5383 C 503.131 2.18227 -2.2438 0
M  V30 5384 C 503.606 3.01825 -3.44479 0
M  V30 5385 N 505.097 3.09411 -3.44702 0
M  V30 5386 C 505.832 3.74412 -4.34285 0
M  V30 5387 N 505.328 4.41259 -5.341 0
M  V30 5388 N 507.121 3.71273 -4.22035 0
M  V30 5389 H 499.272 0.485253 -2.06783 0
M  V30 5390 H 501.535 0.276979 -0.906635 0
M  V30 5391 H 501.241 1.57867 -3.14279 0
M  V30 5392 H 501.115 3.05829 -2.2079 0
M  V30 5393 H 503.502 2.64648 -1.30559 0
M  V30 5394 H 503.583 1.16873 -2.2754 0
M  V30 5395 H 503.227 2.56102 -4.38605 0
M  V30 5396 H 503.157 4.03342 -3.38559 0
M  V30 5397 H 505.648 2.61845 -2.7248 0
M  V30 5398 H 505.961 4.88629 -5.98717 0
M  V30 5399 H 504.306 4.39975 -5.38002 0
M  V30 5400 H 507.497 3.18217 -3.43301 0
M  V30 5401 H 507.67 4.21649 -4.92053 0
M  V30 5402 N 501.076 1.04316 1.18135 0
M  V30 5403 C 502.026 0.606731 2.19779 0
M  V30 5404 C 503.01 -0.352144 1.56999 0
M  V30 5405 O 504.202 -0.170795 1.76174 0
M  V30 5406 C 501.331 -0.0262443 3.4329 0
M  V30 5407 C 500.417 0.955928 4.13186 0
M  V30 5408 N 500.808 2.12395 4.59045 0
M  V30 5409 C 499.106 0.782473 4.39082 0
M  V30 5410 C 499.807 2.74458 5.12882 0
M  V30 5411 N 498.783 2.02316 5.04548 0
M  V30 5412 H 502.585 1.49679 2.5293 0
M  V30 5413 H 500.099 0.912088 1.34368 0
M  V30 5414 H 502.096 -0.356617 4.15372 0
M  V30 5415 H 500.756 -0.911811 3.11635 0
M  V30 5416 H 501.767 2.50272 4.53414 0
M  V30 5417 H 498.444 -0.0527906 4.17467 0
M  V30 5418 H 499.834 3.73459 5.5855 0
M  V30 5419 N 502.554 -1.34406 0.822964 0
M  V30 5420 C 503.486 -2.28305 0.202375 0
M  V30 5421 C 504.499 -1.5103 -0.60777 0
M  V30 5422 O 505.688 -1.73057 -0.437444 0
M  V30 5423 C 502.788 -3.30836 -0.734911 0
M  V30 5424 C 501.961 -4.37388 0.0324177 0
M  V30 5425 C 501.02 -5.1968 -0.825803 0
M  V30 5426 O 500.046 -5.68556 -0.270771 0
M  V30 5427 N 501.248 -5.39393 -2.14558 0
M  V30 5428 H 504.013 -2.82201 1.00909 0
M  V30 5429 H 501.574 -1.4693 0.67993 0
M  V30 5430 H 503.566 -3.82786 -1.31365 0
M  V30 5431 H 502.136 -2.77334 -1.44238 0
M  V30 5432 H 501.356 -3.86152 0.792469 0
M  V30 5433 H 502.644 -5.05702 0.560633 0
M  V30 5434 H 502.042 -5.01357 -2.62025 0
M  V30 5435 H 500.599 -5.94461 -2.67318 0
M  V30 5436 N 504.032 -0.577932 -1.46621 0
M  V30 5437 C 505.448 -0.239242 -1.57797 0
M  V30 5438 C 505.648 1.25843 -1.57371 0
M  V30 5439 O 504.704 2.03988 -1.48813 0
M  V30 5440 C 506.017 -0.884227 -2.87405 0
M  V30 5441 C 507.565 -0.857373 -3.01028 0
M  V30 5442 C 508.04 -1.48181 -4.33366 0
M  V30 5443 N 509.531 -1.44593 -4.40053 0
M  V30 5444 C 510.266 -1.89852 -5.41058 0
M  V30 5445 N 509.762 -2.43062 -6.48762 0
M  V30 5446 N 511.555 -1.80797 -5.3223 0
M  V30 5447 H 503.706 -1.55073 -1.45142 0
M  V30 5448 H 505.969 -0.647903 -0.692044 0
M  V30 5449 H 505.675 -1.93759 -2.93514 0
M  V30 5450 H 505.549 -0.389585 -3.75183 0
M  V30 5451 H 507.936 0.187357 -2.94505 0
M  V30 5452 H 508.017 -1.38999 -2.14739 0
M  V30 5453 H 507.661 -2.52572 -4.40647 0
M  V30 5454 H 507.591 -0.924464 -5.18422 0
M  V30 5455 H 510.082 -1.05694 -3.62819 0
M  V30 5456 H 510.395 -2.75466 -7.22038 0
M  V30 5457 H 508.74 -2.47085 -6.49595 0
M  V30 5458 H 511.931 -1.38989 -4.46989 0
M  V30 5459 H 512.104 -2.16385 -6.10804 0
M  V30 5460 N 505.51 1.54411 -0.315457 0
M  V30 5461 C 506.457 2.24048 0.554166 0
M  V30 5462 C 507.427 1.2283 1.11812 0
M  V30 5463 O 508.612 1.51491 1.15997 0
M  V30 5464 C 505.752 2.99574 1.71316 0
M  V30 5465 C 504.865 4.15594 1.17922 0
M  V30 5466 C 504 4.78669 2.30324 0
M  V30 5467 C 503.039 5.86807 1.74137 0
M  V30 5468 N 502.176 6.43777 2.8017 0
M  V30 5469 H 507.016 2.97964 -0.0462602 0
M  V30 5470 H 504.553 1.47059 -0.0346009 0
M  V30 5471 H 506.511 3.41604 2.39505 0
M  V30 5472 H 505.141 2.28008 2.285 0
M  V30 5473 H 504.193 3.78404 0.389136 0
M  V30 5474 H 505.505 4.93459 0.728012 0
M  V30 5475 H 504.659 5.23626 3.06433 0
M  V30 5476 H 503.398 4.00168 2.78778 0
M  V30 5477 H 502.403 5.41261 0.965236 0
M  V30 5478 H 503.628 6.67201 1.2657 0
M  V30 5479 H 501.574 5.68153 3.2793 0
M  V30 5480 H 501.491 7.17031 2.39588 0
M  V30 5481 H 502.759 6.9339 3.56132 0
M  V30 5482 N 506.988 0.0434614 1.5754 0
M  V30 5483 C 507.918 -0.931651 2.14109 0
M  V30 5484 C 508.899 -1.32971 1.06079 0
M  V30 5485 O 510.084 -1.40579 1.33982 0
M  V30 5486 C 507.214 -2.20914 2.67982 0
M  V30 5487 C 506.168 -1.95139 3.80926 0
M  V30 5488 C 505.494 -3.29276 4.21285 0
M  V30 5489 C 506.794 -1.27913 5.06395 0
M  V30 5490 H 508.488 -0.460497 2.95837 0
M  V30 5491 H 506.034 -0.220058 1.42309 0
M  V30 5492 H 507.987 -2.89522 3.06194 0
M  V30 5493 H 506.711 -2.70221 1.83434 0
M  V30 5494 H 505.37 -1.28945 3.43175 0
M  V30 5495 H 505.018 -3.76369 3.33699 0
M  V30 5496 H 504.718 -3.12831 4.97404 0
M  V30 5497 H 506.242 -3.99129 4.62091 0
M  V30 5498 H 507.656 -1.86544 5.42102 0
M  V30 5499 H 506.053 -1.2182 5.87605 0
M  V30 5500 H 507.123 -0.254066 4.84234 0
M  V30 5501 N 508.466 -1.55915 -0.229846 0
M  V30 5502 C 509.396 -1.94754 -1.28815 0
M  V30 5503 C 510.377 -0.814657 -1.49323 0
M  V30 5504 O 511.562 -1.07631 -1.61645 0
M  V30 5505 C 508.692 -2.25705 -2.63959 0
M  V30 5506 C 507.646 -3.41406 -2.5812 0
M  V30 5507 C 506.972 -3.57941 -3.97218 0
M  V30 5508 C 508.272 -4.76616 -2.13623 0
M  V30 5509 H 509.966 -2.83404 -0.965547 0
M  V30 5510 H 507.512 -1.36353 -0.463028 0
M  V30 5511 H 509.465 -2.51467 -3.38146 0
M  V30 5512 H 508.189 -1.339 -2.9789 0
M  V30 5513 H 506.848 -3.1568 -1.86391 0
M  V30 5514 H 506.496 -2.63526 -4.28443 0
M  V30 5515 H 506.196 -4.35757 -3.94195 0
M  V30 5516 H 507.72 -3.86042 -4.73079 0
M  V30 5517 H 509.134 -5.01637 -2.77549 0
M  V30 5518 H 507.531 -5.57655 -2.21677 0
M  V30 5519 H 508.601 -4.7253 -1.08829 0
M  V30 5520 N 509.944 0.496216 -1.49584 0
M  V30 5521 C 510.907 1.57952 -1.66084 0
M  V30 5522 C 511.907 1.51729 -0.53244 0
M  V30 5523 O 513.097 1.54796 -0.79899 0
M  V30 5524 C 510.229 2.97604 -1.66268 0
M  V30 5525 H 511.422 1.44649 -2.6271 0
M  V30 5526 H 508.975 0.7208 -1.38687 0
M  V30 5527 H 509.71 3.16378 -0.712432 0
M  V30 5528 H 509.495 3.03528 -2.4822 0
M  V30 5529 H 510.985 3.76301 -1.81073 0
M  V30 5530 N 511.423 1.38739 0.74761 0
M  V30 5531 C 512.386 1.36241 1.84312 0
M  V30 5532 C 513.386 0.261811 1.58654 0
M  V30 5533 O 514.576 0.519031 1.66288 0
M  V30 5534 C 511.708 1.12253 3.21888 0
M  V30 5535 H 512.901 2.33712 1.87933 0
M  V30 5536 H 510.454 1.2412 0.949946 0
M  V30 5537 H 511.189 0.154133 3.23934 0
M  V30 5538 H 510.974 1.91943 3.41907 0
M  V30 5539 H 512.464 1.13215 4.0196 0
M  V30 5540 N 512.901 -0.976442 1.23707 0
M  V30 5541 C 514.15 -1.71254 1.06559 0
M  V30 5542 C 514.463 -1.91528 -0.397024 0
M  V30 5543 O 515.669 -2.62625 -0.688518 0
M  V30 5544 C 514.125 -3.08207 1.8584 0
M  V30 5545 C 513.733 -2.95806 3.36456 0
M  V30 5546 C 515.477 -3.85749 1.77194 0
M  V30 5547 C 513.384 -4.28015 4.08114 0
M  V30 5548 H 512.314 -0.642171 0.395136 0
M  V30 5549 H 514.965 -1.08877 1.4771 0
M  V30 5550 H 513.347 -3.71363 1.37498 0
M  V30 5551 H 514.521 -2.41716 3.92314 0
M  V30 5552 H 512.836 -2.31736 3.45959 0
M  V30 5553 H 515.433 -4.83633 2.28041 0
M  V30 5554 H 515.776 -4.09752 0.735477 0
M  V30 5555 H 516.309 -3.29303 2.23169 0
M  V30 5556 H 513.048 -4.09208 5.12083 0
M  V30 5557 H 512.568 -4.81955 3.57043 0
M  V30 5558 H 514.247 -4.96681 4.14629 0
M  V30 5559 N 514.379 -1.04941 -1.1758 0
M  V30 5560 C 515.327 -0.64204 -2.23563 0
M  V30 5561 C 516.321 0.335453 -1.66045 0
M  V30 5562 O 517.527 0.20179 -1.78865 0
M  V30 5563 H 513.902 -0.18944 -0.727748 0
M  V30 5564 H 515.873 -1.54609 -2.55223 0
M  V30 5565 C 514.622 -0.0301051 -3.47687 0
M  V30 5566 H 513.945 -0.773339 -3.92249 0
M  V30 5567 H 515.385 0.217592 -4.23441 0
M  V30 5568 C 513.844 1.2225 -3.13937 0
M  V30 5569 O 514.374 2.3122 -3.28482 0
M  V30 5570 N 512.58 1.11917 -2.68185 0
M  V30 5571 H 512.127 0.232403 -2.5655 0
M  V30 5572 H 512.085 1.95814 -2.45976 0
M  V30 5573 N 515.857 1.33968 -0.830081 0
M  V30 5574 C 516.82 2.27694 -0.26235 0
M  V30 5575 C 517.82 1.50589 0.563876 0
M  V30 5576 O 519.01 1.70028 0.378941 0
M  V30 5577 C 516.142 3.35002 0.63138 0
M  V30 5578 H 517.335 2.79419 -1.08928 0
M  V30 5579 H 514.888 1.44221 -0.602486 0
M  V30 5580 H 515.623 2.88504 1.48109 0
M  V30 5581 H 515.408 3.92079 0.0403276 0
M  V30 5582 H 516.898 4.04897 1.02217 0
M  V30 5583 N 517.335 0.585699 1.46312 0
M  V30 5584 C 518.582 0.0724211 2.0237 0
M  V30 5585 C 518.91 -1.28868 1.45683 0
M  V30 5586 O 518.165 -1.85853 0.612945 0
M  V30 5587 C 518.464 -0.0401312 3.57377 0
M  V30 5588 C 518.13 1.25376 4.33119 0
M  V30 5589 C 516.792 1.60824 4.5353 0
M  V30 5590 C 519.144 2.10987 4.76586 0
M  V30 5591 C 516.472 2.81676 5.14661 0
M  V30 5592 C 518.824 3.31068 5.39052 0
M  V30 5593 C 517.488 3.66794 5.5769 0
M  V30 5594 H 516.758 0.0265007 0.740526 0
M  V30 5595 H 519.405 0.762935 1.75646 0
M  V30 5596 H 517.71 -0.813791 3.83255 0
M  V30 5597 H 519.407 -0.453078 3.98432 0
M  V30 5598 H 515.997 0.967808 4.1753 0
M  V30 5599 H 520.181 1.84904 4.60569 0
M  V30 5600 H 515.437 3.0949 5.27282 0
M  V30 5601 H 519.611 3.97672 5.71691 0
M  V30 5602 H 517.238 4.60529 6.04828 0
M  V30 5603 N 518.813 -1.54241 0.323641 0
M  V30 5604 C 520.229 -1.59574 -0.0290018 0
M  V30 5605 C 520.429 -1.34017 -1.50472 0
M  V30 5606 O 519.485 -1.12464 -2.26071 0
M  V30 5607 C 520.798 -2.98169 0.389295 0
M  V30 5608 C 522.346 -3.11148 0.339958 0
M  V30 5609 C 522.821 -4.5209 0.733418 0
M  V30 5610 N 524.312 -4.5808 0.686827 0
M  V30 5611 C 525.047 -5.65248 0.963464 0
M  V30 5612 N 524.543 -6.80355 1.30724 0
M  V30 5613 N 526.336 -5.55025 0.88902 0
M  V30 5614 H 518.487 -1.6911 1.28512 0
M  V30 5615 H 520.75 -0.790972 0.522558 0
M  V30 5616 H 520.456 -3.21871 1.41746 0
M  V30 5617 H 520.33 -3.76399 -0.245657 0
M  V30 5618 H 522.717 -2.87182 -0.679002 0
M  V30 5619 H 522.798 -2.35023 1.00985 0
M  V30 5620 H 522.442 -4.76788 1.75029 0
M  V30 5621 H 522.372 -5.26584 0.0412189 0
M  V30 5622 H 524.863 -3.75411 0.43298 0
M  V30 5623 H 525.176 -7.58029 1.5037 0
M  V30 5624 H 523.521 -6.81851 1.3455 0
M  V30 5625 H 526.712 -4.63977 0.619939 0
M  V30 5626 H 526.885 -6.38458 1.10797 0
M  V30 5627 N 520.291 -0.0518155 -1.57515 0
M  V30 5628 C 521.223 0.951542 -2.08515 0
M  V30 5629 C 522.236 1.27436 -1.01311 0
M  V30 5630 O 523.425 1.23504 -1.28876 0
M  V30 5631 C 520.525 2.27291 -2.5138 0
M  V30 5632 C 519.698 2.13191 -3.81927 0
M  V30 5633 C 518.757 3.28458 -4.11098 0
M  V30 5634 O 517.783 3.04334 -4.81009 0
M  V30 5635 N 518.985 4.52954 -3.63061 0
M  V30 5636 H 521.75 0.516242 -2.9522 0
M  V30 5637 H 519.311 0.13441 -1.61341 0
M  V30 5638 H 521.303 3.03272 -2.67971 0
M  V30 5639 H 519.873 2.62386 -1.69919 0
M  V30 5640 H 519.093 1.21798 -3.74912 0
M  V30 5641 H 520.381 2.00999 -4.67415 0
M  V30 5642 H 519.779 4.75444 -3.06545 0
M  V30 5643 H 518.336 5.26026 -3.84889 0
M  V30 5644 N 521.769 1.56035 0.221574 0
M  V30 5645 C 523.015 1.79312 0.947372 0
M  V30 5646 C 523.348 0.621453 1.83988 0
M  V30 5647 O 522.623 -0.379287 1.90766 0
M  V30 5648 C 522.906 3.1267 1.78633 0
M  V30 5649 C 522.759 4.40284 0.920312 0
M  V30 5650 C 524.078 3.4247 2.7641 0
M  V30 5651 H 521.197 0.652328 0.342982 0
M  V30 5652 H 523.839 1.88765 0.216244 0
M  V30 5653 H 521.989 3.04741 2.40967 0
M  V30 5654 H 523.661 4.60232 0.313718 0
M  V30 5655 H 521.904 4.33212 0.225734 0
M  V30 5656 H 522.575 5.30033 1.54171 0
M  V30 5657 H 525.051 3.50526 2.24211 0
M  V30 5658 H 523.927 4.3695 3.32213 0
M  V30 5659 H 524.188 2.64635 3.54148 0
M  V30 5660 N 523.247 -0.488276 1.49845 0
M  V30 5661 C 524.663 -0.820566 1.3689 0
M  V30 5662 C 524.863 -1.97248 0.411752 0
M  V30 5663 O 523.919 -2.52042 -0.151931 0
M  V30 5664 C 525.232 -1.1488 2.77891 0
M  V30 5665 C 526.78 -1.25626 2.86683 0
M  V30 5666 C 527.255 -1.61772 4.28479 0
M  V30 5667 N 528.746 -1.68797 4.31349 0
M  V30 5668 C 529.481 -1.98235 5.38043 0
M  V30 5669 N 528.977 -2.2581 6.54967 0
M  V30 5670 N 530.77 -1.99593 5.2547 0
M  V30 5671 H 522.921 0.271123 2.10662 0
M  V30 5672 H 525.184 0.058735 0.946179 0
M  V30 5673 H 524.89 -0.375614 3.49688 0
M  V30 5674 H 524.764 -2.08919 3.14058 0
M  V30 5675 H 527.151 -2.02014 2.15114 0
M  V30 5676 H 527.232 -0.296072 2.54081 0
M  V30 5677 H 526.876 -0.859295 5.00578 0
M  V30 5678 H 526.806 -2.58912 4.58554 0
M  V30 5679 H 529.297 -1.49595 3.4703 0
M  V30 5680 H 529.61 -2.47497 7.32096 0
M  V30 5681 H 527.955 -2.23239 6.58171 0
M  V30 5682 H 531.146 -1.77535 4.33127 0
M  V30 5683 H 531.319 -2.222 6.08713 0
M  V30 5684 N 524.725 -1.39134 -0.740242 0
M  V30 5685 C 525.655 -1.40165 -1.86751 0
M  V30 5686 C 526.636 -0.265708 -1.68012 0
M  V30 5687 O 527.821 -0.47076 -1.88408 0
M  V30 5688 C 524.951 -1.2392 -3.2444 0
M  V30 5689 C 523.905 -2.34858 -3.57807 0
M  V30 5690 C 523.231 -2.03707 -4.94376 0
M  V30 5691 C 524.531 -3.77159 -3.61315 0
M  V30 5692 H 526.225 -2.345 -1.86145 0
M  V30 5693 H 523.771 -1.12875 -0.89416 0
M  V30 5694 H 525.724 -1.23263 -4.02969 0
M  V30 5695 H 524.448 -0.26051 -3.25559 0
M  V30 5696 H 523.107 -2.34723 -2.81604 0
M  V30 5697 H 522.755 -1.04289 -4.9207 0
M  V30 5698 H 522.455 -2.78016 -5.17669 0
M  V30 5699 H 523.979 -2.04691 -5.75268 0
M  V30 5700 H 525.393 -3.79252 -4.29931 0
M  V30 5701 H 523.79 -4.50784 -3.96124 0
M  V30 5702 H 524.86 -4.08513 -2.61238 0
M  V30 5703 N 526.204 0.969867 -1.24223 0
M  V30 5704 C 527.151 2.06407 -1.0327 0
M  V30 5705 C 528.121 1.66014 0.0533 0
M  V30 5706 O 529.306 1.90533 -0.100896 0
M  V30 5707 C 526.446 3.3909 -0.641262 0
M  V30 5708 C 525.559 3.9269 -1.80051 0
M  V30 5709 C 524.694 5.13631 -1.35486 0
M  V30 5710 C 523.733 5.59423 -2.48419 0
M  V30 5711 N 522.87 6.71586 -2.04737 0
M  V30 5712 H 527.71 2.23663 -1.96923 0
M  V30 5713 H 525.247 1.09624 -0.980862 0
M  V30 5714 H 527.205 4.15323 -0.395351 0
M  V30 5715 H 525.835 3.21765 0.258269 0
M  V30 5716 H 524.887 3.13116 -2.16014 0
M  V30 5717 H 526.199 4.22636 -2.64916 0
M  V30 5718 H 525.353 5.97231 -1.0677 0
M  V30 5719 H 524.092 4.85364 -0.476722 0
M  V30 5720 H 523.097 4.74398 -2.77897 0
M  V30 5721 H 524.322 5.89705 -3.36786 0
M  V30 5722 H 522.268 6.45058 -1.19318 0
M  V30 5723 H 522.185 7.0097 -2.83156 0
M  V30 5724 H 523.453 7.58633 -1.79154 0
M  V30 5725 N 527.682 1.05563 1.17022 0
M  V30 5726 C 528.632 0.630007 2.19123 0
M  V30 5727 C 529.616 -0.335472 1.57364 0
M  V30 5728 O 530.808 -0.1521 1.76345 0
M  V30 5729 C 527.937 0.0101676 3.43298 0
M  V30 5730 C 527.023 0.999698 4.12149 0
M  V30 5731 N 527.414 2.17251 4.56766 0
M  V30 5732 C 525.712 0.829 4.38228 0
M  V30 5733 C 526.413 2.79883 5.09942 0
M  V30 5734 N 525.389 2.07656 5.02374 0
M  V30 5735 H 529.191 1.52353 2.51328 0
M  V30 5736 H 526.705 0.926288 1.33393 0
M  V30 5737 H 528.702 -0.312541 4.15727 0
M  V30 5738 H 527.362 -0.878707 3.12584 0
M  V30 5739 H 528.373 2.55067 4.50734 0
M  V30 5740 H 525.05 -0.00850974 4.17499 0
M  V30 5741 H 526.44 3.79362 5.54558 0
M  V30 5742 N 529.16 -1.33526 0.837174 0
M  V30 5743 C 530.576 -1.50727 0.524743 0
M  V30 5744 C 530.776 -1.77792 -0.948279 0
M  V30 5745 O 529.832 -1.83719 -1.73216 0
M  V30 5746 C 531.145 -2.66299 1.39661 0
M  V30 5747 C 532.693 -2.80183 1.39521 0
M  V30 5748 C 533.168 -3.98815 2.25189 0
M  V30 5749 N 534.659 -4.06047 2.2289 0
M  V30 5750 C 535.394 -4.97032 2.85915 0
M  V30 5751 N 534.89 -5.93143 3.57985 0
M  V30 5752 N 536.683 -4.90015 2.75394 0
M  V30 5753 H 528.834 -1.1422 1.79074 0
M  V30 5754 H 531.097 -0.561399 0.763894 0
M  V30 5755 H 530.803 -2.52974 2.4433 0
M  V30 5756 H 530.677 -3.61663 1.07145 0
M  V30 5757 H 533.064 -2.92942 0.356253 0
M  V30 5758 H 533.145 -1.85586 1.76044 0
M  V30 5759 H 532.789 -3.86817 3.29143 0
M  V30 5760 H 532.719 -4.92654 1.86009 0
M  V30 5761 H 535.21 -3.37262 1.70478 0
M  V30 5762 H 535.523 -6.59227 4.03286 0
M  V30 5763 H 533.868 -5.93223 3.62093 0
M  V30 5764 H 537.059 -4.13894 2.18654 0
M  V30 5765 H 537.232 -5.60724 3.24796 0
M  V30 5766 N 530.638 -0.59345 -1.46 0
M  V30 5767 C 531.585 0.133618 -2.30413 0
M  V30 5768 C 532.555 0.873736 -1.41262 0
M  V30 5769 O 533.74 0.862279 -1.70204 0
M  V30 5770 C 530.88 1.13434 -3.25924 0
M  V30 5771 C 529.993 0.39656 -4.30176 0
M  V30 5772 C 529.128 1.38575 -5.12806 0
M  V30 5773 C 528.167 0.634984 -6.08797 0
M  V30 5774 N 527.304 1.57276 -6.84258 0
M  V30 5775 H 532.144 -0.592252 -2.92055 0
M  V30 5776 H 529.681 -0.303874 -1.43927 0
M  V30 5777 H 531.639 1.72752 -3.79753 0
M  V30 5778 H 530.269 1.82779 -2.66067 0
M  V30 5779 H 529.321 -0.311861 -3.79119 0
M  V30 5780 H 530.633 -0.189869 -4.98438 0
M  V30 5781 H 529.787 2.05141 -5.70966 0
M  V30 5782 H 528.526 2.00611 -4.44529 0
M  V30 5783 H 527.531 -0.0443925 -5.49782 0
M  V30 5784 H 528.756 0.0198678 -6.79097 0
M  V30 5785 H 526.702 2.18103 -6.18682 0
M  V30 5786 H 526.619 1.03941 -7.48821 0
M  V30 5787 H 527.887 2.22844 -7.46968 0
M  V30 5788 N 532.116 1.54067 -0.331816 0
M  V30 5789 C 533.046 2.27569 0.522932 0
M  V30 5790 C 534.027 1.28679 1.11247 0
M  V30 5791 O 535.212 1.57504 1.13605 0
M  V30 5792 C 532.342 3.0397 1.67987 0
M  V30 5793 C 531.296 4.10267 1.21924 0
M  V30 5794 C 530.622 4.74555 2.46377 0
M  V30 5795 C 531.922 5.21268 0.32815 0
M  V30 5796 H 533.616 2.99264 -0.0901977 0
M  V30 5797 H 531.162 1.4393 -0.044821 0
M  V30 5798 H 533.115 3.54123 2.28418 0
M  V30 5799 H 531.839 2.29906 2.31971 0
M  V30 5800 H 530.498 3.61009 0.637809 0
M  V30 5801 H 530.146 3.97098 3.08743 0
M  V30 5802 H 529.846 5.46363 2.16243 0
M  V30 5803 H 531.37 5.27487 3.07555 0
M  V30 5804 H 532.784 5.67128 0.838978 0
M  V30 5805 H 531.181 5.99982 0.119228 0
M  V30 5806 H 532.251 4.80673 -0.638839 0
M  V30 5807 N 533.594 0.0601682 1.57485 0
M  V30 5808 C 535.01 -0.296422 1.56823 0
M  V30 5809 C 535.21 -1.70831 1.0686 0
M  V30 5810 O 534.266 -2.4174 0.729245 0
M  V30 5811 C 535.579 -0.116681 3.00474 0
M  V30 5812 C 537.127 -0.187103 3.1244 0
M  V30 5813 C 537.602 -0.035783 4.57986 0
M  V30 5814 N 539.093 -0.0917676 4.63109 0
M  V30 5815 C 539.828 0.00107251 5.734 0
M  V30 5816 N 539.324 0.146773 6.92645 0
M  V30 5817 N 541.117 -0.0551577 5.62073 0
M  V30 5818 H 533.268 0.983055 1.88281 0
M  V30 5819 H 535.531 0.382386 0.867459 0
M  V30 5820 H 535.237 0.85712 3.41096 0
M  V30 5821 H 535.111 -0.873929 3.66936 0
M  V30 5822 H 537.498 -1.15138 2.71712 0
M  V30 5823 H 537.579 0.601052 2.48638 0
M  V30 5824 H 537.223 0.925212 4.99402 0
M  V30 5825 H 537.153 -0.843196 5.19806 0
M  V30 5826 H 539.644 -0.203261 3.77353 0
M  V30 5827 H 539.957 0.210076 7.72514 0
M  V30 5828 H 538.302 0.181979 6.94762 0
M  V30 5829 H 541.493 -0.167605 4.678 0
M  V30 5830 H 541.666 0.020652 6.47997 0
M  V30 5831 N 535.072 -1.5615 -0.213296 0
M  V30 5832 C 535.982 -1.96265 -1.28519 0
M  V30 5833 C 536.998 -0.86765 -1.50824 0
M  V30 5834 O 538.174 -1.17191 -1.63793 0
M  V30 5835 C 535.239 -2.27836 -2.61327 0
M  V30 5836 C 534.3 -3.50949 -2.47252 0
M  V30 5837 C 533.533 -3.81004 -3.73727 0
M  V30 5838 O 533.756 -3.12612 -4.77106 0
M  V30 5839 O 532.69 -4.74477 -3.70344 0
M  V30 5840 H 536.516 -2.87631 -0.974795 0
M  V30 5841 H 534.101 -1.43467 -0.416832 0
M  V30 5842 H 535.983 -2.49299 -3.39747 0
M  V30 5843 H 534.658 -1.39643 -2.9203 0
M  V30 5844 H 533.565 -3.34754 -1.67004 0
M  V30 5845 H 534.898 -4.39551 -2.21486 0
M  V30 5846 N 536.55 0.480323 -1.50102 0
M  V30 5847 C 537.482 1.59669 -1.64433 0
M  V30 5848 C 538.495 1.54063 -0.52615 0
M  V30 5849 O 539.684 1.59619 -0.798992 0
M  V30 5850 C 536.784 2.98527 -1.6042 0
M  V30 5851 C 535.957 3.291 -2.88117 0
M  V30 5852 C 535.016 4.47468 -2.76873 0
M  V30 5853 O 534.042 4.4823 -3.50825 0
M  V30 5854 N 535.244 5.48593 -1.89806 0
M  V30 5855 H 538.009 1.47795 -2.60723 0
M  V30 5856 H 535.57 0.66858 -1.4745 0
M  V30 5857 H 537.562 3.75666 -1.50523 0
M  V30 5858 H 536.132 3.04218 -0.719036 0
M  V30 5859 H 535.352 2.40662 -3.12211 0
M  V30 5860 H 536.64 3.46334 -3.72734 0
M  V30 5861 H 536.038 5.50791 -1.2902 0
M  V30 5862 H 534.595 6.24752 -1.85819 0
M  V30 5863 N 538.028 1.39524 0.732853 0
M  V30 5864 C 539.274 1.37068 1.49467 0
M  V30 5865 C 539.607 -0.0327166 1.94172 0
M  V30 5866 O 538.882 -0.998071 1.66939 0
M  V30 5867 C 539.165 2.34494 2.73285 0
M  V30 5868 C 539.018 3.83784 2.34585 0
M  V30 5869 C 540.337 2.29717 3.75391 0
M  V30 5870 H 537.456 0.499206 0.542183 0
M  V30 5871 H 540.098 1.70532 0.837783 0
M  V30 5872 H 538.248 2.06087 3.29333 0
M  V30 5873 H 539.92 4.22949 1.84151 0
M  V30 5874 H 538.163 4.00455 1.66787 0
M  V30 5875 H 538.834 4.47444 3.23262 0
M  V30 5876 H 541.31 2.54839 3.28932 0
M  V30 5877 H 540.186 2.99962 4.59689 0
M  V30 5878 H 540.447 1.30291 4.22465 0
M  V30 5879 N 539.506 -0.963266 1.24736 0
M  V30 5880 C 540.454 -2.07985 1.04139 0
M  V30 5881 C 541.448 -1.69381 -0.0250556 0
M  V30 5882 O 542.654 -1.79531 0.129863 0
M  V30 5883 H 539.029 -0.680627 0.319768 0
M  V30 5884 H 541 -2.22517 1.98818 0
M  V30 5885 C 539.749 -3.4123 0.667615 0
M  V30 5886 H 539.072 -3.71397 1.48 0
M  V30 5887 H 540.512 -4.20244 0.563136 0
M  V30 5888 C 538.971 -3.3104 -0.625647 0
M  V30 5889 O 539.501 -3.65334 -1.67016 0
M  V30 5890 N 537.707 -2.84168 -0.608033 0
M  V30 5891 H 537.254 -2.56458 0.242323 0
M  V30 5892 H 537.212 -2.77732 -1.47352 0
M  V30 5893 N 540.985 -1.06182 -1.16461 0
M  V30 5894 C 542.21 -0.798599 -1.91408 0
M  V30 5895 C 542.635 0.640987 -1.76842 0
M  V30 5896 O 541.993 1.44652 -1.09296 0
M  V30 5897 C 542.041 -1.19665 -3.40165 0
M  V30 5898 O 541.145 -0.334768 -4.11039 0
M  V30 5899 H 540.486 -0.291961 -0.596368 0
M  V30 5900 H 543.016 -1.41732 -1.47557 0
M  V30 5901 H 543.026 -1.16772 -3.90933 0
M  V30 5902 H 541.701 -2.24526 -3.50087 0
M  V30 5903 H 540.278 -0.425168 -3.70468 0
M  V30 5904 N 542.463 1.3308 -0.844243 0
M  V30 5905 C 543.396 2.27075 -0.226279 0
M  V30 5906 C 544.374 1.49911 0.629716 0
M  V30 5907 O 545.558 1.79068 0.588803 0
M  V30 5908 C 542.685 3.31767 0.681782 0
M  V30 5909 C 541.731 4.26384 -0.0994565 0
M  V30 5910 S 542.564 5.15186 -1.46094 0
M  V30 5911 C 543.72 6.23405 -0.558319 0
M  V30 5912 H 543.953 2.79141 -1.02312 0
M  V30 5913 H 541.486 1.40452 -0.641292 0
M  V30 5914 H 543.444 3.92566 1.20008 0
M  V30 5915 H 542.105 2.78507 1.45234 0
M  V30 5916 H 541.298 5.00514 0.591733 0
M  V30 5917 H 540.9 3.69949 -0.548991 0
M  V30 5918 H 543.192 6.77069 0.241672 0
M  V30 5919 H 544.135 6.96619 -1.26995 0
M  V30 5920 H 544.543 5.64333 -0.13728 0
M  V30 5921 N 543.941 0.601185 1.45683 0
M  V30 5922 C 545.187 0.0940202 2.02582 0
M  V30 5923 C 545.52 -1.26972 1.46941 0
M  V30 5924 O 544.795 -1.83613 0.641612 0
M  V30 5925 C 545.078 0.0481715 3.60068 0
M  V30 5926 C 544.931 1.44212 4.26055 0
M  V30 5927 C 546.25 -0.642975 4.35378 0
M  V30 5928 H 543.369 0.0356404 0.736138 0
M  V30 5929 H 546.011 0.771929 1.73612 0
M  V30 5930 H 544.161 -0.529128 3.8488 0
M  V30 5931 H 545.833 2.06601 4.12449 0
M  V30 5932 H 544.076 2.00465 3.84703 0
M  V30 5933 H 544.747 1.36234 5.34925 0
M  V30 5934 H 547.223 -0.152351 4.15821 0
M  V30 5935 H 546.099 -0.644141 5.45107 0
M  V30 5936 H 546.36 -1.70785 4.0778 0
M  V30 5937 N 545.419 -1.53889 0.339982 0
M  V30 5938 C 546.696 -1.93084 -0.312719 0
M  V30 5939 C 547.076 -1.2712 -1.68534 0
M  V30 5940 O 546.424 -0.420835 -2.24591 0
M  V30 5941 C 546.634 -3.4683 -0.388558 0
M  V30 5942 C 547.982 -4.19732 -0.641088 0
M  V30 5943 O 549.006 -3.53075 -0.470818 0
M  V30 5944 O 547.865 -5.3781 -0.970685 0
M  V30 5945 H 544.959 -0.806784 -0.18174 0
M  V30 5946 H 547.505 -1.65137 0.390898 0
M  V30 5947 H 546.277 -3.87055 0.574821 0
M  V30 5948 H 545.9 -3.80933 -1.1391 0
M  V30 5949 N 546.897 -0.0685191 -1.57451 0
M  V30 5950 C 548.146 0.600898 -1.92541 0
M  V30 5951 C 548.459 1.70967 -0.950239 0
M  V30 5952 O 549.665 2.43844 -1.19384 0
M  V30 5953 C 548.121 1.12019 -3.42023 0
M  V30 5954 C 547.729 0.0426028 -4.4798 0
M  V30 5955 C 549.473 1.76386 -3.86119 0
M  V30 5956 C 547.38 0.575759 -5.88591 0
M  V30 5957 H 546.31 0.228225 -0.71863 0
M  V30 5958 H 548.961 -0.140223 -1.82963 0
M  V30 5959 H 547.343 1.91418 -3.46663 0
M  V30 5960 H 548.517 -0.73182 -4.54952 0
M  V30 5961 H 546.832 -0.504642 -4.13331 0
M  V30 5962 H 549.429 2.17302 -4.88553 0
M  V30 5963 H 549.772 2.62255 -3.23308 0
M  V30 5964 H 550.305 1.03615 -3.84069 0
M  V30 5965 H 547.044 -0.245691 -6.55039 0
M  V30 5966 H 546.564 1.31778 -5.85145 0
M  V30 5967 H 548.243 1.0532 -6.3837 0
M  V30 5968 N 548.375 1.56261 0.205012 0
M  V30 5969 C 549.6 1.84491 0.947512 0
M  V30 5970 C 550.025 0.650894 1.76479 0
M  V30 5971 O 549.383 -0.40035 1.76824 0
M  V30 5972 C 549.431 3.10863 1.82747 0
M  V30 5973 O 548.535 2.90719 2.925 0
M  V30 5974 H 547.876 0.607783 0.267386 0
M  V30 5975 H 550.406 2.03485 0.213323 0
M  V30 5976 H 550.416 3.41399 2.23407 0
M  V30 5977 H 549.091 3.97392 1.2269 0
M  V30 5978 H 547.668 2.71457 2.55667 0
M  V30 5979 N 549.853 -0.472356 1.50355 0
M  V30 5980 C 550.8 -1.57051 1.69126 0
M  V30 5981 C 551.77 -1.5733 0.532574 0
M  V30 5982 O 552.955 -1.7488 0.762994 0
M  V30 5983 C 550.095 -2.95033 1.79024 0
M  V30 5984 C 549.208 -3.04552 3.06386 0
M  V30 5985 C 548.343 -4.33441 3.07087 0
M  V30 5986 C 547.382 -4.36697 4.28908 0
M  V30 5987 N 546.519 -5.57056 4.27356 0
M  V30 5988 H 551.359 -1.40351 2.62879 0
M  V30 5989 H 548.896 -0.682403 1.30314 0
M  V30 5990 H 550.854 -3.75048 1.82744 0
M  V30 5991 H 549.484 -3.10371 0.887109 0
M  V30 5992 H 548.536 -2.17419 3.12143 0
M  V30 5993 H 549.848 -3.02818 3.96362 0
M  V30 5994 H 549.002 -5.21801 3.09529 0
M  V30 5995 H 547.741 -4.37782 2.14939 0
M  V30 5996 H 546.746 -3.46734 4.2668 0
M  V30 5997 H 547.971 -4.34049 5.22282 0
M  V30 5998 H 545.917 -5.62184 3.3806 0
M  V30 5999 H 545.834 -5.57058 5.111 0
M  V30 6000 H 547.102 -6.47545 4.33942 0
M  V30 6001 N 551.331 -1.39911 -0.725443 0
M  V30 6002 C 552.264 -1.33788 -1.84867 0
M  V30 6003 C 553.242 -0.209907 -1.61239 0
M  V30 6004 O 554.426 -0.391943 -1.8438 0
M  V30 6005 C 551.553 -1.07975 -3.21028 0
M  V30 6006 C 550.599 -2.23092 -3.635 0
M  V30 6007 S 551.432 -3.85431 -3.71757 0
M  V30 6008 C 552.588 -3.61862 -5.10692 0
M  V30 6009 H 552.821 -2.28848 -1.89779 0
M  V30 6010 H 550.354 -1.26079 -0.891254 0
M  V30 6011 H 552.312 -0.937669 -3.99647 0
M  V30 6012 H 550.973 -0.145865 -3.13761 0
M  V30 6013 H 550.166 -2.00647 -4.62338 0
M  V30 6014 H 549.768 -2.33553 -2.92112 0
M  V30 6015 H 552.06 -3.19719 -5.97316 0
M  V30 6016 H 553.003 -4.60196 -5.38169 0
M  V30 6017 H 553.411 -2.95757 -4.8082 0
M  V30 6018 N 552.809 0.956637 -1.25245 0
M  V30 6019 C 553.759 2.03841 -1.02141 0
M  V30 6020 C 554.743 1.60848 0.0410058 0
M  V30 6021 O 555.935 1.76142 -0.174084 0
M  V30 6022 C 553.064 3.37282 -0.639963 0
M  V30 6023 C 552.15 3.86805 -1.73903 0
M  V30 6024 N 552.541 4.09143 -2.97381 0
M  V30 6025 C 550.839 4.15574 -1.61909 0
M  V30 6026 C 551.54 4.49923 -3.68707 0
M  V30 6027 N 550.516 4.55737 -2.96318 0
M  V30 6028 H 554.318 2.19102 -1.95886 0
M  V30 6029 H 551.832 1.1413 -1.15534 0
M  V30 6030 H 553.829 4.14403 -0.455643 0
M  V30 6031 H 552.489 3.23401 0.29018 0
M  V30 6032 H 553.5 3.96275 -3.33447 0
M  V30 6033 H 550.177 4.10566 -0.757764 0
M  V30 6034 H 551.567 4.75526 -4.74684 0
M  V30 6035 N 554.287 1.06798 1.15896 0
M  V30 6036 C 555.22 0.627503 2.19403 0
M  V30 6037 C 556.198 -0.352352 1.58736 0
M  V30 6038 O 557.382 -0.260111 1.86697 0
M  V30 6039 C 554.509 -0.079356 3.38607 0
M  V30 6040 C 553.555 0.858057 4.17779 0
M  V30 6041 S 554.388 2.35605 4.80885 0
M  V30 6042 C 555.544 1.66083 6.03463 0
M  V30 6043 H 555.777 1.50441 2.56427 0
M  V30 6044 H 553.31 0.881427 1.26768 0
M  V30 6045 H 555.268 -0.48095 4.07673 0
M  V30 6046 H 553.929 -0.932524 2.99938 0
M  V30 6047 H 553.122 0.310108 5.03045 0
M  V30 6048 H 552.724 1.19977 3.54234 0
M  V30 6049 H 555.016 0.969337 6.7053 0
M  V30 6050 H 555.959 2.49159 6.62816 0
M  V30 6051 H 556.367 1.14122 5.52844 0
M  V30 6052 N 555.766 -1.3263 0.851289 0
M  V30 6053 C 557.015 -1.96633 0.449267 0
M  V30 6054 C 557.328 -1.68131 -0.999562 0
M  V30 6055 O 558.534 -2.25845 -1.50685 0
M  V30 6056 C 556.99 -3.51946 0.752446 0
M  V30 6057 C 556.598 -3.89311 2.21678 0
M  V30 6058 C 558.342 -4.22437 0.417983 0
M  V30 6059 C 556.249 -5.37655 2.46336 0
M  V30 6060 H 555.179 -0.735888 0.164269 0
M  V30 6061 H 557.83 -1.51073 1.0416 0
M  V30 6062 H 556.212 -3.95899 0.0895858 0
M  V30 6063 H 557.386 -3.56378 2.92115 0
M  V30 6064 H 555.701 -3.31836 2.51543 0
M  V30 6065 H 558.298 -5.31549 0.579674 0
M  V30 6066 H 558.641 -4.11349 -0.640115 0
M  V30 6067 H 559.174 -3.84057 1.03659 0
M  V30 6068 H 555.913 -5.5376 3.50757 0
M  V30 6069 H 555.433 -5.72005 1.80473 0
M  V30 6070 H 557.112 -6.04695 2.30115 0
M  V30 6071 N 557.244 -0.608902 -1.45362 0
M  V30 6072 C 558.174 0.0964526 -2.33301 0
M  V30 6073 C 559.155 0.857444 -1.46908 0
M  V30 6074 O 560.34 0.827735 -1.75676 0
M  V30 6075 C 557.47 1.09354 -3.29635 0
M  V30 6076 C 556.424 0.445676 -4.25673 0
M  V30 6077 C 555.75 1.5511 -5.11708 0
M  V30 6078 C 557.05 -0.633972 -5.18438 0
M  V30 6079 H 558.744 -0.637829 -2.92527 0
M  V30 6080 H 556.29 -0.308178 -1.40664 0
M  V30 6081 H 558.243 1.59556 -3.90025 0
M  V30 6082 H 556.967 1.85843 -2.6857 0
M  V30 6083 H 555.626 -0.0354897 -3.66583 0
M  V30 6084 H 555.274 2.30631 -4.4701 0
M  V30 6085 H 554.974 1.12311 -5.76767 0
M  V30 6086 H 556.498 2.05537 -5.74967 0
M  V30 6087 H 557.912 -0.215974 -5.72893 0
M  V30 6088 H 556.309 -0.983789 -5.91981 0
M  V30 6089 H 557.379 -1.51005 -4.60788 0
M  V30 6090 N 558.722 1.53707 -0.348139 0
M  V30 6091 C 559.952 2.05108 0.247864 0
M  V30 6092 C 560.36 1.22252 1.44399 0
M  V30 6093 O 559.703 0.251853 1.81965 0
M  V30 6094 C 559.765 3.52171 0.722187 0
M  V30 6095 C 559.429 4.5562 -0.354902 0
M  V30 6096 C 560.426 5.05883 -1.19911 0
M  V30 6097 C 558.111 4.99703 -0.510145 0
M  V30 6098 C 560.105 5.98814 -2.18406 0
M  V30 6099 C 557.792 5.92443 -1.49848 0
M  V30 6100 C 558.79 6.41887 -2.33389 0
M  V30 6101 O 558.478 7.32802 -3.3054 0
M  V30 6102 H 558.21 0.674086 0.0508296 0
M  V30 6103 H 560.764 1.99229 -0.49968 0
M  V30 6104 H 558.994 3.55529 1.52105 0
M  V30 6105 H 560.683 3.8652 1.23925 0
M  V30 6106 H 561.449 4.72586 -1.09028 0
M  V30 6107 H 557.328 4.60816 0.130274 0
M  V30 6108 H 560.872 6.3733 -2.83649 0
M  V30 6109 H 556.769 6.25155 -1.60786 0
M  V30 6110 H 557.537 7.50749 -3.26064 0
M  V30 6111 N 560.2 0.0768682 1.57412 0
M  V30 6112 C 561.477 -0.632359 1.85096 0
M  V30 6113 C 561.857 -1.87479 0.9703 0
M  V30 6114 O 561.205 -2.28469 0.0379062 0
M  V30 6115 C 561.415 -0.965174 3.35388 0
M  V30 6116 C 562.763 -1.33648 4.03018 0
M  V30 6117 O 563.787 -1.05675 3.40164 0
M  V30 6118 O 562.646 -1.85959 5.13889 0
M  V30 6119 H 559.74 -0.314574 0.764835 0
M  V30 6120 H 562.286 0.108184 1.69355 0
M  V30 6121 H 561.058 -0.0829745 3.91212 0
M  V30 6122 H 560.681 -1.76231 3.5641 0
M  V30 6123 N 561.678 -1.56367 -0.196722 0
M  V30 6124 C 562.608 -1.97442 -1.24655 0
M  V30 6125 C 563.589 -0.846147 -1.47561 0
M  V30 6126 O 564.774 -1.11035 -1.59326 0
M  V30 6127 C 561.904 -2.31253 -2.59112 0
M  V30 6128 C 560.858 -3.46804 -2.50821 0
M  V30 6129 C 560.184 -3.66286 -3.89536 0
M  V30 6130 C 561.484 -4.8104 -2.03465 0
M  V30 6131 H 563.178 -2.85388 -0.905216 0
M  V30 6132 H 560.724 -1.37304 -0.434002 0
M  V30 6133 H 562.677 -2.58583 -3.32736 0
M  V30 6134 H 561.401 -1.40188 -2.94983 0
M  V30 6135 H 560.06 -3.19563 -1.79653 0
M  V30 6136 H 559.708 -2.72555 -4.22756 0
M  V30 6137 H 559.408 -4.4402 -3.84864 0
M  V30 6138 H 560.932 -3.9599 -4.64784 0
M  V30 6139 H 562.346 -5.07411 -2.66846 0
M  V30 6140 H 560.743 -5.62232 -2.09798 0
M  V30 6141 H 561.813 -4.74732 -0.98781 0
M  V30 6142 N 563.156 0.464375 -1.50603 0
M  V30 6143 C 564.088 1.57916 -1.66118 0
M  V30 6144 C 565.101 1.53497 -0.54246 0
M  V30 6145 O 566.29 1.58763 -0.815877 0
M  V30 6146 C 563.39 2.96809 -1.63577 0
M  V30 6147 C 562.563 3.26026 -2.91592 0
M  V30 6148 C 561.622 4.44506 -2.81604 0
M  V30 6149 O 560.648 4.44484 -3.55559 0
M  V30 6150 N 561.85 5.46549 -1.95614 0
M  V30 6151 H 564.615 1.45022 -2.62276 0
M  V30 6152 H 562.176 0.652903 -1.48151 0
M  V30 6153 H 564.168 3.74048 -1.54499 0
M  V30 6154 H 562.738 3.03438 -0.751262 0
M  V30 6155 H 561.958 2.37337 -3.14746 0
M  V30 6156 H 563.246 3.42361 -3.76386 0
M  V30 6157 H 562.644 5.49391 -1.34854 0
M  V30 6158 H 561.201 6.22746 -1.92435 0
M  V30 6159 N 564.634 1.40294 0.718013 0
M  V30 6160 C 565.566 1.36281 1.84283 0
M  V30 6161 C 566.579 0.268621 1.60569 0
M  V30 6162 O 567.768 0.528798 1.70487 0
M  V30 6163 C 564.868 1.09741 3.2064 0
M  V30 6164 C 564.041 2.30767 3.71571 0
M  V30 6165 C 563.1 2.00424 4.86535 0
M  V30 6166 O 562.126 2.73268 4.99313 0
M  V30 6167 N 563.328 0.980724 5.72156 0
M  V30 6168 H 566.093 2.3322 1.88225 0
M  V30 6169 H 563.654 1.34616 0.899453 0
M  V30 6170 H 565.646 0.874322 3.95143 0
M  V30 6171 H 564.216 0.214771 3.11861 0
M  V30 6172 H 563.436 2.68921 2.88228 0
M  V30 6173 H 564.724 3.11455 4.02335 0
M  V30 6174 H 564.122 0.377375 5.6444 0
M  V30 6175 H 562.679 0.817538 6.46653 0
M  V30 6176 N 566.112 -0.949982 1.2575 0
M  V30 6177 C 567.06 -2.06869 1.06339 0
M  V30 6178 C 568.054 -1.69399 -0.00708901 0
M  V30 6179 O 569.26 -1.79383 0.148897 0
M  V30 6180 H 565.635 -0.677197 0.326969 0
M  V30 6181 H 567.606 -2.20396 2.01167 0
M  V30 6182 C 566.355 -3.40503 0.703769 0
M  V30 6183 H 565.678 -3.69807 1.51931 0
M  V30 6184 H 567.118 -4.19623 0.607677 0
M  V30 6185 C 565.577 -3.31685 -0.5905 0
M  V30 6186 O 566.107 -3.67085 -1.63131 0
M  V30 6187 N 564.313 -2.84797 -0.577859 0
M  V30 6188 H 563.86 -2.56186 0.26951 0
M  V30 6189 H 563.818 -2.79279 -1.44398 0
M  V30 6190 N 567.59 -1.07411 -1.15328 0
M  V30 6191 C 568.52 -0.716472 -2.22236 0
M  V30 6192 C 569.501 0.296373 -1.67498 0
M  V30 6193 O 570.686 0.168989 -1.93463 0
M  V30 6194 C 567.816 -0.114142 -3.47112 0
M  V30 6195 C 566.77 -1.05421 -4.14814 0
M  V30 6196 C 566.096 -0.314604 -5.33774 0
M  V30 6197 C 567.396 -2.38808 -4.64508 0
M  V30 6198 H 569.09 -1.61029 -2.52408 0
M  V30 6199 H 566.636 -0.775702 -1.21321 0
M  V30 6200 H 568.589 0.148001 -4.2114 0
M  V30 6201 H 567.313 0.814755 -3.16274 0
M  V30 6202 H 565.972 -1.30128 -3.42728 0
M  V30 6203 H 565.62 0.617772 -4.99192 0
M  V30 6204 H 565.32 -0.941209 -5.80013 0
M  V30 6205 H 566.844 -0.0602747 -6.1057 0
M  V30 6206 H 568.258 -2.18424 -5.3006 0
M  V30 6207 H 566.655 -2.97069 -5.21412 0
M  V30 6208 H 567.725 -3.01067 -3.80114 0
M  V30 6209 N 569.068 1.32177 -0.85831 0
M  V30 6210 C 570.293 2.01847 -0.476718 0
M  V30 6211 C 570.718 1.64065 0.920021 0
M  V30 6212 O 570.076 0.843189 1.60499 0
M  V30 6213 C 570.124 3.55097 -0.627578 0
M  V30 6214 O 569.228 4.11012 0.338086 0
M  V30 6215 H 568.569 0.635907 -0.191099 0
M  V30 6216 H 571.099 1.68641 -1.15851 0
M  V30 6217 H 571.109 4.04718 -0.516476 0
M  V30 6218 H 569.784 3.81938 -1.64609 0
M  V30 6219 H 568.361 3.72451 0.182917 0
M  V30 6220 N 570.547 0.616602 1.45037 0
M  V30 6221 C 571.772 0.120192 2.07051 0
M  V30 6222 C 572.197 -1.19008 1.45666 0
M  V30 6223 O 571.555 -1.7267 0.552692 0
M  V30 6224 C 571.603 0.00354901 3.606 0
M  V30 6225 O 570.707 -1.04431 3.98958 0
M  V30 6226 H 570.048 0.0781599 0.659384 0
M  V30 6227 H 572.578 0.849167 1.86146 0
M  V30 6228 H 572.588 -0.191754 4.07549 0
M  V30 6229 H 571.263 0.960239 4.04663 0
M  V30 6230 H 569.84 -0.824749 3.63665 0
M  V30 6231 N 572.025 -1.5352 0.356285 0
M  V30 6232 C 573.25 -2.06007 -0.239961 0
M  V30 6233 C 573.675 -1.22872 -1.42422 0
M  V30 6234 O 573.033 -0.245516 -1.7963 0
M  V30 6235 C 573.081 -3.5522 -0.620587 0
M  V30 6236 O 572.185 -3.74864 -1.71902 0
M  V30 6237 H 571.526 -0.662961 -0.0371377 0
M  V30 6238 H 574.056 -1.98033 0.514194 0
M  V30 6239 H 574.066 -3.98081 -0.894197 0
M  V30 6240 H 572.741 -4.15175 0.245407 0
M  V30 6241 H 571.318 -3.43904 -1.44169 0
M  V30 6242 N 573.503 -0.0852151 -1.57369 0
M  V30 6243 C 574.453 0.88767 -2.10011 0
M  V30 6244 C 575.437 1.25021 -1.01285 0
M  V30 6245 O 576.629 1.22694 -1.27574 0
M  V30 6246 C 573.758 2.15037 -2.67608 0
M  V30 6247 C 572.844 1.81371 -3.83361 0
M  V30 6248 N 573.235 1.18216 -4.91791 0
M  V30 6249 C 571.533 2.11041 -3.92909 0
M  V30 6250 C 572.234 1.02941 -5.72519 0
M  V30 6251 N 571.21 1.54351 -5.21226 0
M  V30 6252 H 575.012 0.395279 -2.9123 0
M  V30 6253 H 572.526 0.11829 -1.61969 0
M  V30 6254 H 574.523 2.85667 -3.03644 0
M  V30 6255 H 573.183 2.64851 -1.8784 0
M  V30 6256 H 574.194 0.850168 -5.10874 0
M  V30 6257 H 570.871 2.63138 -3.24136 0
M  V30 6258 H 572.261 0.536298 -6.69756 0
M  V30 6259 N 574.981 1.5647 0.188427 0
M  V30 6260 C 576.397 1.50204 0.539532 0
M  V30 6261 C 576.597 0.78644 1.85519 0
M  V30 6262 O 575.653 0.339714 2.50204 0
M  V30 6263 C 576.966 2.94893 0.588103 0
M  V30 6264 C 578.514 3.05602 0.67648 0
M  V30 6265 C 578.989 4.51716 0.756101 0
M  V30 6266 N 580.48 4.55894 0.819451 0
M  V30 6267 C 581.215 5.66272 0.90134 0
M  V30 6268 N 580.711 6.86323 0.945118 0
M  V30 6269 N 582.504 5.54201 0.939043 0
M  V30 6270 H 574.655 2.01406 -0.674493 0
M  V30 6271 H 576.918 0.916828 -0.241103 0
M  V30 6272 H 576.624 3.50334 -0.309633 0
M  V30 6273 H 576.498 3.4861 1.44051 0
M  V30 6274 H 578.885 2.50206 1.56465 0
M  V30 6275 H 578.966 2.54999 -0.202262 0
M  V30 6276 H 578.61 5.07739 -0.12774 0
M  V30 6277 H 578.54 5.00058 1.65074 0
M  V30 6278 H 581.031 3.69452 0.794594 0
M  V30 6279 H 581.344 7.66194 1.0083 0
M  V30 6280 H 579.689 6.88968 0.913683 0
M  V30 6281 H 582.88 4.59333 0.901725 0
M  V30 6282 H 583.053 6.40247 0.999402 0
M  V30 6283 N 576.459 -0.456382 1.50847 0
M  V30 6284 C 577.422 -1.53493 1.70213 0
M  V30 6285 C 578.422 -1.50264 0.572481 0
M  V30 6286 O 579.612 -1.52623 0.839751 0
M  V30 6287 C 576.744 -2.93091 1.741 0
M  V30 6288 H 577.937 -1.37633 2.66453 0
M  V30 6289 H 575.49 -0.683776 1.4055 0
M  V30 6290 H 576.225 -3.14378 0.796063 0
M  V30 6291 H 576.01 -2.9684 2.5618 0
M  V30 6292 H 577.5 -3.71368 1.90987 0
M  V30 6293 N 577.937 -1.40673 -0.710563 0
M  V30 6294 C 578.867 -1.44095 -1.83736 0
M  V30 6295 C 579.848 -0.301286 -1.67411 0
M  V30 6296 O 581.033 -0.510618 -1.87367 0
M  V30 6297 C 578.163 -1.30773 -3.21738 0
M  V30 6298 C 577.117 -2.42395 -3.52745 0
M  V30 6299 C 576.443 -2.14147 -4.89944 0
M  V30 6300 C 577.743 -3.84738 -3.53234 0
M  V30 6301 H 579.437 -2.38396 -1.81129 0
M  V30 6302 H 576.983 -1.14746 -0.870017 0
M  V30 6303 H 578.936 -1.31783 -4.00264 0
M  V30 6304 H 577.66 -0.329507 -3.24934 0
M  V30 6305 H 576.319 -2.40643 -2.76562 0
M  V30 6306 H 575.967 -1.14703 -4.89747 0
M  V30 6307 H 575.667 -2.88934 -5.11655 0
M  V30 6308 H 577.191 -2.16848 -5.70797 0
M  V30 6309 H 578.605 -3.88286 -4.2179 0
M  V30 6310 H 577.002 -4.59085 -3.86473 0
M  V30 6311 H 578.072 -4.13962 -2.52514 0
M  V30 6312 N 579.415 0.9433 -1.26252 0
M  V30 6313 C 580.325 2.07532 -1.09397 0
M  V30 6314 C 581.341 1.73977 -0.0280449 0
M  V30 6315 O 582.517 2.00067 -0.231337 0
M  V30 6316 C 579.582 3.39002 -0.726523 0
M  V30 6317 C 578.643 3.86353 -1.87163 0
M  V30 6318 C 577.876 5.11549 -1.52162 0
M  V30 6319 O 578.099 5.68834 -0.422385 0
M  V30 6320 O 577.033 5.53889 -2.35565 0
M  V30 6321 H 580.859 2.24658 -2.04359 0
M  V30 6322 H 578.444 1.05988 -1.05295 0
M  V30 6323 H 580.326 4.18 -0.534236 0
M  V30 6324 H 579.001 3.2312 0.193721 0
M  V30 6325 H 577.908 3.0831 -2.11886 0
M  V30 6326 H 579.241 4.06752 -2.77152 0
M  V30 6327 N 580.893 1.08022 1.14757 0
M  V30 6328 C 581.84 0.706657 2.19716 0
M  V30 6329 C 582.81 -0.30525 1.63271 0
M  V30 6330 O 583.995 -0.19015 1.8985 0
M  V30 6331 C 581.135 0.117914 3.44898 0
M  V30 6332 C 580.248 1.18212 4.15512 0
M  V30 6333 C 579.383 0.557659 5.28265 0
M  V30 6334 C 578.422 1.60418 5.90705 0
M  V30 6335 N 577.559 1.0018 6.94916 0
M  V30 6336 H 582.399 1.60603 2.51019 0
M  V30 6337 H 579.936 0.802664 1.23271 0
M  V30 6338 H 581.894 -0.241112 4.16503 0
M  V30 6339 H 580.524 -0.744788 3.1409 0
M  V30 6340 H 579.576 1.65863 3.42335 0
M  V30 6341 H 580.888 1.97533 4.5802 0
M  V30 6342 H 580.042 0.146654 6.06523 0
M  V30 6343 H 578.781 -0.267249 4.86967 0
M  V30 6344 H 577.786 2.02489 5.11154 0
M  V30 6345 H 579.011 2.43149 6.34078 0
M  V30 6346 H 576.957 0.197917 6.55701 0
M  V30 6347 H 576.874 1.73216 7.35889 0
M  V30 6348 H 578.142 0.616523 7.77058 0
M  V30 6349 N 582.371 -1.3172 0.865308 0
M  V30 6350 C 583.303 -2.27545 0.274906 0
M  V30 6351 C 584.316 -1.52887 -0.559413 0
M  V30 6352 O 585.505 -1.74361 -0.382166 0
M  V30 6353 C 582.605 -3.33006 -0.629286 0
M  V30 6354 C 581.778 -4.37063 0.171553 0
M  V30 6355 C 580.837 -5.22044 -0.660052 0
M  V30 6356 O 579.863 -5.69129 -0.0897527 0
M  V30 6357 N 581.065 -5.45946 -1.97289 0
M  V30 6358 H 583.83 -2.78848 1.09836 0
M  V30 6359 H 581.391 -1.44693 0.726331 0
M  V30 6360 H 583.383 -3.86772 -1.19121 0
M  V30 6361 H 581.953 -2.81782 -1.35342 0
M  V30 6362 H 581.173 -3.83436 0.914919 0
M  V30 6363 H 582.461 -5.03662 0.721235 0
M  V30 6364 H 581.859 -5.0944 -2.45942 0
M  V30 6365 H 580.416 -6.02665 -2.4827 0
M  V30 6366 N 583.85 -0.624285 -1.44708 0
M  V30 6367 C 585.099 -0.123539 -2.01321 0
M  V30 6368 C 585.412 1.25966 -1.49639 0
M  V30 6369 O 586.618 1.85405 -1.98336 0
M  V30 6370 C 585.074 -0.170124 -3.59498 0
M  V30 6371 C 584.682 -1.55421 -4.20176 0
M  V30 6372 C 586.426 0.274513 -4.23611 0
M  V30 6373 C 584.332 -1.55628 -5.70556 0
M  V30 6374 H 583.263 -0.0424183 -0.752806 0
M  V30 6375 H 585.913 -0.782076 -1.65999 0
M  V30 6376 H 584.296 0.555385 -3.92086 0
M  V30 6377 H 585.47 -2.30276 -3.99136 0
M  V30 6378 H 583.784 -1.94235 -3.68323 0
M  V30 6379 H 586.382 0.292402 -5.339 0
M  V30 6380 H 586.725 1.3005 -3.95465 0
M  V30 6381 H 587.258 -0.398275 -3.95801 0
M  V30 6382 H 583.997 -2.56041 -6.03426 0
M  V30 6383 H 583.517 -0.850563 -5.93739 0
M  V30 6384 H 585.196 -1.28721 -6.34066 0
M  V30 6385 N 585.328 1.53329 -0.364422 0
M  V30 6386 C 586.605 1.93557 0.281962 0
M  V30 6387 C 586.985 1.29786 1.6649 0
M  V30 6388 O 586.333 0.456512 2.23893 0
M  V30 6389 C 586.543 3.47405 0.333331 0
M  V30 6390 C 587.891 4.20699 0.574231 0
M  V30 6391 O 588.915 3.53779 0.414588 0
M  V30 6392 O 587.774 5.39287 0.885002 0
M  V30 6393 H 584.868 0.809573 0.168881 0
M  V30 6394 H 587.414 1.64494 -0.417121 0
M  V30 6395 H 586.186 3.86091 -0.636326 0
M  V30 6396 H 585.809 3.82697 1.07836 0
M  V30 6397 N 586.806 0.0935595 1.57322 0
M  V30 6398 C 588.034 -0.578934 1.98635 0
M  V30 6399 C 588.449 -1.61819 0.972626 0
M  V30 6400 O 587.806 -1.82461 -0.0379638 0
M  V30 6401 C 587.857 -1.22802 3.40003 0
M  V30 6402 O 587.578 -0.230334 4.37494 0
M  V30 6403 C 589.079 -1.98627 3.96311 0
M  V30 6404 H 586.299 -0.155324 0.652775 0
M  V30 6405 H 588.843 0.172393 2.03772 0
M  V30 6406 H 586.998 -1.93029 3.35885 0
M  V30 6407 H 587.412 -0.698649 5.19826 0
M  V30 6408 H 588.886 -2.39405 4.97382 0
M  V30 6409 H 589.363 -2.85151 3.34044 0
M  V30 6410 H 589.969 -1.3322 4.03897 0
M  V30 6411 N 588.284 -1.56567 -0.180126 0
M  V30 6412 C 589.214 -1.98753 -1.22553 0
M  V30 6413 C 590.195 -0.86175 -1.46656 0
M  V30 6414 O 591.38 -1.12719 -1.58139 0
M  V30 6415 C 588.51 -2.33988 -2.56645 0
M  V30 6416 C 587.464 -3.49445 -2.47128 0
M  V30 6417 C 586.79 -3.70397 -3.8563 0
M  V30 6418 C 588.09 -4.83171 -1.98352 0
M  V30 6419 H 589.784 -2.86332 -0.874896 0
M  V30 6420 H 587.33 -1.37757 -0.419414 0
M  V30 6421 H 589.283 -2.62097 -3.29974 0
M  V30 6422 H 588.007 -1.43309 -2.93479 0
M  V30 6423 H 586.666 -3.2145 -1.76254 0
M  V30 6424 H 586.314 -2.77023 -4.19842 0
M  V30 6425 H 586.014 -4.48077 -3.80132 0
M  V30 6426 H 587.538 -4.00897 -4.60558 0
M  V30 6427 H 588.952 -5.10213 -2.61449 0
M  V30 6428 H 587.349 -5.64425 -2.03823 0
M  V30 6429 H 588.419 -4.75753 -0.937402 0
M  V30 6430 N 589.762 0.448376 -1.51087 0
M  V30 6431 C 590.725 1.52588 -1.71025 0
M  V30 6432 C 591.725 1.49958 -0.580442 0
M  V30 6433 O 592.915 1.52176 -0.847833 0
M  V30 6434 C 590.047 2.92163 -1.75652 0
M  V30 6435 H 591.24 1.36218 -2.67179 0
M  V30 6436 H 588.793 0.676313 -1.4091 0
M  V30 6437 H 589.528 3.13951 -0.812724 0
M  V30 6438 H 589.313 2.95478 -2.57751 0
M  V30 6439 H 590.803 3.70349 -1.92953 0
M  V30 6440 N 591.24 1.41047 0.703093 0
M  V30 6441 C 592.488 1.39723 1.4602 0
M  V30 6442 C 592.809 0.00461257 1.94999 0
M  V30 6443 O 592.079 -0.952292 1.71196 0
M  V30 6444 H 590.659 0.514281 0.541779 0
M  V30 6445 H 593.321 1.76217 0.832678 0
M  V30 6446 H 592.417 2.07982 2.32701 0
M  V30 6447 N 592.718 -0.936591 1.26751 0
M  V30 6448 C 593.665 -2.03597 1.08706 0
M  V30 6449 C 594.635 -1.66097 -0.00926542 0
M  V30 6450 O 595.82 -1.90199 0.151377 0
M  V30 6451 C 592.96 -3.3727 0.73094 0
M  V30 6452 C 592.073 -3.87778 1.90399 0
M  V30 6453 C 591.208 -5.09859 1.49056 0
M  V30 6454 C 590.247 -5.5264 2.63164 0
M  V30 6455 N 589.384 -6.65921 2.22471 0
M  V30 6456 H 594.224 -2.18364 2.02784 0
M  V30 6457 H 591.761 -1.06985 1.00958 0
M  V30 6458 H 593.719 -4.14128 0.505328 0
M  V30 6459 H 592.349 -3.22337 -0.172868 0
M  V30 6460 H 591.401 -3.07279 2.2424 0
M  V30 6461 H 592.713 -4.15464 2.76028 0
M  V30 6462 H 591.867 -5.9419 1.22567 0
M  V30 6463 H 590.606 -4.8393 0.60524 0
M  V30 6464 H 589.611 -4.66863 2.90377 0
M  V30 6465 H 590.836 -5.80568 3.52303 0
M  V30 6466 H 588.782 -6.41667 1.36379 0
M  V30 6467 H 588.699 -6.93216 3.01641 0
M  V30 6468 H 589.967 -7.53616 1.99205 0
M  V30 6469 N 594.196 -1.08629 -1.14182 0
M  V30 6470 C 595.126 -0.740003 -2.21464 0
M  V30 6471 C 596.107 0.278591 -1.67803 0
M  V30 6472 O 597.292 0.148461 -1.93632 0
M  V30 6473 C 594.422 -0.150952 -3.46972 0
M  V30 6474 C 593.376 -1.09815 -4.13672 0
M  V30 6475 C 592.702 -0.3712 -5.3341 0
M  V30 6476 C 594.002 -2.43722 -4.61949 0
M  V30 6477 H 595.696 -1.63697 -2.50686 0
M  V30 6478 H 593.242 -0.788526 -1.20492 0
M  V30 6479 H 595.195 0.103325 -4.21273 0
M  V30 6480 H 593.919 0.781164 -3.1712 0
M  V30 6481 H 592.578 -1.33756 -3.41328 0
M  V30 6482 H 592.226 0.564792 -4.99819 0
M  V30 6483 H 591.926 -1.00267 -5.78982 0
M  V30 6484 H 593.45 -0.12503 -6.10472 0
M  V30 6485 H 594.864 -2.24034 -5.27714 0
M  V30 6486 H 593.261 -3.02582 -5.18232 0
M  V30 6487 H 594.331 -3.05082 -3.76899 0
M  V30 6488 N 595.674 1.31259 -0.872281 0
M  V30 6489 C 596.951 1.91362 -0.404943 0
M  V30 6490 C 597.331 1.79362 1.11321 0
M  V30 6491 O 596.679 1.20277 1.94283 0
M  V30 6492 C 596.889 3.3749 -0.888893 0
M  V30 6493 C 598.237 4.14593 -0.916384 0
M  V30 6494 O 599.261 3.46282 -0.834701 0
M  V30 6495 O 598.12 5.3661 -1.03498 0
M  V30 6496 H 595.214 0.818016 -0.121569 0
M  V30 6497 H 597.76 1.39912 -0.960346 0
M  V30 6498 H 596.532 3.40249 -1.93251 0
M  V30 6499 H 596.155 3.96375 -0.311932 0
M  V30 6500 N 597.152 0.631951 1.44375 0
M  V30 6501 C 598.115 -0.0628142 2.29114 0
M  V30 6502 C 599.115 -0.771494 1.41084 0
M  V30 6503 O 600.305 -0.615959 1.62947 0
M  V30 6504 C 597.437 -1.09953 3.22681 0
M  V30 6505 H 598.63 0.682509 2.92031 0
M  V30 6506 H 596.183 0.392128 1.51301 0
M  V30 6507 H 596.918 -1.87481 2.64616 0
M  V30 6508 H 596.703 -0.595286 3.87555 0
M  V30 6509 H 598.193 -1.58538 3.86336 0
M  V30 6510 N 598.631 -1.53133 0.372548 0
M  V30 6511 C 599.561 -2.28876 -0.462412 0
M  V30 6512 C 600.542 -1.31583 -1.07796 0
M  V30 6513 O 601.727 -1.60461 -1.09389 0
M  V30 6514 C 598.857 -3.08317 -1.59868 0
M  V30 6515 C 597.811 -4.13355 -1.11003 0
M  V30 6516 C 597.137 -4.8092 -2.33708 0
M  V30 6517 C 598.437 -5.21955 -0.18983 0
M  V30 6518 H 600.131 -2.9892 0.169511 0
M  V30 6519 H 597.677 -1.43761 0.0829658 0
M  V30 6520 H 599.63 -3.60055 -2.18949 0
M  V30 6521 H 598.354 -2.35976 -2.25794 0
M  V30 6522 H 597.013 -3.62573 -0.541869 0
M  V30 6523 H 596.661 -4.05144 -2.98106 0
M  V30 6524 H 596.361 -5.51904 -2.01682 0
M  V30 6525 H 597.885 -5.35455 -2.93462 0
M  V30 6526 H 599.299 -5.69153 -0.688319 0
M  V30 6527 H 597.696 -6.00087 0.0398887 0
M  V30 6528 H 598.766 -4.78811 0.766057 0
M  V30 6529 N 600.109 -0.101901 -1.5727 0
M  V30 6530 C 601.337 0.568392 -1.98939 0
M  V30 6531 C 601.752 1.61301 -0.981194 0
M  V30 6532 O 601.109 1.82478 0.0282869 0
M  V30 6533 C 601.16 1.20997 -3.40649 0
M  V30 6534 O 600.881 0.207129 -4.3761 0
M  V30 6535 C 602.382 1.96523 -3.97358 0
M  V30 6536 H 599.602 0.15186 -0.65359 0
M  V30 6537 H 602.146 -0.183198 -2.03678 0
M  V30 6538 H 600.301 1.91245 -3.36904 0
M  V30 6539 H 600.715 0.671071 -5.20189 0
M  V30 6540 H 602.189 2.36764 -4.98645 0
M  V30 6541 H 602.666 2.83376 -3.35552 0
M  V30 6542 H 603.272 1.31076 -4.04598 0
M  V30 6543 N 601.587 1.56661 0.17182 0
M  V30 6544 C 602.497 1.99604 1.2327 0
M  V30 6545 C 603.513 0.907333 1.4847 0
M  V30 6546 O 604.689 1.21492 1.60629 0
M  V30 6547 C 601.754 2.34685 2.55194 0
M  V30 6548 C 600.815 3.57381 2.3786 0
M  V30 6549 C 600.048 3.90779 3.63494 0
M  V30 6550 O 600.271 3.25152 4.6865 0
M  V30 6551 O 599.205 4.84129 3.57634 0
M  V30 6552 H 603.031 2.90114 0.898192 0
M  V30 6553 H 600.616 1.44522 0.378647 0
M  V30 6554 H 602.498 2.5822 3.33017 0
M  V30 6555 H 601.173 1.47336 2.88225 0
M  V30 6556 H 600.08 3.39064 1.5807 0
M  V30 6557 H 601.413 4.45268 2.09754 0
M  V30 6558 N 603.065 -0.440357 1.51323 0
M  V30 6559 C 603.995 -1.54174 1.75364 0
M  V30 6560 C 604.976 -1.59039 0.603375 0
M  V30 6561 O 606.161 -1.74815 0.845774 0
M  V30 6562 C 603.291 -2.92277 1.87593 0
M  V30 6563 C 602.245 -3.02274 3.03009 0
M  V30 6564 C 601.571 -4.42327 3.00418 0
M  V30 6565 C 602.871 -2.76634 4.43024 0
M  V30 6566 H 604.565 -1.34307 2.67585 0
M  V30 6567 H 602.111 -0.644678 1.28763 0
M  V30 6568 H 604.064 -3.69284 2.02995 0
M  V30 6569 H 602.788 -3.13369 0.920179 0
M  V30 6570 H 601.447 -2.27706 2.87307 0
M  V30 6571 H 601.095 -4.60382 2.02626 0
M  V30 6572 H 600.795 -4.49946 3.77918 0
M  V30 6573 H 602.319 -5.21312 3.17909 0
M  V30 6574 H 603.733 -3.43376 4.59093 0
M  V30 6575 H 602.13 -2.95666 5.22208 0
M  V30 6576 H 603.2 -1.72262 4.5327 0
M  V30 6577 N 604.543 -1.41418 -0.695603 0
M  V30 6578 C 605.473 -1.46035 -1.82197 0
M  V30 6579 C 606.454 -0.319025 -1.67082 0
M  V30 6580 O 607.639 -0.530462 -1.86815 0
M  V30 6581 C 604.769 -1.34179 -3.20333 0
M  V30 6582 C 603.723 -2.46123 -3.50154 0
M  V30 6583 C 603.049 -2.19332 -4.87645 0
M  V30 6584 C 604.349 -3.88463 -3.49133 0
M  V30 6585 H 606.043 -2.40303 -1.78591 0
M  V30 6586 H 603.589 -1.15663 -0.857797 0
M  V30 6587 H 605.542 -1.36021 -3.98844 0
M  V30 6588 H 604.266 -0.363952 -3.24566 0
M  V30 6589 H 602.925 -2.43563 -2.73994 0
M  V30 6590 H 602.573 -1.19891 -4.88503 0
M  V30 6591 H 602.273 -2.94344 -5.08562 0
M  V30 6592 H 603.797 -2.22889 -5.68465 0
M  V30 6593 H 605.211 -3.92738 -4.17648 0
M  V30 6594 H 603.608 -4.63158 -3.81582 0
M  V30 6595 H 604.678 -4.16617 -2.48109 0
M  V30 6596 N 606.021 0.929856 -1.27246 0
M  V30 6597 C 607.246 1.71674 -1.16374 0
M  V30 6598 C 607.671 1.86064 0.276024 0
M  V30 6599 O 607.029 1.3591 1.19992 0
M  V30 6600 C 607.077 3.09526 -1.85003 0
M  V30 6601 O 606.181 3.96142 -1.14653 0
M  V30 6602 H 605.522 0.52629 -0.404863 0
M  V30 6603 H 608.052 1.16381 -1.68276 0
M  V30 6604 H 608.062 3.59852 -1.92276 0
M  V30 6605 H 606.737 2.98369 -2.89739 0
M  V30 6606 H 605.314 3.54584 -1.15433 0
M  V30 6607 N 607.499 1.09233 1.13605 0
M  V30 6608 C 608.727 0.848908 1.88683 0
M  V30 6609 C 609.142 -0.599667 1.79024 0
M  V30 6610 O 608.499 -1.41265 1.15544 0
M  V30 6611 C 608.55 1.27273 3.38355 0
M  V30 6612 O 608.271 2.66449 3.47759 0
M  V30 6613 C 609.772 1.0614 4.30406 0
M  V30 6614 H 606.992 0.305549 0.597395 0
M  V30 6615 H 609.536 1.4538 1.43823 0
M  V30 6616 H 607.691 0.711776 3.80805 0
M  V30 6617 H 608.105 2.84264 4.40788 0
M  V30 6618 H 609.579 1.40725 5.33761 0
M  V30 6619 H 610.056 -0.000960332 4.392 0
M  V30 6620 H 610.662 1.60821 3.93722 0
M  V30 6621 N 608.977 -1.30795 0.87923 0
M  V30 6622 C 609.94 -2.26563 0.346676 0
M  V30 6623 C 610.94 -1.52578 -0.507597 0
M  V30 6624 O 612.13 -1.71318 -0.315575 0
M  V30 6625 C 609.262 -3.37115 -0.506611 0
M  V30 6626 H 610.455 -2.75183 1.19223 0
M  V30 6627 H 608.008 -1.41886 0.655598 0
M  V30 6628 H 608.743 -2.93802 -1.37299 0
M  V30 6629 H 608.528 -3.91959 0.105218 0
M  V30 6630 H 610.018 -4.08412 -0.871192 0
M  V30 6631 N 610.455 -0.639598 -1.44038 0
M  V30 6632 C 611.385 0.0469443 -2.33453 0
M  V30 6633 C 612.366 0.82609 -1.48694 0
M  V30 6634 O 613.551 0.790285 -1.77393 0
M  V30 6635 C 610.681 1.02338 -3.3188 0
M  V30 6636 C 609.635 0.355284 -4.26523 0
M  V30 6637 C 608.961 1.44221 -5.14883 0
M  V30 6638 C 610.261 -0.743798 -5.16977 0
M  V30 6639 H 611.955 -0.699735 -2.91108 0
M  V30 6640 H 609.501 -0.337946 -1.39978 0
M  V30 6641 H 611.454 1.51247 -3.93322 0
M  V30 6642 H 610.178 1.80105 -2.72451 0
M  V30 6643 H 608.837 -0.113239 -3.66425 0
M  V30 6644 H 608.485 2.21097 -4.51802 0
M  V30 6645 H 608.185 1.00052 -5.79019 0
M  V30 6646 H 609.709 1.93295 -5.79197 0
M  V30 6647 H 611.123 -0.337444 -5.72306 0
M  V30 6648 H 609.52 -1.10914 -5.89761 0
M  V30 6649 H 610.59 -1.60745 -4.57481 0
M  V30 6650 N 611.933 1.52934 -0.380664 0
M  V30 6651 C 613.181 2.01069 0.203874 0
M  V30 6652 C 613.502 1.26922 1.4804 0
M  V30 6653 O 612.772 0.386787 1.92044 0
M  V30 6654 H 611.352 0.742882 0.0783279 0
M  V30 6655 H 614.014 1.88099 -0.510368 0
M  V30 6656 H 613.11 3.09258 0.42021 0
M  V30 6657 N 613.412 0.11024 1.57214 0
M  V30 6658 C 614.823 -0.416527 1.81994 0
M  V30 6659 C 615.174 -1.67183 1.02686 0
M  V30 6660 O 614.299 -2.14823 0.260782 0
M  V30 6661 C 614.894 -0.762466 3.30109 0
M  V30 6662 C 613.453 -1.23391 3.556 0
M  V30 6663 C 612.6 -0.238166 2.76275 0
M  V30 6664 H 615.551 0.335491 1.55113 0
M  V30 6665 H 615.572 -1.62068 3.44259 0
M  V30 6666 H 615.084 0.151346 3.87805 0
M  V30 6667 H 613.185 -2.16492 3.03253 0
M  V30 6668 H 613.298 -1.18528 4.64207 0
M  V30 6669 H 611.662 -0.723421 2.4421 0
M  V30 6670 H 612.445 0.668591 3.36727 0
M  V30 6671 N 614.89 -1.56749 -0.16351 0
M  V30 6672 C 616.306 -1.51043 -0.515567 0
M  V30 6673 C 616.506 -0.815855 -1.84245 0
M  V30 6674 O 615.562 -0.379477 -2.49632 0
M  V30 6675 C 616.875 -2.95791 -0.541114 0
M  V30 6676 C 618.423 -3.0664 -0.627776 0
M  V30 6677 C 618.898 -4.52861 -0.684141 0
M  V30 6678 N 620.389 -4.5714 -0.746818 0
M  V30 6679 C 621.124 -5.67634 -0.811137 0
M  V30 6680 N 620.62 -6.8774 -0.835811 0
M  V30 6681 N 622.413 -5.55624 -0.850756 0
M  V30 6682 H 614.564 -2.00307 0.70645 0
M  V30 6683 H 616.827 -0.912876 0.255659 0
M  V30 6684 H 616.533 -3.49797 0.365329 0
M  V30 6685 H 616.407 -3.50858 -1.38487 0
M  V30 6686 H 618.794 -2.52663 -1.52464 0
M  V30 6687 H 618.875 -2.54645 0.242805 0
M  V30 6688 H 618.519 -5.07472 0.2085 0
M  V30 6689 H 618.449 -5.02621 -1.57098 0
M  V30 6690 H 620.94 -3.70669 -0.735717 0
M  V30 6691 H 621.253 -7.67701 -0.886279 0
M  V30 6692 H 619.598 -6.90334 -0.803958 0
M  V30 6693 H 622.789 -4.60709 -0.828535 0
M  V30 6694 H 622.962 -6.41756 -0.897418 0
M  V30 6695 N 616.368 0.432326 -1.51554 0
M  V30 6696 C 617.3 1.54357 -1.6943 0
M  V30 6697 C 618.313 1.52311 -0.574897 0
M  V30 6698 O 619.502 1.56997 -0.849369 0
M  V30 6699 C 616.602 2.93273 -1.69836 0
M  V30 6700 C 615.775 3.19768 -2.98442 0
M  V30 6701 C 614.834 4.38433 -2.90969 0
M  V30 6702 O 613.86 4.36842 -3.64908 0
M  V30 6703 N 615.062 5.42276 -2.07163 0
M  V30 6704 H 617.827 1.39426 -2.65293 0
M  V30 6705 H 615.388 0.621331 -1.49503 0
M  V30 6706 H 617.38 3.70687 -1.62399 0
M  V30 6707 H 615.95 3.01777 -0.815456 0
M  V30 6708 H 615.17 2.30607 -3.19709 0
M  V30 6709 H 616.458 3.343 -3.83563 0
M  V30 6710 H 615.856 5.46407 -1.46477 0
M  V30 6711 H 614.413 6.18524 -2.05601 0
M  V30 6712 N 617.846 1.41785 0.688094 0
M  V30 6713 C 618.776 1.47 1.8142 0
M  V30 6714 C 619.757 0.327881 1.6691 0
M  V30 6715 O 620.942 0.540362 1.86531 0
M  V30 6716 C 618.072 1.35876 3.19617 0
M  V30 6717 C 617.026 2.47976 3.48844 0
M  V30 6718 C 616.352 2.21915 4.86475 0
M  V30 6719 C 617.652 3.90309 3.47068 0
M  V30 6720 H 619.346 2.41247 1.77314 0
M  V30 6721 H 616.892 1.16116 0.851651 0
M  V30 6722 H 618.845 1.38134 3.98117 0
M  V30 6723 H 617.569 0.38116 3.24368 0
M  V30 6724 H 616.228 2.45013 2.72698 0
M  V30 6725 H 615.876 1.2248 4.8786 0
M  V30 6726 H 615.576 2.97037 5.06994 0
M  V30 6727 H 617.1 2.25901 5.67275 0
M  V30 6728 H 618.514 3.94947 4.1556 0
M  V30 6729 H 616.911 4.65175 3.7912 0
M  V30 6730 H 617.981 4.17927 2.45896 0
M  V30 6731 N 619.324 -0.923095 1.27737 0
M  V30 6732 C 620.735 -1.48626 1.12993 0
M  V30 6733 C 621.086 -1.94142 -0.283439 0
M  V30 6734 O 620.211 -1.81605 -1.17681 0
M  V30 6735 C 620.806 -2.70117 2.04505 0
M  V30 6736 C 619.365 -3.22642 1.93853 0
M  V30 6737 C 618.512 -1.95368 1.96791 0
M  V30 6738 H 621.463 -0.736737 1.40563 0
M  V30 6739 H 621.484 -3.4506 1.60356 0
M  V30 6740 H 620.996 -2.36959 3.07363 0
M  V30 6741 H 619.097 -3.60549 0.939968 0
M  V30 6742 H 619.21 -3.88525 2.80331 0
M  V30 6743 H 617.574 -2.12061 1.41076 0
M  V30 6744 H 618.357 -1.64517 3.01312 0
M  V30 6745 N 620.802 -1.09834 -1.13024 0
M  V30 6746 C 621.712 -0.753731 -2.22162 0
M  V30 6747 C 622.728 0.246105 -1.72251 0
M  V30 6748 O 623.904 0.0864051 -2.01215 0
M  V30 6749 C 620.969 -0.183958 -3.46212 0
M  V30 6750 C 620.03 -1.24028 -4.10993 0
M  V30 6751 C 619.263 -0.697597 -5.29121 0
M  V30 6752 O 619.486 0.478092 -5.68393 0
M  V30 6753 O 618.42 -1.4546 -5.84059 0
M  V30 6754 H 622.246 -1.66456 -2.5402 0
M  V30 6755 H 619.831 -0.873026 -1.21238 0
M  V30 6756 H 621.713 0.130257 -4.21199 0
M  V30 6757 H 620.388 0.699823 -3.16045 0
M  V30 6758 H 619.295 -1.60725 -3.37814 0
M  V30 6759 H 620.628 -2.09685 -4.45301 0
M  V30 6760 N 622.28 1.30327 -0.886154 0
M  V30 6761 C 623.691 1.78243 -0.555554 0
M  V30 6762 C 624.042 1.72849 0.928314 0
M  V30 6763 O 623.167 1.30607 1.72542 0
M  V30 6764 C 623.762 3.23654 -1.00168 0
M  V30 6765 C 622.321 3.69401 -0.722471 0
M  V30 6766 C 621.468 2.50753 -1.18399 0
M  V30 6767 H 624.419 1.1718 -1.07026 0
M  V30 6768 H 624.44 3.79056 -0.331152 0
M  V30 6769 H 623.952 3.27548 -2.08169 0
M  V30 6770 H 622.053 3.70995 0.345496 0
M  V30 6771 H 622.166 4.60818 -1.31085 0
M  V30 6772 H 620.53 2.47452 -0.603303 0
M  V30 6773 H 621.313 2.57383 -2.27176 0
M  V30 6774 N 623.758 0.647228 1.43697 0
M  V30 6775 C 624.983 0.164083 2.0675 0
M  V30 6776 C 625.408 -1.15892 1.48158 0
M  V30 6777 O 624.766 -1.71459 0.589194 0
M  V30 6778 C 624.814 0.0800368 3.60511 0
M  V30 6779 O 623.918 -0.959453 4.01084 0
M  V30 6780 H 623.259 0.0921288 0.657578 0
M  V30 6781 H 625.789 0.88846 1.84303 0
M  V30 6782 H 625.799 -0.105263 4.07864 0
M  V30 6783 H 624.474 1.04586 4.02535 0
M  V30 6784 H 623.051 -0.747425 3.65333 0
M  V30 6785 N 625.236 -1.5273 0.388769 0
M  V30 6786 C 626.168 -2.24081 -0.481704 0
M  V30 6787 C 627.181 -1.26307 -1.02715 0
M  V30 6788 O 628.37 -1.52386 -0.929565 0
M  V30 6789 C 625.47 -2.94315 -1.68024 0
M  V30 6790 C 624.643 -4.18791 -1.26226 0
M  V30 6791 C 623.702 -4.72028 -2.32542 0
M  V30 6792 O 622.728 -5.35129 -1.93972 0
M  V30 6793 N 623.93 -4.51838 -3.64448 0
M  V30 6794 H 626.695 -2.9942 0.129591 0
M  V30 6795 H 624.256 -1.60465 0.2151 0
M  V30 6796 H 626.248 -3.26831 -2.38671 0
M  V30 6797 H 624.818 -2.22287 -2.19789 0
M  V30 6798 H 624.038 -3.92318 -0.384703 0
M  V30 6799 H 625.326 -4.99668 -0.959647 0
M  V30 6800 H 624.724 -4.01468 -3.98547 0
M  V30 6801 H 623.281 -4.88845 -4.31131 0
M  V30 6802 N 626.714 -0.118576 -1.57153 0
M  V30 6803 C 627.646 0.862247 -2.12363 0
M  V30 6804 C 628.659 1.23025 -1.06625 0
M  V30 6805 O 629.848 1.17927 -1.33998 0
M  V30 6806 C 626.948 2.16425 -2.60794 0
M  V30 6807 C 626.121 1.96801 -3.90626 0
M  V30 6808 C 625.18 3.10726 -4.2466 0
M  V30 6809 O 624.206 2.83659 -4.93484 0
M  V30 6810 N 625.408 4.37147 -3.81946 0
M  V30 6811 H 628.173 0.390564 -2.97144 0
M  V30 6812 H 625.734 0.0658591 -1.61766 0
M  V30 6813 H 627.726 2.91633 -2.80593 0
M  V30 6814 H 626.296 2.54943 -1.80895 0
M  V30 6815 H 625.516 1.05787 -3.7974 0
M  V30 6816 H 626.804 1.80993 -4.7552 0
M  V30 6817 H 626.202 4.62014 -3.26435 0
M  V30 6818 H 624.759 5.09229 -4.06853 0
M  V30 6819 N 628.193 1.56834 0.155195 0
M  V30 6820 C 629.418 1.87412 0.888337 0
M  V30 6821 C 629.843 0.70671 1.74319 0
M  V30 6822 O 629.201 -0.343892 1.78009 0
M  V30 6823 C 629.249 3.1652 1.72765 0
M  V30 6824 O 628.353 2.99877 2.83103 0
M  V30 6825 H 627.694 0.615983 0.247914 0
M  V30 6826 H 630.224 2.04061 0.148478 0
M  V30 6827 H 630.234 3.48334 2.12433 0
M  V30 6828 H 628.909 4.01094 1.09985 0
M  V30 6829 H 627.486 2.79453 2.46902 0
M  V30 6830 N 629.671 -0.424282 1.51781 0
M  V30 6831 C 630.618 -1.51591 1.74037 0
M  V30 6832 C 631.588 -1.55556 0.582358 0
M  V30 6833 O 632.773 -1.72364 0.818245 0
M  V30 6834 C 629.913 -2.89188 1.8832 0
M  V30 6835 C 629.026 -2.9465 3.1592 0
M  V30 6836 C 628.161 -4.23452 3.20721 0
M  V30 6837 C 627.2 -4.22831 4.42584 0
M  V30 6838 N 626.337 -5.43178 4.44862 0
M  V30 6839 H 631.177 -1.31917 2.67212 0
M  V30 6840 H 628.714 -0.640599 1.32419 0
M  V30 6841 H 630.672 -3.69044 1.94583 0
M  V30 6842 H 629.302 -3.07392 0.985402 0
M  V30 6843 H 628.354 -2.07378 3.18902 0
M  V30 6844 H 629.666 -2.90055 4.05795 0
M  V30 6845 H 628.82 -5.1169 3.25973 0
M  V30 6846 H 627.559 -4.30722 2.28757 0
M  V30 6847 H 626.564 -3.32984 4.37495 0
M  V30 6848 H 627.789 -4.17213 5.35826 0
M  V30 6849 H 625.735 -5.51145 3.55775 0
M  V30 6850 H 625.652 -5.40515 5.28563 0
M  V30 6851 H 626.92 -6.33412 4.54324 0
M  V30 6852 O 631.188 -1.51103 -0.570103 0
M  V30 6853 H 631.879 -1.50032 -1.22516 0
M  V30 END ATOM
M  V30 BEGIN BOND
M  V30 END BOND
M  V30 END CTAB
M  END
$$$$
