drugbank_target|Q8IDP1 Ubiquitin-conjugating enzyme E2 (DB11638)
 OpenBabel12092121113D

  0  0  0     0  0            999 V3000
M  V30 BEGIN CTAB
M  V30 COUNTS 4667 4727 0 0 0
M  V30 BEGIN ATOM
M  V30 1 H -0.908 1.98254 -0.117106 0
M  V30 2 N 0 1.576 0 0
M  V30 3 C 0.933 2.03868 1.02534 0
M  V30 4 C 1.911 0.928543 1.3348 0
M  V30 5 O 3.095 1.19667 1.45644 0
M  V30 6 C 0.222 2.43627 2.35294 0
M  V30 7 C -0.732 3.65373 2.2001 0
M  V30 8 S 0.101 5.13292 1.52614 0
M  V30 9 C 1.257 5.56322 2.86805 0
M  V30 10 H 1.49 2.90518 0.631377 0
M  V30 11 H -0.977 1.52953 0.210867 0
M  V30 12 H 0.981 2.67203 3.11629 0
M  V30 13 H -0.358 1.57376 2.7183 0
M  V30 14 H -1.165 3.90944 3.18086 0
M  V30 15 H -1.563 3.418 1.51819 0
M  V30 16 H 0.729 5.58782 3.83104 0
M  V30 17 H 1.672 6.56266 2.65933 0
M  V30 18 H 2.08 4.83886 2.90714 0
M  V30 19 N 1.4781 -0.272755 1.55222 0
M  V30 20 C 2.7251 -1.00433 1.7584 0
M  V30 21 C 3.0531 -1.86275 0.559629 0
M  V30 22 O 2.3081 -1.90269 -0.457857 0
M  V30 23 C 2.6071 -1.91642 3.01675 0
M  V30 24 C 2.2731 -1.21548 4.34208 0
M  V30 25 C 0.9351 -1.02166 4.70229 0
M  V30 26 C 3.2871 -0.716684 5.16249 0
M  V30 27 C 0.6151 -0.316334 5.85847 0
M  V30 28 C 2.9671 -0.0249476 6.32595 0
M  V30 29 C 1.6311 0.180579 6.67256 0
M  V30 30 H 0.9011 -0.367509 0.643443 0
M  V30 31 H 3.5481 -0.276596 1.89492 0
M  V30 32 H 1.8531 -2.71037 2.82924 0
M  V30 33 H 3.5501 -2.48369 3.14824 0
M  V30 34 H 0.1401 -1.37645 4.05896 0
M  V30 35 H 4.3241 -0.854047 4.88896 0
M  V30 36 H -0.4199 -0.146378 6.11225 0
M  V30 37 H 3.7541 0.369311 6.9542 0
M  V30 38 H 1.3811 0.729098 7.56696 0
M  V30 39 N 2.9562 -1.48159 -0.537278 0
M  V30 40 C 3.9042 -1.62573 -1.66352 0
M  V30 41 C 4.8982 -0.492366 -1.62087 0
M  V30 42 O 6.1042 -0.670847 -1.67032 0
M  V30 43 H 2.4792 -0.511992 -0.550789 0
M  V30 44 H 4.4502 -2.57176 -1.51337 0
M  V30 45 C 3.1992 -1.67583 -3.04649 0
M  V30 46 H 2.5222 -2.54151 -3.08622 0
M  V30 47 H 3.9622 -1.81713 -3.83088 0
M  V30 48 C 2.4212 -0.413039 -3.34358 0
M  V30 49 O 2.9512 0.477259 -3.98855 0
M  V30 50 N 1.1572 -0.286961 -2.8918 0
M  V30 51 H 0.7042 -1.01241 -2.36871 0
M  V30 52 H 0.6622 0.556963 -3.09427 0
M  V30 53 N 4.4343 0.785586 -1.36625 0
M  V30 54 C 5.6833 1.53883 -1.30396 0
M  V30 55 C 5.9963 1.95271 0.113452 0
M  V30 56 O 7.2023 2.69858 0.298142 0
M  V30 57 C 5.6583 2.77808 -2.28802 0
M  V30 58 C 5.2663 2.43574 -3.75999 0
M  V30 59 C 7.0103 3.55783 -2.31558 0
M  V30 60 C 4.9173 3.63919 -4.66173 0
M  V30 61 H 3.8473 0.577678 -0.484566 0
M  V30 62 H 6.4983 0.861705 -1.62009 0
M  V30 63 H 4.8803 3.47339 -1.90188 0
M  V30 64 H 6.0543 1.81916 -4.23371 0
M  V30 65 H 4.3693 1.78803 -3.76056 0
M  V30 66 H 6.9663 4.45205 -2.96137 0
M  V30 67 H 7.3093 3.94644 -1.3252 0
M  V30 68 H 7.8423 2.93235 -2.68809 0
M  V30 69 H 4.5813 3.3015 -5.66287 0
M  V30 70 H 4.1013 4.2473 -4.23515 0
M  V30 71 H 5.7803 4.30901 -4.82632 0
M  V30 72 N 5.9124 1.20967 1.01018 0
M  V30 73 C 6.8454 0.907578 2.09376 0
M  V30 74 C 7.8234 -0.142868 1.61971 0
M  V30 75 O 9.0074 -0.0150391 1.88494 0
M  V30 76 C 6.1344 0.361791 3.36762 0
M  V30 77 C 5.1804 1.39423 4.03068 0
M  V30 78 S 6.0134 2.96159 4.4615 0
M  V30 79 C 7.1694 2.43173 5.7673 0
M  V30 80 H 7.4024 1.82519 2.34678 0
M  V30 81 H 4.9354 1.03884 1.14225 0
M  V30 82 H 6.8934 0.0534523 4.10465 0
M  V30 83 H 5.5544 -0.53443 3.0952 0
M  V30 84 H 4.7474 0.961853 4.94737 0
M  V30 85 H 4.3494 1.65038 3.35617 0
M  V30 86 H 6.6414 1.83335 6.52223 0
M  V30 87 H 7.5844 3.33264 6.24773 0
M  V30 88 H 7.9924 1.85069 5.33301 0
M  V30 89 N 7.3905 -1.2043 1.01659 0
M  V30 90 C 8.8065 -1.41852 0.731442 0
M  V30 91 C 9.0065 -1.89358 -0.688898 0
M  V30 92 O 8.0625 -2.06247 -1.45666 0
M  V30 93 C 9.3755 -2.44019 1.75714 0
M  V30 94 C 10.9235 -2.57785 1.77527 0
M  V30 95 C 11.3985 -3.63194 2.79023 0
M  V30 96 N 12.8895 -3.70678 2.77763 0
M  V30 97 C 13.6245 -4.51897 3.52954 0
M  V30 98 N 13.1205 -5.36921 4.37821 0
M  V30 99 N 14.9135 -4.4643 3.41551 0
M  V30 100 H 7.0645 -0.879093 1.93354 0
M  V30 101 H 9.3275 -0.448425 0.835236 0
M  V30 102 H 9.0335 -2.1611 2.77469 0
M  V30 103 H 8.9075 -3.43007 1.56927 0
M  V30 104 H 11.2945 -2.85023 0.764569 0
M  V30 105 H 11.3755 -1.58992 2.00387 0
M  V30 106 H 11.0195 -3.36699 3.80258 0
M  V30 107 H 10.9495 -4.61609 2.53425 0
M  V30 108 H 13.4405 -3.09944 2.16201 0
M  V30 109 H 13.7535 -5.95981 4.91962 0
M  V30 110 H 12.0985 -5.36424 4.41899 0
M  V30 111 H 15.2895 -3.79042 2.74672 0
M  V30 112 H 15.4625 -5.09491 4.00404 0
M  V30 113 N 8.8686 -0.792821 -1.36206 0
M  V30 114 C 10.2796 -0.429513 -1.81692 0
M  V30 115 C 10.6306 1.04695 -1.65932 0
M  V30 116 O 9.7556 1.81256 -1.18218 0
M  V30 117 C 10.3506 -0.772831 -3.29868 0
M  V30 118 C 8.9096 -0.462307 -3.7355 0
M  V30 119 C 8.0566 -1.00569 -2.5842 0
M  V30 120 H 11.0076 -0.985672 -1.24379 0
M  V30 121 H 11.0286 -0.0651928 -3.80444 0
M  V30 122 H 10.5406 -1.84747 -3.41307 0
M  V30 123 H 8.6416 0.604158 -3.67669 0
M  V30 124 H 8.7546 -0.985299 -4.68859 0
M  V30 125 H 7.1186 -0.428734 -2.51066 0
M  V30 126 H 7.9016 -2.08616 -2.72643 0
M  V30 127 N 10.3467 1.47872 -0.545128 0
M  V30 128 C 11.5957 2.01695 -0.0145033 0
M  V30 129 C 11.9087 1.42609 1.33873 0
M  V30 130 O 13.1147 1.88021 1.95858 0
M  V30 131 C 11.5707 3.59892 0.0245068 0
M  V30 132 C 11.1787 4.27966 -1.32475 0
M  V30 133 C 12.9227 4.21507 0.50316 0
M  V30 134 C 10.8297 5.78136 -1.2455 0
M  V30 135 H 9.7597 0.753998 -0.00165172 0
M  V30 136 H 12.4107 1.69985 -0.691175 0
M  V30 137 H 10.7927 3.88509 0.766575 0
M  V30 138 H 11.9667 4.11003 -2.08357 0
M  V30 139 H 10.2817 3.78286 -1.74036 0
M  V30 140 H 12.8787 5.31538 0.580656 0
M  V30 141 H 13.2217 3.87855 1.51243 0
M  V30 142 H 13.7547 3.97376 -0.183681 0
M  V30 143 H 10.4937 6.16388 -2.23039 0
M  V30 144 H 10.0137 5.97469 -0.528282 0
M  V30 145 H 11.6927 6.40099 -0.942488 0
M  V30 146 N 11.8248 0.280983 1.55075 0
M  V30 147 C 13.0738 -0.334784 1.98902 0
M  V30 148 C 13.3868 -1.56534 1.17288 0
M  V30 149 O 14.5928 -2.25443 1.51287 0
M  V30 150 C 13.0488 -0.646994 3.54037 0
M  V30 151 C 12.6568 0.564085 4.44435 0
M  V30 152 C 14.4008 -1.22506 4.06439 0
M  V30 153 C 12.3078 0.226137 5.90967 0
M  V30 154 H 11.2378 -0.128866 0.742906 0
M  V30 155 H 13.8888 0.386556 1.79382 0
M  V30 156 H 12.2708 -1.42739 3.6938 0
M  V30 157 H 13.4448 1.34082 4.40861 0
M  V30 158 H 11.7598 1.0594 4.02698 0
M  V30 159 H 14.3568 -1.49182 5.13468 0
M  V30 160 H 14.6998 -2.16085 3.55827 0
M  V30 161 H 15.2328 -0.50682 3.94558 0
M  V30 162 H 11.9718 1.12996 6.45687 0
M  V30 163 H 11.4918 -0.513717 5.97596 0
M  V30 164 H 13.1708 -0.179539 6.46751 0
M  V30 165 N 13.3029 -1.57598 0.00835791 0
M  V30 166 C 14.2329 -2.1198 -0.979113 0
M  V30 167 C 15.2139 -1.03091 -1.35301 0
M  V30 168 O 16.3989 -1.30818 -1.43528 0
M  V30 169 C 13.5289 -2.62995 -2.26828 0
M  V30 170 C 12.4829 -3.76485 -2.03576 0
M  V30 171 C 11.8089 -4.13846 -3.38579 0
M  V30 172 C 13.1089 -5.0342 -1.39161 0
M  V30 173 H 14.8029 -2.94738 -0.526281 0
M  V30 174 H 12.3489 -1.41783 -0.251704 0
M  V30 175 H 14.3019 -2.99669 -2.96271 0
M  V30 176 H 13.0259 -1.7737 -2.7424 0
M  V30 177 H 11.6849 -3.40217 -1.36557 0
M  V30 178 H 11.3329 -3.25232 -3.83709 0
M  V30 179 H 11.0329 -4.90312 -3.23834 0
M  V30 180 H 12.5569 -4.53086 -4.09323 0
M  V30 181 H 13.9709 -5.37812 -1.98573 0
M  V30 182 H 12.3679 -5.84746 -1.34878 0
M  V30 183 H 13.4379 -4.83548 -0.361868 0
M  V30 184 N 14.781 0.264519 -1.55364 0
M  V30 185 C 16.028 0.994986 -1.7637 0
M  V30 186 C 16.356 1.85976 -0.5695 0
M  V30 187 O 15.611 1.90509 0.44776 0
M  V30 188 C 15.91 1.9004 -3.02687 0
M  V30 189 C 15.576 1.19243 -4.34847 0
M  V30 190 C 14.238 0.996709 -4.70764 0
M  V30 191 C 16.59 0.689296 -5.16622 0
M  V30 192 C 13.918 0.285261 -5.86006 0
M  V30 193 C 16.27 -0.00860079 -6.32599 0
M  V30 194 C 14.934 -0.215963 -6.67151 0
M  V30 195 H 14.204 0.364091 -0.645383 0
M  V30 196 H 16.851 0.266543 -1.89636 0
M  V30 197 H 15.156 2.69533 -2.84357 0
M  V30 198 H 16.853 2.46695 -3.16137 0
M  V30 199 H 13.443 1.3549 -4.06621 0
M  V30 200 H 17.627 0.828108 -4.89342 0
M  V30 201 H 12.883 0.113961 -6.11294 0
M  V30 202 H 17.057 -0.406186 -6.95214 0
M  V30 203 H 14.684 -0.769217 -7.56298 0
M  V30 204 N 16.2591 1.48442 0.529413 0
M  V30 205 C 17.2071 1.63452 1.65487 0
M  V30 206 C 18.2011 0.500955 1.61823 0
M  V30 207 O 19.4071 0.679695 1.66674 0
M  V30 208 H 15.7821 0.514905 0.548066 0
M  V30 209 H 17.7531 2.57975 1.49971 0
M  V30 210 C 16.5021 1.69196 3.03756 0
M  V30 211 H 15.8251 2.55784 3.07269 0
M  V30 212 H 17.2651 1.83743 3.82119 0
M  V30 213 C 15.7241 0.430765 3.34135 0
M  V30 214 O 16.2541 -0.4561 3.99102 0
M  V30 215 N 14.4601 0.302293 2.89023 0
M  V30 216 H 14.0071 1.02496 2.36331 0
M  V30 217 H 13.9651 -0.540546 3.09718 0
M  V30 218 N 17.7372 -0.778329 1.37039 0
M  V30 219 C 18.9862 -1.53189 1.3121 0
M  V30 220 C 19.2992 -1.95328 -0.103095 0
M  V30 221 O 20.5052 -2.70012 -0.283826 0
M  V30 222 C 18.9612 -2.76591 2.30272 0
M  V30 223 C 18.5692 -2.41577 3.77286 0
M  V30 224 C 20.3132 -3.5455 2.33441 0
M  V30 225 C 18.2202 -3.61441 4.68096 0
M  V30 226 H 17.1502 -0.5751 0.487622 0
M  V30 227 H 19.8012 -0.853101 1.62464 0
M  V30 228 H 18.1832 -3.46326 1.92027 0
M  V30 229 H 19.3572 -1.79668 4.2433 0
M  V30 230 H 17.6722 -1.76806 3.76999 0
M  V30 231 H 20.2692 -4.43628 2.98493 0
M  V30 232 H 20.6122 -3.93936 1.34611 0
M  V30 233 H 21.1452 -2.91805 2.7036 0
M  V30 234 H 17.8842 -3.27142 5.6803 0
M  V30 235 H 17.4042 -4.22478 4.25761 0
M  V30 236 H 19.0832 -4.28335 4.8491 0
M  V30 237 N 19.2153 -1.21501 -1.00376 0
M  V30 238 C 20.1453 -0.999478 -2.11028 0
M  V30 239 C 21.1263 0.0759671 -1.6993 0
M  V30 240 O 22.3113 -0.0841106 -1.94018 0
M  V30 241 C 19.4413 -0.564709 -3.42678 0
M  V30 242 C 18.3953 -1.58486 -3.97576 0
M  V30 243 C 17.7213 -1.00628 -5.25146 0
M  V30 244 C 19.0213 -2.97204 -4.29496 0
M  V30 245 H 20.7153 -1.92495 -2.29317 0
M  V30 246 H 18.2613 -0.92693 -1.102 0
M  V30 247 H 20.2143 -0.401091 -4.19487 0
M  V30 248 H 18.9383 0.396411 -3.24185 0
M  V30 249 H 17.5973 -1.73606 -3.22888 0
M  V30 250 H 17.2453 -0.0368439 -5.02987 0
M  V30 251 H 16.9453 -1.68771 -5.62841 0
M  V30 252 H 18.4693 -0.854015 -6.04598 0
M  V30 253 H 19.8833 -2.8552 -4.97143 0
M  V30 254 H 18.2803 -3.62372 -4.78338 0
M  V30 255 H 19.3503 -3.47956 -3.3772 0
M  V30 256 N 20.6934 1.19889 -1.02296 0
M  V30 257 C 21.9424 1.88743 -0.711257 0
M  V30 258 C 22.2554 1.80112 0.762817 0
M  V30 259 O 23.4614 2.44161 1.18733 0
M  V30 260 C 21.9174 3.38525 -1.22185 0
M  V30 261 C 21.5254 3.55727 -2.72328 0
M  V30 262 C 23.2694 4.12893 -0.985864 0
M  V30 263 C 21.1764 4.99369 -3.16835 0
M  V30 264 H 20.1064 0.706885 -0.262353 0
M  V30 265 H 22.7574 1.35586 -1.23648 0
M  V30 266 H 21.1394 3.91044 -0.624571 0
M  V30 267 H 22.3134 3.13564 -3.3766 0
M  V30 268 H 20.6284 2.94739 -2.9414 0
M  V30 269 H 23.2254 5.18813 -1.29374 0
M  V30 270 H 23.5684 4.16228 0.0775055 0
M  V30 271 H 24.1014 3.66494 -1.54684 0
M  V30 272 H 20.8404 5.01193 -4.22476 0
M  V30 273 H 20.3604 5.42317 -2.56228 0
M  V30 274 H 22.0394 5.67988 -3.09837 0
M  V30 275 N 22.1715 0.800033 1.35784 0
M  V30 276 C 23.4195 0.376597 1.9856 0
M  V30 277 C 23.7405 -1.05812 1.63795 0
M  V30 278 O 23.0105 -1.73103 0.917171 0
M  V30 279 H 21.5905 0.136261 0.734467 0
M  V30 280 H 24.2525 1.02442 1.65806 0
M  V30 281 H 23.3485 0.477002 3.08433 0
M  V30 282 N 23.6496 -1.47581 0.552962 0
M  V30 283 C 24.8796 -2.06575 0.0320091 0
M  V30 284 C 25.2876 -1.4067 -1.26525 0
M  V30 285 O 24.6306 -0.495808 -1.76883 0
M  V30 286 C 24.6926 -3.58705 -0.238913 0
M  V30 287 C 24.3566 -4.46625 0.968272 0
M  V30 288 C 25.3536 -4.85 1.87274 0
M  V30 289 C 23.0386 -4.88201 1.18175 0
M  V30 290 C 25.0326 -5.63745 2.9744 0
M  V30 291 C 22.7196 -5.66712 2.28651 0
M  V30 292 C 23.7176 -6.04394 3.18114 0
M  V30 293 O 23.4056 -6.81324 4.26676 0
M  V30 294 H 23.1376 -0.674763 0.0408689 0
M  V30 295 H 25.6916 -1.90634 0.764719 0
M  V30 296 H 23.9216 -3.72844 -1.02588 0
M  V30 297 H 25.6106 -3.99735 -0.704731 0
M  V30 298 H 26.3766 -4.53482 1.71984 0
M  V30 299 H 22.2556 -4.58339 0.494593 0
M  V30 300 H 25.7996 -5.93077 3.67296 0
M  V30 301 H 21.6966 -5.97642 2.43915 0
M  V30 302 H 22.4646 -6.99712 4.24671 0
M  V30 303 N 25.1277 -0.289203 -1.54924 0
M  V30 304 C 26.3577 0.325989 -2.04012 0
M  V30 305 C 26.7657 1.48961 -1.1665 0
M  V30 306 O 26.1087 1.82794 -0.1822 0
M  V30 307 C 26.1707 0.856112 -3.49158 0
M  V30 308 C 25.8347 -0.180697 -4.56643 0
M  V30 309 C 26.8317 -1.0051 -5.10092 0
M  V30 310 C 24.5167 -0.318998 -5.01286 0
M  V30 311 C 26.5107 -1.95385 -6.06715 0
M  V30 312 C 24.1977 -1.27121 -5.97732 0
M  V30 313 C 25.1957 -2.08713 -6.50329 0
M  V30 314 O 24.8837 -3.02322 -7.44887 0
M  V30 315 H 24.6157 0.0765276 -0.671654 0
M  V30 316 H 27.1697 -0.423254 -2.00992 0
M  V30 317 H 25.3997 1.65567 -3.49463 0
M  V30 318 H 27.0887 1.38591 -3.81507 0
M  V30 319 H 27.8547 -0.90906 -4.76404 0
M  V30 320 H 23.7337 0.306108 -4.59983 0
M  V30 321 H 27.2777 -2.59111 -6.47694 0
M  V30 322 H 23.1747 -1.36801 -6.30837 0
M  V30 323 H 23.9427 -2.97165 -7.6265 0
M  V30 324 N 26.6058 1.57591 -0.0167156 0
M  V30 325 C 27.8528 1.91283 0.664597 0
M  V30 326 C 28.1808 0.891949 1.72842 0
M  V30 327 O 27.4358 -0.100931 1.9544 0
M  V30 328 C 27.7348 3.3172 1.33029 0
M  V30 329 C 27.4008 4.4914 0.398047 0
M  V30 330 C 26.0628 4.80992 0.141421 0
M  V30 331 C 28.4148 5.20634 -0.242825 0
M  V30 332 C 25.7428 5.81703 -0.764092 0
M  V30 333 C 28.0948 6.22311 -1.13632 0
M  V30 334 C 26.7588 6.52611 -1.40196 0
M  V30 335 H 26.0288 0.699956 0.243193 0
M  V30 336 H 28.6758 1.9135 -0.0758267 0
M  V30 337 H 26.9808 3.27856 2.14517 0
M  V30 338 H 28.6778 3.55055 1.86379 0
M  V30 339 H 25.2678 4.24262 0.608238 0
M  V30 340 H 29.4518 4.96267 -0.0576019 0
M  V30 341 H 24.7078 6.03532 -0.977732 0
M  V30 342 H 28.8818 6.76834 -1.63917 0
M  V30 343 H 26.5088 7.30467 -2.10529 0
M  V30 344 N 28.0839 -0.256276 1.55502 0
M  V30 345 C 29.3309 -0.985619 1.76895 0
M  V30 346 C 29.6589 -1.85671 0.579355 0
M  V30 347 O 28.9139 -1.90744 -0.437651 0
M  V30 348 C 29.2129 -1.88432 3.03691 0
M  V30 349 C 28.8789 -1.16936 4.35473 0
M  V30 350 C 27.5409 -0.97173 4.71286 0
M  V30 351 C 29.8929 -0.661889 5.1698 0
M  V30 352 C 27.2209 -0.254179 5.86149 0
M  V30 353 C 29.5729 0.042149 6.32586 0
M  V30 354 C 28.2369 0.25134 6.67027 0
M  V30 355 H 27.5069 -0.360663 0.647304 0
M  V30 356 H 30.1539 -0.256483 1.89775 0
M  V30 357 H 28.4589 -2.68021 2.85783 0
M  V30 358 H 30.1559 -2.45015 3.1744 0
M  V30 359 H 26.7459 -1.33332 4.07333 0
M  V30 360 H 30.9299 -0.802145 4.89775 0
M  V30 361 H 26.1859 -0.0815408 6.11346 0
M  V30 362 H 30.3599 0.443049 6.94989 0
M  V30 363 H 27.9869 0.809314 7.5588 0
M  V30 364 N 29.562 -1.4872 -0.521534 0
M  V30 365 C 30.811 -1.56419 -1.27341 0
M  V30 366 C 31.124 -0.246805 -1.94037 0
M  V30 367 O 32.33 -0.202122 -2.70747 0
M  V30 368 C 30.786 -2.75896 -2.31105 0
M  V30 369 C 30.394 -4.14311 -1.70441 0
M  V30 370 C 32.138 -2.92913 -3.07249 0
M  V30 371 C 30.045 -5.25038 -2.72194 0
M  V30 372 H 28.975 -0.582344 -0.478949 0
M  V30 373 H 31.626 -1.75071 -0.549779 0
M  V30 374 H 30.008 -2.50697 -3.06541 0
M  V30 375 H 31.182 -4.49564 -1.01136 0
M  V30 376 H 29.497 -4.02482 -1.06759 0
M  V30 377 H 32.094 -3.72805 -3.83302 0
M  V30 378 H 32.437 -2.02689 -3.63625 0
M  V30 379 H 32.97 -3.18054 -2.38928 0
M  V30 380 H 29.709 -6.17255 -2.20627 0
M  V30 381 H 29.229 -4.94263 -3.39801 0
M  V30 382 H 30.908 -5.53508 -3.35019 0
M  V30 383 N 31.0401 0.771051 -1.3745 0
M  V30 384 C 32.2861 1.5319 -1.32894 0
M  V30 385 C 32.6191 1.94008 0.0862511 0
M  V30 386 O 31.8941 1.64124 1.04373 0
M  V30 387 C 32.1771 2.79648 -2.26868 0
M  V30 388 C 32.0301 2.45079 -3.77169 0
M  V30 389 C 33.3491 3.81583 -2.19277 0
M  V30 390 H 30.4681 0.555744 -0.484064 0
M  V30 391 H 33.1101 0.884492 -1.68157 0
M  V30 392 H 31.2601 3.34891 -1.96926 0
M  V30 393 H 32.9321 1.95745 -4.1771 0
M  V30 394 H 31.1751 1.77767 -3.95704 0
M  V30 395 H 31.8461 3.35478 -4.38359 0
M  V30 396 H 34.3221 3.35835 -2.45671 0
M  V30 397 H 33.1981 4.67787 -2.87171 0
M  V30 398 H 33.4591 4.25897 -1.18592 0
M  V30 399 N 32.5182 1.22032 0.997298 0
M  V30 400 C 33.7672 1.03637 1.73038 0
M  V30 401 C 34.0802 -0.429475 1.90827 0
M  V30 402 O 35.2862 -0.732995 2.61418 0
M  V30 403 C 33.7422 1.80582 3.11317 0
M  V30 404 C 33.3502 3.31387 3.01474 0
M  V30 405 C 35.0942 1.70621 3.88701 0
M  V30 406 C 33.0012 4.00791 4.3488 0
M  V30 407 H 31.9312 0.384179 0.648785 0
M  V30 408 H 34.5822 1.4584 1.11368 0
M  V30 409 H 32.9642 1.31175 3.73643 0
M  V30 410 H 34.1382 3.88155 2.4834 0
M  V30 411 H 32.4532 3.41976 2.37575 0
M  V30 412 H 35.0502 2.19799 4.87434 0
M  V30 413 H 35.3932 0.665823 4.10941 0
M  V30 414 H 35.9262 2.17547 3.33044 0
M  V30 415 H 32.6652 5.05064 4.1784 0
M  V30 416 H 32.1852 3.48811 4.87945 0
M  V30 417 H 33.8642 4.06139 5.03647 0
M  V30 418 N 33.9963 -1.19345 1.0293 0
M  V30 419 C 34.9443 -2.24621 0.604001 0
M  V30 420 C 35.9383 -1.65452 -0.363587 0
M  V30 421 O 37.1443 -1.78497 -0.23212 0
M  V30 422 H 33.5193 -0.730858 0.177061 0
M  V30 423 H 35.4903 -2.5781 1.50255 0
M  V30 424 C 34.2393 -3.47688 -0.0289127 0
M  V30 425 H 33.5623 -3.93505 0.706651 0
M  V30 426 H 35.0023 -4.23011 -0.289432 0
M  V30 427 C 33.4613 -3.11817 -1.2756 0
M  V30 428 O 33.9913 -3.2451 -2.36762 0
M  V30 429 N 32.1973 -2.66246 -1.16453 0
M  V30 430 H 31.7443 -2.56118 -0.275914 0
M  V30 431 H 31.7023 -2.42617 -1.99961 0
M  V30 432 N 35.4744 -0.807222 -1.35358 0
M  V30 433 C 36.4224 -0.20614 -2.31685 0
M  V30 434 C 37.4164 0.644445 -1.56663 0
M  V30 435 O 38.6224 0.537538 -1.71786 0
M  V30 436 H 34.9974 -0.0479006 -0.750473 0
M  V30 437 H 36.9684 -1.03369 -2.79924 0
M  V30 438 C 35.7174 0.630212 -3.41941 0
M  V30 439 H 35.0404 -0.0149558 -3.99797 0
M  V30 440 H 36.4804 1.01716 -4.11619 0
M  V30 441 C 34.9394 1.79601 -2.85035 0
M  V30 442 O 35.4694 2.89351 -2.78637 0
M  V30 443 N 33.6754 1.60774 -2.42074 0
M  V30 444 H 33.2224 0.715009 -2.47478 0
M  V30 445 H 33.1804 2.38933 -2.04349 0
M  V30 446 N 36.9525 1.47285 -0.560781 0
M  V30 447 C 38.1985 2.02764 -0.0381184 0
M  V30 448 C 38.5315 1.43384 1.30976 0
M  V30 449 O 37.8065 0.590733 1.85312 0
M  V30 450 C 38.0895 3.60064 0.0511427 0
M  V30 451 C 37.9425 4.2987 -1.32408 0
M  V30 452 C 39.2615 4.33439 0.762795 0
M  V30 453 H 36.3805 0.736841 -0.0153264 0
M  V30 454 H 39.0225 1.75675 -0.723759 0
M  V30 455 H 37.1725 3.83274 0.635065 0
M  V30 456 H 38.8445 4.17989 -1.95148 0
M  V30 457 H 37.0875 3.90085 -1.8978 0
M  V30 458 H 37.7585 5.38478 -1.21431 0
M  V30 459 H 40.2345 4.15243 0.266965 0
M  V30 460 H 39.1105 5.43124 0.794221 0
M  V30 461 H 39.3715 4.02915 1.81966 0
M  V30 462 N 38.4306 0.297415 1.54768 0
M  V30 463 C 39.6766 -0.313376 2.00364 0
M  V30 464 C 40.0096 -1.53815 1.18553 0
M  V30 465 O 39.2846 -1.92739 0.261103 0
M  V30 466 C 39.5676 -0.673525 3.53745 0
M  V30 467 C 39.4206 0.560133 4.46299 0
M  V30 468 C 40.7396 -1.50143 4.13697 0
M  V30 469 H 37.8586 -0.112428 0.728374 0
M  V30 470 H 40.5006 0.4088 1.8555 0
M  V30 471 H 38.6506 -1.28881 3.665 0
M  V30 472 H 40.3226 1.19863 4.45455 0
M  V30 473 H 38.5656 1.19405 4.17043 0
M  V30 474 H 39.2366 0.26405 5.51368 0
M  V30 475 H 41.7126 -0.981588 4.04356 0
M  V30 476 H 40.5886 -1.72221 5.21182 0
M  V30 477 H 40.8496 -2.48952 3.65343 0
M  V30 478 N 39.9087 -1.5758 0.0250728 0
M  V30 479 C 41.1567 -1.91255 -0.653151 0
M  V30 480 C 41.4777 -0.901691 -1.729 0
M  V30 481 O 40.7477 0.0573785 -1.95816 0
M  V30 482 H 39.3277 -0.705942 -0.244243 0
M  V30 483 H 41.9897 -1.94767 0.0719209 0
M  V30 484 H 41.0857 -2.91752 -1.10847 0
M  V30 485 N 41.3868 0.248026 -1.55636 0
M  V30 486 C 42.3348 1.32683 -1.91045 0
M  V30 487 C 43.3288 1.49883 -0.789401 0
M  V30 488 O 44.5348 1.51371 -0.974007 0
M  V30 489 H 40.9098 0.444272 -0.606734 0
M  V30 490 H 42.8808 1.00085 -2.81115 0
M  V30 491 C 41.6298 2.6755 -2.22064 0
M  V30 492 H 40.9528 2.55114 -3.07826 0
M  V30 493 H 42.3928 3.41912 -2.50743 0
M  V30 494 C 40.8518 3.20556 -1.0366 0
M  V30 495 O 41.3818 4.00695 -0.284016 0
M  V30 496 N 39.5878 2.78568 -0.82753 0
M  V30 497 H 39.1348 2.1351 -1.44123 0
M  V30 498 H 39.0928 3.14378 -0.0369803 0
M  V30 499 N 42.8649 1.48995 0.513639 0
M  V30 500 C 43.7949 1.67636 1.62544 0
M  V30 501 C 44.7759 0.525087 1.61793 0
M  V30 502 O 45.9609 0.759502 1.78732 0
M  V30 503 C 43.0909 1.73114 3.01079 0
M  V30 504 C 42.0449 2.87905 3.16693 0
M  V30 505 C 41.3709 2.78486 4.56453 0
M  V30 506 C 42.6709 4.29005 2.97913 0
M  V30 507 H 44.3649 2.60716 1.47198 0
M  V30 508 H 41.9109 1.25465 0.706714 0
M  V30 509 H 43.8639 1.84742 3.78746 0
M  V30 510 H 42.5879 0.766241 3.17484 0
M  V30 511 H 41.2469 2.75859 2.41448 0
M  V30 512 H 40.8949 1.7993 4.69717 0
M  V30 513 H 40.5949 3.55523 4.67843 0
M  V30 514 H 42.1189 2.92104 5.36197 0
M  V30 515 H 43.5329 4.41798 3.65359 0
M  V30 516 H 41.9299 5.07166 3.20785 0
M  V30 517 H 42.9999 4.44329 1.94165 0
M  V30 518 N 44.343 -0.763751 1.37857 0
M  V30 519 C 45.754 -1.3405 1.29952 0
M  V30 520 C 46.105 -1.96138 -0.0492898 0
M  V30 521 O 45.23 -1.94372 -0.951239 0
M  V30 522 C 45.825 -2.43729 2.35333 0
M  V30 523 C 44.384 -2.97151 2.31037 0
M  V30 524 C 43.531 -1.70438 2.18738 0
M  V30 525 H 46.482 -0.563396 1.48363 0
M  V30 526 H 46.503 -3.23412 2.00462 0
M  V30 527 H 46.015 -1.9851 3.33489 0
M  V30 528 H 44.116 -3.46724 1.3643 0
M  V30 529 H 44.229 -3.52221 3.24772 0
M  V30 530 H 42.593 -1.93673 1.65418 0
M  V30 531 H 43.376 -1.27312 3.18821 0
M  V30 532 N 45.8211 -1.22559 -0.990812 0
M  V30 533 C 46.7681 -0.997519 -2.0813 0
M  V30 534 C 47.7381 0.0814702 -1.659 0
M  V30 535 O 48.9231 -0.0685424 -1.90677 0
M  V30 536 C 46.0631 -0.583615 -3.40129 0
M  V30 537 C 45.1761 -1.7336 -3.9569 0
M  V30 538 C 44.3111 -1.26748 -5.15857 0
M  V30 539 C 43.3501 -2.38888 -5.63559 0
M  V30 540 N 42.4871 -1.93308 -6.74964 0
M  V30 541 H 47.3271 -1.93099 -2.26973 0
M  V30 542 H 44.8641 -0.962114 -1.11273 0
M  V30 543 H 46.8221 -0.324801 -4.15934 0
M  V30 544 H 45.4521 0.312845 -3.2128 0
M  V30 545 H 44.5041 -2.10669 -3.16738 0
M  V30 546 H 45.8161 -2.57704 -4.27071 0
M  V30 547 H 44.9701 -0.966173 -5.98957 0
M  V30 548 H 43.7091 -0.394272 -4.86104 0
M  V30 549 H 42.7141 -2.69805 -4.79046 0
M  V30 550 H 43.9391 -3.26728 -5.95336 0
M  V30 551 H 41.8851 -1.08352 -6.4699 0
M  V30 552 H 41.8021 -2.71217 -7.05675 0
M  V30 553 H 43.0701 -1.66252 -7.61564 0
M  V30 554 N 47.2992 1.18797 -1.03562 0
M  V30 555 C 48.2462 2.22253 -0.622259 0
M  V30 556 C 49.2162 1.61987 0.36736 0
M  V30 557 O 50.4012 1.88986 0.262492 0
M  V30 558 C 47.5412 3.45097 0.0138462 0
M  V30 559 C 46.6542 4.19722 -1.02263 0
M  V30 560 C 45.7892 5.30009 -0.355573 0
M  V30 561 C 44.8282 5.96399 -1.37749 0
M  V30 562 N 43.9652 6.98234 -0.735766 0
M  V30 563 H 48.8052 2.56968 -1.50903 0
M  V30 564 H 46.3422 1.26245 -0.755017 0
M  V30 565 H 48.3002 4.15279 0.399948 0
M  V30 566 H 46.9302 3.11018 0.864158 0
M  V30 567 H 45.9822 3.48418 -1.52673 0
M  V30 568 H 47.2942 4.65227 -1.79903 0
M  V30 569 H 46.4482 6.0664 0.0850095 0
M  V30 570 H 45.1872 4.85592 0.452967 0
M  V30 571 H 44.1922 5.18512 -1.82826 0
M  V30 572 H 45.4172 6.42899 -2.18764 0
M  V30 573 H 43.3632 6.55979 0.0525597 0
M  V30 574 H 43.2802 7.41965 -1.44995 0
M  V30 575 H 44.5482 7.78845 -0.31941 0
M  V30 576 N 48.7773 0.814389 1.34928 0
M  V30 577 C 49.7253 0.218424 2.31572 0
M  V30 578 C 50.7193 -0.636128 1.57002 0
M  V30 579 O 51.9253 -0.52842 1.72069 0
M  V30 580 H 48.3003 0.0518799 0.750208 0
M  V30 581 H 50.2713 1.04852 2.79372 0
M  V30 582 C 49.0203 -0.61207 3.4227 0
M  V30 583 H 48.3433 0.0361578 3.99784 0
M  V30 584 H 49.7833 -0.995317 4.12152 0
M  V30 585 C 48.2423 -1.78087 2.85984 0
M  V30 586 O 48.7723 -2.8787 2.80168 0
M  V30 587 N 46.9783 -1.59488 2.42924 0
M  V30 588 H 46.5253 -0.701874 2.47854 0
M  V30 589 H 46.4833 -2.37846 2.05613 0
M  V30 590 N 50.2554 -1.46986 0.568584 0
M  V30 591 C 51.4804 -2.07335 0.0520528 0
M  V30 592 C 51.9054 -1.41675 -1.23733 0
M  V30 593 O 51.2634 -0.495623 -1.74394 0
M  V30 594 C 51.3114 -3.60417 -0.11501 0
M  V30 595 O 50.4154 -3.95309 -1.17492 0
M  V30 596 H 49.7564 -0.661597 0.0564385 0
M  V30 597 H 52.2864 -1.88837 0.787507 0
M  V30 598 H 52.2964 -4.06698 -0.325644 0
M  V30 599 H 50.9714 -4.07601 0.826675 0
M  V30 600 H 49.5484 -3.60757 -0.943869 0
M  V30 601 N 51.7335 -0.305618 -1.54608 0
M  V30 602 C 52.9635 0.304333 -2.04346 0
M  V30 603 C 53.3715 1.47715 -1.18224 0
M  V30 604 O 52.7145 1.82591 -0.201577 0
M  V30 605 C 52.7765 0.819031 -3.50046 0
M  V30 606 C 52.4405 -0.22912 -4.56425 0
M  V30 607 C 53.4375 -1.05914 -5.08997 0
M  V30 608 C 51.1225 -0.372148 -5.0092 0
M  V30 609 C 53.1165 -2.01809 -6.04609 0
M  V30 610 C 50.8035 -1.33454 -5.9635 0
M  V30 611 C 51.8015 -2.15599 -6.48079 0
M  V30 612 O 51.4895 -3.10205 -7.41639 0
M  V30 613 H 51.2215 0.0693996 -0.672428 0
M  V30 614 H 53.7755 -0.444548 -2.00532 0
M  V30 615 H 52.0055 1.61852 -3.51199 0
M  V30 616 H 53.6945 1.34537 -3.82955 0
M  V30 617 H 54.4605 -0.959538 -4.75413 0
M  V30 618 H 50.3395 0.257304 -4.60281 0
M  V30 619 H 53.8835 -2.65966 -6.44909 0
M  V30 620 H 49.7805 -1.43485 -6.29351 0
M  V30 621 H 50.5485 -3.05237 -7.59455 0
M  V30 622 N 53.2116 1.57565 -0.0334293 0
M  V30 623 C 54.4416 1.95996 0.653398 0
M  V30 624 C 54.8496 0.908749 1.65947 0
M  V30 625 O 54.1926 -0.117471 1.83324 0
M  V30 626 C 54.2546 3.30589 1.41249 0
M  V30 627 C 53.9186 4.53503 0.564263 0
M  V30 628 C 54.9156 5.19647 -0.16225 0
M  V30 629 C 52.6006 4.99801 0.500398 0
M  V30 630 C 54.5946 6.30412 -0.941255 0
M  V30 631 C 52.2816 6.10448 -0.282308 0
M  V30 632 C 53.2796 6.75612 -1.00184 0
M  V30 633 O 52.9676 7.84134 -1.77171 0
M  V30 634 H 52.6996 0.65027 0.184728 0
M  V30 635 H 55.2536 2.05199 -0.0907841 0
M  V30 636 H 53.4836 3.17888 2.20191 0
M  V30 637 H 55.1726 3.53892 1.98784 0
M  V30 638 H 55.9386 4.84846 -0.12227 0
M  V30 639 H 51.8176 4.48883 1.05002 0
M  V30 640 H 55.3616 6.81208 -1.50339 0
M  V30 641 H 51.2586 6.44686 -0.323989 0
M  V30 642 H 52.0266 8.00822 -1.69194 0
M  V30 643 N 54.6897 -0.239769 1.55765 0
M  V30 644 C 55.6377 -1.31668 1.91745 0
M  V30 645 C 56.6317 -1.49462 0.797338 0
M  V30 646 O 57.8377 -1.50852 0.982021 0
M  V30 647 H 54.2127 -0.441048 0.609082 0
M  V30 648 H 56.1837 -0.985923 2.81642 0
M  V30 649 C 54.9327 -2.66368 2.2348 0
M  V30 650 H 54.2557 -2.53478 3.09175 0
M  V30 651 H 55.6957 -3.40578 2.52553 0
M  V30 652 C 54.1547 -3.20002 1.05359 0
M  V30 653 O 54.6847 -4.00538 0.305261 0
M  V30 654 N 52.8907 -2.78126 0.842292 0
M  V30 655 H 52.4377 -2.12742 1.45253 0
M  V30 656 H 52.3957 -3.14354 0.053652 0
M  V30 657 N 56.1678 -1.49265 -0.50573 0
M  V30 658 C 57.4168 -1.57761 -1.25675 0
M  V30 659 C 57.7298 -0.267371 -1.93764 0
M  V30 660 O 58.9358 -0.230827 -2.70517 0
M  V30 661 C 57.3918 -2.78332 -2.28165 0
M  V30 662 C 56.9998 -4.16096 -1.66037 0
M  V30 663 C 58.7438 -2.96155 -3.04125 0
M  V30 664 C 56.6508 -5.27895 -2.6661 0
M  V30 665 H 55.5808 -0.587391 -0.472745 0
M  V30 666 H 58.2318 -1.75644 -0.53118 0
M  V30 667 H 56.6138 -2.53934 -3.03865 0
M  V30 668 H 57.7878 -4.50612 -0.963622 0
M  V30 669 H 56.1028 -4.03591 -1.02484 0
M  V30 670 H 58.6998 -3.76849 -3.79327 0
M  V30 671 H 59.0428 -2.06534 -3.61455 0
M  V30 672 H 59.5758 -3.2057 -2.35541 0
M  V30 673 H 56.3148 -6.1956 -2.14068 0
M  V30 674 H 55.8348 -4.97839 -3.34539 0
M  V30 675 H 57.5138 -5.57031 -3.29129 0
M  V30 676 N 57.6459 0.756429 -1.3826 0
M  V30 677 C 59.0569 1.33359 -1.30661 0
M  V30 678 C 59.4079 1.96161 0.0388875 0
M  V30 679 O 58.5329 1.94874 0.940918 0
M  V30 680 C 59.1279 2.42477 -2.36622 0
M  V30 681 C 57.6869 2.95922 -2.3261 0
M  V30 682 C 56.8339 1.69275 -2.19639 0
M  V30 683 H 59.7849 0.55552 -1.4866 0
M  V30 684 H 59.8059 3.22345 -2.02174 0
M  V30 685 H 59.3179 1.96739 -3.34538 0
M  V30 686 H 57.4189 3.45996 -1.38267 0
M  V30 687 H 57.5319 3.50494 -3.26636 0
M  V30 688 H 55.8959 1.92793 -1.66442 0
M  V30 689 H 56.6789 1.25619 -3.19491 0
M  V30 690 N 59.124 1.23083 0.984299 0
M  V30 691 C 60.072 1.00593 2.09723 0
M  V30 692 C 61.066 -0.0538014 1.69315 0
M  V30 693 O 62.272 0.0993719 1.79725 0
M  V30 694 H 58.647 0.30817 0.685956 0
M  V30 695 H 60.618 1.95012 2.2586 0
M  V30 696 C 59.367 0.609601 3.42314 0
M  V30 697 H 58.69 1.41675 3.73856 0
M  V30 698 H 60.13 0.491726 4.21139 0
M  V30 699 C 58.589 -0.681745 3.2993 0
M  V30 700 O 59.119 -1.73192 3.62446 0
M  V30 701 N 57.325 -0.656178 2.83095 0
M  V30 702 H 56.872 0.198759 2.56832 0
M  V30 703 H 56.83 -1.52044 2.75191 0
M  V30 704 N 60.6021 -1.18246 1.0419 0
M  V30 705 C 61.8321 -1.91916 0.764961 0
M  V30 706 C 62.2401 -1.76485 -0.681898 0
M  V30 707 O 61.5831 -1.09275 -1.47664 0
M  V30 708 C 61.6451 -3.4373 1.05309 0
M  V30 709 C 61.3091 -3.8294 2.4941 0
M  V30 710 C 62.3061 -3.86621 3.47592 0
M  V30 711 C 59.9911 -4.142 2.84155 0
M  V30 712 C 61.9851 -4.21013 4.78568 0
M  V30 713 C 59.6721 -4.48262 4.15337 0
M  V30 714 C 60.6701 -4.51645 5.12353 0
M  V30 715 O 60.3581 -4.84911 6.41183 0
M  V30 716 H 60.0901 -0.61606 0.278292 0
M  V30 717 H 62.6441 -1.50947 1.39299 0
M  V30 718 H 60.8741 -3.84946 0.367933 0
M  V30 719 H 62.5631 -3.9865 0.763752 0
M  V30 720 H 63.3291 -3.62607 3.22089 0
M  V30 721 H 59.2081 -4.10743 2.09311 0
M  V30 722 H 62.7521 -4.23568 5.54289 0
M  V30 723 H 58.6491 -4.71737 4.40607 0
M  V30 724 H 59.4171 -5.02809 6.45852 0
M  V30 725 N 62.0802 -0.821533 -1.34494 0
M  V30 726 C 63.0272 -0.240397 -2.29545 0
M  V30 727 C 63.9972 0.634031 -1.53523 0
M  V30 728 O 65.1822 0.575966 -1.81899 0
M  V30 729 C 62.3222 0.592869 -3.39969 0
M  V30 730 C 61.4352 -0.30365 -4.30932 0
M  V30 731 C 60.5702 0.539049 -5.28458 0
M  V30 732 C 59.6092 -0.356942 -6.11058 0
M  V30 733 N 58.7462 0.446603 -7.00678 0
M  V30 734 H 63.5862 -1.05632 -2.7865 0
M  V30 735 H 61.1232 -0.532413 -1.37127 0
M  V30 736 H 63.0812 1.09129 -4.02675 0
M  V30 737 H 61.7112 1.37392 -2.92102 0
M  V30 738 H 60.7632 -0.920276 -3.691 0
M  V30 739 H 62.0752 -0.992661 -4.88823 0
M  V30 740 H 61.2292 1.102 -5.96608 0
M  V30 741 H 59.9682 1.26157 -4.71101 0
M  V30 742 H 58.9732 -0.932047 -5.41842 0
M  V30 743 H 60.1982 -1.07755 -6.70497 0
M  V30 744 H 58.1442 1.15282 -6.45791 0
M  V30 745 H 58.0612 -0.184048 -7.55776 0
M  V30 746 H 59.3292 0.992352 -7.73158 0
M  V30 747 N 63.5583 1.46682 -0.576371 0
M  V30 748 C 64.8043 2.02712 -0.0596221 0
M  V30 749 C 65.1373 1.44765 1.29448 0
M  V30 750 O 64.4123 0.610355 1.84675 0
M  V30 751 C 64.6953 3.60098 0.0129503 0
M  V30 752 C 64.5483 4.28441 -1.3696 0
M  V30 753 C 65.8673 4.34224 0.71678 0
M  V30 754 H 62.9863 0.736637 -0.0231407 0
M  V30 755 H 65.6283 1.74898 -0.742351 0
M  V30 756 H 63.7783 3.83926 0.594378 0
M  V30 757 H 65.4503 4.15896 -1.9957 0
M  V30 758 H 63.6933 3.8805 -1.93907 0
M  V30 759 H 64.3643 5.3716 -1.27135 0
M  V30 760 H 66.8403 4.15503 0.222908 0
M  V30 761 H 65.7163 5.43936 0.73657 0
M  V30 762 H 65.9773 4.04823 1.77682 0
M  V30 763 N 65.0364 0.313813 1.54444 0
M  V30 764 C 65.9834 -0.55655 2.23989 0
M  V30 765 C 66.9534 -1.11943 1.22711 0
M  V30 766 O 68.1384 -1.16158 1.51367 0
M  V30 767 C 65.2784 -1.71635 2.99392 0
M  V30 768 C 64.3914 -1.18364 4.15468 0
M  V30 769 C 63.5264 -2.30834 4.78424 0
M  V30 770 C 62.5654 -1.74762 5.86622 0
M  V30 771 N 61.7024 -2.80855 6.43479 0
M  V30 772 H 66.5424 0.0430893 2.97969 0
M  V30 773 H 64.0794 0.0330359 1.47063 0
M  V30 774 H 66.0374 -2.39868 3.41349 0
M  V30 775 H 64.6674 -2.28742 2.27765 0
M  V30 776 H 63.7194 -0.393163 3.78363 0
M  V30 777 H 65.0314 -0.733262 4.93381 0
M  V30 778 H 64.1854 -3.0699 5.23299 0
M  V30 779 H 62.9244 -2.79204 3.99871 0
M  V30 780 H 61.9294 -0.970995 5.41158 0
M  V30 781 H 63.1544 -1.2728 6.67066 0
M  V30 782 H 61.1004 -3.28535 5.67804 0
M  V30 783 H 61.0174 -2.40351 7.16776 0
M  V30 784 H 62.2854 -3.5687 6.93011 0
M  V30 785 N 66.5145 -1.57545 0.0417849 0
M  V30 786 C 67.4625 -2.12148 -0.953723 0
M  V30 787 C 68.4565 -1.05104 -1.32852 0
M  V30 788 O 69.6625 -1.23524 -1.30927 0
M  V30 789 H 66.0375 -0.677957 -0.325389 0
M  V30 790 H 68.0085 -2.94707 -0.467991 0
M  V30 791 C 66.7575 -2.6739 -2.22257 0
M  V30 792 H 66.0805 -3.49413 -1.94295 0
M  V30 793 H 67.5205 -3.09227 -2.90094 0
M  V30 794 C 65.9795 -1.60723 -2.96091 0
M  V30 795 O 66.5095 -1.01449 -3.88679 0
M  V30 796 N 64.7155 -1.32466 -2.58652 0
M  V30 797 H 64.2625 -1.80856 -1.83437 0
M  V30 798 H 64.2205 -0.61325 -3.08361 0
M  V30 799 N 67.9926 0.231505 -1.5589 0
M  V30 800 C 69.2386 0.95877 -1.78705 0
M  V30 801 C 69.5716 1.8438 -0.609725 0
M  V30 802 O 68.8466 1.90521 0.391426 0
M  V30 803 C 69.1296 1.8062 -3.11526 0
M  V30 804 C 68.9826 0.948328 -4.39689 0
M  V30 805 C 70.3016 2.78585 -3.40703 0
M  V30 806 H 67.4206 0.347129 -0.650131 0
M  V30 807 H 70.0626 0.228259 -1.88624 0
M  V30 808 H 68.2126 2.42902 -3.03201 0
M  V30 809 H 69.8846 0.343016 -4.60023 0
M  V30 810 H 68.1276 0.253314 -4.3306 0
M  V30 811 H 68.7986 1.57543 -5.29041 0
M  V30 812 H 71.2746 2.26439 -3.49091 0
M  V30 813 H 70.1506 3.34988 -4.34826 0
M  V30 814 H 70.4116 3.55825 -2.62375 0
M  V30 815 N 69.4707 1.49531 0.497807 0
M  V30 816 C 70.6957 1.63159 1.28039 0
M  V30 817 C 71.1207 0.30418 1.85624 0
M  V30 818 O 70.4787 -0.728618 1.66015 0
M  V30 819 C 70.5267 2.70537 2.38416 0
M  V30 820 O 69.6307 2.29931 3.42353 0
M  V30 821 H 68.9717 0.546001 0.377861 0
M  V30 822 H 71.5017 1.9574 0.59558 0
M  V30 823 H 71.5117 2.92802 2.84132 0
M  V30 824 H 70.1867 3.6689 1.95869 0
M  V30 825 H 68.7637 2.18009 3.02533 0
M  V30 826 N 70.9488 -0.749086 1.3866 0
M  V30 827 C 71.8968 -1.88428 1.36373 0
M  V30 828 C 72.8908 -1.67561 0.248929 0
M  V30 829 O 74.0968 -1.75074 0.41821 0
M  V30 830 H 70.4718 -0.620023 0.42553 0
M  V30 831 H 72.4428 -1.87473 2.32156 0
M  V30 832 C 71.1918 -3.25961 1.21014 0
M  V30 833 H 70.5148 -3.42607 2.06059 0
M  V30 834 H 71.9548 -4.05625 1.23469 0
M  V30 835 C 70.4138 -3.36799 -0.0825941 0
M  V30 836 O 70.9438 -3.87517 -1.05797 0
M  V30 837 N 69.1498 -2.90258 -0.140939 0
M  V30 838 H 68.6968 -2.49174 0.653477 0
M  V30 839 H 68.6548 -2.97889 -1.00545 0
M  V30 840 N 72.4269 -1.23603 -0.977757 0
M  V30 841 C 73.6759 -1.06377 -1.71368 0
M  V30 842 C 73.9889 0.399062 -1.91486 0
M  V30 843 O 75.1949 0.691312 -2.62551 0
M  V30 844 C 73.6509 -1.85512 -3.08404 0
M  V30 845 C 73.2589 -3.36141 -2.96164 0
M  V30 846 C 75.0029 -1.76783 -3.85938 0
M  V30 847 C 72.9099 -4.07659 -4.28449 0
M  V30 848 H 71.8399 -0.394452 -0.642591 0
M  V30 849 H 74.4909 -1.47594 -1.09034 0
M  V30 850 H 72.8729 -1.37103 -3.71509 0
M  V30 851 H 74.0469 -3.92056 -2.42133 0
M  V30 852 H 72.3619 -3.45712 -2.32104 0
M  V30 853 H 74.9589 -2.27526 -4.83876 0
M  V30 854 H 75.3019 -0.731116 -4.0983 0
M  V30 855 H 75.8349 -2.22818 -3.2954 0
M  V30 856 H 72.5739 -5.11648 -4.09752 0
M  V30 857 H 72.0939 -3.5653 -4.82334 0
M  V30 858 H 73.7729 -4.141 -4.97122 0
M  V30 859 N 73.905 1.17692 -1.04816 0
M  V30 860 C 74.852 2.21581 -0.645797 0
M  V30 861 C 75.822 1.62367 0.350159 0
M  V30 862 O 77.007 1.89254 0.242433 0
M  V30 863 C 74.147 3.45092 -0.0227568 0
M  V30 864 C 73.26 4.18613 -1.06709 0
M  V30 865 C 72.395 5.29602 -0.411767 0
M  V30 866 C 71.434 5.94904 -1.44067 0
M  V30 867 N 70.571 6.97414 -0.809781 0
M  V30 868 H 75.411 2.55353 -1.5362 0
M  V30 869 H 72.948 1.25438 -0.768364 0
M  V30 870 H 74.906 4.15679 0.35588 0
M  V30 871 H 73.536 3.11917 0.831122 0
M  V30 872 H 72.588 3.46779 -1.5636 0
M  V30 873 H 73.9 4.63293 -1.84827 0
M  V30 874 H 73.054 6.06696 0.0206623 0
M  V30 875 H 71.793 4.86045 0.401438 0
M  V30 876 H 70.798 5.16544 -1.88316 0
M  V30 877 H 72.023 6.40542 -2.25571 0
M  V30 878 H 69.969 6.55998 -0.0170186 0
M  V30 879 H 69.886 7.40386 -1.52856 0
M  V30 880 H 71.154 7.78463 -0.401999 0
M  V30 881 N 75.3831 0.828654 1.34056 0
M  V30 882 C 76.3311 0.242973 2.31327 0
M  V30 883 C 77.3251 -0.61944 1.57668 0
M  V30 884 O 78.5311 -0.51014 1.7262 0
M  V30 885 H 74.9061 0.059834 0.749616 0
M  V30 886 H 76.8771 1.07809 2.78244 0
M  V30 887 C 75.6261 -0.575733 3.429 0
M  V30 888 H 74.9491 0.0785582 3.99723 0
M  V30 889 H 76.3891 -0.951547 4.13185 0
M  V30 890 C 74.8481 -1.75044 2.87856 0
M  V30 891 O 75.3781 -2.84882 2.83205 0
M  V30 892 N 73.5841 -1.56903 2.44602 0
M  V30 893 H 73.1311 -0.675547 2.48584 0
M  V30 894 H 73.0891 -2.35652 2.08124 0
M  V30 895 N 76.8612 -1.46375 0.584142 0
M  V30 896 C 77.8092 -2.32042 -0.161047 0
M  V30 897 C 78.8032 -1.44569 -0.882966 0
M  V30 898 O 80.0092 -1.61186 -0.801191 0
M  V30 899 H 76.3842 -0.748659 -0.0708033 0
M  V30 900 H 78.3552 -2.92704 0.580269 0
M  V30 901 C 77.1042 -3.27762 -1.1605 0
M  V30 902 H 76.4272 -3.95051 -0.614419 0
M  V30 903 H 77.8672 -3.90481 -1.65228 0
M  V30 904 C 76.3262 -2.53218 -2.22221 0
M  V30 905 O 76.8562 -2.29628 -3.29597 0
M  V30 906 N 75.0622 -2.13756 -1.96868 0
M  V30 907 H 74.6092 -2.33142 -1.09557 0
M  V30 908 H 74.5672 -1.642 -2.68115 0
M  V30 909 N 78.3393 -0.321999 -1.54275 0
M  V30 910 C 79.2863 0.544664 -2.24281 0
M  V30 911 C 80.2563 1.1129 -1.23303 0
M  V30 912 O 81.4413 1.15354 -1.51981 0
M  V30 913 C 78.5813 1.70045 -3.00298 0
M  V30 914 C 77.6943 1.16159 -4.1609 0
M  V30 915 C 76.8293 2.28293 -4.79641 0
M  V30 916 C 75.8683 1.71648 -5.8754 0
M  V30 917 N 75.0053 2.77438 -6.44959 0
M  V30 918 H 79.8453 -0.0588907 -2.97942 0
M  V30 919 H 77.3823 -0.0408345 -1.47043 0
M  V30 920 H 79.3403 2.38054 -3.42616 0
M  V30 921 H 77.9703 2.27531 -2.28975 0
M  V30 922 H 77.0223 0.373092 -3.78566 0
M  V30 923 H 78.3343 0.707087 -4.93763 0
M  V30 924 H 77.4883 3.0421 -5.2492 0
M  V30 925 H 76.2273 2.77079 -4.01346 0
M  V30 926 H 75.2323 0.942282 -5.41665 0
M  V30 927 H 76.4573 1.23741 -6.67731 0
M  V30 928 H 74.4033 3.25519 -5.69538 0
M  V30 929 H 74.3203 2.36547 -7.1804 0
M  V30 930 H 75.5883 3.53189 -6.94894 0
M  V30 931 N 79.8174 1.5752 -0.0501392 0
M  V30 932 C 81.0474 1.96678 0.632573 0
M  V30 933 C 81.4554 0.926298 1.64974 0
M  V30 934 O 80.7984 -0.09802 1.83438 0
M  V30 935 C 80.8604 3.32068 1.37735 0
M  V30 936 C 80.5244 4.54076 0.516131 0
M  V30 937 C 81.5214 5.19445 -0.217357 0
M  V30 938 C 79.2064 5.00304 0.44736 0
M  V30 939 C 81.2004 6.29378 -1.00807 0
M  V30 940 C 78.8874 6.10114 -0.347038 0
M  V30 941 C 79.8854 6.74512 -1.07344 0
M  V30 942 O 79.5734 7.82211 -1.85477 0
M  V30 943 H 79.3054 0.652193 0.177821 0
M  V30 944 H 81.8594 2.05091 -0.112543 0
M  V30 945 H 80.0894 3.20206 2.16807 0
M  V30 946 H 81.7784 3.55981 1.95019 0
M  V30 947 H 82.5444 4.84689 -0.173688 0
M  V30 948 H 78.4234 4.49971 1.00235 0
M  V30 949 H 81.9674 6.79575 -1.57556 0
M  V30 950 H 77.8644 6.44307 -0.392349 0
M  V30 951 H 78.6324 7.98982 -1.77678 0
M  V30 952 N 81.2955 -0.223234 1.56011 0
M  V30 953 C 82.2435 -1.29627 1.93131 0
M  V30 954 C 83.2375 -1.48608 0.813146 0
M  V30 955 O 84.4435 -1.49802 0.997966 0
M  V30 956 H 80.8185 -0.434563 0.613726 0
M  V30 957 H 82.7895 -0.955995 2.82672 0
M  V30 958 C 81.5385 -2.63983 2.26292 0
M  V30 959 H 80.8615 -2.50185 3.11846 0
M  V30 960 H 82.3015 -3.3788 2.56151 0
M  V30 961 C 80.7605 -3.18866 1.08747 0
M  V30 962 O 81.2905 -4.00192 0.347727 0
M  V30 963 N 79.4965 -2.77217 0.871743 0
M  V30 964 H 79.0435 -2.1119 1.47501 0
M  V30 965 H 79.0015 -3.1428 0.0869905 0
M  V30 966 N 82.7736 -1.49793 -0.48987 0
M  V30 967 C 84.0036 -1.6333 -1.26518 0
M  V30 968 C 84.4116 -0.308392 -1.8667 0
M  V30 969 O 83.7546 0.717512 -1.69108 0
M  V30 970 C 83.8166 -2.6522 -2.4269 0
M  V30 971 C 83.4806 -4.09279 -2.03321 0
M  V30 972 C 84.4776 -4.95738 -1.56652 0
M  V30 973 C 82.1626 -4.55082 -2.12616 0
M  V30 974 C 84.1566 -6.26041 -1.19795 0
M  V30 975 C 81.8436 -5.85396 -1.75371 0
M  V30 976 C 82.8416 -6.707 -1.29036 0
M  V30 977 O 82.5296 -7.98584 -0.92299 0
M  V30 978 H 82.2616 -0.552502 -0.389509 0
M  V30 979 H 84.8156 -1.96642 -0.593381 0
M  V30 980 H 83.0456 -2.27112 -3.12981 0
M  V30 981 H 84.7346 -2.68171 -3.04695 0
M  V30 982 H 85.5006 -4.61575 -1.48908 0
M  V30 983 H 81.3796 -3.88844 -2.47631 0
M  V30 984 H 84.9236 -6.92578 -0.835582 0
M  V30 985 H 80.8206 -6.19085 -1.82768 0
M  V30 986 H 81.5886 -8.11692 -1.05349 0
M  V30 987 N 84.2517 0.741722 -1.39055 0
M  V30 988 C 85.4987 1.50114 -1.35912 0
M  V30 989 C 85.8267 1.94443 0.0470937 0
M  V30 990 O 85.0817 1.66612 1.02659 0
M  V30 991 C 85.3807 2.7592 -2.27163 0
M  V30 992 C 85.0467 2.50493 -3.74919 0
M  V30 993 C 83.7087 2.43267 -4.1518 0
M  V30 994 C 86.0607 2.28585 -4.684 0
M  V30 995 C 83.3887 2.12166 -5.46994 0
M  V30 996 C 85.7407 1.99002 -6.00484 0
M  V30 997 C 84.4047 1.90241 -6.39816 0
M  V30 998 H 83.6747 0.549306 -0.497336 0
M  V30 999 H 86.3217 0.851896 -1.71508 0
M  V30 1000 H 84.6267 3.45553 -1.84663 0
M  V30 1001 H 86.3237 3.33923 -2.22028 0
M  V30 1002 H 82.9137 2.56992 -3.43006 0
M  V30 1003 H 87.0977 2.33139 -4.38132 0
M  V30 1004 H 82.3537 2.03901 -5.76398 0
M  V30 1005 H 86.5277 1.81057 -6.72452 0
M  V30 1006 H 84.1547 1.65907 -7.41875 0
M  V30 1007 N 85.7298 1.2412 0.971189 0
M  V30 1008 C 86.9788 1.07284 1.70801 0
M  V30 1009 C 87.2918 -0.388902 1.91695 0
M  V30 1010 O 88.4978 -0.677379 2.62914 0
M  V30 1011 C 86.9538 1.87145 3.07416 0
M  V30 1012 C 86.5618 3.37707 2.94377 0
M  V30 1013 C 88.3058 1.78828 3.84995 0
M  V30 1014 C 86.2128 4.09925 4.26281 0
M  V30 1015 H 85.1428 0.397854 0.64049 0
M  V30 1016 H 87.7938 1.4817 1.0825 0
M  V30 1017 H 86.1758 1.39071 3.70777 0
M  V30 1018 H 87.3498 3.93335 2.4005 0
M  V30 1019 H 85.6648 3.46938 2.30267 0
M  V30 1020 H 88.2618 2.30089 4.82662 0
M  V30 1021 H 88.6048 0.75284 4.09436 0
M  V30 1022 H 89.1378 2.24563 3.28354 0
M  V30 1023 H 85.8768 5.13813 4.07033 0
M  V30 1024 H 85.3968 3.59083 4.80437 0
M  V30 1025 H 87.0758 4.1673 4.94919 0
M  V30 1026 N 87.2079 -1.17134 1.05439 0
M  V30 1027 C 88.4569 -1.86791 0.761049 0
M  V30 1028 C 88.7699 -1.82072 -0.714795 0
M  V30 1029 O 89.9759 -2.47223 -1.12218 0
M  V30 1030 C 88.4319 -3.35166 1.31117 0
M  V30 1031 C 88.0399 -3.48381 2.81664 0
M  V30 1032 C 89.7839 -4.10134 1.09499 0
M  V30 1033 C 87.6909 -4.90793 3.29964 0
M  V30 1034 H 86.6209 -0.699681 0.281002 0
M  V30 1035 H 89.2719 -1.3226 1.27199 0
M  V30 1036 H 87.6539 -3.8925 0.72803 0
M  V30 1037 H 88.8279 -3.04502 3.45855 0
M  V30 1038 H 87.1429 -2.86836 3.01851 0
M  V30 1039 H 89.7399 -5.152 1.43084 0
M  V30 1040 H 90.0829 -4.16287 0.0328772 0
M  V30 1041 H 90.6159 -3.62264 1.64346 0
M  V30 1042 H 87.3549 -4.89816 4.35616 0
M  V30 1043 H 86.8749 -5.35333 2.70516 0
M  V30 1044 H 88.5539 -5.59573 3.24787 0
M  V30 1045 N 88.686 -0.835752 -1.33615 0
M  V30 1046 C 89.963 -0.352017 -1.92406 0
M  V30 1047 C 90.343 1.16225 -1.76224 0
M  V30 1048 O 89.691 1.97526 -1.14873 0
M  V30 1049 C 89.901 -0.795485 -3.39813 0
M  V30 1050 C 91.249 -0.801703 -4.16963 0
M  V30 1051 O 92.273 -0.738889 -3.48452 0
M  V30 1052 O 91.132 -0.886607 -5.3926 0
M  V30 1053 H 88.226 -0.0989641 -0.821057 0
M  V30 1054 H 90.772 -0.921397 -1.42507 0
M  V30 1055 H 89.544 -1.83795 -3.45449 0
M  V30 1056 H 89.167 -0.202505 -3.97084 0
M  V30 1057 N 90.1641 1.46063 -0.591896 0
M  V30 1058 C 91.3921 2.06717 -0.0868936 0
M  V30 1059 C 91.8071 1.43916 1.22203 0
M  V30 1060 O 91.1641 0.547698 1.74088 0
M  V30 1061 C 91.2151 3.6142 0.0758725 0
M  V30 1062 O 90.9361 4.21874 -1.18126 0
M  V30 1063 C 92.4371 4.39025 0.61416 0
M  V30 1064 H 89.6571 0.668162 -0.0616518 0
M  V30 1065 H 92.2011 1.8755 -0.815175 0
M  V30 1066 H 90.3561 3.79983 0.754413 0
M  V30 1067 H 90.7701 5.14861 -1.00092 0
M  V30 1068 H 92.2441 5.4783 0.677193 0
M  V30 1069 H 92.7211 4.07708 1.63312 0
M  V30 1070 H 93.3271 4.2529 -0.0298142 0
M  V30 1071 N 91.6422 0.330177 1.54103 0
M  V30 1072 C 92.8722 -0.271784 2.04805 0
M  V30 1073 C 93.2802 -1.45816 1.20559 0
M  V30 1074 O 92.6232 -1.82247 0.2306 0
M  V30 1075 C 92.6852 -0.763238 3.51305 0
M  V30 1076 C 92.3492 0.301705 4.56003 0
M  V30 1077 C 93.3462 1.13999 5.07248 0
M  V30 1078 C 91.0312 0.451793 5.00264 0
M  V30 1079 C 93.0252 2.11402 6.01322 0
M  V30 1080 C 90.7122 1.42924 5.94151 0
M  V30 1081 C 91.7102 2.25882 6.44567 0
M  V30 1082 O 91.3982 3.21965 7.3661 0
M  V30 1083 H 91.1302 -0.058693 0.673447 0
M  V30 1084 H 93.6842 0.476395 1.99799 0
M  V30 1085 H 91.9142 -1.56244 3.5373 0
M  V30 1086 H 93.6032 -1.28427 3.85047 0
M  V30 1087 H 94.3692 1.03505 4.73827 0
M  V30 1088 H 90.2482 -0.184044 4.60632 0
M  V30 1089 H 93.7922 2.76192 6.40596 0
M  V30 1090 H 89.6892 1.53479 6.26988 0
M  V30 1091 H 90.4572 3.17281 7.54503 0
M  V30 1092 N 93.1203 -1.57491 0.0584922 0
M  V30 1093 C 94.0683 -2.13148 -0.931168 0
M  V30 1094 C 95.0623 -1.06507 -1.31729 0
M  V30 1095 O 96.2683 -1.24906 -1.29609 0
M  V30 1096 H 92.6433 -0.68137 -0.31818 0
M  V30 1097 H 94.6143 -2.95187 -0.436707 0
M  V30 1098 C 93.3633 -2.69732 -2.19408 0
M  V30 1099 H 92.6863 -3.51454 -1.90578 0
M  V30 1100 H 94.1263 -3.12287 -2.86798 0
M  V30 1101 C 92.5853 -1.63855 -2.94369 0
M  V30 1102 O 93.1153 -1.05565 -3.87581 0
M  V30 1103 N 91.3213 -1.35202 -2.57233 0
M  V30 1104 H 90.8683 -1.82791 -1.81508 0
M  V30 1105 H 90.8263 -0.645922 -3.07693 0
M  V30 1106 N 94.5984 0.214957 -1.56127 0
M  V30 1107 C 95.5464 1.28601 -1.93816 0
M  V30 1108 C 96.5404 1.48175 -0.821016 0
M  V30 1109 O 97.7464 1.49271 -1.0059 0
M  V30 1110 H 94.1214 0.431302 -0.616022 0
M  V30 1111 H 96.0924 0.940991 -2.83175 0
M  V30 1112 C 94.8414 2.62779 -2.27689 0
M  V30 1113 H 94.1644 2.48527 -3.13168 0
M  V30 1114 H 95.6044 3.36517 -2.57939 0
M  V30 1115 C 94.0634 3.18285 -1.10436 0
M  V30 1116 O 94.5934 4.00002 -0.368945 0
M  V30 1117 N 92.7994 2.7675 -0.886433 0
M  V30 1118 H 92.3464 2.10404 -1.48619 0
M  V30 1119 H 92.3044 3.14229 -0.103656 0
M  V30 1120 N 96.0765 1.50051 0.48192 0
M  V30 1121 C 97.0095 1.62749 1.59963 0
M  V30 1122 C 97.9875 0.475903 1.5548 0
M  V30 1123 O 99.1715 0.693986 1.7526 0
M  V30 1124 C 96.2985 1.60008 2.98522 0
M  V30 1125 C 95.3445 2.80596 3.21198 0
M  V30 1126 S 96.1775 4.42038 3.02262 0
M  V30 1127 C 97.3335 4.41973 4.43182 0
M  V30 1128 H 97.5665 2.57296 1.4895 0
M  V30 1129 H 95.0995 1.39179 0.668477 0
M  V30 1130 H 97.0575 1.59112 3.78409 0
M  V30 1131 H 95.7185 0.667153 3.06933 0
M  V30 1132 H 94.9115 2.74952 4.22395 0
M  V30 1133 H 94.5135 2.79003 2.49065 0
M  V30 1134 H 96.8055 4.14868 5.35622 0
M  V30 1135 H 97.7485 5.43512 4.53873 0
M  V30 1136 H 98.1565 3.71812 4.24755 0
M  V30 1137 N 97.5546 -0.734337 1.39446 0
M  V30 1138 C 98.5016 -1.84835 1.38219 0
M  V30 1139 C 99.4716 -1.64331 0.24179 0
M  V30 1140 O 100.657 -1.85728 0.437002 0
M  V30 1141 C 97.7966 -3.22355 1.23212 0
M  V30 1142 C 96.9096 -3.5456 2.46801 0
M  V30 1143 C 96.0446 -4.81485 2.24377 0
M  V30 1144 C 95.0836 -5.06536 3.43639 0
M  V30 1145 N 94.2206 -6.24665 3.20528 0
M  V30 1146 H 99.0606 -1.85219 2.33448 0
M  V30 1147 H 96.5976 -0.905039 1.15963 0
M  V30 1148 H 98.5556 -4.0174 1.12522 0
M  V30 1149 H 97.1856 -3.21248 0.316121 0
M  V30 1150 H 96.2376 -2.69872 2.68092 0
M  V30 1151 H 97.5496 -3.6899 3.3563 0
M  V30 1152 H 96.7036 -5.68852 2.10933 0
M  V30 1153 H 95.4426 -4.6923 1.32944 0
M  V30 1154 H 94.4476 -4.17632 3.5758 0
M  V30 1155 H 95.6726 -5.20676 4.35974 0
M  V30 1156 H 93.6186 -6.13696 2.3176 0
M  V30 1157 H 93.5356 -6.39685 4.02913 0
M  V30 1158 H 94.8036 -7.14868 3.10779 0
M  V30 1159 N 99.0327 -1.24633 -0.964593 0
M  V30 1160 C 100.449 -1.01239 -1.2338 0
M  V30 1161 C 100.649 0.2769 -1.99588 0
M  V30 1162 O 99.7047 0.992241 -2.32187 0
M  V30 1163 C 101.018 -2.22937 -2.01791 0
M  V30 1164 C 102.566 -2.27594 -2.14872 0
M  V30 1165 C 103.041 -3.48921 -2.96678 0
M  V30 1166 N 104.532 -3.49257 -3.04259 0
M  V30 1167 C 105.267 -4.39795 -3.67924 0
M  V30 1168 N 104.763 -5.40591 -4.33281 0
M  V30 1169 N 106.556 -4.275 -3.64966 0
M  V30 1170 H 98.7067 -2.0748 -0.454502 0
M  V30 1171 H 100.97 -0.910647 -0.26349 0
M  V30 1172 H 100.676 -3.16587 -1.53184 0
M  V30 1173 H 100.55 -2.25306 -3.02518 0
M  V30 1174 H 102.937 -1.34473 -2.6268 0
M  V30 1175 H 103.018 -2.2925 -1.13482 0
M  V30 1176 H 102.662 -4.42359 -2.49562 0
M  V30 1177 H 102.592 -3.4451 -3.98272 0
M  V30 1178 H 105.083 -2.76337 -2.57771 0
M  V30 1179 H 105.396 -6.05904 -4.79687 0
M  V30 1180 H 103.741 -5.44475 -4.3194 0
M  V30 1181 H 106.932 -3.47987 -3.13086 0
M  V30 1182 H 107.105 -4.98258 -4.14298 0
M  V30 1183 N 100.511 1.16574 -1.06058 0
M  V30 1184 C 101.458 2.20883 -0.669263 0
M  V30 1185 C 102.428 1.62729 0.332918 0
M  V30 1186 O 103.613 1.895 0.222346 0
M  V30 1187 C 100.753 3.45049 -0.0593572 0
M  V30 1188 C 99.8658 4.17458 -1.11143 0
M  V30 1189 C 99.0008 5.29135 -0.467916 0
M  V30 1190 C 98.0398 5.93343 -1.50369 0
M  V30 1191 N 97.1768 6.96516 -0.883706 0
M  V30 1192 H 102.017 2.53709 -1.5632 0
M  V30 1193 H 99.5538 1.24616 -0.781625 0
M  V30 1194 H 101.512 4.16033 0.311771 0
M  V30 1195 H 100.142 3.12781 0.797992 0
M  V30 1196 H 99.1938 3.45101 -1.60029 0
M  V30 1197 H 100.506 4.61307 -1.89731 0
M  V30 1198 H 99.6598 6.06684 -0.0436871 0
M  V30 1199 H 98.3988 4.86443 0.349864 0
M  V30 1200 H 97.4038 5.14517 -1.93784 0
M  V30 1201 H 98.6288 6.38114 -2.32352 0
M  V30 1202 H 96.5748 6.55943 -0.086595 0
M  V30 1203 H 96.4918 7.38723 -1.607 0
M  V30 1204 H 97.7598 7.77993 -0.484543 0
M  V30 1205 N 101.989 0.842826 1.3317 0
M  V30 1206 C 102.937 0.267495 2.31057 0
M  V30 1207 C 103.931 -0.602682 1.58316 0
M  V30 1208 O 105.137 -0.491803 1.73151 0
M  V30 1209 H 101.512 0.0677813 0.748939 0
M  V30 1210 H 103.483 1.10754 2.77085 0
M  V30 1211 C 102.232 -0.539331 3.43492 0
M  V30 1212 H 101.555 0.12095 3.99617 0
M  V30 1213 H 102.995 -0.90767 4.14171 0
M  V30 1214 C 101.454 -1.71981 2.89697 0
M  V30 1215 O 101.984 -2.81862 2.86211 0
M  V30 1216 N 100.19 -1.54299 2.46252 0
M  V30 1217 H 99.7369 -0.649143 2.49287 0
M  V30 1218 H 99.6949 -2.33431 2.10612 0
M  V30 1219 N 103.467 -1.45747 0.599634 0
M  V30 1220 C 104.415 -2.322 -0.136426 0
M  V30 1221 C 105.409 -1.45497 -0.867583 0
M  V30 1222 O 106.615 -1.62027 -0.78405 0
M  V30 1223 H 102.99 -0.749368 -0.0628588 0
M  V30 1224 H 104.961 -2.92072 0.611281 0
M  V30 1225 C 103.71 -3.28974 -1.12567 0
M  V30 1226 H 103.033 -3.9568 -0.572484 0
M  V30 1227 H 104.473 -3.92212 -1.61077 0
M  V30 1228 C 102.932 -2.55561 -2.19523 0
M  V30 1229 O 103.462 -2.33111 -3.27143 0
M  V30 1230 N 101.668 -2.15832 -1.94589 0
M  V30 1231 H 101.215 -2.3429 -1.07078 0
M  V30 1232 H 101.173 -1.67034 -2.66359 0
M  V30 1233 N 104.945 -0.338344 -1.53925 0
M  V30 1234 C 106.17 0.263987 -2.05713 0
M  V30 1235 C 106.595 1.43847 -1.21201 0
M  V30 1236 O 105.953 1.79904 -0.224535 0
M  V30 1237 C 106.001 0.662 -3.54471 0
M  V30 1238 O 105.105 1.76265 -3.72833 0
M  V30 1239 H 104.446 0.0448722 -0.662482 0
M  V30 1240 H 106.976 -0.491048 -1.9862 0
M  V30 1241 H 106.986 0.940594 -3.9701 0
M  V30 1242 H 105.661 -0.196937 -4.15433 0
M  V30 1243 H 104.238 1.48173 -3.42198 0
M  V30 1244 N 106.423 1.57458 -0.0668435 0
M  V30 1245 C 107.672 1.92477 0.602947 0
M  V30 1246 C 107.985 0.948419 1.71068 0
M  V30 1247 O 109.191 1.19124 2.43971 0
M  V30 1248 C 107.647 3.41903 1.12383 0
M  V30 1249 C 107.255 4.47975 0.04737 0
M  V30 1250 C 108.999 3.85931 1.76797 0
M  V30 1251 C 106.906 5.88529 0.582022 0
M  V30 1252 H 105.836 0.718387 0.22899 0
M  V30 1253 H 108.487 1.82978 -0.138276 0
M  V30 1254 H 106.869 3.46459 1.91787 0
M  V30 1255 H 108.043 4.55029 -0.726978 0
M  V30 1256 H 106.358 4.13384 -0.500243 0
M  V30 1257 H 108.955 4.88322 2.17821 0
M  V30 1258 H 109.298 3.23029 2.62599 0
M  V30 1259 H 109.831 3.83958 1.04024 0
M  V30 1260 H 106.57 6.55065 -0.238721 0
M  V30 1261 H 106.09 5.85004 1.324 0
M  V30 1262 H 107.769 6.38258 1.05999 0
M  V30 1263 N 107.901 -0.206675 1.56239 0
M  V30 1264 C 109.131 -0.943975 1.83773 0
M  V30 1265 C 109.539 -1.77841 0.645703 0
M  V30 1266 O 108.882 -1.79403 -0.395008 0
M  V30 1267 C 108.944 -1.899 3.05251 0
M  V30 1268 C 108.608 -1.24764 4.39639 0
M  V30 1269 C 109.605 -0.630216 5.16066 0
M  V30 1270 C 107.29 -1.25496 4.8637 0
M  V30 1271 C 109.284 -0.0287946 6.37393 0
M  V30 1272 C 106.971 -0.649698 6.07637 0
M  V30 1273 C 107.969 -0.0376845 6.8299 0
M  V30 1274 O 107.657 0.55812 8.0196 0
M  V30 1275 H 107.389 -0.281508 0.614597 0
M  V30 1276 H 109.943 -0.222458 2.04192 0
M  V30 1277 H 108.173 -2.6599 2.80689 0
M  V30 1278 H 109.862 -2.5031 3.1953 0
M  V30 1279 H 110.628 -0.616785 4.81062 0
M  V30 1280 H 106.507 -1.72072 4.27683 0
M  V30 1281 H 110.051 0.449518 6.9615 0
M  V30 1282 H 105.948 -0.660592 6.42111 0
M  V30 1283 H 106.716 0.453891 8.17241 0
M  V30 1284 N 109.379 -1.50304 -0.473955 0
M  V30 1285 C 110.289 -1.7174 -1.5982 0
M  V30 1286 C 111.305 -0.600457 -1.63311 0
M  V30 1287 O 112.481 -0.878441 -1.81233 0
M  V30 1288 C 109.546 -1.80427 -2.96052 0
M  V30 1289 C 108.607 -3.04148 -3.02972 0
M  V30 1290 C 107.84 -3.12411 -4.32706 0
M  V30 1291 O 108.063 -2.27542 -5.23049 0
M  V30 1292 O 106.997 -4.05113 -4.45159 0
M  V30 1293 H 110.823 -2.67035 -1.44657 0
M  V30 1294 H 108.408 -1.34366 -0.653148 0
M  V30 1295 H 110.29 -1.88338 -3.7697 0
M  V30 1296 H 108.965 -0.883156 -3.11419 0
M  V30 1297 H 107.872 -3.0174 -2.21142 0
M  V30 1298 H 109.205 -3.95829 -2.92541 0
M  V30 1299 N 110.857 0.726932 -1.39834 0
M  V30 1300 C 111.807 1.83232 -1.35683 0
M  V30 1301 C 112.791 1.59155 -0.236295 0
M  V30 1302 O 113.983 1.70522 -0.474488 0
M  V30 1303 C 111.112 3.21246 -1.21062 0
M  V30 1304 C 110.198 3.51125 -2.37849 0
M  V30 1305 N 110.589 3.51889 -3.63329 0
M  V30 1306 C 108.887 3.81527 -2.30982 0
M  V30 1307 C 109.588 3.79791 -4.40606 0
M  V30 1308 N 108.564 3.97971 -3.70297 0
M  V30 1309 H 112.366 1.8214 -2.30656 0
M  V30 1310 H 109.88 0.925545 -1.33444 0
M  V30 1311 H 111.877 4.00387 -1.16171 0
M  V30 1312 H 110.537 3.23572 -0.270458 0
M  V30 1313 H 111.548 3.33008 -3.96643 0
M  V30 1314 H 108.225 3.91411 -1.45272 0
M  V30 1315 H 109.615 3.86783 -5.49408 0
M  V30 1316 N 112.336 1.25143 0.95797 0
M  V30 1317 C 113.284 1.05019 2.07542 0
M  V30 1318 C 114.278 -0.0178751 1.69391 0
M  V30 1319 O 115.484 0.137472 1.79474 0
M  V30 1320 H 111.859 0.32265 0.679265 0
M  V30 1321 H 113.83 1.99759 2.21673 0
M  V30 1322 C 112.579 0.682074 3.40944 0
M  V30 1323 H 111.902 1.49573 3.70767 0
M  V30 1324 H 113.342 0.580945 4.20001 0
M  V30 1325 C 111.801 -0.611608 3.31302 0
M  V30 1326 O 112.331 -1.65465 3.66038 0
M  V30 1327 N 110.537 -0.595982 2.84423 0
M  V30 1328 H 110.084 0.253192 2.56353 0
M  V30 1329 H 110.042 -1.46173 2.78354 0
M  V30 1330 N 113.814 -1.1601 1.06675 0
M  V30 1331 C 115.061 -1.86633 0.785781 0
M  V30 1332 C 115.389 -1.81929 -0.687896 0
M  V30 1333 O 114.644 -1.23253 -1.52011 0
M  V30 1334 C 114.943 -3.35547 1.23057 0
M  V30 1335 C 114.609 -3.60448 2.70902 0
M  V30 1336 C 113.271 -3.66954 3.11285 0
M  V30 1337 C 115.623 -3.7071 3.66365 0
M  V30 1338 C 112.951 -3.81225 4.45965 0
M  V30 1339 C 115.303 -3.86503 5.00797 0
M  V30 1340 C 113.967 -3.91252 5.40813 0
M  V30 1341 H 113.237 -0.682937 0.287538 0
M  V30 1342 H 115.884 -1.37146 1.33654 0
M  V30 1343 H 114.189 -3.87193 0.59907 0
M  V30 1344 H 115.886 -3.88583 0.990163 0
M  V30 1345 H 112.476 -3.56021 2.38636 0
M  V30 1346 H 116.66 -3.64991 3.36296 0
M  V30 1347 H 111.916 -3.83155 4.76447 0
M  V30 1348 H 116.09 -3.93385 5.74649 0
M  V30 1349 H 113.717 -4.02062 6.45174 0
M  V30 1350 N 115.292 -0.849877 -1.32721 0
M  V30 1351 C 116.24 -0.279745 -2.30912 0
M  V30 1352 C 117.234 0.594278 -1.58634 0
M  V30 1353 O 118.44 0.482613 -1.73409 0
M  V30 1354 H 114.815 -0.0717521 -0.748569 0
M  V30 1355 H 116.786 -1.12222 -2.76494 0
M  V30 1356 C 115.535 0.521108 -3.43773 0
M  V30 1357 H 114.858 -0.142141 -3.99547 0
M  V30 1358 H 116.298 0.885693 -4.14646 0
M  V30 1359 C 114.757 1.70442 -2.90605 0
M  V30 1360 O 115.287 2.8034 -2.87702 0
M  V30 1361 N 113.493 1.52991 -2.47067 0
M  V30 1362 H 113.04 0.635914 -2.49628 0
M  V30 1363 H 112.998 2.32311 -2.11847 0
M  V30 1364 N 116.77 1.45427 -0.607355 0
M  V30 1365 C 117.718 2.32269 0.12411 0
M  V30 1366 C 118.712 1.45955 0.859854 0
M  V30 1367 O 119.918 1.6244 0.775447 0
M  V30 1368 H 116.293 0.749691 0.0588839 0
M  V30 1369 H 118.264 2.91743 -0.626762 0
M  V30 1370 C 117.013 3.29567 1.1082 0
M  V30 1371 H 116.336 3.95978 0.551492 0
M  V30 1372 H 117.776 3.93061 1.58995 0
M  V30 1373 C 116.235 2.56722 2.18164 0
M  V30 1374 O 116.765 2.34842 3.25902 0
M  V30 1375 N 114.971 2.16861 1.93442 0
M  V30 1376 H 114.518 2.34855 1.05834 0
M  V30 1377 H 114.476 1.68444 2.65469 0
M  V30 1378 N 118.248 0.346503 1.53744 0
M  V30 1379 C 119.495 -0.249104 2.00962 0
M  V30 1380 C 119.823 -1.5032 1.23426 0
M  V30 1381 O 119.078 -1.93217 0.310761 0
M  V30 1382 C 119.377 -0.605809 3.52228 0
M  V30 1383 C 119.043 0.551747 4.47512 0
M  V30 1384 C 117.705 0.86941 4.73281 0
M  V30 1385 C 120.057 1.32818 5.03993 0
M  V30 1386 C 117.385 1.96582 5.52786 0
M  V30 1387 C 119.737 2.41486 5.84694 0
M  V30 1388 C 118.401 2.73808 6.08757 0
M  V30 1389 H 117.671 -0.0911538 0.735372 0
M  V30 1390 H 120.318 0.475027 1.85515 0
M  V30 1391 H 118.623 -1.4107 3.65522 0
M  V30 1392 H 120.32 -1.07858 3.86222 0
M  V30 1393 H 116.91 0.294102 4.2759 0
M  V30 1394 H 121.094 1.09602 4.84047 0
M  V30 1395 H 116.35 2.22045 5.69654 0
M  V30 1396 H 120.524 3.02078 6.27473 0
M  V30 1397 H 118.151 3.58892 6.7015 0
M  V30 1398 N 119.726 -1.57421 0.075193 0
M  V30 1399 C 120.674 -2.14124 -0.908508 0
M  V30 1400 C 121.668 -1.07898 -1.30592 0
M  V30 1401 O 122.874 -1.26273 -1.28277 0
M  V30 1402 H 119.249 -0.684707 -0.310935 0
M  V30 1403 H 121.22 -2.95634 -0.405374 0
M  V30 1404 C 119.969 -2.72044 -2.16535 0
M  V30 1405 H 119.292 -3.53456 -1.86839 0
M  V30 1406 H 120.732 -3.15311 -2.83469 0
M  V30 1407 C 119.191 -1.66968 -2.92615 0
M  V30 1408 O 119.721 -1.0967 -3.86439 0
M  V30 1409 N 117.927 -1.37923 -2.55784 0
M  V30 1410 H 117.474 -1.84706 -1.79559 0
M  V30 1411 H 117.432 -0.67852 -3.06991 0
M  V30 1412 N 121.204 0.198386 -1.56346 0
M  V30 1413 C 122.62 0.549085 -1.49857 0
M  V30 1414 C 122.82 1.86016 -0.774611 0
M  V30 1415 O 121.876 2.50416 -0.323776 0
M  V30 1416 C 123.189 0.606868 -2.94512 0
M  V30 1417 C 124.737 0.695925 -3.05165 0
M  V30 1418 C 125.212 0.784848 -4.51225 0
M  V30 1419 N 126.703 0.848463 -4.55363 0
M  V30 1420 C 127.438 0.937378 -5.65686 0
M  V30 1421 N 126.934 0.9888 -6.85707 0
M  V30 1422 N 128.727 0.974312 -5.53592 0
M  V30 1423 H 120.878 -0.661655 -2.01831 0
M  V30 1424 H 123.141 -0.235261 -0.918344 0
M  V30 1425 H 122.847 -0.28732 -3.50524 0
M  V30 1426 H 122.721 1.46268 -3.47686 0
M  V30 1427 H 125.108 1.58055 -2.49204 0
M  V30 1428 H 125.189 -0.186022 -2.55123 0
M  V30 1429 H 124.833 -0.0954072 -5.0781 0
M  V30 1430 H 124.763 1.68255 -4.98997 0
M  V30 1431 H 127.254 0.818103 -3.68938 0
M  V30 1432 H 127.567 1.05707 -7.65536 0
M  V30 1433 H 125.912 0.957534 -6.88372 0
M  V30 1434 H 129.103 0.930954 -4.58749 0
M  V30 1435 H 129.276 1.04015 -6.39597 0
M  V30 1436 N 122.682 1.50554 0.465978 0
M  V30 1437 C 123.629 1.6979 1.56333 0
M  V30 1438 C 124.599 0.539239 1.57103 0
M  V30 1439 O 125.784 0.770401 1.74555 0
M  V30 1440 C 122.924 1.80273 2.94271 0
M  V30 1441 C 122.037 3.07674 3.0325 0
M  V30 1442 C 121.172 3.08922 4.32135 0
M  V30 1443 C 120.211 4.30755 4.34875 0
M  V30 1444 N 119.348 4.29714 5.55239 0
M  V30 1445 H 124.188 2.63472 1.39235 0
M  V30 1446 H 121.725 1.30602 0.676873 0
M  V30 1447 H 123.683 1.84332 3.74269 0
M  V30 1448 H 122.313 0.900258 3.09992 0
M  V30 1449 H 121.365 3.13062 2.16094 0
M  V30 1450 H 122.677 3.97642 3.01135 0
M  V30 1451 H 121.831 3.11738 5.20485 0
M  V30 1452 H 120.57 2.16792 4.36866 0
M  V30 1453 H 119.575 4.28146 3.44922 0
M  V30 1454 H 120.8 5.24117 4.31831 0
M  V30 1455 H 118.746 3.4044 5.60746 0
M  V30 1456 H 118.663 5.13456 5.54886 0
M  V30 1457 H 119.931 4.36683 6.457 0
M  V30 1458 N 124.16 -0.719506 1.40217 0
M  V30 1459 C 125.108 -1.85493 1.40339 0
M  V30 1460 C 126.102 -1.66995 0.284415 0
M  V30 1461 O 127.308 -1.74148 0.455252 0
M  V30 1462 H 123.683 -0.610857 0.438586 0
M  V30 1463 H 125.654 -1.82506 2.36081 0
M  V30 1464 C 124.403 -3.23321 1.27901 0
M  V30 1465 H 123.726 -3.38159 2.1328 0
M  V30 1466 H 125.166 -4.02914 1.32045 0
M  V30 1467 C 123.625 -3.36898 -0.0111355 0
M  V30 1468 O 124.155 -3.89674 -0.975538 0
M  V30 1469 N 122.361 -2.90492 -0.0793393 0
M  V30 1470 H 121.908 -2.47731 0.706183 0
M  V30 1471 H 121.866 -2.99955 -0.942038 0
M  V30 1472 N 125.638 -1.25649 -0.95132 0
M  V30 1473 C 126.585 -1.06323 -2.04851 0
M  V30 1474 C 127.555 0.0286491 -1.66075 0
M  V30 1475 O 128.74 -0.12917 -1.90362 0
M  V30 1476 C 125.88 -0.691529 -3.381 0
M  V30 1477 C 124.993 -1.85861 -3.89974 0
M  V30 1478 C 124.128 -1.43096 -5.11563 0
M  V30 1479 C 123.167 -2.56696 -5.55674 0
M  V30 1480 N 122.304 -2.14684 -6.68472 0
M  V30 1481 H 127.144 -2.00222 -2.20715 0
M  V30 1482 H 124.681 -0.997027 -1.08156 0
M  V30 1483 H 126.639 -0.456963 -4.1469 0
M  V30 1484 H 125.269 0.210474 -3.22113 0
M  V30 1485 H 124.321 -2.20639 -3.09875 0
M  V30 1486 H 125.633 -2.71161 -4.18657 0
M  V30 1487 H 124.787 -1.15624 -5.9558 0
M  V30 1488 H 123.526 -0.548722 -4.84603 0
M  V30 1489 H 122.531 -2.84909 -4.7022 0
M  V30 1490 H 123.756 -3.45503 -5.8464 0
M  V30 1491 H 121.702 -1.28881 -6.43215 0
M  V30 1492 H 121.619 -2.9353 -6.96689 0
M  V30 1493 H 122.887 -1.90397 -7.5589 0
M  V30 1494 N 127.117 1.15442 -1.07289 0
M  V30 1495 C 128.345 1.90096 -0.81676 0
M  V30 1496 C 128.76 1.7798 0.629966 0
M  V30 1497 O 128.117 1.1313 1.43206 0
M  V30 1498 C 128.168 3.40466 -1.21512 0
M  V30 1499 O 127.889 3.52232 -2.60508 0
M  V30 1500 C 129.39 4.32145 -0.988198 0
M  V30 1501 H 126.61 0.602495 -0.295366 0
M  V30 1502 H 129.154 1.4627 -1.42918 0
M  V30 1503 H 127.309 3.81958 -0.647039 0
M  V30 1504 H 127.723 4.45549 -2.76742 0
M  V30 1505 H 129.197 5.36072 -1.31645 0
M  V30 1506 H 129.674 4.39135 0.0755063 0
M  V30 1507 H 130.28 3.96395 -1.54115 0
M  V30 1508 N 128.595 0.856903 1.32268 0
M  V30 1509 C 129.825 0.47475 2.01071 0
M  V30 1510 C 130.233 -0.933746 1.64553 0
M  V30 1511 O 129.576 -1.62114 0.863989 0
M  V30 1512 C 129.638 0.536746 3.55471 0
M  V30 1513 C 129.302 1.90453 4.15423 0
M  V30 1514 C 130.299 2.87029 4.33486 0
M  V30 1515 C 127.984 2.20229 4.51447 0
M  V30 1516 C 129.978 4.11532 4.86744 0
M  V30 1517 C 127.665 3.44984 5.0441 0
M  V30 1518 C 128.663 4.40452 5.22007 0
M  V30 1519 O 128.351 5.62998 5.73837 0
M  V30 1520 H 128.083 0.184778 0.650256 0
M  V30 1521 H 130.637 1.15615 1.69771 0
M  V30 1522 H 128.867 -0.20152 3.86175 0
M  V30 1523 H 130.556 0.169875 4.05544 0
M  V30 1524 H 131.322 2.6533 4.05986 0
M  V30 1525 H 127.201 1.46705 4.37034 0
M  V30 1526 H 130.745 4.86056 5.00395 0
M  V30 1527 H 126.642 3.66532 5.31342 0
M  V30 1528 H 127.41 5.64987 5.92226 0
M  V30 1529 N 130.073 -1.45103 0.615059 0
M  V30 1530 C 131.003 -2.33339 -0.0865619 0
M  V30 1531 C 131.984 -1.4727 -0.851209 0
M  V30 1532 O 133.169 -1.76026 -0.820281 0
M  V30 1533 C 130.299 -3.30095 -1.07956 0
M  V30 1534 C 129.253 -4.25858 -0.427628 0
M  V30 1535 C 128.579 -5.12361 -1.5294 0
M  V30 1536 C 129.879 -5.18165 0.655944 0
M  V30 1537 H 131.573 -2.92254 0.650224 0
M  V30 1538 H 129.119 -1.40532 0.314138 0
M  V30 1539 H 131.072 -3.90698 -1.57901 0
M  V30 1540 H 129.796 -2.69355 -1.84703 0
M  V30 1541 H 128.455 -3.66564 0.0510292 0
M  V30 1542 H 128.103 -4.47984 -2.28734 0
M  V30 1543 H 127.803 -5.77238 -1.09865 0
M  V30 1544 H 129.327 -5.75833 -2.03098 0
M  V30 1545 H 130.741 -5.72796 0.240257 0
M  V30 1546 H 129.138 -5.91559 1.00888 0
M  V30 1547 H 130.208 -4.60144 1.52957 0
M  V30 1548 N 131.551 -0.354651 -1.53558 0
M  V30 1549 C 132.798 0.238443 -2.01091 0
M  V30 1550 C 133.126 1.49663 -1.24222 0
M  V30 1551 O 132.381 1.93049 -0.321003 0
M  V30 1552 C 132.68 0.587121 -3.52545 0
M  V30 1553 C 132.346 -0.575472 -4.47213 0
M  V30 1554 C 131.008 -0.894497 -4.72813 0
M  V30 1555 C 133.36 -1.35489 -5.03281 0
M  V30 1556 C 130.688 -1.99511 -5.51736 0
M  V30 1557 C 133.04 -2.44583 -5.83405 0
M  V30 1558 C 131.704 -2.77033 -6.07296 0
M  V30 1559 H 130.974 0.0872526 -0.735845 0
M  V30 1560 H 133.621 -0.484859 -1.8526 0
M  V30 1561 H 131.926 1.39129 -3.66265 0
M  V30 1562 H 133.623 1.05809 -3.86789 0
M  V30 1563 H 130.213 -0.316774 -4.27428 0
M  V30 1564 H 134.397 -1.12167 -4.83459 0
M  V30 1565 H 129.653 -2.25063 -5.68469 0
M  V30 1566 H 133.827 -3.05401 -6.25862 0
M  V30 1567 H 131.454 -3.6244 -6.68237 0
M  V30 1568 N 133.029 1.57378 -0.0835403 0
M  V30 1569 C 134.278 1.93106 0.582498 0
M  V30 1570 C 134.591 0.96651 1.70053 0
M  V30 1571 O 135.797 1.21705 2.42693 0
M  V30 1572 C 134.253 3.43076 1.08751 0
M  V30 1573 C 133.861 4.48 -0.000146404 0
M  V30 1574 C 135.605 3.87785 1.72694 0
M  V30 1575 C 133.512 5.89113 0.519568 0
M  V30 1576 H 132.442 0.720775 0.221358 0
M  V30 1577 H 135.093 1.82821 -0.157675 0
M  V30 1578 H 133.475 3.48474 1.88101 0
M  V30 1579 H 134.649 4.54233 -0.775199 0
M  V30 1580 H 132.964 4.1283 -0.54406 0
M  V30 1581 H 135.561 4.90604 2.1263 0
M  V30 1582 H 135.904 3.25796 2.59158 0
M  V30 1583 H 136.437 3.8504 0.999457 0
M  V30 1584 H 133.176 6.54775 -0.308186 0
M  V30 1585 H 132.696 5.86376 1.26188 0
M  V30 1586 H 134.375 6.39346 0.992237 0
M  V30 1587 N 134.507 -0.190092 1.56449 0
M  V30 1588 C 135.784 -0.935886 1.71757 0
M  V30 1589 C 136.164 -2.01173 0.639726 0
M  V30 1590 O 135.512 -2.25827 -0.348502 0
M  V30 1591 C 135.722 -1.51775 3.1427 0
M  V30 1592 C 137.07 -1.99794 3.74656 0
M  V30 1593 O 138.094 -1.61607 3.1743 0
M  V30 1594 O 136.953 -2.70079 4.751 0
M  V30 1595 H 134.047 -0.439229 0.700719 0
M  V30 1596 H 136.593 -0.179395 1.68749 0
M  V30 1597 H 135.365 -0.742505 3.84191 0
M  V30 1598 H 134.988 -2.33894 3.21527 0
M  V30 1599 N 135.985 -1.50799 -0.457987 0
M  V30 1600 C 136.933 -1.71162 -1.575 0
M  V30 1601 C 137.927 -0.577592 -1.59249 0
M  V30 1602 O 139.133 -0.758443 -1.63241 0
M  V30 1603 H 135.508 -0.540468 -0.522875 0
M  V30 1604 H 137.479 -2.64837 -1.37492 0
M  V30 1605 C 136.228 -1.83496 -2.95338 0
M  V30 1606 H 135.551 -2.70153 -2.94716 0
M  V30 1607 H 136.991 -2.01765 -3.72917 0
M  V30 1608 C 135.45 -0.589694 -3.31699 0
M  V30 1609 O 135.98 0.265163 -4.00824 0
M  V30 1610 N 134.186 -0.439845 -2.87252 0
M  V30 1611 H 133.733 -1.13655 -2.31172 0
M  V30 1612 H 133.691 0.392159 -3.11945 0
M  V30 1613 N 137.463 0.71206 -1.40597 0
M  V30 1614 C 138.41 1.82613 -1.41142 0
M  V30 1615 C 139.38 1.63925 -0.267903 0
M  V30 1616 O 140.565 1.85009 -0.466495 0
M  V30 1617 C 137.705 3.20354 -1.28324 0
M  V30 1618 C 136.818 3.50589 -2.52411 0
M  V30 1619 C 135.953 4.77855 -2.32009 0
M  V30 1620 C 134.992 5.01005 -3.51654 0
M  V30 1621 N 134.129 6.19487 -3.30425 0
M  V30 1622 H 138.969 1.81482 -2.36365 0
M  V30 1623 H 136.506 0.886475 -1.17388 0
M  V30 1624 H 138.464 3.99899 -1.18899 0
M  V30 1625 H 137.094 3.20705 -0.367189 0
M  V30 1626 H 136.146 2.65573 -2.72351 0
M  V30 1627 H 137.458 3.63604 -3.41458 0
M  V30 1628 H 136.612 5.65424 -2.19956 0
M  V30 1629 H 135.351 4.67056 -1.40392 0
M  V30 1630 H 134.356 4.1189 -3.64179 0
M  V30 1631 H 135.581 5.13674 -4.44202 0
M  V30 1632 H 133.527 6.09932 -2.41494 0
M  V30 1633 H 133.444 6.33194 -4.13039 0
M  V30 1634 H 134.712 7.09834 -3.22113 0
M  V30 1635 N 138.941 1.26152 0.944643 0
M  V30 1636 C 139.888 1.07408 2.04285 0
M  V30 1637 C 140.858 -0.0198413 1.66088 0
M  V30 1638 O 142.043 0.139264 1.90291 0
M  V30 1639 C 139.183 0.70945 3.37729 0
M  V30 1640 C 138.296 1.87926 3.88983 0
M  V30 1641 C 137.431 1.45807 5.10797 0
M  V30 1642 C 136.47 2.5964 5.54305 0
M  V30 1643 N 135.607 2.18226 6.67324 0
M  V30 1644 H 140.447 2.01389 2.1965 0
M  V30 1645 H 137.984 1.00275 1.07626 0
M  V30 1646 H 139.942 0.478948 4.14442 0
M  V30 1647 H 138.572 -0.193389 3.2222 0
M  V30 1648 H 137.624 2.22279 3.08701 0
M  V30 1649 H 138.936 2.73377 4.17213 0
M  V30 1650 H 138.09 1.18781 5.94959 0
M  V30 1651 H 136.829 0.574414 4.84305 0
M  V30 1652 H 135.834 2.87399 4.68702 0
M  V30 1653 H 137.059 3.48599 5.828 0
M  V30 1654 H 135.005 1.3229 6.42523 0
M  V30 1655 H 134.922 2.97221 6.95123 0
M  V30 1656 H 136.19 1.94403 7.54869 0
M  V30 1657 N 140.419 -1.14872 1.07899 0
M  V30 1658 C 141.835 -1.37776 0.805606 0
M  V30 1659 C 142.035 -1.92743 -0.587555 0
M  V30 1660 O 141.091 -2.13678 -1.34528 0
M  V30 1661 C 142.404 -2.34361 1.88402 0
M  V30 1662 C 143.952 -2.48012 1.90942 0
M  V30 1663 C 144.427 -3.47893 2.97883 0
M  V30 1664 N 145.918 -3.55433 2.97021 0
M  V30 1665 C 146.653 -4.32553 3.76412 0
M  V30 1666 N 146.149 -5.12959 4.65666 0
M  V30 1667 N 147.942 -4.27697 3.64735 0
M  V30 1668 H 140.093 -0.775365 1.97742 0
M  V30 1669 H 142.356 -0.403521 0.857831 0
M  V30 1670 H 142.062 -2.01098 2.88535 0
M  V30 1671 H 141.936 -3.34206 1.74889 0
M  V30 1672 H 144.323 -2.8057 0.914579 0
M  V30 1673 H 144.404 -1.48147 2.08534 0
M  V30 1674 H 144.048 -3.16069 3.97571 0
M  V30 1675 H 143.978 -4.47527 2.77538 0
M  V30 1676 H 146.469 -2.98048 2.32326 0
M  V30 1677 H 146.782 -5.69065 5.22862 0
M  V30 1678 H 145.127 -5.12245 4.69712 0
M  V30 1679 H 148.318 -3.63949 2.94378 0
M  V30 1680 H 148.491 -4.8755 4.26848 0
M  V30 1681 N 141.898 -0.863906 -1.31812 0
M  V30 1682 C 143.314 -0.555004 -1.49639 0
M  V30 1683 C 143.514 0.912266 -1.79666 0
M  V30 1684 O 142.57 1.69479 -1.87171 0
M  V30 1685 C 143.883 -1.44998 -2.63431 0
M  V30 1686 C 145.431 -1.45138 -2.77316 0
M  V30 1687 C 145.906 -2.33179 -3.94197 0
M  V30 1688 N 147.397 -2.31025 -4.01474 0
M  V30 1689 C 148.132 -2.95871 -4.9117 0
M  V30 1690 N 147.628 -3.69863 -5.8581 0
M  V30 1691 N 149.421 -2.85211 -4.84367 0
M  V30 1692 H 141.572 -1.81339 -1.10589 0
M  V30 1693 H 143.835 -0.77505 -0.545895 0
M  V30 1694 H 143.541 -2.49377 -2.48 0
M  V30 1695 H 143.415 -1.14409 -3.59431 0
M  V30 1696 H 145.802 -0.415201 -2.92164 0
M  V30 1697 H 145.883 -1.79747 -1.82001 0
M  V30 1698 H 145.527 -3.3687 -3.80107 0
M  V30 1699 H 145.457 -1.95897 -4.88807 0
M  V30 1700 H 147.948 -1.77238 -3.33759 0
M  V30 1701 H 148.261 -4.16486 -6.50968 0
M  V30 1702 H 146.606 -3.73971 -5.85808 0
M  V30 1703 H 149.797 -2.26948 -4.09405 0
M  V30 1704 H 149.97 -3.36027 -5.54066 0
M  V30 1705 N 143.376 1.44774 -0.622745 0
M  V30 1706 C 144.792 1.56986 -0.287652 0
M  V30 1707 C 144.992 1.61167 1.20944 0
M  V30 1708 O 144.048 1.55015 1.99315 0
M  V30 1709 C 145.361 2.84551 -0.972188 0
M  V30 1710 C 146.909 2.9825 -0.949536 0
M  V30 1711 C 147.384 4.28605 -1.61437 0
M  V30 1712 N 148.875 4.35399 -1.58057 0
M  V30 1713 C 149.61 5.34964 -2.064 0
M  V30 1714 N 149.106 6.40981 -2.62897 0
M  V30 1715 N 150.899 5.26419 -1.97078 0
M  V30 1716 H 143.05 1.40304 -1.59463 0
M  V30 1717 H 145.313 0.671794 -0.668878 0
M  V30 1718 H 145.019 2.87417 -2.02693 0
M  V30 1719 H 144.893 3.73807 -0.504771 0
M  V30 1720 H 147.28 2.94941 0.0967067 0
M  V30 1721 H 147.361 2.10364 -1.45536 0
M  V30 1722 H 147.005 4.32672 -2.66002 0
M  V30 1723 H 146.935 5.15334 -1.08344 0
M  V30 1724 H 149.426 3.59397 -1.16801 0
M  V30 1725 H 149.739 7.13225 -2.97539 0
M  V30 1726 H 148.084 6.4169 -2.66943 0
M  V30 1727 H 151.275 4.42504 -1.52669 0
M  V30 1728 H 151.448 6.03861 -2.35066 0
M  V30 1729 N 144.854 0.36279 1.53368 0
M  V30 1730 C 145.801 -0.485008 2.25646 0
M  V30 1731 C 146.771 -1.07982 1.2621 0
M  V30 1732 O 147.956 -1.11284 1.54986 0
M  V30 1733 C 145.096 -1.62023 3.04701 0
M  V30 1734 C 144.209 -1.05086 4.19024 0
M  V30 1735 C 143.344 -2.15496 4.85525 0
M  V30 1736 C 142.383 -1.5601 5.91884 0
M  V30 1737 N 141.52 -2.60241 6.52088 0
M  V30 1738 H 146.36 0.137864 2.97681 0
M  V30 1739 H 143.897 0.0798061 1.46883 0
M  V30 1740 H 145.855 -2.28887 3.48807 0
M  V30 1741 H 144.485 -2.2138 2.34927 0
M  V30 1742 H 143.537 -0.27259 3.79422 0
M  V30 1743 H 144.849 -0.575926 4.95464 0
M  V30 1744 H 144.003 -2.90186 5.32801 0
M  V30 1745 H 142.742 -2.66341 4.08551 0
M  V30 1746 H 141.747 -0.798338 5.43973 0
M  V30 1747 H 142.972 -1.05994 6.70777 0
M  V30 1748 H 140.918 -3.10304 5.77968 0
M  V30 1749 H 140.835 -2.17426 7.24059 0
M  V30 1750 H 142.103 -3.34641 7.04014 0
M  V30 1751 N 146.332 -1.57332 0.0918853 0
M  V30 1752 C 147.579 -1.94236 -0.572577 0
M  V30 1753 C 147.907 -0.973398 -1.6839 0
M  V30 1754 O 147.162 0.00756912 -1.95699 0
M  V30 1755 C 147.461 -3.37689 -1.17051 0
M  V30 1756 C 147.127 -4.50527 -0.183304 0
M  V30 1757 C 145.789 -4.81119 0.0882276 0
M  V30 1758 C 148.141 -5.18883 0.49095 0
M  V30 1759 C 145.469 -5.77395 1.04076 0
M  V30 1760 C 147.821 -6.1618 1.43193 0
M  V30 1761 C 146.485 -6.45179 1.71173 0
M  V30 1762 H 145.755 -0.710762 -0.209521 0
M  V30 1763 H 148.402 -1.9077 0.167036 0
M  V30 1764 H 146.707 -3.37718 -1.9863 0
M  V30 1765 H 148.404 -3.63543 -1.69227 0
M  V30 1766 H 144.994 -4.26681 -0.405124 0
M  V30 1767 H 149.178 -4.95427 0.294312 0
M  V30 1768 H 144.434 -5.98179 1.26457 0
M  V30 1769 H 148.608 -6.68243 1.96023 0
M  V30 1770 H 146.235 -7.1959 2.4514 0
M  V30 1771 N 147.81 0.181792 -1.56548 0
M  V30 1772 C 149.057 0.900097 -1.81396 0
M  V30 1773 C 149.385 1.82695 -0.667281 0
M  V30 1774 O 148.64 1.92614 0.346146 0
M  V30 1775 C 148.939 1.73728 -3.12335 0
M  V30 1776 C 148.605 0.960255 -4.40556 0
M  V30 1777 C 147.267 0.745766 -4.75386 0
M  V30 1778 C 149.619 0.414477 -5.19549 0
M  V30 1779 C 146.947 -0.0257694 -5.86694 0
M  V30 1780 C 149.299 -0.343916 -6.31664 0
M  V30 1781 C 147.963 -0.569301 -6.65068 0
M  V30 1782 H 147.233 0.329369 -0.663775 0
M  V30 1783 H 149.88 0.165647 -1.90782 0
M  V30 1784 H 148.185 2.54081 -2.98245 0
M  V30 1785 H 149.882 2.29591 -3.28769 0
M  V30 1786 H 146.472 1.13746 -4.13231 0
M  V30 1787 H 150.656 0.567554 -4.93044 0
M  V30 1788 H 145.912 -0.210233 -6.11038 0
M  V30 1789 H 150.086 -0.774133 -6.92084 0
M  V30 1790 H 147.713 -1.16903 -7.51158 0
M  V30 1791 N 149.288 1.51039 0.449983 0
M  V30 1792 C 150.518 1.66627 1.22143 0
M  V30 1793 C 150.926 0.357776 1.85786 0
M  V30 1794 O 150.269 -0.672424 1.70951 0
M  V30 1795 C 150.331 2.71562 2.35573 0
M  V30 1796 C 149.995 4.14526 1.92399 0
M  V30 1797 C 150.992 4.99717 1.43453 0
M  V30 1798 C 148.677 4.60559 2.00475 0
M  V30 1799 C 150.671 6.28998 1.03155 0
M  V30 1800 C 148.358 5.8984 1.59788 0
M  V30 1801 C 149.356 6.73886 1.11208 0
M  V30 1802 O 149.044 8.0075 0.710935 0
M  V30 1803 H 148.776 0.562635 0.374724 0
M  V30 1804 H 151.33 1.98146 0.541036 0
M  V30 1805 H 149.56 2.3533 3.06849 0
M  V30 1806 H 151.249 2.76156 2.97478 0
M  V30 1807 H 152.015 4.65361 1.36618 0
M  V30 1808 H 147.894 3.95273 2.37235 0
M  V30 1809 H 151.438 6.9455 0.651663 0
M  V30 1810 H 147.335 6.23713 1.66289 0
M  V30 1811 H 148.103 8.142 0.837913 0
M  V30 1812 N 150.766 -0.704594 1.40972 0
M  V30 1813 C 151.991 -1.49858 1.43378 0
M  V30 1814 C 152.416 -1.88061 0.038184 0
M  V30 1815 O 151.774 -1.5402 -0.956425 0
M  V30 1816 C 151.822 -2.74333 2.34038 0
M  V30 1817 O 150.926 -3.7147 1.7912 0
M  V30 1818 H 150.267 -0.45139 0.486974 0
M  V30 1819 H 152.797 -0.866832 1.8533 0
M  V30 1820 H 152.807 -3.22741 2.49604 0
M  V30 1821 H 151.482 -2.45863 3.35446 0
M  V30 1822 H 150.059 -3.30363 1.72958 0
M  V30 1823 N 152.244 -1.26651 -0.937939 0
M  V30 1824 C 153.191 -1.0849 -2.03712 0
M  V30 1825 C 154.161 0.011033 -1.66096 0
M  V30 1826 O 155.346 -0.149353 -1.90215 0
M  V30 1827 C 152.486 -0.72735 -3.37348 0
M  V30 1828 C 151.599 -1.89986 -3.87981 0
M  V30 1829 C 150.734 -1.48513 -5.10017 0
M  V30 1830 C 149.773 -2.62575 -5.5292 0
M  V30 1831 N 148.91 -2.21762 -6.66158 0
M  V30 1832 H 153.75 -2.02551 -2.18579 0
M  V30 1833 H 151.287 -1.00844 -1.07093 0
M  V30 1834 H 153.245 -0.50092 -4.14182 0
M  V30 1835 H 151.875 0.176298 -3.22318 0
M  V30 1836 H 150.927 -2.23913 -3.07518 0
M  V30 1837 H 152.239 -2.75586 -4.15757 0
M  V30 1838 H 151.393 -1.21934 -5.94321 0
M  V30 1839 H 150.132 -0.60009 -4.83994 0
M  V30 1840 H 149.137 -2.8988 -4.67172 0
M  V30 1841 H 150.362 -3.51685 -5.80943 0
M  V30 1842 H 148.308 -1.35696 -6.41812 0
M  V30 1843 H 148.225 -3.00903 -6.93537 0
M  V30 1844 H 149.493 -1.98403 -7.53828 0
M  V30 1845 N 153.722 1.14298 -1.08507 0
M  V30 1846 C 154.971 1.84708 -0.810305 0
M  V30 1847 C 155.284 1.83903 0.666271 0
M  V30 1848 O 156.49 2.50112 1.05624 0
M  V30 1849 C 154.946 3.31572 -1.39957 0
M  V30 1850 C 154.554 3.40791 -2.90801 0
M  V30 1851 C 156.298 4.07087 -1.20334 0
M  V30 1852 C 154.205 4.81872 -3.4286 0
M  V30 1853 H 153.135 0.691985 -0.299454 0
M  V30 1854 H 155.786 1.28841 -1.30661 0
M  V30 1855 H 154.168 3.87183 -0.830976 0
M  V30 1856 H 155.342 2.95225 -3.53806 0
M  V30 1857 H 153.657 2.78732 -3.0935 0
M  V30 1858 H 156.254 5.11225 -1.56693 0
M  V30 1859 H 156.597 4.16054 -0.143237 0
M  V30 1860 H 157.13 3.57779 -1.73893 0
M  V30 1861 H 153.869 4.78094 -4.48449 0
M  V30 1862 H 153.389 5.27972 -2.84615 0
M  V30 1863 H 155.068 5.50765 -3.39509 0
M  V30 1864 N 155.201 0.870884 1.31352 0
M  V30 1865 C 156.111 0.330783 2.32256 0
M  V30 1866 C 157.127 -0.559767 1.6475 0
M  V30 1867 O 158.303 -0.456263 1.96164 0
M  V30 1868 C 155.368 -0.458137 3.4366 0
M  V30 1869 C 154.429 0.460482 4.26823 0
M  V30 1870 C 153.662 -0.290881 5.32907 0
M  V30 1871 O 153.885 -1.51885 5.49806 0
M  V30 1872 O 152.819 0.351732 6.00871 0
M  V30 1873 H 156.645 1.16718 2.80376 0
M  V30 1874 H 154.23 0.634285 1.35267 0
M  V30 1875 H 156.112 -0.905343 4.1156 0
M  V30 1876 H 154.787 -1.27106 2.97701 0
M  V30 1877 H 153.694 0.956207 3.61673 0
M  V30 1878 H 155.027 1.23903 4.7635 0
M  V30 1879 N 156.679 -1.44442 0.630414 0
M  V30 1880 C 157.589 -2.34476 -0.0761693 0
M  V30 1881 C 158.605 -1.52576 -0.836449 0
M  V30 1882 O 159.781 -1.85307 -0.788874 0
M  V30 1883 C 156.846 -3.30545 -1.04599 0
M  V30 1884 C 155.907 -4.28352 -0.28516 0
M  V30 1885 C 155.14 -5.19831 -1.20878 0
M  V30 1886 O 155.363 -5.15223 -2.44747 0
M  V30 1887 O 154.297 -5.97892 -0.693491 0
M  V30 1888 H 158.123 -2.96345 0.664324 0
M  V30 1889 H 155.708 -1.44203 0.39061 0
M  V30 1890 H 157.59 -3.89681 -1.60396 0
M  V30 1891 H 156.265 -2.7121 -1.76711 0
M  V30 1892 H 155.172 -3.72764 0.315837 0
M  V30 1893 H 156.505 -4.90605 0.395924 0
M  V30 1894 N 158.157 -0.370918 -1.53173 0
M  V30 1895 C 159.105 0.488101 -2.27421 0
M  V30 1896 C 160.099 1.07884 -1.30604 0
M  V30 1897 O 161.305 1.02143 -1.48212 0
M  V30 1898 H 157.68 0.176134 -0.731082 0
M  V30 1899 H 159.651 -0.159815 -2.97972 0
M  V30 1900 C 158.4 1.61306 -3.08019 0
M  V30 1901 H 157.723 1.1678 -3.82364 0
M  V30 1902 H 159.163 2.18872 -3.63141 0
M  V30 1903 C 157.622 2.55848 -2.19188 0
M  V30 1904 O 158.152 3.58799 -1.80626 0
M  V30 1905 N 156.358 2.2516 -1.83715 0
M  V30 1906 H 155.905 1.41476 -2.15273 0
M  V30 1907 H 155.863 2.8867 -1.24567 0
M  V30 1908 N 159.635 1.57281 -0.100228 0
M  V30 1909 C 160.582 2.14305 0.856858 0
M  V30 1910 C 161.552 1.06296 1.27634 0
M  V30 1911 O 162.737 1.34109 1.35718 0
M  V30 1912 C 159.877 2.73184 2.10866 0
M  V30 1913 C 158.99 3.95442 1.73925 0
M  V30 1914 C 158.125 4.42468 2.93931 0
M  V30 1915 C 157.164 5.57303 2.5314 0
M  V30 1916 N 156.301 5.99158 3.65997 0
M  V30 1917 H 161.141 2.95772 0.363726 0
M  V30 1918 H 158.678 1.46139 0.167858 0
M  V30 1919 H 160.636 3.05442 2.84185 0
M  V30 1920 H 159.266 1.94437 2.57671 0
M  V30 1921 H 158.318 3.69464 0.905554 0
M  V30 1922 H 159.63 4.78769 1.39935 0
M  V30 1923 H 158.784 4.76537 3.75496 0
M  V30 1924 H 157.523 3.58052 3.31134 0
M  V30 1925 H 156.528 5.22857 1.70003 0
M  V30 1926 H 157.753 6.43471 2.17075 0
M  V30 1927 H 155.699 5.17687 4.02909 0
M  V30 1928 H 155.616 6.77295 3.35869 0
M  V30 1929 H 156.884 6.3786 4.48057 0
M  V30 1930 N 161.113 -0.173488 1.56642 0
M  V30 1931 C 162.061 -1.23417 1.97157 0
M  V30 1932 C 163.055 -1.45946 0.860013 0
M  V30 1933 O 164.261 -1.46551 1.04512 0
M  V30 1934 H 160.636 -0.414818 0.62724 0
M  V30 1935 H 162.607 -0.865582 2.8557 0
M  V30 1936 C 161.356 -2.5665 2.34576 0
M  V30 1937 H 160.679 -2.40137 3.19647 0
M  V30 1938 H 162.119 -3.2956 2.6677 0
M  V30 1939 C 160.578 -3.15245 1.18836 0
M  V30 1940 O 161.108 -3.98883 0.474869 0
M  V30 1941 N 159.314 -2.74303 0.959497 0
M  V30 1942 H 158.861 -2.0639 1.54146 0
M  V30 1943 H 158.819 -3.13844 0.186932 0
M  V30 1944 N 162.591 -1.51276 -0.441967 0
M  V30 1945 C 163.521 -1.752 -1.54361 0
M  V30 1946 C 164.502 -0.601682 -1.59103 0
M  V30 1947 O 165.687 -0.843913 -1.74905 0
M  V30 1948 C 162.817 -1.87282 -2.92477 0
M  V30 1949 C 161.771 -3.02687 -3.02596 0
M  V30 1950 C 161.097 -2.99947 -4.42647 0
M  V30 1951 C 162.397 -4.4273 -2.77106 0
M  V30 1952 H 164.091 -2.67442 -1.34592 0
M  V30 1953 H 161.637 -1.28694 -0.646048 0
M  V30 1954 H 163.59 -2.02602 -3.695 0
M  V30 1955 H 162.314 -0.916844 -3.13467 0
M  V30 1956 H 160.973 -2.87065 -2.28012 0
M  V30 1957 H 160.621 -2.02136 -4.60597 0
M  V30 1958 H 160.321 -3.77439 -4.50348 0
M  V30 1959 H 161.845 -3.17354 -5.2165 0
M  V30 1960 H 163.259 -4.58727 -3.43864 0
M  V30 1961 H 161.656 -5.21893 -2.96222 0
M  V30 1962 H 162.726 -4.53087 -1.72744 0
M  V30 1963 N 164.069 0.697108 -1.41344 0
M  V30 1964 C 165.001 1.8224 -1.39001 0
M  V30 1965 C 166.014 1.60152 -0.292428 0
M  V30 1966 O 167.203 1.69684 -0.554048 0
M  V30 1967 C 164.303 3.18976 -1.14489 0
M  V30 1968 C 163.476 3.68105 -2.36258 0
M  V30 1969 C 162.535 4.83506 -2.07625 0
M  V30 1970 O 161.561 4.95201 -2.8065 0
M  V30 1971 N 162.763 5.70637 -1.06555 0
M  V30 1972 H 165.528 1.84742 -2.35988 0
M  V30 1973 H 163.089 0.87937 -1.35936 0
M  V30 1974 H 165.081 3.93801 -0.932885 0
M  V30 1975 H 163.651 3.11508 -0.261043 0
M  V30 1976 H 162.871 2.84204 -2.7317 0
M  V30 1977 H 164.159 3.97667 -3.17393 0
M  V30 1978 H 163.557 5.63817 -0.461125 0
M  V30 1979 H 162.114 6.45368 -0.913444 0
M  V30 1980 N 165.547 1.27147 0.931209 0
M  V30 1981 C 166.795 1.13055 1.6752 0
M  V30 1982 C 167.116 -0.324791 1.92276 0
M  V30 1983 O 166.386 -1.22775 1.52654 0
M  V30 1984 H 164.966 0.415391 0.620854 0
M  V30 1985 H 167.628 1.59623 1.11833 0
M  V30 1986 H 166.724 1.65694 2.64485 0
M  V30 1987 N 167.025 -1.13721 1.09112 0
M  V30 1988 C 167.972 -2.19031 0.727591 0
M  V30 1989 C 168.942 -1.63555 -0.289656 0
M  V30 1990 O 170.127 -1.90023 -0.172026 0
M  V30 1991 C 167.267 -3.4477 0.15082 0
M  V30 1992 C 166.38 -4.14365 1.22172 0
M  V30 1993 C 165.515 -5.27709 0.608042 0
M  V30 1994 C 164.554 -5.89147 1.66047 0
M  V30 1995 N 163.691 -6.93929 1.06806 0
M  V30 1996 H 168.531 -2.49475 1.62991 0
M  V30 1997 H 166.068 -1.22499 0.81439 0
M  V30 1998 H 168.026 -4.16714 -0.201358 0
M  V30 1999 H 166.656 -3.14787 -0.714783 0
M  V30 2000 H 165.708 -3.40737 1.69122 0
M  V30 2001 H 167.02 -4.56114 2.01895 0
M  V30 2002 H 166.174 -6.06355 0.204523 0
M  V30 2003 H 164.913 -4.872 -0.220769 0
M  V30 2004 H 163.918 -5.09198 2.07357 0
M  V30 2005 H 165.143 -6.31729 2.49189 0
M  V30 2006 H 163.089 -6.55483 0.260476 0
M  V30 2007 H 163.006 -7.34202 1.8023 0
M  V30 2008 H 164.274 -7.76434 0.690644 0
M  V30 2009 N 168.503 -0.877838 -1.30888 0
M  V30 2010 C 169.413 -0.343096 -2.32078 0
M  V30 2011 C 170.429 0.551022 -1.65045 0
M  V30 2012 O 171.605 0.445854 -1.96403 0
M  V30 2013 C 168.67 0.439905 -3.43898 0
M  V30 2014 C 167.731 -0.483111 -4.26573 0
M  V30 2015 C 166.964 0.262616 -5.33053 0
M  V30 2016 O 167.187 1.48967 -5.50604 0
M  V30 2017 O 166.121 -0.383593 -6.00676 0
M  V30 2018 H 169.947 -1.18203 -2.79753 0
M  V30 2019 H 167.532 -0.64145 -1.34929 0
M  V30 2020 H 169.414 0.883504 -4.12034 0
M  V30 2021 H 168.089 1.25526 -2.98371 0
M  V30 2022 H 166.996 -0.975374 -3.61161 0
M  V30 2023 H 168.329 -1.26427 -4.75686 0
M  V30 2024 N 169.982 1.44106 -0.638065 0
M  V30 2025 C 170.912 2.33448 0.0494287 0
M  V30 2026 C 171.893 1.48606 0.827672 0
M  V30 2027 O 173.078 1.77308 0.792173 0
M  V30 2028 C 170.208 3.31771 1.02691 0
M  V30 2029 C 169.162 4.26485 0.359823 0
M  V30 2030 C 168.488 5.14729 1.44769 0
M  V30 2031 C 169.788 5.17056 -0.738296 0
M  V30 2032 H 171.482 2.91183 -0.696636 0
M  V30 2033 H 169.028 1.40014 -0.336456 0
M  V30 2034 H 170.981 3.93161 1.51666 0
M  V30 2035 H 169.705 2.7226 1.80395 0
M  V30 2036 H 168.364 3.66437 -0.10934 0
M  V30 2037 H 168.012 4.51566 2.21578 0
M  V30 2038 H 167.712 5.78913 1.00668 0
M  V30 2039 H 169.236 5.78991 1.93911 0
M  V30 2040 H 170.65 5.72342 -0.331354 0
M  V30 2041 H 169.047 5.89879 -1.10286 0
M  V30 2042 H 170.117 4.57652 -1.60258 0
M  V30 2043 N 171.46 0.379036 1.52974 0
M  V30 2044 C 172.407 -0.461048 2.26148 0
M  V30 2045 C 173.377 -1.06637 1.27349 0
M  V30 2046 O 174.562 -1.09633 1.56157 0
M  V30 2047 C 171.702 -1.58782 3.06402 0
M  V30 2048 C 170.815 -1.00636 4.20115 0
M  V30 2049 C 169.95 -2.10334 4.87784 0
M  V30 2050 C 168.989 -1.49724 5.93506 0
M  V30 2051 N 168.126 -2.5331 6.54812 0
M  V30 2052 H 172.966 0.169429 2.97518 0
M  V30 2053 H 170.503 0.0953806 1.4679 0
M  V30 2054 H 172.461 -2.25174 3.51215 0
M  V30 2055 H 171.091 -2.18876 2.37261 0
M  V30 2056 H 170.143 -0.232332 3.7969 0
M  V30 2057 H 171.455 -0.523343 4.96047 0
M  V30 2058 H 170.609 -2.84519 5.35849 0
M  V30 2059 H 169.348 -2.61992 4.11353 0
M  V30 2060 H 168.353 -0.740598 5.44789 0
M  V30 2061 H 169.578 -0.988732 6.71864 0
M  V30 2062 H 167.524 -3.04156 5.81227 0
M  V30 2063 H 167.441 -2.09734 7.26325 0
M  V30 2064 H 168.709 -3.27155 7.07524 0
M  V30 2065 N 172.938 -1.57226 0.108567 0
M  V30 2066 C 174.349 -1.8195 -0.418464 0
M  V30 2067 C 174.7 -1.02508 -1.67292 0
M  V30 2068 O 173.825 -0.258496 -2.14851 0
M  V30 2069 C 174.42 -3.30028 -0.765979 0
M  V30 2070 C 172.979 -3.55469 -1.23769 0
M  V30 2071 C 172.126 -2.7625 -0.241106 0
M  V30 2072 H 175.077 -1.55149 0.33384 0
M  V30 2073 H 175.098 -3.44086 -1.62434 0
M  V30 2074 H 174.61 -3.87821 0.147219 0
M  V30 2075 H 172.711 -3.03022 -2.16814 0
M  V30 2076 H 172.824 -4.6408 -1.19022 0
M  V30 2077 H 171.188 -2.44133 -0.72602 0
M  V30 2078 H 171.971 -3.36797 0.665007 0
M  V30 2079 N 174.416 0.165178 -1.56732 0
M  V30 2080 C 175.641 0.900253 -1.86843 0
M  V30 2081 C 176.066 1.74766 -0.695596 0
M  V30 2082 O 175.424 1.77786 0.35522 0
M  V30 2083 C 175.472 1.74777 -3.15413 0
M  V30 2084 O 174.576 2.85007 -2.98068 0
M  V30 2085 H 173.917 0.251832 -0.614391 0
M  V30 2086 H 176.447 0.161468 -2.03962 0
M  V30 2087 H 176.457 2.14646 -3.46974 0
M  V30 2088 H 175.132 1.12537 -4.00385 0
M  V30 2089 H 173.709 2.48676 -2.77875 0
M  V30 2090 N 175.894 1.51508 0.433938 0
M  V30 2091 C 177.31 1.39759 0.770682 0
M  V30 2092 C 177.51 0.482594 1.95636 0
M  V30 2093 O 176.566 -0.0609691 2.52426 0
M  V30 2094 C 177.879 2.81851 1.04787 0
M  V30 2095 C 179.427 2.91025 1.1521 0
M  V30 2096 C 179.902 4.34032 1.46219 0
M  V30 2097 N 181.393 4.37154 1.53136 0
M  V30 2098 C 182.128 5.4484 1.78709 0
M  V30 2099 N 181.624 6.62682 2.02051 0
M  V30 2100 N 183.417 5.32324 1.80519 0
M  V30 2101 H 175.568 2.09548 -0.346892 0
M  V30 2102 H 177.831 0.943446 -0.0928074 0
M  V30 2103 H 177.537 3.50815 0.249304 0
M  V30 2104 H 177.411 3.21386 1.97461 0
M  V30 2105 H 179.798 2.22257 1.94128 0
M  V30 2106 H 179.879 2.54983 0.204281 0
M  V30 2107 H 179.523 5.03351 0.678274 0
M  V30 2108 H 179.453 4.6759 2.42212 0
M  V30 2109 H 181.944 3.52197 1.36987 0
M  V30 2110 H 182.257 7.40543 2.20943 0
M  V30 2111 H 180.602 6.65791 1.99366 0
M  V30 2112 H 183.793 4.39246 1.61805 0
M  V30 2113 H 183.966 6.16328 2.00111 0
M  V30 2114 N 177.372 -0.689602 1.41712 0
M  V30 2115 C 178.6 -1.47827 1.44758 0
M  V30 2116 C 179.015 -1.88721 0.0545703 0
M  V30 2117 O 178.372 -1.57176 -0.927463 0
M  V30 2118 C 178.423 -2.73698 2.3616 0
M  V30 2119 O 178.144 -2.34524 3.7004 0
M  V30 2120 C 179.645 -3.67389 2.48072 0
M  V30 2121 H 176.865 -0.455357 0.49284 0
M  V30 2122 H 179.409 -0.848574 1.86063 0
M  V30 2123 H 177.564 -3.32891 1.98148 0
M  V30 2124 H 177.978 -3.15701 4.18847 0
M  V30 2125 H 179.452 -4.52475 3.16181 0
M  V30 2126 H 179.929 -4.12284 1.51388 0
M  V30 2127 H 180.535 -3.14097 2.86746 0
M  V30 2128 N 178.85 -1.27639 -0.924453 0
M  V30 2129 C 180.096 -1.14336 -1.67497 0
M  V30 2130 C 180.429 0.309465 -1.91718 0
M  V30 2131 O 179.704 1.22608 -1.50989 0
M  V30 2132 C 179.987 -1.93096 -3.0395 0
M  V30 2133 C 179.84 -3.46381 -2.8695 0
M  V30 2134 C 181.159 -1.73798 -4.0433 0
M  V30 2135 H 178.278 -0.416728 -0.607871 0
M  V30 2136 H 180.92 -1.56832 -1.07256 0
M  V30 2137 H 179.07 -1.56982 -3.55372 0
M  V30 2138 H 180.742 -3.92343 -2.42621 0
M  V30 2139 H 178.985 -3.72557 -2.22225 0
M  V30 2140 H 179.656 -3.96735 -3.83804 0
M  V30 2141 H 182.132 -2.05293 -3.61931 0
M  V30 2142 H 181.008 -2.31294 -4.97789 0
M  V30 2143 H 181.269 -0.686725 -4.36734 0
M  V30 2144 N 180.328 1.1314 -1.09713 0
M  V30 2145 C 181.238 2.22242 -0.751367 0
M  V30 2146 C 182.254 1.72224 0.247938 0
M  V30 2147 O 183.43 2.01205 0.0885463 0
M  V30 2148 C 180.495 3.46231 -0.180274 0
M  V30 2149 C 179.556 4.11125 -1.2359 0
M  V30 2150 C 178.789 5.29195 -0.691966 0
M  V30 2151 O 179.012 5.68342 0.48414 0
M  V30 2152 O 177.946 5.84214 -1.44838 0
M  V30 2153 H 181.772 2.54197 -1.66186 0
M  V30 2154 H 179.357 1.21331 -0.871735 0
M  V30 2155 H 181.239 4.21185 0.134739 0
M  V30 2156 H 179.914 3.1597 0.703185 0
M  V30 2157 H 178.821 3.37985 -1.60366 0
M  V30 2158 H 180.154 4.45524 -2.09211 0
M  V30 2159 N 181.806 0.884767 1.30421 0
M  V30 2160 C 182.753 0.349642 2.28136 0
M  V30 2161 C 183.723 -0.560061 1.56373 0
M  V30 2162 O 184.908 -0.488524 1.8444 0
M  V30 2163 C 182.048 -0.42999 3.42411 0
M  V30 2164 C 181.161 0.508907 4.28992 0
M  V30 2165 C 180.296 -0.286301 5.30428 0
M  V30 2166 C 179.335 0.648079 6.08659 0
M  V30 2167 N 178.472 -0.111792 7.02011 0
M  V30 2168 H 183.312 1.18807 2.73293 0
M  V30 2169 H 180.849 0.597231 1.3443 0
M  V30 2170 H 182.807 -0.897923 4.07423 0
M  V30 2171 H 181.437 -1.23299 2.98324 0
M  V30 2172 H 180.489 1.09533 3.64289 0
M  V30 2173 H 181.801 1.22475 4.8353 0
M  V30 2174 H 180.955 -0.816098 6.01186 0
M  V30 2175 H 179.694 -1.03536 4.76583 0
M  V30 2176 H 178.699 1.18951 5.36778 0
M  V30 2177 H 179.924 1.39623 6.64592 0
M  V30 2178 H 177.87 -0.843395 6.50556 0
M  V30 2179 H 177.787 0.544429 7.54037 0
M  V30 2180 H 179.055 -0.622339 7.77012 0
M  V30 2181 N 183.284 -1.43765 0.645699 0
M  V30 2182 C 184.234 -2.27884 -0.0726442 0
M  V30 2183 C 185.218 -1.39483 -0.802086 0
M  V30 2184 O 186.41 -1.63174 -0.685791 0
M  V30 2185 C 183.539 -3.27055 -1.04356 0
M  V30 2186 C 182.625 -4.22944 -0.312985 0
M  V30 2187 N 183.016 -5.01391 0.666386 0
M  V30 2188 C 181.314 -4.42528 -0.55546 0
M  V30 2189 C 182.015 -5.71217 1.09935 0
M  V30 2190 N 180.991 -5.41856 0.435137 0
M  V30 2191 H 184.793 -2.85949 0.678988 0
M  V30 2192 H 182.307 -1.55378 0.472368 0
M  V30 2193 H 184.304 -3.86089 -1.57292 0
M  V30 2194 H 182.964 -2.70551 -1.79534 0
M  V30 2195 H 183.975 -5.07252 1.04481 0
M  V30 2196 H 180.652 -3.97104 -1.28899 0
M  V30 2197 H 182.042 -6.44202 1.90929 0
M  V30 2198 N 184.763 -0.387143 -1.52771 0
M  V30 2199 C 186.012 0.19697 -2.00736 0
M  V30 2200 C 186.325 1.48082 -1.27793 0
M  V30 2201 O 187.531 2.14485 -1.66458 0
M  V30 2202 C 185.987 0.401568 -3.57653 0
M  V30 2203 C 185.595 -0.868907 -4.39493 0
M  V30 2204 C 187.339 0.942164 -4.13912 0
M  V30 2205 C 185.246 -0.632705 -5.88006 0
M  V30 2206 H 184.176 0.0773827 -0.750019 0
M  V30 2207 H 186.827 -0.50921 -1.76293 0
M  V30 2208 H 185.209 1.16954 -3.78335 0
M  V30 2209 H 186.383 -1.64133 -4.30577 0
M  V30 2210 H 184.698 -1.33429 -3.94443 0
M  V30 2211 H 187.295 1.13455 -5.22525 0
M  V30 2212 H 187.638 1.9106 -3.69867 0
M  V30 2213 H 188.171 0.233814 -3.97112 0
M  V30 2214 H 184.91 -1.57208 -6.36369 0
M  V30 2215 H 184.43 0.100825 -5.99715 0
M  V30 2216 H 186.109 -0.26642 -6.46451 0
M  V30 2217 N 186.241 1.57166 -0.116904 0
M  V30 2218 C 187.188 2.15202 0.83408 0
M  V30 2219 C 188.158 1.07644 1.26499 0
M  V30 2220 O 189.343 1.35541 1.34288 0
M  V30 2221 C 186.483 2.75405 2.07957 0
M  V30 2222 C 185.596 3.97264 1.69721 0
M  V30 2223 C 184.731 4.45561 2.89221 0
M  V30 2224 C 183.77 5.59956 2.47215 0
M  V30 2225 N 182.907 6.03006 3.59622 0
M  V30 2226 H 187.747 2.96141 0.332335 0
M  V30 2227 H 185.284 1.46309 0.152349 0
M  V30 2228 H 187.242 3.08439 2.80929 0
M  V30 2229 H 185.872 1.97159 2.55594 0
M  V30 2230 H 184.924 3.70404 0.866316 0
M  V30 2231 H 186.236 4.80226 1.34849 0
M  V30 2232 H 185.39 4.80493 3.7042 0
M  V30 2233 H 184.129 3.61544 3.27318 0
M  V30 2234 H 183.134 5.2463 1.64448 0
M  V30 2235 H 184.359 6.45738 2.10238 0
M  V30 2236 H 182.305 5.21931 3.97396 0
M  V30 2237 H 182.222 6.80819 3.28667 0
M  V30 2238 H 183.49 6.42576 4.41267 0
M  V30 2239 N 187.719 -0.156864 1.56817 0
M  V30 2240 C 188.947 -0.886316 1.86955 0
M  V30 2241 C 189.362 -1.75185 0.703975 0
M  V30 2242 O 188.719 -1.79555 -0.326552 0
M  V30 2243 C 188.77 -1.75117 3.16253 0
M  V30 2244 O 188.491 -0.920537 4.2832 0
M  V30 2245 C 189.992 -2.58905 3.59837 0
M  V30 2246 H 187.212 -0.25678 0.619923 0
M  V30 2247 H 189.756 -0.152615 2.0393 0
M  V30 2248 H 187.911 -2.43805 3.01062 0
M  V30 2249 H 188.325 -1.51337 5.02192 0
M  V30 2250 H 189.799 -3.1518 4.53172 0
M  V30 2251 H 190.276 -3.34472 2.84649 0
M  V30 2252 H 190.882 -1.95526 3.7769 0
M  V30 2253 N 189.197 -1.51736 -0.425897 0
M  V30 2254 C 190.144 -1.73875 -1.51776 0
M  V30 2255 C 191.114 -0.580702 -1.55618 0
M  V30 2256 O 192.299 -0.81641 -1.72451 0
M  V30 2257 C 189.439 -1.88012 -2.89388 0
M  V30 2258 C 188.552 -3.15606 -2.94986 0
M  V30 2259 C 187.687 -3.20271 -4.23793 0
M  V30 2260 C 186.726 -4.42134 -4.23302 0
M  V30 2261 N 185.863 -4.44284 -5.43651 0
M  V30 2262 H 190.703 -2.67071 -1.32201 0
M  V30 2263 H 188.24 -1.32351 -0.642008 0
M  V30 2264 H 190.198 -1.9419 -3.69251 0
M  V30 2265 H 188.828 -0.98213 -3.07496 0
M  V30 2266 H 187.88 -3.18681 -2.07717 0
M  V30 2267 H 189.192 -4.05486 -2.90486 0
M  V30 2268 H 188.346 -3.25428 -5.12036 0
M  V30 2269 H 187.085 -2.28299 -4.30965 0
M  V30 2270 H 186.09 -4.3714 -3.3345 0
M  V30 2271 H 187.315 -5.35382 -4.17783 0
M  V30 2272 H 185.261 -3.55188 -5.51523 0
M  V30 2273 H 185.178 -5.27988 -5.41078 0
M  V30 2274 H 186.446 -4.53649 -6.33895 0
M  V30 2275 N 190.675 0.682077 -1.42076 0
M  V30 2276 C 191.905 1.46844 -1.45329 0
M  V30 2277 C 192.313 1.89102 -0.0609328 0
M  V30 2278 O 191.656 1.58238 0.933082 0
M  V30 2279 C 191.718 2.75375 -2.31104 0
M  V30 2280 C 191.382 2.55238 -3.79081 0
M  V30 2281 C 192.379 2.20309 -4.70914 0
M  V30 2282 C 190.064 2.70459 -4.2327 0
M  V30 2283 C 192.058 2.00859 -6.04925 0
M  V30 2284 C 189.745 2.50624 -5.57343 0
M  V30 2285 C 190.743 2.15876 -6.47986 0
M  V30 2286 O 190.431 1.96227 -7.79583 0
M  V30 2287 H 190.163 0.4586 -0.496651 0
M  V30 2288 H 192.717 0.846131 -1.87162 0
M  V30 2289 H 190.947 3.40061 -1.84107 0
M  V30 2290 H 192.636 3.37231 -2.25898 0
M  V30 2291 H 193.402 2.08153 -4.38061 0
M  V30 2292 H 189.281 2.96485 -3.53012 0
M  V30 2293 H 192.825 1.7366 -6.75639 0
M  V30 2294 H 188.722 2.62375 -5.89771 0
M  V30 2295 H 189.49 2.10883 -7.90867 0
M  V30 2296 N 192.153 1.28127 0.917671 0
M  V30 2297 C 193.101 1.11569 2.04096 0
M  V30 2298 C 194.095 0.0360242 1.69362 0
M  V30 2299 O 195.301 0.194501 1.78946 0
M  V30 2300 H 191.676 0.344097 0.668656 0
M  V30 2301 H 193.647 2.06711 2.15205 0
M  V30 2302 C 192.396 0.790197 3.38602 0
M  V30 2303 H 191.719 1.61293 3.6582 0
M  V30 2304 H 193.159 0.714271 4.1794 0
M  V30 2305 C 191.618 -0.505897 3.3308 0
M  V30 2306 O 192.148 -1.53736 3.71117 0
M  V30 2307 N 190.354 -0.505193 2.86175 0
M  V30 2308 H 189.901 0.334621 2.55417 0
M  V30 2309 H 189.859 -1.37243 2.82863 0
M  V30 2310 N 193.631 -1.12557 1.10312 0
M  V30 2311 C 194.561 -2.20341 0.772798 0
M  V30 2312 C 195.542 -1.68198 -0.25365 0
M  V30 2313 O 196.727 -1.93831 -0.119699 0
M  V30 2314 C 193.857 -3.46709 0.202443 0
M  V30 2315 C 192.811 -4.11996 1.15943 0
M  V30 2316 C 192.137 -5.328 0.450345 0
M  V30 2317 C 193.437 -4.5828 2.50552 0
M  V30 2318 H 195.131 -2.48229 1.674 0
M  V30 2319 H 192.677 -1.19308 0.806326 0
M  V30 2320 H 194.63 -4.2138 -0.0407752 0
M  V30 2321 H 193.354 -3.18245 -0.734001 0
M  V30 2322 H 192.013 -3.39305 1.38808 0
M  V30 2323 H 191.661 -5.00602 -0.490531 0
M  V30 2324 H 191.361 -5.7743 1.08851 0
M  V30 2325 H 192.885 -6.10219 0.215642 0
M  V30 2326 H 194.299 -5.2433 2.31843 0
M  V30 2327 H 192.696 -5.13683 3.10242 0
M  V30 2328 H 193.766 -3.72329 3.10643 0
M  V30 2329 N 195.109 -0.891671 -1.2995 0
M  V30 2330 C 196.357 -0.512486 -1.95494 0
M  V30 2331 C 196.678 0.942776 -1.70695 0
M  V30 2332 O 195.948 1.66374 -1.03424 0
M  V30 2333 H 194.528 -0.186533 -0.723336 0
M  V30 2334 H 197.19 -1.13621 -1.58355 0
M  V30 2335 H 196.286 -0.688342 -3.04415 0
M  V30 2336 N 196.587 1.43421 -0.653314 0
M  V30 2337 C 197.535 2.32546 0.0501531 0
M  V30 2338 C 198.529 1.48617 0.812985 0
M  V30 2339 O 199.735 1.64825 0.723375 0
M  V30 2340 H 196.11 0.751185 0.0350032 0
M  V30 2341 H 198.081 2.89602 -0.719261 0
M  V30 2342 C 196.83 3.32925 1.00279 0
M  V30 2343 H 196.153 3.97532 0.425236 0
M  V30 2344 H 197.593 3.9792 1.46409 0
M  V30 2345 C 196.052 2.63532 2.09886 0
M  V30 2346 O 196.582 2.45092 3.18265 0
M  V30 2347 N 194.788 2.22905 1.86445 0
M  V30 2348 H 194.335 2.38103 0.98309 0
M  V30 2349 H 194.293 1.76805 2.59976 0
M  V30 2350 N 198.065 0.39524 1.52563 0
M  V30 2351 C 199.028 -0.425001 2.25225 0
M  V30 2352 C 200.028 -0.985266 1.27079 0
M  V30 2353 O 201.218 -0.866332 1.5113 0
M  V30 2354 C 198.35 -1.59686 3.01186 0
M  V30 2355 H 199.543 0.211233 2.99155 0
M  V30 2356 H 197.096 0.147472 1.55603 0
M  V30 2357 H 197.831 -2.27035 2.31572 0
M  V30 2358 H 197.616 -1.20176 3.73229 0
M  V30 2359 H 199.106 -2.17743 3.5634 0
M  V30 2360 N 199.544 -1.57102 0.125237 0
M  V30 2361 C 200.492 -2.16905 -0.839927 0
M  V30 2362 C 201.486 -1.11998 -1.27094 0
M  V30 2363 O 202.692 -1.3029 -1.24195 0
M  V30 2364 H 199.067 -0.694252 -0.288995 0
M  V30 2365 H 201.038 -2.96774 -0.311115 0
M  V30 2366 C 199.787 -2.78795 -2.07771 0
M  V30 2367 H 199.11 -3.59221 -1.755 0
M  V30 2368 H 200.55 -3.2417 -2.73295 0
M  V30 2369 C 199.009 -1.76193 -2.87155 0
M  V30 2370 O 199.539 -1.21909 -3.82755 0
M  V30 2371 N 197.745 -1.45991 -2.51267 0
M  V30 2372 H 197.292 -1.90325 -1.73592 0
M  V30 2373 H 197.25 -0.775844 -3.04677 0
M  V30 2374 N 201.022 0.148545 -1.56898 0
M  V30 2375 C 202.252 0.875118 -1.8715 0
M  V30 2376 C 202.66 1.75322 -0.711262 0
M  V30 2377 O 202.003 1.80745 0.328151 0
M  V30 2378 C 202.065 1.7844 -3.12089 0
M  V30 2379 C 201.729 1.08361 -4.43967 0
M  V30 2380 C 202.726 0.438247 -5.1805 0
M  V30 2381 C 200.411 1.07358 -4.90693 0
M  V30 2382 C 202.405 -0.20779 -6.37061 0
M  V30 2383 C 200.092 0.42373 -6.09629 0
M  V30 2384 C 201.09 -0.215829 -6.82659 0
M  V30 2385 O 200.778 -0.855378 -7.99336 0
M  V30 2386 H 200.51 0.258504 -0.624621 0
M  V30 2387 H 203.064 0.14652 -2.04877 0
M  V30 2388 H 201.294 2.55389 -2.90367 0
M  V30 2389 H 202.983 2.38279 -3.286 0
M  V30 2390 H 203.749 0.437817 -4.8302 0
M  V30 2391 H 199.628 1.5608 -4.33774 0
M  V30 2392 H 203.172 -0.70758 -6.94002 0
M  V30 2393 H 199.069 0.421822 -6.4412 0
M  V30 2394 H 199.837 -0.756892 -8.14993 0
M  V30 2395 N 202.5 1.5196 0.417844 0
M  V30 2396 C 203.916 1.40569 0.755816 0
M  V30 2397 C 204.116 0.503316 1.95113 0
M  V30 2398 O 203.172 -0.0341925 2.52477 0
M  V30 2399 C 204.485 2.82947 1.01791 0
M  V30 2400 C 206.033 2.92231 1.12116 0
M  V30 2401 C 206.508 4.35559 1.41608 0
M  V30 2402 N 207.999 4.38753 1.48491 0
M  V30 2403 C 208.734 5.46705 1.7292 0
M  V30 2404 N 208.23 6.64788 1.95011 0
M  V30 2405 N 210.023 5.34209 1.74863 0
M  V30 2406 H 202.174 2.09168 -0.369098 0
M  V30 2407 H 204.437 0.942409 -0.102809 0
M  V30 2408 H 204.143 3.5106 0.212081 0
M  V30 2409 H 204.017 3.23462 1.94042 0
M  V30 2410 H 206.404 2.24304 1.9176 0
M  V30 2411 H 206.485 2.55185 0.177225 0
M  V30 2412 H 206.129 5.04042 0.624848 0
M  V30 2413 H 206.059 4.70133 2.37239 0
M  V30 2414 H 208.55 3.5363 1.33244 0
M  V30 2415 H 208.863 7.42845 2.13076 0
M  V30 2416 H 207.208 6.67869 1.92293 0
M  V30 2417 H 210.399 4.40937 1.57137 0
M  V30 2418 H 210.572 6.18415 1.93563 0
M  V30 2419 N 203.978 -0.674533 1.42435 0
M  V30 2420 C 205.227 -1.43034 1.42212 0
M  V30 2421 C 205.54 -1.95555 0.0420788 0
M  V30 2422 O 206.746 -2.71374 -0.0827558 0
M  V30 2423 C 205.202 -2.58748 2.50155 0
M  V30 2424 C 204.81 -2.12925 3.94166 0
M  V30 2425 C 206.554 -3.36257 2.59098 0
M  V30 2426 C 204.461 -3.25723 4.93618 0
M  V30 2427 H 203.391 -0.537345 0.528939 0
M  V30 2428 H 206.042 -0.73024 1.68344 0
M  V30 2429 H 204.424 -3.31128 2.17188 0
M  V30 2430 H 205.598 -1.47697 4.36488 0
M  V30 2431 H 203.913 -1.48354 3.89076 0
M  V30 2432 H 206.51 -4.20264 3.30578 0
M  V30 2433 H 206.853 -3.82866 1.63461 0
M  V30 2434 H 207.386 -2.70947 2.9126 0
M  V30 2435 H 204.125 -2.84105 5.90732 0
M  V30 2436 H 203.645 -3.89732 4.55926 0
M  V30 2437 H 205.324 -3.91186 5.15347 0
M  V30 2438 N 205.456 -1.28612 -0.910864 0
M  V30 2439 C 206.388 -1.08589 -2.01844 0
M  V30 2440 C 207.401 -0.0367419 -1.62759 0
M  V30 2441 O 208.59 -0.280101 -1.76289 0
M  V30 2442 C 205.69 -0.628626 -3.33019 0
M  V30 2443 C 204.863 -1.75382 -4.00699 0
M  V30 2444 C 203.922 -1.28945 -5.10156 0
M  V30 2445 O 202.948 -1.9922 -5.33198 0
M  V30 2446 N 204.15 -0.154224 -5.80295 0
M  V30 2447 H 206.915 -2.03973 -2.19579 0
M  V30 2448 H 204.476 -1.20403 -1.08234 0
M  V30 2449 H 206.468 -0.301508 -4.03575 0
M  V30 2450 H 205.038 0.232451 -3.11735 0
M  V30 2451 H 204.258 -2.25039 -3.23653 0
M  V30 2452 H 205.546 -2.50854 -4.42662 0
M  V30 2453 H 204.944 0.43194 -5.64049 0
M  V30 2454 H 203.501 0.113599 -6.51701 0
M  V30 2455 N 206.934 1.1197 -1.10907 0
M  V30 2456 C 207.881 2.17846 -0.762345 0
M  V30 2457 C 208.851 1.63995 0.263599 0
M  V30 2458 O 210.036 1.90273 0.141773 0
M  V30 2459 C 207.176 3.44487 -0.205651 0
M  V30 2460 C 206.289 4.12369 -1.28748 0
M  V30 2461 C 205.424 5.26674 -0.691919 0
M  V30 2462 C 204.463 5.86431 -1.75399 0
M  V30 2463 N 203.6 6.92142 -1.17833 0
M  V30 2464 H 208.44 2.46851 -1.6694 0
M  V30 2465 H 205.977 1.21188 -0.833776 0
M  V30 2466 H 207.935 4.16981 0.135037 0
M  V30 2467 H 206.565 3.15884 0.664613 0
M  V30 2468 H 205.617 3.38003 -1.74522 0
M  V30 2469 H 206.929 4.52844 -2.09125 0
M  V30 2470 H 206.083 6.05953 -0.300963 0
M  V30 2471 H 204.822 4.8749 0.143232 0
M  V30 2472 H 203.827 5.05835 -2.15432 0
M  V30 2473 H 205.052 6.27685 -2.59208 0
M  V30 2474 H 202.998 6.54985 -0.364725 0
M  V30 2475 H 202.915 7.31242 -1.91887 0
M  V30 2476 H 204.183 7.75237 -0.81408 0
M  V30 2477 N 208.412 0.89855 1.29475 0
M  V30 2478 C 209.322 0.379974 2.31502 0
M  V30 2479 C 210.338 -0.524695 1.659 0
M  V30 2480 O 211.514 -0.414551 1.97087 0
M  V30 2481 C 208.579 -0.385138 3.44554 0
M  V30 2482 C 207.64 0.550914 4.2575 0
M  V30 2483 C 206.873 -0.177778 5.33404 0
M  V30 2484 O 207.096 -1.40189 5.52904 0
M  V30 2485 O 206.03 0.479106 5.9999 0
M  V30 2486 H 209.856 1.22639 2.77837 0
M  V30 2487 H 207.441 0.662834 1.33891 0
M  V30 2488 H 209.323 -0.817841 4.13388 0
M  V30 2489 H 207.998 -1.20763 3.0033 0
M  V30 2490 H 206.905 1.03271 3.59564 0
M  V30 2491 H 208.238 1.33979 4.73614 0
M  V30 2492 N 209.89 -1.43072 0.660911 0
M  V30 2493 C 210.82 -2.33497 -0.0122829 0
M  V30 2494 C 211.801 -1.49903 -0.803925 0
M  V30 2495 O 212.986 -1.78546 -0.763864 0
M  V30 2496 C 210.116 -3.33363 -0.973994 0
M  V30 2497 C 209.07 -4.27003 -0.291928 0
M  V30 2498 C 208.396 -5.16967 -1.36562 0
M  V30 2499 C 209.696 -5.15816 0.820462 0
M  V30 2500 H 211.39 -2.90038 0.742873 0
M  V30 2501 H 208.936 -1.39461 0.358688 0
M  V30 2502 H 210.889 -3.95524 -1.45392 0
M  V30 2503 H 209.613 -2.75095 -1.7604 0
M  V30 2504 H 208.272 -3.66217 0.167623 0
M  V30 2505 H 207.92 -4.55034 -2.14366 0
M  V30 2506 H 207.62 -5.80441 -0.914454 0
M  V30 2507 H 209.144 -5.82003 -1.84675 0
M  V30 2508 H 210.558 -5.71742 0.422366 0
M  V30 2509 H 208.955 -5.8805 1.19656 0
M  V30 2510 H 210.025 -4.55045 1.67518 0
M  V30 2511 N 211.368 -0.403325 -1.52352 0
M  V30 2512 C 212.316 0.439752 -2.28405 0
M  V30 2513 C 213.31 1.05089 -1.32863 0
M  V30 2514 O 214.516 0.989759 -1.50345 0
M  V30 2515 H 210.891 0.160587 -0.734653 0
M  V30 2516 H 212.862 -0.222983 -2.97566 0
M  V30 2517 C 211.611 1.54736 -3.11371 0
M  V30 2518 H 210.934 1.08643 -3.84755 0
M  V30 2519 H 212.374 2.1112 -3.67701 0
M  V30 2520 C 210.833 2.51141 -2.24566 0
M  V30 2521 O 211.363 3.54887 -1.88196 0
M  V30 2522 N 209.569 2.21213 -1.8845 0
M  V30 2523 H 209.116 1.36878 -2.18225 0
M  V30 2524 H 209.074 2.85963 -1.30662 0
M  V30 2525 N 212.846 1.57033 -0.133567 0
M  V30 2526 C 213.794 2.17348 0.828412 0
M  V30 2527 C 214.788 1.12671 1.26498 0
M  V30 2528 O 215.994 1.30947 1.23502 0
M  V30 2529 H 212.369 0.695775 0.285309 0
M  V30 2530 H 214.34 2.96935 0.295372 0
M  V30 2531 C 213.089 2.79893 2.06289 0
M  V30 2532 H 212.412 3.60147 1.73592 0
M  V30 2533 H 213.852 3.25615 2.71572 0
M  V30 2534 C 212.311 1.77713 2.86216 0
M  V30 2535 O 212.841 1.23937 3.82103 0
M  V30 2536 N 211.047 1.47321 2.50489 0
M  V30 2537 H 210.594 1.91243 1.7258 0
M  V30 2538 H 210.552 0.79199 3.04261 0
M  V30 2539 N 214.325 -0.140222 1.56975 0
M  V30 2540 C 215.572 -0.851687 1.83719 0
M  V30 2541 C 215.9 -1.80862 0.715485 0
M  V30 2542 O 215.155 -1.93464 -0.294956 0
M  V30 2543 C 215.454 -1.65386 3.16832 0
M  V30 2544 C 215.12 -0.843112 4.42947 0
M  V30 2545 C 213.782 -0.619464 4.77196 0
M  V30 2546 C 216.134 -0.276582 5.20466 0
M  V30 2547 C 213.462 0.181312 5.8642 0
M  V30 2548 C 215.814 0.51127 6.30531 0
M  V30 2549 C 214.478 0.745432 6.63325 0
M  V30 2550 H 213.748 -0.311654 0.672274 0
M  V30 2551 H 216.395 -0.115006 1.91154 0
M  V30 2552 H 214.7 -2.46084 3.04877 0
M  V30 2553 H 216.397 -2.20793 3.34741 0
M  V30 2554 H 212.987 -1.0275 4.16101 0
M  V30 2555 H 217.171 -0.436632 4.94376 0
M  V30 2556 H 212.427 0.372165 6.10266 0
M  V30 2557 H 216.601 0.957354 6.89788 0
M  V30 2558 H 214.228 1.36778 7.47794 0
M  V30 2559 N 215.803 -1.52179 -0.40978 0
M  V30 2560 C 216.733 -1.78435 -1.5061 0
M  V30 2561 C 217.714 -0.635295 -1.57791 0
M  V30 2562 O 218.899 -0.880823 -1.73076 0
M  V30 2563 C 216.029 -1.93444 -2.88439 0
M  V30 2564 C 214.983 -3.09038 -2.96108 0
M  V30 2565 C 214.309 -3.09268 -4.36185 0
M  V30 2566 C 215.609 -4.48508 -2.67652 0
M  V30 2567 H 217.303 -2.70237 -1.28889 0
M  V30 2568 H 214.849 -1.30036 -0.618605 0
M  V30 2569 H 216.802 -2.10394 -3.65119 0
M  V30 2570 H 215.526 -0.983129 -3.11452 0
M  V30 2571 H 214.185 -2.91837 -2.21872 0
M  V30 2572 H 213.833 -2.11861 -4.56206 0
M  V30 2573 H 213.533 -3.86907 -4.42241 0
M  V30 2574 H 215.057 -3.28348 -5.14801 0
M  V30 2575 H 216.471 -4.65918 -3.34056 0
M  V30 2576 H 214.868 -5.28059 -2.85085 0
M  V30 2577 H 215.938 -4.56649 -1.63095 0
M  V30 2578 N 217.281 0.66697 -1.42791 0
M  V30 2579 C 218.228 1.7803 -1.4688 0
M  V30 2580 C 219.198 1.6299 -0.319919 0
M  V30 2581 O 220.383 1.83432 -0.525118 0
M  V30 2582 C 217.523 3.1611 -1.38451 0
M  V30 2583 C 216.636 3.42381 -2.63437 0
M  V30 2584 C 215.771 4.70232 -2.47094 0
M  V30 2585 C 214.81 4.89564 -3.67415 0
M  V30 2586 N 213.947 6.08661 -3.49966 0
M  V30 2587 H 218.787 1.7387 -2.42019 0
M  V30 2588 H 216.324 0.84868 -1.20149 0
M  V30 2589 H 218.282 3.95914 -1.31561 0
M  V30 2590 H 216.912 3.19374 -0.469033 0
M  V30 2591 H 215.964 2.56774 -2.80662 0
M  V30 2592 H 217.276 3.52557 -3.52853 0
M  V30 2593 H 216.43 5.5814 -2.37834 0
M  V30 2594 H 215.169 4.62353 -1.5518 0
M  V30 2595 H 214.174 4.00096 -3.77099 0
M  V30 2596 H 215.399 4.99282 -4.6032 0
M  V30 2597 H 213.345 6.0194 -2.60776 0
M  V30 2598 H 213.262 6.19733 -4.32975 0
M  V30 2599 H 214.53 6.99226 -3.44532 0
M  V30 2600 N 218.759 1.29093 0.90403 0
M  V30 2601 C 219.707 1.13727 2.02901 0
M  V30 2602 C 220.701 0.0539853 1.69314 0
M  V30 2603 O 221.907 0.213469 1.7873 0
M  V30 2604 H 218.282 0.35117 0.664969 0
M  V30 2605 H 220.253 2.08982 2.13001 0
M  V30 2606 C 219.002 0.826066 3.37745 0
M  V30 2607 H 218.325 1.65164 3.64089 0
M  V30 2608 H 219.765 0.758559 4.17159 0
M  V30 2609 C 218.224 -0.470541 3.33598 0
M  V30 2610 O 218.754 -1.49792 3.72727 0
M  V30 2611 N 216.96 -0.474812 2.86695 0
M  V30 2612 H 216.507 0.361692 2.55048 0
M  V30 2613 H 216.465 -1.34236 2.84303 0
M  V30 2614 N 220.237 -1.11381 1.11499 0
M  V30 2615 C 221.648 -1.6465 0.880191 0
M  V30 2616 C 221.999 -1.87199 -0.587434 0
M  V30 2617 O 221.124 -1.60667 -1.44966 0
M  V30 2618 C 221.719 -2.99105 1.59128 0
M  V30 2619 C 220.278 -3.49279 1.40289 0
M  V30 2620 C 219.425 -2.24077 1.63354 0
M  V30 2621 H 222.376 -0.950123 1.27116 0
M  V30 2622 H 222.397 -3.66107 1.03664 0
M  V30 2623 H 221.909 -2.82661 2.65941 0
M  V30 2624 H 220.01 -3.70887 0.356888 0
M  V30 2625 H 220.123 -4.2803 2.15238 0
M  V30 2626 H 218.487 -2.31733 1.05698 0
M  V30 2627 H 219.27 -2.10175 2.71443 0
M  V30 2628 N 221.715 -0.905404 -1.28997 0
M  V30 2629 C 223.126 -0.581953 -1.77398 0
M  V30 2630 C 223.477 0.902552 -1.74208 0
M  V30 2631 O 222.602 1.70584 -1.33154 0
M  V30 2632 C 223.197 -1.04961 -3.22131 0
M  V30 2633 C 221.756 -0.777229 -3.68288 0
M  V30 2634 C 220.903 -1.22109 -2.48967 0
M  V30 2635 H 223.854 -1.08754 -1.15578 0
M  V30 2636 H 223.875 -0.387387 -3.78523 0
M  V30 2637 H 223.387 -2.13008 -3.24421 0
M  V30 2638 H 221.488 0.290383 -3.71467 0
M  V30 2639 H 221.601 -1.37911 -4.58822 0
M  V30 2640 H 219.965 -0.639971 -2.46529 0
M  V30 2641 H 220.748 -2.30972 -2.53982 0
M  V30 2642 N 223.193 1.4272 -0.668489 0
M  V30 2643 C 224.442 2.00846 -0.185389 0
M  V30 2644 C 224.755 1.53442 1.21305 0
M  V30 2645 O 225.961 2.03944 1.79218 0
M  V30 2646 C 224.417 3.58805 -0.280591 0
M  V30 2647 C 224.025 4.15198 -1.68268 0
M  V30 2648 C 225.769 4.24255 0.14412 0
M  V30 2649 C 223.676 5.655 -1.73099 0
M  V30 2650 H 222.606 0.751145 -0.0655475 0
M  V30 2651 H 225.257 1.63516 -0.832752 0
M  V30 2652 H 223.639 3.93608 0.434553 0
M  V30 2653 H 224.813 3.91866 -2.42441 0
M  V30 2654 H 223.128 3.62176 -2.05469 0
M  V30 2655 H 225.725 5.34547 0.128086 0
M  V30 2656 H 226.068 3.99277 1.17827 0
M  V30 2657 H 226.601 3.94389 -0.519798 0
M  V30 2658 H 223.34 5.95268 -2.74475 0
M  V30 2659 H 222.86 5.90842 -1.03274 0
M  V30 2660 H 224.539 6.29808 -1.48158 0
M  V30 2661 N 224.671 0.411399 1.52136 0
M  V30 2662 C 225.619 -0.427633 2.28635 0
M  V30 2663 C 226.613 -1.04383 1.33419 0
M  V30 2664 O 227.819 -0.981772 1.50868 0
M  V30 2665 H 224.194 -0.156689 0.735495 0
M  V30 2666 H 226.165 0.238761 2.97443 0
M  V30 2667 C 224.914 -1.53082 3.12188 0
M  V30 2668 H 224.237 -1.06601 3.85326 0
M  V30 2669 H 225.677 -2.09167 3.68816 0
M  V30 2670 C 224.136 -2.49946 2.25895 0
M  V30 2671 O 224.666 -3.53884 1.90076 0
M  V30 2672 N 222.872 -2.2021 1.8962 0
M  V30 2673 H 222.419 -1.35719 2.18948 0
M  V30 2674 H 222.377 -2.85266 1.32176 0
M  V30 2675 N 226.149 -1.5696 0.141893 0
M  V30 2676 C 227.389 -1.9785 -0.513304 0
M  V30 2677 C 227.753 -1.02467 -1.62371 0
M  V30 2678 O 228.954 -1.32382 -2.33941 0
M  V30 2679 C 227.225 -3.42797 -1.01118 0
M  V30 2680 S 228.784 -4.05709 -1.67169 0
M  V30 2681 H 225.602 -0.691318 -0.166135 0
M  V30 2682 H 228.204 -1.94114 0.232398 0
M  V30 2683 H 226.908 -4.0995 -0.192179 0
M  V30 2684 H 226.439 -3.50235 -1.79162 0
M  V30 2685 H 228.454 -3.98342 -2.95868 0
M  V30 2686 N 227.627 0.131896 -1.57047 0
M  V30 2687 C 228.855 0.856461 -1.88341 0
M  V30 2688 C 229.27 1.74042 -0.731757 0
M  V30 2689 O 228.627 1.80051 0.297945 0
M  V30 2690 C 228.678 1.70064 -3.18999 0
M  V30 2691 O 228.399 0.852278 -4.2973 0
M  V30 2692 C 229.9 2.53148 -3.63911 0
M  V30 2693 H 227.12 0.246885 -0.62393 0
M  V30 2694 H 229.664 0.120152 -2.04147 0
M  V30 2695 H 227.819 2.38984 -3.04902 0
M  V30 2696 H 228.233 1.43329 -5.04537 0
M  V30 2697 H 229.707 3.07931 -4.58129 0
M  V30 2698 H 230.184 3.29901 -2.89935 0
M  V30 2699 H 230.79 1.89492 -3.80753 0
M  V30 2700 N 229.106 1.52395 0.401703 0
M  V30 2701 C 230.355 1.66044 1.14509 0
M  V30 2702 C 230.668 0.400216 1.91462 0
M  V30 2703 O 231.874 0.416632 2.68284 0
M  V30 2704 C 230.33 2.93388 2.0845 0
M  V30 2705 C 229.938 4.26545 1.36978 0
M  V30 2706 C 231.682 3.16402 2.83001 0
M  V30 2707 C 229.589 5.45007 2.29611 0
M  V30 2708 H 228.519 0.618562 0.431158 0
M  V30 2709 H 231.17 1.78886 0.40892 0
M  V30 2710 H 229.552 2.74263 2.8565 0
M  V30 2711 H 230.726 4.56179 0.650916 0
M  V30 2712 H 229.041 4.09692 0.74438 0
M  V30 2713 H 231.638 4.02085 3.52465 0
M  V30 2714 H 231.981 2.30943 3.46368 0
M  V30 2715 H 232.514 3.36034 2.12898 0
M  V30 2716 H 229.253 6.32835 1.70879 0
M  V30 2717 H 228.773 5.19702 2.9945 0
M  V30 2718 H 230.452 5.7838 2.89974 0
M  V30 2719 N 230.584 -0.659388 1.43143 0
M  V30 2720 C 231.861 -1.41627 1.34912 0
M  V30 2721 C 232.241 -2.11099 -0.00607785 0
M  V30 2722 O 231.589 -2.04353 -1.02236 0
M  V30 2723 C 231.799 -2.40604 2.52805 0
M  V30 2724 C 233.147 -3.04789 2.95616 0
M  V30 2725 O 234.171 -2.50932 2.52807 0
M  V30 2726 O 233.03 -4.02421 3.69756 0
M  V30 2727 H 230.124 -0.63246 0.532844 0
M  V30 2728 H 232.67 -0.686814 1.5518 0
M  V30 2729 H 231.442 -1.88174 3.43083 0
M  V30 2730 H 231.065 -3.21009 2.34604 0
M  V30 2731 N 232.062 -1.29571 -0.897171 0
M  V30 2732 C 233.308 -1.17863 -1.65034 0
M  V30 2733 C 233.641 0.268729 -1.92332 0
M  V30 2734 O 232.916 1.19378 -1.53555 0
M  V30 2735 C 233.199 -1.995 -2.99786 0
M  V30 2736 C 233.052 -3.5239 -2.79538 0
M  V30 2737 C 234.371 -1.82335 -4.00552 0
M  V30 2738 H 231.49 -0.429528 -0.598895 0
M  V30 2739 H 234.132 -1.59072 -1.03905 0
M  V30 2740 H 232.282 -1.64485 -3.51962 0
M  V30 2741 H 233.954 -3.97401 -2.34244 0
M  V30 2742 H 232.197 -3.77187 -2.14273 0
M  V30 2743 H 232.868 -4.04787 -3.75302 0
M  V30 2744 H 235.344 -2.12924 -3.57495 0
M  V30 2745 H 234.22 -2.41801 -4.92771 0
M  V30 2746 H 234.481 -0.779209 -4.35179 0
M  V30 2747 N 233.54 1.10788 -1.12088 0
M  V30 2748 C 234.49 2.15158 -0.754401 0
M  V30 2749 C 235.474 1.59026 0.244846 0
M  V30 2750 O 236.666 1.76927 0.0509097 0
M  V30 2751 C 233.795 3.42677 -0.206657 0
M  V30 2752 C 232.881 4.05751 -1.23398 0
M  V30 2753 N 233.272 4.43582 -2.43041 0
M  V30 2754 C 231.57 4.32764 -1.07848 0
M  V30 2755 C 232.271 4.93085 -3.08613 0
M  V30 2756 N 231.247 4.89664 -2.36072 0
M  V30 2757 H 235.049 2.42195 -1.6649 0
M  V30 2758 H 232.563 1.27872 -1.00112 0
M  V30 2759 H 234.56 4.16834 0.0740646 0
M  V30 2760 H 233.22 3.17101 0.698342 0
M  V30 2761 H 234.231 4.35395 -2.80449 0
M  V30 2762 H 230.908 4.16863 -0.230483 0
M  V30 2763 H 232.298 5.31933 -4.10483 0
M  V30 2764 N 235.018 0.912232 1.28515 0
M  V30 2765 C 236.429 0.591352 1.77087 0
M  V30 2766 C 236.78 -0.8933 1.74684 0
M  V30 2767 O 235.905 -1.69876 1.34056 0
M  V30 2768 C 236.5 1.06668 3.2157 0
M  V30 2769 C 235.059 0.79675 3.67871 0
M  V30 2770 C 234.206 1.23427 2.48316 0
M  V30 2771 H 237.157 1.09365 1.15 0
M  V30 2772 H 237.178 0.407455 3.78312 0
M  V30 2773 H 236.69 2.14726 3.23287 0
M  V30 2774 H 234.791 -0.270679 3.71616 0
M  V30 2775 H 234.904 1.40343 4.58084 0
M  V30 2776 H 233.268 0.653036 2.46186 0
M  V30 2777 H 234.051 2.32316 2.52753 0
M  V30 2778 N 236.496 -1.42363 0.676048 0
M  V30 2779 C 237.721 -2.06377 0.205705 0
M  V30 2780 C 238.146 -1.50463 -1.12883 0
M  V30 2781 O 237.504 -0.623619 -1.70237 0
M  V30 2782 C 237.552 -3.60277 0.152655 0
M  V30 2783 O 236.656 -4.02935 -0.87845 0
M  V30 2784 H 235.997 -0.655588 0.105359 0
M  V30 2785 H 238.527 -1.82475 0.925412 0
M  V30 2786 H 238.537 -4.07993 -0.0230675 0
M  V30 2787 H 237.212 -4.00346 1.12675 0
M  V30 2788 H 235.789 -3.66764 -0.673668 0
M  V30 2789 N 237.974 -0.419461 -1.51915 0
M  V30 2790 C 238.922 0.415502 -2.28859 0
M  V30 2791 C 239.916 1.03674 -1.3397 0
M  V30 2792 O 241.122 0.973757 -1.51387 0
M  V30 2793 H 237.497 0.152786 -0.736315 0
M  V30 2794 H 239.468 -0.254531 -2.97312 0
M  V30 2795 C 238.217 1.51425 -3.12995 0
M  V30 2796 H 237.54 1.04556 -3.85886 0
M  V30 2797 H 238.98 2.07208 -3.6992 0
M  V30 2798 C 237.439 2.48745 -2.27217 0
M  V30 2799 O 237.969 3.52871 -1.9195 0
M  V30 2800 N 236.175 2.19202 -1.90785 0
M  V30 2801 H 235.722 1.34556 -2.19664 0
M  V30 2802 H 235.68 2.84561 -1.33687 0
M  V30 2803 N 239.452 1.56882 -0.150215 0
M  V30 2804 C 240.701 1.95403 0.500071 0
M  V30 2805 C 241.014 1.03777 1.658 0
M  V30 2806 O 242.22 1.31889 2.37313 0
M  V30 2807 C 240.676 3.4738 0.941018 0
M  V30 2808 C 240.284 4.47596 -0.190158 0
M  V30 2809 C 242.028 3.9476 1.56091 0
M  V30 2810 C 239.935 5.90787 0.269237 0
M  V30 2811 H 238.865 0.729515 0.190588 0
M  V30 2812 H 241.516 1.81988 -0.235074 0
M  V30 2813 H 239.898 3.56138 1.73152 0
M  V30 2814 H 241.072 4.50536 -0.967157 0
M  V30 2815 H 239.387 4.10151 -0.718666 0
M  V30 2816 H 241.984 4.99181 1.9163 0
M  V30 2817 H 242.327 3.36494 2.45107 0
M  V30 2818 H 242.86 3.88932 0.835249 0
M  V30 2819 H 239.599 6.52879 -0.585621 0
M  V30 2820 H 239.119 5.912 1.01204 0
M  V30 2821 H 240.798 6.42979 0.720176 0
M  V30 2822 N 240.93 -0.123565 1.57115 0
M  V30 2823 C 242.346 -0.476961 1.52306 0
M  V30 2824 C 242.546 -1.82109 0.86248 0
M  V30 2825 O 241.602 -2.48586 0.442884 0
M  V30 2826 C 242.915 -0.465661 2.97073 0
M  V30 2827 C 244.463 -0.549534 3.08138 0
M  V30 2828 C 244.938 -0.568669 4.54456 0
M  V30 2829 N 246.429 -0.630237 4.58892 0
M  V30 2830 C 247.164 -0.666415 5.69514 0
M  V30 2831 N 246.66 -0.660514 6.89644 0
M  V30 2832 N 248.453 -0.709077 5.5761 0
M  V30 2833 H 240.604 0.757198 1.98445 0
M  V30 2834 H 242.867 0.278808 0.906074 0
M  V30 2835 H 242.573 0.454232 3.48754 0
M  V30 2836 H 242.447 -1.29513 3.54269 0
M  V30 2837 H 244.834 -1.45985 2.56461 0
M  V30 2838 H 244.915 0.307532 2.53945 0
M  V30 2839 H 244.559 0.337581 5.06777 0
M  V30 2840 H 244.489 -1.44256 5.06456 0
M  V30 2841 H 246.98 -0.641146 3.72421 0
M  V30 2842 H 247.293 -0.690616 7.69708 0
M  V30 2843 H 245.638 -0.628012 6.92157 0
M  V30 2844 H 248.829 -0.711019 4.62668 0
M  V30 2845 H 249.002 -0.733804 6.43832 0
M  V30 2846 N 242.408 -1.52605 -0.393616 0
M  V30 2847 C 243.657 -1.66649 -1.13627 0
M  V30 2848 C 243.97 -0.410364 -1.91247 0
M  V30 2849 O 245.176 -0.430854 -2.68059 0
M  V30 2850 C 243.632 -2.9449 -2.06891 0
M  V30 2851 C 243.24 -4.27266 -1.34714 0
M  V30 2852 C 244.984 -3.17899 -2.81319 0
M  V30 2853 C 242.891 -5.46217 -2.26717 0
M  V30 2854 H 241.821 -0.62084 -0.427871 0
M  V30 2855 H 244.472 -1.791 -0.399428 0
M  V30 2856 H 242.854 -2.75774 -2.84191 0
M  V30 2857 H 244.028 -4.56518 -0.626714 0
M  V30 2858 H 242.343 -4.10081 -0.722643 0
M  V30 2859 H 244.94 -4.03949 -3.50328 0
M  V30 2860 H 245.283 -2.32777 -3.45139 0
M  V30 2861 H 245.816 -3.37159 -2.11113 0
M  V30 2862 H 242.555 -6.33733 -1.67521 0
M  V30 2863 H 242.075 -5.21283 -2.96689 0
M  V30 2864 H 243.754 -5.7991 -2.86903 0
M  V30 2865 N 243.887 0.651787 -1.4349 0
M  V30 2866 C 245.133 1.4121 -1.46395 0
M  V30 2867 C 245.488 1.92202 -0.087366 0
M  V30 2868 O 244.781 1.69452 0.894231 0
M  V30 2869 C 244.975 2.60914 -2.44251 0
M  V30 2870 C 244.804 2.21639 -3.91288 0
M  V30 2871 C 243.574 2.09897 -4.59643 0
M  V30 2872 C 245.772 1.81835 -4.81083 0
M  V30 2873 N 243.754 1.63967 -5.91598 0
M  V30 2874 C 245.125 1.46998 -6.02322 0
M  V30 2875 C 247.18 1.69031 -4.6833 0
M  V30 2876 C 245.883 1.00638 -7.12225 0
M  V30 2877 C 247.909 1.24077 -5.78238 0
M  V30 2878 C 247.271 0.901772 -6.98604 0
M  V30 2879 H 243.37 0.512322 -0.590805 0
M  V30 2880 H 245.954 0.74989 -1.7968 0
M  V30 2881 H 244.125 3.24792 -2.1299 0
M  V30 2882 H 245.857 3.27622 -2.37584 0
M  V30 2883 H 242.612 2.297 -4.14168 0
M  V30 2884 H 243.036 1.43359 -6.61647 0
M  V30 2885 H 247.678 1.93878 -3.75727 0
M  V30 2886 H 245.396 0.745399 -8.04655 0
M  V30 2887 H 248.982 1.14657 -5.7039 0
M  V30 2888 H 247.862 0.559226 -7.82203 0
M  V30 2889 N 245.365 1.30045 0.890287 0
M  V30 2890 C 246.614 1.17929 1.63633 0
M  V30 2891 C 246.927 -0.266204 1.9378 0
M  V30 2892 O 248.133 -0.508804 2.6669 0
M  V30 2893 C 246.589 2.06317 2.94892 0
M  V30 2894 C 246.197 3.55745 2.72305 0
M  V30 2895 C 247.941 2.0295 3.72843 0
M  V30 2896 C 245.848 4.36205 3.99348 0
M  V30 2897 H 244.778 0.437782 0.613892 0
M  V30 2898 H 247.429 1.54754 0.986075 0
M  V30 2899 H 245.811 1.6237 3.61182 0
M  V30 2900 H 246.985 4.07805 2.1455 0
M  V30 2901 H 245.3 3.6088 2.07737 0
M  V30 2902 H 247.897 2.60319 4.67053 0
M  V30 2903 H 248.24 1.0117 4.0382 0
M  V30 2904 H 248.773 2.4499 3.13408 0
M  V30 2905 H 245.512 5.38659 3.73533 0
M  V30 2906 H 245.032 3.8891 4.56628 0
M  V30 2907 H 246.711 4.47362 4.67415 0
M  V30 2908 N 246.843 -1.10192 1.12674 0
M  V30 2909 C 248.089 -1.82475 0.884915 0
M  V30 2910 C 248.422 -1.85093 -0.58773 0
M  V30 2911 O 247.697 -1.3134 -1.43457 0
M  V30 2912 C 247.98 -3.29018 1.46353 0
M  V30 2913 C 247.833 -3.34718 3.00473 0
M  V30 2914 C 249.152 -4.25473 1.12519 0
M  V30 2915 H 246.271 -0.662492 0.322915 0
M  V30 2916 H 248.913 -1.2913 1.39375 0
M  V30 2917 H 247.063 -3.74576 1.03077 0
M  V30 2918 H 248.735 -2.97622 3.52447 0
M  V30 2919 H 246.978 -2.74541 3.35872 0
M  V30 2920 H 247.649 -4.37918 3.36053 0
M  V30 2921 H 250.125 -3.88161 1.499 0
M  V30 2922 H 249.001 -5.26365 1.55663 0
M  V30 2923 H 249.262 -4.42084 0.0377407 0
M  V30 2924 N 248.321 -0.919034 -1.28029 0
M  V30 2925 C 249.253 -0.368762 -2.26214 0
M  V30 2926 C 250.266 0.495716 -1.55069 0
M  V30 2927 O 251.455 0.30974 -1.75792 0
M  V30 2928 C 248.555 0.491049 -3.35324 0
M  V30 2929 C 247.728 -0.352133 -4.3598 0
M  V30 2930 C 246.787 0.443622 -5.24327 0
M  V30 2931 O 245.813 -0.14566 -5.69014 0
M  V30 2932 N 247.015 1.74545 -5.53637 0
M  V30 2933 H 249.78 -1.21273 -2.74068 0
M  V30 2934 H 247.341 -0.785541 -1.41566 0
M  V30 2935 H 249.333 1.03026 -3.91366 0
M  V30 2936 H 247.903 1.23574 -2.87138 0
M  V30 2937 H 247.123 -1.07269 -3.79324 0
M  V30 2938 H 248.411 -0.928883 -5.00249 0
M  V30 2939 H 247.809 2.24666 -5.19174 0
M  V30 2940 H 246.366 2.23138 -6.12416 0
M  V30 2941 N 249.799 1.42003 -0.683588 0
M  V30 2942 C 251.029 2.05448 -0.217866 0
M  V30 2943 C 251.437 1.51491 1.13346 0
M  V30 2944 O 250.78 0.653048 1.717 0
M  V30 2945 C 250.842 3.59399 -0.0850118 0
M  V30 2946 C 250.506 4.36093 -1.36645 0
M  V30 2947 C 251.503 4.66169 -2.30179 0
M  V30 2948 C 249.188 4.75578 -1.61649 0
M  V30 2949 C 251.182 5.34676 -3.46988 0
M  V30 2950 C 248.869 5.43824 -2.78745 0
M  V30 2951 C 249.867 5.73299 -3.71238 0
M  V30 2952 O 249.555 6.40142 -4.86285 0
M  V30 2953 H 249.287 0.668344 -0.101454 0
M  V30 2954 H 251.841 1.82974 -0.933248 0
M  V30 2955 H 250.071 3.80566 0.686031 0
M  V30 2956 H 251.76 4.04457 0.341973 0
M  V30 2957 H 252.526 4.36156 -2.12115 0
M  V30 2958 H 248.405 4.52025 -0.905243 0
M  V30 2959 H 251.949 5.57599 -4.19201 0
M  V30 2960 H 247.846 5.73254 -2.96732 0
M  V30 2961 H 248.614 6.58636 -4.85944 0
M  V30 2962 N 251.277 0.427512 1.51691 0
M  V30 2963 C 252.523 -0.142439 2.02299 0
M  V30 2964 C 252.856 -1.43214 1.31162 0
M  V30 2965 O 252.131 -1.89833 0.423511 0
M  V30 2966 C 252.414 -0.371301 3.58181 0
M  V30 2967 C 252.267 0.936358 4.39946 0
M  V30 2968 C 253.586 -1.14542 4.24933 0
M  V30 2969 H 250.705 -0.0502937 0.735282 0
M  V30 2970 H 253.347 0.564584 1.81418 0
M  V30 2971 H 251.497 -0.973559 3.76104 0
M  V30 2972 H 253.169 1.57184 4.33694 0
M  V30 2973 H 251.412 1.5432 4.05423 0
M  V30 2974 H 252.083 0.730388 5.47147 0
M  V30 2975 H 254.559 -0.635362 4.11221 0
M  V30 2976 H 253.435 -1.27431 5.33903 0
M  V30 2977 H 253.696 -2.17093 3.85127 0
M  V30 2978 N 252.755 -1.56801 0.158532 0
M  V30 2979 C 254.003 -1.96102 -0.488712 0
M  V30 2980 C 254.324 -1.04498 -1.64636 0
M  V30 2981 O 253.594 -0.108783 -1.95598 0
M  V30 2982 H 252.174 -0.724102 -0.183535 0
M  V30 2983 H 254.836 -1.93457 0.236728 0
M  V30 2984 H 253.932 -3.00097 -0.857219 0
M  V30 2985 N 254.233 0.115231 -1.57178 0
M  V30 2986 C 255.163 1.1423 -2.03651 0
M  V30 2987 C 256.144 1.42967 -0.921655 0
M  V30 2988 O 257.329 1.53343 -1.19162 0
M  V30 2989 C 254.459 2.4675 -2.44401 0
M  V30 2990 C 253.413 2.32467 -3.59365 0
M  V30 2991 C 252.739 3.69984 -3.86026 0
M  V30 2992 C 254.039 1.78203 -4.90959 0
M  V30 2993 H 255.733 0.755749 -2.89705 0
M  V30 2994 H 253.279 0.362093 -1.39373 0
M  V30 2995 H 255.232 3.18854 -2.75517 0
M  V30 2996 H 253.956 2.87302 -1.55322 0
M  V30 2997 H 252.615 1.62811 -3.28463 0
M  V30 2998 H 252.263 4.08028 -2.94147 0
M  V30 2999 H 251.963 3.61279 -4.63412 0
M  V30 3000 H 253.487 4.43587 -4.19599 0
M  V30 3001 H 254.901 2.40128 -5.20587 0
M  V30 3002 H 253.298 1.8031 -5.72371 0
M  V30 3003 H 254.368 0.739876 -4.79222 0
M  V30 3004 N 255.711 1.52812 0.385517 0
M  V30 3005 C 256.621 1.80766 1.49535 0
M  V30 3006 C 257.637 0.694651 1.59532 0
M  V30 3007 O 258.813 0.982611 1.75803 0
M  V30 3008 C 255.878 1.97381 2.85029 0
M  V30 3009 C 254.939 3.21295 2.84724 0
M  V30 3010 C 254.172 3.37108 4.13756 0
M  V30 3011 O 254.395 2.5765 5.08893 0
M  V30 3012 O 253.329 4.30378 4.20783 0
M  V30 3013 H 257.155 2.75015 1.28842 0
M  V30 3014 H 254.74 1.37946 0.573697 0
M  V30 3015 H 256.622 2.09996 3.65349 0
M  V30 3016 H 255.297 1.06322 3.05741 0
M  V30 3017 H 254.204 3.1412 2.03174 0
M  V30 3018 H 255.537 4.12212 2.68965 0
M  V30 3019 N 257.189 -0.644168 1.43834 0
M  V30 3020 C 258.137 -1.77793 1.49974 0
M  V30 3021 C 259.131 -1.65253 0.372536 0
M  V30 3022 O 260.337 -1.7149 0.546924 0
M  V30 3023 H 256.712 -0.58675 0.47035 0
M  V30 3024 H 258.683 -1.69736 2.45423 0
M  V30 3025 C 257.432 -3.16087 1.4486 0
M  V30 3026 H 256.755 -3.26378 2.30905 0
M  V30 3027 H 258.195 -3.95349 1.53217 0
M  V30 3028 C 256.654 -3.36484 0.167463 0
M  V30 3029 O 257.184 -3.94298 -0.767609 0
M  V30 3030 N 255.39 -2.90504 0.0747556 0
M  V30 3031 H 254.937 -2.4364 0.836507 0
M  V30 3032 H 254.895 -3.04527 -0.781714 0
M  V30 3033 N 258.668 -1.30515 -0.883378 0
M  V30 3034 C 259.896 -1.22359 -1.66841 0
M  V30 3035 C 260.311 0.213296 -1.87591 0
M  V30 3036 O 259.668 1.14075 -1.42454 0
M  V30 3037 C 259.719 -1.95011 -3.04389 0
M  V30 3038 O 259.44 -3.3309 -2.84575 0
M  V30 3039 C 260.941 -1.93532 -3.98824 0
M  V30 3040 H 258.161 -0.423371 -0.520575 0
M  V30 3041 H 260.705 -1.72167 -1.10357 0
M  V30 3042 H 258.86 -1.48997 -3.57601 0
M  V30 3043 H 259.274 -3.69907 -3.71846 0
M  V30 3044 H 260.748 -2.48902 -4.92699 0
M  V30 3045 H 261.225 -0.914627 -4.29571 0
M  V30 3046 H 261.831 -2.39364 -3.51547 0
M  V30 3047 N 260.146 1.09593 -1.13257 0
M  V30 3048 C 261.395 1.81105 -0.887917 0
M  V30 3049 C 261.708 1.86563 0.587672 0
M  V30 3050 O 262.914 2.54367 0.949204 0
M  V30 3051 C 261.37 3.25338 -1.53895 0
M  V30 3052 C 260.978 3.28151 -3.04994 0
M  V30 3053 C 262.722 4.01617 -1.37492 0
M  V30 3054 C 260.629 4.66897 -3.6299 0
M  V30 3055 H 259.559 0.678661 -0.328534 0
M  V30 3056 H 262.21 1.23183 -1.36008 0
M  V30 3057 H 260.592 3.8331 -0.994446 0
M  V30 3058 H 261.766 2.79953 -3.66009 0
M  V30 3059 H 260.081 2.65361 -3.20893 0
M  V30 3060 H 262.678 5.04119 -1.78235 0
M  V30 3061 H 263.021 4.15072 -0.31957 0
M  V30 3062 H 263.554 3.50082 -1.88912 0
M  V30 3063 H 260.293 4.58643 -4.68323 0
M  V30 3064 H 259.813 5.15426 -3.06752 0
M  V30 3065 H 261.492 5.3587 -3.62563 0
M  V30 3066 N 261.624 0.925811 1.2754 0
M  V30 3067 C 262.854 0.580666 1.98272 0
M  V30 3068 C 263.262 -0.845207 1.69272 0
M  V30 3069 O 262.605 -1.57306 0.948707 0
M  V30 3070 C 262.667 0.724418 3.52126 0
M  V30 3071 C 262.331 2.12206 4.04744 0
M  V30 3072 C 263.328 3.09604 4.17662 0
M  V30 3073 C 261.013 2.4385 4.39138 0
M  V30 3074 C 263.007 4.36755 4.64246 0
M  V30 3075 C 260.694 3.71237 4.85414 0
M  V30 3076 C 261.692 4.67503 4.97926 0
M  V30 3077 O 261.38 5.92624 5.43187 0
M  V30 3078 H 261.112 0.218987 0.639547 0
M  V30 3079 H 263.666 1.24452 1.63404 0
M  V30 3080 H 261.896 0.0034663 3.867 0
M  V30 3081 H 263.585 0.384607 4.04074 0
M  V30 3082 H 264.351 2.86478 3.91351 0
M  V30 3083 H 260.23 1.69665 4.28643 0
M  V30 3084 H 263.774 5.11898 4.73927 0
M  V30 3085 H 259.671 3.94182 5.11166 0
M  V30 3086 H 260.439 5.95585 5.61445 0
M  V30 3087 N 263.102 -1.41638 0.69111 0
M  V30 3088 C 264.065 -2.29178 0.0319786 0
M  V30 3089 C 265.065 -1.44153 -0.712496 0
M  V30 3090 O 266.255 -1.65354 -0.548053 0
M  V30 3091 C 263.387 -3.26952 -0.965161 0
M  V30 3092 H 264.58 -2.88959 0.802681 0
M  V30 3093 H 262.133 -1.4955 0.454356 0
M  V30 3094 H 262.868 -2.72142 -1.76378 0
M  V30 3095 H 262.653 -3.89685 -0.434522 0
M  V30 3096 H 264.143 -3.92561 -1.42428 0
M  V30 3097 N 264.58 -0.43555 -1.51462 0
M  V30 3098 C 265.528 0.391205 -2.29287 0
M  V30 3099 C 266.522 1.02247 -1.35062 0
M  V30 3100 O 267.728 0.957646 -1.52411 0
M  V30 3101 H 264.103 0.144968 -0.737895 0
M  V30 3102 H 266.074 -0.286051 -2.97026 0
M  V30 3103 C 264.823 1.48096 -3.14583 0
M  V30 3104 H 264.146 1.00457 -3.86973 0
M  V30 3105 H 265.586 2.03273 -3.72097 0
M  V30 3106 C 264.045 2.46321 -2.29843 0
M  V30 3107 O 264.575 3.50815 -1.95682 0
M  V30 3108 N 262.781 2.17166 -1.931 0
M  V30 3109 H 262.328 1.32218 -2.21079 0
M  V30 3110 H 262.286 2.83127 -1.36698 0
M  V30 3111 N 266.058 1.56714 -0.166846 0
M  V30 3112 C 266.968 2.21331 0.777791 0
M  V30 3113 C 267.984 1.20358 1.25658 0
M  V30 3114 O 269.16 1.53005 1.30964 0
M  V30 3115 C 266.225 2.83787 1.99163 0
M  V30 3116 C 265.286 3.99947 1.56016 0
M  V30 3117 C 264.519 4.59415 2.71613 0
M  V30 3118 O 264.742 4.17769 3.88362 0
M  V30 3119 O 263.676 5.49359 2.45945 0
M  V30 3120 H 267.502 3.02605 0.257636 0
M  V30 3121 H 265.087 1.49275 0.0611393 0
M  V30 3122 H 266.969 3.23405 2.70161 0
M  V30 3123 H 265.644 2.05513 2.50092 0
M  V30 3124 H 264.551 3.65007 0.819809 0
M  V30 3125 H 265.884 4.79801 1.09782 0
M  V30 3126 N 267.536 -0.106894 1.57237 0
M  V30 3127 C 268.782 -0.81373 1.85759 0
M  V30 3128 C 269.115 -1.78952 0.754315 0
M  V30 3129 O 268.39 -1.93029 -0.23879 0
M  V30 3130 C 268.673 -1.55293 3.24894 0
M  V30 3131 C 268.526 -0.595929 4.45835 0
M  V30 3132 C 269.845 -2.5063 3.61763 0
M  V30 3133 H 266.964 -0.294369 0.67566 0
M  V30 3134 H 269.606 -0.0776472 1.89841 0
M  V30 3135 H 267.756 -2.1804 3.21544 0
M  V30 3136 H 269.428 0.0236262 4.61294 0
M  V30 3137 H 267.671 0.0916191 4.33703 0
M  V30 3138 H 268.342 -1.15004 5.39887 0
M  V30 3139 H 270.818 -1.97982 3.65981 0
M  V30 3140 H 269.694 -2.99376 4.60071 0
M  V30 3141 H 269.955 -3.3385 2.89821 0
M  V30 3142 N 269.014 -1.53014 -0.377408 0
M  V30 3143 C 270.244 -1.72265 -1.14054 0
M  V30 3144 C 270.652 -0.44601 -1.83868 0
M  V30 3145 O 269.995 0.590095 -1.73964 0
M  V30 3146 C 270.057 -2.82492 -2.22348 0
M  V30 3147 C 269.721 -4.23233 -1.72402 0
M  V30 3148 C 270.718 -5.05992 -1.19448 0
M  V30 3149 C 268.403 -4.696 -1.78273 0
M  V30 3150 C 270.397 -6.33203 -0.730268 0
M  V30 3151 C 268.084 -5.96792 -1.31464 0
M  V30 3152 C 269.082 -6.78424 -0.789297 0
M  V30 3153 O 268.77 -8.0323 -0.328077 0
M  V30 3154 H 268.502 -0.579873 -0.347453 0
M  V30 3155 H 271.056 -2.00502 -0.445882 0
M  V30 3156 H 269.286 -2.49702 -2.95272 0
M  V30 3157 H 270.975 -2.90034 -2.83963 0
M  V30 3158 H 271.741 -4.71349 -1.14259 0
M  V30 3159 H 267.62 -4.06142 -2.18106 0
M  V30 3160 H 271.164 -6.96868 -0.319542 0
M  V30 3161 H 267.061 -6.30937 -1.36342 0
M  V30 3162 H 267.829 -8.1727 -0.448493 0
M  V30 3163 N 270.492 0.636531 -1.44174 0
M  V30 3164 C 271.439 1.74875 -1.50624 0
M  V30 3165 C 272.409 1.62275 -0.35442 0
M  V30 3166 O 273.594 1.82276 -0.563908 0
M  V30 3167 C 270.734 3.13102 -1.45125 0
M  V30 3168 C 269.847 3.36717 -2.7064 0
M  V30 3169 C 268.982 4.64885 -2.57013 0
M  V30 3170 C 268.021 4.8166 -3.77717 0
M  V30 3171 N 267.158 6.01101 -3.62798 0
M  V30 3172 H 271.998 1.68697 -2.45653 0
M  V30 3173 H 269.535 0.823004 -1.21922 0
M  V30 3174 H 271.493 3.93034 -1.39929 0
M  V30 3175 H 270.123 3.18308 -0.536671 0
M  V30 3176 H 269.175 2.50763 -2.86046 0
M  V30 3177 H 270.487 3.44993 -3.60252 0
M  V30 3178 H 269.641 5.52969 -2.49619 0
M  V30 3179 H 268.38 4.58957 -1.64953 0
M  V30 3180 H 267.385 3.92007 -3.85501 0
M  V30 3181 H 268.61 4.89406 -4.70807 0
M  V30 3182 H 266.556 5.96273 -2.73486 0
M  V30 3183 H 266.473 6.10409 -4.46023 0
M  V30 3184 H 267.741 6.91761 -3.59286 0
M  V30 3185 N 271.97 1.30982 0.876444 0
M  V30 3186 C 273.219 1.19658 1.62373 0
M  V30 3187 C 273.532 -0.245636 1.94052 0
M  V30 3188 O 274.738 -0.48049 2.67214 0
M  V30 3189 C 273.194 2.09433 2.92687 0
M  V30 3190 C 272.802 3.58613 2.68516 0
M  V30 3191 C 274.546 2.06893 3.70669 0
M  V30 3192 C 272.453 4.40416 3.94699 0
M  V30 3193 H 271.383 0.444268 0.609214 0
M  V30 3194 H 274.034 1.55791 0.969605 0
M  V30 3195 H 272.416 1.66191 3.59439 0
M  V30 3196 H 273.59 4.10058 2.10212 0
M  V30 3197 H 271.905 3.63063 2.03898 0
M  V30 3198 H 274.502 2.65258 4.64265 0
M  V30 3199 H 274.845 1.05448 4.02724 0
M  V30 3200 H 275.378 2.48301 3.10792 0
M  V30 3201 H 272.117 5.42591 3.67798 0
M  V30 3202 H 271.637 3.93731 4.52477 0
M  V30 3203 H 273.316 4.52294 4.62644 0
M  V30 3204 N 273.449 -1.08991 1.13837 0
M  V30 3205 C 274.396 -2.15748 0.819835 0
M  V30 3206 C 275.366 -1.64636 -0.220026 0
M  V30 3207 O 276.551 -1.90582 -0.0912757 0
M  V30 3208 C 273.691 -3.4382 0.296913 0
M  V30 3209 C 272.804 -4.0881 1.39636 0
M  V30 3210 C 271.939 -5.24655 0.831314 0
M  V30 3211 C 270.978 -5.81575 1.90886 0
M  V30 3212 N 270.115 -6.88774 1.36142 0
M  V30 3213 H 274.955 -2.42338 1.73426 0
M  V30 3214 H 272.492 -1.18935 0.865613 0
M  V30 3215 H 274.45 -4.17193 -0.0244339 0
M  V30 3216 H 273.08 -3.17535 -0.580628 0
M  V30 3217 H 272.132 -3.33258 1.83422 0
M  V30 3218 H 273.444 -4.47141 2.21058 0
M  V30 3219 H 272.598 -6.04942 0.461515 0
M  V30 3220 H 271.337 -4.87698 -0.013932 0
M  V30 3221 H 270.342 -4.99946 2.28767 0
M  V30 3222 H 271.567 -6.20592 2.75758 0
M  V30 3223 H 269.513 -6.53788 0.538254 0
M  V30 3224 H 269.43 -7.25898 2.11208 0
M  V30 3225 H 270.698 -7.72806 1.01933 0
M  V30 3226 N 274.927 -0.932562 -1.27047 0
M  V30 3227 C 276.176 -0.571351 -1.93439 0
M  V30 3228 C 276.489 0.892467 -1.74053 0
M  V30 3229 O 277.695 1.36267 -2.34826 0
M  V30 3230 C 276.151 -0.97106 -3.46552 0
M  V30 3231 C 275.759 -2.4559 -3.74686 0
M  V30 3232 C 277.503 -0.681333 -4.18997 0
M  V30 3233 C 275.41 -2.79475 -5.21198 0
M  V30 3234 H 274.34 -0.209966 -0.724176 0
M  V30 3235 H 276.991 -1.13403 -1.44263 0
M  V30 3236 H 275.373 -0.336983 -3.94564 0
M  V30 3237 H 276.547 -3.13829 -3.37414 0
M  V30 3238 H 274.862 -2.71802 -3.15456 0
M  V30 3239 H 277.459 -0.910939 -5.26883 0
M  V30 3240 H 277.802 0.381628 -4.14547 0
M  V30 3241 H 278.335 -1.27473 -3.76823 0
M  V30 3242 H 275.074 -3.847 -5.30741 0
M  V30 3243 H 274.594 -2.1589 -5.596 0
M  V30 3244 H 276.273 -2.67478 -5.89122 0
M  V30 3245 N 276.405 1.4127 -0.698611 0
M  V30 3246 C 277.654 2.00408 -0.227949 0
M  V30 3247 C 277.967 1.55981 1.18023 0
M  V30 3248 O 279.173 2.07699 1.74852 0
M  V30 3249 C 277.629 3.58129 -0.356636 0
M  V30 3250 C 277.237 4.11536 -1.77037 0
M  V30 3251 C 278.981 4.24466 0.0540969 0
M  V30 3252 C 276.888 5.61701 -1.85055 0
M  V30 3253 H 275.818 0.749586 -0.0814657 0
M  V30 3254 H 278.469 1.61713 -0.867249 0
M  V30 3255 H 276.851 3.94442 0.350965 0
M  V30 3256 H 278.025 3.86636 -2.50698 0
M  V30 3257 H 276.34 3.57736 -2.13105 0
M  V30 3258 H 278.937 5.34698 0.0146723 0
M  V30 3259 H 279.28 4.01687 1.09332 0
M  V30 3260 H 279.813 3.93198 -0.603337 0
M  V30 3261 H 276.552 5.89312 -2.8704 0
M  V30 3262 H 276.072 5.88519 -1.15783 0
M  V30 3263 H 277.751 6.26524 -1.61484 0
M  V30 3264 N 277.883 0.443576 1.51229 0
M  V30 3265 C 279.13 -0.120796 2.02139 0
M  V30 3266 C 279.458 -1.42166 1.32736 0
M  V30 3267 O 278.713 -1.90849 0.43301 0
M  V30 3268 C 279.012 -0.380579 3.55368 0
M  V30 3269 C 278.678 0.83523 4.43097 0
M  V30 3270 C 277.34 1.16864 4.66794 0
M  V30 3271 C 279.692 1.64601 4.94526 0
M  V30 3272 C 277.02 2.31339 5.39165 0
M  V30 3273 C 279.372 2.78181 5.68153 0
M  V30 3274 C 278.036 3.11969 5.90112 0
M  V30 3275 H 277.306 -0.0442023 0.73968 0
M  V30 3276 H 279.953 0.592046 1.82118 0
M  V30 3277 H 278.258 -1.17538 3.73754 0
M  V30 3278 H 279.955 -0.830777 3.923 0
M  V30 3279 H 276.545 0.565437 4.24854 0
M  V30 3280 H 280.729 1.40163 4.76097 0
M  V30 3281 H 275.985 2.57823 5.5438 0
M  V30 3282 H 280.159 3.41371 6.06992 0
M  V30 3283 H 277.786 4.00784 6.45969 0
M  V30 3284 N 279.361 -1.56624 0.175154 0
M  V30 3285 C 280.772 -1.83561 -0.340916 0
M  V30 3286 C 281.123 -1.09511 -1.62794 0
M  V30 3287 O 280.248 -0.349389 -2.13561 0
M  V30 3288 C 280.843 -3.32979 -0.625313 0
M  V30 3289 C 279.402 -3.60399 -1.08581 0
M  V30 3290 C 278.549 -2.77024 -0.123722 0
M  V30 3291 H 281.5 -1.53593 0.399344 0
M  V30 3292 H 281.521 -3.50666 -1.47694 0
M  V30 3293 H 281.033 -3.86847 0.311575 0
M  V30 3294 H 279.134 -3.11945 -2.03767 0
M  V30 3295 H 279.247 -4.68711 -0.992317 0
M  V30 3296 H 277.611 -2.46993 -0.621821 0
M  V30 3297 H 278.394 -3.33674 0.807256 0
M  V30 3298 N 280.839 0.0985539 -1.57292 0
M  V30 3299 C 282.116 0.834155 -1.76921 0
M  V30 3300 C 282.496 1.97101 -0.755928 0
M  V30 3301 O 281.844 2.27474 0.216245 0
M  V30 3302 C 282.054 1.33194 -3.22584 0
M  V30 3303 C 283.402 1.77611 -3.85668 0
M  V30 3304 O 284.426 1.42825 -3.26312 0
M  V30 3305 O 283.285 2.4192 -4.90038 0
M  V30 3306 H 280.379 0.397628 -0.725135 0
M  V30 3307 H 282.925 0.0807044 -1.69508 0
M  V30 3308 H 281.697 0.517248 -3.87866 0
M  V30 3309 H 281.32 2.1475 -3.34616 0
M  V30 3310 N 282.317 1.53212 0.369288 0
M  V30 3311 C 283.265 1.80054 1.47253 0
M  V30 3312 C 284.259 0.669456 1.55611 0
M  V30 3313 O 285.465 0.852328 1.58541 0
M  V30 3314 H 281.84 0.570034 0.490475 0
M  V30 3315 H 283.811 2.72403 1.21817 0
M  V30 3316 C 282.56 2.00403 2.84137 0
M  V30 3317 H 281.883 2.86876 2.78464 0
M  V30 3318 H 283.323 2.23164 3.60519 0
M  V30 3319 C 281.782 0.782081 3.27697 0
M  V30 3320 O 282.312 -0.0310205 4.01688 0
M  V30 3321 N 280.518 0.606573 2.84199 0
M  V30 3322 H 280.065 1.26939 2.24152 0
M  V30 3323 H 280.023 -0.20962 3.137 0
M  V30 3324 N 283.795 -0.628877 1.44509 0
M  V30 3325 C 285.025 -1.41349 1.50678 0
M  V30 3326 C 285.433 -1.88745 0.131075 0
M  V30 3327 O 284.776 -1.61592 -0.87371 0
M  V30 3328 C 284.838 -2.66608 2.41165 0
M  V30 3329 C 284.502 -2.40993 3.88293 0
M  V30 3330 C 285.499 -2.0268 4.78766 0
M  V30 3331 C 283.184 -2.54563 4.33016 0
M  V30 3332 C 285.178 -1.78269 6.11963 0
M  V30 3333 C 282.865 -2.29766 5.6626 0
M  V30 3334 C 283.863 -1.91678 6.55552 0
M  V30 3335 O 283.551 -1.67158 7.86329 0
M  V30 3336 H 283.283 -0.439851 0.51333 0
M  V30 3337 H 285.837 -0.776084 1.90174 0
M  V30 3338 H 284.067 -3.32994 1.96601 0
M  V30 3339 H 285.756 -3.28615 2.38259 0
M  V30 3340 H 286.522 -1.91751 4.45485 0
M  V30 3341 H 282.401 -2.83179 3.63773 0
M  V30 3342 H 285.945 -1.48465 6.81619 0
M  V30 3343 H 281.842 -2.40306 5.99102 0
M  V30 3344 H 282.61 -1.81386 7.98149 0
M  V30 3345 N 285.273 -1.31445 -0.869486 0
M  V30 3346 C 286.684 -1.19042 -1.43826 0
M  V30 3347 C 287.035 0.202919 -1.95148 0
M  V30 3348 O 286.16 1.10071 -1.86315 0
M  V30 3349 C 286.755 -2.15499 -2.6143 0
M  V30 3350 C 285.314 -2.07028 -3.14351 0
M  V30 3351 C 284.461 -2.04701 -1.87063 0
M  V30 3352 H 287.412 -1.43489 -0.677984 0
M  V30 3353 H 287.433 -1.74488 -3.38134 0
M  V30 3354 H 286.945 -3.16899 -2.24046 0
M  V30 3355 H 285.046 -1.08825 -3.56354 0
M  V30 3356 H 285.159 -2.96157 -3.766 0
M  V30 3357 H 283.523 -1.49724 -2.06046 0
M  V30 3358 H 284.306 -3.07857 -1.51917 0
M  V30 3359 N 286.751 1.08385 -1.14413 0
M  V30 3360 C 287.681 2.17321 -0.854044 0
M  V30 3361 C 288.662 1.69024 0.191049 0
M  V30 3362 O 289.847 1.94141 0.0476779 0
M  V30 3363 C 286.977 3.45719 -0.330983 0
M  V30 3364 C 285.931 4.07409 -1.31155 0
M  V30 3365 C 285.257 5.30762 -0.64778 0
M  V30 3366 C 286.557 4.48665 -2.67388 0
M  V30 3367 H 288.251 2.41845 -1.76498 0
M  V30 3368 H 285.797 1.16233 -0.850051 0
M  V30 3369 H 287.75 4.21241 -0.115645 0
M  V30 3370 H 286.474 3.2075 0.615381 0
M  V30 3371 H 285.133 3.33919 -1.51306 0
M  V30 3372 H 284.781 5.02078 0.304398 0
M  V30 3373 H 284.481 5.72992 -1.30207 0
M  V30 3374 H 286.005 6.08998 -0.441972 0
M  V30 3375 H 287.419 5.15364 -2.51143 0
M  V30 3376 H 285.816 5.01814 -3.29093 0
M  V30 3377 H 286.886 3.60543 -3.24248 0
M  V30 3378 N 288.23 0.939286 1.26551 0
M  V30 3379 C 289.177 0.446088 2.26448 0
M  V30 3380 C 290.147 -0.493234 1.58608 0
M  V30 3381 O 291.332 -0.409857 1.86346 0
M  V30 3382 C 288.472 -0.284375 3.43926 0
M  V30 3383 C 287.585 0.690399 4.26448 0
M  V30 3384 C 286.72 -0.0610712 5.31165 0
M  V30 3385 C 285.759 0.905649 6.05363 0
M  V30 3386 N 284.896 0.186055 7.01853 0
M  V30 3387 H 289.736 1.30291 2.68008 0
M  V30 3388 H 287.273 0.65371 1.31776 0
M  V30 3389 H 289.231 -0.724313 4.10864 0
M  V30 3390 H 287.861 -1.10535 3.03285 0
M  V30 3391 H 286.913 1.24885 3.59316 0
M  V30 3392 H 288.225 1.42873 4.779 0
M  V30 3393 H 287.379 -0.56038 6.04106 0
M  V30 3394 H 286.118 -0.832297 4.80546 0
M  V30 3395 H 285.123 1.4161 5.3125 0
M  V30 3396 H 286.348 1.67685 6.58072 0
M  V30 3397 H 284.294 -0.566714 6.53548 0
M  V30 3398 H 284.211 0.863752 7.51049 0
M  V30 3399 H 285.479 -0.292221 7.78952 0
M  V30 3400 N 289.708 -1.40897 0.706093 0
M  V30 3401 C 291.119 -1.84023 0.315052 0
M  V30 3402 C 291.47 -1.5906 -1.14866 0
M  V30 3403 O 290.595 -1.06651 -1.88293 0
M  V30 3404 C 291.19 -3.34055 0.565038 0
M  V30 3405 C 289.749 -3.7571 0.227806 0
M  V30 3406 C 288.896 -2.64204 0.842122 0
M  V30 3407 H 291.847 -1.303 0.905963 0
M  V30 3408 H 291.868 -3.80107 -0.172843 0
M  V30 3409 H 291.38 -3.52192 1.63042 0
M  V30 3410 H 289.481 -3.63172 -0.832895 0
M  V30 3411 H 289.594 -4.74103 0.690174 0
M  V30 3412 H 287.958 -2.53255 0.270893 0
M  V30 3413 H 288.741 -2.85155 1.91158 0
M  V30 3414 N 291.186 -0.45159 -1.50991 0
M  V30 3415 C 292.597 0.00818571 -1.86698 0
M  V30 3416 C 292.948 1.40661 -1.3678 0
M  V30 3417 O 292.073 2.0391 -0.724546 0
M  V30 3418 C 292.668 0.0216303 -3.38793 0
M  V30 3419 C 291.227 0.425865 -3.73983 0
M  V30 3420 C 290.374 -0.372163 -2.74791 0
M  V30 3421 H 293.325 -0.666785 -1.44013 0
M  V30 3422 H 293.346 0.828078 -3.7138 0
M  V30 3423 H 292.858 -0.996288 -3.75094 0
M  V30 3424 H 290.959 1.44886 -3.43277 0
M  V30 3425 H 291.072 0.140761 -4.78893 0
M  V30 3426 H 289.436 0.171498 -2.54122 0
M  V30 3427 H 290.219 -1.38922 -3.13935 0
M  V30 3428 N 292.664 1.56529 -0.183458 0
M  V30 3429 C 293.913 1.96419 0.458511 0
M  V30 3430 C 294.226 1.0727 1.63562 0
M  V30 3431 O 295.432 1.36893 2.34462 0
M  V30 3432 C 293.888 3.49298 0.867122 0
M  V30 3433 C 293.496 4.47092 -0.285057 0
M  V30 3434 C 295.24 3.97983 1.47683 0
M  V30 3435 C 293.147 5.91225 0.143862 0
M  V30 3436 H 292.077 0.733394 0.175071 0
M  V30 3437 H 294.728 1.81448 -0.273624 0
M  V30 3438 H 293.11 3.59731 1.65559 0
M  V30 3439 H 294.284 4.48383 -1.0625 0
M  V30 3440 H 292.599 4.08535 -0.805503 0
M  V30 3441 H 295.196 5.03134 1.80999 0
M  V30 3442 H 295.539 3.41618 2.37914 0
M  V30 3443 H 296.072 3.90617 0.752562 0
M  V30 3444 H 292.811 6.5149 -0.723974 0
M  V30 3445 H 292.331 5.93214 0.886413 0
M  V30 3446 H 294.01 6.44362 0.583628 0
M  V30 3447 N 294.142 -0.090211 1.57342 0
M  V30 3448 C 295.388 -0.793982 1.86611 0
M  V30 3449 C 295.721 -1.78142 0.773252 0
M  V30 3450 O 294.996 -1.93271 -0.218304 0
M  V30 3451 C 295.279 -1.51839 3.26523 0
M  V30 3452 C 295.132 -0.548609 4.46442 0
M  V30 3453 C 296.451 -2.46779 3.64401 0
M  V30 3454 H 293.57 -0.287186 0.678744 0
M  V30 3455 H 296.212 -0.0575076 1.89913 0
M  V30 3456 H 294.362 -2.14617 3.23839 0
M  V30 3457 H 296.034 0.0725513 4.61243 0
M  V30 3458 H 294.277 0.137614 4.33582 0
M  V30 3459 H 294.948 -1.09271 5.41076 0
M  V30 3460 H 297.424 -1.94089 3.68061 0
M  V30 3461 H 296.3 -2.94479 4.63221 0
M  V30 3462 H 296.561 -3.30758 2.93346 0
M  V30 3463 N 295.62 -1.53406 -0.361157 0
M  V30 3464 C 296.85 -1.73465 -1.1222 0
M  V30 3465 C 297.258 -0.465486 -1.83384 0
M  V30 3466 O 296.601 0.571611 -1.7458 0
M  V30 3467 C 296.663 -2.84834 -2.19339 0
M  V30 3468 C 296.327 -4.25038 -1.67903 0
M  V30 3469 C 297.324 -5.07231 -1.14074 0
M  V30 3470 C 295.009 -4.71464 -1.73282 0
M  V30 3471 C 297.003 -6.33942 -0.663068 0
M  V30 3472 C 294.69 -5.98153 -1.25127 0
M  V30 3473 C 295.688 -6.79223 -0.717296 0
M  V30 3474 O 295.376 -8.03533 -0.242865 0
M  V30 3475 H 295.108 -0.583526 -0.341283 0
M  V30 3476 H 297.662 -2.00964 -0.424591 0
M  V30 3477 H 295.892 -2.5282 -2.92607 0
M  V30 3478 H 297.581 -2.9303 -2.80871 0
M  V30 3479 H 298.347 -4.72534 -1.09254 0
M  V30 3480 H 294.226 -4.08432 -2.13786 0
M  V30 3481 H 297.77 -6.97167 -0.245612 0
M  V30 3482 H 293.667 -6.32347 -1.29642 0
M  V30 3483 H 294.435 -8.177 -0.361786 0
M  V30 3484 N 297.098 0.621204 -1.44841 0
M  V30 3485 C 298.345 1.38055 -1.48145 0
M  V30 3486 C 298.673 1.94143 -0.117867 0
M  V30 3487 O 297.928 1.74713 0.881694 0
M  V30 3488 C 298.227 2.55675 -2.4973 0
M  V30 3489 C 297.893 2.17817 -3.94799 0
M  V30 3490 C 296.555 2.07205 -4.34303 0
M  V30 3491 C 298.907 1.88065 -4.86087 0
M  V30 3492 C 296.235 1.65045 -5.63007 0
M  V30 3493 C 298.587 1.47394 -6.15189 0
M  V30 3494 C 297.251 1.35331 -6.53637 0
M  V30 3495 H 296.521 0.505181 -0.542101 0
M  V30 3496 H 299.168 0.703477 -1.78111 0
M  V30 3497 H 297.473 3.2866 -2.13284 0
M  V30 3498 H 299.17 3.13904 -2.4953 0
M  V30 3499 H 295.76 2.26998 -3.63552 0
M  V30 3500 H 299.944 1.95168 -4.56315 0
M  V30 3501 H 295.2 1.54317 -5.91605 0
M  V30 3502 H 299.374 1.23415 -6.85377 0
M  V30 3503 H 297.001 1.02435 -7.53267 0
M  V30 3504 N 298.576 1.31904 0.862503 0
M  V30 3505 C 299.506 1.22782 1.98612 0
M  V30 3506 C 300.487 0.113362 1.69722 0
M  V30 3507 O 301.672 0.299218 1.91881 0
M  V30 3508 C 298.802 0.942058 3.34279 0
M  V30 3509 C 297.756 2.0169 3.77499 0
M  V30 3510 C 297.082 1.58369 5.10709 0
M  V30 3511 C 298.382 3.43096 3.93805 0
M  V30 3512 H 300.076 2.16788 2.06502 0
M  V30 3513 H 297.622 1.04366 0.992154 0
M  V30 3514 H 299.575 0.864818 4.1243 0
M  V30 3515 H 298.299 -0.0336603 3.26583 0
M  V30 3516 H 296.958 2.08416 3.01593 0
M  V30 3517 H 296.606 0.595628 4.99461 0
M  V30 3518 H 296.306 2.30279 5.40597 0
M  V30 3519 H 297.83 1.52067 5.91361 0
M  V30 3520 H 299.244 3.39003 4.62331 0
M  V30 3521 H 297.641 4.13288 4.35101 0
M  V30 3522 H 298.711 3.83334 2.96957 0
M  V30 3523 N 300.054 -1.07777 1.14986 0
M  V30 3524 C 300.986 -2.14769 0.800436 0
M  V30 3525 C 301.999 -1.61739 -0.185595 0
M  V30 3526 O 303.188 -1.78462 0.0370358 0
M  V30 3527 C 300.288 -3.38481 0.168533 0
M  V30 3528 C 299.461 -4.20876 1.1909 0
M  V30 3529 C 298.52 -5.22976 0.581575 0
M  V30 3530 O 297.546 -5.55388 1.24633 0
M  V30 3531 N 298.748 -5.76976 -0.638706 0
M  V30 3532 H 301.513 -2.45348 1.72118 0
M  V30 3533 H 299.074 -1.23645 1.04515 0
M  V30 3534 H 301.066 -4.03916 -0.251764 0
M  V30 3535 H 299.636 -3.05651 -0.655467 0
M  V30 3536 H 298.856 -3.51322 1.78791 0
M  V30 3537 H 300.144 -4.7274 1.88133 0
M  V30 3538 H 299.542 -5.52886 -1.19723 0
M  V30 3539 H 298.099 -6.44061 -1.00142 0
M  V30 3540 N 301.532 -0.945985 -1.26051 0
M  V30 3541 C 302.479 -0.45809 -2.26208 0
M  V30 3542 C 303.449 0.484816 -1.58867 0
M  V30 3543 O 304.634 0.399969 -1.86561 0
M  V30 3544 C 301.774 0.266131 -3.44072 0
M  V30 3545 C 300.887 -0.713005 -4.26075 0
M  V30 3546 C 300.022 0.0329013 -5.3119 0
M  V30 3547 C 299.061 -0.93774 -6.04874 0
M  V30 3548 N 298.198 -0.223274 -7.01745 0
M  V30 3549 H 303.038 -1.3171 -2.67313 0
M  V30 3550 H 300.575 -0.66069 -1.31428 0
M  V30 3551 H 302.533 0.702514 -4.11243 0
M  V30 3552 H 301.163 1.08925 -3.03867 0
M  V30 3553 H 300.215 -1.26789 -3.58648 0
M  V30 3554 H 301.527 -1.45406 -4.77136 0
M  V30 3555 H 300.681 0.528335 -6.04395 0
M  V30 3556 H 299.42 0.806801 -4.8098 0
M  V30 3557 H 298.425 -1.44425 -5.30492 0
M  V30 3558 H 299.65 -1.71172 -6.57173 0
M  V30 3559 H 297.596 0.532046 -6.53839 0
M  V30 3560 H 297.513 -0.90357 -7.50581 0
M  V30 3561 H 298.781 0.250907 -7.79096 0
M  V30 3562 N 303.011 1.40521 -0.713556 0
M  V30 3563 C 304.422 1.83853 -0.324807 0
M  V30 3564 C 304.773 1.59667 1.14021 0
M  V30 3565 O 303.898 1.07649 1.87725 0
M  V30 3566 C 304.493 3.33751 -0.582746 0
M  V30 3567 C 303.052 3.75584 -0.247727 0
M  V30 3568 C 302.199 2.63753 -0.856121 0
M  V30 3569 H 305.15 1.29817 -0.91286 0
M  V30 3570 H 305.171 3.80194 0.152682 0
M  V30 3571 H 304.683 3.51322 -1.64908 0
M  V30 3572 H 302.784 3.63608 0.813624 0
M  V30 3573 H 302.897 4.7373 -0.715307 0
M  V30 3574 H 301.261 2.53108 -0.28432 0
M  V30 3575 H 302.044 2.84137 -1.92668 0
M  V30 3576 N 304.489 0.459591 1.5075 0
M  V30 3577 C 305.9 0.00171547 1.867 0
M  V30 3578 C 306.251 -1.39934 1.37525 0
M  V30 3579 O 305.376 -2.03523 0.735349 0
M  V30 3580 C 305.971 -0.00366298 3.388 0
M  V30 3581 C 304.53 -0.406026 3.74204 0
M  V30 3582 C 303.677 0.38673 2.7459 0
M  V30 3583 H 306.628 0.674413 1.43657 0
M  V30 3584 H 306.649 -0.808371 3.71814 0
M  V30 3585 H 306.161 1.01617 3.74561 0
M  V30 3586 H 304.262 -1.43063 3.4404 0
M  V30 3587 H 304.375 -0.115362 4.78961 0
M  V30 3588 H 302.739 -0.158019 2.54209 0
M  V30 3589 H 303.522 1.40585 3.13194 0
M  V30 3590 N 305.967 -1.56429 0.191757 0
M  V30 3591 C 306.914 -2.18936 -0.730454 0
M  V30 3592 C 307.884 -1.13557 -1.21219 0
M  V30 3593 O 309.069 -1.41794 -1.27668 0
M  V30 3594 C 306.209 -2.85013 -1.9458 0
M  V30 3595 C 305.322 -4.04909 -1.50574 0
M  V30 3596 C 304.457 -4.58853 -2.67634 0
M  V30 3597 C 303.496 -5.71114 -2.20217 0
M  V30 3598 N 302.633 -6.19478 -3.30442 0
M  V30 3599 H 307.473 -2.97389 -0.190664 0
M  V30 3600 H 305.01 -1.46869 -0.0823694 0
M  V30 3601 H 306.968 -3.21492 -2.65893 0
M  V30 3602 H 305.598 -2.09129 -2.45896 0
M  V30 3603 H 304.65 -3.74115 -0.688605 0
M  V30 3604 H 305.962 -4.86113 -1.11784 0
M  V30 3605 H 305.116 -4.97619 -3.47074 0
M  V30 3606 H 303.855 -3.76749 -3.09696 0
M  V30 3607 H 302.86 -5.31879 -1.3923 0
M  V30 3608 H 304.085 -6.55033 -1.79189 0
M  V30 3609 H 302.031 -5.40297 -3.72041 0
M  V30 3610 H 301.948 -6.95725 -2.9581 0
M  V30 3611 H 303.216 -6.62898 -4.10106 0
M  V30 3612 N 307.445 0.0818655 -1.57387 0
M  V30 3613 C 308.395 1.10501 -1.99433 0
M  V30 3614 C 309.379 1.35041 -0.874798 0
M  V30 3615 O 310.571 1.35511 -1.13868 0
M  V30 3616 C 307.7 2.42159 -2.43339 0
M  V30 3617 C 306.786 2.20937 -3.62005 0
M  V30 3618 N 307.177 1.69616 -4.76512 0
M  V30 3619 C 305.475 2.51451 -3.68359 0
M  V30 3620 C 306.176 1.62973 -5.58404 0
M  V30 3621 N 305.152 2.08664 -5.01956 0
M  V30 3622 H 308.954 0.701373 -2.85408 0
M  V30 3623 H 306.468 0.289096 -1.59806 0
M  V30 3624 H 308.465 3.16208 -2.71695 0
M  V30 3625 H 307.125 2.83249 -1.58746 0
M  V30 3626 H 308.136 1.38624 -4.99003 0
M  V30 3627 H 304.813 2.95975 -2.94457 0
M  V30 3628 H 306.203 1.24233 -6.60315 0
M  V30 3629 N 308.923 1.53595 0.353017 0
M  V30 3630 C 310.151 1.74311 1.1146 0
M  V30 3631 C 310.566 0.477854 1.82653 0
M  V30 3632 O 309.923 -0.549977 1.74016 0
M  V30 3633 C 309.974 2.91694 2.13534 0
M  V30 3634 O 309.695 4.13325 1.45238 0
M  V30 3635 C 311.196 3.24384 3.02142 0
M  V30 3636 H 308.416 0.582669 0.332773 0
M  V30 3637 H 310.96 2.00386 0.408107 0
M  V30 3638 H 309.115 2.67977 2.79763 0
M  V30 3639 H 309.529 4.79148 2.13349 0
M  V30 3640 H 311.003 4.09893 3.69718 0
M  V30 3641 H 311.48 2.40282 3.67643 0
M  V30 3642 H 312.086 3.50073 2.41514 0
M  V30 3643 N 310.401 -0.613514 1.45168 0
M  V30 3644 C 311.351 -1.71871 1.49815 0
M  V30 3645 C 312.335 -1.56774 0.362021 0
M  V30 3646 O 313.527 -1.66212 0.608493 0
M  V30 3647 C 310.656 -3.1061 1.46207 0
M  V30 3648 C 309.742 -3.31114 2.64999 0
M  V30 3649 N 310.133 -3.21904 3.90143 0
M  V30 3650 C 308.431 -3.61966 2.6057 0
M  V30 3651 C 309.132 -3.43577 4.69393 0
M  V30 3652 N 308.108 -3.67287 4.00751 0
M  V30 3653 H 311.91 -1.63235 2.444 0
M  V30 3654 H 309.424 -0.816577 1.40377 0
M  V30 3655 H 311.421 -3.8989 1.4762 0
M  V30 3656 H 310.081 -3.20399 0.52673 0
M  V30 3657 H 311.092 -3.00436 4.21852 0
M  V30 3658 H 307.769 -3.78629 1.75916 0
M  V30 3659 H 309.159 -3.41901 5.78406 0
M  V30 3660 N 311.879 -1.3236 -0.855495 0
M  V30 3661 C 313.125 -1.23054 -1.612 0
M  V30 3662 C 313.458 0.207404 -1.93089 0
M  V30 3663 O 312.733 1.14432 -1.57275 0
M  V30 3664 C 313.016 -2.08937 -2.93287 0
M  V30 3665 C 312.869 -3.61105 -2.68185 0
M  V30 3666 C 314.188 -1.94986 -3.94549 0
M  V30 3667 H 311.307 -0.448364 -0.584926 0
M  V30 3668 H 313.949 -1.62297 -0.987917 0
M  V30 3669 H 312.099 -1.75599 -3.46551 0
M  V30 3670 H 313.771 -4.04652 -2.21483 0
M  V30 3671 H 312.014 -3.83813 -2.02164 0
M  V30 3672 H 312.685 -4.16522 -3.62234 0
M  V30 3673 H 315.161 -2.24189 -3.5054 0
M  V30 3674 H 314.037 -2.57356 -4.84829 0
M  V30 3675 H 314.298 -0.917263 -4.3248 0
M  V30 3676 N 313.357 1.07166 -1.15556 0
M  V30 3677 C 314.587 1.83248 -0.954133 0
M  V30 3678 C 314.995 1.82449 0.500911 0
M  V30 3679 O 314.338 1.23575 1.35923 0
M  V30 3680 C 314.4 3.31393 -1.39351 0
M  V30 3681 C 314.064 3.5591 -2.86666 0
M  V30 3682 C 315.061 3.49695 -3.8472 0
M  V30 3683 C 312.746 3.83515 -3.24379 0
M  V30 3684 C 314.74 3.70737 -5.18491 0
M  V30 3685 C 312.427 4.04209 -4.58321 0
M  V30 3686 C 313.425 3.97815 -5.55186 0
M  V30 3687 O 313.113 4.17954 -6.86709 0
M  V30 3688 H 312.845 0.584941 -0.338851 0
M  V30 3689 H 315.399 1.36169 -1.53777 0
M  V30 3690 H 313.629 3.79292 -0.75329 0
M  V30 3691 H 315.318 3.88945 -1.16089 0
M  V30 3692 H 316.084 3.28368 -3.56931 0
M  V30 3693 H 311.963 3.87605 -2.49567 0
M  V30 3694 H 315.507 3.65663 -5.94085 0
M  V30 3695 H 311.404 4.25023 -4.85825 0
M  V30 3696 H 312.172 4.35291 -6.93155 0
M  V30 3697 N 314.835 0.952656 1.25548 0
M  V30 3698 C 316.06 0.623025 1.97821 0
M  V30 3699 C 316.485 -0.7976 1.70352 0
M  V30 3700 O 315.843 -1.53905 0.958283 0
M  V30 3701 C 315.891 0.885532 3.49558 0
M  V30 3702 O 314.995 -0.0366641 4.12384 0
M  V30 3703 H 314.336 0.237082 0.620232 0
M  V30 3704 H 316.866 1.27871 1.59719 0
M  V30 3705 H 316.876 0.811009 3.99858 0
M  V30 3706 H 315.551 1.92094 3.6888 0
M  V30 3707 H 314.128 0.0898954 3.72792 0
M  V30 3708 N 316.313 -1.40141 0.720998 0
M  V30 3709 C 317.261 -2.3252 0.0608547 0
M  V30 3710 C 318.255 -1.52326 -0.741152 0
M  V30 3711 O 319.461 -1.68089 -0.643911 0
M  V30 3712 H 315.836 -0.751999 0.000876664 0
M  V30 3713 H 317.807 -2.8584 0.856614 0
M  V30 3714 C 316.556 -3.37331 -0.842809 0
M  V30 3715 H 315.879 -3.99108 -0.235084 0
M  V30 3716 H 317.319 -4.04452 -1.27257 0
M  V30 3717 C 315.778 -2.73246 -1.97074 0
M  V30 3718 O 316.308 -2.59998 -3.06209 0
M  V30 3719 N 314.514 -2.31547 -1.75597 0
M  V30 3720 H 314.061 -2.42522 -0.868368 0
M  V30 3721 H 314.019 -1.89007 -2.51244 0
M  V30 3722 N 317.792 -0.46758 -1.50504 0
M  V30 3723 C 319.04 0.0884469 -2.01906 0
M  V30 3724 C 319.361 1.40532 -1.35188 0
M  V30 3725 O 318.631 1.89515 -0.496079 0
M  V30 3726 H 317.211 0.0356765 -0.746148 0
M  V30 3727 H 319.873 -0.6172 -1.84869 0
M  V30 3728 H 318.969 0.2425 -3.11156 0
M  V30 3729 N 319.27 1.56325 -0.20005 0
M  V30 3730 C 320.547 1.89484 0.48529 0
M  V30 3731 C 320.927 1.1143 1.79294 0
M  V30 3732 O 320.275 0.216919 2.27468 0
M  V30 3733 C 320.485 3.41923 0.699243 0
M  V30 3734 C 321.833 4.12256 1.01638 0
M  V30 3735 O 322.857 3.47402 0.786792 0
M  V30 3736 O 321.716 5.26887 1.45095 0
M  V30 3737 H 318.81 0.787144 0.253639 0
M  V30 3738 H 321.356 1.67985 -0.240633 0
M  V30 3739 H 320.128 3.90658 -0.224008 0
M  V30 3740 H 319.751 3.69131 1.47744 0
M  V30 3741 N 320.748 -0.0735177 1.57428 0
M  V30 3742 C 321.997 -0.771809 1.86349 0
M  V30 3743 C 322.31 -1.78828 0.792452 0
M  V30 3744 O 323.516 -2.53602 0.96945 0
M  V30 3745 C 321.972 -1.42358 3.30548 0
M  V30 3746 C 321.58 -0.445761 4.45777 0
M  V30 3747 C 323.324 -2.10434 3.6867 0
M  V30 3748 C 321.231 -1.10335 5.81016 0
M  V30 3749 H 320.161 -0.291999 0.695164 0
M  V30 3750 H 322.812 -0.0250749 1.83483 0
M  V30 3751 H 321.194 -2.21852 3.28021 0
M  V30 3752 H 322.368 0.319239 4.59693 0
M  V30 3753 H 320.683 0.130457 4.16196 0
M  V30 3754 H 323.28 -2.60405 4.67004 0
M  V30 3755 H 323.623 -2.90298 2.98383 0
M  V30 3756 H 324.156 -1.37773 3.7318 0
M  V30 3757 H 320.895 -0.345061 6.54591 0
M  V30 3758 H 320.415 -1.83925 5.70904 0
M  V30 3759 H 322.094 -1.62367 6.26295 0
M  V30 3760 N 322.226 -1.5378 -0.344866 0
M  V30 3761 C 323.466 -1.72677 -1.09371 0
M  V30 3762 C 323.83 -0.479084 -1.85927 0
M  V30 3763 O 325.031 -0.54505 -2.63216 0
M  V30 3764 C 323.302 -2.95457 -2.01097 0
M  V30 3765 S 324.861 -3.35158 -2.83222 0
M  V30 3766 H 321.679 -0.607402 -0.369573 0
M  V30 3767 H 324.281 -1.91922 -0.372307 0
M  V30 3768 H 322.985 -3.84437 -1.43655 0
M  V30 3769 H 322.516 -2.78673 -2.77678 0
M  V30 3770 H 324.531 -2.88789 -4.03504 0
M  V30 3771 N 323.704 0.605807 -1.45491 0
M  V30 3772 C 324.634 1.72709 -1.57143 0
M  V30 3773 C 325.615 1.6476 -0.422884 0
M  V30 3774 O 326.8 1.83132 -0.646247 0
M  V30 3775 C 323.93 3.11316 -1.53948 0
M  V30 3776 C 322.884 3.34077 -2.67537 0
M  V30 3777 C 322.21 4.72975 -2.49397 0
M  V30 3778 C 323.51 3.24158 -4.09535 0
M  V30 3779 H 325.204 1.63214 -2.51001 0
M  V30 3780 H 322.75 0.78379 -1.208 0
M  V30 3781 H 324.703 3.89557 -1.60696 0
M  V30 3782 H 323.427 3.21655 -0.566205 0
M  V30 3783 H 322.086 2.58227 -2.6022 0
M  V30 3784 H 321.734 4.8005 -1.50205 0
M  V30 3785 H 321.434 4.8916 -3.25571 0
M  V30 3786 H 322.958 5.53414 -2.58002 0
M  V30 3787 H 324.372 3.92271 -4.18086 0
M  V30 3788 H 322.769 3.51872 -4.86113 0
M  V30 3789 H 323.839 2.2157 -4.31317 0
M  V30 3790 N 325.182 1.32811 0.848464 0
M  V30 3791 C 326.407 1.26882 1.6406 0
M  V30 3792 C 326.832 -0.15913 1.87426 0
M  V30 3793 O 326.19 -1.11258 1.43148 0
M  V30 3794 C 326.238 2.03997 2.97351 0
M  V30 3795 O 325.342 1.39201 3.88197 0
M  V30 3796 H 324.683 0.436982 0.499943 0
M  V30 3797 H 327.213 1.75224 1.0563 0
M  V30 3798 H 327.223 2.14403 3.47124 0
M  V30 3799 H 325.898 3.0783 2.79666 0
M  V30 3800 H 324.475 1.37381 3.46671 0
M  V30 3801 N 326.66 -1.06551 1.16123 0
M  V30 3802 C 327.906 -1.79567 0.94252 0
M  V30 3803 C 328.239 -1.86869 -0.528547 0
M  V30 3804 O 327.514 -1.35838 -1.39206 0
M  V30 3805 C 327.797 -3.24195 1.56747 0
M  V30 3806 C 327.65 -3.24989 3.10969 0
M  V30 3807 C 328.969 -4.21678 1.25998 0
M  V30 3808 H 326.088 -0.651883 0.343828 0
M  V30 3809 H 328.73 -1.2463 1.43413 0
M  V30 3810 H 326.88 -3.71107 1.14942 0
M  V30 3811 H 328.552 -2.86258 3.61737 0
M  V30 3812 H 326.795 -2.63716 3.44436 0
M  V30 3813 H 327.466 -4.27005 3.49815 0
M  V30 3814 H 329.942 -3.83196 1.62174 0
M  V30 3815 H 328.818 -5.21146 1.7233 0
M  V30 3816 H 329.079 -4.4174 0.178367 0
M  V30 3817 N 328.138 -0.959301 -1.25041 0
M  V30 3818 C 329.068 -0.501388 -2.28053 0
M  V30 3819 C 330.049 0.454673 -1.63911 0
M  V30 3820 O 331.234 0.352618 -1.90972 0
M  V30 3821 C 328.364 0.217224 -3.4662 0
M  V30 3822 C 327.318 -0.654034 -4.22973 0
M  V30 3823 C 326.644 0.195589 -5.34342 0
M  V30 3824 C 327.944 -1.93447 -4.85155 0
M  V30 3825 H 329.638 -1.36238 -2.66608 0
M  V30 3826 H 327.184 -0.656534 -1.28163 0
M  V30 3827 H 329.137 0.548732 -4.17812 0
M  V30 3828 H 327.861 1.1125 -3.07068 0
M  V30 3829 H 326.52 -0.968693 -3.5357 0
M  V30 3830 H 326.168 1.09076 -4.91031 0
M  V30 3831 H 325.868 -0.384091 -5.86343 0
M  V30 3832 H 327.392 0.521958 -6.08365 0
M  V30 3833 H 328.806 -1.66908 -5.48466 0
M  V30 3834 H 327.203 -2.46018 -5.47353 0
M  V30 3835 H 328.273 -2.63466 -4.07079 0
M  V30 3836 N 329.616 1.39756 -0.72842 0
M  V30 3837 C 330.864 2.00248 -0.272946 0
M  V30 3838 C 331.185 1.58077 1.14178 0
M  V30 3839 O 330.455 0.826014 1.77634 0
M  V30 3840 H 329.035 0.740554 -0.0979247 0
M  V30 3841 H 331.697 1.70903 -0.936912 0
M  V30 3842 H 330.793 3.10495 -0.316142 0
M  V30 3843 N 331.094 0.475555 1.50254 0
M  V30 3844 C 332.371 -0.139685 1.95101 0
M  V30 3845 C 332.751 -1.56555 1.41611 0
M  V30 3846 O 332.099 -2.19956 0.618993 0
M  V30 3847 C 332.309 -0.0784298 3.48912 0
M  V30 3848 C 333.657 -0.265095 4.23772 0
M  V30 3849 O 334.681 -0.154808 3.55863 0
M  V30 3850 O 333.54 -0.488327 5.44314 0
M  V30 3851 H 330.634 -0.109236 0.819754 0
M  V30 3852 H 333.18 0.536276 1.61004 0
M  V30 3853 H 331.952 0.916918 3.80405 0
M  V30 3854 H 331.575 -0.795655 3.89558 0
M  V30 3855 N 332.573 -1.56217 0.208337 0
M  V30 3856 C 333.85 -1.89739 -0.475234 0
M  V30 3857 C 334.23 -1.1238 -1.78701 0
M  V30 3858 O 333.578 -0.228979 -2.2735 0
M  V30 3859 C 333.788 -3.42289 -0.681101 0
M  V30 3860 C 335.136 -4.12789 -0.994507 0
M  V30 3861 O 336.16 -3.47814 -0.768357 0
M  V30 3862 O 335.019 -5.27649 -1.42299 0
M  V30 3863 H 332.113 -0.788478 -0.249461 0
M  V30 3864 H 334.659 -1.67855 0.249538 0
M  V30 3865 H 333.431 -3.90534 0.244722 0
M  V30 3866 H 333.054 -3.69909 -1.45785 0
M  V30 3867 N 334.051 0.0651679 -1.57465 0
M  V30 3868 C 335.281 0.774683 -1.91526 0
M  V30 3869 C 335.689 1.71305 -0.803196 0
M  V30 3870 O 335.032 1.82231 0.231881 0
M  V30 3871 C 335.094 1.61645 -3.21109 0
M  V30 3872 C 334.758 0.846753 -4.49087 0
M  V30 3873 C 335.755 0.163024 -5.19644 0
M  V30 3874 C 333.44 0.811966 -4.95694 0
M  V30 3875 C 335.434 -0.54519 -6.35064 0
M  V30 3876 C 333.121 0.0999836 -6.11018 0
M  V30 3877 C 334.119 -0.577388 -6.80555 0
M  V30 3878 O 333.807 -1.27789 -7.93678 0
M  V30 3879 H 333.539 0.225031 -0.637446 0
M  V30 3880 H 336.093 0.0377134 -2.05365 0
M  V30 3881 H 334.323 2.39638 -3.03497 0
M  V30 3882 H 336.012 2.20525 -3.40769 0
M  V30 3883 H 336.778 0.181163 -4.84662 0
M  V30 3884 H 332.657 1.32867 -4.41438 0
M  V30 3885 H 336.201 -1.07446 -6.89276 0
M  V30 3886 H 332.098 0.0797945 -6.45451 0
M  V30 3887 H 332.866 -1.18784 -8.09835 0
M  V30 3888 N 335.529 1.53961 0.336706 0
M  V30 3889 C 336.477 1.83136 1.43401 0
M  V30 3890 C 337.471 0.702313 1.54156 0
M  V30 3891 O 338.677 0.885765 1.56698 0
M  V30 3892 H 335.052 0.580309 0.478273 0
M  V30 3893 H 337.023 2.74925 1.16012 0
M  V30 3894 C 335.772 2.06385 2.79822 0
M  V30 3895 H 335.095 2.92718 2.72316 0
M  V30 3896 H 336.535 2.30761 3.55704 0
M  V30 3897 C 334.994 0.851414 3.25964 0
M  V30 3898 O 335.524 0.0541904 4.01663 0
M  V30 3899 N 333.73 0.66672 2.82848 0
M  V30 3900 H 333.277 1.31665 2.21409 0
M  V30 3901 H 333.235 -0.143032 3.14074 0
M  V30 3902 N 337.007 -0.598083 1.45811 0
M  V30 3903 C 338.418 -1.18011 1.44673 0
M  V30 3904 C 338.769 -1.95378 0.179364 0
M  V30 3905 O 337.894 -2.04124 -0.718509 0
M  V30 3906 C 338.489 -2.14677 2.62105 0
M  V30 3907 C 337.048 -2.68236 2.64057 0
M  V30 3908 C 336.195 -1.43816 2.37091 0
M  V30 3909 H 339.146 -0.38686 1.53913 0
M  V30 3910 H 339.167 -2.97878 2.36746 0
M  V30 3911 H 338.679 -1.5834 3.5433 0
M  V30 3912 H 336.78 -3.28486 1.75864 0
M  V30 3913 H 336.893 -3.12021 3.63566 0
M  V30 3914 H 335.257 -1.731 1.86838 0
M  V30 3915 H 336.04 -0.893333 3.31473 0
M  V30 3916 N 338.485 -1.33259 -0.841409 0
M  V30 3917 C 339.71 -1.2775 -1.63385 0
M  V30 3918 C 340.135 0.149188 -1.87507 0
M  V30 3919 O 339.493 1.10498 -1.43736 0
M  V30 3920 C 339.541 -2.05571 -2.96265 0
M  V30 3921 O 338.645 -1.41257 -3.87453 0
M  V30 3922 H 337.986 -0.439627 -0.497618 0
M  V30 3923 H 340.516 -1.75782 -1.04699 0
M  V30 3924 H 340.526 -2.16241 -3.45982 0
M  V30 3925 H 339.201 -3.09309 -2.7803 0
M  V30 3926 H 337.778 -1.39217 -3.45938 0
M  V30 3927 N 339.963 1.05934 -1.16686 0
M  V30 3928 C 340.893 2.1546 -0.899949 0
M  V30 3929 C 341.874 1.69391 0.155154 0
M  V30 3930 O 343.059 1.94199 0.00648693 0
M  V30 3931 C 340.189 3.44939 -0.404241 0
M  V30 3932 C 339.143 4.04536 -1.39767 0
M  V30 3933 C 338.469 5.29268 -0.760216 0
M  V30 3934 C 339.769 4.42893 -2.76845 0
M  V30 3935 H 341.463 2.38046 -1.81588 0
M  V30 3936 H 339.009 1.14404 -0.874514 0
M  V30 3937 H 340.962 4.20901 -0.204971 0
M  V30 3938 H 339.686 3.21983 0.547206 0
M  V30 3939 H 338.345 3.30635 -1.58355 0
M  V30 3940 H 337.993 5.02611 0.197831 0
M  V30 3941 H 337.693 5.70101 -1.42332 0
M  V30 3942 H 339.217 6.07924 -0.57105 0
M  V30 3943 H 340.631 5.09921 -2.62019 0
M  V30 3944 H 339.028 4.94721 -3.39663 0
M  V30 3945 H 340.098 3.53584 -3.31823 0
M  V30 3946 N 341.441 0.965919 1.2453 0
M  V30 3947 C 342.666 0.643971 1.97149 0
M  V30 3948 C 343.091 -0.779487 1.71189 0
M  V30 3949 O 342.449 -1.5288 0.974553 0
M  V30 3950 C 342.497 0.922557 3.48599 0
M  V30 3951 O 341.601 0.00707672 4.12399 0
M  V30 3952 H 340.942 0.243647 0.617683 0
M  V30 3953 H 343.472 1.29558 1.58353 0
M  V30 3954 H 343.482 0.853373 3.98976 0
M  V30 3955 H 342.157 1.95996 3.66822 0
M  V30 3956 H 340.734 0.12943 3.72675 0
M  V30 3957 N 342.919 -1.39368 0.735821 0
M  V30 3958 C 344.168 -1.99733 0.281004 0
M  V30 3959 C 344.481 -1.59055 -1.13846 0
M  V30 3960 O 345.687 -2.12262 -1.69284 0
M  V30 3961 C 344.143 -3.57057 0.451462 0
M  V30 3962 C 343.751 -4.06697 1.87886 0
M  V30 3963 C 345.495 -4.2446 0.0584616 0
M  V30 3964 C 343.402 -5.56598 1.99883 0
M  V30 3965 H 342.332 -0.747163 0.101311 0
M  V30 3966 H 344.983 -1.59357 0.909819 0
M  V30 3967 H 343.365 -3.95234 -0.246263 0
M  V30 3968 H 344.539 -3.79853 2.60861 0
M  V30 3969 H 342.854 -3.5196 2.22515 0
M  V30 3970 H 345.451 -5.34549 0.127099 0
M  V30 3971 H 345.794 -4.04444 -0.986433 0
M  V30 3972 H 346.327 -3.9146 0.707374 0
M  V30 3973 H 343.066 -5.81494 3.02564 0
M  V30 3974 H 342.586 -5.85242 1.31346 0
M  V30 3975 H 344.265 -6.22022 1.78039 0
M  V30 3976 N 344.397 -0.483516 -1.5 0
M  V30 3977 C 345.622 0.0667119 -2.07293 0
M  V30 3978 C 346.047 1.3164 -1.3436 0
M  V30 3979 O 345.405 1.76945 -0.394987 0
M  V30 3980 C 345.453 0.321126 -3.59167 0
M  V30 3981 O 344.557 1.39927 -3.87936 0
M  V30 3982 H 343.898 -0.0184758 -0.663743 0
M  V30 3983 H 346.428 -0.678125 -1.93035 0
M  V30 3984 H 346.438 0.557906 -4.04168 0
M  V30 3985 H 345.113 -0.592007 -4.11665 0
M  V30 3986 H 343.69 1.14882 -3.54763 0
M  V30 3987 N 345.875 1.56104 -0.216619 0
M  V30 3988 C 347.123 1.97781 0.415593 0
M  V30 3989 C 347.444 1.10536 1.60645 0
M  V30 3990 O 346.714 0.181303 1.95059 0
M  V30 3991 H 345.294 0.730415 0.156534 0
M  V30 3992 H 347.956 1.92445 -0.308366 0
M  V30 3993 H 347.052 3.03072 0.74525 0
M  V30 3994 N 347.353 -0.0568162 1.57498 0
M  V30 3995 C 348.283 -1.06593 2.0775 0
M  V30 3996 C 349.264 -1.39448 0.974082 0
M  V30 3997 O 350.449 -1.48815 1.24771 0
M  V30 3998 C 347.579 -2.37509 2.5339 0
M  V30 3999 C 346.533 -2.1897 3.67745 0
M  V30 4000 C 345.859 -3.55402 3.99492 0
M  V30 4001 C 347.159 -1.59859 4.97235 0
M  V30 4002 H 348.853 -0.647706 2.9231 0
M  V30 4003 H 346.399 -0.310116 1.40621 0
M  V30 4004 H 348.352 -3.08409 2.87162 0
M  V30 4005 H 347.076 -2.8134 1.65878 0
M  V30 4006 H 345.735 -1.50508 3.3428 0
M  V30 4007 H 345.383 -3.9683 3.09088 0
M  V30 4008 H 345.083 -3.43831 4.76502 0
M  V30 4009 H 346.607 -4.27708 4.35773 0
M  V30 4010 H 348.021 -2.20642 5.29141 0
M  V30 4011 H 346.418 -1.58942 5.78669 0
M  V30 4012 H 347.488 -0.561506 4.81638 0
M  V30 4013 N 348.832 -1.54138 -0.328536 0
M  V30 4014 C 350.081 -1.71318 -1.06456 0
M  V30 4015 C 350.394 -0.491109 -1.89334 0
M  V30 4016 O 351.6 -0.54416 -2.65991 0
M  V30 4017 C 350.056 -3.03 -1.94214 0
M  V30 4018 C 349.664 -4.32595 -1.16471 0
M  V30 4019 C 351.408 -3.29544 -2.67583 0
M  V30 4020 C 349.315 -5.55341 -2.03347 0
M  V30 4021 H 348.245 -0.638429 -0.401155 0
M  V30 4022 H 350.896 -1.80633 -0.323106 0
M  V30 4023 H 349.278 -2.87579 -2.72239 0
M  V30 4024 H 350.452 -4.58766 -0.432525 0
M  V30 4025 H 348.767 -4.12777 -0.548063 0
M  V30 4026 H 351.364 -4.18444 -3.3288 0
M  V30 4027 H 351.707 -2.47206 -3.34955 0
M  V30 4028 H 352.24 -3.45809 -1.96623 0
M  V30 4029 H 348.979 -6.40268 -1.40491 0
M  V30 4030 H 348.499 -5.33397 -2.74313 0
M  V30 4031 H 350.178 -5.91557 -2.62049 0
M  V30 4032 N 350.31 0.590341 -1.46126 0
M  V30 4033 C 351.24 1.71032 -1.58966 0
M  V30 4034 C 352.221 1.64302 -0.440335 0
M  V30 4035 O 353.406 1.82436 -0.665634 0
M  V30 4036 C 350.536 3.09665 -1.57241 0
M  V30 4037 C 349.49 3.31221 -2.71066 0
M  V30 4038 C 348.816 4.70303 -2.54399 0
M  V30 4039 C 350.116 3.19796 -4.1295 0
M  V30 4040 H 351.81 1.60543 -2.52718 0
M  V30 4041 H 349.356 0.770933 -1.21625 0
M  V30 4042 H 351.309 3.87831 -1.64819 0
M  V30 4043 H 350.033 3.21036 -0.600289 0
M  V30 4044 H 348.692 2.55452 -2.62944 0
M  V30 4045 H 348.34 4.78429 -1.55288 0
M  V30 4046 H 348.04 4.85679 -3.30741 0
M  V30 4047 H 349.564 5.50647 -2.63857 0
M  V30 4048 H 350.978 3.87815 -4.22223 0
M  V30 4049 H 349.375 3.46696 -4.89818 0
M  V30 4050 H 350.445 2.16983 -4.33643 0
M  V30 4051 N 351.788 1.33704 0.83433 0
M  V30 4052 C 353.013 1.28615 1.62705 0
M  V30 4053 C 353.438 -0.139242 1.87584 0
M  V30 4054 O 352.796 -1.09734 1.4432 0
M  V30 4055 C 352.844 2.07139 2.95171 0
M  V30 4056 O 351.948 1.4331 3.86699 0
M  V30 4057 H 351.289 0.44226 0.49528 0
M  V30 4058 H 353.819 1.76335 1.03766 0
M  V30 4059 H 353.829 2.18073 3.44831 0
M  V30 4060 H 352.504 3.10779 2.76386 0
M  V30 4061 H 351.081 1.4105 3.45195 0
M  V30 4062 N 353.266 -1.05314 1.17247 0
M  V30 4063 C 354.515 -1.77685 0.954521 0
M  V30 4064 C 354.828 -1.88616 -0.518025 0
M  V30 4065 O 356.034 -2.57714 -0.854144 0
M  V30 4066 C 354.49 -3.19402 1.65863 0
M  V30 4067 C 354.098 -3.16605 3.16963 0
M  V30 4068 C 355.842 -3.96237 1.52303 0
M  V30 4069 C 353.749 -4.53103 3.80068 0
M  V30 4070 H 352.679 -0.666 0.353496 0
M  V30 4071 H 355.33 -1.1805 1.40486 0
M  V30 4072 H 353.712 -3.79355 1.13602 0
M  V30 4073 H 354.886 -2.66176 3.76148 0
M  V30 4074 H 353.201 -2.53268 3.30521 0
M  V30 4075 H 355.798 -4.97157 1.96822 0
M  V30 4076 H 356.141 -4.136 0.473401 0
M  V30 4077 H 356.674 -3.42829 2.01775 0
M  V30 4078 H 353.413 -4.40946 4.85023 0
M  V30 4079 H 352.933 -5.03686 3.2567 0
M  V30 4080 H 354.612 -5.22045 3.82202 0
M  V30 4081 N 354.744 -0.972509 -1.24016 0
M  V30 4082 C 355.993 -0.632603 -1.91523 0
M  V30 4083 C 356.306 0.836641 -1.76804 0
M  V30 4084 O 357.512 1.28728 -2.39043 0
M  V30 4085 C 355.968 -1.08082 -3.43287 0
M  V30 4086 C 355.576 -2.57386 -3.66683 0
M  V30 4087 C 357.32 -0.814288 -4.16617 0
M  V30 4088 C 355.227 -2.95915 -5.12043 0
M  V30 4089 H 354.157 -0.232898 -0.717129 0
M  V30 4090 H 356.808 -1.17936 -1.40582 0
M  V30 4091 H 355.19 -0.462339 -3.93292 0
M  V30 4092 H 356.364 -3.24405 -3.27258 0
M  V30 4093 H 354.679 -2.81701 -3.06649 0
M  V30 4094 H 357.276 -1.0781 -5.23718 0
M  V30 4095 H 357.619 0.24955 -4.15551 0
M  V30 4096 H 358.152 -1.39397 -3.72577 0
M  V30 4097 H 354.891 -4.0139 -5.18234 0
M  V30 4098 H 354.411 -2.33584 -5.52448 0
M  V30 4099 H 356.09 -2.86086 -5.80314 0
M  V30 4100 N 356.222 1.38976 -0.743202 0
M  V30 4101 C 357.447 2.05161 -0.303936 0
M  V30 4102 C 357.872 1.55677 1.05576 0
M  V30 4103 O 357.23 0.704131 1.67068 0
M  V30 4104 C 357.278 3.59138 -0.324373 0
M  V30 4105 O 356.382 4.06668 0.685204 0
M  V30 4106 H 355.723 0.649815 -0.136518 0
M  V30 4107 H 358.253 1.77852 -1.01142 0
M  V30 4108 H 358.263 4.07639 -0.171618 0
M  V30 4109 H 356.938 3.94515 -1.31647 0
M  V30 4110 H 355.515 3.69561 0.497913 0
M  V30 4111 N 357.7 0.491464 1.49741 0
M  V30 4112 C 358.633 -0.338464 2.25676 0
M  V30 4113 C 359.611 -0.978676 1.29849 0
M  V30 4114 O 360.795 -1.01064 1.59117 0
M  V30 4115 C 357.922 -1.47588 3.04853 0
M  V30 4116 C 356.968 -0.951 4.15762 0
M  V30 4117 S 357.801 0.150626 5.35288 0
M  V30 4118 C 358.957 -0.990178 6.18018 0
M  V30 4119 H 359.19 0.306068 2.9572 0
M  V30 4120 H 356.723 0.276622 1.51902 0
M  V30 4121 H 358.681 -2.12764 3.51058 0
M  V30 4122 H 357.342 -2.09199 2.34296 0
M  V30 4123 H 356.535 -1.80311 4.70642 0
M  V30 4124 H 356.137 -0.376607 3.72099 0
M  V30 4125 H 358.429 -1.89748 6.50386 0
M  V30 4126 H 359.372 -0.480205 7.0647 0
M  V30 4127 H 359.78 -1.25321 5.50413 0
M  V30 4128 N 359.178 -1.55987 0.224894 0
M  V30 4129 C 360.108 -2.23426 -0.678457 0
M  V30 4130 C 361.089 -1.20709 -1.19847 0
M  V30 4131 O 362.274 -1.49304 -1.24186 0
M  V30 4132 C 359.404 -2.91676 -1.88527 0
M  V30 4133 C 358.358 -4.00893 -1.49896 0
M  V30 4134 C 357.684 -4.56455 -2.78483 0
M  V30 4135 C 358.984 -5.17769 -0.686461 0
M  V30 4136 H 360.678 -2.99175 -0.116173 0
M  V30 4137 H 358.224 -1.43897 -0.054436 0
M  V30 4138 H 360.177 -3.37547 -2.5227 0
M  V30 4139 H 358.901 -2.1338 -2.47258 0
M  V30 4140 H 357.56 -3.55758 -0.884985 0
M  V30 4141 H 357.208 -3.74886 -3.35365 0
M  V30 4142 H 356.908 -5.30169 -2.53368 0
M  V30 4143 H 358.432 -5.05047 -3.43162 0
M  V30 4144 H 359.846 -5.60001 -1.22767 0
M  V30 4145 H 358.243 -5.97735 -0.532259 0
M  V30 4146 H 359.313 -4.83932 0.306196 0
M  V30 4147 N 360.656 0.0484629 -1.57525 0
M  V30 4148 C 361.881 0.759177 -1.93006 0
M  V30 4149 C 362.306 1.69125 -0.823317 0
M  V30 4150 O 361.664 1.79931 0.222364 0
M  V30 4151 C 361.712 1.50899 -3.27509 0
M  V30 4152 O 360.816 2.62112 -3.18388 0
M  V30 4153 H 360.157 0.205564 -0.631379 0
M  V30 4154 H 362.687 0.00972959 -2.04598 0
M  V30 4155 H 362.697 1.88317 -3.6194 0
M  V30 4156 H 361.372 0.825269 -4.0763 0
M  V30 4157 H 359.949 2.27379 -2.95556 0
M  V30 4158 N 362.134 1.5431 0.320358 0
M  V30 4159 C 363.359 1.76954 1.08175 0
M  V30 4160 C 363.784 0.518193 1.80821 0
M  V30 4161 O 363.142 -0.530411 1.73368 0
M  V30 4162 C 363.19 2.96451 2.05303 0
M  V30 4163 O 362.294 2.68221 3.13259 0
M  V30 4164 H 361.635 0.586275 0.311733 0
M  V30 4165 H 364.165 2.01342 0.363676 0
M  V30 4166 H 364.175 3.23887 2.48116 0
M  V30 4167 H 362.85 3.87196 1.51829 0
M  V30 4168 H 361.427 2.51744 2.75099 0
M  V30 4169 N 363.613 -0.582584 1.46437 0
M  V30 4170 C 364.576 -1.67366 1.56592 0
M  V30 4171 C 365.576 -1.54575 0.443072 0
M  V30 4172 O 366.766 -1.59191 0.707381 0
M  V30 4173 C 363.898 -3.06791 1.48634 0
M  V30 4174 H 365.091 -1.5972 2.5383 0
M  V30 4175 H 362.644 -0.800432 1.34249 0
M  V30 4176 H 363.379 -3.19993 0.526763 0
M  V30 4177 H 363.164 -3.17484 2.30101 0
M  V30 4178 H 364.654 -3.86218 1.58826 0
M  V30 4179 N 365.091 -1.34144 -0.827227 0
M  V30 4180 C 366.038 -1.25364 -1.93785 0
M  V30 4181 C 367.008 -0.129774 -1.65592 0
M  V30 4182 O 368.193 -0.310024 -1.88264 0
M  V30 4183 C 365.333 -1.01064 -3.2997 0
M  V30 4184 C 364.446 -2.22185 -3.70484 0
M  V30 4185 C 363.581 -1.91203 -4.95595 0
M  V30 4186 C 362.62 -3.08491 -5.28677 0
M  V30 4187 N 361.757 -2.77421 -6.44967 0
M  V30 4188 H 366.597 -2.20347 -2.00627 0
M  V30 4189 H 364.134 -1.09558 -0.981608 0
M  V30 4190 H 366.092 -0.850139 -4.08446 0
M  V30 4191 H 364.722 -0.0975026 -3.22653 0
M  V30 4192 H 363.774 -2.4917 -2.87434 0
M  V30 4193 H 365.086 -3.0983 -3.90905 0
M  V30 4194 H 364.24 -1.71864 -5.81848 0
M  V30 4195 H 362.979 -1.00812 -4.77167 0
M  V30 4196 H 361.984 -3.28431 -4.40923 0
M  V30 4197 H 363.209 -3.99655 -5.49047 0
M  V30 4198 H 361.155 -1.89601 -6.28003 0
M  V30 4199 H 361.072 -3.58598 -6.6554 0
M  V30 4200 H 362.34 -2.61577 -7.34301 0
M  V30 4201 N 366.569 1.04691 -1.17803 0
M  V30 4202 C 367.479 2.16057 -0.914151 0
M  V30 4203 C 368.495 1.73589 0.119503 0
M  V30 4204 O 369.671 2.01308 -0.0609468 0
M  V30 4205 C 366.736 3.4394 -0.436603 0
M  V30 4206 C 365.797 4.00825 -1.53746 0
M  V30 4207 C 365.03 5.22604 -1.0826 0
M  V30 4208 O 365.253 5.70367 0.0612244 0
M  V30 4209 O 364.187 5.7186 -1.87775 0
M  V30 4210 H 368.013 2.41169 -1.84584 0
M  V30 4211 H 365.598 1.1453 -0.959334 0
M  V30 4212 H 367.48 4.21024 -0.178057 0
M  V30 4213 H 366.155 3.20316 0.466869 0
M  V30 4214 H 365.062 3.25158 -1.84995 0
M  V30 4215 H 366.395 4.28778 -2.41683 0
M  V30 4216 N 368.047 0.979072 1.23499 0
M  V30 4217 C 368.994 0.517904 2.24914 0
M  V30 4218 C 369.964 -0.442525 1.60097 0
M  V30 4219 O 371.149 -0.350365 1.87556 0
M  V30 4220 C 368.289 -0.174813 3.44657 0
M  V30 4221 C 367.402 0.825721 4.24035 0
M  V30 4222 C 366.537 0.107946 5.3109 0
M  V30 4223 C 365.576 1.09778 6.02175 0
M  V30 4224 N 364.713 0.40925 7.00906 0
M  V30 4225 H 369.553 1.38751 2.63727 0
M  V30 4226 H 367.09 0.695303 1.2963 0
M  V30 4227 H 369.048 -0.593233 4.12961 0
M  V30 4228 H 367.678 -1.0083 3.06648 0
M  V30 4229 H 366.73 1.36253 3.55161 0
M  V30 4230 H 368.042 1.58005 4.73113 0
M  V30 4231 H 367.196 -0.367904 6.05583 0
M  V30 4232 H 365.935 -0.678994 4.8295 0
M  V30 4233 H 364.94 1.5844 5.26476 0
M  V30 4234 H 366.165 1.88536 6.52404 0
M  V30 4235 H 364.111 -0.358506 6.5502 0
M  V30 4236 H 364.028 1.10226 7.47921 0
M  V30 4237 H 365.296 -0.0442557 7.79487 0
M  V30 4238 N 369.525 -1.3858 0.750561 0
M  V30 4239 C 370.472 -2.30483 0.120835 0
M  V30 4240 C 371.442 -1.50022 -0.712923 0
M  V30 4241 O 372.627 -1.78662 -0.669676 0
M  V30 4242 C 369.767 -3.36431 -0.768666 0
M  V30 4243 C 368.88 -4.31927 0.0793922 0
M  V30 4244 C 368.015 -5.24944 -0.81283 0
M  V30 4245 C 367.054 -6.12088 0.0390447 0
M  V30 4246 N 366.191 -6.97412 -0.809969 0
M  V30 4247 H 371.031 -2.83761 0.91015 0
M  V30 4248 H 368.568 -1.39707 0.460463 0
M  V30 4249 H 370.526 -3.96462 -1.29898 0
M  V30 4250 H 369.156 -2.8457 -1.5238 0
M  V30 4251 H 368.208 -3.73382 0.727303 0
M  V30 4252 H 369.52 -4.93319 0.737401 0
M  V30 4253 H 368.674 -5.90078 -1.41042 0
M  V30 4254 H 367.413 -4.63911 -1.50458 0
M  V30 4255 H 366.418 -5.45952 0.649328 0
M  V30 4256 H 367.643 -6.75189 0.727809 0
M  V30 4257 H 365.589 -6.38931 -1.48672 0
M  V30 4258 H 365.506 -7.55712 -0.208789 0
M  V30 4259 H 366.774 -7.66959 -1.39263 0
M  V30 4260 N 371.003 -0.499398 -1.49478 0
M  V30 4261 C 371.933 0.269244 -2.31943 0
M  V30 4262 C 372.914 0.964054 -1.40143 0
M  V30 4263 O 374.099 0.955767 -1.69052 0
M  V30 4264 C 371.229 1.33504 -3.20615 0
M  V30 4265 C 370.183 0.760202 -4.21195 0
M  V30 4266 C 369.509 1.9264 -4.98792 0
M  V30 4267 C 370.809 -0.247661 -5.21712 0
M  V30 4268 H 372.503 -0.419082 -2.96452 0
M  V30 4269 H 370.049 -0.202988 -1.42562 0
M  V30 4270 H 372.002 1.88048 -3.77115 0
M  V30 4271 H 370.726 2.05253 -2.54045 0
M  V30 4272 H 369.385 0.23653 -3.65836 0
M  V30 4273 H 369.033 2.63154 -4.28671 0
M  V30 4274 H 368.733 1.54785 -5.66847 0
M  V30 4275 H 370.257 2.4762 -5.58137 0
M  V30 4276 H 371.671 0.209579 -5.72917 0
M  V30 4277 H 370.068 -0.541962 -5.97648 0
M  V30 4278 H 371.138 -1.16409 -4.7072 0
M  V30 4279 N 372.481 1.55866 -0.233164 0
M  V30 4280 C 373.892 1.847 0.272554 0
M  V30 4281 C 374.243 1.15477 1.58617 0
M  V30 4282 O 373.368 0.42841 2.12117 0
M  V30 4283 C 373.963 3.35071 0.501299 0
M  V30 4284 C 372.522 3.6418 0.951304 0
M  V30 4285 C 371.669 2.77292 0.0208209 0
M  V30 4286 H 374.62 1.52005 -0.456074 0
M  V30 4287 H 374.641 3.55906 1.34577 0
M  V30 4288 H 374.153 3.85424 -0.454936 0
M  V30 4289 H 372.254 3.19293 1.92049 0
M  V30 4290 H 372.367 4.72071 0.817675 0
M  V30 4291 H 370.731 2.49131 0.529723 0
M  V30 4292 H 371.514 3.30448 -0.93054 0
M  V30 4293 N 373.959 -0.0401083 1.57549 0
M  V30 4294 C 375.208 -0.732108 1.87944 0
M  V30 4295 C 375.521 -1.77107 0.830206 0
M  V30 4296 O 376.727 -2.51488 1.02302 0
M  V30 4297 C 375.183 -1.35315 3.33494 0
M  V30 4298 C 374.791 -0.351105 4.46622 0
M  V30 4299 C 376.535 -2.02566 3.73051 0
M  V30 4300 C 374.442 -0.979859 5.83226 0
M  V30 4301 H 373.372 -0.277188 0.701201 0
M  V30 4302 H 376.023 0.0138501 1.83495 0
M  V30 4303 H 374.405 -2.14844 3.32653 0
M  V30 4304 H 375.579 0.416674 4.58912 0
M  V30 4305 H 373.894 0.218708 4.15825 0
M  V30 4306 H 376.491 -2.50441 4.72423 0
M  V30 4307 H 376.834 -2.83904 3.04474 0
M  V30 4308 H 377.367 -1.29827 3.76018 0
M  V30 4309 H 374.106 -0.206135 6.55176 0
M  V30 4310 H 373.626 -1.71774 5.74677 0
M  V30 4311 H 375.305 -1.49046 6.29599 0
M  V30 4312 N 375.437 -1.54477 -0.31217 0
M  V30 4313 C 376.714 -1.63891 -1.06767 0
M  V30 4314 C 377.094 -0.480028 -2.0557 0
M  V30 4315 O 376.442 0.524487 -2.22399 0
M  V30 4316 C 376.652 -3.01402 -1.75948 0
M  V30 4317 C 378 -3.57838 -2.28554 0
M  V30 4318 O 379.024 -3.03782 -1.85998 0
M  V30 4319 O 377.883 -4.52462 -3.06497 0
M  V30 4320 H 374.977 -0.664125 -0.492816 0
M  V30 4321 H 377.523 -1.66823 -0.311149 0
M  V30 4322 H 376.295 -3.77187 -1.04144 0
M  V30 4323 H 375.918 -3.02199 -2.58383 0
M  V30 4324 N 376.915 0.57481 -1.46744 0
M  V30 4325 C 377.863 1.70435 -1.58286 0
M  V30 4326 C 378.857 1.63287 -0.450956 0
M  V30 4327 O 380.063 1.68685 -0.628121 0
M  V30 4328 H 376.438 0.56364 -0.497809 0
M  V30 4329 H 378.409 1.57833 -2.53242 0
M  V30 4330 C 377.158 3.08815 -1.59776 0
M  V30 4331 H 376.481 3.1499 -2.46214 0
M  V30 4332 H 377.921 3.87588 -1.71905 0
M  V30 4333 C 376.38 3.35301 -0.327812 0
M  V30 4334 O 376.91 3.97511 0.57861 0
M  V30 4335 N 375.116 2.89816 -0.213274 0
M  V30 4336 H 374.663 2.39371 -0.951798 0
M  V30 4337 H 374.621 3.0791 0.63553 0
M  V30 4338 N 378.394 1.34581 0.820102 0
M  V30 4339 C 379.624 1.29991 1.6058 0
M  V30 4340 C 380.032 -0.127588 1.88769 0
M  V30 4341 O 379.375 -1.08595 1.48165 0
M  V30 4342 C 379.437 2.02548 2.9701 0
M  V30 4343 C 379.101 3.51794 2.91701 0
M  V30 4344 C 380.098 4.46647 2.66087 0
M  V30 4345 C 377.783 3.94249 3.11245 0
M  V30 4346 C 379.777 5.81929 2.60071 0
M  V30 4347 C 377.464 5.2963 3.04853 0
M  V30 4348 C 378.462 6.23282 2.793 0
M  V30 4349 O 378.15 7.56181 2.72847 0
M  V30 4350 H 377.882 0.448539 0.505756 0
M  V30 4351 H 380.436 1.77811 1.02822 0
M  V30 4352 H 378.666 1.49345 3.56697 0
M  V30 4353 H 380.355 1.91211 3.58041 0
M  V30 4354 H 381.121 4.15168 2.5072 0
M  V30 4355 H 377 3.21749 3.30149 0
M  V30 4356 H 380.544 6.54999 2.40046 0
M  V30 4357 H 376.441 5.60727 3.19774 0
M  V30 4358 H 377.209 7.6595 2.88553 0
M  V30 4359 N 379.872 -1.04064 1.18357 0
M  V30 4360 C 381.1 -1.80916 1.00384 0
M  V30 4361 C 381.515 -1.83414 -0.447738 0
M  V30 4362 O 380.872 -1.26962 -1.31099 0
M  V30 4363 C 380.923 -3.26516 1.55144 0
M  V30 4364 O 380.644 -3.2424 2.94618 0
M  V30 4365 C 382.145 -4.20013 1.41789 0
M  V30 4366 H 379.365 -0.569728 0.354474 0
M  V30 4367 H 381.909 -1.31151 1.56906 0
M  V30 4368 H 380.064 -3.73512 1.02798 0
M  V30 4369 H 380.478 -4.15452 3.20156 0
M  V30 4370 H 381.952 -5.20111 1.84901 0
M  V30 4371 H 382.429 -4.37667 0.36661 0
M  V30 4372 H 383.035 -3.78881 1.93207 0
M  V30 4373 N 381.35 -0.985608 -1.22978 0
M  V30 4374 C 382.3 -0.50118 -2.22423 0
M  V30 4375 C 383.284 0.426649 -1.5514 0
M  V30 4376 O 384.476 0.254656 -1.75159 0
M  V30 4377 C 381.605 0.190003 -3.42774 0
M  V30 4378 C 380.691 -0.757703 -4.17276 0
M  V30 4379 N 381.082 -1.90251 -4.68656 0
M  V30 4380 C 379.38 -0.57209 -4.42316 0
M  V30 4381 C 380.081 -2.49676 -5.25392 0
M  V30 4382 N 379.057 -1.78013 -5.13627 0
M  V30 4383 H 382.859 -1.37441 -2.59783 0
M  V30 4384 H 380.373 -0.846941 -1.38567 0
M  V30 4385 H 382.37 0.55439 -4.13197 0
M  V30 4386 H 381.03 1.05946 -3.06929 0
M  V30 4387 H 382.041 -2.28354 -4.64839 0
M  V30 4388 H 378.718 0.251909 -4.16739 0
M  V30 4389 H 380.108 -3.46384 -5.75732 0
M  V30 4390 N 382.828 1.3818 -0.7579 0
M  V30 4391 C 383.791 2.28764 -0.141286 0
M  V30 4392 C 384.791 1.47388 0.642907 0
M  V30 4393 O 385.981 1.67781 0.468536 0
M  V30 4394 C 383.113 3.31184 0.808069 0
M  V30 4395 H 384.306 2.848 -0.939633 0
M  V30 4396 H 381.859 1.47212 -0.525191 0
M  V30 4397 H 382.594 2.80247 1.63193 0
M  V30 4398 H 382.379 3.91314 0.248104 0
M  V30 4399 H 383.869 3.98909 1.23536 0
M  V30 4400 N 384.306 0.507319 1.49211 0
M  V30 4401 C 385.583 -0.0982702 1.95353 0
M  V30 4402 C 385.963 -1.53516 1.449 0
M  V30 4403 O 385.311 -2.18594 0.66551 0
M  V30 4404 C 385.521 -0.00440283 3.49 0
M  V30 4405 C 386.869 -0.175147 4.24239 0
M  V30 4406 O 387.893 -0.0792891 3.56112 0
M  V30 4407 O 386.752 -0.37276 5.45227 0
M  V30 4408 H 383.846 -0.0918236 0.821887 0
M  V30 4409 H 386.392 0.570307 1.5983 0
M  V30 4410 H 385.164 0.997402 3.78375 0
M  V30 4411 H 384.787 -0.712845 3.91158 0
M  V30 4412 N 385.784 -1.5574 0.241426 0
M  V30 4413 C 386.747 -2.19877 -0.647063 0
M  V30 4414 C 387.747 -1.16642 -1.10686 0
M  V30 4415 O 388.937 -1.41757 -1.01245 0
M  V30 4416 C 386.069 -2.83797 -1.88871 0
M  V30 4417 H 387.262 -2.99772 -0.087574 0
M  V30 4418 H 384.815 -1.56298 -0.00813574 0
M  V30 4419 H 385.55 -2.07824 -2.48957 0
M  V30 4420 H 385.335 -3.59414 -1.56728 0
M  V30 4421 H 386.825 -3.32898 -2.52129 0
M  V30 4422 N 387.262 0.0317525 -1.57568 0
M  V30 4423 C 388.209 1.0332 -2.06382 0
M  V30 4424 C 389.179 1.36082 -0.952414 0
M  V30 4425 O 390.364 1.46466 -1.2228 0
M  V30 4426 C 387.504 2.32989 -2.54578 0
M  V30 4427 C 386.617 2.0641 -3.79498 0
M  V30 4428 C 385.752 3.2993 -4.16317 0
M  V30 4429 C 384.791 2.98893 -5.34162 0
M  V30 4430 N 383.928 4.14857 -5.66426 0
M  V30 4431 H 388.768 0.609982 -2.9169 0
M  V30 4432 H 386.305 0.289573 -1.44222 0
M  V30 4433 H 388.263 3.0875 -2.80587 0
M  V30 4434 H 386.893 2.73039 -1.7219 0
M  V30 4435 H 385.945 1.21158 -3.6059 0
M  V30 4436 H 387.257 1.79513 -4.65378 0
M  V30 4437 H 386.411 4.1406 -4.4344 0
M  V30 4438 H 385.15 3.59938 -3.29083 0
M  V30 4439 H 384.155 2.13164 -5.06795 0
M  V30 4440 H 385.38 2.70165 -6.23047 0
M  V30 4441 H 383.326 4.44821 -4.82151 0
M  V30 4442 H 383.243 3.91374 -6.4681 0
M  V30 4443 H 384.511 4.99868 -5.98124 0
M  V30 4444 N 388.74 1.54641 0.303973 0
M  V30 4445 C 390.151 1.64811 0.877163 0
M  V30 4446 C 390.502 0.554838 1.88191 0
M  V30 4447 O 389.627 -0.309033 2.14182 0
M  V30 4448 C 390.222 2.9876 1.59775 0
M  V30 4449 C 388.781 3.11061 2.11938 0
M  V30 4450 C 387.928 2.60479 0.951097 0
M  V30 4451 H 390.879 1.58493 0.0810486 0
M  V30 4452 H 390.9 2.90017 2.46314 0
M  V30 4453 H 390.412 3.7831 0.866226 0
M  V30 4454 H 388.513 2.36225 2.88146 0
M  V30 4455 H 388.626 4.17171 2.35595 0
M  V30 4456 H 386.99 2.16859 1.33583 0
M  V30 4457 H 387.773 3.42504 0.233581 0
M  V30 4458 N 390.218 -0.567019 1.47046 0
M  V30 4459 C 391.466 -1.322 1.52864 0
M  V30 4460 C 391.787 -1.94088 0.188388 0
M  V30 4461 O 391.057 -1.7941 -0.786693 0
M  V30 4462 H 389.637 -0.490894 0.563056 0
M  V30 4463 H 392.299 -0.662879 1.83281 0
M  V30 4464 H 391.395 -2.12062 2.2899 0
M  V30 4465 N 391.696 -1.35014 -0.812953 0
M  V30 4466 C 392.921 -1.31187 -1.60639 0
M  V30 4467 C 393.346 0.109382 -1.87782 0
M  V30 4468 O 392.704 1.07424 -1.46047 0
M  V30 4469 C 392.752 -2.11809 -2.91838 0
M  V30 4470 O 391.856 -1.49444 -3.8437 0
M  V30 4471 H 391.197 -0.450084 -0.488181 0
M  V30 4472 H 393.727 -1.77963 -1.00947 0
M  V30 4473 H 393.737 -2.23531 -3.41318 0
M  V30 4474 H 392.412 -3.15137 -2.71407 0
M  V30 4475 H 390.989 -1.46524 -3.42907 0
M  V30 4476 N 393.175 1.03435 -1.18907 0
M  V30 4477 C 394.4 1.80919 -1.01406 0
M  V30 4478 C 394.825 1.83055 0.432721 0
M  V30 4479 O 394.183 1.25252 1.31079 0
M  V30 4480 C 394.231 3.24091 -1.58105 0
M  V30 4481 O 393.335 4.04434 -0.806669 0
M  V30 4482 H 392.676 0.558709 -0.358803 0
M  V30 4483 H 395.206 1.30223 -1.57807 0
M  V30 4484 H 395.216 3.74853 -1.61087 0
M  V30 4485 H 393.891 3.21851 -2.6341 0
M  V30 4486 H 392.468 3.63091 -0.849666 0
M  V30 4487 N 394.653 0.992116 1.22453 0
M  V30 4488 C 395.585 0.500024 2.23679 0
M  V30 4489 C 396.598 -0.404463 1.57696 0
M  V30 4490 O 397.787 -0.206722 1.77299 0
M  V30 4491 C 394.887 -0.294711 3.37616 0
M  V30 4492 C 394.06 0.605723 4.33186 0
M  V30 4493 C 393.119 -0.13717 5.26021 0
M  V30 4494 O 392.145 0.477164 5.67196 0
M  V30 4495 N 393.347 -1.4197 5.62872 0
M  V30 4496 H 396.112 1.37045 2.66531 0
M  V30 4497 H 393.673 0.866741 1.36745 0
M  V30 4498 H 395.665 -0.800329 3.96707 0
M  V30 4499 H 394.235 -1.06623 2.93854 0
M  V30 4500 H 393.455 1.29202 3.72425 0
M  V30 4501 H 394.743 1.21896 4.93983 0
M  V30 4502 H 394.141 -1.94015 5.31389 0
M  V30 4503 H 392.698 -1.87052 6.24383 0
M  V30 4504 N 396.131 -1.37776 0.765217 0
M  V30 4505 C 397.079 -2.32209 0.134798 0
M  V30 4506 C 398.073 -1.54607 -0.692315 0
M  V30 4507 O 399.279 -1.70052 -0.590109 0
M  V30 4508 H 395.654 -0.751591 0.0248005 0
M  V30 4509 H 397.625 -2.8297 0.947119 0
M  V30 4510 C 396.374 -3.39841 -0.735063 0
M  V30 4511 H 395.697 -3.99654 -0.107991 0
M  V30 4512 H 397.137 -4.08296 -1.14326 0
M  V30 4513 C 395.596 -2.79378 -1.88281 0
M  V30 4514 O 396.126 -2.69608 -2.97783 0
M  V30 4515 N 394.332 -2.37016 -1.68142 0
M  V30 4516 H 393.879 -2.45162 -0.790772 0
M  V30 4517 H 393.837 -1.96905 -2.45104 0
M  V30 4518 N 397.609 -0.515225 -1.4894 0
M  V30 4519 C 398.557 0.269115 -2.31038 0
M  V30 4520 C 399.551 0.949443 -1.40292 0
M  V30 4521 O 400.757 0.87551 -1.57273 0
M  V30 4522 H 397.132 0.10565 -0.744542 0
M  V30 4523 H 399.103 -0.443096 -2.95092 0
M  V30 4524 C 397.852 1.31213 -3.21991 0
M  V30 4525 H 397.175 0.798034 -3.91754 0
M  V30 4526 H 398.615 1.83263 -3.82349 0
M  V30 4527 C 397.074 2.33791 -2.42576 0
M  V30 4528 O 397.604 3.3995 -2.14003 0
M  V30 4529 N 395.81 2.06625 -2.0434 0
M  V30 4530 H 395.357 1.20314 -2.27777 0
M  V30 4531 H 395.315 2.75483 -1.51514 0
M  V30 4532 N 399.087 1.5561 -0.249682 0
M  V30 4533 C 400.334 1.99011 0.374287 0
M  V30 4534 C 400.662 1.13785 1.57744 0
M  V30 4535 O 399.917 0.189326 1.94782 0
M  V30 4536 C 400.216 3.4775 0.824887 0
M  V30 4537 C 399.882 4.50086 -0.270819 0
M  V30 4538 C 398.544 4.77791 -0.571746 0
M  V30 4539 C 400.896 5.11312 -1.01041 0
M  V30 4540 C 398.224 5.63997 -1.61629 0
M  V30 4541 C 400.576 5.98651 -2.0445 0
M  V30 4542 C 399.24 6.24688 -2.35204 0
M  V30 4543 H 398.51 0.728233 0.136961 0
M  V30 4544 H 401.157 1.88122 -0.358087 0
M  V30 4545 H 399.462 3.55985 1.63651 0
M  V30 4546 H 401.159 3.78721 1.31799 0
M  V30 4547 H 397.749 4.28592 -0.026136 0
M  V30 4548 H 401.933 4.89953 -0.791177 0
M  V30 4549 H 397.189 5.82425 -1.85988 0
M  V30 4550 H 401.363 6.45135 -2.62248 0
M  V30 4551 H 398.99 6.91281 -3.16282 0
M  V30 4552 N 400.565 -0.0233959 1.57583 0
M  V30 4553 C 401.495 -1.02162 2.09965 0
M  V30 4554 C 402.476 -1.3735 1.00344 0
M  V30 4555 O 403.661 -1.46135 1.27899 0
M  V30 4556 C 400.791 -2.32081 2.58371 0
M  V30 4557 C 399.745 -2.1112 3.72307 0
M  V30 4558 C 399.071 -3.46848 4.06941 0
M  V30 4559 C 400.371 -1.49276 5.00514 0
M  V30 4560 H 402.065 -0.585557 2.93618 0
M  V30 4561 H 399.611 -0.280218 1.41247 0
M  V30 4562 H 401.564 -3.02249 2.93639 0
M  V30 4563 H 400.288 -2.77758 1.71808 0
M  V30 4564 H 398.947 -1.43384 3.37397 0
M  V30 4565 H 398.595 -3.90184 3.17436 0
M  V30 4566 H 398.295 -3.33646 4.83688 0
M  V30 4567 H 399.819 -4.18369 4.44747 0
M  V30 4568 H 401.233 -2.09368 5.33702 0
M  V30 4569 H 399.63 -1.46632 5.8191 0
M  V30 4570 H 400.7 -0.459217 4.82721 0
M  V30 4571 N 402.043 -1.548 -0.295768 0
M  V30 4572 C 403.273 -1.78069 -1.04762 0
M  V30 4573 C 403.681 -0.542847 -1.81245 0
M  V30 4574 O 403.024 0.497051 -1.76848 0
M  V30 4575 C 403.086 -2.93881 -2.07061 0
M  V30 4576 C 402.75 -4.31777 -1.49725 0
M  V30 4577 C 403.747 -5.11613 -0.924581 0
M  V30 4578 C 401.432 -4.78389 -1.5313 0
M  V30 4579 C 403.426 -6.36184 -0.393594 0
M  V30 4580 C 401.113 -6.02921 -0.996447 0
M  V30 4581 C 402.111 -6.81654 -0.428569 0
M  V30 4582 O 401.799 -8.0384 0.0981593 0
M  V30 4583 H 401.531 -0.597475 -0.316226 0
M  V30 4584 H 404.085 -2.02584 -0.338973 0
M  V30 4585 H 402.315 -2.65003 -2.81621 0
M  V30 4586 H 404.004 -3.04679 -2.6819 0
M  V30 4587 H 404.77 -4.76743 -0.891136 0
M  V30 4588 H 400.649 -4.17132 -1.9627 0
M  V30 4589 H 404.193 -6.97582 0.0503014 0
M  V30 4590 H 400.09 -6.37277 -1.02706 0
M  V30 4591 H 400.858 -8.18499 -0.0146455 0
M  V30 4592 N 403.521 0.559213 -1.47345 0
M  V30 4593 C 404.471 1.66192 -1.5609 0
M  V30 4594 C 405.455 1.55323 -0.419957 0
M  V30 4595 O 406.647 1.63839 -0.669762 0
M  V30 4596 C 403.776 3.0497 -1.57634 0
M  V30 4597 C 402.862 3.2105 -2.77106 0
M  V30 4598 N 403.253 3.07203 -4.01821 0
M  V30 4599 C 401.551 3.52046 -2.73825 0
M  V30 4600 C 402.252 3.25919 -4.81821 0
M  V30 4601 N 401.228 3.52161 -4.14106 0
M  V30 4602 H 405.03 1.54052 -2.5029 0
M  V30 4603 H 402.544 0.763914 -1.43311 0
M  V30 4604 H 404.541 3.84142 -1.61989 0
M  V30 4605 H 403.201 3.18224 -0.645281 0
M  V30 4606 H 404.212 2.84572 -4.32711 0
M  V30 4607 H 400.889 3.71839 -1.89848 0
M  V30 4608 H 402.279 3.20198 -5.90697 0
M  V30 4609 N 404.999 1.35443 0.805782 0
M  V30 4610 C 406.276 1.19325 1.54987 0
M  V30 4611 C 406.656 -0.227294 2.09873 0
M  V30 4612 O 406.004 -1.2309 1.92512 0
M  V30 4613 C 406.214 2.26196 2.65775 0
M  V30 4614 C 407.562 2.62043 3.34094 0
M  V30 4615 O 408.586 2.25115 2.76046 0
M  V30 4616 O 407.445 3.25542 4.38958 0
M  V30 4617 H 404.539 0.463623 0.684823 0
M  V30 4618 H 407.085 1.47127 0.845674 0
M  V30 4619 H 405.857 3.21471 2.23096 0
M  V30 4620 H 405.48 1.99667 3.43829 0
M  V30 4621 N 406.477 -1.02803 1.19454 0
M  V30 4622 C 407.754 -1.73299 0.907013 0
M  V30 4623 C 408.134 -2.02772 -0.587086 0
M  V30 4624 O 407.482 -1.68304 -1.54551 0
M  V30 4625 C 407.692 -3.00912 1.76785 0
M  V30 4626 C 409.04 -3.74403 2.00268 0
M  V30 4627 O 410.064 -3.10841 1.73943 0
M  V30 4628 O 408.923 -4.88675 2.4466 0
M  V30 4629 H 406.017 -0.754727 0.338106 0
M  V30 4630 H 408.563 -1.08754 1.30271 0
M  V30 4631 H 407.335 -2.75366 2.7801 0
M  V30 4632 H 406.958 -3.73197 1.37149 0
M  V30 4633 N 407.956 -0.998596 -1.21925 0
M  V30 4634 C 408.903 -0.553621 -2.24062 0
M  V30 4635 C 409.873 0.416999 -1.6078 0
M  V30 4636 O 411.058 0.320482 -1.88089 0
M  V30 4637 C 408.198 0.119959 -3.44891 0
M  V30 4638 C 407.311 -0.893077 -4.22668 0
M  V30 4639 C 406.446 -0.192424 -5.30851 0
M  V30 4640 C 405.485 -1.19344 -6.00353 0
M  V30 4641 N 404.622 -0.520707 -7.00166 0
M  V30 4642 H 409.462 -1.4293 -2.61486 0
M  V30 4643 H 406.999 -0.715838 -1.28507 0
M  V30 4644 H 408.957 0.527459 -4.13852 0
M  V30 4645 H 407.587 0.959389 -3.08214 0
M  V30 4646 H 406.639 -1.41886 -3.52948 0
M  V30 4647 H 407.951 -1.65512 -4.70539 0
M  V30 4648 H 407.105 0.271515 -6.06092 0
M  V30 4649 H 405.844 0.602075 -4.83969 0
M  V30 4650 H 404.849 -1.66795 -5.23889 0
M  V30 4651 H 406.074 -1.98891 -6.49322 0
M  V30 4652 H 404.02 0.254252 -6.55507 0
M  V30 4653 H 403.937 -1.2211 -7.46073 0
M  V30 4654 H 405.205 -0.0797596 -7.79459 0
M  V30 4655 N 409.434 1.37368 -0.772513 0
M  V30 4656 C 410.674 2.01512 -0.342361 0
M  V30 4657 C 411.038 1.59997 1.06136 0
M  V30 4658 O 412.239 2.16609 1.59167 0
M  V30 4659 C 410.51 3.54134 -0.482048 0
M  V30 4660 S 412.069 4.38585 -0.137272 0
M  V30 4661 H 408.887 0.698699 -0.131686 0
M  V30 4662 H 411.489 1.67552 -1.0073 0
M  V30 4663 H 410.193 3.81837 -1.50428 0
M  V30 4664 H 409.724 3.92894 0.199413 0
M  V30 4665 H 411.739 4.84594 1.06692 0
M  V30 4666 O 410.951 0.664551 1.47194 0
M  V30 4667 H 411.642 0.193541 1.92731 0
M  V30 END ATOM
M  V30 BEGIN BOND
M  V30 END BOND
M  V30 END CTAB
M  END
$$$$
