drugbank_target|Q16288 NT-3 growth factor receptor (DB11986; DB12010; DB14723; DB15822)
 OpenBabel12092121173D

  0  0  0     0  0            999 V3000
M  V30 BEGIN CTAB
M  V30 COUNTS 13203 13365 0 0 0
M  V30 BEGIN ATOM
M  V30 1 H -0.908 1.98254 -0.117106 0
M  V30 2 N 0 1.576 0 0
M  V30 3 C 0.933 2.03868 1.02534 0
M  V30 4 C 1.911 0.928543 1.3348 0
M  V30 5 O 3.095 1.19667 1.45644 0
M  V30 6 C 0.222 2.43627 2.35294 0
M  V30 7 C -0.732 3.65373 2.2001 0
M  V30 8 S 0.101 5.13292 1.52614 0
M  V30 9 C 1.257 5.56322 2.86805 0
M  V30 10 H 1.49 2.90518 0.631377 0
M  V30 11 H -0.977 1.52953 0.210867 0
M  V30 12 H 0.981 2.67203 3.11629 0
M  V30 13 H -0.358 1.57376 2.7183 0
M  V30 14 H -1.165 3.90944 3.18086 0
M  V30 15 H -1.563 3.418 1.51819 0
M  V30 16 H 0.729 5.58782 3.83104 0
M  V30 17 H 1.672 6.56266 2.65933 0
M  V30 18 H 2.08 4.83886 2.90714 0
M  V30 19 N 1.4781 -0.272755 1.55222 0
M  V30 20 C 2.7551 -1.02562 1.66555 0
M  V30 21 C 3.1351 -2.04282 0.532189 0
M  V30 22 O 2.4831 -2.23662 -0.467717 0
M  V30 23 C 2.6931 -1.6822 3.05782 0
M  V30 24 C 4.0411 -2.19373 3.63539 0
M  V30 25 O 5.0651 -1.78206 3.08417 0
M  V30 26 O 3.9241 -2.94883 4.60115 0
M  V30 27 H 1.0181 -0.475755 0.676451 0
M  V30 28 H 3.5641 -0.268593 1.67561 0
M  V30 29 H 2.3361 -0.945112 3.79715 0
M  V30 30 H 1.9591 -2.50609 3.08676 0
M  V30 31 N 2.9562 -1.48159 -0.537278 0
M  V30 32 C 4.2022 -1.56035 -1.29541 0
M  V30 33 C 4.5352 -0.230377 -1.92829 0
M  V30 34 O 3.8102 0.762952 -1.78911 0
M  V30 35 C 4.0932 -2.69323 -2.39034 0
M  V30 36 C 3.9462 -4.12002 -1.80485 0
M  V30 37 C 5.2652 -2.78408 -3.40847 0
M  V30 38 H 2.3842 -0.567992 -0.469632 0
M  V30 39 H 5.0262 -1.80302 -0.599277 0
M  V30 40 H 3.1762 -2.48763 -2.98412 0
M  V30 41 H 4.8482 -4.43981 -1.25215 0
M  V30 42 H 3.0912 -4.19344 -1.11055 0
M  V30 43 H 3.7622 -4.87077 -2.59731 0
M  V30 44 H 6.2382 -2.97012 -2.91416 0
M  V30 45 H 5.1142 -3.59416 -4.14863 0
M  V30 46 H 5.3752 -1.86269 -4.00944 0
M  V30 47 N 4.4343 0.785586 -1.36625 0
M  V30 48 C 5.6593 1.57963 -1.34397 0
M  V30 49 C 6.0843 1.87964 0.071526 0
M  V30 50 O 5.4423 1.48182 1.0446 0
M  V30 51 C 5.4903 2.87511 -2.17646 0
M  V30 52 O 4.5943 3.81281 -1.57158 0
M  V30 53 H 3.9353 0.479014 -0.459828 0
M  V30 54 H 6.4653 0.973411 -1.79961 0
M  V30 55 H 6.4753 3.36745 -2.30362 0
M  V30 56 H 5.1503 2.65002 -3.20541 0
M  V30 57 H 3.7273 3.39885 -1.53403 0
M  V30 58 N 5.9124 1.20967 1.01018 0
M  V30 59 C 6.8424 0.988272 2.11555 0
M  V30 60 C 7.8234 -0.0849778 1.69888 0
M  V30 61 O 9.0084 0.0738202 1.9406 0
M  V30 62 C 6.1384 0.546528 3.42973 0
M  V30 63 C 5.0924 1.56375 3.9841 0
M  V30 64 C 4.4184 0.97842 5.25672 0
M  V30 65 C 5.7184 2.94922 4.31066 0
M  V30 66 H 7.4124 1.91276 2.30334 0
M  V30 67 H 4.9584 0.921073 1.1069 0
M  V30 68 H 6.9114 0.378839 4.19694 0
M  V30 69 H 5.6354 -0.413598 3.23971 0
M  V30 70 H 4.2944 1.71891 3.23804 0
M  V30 71 H 3.9424 0.0101688 5.02999 0
M  V30 72 H 3.6424 1.65784 5.63728 0
M  V30 73 H 5.1664 0.821939 6.05043 0
M  V30 74 H 6.5804 2.8288 4.9865 0
M  V30 75 H 4.9774 3.5983 4.80253 0
M  V30 76 H 6.0474 3.4616 3.39561 0
M  V30 77 N 7.3905 -1.2043 1.01659 0
M  V30 78 C 8.6305 -1.91507 0.714456 0
M  V30 79 C 8.9945 -1.77073 -0.742237 0
M  V30 80 O 10.1955 -2.42631 -1.15688 0
M  V30 81 C 8.4665 -3.38795 1.13809 0
M  V30 82 S 10.0255 -4.28216 0.957925 0
M  V30 83 H 6.8435 -0.661571 0.260471 0
M  V30 84 H 9.4455 -1.45671 1.30384 0
M  V30 85 H 8.1495 -3.46822 2.19415 0
M  V30 86 H 7.6805 -3.89656 0.541474 0
M  V30 87 H 9.6955 -4.96007 -0.138531 0
M  V30 88 N 8.8686 -0.792821 -1.36206 0
M  V30 89 C 10.2796 -0.429513 -1.81692 0
M  V30 90 C 10.6306 1.04695 -1.65932 0
M  V30 91 O 9.7556 1.81256 -1.18218 0
M  V30 92 C 10.3506 -0.772831 -3.29868 0
M  V30 93 C 8.9096 -0.462307 -3.7355 0
M  V30 94 C 8.0566 -1.00569 -2.5842 0
M  V30 95 H 11.0076 -0.985672 -1.24379 0
M  V30 96 H 11.0286 -0.0651928 -3.80444 0
M  V30 97 H 10.5406 -1.84747 -3.41307 0
M  V30 98 H 8.6416 0.604158 -3.67669 0
M  V30 99 H 8.7546 -0.985299 -4.68859 0
M  V30 100 H 7.1186 -0.428734 -2.51066 0
M  V30 101 H 7.9016 -2.08616 -2.72643 0
M  V30 102 N 10.3467 1.47872 -0.545128 0
M  V30 103 C 11.3097 2.28337 0.198717 0
M  V30 104 C 12.3097 1.36255 0.853888 0
M  V30 105 O 13.4997 1.59003 0.711606 0
M  V30 106 C 10.6317 3.15585 1.28915 0
M  V30 107 H 11.8247 2.95567 -0.507941 0
M  V30 108 H 9.3777 1.53362 -0.301616 0
M  V30 109 H 10.1127 2.53019 2.02859 0
M  V30 110 H 9.8977 3.83337 0.824309 0
M  V30 111 H 11.3877 3.76243 1.81194 0
M  V30 112 N 11.8248 0.280983 1.55075 0
M  V30 113 C 12.7718 -0.603937 2.22758 0
M  V30 114 C 13.7418 -1.1452 1.20309 0
M  V30 115 O 14.9268 -1.19343 1.48869 0
M  V30 116 C 12.0668 -1.77947 2.95684 0
M  V30 117 C 11.1798 -1.2715 4.12864 0
M  V30 118 C 10.3148 -2.4093 4.7342 0
M  V30 119 C 9.3538 -1.87165 5.82783 0
M  V30 120 N 8.4908 -2.94441 6.37377 0
M  V30 121 H 13.3308 -0.020124 2.97993 0
M  V30 122 H 10.8678 0.00183425 1.471 0
M  V30 123 H 12.8258 -2.47055 3.36184 0
M  V30 124 H 11.4558 -2.33522 2.22861 0
M  V30 125 H 10.5078 -0.473331 3.77444 0
M  V30 126 H 11.8198 -0.837751 4.91715 0
M  V30 127 H 10.9738 -3.18021 5.1667 0
M  V30 128 H 9.7128 -2.87623 3.93859 0
M  V30 129 H 8.7178 -1.08556 5.38976 0
M  V30 130 H 9.9428 -1.41401 6.64216 0
M  V30 131 H 7.8888 -3.40505 5.60707 0
M  V30 132 H 7.8058 -2.55501 7.11516 0
M  V30 133 H 9.0738 -3.71489 6.85285 0
M  V30 134 N 13.3029 -1.57598 0.00835791 0
M  V30 135 C 14.5429 -1.92788 -0.679136 0
M  V30 136 C 14.9069 -0.883378 -1.70471 0
M  V30 137 O 16.1079 -1.12079 -2.44319 0
M  V30 138 C 14.3789 -3.32994 -1.29807 0
M  V30 139 S 15.9379 -3.90082 -2.00952 0
M  V30 140 H 12.7559 -0.67475 -0.224127 0
M  V30 141 H 15.3579 -1.95385 0.0670497 0
M  V30 142 H 14.0619 -4.06846 -0.538922 0
M  V30 143 H 13.5929 -3.33791 -2.082 0
M  V30 144 H 15.6079 -3.71834 -3.28563 0
M  V30 145 N 14.781 0.264519 -1.55364 0
M  V30 146 C 16.006 1.01726 -1.80739 0
M  V30 147 C 16.431 1.78836 -0.583044 0
M  V30 148 O 15.789 1.75167 0.467566 0
M  V30 149 C 15.837 1.94482 -3.03659 0
M  V30 150 O 14.941 3.03386 -2.7934 0
M  V30 151 H 14.282 0.290395 -0.597132 0
M  V30 152 H 16.812 0.290854 -2.02522 0
M  V30 153 H 16.822 2.36278 -3.32621 0
M  V30 154 H 15.497 1.37772 -3.92418 0
M  V30 155 H 14.074 2.65844 -2.61498 0
M  V30 156 N 16.2591 1.48442 0.529413 0
M  V30 157 C 17.5061 1.56488 1.28521 0
M  V30 158 C 17.8341 0.239042 1.93025 0
M  V30 159 O 17.0891 -0.770713 1.79885 0
M  V30 160 C 17.3881 2.6523 2.39558 0
M  V30 161 C 17.0541 4.07648 1.92702 0
M  V30 162 C 15.7161 4.46411 1.79641 0
M  V30 163 C 18.0681 4.96896 1.573 0
M  V30 164 C 15.3961 5.72226 1.29514 0
M  V30 165 C 17.7481 6.23202 1.08636 0
M  V30 166 C 16.4121 6.60821 0.941919 0
M  V30 167 H 15.6821 0.572631 0.470292 0
M  V30 168 H 18.3291 1.82161 0.59072 0
M  V30 169 H 16.6341 2.33419 3.14679 0
M  V30 170 H 18.3311 2.68671 2.97686 0
M  V30 171 H 14.9211 3.77036 2.03819 0
M  V30 172 H 19.1051 4.67626 1.66251 0
M  V30 173 H 14.3611 6.00097 1.17019 0
M  V30 174 H 18.5351 6.91753 0.803136 0
M  V30 175 H 16.1621 7.58198 0.5513 0
M  V30 176 N 17.7372 -0.778329 1.37039 0
M  V30 177 C 18.9832 -1.53817 1.33086 0
M  V30 178 C 19.3382 -1.92208 -0.0860346 0
M  V30 179 O 18.6312 -1.60713 -1.04316 0
M  V30 180 C 18.8252 -2.81845 2.19768 0
M  V30 181 C 18.6542 -2.55967 3.69744 0
M  V30 182 C 17.4242 -2.50428 4.38878 0
M  V30 183 C 19.6222 -2.2441 4.62758 0
M  V30 184 N 17.6042 -2.16564 5.74433 0
M  V30 185 C 18.9752 -2.0063 5.86641 0
M  V30 186 C 21.0302 -2.1051 4.5121 0
M  V30 187 C 19.7332 -1.64354 7.00272 0
M  V30 188 C 21.7592 -1.75634 5.64718 0
M  V30 189 C 21.1212 -1.52709 6.87648 0
M  V30 190 H 17.2202 -0.563434 0.542279 0
M  V30 191 H 19.8042 -0.908617 1.72198 0
M  V30 192 H 17.9752 -3.42649 1.82883 0
M  V30 193 H 19.7072 -3.47682 2.07122 0
M  V30 194 H 16.4622 -2.66056 3.91805 0
M  V30 195 H 16.8862 -2.02348 6.46053 0
M  V30 196 H 21.5282 -2.26919 3.56746 0
M  V30 197 H 19.2462 -1.46683 7.94676 0
M  V30 198 H 22.8322 -1.65546 5.57751 0
M  V30 199 H 21.7122 -1.2612 7.73992 0
M  V30 200 N 19.2153 -1.21501 -1.00376 0
M  V30 201 C 20.6313 -0.972629 -1.26539 0
M  V30 202 C 20.8313 0.340257 -1.98606 0
M  V30 203 O 19.8873 1.06561 -2.28913 0
M  V30 204 C 21.2003 -2.16404 -2.08781 0
M  V30 205 C 22.7483 -2.20643 -2.22004 0
M  V30 206 C 23.2233 -3.39306 -3.07629 0
M  V30 207 N 24.7143 -3.39401 -3.15217 0
M  V30 208 C 25.4493 -4.27867 -3.81729 0
M  V30 209 N 24.9453 -5.26533 -4.5026 0
M  V30 210 N 26.7383 -4.15672 -3.78382 0
M  V30 211 H 18.8893 -2.05929 -0.520281 0
M  V30 212 H 21.1523 -0.901803 -0.292328 0
M  V30 213 H 20.8583 -3.11554 -1.63178 0
M  V30 214 H 20.7323 -2.15567 -3.09533 0
M  V30 215 H 23.1193 -1.26048 -2.66825 0
M  V30 216 H 23.2003 -2.25523 -1.20718 0
M  V30 217 H 22.8443 -4.34195 -2.63509 0
M  V30 218 H 22.7743 -3.31665 -4.09031 0
M  V30 219 H 25.2653 -2.67997 -2.66432 0
M  V30 220 H 25.5783 -5.90337 -4.98721 0
M  V30 221 H 23.9233 -5.30457 -4.49044 0
M  V30 222 H 27.1143 -3.3785 -3.23998 0
M  V30 223 H 27.2873 -4.84825 -4.2994 0
M  V30 224 N 20.6934 1.19889 -1.02296 0
M  V30 225 C 21.9424 1.88743 -0.711257 0
M  V30 226 C 22.2554 1.80112 0.762817 0
M  V30 227 O 23.4614 2.44161 1.18733 0
M  V30 228 C 21.9174 3.38525 -1.22185 0
M  V30 229 C 21.5254 3.55727 -2.72328 0
M  V30 230 C 23.2694 4.12893 -0.985864 0
M  V30 231 C 21.1764 4.99369 -3.16835 0
M  V30 232 H 20.1064 0.706885 -0.262353 0
M  V30 233 H 22.7574 1.35586 -1.23648 0
M  V30 234 H 21.1394 3.91044 -0.624571 0
M  V30 235 H 22.3134 3.13564 -3.3766 0
M  V30 236 H 20.6284 2.94739 -2.9414 0
M  V30 237 H 23.2254 5.18813 -1.29374 0
M  V30 238 H 23.5684 4.16228 0.0775055 0
M  V30 239 H 24.1014 3.66494 -1.54684 0
M  V30 240 H 20.8404 5.01193 -4.22476 0
M  V30 241 H 20.3604 5.42317 -2.56228 0
M  V30 242 H 22.0394 5.67988 -3.09837 0
M  V30 243 N 22.1715 0.800033 1.35784 0
M  V30 244 C 23.4185 0.377342 1.98953 0
M  V30 245 C 23.7465 -1.05378 1.6348 0
M  V30 246 O 23.0015 -1.74459 0.886707 0
M  V30 247 C 23.3005 0.500276 3.53881 0
M  V30 248 C 22.9665 1.89375 4.09204 0
M  V30 249 C 21.6285 2.27499 4.24025 0
M  V30 250 C 23.9805 2.8057 4.39238 0
M  V30 251 C 21.3085 3.562 4.66195 0
M  V30 252 C 23.6605 4.0871 4.82844 0
M  V30 253 C 22.3245 4.46843 4.95871 0
M  V30 254 H 21.5945 0.138079 0.728021 0
M  V30 255 H 24.2415 1.01955 1.62103 0
M  V30 256 H 22.5465 -0.225405 3.91151 0
M  V30 257 H 24.2435 0.154097 4.00704 0
M  V30 258 H 20.8335 1.58753 3.98115 0
M  V30 259 H 25.0175 2.52367 4.27346 0
M  V30 260 H 20.2735 3.85602 4.74469 0
M  V30 261 H 24.4475 4.79481 5.05046 0
M  V30 262 H 22.0745 5.46623 5.28306 0
M  V30 263 N 23.6496 -1.47581 0.552962 0
M  V30 264 C 24.5796 -2.32762 -0.185451 0
M  V30 265 C 25.5606 -1.43527 -0.912905 0
M  V30 266 O 26.7456 -1.72388 -0.894201 0
M  V30 267 C 23.8756 -3.25219 -1.21859 0
M  V30 268 C 22.8296 -4.23661 -0.607864 0
M  V30 269 C 22.1556 -5.05413 -1.74533 0
M  V30 270 C 23.4556 -5.20481 0.435582 0
M  V30 271 H 25.1496 -2.94749 0.525684 0
M  V30 272 H 22.6956 -1.41738 0.254251 0
M  V30 273 H 24.6486 -3.8365 -1.7433 0
M  V30 274 H 23.3726 -2.61279 -1.95961 0
M  V30 275 H 22.0316 -3.66451 -0.104489 0
M  V30 276 H 21.6796 -4.3788 -2.47529 0
M  V30 277 H 21.3796 -5.72059 -1.34249 0
M  V30 278 H 22.9036 -5.66701 -2.27338 0
M  V30 279 H 24.3176 -5.733 -0.00290157 0
M  V30 280 H 22.7146 -5.95305 0.757067 0
M  V30 281 H 23.7846 -4.66217 1.33303 0
M  V30 282 N 25.1277 -0.289203 -1.54924 0
M  V30 283 C 26.0577 0.58549 -2.2604 0
M  V30 284 C 27.0387 1.14753 -1.25562 0
M  V30 285 O 28.2237 1.17906 -1.54311 0
M  V30 286 C 25.3537 1.76305 -2.99222 0
M  V30 287 C 24.3077 1.33191 -4.06748 0
M  V30 288 C 23.6337 2.5937 -4.6758 0
M  V30 289 C 24.9337 0.471775 -5.20165 0
M  V30 290 H 26.6277 -0.00763532 -2.99399 0
M  V30 291 H 24.1737 -0.00511229 -1.43999 0
M  V30 292 H 26.1267 2.38097 -3.47689 0
M  V30 293 H 24.8507 2.38223 -2.23422 0
M  V30 294 H 23.5097 0.737121 -3.59113 0
M  V30 295 H 23.1577 3.19576 -3.88433 0
M  V30 296 H 22.8577 2.31228 -5.40192 0
M  V30 297 H 24.3817 3.21985 -5.18804 0
M  V30 298 H 25.7957 0.995056 -5.64599 0
M  V30 299 H 24.1927 0.284639 -5.99425 0
M  V30 300 H 25.2627 -0.506041 -4.82252 0
M  V30 301 N 26.6058 1.57591 -0.0167156 0
M  V30 302 C 27.8538 1.90906 0.663285 0
M  V30 303 C 28.1748 0.892509 1.73376 0
M  V30 304 O 27.4448 -0.0677623 1.95783 0
M  V30 305 H 26.0248 0.704637 0.247983 0
M  V30 306 H 28.6868 1.94803 -0.0615909 0
M  V30 307 H 27.7828 2.9116 1.12393 0
M  V30 308 N 28.0839 -0.256276 1.55502 0
M  V30 309 C 29.3089 -1.00766 1.81276 0
M  V30 310 C 29.7339 -1.78524 0.59252 0
M  V30 311 O 29.0919 -1.75413 -0.45827 0
M  V30 312 C 29.1399 -1.92869 3.04687 0
M  V30 313 O 28.2439 -3.019 2.80945 0
M  V30 314 H 27.5849 -0.287224 0.598664 0
M  V30 315 H 30.1149 -0.280109 2.02674 0
M  V30 316 H 30.1249 -2.34511 3.33869 0
M  V30 317 H 28.7999 -1.35689 3.93143 0
M  V30 318 H 27.3769 -2.64454 2.62904 0
M  V30 319 N 29.562 -1.4872 -0.521534 0
M  V30 320 C 30.808 -1.574 -1.27879 0
M  V30 321 C 31.141 -0.250817 -1.92573 0
M  V30 322 O 30.416 0.743934 -1.79711 0
M  V30 323 C 30.699 -2.71843 -2.36164 0
M  V30 324 C 30.552 -4.13893 -1.76105 0
M  V30 325 C 31.871 -2.82008 -3.37875 0
M  V30 326 H 28.99 -0.572941 -0.463581 0
M  V30 327 H 31.632 -1.80927 -0.580119 0
M  V30 328 H 29.782 -2.51914 -2.95756 0
M  V30 329 H 31.454 -4.45284 -1.20499 0
M  V30 330 H 29.697 -4.20498 -1.06601 0
M  V30 331 H 30.368 -4.89804 -2.5455 0
M  V30 332 H 32.844 -3.00086 -2.88249 0
M  V30 333 H 31.72 -3.63796 -4.11028 0
M  V30 334 H 31.981 -1.90511 -3.98946 0
M  V30 335 N 31.0401 0.771051 -1.3745 0
M  V30 336 C 32.2861 1.53109 -1.339 0
M  V30 337 C 32.6411 1.9225 0.0758401 0
M  V30 338 O 31.9341 1.61264 1.03463 0
M  V30 339 C 32.1281 2.80676 -2.2126 0
M  V30 340 C 31.9571 2.54003 -3.71096 0
M  V30 341 C 30.7271 2.48097 -4.402 0
M  V30 342 C 32.9251 2.21953 -4.63941 0
M  V30 343 N 30.9071 2.13515 -5.75573 0
M  V30 344 C 32.2781 1.97516 -5.87697 0
M  V30 345 C 34.3331 2.08114 -4.5232 0
M  V30 346 C 33.0361 1.60638 -7.01133 0
M  V30 347 C 35.0621 1.72636 -5.65642 0
M  V30 348 C 34.4241 1.4906 -6.88448 0
M  V30 349 H 30.5231 0.56055 -0.54526 0
M  V30 350 H 33.1071 0.899472 -1.72678 0
M  V30 351 H 31.2781 3.41674 -1.84698 0
M  V30 352 H 33.0101 3.46578 -2.08963 0
M  V30 353 H 29.7651 2.63974 -3.93211 0
M  V30 354 H 30.1891 1.98919 -6.47117 0
M  V30 355 H 34.8311 2.25024 -3.57944 0
M  V30 356 H 32.5491 1.42467 -7.95443 0
M  V30 357 H 36.1351 1.62586 -5.58621 0
M  V30 358 H 35.0151 1.22014 -7.7465 0
M  V30 359 N 32.5182 1.22032 0.997298 0
M  V30 360 C 33.4482 1.01065 2.10495 0
M  V30 361 C 34.4292 -0.0669542 1.69968 0
M  V30 362 O 35.6142 0.0943987 1.9397 0
M  V30 363 C 32.7442 0.582874 3.42374 0
M  V30 364 C 31.6982 1.60592 3.96729 0
M  V30 365 C 31.0242 1.03412 5.24605 0
M  V30 366 C 32.3242 2.99478 4.27914 0
M  V30 367 H 34.0182 1.93708 2.28292 0
M  V30 368 H 31.5642 0.932761 1.09707 0
M  V30 369 H 33.5172 0.423332 4.19268 0
M  V30 370 H 32.2412 -0.379213 3.24391 0
M  V30 371 H 30.9002 1.75316 3.21963 0
M  V30 372 H 30.5482 0.063518 5.0296 0
M  V30 373 H 30.2482 1.71754 5.61938 0
M  V30 374 H 31.7722 0.886066 6.04137 0
M  V30 375 H 33.1862 2.88153 4.95622 0
M  V30 376 H 31.5832 3.64903 4.76409 0
M  V30 377 H 32.6532 3.49742 3.3587 0
M  V30 378 N 33.9963 -1.19345 1.0293 0
M  V30 379 C 35.2733 -1.84811 0.640642 0
M  V30 380 C 35.6533 -1.91855 -0.88062 0
M  V30 381 O 35.0013 -1.43587 -1.7775 0
M  V30 382 C 35.2113 -3.23755 1.30321 0
M  V30 383 C 36.5593 -3.99912 1.42673 0
M  V30 384 O 37.5833 -3.33155 1.26041 0
M  V30 385 O 36.4423 -5.19494 1.6967 0
M  V30 386 H 33.5363 -0.796443 0.222726 0
M  V30 387 H 36.0823 -1.26831 1.12748 0
M  V30 388 H 34.8543 -3.13466 2.34211 0
M  V30 389 H 34.4773 -3.89381 0.804261 0
M  V30 390 N 35.4744 -0.807222 -1.35358 0
M  V30 391 C 36.7044 -0.399796 -2.02695 0
M  V30 392 C 37.1124 0.994176 -1.60974 0
M  V30 393 O 36.4554 1.65209 -0.803226 0
M  V30 394 C 36.5174 -0.404445 -3.57218 0
M  V30 395 C 36.1814 -1.74904 -4.22206 0
M  V30 396 C 37.1784 -2.70743 -4.4384 0
M  V30 397 C 34.8634 -2.03322 -4.5931 0
M  V30 398 C 36.8574 -3.93183 -5.01683 0
M  V30 399 C 34.5444 -3.26026 -5.16866 0
M  V30 400 C 35.5424 -4.20774 -5.37994 0
M  V30 401 O 35.2304 -5.41312 -5.94337 0
M  V30 402 H 34.9624 -0.160517 -0.656666 0
M  V30 403 H 37.5164 -1.09235 -1.73945 0
M  V30 404 H 35.7464 0.344707 -3.85161 0
M  V30 405 H 37.4354 -0.0192429 -4.05895 0
M  V30 406 H 38.2014 -2.5008 -4.15554 0
M  V30 407 H 34.0804 -1.30384 -4.42178 0
M  V30 408 H 37.6244 -4.6715 -5.1809 0
M  V30 409 H 33.5214 -3.46559 -5.44579 0
M  V30 410 H 34.2894 -5.42618 -6.12787 0
M  V30 411 N 36.9525 1.47285 -0.560781 0
M  V30 412 C 38.1985 2.02764 -0.0381184 0
M  V30 413 C 38.5315 1.43384 1.30976 0
M  V30 414 O 37.8065 0.590733 1.85312 0
M  V30 415 C 38.0895 3.60064 0.0511427 0
M  V30 416 C 37.9425 4.2987 -1.32408 0
M  V30 417 C 39.2615 4.33439 0.762795 0
M  V30 418 H 36.3805 0.736841 -0.0153264 0
M  V30 419 H 39.0225 1.75675 -0.723759 0
M  V30 420 H 37.1725 3.83274 0.635065 0
M  V30 421 H 38.8445 4.17989 -1.95148 0
M  V30 422 H 37.0875 3.90085 -1.8978 0
M  V30 423 H 37.7585 5.38478 -1.21431 0
M  V30 424 H 40.2345 4.15243 0.266965 0
M  V30 425 H 39.1105 5.43124 0.794221 0
M  V30 426 H 39.3715 4.02915 1.81966 0
M  V30 427 N 38.4306 0.297415 1.54768 0
M  V30 428 C 39.6786 -0.312295 1.99673 0
M  V30 429 C 39.9996 -1.54686 1.18732 0
M  V30 430 O 39.2696 -1.93854 0.282382 0
M  V30 431 H 37.8496 -0.118381 0.73756 0
M  V30 432 H 40.5116 0.407915 1.90583 0
M  V30 433 H 39.6076 -0.586813 3.06534 0
M  V30 434 N 39.9087 -1.5758 0.0250728 0
M  V30 435 C 41.1337 -1.96337 -0.668317 0
M  V30 436 C 41.5587 -0.901314 -1.651 0
M  V30 437 O 40.9167 0.138187 -1.80773 0
M  V30 438 C 40.9647 -3.34191 -1.35457 0
M  V30 439 O 40.0687 -3.30269 -2.46974 0
M  V30 440 H 39.4097 -0.640281 -0.175887 0
M  V30 441 H 41.9397 -2.0442 0.0857224 0
M  V30 442 H 41.9497 -3.70331 -1.71228 0
M  V30 443 H 40.6247 -4.11036 -0.634218 0
M  V30 444 H 39.2017 -3.05841 -2.13344 0
M  V30 445 N 41.3868 0.248026 -1.55636 0
M  V30 446 C 42.6328 0.97767 -1.77678 0
M  V30 447 C 42.9658 1.85016 -0.590135 0
M  V30 448 O 42.2408 1.90095 0.411611 0
M  V30 449 C 42.5238 1.83914 -3.09593 0
M  V30 450 C 42.3768 0.99491 -4.38659 0
M  V30 451 C 43.6958 2.82183 -3.37729 0
M  V30 452 H 40.8148 0.354005 -0.646413 0
M  V30 453 H 43.4568 0.248253 -1.88371 0
M  V30 454 H 41.6068 2.46104 -3.00608 0
M  V30 455 H 43.2788 0.391789 -4.59633 0
M  V30 456 H 41.5218 0.299231 -4.32767 0
M  V30 457 H 42.1928 1.63145 -5.2734 0
M  V30 458 H 44.6688 2.30129 -3.4667 0
M  V30 459 H 43.5448 3.39582 -4.31249 0
M  V30 460 H 43.8058 3.58588 -2.58586 0
M  V30 461 N 42.8649 1.48995 0.513639 0
M  V30 462 C 43.7949 1.67636 1.62544 0
M  V30 463 C 44.7759 0.525087 1.61793 0
M  V30 464 O 45.9609 0.759502 1.78732 0
M  V30 465 C 43.0909 1.73114 3.01079 0
M  V30 466 C 42.0449 2.87905 3.16693 0
M  V30 467 C 41.3709 2.78486 4.56453 0
M  V30 468 C 42.6709 4.29005 2.97913 0
M  V30 469 H 44.3649 2.60716 1.47198 0
M  V30 470 H 41.9109 1.25465 0.706714 0
M  V30 471 H 43.8639 1.84742 3.78746 0
M  V30 472 H 42.5879 0.766241 3.17484 0
M  V30 473 H 41.2469 2.75859 2.41448 0
M  V30 474 H 40.8949 1.7993 4.69717 0
M  V30 475 H 40.5949 3.55523 4.67843 0
M  V30 476 H 42.1189 2.92104 5.36197 0
M  V30 477 H 43.5329 4.41798 3.65359 0
M  V30 478 H 41.9299 5.07166 3.20785 0
M  V30 479 H 42.9999 4.44329 1.94165 0
M  V30 480 N 44.343 -0.763751 1.37857 0
M  V30 481 C 45.306 -1.85889 1.34081 0
M  V30 482 C 46.306 -1.58949 0.243277 0
M  V30 483 O 47.496 -1.66882 0.499589 0
M  V30 484 C 44.628 -3.23176 1.08489 0
M  V30 485 H 45.821 -1.90648 2.31502 0
M  V30 486 H 43.374 -0.964367 1.23003 0
M  V30 487 H 44.109 -3.24091 0.116318 0
M  V30 488 H 43.894 -3.44124 1.8794 0
M  V30 489 H 45.384 -4.03254 1.08517 0
M  V30 490 N 45.8211 -1.22559 -0.990812 0
M  V30 491 C 47.0611 -1.06302 -1.74583 0
M  V30 492 C 47.4251 0.394737 -1.87898 0
M  V30 493 O 48.6261 0.678214 -2.60103 0
M  V30 494 C 46.8971 -1.75699 -3.11231 0
M  V30 495 S 48.4561 -1.74882 -4.02445 0
M  V30 496 H 45.2741 -0.380639 -0.600529 0
M  V30 497 H 47.8761 -1.55532 -1.18449 0
M  V30 498 H 46.5801 -2.80923 -2.99183 0
M  V30 499 H 46.1111 -1.26708 -3.72436 0
M  V30 500 H 48.1261 -0.799997 -4.89709 0
M  V30 501 N 47.2992 1.18797 -1.03562 0
M  V30 502 C 48.7102 1.70322 -0.764676 0
M  V30 503 C 49.0612 1.82708 0.714996 0
M  V30 504 O 48.1862 1.50299 1.55689 0
M  V30 505 C 48.7812 3.09356 -1.38145 0
M  V30 506 C 47.3402 3.58114 -1.15895 0
M  V30 507 C 46.4872 2.34798 -1.4753 0
M  V30 508 H 49.4382 1.03543 -1.20268 0
M  V30 509 H 49.4592 3.72378 -0.781977 0
M  V30 510 H 48.9712 3.00309 -2.45837 0
M  V30 511 H 47.0722 3.72464 -0.100544 0
M  V30 512 H 47.1852 4.4184 -1.8524 0
M  V30 513 H 45.5492 2.38464 -0.894829 0
M  V30 514 H 46.3322 2.28375 -2.56319 0
M  V30 515 N 48.7773 0.814389 1.34928 0
M  V30 516 C 49.7403 0.235759 2.27984 0
M  V30 517 C 50.7403 -0.581412 1.49921 0
M  V30 518 O 51.9303 -0.398758 1.69575 0
M  V30 519 C 49.0623 -0.670433 3.34242 0
M  V30 520 H 50.2553 1.05659 2.80671 0
M  V30 521 H 47.8083 0.585614 1.44915 0
M  V30 522 H 48.5433 -1.51466 2.86755 0
M  V30 523 H 48.3283 -0.0860822 3.92005 0
M  V30 524 H 49.8183 -1.06935 4.03676 0
M  V30 525 N 50.2554 -1.46986 0.568584 0
M  V30 526 C 51.2034 -2.31858 -0.185649 0
M  V30 527 C 52.1974 -1.43624 -0.898249 0
M  V30 528 O 53.4034 -1.60327 -0.818242 0
M  V30 529 H 49.7784 -0.747866 -0.0787399 0
M  V30 530 H 51.7494 -2.93303 0.549191 0
M  V30 531 C 50.4984 -3.26513 -1.19519 0
M  V30 532 H 49.8214 -3.94377 -0.656285 0
M  V30 533 H 51.2614 -3.88707 -1.6936 0
M  V30 534 C 49.7204 -2.50847 -2.24894 0
M  V30 535 O 50.2504 -2.26119 -3.32014 0
M  V30 536 N 48.4564 -2.11656 -1.99124 0
M  V30 537 H 48.0034 -2.31966 -1.12024 0
M  V30 538 H 47.9614 -1.61347 -2.69842 0
M  V30 539 N 51.7335 -0.305618 -1.54608 0
M  V30 540 C 52.9735 0.303114 -2.0214 0
M  V30 541 C 53.3375 1.50737 -1.18921 0
M  V30 542 O 54.5385 2.18778 -1.56172 0
M  V30 543 C 52.8095 0.646332 -3.51507 0
M  V30 544 S 54.3685 1.23727 -4.20995 0
M  V30 545 H 51.1865 0.0927643 -0.704923 0
M  V30 546 H 53.7885 -0.434566 -1.90609 0
M  V30 547 H 52.4925 -0.238541 -4.09706 0
M  V30 548 H 52.0235 1.41468 -3.67084 0
M  V30 549 H 54.0385 2.52489 -4.27158 0
M  V30 550 N 53.2116 1.57565 -0.0334293 0
M  V30 551 C 54.4576 1.92262 0.645226 0
M  V30 552 C 54.7906 0.910543 1.71531 0
M  V30 553 O 54.0656 -0.066099 1.94388 0
M  V30 554 C 54.3486 3.37422 1.2577 0
M  V30 555 C 54.2016 4.49369 0.196891 0
M  V30 556 C 55.5206 3.82628 2.17449 0
M  V30 557 H 52.6396 0.699171 0.233085 0
M  V30 558 H 55.2816 1.89779 -0.0915694 0
M  V30 559 H 53.4316 3.39669 1.88566 0
M  V30 560 H 55.1036 4.59254 -0.433962 0
M  V30 561 H 53.3466 4.31168 -0.477137 0
M  V30 562 H 54.0176 5.47978 0.665124 0
M  V30 563 H 56.4936 3.82145 1.64634 0
M  V30 564 H 55.3696 4.84883 2.57254 0
M  V30 565 H 55.6306 3.18376 3.0674 0
M  V30 566 N 54.6897 -0.239769 1.55765 0
M  V30 567 C 55.9297 -0.974076 1.79697 0
M  V30 568 C 56.2937 -1.82249 0.604088 0
M  V30 569 O 57.4947 -2.58913 0.722324 0
M  V30 570 C 55.7657 -1.80595 3.08416 0
M  V30 571 S 57.3247 -2.59838 3.53596 0
M  V30 572 H 54.1427 -0.327524 0.63107 0
M  V30 573 H 56.7447 -0.241277 1.94005 0
M  V30 574 H 55.4487 -1.17249 3.93295 0
M  V30 575 H 54.9797 -2.58137 2.96865 0
M  V30 576 H 56.9947 -3.82987 3.15492 0
M  V30 577 N 56.1678 -1.49265 -0.50573 0
M  V30 578 C 57.3928 -1.62478 -1.28902 0
M  V30 579 C 57.8178 -0.294332 -1.85783 0
M  V30 580 O 57.1758 0.737412 -1.65626 0
M  V30 581 C 57.2238 -2.69268 -2.39848 0
M  V30 582 O 56.3278 -2.28113 -3.43567 0
M  V30 583 H 55.6688 -0.54399 -0.380751 0
M  V30 584 H 58.1988 -1.95421 -0.605952 0
M  V30 585 H 58.2088 -2.91291 -2.85681 0
M  V30 586 H 56.8838 -3.65846 -1.97812 0
M  V30 587 H 55.4608 -2.16401 -3.03685 0
M  V30 588 N 57.6459 0.756429 -1.3826 0
M  V30 589 C 58.5929 1.87011 -1.35261 0
M  V30 590 C 59.5629 1.64695 -0.215616 0
M  V30 591 O 60.7479 1.864 -0.407399 0
M  V30 592 C 57.8879 3.24275 -1.18068 0
M  V30 593 C 57.0009 3.58442 -2.41129 0
M  V30 594 C 56.1359 4.84994 -2.16689 0
M  V30 595 C 55.1749 5.11939 -3.35537 0
M  V30 596 N 54.3119 6.29685 -3.10549 0
M  V30 597 H 59.1519 1.8891 -2.30472 0
M  V30 598 H 56.6889 0.923373 -1.14509 0
M  V30 599 H 58.6469 4.03479 -1.06116 0
M  V30 600 H 57.2769 3.21711 -0.264973 0
M  V30 601 H 56.3289 2.74103 -2.63764 0
M  V30 602 H 57.6409 3.74283 -3.29717 0
M  V30 603 H 56.7949 5.72135 -2.01857 0
M  V30 604 H 55.5339 4.71286 -1.25462 0
M  V30 605 H 54.5389 4.23268 -3.50891 0
M  V30 606 H 55.7639 5.27546 -4.27635 0
M  V30 607 H 53.7099 6.17306 -2.21967 0
M  V30 608 H 53.6269 6.46014 -3.92686 0
M  V30 609 H 54.8949 7.19722 -2.99367 0
M  V30 610 N 59.124 1.23083 0.984299 0
M  V30 611 C 60.352 1.08714 1.76037 0
M  V30 612 C 60.767 -0.361691 1.85303 0
M  V30 613 O 60.124 -1.25034 1.32939 0
M  V30 614 C 60.175 1.70206 3.18923 0
M  V30 615 O 59.896 3.09423 3.10144 0
M  V30 616 C 61.397 1.61227 4.12941 0
M  V30 617 H 58.617 0.380664 0.552572 0
M  V30 618 H 61.161 1.62853 1.23689 0
M  V30 619 H 59.316 1.20109 3.6831 0
M  V30 620 H 59.73 3.39188 4.00065 0
M  V30 621 H 61.204 2.08962 5.10919 0
M  V30 622 H 61.681 0.570375 4.35481 0
M  V30 623 H 62.287 2.10671 3.69456 0
M  V30 624 N 60.6021 -1.18246 1.0419 0
M  V30 625 C 61.5121 -2.25574 0.644476 0
M  V30 626 C 62.5281 -1.70845 -0.329826 0
M  V30 627 O 63.7041 -2.00554 -0.184443 0
M  V30 628 C 60.7691 -3.46697 0.014877 0
M  V30 629 C 59.8301 -4.16554 1.03834 0
M  V30 630 C 59.0631 -5.31894 0.438692 0
M  V30 631 O 59.2861 -5.65385 -0.754752 0
M  V30 632 O 58.2201 -5.90459 1.168 0
M  V30 633 H 62.0461 -2.61836 1.53869 0
M  V30 634 H 59.6311 -1.25352 0.812854 0
M  V30 635 H 61.5131 -4.20062 -0.335538 0
M  V30 636 H 60.1881 -3.12255 -0.853138 0
M  V30 637 H 59.0951 -3.45251 1.44057 0
M  V30 638 H 60.4281 -4.54998 1.87716 0
M  V30 639 N 62.0802 -0.821533 -1.34494 0
M  V30 640 C 63.3292 -0.405355 -1.97585 0
M  V30 641 C 63.6422 1.03677 -1.65863 0
M  V30 642 O 64.8482 1.55679 -2.22433 0
M  V30 643 C 63.3042 -0.673861 -3.53535 0
M  V30 644 C 62.9122 -2.12951 -3.94152 0
M  V30 645 C 64.6562 -0.32378 -4.23263 0
M  V30 646 C 62.5632 -2.34298 -5.43009 0
M  V30 647 H 61.4932 -0.147836 -0.739365 0
M  V30 648 H 64.1442 -1.00769 -1.53355 0
M  V30 649 H 62.5262 -0.00137554 -3.96 0
M  V30 650 H 63.7002 -2.84104 -3.62797 0
M  V30 651 H 62.0152 -2.44089 -3.37356 0
M  V30 652 H 64.6122 -0.461126 -5.32708 0
M  V30 653 H 64.9552 0.731586 -4.09821 0
M  V30 654 H 65.4882 -0.950786 -3.8627 0
M  V30 655 H 62.2272 -3.38335 -5.61435 0
M  V30 656 H 61.7472 -1.67687 -5.75883 0
M  V30 657 H 63.4262 -2.16588 -6.09671 0
M  V30 658 N 63.5583 1.46682 -0.576371 0
M  V30 659 C 64.5063 2.31953 0.17335 0
M  V30 660 C 65.5003 1.44098 0.89062 0
M  V30 661 O 66.7063 1.60759 0.809728 0
M  V30 662 H 63.0813 0.748273 0.0747727 0
M  V30 663 H 65.0523 2.93007 -0.564738 0
M  V30 664 C 63.8013 3.27142 1.17786 0
M  V30 665 H 63.1243 3.94719 0.635361 0
M  V30 666 H 64.5643 3.896 1.67296 0
M  V30 667 C 63.0233 2.52036 2.23561 0
M  V30 668 O 63.5533 2.27877 3.3081 0
M  V30 669 N 61.7593 2.12709 1.97998 0
M  V30 670 H 61.3063 2.32557 1.10792 0
M  V30 671 H 61.2643 1.62776 2.68982 0
M  V30 672 N 65.0364 0.313813 1.54444 0
M  V30 673 C 66.2764 -0.292389 2.02298 0
M  V30 674 C 66.6404 -1.50105 1.19719 0
M  V30 675 O 67.8414 -2.17947 1.5733 0
M  V30 676 C 66.1124 -0.627682 3.51845 0
M  V30 677 S 67.6714 -1.21493 4.21646 0
M  V30 678 H 64.4894 -0.0890247 0.705405 0
M  V30 679 H 67.0914 0.444668 1.90376 0
M  V30 680 H 65.7954 0.260265 4.09574 0
M  V30 681 H 65.3264 -1.39519 3.67829 0
M  V30 682 H 67.3414 -2.5022 4.28491 0
M  V30 683 N 66.5145 -1.57545 0.0417849 0
M  V30 684 C 67.9305 -1.56467 -0.314704 0
M  V30 685 C 68.1305 -1.04859 -1.72066 0
M  V30 686 O 67.1865 -0.700983 -2.42575 0
M  V30 687 C 68.4995 -3.00317 -0.15174 0
M  V30 688 C 70.0475 -3.12201 -0.223553 0
M  V30 689 C 70.5225 -4.57913 -0.0892295 0
M  V30 690 N 72.0135 -4.6297 -0.145808 0
M  V30 691 C 72.7485 -5.73362 -0.0658459 0
M  V30 692 N 72.2445 -6.92769 0.0659282 0
M  V30 693 N 74.0375 -5.6197 -0.12075 0
M  V30 694 H 66.1885 -1.89416 0.961014 0
M  V30 695 H 68.4515 -0.871862 0.372237 0
M  V30 696 H 68.1575 -3.42073 0.817254 0
M  V30 697 H 68.0315 -3.65892 -0.916692 0
M  V30 698 H 70.4185 -2.70349 -1.18301 0
M  V30 699 H 70.4995 -2.49323 0.571994 0
M  V30 700 H 70.1435 -5.00448 0.866867 0
M  V30 701 H 70.0735 -5.18786 -0.903802 0
M  V30 702 H 72.5645 -3.7709 -0.247286 0
M  V30 703 H 72.8775 -7.72707 0.119905 0
M  V30 704 H 71.2225 -6.94927 0.100885 0
M  V30 705 H 74.4135 -4.67572 -0.222187 0
M  V30 706 H 74.5865 -6.47977 -0.0549735 0
M  V30 707 N 67.9926 0.231505 -1.5589 0
M  V30 708 C 69.4086 0.580748 -1.48659 0
M  V30 709 C 69.6086 1.87617 -0.73498 0
M  V30 710 O 68.6646 2.51046 -0.270586 0
M  V30 711 C 69.9776 0.669202 -2.93159 0
M  V30 712 C 71.5256 0.760499 -3.03621 0
M  V30 713 C 72.0006 0.880383 -4.49459 0
M  V30 714 N 73.4916 0.944861 -4.53461 0
M  V30 715 C 74.2266 1.05716 -5.63571 0
M  V30 716 N 73.7226 1.13403 -6.83456 0
M  V30 717 N 75.5156 1.09152 -5.514 0
M  V30 718 H 67.6666 -0.618695 -2.03189 0
M  V30 719 H 69.9296 -0.215728 -0.923128 0
M  V30 720 H 69.6356 -0.212904 -3.51055 0
M  V30 721 H 69.5096 1.5361 -3.44505 0
M  V30 722 H 71.8966 1.63305 -2.45796 0
M  V30 723 H 71.9776 -0.131864 -2.5546 0
M  V30 724 H 71.6216 0.0123284 -5.07899 0
M  V30 725 H 71.5516 1.78802 -4.95316 0
M  V30 726 H 74.0426 0.896176 -3.6712 0
M  V30 727 H 74.3556 1.21921 -7.63122 0
M  V30 728 H 72.7006 1.10333 -6.86186 0
M  V30 729 H 75.8916 1.02805 -4.56671 0
M  V30 730 H 76.0646 1.17558 -6.37247 0
M  V30 731 N 69.4707 1.49531 0.497807 0
M  V30 732 C 70.8817 1.52344 1.07927 0
M  V30 733 C 71.2327 0.311469 1.93712 0
M  V30 734 O 70.3577 -0.578405 2.08527 0
M  V30 735 C 70.9527 2.76062 1.96405 0
M  V30 736 C 69.5117 2.81643 2.49709 0
M  V30 737 C 68.6587 2.46299 1.27404 0
M  V30 738 H 71.6097 1.56182 0.281576 0
M  V30 739 H 71.6307 2.56405 2.81135 0
M  V30 740 H 71.1427 3.64254 1.33943 0
M  V30 741 H 69.2437 1.97739 3.15801 0
M  V30 742 H 69.3567 3.83891 2.86643 0
M  V30 743 H 67.7207 1.98148 1.60029 0
M  V30 744 H 68.5037 3.36769 0.66645 0
M  V30 745 N 70.9488 -0.749086 1.3866 0
M  V30 746 C 72.2258 -1.4992 1.25632 0
M  V30 747 C 72.6058 -2.10633 -0.140317 0
M  V30 748 O 71.9538 -1.97437 -1.15025 0
M  V30 749 C 72.1638 -2.56195 2.36992 0
M  V30 750 C 73.5118 -3.22972 2.75634 0
M  V30 751 O 74.5358 -2.66502 2.36337 0
M  V30 752 O 73.3948 -4.25122 3.43415 0
M  V30 753 H 70.4888 -0.665067 0.491544 0
M  V30 754 H 73.0348 -0.784113 1.50498 0
M  V30 755 H 71.8068 -2.09612 3.30422 0
M  V30 756 H 71.4298 -3.35279 2.13714 0
M  V30 757 N 72.4269 -1.23603 -0.977757 0
M  V30 758 C 73.7039 -0.977897 -1.69401 0
M  V30 759 C 74.0839 0.502738 -2.05026 0
M  V30 760 O 73.4319 1.47459 -1.74551 0
M  V30 761 C 73.6419 -1.89077 -2.93345 0
M  V30 762 C 74.9899 -2.15579 -3.65802 0
M  V30 763 O 76.0139 -1.86648 -3.03383 0
M  V30 764 O 74.8729 -2.64658 -4.78141 0
M  V30 765 H 71.9669 -0.369025 -0.740101 0
M  V30 766 H 74.5129 -1.34657 -1.03274 0
M  V30 767 H 73.2849 -2.89158 -2.63634 0
M  V30 768 H 72.9079 -1.52463 -3.67207 0
M  V30 769 N 73.905 1.17692 -1.04816 0
M  V30 770 C 75.153 1.87488 -0.754497 0
M  V30 771 C 75.474 1.81205 0.720407 0
M  V30 772 O 74.744 1.23544 1.52032 0
M  V30 773 H 73.324 0.694101 -0.276102 0
M  V30 774 H 75.986 1.42793 -1.32651 0
M  V30 775 H 75.082 2.93328 -1.06606 0
M  V30 776 N 75.3831 0.828654 1.34056 0
M  V30 777 C 76.3311 0.242973 2.31327 0
M  V30 778 C 77.3251 -0.61944 1.57668 0
M  V30 779 O 78.5311 -0.51014 1.7262 0
M  V30 780 H 74.9061 0.059834 0.749616 0
M  V30 781 H 76.8771 1.07809 2.78244 0
M  V30 782 C 75.6261 -0.575733 3.429 0
M  V30 783 H 74.9491 0.0785582 3.99723 0
M  V30 784 H 76.3891 -0.951547 4.13185 0
M  V30 785 C 74.8481 -1.75044 2.87856 0
M  V30 786 O 75.3781 -2.84882 2.83205 0
M  V30 787 N 73.5841 -1.56903 2.44602 0
M  V30 788 H 73.1311 -0.675547 2.48584 0
M  V30 789 H 73.0891 -2.35652 2.08124 0
M  V30 790 N 76.8612 -1.46375 0.584142 0
M  V30 791 C 77.7912 -2.33103 -0.136037 0
M  V30 792 C 78.7722 -1.45431 -0.882255 0
M  V30 793 O 79.9572 -1.74246 -0.857434 0
M  V30 794 C 77.0872 -3.27731 -1.14933 0
M  V30 795 C 76.0412 -4.24855 -0.517862 0
M  V30 796 C 75.3672 -5.09001 -1.63773 0
M  V30 797 C 76.6672 -5.19439 0.545886 0
M  V30 798 H 78.3612 -2.93568 0.588086 0
M  V30 799 H 75.9072 -1.41166 0.284259 0
M  V30 800 H 77.8602 -3.87261 -1.66153 0
M  V30 801 H 76.5842 -2.65377 -1.90375 0
M  V30 802 H 75.2432 -3.6659 -0.0267361 0
M  V30 803 H 74.8912 -4.43031 -2.38185 0
M  V30 804 H 74.5912 -5.74777 -1.22085 0
M  V30 805 H 76.1152 -5.71396 -2.15266 0
M  V30 806 H 77.5292 -5.73177 0.118704 0
M  V30 807 H 75.9262 -5.93566 0.88317 0
M  V30 808 H 76.9962 -4.63285 1.43162 0
M  V30 809 N 78.3393 -0.321999 -1.54275 0
M  V30 810 C 79.5863 0.281044 -2.0054 0
M  V30 811 C 79.9143 1.52265 -1.21019 0
M  V30 812 O 79.1693 1.93687 -0.279982 0
M  V30 813 C 79.4683 0.661769 -3.5122 0
M  V30 814 C 79.1343 -0.480482 -4.48333 0
M  V30 815 C 77.7963 -0.794005 -4.74604 0
M  V30 816 C 80.1483 -1.24783 -5.06042 0
M  V30 817 C 77.4763 -1.87763 -5.55844 0
M  V30 818 C 79.8283 -2.32153 -5.88462 0
M  V30 819 C 78.4923 -2.64089 -6.13036 0
M  V30 820 H 77.7623 0.102841 -0.733829 0
M  V30 821 H 80.4093 -0.445453 -1.86247 0
M  V30 822 H 78.7143 1.46867 -3.63232 0
M  V30 823 H 80.4113 1.13989 -3.84457 0
M  V30 824 H 77.0013 -0.226039 -4.28004 0
M  V30 825 H 81.1853 -1.01887 -4.85729 0
M  V30 826 H 76.4413 -2.12954 -5.73115 0
M  V30 827 H 80.6153 -2.92057 -6.32199 0
M  V30 828 H 78.2423 -3.48185 -6.75775 0
M  V30 829 N 79.8174 1.5752 -0.0501392 0
M  V30 830 C 81.2284 1.80271 0.485705 0
M  V30 831 C 81.5794 0.96228 1.70981 0
M  V30 832 O 80.7044 0.178578 2.15662 0
M  V30 833 C 81.2994 3.26957 0.887938 0
M  V30 834 C 79.8584 3.5063 1.36877 0
M  V30 835 C 79.0054 2.75165 0.343468 0
M  V30 836 H 81.9564 1.56281 -0.276028 0
M  V30 837 H 81.9774 3.37821 1.75093 0
M  V30 838 H 81.4894 3.881 -0.0031809 0
M  V30 839 H 79.5904 2.94766 2.27911 0
M  V30 840 H 79.7034 4.59343 1.36164 0
M  V30 841 H 78.0674 2.4127 0.816128 0
M  V30 842 H 78.8504 3.39034 -0.539548 0
M  V30 843 N 81.2955 -0.223234 1.56011 0
M  V30 844 C 82.2255 -1.27988 1.95298 0
M  V30 845 C 83.2065 -1.48976 0.820979 0
M  V30 846 O 84.3915 -1.61188 1.08315 0
M  V30 847 C 81.5215 -2.63 2.26822 0
M  V30 848 C 80.4755 -2.56671 3.42497 0
M  V30 849 C 79.8015 -3.95697 3.59622 0
M  V30 850 C 81.1015 -2.11601 4.77517 0
M  V30 851 H 82.7955 -0.953525 2.8381 0
M  V30 852 H 80.3415 -0.457244 1.36548 0
M  V30 853 H 82.2945 -3.37077 2.52898 0
M  V30 854 H 81.0185 -2.9732 1.35161 0
M  V30 855 H 79.6775 -1.85051 3.16467 0
M  V30 856 H 79.3255 -4.27322 2.6534 0
M  V30 857 H 79.0255 -3.92345 4.37424 0
M  V30 858 H 80.5495 -4.71438 3.88044 0
M  V30 859 H 81.9635 -2.7542 5.02809 0
M  V30 860 H 80.3605 -2.19311 5.5859 0
M  V30 861 H 81.4305 -1.06824 4.72987 0
M  V30 862 N 82.7736 -1.49793 -0.48987 0
M  V30 863 C 83.7036 -1.70201 -1.59856 0
M  V30 864 C 84.6846 -0.55076 -1.60937 0
M  V30 865 O 85.8696 -0.787841 -1.77501 0
M  V30 866 C 82.9996 -1.77882 -2.98287 0
M  V30 867 C 81.9536 -2.92907 -3.12073 0
M  V30 868 C 81.2796 -2.85712 -4.51965 0
M  V30 869 C 82.5796 -4.3369 -2.91051 0
M  V30 870 H 84.2736 -2.63025 -1.43032 0
M  V30 871 H 81.8196 -1.26574 -0.686664 0
M  V30 872 H 83.7726 -1.90744 -3.75759 0
M  V30 873 H 82.4966 -0.816653 -3.16225 0
M  V30 874 H 81.1556 -2.79665 -2.37029 0
M  V30 875 H 80.8036 -1.8738 -4.66795 0
M  V30 876 H 80.5036 -3.62921 -4.62128 0
M  V30 877 H 82.0276 -3.00598 -5.31482 0
M  V30 878 H 83.4416 -4.47555 -3.58284 0
M  V30 879 H 81.8386 -5.12205 -3.12675 0
M  V30 880 H 82.9086 -4.47362 -1.87071 0
M  V30 881 N 84.2517 0.741722 -1.39055 0
M  V30 882 C 85.1617 1.88621 -1.39496 0
M  V30 883 C 86.1777 1.71557 -0.290578 0
M  V30 884 O 87.3537 1.94275 -0.530954 0
M  V30 885 C 84.4187 3.24134 -1.23037 0
M  V30 886 C 83.4797 3.5364 -2.43387 0
M  V30 887 C 82.7127 4.82687 -2.27703 0
M  V30 888 O 82.9357 5.55922 -1.27696 0
M  V30 889 O 81.8697 5.1194 -3.16545 0
M  V30 890 H 85.6957 1.91203 -2.35956 0
M  V30 891 H 83.2807 0.888625 -1.20099 0
M  V30 892 H 85.1627 4.0513 -1.15964 0
M  V30 893 H 83.8377 3.22337 -0.296691 0
M  V30 894 H 82.7447 2.72758 -2.56035 0
M  V30 895 H 84.0777 3.60209 -3.35425 0
M  V30 896 N 85.7298 1.2412 0.971189 0
M  V30 897 C 86.9778 1.07668 1.71032 0
M  V30 898 C 87.2988 -0.385797 1.91146 0
M  V30 899 O 86.5688 -1.27569 1.4867 0
M  V30 900 H 85.1488 0.395429 0.633755 0
M  V30 901 H 87.8108 1.55984 1.16855 0
M  V30 902 H 86.9068 1.57195 2.69622 0
M  V30 903 N 87.2079 -1.17134 1.05439 0
M  V30 904 C 88.1399 -2.2078 0.615539 0
M  V30 905 C 89.1529 -1.59584 -0.322001 0
M  V30 906 O 90.3419 -1.78133 -0.114344 0
M  V30 907 C 87.4419 -3.38691 -0.118938 0
M  V30 908 C 86.6149 -4.29454 0.829924 0
M  V30 909 C 85.6739 -5.26024 0.136258 0
M  V30 910 O 84.6999 -5.63952 0.77115 0
M  V30 911 N 85.9019 -5.69487 -1.1254 0
M  V30 912 H 88.6669 -2.59052 1.50705 0
M  V30 913 H 86.2279 -1.32058 0.936603 0
M  V30 914 H 88.2199 -4.00329 -0.593179 0
M  V30 915 H 86.7899 -2.98996 -0.91215 0
M  V30 916 H 86.0099 -3.65211 1.48373 0
M  V30 917 H 87.2979 -4.86984 1.47392 0
M  V30 918 H 86.6959 -5.4075 -1.6615 0
M  V30 919 H 85.2529 -6.33257 -1.54366 0
M  V30 920 N 88.686 -0.835752 -1.33615 0
M  V30 921 C 89.963 -0.352017 -1.92406 0
M  V30 922 C 90.343 1.16225 -1.76224 0
M  V30 923 O 89.691 1.97526 -1.14873 0
M  V30 924 C 89.901 -0.795485 -3.39813 0
M  V30 925 C 91.249 -0.801703 -4.16963 0
M  V30 926 O 92.273 -0.738889 -3.48452 0
M  V30 927 O 91.132 -0.886607 -5.3926 0
M  V30 928 H 88.226 -0.0989641 -0.821057 0
M  V30 929 H 90.772 -0.921397 -1.42507 0
M  V30 930 H 89.544 -1.83795 -3.45449 0
M  V30 931 H 89.167 -0.202505 -3.97084 0
M  V30 932 N 90.1641 1.46063 -0.591896 0
M  V30 933 C 91.3891 2.07226 -0.0850314 0
M  V30 934 C 91.8141 1.43625 1.21463 0
M  V30 935 O 91.1721 0.523305 1.73583 0
M  V30 936 C 91.2201 3.60554 0.0576567 0
M  V30 937 O 90.3241 3.97128 1.11188 0
M  V30 938 H 89.6651 0.660615 -0.0669568 0
M  V30 939 H 92.1951 1.8756 -0.81745 0
M  V30 940 H 92.2051 4.07165 0.2609 0
M  V30 941 H 90.8801 4.06235 -0.891416 0
M  V30 942 H 89.4571 3.62213 0.886356 0
M  V30 943 N 91.6422 0.330177 1.54103 0
M  V30 944 C 92.8902 -0.269871 2.0029 0
M  V30 945 C 93.2112 -1.52133 1.21986 0
M  V30 946 O 92.4812 -1.93212 0.323438 0
M  V30 947 H 91.0612 -0.10271 0.739905 0
M  V30 948 H 93.7232 0.448249 1.89675 0
M  V30 949 H 92.8192 -0.52166 3.07709 0
M  V30 950 N 93.1203 -1.57491 0.0584922 0
M  V30 951 C 94.0683 -2.13148 -0.931168 0
M  V30 952 C 95.0623 -1.06507 -1.31729 0
M  V30 953 O 96.2683 -1.24906 -1.29609 0
M  V30 954 H 92.6433 -0.68137 -0.31818 0
M  V30 955 H 94.6143 -2.95187 -0.436707 0
M  V30 956 C 93.3633 -2.69732 -2.19408 0
M  V30 957 H 92.6863 -3.51454 -1.90578 0
M  V30 958 H 94.1263 -3.12287 -2.86798 0
M  V30 959 C 92.5853 -1.63855 -2.94369 0
M  V30 960 O 93.1153 -1.05565 -3.87581 0
M  V30 961 N 91.3213 -1.35202 -2.57233 0
M  V30 962 H 90.8683 -1.82791 -1.81508 0
M  V30 963 H 90.8263 -0.645922 -3.07693 0
M  V30 964 N 94.5984 0.214957 -1.56127 0
M  V30 965 C 95.8234 0.95924 -1.83884 0
M  V30 966 C 96.2484 1.7689 -0.639644 0
M  V30 967 O 95.6064 1.76566 0.411601 0
M  V30 968 C 95.6544 1.84723 -3.09693 0
M  V30 969 O 94.7584 2.94346 -2.8885 0
M  V30 970 H 94.0994 0.27125 -0.606069 0
M  V30 971 H 96.6294 0.226276 -2.03345 0
M  V30 972 H 96.6394 2.25576 -3.39969 0
M  V30 973 H 95.3144 1.25218 -3.96602 0
M  V30 974 H 93.8914 2.57391 -2.69823 0
M  V30 975 N 96.0765 1.50051 0.48192 0
M  V30 976 C 97.0245 1.68635 1.60203 0
M  V30 977 C 98.0185 0.552184 1.60148 0
M  V30 978 O 99.2245 0.732377 1.64427 0
M  V30 979 H 95.5995 0.532081 0.531407 0
M  V30 980 H 97.5705 2.62616 1.41688 0
M  V30 981 C 96.3195 1.78775 2.9822 0
M  V30 982 H 95.6425 2.6543 2.98976 0
M  V30 983 H 97.0825 1.95806 3.7608 0
M  V30 984 C 95.5415 0.536849 3.32595 0
M  V30 985 O 96.0715 -0.328897 4.00351 0
M  V30 986 N 94.2775 0.394091 2.87915 0
M  V30 987 H 93.8245 1.09962 2.32951 0
M  V30 988 H 93.7825 -0.441737 3.11281 0
M  V30 989 N 97.5546 -0.734337 1.39446 0
M  V30 990 C 98.8026 -1.49096 1.36436 0
M  V30 991 C 99.1236 -1.94961 -0.0388255 0
M  V30 992 O 98.3936 -1.69033 -0.990191 0
M  V30 993 H 96.9736 -0.5531 0.502085 0
M  V30 994 H 99.6356 -0.871725 1.74319 0
M  V30 995 H 98.7316 -2.37276 2.02747 0
M  V30 996 N 99.0327 -1.24633 -0.964593 0
M  V30 997 C 99.9807 -1.03917 -2.08096 0
M  V30 998 C 100.975 0.0268581 -1.69379 0
M  V30 999 O 102.181 -0.127952 -1.79545 0
M  V30 1000 H 98.5557 -0.319044 -0.680966 0
M  V30 1001 H 100.527 -1.98581 -2.22729 0
M  V30 1002 C 99.2757 -0.663983 -3.41301 0
M  V30 1003 H 98.5987 -1.47605 -3.71555 0
M  V30 1004 H 100.039 -0.558663 -4.20303 0
M  V30 1005 C 98.4977 0.629169 -3.30973 0
M  V30 1006 O 99.0277 1.67404 -3.65156 0
M  V30 1007 N 97.2337 0.611057 -2.84103 0
M  V30 1008 H 96.7807 -0.239593 -2.56483 0
M  V30 1009 H 96.7387 1.47647 -2.77575 0
M  V30 1010 N 100.511 1.16574 -1.06058 0
M  V30 1011 C 101.474 2.19085 -0.673392 0
M  V30 1012 C 102.474 1.5835 0.279648 0
M  V30 1013 O 103.664 1.74088 0.0623488 0
M  V30 1014 C 100.796 3.40899 0.00954234 0
M  V30 1015 H 101.989 2.54853 -1.58081 0
M  V30 1016 H 99.5418 1.30808 -0.855516 0
M  V30 1017 H 100.277 3.10684 0.929826 0
M  V30 1018 H 100.062 3.86233 -0.67573 0
M  V30 1019 H 101.552 4.1675 0.266245 0
M  V30 1020 N 101.989 0.842826 1.3317 0
M  V30 1021 C 103.214 0.453129 2.02389 0
M  V30 1022 C 103.639 -0.939105 1.6298 0
M  V30 1023 O 102.997 -1.61472 0.8244 0
M  V30 1024 C 103.045 0.586094 3.55805 0
M  V30 1025 O 102.149 -0.386029 4.10589 0
M  V30 1026 H 101.49 0.183664 0.638094 0
M  V30 1027 H 104.02 1.13875 1.69981 0
M  V30 1028 H 104.03 0.469209 4.05293 0
M  V30 1029 H 102.705 1.6014 3.83833 0
M  V30 1030 H 101.282 -0.226371 3.72212 0
M  V30 1031 N 103.467 -1.45747 0.599634 0
M  V30 1032 C 104.716 -2.01502 0.0893511 0
M  V30 1033 C 105.029 -1.4748 -1.28488 0
M  V30 1034 O 106.235 -1.95161 -1.88745 0
M  V30 1035 C 104.691 -3.59735 0.109082 0
M  V30 1036 C 104.299 -4.22754 1.48267 0
M  V30 1037 C 106.043 -4.23085 -0.346374 0
M  V30 1038 C 103.95 -5.73115 1.45921 0
M  V30 1039 H 102.88 -0.753417 0.0296347 0
M  V30 1040 H 105.531 -1.67303 0.753788 0
M  V30 1041 H 103.913 -3.91087 -0.621854 0
M  V30 1042 H 105.087 -4.02987 2.23468 0
M  V30 1043 H 103.402 -3.71567 1.87955 0
M  V30 1044 H 105.999 -5.33327 -0.38298 0
M  V30 1045 H 106.342 -3.93201 -1.36743 0
M  V30 1046 H 106.875 -3.9642 0.331038 0
M  V30 1047 H 103.614 -6.07685 2.45762 0
M  V30 1048 H 103.134 -5.95097 0.749665 0
M  V30 1049 H 104.813 -6.3616 1.17941 0
M  V30 1050 N 104.945 -0.338344 -1.53925 0
M  V30 1051 C 105.893 0.536231 -2.26335 0
M  V30 1052 C 106.887 1.1063 -1.28286 0
M  V30 1053 O 108.093 1.05264 -1.46012 0
M  V30 1054 H 104.468 0.191602 -0.727181 0
M  V30 1055 H 106.439 -0.0965747 -2.98244 0
M  V30 1056 C 105.188 1.67803 -3.04528 0
M  V30 1057 H 104.511 1.24864 -3.79801 0
M  V30 1058 H 105.951 2.26526 -3.58416 0
M  V30 1059 C 104.41 2.60439 -2.13712 0
M  V30 1060 O 104.94 3.6255 -1.72975 0
M  V30 1061 N 103.146 2.29006 -1.78898 0
M  V30 1062 H 102.693 1.46011 -2.12223 0
M  V30 1063 H 102.651 2.91248 -1.18416 0
M  V30 1064 N 106.423 1.57458 -0.0668435 0
M  V30 1065 C 107.672 1.92477 0.602947 0
M  V30 1066 C 107.985 0.948419 1.71068 0
M  V30 1067 O 109.191 1.19124 2.43971 0
M  V30 1068 C 107.647 3.41903 1.12383 0
M  V30 1069 C 107.255 4.47975 0.04737 0
M  V30 1070 C 108.999 3.85931 1.76797 0
M  V30 1071 C 106.906 5.88529 0.582022 0
M  V30 1072 H 105.836 0.718387 0.22899 0
M  V30 1073 H 108.487 1.82978 -0.138276 0
M  V30 1074 H 106.869 3.46459 1.91787 0
M  V30 1075 H 108.043 4.55029 -0.726978 0
M  V30 1076 H 106.358 4.13384 -0.500243 0
M  V30 1077 H 108.955 4.88322 2.17821 0
M  V30 1078 H 109.298 3.23029 2.62599 0
M  V30 1079 H 109.831 3.83958 1.04024 0
M  V30 1080 H 106.57 6.55065 -0.238721 0
M  V30 1081 H 106.09 5.85004 1.324 0
M  V30 1082 H 107.769 6.38258 1.05999 0
M  V30 1083 N 107.901 -0.206675 1.56239 0
M  V30 1084 C 109.129 -0.945345 1.8404 0
M  V30 1085 C 109.544 -1.77336 0.647885 0
M  V30 1086 O 108.901 -1.78425 -0.383511 0
M  V30 1087 C 108.952 -1.8509 3.10522 0
M  V30 1088 O 108.673 -1.05634 4.25174 0
M  V30 1089 C 110.174 -2.70222 3.51418 0
M  V30 1090 H 107.394 -0.276372 0.61144 0
M  V30 1091 H 109.938 -0.217417 2.03341 0
M  V30 1092 H 108.093 -2.53259 2.93153 0
M  V30 1093 H 108.507 -1.67238 4.97124 0
M  V30 1094 H 109.981 -3.29438 4.42916 0
M  V30 1095 H 110.458 -3.43358 2.73864 0
M  V30 1096 H 111.064 -2.07443 3.71278 0
M  V30 1097 N 109.379 -1.50304 -0.473955 0
M  V30 1098 C 110.656 -1.51667 -1.23518 0
M  V30 1099 C 111.036 -0.259701 -2.09496 0
M  V30 1100 O 110.384 0.756986 -2.15597 0
M  V30 1101 C 110.594 -2.81082 -2.06868 0
M  V30 1102 C 111.942 -3.31631 -2.65153 0
M  V30 1103 O 112.966 -2.82384 -2.17113 0
M  V30 1104 O 111.825 -4.17471 -3.52675 0
M  V30 1105 H 108.919 -0.60822 -0.560355 0
M  V30 1106 H 111.465 -1.62592 -0.486011 0
M  V30 1107 H 110.237 -3.64041 -1.4349 0
M  V30 1108 H 109.86 -2.73146 -2.88924 0
M  V30 1109 N 110.857 0.726932 -1.39834 0
M  V30 1110 C 112.106 1.48214 -1.36805 0
M  V30 1111 C 112.419 1.95576 0.0305291 0
M  V30 1112 O 113.625 2.7088 0.183417 0
M  V30 1113 C 112.081 2.67854 -2.40379 0
M  V30 1114 C 111.689 2.27408 -3.85992 0
M  V30 1115 C 113.433 3.45641 -2.46439 0
M  V30 1116 C 111.34 3.43819 -4.81189 0
M  V30 1117 H 110.27 0.556606 -0.508631 0
M  V30 1118 H 112.921 0.792216 -1.65518 0
M  V30 1119 H 111.303 3.3896 -2.04749 0
M  V30 1120 H 112.477 1.63795 -4.30706 0
M  V30 1121 H 110.792 1.62692 -3.83302 0
M  V30 1122 H 113.389 4.32244 -3.14753 0
M  V30 1123 H 113.732 3.88669 -1.49139 0
M  V30 1124 H 114.265 2.8157 -2.81004 0
M  V30 1125 H 111.004 3.05834 -5.79781 0
M  V30 1126 H 110.524 4.06385 -4.41148 0
M  V30 1127 H 112.203 4.10043 -5.00474 0
M  V30 1128 N 112.336 1.25143 0.95797 0
M  V30 1129 C 113.561 1.12521 1.74223 0
M  V30 1130 C 113.986 -0.317402 1.85403 0
M  V30 1131 O 113.344 -1.2299 1.33204 0
M  V30 1132 C 113.392 1.78062 3.1357 0
M  V30 1133 O 112.496 1.058 3.98598 0
M  V30 1134 H 111.837 0.39304 0.535178 0
M  V30 1135 H 114.367 1.65641 1.201 0
M  V30 1136 H 114.377 1.84213 3.64046 0
M  V30 1137 H 113.052 2.83021 3.04749 0
M  V30 1138 H 111.629 1.07506 3.57067 0
M  V30 1139 N 113.814 -1.1601 1.06675 0
M  V30 1140 C 115.23 -1.38622 0.790948 0
M  V30 1141 C 115.43 -1.92109 -0.607965 0
M  V30 1142 O 114.486 -2.12239 -1.36787 0
M  V30 1143 C 115.799 -2.36347 1.85905 0
M  V30 1144 C 117.347 -2.50023 1.88301 0
M  V30 1145 C 117.822 -3.51033 2.94176 0
M  V30 1146 N 119.313 -3.58563 2.93235 0
M  V30 1147 C 120.048 -4.36521 3.71803 0
M  V30 1148 N 119.544 -5.17869 4.602 0
M  V30 1149 N 121.337 -4.31541 3.60178 0
M  V30 1150 H 113.488 -0.796294 1.96908 0
M  V30 1151 H 115.751 -0.412597 0.853503 0
M  V30 1152 H 115.457 -2.04147 2.86386 0
M  V30 1153 H 115.331 -3.36042 1.71334 0
M  V30 1154 H 117.718 -2.81524 0.884769 0
M  V30 1155 H 117.799 -1.5035 2.06951 0
M  V30 1156 H 117.443 -3.20268 3.94196 0
M  V30 1157 H 117.373 -4.50445 2.72776 0
M  V30 1158 H 119.864 -3.00496 2.29152 0
M  V30 1159 H 120.177 -5.74578 5.16797 0
M  V30 1160 H 118.522 -5.17199 4.64253 0
M  V30 1161 H 121.713 -3.67051 2.90502 0
M  V30 1162 H 121.886 -4.9205 4.21653 0
M  V30 1163 N 115.292 -0.849877 -1.32721 0
M  V30 1164 C 116.24 -0.279745 -2.30912 0
M  V30 1165 C 117.234 0.594278 -1.58634 0
M  V30 1166 O 118.44 0.482613 -1.73409 0
M  V30 1167 H 114.815 -0.0717521 -0.748569 0
M  V30 1168 H 116.786 -1.12222 -2.76494 0
M  V30 1169 C 115.535 0.521108 -3.43773 0
M  V30 1170 H 114.858 -0.142141 -3.99547 0
M  V30 1171 H 116.298 0.885693 -4.14646 0
M  V30 1172 C 114.757 1.70442 -2.90605 0
M  V30 1173 O 115.287 2.8034 -2.87702 0
M  V30 1174 N 113.493 1.52991 -2.47067 0
M  V30 1175 H 113.04 0.635914 -2.49628 0
M  V30 1176 H 112.998 2.32311 -2.11847 0
M  V30 1177 N 116.77 1.45427 -0.607355 0
M  V30 1178 C 118.019 2.01452 -0.100036 0
M  V30 1179 C 118.332 1.48159 1.27704 0
M  V30 1180 O 119.538 1.96159 1.87707 0
M  V30 1181 C 117.994 3.59672 -0.128158 0
M  V30 1182 C 117.602 4.21962 -1.50507 0
M  V30 1183 C 119.346 4.23262 0.323932 0
M  V30 1184 C 117.253 5.72333 -1.48959 0
M  V30 1185 H 116.183 0.75325 -0.0336299 0
M  V30 1186 H 118.834 1.66901 -0.76265 0
M  V30 1187 H 117.216 3.91411 0.601105 0
M  V30 1188 H 118.39 4.01796 -2.25602 0
M  V30 1189 H 116.705 3.70565 -1.89923 0
M  V30 1190 H 119.302 5.33522 0.354691 0
M  V30 1191 H 119.645 3.93921 1.34656 0
M  V30 1192 H 120.178 3.96239 -0.352056 0
M  V30 1193 H 116.917 6.06373 -2.48981 0
M  V30 1194 H 116.437 5.94691 -0.781214 0
M  V30 1195 H 118.116 6.35525 -1.21313 0
M  V30 1196 N 118.248 0.346503 1.53744 0
M  V30 1197 C 119.476 -0.25041 2.05379 0
M  V30 1198 C 119.891 -1.43979 1.22129 0
M  V30 1199 O 119.248 -1.80677 0.257321 0
M  V30 1200 C 119.299 -0.662575 3.55376 0
M  V30 1201 O 119.02 0.479515 4.35468 0
M  V30 1202 C 120.521 -1.31989 4.23195 0
M  V30 1203 H 117.741 -0.0478198 0.669294 0
M  V30 1204 H 120.285 0.499346 1.9831 0
M  V30 1205 H 118.44 -1.36227 3.62658 0
M  V30 1206 H 118.854 0.15037 5.24284 0
M  V30 1207 H 120.328 -1.55902 5.29527 0
M  V30 1208 H 120.805 -2.27436 3.75725 0
M  V30 1209 H 121.411 -0.662154 4.20114 0
M  V30 1210 N 119.726 -1.57421 0.075193 0
M  V30 1211 C 120.951 -1.98364 -0.605515 0
M  V30 1212 C 121.376 -0.953383 -1.62149 0
M  V30 1213 O 120.734 0.0806053 -1.81121 0
M  V30 1214 C 120.782 -3.38332 -1.24756 0
M  V30 1215 O 119.886 -3.37959 -2.36342 0
M  V30 1216 H 119.227 -0.645553 -0.155428 0
M  V30 1217 H 121.757 -2.04044 0.150714 0
M  V30 1218 H 121.767 -3.75591 -1.5936 0
M  V30 1219 H 120.442 -4.12846 -0.503129 0
M  V30 1220 H 119.019 -3.12474 -2.03506 0
M  V30 1221 N 121.204 0.198386 -1.56346 0
M  V30 1222 C 122.453 0.917451 -1.79627 0
M  V30 1223 C 122.766 1.8456 -0.64784 0
M  V30 1224 O 123.972 2.60504 -0.764859 0
M  V30 1225 C 122.428 1.68175 -3.18191 0
M  V30 1226 C 122.036 0.798589 -4.40825 0
M  V30 1227 C 123.78 2.39065 -3.50782 0
M  V30 1228 C 121.687 1.56157 -5.70411 0
M  V30 1229 H 120.617 0.346317 -0.669762 0
M  V30 1230 H 123.268 0.170801 -1.82703 0
M  V30 1231 H 121.65 2.47216 -3.09354 0
M  V30 1232 H 122.824 0.0470665 -4.60776 0
M  V30 1233 H 121.139 0.200686 -4.15916 0
M  V30 1234 H 123.736 2.96692 -4.44835 0
M  V30 1235 H 124.079 3.13091 -2.74371 0
M  V30 1236 H 124.612 1.66993 -3.61052 0
M  V30 1237 H 121.351 0.864142 -6.49779 0
M  V30 1238 H 120.871 2.2871 -5.54483 0
M  V30 1239 H 122.55 2.11622 -6.11412 0
M  V30 1240 N 122.682 1.50554 0.465978 0
M  V30 1241 C 123.632 1.66177 1.56106 0
M  V30 1242 C 124.616 0.516265 1.52393 0
M  V30 1243 O 125.808 0.770906 1.5933 0
M  V30 1244 C 122.937 1.76396 2.94515 0
M  V30 1245 C 122.023 2.9664 3.03093 0
M  V30 1246 N 122.414 4.20245 2.81474 0
M  V30 1247 C 120.712 2.95304 3.34233 0
M  V30 1248 C 121.413 5.01259 2.95151 0
M  V30 1249 N 120.389 4.35318 3.25576 0
M  V30 1250 H 124.191 2.59434 1.38099 0
M  V30 1251 H 121.705 1.47808 0.6728 0
M  V30 1252 H 123.702 1.85694 3.73261 0
M  V30 1253 H 122.362 0.843017 3.13565 0
M  V30 1254 H 123.373 4.4966 2.56956 0
M  V30 1255 H 120.05 2.12729 3.59239 0
M  V30 1256 H 121.44 6.09564 2.82632 0
M  V30 1257 N 124.16 -0.719506 1.40217 0
M  V30 1258 C 125.409 -1.47486 1.37589 0
M  V30 1259 C 125.722 -1.9559 -0.0201568 0
M  V30 1260 O 126.928 -2.70973 -0.169049 0
M  V30 1261 C 125.384 -2.66575 2.41796 0
M  V30 1262 C 124.992 -2.25358 3.87192 0
M  V30 1263 C 126.736 -3.4433 2.48269 0
M  V30 1264 C 124.643 -3.41262 4.83005 0
M  V30 1265 H 123.573 -0.553901 0.511576 0
M  V30 1266 H 126.224 -0.783427 1.65936 0
M  V30 1267 H 124.606 -3.3787 2.06543 0
M  V30 1268 H 125.78 -1.61509 4.31569 0
M  V30 1269 H 124.095 -1.60657 3.84159 0
M  V30 1270 H 126.692 -4.30569 3.17041 0
M  V30 1271 H 127.035 -3.87872 1.51198 0
M  V30 1272 H 127.568 -2.80076 2.82493 0
M  V30 1273 H 124.307 -3.02755 5.81394 0
M  V30 1274 H 123.827 -4.0404 4.43297 0
M  V30 1275 H 125.506 -4.07383 5.02641 0
M  V30 1276 N 125.638 -1.25649 -0.95132 0
M  V30 1277 C 126.548 -1.08073 -2.08224 0
M  V30 1278 C 127.564 -0.0169666 -1.73992 0
M  V30 1279 O 128.74 -0.218593 -2.0021 0
M  V30 1280 C 125.805 -0.704922 -3.39458 0
M  V30 1281 C 124.866 -1.84699 -3.87537 0
M  V30 1282 C 124.099 -1.48902 -5.12508 0
M  V30 1283 O 124.322 -0.386156 -5.69091 0
M  V30 1284 O 123.256 -2.32033 -5.55378 0
M  V30 1285 H 127.082 -2.02924 -2.25954 0
M  V30 1286 H 124.667 -1.04618 -1.06656 0
M  V30 1287 H 126.549 -0.507609 -4.18332 0
M  V30 1288 H 125.224 0.214291 -3.2299 0
M  V30 1289 H 124.131 -2.09919 -3.09653 0
M  V30 1290 H 125.464 -2.74557 -4.08509 0
M  V30 1291 N 127.117 1.15442 -1.07289 0
M  V30 1292 C 128.065 2.22225 -0.686952 0
M  V30 1293 C 129.059 1.66688 0.30193 0
M  V30 1294 O 130.265 1.79236 0.165712 0
M  V30 1295 H 126.64 0.723783 -0.204064 0
M  V30 1296 H 128.611 2.52056 -1.5972 0
M  V30 1297 C 127.36 3.47556 -0.100149 0
M  V30 1298 H 126.683 3.90612 -0.852211 0
M  V30 1299 H 128.123 4.23794 0.132235 0
M  V30 1300 C 126.582 3.16337 1.159 0
M  V30 1301 O 127.112 3.33074 2.24555 0
M  V30 1302 N 125.318 2.70385 1.06491 0
M  V30 1303 H 124.865 2.56966 0.180668 0
M  V30 1304 H 124.823 2.49871 1.90819 0
M  V30 1305 N 128.595 0.856903 1.32268 0
M  V30 1306 C 129.841 0.471355 1.97863 0
M  V30 1307 C 130.196 -0.962896 1.66572 0
M  V30 1308 O 129.489 -1.66686 0.944797 0
M  V30 1309 C 129.683 0.649919 3.51441 0
M  V30 1310 C 129.512 2.09997 3.97657 0
M  V30 1311 C 128.282 2.73893 4.2463 0
M  V30 1312 C 130.48 3.07081 4.1256 0
M  V30 1313 N 128.462 4.09786 4.57109 0
M  V30 1314 C 129.833 4.27968 4.48602 0
M  V30 1315 C 131.888 3.03247 3.949 0
M  V30 1316 C 130.591 5.45521 4.68827 0
M  V30 1317 C 132.617 4.20046 4.16311 0
M  V30 1318 C 131.979 5.39692 4.52672 0
M  V30 1319 H 128.078 0.221263 0.750044 0
M  V30 1320 H 130.662 1.10876 1.60045 0
M  V30 1321 H 128.833 0.0421938 3.88377 0
M  V30 1322 H 130.565 0.234044 4.04023 0
M  V30 1323 H 127.32 2.24918 4.16784 0
M  V30 1324 H 127.744 4.7989 4.7753 0
M  V30 1325 H 132.386 2.11863 3.65888 0
M  V30 1326 H 130.104 6.37434 4.96693 0
M  V30 1327 H 133.69 4.18517 4.04147 0
M  V30 1328 H 132.57 6.28566 4.68907 0
M  V30 1329 N 130.073 -1.45103 0.615059 0
M  V30 1330 C 131.489 -1.57137 0.279322 0
M  V30 1331 C 131.689 -1.60523 -1.21797 0
M  V30 1332 O 130.745 -1.53956 -2.00134 0
M  V30 1333 C 132.058 -2.85062 0.957083 0
M  V30 1334 C 133.606 -2.98749 0.933706 0
M  V30 1335 C 134.081 -4.29455 1.59162 0
M  V30 1336 N 135.572 -4.36231 1.55746 0
M  V30 1337 C 136.307 -5.36051 2.0356 0
M  V30 1338 N 135.803 -6.42367 2.59494 0
M  V30 1339 N 137.596 -5.27456 1.94284 0
M  V30 1340 H 129.747 -1.41148 1.58717 0
M  V30 1341 H 132.01 -0.675331 0.665306 0
M  V30 1342 H 131.716 -2.88488 2.01166 0
M  V30 1343 H 131.59 -3.7407 0.48494 0
M  V30 1344 H 133.977 -2.94886 -0.112347 0
M  V30 1345 H 134.058 -2.11132 1.44419 0
M  V30 1346 H 133.702 -4.34077 2.63704 0
M  V30 1347 H 133.632 -5.15901 1.0561 0
M  V30 1348 H 136.123 -3.60011 1.14893 0
M  V30 1349 H 136.436 -7.14793 2.93752 0
M  V30 1350 H 134.781 -6.43097 2.63537 0
M  V30 1351 H 137.972 -4.43308 1.5032 0
M  V30 1352 H 138.145 -6.05099 2.3186 0
M  V30 1353 N 131.551 -0.354651 -1.53558 0
M  V30 1354 C 132.776 0.242153 -2.05981 0
M  V30 1355 C 133.201 1.42553 -1.2272 0
M  V30 1356 O 132.559 1.79656 -0.243604 0
M  V30 1357 C 132.607 0.624367 -3.55154 0
M  V30 1358 O 131.711 1.72301 -3.74681 0
M  V30 1359 H 131.052 0.0378432 -0.662921 0
M  V30 1360 H 133.582 -0.512087 -1.98088 0
M  V30 1361 H 133.592 0.898433 -3.97985 0
M  V30 1362 H 132.267 -0.240989 -4.15201 0
M  V30 1363 H 130.844 1.44535 -3.4375 0
M  V30 1364 N 133.029 1.57378 -0.0835403 0
M  V30 1365 C 133.959 2.1641 0.87686 0
M  V30 1366 C 134.94 1.09429 1.30228 0
M  V30 1367 O 136.125 1.37516 1.37124 0
M  V30 1368 C 133.255 2.73517 2.14022 0
M  V30 1369 C 132.209 3.85769 1.85381 0
M  V30 1370 C 131.535 4.29529 3.18448 0
M  V30 1371 C 132.835 5.09486 1.14984 0
M  V30 1372 H 134.529 2.96914 0.385059 0
M  V30 1373 H 132.075 1.42823 0.18377 0
M  V30 1374 H 134.028 3.13463 2.81636 0
M  V30 1375 H 132.752 1.90252 2.65465 0
M  V30 1376 H 131.411 3.46345 1.20169 0
M  V30 1377 H 131.059 3.43169 3.67755 0
M  V30 1378 H 130.759 5.05204 3.00071 0
M  V30 1379 H 132.283 4.72099 3.8724 0
M  V30 1380 H 133.697 5.46674 1.72687 0
M  V30 1381 H 132.094 5.90515 1.06826 0
M  V30 1382 H 133.164 4.84724 0.130749 0
M  V30 1383 N 134.507 -0.190092 1.56449 0
M  V30 1384 C 135.457 -1.23977 1.91347 0
M  V30 1385 C 136.441 -1.40747 0.779693 0
M  V30 1386 O 137.633 -1.43033 1.04262 0
M  V30 1387 C 134.762 -2.58347 2.26079 0
M  V30 1388 C 133.848 -2.4535 3.45925 0
M  V30 1389 N 134.239 -2.02039 4.63696 0
M  V30 1390 C 132.537 -2.76229 3.50162 0
M  V30 1391 C 133.238 -2.01053 5.4585 0
M  V30 1392 N 132.214 -2.42747 4.8639 0
M  V30 1393 H 136.016 -0.896318 2.79899 0
M  V30 1394 H 133.53 -0.398496 1.57435 0
M  V30 1395 H 135.527 -3.34173 2.49267 0
M  V30 1396 H 134.187 -2.93512 1.38856 0
M  V30 1397 H 135.198 -1.7267 4.88268 0
M  V30 1398 H 131.875 -3.15556 2.73369 0
M  V30 1399 H 133.265 -1.69426 6.50188 0
M  V30 1400 N 135.985 -1.50799 -0.457987 0
M  V30 1401 C 137.213 -1.66218 -1.23203 0
M  V30 1402 C 137.628 -0.350894 -1.85511 0
M  V30 1403 O 136.985 0.668546 -1.69814 0
M  V30 1404 C 137.036 -2.76291 -2.33121 0
M  V30 1405 O 136.757 -4.02338 -1.73366 0
M  V30 1406 C 138.258 -3.028 -3.2377 0
M  V30 1407 H 135.478 -0.558361 -0.372121 0
M  V30 1408 H 138.022 -1.97099 -0.545179 0
M  V30 1409 H 136.177 -2.48068 -2.97558 0
M  V30 1410 H 136.591 -4.63312 -2.4585 0
M  V30 1411 H 138.065 -3.8345 -3.97077 0
M  V30 1412 H 138.542 -2.14385 -3.83322 0
M  V30 1413 H 139.148 -3.32604 -2.65056 0
M  V30 1414 N 137.463 0.71206 -1.40597 0
M  V30 1415 C 138.393 1.83889 -1.43899 0
M  V30 1416 C 139.374 1.67442 -0.299504 0
M  V30 1417 O 140.559 1.87421 -0.508624 0
M  V30 1418 C 137.689 3.21877 -1.30431 0
M  V30 1419 C 136.643 3.53002 -2.42019 0
M  V30 1420 C 135.969 4.90172 -2.13626 0
M  V30 1421 C 137.269 3.53643 -3.84362 0
M  V30 1422 H 138.963 1.81383 -2.38203 0
M  V30 1423 H 136.509 0.871237 -1.14654 0
M  V30 1424 H 138.462 4.00404 -1.31357 0
M  V30 1425 H 137.186 3.24968 -0.326049 0
M  V30 1426 H 135.845 2.76818 -2.40349 0
M  V30 1427 H 135.493 4.89869 -1.14182 0
M  V30 1428 H 135.193 5.11962 -2.88389 0
M  V30 1429 H 136.717 5.71028 -2.1624 0
M  V30 1430 H 138.131 4.22203 -3.87837 0
M  V30 1431 H 136.528 3.86961 -4.58673 0
M  V30 1432 H 137.598 2.52954 -4.13693 0
M  V30 1433 N 138.941 1.26152 0.944643 0
M  V30 1434 C 139.889 1.07215 2.06417 0
M  V30 1435 C 140.883 9.2007e-05 1.694 0
M  V30 1436 O 142.089 0.1565 1.79318 0
M  V30 1437 H 138.464 0.329837 0.675805 0
M  V30 1438 H 140.435 2.02099 2.19541 0
M  V30 1439 C 139.184 0.718197 3.40202 0
M  V30 1440 H 138.507 1.53497 3.69159 0
M  V30 1441 H 139.947 0.625459 4.19361 0
M  V30 1442 C 138.406 -0.576435 3.31932 0
M  V30 1443 O 138.936 -1.61574 3.67773 0
M  V30 1444 N 137.142 -0.565781 2.85039 0
M  V30 1445 H 136.689 0.280367 2.5607 0
M  V30 1446 H 136.647 -1.43213 2.79888 0
M  V30 1447 N 140.419 -1.14872 1.07899 0
M  V30 1448 C 141.382 -2.17986 0.708161 0
M  V30 1449 C 142.382 -1.58775 -0.25442 0
M  V30 1450 O 143.572 -1.74166 -0.034645 0
M  V30 1451 C 140.704 -3.40871 0.0446929 0
M  V30 1452 H 141.897 -2.52306 1.62116 0
M  V30 1453 H 139.45 -1.2943 0.876218 0
M  V30 1454 H 140.185 -3.12124 -0.880281 0
M  V30 1455 H 139.97 -3.8511 0.737091 0
M  V30 1456 H 141.46 -4.17121 -0.19991 0
M  V30 1457 N 141.898 -0.863906 -1.31812 0
M  V30 1458 C 143.144 -0.472535 -1.97218 0
M  V30 1459 C 143.477 0.971394 -1.68159 0
M  V30 1460 O 142.752 1.68309 -0.974798 0
M  V30 1461 C 143.035 -0.723054 -3.52766 0
M  V30 1462 C 142.888 -2.21608 -3.91421 0
M  V30 1463 C 144.207 -0.185522 -4.39709 0
M  V30 1464 H 141.326 -0.173158 -0.71637 0
M  V30 1465 H 143.968 -1.08403 -1.56041 0
M  V30 1466 H 142.118 -0.202577 -3.87971 0
M  V30 1467 H 143.79 -2.80334 -3.66347 0
M  V30 1468 H 142.033 -2.691 -3.40246 0
M  V30 1469 H 142.704 -2.34203 -4.99853 0
M  V30 1470 H 145.18 -0.630726 -4.11292 0
M  V30 1471 H 144.056 -0.390306 -5.47511 0
M  V30 1472 H 144.317 0.912229 -4.32586 0
M  V30 1473 N 143.376 1.44774 -0.622745 0
M  V30 1474 C 144.653 1.95522 -0.0551974 0
M  V30 1475 C 145.033 1.5649 1.41683 0
M  V30 1476 O 144.381 0.834848 2.12703 0
M  V30 1477 C 144.591 3.4796 -0.269242 0
M  V30 1478 C 145.939 4.24306 -0.158014 0
M  V30 1479 O 146.963 3.55637 -0.200162 0
M  V30 1480 O 145.822 5.46471 -0.0558693 0
M  V30 1481 H 142.916 0.826556 0.0271015 0
M  V30 1482 H 145.462 1.54866 -0.693864 0
M  V30 1483 H 144.234 3.6939 -1.29099 0
M  V30 1484 H 143.857 3.95543 0.403966 0
M  V30 1485 N 144.854 0.36279 1.53368 0
M  V30 1486 C 145.787 -0.528507 2.21996 0
M  V30 1487 C 146.765 -1.0852 1.21087 0
M  V30 1488 O 147.949 -1.14186 1.4998 0
M  V30 1489 C 145.076 -1.72893 2.91249 0
M  V30 1490 C 144.122 -1.29994 4.06207 0
M  V30 1491 S 144.955 -0.303575 5.34639 0
M  V30 1492 C 146.111 -1.51039 6.07403 0
M  V30 1493 H 146.344 0.0543423 2.9725 0
M  V30 1494 H 143.877 0.146889 1.537 0
M  V30 1495 H 145.835 -2.41751 3.31763 0
M  V30 1496 H 144.496 -2.28303 2.15724 0
M  V30 1497 H 143.689 -2.19549 4.53667 0
M  V30 1498 H 143.291 -0.690608 3.67569 0
M  V30 1499 H 145.583 -2.44186 6.31965 0
M  V30 1500 H 146.526 -1.07721 6.99858 0
M  V30 1501 H 146.934 -1.71518 5.37812 0
M  V30 1502 N 146.332 -1.57332 0.0918853 0
M  V30 1503 C 147.242 -2.17368 -0.882505 0
M  V30 1504 C 148.258 -1.14226 -1.31257 0
M  V30 1505 O 149.434 -1.46582 -1.38115 0
M  V30 1506 C 146.499 -2.73962 -2.12476 0
M  V30 1507 C 145.56 -3.92048 -1.7492 0
M  V30 1508 C 144.793 -4.45933 -2.93223 0
M  V30 1509 O 145.016 -3.98764 -4.07852 0
M  V30 1510 O 143.95 -5.36999 -2.71875 0
M  V30 1511 H 147.776 -3.01031 -0.40172 0
M  V30 1512 H 145.361 -1.48813 -0.132291 0
M  V30 1513 H 147.243 -3.10147 -2.85283 0
M  V30 1514 H 145.918 -1.93347 -2.59613 0
M  V30 1515 H 144.825 -3.6068 -0.993025 0
M  V30 1516 H 146.158 -4.74017 -1.32548 0
M  V30 1517 N 147.81 0.181792 -1.56548 0
M  V30 1518 C 148.74 1.22765 -1.98623 0
M  V30 1519 C 149.721 1.46747 -0.860189 0
M  V30 1520 O 150.906 1.58259 -1.12551 0
M  V30 1521 C 148.036 2.56894 -2.33715 0
M  V30 1522 C 146.99 2.475 -3.49182 0
M  V30 1523 C 146.316 3.86023 -3.69986 0
M  V30 1524 C 147.616 1.98866 -4.82959 0
M  V30 1525 H 149.31 0.877942 -2.86239 0
M  V30 1526 H 146.856 0.42088 -1.37712 0
M  V30 1527 H 148.809 3.30253 -2.61746 0
M  V30 1528 H 147.533 2.93632 -1.42997 0
M  V30 1529 H 146.192 1.76596 -3.21262 0
M  V30 1530 H 145.84 4.20136 -2.76576 0
M  V30 1531 H 145.54 3.80609 -4.47672 0
M  V30 1532 H 147.064 4.60984 -4.00407 0
M  V30 1533 H 148.478 2.61992 -5.09934 0
M  V30 1534 H 146.875 2.04424 -5.64208 0
M  V30 1535 H 147.945 0.942465 -4.75653 0
M  V30 1536 N 149.288 1.51039 0.449983 0
M  V30 1537 C 150.518 1.66627 1.22143 0
M  V30 1538 C 150.926 0.357776 1.85786 0
M  V30 1539 O 150.269 -0.672424 1.70951 0
M  V30 1540 C 150.331 2.71562 2.35573 0
M  V30 1541 C 149.995 4.14526 1.92399 0
M  V30 1542 C 150.992 4.99717 1.43453 0
M  V30 1543 C 148.677 4.60559 2.00475 0
M  V30 1544 C 150.671 6.28998 1.03155 0
M  V30 1545 C 148.358 5.8984 1.59788 0
M  V30 1546 C 149.356 6.73886 1.11208 0
M  V30 1547 O 149.044 8.0075 0.710935 0
M  V30 1548 H 148.776 0.562635 0.374724 0
M  V30 1549 H 151.33 1.98146 0.541036 0
M  V30 1550 H 149.56 2.3533 3.06849 0
M  V30 1551 H 151.249 2.76156 2.97478 0
M  V30 1552 H 152.015 4.65361 1.36618 0
M  V30 1553 H 147.894 3.95273 2.37235 0
M  V30 1554 H 151.438 6.9455 0.651663 0
M  V30 1555 H 147.335 6.23713 1.66289 0
M  V30 1556 H 148.103 8.142 0.837913 0
M  V30 1557 N 150.766 -0.704594 1.40972 0
M  V30 1558 C 151.994 -1.49354 1.43182 0
M  V30 1559 C 152.409 -1.88768 0.0345508 0
M  V30 1560 O 151.766 -1.56184 -0.944081 0
M  V30 1561 C 151.817 -2.76187 2.33244 0
M  V30 1562 O 151.538 -2.38436 3.67532 0
M  V30 1563 C 153.039 -3.7 2.44162 0
M  V30 1564 H 150.259 -0.460559 0.487982 0
M  V30 1565 H 152.803 -0.868261 1.85153 0
M  V30 1566 H 150.958 -3.34974 1.94606 0
M  V30 1567 H 151.372 -3.20126 4.15475 0
M  V30 1568 H 152.846 -4.55803 3.11364 0
M  V30 1569 H 153.323 -4.13867 1.47006 0
M  V30 1570 H 153.929 -3.17121 2.83398 0
M  V30 1571 N 152.244 -1.26651 -0.937939 0
M  V30 1572 C 153.492 -1.12165 -1.68118 0
M  V30 1573 C 153.813 0.334983 -1.92101 0
M  V30 1574 O 153.083 1.23583 -1.52 0
M  V30 1575 H 151.663 -0.412093 -0.623048 0
M  V30 1576 H 154.325 -1.59027 -1.12678 0
M  V30 1577 H 153.421 -1.64289 -2.6536 0
M  V30 1578 N 153.722 1.14298 -1.08507 0
M  V30 1579 C 154.652 2.21542 -0.737646 0
M  V30 1580 C 155.633 1.67773 0.280377 0
M  V30 1581 O 156.818 1.93616 0.150521 0
M  V30 1582 C 153.948 3.46988 -0.147259 0
M  V30 1583 C 152.902 4.13789 -1.09374 0
M  V30 1584 C 152.228 5.33449 -0.365524 0
M  V30 1585 C 153.528 4.62208 -2.4323 0
M  V30 1586 H 155.222 2.5086 -1.6343 0
M  V30 1587 H 152.768 1.20576 -0.787243 0
M  V30 1588 H 154.721 4.21262 0.107808 0
M  V30 1589 H 153.445 3.17037 0.784538 0
M  V30 1590 H 152.104 3.4147 -1.33393 0
M  V30 1591 H 151.752 4.99759 0.57011 0
M  V30 1592 H 151.452 5.79088 -0.996512 0
M  V30 1593 H 152.976 6.10485 -0.118534 0
M  V30 1594 H 154.39 5.27952 -2.23472 0
M  V30 1595 H 152.787 5.18553 -3.02031 0
M  V30 1596 H 153.857 3.77224 -3.04681 0
M  V30 1597 N 155.201 0.870884 1.31352 0
M  V30 1598 C 156.133 0.28455 2.27427 0
M  V30 1599 C 157.146 -0.552927 1.53123 0
M  V30 1600 O 158.335 -0.374771 1.74521 0
M  V30 1601 C 155.435 -0.615164 3.3327 0
M  V30 1602 C 154.608 0.190079 4.36987 0
M  V30 1603 C 153.667 -0.637917 5.22319 0
M  V30 1604 O 152.693 -0.065626 5.69162 0
M  V30 1605 N 153.895 -1.94973 5.46778 0
M  V30 1606 H 156.66 1.11017 2.7838 0
M  V30 1607 H 154.221 0.732458 1.44384 0
M  V30 1608 H 156.213 -1.1748 3.87273 0
M  V30 1609 H 154.783 -1.34146 2.82354 0
M  V30 1610 H 154.003 0.931165 3.83044 0
M  V30 1611 H 155.291 0.742579 5.03352 0
M  V30 1612 H 154.689 -2.4378 5.10478 0
M  V30 1613 H 153.246 -2.45713 6.03712 0
M  V30 1614 N 156.679 -1.44442 0.630414 0
M  V30 1615 C 157.626 -2.30678 -0.0749355 0
M  V30 1616 C 158.596 -1.4344 -0.837502 0
M  V30 1617 O 159.781 -1.72343 -0.818684 0
M  V30 1618 C 156.921 -3.28706 -1.05103 0
M  V30 1619 C 156.034 -4.31046 -0.286954 0
M  V30 1620 C 155.169 -5.16167 -1.2548 0
M  V30 1621 C 154.208 -6.10216 -0.479843 0
M  V30 1622 N 153.345 -6.88039 -1.39811 0
M  V30 1623 H 158.185 -2.90454 0.666386 0
M  V30 1624 H 155.722 -1.43107 0.340404 0
M  V30 1625 H 157.68 -3.84027 -1.63031 0
M  V30 1626 H 156.31 -2.70632 -1.75949 0
M  V30 1627 H 155.362 -3.78203 0.408243 0
M  V30 1628 H 156.674 -4.97794 0.316657 0
M  V30 1629 H 155.828 -5.76002 -1.90544 0
M  V30 1630 H 154.567 -4.49491 -1.89233 0
M  V30 1631 H 153.572 -5.49491 0.184295 0
M  V30 1632 H 154.797 -6.78928 0.152965 0
M  V30 1633 H 152.743 -6.24032 -2.02287 0
M  V30 1634 H 152.66 -7.51223 -0.848508 0
M  V30 1635 H 153.928 -7.52397 -2.03762 0
M  V30 1636 N 158.157 -0.370918 -1.53173 0
M  V30 1637 C 159.087 0.464847 -2.28826 0
M  V30 1638 C 160.068 1.07936 -1.31468 0
M  V30 1639 O 161.253 1.0956 -1.60344 0
M  V30 1640 C 158.383 1.60196 -3.08147 0
M  V30 1641 C 157.337 1.11443 -4.13237 0
M  V30 1642 C 156.663 2.3422 -4.80672 0
M  V30 1643 C 157.963 0.195384 -5.21934 0
M  V30 1644 H 159.657 -0.166329 -2.98938 0
M  V30 1645 H 157.203 -0.0814359 -1.4377 0
M  V30 1646 H 159.156 2.19332 -3.59822 0
M  V30 1647 H 157.88 2.26045 -2.35735 0
M  V30 1648 H 156.539 0.545727 -3.62515 0
M  V30 1649 H 156.187 2.98537 -4.04827 0
M  V30 1650 H 155.887 2.02269 -5.51689 0
M  V30 1651 H 157.411 2.94032 -5.35143 0
M  V30 1652 H 158.825 0.694375 -5.69079 0
M  V30 1653 H 157.222 -0.0335027 -6.00091 0
M  V30 1654 H 158.292 -0.760961 -4.78892 0
M  V30 1655 N 159.635 1.57281 -0.100228 0
M  V30 1656 C 160.863 1.98879 0.570509 0
M  V30 1657 C 161.278 0.979476 1.61405 0
M  V30 1658 O 160.635 -0.0302288 1.82475 0
M  V30 1659 C 160.686 3.4052 1.2136 0
M  V30 1660 O 160.407 4.37588 0.211786 0
M  V30 1661 C 161.908 3.97149 1.96945 0
M  V30 1662 H 159.128 0.653428 0.152555 0
M  V30 1663 H 161.672 2.03697 -0.18103 0
M  V30 1664 H 159.827 3.367 1.91603 0
M  V30 1665 H 160.241 5.20118 0.676607 0
M  V30 1666 H 161.715 4.98393 2.37294 0
M  V30 1667 H 162.192 3.3525 2.83733 0
M  V30 1668 H 162.798 4.04458 1.31506 0
M  V30 1669 N 161.113 -0.173488 1.56642 0
M  V30 1670 C 162.362 -0.888758 1.81063 0
M  V30 1671 C 162.675 -1.83506 0.67712 0
M  V30 1672 O 163.881 -2.59254 0.806206 0
M  V30 1673 C 162.337 -1.63091 3.20826 0
M  V30 1674 C 161.945 -0.728357 4.4204 0
M  V30 1675 C 163.689 -2.33454 3.54541 0
M  V30 1676 C 161.596 -1.47062 5.72823 0
M  V30 1677 H 160.526 -0.335618 0.675186 0
M  V30 1678 H 163.177 -0.141712 1.82952 0
M  V30 1679 H 161.559 -2.42263 3.13248 0
M  V30 1680 H 162.733 0.0262449 4.60793 0
M  V30 1681 H 161.048 -0.134492 4.16183 0
M  V30 1682 H 163.645 -2.89578 4.49498 0
M  V30 1683 H 163.988 -3.08687 2.79317 0
M  V30 1684 H 164.521 -1.61227 3.63663 0
M  V30 1685 H 161.26 -0.760658 6.51072 0
M  V30 1686 H 160.78 -2.1986 5.58052 0
M  V30 1687 H 162.459 -2.01868 6.14702 0
M  V30 1688 N 162.591 -1.51276 -0.441967 0
M  V30 1689 C 163.538 -1.72256 -1.53612 0
M  V30 1690 C 164.508 -0.564164 -1.56225 0
M  V30 1691 O 165.693 -0.798074 -1.73307 0
M  V30 1692 C 162.833 -1.84932 -2.91366 0
M  V30 1693 C 161.946 -3.12459 -2.98317 0
M  V30 1694 C 161.081 -3.15758 -4.27166 0
M  V30 1695 C 160.12 -4.37619 -4.27967 0
M  V30 1696 N 159.257 -4.38493 -5.48333 0
M  V30 1697 H 164.097 -2.65654 -1.35026 0
M  V30 1698 H 161.634 -1.31662 -0.656009 0
M  V30 1699 H 163.592 -1.90263 -3.7129 0
M  V30 1700 H 162.222 -0.949461 -3.08521 0
M  V30 1701 H 161.274 -3.1646 -2.11086 0
M  V30 1702 H 162.586 -4.02382 -2.94771 0
M  V30 1703 H 161.74 -3.19979 -5.15459 0
M  V30 1704 H 160.479 -2.23715 -4.33362 0
M  V30 1705 H 159.484 -4.33579 -3.38067 0
M  V30 1706 H 160.709 -5.30921 -4.23438 0
M  V30 1707 H 158.655 -3.49318 -5.55259 0
M  V30 1708 H 158.572 -5.22219 -5.46647 0
M  V30 1709 H 159.84 -4.469 -6.38671 0
M  V30 1710 N 164.069 0.697108 -1.41344 0
M  V30 1711 C 165.017 1.83237 -1.43272 0
M  V30 1712 C 166.011 1.66522 -0.310947 0
M  V30 1713 O 167.217 1.73402 -0.482899 0
M  V30 1714 H 163.592 0.603802 -0.448249 0
M  V30 1715 H 165.563 1.78727 -2.38954 0
M  V30 1716 C 164.312 3.21245 -1.33029 0
M  V30 1717 H 163.635 3.34723 -2.18633 0
M  V30 1718 H 165.075 4.00763 -1.38439 0
M  V30 1719 C 163.534 3.36873 -0.0424635 0
M  V30 1720 O 164.064 3.91177 0.913421 0
M  V30 1721 N 162.27 2.90581 0.0331145 0
M  V30 1722 H 161.817 2.46577 -0.745506 0
M  V30 1723 H 161.775 3.01416 0.894199 0
M  V30 1724 N 165.547 1.27147 0.931209 0
M  V30 1725 C 166.772 1.16191 1.71797 0
M  V30 1726 C 167.197 -0.278004 1.86034 0
M  V30 1727 O 166.555 -1.20137 1.35782 0
M  V30 1728 C 166.603 1.84673 3.09723 0
M  V30 1729 O 165.707 1.14231 3.96264 0
M  V30 1730 H 165.048 0.404303 0.526721 0
M  V30 1731 H 167.578 1.68152 1.1656 0
M  V30 1732 H 167.588 1.91893 3.60057 0
M  V30 1733 H 166.263 2.89421 2.98677 0
M  V30 1734 H 164.84 1.15056 3.54706 0
M  V30 1735 N 167.025 -1.13721 1.09112 0
M  V30 1736 C 168.273 -1.84559 0.823562 0
M  V30 1737 C 168.594 -1.83754 -0.652658 0
M  V30 1738 O 167.864 -1.29102 -1.47342 0
M  V30 1739 H 166.444 -0.683376 0.301673 0
M  V30 1740 H 169.106 -1.37771 1.37859 0
M  V30 1741 H 168.202 -2.8917 1.17419 0
M  V30 1742 N 168.503 -0.877838 -1.30888 0
M  V30 1743 C 169.433 -0.35534 -2.3078 0
M  V30 1744 C 170.414 0.557994 -1.60687 0
M  V30 1745 O 171.599 0.473355 -1.88343 0
M  V30 1746 C 168.729 0.437221 -3.44537 0
M  V30 1747 C 167.683 -0.383715 -4.26276 0
M  V30 1748 C 167.009 0.535014 -5.32017 0
M  V30 1749 C 168.309 -1.62201 -4.96476 0
M  V30 1750 H 170.003 -1.19007 -2.74732 0
M  V30 1751 H 167.549 -0.573698 -1.32078 0
M  V30 1752 H 169.502 0.813334 -4.13477 0
M  V30 1753 H 168.226 1.30553 -2.99372 0
M  V30 1754 H 166.885 -0.741874 -3.59015 0
M  V30 1755 H 166.533 1.40083 -4.831 0
M  V30 1756 H 166.233 -0.0104211 -5.87599 0
M  V30 1757 H 167.757 0.907799 -6.03814 0
M  V30 1758 H 169.171 -1.31689 -5.5797 0
M  V30 1759 H 167.568 -2.10711 -5.61891 0
M  V30 1760 H 168.638 -2.37044 -4.23011 0
M  V30 1761 N 169.982 1.44106 -0.638065 0
M  V30 1762 C 171.398 1.56672 -0.304286 0
M  V30 1763 C 171.598 1.6244 1.19228 0
M  V30 1764 O 170.654 1.57121 1.9766 0
M  V30 1765 C 171.967 2.83503 -1.00231 0
M  V30 1766 C 173.515 2.97226 -0.981116 0
M  V30 1767 C 173.99 4.26868 -1.65974 0
M  V30 1768 N 175.481 4.33698 -1.62666 0
M  V30 1769 C 176.216 5.32745 -2.12063 0
M  V30 1770 N 175.712 6.38157 -2.6968 0
M  V30 1771 N 177.505 5.24299 -2.02651 0
M  V30 1772 H 169.656 1.38605 -1.60942 0
M  V30 1773 H 171.919 0.664661 -0.675965 0
M  V30 1774 H 171.625 2.85251 -2.0573 0
M  V30 1775 H 171.499 3.73251 -0.54439 0
M  V30 1776 H 173.886 2.95027 0.0654188 0
M  V30 1777 H 173.967 2.08808 -1.47759 0
M  V30 1778 H 173.611 4.29826 -2.70576 0
M  V30 1779 H 173.541 5.14156 -1.13804 0
M  V30 1780 H 176.032 3.58138 -1.20606 0
M  V30 1781 H 176.345 7.10029 -3.05087 0
M  V30 1782 H 174.69 6.38823 -2.73734 0
M  V30 1783 H 177.881 4.4086 -1.57353 0
M  V30 1784 H 178.054 6.01334 -2.41457 0
M  V30 1785 N 171.46 0.379036 1.52974 0
M  V30 1786 C 172.685 -0.209353 2.06341 0
M  V30 1787 C 173.11 -1.40583 1.24972 0
M  V30 1788 O 172.468 -1.79246 0.272155 0
M  V30 1789 C 172.516 -0.567786 3.56102 0
M  V30 1790 O 171.62 -1.66318 3.77375 0
M  V30 1791 H 170.961 -0.0272919 0.663439 0
M  V30 1792 H 173.491 0.543536 1.97248 0
M  V30 1793 H 173.501 -0.835003 3.99364 0
M  V30 1794 H 172.176 0.307013 4.14765 0
M  V30 1795 H 170.753 -1.39048 3.46006 0
M  V30 1796 N 172.938 -1.57226 0.108567 0
M  V30 1797 C 174.187 -1.94008 -0.551703 0
M  V30 1798 C 174.5 -0.993442 -1.68494 0
M  V30 1799 O 175.706 -1.25551 -2.40726 0
M  V30 1800 C 174.162 -3.44763 -1.03279 0
M  V30 1801 C 173.77 -4.47943 0.0714193 0
M  V30 1802 C 175.514 -3.90483 -1.66503 0
M  V30 1803 C 173.421 -5.89865 -0.425779 0
M  V30 1804 H 172.351 -0.724206 -0.209863 0
M  V30 1805 H 175.002 -1.82547 0.186741 0
M  V30 1806 H 173.384 -3.51422 -1.82533 0
M  V30 1807 H 174.558 -4.52942 0.847365 0
M  V30 1808 H 172.873 -4.11913 0.609669 0
M  V30 1809 H 175.47 -4.93925 -2.04798 0
M  V30 1810 H 175.813 -3.29877 -2.53942 0
M  V30 1811 H 176.346 -3.86581 -0.938074 0
M  V30 1812 H 173.085 -6.54202 0.412316 0
M  V30 1813 H 172.605 -5.88309 -1.16843 0
M  V30 1814 H 174.284 -6.40844 -0.890397 0
M  V30 1815 N 174.416 0.165178 -1.56732 0
M  V30 1816 C 175.348 1.22911 -1.93457 0
M  V30 1817 C 176.361 1.40152 -0.828333 0
M  V30 1818 O 177.55 1.40046 -1.10677 0
M  V30 1819 C 174.65 2.59686 -2.17753 0
M  V30 1820 C 173.823 2.63663 -3.48999 0
M  V30 1821 C 172.882 3.81845 -3.62051 0
M  V30 1822 O 171.908 3.67559 -4.34613 0
M  V30 1823 N 173.11 4.98557 -2.97357 0
M  V30 1824 H 175.875 0.917118 -2.85323 0
M  V30 1825 H 173.436 0.354895 -1.57962 0
M  V30 1826 H 175.428 3.37225 -2.23743 0
M  V30 1827 H 173.998 2.83251 -1.32242 0
M  V30 1828 H 173.218 1.72173 -3.54612 0
M  V30 1829 H 174.506 2.63336 -4.35352 0
M  V30 1830 H 173.904 5.13065 -2.38287 0
M  V30 1831 H 172.461 5.73936 -3.08934 0
M  V30 1832 N 175.894 1.51508 0.433938 0
M  V30 1833 C 177.305 1.56784 1.01369 0
M  V30 1834 C 177.656 0.393349 1.92217 0
M  V30 1835 O 176.781 -0.489441 2.10792 0
M  V30 1836 C 177.376 2.84144 1.8452 0
M  V30 1837 C 175.935 2.9198 2.37539 0
M  V30 1838 C 175.082 2.51482 1.16843 0
M  V30 1839 H 178.033 1.57236 0.215081 0
M  V30 1840 H 178.054 2.68098 2.70007 0
M  V30 1841 H 177.566 3.69607 1.18373 0
M  V30 1842 H 175.667 2.10955 3.0713 0
M  V30 1843 H 175.78 3.95704 2.70103 0
M  V30 1844 H 174.144 2.04758 1.51481 0
M  V30 1845 H 174.927 3.39293 0.523015 0
M  V30 1846 N 177.372 -0.689602 1.41712 0
M  V30 1847 C 178.788 -1.00093 1.24312 0
M  V30 1848 C 178.988 -2.01036 0.136729 0
M  V30 1849 O 178.044 -2.47562 -0.496918 0
M  V30 1850 C 179.357 -1.51985 2.59463 0
M  V30 1851 C 180.905 -1.63838 2.66695 0
M  V30 1852 C 181.38 -2.1913 4.02177 0
M  V30 1853 N 182.871 -2.26483 4.04054 0
M  V30 1854 C 183.606 -2.70306 5.0569 0
M  V30 1855 N 183.102 -3.13691 6.17713 0
M  V30 1856 N 184.895 -2.69923 4.9305 0
M  V30 1857 H 177.046 -0.0210029 2.1239 0
M  V30 1858 H 179.309 -0.0718733 0.945272 0
M  V30 1859 H 179.015 -0.85269 3.41207 0
M  V30 1860 H 178.889 -2.50103 2.82362 0
M  V30 1861 H 181.276 -2.29664 1.85306 0
M  V30 1862 H 181.357 -0.642492 2.476 0
M  V30 1863 H 181.001 -1.53918 4.84016 0
M  V30 1864 H 180.931 -3.19482 4.18615 0
M  V30 1865 H 183.422 -1.95874 3.23174 0
M  V30 1866 H 183.735 -3.45773 6.9113 0
M  V30 1867 H 182.08 -3.11585 6.21241 0
M  V30 1868 H 185.271 -2.35382 4.04614 0
M  V30 1869 H 185.444 -3.03758 5.72394 0
M  V30 1870 N 178.85 -1.27639 -0.924453 0
M  V30 1871 C 179.813 -1.10681 -2.00705 0
M  V30 1872 C 180.813 -0.0497823 -1.60723 0
M  V30 1873 O 182.003 -0.294654 -1.7169 0
M  V30 1874 C 179.135 -0.687164 -3.33902 0
M  V30 1875 H 180.328 -2.06817 -2.17179 0
M  V30 1876 H 177.881 -1.10473 -1.10569 0
M  V30 1877 H 178.616 0.275439 -3.23128 0
M  V30 1878 H 178.401 -1.45061 -3.6428 0
M  V30 1879 H 179.891 -0.590853 -4.13399 0
M  V30 1880 N 180.328 1.1314 -1.09713 0
M  V30 1881 C 181.575 1.84484 -0.834987 0
M  V30 1882 C 181.903 1.83689 0.639418 0
M  V30 1883 O 181.158 1.2724 1.4869 0
M  V30 1884 C 181.457 3.32167 -1.3191 0
M  V30 1885 C 181.123 3.53139 -2.80363 0
M  V30 1886 C 179.785 3.58571 -3.20905 0
M  V30 1887 C 182.137 3.60866 -3.76065 0
M  V30 1888 C 179.465 3.69267 -4.55916 0
M  V30 1889 C 181.817 3.73089 -5.10869 0
M  V30 1890 C 180.481 3.76775 -5.50996 0
M  V30 1891 H 179.751 0.675073 -0.305544 0
M  V30 1892 H 182.398 1.33554 -1.37243 0
M  V30 1893 H 180.703 3.85469 -0.701517 0
M  V30 1894 H 182.4 3.85821 -1.09284 0
M  V30 1895 H 178.99 3.49569 -2.47991 0
M  V30 1896 H 183.174 3.55946 -3.45855 0
M  V30 1897 H 178.43 3.70388 -4.86438 0
M  V30 1898 H 182.604 3.78011 -5.84877 0
M  V30 1899 H 180.231 3.84815 -6.55608 0
M  V30 1900 N 181.806 0.884767 1.30421 0
M  V30 1901 C 182.769 0.356277 2.26414 0
M  V30 1902 C 183.769 -0.501124 1.52792 0
M  V30 1903 O 184.959 -0.30831 1.7145 0
M  V30 1904 C 182.091 -0.492316 3.37326 0
M  V30 1905 H 183.284 1.20389 2.74675 0
M  V30 1906 H 180.837 0.661607 1.41607 0
M  V30 1907 H 181.572 -1.36052 2.94381 0
M  V30 1908 H 181.357 0.121832 3.91911 0
M  V30 1909 H 182.847 -0.853871 4.08777 0
M  V30 1910 N 183.284 -1.43765 0.645699 0
M  V30 1911 C 184.231 -2.30745 -0.0504648 0
M  V30 1912 C 185.201 -1.4432 -0.822241 0
M  V30 1913 O 186.386 -1.73202 -0.800358 0
M  V30 1914 C 183.526 -3.29802 -1.0161 0
M  V30 1915 C 182.639 -4.31326 -0.241219 0
M  V30 1916 C 181.774 -5.17469 -1.19998 0
M  V30 1917 C 180.813 -6.10691 -0.415094 0
M  V30 1918 N 179.95 -6.89483 -1.32506 0
M  V30 1919 H 184.79 -2.8973 0.697155 0
M  V30 1920 H 182.327 -1.42738 0.355563 0
M  V30 1921 H 184.285 -3.85734 -1.58949 0
M  V30 1922 H 182.915 -2.72483 -1.73069 0
M  V30 1923 H 181.967 -3.77749 0.448334 0
M  V30 1924 H 183.279 -4.9743 0.369437 0
M  V30 1925 H 182.433 -5.7799 -1.84424 0
M  V30 1926 H 181.172 -4.51473 -1.84455 0
M  V30 1927 H 180.177 -5.49265 0.242565 0
M  V30 1928 H 181.402 -6.78727 0.224966 0
M  V30 1929 H 179.348 -6.26142 -1.95657 0
M  V30 1930 H 179.265 -7.52081 -0.768783 0
M  V30 1931 H 180.533 -7.54516 -1.9577 0
M  V30 1932 N 184.763 -0.387143 -1.52771 0
M  V30 1933 C 185.711 0.463953 -2.27926 0
M  V30 1934 C 186.705 1.06493 -1.31741 0
M  V30 1935 O 187.911 1.00565 -1.49287 0
M  V30 1936 H 184.286 0.16837 -0.732909 0
M  V30 1937 H 186.257 -0.19141 -2.97785 0
M  V30 1938 C 185.006 1.5803 -3.09713 0
M  V30 1939 H 184.329 1.12718 -3.83581 0
M  V30 1940 H 185.769 2.15008 -3.65442 0
M  V30 1941 C 184.228 2.53509 -2.2189 0
M  V30 1942 O 184.758 3.56863 -1.84422 0
M  V30 1943 N 182.964 2.23199 -1.86093 0
M  V30 1944 H 182.511 1.39185 -2.16761 0
M  V30 1945 H 182.469 2.87333 -1.27621 0
M  V30 1946 N 186.241 1.57166 -0.116904 0
M  V30 1947 C 187.652 1.82169 0.408809 0
M  V30 1948 C 188.003 1.03393 1.66746 0
M  V30 1949 O 187.128 0.269886 2.1471 0
M  V30 1950 C 187.723 3.30429 0.748466 0
M  V30 1951 C 186.282 3.5612 1.21882 0
M  V30 1952 C 185.429 2.76374 0.226452 0
M  V30 1953 H 188.38 1.5497 -0.342063 0
M  V30 1954 H 188.401 3.44943 1.60607 0
M  V30 1955 H 187.913 3.87737 -0.167784 0
M  V30 1956 H 186.014 3.04168 2.15204 0
M  V30 1957 H 186.127 4.64705 1.16559 0
M  V30 1958 H 184.491 2.44515 0.713063 0
M  V30 1959 H 185.274 3.3644 -0.682859 0
M  V30 1960 N 187.719 -0.156864 1.56817 0
M  V30 1961 C 188.669 -1.19891 1.93934 0
M  V30 1962 C 189.653 -1.39061 0.809372 0
M  V30 1963 O 190.845 -1.40789 1.07273 0
M  V30 1964 C 187.974 -2.53493 2.31508 0
M  V30 1965 C 187.06 -2.37957 3.51052 0
M  V30 1966 N 187.451 -1.92158 4.67877 0
M  V30 1967 C 185.749 -2.68739 3.55943 0
M  V30 1968 C 186.45 -1.8943 5.49992 0
M  V30 1969 N 185.426 -2.32375 4.91429 0
M  V30 1970 H 189.228 -0.836746 2.81737 0
M  V30 1971 H 186.742 -0.365012 1.58245 0
M  V30 1972 H 188.739 -3.28811 2.56299 0
M  V30 1973 H 187.399 -2.905 1.45051 0
M  V30 1974 H 188.41 -1.62274 4.91821 0
M  V30 1975 H 185.087 -3.09687 2.80001 0
M  V30 1976 H 186.477 -1.55596 6.53636 0
M  V30 1977 N 189.197 -1.51736 -0.425897 0
M  V30 1978 C 190.127 -1.76827 -1.52494 0
M  V30 1979 C 191.108 -0.618524 -1.58456 0
M  V30 1980 O 192.293 -0.862416 -1.74 0
M  V30 1981 C 189.423 -1.90374 -2.90474 0
M  V30 1982 C 188.377 -3.0588 -2.99369 0
M  V30 1983 C 187.703 -3.04625 -4.3944 0
M  V30 1984 C 189.003 -4.45644 -2.72394 0
M  V30 1985 H 190.697 -2.68855 -1.31748 0
M  V30 1986 H 188.243 -1.29372 -0.632362 0
M  V30 1987 H 190.196 -2.0651 -3.6733 0
M  V30 1988 H 188.92 -0.95004 -3.12477 0
M  V30 1989 H 187.579 -2.89467 -2.24954 0
M  V30 1990 H 187.227 -2.0701 -4.58428 0
M  V30 1991 H 186.927 -3.82195 -4.46319 0
M  V30 1992 H 188.451 -3.22869 -5.18255 0
M  V30 1993 H 189.865 -4.62348 -3.38979 0
M  V30 1994 H 188.262 -5.25006 -2.9067 0
M  V30 1995 H 189.332 -4.54893 -1.67929 0
M  V30 1996 N 190.675 0.682077 -1.42076 0
M  V30 1997 C 192.091 0.994324 -1.24841 0
M  V30 1998 C 192.291 2.0096 -0.147389 0
M  V30 1999 O 191.347 2.47822 0.483782 0
M  V30 2000 C 192.66 1.50607 -2.60265 0
M  V30 2001 C 194.208 1.62421 -2.6756 0
M  V30 2002 C 194.683 2.16994 -4.03333 0
M  V30 2003 N 196.174 2.24337 -4.0525 0
M  V30 2004 C 196.909 2.67621 -5.07116 0
M  V30 2005 N 196.405 3.1041 -6.19368 0
M  V30 2006 N 198.198 2.67305 -4.94474 0
M  V30 2007 H 190.349 0.00973908 -2.12398 0
M  V30 2008 H 192.612 0.0668593 -0.945639 0
M  V30 2009 H 192.318 0.834583 -3.41654 0
M  V30 2010 H 192.192 2.48602 -2.83684 0
M  V30 2011 H 194.579 2.28678 -1.86521 0
M  V30 2012 H 194.66 0.629352 -2.47937 0
M  V30 2013 H 194.304 1.51349 -4.84826 0
M  V30 2014 H 194.234 3.17258 -4.20304 0
M  V30 2015 H 196.725 1.94158 -3.24209 0
M  V30 2016 H 197.038 3.42103 -6.92954 0
M  V30 2017 H 195.383 3.08286 -6.22884 0
M  V30 2018 H 198.574 2.33233 -4.05857 0
M  V30 2019 H 198.747 3.00718 -5.73997 0
M  V30 2020 N 192.153 1.28127 0.917671 0
M  V30 2021 C 193.383 1.17722 1.6978 0
M  V30 2022 C 193.791 -0.267261 1.87303 0
M  V30 2023 O 193.134 -1.19286 1.39702 0
M  V30 2024 C 193.196 1.79958 3.11216 0
M  V30 2025 C 192.86 3.29187 3.16993 0
M  V30 2026 C 193.857 4.25679 2.98485 0
M  V30 2027 C 191.542 3.70075 3.39632 0
M  V30 2028 C 193.536 5.61035 3.02521 0
M  V30 2029 C 191.223 5.05557 3.433 0
M  V30 2030 C 192.221 6.00847 3.24764 0
M  V30 2031 O 191.909 7.33859 3.28187 0
M  V30 2032 H 191.641 0.409788 0.537634 0
M  V30 2033 H 194.195 1.69694 1.15728 0
M  V30 2034 H 192.425 1.22475 3.66793 0
M  V30 2035 H 194.114 1.64125 3.71238 0
M  V30 2036 H 194.88 3.95426 2.80826 0
M  V30 2037 H 190.759 2.96373 3.53106 0
M  V30 2038 H 194.303 6.35388 2.87971 0
M  V30 2039 H 190.2 5.35462 3.60486 0
M  V30 2040 H 190.968 7.42436 3.44575 0
M  V30 2041 N 193.631 -1.12557 1.10312 0
M  V30 2042 C 194.88 -1.83395 0.839588 0
M  V30 2043 C 195.193 -1.84939 -0.636929 0
M  V30 2044 O 196.399 -2.51761 -1.01631 0
M  V30 2045 C 194.855 -3.29303 1.45215 0
M  V30 2046 C 194.463 -3.36122 2.96186 0
M  V30 2047 C 196.207 -4.05121 1.26796 0
M  V30 2048 C 194.114 -4.76357 3.50483 0
M  V30 2049 H 193.044 -0.687133 0.310425 0
M  V30 2050 H 195.695 -1.26746 1.32694 0
M  V30 2051 H 194.077 -3.85812 0.892469 0
M  V30 2052 H 195.251 -2.89559 3.58458 0
M  V30 2053 H 193.566 -2.73776 3.13745 0
M  V30 2054 H 196.163 -5.08668 1.64806 0
M  V30 2055 H 196.506 -4.15773 0.209409 0
M  V30 2056 H 197.039 -3.54967 1.79563 0
M  V30 2057 H 193.778 -4.70899 4.55998 0
M  V30 2058 H 193.298 -5.23377 2.92978 0
M  V30 2059 H 194.977 -5.45294 3.48228 0
M  V30 2060 N 195.109 -0.891671 -1.2995 0
M  V30 2061 C 196.057 -0.353066 -2.29905 0
M  V30 2062 C 197.051 0.543509 -1.60444 0
M  V30 2063 O 198.257 0.4272 -1.74857 0
M  V30 2064 H 194.632 -0.095531 -0.745907 0
M  V30 2065 H 196.603 -1.20961 -2.72784 0
M  V30 2066 C 195.352 0.411475 -3.45257 0
M  V30 2067 H 194.675 -0.269182 -3.98893 0
M  V30 2068 H 196.115 0.753328 -4.17254 0
M  V30 2069 C 194.574 1.6111 -2.9588 0
M  V30 2070 O 195.104 2.71045 -2.96475 0
M  V30 2071 N 193.31 1.45054 -2.51809 0
M  V30 2072 H 192.857 0.556175 -2.51524 0
M  V30 2073 H 192.815 2.25453 -2.1913 0
M  V30 2074 N 196.587 1.43421 -0.653314 0
M  V30 2075 C 197.517 2.33487 0.0246656 0
M  V30 2076 C 198.498 1.49475 0.811863 0
M  V30 2077 O 199.683 1.78139 0.773322 0
M  V30 2078 C 196.813 3.32841 0.99166 0
M  V30 2079 C 195.767 4.26842 0.314568 0
M  V30 2080 C 195.093 5.16236 1.39302 0
M  V30 2081 C 196.393 5.16243 -0.793095 0
M  V30 2082 H 198.087 2.90427 -0.727481 0
M  V30 2083 H 195.633 1.39649 -0.351287 0
M  V30 2084 H 197.586 3.94747 1.47487 0
M  V30 2085 H 196.31 2.74158 1.77497 0
M  V30 2086 H 194.969 3.663 -0.148199 0
M  V30 2087 H 194.617 4.53891 2.16776 0
M  V30 2088 H 194.317 5.79948 0.945223 0
M  V30 2089 H 195.841 5.81015 1.87759 0
M  V30 2090 H 197.255 5.71958 -0.392039 0
M  V30 2091 H 195.652 5.88676 -1.16536 0
M  V30 2092 H 196.722 4.55927 -1.65103 0
M  V30 2093 N 198.065 0.39524 1.52563 0
M  V30 2094 C 199.29 -0.187456 2.06551 0
M  V30 2095 C 199.715 -1.39249 1.26457 0
M  V30 2096 O 199.073 -1.78947 0.291151 0
M  V30 2097 C 199.121 -0.529985 3.56684 0
M  V30 2098 O 198.225 -1.62307 3.79118 0
M  V30 2099 H 197.566 -0.0202537 0.663691 0
M  V30 2100 H 200.096 0.564426 1.96661 0
M  V30 2101 H 200.106 -0.792598 4.00227 0
M  V30 2102 H 198.781 0.350987 4.14416 0
M  V30 2103 H 197.358 -1.3537 3.47461 0
M  V30 2104 N 199.544 -1.57102 0.125237 0
M  V30 2105 C 200.769 -2.0019 -0.542101 0
M  V30 2106 C 201.194 -1.00449 -1.59034 0
M  V30 2107 O 200.552 0.0229423 -1.81285 0
M  V30 2108 C 200.6 -3.42129 -1.13929 0
M  V30 2109 O 199.704 -3.45307 -2.2547 0
M  V30 2110 H 199.045 -0.650171 -0.134812 0
M  V30 2111 H 201.575 -2.03461 0.215553 0
M  V30 2112 H 201.585 -3.80471 -1.4733 0
M  V30 2113 H 200.26 -4.14237 -0.371531 0
M  V30 2114 H 198.837 -3.1879 -1.93462 0
M  V30 2115 N 201.022 0.148545 -1.56898 0
M  V30 2116 C 201.97 1.20265 -1.99096 0
M  V30 2117 C 202.964 1.44559 -0.883123 0
M  V30 2118 O 204.17 1.4487 -1.0683 0
M  V30 2119 H 200.545 0.404786 -0.63376 0
M  V30 2120 H 202.516 0.82004 -2.86911 0
M  V30 2121 C 201.265 2.52886 -2.3863 0
M  V30 2122 H 200.588 2.35021 -3.23427 0
M  V30 2123 H 202.028 3.25274 -2.7198 0
M  V30 2124 C 200.487 3.13315 -1.23837 0
M  V30 2125 O 201.017 3.98077 -0.538268 0
M  V30 2126 N 199.223 2.72742 -1.00301 0
M  V30 2127 H 198.77 2.03912 -1.5741 0
M  V30 2128 H 198.728 3.13507 -0.236838 0
M  V30 2129 N 202.5 1.5196 0.417844 0
M  V30 2130 C 203.916 1.40569 0.755816 0
M  V30 2131 C 204.116 0.503316 1.95113 0
M  V30 2132 O 203.172 -0.0341925 2.52477 0
M  V30 2133 C 204.485 2.82947 1.01791 0
M  V30 2134 C 206.033 2.92231 1.12116 0
M  V30 2135 C 206.508 4.35559 1.41608 0
M  V30 2136 N 207.999 4.38753 1.48491 0
M  V30 2137 C 208.734 5.46705 1.7292 0
M  V30 2138 N 208.23 6.64788 1.95011 0
M  V30 2139 N 210.023 5.34209 1.74863 0
M  V30 2140 H 202.174 2.09168 -0.369098 0
M  V30 2141 H 204.437 0.942409 -0.102809 0
M  V30 2142 H 204.143 3.5106 0.212081 0
M  V30 2143 H 204.017 3.23462 1.94042 0
M  V30 2144 H 206.404 2.24304 1.9176 0
M  V30 2145 H 206.485 2.55185 0.177225 0
M  V30 2146 H 206.129 5.04042 0.624848 0
M  V30 2147 H 206.059 4.70133 2.37239 0
M  V30 2148 H 208.55 3.5363 1.33244 0
M  V30 2149 H 208.863 7.42845 2.13076 0
M  V30 2150 H 207.208 6.67869 1.92293 0
M  V30 2151 H 210.399 4.40937 1.57137 0
M  V30 2152 H 210.572 6.18415 1.93563 0
M  V30 2153 N 203.978 -0.674533 1.42435 0
M  V30 2154 C 204.908 -1.80009 1.48724 0
M  V30 2155 C 205.889 -1.6659 0.343793 0
M  V30 2156 O 207.074 -1.86007 0.558137 0
M  V30 2157 C 204.204 -3.18306 1.38919 0
M  V30 2158 C 203.158 -3.46461 2.51294 0
M  V30 2159 C 202.484 -4.84335 2.26547 0
M  V30 2160 C 203.784 -3.43328 3.93603 0
M  V30 2161 H 205.478 -1.75004 2.42928 0
M  V30 2162 H 203.024 -0.840533 1.16923 0
M  V30 2163 H 204.977 -3.9678 1.41927 0
M  V30 2164 H 203.701 -3.2399 0.412094 0
M  V30 2165 H 202.36 -2.70348 2.47604 0
M  V30 2166 H 202.008 -4.86669 1.2713 0
M  V30 2167 H 201.708 -5.04136 3.01861 0
M  V30 2168 H 203.232 -5.65094 2.31304 0
M  V30 2169 H 204.646 -4.11772 3.98894 0
M  V30 2170 H 203.043 -3.74664 4.68771 0
M  V30 2171 H 204.113 -2.41897 4.20255 0
M  V30 2172 N 205.456 -1.28612 -0.910864 0
M  V30 2173 C 206.684 -1.18792 -1.69399 0
M  V30 2174 C 207.099 0.253039 -1.87097 0
M  V30 2175 O 206.456 1.17071 -1.40003 0
M  V30 2176 C 206.507 -1.88511 -3.08457 0
M  V30 2177 O 206.228 -3.26979 -2.91576 0
M  V30 2178 C 207.729 -1.85029 -4.02839 0
M  V30 2179 H 204.949 -0.412233 -0.529438 0
M  V30 2180 H 207.493 -1.69788 -1.13984 0
M  V30 2181 H 205.648 -1.41379 -3.60681 0
M  V30 2182 H 206.062 -3.61936 -3.79608 0
M  V30 2183 H 207.536 -2.38395 -4.97867 0
M  V30 2184 H 208.013 -0.823303 -4.31414 0
M  V30 2185 H 208.619 -2.31853 -3.56545 0
M  V30 2186 N 206.934 1.1197 -1.10907 0
M  V30 2187 C 208.162 1.87402 -0.876824 0
M  V30 2188 C 208.577 1.79894 0.573025 0
M  V30 2189 O 207.934 1.17629 1.39534 0
M  V30 2190 C 207.985 3.36428 -1.32282 0
M  V30 2191 O 207.706 3.43765 -2.71582 0
M  V30 2192 C 209.207 4.28783 -1.12518 0
M  V30 2193 H 206.427 0.592793 -0.314384 0
M  V30 2194 H 208.971 1.41649 -1.47499 0
M  V30 2195 H 207.126 3.79706 -0.768229 0
M  V30 2196 H 207.54 4.3652 -2.90776 0
M  V30 2197 H 209.014 5.31613 -1.48633 0
M  V30 2198 H 209.491 4.39153 -0.0642394 0
M  V30 2199 H 210.097 3.91291 -1.66648 0
M  V30 2200 N 208.412 0.89855 1.29475 0
M  V30 2201 C 209.342 0.39201 2.30186 0
M  V30 2202 C 210.323 -0.532359 1.61555 0
M  V30 2203 O 211.508 -0.443331 1.89072 0
M  V30 2204 C 208.638 -0.382353 3.45189 0
M  V30 2205 C 207.592 0.451483 4.25612 0
M  V30 2206 C 206.918 -0.450307 5.328 0
M  V30 2207 C 208.218 1.70079 4.93832 0
M  V30 2208 H 209.912 1.23362 2.72804 0
M  V30 2209 H 207.458 0.594638 1.31149 0
M  V30 2210 H 209.411 -0.747451 4.14718 0
M  V30 2211 H 208.135 -1.25774 3.01411 0
M  V30 2212 H 206.794 0.798897 3.57789 0
M  V30 2213 H 206.442 -1.32379 4.85268 0
M  V30 2214 H 206.142 0.103902 5.87508 0
M  V30 2215 H 207.666 -0.811623 6.05182 0
M  V30 2216 H 209.08 1.40549 5.55805 0
M  V30 2217 H 207.477 2.19623 5.58467 0
M  V30 2218 H 208.547 2.43744 4.19186 0
M  V30 2219 N 209.89 -1.43072 0.660911 0
M  V30 2220 C 211.115 -2.06584 0.183805 0
M  V30 2221 C 211.54 -1.49257 -1.14472 0
M  V30 2222 O 210.898 -0.605528 -1.70889 0
M  V30 2223 C 210.946 -3.60418 0.114434 0
M  V30 2224 O 210.05 -4.01981 -0.921137 0
M  V30 2225 H 209.391 -0.656669 0.0983994 0
M  V30 2226 H 211.921 -1.83447 0.906006 0
M  V30 2227 H 211.931 -4.07946 -0.0663394 0
M  V30 2228 H 210.606 -4.01519 1.08422 0
M  V30 2229 H 209.183 -3.66029 -0.71253 0
M  V30 2230 N 211.368 -0.403325 -1.52352 0
M  V30 2231 C 212.614 0.167015 -2.02713 0
M  V30 2232 C 212.969 1.43296 -1.28391 0
M  V30 2233 O 212.262 1.87796 -0.379885 0
M  V30 2234 C 212.456 0.474665 -3.54234 0
M  V30 2235 C 212.285 -0.759909 -4.43233 0
M  V30 2236 C 211.055 -1.28338 -4.88731 0
M  V30 2237 C 213.253 -1.63634 -4.87574 0
M  V30 2238 N 211.235 -2.47404 -5.6184 0
M  V30 2239 C 212.606 -2.67329 -5.59406 0
M  V30 2240 C 214.661 -1.65478 -4.69597 0
M  V30 2241 C 213.364 -3.72773 -6.15169 0
M  V30 2242 C 215.39 -2.69837 -5.26253 0
M  V30 2243 C 214.752 -3.72253 -5.98002 0
M  V30 2244 H 210.851 0.0228343 -0.781667 0
M  V30 2245 H 213.435 -0.556368 -1.86581 0
M  V30 2246 H 211.606 1.16709 -3.7045 0
M  V30 2247 H 213.338 1.03338 -3.91284 0
M  V30 2248 H 210.093 -0.842273 -4.6605 0
M  V30 2249 H 210.517 -3.07688 -6.0304 0
M  V30 2250 H 215.159 -0.876389 -4.13617 0
M  V30 2251 H 212.877 -4.51471 -6.70223 0
M  V30 2252 H 216.463 -2.72164 -5.14216 0
M  V30 2253 H 215.343 -4.51679 -6.41058 0
M  V30 2254 N 212.846 1.57033 -0.133567 0
M  V30 2255 C 213.778 2.13176 0.841944 0
M  V30 2256 C 214.791 1.07794 1.22001 0
M  V30 2257 O 215.98 1.35117 1.16643 0
M  V30 2258 C 213.08 2.62847 2.13926 0
M  V30 2259 C 212.253 3.92486 1.93064 0
M  V30 2260 C 211.312 4.27605 3.0666 0
M  V30 2261 O 210.338 4.96168 2.78937 0
M  V30 2262 N 211.54 3.861 4.33483 0
M  V30 2263 H 214.305 2.97503 0.362192 0
M  V30 2264 H 211.866 1.61821 0.05042 0
M  V30 2265 H 213.858 2.83363 2.88942 0
M  V30 2266 H 212.428 1.83319 2.53205 0
M  V30 2267 H 211.648 3.80732 1.02159 0
M  V30 2268 H 212.936 4.77225 1.76447 0
M  V30 2269 H 212.334 3.30828 4.58878 0
M  V30 2270 H 210.891 4.11694 5.05323 0
M  V30 2271 N 214.325 -0.140222 1.56975 0
M  V30 2272 C 215.255 -1.17456 2.01808 0
M  V30 2273 C 216.236 -1.44415 0.898794 0
M  V30 2274 O 217.421 -1.5522 1.16707 0
M  V30 2275 C 214.551 -2.50607 2.40444 0
M  V30 2276 C 213.505 -2.38155 3.55621 0
M  V30 2277 C 212.831 -3.76078 3.80091 0
M  V30 2278 C 214.131 -1.85991 4.88062 0
M  V30 2279 H 215.825 -0.801743 2.88466 0
M  V30 2280 H 213.371 -0.38422 1.38779 0
M  V30 2281 H 215.324 -3.23197 2.7041 0
M  V30 2282 H 214.048 -2.89737 1.50732 0
M  V30 2283 H 212.707 -1.68016 3.25832 0
M  V30 2284 H 212.355 -4.12656 2.87618 0
M  V30 2285 H 212.055 -3.68606 4.57606 0
M  V30 2286 H 213.579 -4.50206 4.12488 0
M  V30 2287 H 214.993 -2.4838 5.16701 0
M  V30 2288 H 213.39 -1.89393 5.6943 0
M  V30 2289 H 214.46 -0.816023 4.77984 0
M  V30 2290 N 215.803 -1.52179 -0.40978 0
M  V30 2291 C 217.05 -1.66206 -1.15679 0
M  V30 2292 C 217.378 -0.391674 -1.90516 0
M  V30 2293 O 216.633 0.62533 -1.8544 0
M  V30 2294 C 216.932 -2.83428 -2.17723 0
M  V30 2295 C 216.598 -4.21672 -1.59699 0
M  V30 2296 C 215.26 -4.59274 -1.43599 0
M  V30 2297 C 217.612 -5.07825 -1.17317 0
M  V30 2298 C 214.94 -5.80709 -0.836328 0
M  V30 2299 C 217.292 -6.29864 -0.587691 0
M  V30 2300 C 215.956 -6.66216 -0.413818 0
M  V30 2301 H 215.226 -0.608192 -0.423301 0
M  V30 2302 H 217.873 -1.86279 -0.444097 0
M  V30 2303 H 216.178 -2.57687 -2.95135 0
M  V30 2304 H 217.875 -2.91477 -2.75394 0
M  V30 2305 H 214.465 -3.9204 -1.73213 0
M  V30 2306 H 218.649 -4.79359 -1.28565 0
M  V30 2307 H 213.905 -6.07498 -0.689626 0
M  V30 2308 H 218.079 -6.95948 -0.250894 0
M  V30 2309 H 215.706 -7.60182 0.0529471 0
M  V30 2310 N 217.281 0.66697 -1.42791 0
M  V30 2311 C 218.213 1.7925 -1.42836 0
M  V30 2312 C 219.226 1.59496 -0.326333 0
M  V30 2313 O 220.415 1.6847 -0.589916 0
M  V30 2314 C 217.515 3.16476 -1.21229 0
M  V30 2315 C 216.688 3.63011 -2.44013 0
M  V30 2316 C 215.747 4.78993 -2.17834 0
M  V30 2317 O 214.773 4.89137 -2.91091 0
M  V30 2318 N 215.975 5.68248 -1.18635 0
M  V30 2319 H 218.74 1.79695 -2.39854 0
M  V30 2320 H 216.301 0.850338 -1.37771 0
M  V30 2321 H 218.293 3.91734 -1.01621 0
M  V30 2322 H 216.863 3.10884 -0.32706 0
M  V30 2323 H 216.083 2.78346 -2.79137 0
M  V30 2324 H 217.371 3.90845 -3.25757 0
M  V30 2325 H 216.769 5.62712 -0.580615 0
M  V30 2326 H 215.326 6.43285 -1.05013 0
M  V30 2327 N 218.759 1.29093 0.90403 0
M  V30 2328 C 219.987 1.19689 1.68766 0
M  V30 2329 C 220.402 -0.243113 1.87228 0
M  V30 2330 O 219.759 -1.16326 1.40621 0
M  V30 2331 C 219.81 1.90144 3.07453 0
M  V30 2332 O 219.531 3.2852 2.89838 0
M  V30 2333 C 221.032 1.87162 4.01852 0
M  V30 2334 H 218.252 0.415035 0.527244 0
M  V30 2335 H 220.796 1.7039 1.13082 0
M  V30 2336 H 218.951 1.43289 3.59926 0
M  V30 2337 H 219.365 3.63944 3.77684 0
M  V30 2338 H 220.839 2.41032 4.96596 0
M  V30 2339 H 221.316 0.84617 4.30972 0
M  V30 2340 H 221.922 2.33741 3.5531 0
M  V30 2341 N 220.237 -1.11381 1.11499 0
M  V30 2342 C 221.167 -2.19509 0.796125 0
M  V30 2343 C 222.148 -1.68458 -0.235796 0
M  V30 2344 O 223.333 -1.93947 -0.0991344 0
M  V30 2345 C 220.463 -3.46475 0.239205 0
M  V30 2346 C 219.417 -4.10744 1.20307 0
M  V30 2347 C 218.743 -5.32293 0.50683 0
M  V30 2348 C 220.043 -4.55597 2.55399 0
M  V30 2349 H 221.737 -2.46439 1.70024 0
M  V30 2350 H 219.283 -1.18446 0.818935 0
M  V30 2351 H 221.236 -4.214 0.00392006 0
M  V30 2352 H 219.96 -3.19006 -0.700206 0
M  V30 2353 H 218.619 -3.37813 1.42399 0
M  V30 2354 H 218.267 -5.01095 -0.437408 0
M  V30 2355 H 217.967 -5.76243 1.1497 0
M  V30 2356 H 219.491 -6.09956 0.280351 0
M  V30 2357 H 220.905 -5.21841 2.37391 0
M  V30 2358 H 219.302 -5.10363 3.15673 0
M  V30 2359 H 220.372 -3.69013 3.14575 0
M  V30 2360 N 221.715 -0.905404 -1.28997 0
M  V30 2361 C 222.94 -0.549175 -1.99997 0
M  V30 2362 C 223.365 0.860276 -1.67275 0
M  V30 2363 O 222.723 1.57355 -0.900502 0
M  V30 2364 C 222.771 -0.755185 -3.52604 0
M  V30 2365 O 221.875 0.189692 -4.11964 0
M  V30 2366 H 221.216 -0.213899 -0.628604 0
M  V30 2367 H 223.746 -1.21856 -1.64354 0
M  V30 2368 H 223.756 -0.662045 -4.02593 0
M  V30 2369 H 222.431 -1.78271 -3.75755 0
M  V30 2370 H 221.008 0.0485257 -3.72868 0
M  V30 2371 N 223.193 1.4272 -0.668489 0
M  V30 2372 C 224.123 2.335 -0.000100175 0
M  V30 2373 C 225.104 1.50328 0.795964 0
M  V30 2374 O 226.289 1.78949 0.754385 0
M  V30 2375 C 223.419 3.33874 0.956302 0
M  V30 2376 C 222.373 4.27152 0.269278 0
M  V30 2377 C 221.699 5.17684 1.33818 0
M  V30 2378 C 222.999 5.15373 -0.847805 0
M  V30 2379 H 224.693 2.89639 -0.758244 0
M  V30 2380 H 222.239 1.39269 -0.366079 0
M  V30 2381 H 224.192 3.9629 1.43292 0
M  V30 2382 H 222.916 2.76025 1.74579 0
M  V30 2383 H 221.575 3.66123 -0.187042 0
M  V30 2384 H 221.223 4.56165 2.1195 0
M  V30 2385 H 220.923 5.80918 0.883659 0
M  V30 2386 H 222.447 5.82974 1.81586 0
M  V30 2387 H 223.861 5.7151 -0.452681 0
M  V30 2388 H 222.258 5.87407 -1.22773 0
M  V30 2389 H 223.328 4.5415 -1.69929 0
M  V30 2390 N 224.671 0.411399 1.52136 0
M  V30 2391 C 226.087 0.0623865 1.59478 0
M  V30 2392 C 226.287 -1.42554 1.4241 0
M  V30 2393 O 225.343 -2.19263 1.2522 0
M  V30 2394 C 226.656 0.559331 2.95452 0
M  V30 2395 C 228.204 0.517503 3.08692 0
M  V30 2396 C 228.679 0.990994 4.4715 0
M  V30 2397 N 230.17 0.947908 4.53397 0
M  V30 2398 C 230.905 1.28544 5.58806 0
M  V30 2399 N 230.401 1.69454 6.71757 0
M  V30 2400 N 232.194 1.20526 5.49026 0
M  V30 2401 H 224.345 1.37982 1.61477 0
M  V30 2402 H 226.608 0.566977 0.759764 0
M  V30 2403 H 226.314 1.59938 3.1323 0
M  V30 2404 H 226.188 -0.0298014 3.77188 0
M  V30 2405 H 228.575 -0.513505 2.90598 0
M  V30 2406 H 228.656 1.14272 2.28857 0
M  V30 2407 H 228.3 2.02034 4.65988 0
M  V30 2408 H 228.23 0.34257 5.25485 0
M  V30 2409 H 230.721 0.647157 3.72317 0
M  V30 2410 H 231.034 1.93513 7.48179 0
M  V30 2411 H 229.379 1.73359 6.73032 0
M  V30 2412 H 232.57 0.884505 4.59667 0
M  V30 2413 H 232.743 1.47161 6.31069 0
M  V30 2414 N 226.149 -1.5696 0.141893 0
M  V30 2415 C 227.059 -2.20066 -0.812905 0
M  V30 2416 C 228.075 -1.18344 -1.27557 0
M  V30 2417 O 229.251 -1.50902 -1.33381 0
M  V30 2418 C 226.316 -2.80583 -2.03652 0
M  V30 2419 C 225.377 -3.97414 -1.62359 0
M  V30 2420 C 224.61 -4.55036 -2.78887 0
M  V30 2421 O 224.833 -4.11538 -3.94959 0
M  V30 2422 O 223.767 -5.45376 -2.54653 0
M  V30 2423 H 227.593 -3.02157 -0.305746 0
M  V30 2424 H 225.178 -1.49159 -0.0848799 0
M  V30 2425 H 227.06 -3.19067 -2.75272 0
M  V30 2426 H 225.735 -2.01508 -2.5333 0
M  V30 2427 H 224.642 -3.63656 -0.877775 0
M  V30 2428 H 225.975 -4.77994 -1.17401 0
M  V30 2429 N 227.627 0.131896 -1.57047 0
M  V30 2430 C 228.557 1.16384 -2.02428 0
M  V30 2431 C 229.538 1.43936 -0.90644 0
M  V30 2432 O 230.723 1.54599 -1.17528 0
M  V30 2433 C 227.853 2.49328 -2.4177 0
M  V30 2434 C 226.807 2.36266 -3.56879 0
M  V30 2435 C 226.133 3.74057 -3.8208 0
M  V30 2436 C 227.433 1.834 -4.89042 0
M  V30 2437 H 229.127 0.786433 -2.88887 0
M  V30 2438 H 226.673 0.376855 -1.38981 0
M  V30 2439 H 228.626 3.21759 -2.7212 0
M  V30 2440 H 227.35 2.88934 -1.52266 0
M  V30 2441 H 226.009 1.66286 -3.26718 0
M  V30 2442 H 225.657 4.11125 -2.89803 0
M  V30 2443 H 225.357 3.66174 -4.59554 0
M  V30 2444 H 226.881 4.48012 -4.1487 0
M  V30 2445 H 228.295 2.45636 -5.18011 0
M  V30 2446 H 226.692 1.8637 -5.70426 0
M  V30 2447 H 227.762 0.790662 -4.7841 0
M  V30 2448 N 229.106 1.52395 0.401703 0
M  V30 2449 C 230.038 1.72505 1.50912 0
M  V30 2450 C 231.051 0.605468 1.51122 0
M  V30 2451 O 232.24 0.880828 1.55254 0
M  V30 2452 C 229.34 1.75711 2.89791 0
M  V30 2453 C 228.513 3.04824 3.1369 0
M  V30 2454 C 227.572 2.99743 4.32482 0
M  V30 2455 O 226.598 3.73635 4.29402 0
M  V30 2456 N 227.8 2.18047 5.37992 0
M  V30 2457 H 230.565 2.68049 1.34052 0
M  V30 2458 H 228.126 1.50724 0.591084 0
M  V30 2459 H 230.118 1.69834 3.6734 0
M  V30 2460 H 228.688 0.876092 3.00072 0
M  V30 2461 H 227.908 3.2429 2.24119 0
M  V30 2462 H 229.196 3.90221 3.26504 0
M  V30 2463 H 228.594 1.57456 5.43345 0
M  V30 2464 H 227.151 2.18021 6.14256 0
M  V30 2465 N 230.584 -0.659388 1.43143 0
M  V30 2466 C 231.514 -1.78422 1.50625 0
M  V30 2467 C 232.495 -1.66216 0.361443 0
M  V30 2468 O 233.68 -1.85404 0.577834 0
M  V30 2469 C 230.81 -3.16815 1.42287 0
M  V30 2470 C 229.764 -3.43777 2.54954 0
M  V30 2471 C 229.09 -4.81905 2.31671 0
M  V30 2472 C 230.39 -3.39134 3.97222 0
M  V30 2473 H 232.084 -1.72417 2.44771 0
M  V30 2474 H 229.63 -0.828084 1.17808 0
M  V30 2475 H 231.583 -3.95253 1.46127 0
M  V30 2476 H 230.307 -3.23534 0.446435 0
M  V30 2477 H 228.966 -2.67707 2.50457 0
M  V30 2478 H 228.614 -4.85294 1.32284 0
M  V30 2479 H 228.314 -5.00906 3.07192 0
M  V30 2480 H 229.838 -5.62609 2.37284 0
M  V30 2481 H 231.252 -4.07518 4.03239 0
M  V30 2482 H 229.649 -3.69671 4.72719 0
M  V30 2483 H 230.719 -2.37426 4.22797 0
M  V30 2484 N 232.062 -1.29571 -0.897171 0
M  V30 2485 C 232.972 -1.16808 -2.03453 0
M  V30 2486 C 233.988 -0.0907471 -1.73763 0
M  V30 2487 O 235.164 -0.303312 -1.99103 0
M  V30 2488 C 232.229 -0.848264 -3.36163 0
M  V30 2489 C 231.29 -2.0097 -3.79354 0
M  V30 2490 C 230.523 -1.70505 -5.05731 0
M  V30 2491 O 230.746 -0.62718 -5.66941 0
M  V30 2492 O 229.68 -2.5538 -5.45036 0
M  V30 2493 H 233.506 -2.12325 -2.17144 0
M  V30 2494 H 231.091 -1.09047 -1.02123 0
M  V30 2495 H 232.973 -0.684581 -4.15802 0
M  V30 2496 H 231.648 0.0771071 -3.23608 0
M  V30 2497 H 230.555 -2.22863 -3.00471 0
M  V30 2498 H 231.888 -2.91636 -3.96496 0
M  V30 2499 N 233.54 1.10788 -1.12088 0
M  V30 2500 C 234.472 2.16816 -0.743213 0
M  V30 2501 C 235.485 1.6119 0.228412 0
M  V30 2502 O 236.674 1.78497 0.0102931 0
M  V30 2503 C 233.774 3.38809 -0.0787313 0
M  V30 2504 C 232.947 4.23885 -1.0789 0
M  V30 2505 C 232.006 5.24334 -0.442713 0
M  V30 2506 O 231.032 5.58497 -1.09864 0
M  V30 2507 N 232.234 5.75079 0.791457 0
M  V30 2508 H 234.999 2.49825 -1.65552 0
M  V30 2509 H 232.56 1.26373 -1.012 0
M  V30 2510 H 234.552 4.03107 0.358766 0
M  V30 2511 H 233.122 3.03805 0.736275 0
M  V30 2512 H 232.342 3.55939 -1.69414 0
M  V30 2513 H 233.63 4.77562 -1.75533 0
M  V30 2514 H 233.028 5.49517 1.3434 0
M  V30 2515 H 231.585 6.4118 1.17183 0
M  V30 2516 N 235.018 0.912232 1.28515 0
M  V30 2517 C 235.966 0.389597 2.29314 0
M  V30 2518 C 236.96 -0.517915 1.61289 0
M  V30 2519 O 238.166 -0.399328 1.75515 0
M  V30 2520 H 234.541 0.107386 0.744293 0
M  V30 2521 H 236.512 1.25286 2.70825 0
M  V30 2522 C 235.261 -0.356496 3.45868 0
M  V30 2523 H 234.584 0.332608 3.98414 0
M  V30 2524 H 236.024 -0.686851 4.184 0
M  V30 2525 C 234.483 -1.56383 2.98406 0
M  V30 2526 O 235.013 -2.66294 3.00749 0
M  V30 2527 N 233.219 -1.41029 2.54085 0
M  V30 2528 H 232.766 -0.516089 2.52377 0
M  V30 2529 H 232.724 -2.21939 2.22689 0
M  V30 2530 N 236.496 -1.42363 0.676048 0
M  V30 2531 C 237.743 -2.01522 0.19883 0
M  V30 2532 C 238.071 -1.53456 -1.19505 0
M  V30 2533 O 237.326 -0.727967 -1.81657 0
M  V30 2534 C 237.625 -3.56929 0.183431 0
M  V30 2535 C 237.291 -4.24431 1.52215 0
M  V30 2536 C 235.953 -4.42585 1.8887 0
M  V30 2537 C 238.305 -4.62459 2.40377 0
M  V30 2538 C 235.633 -4.96039 3.13309 0
M  V30 2539 C 237.985 -5.17294 3.64129 0
M  V30 2540 C 236.649 -5.33661 4.00951 0
M  V30 2541 H 235.919 -0.737419 0.0727571 0
M  V30 2542 H 238.566 -1.70531 0.871281 0
M  V30 2543 H 236.871 -3.87594 -0.572532 0
M  V30 2544 H 238.568 -4.00486 -0.203035 0
M  V30 2545 H 235.158 -4.10661 1.22701 0
M  V30 2546 H 239.342 -4.48105 2.13343 0
M  V30 2547 H 234.598 -5.06896 3.41857 0
M  V30 2548 H 238.772 -5.45704 4.32644 0
M  V30 2549 H 236.399 -5.74845 4.9745 0
M  V30 2550 N 237.974 -0.419461 -1.51915 0
M  V30 2551 C 239.221 0.152939 -2.01922 0
M  V30 2552 C 239.549 1.4426 -1.30458 0
M  V30 2553 O 238.804 1.91514 -0.402593 0
M  V30 2554 C 239.103 0.437067 -3.54717 0
M  V30 2555 C 238.769 -0.764632 -4.44369 0
M  V30 2556 C 237.431 -1.09423 -4.68594 0
M  V30 2557 C 239.783 -1.56713 -4.97082 0
M  V30 2558 C 237.111 -2.22732 -5.42777 0
M  V30 2559 C 239.463 -2.69107 -5.72507 0
M  V30 2560 C 238.127 -3.02541 -5.95 0
M  V30 2561 H 237.397 0.0559644 -0.738884 0
M  V30 2562 H 240.044 -0.562998 -1.83037 0
M  V30 2563 H 238.349 1.23469 -3.71837 0
M  V30 2564 H 240.046 0.893083 -3.90928 0
M  V30 2565 H 236.636 -0.497775 -4.257 0
M  V30 2566 H 240.82 -1.32571 -4.78266 0
M  V30 2567 H 236.076 -2.48971 -5.58411 0
M  V30 2568 H 240.25 -3.31671 -6.12346 0
M  V30 2569 H 237.877 -3.90457 -6.52264 0
M  V30 2570 N 239.452 1.56882 -0.150215 0
M  V30 2571 C 240.4 2.18214 0.805313 0
M  V30 2572 C 241.394 1.14006 1.25296 0
M  V30 2573 O 242.6 1.3225 1.22107 0
M  V30 2574 H 238.975 0.698762 0.277913 0
M  V30 2575 H 240.946 2.97231 0.263862 0
M  V30 2576 C 239.695 2.82065 2.03309 0
M  V30 2577 H 239.018 3.61968 1.69763 0
M  V30 2578 H 240.458 3.28477 2.68103 0
M  V30 2579 C 238.917 1.80739 2.84315 0
M  V30 2580 O 239.447 1.27983 3.80767 0
M  V30 2581 N 237.653 1.4997 2.48913 0
M  V30 2582 H 237.2 1.93062 1.70542 0
M  V30 2583 H 237.158 0.824217 3.03404 0
M  V30 2584 N 240.93 -0.123565 1.57115 0
M  V30 2585 C 242.17 -0.838097 1.86428 0
M  V30 2586 C 242.534 -1.77266 0.737611 0
M  V30 2587 O 243.735 -2.52842 0.912389 0
M  V30 2588 C 242.006 -1.57219 3.20962 0
M  V30 2589 S 243.565 -2.32893 3.71896 0
M  V30 2590 H 240.383 -0.279811 0.653626 0
M  V30 2591 H 242.985 -0.0967034 1.95261 0
M  V30 2592 H 241.689 -0.877522 4.00909 0
M  V30 2593 H 241.22 -2.35405 3.15195 0
M  V30 2594 H 243.235 -3.5853 3.43032 0
M  V30 2595 N 242.408 -1.52605 -0.393616 0
M  V30 2596 C 243.633 -1.71592 -1.16495 0
M  V30 2597 C 244.058 -0.43133 -1.83088 0
M  V30 2598 O 243.416 0.612523 -1.7064 0
M  V30 2599 C 243.464 -2.86318 -2.19213 0
M  V30 2600 O 242.568 -2.52969 -3.257 0
M  V30 2601 H 241.909 -0.570734 -0.33935 0
M  V30 2602 H 244.439 -1.99377 -0.459324 0
M  V30 2603 H 244.449 -3.1168 -2.63286 0
M  V30 2604 H 243.124 -3.79511 -1.7013 0
M  V30 2605 H 241.701 -2.38332 -2.86797 0
M  V30 2606 N 243.887 0.651787 -1.4349 0
M  V30 2607 C 245.127 1.42345 -1.46688 0
M  V30 2608 C 245.491 1.91793 -0.0891023 0
M  V30 2609 O 246.692 2.688 0.00423594 0
M  V30 2610 C 244.963 2.57221 -2.48137 0
M  V30 2611 S 246.522 3.45725 -2.70221 0
M  V30 2612 H 243.34 0.485878 -0.51908 0
M  V30 2613 H 245.942 0.756578 -1.80267 0
M  V30 2614 H 244.646 2.1917 -3.46976 0
M  V30 2615 H 244.177 3.28757 -2.16061 0
M  V30 2616 H 246.192 4.53996 -2.00255 0
M  V30 2617 N 245.365 1.30045 0.890287 0
M  V30 2618 C 246.642 1.09227 1.62262 0
M  V30 2619 C 247.022 -0.360305 2.08002 0
M  V30 2620 O 246.37 -1.35084 1.84295 0
M  V30 2621 C 246.58 2.08835 2.79623 0
M  V30 2622 C 247.928 2.40266 3.50082 0
M  V30 2623 O 248.952 2.07104 2.89804 0
M  V30 2624 O 247.811 2.96967 4.58773 0
M  V30 2625 H 244.905 0.419132 0.712922 0
M  V30 2626 H 247.451 1.41451 0.937529 0
M  V30 2627 H 246.223 3.06633 2.43089 0
M  V30 2628 H 245.846 1.77397 3.55832 0
M  V30 2629 N 246.843 -1.10192 1.12674 0
M  V30 2630 C 248.092 -1.81573 0.8783 0
M  V30 2631 C 248.405 -1.86249 -0.597557 0
M  V30 2632 O 249.611 -2.5386 -0.962681 0
M  V30 2633 C 248.067 -3.26149 1.52167 0
M  V30 2634 C 247.675 -3.29763 3.03249 0
M  V30 2635 C 249.419 -4.0234 1.3536 0
M  V30 2636 C 247.326 -4.68815 3.60508 0
M  V30 2637 H 246.256 -0.680394 0.324931 0
M  V30 2638 H 248.907 -1.23902 1.35353 0
M  V30 2639 H 247.289 -3.83832 0.974104 0
M  V30 2640 H 248.463 -2.8189 3.6452 0
M  V30 2641 H 246.778 -2.67059 3.19481 0
M  V30 2642 H 249.375 -5.05058 1.75559 0
M  V30 2643 H 249.718 -4.15235 0.297554 0
M  V30 2644 H 250.251 -3.51079 1.87052 0
M  V30 2645 H 246.99 -4.61121 4.65884 0
M  V30 2646 H 246.51 -5.17045 3.04014 0
M  V30 2647 H 248.189 -5.37785 3.59717 0
M  V30 2648 N 248.321 -0.919034 -1.28029 0
M  V30 2649 C 249.737 -0.617972 -1.4715 0
M  V30 2650 C 249.937 0.835242 -1.83374 0
M  V30 2651 O 248.993 1.61388 -1.94191 0
M  V30 2652 C 250.306 -1.56041 -2.57044 0
M  V30 2653 C 251.854 -1.56769 -2.7091 0
M  V30 2654 C 252.329 -2.49688 -3.83953 0
M  V30 2655 N 253.82 -2.47845 -3.91314 0
M  V30 2656 C 254.555 -3.16437 -4.78179 0
M  V30 2657 N 254.051 -3.94376 -5.69596 0
M  V30 2658 N 255.844 -3.05498 -4.71834 0
M  V30 2659 H 247.995 -1.85866 -1.02798 0
M  V30 2660 H 250.258 -0.797506 -0.512531 0
M  V30 2661 H 249.964 -2.59671 -2.372 0
M  V30 2662 H 249.838 -1.29551 -3.54255 0
M  V30 2663 H 252.225 -0.538745 -2.90141 0
M  V30 2664 H 252.306 -1.87305 -1.74214 0
M  V30 2665 H 251.95 -3.52688 -3.65477 0
M  V30 2666 H 251.88 -2.16453 -4.80058 0
M  V30 2667 H 254.371 -1.91234 -3.25941 0
M  V30 2668 H 254.684 -4.43721 -6.32718 0
M  V30 2669 H 253.029 -3.98481 -5.69419 0
M  V30 2670 H 256.22 -2.44108 -3.99411 0
M  V30 2671 H 256.393 -3.59225 -5.39316 0
M  V30 2672 N 249.799 1.42003 -0.683588 0
M  V30 2673 C 251.045 2.02223 -0.218536 0
M  V30 2674 C 251.4 1.53126 1.16492 0
M  V30 2675 O 250.693 0.727459 1.77253 0
M  V30 2676 C 250.887 3.56827 -0.202357 0
M  V30 2677 C 250.716 4.20928 -1.5827 0
M  V30 2678 C 249.486 4.5573 -2.18262 0
M  V30 2679 C 251.684 4.47933 -2.52706 0
M  V30 2680 N 249.666 5.05056 -3.48986 0
M  V30 2681 C 251.037 4.98906 -3.68094 0
M  V30 2682 C 253.092 4.29931 -2.51125 0
M  V30 2683 C 251.795 5.33768 -4.82166 0
M  V30 2684 C 253.821 4.65875 -3.643 0
M  V30 2685 C 253.183 5.17008 -4.78417 0
M  V30 2686 H 249.282 0.771931 -0.125088 0
M  V30 2687 H 251.866 1.72729 -0.898479 0
M  V30 2688 H 250.037 3.85819 0.447029 0
M  V30 2689 H 251.769 4.03755 0.276399 0
M  V30 2690 H 248.524 4.41781 -1.70665 0
M  V30 2691 H 248.948 5.34139 -4.15962 0
M  V30 2692 H 253.59 3.89647 -1.6412 0
M  V30 2693 H 251.308 5.72981 -5.6984 0
M  V30 2694 H 254.894 4.53615 -3.64314 0
M  V30 2695 H 253.774 5.44301 -5.64541 0
M  V30 2696 N 251.277 0.427512 1.51691 0
M  V30 2697 C 252.21 -0.433876 2.24037 0
M  V30 2698 C 253.188 -1.03287 1.25581 0
M  V30 2699 O 254.372 -1.07722 1.54688 0
M  V30 2700 C 251.499 -1.60385 2.98319 0
M  V30 2701 C 250.545 -1.12648 4.11355 0
M  V30 2702 S 251.378 -0.076543 5.35445 0
M  V30 2703 C 252.534 -1.25141 6.13262 0
M  V30 2704 H 252.767 0.180367 2.96752 0
M  V30 2705 H 250.3 0.211946 1.52938 0
M  V30 2706 H 252.258 -2.27462 3.41718 0
M  V30 2707 H 250.919 -2.18948 2.25213 0
M  V30 2708 H 250.112 -2.0011 4.62571 0
M  V30 2709 H 249.714 -0.534088 3.70167 0
M  V30 2710 H 252.006 -2.17162 6.41753 0
M  V30 2711 H 252.949 -0.779411 7.03797 0
M  V30 2712 H 253.357 -1.48553 5.44603 0
M  V30 2713 N 252.755 -1.56801 0.158532 0
M  V30 2714 C 253.687 -2.14488 -0.807923 0
M  V30 2715 C 254.7 -1.09721 -1.20271 0
M  V30 2716 O 255.889 -1.36956 -1.14478 0
M  V30 2717 C 252.989 -2.66217 -2.09718 0
M  V30 2718 C 252.162 -3.95507 -1.86796 0
M  V30 2719 C 251.221 -4.3243 -2.99818 0
M  V30 2720 O 250.247 -5.00543 -2.71008 0
M  V30 2721 N 251.449 -3.92947 -4.27285 0
M  V30 2722 H 254.214 -2.98042 -0.314816 0
M  V30 2723 H 251.775 -1.61881 -0.0246692 0
M  V30 2724 H 253.767 -2.87924 -2.84398 0
M  V30 2725 H 252.337 -1.87324 -2.50257 0
M  V30 2726 H 251.557 -3.82309 -0.96089 0
M  V30 2727 H 252.845 -4.79972 -1.68833 0
M  V30 2728 H 252.243 -3.38087 -4.53557 0
M  V30 2729 H 250.8 -4.19681 -4.9871 0
M  V30 2730 N 254.233 0.115231 -1.57178 0
M  V30 2731 C 255.163 1.1423 -2.03651 0
M  V30 2732 C 256.144 1.42967 -0.921655 0
M  V30 2733 O 257.329 1.53343 -1.19162 0
M  V30 2734 C 254.459 2.4675 -2.44401 0
M  V30 2735 C 253.413 2.32467 -3.59365 0
M  V30 2736 C 252.739 3.69984 -3.86026 0
M  V30 2737 C 254.039 1.78203 -4.90959 0
M  V30 2738 H 255.733 0.755749 -2.89705 0
M  V30 2739 H 253.279 0.362093 -1.39373 0
M  V30 2740 H 255.232 3.18854 -2.75517 0
M  V30 2741 H 253.956 2.87302 -1.55322 0
M  V30 2742 H 252.615 1.62811 -3.28463 0
M  V30 2743 H 252.263 4.08028 -2.94147 0
M  V30 2744 H 251.963 3.61279 -4.63412 0
M  V30 2745 H 253.487 4.43587 -4.19599 0
M  V30 2746 H 254.901 2.40128 -5.20587 0
M  V30 2747 H 253.298 1.8031 -5.72371 0
M  V30 2748 H 254.368 0.739876 -4.79222 0
M  V30 2749 N 255.711 1.52812 0.385517 0
M  V30 2750 C 256.957 1.69225 1.12847 0
M  V30 2751 C 257.312 0.42864 1.87564 0
M  V30 2752 O 256.605 -0.57779 1.8268 0
M  V30 2753 C 256.799 2.86856 2.13187 0
M  V30 2754 C 256.628 4.24535 1.48325 0
M  V30 2755 C 255.398 4.89701 1.24585 0
M  V30 2756 C 257.596 5.05794 0.931501 0
M  V30 2757 N 255.578 6.11353 0.558644 0
M  V30 2758 C 256.949 6.1888 0.372552 0
M  V30 2759 C 259.004 4.90963 0.828248 0
M  V30 2760 C 257.707 7.18757 -0.279556 0
M  V30 2761 C 259.733 5.91095 0.189956 0
M  V30 2762 C 259.095 7.03489 -0.358207 0
M  V30 2763 H 255.194 0.67268 0.39878 0
M  V30 2764 H 257.778 1.9017 0.417528 0
M  V30 2765 H 255.949 2.67484 2.81614 0
M  V30 2766 H 257.681 2.92188 2.80014 0
M  V30 2767 H 254.436 4.48485 1.52178 0
M  V30 2768 H 254.86 6.76606 0.230983 0
M  V30 2769 H 259.502 4.04274 1.23784 0
M  V30 2770 H 257.22 8.05052 -0.701152 0
M  V30 2771 H 260.806 5.81694 0.111264 0
M  V30 2772 H 259.686 7.79642 -0.844314 0
M  V30 2773 N 257.189 -0.644168 1.43834 0
M  V30 2774 C 258.121 -1.76955 1.45669 0
M  V30 2775 C 259.134 -1.58956 0.351666 0
M  V30 2776 O 260.323 -1.6751 0.616644 0
M  V30 2777 C 257.423 -3.14507 1.26248 0
M  V30 2778 C 256.596 -3.59083 2.49757 0
M  V30 2779 C 255.655 -4.75467 2.25427 0
M  V30 2780 O 254.681 -4.84444 2.98836 0
M  V30 2781 N 255.883 -5.66289 1.27661 0
M  V30 2782 H 258.648 -1.75856 2.42682 0
M  V30 2783 H 256.209 -0.828312 1.39106 0
M  V30 2784 H 258.201 -3.90067 1.0784 0
M  V30 2785 H 256.771 -3.10325 0.376478 0
M  V30 2786 H 255.991 -2.7387 2.8353 0
M  V30 2787 H 257.279 -3.85613 3.31934 0
M  V30 2788 H 256.677 -5.61718 0.670064 0
M  V30 2789 H 255.234 -6.41533 1.15234 0
M  V30 2790 N 258.668 -1.30515 -0.883378 0
M  V30 2791 C 259.578 -1.18959 -2.02203 0
M  V30 2792 C 260.594 -0.109172 -1.73657 0
M  V30 2793 O 261.77 -0.324413 -1.9877 0
M  V30 2794 C 258.835 -0.883871 -3.35244 0
M  V30 2795 C 257.896 -2.04982 -3.77201 0
M  V30 2796 C 257.129 -1.75859 -5.03894 0
M  V30 2797 O 257.352 -0.687276 -5.66244 0
M  V30 2798 O 256.286 -2.61146 -5.42297 0
M  V30 2799 H 260.112 -2.14616 -2.1488 0
M  V30 2800 H 257.697 -1.10124 -1.0096 0
M  V30 2801 H 259.579 -0.728644 -4.15053 0
M  V30 2802 H 258.254 0.0427798 -3.23672 0
M  V30 2803 H 257.161 -2.26038 -2.9809 0
M  V30 2804 H 258.494 -2.95825 -3.93381 0
M  V30 2805 N 260.146 1.09593 -1.13257 0
M  V30 2806 C 261.078 2.16015 -0.766167 0
M  V30 2807 C 262.091 1.61423 0.211303 0
M  V30 2808 O 263.28 1.78498 -0.00863946 0
M  V30 2809 C 260.38 3.38706 -0.114662 0
M  V30 2810 C 259.553 4.22717 -1.12379 0
M  V30 2811 C 258.612 5.23835 -0.498301 0
M  V30 2812 O 257.638 5.573 -1.15781 0
M  V30 2813 N 258.84 5.75886 0.730417 0
M  V30 2814 H 261.605 2.48055 -1.68193 0
M  V30 2815 H 259.166 1.25292 -1.02535 0
M  V30 2816 H 261.158 4.03464 0.315991 0
M  V30 2817 H 259.728 3.04569 0.704011 0
M  V30 2818 H 258.948 3.54122 -1.73179 0
M  V30 2819 H 260.236 4.75673 -1.80589 0
M  V30 2820 H 259.634 5.50911 1.28504 0
M  V30 2821 H 258.191 6.42387 1.10376 0
M  V30 2822 N 261.624 0.925811 1.2754 0
M  V30 2823 C 262.872 0.564138 1.94067 0
M  V30 2824 C 263.193 -0.897188 1.73134 0
M  V30 2825 O 262.463 -1.63573 1.07799 0
M  V30 2826 H 261.043 0.205645 0.718136 0
M  V30 2827 H 263.705 1.1778 1.55287 0
M  V30 2828 H 262.801 0.76881 3.02483 0
M  V30 2829 N 263.102 -1.41638 0.69111 0
M  V30 2830 C 264.012 -2.34588 0.0233487 0
M  V30 2831 C 265.028 -1.55987 -0.770984 0
M  V30 2832 O 266.204 -1.88486 -0.709569 0
M  V30 2833 C 263.269 -3.34684 -0.904851 0
M  V30 2834 C 262.33 -4.29176 -0.103225 0
M  V30 2835 C 261.563 -5.2449 -0.987216 0
M  V30 2836 O 261.786 -5.2514 -2.22674 0
M  V30 2837 O 260.72 -6.00295 -0.439281 0
M  V30 2838 H 264.546 -2.93261 0.789416 0
M  V30 2839 H 262.131 -1.42417 0.45142 0
M  V30 2840 H 264.013 -3.96133 -1.43724 0
M  V30 2841 H 262.688 -2.78461 -1.65049 0
M  V30 2842 H 261.595 -3.71089 0.473655 0
M  V30 2843 H 262.928 -4.88484 0.60365 0
M  V30 2844 N 264.58 -0.43555 -1.51462 0
M  V30 2845 C 265.543 0.365137 -2.26273 0
M  V30 2846 C 266.543 0.951227 -1.29647 0
M  V30 2847 O 267.733 0.825958 -1.53374 0
M  V30 2848 C 264.865 1.51645 -3.05314 0
M  V30 2849 H 266.058 -0.290474 -2.9849 0
M  V30 2850 H 263.611 -0.188676 -1.55157 0
M  V30 2851 H 264.346 2.20816 -2.3751 0
M  V30 2852 H 264.131 1.10238 -3.76284 0
M  V30 2853 H 265.621 2.08218 -3.61987 0
M  V30 2854 N 266.058 1.56714 -0.166846 0
M  V30 2855 C 267.005 2.17746 0.765193 0
M  V30 2856 C 267.975 1.11614 1.23011 0
M  V30 2857 O 269.16 1.39745 1.29908 0
M  V30 2858 C 266.3 2.81882 1.9909 0
M  V30 2859 C 265.413 4.02462 1.56997 0
M  V30 2860 C 264.548 4.54537 2.749 0
M  V30 2861 C 263.587 5.67538 2.29275 0
M  V30 2862 N 262.724 6.14142 3.40255 0
M  V30 2863 H 267.564 2.97048 0.237952 0
M  V30 2864 H 265.101 1.4672 0.105725 0
M  V30 2865 H 267.059 3.17221 2.70974 0
M  V30 2866 H 265.689 2.05191 2.49192 0
M  V30 2867 H 264.741 3.72973 0.748037 0
M  V30 2868 H 266.053 4.84273 1.19503 0
M  V30 2869 H 265.207 4.92035 3.54946 0
M  V30 2870 H 263.946 3.71774 3.1565 0
M  V30 2871 H 262.951 5.29597 1.47674 0
M  V30 2872 H 264.176 6.52099 1.89588 0
M  V30 2873 H 262.122 5.3431 3.8059 0
M  V30 2874 H 262.039 6.9093 3.06841 0
M  V30 2875 H 263.307 6.56289 4.206 0
M  V30 2876 N 267.536 -0.106894 1.57237 0
M  V30 2877 C 268.466 -1.13148 2.04254 0
M  V30 2878 C 269.447 -1.42476 0.929224 0
M  V30 2879 O 270.632 -1.52709 1.19973 0
M  V30 2880 C 267.762 -2.4545 2.45706 0
M  V30 2881 C 266.716 -2.30558 3.60592 0
M  V30 2882 C 266.042 -3.67931 3.87983 0
M  V30 2883 C 267.342 -1.75597 4.91897 0
M  V30 2884 H 269.036 -0.740374 2.90101 0
M  V30 2885 H 266.582 -0.354696 1.39563 0
M  V30 2886 H 268.535 -3.17389 2.77205 0
M  V30 2887 H 267.259 -2.86475 1.56843 0
M  V30 2888 H 265.918 -1.61067 3.29322 0
M  V30 2889 H 265.566 -4.06462 2.96306 0
M  V30 2890 H 265.266 -3.58817 4.65322 0
M  V30 2891 H 266.79 -4.41356 4.21945 0
M  V30 2892 H 268.204 -2.37364 5.21854 0
M  V30 2893 H 266.601 -1.77272 5.73319 0
M  V30 2894 H 267.671 -0.714451 4.79608 0
M  V30 2895 N 269.014 -1.53014 -0.377408 0
M  V30 2896 C 269.962 -1.7927 -1.48206 0
M  V30 2897 C 270.956 -0.661195 -1.55963 0
M  V30 2898 O 272.162 -0.843908 -1.58991 0
M  V30 2899 H 268.537 -0.567425 -0.493491 0
M  V30 2900 H 270.508 -2.71753 -1.2326 0
M  V30 2901 C 269.257 -1.98894 -2.85196 0
M  V30 2902 H 268.58 -2.85395 -2.79981 0
M  V30 2903 H 270.02 -2.21249 -3.61698 0
M  V30 2904 C 268.479 -0.764691 -3.28107 0
M  V30 2905 O 269.009 0.0523226 -4.01666 0
M  V30 2906 N 267.215 -0.591493 -2.84517 0
M  V30 2907 H 266.762 -1.25749 -2.24822 0
M  V30 2908 H 266.72 0.226253 -3.13585 0
M  V30 2909 N 270.492 0.636531 -1.44174 0
M  V30 2910 C 271.717 1.42847 -1.50364 0
M  V30 2911 C 272.142 1.87665 -0.127867 0
M  V30 2912 O 271.5 1.58408 0.88185 0
M  V30 2913 C 271.548 2.62854 -2.4686 0
M  V30 2914 O 270.652 3.62501 -1.9664 0
M  V30 2915 H 269.993 0.427642 -0.507955 0
M  V30 2916 H 272.523 0.777422 -1.89255 0
M  V30 2917 H 272.533 3.10465 -2.64718 0
M  V30 2918 H 271.208 2.29578 -3.46795 0
M  V30 2919 H 269.785 3.21735 -1.88523 0
M  V30 2920 N 271.97 1.30982 0.876444 0
M  V30 2921 C 272.902 1.13902 1.98894 0
M  V30 2922 C 273.915 0.0798815 1.62604 0
M  V30 2923 O 275.104 0.326743 1.75484 0
M  V30 2924 C 272.204 0.716699 3.31235 0
M  V30 2925 C 271.377 1.85945 3.95908 0
M  V30 2926 C 270.436 1.42426 5.06558 0
M  V30 2927 O 269.462 2.13287 5.27729 0
M  V30 2928 N 270.664 0.308025 5.79682 0
M  V30 2929 H 273.429 2.09724 2.14094 0
M  V30 2930 H 270.99 1.2323 1.05004 0
M  V30 2931 H 272.982 0.408403 4.02634 0
M  V30 2932 H 271.552 -0.149719 3.12241 0
M  V30 2933 H 270.772 2.33541 3.17573 0
M  V30 2934 H 272.06 2.62503 4.35855 0
M  V30 2935 H 271.458 -0.282241 5.64995 0
M  V30 2936 H 270.015 0.0592282 6.51773 0
M  V30 2937 N 273.449 -1.08991 1.13837 0
M  V30 2938 C 274.397 -2.17841 0.815347 0
M  V30 2939 C 275.391 -1.68164 -0.204233 0
M  V30 2940 O 276.597 -1.79897 -0.0609304 0
M  V30 2941 H 272.972 -0.710654 0.245915 0
M  V30 2942 H 274.943 -2.42315 1.74143 0
M  V30 2943 C 273.692 -3.46381 0.302614 0
M  V30 2944 H 273.015 -3.84979 1.0785 0
M  V30 2945 H 274.455 -4.23844 0.115074 0
M  V30 2946 C 272.914 -3.22556 -0.972591 0
M  V30 2947 O 273.444 -3.45599 -2.04754 0
M  V30 2948 N 271.65 -2.76134 -0.905455 0
M  V30 2949 H 271.197 -2.57582 -0.0305421 0
M  V30 2950 H 271.155 -2.60571 -1.75926 0
M  V30 2951 N 274.927 -0.932562 -1.27047 0
M  V30 2952 C 275.857 -0.452902 -2.29066 0
M  V30 2953 C 276.838 0.489338 -1.62909 0
M  V30 2954 O 278.023 0.393046 -1.90181 0
M  V30 2955 C 275.153 0.290698 -3.46081 0
M  V30 2956 C 274.107 -0.564168 -4.24265 0
M  V30 2957 C 273.433 0.308886 -5.33807 0
M  V30 2958 C 274.733 -1.83112 -4.89149 0
M  V30 2959 H 276.427 -1.30552 -2.69437 0
M  V30 2960 H 273.973 -0.629201 -1.29526 0
M  V30 2961 H 275.926 0.637233 -4.16554 0
M  V30 2962 H 274.65 1.17738 -3.0464 0
M  V30 2963 H 273.309 -0.893477 -3.55545 0
M  V30 2964 H 272.957 1.19467 -4.88607 0
M  V30 2965 H 272.657 -0.259633 -5.87026 0
M  V30 2966 H 274.181 0.650884 -6.07121 0
M  V30 2967 H 275.595 -1.55236 -5.51883 0
M  V30 2968 H 273.992 -2.34353 -5.52448 0
M  V30 2969 H 275.062 -2.54772 -4.12576 0
M  V30 2970 N 276.405 1.4127 -0.698611 0
M  V30 2971 C 277.635 2.05205 -0.239644 0
M  V30 2972 C 278.043 1.52684 1.11733 0
M  V30 2973 O 277.386 0.671222 1.70998 0
M  V30 2974 C 277.448 3.59289 -0.123126 0
M  V30 2975 C 277.112 4.34619 -1.41263 0
M  V30 2976 C 278.109 4.63701 -2.35111 0
M  V30 2977 C 275.794 4.73837 -1.66684 0
M  V30 2978 C 277.788 5.30966 -3.52639 0
M  V30 2979 C 275.475 5.40837 -2.84498 0
M  V30 2980 C 276.473 5.69329 -3.77298 0
M  V30 2981 O 276.161 6.34949 -4.93047 0
M  V30 2982 H 275.893 0.66723 -0.108537 0
M  V30 2983 H 278.447 1.81974 -0.952602 0
M  V30 2984 H 276.677 3.81272 0.645628 0
M  V30 2985 H 278.366 4.04797 0.299056 0
M  V30 2986 H 279.132 4.33882 -2.16729 0
M  V30 2987 H 275.011 4.51039 -0.953135 0
M  V30 2988 H 278.555 5.53121 -4.25091 0
M  V30 2989 H 274.452 5.70075 -3.02795 0
M  V30 2990 H 275.22 6.53445 -4.92902 0
M  V30 2991 N 277.883 0.443576 1.51229 0
M  V30 2992 C 279.123 -0.119889 2.04048 0
M  V30 2993 C 279.487 -1.39418 1.32009 0
M  V30 2994 O 280.688 -2.03829 1.75235 0
M  V30 2995 C 278.959 -0.327233 3.55899 0
M  V30 2996 S 280.518 -0.853208 4.30425 0
M  V30 2997 H 277.336 -0.028921 0.710412 0
M  V30 2998 H 279.938 0.604413 1.85922 0
M  V30 2999 H 278.642 0.606445 4.05895 0
M  V30 3000 H 278.173 -1.07844 3.7833 0
M  V30 3001 H 280.188 -2.13005 4.48155 0
M  V30 3002 N 279.361 -1.56624 0.175154 0
M  V30 3003 C 280.61 -1.96173 -0.468921 0
M  V30 3004 C 280.923 -1.06401 -1.64128 0
M  V30 3005 O 282.129 -1.35648 -2.35185 0
M  V30 3006 C 280.585 -3.48833 -0.885633 0
M  V30 3007 C 280.193 -4.47237 0.261343 0
M  V30 3008 C 281.937 -3.97194 -1.49791 0
M  V30 3009 C 279.844 -5.9114 -0.175214 0
M  V30 3010 H 278.774 -0.732455 -0.178958 0
M  V30 3011 H 281.425 -1.81591 0.263997 0
M  V30 3012 H 279.807 -3.58848 -1.67464 0
M  V30 3013 H 280.981 -4.4894 1.03871 0
M  V30 3014 H 279.296 -4.08956 0.783827 0
M  V30 3015 H 281.893 -5.02167 -1.83665 0
M  V30 3016 H 282.236 -3.40351 -2.39722 0
M  V30 3017 H 282.769 -3.90212 -0.773267 0
M  V30 3018 H 279.508 -6.51865 0.689414 0
M  V30 3019 H 279.028 -5.92735 -0.91786 0
M  V30 3020 H 280.707 -6.44044 -0.617792 0
M  V30 3021 N 280.839 0.0985539 -1.57292 0
M  V30 3022 C 281.787 1.1387 -2.02821 0
M  V30 3023 C 282.781 1.41676 -0.928666 0
M  V30 3024 O 283.987 1.41398 -1.11385 0
M  V30 3025 H 280.362 0.384419 -0.646317 0
M  V30 3026 H 282.333 0.728347 -2.89375 0
M  V30 3027 C 281.082 2.45166 -2.46554 0
M  V30 3028 H 280.405 2.24613 -3.3074 0
M  V30 3029 H 281.845 3.16456 -2.8219 0
M  V30 3030 C 280.304 3.09216 -1.33742 0
M  V30 3031 O 280.834 3.96163 -0.66464 0
M  V30 3032 N 279.04 2.69413 -1.08928 0
M  V30 3033 H 278.587 1.98801 -1.63817 0
M  V30 3034 H 278.545 3.12594 -0.336458 0
M  V30 3035 N 282.317 1.53212 0.369288 0
M  V30 3036 C 283.28 1.7872 1.43498 0
M  V30 3037 C 284.28 0.657554 1.46741 0
M  V30 3038 O 285.47 0.925736 1.47566 0
M  V30 3039 C 282.602 1.90591 2.82645 0
M  V30 3040 H 283.795 2.73894 1.22156 0
M  V30 3041 H 281.348 1.44233 0.602203 0
M  V30 3042 H 282.083 0.974709 3.09306 0
M  V30 3043 H 281.868 2.72751 2.8169 0
M  V30 3044 H 283.358 2.11931 3.59826 0
M  V30 3045 N 283.795 -0.628877 1.44509 0
M  V30 3046 C 285.072 -1.38733 1.37886 0
M  V30 3047 C 285.452 -2.11065 0.0387008 0
M  V30 3048 O 284.8 -2.06476 -0.97878 0
M  V30 3049 C 285.01 -2.35188 2.57852 0
M  V30 3050 C 286.358 -2.9845 3.02014 0
M  V30 3051 O 287.382 -2.45513 2.58073 0
M  V30 3052 O 286.241 -3.94487 3.78209 0
M  V30 3053 H 283.335 -0.621015 0.54614 0
M  V30 3054 H 285.881 -0.653744 1.56602 0
M  V30 3055 H 284.653 -1.80855 3.46998 0
M  V30 3056 H 284.276 -3.1596 2.4136 0
M  V30 3057 N 285.273 -1.31445 -0.869486 0
M  V30 3058 C 286.521 -1.20918 -1.61936 0
M  V30 3059 C 286.842 0.232683 -1.93607 0
M  V30 3060 O 286.112 1.15352 -1.58338 0
M  V30 3061 H 284.692 -0.44454 -0.600328 0
M  V30 3062 H 287.354 -1.64776 -1.0409 0
M  V30 3063 H 286.45 -1.78124 -2.56278 0
M  V30 3064 N 286.751 1.08385 -1.14413 0
M  V30 3065 C 287.976 1.85057 -0.936413 0
M  V30 3066 C 288.401 1.81055 0.509971 0
M  V30 3067 O 287.759 1.1958 1.36273 0
M  V30 3068 C 287.807 3.30505 -1.44217 0
M  V30 3069 O 286.911 4.07491 -0.634409 0
M  V30 3070 H 286.252 0.573425 -0.334784 0
M  V30 3071 H 288.782 1.36799 -1.52142 0
M  V30 3072 H 288.792 3.81348 -1.45043 0
M  V30 3073 H 287.467 3.32734 -2.49522 0
M  V30 3074 H 286.044 3.66368 -0.694902 0
M  V30 3075 N 288.23 0.939286 1.26551 0
M  V30 3076 C 289.162 0.404704 2.25599 0
M  V30 3077 C 290.175 -0.470983 1.55838 0
M  V30 3078 O 291.364 -0.281734 1.76263 0
M  V30 3079 C 288.464 -0.43764 3.36062 0
M  V30 3080 C 287.637 0.421449 4.35365 0
M  V30 3081 C 286.696 -0.36015 5.24966 0
M  V30 3082 O 285.722 0.236167 5.6871 0
M  V30 3083 N 286.924 -1.65715 5.56344 0
M  V30 3084 H 289.689 1.25618 2.72103 0
M  V30 3085 H 287.25 0.807963 1.40298 0
M  V30 3086 H 289.242 -0.967866 3.92956 0
M  V30 3087 H 287.812 -1.18991 2.89067 0
M  V30 3088 H 287.032 1.1329 3.7757 0
M  V30 3089 H 288.32 1.00835 4.98708 0
M  V30 3090 H 287.718 -2.16378 5.22682 0
M  V30 3091 H 286.275 -2.13366 6.15888 0
M  V30 3092 N 289.708 -1.40897 0.706093 0
M  V30 3093 C 290.638 -2.33418 0.0620085 0
M  V30 3094 C 291.619 -1.52385 -0.755827 0
M  V30 3095 O 292.804 -1.80886 -0.706674 0
M  V30 3096 C 289.934 -3.36293 -0.867445 0
M  V30 3097 C 288.888 -4.27716 -0.155932 0
M  V30 3098 C 288.214 -5.2105 -1.20046 0
M  V30 3099 C 289.514 -5.12944 0.984149 0
M  V30 3100 H 291.208 -2.87527 0.83477 0
M  V30 3101 H 288.754 -1.38249 0.402875 0
M  V30 3102 H 290.707 -3.99949 -1.32735 0
M  V30 3103 H 289.431 -2.80556 -1.67199 0
M  V30 3104 H 288.09 -3.65498 0.284047 0
M  V30 3105 H 287.738 -4.61624 -1.99781 0
M  V30 3106 H 287.438 -5.83056 -0.729328 0
M  V30 3107 H 288.962 -5.87584 -1.66066 0
M  V30 3108 H 290.376 -5.70109 0.604048 0
M  V30 3109 H 288.773 -5.83945 1.38304 0
M  V30 3110 H 289.843 -4.49485 1.81911 0
M  V30 3111 N 291.186 -0.45159 -1.50991 0
M  V30 3112 C 292.597 0.00818571 -1.86698 0
M  V30 3113 C 292.948 1.40661 -1.3678 0
M  V30 3114 O 292.073 2.0391 -0.724546 0
M  V30 3115 C 292.668 0.0216303 -3.38793 0
M  V30 3116 C 291.227 0.425865 -3.73983 0
M  V30 3117 C 290.374 -0.372163 -2.74791 0
M  V30 3118 H 293.325 -0.666785 -1.44013 0
M  V30 3119 H 293.346 0.828078 -3.7138 0
M  V30 3120 H 292.858 -0.996288 -3.75094 0
M  V30 3121 H 290.959 1.44886 -3.43277 0
M  V30 3122 H 291.072 0.140761 -4.78893 0
M  V30 3123 H 289.436 0.171498 -2.54122 0
M  V30 3124 H 290.219 -1.38922 -3.13935 0
M  V30 3125 N 292.664 1.56529 -0.183458 0
M  V30 3126 C 293.594 2.21549 0.737456 0
M  V30 3127 C 294.575 1.17489 1.23005 0
M  V30 3128 O 295.76 1.45959 1.281 0
M  V30 3129 C 292.89 2.86575 1.96194 0
M  V30 3130 C 291.844 3.96778 1.60473 0
M  V30 3131 C 291.17 4.48911 2.90487 0
M  V30 3132 C 292.47 5.15767 0.823497 0
M  V30 3133 H 294.164 2.98761 0.195453 0
M  V30 3134 H 291.71 1.43702 0.0925686 0
M  V30 3135 H 293.663 3.30739 2.61131 0
M  V30 3136 H 292.387 2.06749 2.52828 0
M  V30 3137 H 291.046 3.53286 0.978997 0
M  V30 3138 H 290.694 3.65862 3.45186 0
M  V30 3139 H 290.394 5.23265 2.67335 0
M  V30 3140 H 291.918 4.95771 3.56432 0
M  V30 3141 H 293.332 5.56549 1.37571 0
M  V30 3142 H 291.729 5.96114 0.690551 0
M  V30 3143 H 292.799 4.84574 -0.177782 0
M  V30 3144 N 294.142 -0.090211 1.57342 0
M  V30 3145 C 295.389 -0.792807 1.86335 0
M  V30 3146 C 295.717 -1.78494 0.772662 0
M  V30 3147 O 294.972 -1.94305 -0.233258 0
M  V30 3148 C 295.271 -1.55222 3.21933 0
M  V30 3149 C 294.937 -0.701765 4.45406 0
M  V30 3150 C 293.599 -0.467334 4.78925 0
M  V30 3151 C 295.951 -0.11086 5.21082 0
M  V30 3152 C 293.279 0.367785 5.85546 0
M  V30 3153 C 295.631 0.711609 6.28585 0
M  V30 3154 C 294.295 0.956086 6.60617 0
M  V30 3155 H 293.565 -0.290109 0.681849 0
M  V30 3156 H 296.212 -0.0541332 1.91423 0
M  V30 3157 H 294.517 -2.3626 3.12551 0
M  V30 3158 H 296.214 -2.10032 3.41595 0
M  V30 3159 H 292.804 -0.894598 4.1916 0
M  V30 3160 H 296.988 -0.279129 4.95514 0
M  V30 3161 H 292.244 0.566128 6.08773 0
M  V30 3162 H 296.418 1.17632 6.86393 0
M  V30 3163 H 294.045 1.60499 7.43064 0
M  V30 3164 N 295.62 -1.53406 -0.361157 0
M  V30 3165 C 297.036 -1.43277 -0.703124 0
M  V30 3166 C 297.236 -0.575384 -1.9311 0
M  V30 3167 O 296.292 -0.0595362 -2.5243 0
M  V30 3168 C 297.605 -2.8653 -0.9122 0
M  V30 3169 C 299.153 -2.96191 -1.01193 0
M  V30 3170 C 299.628 -4.40514 -1.25345 0
M  V30 3171 N 301.119 -4.43962 -1.32105 0
M  V30 3172 C 301.854 -5.52746 -1.5251 0
M  V30 3173 N 301.35 -6.71567 -1.70203 0
M  V30 3174 N 303.143 -5.40331 -1.54916 0
M  V30 3175 H 295.294 -2.07654 0.446475 0
M  V30 3176 H 297.557 -0.937944 0.137715 0
M  V30 3177 H 297.263 -3.51605 -0.0816414 0
M  V30 3178 H 297.137 -3.30441 -1.81903 0
M  V30 3179 H 299.524 -2.31266 -1.83303 0
M  V30 3180 H 299.605 -2.55667 -0.0823929 0
M  V30 3181 H 299.249 -5.06014 -0.437346 0
M  V30 3182 H 299.179 -4.78614 -2.19627 0
M  V30 3183 H 301.67 -3.58332 -1.20028 0
M  V30 3184 H 301.983 -7.50241 -1.85359 0
M  V30 3185 H 300.328 -6.74545 -1.67373 0
M  V30 3186 H 303.519 -4.46465 -1.40663 0
M  V30 3187 H 303.692 -6.25173 -1.70477 0
M  V30 3188 N 297.098 0.621204 -1.44841 0
M  V30 3189 C 298.031 1.7459 -1.46947 0
M  V30 3190 C 299.009 1.59273 -0.327238 0
M  V30 3191 O 300.193 1.81021 -0.525706 0
M  V30 3192 C 297.32 3.12274 -1.31159 0
M  V30 3193 C 296.366 3.46216 -2.49072 0
M  V30 3194 S 297.199 3.4258 -4.11581 0
M  V30 3195 C 298.355 4.82867 -3.98233 0
M  V30 3196 H 298.588 1.72538 -2.42111 0
M  V30 3197 H 296.121 0.796683 -1.32259 0
M  V30 3198 H 298.079 3.91722 -1.22737 0
M  V30 3199 H 296.74 3.11855 -0.374885 0
M  V30 3200 H 295.933 4.4643 -2.33915 0
M  V30 3201 H 295.535 2.74253 -2.54286 0
M  V30 3202 H 297.827 5.7234 -3.62537 0
M  V30 3203 H 298.77 5.0308 -4.98313 0
M  V30 3204 H 299.178 4.57908 -3.30121 0
M  V30 3205 N 298.576 1.31904 0.862503 0
M  V30 3206 C 299.524 1.20125 1.9918 0
M  V30 3207 C 300.518 0.107824 1.69056 0
M  V30 3208 O 301.724 0.270223 1.7796 0
M  V30 3209 H 298.099 0.372148 0.65346 0
M  V30 3210 H 300.07 2.15652 2.06244 0
M  V30 3211 C 298.819 0.933099 3.34946 0
M  V30 3212 H 298.142 1.76664 3.5865 0
M  V30 3213 H 299.582 0.890892 4.14535 0
M  V30 3214 C 298.041 -0.364172 3.34926 0
M  V30 3215 O 298.571 -1.37858 3.77304 0
M  V30 3216 N 296.777 -0.383362 2.8806 0
M  V30 3217 H 296.324 0.442651 2.53768 0
M  V30 3218 H 296.282 -1.25123 2.8843 0
M  V30 3219 N 300.054 -1.07777 1.14986 0
M  V30 3220 C 301.303 -1.79669 0.916617 0
M  V30 3221 C 301.616 -1.87474 -0.557917 0
M  V30 3222 O 302.822 -2.55845 -0.908617 0
M  V30 3223 C 301.278 -3.22848 1.59051 0
M  V30 3224 C 300.886 -3.23257 3.10176 0
M  V30 3225 C 302.63 -3.99379 1.43864 0
M  V30 3226 C 300.537 -4.61063 3.70372 0
M  V30 3227 H 299.467 -0.673349 0.33929 0
M  V30 3228 H 302.118 -1.21003 1.37951 0
M  V30 3229 H 300.5 -3.8168 1.0553 0
M  V30 3230 H 301.674 -2.74095 3.70417 0
M  V30 3231 H 299.989 -2.60222 3.25074 0
M  V30 3232 H 302.586 -5.0122 1.86232 0
M  V30 3233 H 302.929 -4.14511 0.385564 0
M  V30 3234 H 303.462 -3.47032 1.94457 0
M  V30 3235 H 300.201 -4.51135 4.7556 0
M  V30 3236 H 299.721 -5.1048 3.14913 0
M  V30 3237 H 301.4 -5.30034 3.71043 0
M  V30 3238 N 301.532 -0.945985 -1.26051 0
M  V30 3239 C 302.757 -0.612525 -1.98149 0
M  V30 3240 C 303.182 0.806623 -1.69927 0
M  V30 3241 O 302.54 1.54411 -0.950108 0
M  V30 3242 C 302.588 -0.866981 -3.50023 0
M  V30 3243 O 301.692 0.0585333 -4.12358 0
M  V30 3244 H 301.033 -0.23379 -0.621481 0
M  V30 3245 H 303.563 -1.27023 -1.60395 0
M  V30 3246 H 303.573 -0.789792 -4.00283 0
M  V30 3247 H 302.248 -1.90135 -3.69894 0
M  V30 3248 H 300.825 -0.0701241 -3.72834 0
M  V30 3249 N 303.011 1.40521 -0.713556 0
M  V30 3250 C 303.943 2.29191 -0.0203126 0
M  V30 3251 C 304.956 1.45723 0.725864 0
M  V30 3252 O 306.145 1.69033 0.573581 0
M  V30 3253 C 303.245 3.2395 0.995486 0
M  V30 3254 C 302.418 4.36262 0.315256 0
M  V30 3255 C 301.477 5.11474 1.23616 0
M  V30 3256 O 300.503 5.64606 0.721719 0
M  V30 3257 N 301.705 5.20638 2.56743 0
M  V30 3258 H 304.47 2.89327 -0.781652 0
M  V30 3259 H 302.031 1.51869 -0.561022 0
M  V30 3260 H 304.023 3.71137 1.61368 0
M  V30 3261 H 302.593 2.64995 1.6582 0
M  V30 3262 H 301.813 3.91228 -0.483106 0
M  V30 3263 H 303.101 5.08558 -0.157004 0
M  V30 3264 H 302.499 4.7895 3.01037 0
M  V30 3265 H 301.056 5.71339 3.13712 0
M  V30 3266 N 304.489 0.459591 1.5075 0
M  V30 3267 C 305.729 -0.09824 2.04164 0
M  V30 3268 C 306.093 -1.3801 1.33481 0
M  V30 3269 O 307.294 -2.01959 1.77387 0
M  V30 3270 C 305.565 -0.289467 3.56226 0
M  V30 3271 S 307.124 -0.807507 4.31306 0
M  V30 3272 H 303.942 -0.0213845 0.710678 0
M  V30 3273 H 306.544 0.624098 1.85271 0
M  V30 3274 H 305.248 0.649461 4.05229 0
M  V30 3275 H 304.779 -1.03825 3.79452 0
M  V30 3276 H 306.794 -2.0824 4.50389 0
M  V30 3277 N 305.967 -1.56429 0.191757 0
M  V30 3278 C 307.244 -1.89224 -0.495332 0
M  V30 3279 C 307.624 -1.10478 -1.79883 0
M  V30 3280 O 306.972 -0.204852 -2.2758 0
M  V30 3281 C 307.182 -3.41548 -0.717367 0
M  V30 3282 C 308.53 -4.11711 -1.03823 0
M  V30 3283 O 309.554 -3.4698 -0.805204 0
M  V30 3284 O 308.413 -5.2611 -1.47887 0
M  V30 3285 H 305.507 -0.785788 -0.25781 0
M  V30 3286 H 308.053 -1.68111 0.231721 0
M  V30 3287 H 306.825 -3.90772 0.203287 0
M  V30 3288 H 306.448 -3.68342 -1.497 0
M  V30 3289 N 307.445 0.0818655 -1.57387 0
M  V30 3290 C 308.375 1.09885 -2.06028 0
M  V30 3291 C 309.356 1.4098 -0.951774 0
M  V30 3292 O 310.541 1.50781 -1.22387 0
M  V30 3293 C 307.671 2.4151 -2.4958 0
M  V30 3294 C 306.625 2.24792 -3.64215 0
M  V30 3295 C 305.951 3.61712 -3.93787 0
M  V30 3296 C 307.251 1.67749 -4.94629 0
M  V30 3297 H 308.945 0.694128 -2.91243 0
M  V30 3298 H 306.491 0.332448 -1.4011 0
M  V30 3299 H 308.444 3.12939 -2.82219 0
M  V30 3300 H 307.168 2.83943 -1.61381 0
M  V30 3301 H 305.827 1.55807 -3.31843 0
M  V30 3302 H 305.475 4.01697 -3.02735 0
M  V30 3303 H 305.175 3.51368 -4.70971 0
M  V30 3304 H 306.699 4.34587 -4.28913 0
M  V30 3305 H 308.113 2.29032 -5.25564 0
M  V30 3306 H 306.51 1.68128 -5.76067 0
M  V30 3307 H 307.58 0.638059 -4.80684 0
M  V30 3308 N 308.923 1.53595 0.353017 0
M  V30 3309 C 310.334 1.61937 0.929153 0
M  V30 3310 C 310.685 0.494686 1.89861 0
M  V30 3311 O 309.81 -0.377017 2.1309 0
M  V30 3312 C 310.405 2.93526 1.69199 0
M  V30 3313 C 308.964 3.04161 2.21727 0
M  V30 3314 C 308.111 2.57322 1.03348 0
M  V30 3315 H 311.062 1.58155 0.131431 0
M  V30 3316 H 311.083 2.82034 2.55416 0
M  V30 3317 H 310.595 3.75362 0.986144 0
M  V30 3318 H 308.696 2.26938 2.95516 0
M  V30 3319 H 308.809 4.09465 2.48748 0
M  V30 3320 H 307.173 2.12499 1.40414 0
M  V30 3321 H 307.956 3.41588 0.342428 0
M  V30 3322 N 310.401 -0.613514 1.45168 0
M  V30 3323 C 311.311 -1.75296 1.55912 0
M  V30 3324 C 312.327 -1.68244 0.443856 0
M  V30 3325 O 313.503 -1.88706 0.70371 0
M  V30 3326 C 310.568 -3.1174 1.5172 0
M  V30 3327 C 309.629 -3.30291 2.74238 0
M  V30 3328 C 308.862 -4.60226 2.70236 0
M  V30 3329 O 309.085 -5.42168 1.77229 0
M  V30 3330 O 308.019 -4.81361 3.61352 0
M  V30 3331 H 311.845 -1.69183 2.52212 0
M  V30 3332 H 309.43 -0.776886 1.27612 0
M  V30 3333 H 311.312 -3.93044 1.51968 0
M  V30 3334 H 309.987 -3.18357 0.585697 0
M  V30 3335 H 308.894 -2.48598 2.79553 0
M  V30 3336 H 310.227 -3.28547 3.66494 0
M  V30 3337 N 311.879 -1.3236 -0.855495 0
M  V30 3338 C 313.128 -1.22226 -1.60448 0
M  V30 3339 C 313.441 0.214733 -1.94418 0
M  V30 3340 O 314.647 0.437917 -2.67945 0
M  V30 3341 C 313.103 -2.14063 -2.89318 0
M  V30 3342 C 312.711 -3.62839 -2.62777 0
M  V30 3343 C 314.455 -2.12764 -3.67331 0
M  V30 3344 C 312.362 -4.4664 -3.87643 0
M  V30 3345 H 311.292 -0.453904 -0.602069 0
M  V30 3346 H 313.943 -1.57314 -0.944698 0
M  V30 3347 H 312.325 -1.71889 -3.5675 0
M  V30 3348 H 313.499 -4.1335 -2.03662 0
M  V30 3349 H 311.814 -3.66261 -1.98096 0
M  V30 3350 H 314.411 -2.72611 -4.59987 0
M  V30 3351 H 314.754 -1.11841 -4.00995 0
M  V30 3352 H 315.287 -2.53214 -3.06802 0
M  V30 3353 H 312.026 -5.48373 -3.5912 0
M  V30 3354 H 311.546 -4.0088 -4.46156 0
M  V30 3355 H 313.225 -4.59597 -4.55389 0
M  V30 3356 N 313.357 1.07166 -1.15556 0
M  V30 3357 C 314.582 1.84053 -0.955988 0
M  V30 3358 C 315.007 1.81586 0.490739 0
M  V30 3359 O 314.365 1.21018 1.34997 0
M  V30 3360 C 314.413 3.28957 -1.47714 0
M  V30 3361 O 313.517 4.06795 -0.677593 0
M  V30 3362 H 312.858 0.569842 -0.340847 0
M  V30 3363 H 315.388 1.35178 -1.53584 0
M  V30 3364 H 315.398 3.79788 -1.4908 0
M  V30 3365 H 314.073 3.30068 -2.53037 0
M  V30 3366 H 312.65 3.6561 -0.733721 0
M  V30 3367 N 314.835 0.952656 1.25548 0
M  V30 3368 C 316.081 0.607272 1.93494 0
M  V30 3369 C 316.414 -0.853245 1.74452 0
M  V30 3370 O 315.689 -1.61194 1.08843 0
M  V30 3371 C 315.972 0.96435 3.46947 0
M  V30 3372 C 315.825 2.48045 3.75225 0
M  V30 3373 C 317.144 0.487987 4.37386 0
M  V30 3374 H 314.263 0.222096 0.702739 0
M  V30 3375 H 316.905 1.18895 1.48203 0
M  V30 3376 H 315.055 0.469361 3.85654 0
M  V30 3377 H 316.727 3.04905 3.46166 0
M  V30 3378 H 314.97 2.919 3.209 0
M  V30 3379 H 315.641 2.6808 4.82532 0
M  V30 3380 H 318.117 0.912558 4.0597 0
M  V30 3381 H 316.993 0.766547 5.43521 0
M  V30 3382 H 317.254 -0.612063 4.37843 0
M  V30 3383 N 316.313 -1.40141 0.720998 0
M  V30 3384 C 317.538 -2.05618 0.271258 0
M  V30 3385 C 317.963 -1.53978 -1.08039 0
M  V30 3386 O 317.321 -0.677463 -1.68167 0
M  V30 3387 C 317.369 -3.59609 0.267197 0
M  V30 3388 O 316.473 -4.05526 -0.749814 0
M  V30 3389 H 315.814 -0.651904 0.126162 0
M  V30 3390 H 318.344 -1.79439 0.982997 0
M  V30 3391 H 318.354 -4.0786 0.106744 0
M  V30 3392 H 317.029 -3.96559 1.25354 0
M  V30 3393 H 315.606 -3.68722 -0.556644 0
M  V30 3394 N 317.792 -0.46758 -1.50504 0
M  V30 3395 C 318.742 0.34698 -2.25344 0
M  V30 3396 C 319.726 0.964469 -1.2879 0
M  V30 3397 O 320.918 0.8776 -1.53711 0
M  V30 3398 C 318.047 1.43042 -3.1208 0
M  V30 3399 C 317.133 0.82084 -4.16081 0
M  V30 3400 N 317.524 -0.0567602 -5.05768 0
M  V30 3401 C 315.822 1.08517 -4.32597 0
M  V30 3402 C 316.523 -0.402343 -5.80307 0
M  V30 3403 N 315.499 0.221607 -5.43148 0
M  V30 3404 H 319.301 -0.329129 -2.92051 0
M  V30 3405 H 316.815 -0.281508 -1.59942 0
M  V30 3406 H 318.812 2.02712 -3.64299 0
M  V30 3407 H 317.472 2.10856 -2.46921 0
M  V30 3408 H 318.483 -0.425349 -5.1615 0
M  V30 3409 H 315.16 1.75855 -3.78657 0
M  V30 3410 H 316.55 -1.11834 -6.62528 0
M  V30 3411 N 319.27 1.56325 -0.20005 0
M  V30 3412 C 320.516 1.98012 0.438059 0
M  V30 3413 C 320.849 1.08702 1.60927 0
M  V30 3414 O 320.124 0.140064 1.93995 0
M  V30 3415 C 320.407 3.48841 0.893419 0
M  V30 3416 C 320.26 4.48928 -0.279947 0
M  V30 3417 C 321.579 4.03498 1.75719 0
M  V30 3418 H 318.698 0.719918 0.157757 0
M  V30 3419 H 321.34 1.87743 -0.291968 0
M  V30 3420 H 319.49 3.57723 1.51547 0
M  V30 3421 H 321.162 4.52079 -0.91772 0
M  V30 3422 H 319.405 4.23694 -0.930919 0
M  V30 3423 H 320.076 5.5194 0.0812601 0
M  V30 3424 H 322.552 3.97427 1.23253 0
M  V30 3425 H 321.428 5.09393 2.04476 0
M  V30 3426 H 321.689 3.4906 2.71311 0
M  V30 3427 N 320.748 -0.0735177 1.57428 0
M  V30 3428 C 321.696 -1.10628 2.04607 0
M  V30 3429 C 322.69 -1.40181 0.951088 0
M  V30 3430 O 323.896 -1.39608 1.1362 0
M  V30 3431 H 320.271 -0.374088 0.652351 0
M  V30 3432 H 322.242 -0.682218 2.90497 0
M  V30 3433 C 320.991 -2.41212 2.50423 0
M  V30 3434 H 320.314 -2.19322 3.34272 0
M  V30 3435 H 321.754 -3.11927 2.87189 0
M  V30 3436 C 320.213 -3.0705 1.38644 0
M  V30 3437 O 320.743 -3.95056 0.727582 0
M  V30 3438 N 318.949 -2.67645 1.132 0
M  V30 3439 H 318.496 -1.96169 1.66959 0
M  V30 3440 H 318.454 -3.1202 0.386147 0
M  V30 3441 N 322.226 -1.5378 -0.344866 0
M  V30 3442 C 323.156 -1.84662 -1.42906 0
M  V30 3443 C 324.137 -0.701648 -1.54955 0
M  V30 3444 O 325.322 -0.953438 -1.69184 0
M  V30 3445 C 322.452 -2.05503 -2.79974 0
M  V30 3446 C 321.406 -3.21318 -2.82734 0
M  V30 3447 C 320.732 -3.2749 -4.22675 0
M  V30 3448 C 322.032 -4.59456 -2.48389 0
M  V30 3449 H 323.726 -2.75461 -1.17311 0
M  V30 3450 H 321.272 -1.32542 -0.562896 0
M  V30 3451 H 323.225 -2.25691 -3.55867 0
M  V30 3452 H 321.949 -1.11434 -3.07002 0
M  V30 3453 H 320.608 -3.00984 -2.09294 0
M  V30 3454 H 320.256 -2.31019 -4.4681 0
M  V30 3455 H 319.956 -4.05316 -4.25433 0
M  V30 3456 H 321.48 -3.49887 -5.00412 0
M  V30 3457 H 322.894 -4.79667 -3.13995 0
M  V30 3458 H 321.291 -5.39675 -2.62432 0
M  V30 3459 H 322.361 -4.63155 -1.4358 0
M  V30 3460 N 323.704 0.605807 -1.45491 0
M  V30 3461 C 324.932 1.39136 -1.5313 0
M  V30 3462 C 325.347 1.88082 -0.164507 0
M  V30 3463 O 324.704 1.62316 0.834247 0
M  V30 3464 C 324.755 2.59463 -2.51716 0
M  V30 3465 O 324.476 2.12551 -3.83084 0
M  V30 3466 C 325.977 3.52301 -2.6907 0
M  V30 3467 H 323.197 0.425849 -0.51855 0
M  V30 3468 H 325.741 0.73865 -1.90694 0
M  V30 3469 H 323.896 3.20772 -2.17219 0
M  V30 3470 H 324.31 2.90744 -4.36541 0
M  V30 3471 H 325.784 4.33271 -3.42024 0
M  V30 3472 H 326.261 4.02757 -1.75167 0
M  V30 3473 H 326.867 2.96845 -3.04571 0
M  V30 3474 N 325.182 1.32811 0.848464 0
M  V30 3475 C 326.428 1.23907 1.60546 0
M  V30 3476 C 326.761 -0.197161 1.93197 0
M  V30 3477 O 326.036 -1.13596 1.5788 0
M  V30 3478 C 326.319 2.10489 2.92175 0
M  V30 3479 C 326.172 3.62522 2.66266 0
M  V30 3480 C 327.491 1.97075 3.93509 0
M  V30 3481 H 324.61 0.451459 0.58254 0
M  V30 3482 H 327.252 1.62818 0.979296 0
M  V30 3483 H 325.402 1.77434 3.45614 0
M  V30 3484 H 327.074 4.05821 2.19334 0
M  V30 3485 H 325.317 3.84879 2.00126 0
M  V30 3486 H 325.988 4.18437 3.6002 0
M  V30 3487 H 328.464 2.26045 3.49346 0
M  V30 3488 H 327.34 2.59923 4.83457 0
M  V30 3489 H 327.601 0.940186 4.31987 0
M  V30 3490 N 326.66 -1.06551 1.16123 0
M  V30 3491 C 328.076 -1.3142 0.905585 0
M  V30 3492 C 328.276 -1.96571 -0.442964 0
M  V30 3493 O 327.332 -2.23068 -1.18308 0
M  V30 3494 C 328.645 -2.19741 2.05267 0
M  V30 3495 C 330.193 -2.33165 2.08813 0
M  V30 3496 C 330.668 -3.24838 3.22868 0
M  V30 3497 N 332.159 -3.32421 3.22568 0
M  V30 3498 C 332.894 -4.0344 4.0746 0
M  V30 3499 N 332.39 -4.77003 5.02434 0
M  V30 3500 N 334.183 -3.99464 3.95456 0
M  V30 3501 H 326.334 -0.626548 2.02949 0
M  V30 3502 H 328.597 -0.338777 0.8854 0
M  V30 3503 H 328.303 -1.79142 3.02657 0
M  V30 3504 H 328.177 -3.20313 1.99198 0
M  V30 3505 H 330.564 -2.73013 1.12018 0
M  V30 3506 H 330.645 -1.3227 2.18948 0
M  V30 3507 H 330.289 -2.85708 4.19921 0
M  V30 3508 H 330.219 -4.25707 3.0997 0
M  V30 3509 H 332.71 -2.79994 2.53795 0
M  V30 3510 H 333.023 -5.28712 5.63634 0
M  V30 3511 H 331.368 -4.75992 5.06415 0
M  V30 3512 H 334.559 -3.4111 3.20564 0
M  V30 3513 H 334.732 -4.54544 4.61837 0
M  V30 3514 N 328.138 -0.959301 -1.25041 0
M  V30 3515 C 329.048 -0.489994 -2.29426 0
M  V30 3516 C 330.064 0.444944 -1.68215 0
M  V30 3517 O 331.24 0.320046 -1.98841 0
M  V30 3518 C 328.305 0.220309 -3.45999 0
M  V30 3519 C 327.366 -0.753418 -4.22637 0
M  V30 3520 C 326.599 -0.076918 -5.33645 0
M  V30 3521 O 326.822 1.13649 -5.58963 0
M  V30 3522 O 325.756 -0.764824 -5.97021 0
M  V30 3523 H 329.582 -1.35755 -2.71669 0
M  V30 3524 H 327.167 -0.725961 -1.30576 0
M  V30 3525 H 329.049 0.619677 -4.16819 0
M  V30 3526 H 327.724 1.06296 -3.0575 0
M  V30 3527 H 326.631 -1.20308 -3.54227 0
M  V30 3528 H 327.964 -1.56423 -4.66683 0
M  V30 3529 N 329.616 1.39756 -0.72842 0
M  V30 3530 C 330.864 2.00248 -0.272946 0
M  V30 3531 C 331.185 1.58077 1.14178 0
M  V30 3532 O 330.455 0.826014 1.77634 0
M  V30 3533 H 329.035 0.740554 -0.0979247 0
M  V30 3534 H 331.697 1.70903 -0.936912 0
M  V30 3535 H 330.793 3.10495 -0.316142 0
M  V30 3536 N 331.094 0.475555 1.50254 0
M  V30 3537 C 332.371 -0.139685 1.95101 0
M  V30 3538 C 332.751 -1.56555 1.41611 0
M  V30 3539 O 332.099 -2.19956 0.618993 0
M  V30 3540 C 332.309 -0.0784298 3.48912 0
M  V30 3541 C 333.657 -0.265095 4.23772 0
M  V30 3542 O 334.681 -0.154808 3.55863 0
M  V30 3543 O 333.54 -0.488327 5.44314 0
M  V30 3544 H 330.634 -0.109236 0.819754 0
M  V30 3545 H 333.18 0.536276 1.61004 0
M  V30 3546 H 331.952 0.916918 3.80405 0
M  V30 3547 H 331.575 -0.795655 3.89558 0
M  V30 3548 N 332.573 -1.56217 0.208337 0
M  V30 3549 C 333.521 -2.21053 -0.723769 0
M  V30 3550 C 334.515 -1.18578 -1.20978 0
M  V30 3551 O 335.721 -1.36691 -1.17114 0
M  V30 3552 H 332.096 -0.708595 -0.251788 0
M  V30 3553 H 334.067 -2.98006 -0.153365 0
M  V30 3554 C 332.816 -2.89417 -1.927 0
M  V30 3555 H 332.139 -3.68019 -1.56212 0
M  V30 3556 H 333.579 -3.38201 -2.55727 0
M  V30 3557 C 332.038 -1.91166 -2.77411 0
M  V30 3558 O 332.568 -1.42026 -3.75754 0
M  V30 3559 N 330.774 -1.59105 -2.43175 0
M  V30 3560 H 330.321 -1.99259 -1.63259 0
M  V30 3561 H 330.279 -0.936255 -3.00136 0
M  V30 3562 N 334.051 0.0651679 -1.57465 0
M  V30 3563 C 335.014 1.06117 -2.03155 0
M  V30 3564 C 336.014 1.31204 -0.929632 0
M  V30 3565 O 337.204 1.26813 -1.19432 0
M  V30 3566 C 334.336 2.4032 -2.41783 0
M  V30 3567 H 335.529 0.667231 -2.92383 0
M  V30 3568 H 333.082 0.311075 -1.53173 0
M  V30 3569 H 333.817 2.84532 -1.55601 0
M  V30 3570 H 333.602 2.23451 -3.22199 0
M  V30 3571 H 335.092 3.11898 -2.77685 0
M  V30 3572 N 335.529 1.53961 0.336706 0
M  V30 3573 C 336.775 1.7179 1.07777 0
M  V30 3574 C 337.108 0.483263 1.88091 0
M  V30 3575 O 336.383 -0.519747 1.87427 0
M  V30 3576 C 336.666 2.98558 2.01334 0
M  V30 3577 C 336.519 4.32245 1.24437 0
M  V30 3578 C 337.838 3.21023 3.01052 0
M  V30 3579 H 334.957 0.625089 0.390426 0
M  V30 3580 H 337.599 1.86641 0.35567 0
M  V30 3581 H 335.749 2.86028 2.62908 0
M  V30 3582 H 337.421 4.56637 0.654243 0
M  V30 3583 H 335.664 4.30344 0.546458 0
M  V30 3584 H 336.335 5.17137 1.93063 0
M  V30 3585 H 338.811 3.32929 2.49595 0
M  V30 3586 H 337.687 4.11104 3.6371 0
M  V30 3587 H 337.948 2.37637 3.72802 0
M  V30 3588 N 337.007 -0.598083 1.45811 0
M  V30 3589 C 338.256 -1.35295 1.49594 0
M  V30 3590 C 338.569 -1.95057 0.145679 0
M  V30 3591 O 339.775 -2.71431 0.0612099 0
M  V30 3592 C 338.231 -2.45124 2.63519 0
M  V30 3593 C 337.839 -1.91732 4.04899 0
M  V30 3594 C 339.583 -3.2205 2.76558 0
M  V30 3595 C 337.49 -2.991 5.1019 0
M  V30 3596 H 336.42 -0.508552 0.556679 0
M  V30 3597 H 339.071 -0.639977 1.71978 0
M  V30 3598 H 337.453 -3.19149 2.34435 0
M  V30 3599 H 338.627 -1.24352 4.43704 0
M  V30 3600 H 336.942 -1.27522 3.96393 0
M  V30 3601 H 339.539 -4.0215 3.52391 0
M  V30 3602 H 339.882 -3.73663 1.83526 0
M  V30 3603 H 340.415 -2.55127 3.05213 0
M  V30 3604 H 337.154 -2.52393 6.04961 0
M  V30 3605 H 336.674 -3.65017 4.75944 0
M  V30 3606 H 338.353 -3.63318 5.35359 0
M  V30 3607 N 338.485 -1.33259 -0.841409 0
M  V30 3608 C 339.713 -1.27605 -1.62864 0
M  V30 3609 C 340.128 0.153507 -1.88175 0
M  V30 3610 O 339.485 1.09485 -1.46011 0
M  V30 3611 C 339.536 -2.04596 -2.98031 0
M  V30 3612 O 339.257 -3.41975 -2.73834 0
M  V30 3613 C 340.758 -2.06122 -3.92465 0
M  V30 3614 H 337.978 -0.439718 -0.506842 0
M  V30 3615 H 340.522 -1.75591 -1.04824 0
M  V30 3616 H 338.677 -1.60299 -3.5268 0
M  V30 3617 H 339.091 -3.81549 -3.59889 0
M  V30 3618 H 340.565 -2.64451 -4.84531 0
M  V30 3619 H 341.042 -1.05083 -4.26444 0
M  V30 3620 H 341.648 -2.50427 -3.43753 0
M  V30 3621 N 339.963 1.05934 -1.16686 0
M  V30 3622 C 341.203 1.80382 -0.961345 0
M  V30 3623 C 341.567 1.85331 0.501643 0
M  V30 3624 O 342.768 2.55795 0.825986 0
M  V30 3625 C 341.039 3.20777 -1.57596 0
M  V30 3626 S 342.598 4.11795 -1.51559 0
M  V30 3627 H 339.416 0.621332 -0.345641 0
M  V30 3628 H 342.018 1.27157 -1.48497 0
M  V30 3629 H 340.722 3.14773 -2.63337 0
M  V30 3630 H 340.253 3.79078 -1.05182 0
M  V30 3631 H 342.268 4.93485 -0.518374 0
M  V30 3632 N 341.441 0.965919 1.2453 0
M  V30 3633 C 342.389 0.486506 2.27455 0
M  V30 3634 C 343.383 -0.449041 1.6334 0
M  V30 3635 O 344.589 -0.324527 1.7705 0
M  V30 3636 H 340.964 0.138857 0.739069 0
M  V30 3637 H 342.935 1.3666 2.65267 0
M  V30 3638 C 341.684 -0.209481 3.47068 0
M  V30 3639 H 341.007 0.50129 3.96645 0
M  V30 3640 H 342.447 -0.508775 4.20936 0
M  V30 3641 C 340.906 -1.43586 3.0477 0
M  V30 3642 O 341.436 -2.53299 3.11773 0
M  V30 3643 N 339.642 -1.30126 2.59838 0
M  V30 3644 H 339.189 -0.408583 2.54339 0
M  V30 3645 H 339.147 -2.12294 2.31902 0
M  V30 3646 N 342.919 -1.39368 0.735821 0
M  V30 3647 C 344.167 -2.00101 0.283562 0
M  V30 3648 C 344.488 -1.5868 -1.13338 0
M  V30 3649 O 343.758 -0.835423 -1.77193 0
M  V30 3650 H 342.338 -0.740024 0.101851 0
M  V30 3651 H 345 -1.70404 0.945962 0
M  V30 3652 H 344.096 -3.10323 0.332604 0
M  V30 3653 N 344.397 -0.483516 -1.5 0
M  V30 3654 C 345.622 0.0667119 -2.07293 0
M  V30 3655 C 346.047 1.3164 -1.3436 0
M  V30 3656 O 345.405 1.76945 -0.394987 0
M  V30 3657 C 345.453 0.321126 -3.59167 0
M  V30 3658 O 344.557 1.39927 -3.87936 0
M  V30 3659 H 343.898 -0.0184758 -0.663743 0
M  V30 3660 H 346.428 -0.678125 -1.93035 0
M  V30 3661 H 346.438 0.557906 -4.04168 0
M  V30 3662 H 345.113 -0.592007 -4.11665 0
M  V30 3663 H 343.69 1.14882 -3.54763 0
M  V30 3664 N 345.875 1.56104 -0.216619 0
M  V30 3665 C 347.123 1.97781 0.415593 0
M  V30 3666 C 347.444 1.10536 1.60645 0
M  V30 3667 O 346.714 0.181303 1.95059 0
M  V30 3668 H 345.294 0.730415 0.156534 0
M  V30 3669 H 347.956 1.92445 -0.308366 0
M  V30 3670 H 347.052 3.03072 0.74525 0
M  V30 3671 N 347.353 -0.0568162 1.57498 0
M  V30 3672 C 348.578 -0.769402 1.92601 0
M  V30 3673 C 349.003 -1.69559 0.814336 0
M  V30 3674 O 348.361 -1.79811 -0.231903 0
M  V30 3675 C 348.409 -1.52634 3.26704 0
M  V30 3676 O 347.513 -2.63797 3.16994 0
M  V30 3677 H 346.854 -0.208909 0.63028 0
M  V30 3678 H 349.384 -0.0205798 2.0459 0
M  V30 3679 H 349.394 -1.90234 3.60936 0
M  V30 3680 H 348.069 -0.846875 4.07186 0
M  V30 3681 H 346.646 -2.28943 2.94346 0
M  V30 3682 N 348.832 -1.54138 -0.328536 0
M  V30 3683 C 350.243 -1.63395 -0.903272 0
M  V30 3684 C 350.594 -0.524828 -1.8905 0
M  V30 3685 O 349.719 0.343068 -2.13663 0
M  V30 3686 C 350.314 -2.9618 -1.64507 0
M  V30 3687 C 348.873 -3.0765 -2.1686 0
M  V30 3688 C 348.02 -2.58933 -0.992416 0
M  V30 3689 H 350.971 -1.58344 -0.106253 0
M  V30 3690 H 350.992 -2.86061 -2.50897 0
M  V30 3691 H 350.504 -3.76884 -0.926302 0
M  V30 3692 H 348.605 -2.31611 -2.91868 0
M  V30 3693 H 348.718 -4.1337 -2.42202 0
M  V30 3694 H 347.082 -2.14706 -1.37016 0
M  V30 3695 H 347.865 -3.42089 -0.288041 0
M  V30 3696 N 350.31 0.590341 -1.46126 0
M  V30 3697 C 351.24 1.71032 -1.58966 0
M  V30 3698 C 352.221 1.64302 -0.440335 0
M  V30 3699 O 353.406 1.82436 -0.665634 0
M  V30 3700 C 350.536 3.09665 -1.57241 0
M  V30 3701 C 349.49 3.31221 -2.71066 0
M  V30 3702 C 348.816 4.70303 -2.54399 0
M  V30 3703 C 350.116 3.19796 -4.1295 0
M  V30 3704 H 351.81 1.60543 -2.52718 0
M  V30 3705 H 349.356 0.770933 -1.21625 0
M  V30 3706 H 351.309 3.87831 -1.64819 0
M  V30 3707 H 350.033 3.21036 -0.600289 0
M  V30 3708 H 348.692 2.55452 -2.62944 0
M  V30 3709 H 348.34 4.78429 -1.55288 0
M  V30 3710 H 348.04 4.85679 -3.30741 0
M  V30 3711 H 349.564 5.50647 -2.63857 0
M  V30 3712 H 350.978 3.87815 -4.22223 0
M  V30 3713 H 349.375 3.46696 -4.89818 0
M  V30 3714 H 350.445 2.16983 -4.33643 0
M  V30 3715 N 351.788 1.33704 0.83433 0
M  V30 3716 C 353.199 1.22813 1.4062 0
M  V30 3717 C 353.55 -0.151107 1.95617 0
M  V30 3718 O 352.675 -1.05092 1.89168 0
M  V30 3719 C 353.27 2.22355 2.55624 0
M  V30 3720 C 351.829 2.1529 3.08751 0
M  V30 3721 C 350.976 2.09589 1.8157 0
M  V30 3722 H 353.927 1.45236 0.639702 0
M  V30 3723 H 353.948 1.83391 3.33389 0
M  V30 3724 H 353.46 3.22728 2.15566 0
M  V30 3725 H 351.561 1.18235 3.53343 0
M  V30 3726 H 351.674 3.06038 3.68616 0
M  V30 3727 H 350.038 1.55134 2.02004 0
M  V30 3728 H 350.821 3.11777 1.43701 0
M  V30 3729 N 353.266 -1.05314 1.17247 0
M  V30 3730 C 354.543 -1.75184 0.87005 0
M  V30 3731 C 354.923 -2.01481 -0.629965 0
M  V30 3732 O 354.271 -1.64988 -1.58086 0
M  V30 3733 C 354.481 -3.04594 1.70363 0
M  V30 3734 C 355.829 -3.78567 1.92281 0
M  V30 3735 O 356.853 -3.14461 1.67311 0
M  V30 3736 O 355.712 -4.93755 2.3424 0
M  V30 3737 H 352.806 -0.761729 0.322021 0
M  V30 3738 H 355.352 -1.11493 1.27935 0
M  V30 3739 H 354.124 -2.81201 2.72106 0
M  V30 3740 H 353.747 -3.76022 1.29202 0
M  V30 3741 N 354.744 -0.972509 -1.24016 0
M  V30 3742 C 355.99 -0.637978 -1.92504 0
M  V30 3743 C 356.323 0.825383 -1.75787 0
M  V30 3744 O 355.598 1.59442 -1.11393 0
M  V30 3745 C 355.881 -1.01942 -3.45369 0
M  V30 3746 C 355.734 -2.53983 -3.71231 0
M  V30 3747 C 357.053 -0.55751 -4.36555 0
M  V30 3748 H 354.172 -0.233248 -0.699117 0
M  V30 3749 H 356.814 -1.21238 -1.46292 0
M  V30 3750 H 354.964 -0.530656 -3.84859 0
M  V30 3751 H 356.636 -3.10374 -3.41271 0
M  V30 3752 H 354.879 -2.96968 -3.16216 0
M  V30 3753 H 355.55 -2.75723 -4.78206 0
M  V30 3754 H 358.026 -0.977029 -4.04467 0
M  V30 3755 H 356.902 -0.85292 -5.42233 0
M  V30 3756 H 357.163 0.542328 -4.38761 0
M  V30 3757 N 356.222 1.38976 -0.743202 0
M  V30 3758 C 357.499 1.94351 -0.220705 0
M  V30 3759 C 357.879 1.67935 1.2791 0
M  V30 3760 O 357.227 1.01211 2.04862 0
M  V30 3761 C 357.437 3.44426 -0.563171 0
M  V30 3762 C 358.785 4.2144 -0.517046 0
M  V30 3763 O 359.809 3.52661 -0.500846 0
M  V30 3764 O 358.668 5.44032 -0.518806 0
M  V30 3765 H 355.762 0.825879 -0.043047 0
M  V30 3766 H 358.308 1.48429 -0.822618 0
M  V30 3767 H 357.08 3.5712 -1.59941 0
M  V30 3768 H 356.703 3.97543 0.0672883 0
M  V30 3769 N 357.7 0.491464 1.49741 0
M  V30 3770 C 358.946 -0.0485431 2.03342 0
M  V30 3771 C 359.301 -1.35566 1.36527 0
M  V30 3772 O 358.594 -1.85262 0.488729 0
M  V30 3773 C 358.788 -0.267329 3.56399 0
M  V30 3774 C 358.617 1.01703 4.38049 0
M  V30 3775 C 357.387 1.56614 4.80417 0
M  V30 3776 C 359.585 1.91782 4.77204 0
M  V30 3777 N 357.567 2.7974 5.4646 0
M  V30 3778 C 358.938 2.99489 5.42868 0
M  V30 3779 C 360.993 1.92575 4.5915 0
M  V30 3780 C 359.696 4.08005 5.92389 0
M  V30 3781 C 361.722 3.0006 5.09626 0
M  V30 3782 C 361.084 4.06485 5.75282 0
M  V30 3783 H 357.183 0.0227779 0.781668 0
M  V30 3784 H 359.767 0.664204 1.8302 0
M  V30 3785 H 357.938 -0.949126 3.76625 0
M  V30 3786 H 359.67 -0.803492 3.96644 0
M  V30 3787 H 356.425 1.11256 4.60347 0
M  V30 3788 H 356.849 3.42323 5.84075 0
M  V30 3789 H 361.491 1.11605 4.07804 0
M  V30 3790 H 359.209 4.89779 6.42761 0
M  V30 3791 H 362.795 3.01681 4.97473 0
M  V30 3792 H 361.675 4.88287 6.13633 0
M  V30 3793 N 359.178 -1.55987 0.224894 0
M  V30 3794 C 360.427 -1.97566 -0.406273 0
M  V30 3795 C 360.74 -1.11569 -1.6066 0
M  V30 3796 O 361.946 -1.43062 -2.3075 0
M  V30 3797 C 360.402 -3.51474 -0.774207 0
M  V30 3798 C 360.01 -4.46179 0.403496 0
M  V30 3799 C 361.754 -4.01758 -1.37079 0
M  V30 3800 C 359.661 -5.91399 0.0129412 0
M  V30 3801 H 358.591 -0.737777 -0.155565 0
M  V30 3802 H 361.242 -1.80659 0.321635 0
M  V30 3803 H 359.624 -3.63994 -1.55963 0
M  V30 3804 H 360.798 -4.45409 1.18101 0
M  V30 3805 H 359.113 -4.06255 0.913536 0
M  V30 3806 H 361.71 -5.07756 -1.67596 0
M  V30 3807 H 362.053 -3.47805 -2.28773 0
M  V30 3808 H 362.586 -3.92475 -0.648733 0
M  V30 3809 H 359.325 -6.49341 0.896451 0
M  V30 3810 H 358.845 -5.95356 -0.728821 0
M  V30 3811 H 360.524 -6.45683 -0.412582 0
M  V30 3812 N 360.656 0.0484629 -1.57525 0
M  V30 3813 C 361.902 0.744226 -1.88651 0
M  V30 3814 C 362.235 1.76029 -0.820212 0
M  V30 3815 O 361.51 1.93782 0.166985 0
M  V30 3816 C 361.793 1.43128 -3.30434 0
M  V30 3817 C 361.646 0.43005 -4.47739 0
M  V30 3818 C 362.965 2.37031 -3.70816 0
M  V30 3819 H 360.084 0.269089 -0.68612 0
M  V30 3820 H 362.726 0.00713532 -1.89999 0
M  V30 3821 H 360.876 2.05956 -3.29415 0
M  V30 3822 H 362.548 -0.194816 -4.60888 0
M  V30 3823 H 360.791 -0.252522 -4.33064 0
M  V30 3824 H 361.462 0.948874 -5.43783 0
M  V30 3825 H 363.938 1.84263 -3.73077 0
M  V30 3826 H 362.814 2.82094 -4.70865 0
M  V30 3827 H 363.075 3.22864 -3.02012 0
M  V30 3828 N 362.134 1.5431 0.320358 0
M  V30 3829 C 363.362 1.76636 1.07738 0
M  V30 3830 C 363.777 0.51649 1.81598 0
M  V30 3831 O 363.134 -0.512942 1.75143 0
M  V30 3832 C 363.185 2.96158 2.07299 0
M  V30 3833 O 362.906 4.16313 1.36438 0
M  V30 3834 C 364.407 3.3072 2.95193 0
M  V30 3835 H 361.627 0.589597 0.320339 0
M  V30 3836 H 364.171 2.01207 0.36551 0
M  V30 3837 H 362.326 2.73851 2.74016 0
M  V30 3838 H 362.74 4.83565 2.03138 0
M  V30 3839 H 364.214 4.17643 3.60941 0
M  V30 3840 H 364.691 2.48026 3.62463 0
M  V30 3841 H 365.297 3.55117 2.34034 0
M  V30 3842 N 363.613 -0.582584 1.46437 0
M  V30 3843 C 364.861 -1.33814 1.51453 0
M  V30 3844 C 365.182 -1.94277 0.167792 0
M  V30 3845 O 364.452 -1.78566 -0.805677 0
M  V30 3846 H 363.032 -0.496838 0.557818 0
M  V30 3847 H 365.694 -0.682281 1.82568 0
M  V30 3848 H 364.79 -2.14479 2.26728 0
M  V30 3849 N 365.091 -1.34144 -0.827227 0
M  V30 3850 C 366.021 -1.28005 -1.95287 0
M  V30 3851 C 367.002 -0.158321 -1.69362 0
M  V30 3852 O 368.187 -0.349987 -1.9102 0
M  V30 3853 C 365.317 -1.03036 -3.31664 0
M  V30 3854 C 364.271 -2.11628 -3.72019 0
M  V30 3855 C 363.597 -1.71854 -5.0633 0
M  V30 3856 C 364.897 -3.53417 -3.8457 0
M  V30 3857 H 366.591 -2.22187 -2.00682 0
M  V30 3858 H 364.137 -1.0696 -0.964135 0
M  V30 3859 H 366.09 -0.973863 -4.09993 0
M  V30 3860 H 364.814 -0.0529391 -3.26557 0
M  V30 3861 H 363.473 -2.16339 -2.95961 0
M  V30 3862 H 363.121 -0.727841 -4.97706 0
M  V30 3863 H 362.821 -2.44531 -5.34302 0
M  V30 3864 H 364.345 -1.67692 -5.87122 0
M  V30 3865 H 365.759 -3.51142 -4.5318 0
M  V30 3866 H 364.156 -4.24679 -4.2399 0
M  V30 3867 H 365.226 -3.91072 -2.86689 0
M  V30 3868 N 366.569 1.04691 -1.17803 0
M  V30 3869 C 367.501 2.12571 -0.857097 0
M  V30 3870 C 368.514 1.62174 0.142647 0
M  V30 3871 O 369.703 1.78301 -0.0843387 0
M  V30 3872 C 366.803 3.37915 -0.258216 0
M  V30 3873 C 365.976 4.1757 -1.30207 0
M  V30 3874 C 365.035 5.2125 -0.720029 0
M  V30 3875 O 364.061 5.51888 -1.39314 0
M  V30 3876 N 365.263 5.78466 0.485507 0
M  V30 3877 H 368.028 2.40698 -1.78562 0
M  V30 3878 H 365.589 1.20831 -1.07757 0
M  V30 3879 H 367.581 4.04442 0.144584 0
M  V30 3880 H 366.151 3.07281 0.574199 0
M  V30 3881 H 365.371 3.46458 -1.88043 0
M  V30 3882 H 366.659 4.67586 -2.00601 0
M  V30 3883 H 366.057 5.55866 1.05022 0
M  V30 3884 H 364.614 6.4649 0.830307 0
M  V30 3885 N 368.047 0.979072 1.23499 0
M  V30 3886 C 369.272 0.664845 1.96455 0
M  V30 3887 C 369.697 -0.761287 1.72006 0
M  V30 3888 O 369.055 -1.51837 0.990713 0
M  V30 3889 C 369.103 0.959479 3.47601 0
M  V30 3890 O 368.207 0.0508168 4.12369 0
M  V30 3891 H 367.548 0.250185 0.615064 0
M  V30 3892 H 370.078 1.31231 1.5697 0
M  V30 3893 H 370.088 0.895642 3.98048 0
M  V30 3894 H 368.763 1.99876 3.64723 0
M  V30 3895 H 367.34 0.16895 3.72517 0
M  V30 3896 N 369.525 -1.3858 0.750561 0
M  V30 3897 C 370.774 -1.99424 0.302172 0
M  V30 3898 C 371.087 -1.60254 -1.12152 0
M  V30 3899 O 372.293 -2.14046 -1.67023 0
M  V30 3900 C 370.749 -3.56558 0.489307 0
M  V30 3901 C 370.357 -4.04682 1.92189 0
M  V30 3902 C 372.101 -4.24374 0.103478 0
M  V30 3903 C 370.008 -5.54446 2.05775 0
M  V30 3904 H 368.938 -0.746046 0.10923 0
M  V30 3905 H 371.589 -1.58383 0.92667 0
M  V30 3906 H 369.971 -3.95472 -0.204329 0
M  V30 3907 H 371.145 -3.77065 2.64875 0
M  V30 3908 H 369.46 -3.4958 2.26236 0
M  V30 3909 H 372.057 -5.34384 0.183787 0
M  V30 3910 H 372.4 -4.05468 -0.943481 0
M  V30 3911 H 372.933 -3.90688 0.748854 0
M  V30 3912 H 369.672 -5.78252 3.08714 0
M  V30 3913 H 369.192 -5.83816 1.37546 0
M  V30 3914 H 370.871 -6.20099 1.84626 0
M  V30 3915 N 371.003 -0.499398 -1.49478 0
M  V30 3916 C 371.951 0.293604 -2.3074 0
M  V30 3917 C 372.945 0.96427 -1.39277 0
M  V30 3918 O 374.151 0.892141 -1.56336 0
M  V30 3919 H 370.526 0.113541 -0.743379 0
M  V30 3920 H 372.497 -0.411772 -2.95545 0
M  V30 3921 C 371.246 1.3462 -3.20582 0
M  V30 3922 H 370.569 0.83954 -3.90886 0
M  V30 3923 H 372.009 1.87308 -3.80384 0
M  V30 3924 C 370.468 2.36351 -2.40083 0
M  V30 3925 O 370.998 3.422 -2.10385 0
M  V30 3926 N 369.204 2.0878 -2.02137 0
M  V30 3927 H 368.751 1.22723 -2.26488 0
M  V30 3928 H 368.709 2.77075 -1.48583 0
M  V30 3929 N 372.481 1.55866 -0.233164 0
M  V30 3930 C 373.709 2.02998 0.399905 0
M  V30 3931 C 374.124 1.11274 1.52524 0
M  V30 3932 O 373.481 0.124528 1.82075 0
M  V30 3933 C 373.532 3.4958 0.920639 0
M  V30 3934 O 373.253 4.37808 -0.159834 0
M  V30 3935 C 374.754 4.12411 1.62578 0
M  V30 3936 H 371.974 0.664006 0.0966281 0
M  V30 3937 H 374.518 2.0143 -0.353013 0
M  V30 3938 H 372.673 3.51727 1.62379 0
M  V30 3939 H 373.087 5.23981 0.23337 0
M  V30 3940 H 374.561 5.16711 1.94201 0
M  V30 3941 H 375.038 3.5809 2.54299 0
M  V30 3942 H 375.644 4.14148 0.967553 0
M  V30 3943 N 373.959 -0.0401083 1.57549 0
M  V30 3944 C 374.909 -1.05175 2.02292 0
M  V30 3945 C 375.893 -1.32674 0.910294 0
M  V30 3946 O 377.085 -1.32444 1.17421 0
M  V30 3947 C 374.214 -2.35622 2.49674 0
M  V30 3948 C 373.3 -2.11261 3.67736 0
M  V30 3949 N 373.691 -1.56923 4.80842 0
M  V30 3950 C 371.989 -2.41596 3.74897 0
M  V30 3951 C 372.69 -1.48111 5.62528 0
M  V30 3952 N 371.666 -1.95282 5.07312 0
M  V30 3953 H 375.468 -0.625455 2.87168 0
M  V30 3954 H 372.982 -0.246624 1.60516 0
M  V30 3955 H 374.979 -3.08893 2.79983 0
M  V30 3956 H 373.639 -2.7894 1.662 0
M  V30 3957 H 374.65 -1.25345 5.02503 0
M  V30 3958 H 371.327 -2.88064 3.02201 0
M  V30 3959 H 372.717 -1.06683 6.63377 0
M  V30 3960 N 375.437 -1.54477 -0.31217 0
M  V30 3961 C 376.369 -1.81011 -1.40598 0
M  V30 3962 C 377.382 -0.692546 -1.47335 0
M  V30 3963 O 378.571 -0.969847 -1.49854 0
M  V30 3964 C 375.671 -1.92307 -2.79054 0
M  V30 3965 C 374.844 -3.22594 -2.95384 0
M  V30 3966 C 373.903 -3.24448 -4.1427 0
M  V30 3967 O 372.929 -3.98035 -4.06887 0
M  V30 3968 N 374.131 -2.49042 -5.24365 0
M  V30 3969 H 376.896 -2.75408 -1.18196 0
M  V30 3970 H 374.457 -1.53914 -0.502202 0
M  V30 3971 H 376.449 -1.90962 -3.56813 0
M  V30 3972 H 375.019 -1.04955 -2.94454 0
M  V30 3973 H 374.239 -3.36806 -2.04831 0
M  V30 3974 H 375.527 -4.08593 -3.03198 0
M  V30 3975 H 374.925 -1.88867 -5.33241 0
M  V30 3976 H 373.482 -2.53463 -6.005 0
M  V30 3977 N 376.915 0.57481 -1.46744 0
M  V30 3978 C 378.143 1.35856 -1.56047 0
M  V30 3979 C 378.558 1.87691 -0.204365 0
M  V30 3980 O 377.915 1.64049 0.79963 0
M  V30 3981 C 377.966 2.54066 -2.57163 0
M  V30 3982 O 377.687 2.04377 -3.87507 0
M  V30 3983 C 379.188 3.46514 -2.76483 0
M  V30 3984 H 376.408 0.414754 -0.527466 0
M  V30 3985 H 378.952 0.698035 -1.92218 0
M  V30 3986 H 377.107 3.16092 -2.23974 0
M  V30 3987 H 377.521 2.81419 -4.4261 0
M  V30 3988 H 378.995 4.25919 -3.51137 0
M  V30 3989 H 379.472 3.98951 -1.83671 0
M  V30 3990 H 380.078 2.90318 -3.10799 0
M  V30 3991 N 378.394 1.34581 0.820102 0
M  V30 3992 C 379.342 1.26401 1.95258 0
M  V30 3993 C 380.336 0.161553 1.68628 0
M  V30 3994 O 381.542 0.326703 1.7701 0
M  V30 3995 H 377.917 0.392749 0.64129 0
M  V30 3996 H 379.888 2.22105 1.99279 0
M  V30 3997 C 378.637 1.03919 3.31807 0
M  V30 3998 H 377.96 1.87984 3.52848 0
M  V30 3999 H 379.4 1.02232 4.11491 0
M  V30 4000 C 377.859 -0.257433 3.35915 0
M  V30 4001 O 378.389 -1.25784 3.81499 0
M  V30 4002 N 376.595 -0.291524 2.89134 0
M  V30 4003 H 376.142 0.523161 2.52232 0
M  V30 4004 H 376.1 -1.15883 2.92264 0
M  V30 4005 N 379.872 -1.04064 1.18357 0
M  V30 4006 C 380.802 -2.14001 0.934113 0
M  V30 4007 C 381.783 -1.69616 -0.128186 0
M  V30 4008 O 382.968 -1.94185 0.0244093 0
M  V30 4009 C 380.098 -3.44253 0.459066 0
M  V30 4010 C 379.052 -4.02261 1.46185 0
M  V30 4011 C 378.378 -5.27992 0.844322 0
M  V30 4012 C 379.678 -4.38432 2.83856 0
M  V30 4013 H 381.372 -2.35127 1.85352 0
M  V30 4014 H 378.918 -1.12998 0.892604 0
M  V30 4015 H 380.871 -4.20522 0.271907 0
M  V30 4016 H 379.595 -3.22813 -0.495912 0
M  V30 4017 H 378.254 -3.28074 1.63595 0
M  V30 4018 H 377.902 -5.02862 -0.117845 0
M  V30 4019 H 377.602 -5.67765 1.51384 0
M  V30 4020 H 379.126 -6.06938 0.667693 0
M  V30 4021 H 380.54 -5.05688 2.70098 0
M  V30 4022 H 378.937 -4.89254 3.47491 0
M  V30 4023 H 380.007 -3.4826 3.37406 0
M  V30 4024 N 381.35 -0.985608 -1.22978 0
M  V30 4025 C 382.298 -0.522631 -2.26652 0
M  V30 4026 C 383.292 0.422998 -1.64034 0
M  V30 4027 O 384.498 0.296319 -1.77544 0
M  V30 4028 H 380.873 -0.150597 -0.736766 0
M  V30 4029 H 382.844 -1.40863 -2.63059 0
M  V30 4030 C 381.593 0.154238 -3.47358 0
M  V30 4031 H 380.916 -0.564329 -3.95797 0
M  V30 4032 H 382.356 0.441744 -4.21693 0
M  V30 4033 C 380.815 1.38719 -3.07016 0
M  V30 4034 O 381.345 2.48307 -3.15764 0
M  V30 4035 N 379.551 1.25975 -2.61875 0
M  V30 4036 H 379.098 0.368068 -2.54957 0
M  V30 4037 H 379.056 2.08578 -2.3525 0
M  V30 4038 N 382.828 1.3818 -0.7579 0
M  V30 4039 C 384.074 2.0078 -0.325423 0
M  V30 4040 C 384.429 1.59085 1.08211 0
M  V30 4041 O 383.722 0.820394 1.73148 0
M  V30 4042 C 383.916 3.55252 -0.391218 0
M  V30 4043 C 383.745 4.11947 -1.8036 0
M  V30 4044 C 382.515 4.43519 -2.42113 0
M  V30 4045 C 384.713 4.33908 -2.76095 0
M  V30 4046 N 382.695 4.85847 -3.75267 0
M  V30 4047 C 384.066 4.78692 -3.94023 0
M  V30 4048 C 386.121 4.16015 -2.73561 0
M  V30 4049 C 384.824 5.07459 -5.09782 0
M  V30 4050 C 386.85 4.45909 -3.88483 0
M  V30 4051 C 386.212 4.90921 -5.0515 0
M  V30 4052 H 382.311 0.764215 -0.165831 0
M  V30 4053 H 384.895 1.67724 -0.988776 0
M  V30 4054 H 383.066 3.87646 0.241886 0
M  V30 4055 H 384.798 4.04653 0.061989 0
M  V30 4056 H 381.553 4.32113 -1.93842 0
M  V30 4057 H 381.977 5.11339 -4.4369 0
M  V30 4058 H 386.619 3.80399 -1.84544 0
M  V30 4059 H 384.337 5.4197 -5.99412 0
M  V30 4060 H 387.923 4.33666 -3.87847 0
M  V30 4061 H 386.803 5.1361 -5.92599 0
M  V30 4062 N 384.306 0.507319 1.49211 0
M  V30 4063 C 385.534 -0.0315749 2.06876 0
M  V30 4064 C 385.949 -1.30241 1.36685 0
M  V30 4065 O 385.306 -1.76937 0.447152 0
M  V30 4066 C 385.357 -0.282627 3.60393 0
M  V30 4067 O 385.078 0.937835 4.27944 0
M  V30 4068 C 386.579 -0.864453 4.3479 0
M  V30 4069 H 383.799 0.0233048 0.670595 0
M  V30 4070 H 386.343 0.706484 1.91909 0
M  V30 4071 H 384.498 -0.97068 3.75042 0
M  V30 4072 H 384.912 0.704567 5.19746 0
M  V30 4073 H 386.386 -0.989664 5.43056 0
M  V30 4074 H 386.863 -1.86382 3.97692 0
M  V30 4075 H 387.469 -0.213672 4.24763 0
M  V30 4076 N 385.784 -1.5574 0.241426 0
M  V30 4077 C 386.732 -2.22538 -0.676718 0
M  V30 4078 C 387.726 -1.21117 -1.18436 0
M  V30 4079 O 388.932 -1.39144 -1.14188 0
M  V30 4080 H 385.307 -0.713776 -0.236701 0
M  V30 4081 H 387.278 -2.98264 -0.0901187 0
M  V30 4082 C 386.027 -2.93439 -1.86518 0
M  V30 4083 H 385.35 -3.7125 -1.4837 0
M  V30 4084 H 386.79 -3.43549 -2.48495 0
M  V30 4085 C 385.249 -1.97008 -2.73294 0
M  V30 4086 O 385.779 -1.49965 -3.72657 0
M  V30 4087 N 383.985 -1.64227 -2.39745 0
M  V30 4088 H 383.532 -2.02677 -1.58996 0
M  V30 4089 H 383.49 -0.999708 -2.98083 0
M  V30 4090 N 387.262 0.0317525 -1.57568 0
M  V30 4091 C 388.508 0.724175 -1.8943 0
M  V30 4092 C 388.841 1.75149 -0.838836 0
M  V30 4093 O 388.116 1.93948 0.146422 0
M  V30 4094 C 388.399 1.39615 -3.31933 0
M  V30 4095 C 388.252 0.382537 -4.4817 0
M  V30 4096 C 389.571 2.33084 -3.73309 0
M  V30 4097 H 386.69 0.261797 -0.688935 0
M  V30 4098 H 389.332 -0.013017 -1.89996 0
M  V30 4099 H 387.482 2.02451 -3.31581 0
M  V30 4100 H 389.154 -0.243689 -4.60656 0
M  V30 4101 H 387.397 -0.29844 -4.32772 0
M  V30 4102 H 388.068 0.891145 -5.44759 0
M  V30 4103 H 390.544 1.80295 -3.7501 0
M  V30 4104 H 389.42 2.77084 -4.73831 0
M  V30 4105 H 389.681 3.19643 -3.05419 0
M  V30 4106 N 388.74 1.54641 0.303973 0
M  V30 4107 C 389.69 1.8177 1.37636 0
M  V30 4108 C 390.674 0.674697 1.46071 0
M  V30 4109 O 391.866 0.935251 1.50273 0
M  V30 4110 C 388.995 2.06584 2.74186 0
M  V30 4111 C 388.081 3.2706 2.69986 0
M  V30 4112 N 388.472 4.47682 2.35402 0
M  V30 4113 C 386.77 3.29028 3.01092 0
M  V30 4114 C 387.471 5.29689 2.40426 0
M  V30 4115 N 386.447 4.67339 2.7766 0
M  V30 4116 H 390.249 2.72596 1.09857 0
M  V30 4117 H 387.763 1.541 0.51254 0
M  V30 4118 H 389.76 2.24166 3.51504 0
M  V30 4119 H 388.42 1.17024 3.02879 0
M  V30 4120 H 389.431 4.74336 2.07908 0
M  V30 4121 H 386.108 2.49565 3.34699 0
M  V30 4122 H 387.498 6.3606 2.16512 0
M  V30 4123 N 390.218 -0.567019 1.47046 0
M  V30 4124 C 391.181 -1.65696 1.58359 0
M  V30 4125 C 392.181 -1.54097 0.459441 0
M  V30 4126 O 393.371 -1.58432 0.724225 0
M  V30 4127 C 390.503 -3.05197 1.51879 0
M  V30 4128 H 391.696 -1.57019 2.5551 0
M  V30 4129 H 389.249 -0.786148 1.3509 0
M  V30 4130 H 389.984 -3.19417 0.560673 0
M  V30 4131 H 389.769 -3.15025 2.33455 0
M  V30 4132 H 391.259 -3.84511 1.62913 0
M  V30 4133 N 391.696 -1.35014 -0.812953 0
M  V30 4134 C 392.945 -1.27269 -1.56479 0
M  V30 4135 C 393.258 0.152771 -1.95002 0
M  V30 4136 O 394.464 0.352451 -2.69203 0
M  V30 4137 C 392.92 -2.23159 -2.82362 0
M  V30 4138 C 392.528 -3.71016 -2.511 0
M  V30 4139 C 394.272 -2.24342 -3.60376 0
M  V30 4140 C 392.179 -4.58746 -3.73237 0
M  V30 4141 H 391.109 -0.472829 -0.587324 0
M  V30 4142 H 393.76 -1.6024 -0.894171 0
M  V30 4143 H 392.142 -1.83151 -3.51101 0
M  V30 4144 H 393.316 -4.1962 -1.90409 0
M  V30 4145 H 391.631 -3.72378 -1.86343 0
M  V30 4146 H 394.228 -2.87107 -4.51081 0
M  V30 4147 H 394.571 -1.24542 -3.97234 0
M  V30 4148 H 395.104 -2.62846 -2.98591 0
M  V30 4149 H 391.843 -5.59521 -3.41492 0
M  V30 4150 H 391.363 -4.14871 -4.33176 0
M  V30 4151 H 393.042 -4.73852 -4.40537 0
M  V30 4152 N 393.175 1.03435 -1.18907 0
M  V30 4153 C 394.123 2.13703 -0.918353 0
M  V30 4154 C 395.117 1.68947 0.123767 0
M  V30 4155 O 396.323 1.79983 -0.0249701 0
M  V30 4156 H 392.698 0.698112 -0.279542 0
M  V30 4157 H 394.669 2.33731 -1.85506 0
M  V30 4158 C 393.418 3.44542 -0.467532 0
M  V30 4159 H 392.741 3.79394 -1.26095 0
M  V30 4160 H 394.181 4.22812 -0.317164 0
M  V30 4161 C 392.64 3.26829 0.817588 0
M  V30 4162 O 393.17 3.54975 1.88031 0
M  V30 4163 N 391.376 2.80139 0.772677 0
M  V30 4164 H 390.923 2.57434 -0.0923883 0
M  V30 4165 H 390.881 2.68668 1.63294 0
M  V30 4166 N 394.653 0.992116 1.22453 0
M  V30 4167 C 395.583 0.561677 2.26644 0
M  V30 4168 C 396.564 -0.411055 1.65059 0
M  V30 4169 O 397.749 -0.301861 1.9184 0
M  V30 4170 C 394.879 -0.125247 3.47074 0
M  V30 4171 C 393.833 0.765948 4.21091 0
M  V30 4172 C 393.159 -0.0538484 5.34673 0
M  V30 4173 C 394.459 2.06242 4.79856 0
M  V30 4174 H 396.153 1.43259 2.62902 0
M  V30 4175 H 393.699 0.690283 1.26377 0
M  V30 4176 H 395.652 -0.437764 4.1912 0
M  V30 4177 H 394.376 -1.03069 3.0991 0
M  V30 4178 H 393.035 1.0621 3.50878 0
M  V30 4179 H 392.683 -0.960188 4.9375 0
M  V30 4180 H 392.383 0.539415 5.85119 0
M  V30 4181 H 393.907 -0.360477 6.09535 0
M  V30 4182 H 395.321 1.8139 5.43848 0
M  V30 4183 H 393.718 2.60444 5.40638 0
M  V30 4184 H 394.788 2.74167 3.99951 0
M  V30 4185 N 396.131 -1.37776 0.765217 0
M  V30 4186 C 397.359 -2.04124 0.337767 0
M  V30 4187 C 397.774 -1.57715 -1.03785 0
M  V30 4188 O 397.131 -0.755447 -1.6613 0
M  V30 4189 C 397.182 -3.59658 0.364442 0
M  V30 4190 O 396.903 -4.04367 1.68579 0
M  V30 4191 C 398.404 -4.43236 -0.0754221 0
M  V30 4192 H 395.624 -0.655696 0.142491 0
M  V30 4193 H 398.168 -1.76238 1.03732 0
M  V30 4194 H 396.323 -3.86339 -0.286471 0
M  V30 4195 H 396.737 -4.98857 1.61993 0
M  V30 4196 H 398.211 -5.52 -0.00560067 0
M  V30 4197 H 398.688 -4.2455 -1.12491 0
M  V30 4198 H 399.294 -4.21767 0.547055 0
M  V30 4199 N 397.609 -0.515225 -1.4894 0
M  V30 4200 C 398.539 0.244628 -2.32215 0
M  V30 4201 C 399.52 0.949136 -1.41157 0
M  V30 4202 O 400.705 0.937783 -1.70057 0
M  V30 4203 C 397.835 1.30096 -3.22013 0
M  V30 4204 C 396.789 0.715486 -4.21977 0
M  V30 4205 C 396.115 1.87339 -5.00808 0
M  V30 4206 C 397.415 -0.302982 -5.2142 0
M  V30 4207 H 399.109 -0.450501 -2.95991 0
M  V30 4208 H 396.655 -0.218098 -1.42339 0
M  V30 4209 H 398.608 1.84037 -3.79089 0
M  V30 4210 H 397.332 2.02547 -2.56207 0
M  V30 4211 H 395.991 0.197715 -3.66066 0
M  V30 4212 H 395.639 2.58592 -4.31438 0
M  V30 4213 H 395.339 1.48764 -5.68457 0
M  V30 4214 H 396.863 2.41686 -5.60732 0
M  V30 4215 H 398.277 0.148802 -5.73107 0
M  V30 4216 H 396.674 -0.60532 -5.97039 0
M  V30 4217 H 397.744 -1.21395 -4.69459 0
M  V30 4218 N 399.087 1.5561 -0.249682 0
M  V30 4219 C 400.333 1.99306 0.374841 0
M  V30 4220 C 400.666 1.13767 1.57387 0
M  V30 4221 O 399.941 0.201711 1.93451 0
M  V30 4222 C 400.224 3.51507 0.781986 0
M  V30 4223 C 400.077 4.4781 -0.422629 0
M  V30 4224 C 401.396 4.08884 1.62793 0
M  V30 4225 H 398.515 0.724572 0.134773 0
M  V30 4226 H 401.157 1.86719 -0.351549 0
M  V30 4227 H 399.307 3.62363 1.4009 0
M  V30 4228 H 400.979 4.48931 -1.06108 0
M  V30 4229 H 399.222 4.20518 -1.06524 0
M  V30 4230 H 399.893 5.51919 -0.0943766 0
M  V30 4231 H 402.369 4.01147 1.10547 0
M  V30 4232 H 401.245 5.1564 1.88166 0
M  V30 4233 H 401.506 3.57515 2.60068 0
M  V30 4234 N 400.565 -0.0233959 1.57583 0
M  V30 4235 C 401.513 -1.04063 2.08023 0
M  V30 4236 C 402.507 -1.37084 0.995204 0
M  V30 4237 O 403.713 -1.35923 1.18004 0
M  V30 4238 H 400.088 -0.353144 0.663922 0
M  V30 4239 H 402.059 -0.589453 2.9252 0
M  V30 4240 C 400.808 -2.33123 2.57971 0
M  V30 4241 H 400.131 -2.08577 3.4108 0
M  V30 4242 H 401.571 -3.02632 2.96967 0
M  V30 4243 C 400.03 -3.02483 1.48342 0
M  V30 4244 O 400.56 -3.92541 0.852898 0
M  V30 4245 N 398.766 -2.63909 1.21658 0
M  V30 4246 H 398.313 -1.90758 1.73116 0
M  V30 4247 H 398.271 -3.10633 0.485218 0
M  V30 4248 N 402.043 -1.548 -0.295768 0
M  V30 4249 C 403.289 -1.74588 -1.03184 0
M  V30 4250 C 403.622 -0.532962 -1.86744 0
M  V30 4251 O 402.897 0.469872 -1.88739 0
M  V30 4252 C 403.18 -3.03791 -1.93347 0
M  V30 4253 C 403.033 -4.35392 -1.12933 0
M  V30 4254 C 404.352 -3.28892 -2.92435 0
M  V30 4255 H 401.471 -0.635221 -0.373715 0
M  V30 4256 H 404.113 -1.87519 -0.30606 0
M  V30 4257 H 402.263 -2.92898 -2.55232 0
M  V30 4258 H 403.935 -4.58211 -0.532943 0
M  V30 4259 H 402.178 -4.31642 -0.432168 0
M  V30 4260 H 402.849 -5.22074 -1.79284 0
M  V30 4261 H 405.325 -3.39429 -2.4068 0
M  V30 4262 H 404.201 -4.20603 -3.52682 0
M  V30 4263 H 404.462 -2.47437 -3.6637 0
M  V30 4264 N 403.521 0.559213 -1.47345 0
M  V30 4265 C 404.749 1.34194 -1.57479 0
M  V30 4266 C 405.164 1.87463 -0.224261 0
M  V30 4267 O 404.521 1.64888 0.782185 0
M  V30 4268 C 404.572 2.51324 -2.59843 0
M  V30 4269 O 404.293 2.00256 -3.89653 0
M  V30 4270 C 405.794 3.43563 -2.80142 0
M  V30 4271 H 403.014 0.409136 -0.531835 0
M  V30 4272 H 405.558 0.677609 -1.92947 0
M  V30 4273 H 403.713 3.13699 -2.27314 0
M  V30 4274 H 404.127 2.76708 -4.4557 0
M  V30 4275 H 405.601 4.2217 -3.55635 0
M  V30 4276 H 406.078 3.9698 -1.87892 0
M  V30 4277 H 406.684 2.87005 -3.1386 0
M  V30 4278 N 404.999 1.35443 0.805782 0
M  V30 4279 C 406.224 1.32037 1.59941 0
M  V30 4280 C 406.649 -0.0994215 1.87837 0
M  V30 4281 O 406.007 -1.06648 1.46615 0
M  V30 4282 C 406.055 2.13354 2.90711 0
M  V30 4283 O 405.159 1.5148 3.83572 0
M  V30 4284 H 404.5 0.452666 0.485787 0
M  V30 4285 H 407.03 1.78496 1.00002 0
M  V30 4286 H 407.04 2.25338 3.40128 0
M  V30 4287 H 405.715 3.16572 2.69732 0
M  V30 4288 H 404.292 1.4834 3.42125 0
M  V30 4289 N 406.477 -1.02803 1.19454 0
M  V30 4290 C 407.387 -2.14575 0.948408 0
M  V30 4291 C 408.403 -1.73757 -0.091871 0
M  V30 4292 O 409.579 -2.01185 0.0929654 0
M  V30 4293 C 406.644 -3.43202 0.491265 0
M  V30 4294 C 405.705 -3.98328 1.60103 0
M  V30 4295 C 404.938 -5.20816 1.16561 0
M  V30 4296 O 405.161 -5.70392 0.0295238 0
M  V30 4297 O 404.095 -5.68801 1.96849 0
M  V30 4298 H 407.921 -2.38202 1.88397 0
M  V30 4299 H 405.506 -1.12989 0.977433 0
M  V30 4300 H 407.388 -4.20687 0.245015 0
M  V30 4301 H 406.063 -3.21018 -0.415851 0
M  V30 4302 H 404.97 -3.22174 1.90144 0
M  V30 4303 H 406.303 -4.24879 2.48473 0
M  V30 4304 N 407.956 -0.998596 -1.21925 0
M  V30 4305 C 409.233 -0.593401 -1.86382 0
M  V30 4306 C 409.613 0.92916 -1.89552 0
M  V30 4307 O 408.961 1.81347 -1.39017 0
M  V30 4308 C 409.171 -1.22039 -3.26967 0
M  V30 4309 C 410.519 -1.32449 -4.03413 0
M  V30 4310 O 411.543 -1.17522 -3.36254 0
M  V30 4311 O 410.402 -1.56395 -5.23644 0
M  V30 4312 H 407.496 -0.202385 -0.801854 0
M  V30 4313 H 410.042 -1.09484 -1.29659 0
M  V30 4314 H 408.814 -2.26158 -3.19325 0
M  V30 4315 H 408.437 -0.704906 -3.91301 0
M  V30 4316 N 409.434 1.37368 -0.772513 0
M  V30 4317 C 410.382 2.32134 -0.147111 0
M  V30 4318 C 411.376 1.54972 0.684106 0
M  V30 4319 O 412.582 1.70363 0.581083 0
M  V30 4320 H 408.957 0.751449 -0.028786 0
M  V30 4321 H 410.928 2.82464 -0.962112 0
M  V30 4322 C 409.677 3.40226 0.71703 0
M  V30 4323 H 409 3.99706 0.0867951 0
M  V30 4324 H 410.44 4.08897 1.12159 0
M  V30 4325 C 408.899 2.80372 1.86797 0
M  V30 4326 O 409.429 2.71183 2.96349 0
M  V30 4327 N 407.635 2.37904 1.66883 0
M  V30 4328 H 407.182 2.45578 0.777759 0
M  V30 4329 H 407.14 1.98202 2.44056 0
M  V30 4330 N 410.912 0.523116 1.48665 0
M  V30 4331 C 412.16 -0.0134497 2.02096 0
M  V30 4332 C 412.481 -1.35418 1.40311 0
M  V30 4333 O 411.751 -1.87543 0.566074 0
M  V30 4334 H 410.331 -0.00795915 0.746958 0
M  V30 4335 H 412.993 0.685388 1.82451 0
M  V30 4336 H 412.089 -0.126849 3.11842 0
M  V30 4337 N 412.39 -1.55475 0.257931 0
M  V30 4338 C 413.637 -1.99207 -0.363728 0
M  V30 4339 C 413.965 -1.1462 -1.57139 0
M  V30 4340 O 413.22 -0.199653 -1.94679 0
M  V30 4341 C 413.519 -3.48183 -0.806433 0
M  V30 4342 C 413.185 -4.49936 0.294684 0
M  V30 4343 C 411.847 -4.77481 0.597076 0
M  V30 4344 C 414.199 -5.10769 1.03751 0
M  V30 4345 C 411.527 -5.63132 1.64618 0
M  V30 4346 C 413.879 -5.97558 2.07622 0
M  V30 4347 C 412.543 -6.23432 2.38514 0
M  V30 4348 H 411.813 -0.728949 -0.133097 0
M  V30 4349 H 414.46 -1.8793 0.368059 0
M  V30 4350 H 412.765 -3.56848 -1.61761 0
M  V30 4351 H 414.462 -3.79415 -1.29789 0
M  V30 4352 H 411.052 -4.28572 0.0488649 0
M  V30 4353 H 415.236 -4.89527 0.817149 0
M  V30 4354 H 410.492 -5.8143 1.89074 0
M  V30 4355 H 414.666 -6.43735 2.65666 0
M  V30 4356 H 412.293 -6.89594 3.19943 0
M  V30 4357 N 413.868 0.0150385 -1.57593 0
M  V30 4358 C 415.096 0.714395 -1.94175 0
M  V30 4359 C 415.511 1.68135 -0.858841 0
M  V30 4360 O 414.868 1.81766 0.163567 0
M  V30 4361 C 414.919 1.45933 -3.30735 0
M  V30 4362 O 414.64 0.531167 -4.34868 0
M  V30 4363 C 416.141 2.25456 -3.81686 0
M  V30 4364 H 413.361 0.199923 -0.640525 0
M  V30 4365 H 415.905 -0.0316096 -2.04476 0
M  V30 4366 H 414.06 2.15709 -3.21789 0
M  V30 4367 H 414.474 1.05509 -5.13778 0
M  V30 4368 H 415.948 2.731 -4.79709 0
M  V30 4369 H 416.425 3.07485 -3.13607 0
M  V30 4370 H 417.031 1.60727 -3.9376 0
M  V30 4371 N 415.346 1.54954 0.287554 0
M  V30 4372 C 416.276 1.89839 1.35954 0
M  V30 4373 C 417.257 0.758675 1.52244 0
M  V30 4374 O 418.442 1.01557 1.65529 0
M  V30 4375 C 415.572 2.15753 2.72154 0
M  V30 4376 C 414.526 3.3159 2.70614 0
M  V30 4377 C 413.852 3.42952 4.10229 0
M  V30 4378 C 415.152 4.68359 2.31165 0
M  V30 4379 H 416.846 2.79625 1.07007 0
M  V30 4380 H 414.392 1.3454 0.513316 0
M  V30 4381 H 416.345 2.38743 3.47246 0
M  V30 4382 H 415.069 1.22752 3.02654 0
M  V30 4383 H 413.728 3.08545 1.97979 0
M  V30 4384 H 413.376 2.47443 4.37928 0
M  V30 4385 H 413.076 4.20826 4.10097 0
M  V30 4386 H 414.6 3.68218 4.87081 0
M  V30 4387 H 416.014 4.9099 2.95976 0
M  V30 4388 H 414.411 5.49044 2.42221 0
M  V30 4389 H 415.481 4.68165 1.26291 0
M  V30 4390 N 416.824 -0.551391 1.4764 0
M  V30 4391 C 418.052 -1.33357 1.58189 0
M  V30 4392 C 418.467 -1.87342 0.234199 0
M  V30 4393 O 417.824 -1.65301 -0.77343 0
M  V30 4394 C 417.875 -2.49942 2.61173 0
M  V30 4395 O 417.596 -1.98187 3.90709 0
M  V30 4396 C 419.097 -3.42072 2.8196 0
M  V30 4397 H 416.317 -0.40631 0.533998 0
M  V30 4398 H 418.861 -0.667367 1.93304 0
M  V30 4399 H 417.016 -3.12489 2.28975 0
M  V30 4400 H 417.43 -2.74342 4.47031 0
M  V30 4401 H 418.904 -4.20278 3.57869 0
M  V30 4402 H 419.381 -3.95978 1.89995 0
M  V30 4403 H 419.987 -2.85336 3.15378 0
M  V30 4404 N 418.302 -1.35869 -0.798587 0
M  V30 4405 C 419.542 -1.30961 -1.56935 0
M  V30 4406 C 419.906 0.112404 -1.91671 0
M  V30 4407 O 421.107 0.285937 -2.67275 0
M  V30 4408 C 419.378 -2.19811 -2.81811 0
M  V30 4409 S 420.937 -2.32498 -3.72143 0
M  V30 4410 H 417.755 -0.465297 -0.537606 0
M  V30 4411 H 420.357 -1.71344 -0.941346 0
M  V30 4412 H 419.061 -3.22095 -2.54329 0
M  V30 4413 H 418.592 -1.80415 -3.49591 0
M  V30 4414 H 420.607 -1.5157 -4.72484 0
M  V30 4415 N 419.78 1.02168 -1.19998 0
M  V30 4416 C 421.029 1.75091 -1.0013 0
M  V30 4417 C 421.342 1.89923 0.467835 0
M  V30 4418 O 422.548 2.59888 0.785515 0
M  V30 4419 C 421.004 3.14892 -1.74273 0
M  V30 4420 C 420.612 3.0809 -3.25245 0
M  V30 4421 C 422.356 3.9206 -1.62755 0
M  V30 4422 C 420.263 4.42867 -3.91948 0
M  V30 4423 H 419.193 0.656394 -0.37103 0
M  V30 4424 H 421.844 1.14284 -1.43567 0
M  V30 4425 H 420.226 3.7621 -1.2362 0
M  V30 4426 H 421.4 2.5611 -3.83072 0
M  V30 4427 H 419.715 2.44416 -3.3712 0
M  V30 4428 H 422.312 4.91764 -2.09934 0
M  V30 4429 H 422.655 4.12199 -0.582894 0
M  V30 4430 H 423.188 3.37359 -2.10793 0
M  V30 4431 H 419.927 4.27931 -4.96543 0
M  V30 4432 H 419.447 4.94874 -3.3891 0
M  V30 4433 H 421.126 5.11728 -3.95909 0
M  V30 4434 N 421.258 1.00505 1.21394 0
M  V30 4435 C 422.221 0.570459 2.21987 0
M  V30 4436 C 423.221 -0.353211 1.56873 0
M  V30 4437 O 424.411 -0.14349 1.73608 0
M  V30 4438 C 421.543 -0.168555 3.40483 0
M  V30 4439 H 422.736 1.46021 2.6195 0
M  V30 4440 H 420.289 0.793565 1.34656 0
M  V30 4441 H 421.024 -1.07374 3.06009 0
M  V30 4442 H 420.809 0.494823 3.88965 0
M  V30 4443 H 422.299 -0.460362 4.15055 0
M  V30 4444 N 422.737 -1.36956 0.779787 0
M  V30 4445 C 423.647 -2.33965 0.172491 0
M  V30 4446 C 424.663 -1.60574 -0.670222 0
M  V30 4447 O 425.839 -1.92617 -0.588263 0
M  V30 4448 C 422.904 -3.39761 -0.690173 0
M  V30 4449 C 421.965 -4.28964 0.169924 0
M  V30 4450 C 421.198 -5.29707 -0.651662 0
M  V30 4451 O 421.421 -5.38238 -1.88827 0
M  V30 4452 O 420.355 -6.01873 -0.0566264 0
M  V30 4453 H 424.181 -2.87647 0.974321 0
M  V30 4454 H 421.766 -1.39258 0.541078 0
M  V30 4455 H 423.648 -4.04471 -1.1824 0
M  V30 4456 H 422.323 -2.88394 -1.47006 0
M  V30 4457 H 421.23 -3.67326 0.708696 0
M  V30 4458 H 422.563 -4.83656 0.913085 0
M  V30 4459 N 424.215 -0.530993 -1.48385 0
M  V30 4460 C 425.163 0.244595 -2.3131 0
M  V30 4461 C 426.157 0.93451 -1.41291 0
M  V30 4462 O 427.363 0.85878 -1.58193 0
M  V30 4463 H 423.738 0.0977472 -0.74562 0
M  V30 4464 H 425.709 -0.474369 -2.94605 0
M  V30 4465 C 424.458 1.2779 -3.23365 0
M  V30 4466 H 423.781 0.756439 -3.92579 0
M  V30 4467 H 425.221 1.79198 -3.84271 0
M  V30 4468 C 423.68 2.31205 -2.45042 0
M  V30 4469 O 424.21 3.37661 -2.17596 0
M  V30 4470 N 422.416 2.04446 -2.0652 0
M  V30 4471 H 421.963 1.17891 -2.2904 0
M  V30 4472 H 421.921 2.73861 -1.54427 0
M  V30 4473 N 425.693 1.55336 -0.266172 0
M  V30 4474 C 426.939 1.99692 0.353681 0
M  V30 4475 C 427.272 1.1543 1.56172 0
M  V30 4476 O 426.547 0.222218 1.93226 0
M  V30 4477 C 426.83 3.52316 0.74466 0
M  V30 4478 C 426.683 4.47337 -0.470101 0
M  V30 4479 C 428.002 4.10588 1.58447 0
M  V30 4480 H 425.121 0.725961 0.12708 0
M  V30 4481 H 427.763 1.86336 -0.371333 0
M  V30 4482 H 425.913 3.63829 1.36239 0
M  V30 4483 H 427.585 4.4778 -1.10864 0
M  V30 4484 H 425.828 4.19364 -1.10978 0
M  V30 4485 H 426.499 5.51788 -0.15291 0
M  V30 4486 H 428.975 4.02297 1.06286 0
M  V30 4487 H 427.851 5.17607 1.82686 0
M  V30 4488 H 428.112 3.60253 2.56262 0
M  V30 4489 N 427.171 -0.0066808 1.57599 0
M  V30 4490 C 428.417 -0.693947 1.90558 0
M  V30 4491 C 428.75 -1.73792 0.866594 0
M  V30 4492 O 428.025 -1.94156 -0.115548 0
M  V30 4493 C 428.308 -1.34317 3.34112 0
M  V30 4494 C 428.161 -0.311189 4.48722 0
M  V30 4495 C 429.48 -2.27116 3.7697 0
M  V30 4496 H 426.599 -0.250803 0.693013 0
M  V30 4497 H 429.241 0.043242 1.89951 0
M  V30 4498 H 427.391 -1.9715 3.3476 0
M  V30 4499 H 429.063 0.316944 4.6021 0
M  V30 4500 H 427.306 0.367253 4.32243 0
M  V30 4501 H 427.977 -0.804366 5.46108 0
M  V30 4502 H 430.453 -1.74306 3.77831 0
M  V30 4503 H 429.329 -2.69511 4.78179 0
M  V30 4504 H 429.59 -3.14743 3.10466 0
M  V30 4505 N 428.649 -1.55105 -0.279332 0
M  V30 4506 C 429.897 -1.75066 -1.00977 0
M  V30 4507 C 430.218 -0.551276 -1.87045 0
M  V30 4508 O 429.488 0.433984 -1.91032 0
M  V30 4509 H 428.068 -0.645578 -0.375816 0
M  V30 4510 H 430.73 -1.92497 -0.305089 0
M  V30 4511 H 429.826 -2.64894 -1.65038 0
M  V30 4512 N 430.127 0.543554 -1.4793 0
M  V30 4513 C 431.06 1.66556 -1.55995 0
M  V30 4514 C 432.038 1.57315 -0.411205 0
M  V30 4515 O 433.222 1.7798 -0.620922 0
M  V30 4516 C 430.349 3.04883 -1.47527 0
M  V30 4517 C 429.395 3.32526 -2.67074 0
M  V30 4518 S 430.228 3.20282 -4.29162 0
M  V30 4519 C 431.384 4.61079 -4.23269 0
M  V30 4520 H 431.617 1.59462 -2.50917 0
M  V30 4521 H 429.15 0.725456 -1.36296 0
M  V30 4522 H 431.108 3.84665 -1.43328 0
M  V30 4523 H 429.769 3.09429 -0.539665 0
M  V30 4524 H 428.962 4.33403 -2.5725 0
M  V30 4525 H 428.564 2.60389 -2.68466 0
M  V30 4526 H 430.856 5.52318 -3.92365 0
M  V30 4527 H 431.799 4.75959 -5.24279 0
M  V30 4528 H 432.207 4.39766 -3.5393 0
M  V30 4529 N 431.605 1.3629 0.791371 0
M  V30 4530 C 432.83 1.33726 1.58531 0
M  V30 4531 C 433.255 -0.0794933 1.87932 0
M  V30 4532 O 432.613 -1.05087 1.47738 0
M  V30 4533 C 432.661 2.16425 2.88431 0
M  V30 4534 O 431.765 1.5554 3.81944 0
M  V30 4535 H 431.106 0.457793 0.480959 0
M  V30 4536 H 433.636 1.79547 0.981031 0
M  V30 4537 H 433.646 2.28933 3.37718 0
M  V30 4538 H 432.321 3.19415 2.66359 0
M  V30 4539 H 430.898 1.51961 3.40532 0
M  V30 4540 N 433.083 -1.0153 1.20538 0
M  V30 4541 C 434.031 -2.12215 0.952235 0
M  V30 4542 C 435.025 -1.69123 -0.0968735 0
M  V30 4543 O 436.231 -1.7992 0.0536006 0
M  V30 4544 H 432.606 -0.693576 0.290613 0
M  V30 4545 H 434.577 -2.3075 1.89201 0
M  V30 4546 C 433.326 -3.43755 0.522287 0
M  V30 4547 H 432.649 -3.7734 1.32115 0
M  V30 4548 H 434.089 -4.22254 0.384389 0
M  V30 4549 C 432.548 -3.28088 -0.765489 0
M  V30 4550 O 433.078 -3.57921 -1.8236 0
M  V30 4551 N 431.284 -2.81333 -0.728011 0
M  V30 4552 H 430.831 -2.57255 0.133332 0
M  V30 4553 H 430.789 -2.71232 -1.58999 0
M  V30 4554 N 434.561 -1.01147 -1.20859 0
M  V30 4555 C 435.524 -0.582224 -2.21682 0
M  V30 4556 C 436.524 0.344887 -1.57058 0
M  V30 4557 O 437.714 0.134281 -1.73682 0
M  V30 4558 C 434.846 0.150496 -3.40568 0
M  V30 4559 H 436.039 -1.47408 -2.61172 0
M  V30 4560 H 433.592 -0.800695 -1.34233 0
M  V30 4561 H 434.327 1.0575 -3.06574 0
M  V30 4562 H 434.112 -0.515444 -3.88697 0
M  V30 4563 H 435.602 0.438344 -4.15293 0
M  V30 4564 N 436.039 1.36541 -0.78704 0
M  V30 4565 C 437.264 2.0409 -0.369053 0
M  V30 4566 C 437.689 1.58957 1.00569 0
M  V30 4567 O 437.047 0.756926 1.64743 0
M  V30 4568 C 437.095 3.57924 -0.438466 0
M  V30 4569 O 436.199 4.08642 0.555479 0
M  V30 4570 H 435.54 0.645142 -0.157122 0
M  V30 4571 H 438.07 1.74545 -1.06749 0
M  V30 4572 H 438.08 4.06887 -0.301218 0
M  V30 4573 H 436.755 3.90127 -1.44132 0
M  V30 4574 H 435.332 3.70958 0.380088 0
M  V30 4575 N 437.518 0.538854 1.48102 0
M  V30 4576 C 438.764 0.00801365 2.02798 0
M  V30 4577 C 439.097 -1.3309 1.41424 0
M  V30 4578 O 438.372 -1.86169 0.563158 0
M  V30 4579 C 438.655 -0.104589 3.59948 0
M  V30 4580 C 438.508 1.26012 4.31788 0
M  V30 4581 C 439.827 -0.827055 4.32259 0
M  V30 4582 H 436.946 0.00438624 0.736987 0
M  V30 4583 H 439.588 0.6976 1.7673 0
M  V30 4584 H 437.738 -0.691893 3.82289 0
M  V30 4585 H 439.41 1.88922 4.2084 0
M  V30 4586 H 437.653 1.83968 3.92859 0
M  V30 4587 H 438.324 1.13424 5.40221 0
M  V30 4588 H 440.8 -0.328578 4.14801 0
M  V30 4589 H 439.676 -0.87476 5.41885 0
M  V30 4590 H 439.937 -1.87927 4.0017 0
M  V30 4591 N 438.996 -1.55193 0.274407 0
M  V30 4592 C 439.959 -2.212 -0.600279 0
M  V30 4593 C 440.959 -1.18963 -1.08187 0
M  V30 4594 O 442.149 -1.43873 -0.982158 0
M  V30 4595 C 439.281 -2.87739 -1.82809 0
M  V30 4596 H 440.474 -2.9989 -0.0239682 0
M  V30 4597 H 438.027 -1.5628 0.0250192 0
M  V30 4598 H 438.762 -2.13058 -2.44493 0
M  V30 4599 H 438.547 -3.62658 -1.49069 0
M  V30 4600 H 440.037 -3.38171 -2.45011 0
M  V30 4601 N 440.474 -0.00167713 -1.576 0
M  V30 4602 C 441.404 0.988091 -2.11563 0
M  V30 4603 C 442.385 1.35736 -1.02517 0
M  V30 4604 O 443.57 1.44082 -1.30208 0
M  V30 4605 C 440.7 2.27941 -2.62031 0
M  V30 4606 C 439.654 2.0517 -3.75619 0
M  V30 4607 C 438.98 3.4033 -4.12407 0
M  V30 4608 C 440.28 1.41294 -5.02825 0
M  V30 4609 H 441.974 0.538771 -2.94513 0
M  V30 4610 H 439.52 0.257712 -1.41675 0
M  V30 4611 H 441.473 2.97539 -2.9841 0
M  V30 4612 H 440.197 2.74989 -1.76205 0
M  V30 4613 H 438.856 1.37998 -3.39635 0
M  V30 4614 H 438.504 3.85085 -3.23603 0
M  V30 4615 H 438.204 3.25909 -4.88935 0
M  V30 4616 H 439.728 4.1124 -4.51347 0
M  V30 4617 H 441.142 2.00851 -5.36965 0
M  V30 4618 H 439.539 1.37356 -5.84169 0
M  V30 4619 H 440.609 0.382362 -4.8339 0
M  V30 4620 N 441.952 1.55251 0.271103 0
M  V30 4621 C 443.18 1.79974 1.02064 0
M  V30 4622 C 443.595 0.574003 1.79863 0
M  V30 4623 O 442.952 -0.456962 1.76686 0
M  V30 4624 C 443.003 3.02603 1.97772 0
M  V30 4625 O 442.724 4.20443 1.23124 0
M  V30 4626 C 444.225 3.39944 2.84522 0
M  V30 4627 H 441.445 0.599489 0.301419 0
M  V30 4628 H 443.989 2.02268 0.301313 0
M  V30 4629 H 442.144 2.8243 2.65165 0
M  V30 4630 H 442.558 4.89783 1.87651 0
M  V30 4631 H 444.032 4.28915 3.47471 0
M  V30 4632 H 444.509 2.59432 3.54389 0
M  V30 4633 H 445.115 3.62383 2.22618 0
M  V30 4634 N 443.43 -0.535701 1.48216 0
M  V30 4635 C 444.676 -1.29375 1.56173 0
M  V30 4636 C 445.009 -1.92804 0.232429 0
M  V30 4637 O 444.284 -1.78992 -0.761048 0
M  V30 4638 C 444.567 -2.38747 2.69577 0
M  V30 4639 C 444.42 -1.80046 4.12193 0
M  V30 4640 C 445.739 -3.40551 2.78771 0
M  V30 4641 H 442.858 -0.469027 0.568491 0
M  V30 4642 H 445.5 -0.597358 1.80365 0
M  V30 4643 H 443.65 -2.98147 2.4908 0
M  V30 4644 H 445.322 -1.24742 4.44114 0
M  V30 4645 H 443.565 -1.10609 4.19462 0
M  V30 4646 H 444.236 -2.59212 4.87353 0
M  V30 4647 H 446.712 -2.91099 2.97322 0
M  V30 4648 H 445.588 -4.1448 3.59857 0
M  V30 4649 H 445.849 -4.00746 1.86696 0
M  V30 4650 N 444.908 -1.36708 -0.784132 0
M  V30 4651 C 446.138 -1.34203 -1.57077 0
M  V30 4652 C 446.546 0.0774945 -1.89041 0
M  V30 4653 O 445.889 1.04628 -1.50992 0
M  V30 4654 C 445.951 -2.10351 -2.91535 0
M  V30 4655 C 445.615 -3.59405 -2.82272 0
M  V30 4656 C 446.612 -4.53545 -2.54151 0
M  V30 4657 C 444.297 -4.02362 -3.00683 0
M  V30 4658 C 446.291 -5.8862 -2.44551 0
M  V30 4659 C 443.978 -5.37526 -2.90704 0
M  V30 4660 C 444.976 -6.30468 -2.62677 0
M  V30 4661 O 444.664 -7.63149 -2.52702 0
M  V30 4662 H 444.396 -0.461791 -0.493685 0
M  V30 4663 H 446.95 -1.80475 -0.980712 0
M  V30 4664 H 445.18 -1.5875 -3.52612 0
M  V30 4665 H 446.869 -2.00636 -3.52845 0
M  V30 4666 H 447.635 -4.21669 -2.39625 0
M  V30 4667 H 443.514 -3.30389 -3.21503 0
M  V30 4668 H 447.058 -6.61133 -2.22596 0
M  V30 4669 H 442.955 -5.69008 -3.04795 0
M  V30 4670 H 443.723 -7.73331 -2.68144 0
M  V30 4671 N 446.386 1.0089 -1.21074 0
M  V30 4672 C 447.616 1.77933 -1.04993 0
M  V30 4673 C 448.024 1.84847 0.403495 0
M  V30 4674 O 447.367 1.30606 1.29181 0
M  V30 4675 C 447.429 3.23541 -1.56722 0
M  V30 4676 C 447.093 3.40214 -3.05129 0
M  V30 4677 C 448.09 3.2881 -4.02716 0
M  V30 4678 C 445.775 3.65781 -3.44252 0
M  V30 4679 C 447.769 3.42732 -5.37414 0
M  V30 4680 C 445.456 3.79346 -4.79103 0
M  V30 4681 C 446.454 3.67827 -5.75493 0
M  V30 4682 O 446.142 3.80965 -7.07899 0
M  V30 4683 H 445.874 0.566157 -0.369381 0
M  V30 4684 H 448.428 1.27826 -1.60779 0
M  V30 4685 H 446.658 3.74766 -0.953285 0
M  V30 4686 H 448.347 3.82245 -1.36543 0
M  V30 4687 H 449.113 3.08986 -3.73835 0
M  V30 4688 H 444.992 3.73831 -2.69762 0
M  V30 4689 H 448.536 3.33658 -6.12632 0
M  V30 4690 H 444.433 3.98672 -5.07672 0
M  V30 4691 H 445.201 3.97937 -7.15254 0
M  V30 4692 N 447.864 1.01787 1.20321 0
M  V30 4693 C 449.275 0.739307 1.71438 0
M  V30 4694 C 449.626 -0.742041 1.81627 0
M  V30 4695 O 448.751 -1.57903 1.47971 0
M  V30 4696 C 449.346 1.33538 3.11373 0
M  V30 4697 C 447.905 1.10566 3.59795 0
M  V30 4698 C 447.052 1.44028 2.36962 0
M  V30 4699 H 450.003 1.18718 1.05317 0
M  V30 4700 H 450.024 0.726611 3.73498 0
M  V30 4701 H 449.536 2.41352 3.03926 0
M  V30 4702 H 447.637 0.0452405 3.72573 0
M  V30 4703 H 447.75 1.78661 4.44542 0
M  V30 4704 H 446.114 0.85933 2.39766 0
M  V30 4705 H 446.897 2.52901 2.32155 0
M  V30 4706 N 449.342 -1.36122 0.79427 0
M  V30 4707 C 450.753 -1.81646 0.431446 0
M  V30 4708 C 451.104 -1.66043 -1.04518 0
M  V30 4709 O 450.229 -1.1841 -1.8113 0
M  V30 4710 C 450.824 -3.29785 0.776341 0
M  V30 4711 C 449.383 -3.73501 0.466282 0
M  V30 4712 C 448.53 -2.58313 1.00844 0
M  V30 4713 H 451.481 -1.24274 0.986995 0
M  V30 4714 H 451.502 -3.80437 0.0692413 0
M  V30 4715 H 451.014 -3.4111 1.8511 0
M  V30 4716 H 449.115 -3.67733 -0.600245 0
M  V30 4717 H 449.228 -4.68754 0.990288 0
M  V30 4718 H 447.592 -2.5102 0.431406 0
M  V30 4719 H 448.375 -2.72421 2.08906 0
M  V30 4720 N 450.82 -0.546701 -1.47814 0
M  V30 4721 C 452.236 -0.205717 -1.58269 0
M  V30 4722 C 452.436 1.29153 -1.54667 0
M  V30 4723 O 451.492 2.07098 -1.44453 0
M  V30 4724 C 452.805 -0.823065 -2.89216 0
M  V30 4725 C 454.353 -0.793328 -3.02779 0
M  V30 4726 C 454.828 -1.38955 -4.36412 0
M  V30 4727 N 456.319 -1.35227 -4.43021 0
M  V30 4728 C 457.054 -1.78333 -5.44963 0
M  V30 4729 N 456.55 -2.29246 -6.53772 0
M  V30 4730 N 458.343 -1.69467 -5.35945 0
M  V30 4731 H 450.494 -1.5196 -1.48398 0
M  V30 4732 H 452.757 -0.633078 -0.705632 0
M  V30 4733 H 452.463 -1.8749 -2.97558 0
M  V30 4734 H 452.337 -0.309915 -3.75925 0
M  V30 4735 H 454.724 0.249784 -2.94041 0
M  V30 4736 H 454.805 -1.34412 -2.17639 0
M  V30 4737 H 454.449 -2.43168 -4.45906 0
M  V30 4738 H 454.379 -0.814291 -5.20266 0
M  V30 4739 H 456.87 -0.979739 -3.64979 0
M  V30 4740 H 457.183 -2.60089 -7.27718 0
M  V30 4741 H 455.528 -2.3325 -6.5469 0
M  V30 4742 H 458.719 -1.29477 -4.49837 0
M  V30 4743 H 458.892 -2.03381 -6.15256 0
M  V30 4744 N 452.299 1.55045 -0.282633 0
M  V30 4745 C 453.545 2.00056 0.332481 0
M  V30 4746 C 453.878 1.1708 1.54939 0
M  V30 4747 O 453.153 0.2427 1.9298 0
M  V30 4748 C 453.436 3.53086 0.70725 0
M  V30 4749 C 453.289 4.46813 -0.517521 0
M  V30 4750 C 454.608 4.12245 1.54084 0
M  V30 4751 H 451.727 0.727268 0.119373 0
M  V30 4752 H 454.369 1.85932 -0.391076 0
M  V30 4753 H 452.519 3.65253 1.32372 0
M  V30 4754 H 454.191 4.46579 -1.15607 0
M  V30 4755 H 452.434 4.18163 -1.1542 0
M  V30 4756 H 453.105 5.51595 -0.211426 0
M  V30 4757 H 455.581 4.03401 1.02013 0
M  V30 4758 H 454.457 5.19515 1.77186 0
M  V30 4759 H 454.718 3.62951 2.52427 0
M  V30 4760 N 453.777 0.010035 1.57597 0
M  V30 4761 C 455.023 -0.673697 1.91283 0
M  V30 4762 C 455.356 -1.72863 0.884979 0
M  V30 4763 O 454.631 -1.94268 -0.0949487 0
M  V30 4764 C 454.914 -1.30766 3.35518 0
M  V30 4765 C 454.767 -0.263578 4.49027 0
M  V30 4766 C 456.086 -2.23105 3.79358 0
M  V30 4767 H 453.205 -0.243439 0.695634 0
M  V30 4768 H 455.847 0.0633864 1.89894 0
M  V30 4769 H 453.997 -1.93588 3.36832 0
M  V30 4770 H 455.669 0.365738 4.59848 0
M  V30 4771 H 453.912 0.413077 4.31829 0
M  V30 4772 H 454.583 -0.746398 5.4693 0
M  V30 4773 H 457.059 -1.70289 3.79659 0
M  V30 4774 H 455.935 -2.64424 4.81011 0
M  V30 4775 H 456.196 -3.11433 3.13787 0
M  V30 4776 N 455.255 -1.55392 -0.262866 0
M  V30 4777 C 456.48 -1.80847 -1.01533 0
M  V30 4778 C 456.905 -0.584946 -1.78774 0
M  V30 4779 O 456.263 0.465701 -1.75217 0
M  V30 4780 C 456.311 -3.03866 -1.94159 0
M  V30 4781 O 455.415 -2.79662 -3.03089 0
M  V30 4782 H 454.756 -0.597441 -0.289759 0
M  V30 4783 H 457.286 -2.02553 -0.288698 0
M  V30 4784 H 457.296 -3.32872 -2.35924 0
M  V30 4785 H 455.971 -3.92564 -1.37354 0
M  V30 4786 H 454.548 -2.61781 -2.65566 0
M  V30 4787 N 456.733 0.527833 -1.48498 0
M  V30 4788 C 457.663 1.64136 -1.66077 0
M  V30 4789 C 458.644 1.62286 -0.509625 0
M  V30 4790 O 459.829 1.79449 -0.742413 0
M  V30 4791 C 456.959 3.02717 -1.70234 0
M  V30 4792 C 455.913 3.19426 -2.8487 0
M  V30 4793 C 455.239 4.5909 -2.74118 0
M  V30 4794 C 456.539 3.01993 -4.26142 0
M  V30 4795 H 458.233 1.4968 -2.593 0
M  V30 4796 H 455.779 0.718654 -1.24785 0
M  V30 4797 H 457.732 3.80491 -1.8112 0
M  V30 4798 H 456.456 3.18201 -0.735911 0
M  V30 4799 H 455.115 2.4407 -2.73542 0
M  V30 4800 H 454.763 4.71413 -1.7544 0
M  V30 4801 H 454.463 4.71214 -3.51042 0
M  V30 4802 H 455.987 5.3896 -2.86974 0
M  V30 4803 H 457.401 3.69558 -4.38292 0
M  V30 4804 H 455.798 3.2561 -5.04082 0
M  V30 4805 H 456.868 1.98396 -4.42456 0
M  V30 4806 N 458.211 1.37122 0.776871 0
M  V30 4807 C 459.121 1.34651 1.9211 0
M  V30 4808 C 460.137 0.246824 1.7224 0
M  V30 4809 O 461.313 0.48134 1.95563 0
M  V30 4810 C 458.378 1.14748 3.2716 0
M  V30 4811 C 457.439 2.34308 3.5972 0
M  V30 4812 C 456.672 2.15345 4.88326 0
M  V30 4813 O 456.895 1.13507 5.58992 0
M  V30 4814 O 455.829 3.03414 5.1983 0
M  V30 4815 H 459.655 2.31013 1.97146 0
M  V30 4816 H 457.24 1.17799 0.918901 0
M  V30 4817 H 459.122 1.05616 4.0795 0
M  V30 4818 H 457.797 0.214562 3.22988 0
M  V30 4819 H 456.704 2.49011 2.79185 0
M  V30 4820 H 458.037 3.26149 3.68629 0
M  V30 4821 N 459.689 -1.00246 1.21608 0
M  V30 4822 C 460.599 -2.12515 0.993709 0
M  V30 4823 C 461.615 -1.73913 -0.0549939 0
M  V30 4824 O 462.791 -2.00943 0.135619 0
M  V30 4825 C 459.856 -3.42083 0.563953 0
M  V30 4826 C 458.917 -3.94843 1.68516 0
M  V30 4827 C 458.15 -5.18226 1.27582 0
M  V30 4828 O 458.373 -5.70201 0.150506 0
M  V30 4829 O 457.307 -5.64497 2.0887 0
M  V30 4830 H 461.133 -2.34152 1.93407 0
M  V30 4831 H 458.718 -1.10891 1.00118 0
M  V30 4832 H 460.6 -4.20073 0.334194 0
M  V30 4833 H 459.275 -3.21828 -0.347665 0
M  V30 4834 H 458.182 -3.18068 1.96935 0
M  V30 4835 H 459.515 -4.19512 2.5743 0
M  V30 4836 N 461.167 -1.02423 -1.1978 0
M  V30 4837 C 462.578 -0.748389 -1.71044 0
M  V30 4838 C 462.929 0.732398 -1.82017 0
M  V30 4839 O 462.054 1.57116 -1.48807 0
M  V30 4840 C 462.649 -1.35187 -3.1066 0
M  V30 4841 C 461.208 -1.12472 -3.59203 0
M  V30 4842 C 460.355 -1.45283 -2.36195 0
M  V30 4843 H 463.306 -1.19275 -1.04686 0
M  V30 4844 H 463.327 -0.746408 -3.73107 0
M  V30 4845 H 462.839 -2.4296 -3.02642 0
M  V30 4846 H 460.94 -0.0649983 -3.72543 0
M  V30 4847 H 461.053 -1.81016 -4.43588 0
M  V30 4848 H 459.417 -0.872034 -2.39307 0
M  V30 4849 H 460.2 -2.54129 -2.30811 0
M  V30 4850 N 462.645 1.35699 -0.801477 0
M  V30 4851 C 463.555 2.33661 -0.209691 0
M  V30 4852 C 464.571 1.6162 0.644591 0
M  V30 4853 O 465.747 1.93529 0.557545 0
M  V30 4854 C 462.812 3.40816 0.636033 0
M  V30 4855 C 461.873 4.28639 -0.238147 0
M  V30 4856 C 461.106 5.30676 0.567307 0
M  V30 4857 O 461.329 5.41174 1.8024 0
M  V30 4858 O 460.263 6.01887 -0.0391336 0
M  V30 4859 H 464.089 2.8606 -1.01996 0
M  V30 4860 H 461.674 1.38379 -0.563164 0
M  V30 4861 H 463.556 4.06301 1.11791 0
M  V30 4862 H 462.231 2.90696 1.42399 0
M  V30 4863 H 461.138 3.66152 -0.767044 0
M  V30 4864 H 462.471 4.82143 -0.989915 0
M  V30 4865 N 464.123 0.554532 1.47522 0
M  V30 4866 C 465.053 -0.182974 2.32782 0
M  V30 4867 C 466.034 -0.911377 1.43624 0
M  V30 4868 O 467.219 -0.892366 1.72483 0
M  V30 4869 C 464.349 -1.21513 3.25349 0
M  V30 4870 C 463.303 -0.603355 4.23726 0
M  V30 4871 C 462.629 -1.73995 5.05598 0
M  V30 4872 C 463.929 0.441121 5.20434 0
M  V30 4873 H 465.623 0.52882 2.94693 0
M  V30 4874 H 463.169 0.255759 1.41711 0
M  V30 4875 H 465.122 -1.73922 3.83835 0
M  V30 4876 H 463.846 -1.95683 2.61487 0
M  V30 4877 H 462.505 -0.10059 3.66462 0
M  V30 4878 H 462.153 -2.47063 4.38143 0
M  V30 4879 H 461.853 -1.3364 5.72201 0
M  V30 4880 H 463.377 -2.26735 5.66942 0
M  V30 4881 H 464.791 0.00319931 5.733 0
M  V30 4882 H 463.188 0.763402 5.95224 0
M  V30 4883 H 464.258 1.33799 4.66075 0
M  V30 4884 N 465.601 -1.54893 0.290851 0
M  V30 4885 C 467.017 -1.59476 -0.0628432 0
M  V30 4886 C 467.217 -1.30795 -1.5328 0
M  V30 4887 O 466.273 -1.07644 -2.28406 0
M  V30 4888 C 467.586 -2.98928 0.325962 0
M  V30 4889 C 469.134 -3.11799 0.273882 0
M  V30 4890 C 469.609 -4.53544 0.637359 0
M  V30 4891 N 471.1 -4.59433 0.589507 0
M  V30 4892 C 471.835 -5.67164 0.84335 0
M  V30 4893 N 471.331 -6.82975 1.16263 0
M  V30 4894 N 473.124 -5.56786 0.771091 0
M  V30 4895 H 465.275 -1.71798 1.24896 0
M  V30 4896 H 467.538 -0.801879 0.505663 0
M  V30 4897 H 467.244 -3.24805 1.34887 0
M  V30 4898 H 467.118 -3.75793 -0.325441 0
M  V30 4899 H 469.505 -2.85677 -0.739765 0
M  V30 4900 H 469.586 -2.37112 0.959766 0
M  V30 4901 H 469.23 -4.80394 1.64877 0
M  V30 4902 H 469.16 -5.26553 -0.0704866 0
M  V30 4903 H 471.651 -3.76245 0.353252 0
M  V30 4904 H 471.964 -7.61048 1.34257 0
M  V30 4905 H 470.309 -6.84552 1.20057 0
M  V30 4906 H 473.5 -4.65187 0.521383 0
M  V30 4907 H 473.673 -6.40664 0.972295 0
M  V30 4908 N 467.08 -0.0183926 -1.57589 0
M  V30 4909 C 468.01 0.965596 -2.12599 0
M  V30 4910 C 468.991 1.34641 -1.0395 0
M  V30 4911 O 470.176 1.42693 -1.31729 0
M  V30 4912 C 467.306 2.25149 -2.64434 0
M  V30 4913 C 466.26 2.01175 -3.77773 0
M  V30 4914 C 465.586 3.35937 -4.15994 0
M  V30 4915 C 466.886 1.35953 -5.04296 0
M  V30 4916 H 468.58 0.507504 -2.95067 0
M  V30 4917 H 466.126 0.242671 -1.41941 0
M  V30 4918 H 468.079 2.94357 -3.01549 0
M  V30 4919 H 466.803 2.73105 -1.79112 0
M  V30 4920 H 465.462 1.34388 -3.4108 0
M  V30 4921 H 465.11 3.81631 -3.27669 0
M  V30 4922 H 464.81 3.20705 -4.92364 0
M  V30 4923 H 466.334 4.0643 -4.55683 0
M  V30 4924 H 467.748 1.95144 -5.39065 0
M  V30 4925 H 466.145 1.31152 -5.85593 0
M  V30 4926 H 467.215 0.331071 -4.83768 0
M  V30 4927 N 468.558 1.5553 0.254621 0
M  V30 4928 C 469.468 1.92789 1.33677 0
M  V30 4929 C 470.484 0.827356 1.53071 0
M  V30 4930 O 471.66 1.12807 1.66843 0
M  V30 4931 C 468.725 2.20827 2.67275 0
M  V30 4932 C 467.786 3.4427 2.5647 0
M  V30 4933 C 467.019 3.70961 3.83697 0
M  V30 4934 O 467.242 2.99852 4.85227 0
M  V30 4935 O 466.176 4.64491 3.82794 0
M  V30 4936 H 470.002 2.84945 1.05071 0
M  V30 4937 H 467.587 1.42312 0.454723 0
M  V30 4938 H 469.469 2.40204 3.46237 0
M  V30 4939 H 468.144 1.31851 2.9563 0
M  V30 4940 H 467.051 3.30209 1.75821 0
M  V30 4941 H 468.384 4.33524 2.33062 0
M  V30 4942 N 470.036 -0.519951 1.48776 0
M  V30 4943 C 470.986 -1.61995 1.60442 0
M  V30 4944 C 471.97 -1.54155 0.460991 0
M  V30 4945 O 473.162 -1.62006 0.712965 0
M  V30 4946 C 470.291 -3.00683 1.65664 0
M  V30 4947 C 469.377 -3.1359 2.8552 0
M  V30 4948 N 469.768 -2.96441 4.09825 0
M  V30 4949 C 468.066 -3.44662 2.83062 0
M  V30 4950 C 468.767 -3.1303 4.90293 0
M  V30 4951 N 467.743 -3.41058 4.23297 0
M  V30 4952 H 471.545 -1.47362 2.54287 0
M  V30 4953 H 469.059 -0.725649 1.45286 0
M  V30 4954 H 471.056 -3.79712 1.72117 0
M  V30 4955 H 469.716 -3.16401 0.729425 0
M  V30 4956 H 470.727 -2.72999 4.40104 0
M  V30 4957 H 467.404 -3.66675 1.9964 0
M  V30 4958 H 468.794 -3.04424 5.98979 0
M  V30 4959 N 471.514 -1.37532 -0.769588 0
M  V30 4960 C 472.754 -1.34261 -1.54122 0
M  V30 4961 C 473.118 0.0717222 -1.91866 0
M  V30 4962 O 474.319 0.22918 -2.67821 0
M  V30 4963 C 472.59 -2.2574 -2.77086 0
M  V30 4964 S 474.149 -2.40339 -3.67127 0
M  V30 4965 H 470.967 -0.476595 -0.527615 0
M  V30 4966 H 473.569 -1.73303 -0.90479 0
M  V30 4967 H 472.273 -3.27417 -2.4744 0
M  V30 4968 H 471.804 -1.87789 -3.45686 0
M  V30 4969 H 473.819 -1.61558 -4.69163 0
M  V30 4970 N 472.992 0.995999 -1.22138 0
M  V30 4971 C 474.241 1.72928 -1.03821 0
M  V30 4972 C 474.554 1.90872 0.427444 0
M  V30 4973 O 475.76 2.61496 0.730212 0
M  V30 4974 C 474.216 3.11124 -1.80913 0
M  V30 4975 C 473.824 3.01122 -3.31707 0
M  V30 4976 C 475.568 3.8852 -1.71035 0
M  V30 4977 C 473.475 4.34453 -4.01253 0
M  V30 4978 H 472.405 0.648376 -0.384869 0
M  V30 4979 H 475.056 1.11213 -1.45959 0
M  V30 4980 H 473.438 3.73503 -1.31573 0
M  V30 4981 H 474.612 2.47926 -3.88419 0
M  V30 4982 H 472.927 2.3721 -3.42228 0
M  V30 4983 H 475.524 4.872 -2.20318 0
M  V30 4984 H 475.867 4.1087 -0.670196 0
M  V30 4985 H 476.4 3.32812 -2.17902 0
M  V30 4986 H 473.139 4.17303 -5.05508 0
M  V30 4987 H 472.659 4.87574 -3.49331 0
M  V30 4988 H 474.338 5.03215 -4.06674 0
M  V30 4989 N 474.47 1.03057 1.19235 0
M  V30 4990 C 475.38 0.622922 2.26179 0
M  V30 4991 C 476.396 -0.346113 1.70523 0
M  V30 4992 O 477.572 -0.203572 2.00369 0
M  V30 4993 C 474.637 -0.0182063 3.46695 0
M  V30 4994 C 473.698 0.998546 4.17526 0
M  V30 4995 C 472.931 0.387917 5.32288 0
M  V30 4996 O 473.154 -0.808668 5.64639 0
M  V30 4997 O 472.088 1.1116 5.91546 0
M  V30 4998 H 475.914 1.51363 2.63292 0
M  V30 4999 H 473.499 0.800856 1.26122 0
M  V30 5000 H 475.381 -0.375606 4.19723 0
M  V30 5001 H 474.056 -0.882895 3.11427 0
M  V30 5002 H 472.963 1.40756 3.4661 0
M  V30 5003 H 474.296 1.83366 4.56769 0
M  V30 5004 N 475.948 -1.35272 0.808662 0
M  V30 5005 C 477.195 -1.98709 0.390003 0
M  V30 5006 C 477.523 -1.64148 -1.04335 0
M  V30 5007 O 476.778 -0.897797 -1.73891 0
M  V30 5008 C 477.077 -3.53556 0.522798 0
M  V30 5009 C 476.743 -4.0799 1.91977 0
M  V30 5010 C 475.405 -4.22568 2.30195 0
M  V30 5011 C 477.757 -4.37442 2.83361 0
M  V30 5012 C 475.085 -4.63918 3.59162 0
M  V30 5013 C 477.437 -4.80232 4.11776 0
M  V30 5014 C 476.101 -4.93016 4.49991 0
M  V30 5015 H 475.371 -0.727127 0.142712 0
M  V30 5016 H 478.018 -1.6145 1.02985 0
M  V30 5017 H 476.323 -3.91287 -0.200494 0
M  V30 5018 H 478.02 -4.00598 0.179608 0
M  V30 5019 H 474.61 -3.97096 1.61284 0
M  V30 5020 H 478.794 -4.25731 2.55083 0
M  V30 5021 H 474.05 -4.72005 3.88615 0
M  V30 5022 H 478.224 -5.01982 4.82687 0
M  V30 5023 H 475.851 -5.24814 5.49976 0
M  V30 5024 N 477.426 -0.562348 -1.47226 0
M  V30 5025 C 478.672 -0.0402761 -2.0276 0
M  V30 5026 C 479.005 1.30823 -1.43523 0
M  V30 5027 O 478.28 1.85249 -0.592705 0
M  V30 5028 C 478.563 0.047311 -3.60069 0
M  V30 5029 C 478.416 -1.32865 -4.29729 0
M  V30 5030 C 479.735 0.758182 -4.3352 0
M  V30 5031 H 476.854 -0.0161105 -0.736824 0
M  V30 5032 H 479.496 -0.725628 -1.75598 0
M  V30 5033 H 477.646 0.630986 -3.83342 0
M  V30 5034 H 479.318 -1.95593 -4.17781 0
M  V30 5035 H 477.561 -1.90195 -3.89882 0
M  V30 5036 H 478.232 -1.22004 -5.38349 0
M  V30 5037 H 480.708 0.262546 -4.15271 0
M  V30 5038 H 479.584 0.78844 -5.43208 0
M  V30 5039 H 479.845 1.81537 -4.03109 0
M  V30 5040 N 478.904 1.54736 -0.299062 0
M  V30 5041 C 480.15 2.00397 0.311244 0
M  V30 5042 C 480.483 1.18716 1.53688 0
M  V30 5043 O 479.758 0.263154 1.92712 0
M  V30 5044 C 480.041 3.53817 0.669761 0
M  V30 5045 C 479.894 4.46239 -0.564882 0
M  V30 5046 C 481.213 4.13856 1.49702 0
M  V30 5047 H 478.332 0.728493 0.111653 0
M  V30 5048 H 480.974 1.85506 -0.410774 0
M  V30 5049 H 479.124 3.66637 1.28491 0
M  V30 5050 H 480.796 4.45328 -1.20337 0
M  V30 5051 H 479.039 4.16916 -1.19849 0
M  V30 5052 H 479.71 5.5134 -0.269918 0
M  V30 5053 H 482.186 4.04461 0.977284 0
M  V30 5054 H 481.062 5.21365 1.71666 0
M  V30 5055 H 481.323 3.65608 2.48563 0
M  V30 5056 N 480.382 0.0267497 1.57577 0
M  V30 5057 C 481.798 -0.32962 1.56159 0
M  V30 5058 C 481.998 -1.73059 1.03213 0
M  V30 5059 O 481.054 -2.43233 0.677804 0
M  V30 5060 C 482.367 -0.18039 3.00158 0
M  V30 5061 C 483.915 -0.253334 3.11973 0
M  V30 5062 C 484.39 -0.132921 4.57807 0
M  V30 5063 N 485.881 -0.189979 4.6281 0
M  V30 5064 C 486.616 -0.120554 5.73273 0
M  V30 5065 N 486.112 -0.000180315 6.928 0
M  V30 5066 N 487.905 -0.174369 5.61829 0
M  V30 5067 H 480.056 0.942896 1.90324 0
M  V30 5068 H 482.319 0.3639 0.875375 0
M  V30 5069 H 482.025 0.784576 3.42837 0
M  V30 5070 H 481.899 -0.951565 3.65 0
M  V30 5071 H 484.286 -1.20876 2.69208 0
M  V30 5072 H 484.367 0.548177 2.49857 0
M  V30 5073 H 484.011 0.819073 5.01252 0
M  V30 5074 H 483.941 -0.953264 5.179 0
M  V30 5075 H 486.432 -0.283257 3.76837 0
M  V30 5076 H 486.745 0.0461666 7.72786 0
M  V30 5077 H 485.09 0.034569 6.94991 0
M  V30 5078 H 488.281 -0.266794 4.67339 0
M  V30 5079 H 488.454 -0.116802 6.47895 0
M  V30 5080 N 481.861 -1.55662 -0.24637 0
M  V30 5081 C 483.109 -1.77168 -0.972411 0
M  V30 5082 C 483.43 -0.590827 -1.85834 0
M  V30 5083 O 482.7 0.393365 -1.9191 0
M  V30 5084 H 481.28 -0.653405 -0.362038 0
M  V30 5085 H 483.942 -1.93101 -0.264189 0
M  V30 5086 H 483.038 -2.68335 -1.59382 0
M  V30 5087 N 483.339 0.512053 -1.4905 0
M  V30 5088 C 484.287 1.63568 -1.65373 0
M  V30 5089 C 485.281 1.61228 -0.519806 0
M  V30 5090 O 486.487 1.65869 -0.699101 0
M  V30 5091 H 482.862 0.542019 -0.521267 0
M  V30 5092 H 484.833 1.4695 -2.59708 0
M  V30 5093 C 483.582 3.01761 -1.7273 0
M  V30 5094 H 482.905 3.04263 -2.59353 0
M  V30 5095 H 484.345 3.79948 -1.8819 0
M  V30 5096 C 482.804 3.33609 -0.46973 0
M  V30 5097 O 483.334 3.99607 0.409492 0
M  V30 5098 N 481.54 2.88651 -0.336003 0
M  V30 5099 H 481.087 2.35119 -1.05247 0
M  V30 5100 H 481.045 3.10328 0.504363 0
M  V30 5101 N 484.817 1.37938 0.762283 0
M  V30 5102 C 486.228 1.30094 1.33912 0
M  V30 5103 C 486.579 -0.0472026 1.96143 0
M  V30 5104 O 485.704 -0.94917 1.94473 0
M  V30 5105 C 486.299 2.35592 2.43478 0
M  V30 5106 C 484.858 2.31353 2.96905 0
M  V30 5107 C 484.005 2.18919 1.70205 0
M  V30 5108 H 486.956 1.48423 0.561816 0
M  V30 5109 H 486.977 2.00806 3.23199 0
M  V30 5110 H 486.489 3.33701 1.98155 0
M  V30 5111 H 484.59 1.36799 3.46579 0
M  V30 5112 H 484.703 3.25147 3.51875 0
M  V30 5113 H 483.067 1.65624 1.93496 0
M  V30 5114 H 483.85 3.18956 1.26973 0
M  V30 5115 N 486.295 -0.989507 1.22664 0
M  V30 5116 C 487.706 -1.54406 1.04955 0
M  V30 5117 C 488.057 -1.92366 -0.385951 0
M  V30 5118 O 487.182 -1.75111 -1.27142 0
M  V30 5119 C 487.777 -2.80578 1.89899 0
M  V30 5120 C 486.336 -3.32464 1.76478 0
M  V30 5121 C 485.483 -2.05524 1.86159 0
M  V30 5122 H 488.434 -0.810211 1.3646 0
M  V30 5123 H 488.455 -3.53075 1.4184 0
M  V30 5124 H 487.967 -2.52918 2.94371 0
M  V30 5125 H 486.068 -3.65024 0.747528 0
M  V30 5126 H 486.181 -4.02838 2.59342 0
M  V30 5127 H 484.545 -2.19241 1.29636 0
M  V30 5128 H 485.328 -1.80258 2.92168 0
M  V30 5129 N 487.773 -1.03688 -1.18687 0
M  V30 5130 C 489.184 -0.766488 -1.70241 0
M  V30 5131 C 489.535 0.713052 -1.82784 0
M  V30 5132 O 488.66 1.55529 -1.50465 0
M  V30 5133 C 489.255 -1.38475 -3.09209 0
M  V30 5134 C 487.814 -1.16276 -3.5799 0
M  V30 5135 C 486.961 -1.4778 -2.34641 0
M  V30 5136 H 489.912 -1.20378 -1.03415 0
M  V30 5137 H 489.933 -0.785939 -3.72295 0
M  V30 5138 H 489.445 -2.46157 -3.00048 0
M  V30 5139 H 487.546 -0.104508 -3.72453 0
M  V30 5140 H 487.659 -1.8571 -4.41643 0
M  V30 5141 H 486.023 -0.897366 -2.38368 0
M  V30 5142 H 486.806 -2.56562 -2.28102 0
M  V30 5143 N 489.251 1.34841 -0.815825 0
M  V30 5144 C 490.479 2.0273 -0.413294 0
M  V30 5145 C 490.894 1.61459 0.978599 0
M  V30 5146 O 490.251 0.816584 1.63212 0
M  V30 5147 C 490.302 3.58058 -0.497676 0
M  V30 5148 O 490.023 3.97832 -1.8347 0
M  V30 5149 C 491.524 4.4321 -0.0891339 0
M  V30 5150 H 488.744 0.649956 -0.166728 0
M  V30 5151 H 491.288 1.72267 -1.10201 0
M  V30 5152 H 489.443 3.87136 0.142886 0
M  V30 5153 H 489.857 4.92501 -1.80396 0
M  V30 5154 H 491.331 5.5164 -0.199274 0
M  V30 5155 H 491.808 4.28432 0.966571 0
M  V30 5156 H 492.414 4.19446 -0.703214 0
M  V30 5157 N 490.729 0.570148 1.46925 0
M  V30 5158 C 491.659 -0.158274 2.32963 0
M  V30 5159 C 492.64 -0.896093 1.44583 0
M  V30 5160 O 493.825 -0.874022 1.7342 0
M  V30 5161 C 490.955 -1.18055 3.26619 0
M  V30 5162 C 489.909 -0.558379 4.24342 0
M  V30 5163 C 489.235 -1.68623 5.07415 0
M  V30 5164 C 490.535 0.496295 5.19937 0
M  V30 5165 H 492.229 0.560046 2.94115 0
M  V30 5166 H 489.775 0.270775 1.41431 0
M  V30 5167 H 491.728 -1.69841 3.85658 0
M  V30 5168 H 490.452 -1.92899 2.63548 0
M  V30 5169 H 489.111 -0.0617157 3.66548 0
M  V30 5170 H 488.759 -2.42402 4.40738 0
M  V30 5171 H 488.459 -1.27564 5.73586 0
M  V30 5172 H 489.983 -2.20709 5.69315 0
M  V30 5173 H 491.397 0.0640052 5.73264 0
M  V30 5174 H 489.794 0.82649 5.94381 0
M  V30 5175 H 490.864 1.38735 4.6463 0
M  V30 5176 N 492.207 -1.54576 0.307264 0
M  V30 5177 C 493.157 -2.20467 -0.581249 0
M  V30 5178 C 494.141 -1.17972 -1.09414 0
M  V30 5179 O 495.333 -1.43667 -1.03387 0
M  V30 5180 C 492.462 -2.95369 -1.74963 0
M  V30 5181 C 491.548 -4.05186 -1.25241 0
M  V30 5182 N 491.939 -5.03577 -0.47364 0
M  V30 5183 C 490.237 -4.18841 -1.53259 0
M  V30 5184 C 490.938 -5.81328 -0.208083 0
M  V30 5185 N 489.914 -5.37834 -0.789651 0
M  V30 5186 H 493.716 -2.93892 0.0212221 0
M  V30 5187 H 491.23 -1.62011 0.112325 0
M  V30 5188 H 493.227 -3.41046 -2.39777 0
M  V30 5189 H 491.887 -2.23461 -2.35574 0
M  V30 5190 H 492.898 -5.17766 -0.117963 0
M  V30 5191 H 489.575 -3.58141 -2.14573 0
M  V30 5192 H 490.965 -6.706 0.417793 0
M  V30 5193 N 493.685 -0.035106 -1.57561 0
M  V30 5194 C 494.931 0.637362 -1.93156 0
M  V30 5195 C 495.286 1.69391 -0.912392 0
M  V30 5196 O 494.579 1.91469 0.070735 0
M  V30 5197 C 494.773 1.29149 -3.3325 0
M  V30 5198 C 494.602 0.29983 -4.48699 0
M  V30 5199 C 493.372 -0.102454 -5.05196 0
M  V30 5200 C 495.57 -0.448297 -5.12342 0
M  V30 5201 N 493.552 -1.08866 -6.0417 0
M  V30 5202 C 494.923 -1.28807 -6.06472 0
M  V30 5203 C 496.978 -0.508351 -4.95298 0
M  V30 5204 C 495.681 -2.18248 -6.85391 0
M  V30 5205 C 497.707 -1.39013 -5.7483 0
M  V30 5206 C 497.069 -2.21766 -6.6858 0
M  V30 5207 H 493.168 0.205358 -0.754554 0
M  V30 5208 H 495.752 -0.103682 -1.94424 0
M  V30 5209 H 493.923 2.00264 -3.3279 0
M  V30 5210 H 495.655 1.92147 -3.56177 0
M  V30 5211 H 492.41 0.273223 -4.72811 0
M  V30 5212 H 492.834 -1.57817 -6.58348 0
M  V30 5213 H 497.476 0.117197 -4.22638 0
M  V30 5214 H 495.194 -2.81855 -7.57353 0
M  V30 5215 H 498.78 -1.44096 -5.63673 0
M  V30 5216 H 497.66 -2.88892 -7.29048 0
M  V30 5217 N 495.163 1.55791 0.238111 0
M  V30 5218 C 496.093 1.94068 1.29846 0
M  V30 5219 C 497.074 0.806726 1.49753 0
M  V30 5220 O 498.259 1.06772 1.62214 0
M  V30 5221 C 495.389 2.24302 2.65153 0
M  V30 5222 C 494.343 3.40032 2.59927 0
M  V30 5223 C 493.669 3.55829 3.99111 0
M  V30 5224 C 494.969 4.75476 2.16148 0
M  V30 5225 H 496.663 2.82887 0.980563 0
M  V30 5226 H 494.209 1.36105 0.470253 0
M  V30 5227 H 496.162 2.4967 3.39475 0
M  V30 5228 H 494.886 1.32318 2.98596 0
M  V30 5229 H 493.545 3.14687 1.88063 0
M  V30 5230 H 493.193 2.6125 4.29834 0
M  V30 5231 H 492.893 4.3366 3.96501 0
M  V30 5232 H 494.417 3.83528 4.7512 0
M  V30 5233 H 495.831 5.00158 2.80205 0
M  V30 5234 H 494.228 5.56472 2.24631 0
M  V30 5235 H 495.298 4.71946 1.11333 0
M  V30 5236 N 496.642 -0.504142 1.49319 0
M  V30 5237 C 497.592 -1.60284 1.62151 0
M  V30 5238 C 498.576 -1.53657 0.477315 0
M  V30 5239 O 499.768 -1.6124 0.730108 0
M  V30 5240 C 496.897 -2.98909 1.68844 0
M  V30 5241 C 495.983 -3.10544 2.8883 0
M  V30 5242 N 496.374 -2.92078 4.12946 0
M  V30 5243 C 494.672 -3.4164 2.86702 0
M  V30 5244 C 495.373 -3.07812 4.93585 0
M  V30 5245 N 494.349 -3.36549 4.26891 0
M  V30 5246 H 498.151 -1.44656 2.55835 0
M  V30 5247 H 495.665 -0.710198 1.46048 0
M  V30 5248 H 497.662 -3.77865 1.76134 0
M  V30 5249 H 496.322 -3.15609 0.762943 0
M  V30 5250 H 497.333 -2.68316 4.42975 0
M  V30 5251 H 494.01 -3.64537 2.03517 0
M  V30 5252 H 495.4 -2.98054 6.02174 0
M  V30 5253 N 498.12 -1.38341 -0.754957 0
M  V30 5254 C 499.068 -1.35573 -1.89005 0
M  V30 5255 C 500.062 -0.241824 -1.67665 0
M  V30 5256 O 501.268 -0.410785 -1.7525 0
M  V30 5257 H 497.643 -0.422898 -0.621821 0
M  V30 5258 H 499.614 -2.31359 -1.88455 0
M  V30 5259 C 498.363 -1.19631 -3.26471 0
M  V30 5260 H 497.686 -2.04605 -3.43477 0
M  V30 5261 H 499.126 -1.21748 -4.06144 0
M  V30 5262 C 497.585 0.0968705 -3.36761 0
M  V30 5263 O 498.115 1.07439 -3.87066 0
M  V30 5264 N 496.321 0.153242 -2.90196 0
M  V30 5265 H 495.868 -0.642908 -2.49448 0
M  V30 5266 H 495.826 1.01807 -2.9746 0
M  V30 5267 N 499.598 0.982988 -1.23187 0
M  V30 5268 C 500.846 1.72052 -1.06031 0
M  V30 5269 C 501.167 1.90769 0.404019 0
M  V30 5270 O 500.437 1.47446 1.28982 0
M  V30 5271 H 499.017 0.637499 -0.389363 0
M  V30 5272 H 501.679 1.18338 -1.54862 0
M  V30 5273 H 500.775 2.7111 -1.54615 0
M  V30 5274 N 501.076 1.04316 1.18135 0
M  V30 5275 C 502.008 0.594444 2.21357 0
M  V30 5276 C 503.021 -0.337215 1.59269 0
M  V30 5277 O 504.21 -0.131337 1.78016 0
M  V30 5278 C 501.31 -0.151251 3.38562 0
M  V30 5279 C 500.483 0.788907 4.30227 0
M  V30 5280 C 499.542 0.0860572 5.2613 0
M  V30 5281 O 498.568 0.717302 5.64662 0
M  V30 5282 N 499.77 -1.17969 5.68387 0
M  V30 5283 H 502.535 1.48227 2.60478 0
M  V30 5284 H 500.096 0.92396 1.32946 0
M  V30 5285 H 502.088 -0.631352 3.99745 0
M  V30 5286 H 500.658 -0.940639 2.98112 0
M  V30 5287 H 499.878 1.44882 3.6661 0
M  V30 5288 H 501.166 1.42738 4.88368 0
M  V30 5289 H 500.564 -1.71302 5.3914 0
M  V30 5290 H 499.121 -1.60402 6.31755 0
M  V30 5291 N 502.554 -1.34406 0.822964 0
M  V30 5292 C 503.965 -1.8069 0.469879 0
M  V30 5293 C 504.316 -1.68223 -1.00972 0
M  V30 5294 O 503.441 -1.22226 -1.78577 0
M  V30 5295 C 504.036 -3.28064 0.846118 0
M  V30 5296 C 502.595 -3.72428 0.545402 0
M  V30 5297 C 501.742 -2.56116 1.06301 0
M  V30 5298 H 504.693 -1.22153 1.01313 0
M  V30 5299 H 504.714 -3.80205 0.149922 0
M  V30 5300 H 504.226 -3.37107 1.92304 0
M  V30 5301 H 502.327 -3.68924 -0.522109 0
M  V30 5302 H 502.44 -4.66548 1.0895 0
M  V30 5303 H 500.804 -2.50048 0.484554 0
M  V30 5304 H 501.587 -2.67928 2.14638 0
M  V30 5305 N 504.032 -0.577932 -1.46621 0
M  V30 5306 C 504.962 0.145917 -2.33044 0
M  V30 5307 C 505.943 0.888412 -1.45056 0
M  V30 5308 O 507.128 0.864812 -1.73881 0
M  V30 5309 C 504.258 1.16322 -3.27241 0
M  V30 5310 C 503.212 0.535868 -4.24632 0
M  V30 5311 C 502.538 1.65929 -5.08303 0
M  V30 5312 C 503.838 -0.523861 -5.19666 0
M  V30 5313 H 505.532 -0.575636 -2.93814 0
M  V30 5314 H 503.078 -0.278272 -1.41286 0
M  V30 5315 H 505.031 1.67793 -3.86553 0
M  V30 5316 H 503.755 1.91498 -2.64567 0
M  V30 5317 H 502.414 0.0422759 -3.66576 0
M  V30 5318 H 502.062 2.40061 -4.42018 0
M  V30 5319 H 501.762 1.2452 -5.74255 0
M  V30 5320 H 503.286 2.17686 -5.70478 0
M  V30 5321 H 504.7 -0.0944059 -5.73222 0
M  V30 5322 H 503.097 -0.858 -5.93935 0
M  V30 5323 H 504.167 -1.41197 -4.63887 0
M  V30 5324 N 505.51 1.54411 -0.315457 0
M  V30 5325 C 506.926 1.59556 0.037464 0
M  V30 5326 C 507.126 1.33217 1.5118 0
M  V30 5327 O 506.182 1.11264 2.26664 0
M  V30 5328 C 507.495 2.98372 -0.373477 0
M  V30 5329 C 509.043 3.11324 -0.323452 0
M  V30 5330 C 509.518 4.52472 -0.709433 0
M  V30 5331 N 511.009 4.58437 -0.662524 0
M  V30 5332 C 511.744 5.65751 -0.933474 0
M  V30 5333 N 511.24 6.81039 -1.27114 0
M  V30 5334 N 513.033 5.55489 -0.859573 0
M  V30 5335 H 505.184 1.6979 -1.27614 0
M  V30 5336 H 507.447 0.793732 -0.518356 0
M  V30 5337 H 507.153 3.22618 -1.40037 0
M  V30 5338 H 507.027 3.76264 0.265615 0
M  V30 5339 H 509.414 2.86818 0.694223 0
M  V30 5340 H 509.495 2.35555 -0.997367 0
M  V30 5341 H 509.139 4.7771 -1.72498 0
M  V30 5342 H 509.069 5.26598 -0.0132923 0
M  V30 5343 H 511.56 3.75636 -0.413065 0
M  V30 5344 H 511.873 7.58816 -1.46348 0
M  V30 5345 H 510.218 6.82555 -1.30932 0
M  V30 5346 H 513.409 4.64299 -0.595324 0
M  V30 5347 H 513.582 6.39036 -1.0741 0
M  V30 5348 N 506.988 0.0434614 1.5754 0
M  V30 5349 C 507.898 -0.94893 2.14552 0
M  V30 5350 C 508.914 -1.34707 1.10136 0
M  V30 5351 O 510.09 -1.42557 1.42266 0
M  V30 5352 C 507.155 -2.208 2.67298 0
M  V30 5353 C 506.216 -1.86893 3.86484 0
M  V30 5354 C 505.449 -3.06797 4.36705 0
M  V30 5355 O 505.672 -4.19921 3.86034 0
M  V30 5356 O 504.606 -2.8826 5.28384 0
M  V30 5357 H 508.432 -0.494099 2.99654 0
M  V30 5358 H 506.017 -0.177989 1.48336 0
M  V30 5359 H 507.899 -2.94686 3.01228 0
M  V30 5360 H 506.574 -2.65436 1.85272 0
M  V30 5361 H 505.481 -1.10347 3.57455 0
M  V30 5362 H 506.814 -1.47062 4.69716 0
M  V30 5363 N 508.466 -1.55915 -0.229846 0
M  V30 5364 C 509.691 -1.8296 -0.976743 0
M  V30 5365 C 510.116 -0.622735 -1.77493 0
M  V30 5366 O 509.474 0.428431 -1.76165 0
M  V30 5367 C 509.522 -3.07916 -1.8767 0
M  V30 5368 O 508.626 -2.86028 -2.97088 0
M  V30 5369 H 507.967 -0.603453 -0.277021 0
M  V30 5370 H 510.497 -2.0312 -0.245669 0
M  V30 5371 H 510.507 -3.37802 -2.2881 0
M  V30 5372 H 509.182 -3.95389 -1.28996 0
M  V30 5373 H 507.759 -2.67355 -2.59954 0
M  V30 5374 N 509.944 0.496216 -1.49584 0
M  V30 5375 C 510.891 1.59722 -1.66606 0
M  V30 5376 C 511.861 1.58158 -0.507477 0
M  V30 5377 O 513.046 1.76072 -0.735076 0
M  V30 5378 C 510.186 2.97844 -1.74308 0
M  V30 5379 C 509.299 3.09388 -3.01502 0
M  V30 5380 C 508.434 4.38271 -3.00153 0
M  V30 5381 C 507.473 4.43466 -4.21906 0
M  V30 5382 N 506.61 5.63784 -4.1844 0
M  V30 5383 H 511.45 1.44515 -2.60613 0
M  V30 5384 H 508.987 0.703048 -1.29212 0
M  V30 5385 H 510.945 3.77907 -1.76754 0
M  V30 5386 H 509.575 3.11743 -0.837619 0
M  V30 5387 H 508.627 2.22357 -3.08645 0
M  V30 5388 H 509.939 3.09085 -3.91494 0
M  V30 5389 H 509.093 5.2666 -3.01188 0
M  V30 5390 H 507.832 4.41146 -2.07947 0
M  V30 5391 H 506.837 3.53478 -4.21109 0
M  V30 5392 H 508.062 4.42303 -5.1531 0
M  V30 5393 H 506.008 5.67491 -3.29074 0
M  V30 5394 H 505.925 5.65118 -5.02173 0
M  V30 5395 H 507.193 6.54367 -4.23585 0
M  V30 5396 N 511.423 1.38739 0.74761 0
M  V30 5397 C 512.672 1.3459 1.50228 0
M  V30 5398 C 512.985 -0.0595592 1.95509 0
M  V30 5399 O 514.191 -0.22361 2.70578 0
M  V30 5400 C 512.647 2.36377 2.71393 0
M  V30 5401 C 512.255 3.82573 2.33113 0
M  V30 5402 C 513.999 2.41281 3.49262 0
M  V30 5403 C 511.906 4.76032 3.50924 0
M  V30 5404 H 510.836 0.500312 0.564096 0
M  V30 5405 H 513.487 1.64324 0.8167 0
M  V30 5406 H 511.869 1.99694 3.41962 0
M  V30 5407 H 513.043 4.28227 1.70171 0
M  V30 5408 H 511.358 3.80844 1.68365 0
M  V30 5409 H 513.955 3.08301 4.36869 0
M  V30 5410 H 514.298 1.43353 3.9084 0
M  V30 5411 H 514.831 2.76793 2.85711 0
M  V30 5412 H 511.57 5.75177 3.14408 0
M  V30 5413 H 511.09 4.35066 4.12889 0
M  V30 5414 H 512.769 4.94331 4.17427 0
M  V30 5415 N 512.901 -0.976442 1.23707 0
M  V30 5416 C 514.15 -1.71254 1.06559 0
M  V30 5417 C 514.463 -1.91528 -0.397024 0
M  V30 5418 O 515.669 -2.62625 -0.688518 0
M  V30 5419 C 514.125 -3.08207 1.8584 0
M  V30 5420 C 513.733 -2.95806 3.36456 0
M  V30 5421 C 515.477 -3.85749 1.77194 0
M  V30 5422 C 513.384 -4.28015 4.08114 0
M  V30 5423 H 512.314 -0.642171 0.395136 0
M  V30 5424 H 514.965 -1.08877 1.4771 0
M  V30 5425 H 513.347 -3.71363 1.37498 0
M  V30 5426 H 514.521 -2.41716 3.92314 0
M  V30 5427 H 512.836 -2.31736 3.45959 0
M  V30 5428 H 515.433 -4.83633 2.28041 0
M  V30 5429 H 515.776 -4.09752 0.735477 0
M  V30 5430 H 516.309 -3.29303 2.23169 0
M  V30 5431 H 513.048 -4.09208 5.12083 0
M  V30 5432 H 512.568 -4.81955 3.57043 0
M  V30 5433 H 514.247 -4.96681 4.14629 0
M  V30 5434 N 514.379 -1.04941 -1.1758 0
M  V30 5435 C 515.329 -0.618378 -2.19454 0
M  V30 5436 C 516.313 0.343813 -1.57184 0
M  V30 5437 O 517.505 0.16145 -1.76262 0
M  V30 5438 C 514.634 0.00803847 -3.43299 0
M  V30 5439 C 513.72 -0.977827 -4.12673 0
M  V30 5440 N 514.111 -2.14826 -4.57912 0
M  V30 5441 C 512.409 -0.805748 -4.38661 0
M  V30 5442 C 513.11 -2.77174 -5.11419 0
M  V30 5443 N 512.086 -2.04989 -5.03468 0
M  V30 5444 H 515.888 -1.51018 -2.52132 0
M  V30 5445 H 513.402 -0.919201 -1.33882 0
M  V30 5446 H 515.399 0.334584 -4.15555 0
M  V30 5447 H 514.059 0.895272 -3.12114 0
M  V30 5448 H 515.07 -2.52673 -4.52081 0
M  V30 5449 H 511.747 0.0306506 -4.17489 0
M  V30 5450 H 513.137 -3.76416 -5.56562 0
M  V30 5451 N 515.857 1.33968 -0.830081 0
M  V30 5452 C 517.103 1.98357 -0.422191 0
M  V30 5453 C 517.436 1.65633 1.01387 0
M  V30 5454 O 516.711 0.931648 1.70735 0
M  V30 5455 C 516.994 3.54492 -0.633043 0
M  V30 5456 C 516.847 3.96934 -2.11574 0
M  V30 5457 C 518.166 4.40039 -0.0735584 0
M  V30 5458 H 515.285 0.720544 -0.154871 0
M  V30 5459 H 517.927 1.58749 -1.04397 0
M  V30 5460 H 516.077 3.88361 -0.103775 0
M  V30 5461 H 517.749 3.73363 -2.7092 0
M  V30 5462 H 515.992 3.46984 -2.60354 0
M  V30 5463 H 516.663 5.05651 -2.21406 0
M  V30 5464 H 519.139 4.12764 -0.52585 0
M  V30 5465 H 518.015 5.48327 -0.250841 0
M  V30 5466 H 518.276 4.30124 1.02202 0
M  V30 5467 N 517.335 0.585699 1.46312 0
M  V30 5468 C 518.245 -0.148236 2.34131 0
M  V30 5469 C 519.261 -0.882972 1.49932 0
M  V30 5470 O 520.437 -0.845484 1.82794 0
M  V30 5471 C 517.502 -1.14714 3.27172 0
M  V30 5472 C 516.563 -0.416746 4.27272 0
M  V30 5473 C 515.796 -1.36806 5.15868 0
M  V30 5474 O 516.019 -2.60475 5.07454 0
M  V30 5475 O 514.953 -0.877018 5.95476 0
M  V30 5476 H 518.779 0.572882 2.98248 0
M  V30 5477 H 516.364 0.346082 1.45336 0
M  V30 5478 H 518.246 -1.72303 3.84564 0
M  V30 5479 H 516.921 -1.84967 2.65648 0
M  V30 5480 H 515.828 0.201061 3.73559 0
M  V30 5481 H 517.161 0.244872 4.9159 0
M  V30 5482 N 518.813 -1.54241 0.323641 0
M  V30 5483 C 520.043 -2.04687 -0.280464 0
M  V30 5484 C 520.451 -1.19939 -1.46326 0
M  V30 5485 O 519.794 -0.222872 -1.82343 0
M  V30 5486 C 519.856 -3.50978 -0.778123 0
M  V30 5487 C 519.52 -4.56127 0.282371 0
M  V30 5488 C 520.517 -5.07726 1.11847 0
M  V30 5489 C 518.202 -5.00451 0.430582 0
M  V30 5490 C 520.196 -6.02212 2.08851 0
M  V30 5491 C 517.883 -5.94752 1.40404 0
M  V30 5492 C 518.881 -6.45519 2.23147 0
M  V30 5493 O 518.569 -7.37968 3.1884 0
M  V30 5494 H 518.301 -0.673192 -0.0615473 0
M  V30 5495 H 520.855 -1.99999 0.467921 0
M  V30 5496 H 519.085 -3.53064 -1.57742 0
M  V30 5497 H 520.774 -3.84499 -1.30058 0
M  V30 5498 H 521.54 -4.74261 1.01496 0
M  V30 5499 H 517.419 -4.6055 -0.203569 0
M  V30 5500 H 520.963 -6.41761 2.73474 0
M  V30 5501 H 516.86 -6.27633 1.5082 0
M  V30 5502 H 517.628 -7.55841 3.14079 0
M  V30 5503 N 520.291 -0.0518155 -1.57515 0
M  V30 5504 C 521.521 0.63048 -1.96745 0
M  V30 5505 C 521.929 1.64875 -0.928054 0
M  V30 5506 O 521.272 1.83449 0.0960678 0
M  V30 5507 C 521.334 1.37381 -3.32215 0
M  V30 5508 C 520.998 0.511298 -4.54131 0
M  V30 5509 C 521.995 -0.222884 -5.19422 0
M  V30 5510 C 519.68 0.442035 -5.00351 0
M  V30 5511 C 521.674 -1.01476 -6.2927 0
M  V30 5512 C 519.361 -0.35353 -6.10077 0
M  V30 5513 C 520.359 -1.08062 -6.74397 0
M  V30 5514 O 520.047 -1.8631 -7.82013 0
M  V30 5515 H 519.779 0.177126 -0.652382 0
M  V30 5516 H 522.333 -0.114726 -2.05079 0
M  V30 5517 H 520.563 2.16466 -3.20436 0
M  V30 5518 H 522.252 1.9464 -3.56188 0
M  V30 5519 H 523.018 -0.178846 -4.8467 0
M  V30 5520 H 518.897 0.997562 -4.50077 0
M  V30 5521 H 522.441 -1.58279 -6.79407 0
M  V30 5522 H 518.338 -0.399205 -6.44264 0
M  V30 5523 H 519.106 -1.78528 -7.98793 0
M  V30 5524 N 521.769 1.56035 0.221574 0
M  V30 5525 C 522.701 1.889 1.29805 0
M  V30 5526 C 523.714 0.777269 1.43047 0
M  V30 5527 O 524.903 1.05557 1.43945 0
M  V30 5528 C 522.003 2.0825 2.67367 0
M  V30 5529 C 521.176 3.39267 2.76073 0
M  V30 5530 C 520.235 3.48049 3.94649 0
M  V30 5531 O 519.261 4.2108 3.82988 0
M  V30 5532 N 520.463 2.79191 5.08953 0
M  V30 5533 H 523.228 2.81831 1.01938 0
M  V30 5534 H 520.789 1.5658 0.411612 0
M  V30 5535 H 522.781 2.11441 3.45072 0
M  V30 5536 H 521.351 1.21944 2.87834 0
M  V30 5537 H 520.571 3.48175 1.84846 0
M  V30 5538 H 521.859 4.25575 2.7886 0
M  V30 5539 H 521.257 2.19635 5.21322 0
M  V30 5540 H 519.814 2.88043 5.84701 0
M  V30 5541 N 523.247 -0.488276 1.49845 0
M  V30 5542 C 524.157 -1.61451 1.70207 0
M  V30 5543 C 525.173 -1.63877 0.584846 0
M  V30 5544 O 526.349 -1.82063 0.861107 0
M  V30 5545 C 523.414 -2.9776 1.77594 0
M  V30 5546 C 522.475 -3.05861 3.01243 0
M  V30 5547 C 521.708 -4.35668 3.08268 0
M  V30 5548 O 521.931 -5.25197 2.22541 0
M  V30 5549 O 520.865 -4.49005 4.00847 0
M  V30 5550 H 524.691 -1.47199 2.65643 0
M  V30 5551 H 522.276 -0.665939 1.33737 0
M  V30 5552 H 524.158 -3.7875 1.84732 0
M  V30 5553 H 522.833 -3.12248 0.8534 0
M  V30 5554 H 521.74 -2.24012 2.99616 0
M  V30 5555 H 523.073 -2.96304 3.9302 0
M  V30 5556 N 524.725 -1.39134 -0.740242 0
M  V30 5557 C 525.973 -1.35803 -1.49673 0
M  V30 5558 C 526.294 0.0470897 -1.94943 0
M  V30 5559 O 525.564 0.997347 -1.68611 0
M  V30 5560 H 524.144 -0.499736 -0.555224 0
M  V30 5561 H 526.806 -1.73947 -0.879107 0
M  V30 5562 H 525.902 -2.0174 -2.38133 0
M  V30 5563 N 526.204 0.969867 -1.24223 0
M  V30 5564 C 527.114 2.09806 -1.0497 0
M  V30 5565 C 528.13 1.73998 0.00886455 0
M  V30 5566 O 529.306 2.00513 -0.188848 0
M  V30 5567 C 526.371 3.40467 -0.654452 0
M  V30 5568 C 525.432 3.90236 -1.78926 0
M  V30 5569 C 524.665 5.14662 -1.41277 0
M  V30 5570 O 524.888 5.69602 -0.301632 0
M  V30 5571 O 523.822 5.58761 -2.23763 0
M  V30 5572 H 527.648 2.28942 -1.99548 0
M  V30 5573 H 525.233 1.08197 -1.03023 0
M  V30 5574 H 527.115 4.19039 -0.445452 0
M  V30 5575 H 525.79 3.22636 0.262216 0
M  V30 5576 H 524.697 3.12735 -2.05299 0
M  V30 5577 H 526.03 4.1254 -2.68462 0
M  V30 5578 N 527.682 1.05563 1.17022 0
M  V30 5579 C 528.931 0.763036 1.8671 0
M  V30 5580 C 529.244 -0.712857 1.82147 0
M  V30 5581 O 530.45 -1.11955 2.47343 0
M  V30 5582 C 528.906 1.31474 3.35026 0
M  V30 5583 C 528.514 2.82034 3.48081 0
M  V30 5584 C 530.258 1.09935 4.10018 0
M  V30 5585 C 528.165 3.30486 4.90442 0
M  V30 5586 H 527.095 0.281747 0.699382 0
M  V30 5587 H 529.746 1.2734 1.32124 0
M  V30 5588 H 528.128 0.732171 3.89173 0
M  V30 5589 H 529.302 3.46178 3.04133 0
M  V30 5590 H 527.617 3.02156 2.86515 0
M  V30 5591 H 530.214 1.43632 5.15048 0
M  V30 5592 H 530.557 0.0373072 4.16283 0
M  V30 5593 H 531.09 1.64732 3.62089 0
M  V30 5594 H 527.829 4.36137 4.89352 0
M  V30 5595 H 527.349 2.71086 5.35044 0
M  V30 5596 H 529.028 3.25382 5.59227 0
M  V30 5597 N 529.16 -1.33526 0.837174 0
M  V30 5598 C 530.385 -2.0258 0.444545 0
M  V30 5599 C 530.81 -1.6258 -0.946006 0
M  V30 5600 O 530.168 -0.817548 -1.6182 0
M  V30 5601 C 530.216 -3.5605 0.571006 0
M  V30 5602 O 529.32 -4.10422 -0.403431 0
M  V30 5603 H 528.661 -0.638866 0.180958 0
M  V30 5604 H 531.191 -1.70462 1.13154 0
M  V30 5605 H 531.201 -4.05488 0.452024 0
M  V30 5606 H 529.876 -3.84509 1.58512 0
M  V30 5607 H 528.453 -3.72113 -0.242147 0
M  V30 5608 N 530.638 -0.59345 -1.46 0
M  V30 5609 C 531.548 0.135817 -2.34207 0
M  V30 5610 C 532.564 0.875008 -1.50398 0
M  V30 5611 O 533.74 0.835778 -1.83239 0
M  V30 5612 C 530.805 1.12977 -3.27776 0
M  V30 5613 C 529.866 0.394081 -4.27487 0
M  V30 5614 C 529.099 1.34068 -5.16586 0
M  V30 5615 O 529.322 2.5778 -5.08828 0
M  V30 5616 O 528.256 0.845426 -5.95933 0
M  V30 5617 H 532.082 -0.588691 -2.9794 0
M  V30 5618 H 529.667 -0.353784 -1.45151 0
M  V30 5619 H 531.549 1.70261 -3.85473 0
M  V30 5620 H 530.224 1.83556 -2.66625 0
M  V30 5621 H 529.131 -0.220869 -3.73447 0
M  V30 5622 H 530.464 -0.270939 -4.91454 0
M  V30 5623 N 532.116 1.54067 -0.331816 0
M  V30 5624 C 533.364 2.00319 0.267739 0
M  V30 5625 C 533.685 1.22148 1.52003 0
M  V30 5626 O 532.955 0.325494 1.93177 0
M  V30 5627 H 531.535 0.740014 0.101922 0
M  V30 5628 H 534.197 1.89628 -0.450267 0
M  V30 5629 H 533.293 3.07765 0.518385 0
M  V30 5630 N 533.594 0.0601682 1.57485 0
M  V30 5631 C 534.834 -0.615384 1.94916 0
M  V30 5632 C 535.198 -1.67475 0.938948 0
M  V30 5633 O 536.399 -2.40502 1.20051 0
M  V30 5634 C 534.67 -1.18788 3.37082 0
M  V30 5635 S 536.229 -1.88018 3.96478 0
M  V30 5636 H 533.047 -0.201821 0.681754 0
M  V30 5637 H 535.649 0.131252 1.95059 0
M  V30 5638 H 534.353 -0.404869 4.08398 0
M  V30 5639 H 533.884 -1.97114 3.40455 0
M  V30 5640 H 535.899 -3.16161 3.82435 0
M  V30 5641 N 535.072 -1.5615 -0.213296 0
M  V30 5642 C 536.002 -1.96109 -1.26742 0
M  V30 5643 C 536.983 -0.830448 -1.48451 0
M  V30 5644 O 538.168 -1.09339 -1.60495 0
M  V30 5645 C 535.298 -2.28492 -2.61551 0
M  V30 5646 C 534.252 -3.44124 -2.54485 0
M  V30 5647 C 533.578 -3.62134 -3.93399 0
M  V30 5648 C 534.878 -4.78855 -2.08556 0
M  V30 5649 H 536.572 -2.84412 -0.935434 0
M  V30 5650 H 534.118 -1.36836 -0.44854 0
M  V30 5651 H 536.071 -2.55039 -3.3546 0
M  V30 5652 H 534.795 -1.37052 -2.96453 0
M  V30 5653 H 533.454 -3.17639 -1.83033 0
M  V30 5654 H 533.102 -2.68055 -4.25623 0
M  V30 5655 H 532.802 -4.39913 -3.89551 0
M  V30 5656 H 534.326 -3.91038 -4.68958 0
M  V30 5657 H 535.74 -5.04552 -2.72213 0
M  V30 5658 H 534.137 -5.59975 -2.1575 0
M  V30 5659 H 535.207 -4.73657 -1.03811 0
M  V30 5660 N 536.55 0.480323 -1.50102 0
M  V30 5661 C 537.48 1.58769 -1.71215 0
M  V30 5662 C 538.461 1.60583 -0.560997 0
M  V30 5663 O 539.646 1.76996 -0.799127 0
M  V30 5664 C 536.776 2.97148 -1.79778 0
M  V30 5665 C 535.73 3.10201 -2.94888 0
M  V30 5666 C 535.056 4.50137 -2.88584 0
M  V30 5667 C 536.356 2.88283 -4.35534 0
M  V30 5668 H 538.05 1.41354 -2.6393 0
M  V30 5669 H 535.596 0.678591 -1.27008 0
M  V30 5670 H 537.549 3.74536 -1.93133 0
M  V30 5671 H 536.273 3.15699 -0.836772 0
M  V30 5672 H 534.932 2.35244 -2.81169 0
M  V30 5673 H 534.58 4.65593 -1.90349 0
M  V30 5674 H 534.28 4.59808 -3.65856 0
M  V30 5675 H 535.804 5.29558 -3.03976 0
M  V30 5676 H 537.218 3.55427 -4.49827 0
M  V30 5677 H 535.615 3.09408 -5.14186 0
M  V30 5678 H 536.685 1.84219 -4.48544 0
M  V30 5679 N 538.028 1.39524 0.732853 0
M  V30 5680 C 539.275 1.36865 1.49246 0
M  V30 5681 C 539.603 -0.0347118 1.94469 0
M  V30 5682 O 538.858 -1.01596 1.67262 0
M  V30 5683 C 539.157 2.28916 2.74468 0
M  V30 5684 C 538.823 3.76506 2.481 0
M  V30 5685 C 537.485 4.16721 2.40619 0
M  V30 5686 C 539.837 4.69846 2.25598 0
M  V30 5687 C 537.165 5.48334 2.08679 0
M  V30 5688 C 539.517 6.01739 1.95174 0
M  V30 5689 C 538.181 6.41015 1.86163 0
M  V30 5690 H 537.451 0.500824 0.546129 0
M  V30 5691 H 540.098 1.72047 0.840958 0
M  V30 5692 H 538.403 1.86859 3.4437 0
M  V30 5693 H 540.1 2.2415 3.32502 0
M  V30 5694 H 536.69 3.44635 2.54803 0
M  V30 5695 H 540.874 4.39608 2.30344 0
M  V30 5696 H 536.13 5.77685 2.00226 0
M  V30 5697 H 540.304 6.73591 1.76771 0
M  V30 5698 H 537.931 7.42917 1.61179 0
M  V30 5699 N 539.506 -0.963266 1.24736 0
M  V30 5700 C 540.454 -2.07985 1.04139 0
M  V30 5701 C 541.448 -1.69381 -0.0250556 0
M  V30 5702 O 542.654 -1.79531 0.129863 0
M  V30 5703 H 539.029 -0.680627 0.319768 0
M  V30 5704 H 541 -2.22517 1.98818 0
M  V30 5705 C 539.749 -3.4123 0.667615 0
M  V30 5706 H 539.072 -3.71397 1.48 0
M  V30 5707 H 540.512 -4.20244 0.563136 0
M  V30 5708 C 538.971 -3.3104 -0.625647 0
M  V30 5709 O 539.501 -3.65334 -1.67016 0
M  V30 5710 N 537.707 -2.84168 -0.608033 0
M  V30 5711 H 537.254 -2.56458 0.242323 0
M  V30 5712 H 537.212 -2.77732 -1.47352 0
M  V30 5713 N 540.985 -1.06182 -1.16461 0
M  V30 5714 C 541.932 -0.671613 -2.20812 0
M  V30 5715 C 542.902 0.331186 -1.62765 0
M  V30 5716 O 544.087 0.22033 -1.89524 0
M  V30 5717 C 541.227 -0.063029 -3.45042 0
M  V30 5718 C 540.34 -1.11587 -4.1734 0
M  V30 5719 C 539.475 -0.473546 -5.29085 0
M  V30 5720 C 538.514 -1.51 -5.93182 0
M  V30 5721 N 537.651 -0.891118 -6.96422 0
M  V30 5722 H 542.491 -1.56589 -2.53542 0
M  V30 5723 H 540.028 -0.782951 -1.24532 0
M  V30 5724 H 541.986 0.307344 -4.16066 0
M  V30 5725 H 540.616 0.794663 -3.12866 0
M  V30 5726 H 539.668 -1.60396 -3.44931 0
M  V30 5727 H 540.98 -1.90221 -4.61104 0
M  V30 5728 H 540.134 -0.0501432 -6.06679 0
M  V30 5729 H 538.873 0.344687 -4.8648 0
M  V30 5730 H 537.878 -1.94331 -5.14311 0
M  V30 5731 H 539.103 -2.33031 -6.37866 0
M  V30 5732 H 537.049 -0.0935753 -6.55933 0
M  V30 5733 H 536.966 -1.61486 -7.38551 0
M  V30 5734 H 538.234 -0.492822 -7.77941 0
M  V30 5735 N 542.463 1.3308 -0.844243 0
M  V30 5736 C 543.874 1.7992 -0.498566 0
M  V30 5737 C 544.225 1.69808 0.982834 0
M  V30 5738 O 543.35 1.25051 1.7661 0
M  V30 5739 C 543.945 3.26677 -0.898204 0
M  V30 5740 C 542.504 3.71513 -0.604583 0
M  V30 5741 C 541.651 2.54393 -1.10362 0
M  V30 5742 H 544.602 1.20526 -1.03244 0
M  V30 5743 H 544.623 3.79918 -0.21039 0
M  V30 5744 H 544.135 3.34004 -1.97643 0
M  V30 5745 H 542.236 3.69708 0.46335 0
M  V30 5746 H 542.349 4.64755 -1.16358 0
M  V30 5747 H 540.713 2.49246 -0.524273 0
M  V30 5748 H 541.496 2.6448 -2.18873 0
M  V30 5749 N 543.941 0.601185 1.45683 0
M  V30 5750 C 545.169 0.100054 2.06658 0
M  V30 5751 C 545.584 -1.21285 1.44691 0
M  V30 5752 O 544.941 -1.73735 0.558772 0
M  V30 5753 C 544.992 -0.0528579 3.61461 0
M  V30 5754 O 544.713 1.20809 4.21114 0
M  V30 5755 C 546.214 -0.586193 4.39407 0
M  V30 5756 H 543.434 0.065905 0.667756 0
M  V30 5757 H 545.978 0.827101 1.87028 0
M  V30 5758 H 544.133 -0.730203 3.80456 0
M  V30 5759 H 544.547 1.03368 5.14213 0
M  V30 5760 H 546.021 -0.642297 5.4825 0
M  V30 5761 H 546.498 -1.60713 4.0874 0
M  V30 5762 H 547.104 0.0568935 4.25262 0
M  V30 5763 N 545.419 -1.53889 0.339982 0
M  V30 5764 C 546.369 -2.2165 -0.534354 0
M  V30 5765 C 547.353 -1.20266 -1.06887 0
M  V30 5766 O 548.545 -1.45827 -1.00316 0
M  V30 5767 C 545.674 -2.99014 -1.68659 0
M  V30 5768 C 544.76 -4.07751 -1.16618 0
M  V30 5769 N 545.151 -5.04469 -0.366717 0
M  V30 5770 C 543.449 -4.21998 -1.4434 0
M  V30 5771 C 544.15 -5.81638 -0.0847275 0
M  V30 5772 N 543.126 -5.39388 -0.675391 0
M  V30 5773 H 546.928 -2.93781 0.0835562 0
M  V30 5774 H 544.442 -1.61736 0.146665 0
M  V30 5775 H 546.439 -3.46056 -2.32489 0
M  V30 5776 H 545.099 -2.28408 -2.30781 0
M  V30 5777 H 546.11 -5.17899 -0.00811038 0
M  V30 5778 H 542.787 -3.62612 -2.06928 0
M  V30 5779 H 544.177 -6.69563 0.559943 0
M  V30 5780 N 546.897 -0.0685191 -1.57451 0
M  V30 5781 C 548.127 0.609577 -1.97402 0
M  V30 5782 C 548.535 1.63882 -0.945489 0
M  V30 5783 O 547.878 1.8354 0.0766052 0
M  V30 5784 C 547.94 1.3385 -3.33653 0
M  V30 5785 C 547.604 0.463103 -4.54648 0
M  V30 5786 C 548.601 -0.277964 -5.19156 0
M  V30 5787 C 546.286 0.388941 -5.00792 0
M  V30 5788 C 548.28 -1.08145 -6.28159 0
M  V30 5789 C 545.967 -0.418217 -6.09667 0
M  V30 5790 C 546.965 -1.15208 -6.73213 0
M  V30 5791 O 546.653 -1.94594 -7.79993 0
M  V30 5792 H 546.385 0.170197 -0.654224 0
M  V30 5793 H 548.939 -0.13647 -2.04946 0
M  V30 5794 H 547.169 2.13055 -3.22714 0
M  V30 5795 H 548.858 1.90851 -3.58233 0
M  V30 5796 H 549.624 -0.230241 -4.84453 0
M  V30 5797 H 545.503 0.949769 -4.5111 0
M  V30 5798 H 549.047 -1.65476 -6.7769 0
M  V30 5799 H 544.944 -0.467515 -6.43805 0
M  V30 5800 H 545.712 -1.8699 -7.96854 0
M  V30 5801 N 548.375 1.56261 0.205012 0
M  V30 5802 C 549.323 1.94631 1.27364 0
M  V30 5803 C 550.317 0.830434 1.47649 0
M  V30 5804 O 551.523 1.01538 1.48627 0
M  V30 5805 H 547.898 0.618755 0.427371 0
M  V30 5806 H 549.869 2.83768 0.922941 0
M  V30 5807 C 548.618 2.29358 2.61324 0
M  V30 5808 H 547.941 3.14744 2.46528 0
M  V30 5809 H 549.381 2.60076 3.34868 0
M  V30 5810 C 547.84 1.12461 3.17575 0
M  V30 5811 O 548.37 0.394407 3.99759 0
M  V30 5812 N 546.576 0.904036 2.7618 0
M  V30 5813 H 546.123 1.49956 2.09454 0
M  V30 5814 H 546.081 0.123662 3.14157 0
M  V30 5815 N 549.853 -0.472356 1.50355 0
M  V30 5816 C 550.801 -1.59126 1.69651 0
M  V30 5817 C 551.795 -1.59793 0.56237 0
M  V30 5818 O 553.001 -1.63957 0.742832 0
M  V30 5819 H 549.376 -0.528008 0.535454 0
M  V30 5820 H 551.347 -1.40013 2.63513 0
M  V30 5821 C 550.096 -2.97075 1.8067 0
M  V30 5822 H 549.419 -2.9728 2.67329 0
M  V30 5823 H 550.859 -3.74825 1.98197 0
M  V30 5824 C 549.318 -3.32247 0.558016 0
M  V30 5825 O 549.848 -4.00553 -0.303399 0
M  V30 5826 N 548.054 -2.87659 0.412415 0
M  V30 5827 H 547.601 -2.32246 1.11443 0
M  V30 5828 H 547.559 -3.11556 -0.421908 0
M  V30 5829 N 551.331 -1.39911 -0.725443 0
M  V30 5830 C 552.579 -1.37382 -1.48224 0
M  V30 5831 C 552.9 0.0264107 -1.94982 0
M  V30 5832 O 552.17 0.979408 -1.6966 0
M  V30 5833 H 550.75 -0.505596 -0.549892 0
M  V30 5834 H 553.412 -1.7487 -0.860608 0
M  V30 5835 H 552.508 -2.04254 -2.3598 0
M  V30 5836 N 552.809 0.956637 -1.25245 0
M  V30 5837 C 553.757 2.0743 -1.0524 0
M  V30 5838 C 554.751 1.69392 0.0160725 0
M  V30 5839 O 555.957 1.7946 -0.139382 0
M  V30 5840 H 552.332 0.678921 -0.323373 0
M  V30 5841 H 554.303 2.2146 -1.99995 0
M  V30 5842 C 553.052 3.40872 -0.685702 0
M  V30 5843 H 552.375 3.70607 -1.49968 0
M  V30 5844 H 553.815 4.19939 -0.585415 0
M  V30 5845 C 552.274 3.31367 0.608082 0
M  V30 5846 O 552.804 3.66214 1.65076 0
M  V30 5847 N 551.01 2.84486 0.592955 0
M  V30 5848 H 550.557 2.56326 -0.25592 0
M  V30 5849 H 550.515 2.78509 1.45877 0
M  V30 5850 N 554.287 1.06798 1.15896 0
M  V30 5851 C 555.517 0.807522 1.90165 0
M  V30 5852 C 555.925 -0.642417 1.7796 0
M  V30 5853 O 555.268 -1.45193 1.12537 0
M  V30 5854 C 555.33 1.12939 3.41299 0
M  V30 5855 C 554.994 2.57879 3.7729 0
M  V30 5856 C 555.991 3.56118 3.78782 0
M  V30 5857 C 553.676 2.93311 4.07767 0
M  V30 5858 C 555.67 4.87827 4.10248 0
M  V30 5859 C 553.357 4.25219 4.38899 0
M  V30 5860 C 554.355 5.22287 4.4012 0
M  V30 5861 O 554.043 6.51826 4.70508 0
M  V30 5862 H 553.775 0.291946 0.609708 0
M  V30 5863 H 556.329 1.42627 1.47806 0
M  V30 5864 H 554.559 0.45359 3.84031 0
M  V30 5865 H 556.248 0.852363 3.9685 0
M  V30 5866 H 557.014 3.30086 3.55342 0
M  V30 5867 H 552.893 2.18409 4.05979 0
M  V30 5868 H 556.437 5.63586 4.11116 0
M  V30 5869 H 552.334 4.51006 4.61805 0
M  V30 5870 H 553.102 6.56893 4.88298 0
M  V30 5871 N 555.766 -1.3263 0.851289 0
M  V30 5872 C 556.994 -2.01563 0.466899 0
M  V30 5873 C 557.409 -1.63996 -0.935447 0
M  V30 5874 O 556.766 -0.85957 -1.6099 0
M  V30 5875 C 556.817 -3.56613 0.592433 0
M  V30 5876 O 556.538 -3.92828 1.93954 0
M  V30 5877 C 558.039 -4.42818 0.206612 0
M  V30 5878 H 555.259 -0.645307 0.183902 0
M  V30 5879 H 557.803 -1.69285 1.1473 0
M  V30 5880 H 555.958 -3.87379 -0.0401936 0
M  V30 5881 H 556.372 -4.87545 1.9339 0
M  V30 5882 H 557.846 -5.50918 0.345462 0
M  V30 5883 H 558.323 -4.30844 -0.85264 0
M  V30 5884 H 558.929 -4.17434 0.814176 0
M  V30 5885 N 557.244 -0.608902 -1.45362 0
M  V30 5886 C 558.174 0.0964526 -2.33301 0
M  V30 5887 C 559.155 0.857444 -1.46908 0
M  V30 5888 O 560.34 0.827735 -1.75676 0
M  V30 5889 C 557.47 1.09354 -3.29635 0
M  V30 5890 C 556.424 0.445676 -4.25673 0
M  V30 5891 C 555.75 1.5511 -5.11708 0
M  V30 5892 C 557.05 -0.633972 -5.18438 0
M  V30 5893 H 558.744 -0.637829 -2.92527 0
M  V30 5894 H 556.29 -0.308178 -1.40664 0
M  V30 5895 H 558.243 1.59556 -3.90025 0
M  V30 5896 H 556.967 1.85843 -2.6857 0
M  V30 5897 H 555.626 -0.0354897 -3.66583 0
M  V30 5898 H 555.274 2.30631 -4.4701 0
M  V30 5899 H 554.974 1.12311 -5.76767 0
M  V30 5900 H 556.498 2.05537 -5.74967 0
M  V30 5901 H 557.912 -0.215974 -5.72893 0
M  V30 5902 H 556.309 -0.983789 -5.91981 0
M  V30 5903 H 557.379 -1.51005 -4.60788 0
M  V30 5904 N 558.722 1.53707 -0.348139 0
M  V30 5905 C 559.971 2.0017 0.247992 0
M  V30 5906 C 560.284 1.23983 1.51286 0
M  V30 5907 O 561.49 1.60946 2.18652 0
M  V30 5908 C 559.946 3.56515 0.492459 0
M  V30 5909 C 559.554 4.41562 -0.756777 0
M  V30 5910 C 561.298 4.11381 1.0472 0
M  V30 5911 C 559.205 5.89426 -0.482856 0
M  V30 5912 H 558.135 0.747806 0.0964452 0
M  V30 5913 H 560.786 1.77532 -0.464179 0
M  V30 5914 H 559.168 3.75236 1.26545 0
M  V30 5915 H 560.342 4.34615 -1.53122 0
M  V30 5916 H 558.657 3.97711 -1.23348 0
M  V30 5917 H 561.254 5.19468 1.26717 0
M  V30 5918 H 561.597 3.64885 2.00411 0
M  V30 5919 H 562.13 3.96389 0.334801 0
M  V30 5920 H 558.869 6.40164 -1.40962 0
M  V30 5921 H 558.389 5.99264 0.253416 0
M  V30 5922 H 560.068 6.4692 -0.101816 0
M  V30 5923 N 560.2 0.0768682 1.57412 0
M  V30 5924 C 561.163 -0.873949 2.11884 0
M  V30 5925 C 562.163 -1.22301 1.04398 0
M  V30 5926 O 563.353 -1.15545 1.30365 0
M  V30 5927 C 560.485 -2.17575 2.62438 0
M  V30 5928 H 561.678 -0.401278 2.97203 0
M  V30 5929 H 559.231 -0.171904 1.55352 0
M  V30 5930 H 559.966 -2.69368 1.80587 0
M  V30 5931 H 559.751 -1.93534 3.41009 0
M  V30 5932 H 561.241 -2.85631 3.04639 0
M  V30 5933 N 561.678 -1.56367 -0.196722 0
M  V30 5934 C 562.625 -1.94417 -1.24382 0
M  V30 5935 C 563.595 -0.804543 -1.45315 0
M  V30 5936 O 564.78 -1.06256 -1.58475 0
M  V30 5937 C 561.92 -2.28757 -2.58388 0
M  V30 5938 C 561.033 -3.55775 -2.45047 0
M  V30 5939 C 560.168 -3.79445 -3.71746 0
M  V30 5940 C 559.207 -4.99894 -3.53231 0
M  V30 5941 N 558.344 -5.19826 -4.71938 0
M  V30 5942 H 563.184 -2.83691 -0.912338 0
M  V30 5943 H 560.721 -1.40392 -0.439135 0
M  V30 5944 H 562.679 -2.46682 -3.36457 0
M  V30 5945 H 561.309 -1.42625 -2.89582 0
M  V30 5946 H 560.361 -3.45905 -1.58284 0
M  V30 5947 H 561.673 -4.44 -2.27299 0
M  V30 5948 H 560.827 -3.97601 -4.58256 0
M  V30 5949 H 559.566 -2.89546 -3.92446 0
M  V30 5950 H 558.571 -4.81662 -2.65107 0
M  V30 5951 H 559.796 -5.913 -3.33978 0
M  V30 5952 H 557.742 -4.32875 -4.92905 0
M  V30 5953 H 557.659 -6.02228 -4.57009 0
M  V30 5954 H 558.927 -5.42439 -5.59803 0
M  V30 5955 N 563.156 0.464375 -1.50603 0
M  V30 5956 C 564.104 1.58224 -1.70493 0
M  V30 5957 C 565.098 1.59492 -0.570836 0
M  V30 5958 O 566.304 1.63561 -0.751517 0
M  V30 5959 H 562.679 0.525161 -0.538247 0
M  V30 5960 H 564.65 1.38613 -2.64252 0
M  V30 5961 C 563.399 2.96113 -1.82243 0
M  V30 5962 H 562.722 2.95858 -2.68901 0
M  V30 5963 H 564.162 3.73769 -2.00182 0
M  V30 5964 C 562.621 3.31946 -0.575628 0
M  V30 5965 O 563.151 4.00708 0.282152 0
M  V30 5966 N 561.357 2.87436 -0.427665 0
M  V30 5967 H 560.904 2.31652 -1.12674 0
M  V30 5968 H 560.862 3.11776 0.405379 0
M  V30 5969 N 564.634 1.40294 0.718013 0
M  V30 5970 C 566.045 1.34289 1.29705 0
M  V30 5971 C 566.396 0.0152228 1.96194 0
M  V30 5972 O 565.521 -0.88682 1.97394 0
M  V30 5973 C 566.116 2.43219 2.3586 0
M  V30 5974 C 564.675 2.40682 2.89394 0
M  V30 5975 C 563.822 2.24223 1.63154 0
M  V30 5976 H 566.773 1.50135 0.514312 0
M  V30 5977 H 566.794 2.10986 3.16647 0
M  V30 5978 H 566.306 3.39836 1.87439 0
M  V30 5979 H 564.407 1.47756 3.42051 0
M  V30 5980 H 564.52 3.36177 3.41353 0
M  V30 5981 H 562.884 1.71696 1.88129 0
M  V30 5982 H 563.667 3.22834 1.16761 0
M  V30 5983 N 566.112 -0.949982 1.2575 0
M  V30 5984 C 567.042 -2.06483 1.09028 0
M  V30 5985 C 568.023 -1.701 -0.00201532 0
M  V30 5986 O 569.208 -1.93469 0.168383 0
M  V30 5987 C 566.338 -3.39899 0.71316 0
M  V30 5988 C 565.292 -3.90309 1.75621 0
M  V30 5989 C 564.618 -5.20274 1.23365 0
M  V30 5990 C 565.918 -4.16169 3.15596 0
M  V30 5991 H 567.612 -2.20731 2.02283 0
M  V30 5992 H 565.158 -1.06066 0.973964 0
M  V30 5993 H 567.111 -4.17346 0.58309 0
M  V30 5994 H 565.835 -3.25602 -0.255091 0
M  V30 5995 H 564.494 -3.15035 1.8748 0
M  V30 5996 H 564.142 -5.02351 0.255491 0
M  V30 5997 H 563.842 -5.54971 1.93082 0
M  V30 5998 H 565.366 -6.00314 1.11607 0
M  V30 5999 H 566.78 -4.84259 3.06864 0
M  V30 6000 H 565.177 -4.62131 3.82825 0
M  V30 6001 H 566.247 -3.22273 3.6231 0
M  V30 6002 N 567.59 -1.07411 -1.15328 0
M  V30 6003 C 568.838 -0.796073 -1.85761 0
M  V30 6004 C 569.159 0.679864 -1.82764 0
M  V30 6005 O 568.429 1.49242 -1.269 0
M  V30 6006 H 567.009 -0.291495 -0.687779 0
M  V30 6007 H 569.671 -1.35799 -1.39802 0
M  V30 6008 H 568.767 -1.13114 -2.90881 0
M  V30 6009 N 569.068 1.32177 -0.85831 0
M  V30 6010 C 570.296 2.01313 -0.477582 0
M  V30 6011 C 570.711 1.6449 0.926736 0
M  V30 6012 O 570.068 0.868096 1.60531 0
M  V30 6013 C 570.119 3.56293 -0.611337 0
M  V30 6014 O 569.84 3.91794 -1.96034 0
M  V30 6015 C 571.341 4.42702 -0.230093 0
M  V30 6016 H 568.561 0.644323 -0.187322 0
M  V30 6017 H 571.105 1.68674 -1.15626 0
M  V30 6018 H 569.26 3.87395 0.0196494 0
M  V30 6019 H 569.674 4.86513 -1.95973 0
M  V30 6020 H 571.148 5.50727 -0.374674 0
M  V30 6021 H 571.625 4.3129 0.829779 0
M  V30 6022 H 572.231 4.16997 -0.836302 0
M  V30 6023 N 570.547 0.616602 1.45037 0
M  V30 6024 C 571.51 -0.0871112 2.29034 0
M  V30 6025 C 572.51 -0.786414 1.40258 0
M  V30 6026 O 573.7 -0.633207 1.62284 0
M  V30 6027 C 570.832 -1.13369 3.21497 0
M  V30 6028 H 572.025 0.651497 2.92738 0
M  V30 6029 H 569.578 0.376058 1.51709 0
M  V30 6030 H 570.313 -1.90277 2.62612 0
M  V30 6031 H 570.098 -0.636358 3.86902 0
M  V30 6032 H 571.588 -1.62627 3.84633 0
M  V30 6033 N 572.025 -1.5352 0.356285 0
M  V30 6034 C 572.973 -2.26945 -0.50978 0
M  V30 6035 C 573.967 -1.29569 -1.09125 0
M  V30 6036 O 575.173 -1.47231 -1.03552 0
M  V30 6037 H 571.548 -0.729368 -0.183102 0
M  V30 6038 H 573.519 -2.98111 0.131374 0
M  V30 6039 C 572.268 -3.06466 -1.64237 0
M  V30 6040 H 571.591 -3.81233 -1.20423 0
M  V30 6041 H 573.031 -3.61035 -2.22327 0
M  V30 6042 C 571.49 -2.16737 -2.57928 0
M  V30 6043 O 572.02 -1.77195 -3.60507 0
M  V30 6044 N 570.226 -1.81558 -2.26903 0
M  V30 6045 H 569.773 -2.13913 -1.43524 0
M  V30 6046 H 569.731 -1.21806 -2.89846 0
M  V30 6047 N 573.503 -0.0852151 -1.57369 0
M  V30 6048 C 574.435 0.907099 -2.10486 0
M  V30 6049 C 575.448 1.25259 -1.03991 0
M  V30 6050 O 576.637 1.20743 -1.31467 0
M  V30 6051 C 573.737 2.21908 -2.56145 0
M  V30 6052 C 572.91 2.05042 -3.86363 0
M  V30 6053 C 571.969 3.19664 -4.17973 0
M  V30 6054 O 570.995 2.94062 -4.87356 0
M  V30 6055 N 572.197 4.45151 -3.72587 0
M  V30 6056 H 574.962 0.453505 -2.96249 0
M  V30 6057 H 572.523 0.100157 -1.6159 0
M  V30 6058 H 574.515 2.97519 -2.74343 0
M  V30 6059 H 573.085 2.58723 -1.75446 0
M  V30 6060 H 572.305 1.13819 -3.77411 0
M  V30 6061 H 573.593 1.91039 -4.71574 0
M  V30 6062 H 572.991 4.68834 -3.16561 0
M  V30 6063 H 571.548 5.17744 -3.9596 0
M  V30 6064 N 574.981 1.5647 0.188427 0
M  V30 6065 C 576.209 1.85131 0.923803 0
M  V30 6066 C 576.624 0.668537 1.76567 0
M  V30 6067 O 575.981 -0.362662 1.7886 0
M  V30 6068 C 576.032 3.12661 1.81453 0
M  V30 6069 O 575.753 4.26378 1.00665 0
M  V30 6070 C 577.254 3.54548 2.66103 0
M  V30 6071 H 574.474 0.614624 0.269218 0
M  V30 6072 H 577.018 2.03581 0.193671 0
M  V30 6073 H 575.173 2.96088 2.49821 0
M  V30 6074 H 575.587 4.99041 1.61425 0
M  V30 6075 H 577.061 4.4673 3.24247 0
M  V30 6076 H 577.538 2.77853 3.40139 0
M  V30 6077 H 578.144 3.73674 2.03096 0
M  V30 6078 N 576.459 -0.456382 1.50847 0
M  V30 6079 C 577.708 -1.2042 1.61808 0
M  V30 6080 C 578.021 -1.9278 0.330932 0
M  V30 6081 O 579.227 -2.69612 0.319643 0
M  V30 6082 C 577.683 -2.18891 2.85683 0
M  V30 6083 C 577.291 -1.52267 4.2133 0
M  V30 6084 C 579.035 -2.94224 3.05994 0
M  V30 6085 C 576.942 -2.4911 5.36375 0
M  V30 6086 H 575.872 -0.453177 0.602616 0
M  V30 6087 H 578.523 -0.473144 1.77295 0
M  V30 6088 H 576.905 -2.95351 2.63787 0
M  V30 6089 H 578.079 -0.814949 4.53536 0
M  V30 6090 H 576.394 -0.891594 4.06743 0
M  V30 6091 H 578.991 -3.66732 3.89117 0
M  V30 6092 H 579.334 -3.54469 2.18306 0
M  V30 6093 H 579.867 -2.24874 3.28141 0
M  V30 6094 H 576.606 -1.93582 6.26264 0
M  V30 6095 H 576.126 -3.17991 5.08569 0
M  V30 6096 H 577.805 -3.10637 5.67551 0
M  V30 6097 N 577.937 -1.40673 -0.710563 0
M  V30 6098 C 578.885 -1.41517 -1.84596 0
M  V30 6099 C 579.879 -0.295043 -1.66811 0
M  V30 6100 O 581.085 -0.466331 -1.73854 0
M  V30 6101 H 577.46 -0.442467 -0.608052 0
M  V30 6102 H 579.431 -2.37238 -1.80999 0
M  V30 6103 C 578.18 -1.29957 -3.225 0
M  V30 6104 H 577.503 -2.15429 -3.36794 0
M  V30 6105 H 578.943 -1.34608 -4.02066 0
M  V30 6106 C 577.402 -0.0103164 -3.36898 0
M  V30 6107 O 577.932 0.950707 -3.90288 0
M  V30 6108 N 576.138 0.0608409 -2.90536 0
M  V30 6109 H 575.685 -0.721943 -2.47277 0
M  V30 6110 H 575.643 0.92292 -3.00549 0
M  V30 6111 N 579.415 0.9433 -1.26252 0
M  V30 6112 C 580.663 1.68592 -1.11451 0
M  V30 6113 C 580.984 1.91957 0.343123 0
M  V30 6114 O 580.254 1.51475 1.24226 0
M  V30 6115 H 578.834 0.624789 -0.409448 0
M  V30 6116 H 581.496 1.13351 -1.58548 0
M  V30 6117 H 580.592 2.66054 -1.63162 0
M  V30 6118 N 580.893 1.08022 1.14757 0
M  V30 6119 C 581.843 0.676345 2.17737 0
M  V30 6120 C 582.827 -0.302018 1.5804 0
M  V30 6121 O 584.019 -0.11466 1.76628 0
M  V30 6122 C 581.148 0.082984 3.432 0
M  V30 6123 C 580.234 1.0869 4.09936 0
M  V30 6124 N 580.625 2.26891 4.52055 0
M  V30 6125 C 578.923 0.921768 4.36371 0
M  V30 6126 C 579.624 2.90636 5.0389 0
M  V30 6127 N 578.6 2.18266 4.97856 0
M  V30 6128 H 582.402 1.5765 2.4804 0
M  V30 6129 H 579.916 0.954374 1.31398 0
M  V30 6130 H 581.913 -0.224289 4.16296 0
M  V30 6131 H 580.573 -0.812206 3.14378 0
M  V30 6132 H 581.584 2.6457 4.45223 0
M  V30 6133 H 578.261 0.0800499 4.17423 0
M  V30 6134 H 579.651 3.9104 5.46386 0
M  V30 6135 N 582.371 -1.3172 0.865308 0
M  V30 6136 C 583.618 -1.96876 0.473931 0
M  V30 6137 C 583.946 -1.68425 -0.972786 0
M  V30 6138 O 583.201 -0.970742 -1.69927 0
M  V30 6139 C 583.5 -3.5102 0.672283 0
M  V30 6140 C 583.166 -3.9948 2.09108 0
M  V30 6141 C 581.828 -4.12425 2.4791 0
M  V30 6142 C 584.18 -4.2503 3.0166 0
M  V30 6143 C 581.508 -4.48267 3.78515 0
M  V30 6144 C 583.86 -4.62335 4.31774 0
M  V30 6145 C 582.524 -4.73486 4.70497 0
M  V30 6146 H 581.794 -0.72042 0.173424 0
M  V30 6147 H 584.441 -1.56937 1.0974 0
M  V30 6148 H 582.746 -3.91785 -0.034356 0
M  V30 6149 H 584.443 -3.99475 0.349353 0
M  V30 6150 H 581.033 -3.89898 1.77981 0
M  V30 6151 H 585.217 -4.14529 2.7291 0
M  V30 6152 H 580.473 -4.55097 4.08285 0
M  V30 6153 H 584.647 -4.81058 5.03543 0
M  V30 6154 H 582.274 -5.01016 5.71741 0
M  V30 6155 N 583.85 -0.624285 -1.44708 0
M  V30 6156 C 584.779 0.0717025 -2.3339 0
M  V30 6157 C 585.76 0.841814 -1.47809 0
M  V30 6158 O 586.946 0.809056 -1.76544 0
M  V30 6159 C 584.076 1.05852 -3.30776 0
M  V30 6160 C 583.029 0.400503 -4.26122 0
M  V30 6161 C 582.356 1.49674 -5.13324 0
M  V30 6162 C 583.656 -0.688924 -5.17737 0
M  V30 6163 H 585.35 -0.668819 -2.91834 0
M  V30 6164 H 582.896 -0.32308 -1.40329 0
M  V30 6165 H 584.849 1.5541 -3.91696 0
M  V30 6166 H 583.572 1.82984 -2.70526 0
M  V30 6167 H 582.231 -0.0743687 -3.66525 0
M  V30 6168 H 581.88 2.25877 -4.49431 0
M  V30 6169 H 581.58 1.06188 -5.77926 0
M  V30 6170 H 583.104 1.99427 -5.77115 0
M  V30 6171 H 584.518 -0.276724 -5.72632 0
M  V30 6172 H 582.915 -1.04652 -5.90904 0
M  V30 6173 H 583.985 -1.55884 -4.5916 0
M  V30 6174 N 585.328 1.53329 -0.364422 0
M  V30 6175 C 586.275 2.25698 0.482607 0
M  V30 6176 C 587.245 1.26325 1.07848 0
M  V30 6177 O 588.43 1.55104 1.11119 0
M  V30 6178 C 585.57 3.04873 1.61699 0
M  V30 6179 C 584.683 4.19135 1.0464 0
M  V30 6180 C 583.818 4.85754 2.14979 0
M  V30 6181 C 582.857 5.9205 1.5538 0
M  V30 6182 N 581.994 6.52365 2.59547 0
M  V30 6183 H 586.834 2.97666 -0.141032 0
M  V30 6184 H 584.371 1.46875 -0.0813692 0
M  V30 6185 H 586.329 3.49051 2.28516 0
M  V30 6186 H 584.959 2.35162 2.2113 0
M  V30 6187 H 584.011 3.79451 0.268553 0
M  V30 6188 H 585.323 4.95525 0.570653 0
M  V30 6189 H 584.477 5.3311 2.89619 0
M  V30 6190 H 583.216 4.08834 2.65906 0
M  V30 6191 H 582.221 5.44058 0.792549 0
M  V30 6192 H 583.446 6.7089 1.0528 0
M  V30 6193 H 581.392 5.78298 3.09689 0
M  V30 6194 H 581.309 7.2429 2.16655 0
M  V30 6195 H 582.577 7.0437 3.33892 0
M  V30 6196 N 586.806 0.0935595 1.57322 0
M  V30 6197 C 587.716 -0.880192 2.17462 0
M  V30 6198 C 588.732 -1.31135 1.14366 0
M  V30 6199 O 589.908 -1.37958 1.46729 0
M  V30 6200 C 586.973 -2.12184 2.74188 0
M  V30 6201 C 586.034 -1.74503 3.92234 0
M  V30 6202 C 585.267 -2.92748 4.46245 0
M  V30 6203 O 585.49 -4.07427 3.99198 0
M  V30 6204 O 584.424 -2.71303 5.37288 0
M  V30 6205 H 588.25 -0.398516 3.01074 0
M  V30 6206 H 585.835 -0.130707 1.48827 0
M  V30 6207 H 587.717 -2.84953 3.10451 0
M  V30 6208 H 586.392 -2.59407 1.93623 0
M  V30 6209 H 585.299 -0.989186 3.60785 0
M  V30 6210 H 586.632 -1.32044 4.74157 0
M  V30 6211 N 588.284 -1.56567 -0.180126 0
M  V30 6212 C 589.695 -1.7126 -0.743422 0
M  V30 6213 C 590.046 -0.70263 -1.83187 0
M  V30 6214 O 589.171 0.137856 -2.1596 0
M  V30 6215 C 589.766 -3.10512 -1.35528 0
M  V30 6216 C 588.325 -3.26919 -1.8655 0
M  V30 6217 C 587.472 -2.67213 -0.741099 0
M  V30 6218 H 590.423 -1.58636 0.0451543 0
M  V30 6219 H 590.444 -3.08673 -2.22489 0
M  V30 6220 H 589.956 -3.83997 -0.562862 0
M  V30 6221 H 588.057 -2.58376 -2.68464 0
M  V30 6222 H 588.17 -4.34574 -2.01699 0
M  V30 6223 H 586.534 -2.26788 -1.15927 0
M  V30 6224 H 587.317 -3.43277 0.0393291 0
M  V30 6225 N 589.762 0.448376 -1.51087 0
M  V30 6226 C 591.009 1.19872 -1.63209 0
M  V30 6227 C 591.337 1.91451 -0.343062 0
M  V30 6228 O 590.592 1.83789 0.672321 0
M  V30 6229 C 590.891 2.24866 -2.77795 0
M  V30 6230 C 590.557 1.70378 -4.17471 0
M  V30 6231 C 589.219 1.55241 -4.55471 0
M  V30 6232 C 591.571 1.30203 -5.04675 0
M  V30 6233 C 588.899 0.983844 -5.78392 0
M  V30 6234 C 591.251 0.747798 -6.28165 0
M  V30 6235 C 589.915 0.583233 -6.64947 0
M  V30 6236 H 589.185 0.438642 -0.597222 0
M  V30 6237 H 591.832 0.49136 -1.85089 0
M  V30 6238 H 590.137 3.01598 -2.50092 0
M  V30 6239 H 591.834 2.82723 -2.84374 0
M  V30 6240 H 588.424 1.83134 -3.87505 0
M  V30 6241 H 592.608 1.40723 -4.75932 0
M  V30 6242 H 587.864 0.844007 -6.05546 0
M  V30 6243 H 592.038 0.427927 -6.95084 0
M  V30 6244 H 589.665 0.140532 -7.6007 0
M  V30 6245 N 591.24 1.41047 0.703093 0
M  V30 6246 C 592.651 1.35657 1.28274 0
M  V30 6247 C 593.002 0.0360309 1.96167 0
M  V30 6248 O 592.127 -0.865833 1.98324 0
M  V30 6249 C 592.722 2.45707 2.33267 0
M  V30 6250 C 591.281 2.43738 2.86825 0
M  V30 6251 C 590.428 2.25941 1.60767 0
M  V30 6252 H 593.379 1.50672 0.49836 0
M  V30 6253 H 593.4 2.14333 3.14391 0
M  V30 6254 H 592.912 3.41805 1.83824 0
M  V30 6255 H 591.013 1.51375 3.40465 0
M  V30 6256 H 591.126 3.39779 3.37768 0
M  V30 6257 H 589.49 1.73681 1.86298 0
M  V30 6258 H 590.273 3.24054 1.1333 0
M  V30 6259 N 592.718 -0.936591 1.26751 0
M  V30 6260 C 593.628 -2.06949 1.10496 0
M  V30 6261 C 594.644 -1.7396 0.037271 0
M  V30 6262 O 595.82 -1.99941 0.241944 0
M  V30 6263 C 592.885 -3.38612 0.744491 0
M  V30 6264 C 591.946 -3.85355 1.89209 0
M  V30 6265 C 591.179 -5.10735 1.54873 0
M  V30 6266 O 591.402 -5.68602 0.452546 0
M  V30 6267 O 590.336 -5.52632 2.38499 0
M  V30 6268 H 594.162 -2.23571 2.05547 0
M  V30 6269 H 591.747 -1.05428 1.05855 0
M  V30 6270 H 593.629 -4.17711 0.556396 0
M  V30 6271 H 592.304 -3.23218 -0.176582 0
M  V30 6272 H 591.211 -3.07182 2.13518 0
M  V30 6273 H 592.544 -4.05277 2.79305 0
M  V30 6274 N 594.196 -1.08629 -1.14182 0
M  V30 6275 C 595.421 -0.83902 -1.89671 0
M  V30 6276 C 595.846 0.603332 -1.78161 0
M  V30 6277 O 595.204 1.42301 -1.12339 0
M  V30 6278 C 595.252 -1.26854 -3.37551 0
M  V30 6279 O 594.356 -0.42188 -4.10236 0
M  V30 6280 H 593.697 -0.304545 -0.590041 0
M  V30 6281 H 596.227 -1.4483 -1.44518 0
M  V30 6282 H 596.237 -1.25038 -3.88368 0
M  V30 6283 H 594.912 -2.31901 -3.45246 0
M  V30 6284 H 593.489 -0.503654 -3.69483 0
M  V30 6285 N 595.674 1.31259 -0.872281 0
M  V30 6286 C 596.902 2.00795 -0.498907 0
M  V30 6287 C 597.317 1.65464 0.909238 0
M  V30 6288 O 596.674 0.885073 1.59602 0
M  V30 6289 C 596.725 3.55625 -0.649092 0
M  V30 6290 O 596.446 3.89692 -2.00179 0
M  V30 6291 C 597.947 4.42434 -0.277034 0
M  V30 6292 H 595.167 0.642299 -0.194145 0
M  V30 6293 H 597.711 1.67438 -1.17408 0
M  V30 6294 H 595.866 3.87394 -0.0214402 0
M  V30 6295 H 596.28 4.84407 -2.01122 0
M  V30 6296 H 597.754 5.50299 -0.433064 0
M  V30 6297 H 598.231 4.32146 0.783989 0
M  V30 6298 H 598.837 4.16086 -0.880483 0
M  V30 6299 N 597.152 0.631951 1.44375 0
M  V30 6300 C 598.429 0.067646 1.95483 0
M  V30 6301 C 598.809 -1.40683 1.57389 0
M  V30 6302 O 598.157 -2.12167 0.848375 0
M  V30 6303 C 598.367 0.291392 3.47781 0
M  V30 6304 C 599.715 0.185028 4.24197 0
M  V30 6305 O 600.739 0.222803 3.55503 0
M  V30 6306 O 599.598 0.0906642 5.46425 0
M  V30 6307 H 596.692 -0.0218379 0.826712 0
M  V30 6308 H 599.238 0.703711 1.54421 0
M  V30 6309 H 598.01 1.31449 3.68561 0
M  V30 6310 H 597.633 -0.378772 3.95792 0
M  V30 6311 N 598.631 -1.53133 0.372548 0
M  V30 6312 C 599.579 -2.27473 -0.485681 0
M  V30 6313 C 600.573 -1.30719 -1.07745 0
M  V30 6314 O 601.779 -1.48321 -1.01985 0
M  V30 6315 H 598.154 -0.731269 -0.175356 0
M  V30 6316 H 600.125 -2.97955 0.162986 0
M  V30 6317 C 598.874 -3.08191 -1.60978 0
M  V30 6318 H 598.197 -3.82488 -1.16373 0
M  V30 6319 H 599.637 -3.63373 -2.18485 0
M  V30 6320 C 598.096 -2.19461 -2.55614 0
M  V30 6321 O 598.626 -1.81008 -3.58607 0
M  V30 6322 N 596.832 -1.83955 -2.24965 0
M  V30 6323 H 596.379 -2.15423 -1.41247 0
M  V30 6324 H 596.337 -1.24874 -2.88538 0
M  V30 6325 N 600.109 -0.101901 -1.5727 0
M  V30 6326 C 601.356 0.560197 -1.94597 0
M  V30 6327 C 601.684 1.67767 -0.984101 0
M  V30 6328 O 600.939 1.95699 -0.00489193 0
M  V30 6329 C 601.238 1.14898 -3.38427 0
M  V30 6330 C 600.904 0.154613 -4.50635 0
M  V30 6331 C 599.566 -0.118861 -4.81053 0
M  V30 6332 C 601.918 -0.523979 -5.18559 0
M  V30 6333 C 599.246 -1.0775 -5.76721 0
M  V30 6334 C 601.598 -1.47114 -6.15256 0
M  V30 6335 C 600.262 -1.75278 -6.44076 0
M  V30 6336 H 599.532 0.204991 -0.712081 0
M  V30 6337 H 602.179 -0.17918 -1.9066 0
M  V30 6338 H 600.484 1.96476 -3.38976 0
M  V30 6339 H 602.181 1.66909 -3.64613 0
M  V30 6340 H 598.771 0.377948 -4.2693 0
M  V30 6341 H 602.955 -0.325851 -4.95229 0
M  V30 6342 H 598.211 -1.30263 -5.97362 0
M  V30 6343 H 602.385 -2.00274 -6.66981 0
M  V30 6344 H 600.012 -2.49717 -7.18015 0
M  V30 6345 N 601.587 1.56661 0.17182 0
M  V30 6346 C 602.836 1.81158 0.886831 0
M  V30 6347 C 603.149 0.679072 1.83434 0
M  V30 6348 O 604.355 0.808964 2.59168 0
M  V30 6349 C 602.811 3.20999 1.6275 0
M  V30 6350 C 602.419 4.42117 0.723652 0
M  V30 6351 C 604.163 3.5479 2.33076 0
M  V30 6352 C 602.07 5.7298 1.46452 0
M  V30 6353 H 601 0.675543 0.334899 0
M  V30 6354 H 603.651 1.82967 0.139765 0
M  V30 6355 H 602.033 3.13506 2.4193 0
M  V30 6356 H 603.207 4.60789 -0.0311485 0
M  V30 6357 H 601.522 4.16197 0.130063 0
M  V30 6358 H 604.119 4.49806 2.89099 0
M  V30 6359 H 604.462 2.79646 3.08389 0
M  V30 6360 H 604.995 3.63834 1.6084 0
M  V30 6361 H 601.734 6.51152 0.753729 0
M  V30 6362 H 601.254 5.58285 2.19266 0
M  V30 6363 H 602.933 6.14916 2.01214 0
M  V30 6364 N 603.065 -0.440357 1.51323 0
M  V30 6365 C 603.995 -1.54174 1.75364 0
M  V30 6366 C 604.976 -1.59039 0.603375 0
M  V30 6367 O 606.161 -1.74815 0.845774 0
M  V30 6368 C 603.291 -2.92277 1.87593 0
M  V30 6369 C 602.245 -3.02274 3.03009 0
M  V30 6370 C 601.571 -4.42327 3.00418 0
M  V30 6371 C 602.871 -2.76634 4.43024 0
M  V30 6372 H 604.565 -1.34307 2.67585 0
M  V30 6373 H 602.111 -0.644678 1.28763 0
M  V30 6374 H 604.064 -3.69284 2.02995 0
M  V30 6375 H 602.788 -3.13369 0.920179 0
M  V30 6376 H 601.447 -2.27706 2.87307 0
M  V30 6377 H 601.095 -4.60382 2.02626 0
M  V30 6378 H 600.795 -4.49946 3.77918 0
M  V30 6379 H 602.319 -5.21312 3.17909 0
M  V30 6380 H 603.733 -3.43376 4.59093 0
M  V30 6381 H 602.13 -2.95666 5.22208 0
M  V30 6382 H 603.2 -1.72262 4.5327 0
M  V30 6383 N 604.543 -1.41418 -0.695603 0
M  V30 6384 C 605.79 -1.40774 -1.45564 0
M  V30 6385 C 606.118 -0.0168604 -1.94493 0
M  V30 6386 O 605.373 0.971259 -1.69897 0
M  V30 6387 C 605.672 -2.36112 -2.68302 0
M  V30 6388 C 605.338 -3.82952 -2.38031 0
M  V30 6389 C 604 -4.22954 -2.29486 0
M  V30 6390 C 606.352 -4.75662 -2.13061 0
M  V30 6391 C 603.68 -5.53674 -1.94067 0
M  V30 6392 C 606.032 -6.06702 -1.79151 0
M  V30 6393 C 604.696 -6.45725 -1.69102 0
M  V30 6394 H 603.966 -0.515128 -0.532658 0
M  V30 6395 H 606.613 -1.74216 -0.795047 0
M  V30 6396 H 604.918 -1.95924 -3.39295 0
M  V30 6397 H 606.615 -2.32887 -3.26442 0
M  V30 6398 H 603.205 -3.5127 -2.45576 0
M  V30 6399 H 607.389 -4.45561 -2.18608 0
M  V30 6400 H 602.645 -5.8279 -1.8484 0
M  V30 6401 H 606.819 -6.78041 -1.5885 0
M  V30 6402 H 604.446 -7.46929 -1.41426 0
M  V30 6403 N 606.021 0.929856 -1.27246 0
M  V30 6404 C 607.298 1.65544 -1.04186 0
M  V30 6405 C 607.678 2.06796 0.424097 0
M  V30 6406 O 607.026 1.80053 1.40688 0
M  V30 6407 C 607.236 2.85912 -2.00138 0
M  V30 6408 C 608.584 3.57305 -2.29387 0
M  V30 6409 O 609.608 2.96036 -1.98094 0
M  V30 6410 O 608.467 4.67688 -2.82719 0
M  V30 6411 H 605.561 0.725473 -0.397011 0
M  V30 6412 H 608.107 0.980583 -1.38501 0
M  V30 6413 H 606.879 2.52403 -2.99013 0
M  V30 6414 H 606.502 3.61118 -1.66371 0
M  V30 6415 N 607.499 1.09233 1.13605 0
M  V30 6416 C 608.409 0.741939 2.22559 0
M  V30 6417 C 609.425 -0.255236 1.72118 0
M  V30 6418 O 610.601 -0.0970747 2.01166 0
M  V30 6419 C 607.666 0.165595 3.46304 0
M  V30 6420 C 606.727 1.21846 4.11645 0
M  V30 6421 C 605.96 0.669526 5.29484 0
M  V30 6422 O 606.183 -0.508228 5.68131 0
M  V30 6423 O 605.117 1.42361 5.84822 0
M  V30 6424 H 608.943 1.65107 2.54899 0
M  V30 6425 H 606.528 0.866584 1.21699 0
M  V30 6426 H 608.41 -0.152592 4.21124 0
M  V30 6427 H 607.085 -0.716573 3.15669 0
M  V30 6428 H 605.992 1.58931 3.38662 0
M  V30 6429 H 607.325 2.07321 4.46407 0
M  V30 6430 N 608.977 -1.30795 0.87923 0
M  V30 6431 C 610.223 -1.96653 0.495519 0
M  V30 6432 C 610.556 -1.69282 -0.951703 0
M  V30 6433 O 609.831 -0.994374 -1.6716 0
M  V30 6434 C 610.114 -3.51898 0.764174 0
M  V30 6435 C 609.967 -3.88808 2.2616 0
M  V30 6436 C 611.286 -4.39462 0.236825 0
M  V30 6437 H 608.405 -0.7143 0.181507 0
M  V30 6438 H 611.047 -1.54765 1.10217 0
M  V30 6439 H 609.197 -3.87709 0.247841 0
M  V30 6440 H 610.869 -3.63051 2.8459 0
M  V30 6441 H 609.112 -3.37082 2.73053 0
M  V30 6442 H 609.783 -4.97086 2.4002 0
M  V30 6443 H 612.259 -4.10528 0.678683 0
M  V30 6444 H 611.135 -5.47018 0.454176 0
M  V30 6445 H 611.396 -4.33621 -0.861683 0
M  V30 6446 N 610.455 -0.639598 -1.44038 0
M  V30 6447 C 611.68 -0.153117 -2.06834 0
M  V30 6448 C 612.105 1.16676 -1.47541 0
M  V30 6449 O 611.463 1.71769 -0.580093 0
M  V30 6450 C 611.511 -0.0609169 -3.60549 0
M  V30 6451 O 610.615 0.98071 -4.00569 0
M  V30 6452 H 609.956 -0.0886402 -0.658057 0
M  V30 6453 H 612.486 -0.878674 -1.84771 0
M  V30 6454 H 612.496 0.126892 -4.07803 0
M  V30 6455 H 611.171 -1.0245 -4.03084 0
M  V30 6456 H 609.748 0.766789 -3.64931 0
M  V30 6457 N 611.933 1.52934 -0.380664 0
M  V30 6458 C 613.344 1.86457 0.0952684 0
M  V30 6459 C 613.695 1.3007 1.46889 0
M  V30 6460 O 612.82 0.628636 2.07068 0
M  V30 6461 C 613.415 3.38323 0.179648 0
M  V30 6462 C 611.974 3.71589 0.599858 0
M  V30 6463 C 611.121 2.76228 -0.243572 0
M  V30 6464 H 614.072 1.46966 -0.59888 0
M  V30 6465 H 614.093 3.67113 1.00042 0
M  V30 6466 H 613.605 3.79333 -0.820228 0
M  V30 6467 H 611.706 3.36144 1.60742 0
M  V30 6468 H 611.819 4.77715 0.364003 0
M  V30 6469 H 610.183 2.53045 0.289855 0
M  V30 6470 H 610.966 3.20074 -1.24127 0
M  V30 6471 N 613.412 0.11024 1.57214 0
M  V30 6472 C 614.64 -0.557834 1.99238 0
M  V30 6473 C 615.055 -1.60778 0.989734 0
M  V30 6474 O 614.412 -1.82491 -0.0186092 0
M  V30 6475 C 614.463 -1.19189 3.41286 0
M  V30 6476 O 614.184 -0.183919 4.37714 0
M  V30 6477 C 615.685 -1.94413 3.98395 0
M  V30 6478 H 612.905 -0.148392 0.654386 0
M  V30 6479 H 615.449 0.193996 2.03578 0
M  V30 6480 H 613.604 -1.89456 3.37913 0
M  V30 6481 H 614.018 -0.643475 5.20538 0
M  V30 6482 H 615.492 -2.34116 4.99894 0
M  V30 6483 H 615.969 -2.81592 3.3705 0
M  V30 6484 H 616.575 -1.28928 4.05287 0
M  V30 6485 N 614.89 -1.56749 -0.16351 0
M  V30 6486 C 616.301 -1.72039 -0.725216 0
M  V30 6487 C 616.652 -0.72202 -1.82432 0
M  V30 6488 O 615.777 0.114942 -2.16095 0
M  V30 6489 C 616.372 -3.11932 -1.32227 0
M  V30 6490 C 614.931 -3.28879 -1.83072 0
M  V30 6491 C 614.078 -2.67984 -0.712716 0
M  V30 6492 H 617.029 -1.58579 0.0619772 0
M  V30 6493 H 617.05 -3.11015 -2.19202 0
M  V30 6494 H 616.562 -3.84572 -0.522103 0
M  V30 6495 H 614.663 -2.61209 -2.65708 0
M  V30 6496 H 614.776 -4.36688 -1.97079 0
M  V30 6497 H 613.14 -2.28005 -1.13515 0
M  V30 6498 H 613.923 -3.43216 0.0757361 0
M  V30 6499 N 616.368 0.432326 -1.51554 0
M  V30 6500 C 617.779 1.01202 -1.56892 0
M  V30 6501 C 618.13 1.92175 -0.395394 0
M  V30 6502 O 617.255 2.10844 0.487198 0
M  V30 6503 C 617.85 1.84217 -2.8434 0
M  V30 6504 C 616.409 2.37228 -2.92233 0
M  V30 6505 C 615.556 1.16576 -2.51606 0
M  V30 6506 H 618.507 0.213407 -1.57259 0
M  V30 6507 H 618.528 2.69721 -2.68385 0
M  V30 6508 H 618.04 1.17979 -3.69733 0
M  V30 6509 H 616.141 3.06905 -2.11282 0
M  V30 6510 H 616.254 2.69682 -3.95991 0
M  V30 6511 H 614.618 1.51263 -2.04919 0
M  V30 6512 H 615.401 0.519404 -3.39348 0
M  V30 6513 N 617.846 1.41785 0.688094 0
M  V30 6514 C 619.095 1.4084 1.44385 0
M  V30 6515 C 619.408 0.0234166 1.95586 0
M  V30 6516 O 620.614 -0.108647 2.71283 0
M  V30 6517 C 619.07 2.47675 2.61123 0
M  V30 6518 C 618.678 3.92116 2.16677 0
M  V30 6519 C 620.422 2.55877 3.38714 0
M  V30 6520 C 618.329 4.90487 3.30419 0
M  V30 6521 H 617.259 0.523787 0.542368 0
M  V30 6522 H 619.91 1.6764 0.74627 0
M  V30 6523 H 618.292 2.14018 3.33185 0
M  V30 6524 H 619.466 4.35059 1.51856 0
M  V30 6525 H 617.781 3.87642 1.5206 0
M  V30 6526 H 620.378 3.26553 4.234 0
M  V30 6527 H 620.721 1.59801 3.84408 0
M  V30 6528 H 621.254 2.88662 2.73714 0
M  V30 6529 H 617.993 5.87994 2.89729 0
M  V30 6530 H 617.513 4.52187 3.94065 0
M  V30 6531 H 619.192 5.11591 3.96085 0
M  V30 6532 N 619.324 -0.923095 1.27737 0
M  V30 6533 C 620.552 -1.70525 1.17171 0
M  V30 6534 C 620.967 -1.86847 -0.270881 0
M  V30 6535 O 620.324 -1.38879 -1.18401 0
M  V30 6536 C 620.375 -3.10242 1.85559 0
M  V30 6537 O 620.096 -2.94683 3.24182 0
M  V30 6538 C 621.597 -4.04586 1.81176 0
M  V30 6539 H 618.817 -0.533347 0.407163 0
M  V30 6540 H 621.361 -1.15599 1.68692 0
M  V30 6541 H 619.516 -3.62014 1.3793 0
M  V30 6542 H 619.93 -3.83045 3.58297 0
M  V30 6543 H 621.404 -5.00119 2.33633 0
M  V30 6544 H 621.881 -4.3218 0.782099 0
M  V30 6545 H 622.487 -3.58741 2.2844 0
M  V30 6546 N 620.802 -1.09834 -1.13024 0
M  V30 6547 C 622.048 -0.83819 -1.84668 0
M  V30 6548 C 622.381 0.634645 -1.83537 0
M  V30 6549 O 621.656 1.46753 -1.27647 0
M  V30 6550 C 621.939 -1.37933 -3.32636 0
M  V30 6551 C 621.792 -2.91857 -3.42257 0
M  V30 6552 C 623.111 -1.01654 -4.28199 0
M  V30 6553 H 620.23 -0.30595 -0.670495 0
M  V30 6554 H 622.872 -1.36044 -1.32635 0
M  V30 6555 H 621.022 -0.935111 -3.77078 0
M  V30 6556 H 622.694 -3.44759 -3.06495 0
M  V30 6557 H 620.937 -3.28776 -2.83 0
M  V30 6558 H 621.608 -3.24799 -4.46329 0
M  V30 6559 H 624.084 -1.39973 -3.9185 0
M  V30 6560 H 622.96 -1.42217 -5.30156 0
M  V30 6561 H 623.221 0.0747794 -4.42037 0
M  V30 6562 N 622.28 1.30327 -0.886154 0
M  V30 6563 C 623.508 2.00254 -0.520176 0
M  V30 6564 C 623.923 1.66419 0.891637 0
M  V30 6565 O 623.28 0.901951 1.58654 0
M  V30 6566 C 623.331 3.54916 -0.686775 0
M  V30 6567 O 623.052 3.87547 -2.04301 0
M  V30 6568 C 624.553 4.42115 -0.323945 0
M  V30 6569 H 621.773 0.640204 -0.200947 0
M  V30 6570 H 624.317 1.66183 -1.19178 0
M  V30 6571 H 622.472 3.8735 -0.0625273 0
M  V30 6572 H 622.886 4.82247 -2.06249 0
M  V30 6573 H 624.36 5.49808 -0.491407 0
M  V30 6574 H 624.837 4.32953 0.73811 0
M  V30 6575 H 625.443 4.15129 -0.924565 0
M  V30 6576 N 623.758 0.647228 1.43697 0
M  V30 6577 C 624.708 -0.0702191 2.27892 0
M  V30 6578 C 625.692 -0.800601 1.39568 0
M  V30 6579 O 626.884 -0.684055 1.63247 0
M  V30 6580 C 624.013 -1.04008 3.27165 0
M  V30 6581 C 623.099 -0.308484 4.22977 0
M  V30 6582 N 623.49 0.671721 5.0132 0
M  V30 6583 C 621.788 -0.550751 4.42586 0
M  V30 6584 C 622.489 1.10543 5.711 0
M  V30 6585 N 621.465 0.440903 5.41809 0
M  V30 6586 H 625.267 0.682031 2.85877 0
M  V30 6587 H 622.781 0.474022 1.55328 0
M  V30 6588 H 624.778 -1.56881 3.86256 0
M  V30 6589 H 623.438 -1.79246 2.70742 0
M  V30 6590 H 624.449 1.0502 5.0714 0
M  V30 6591 H 621.126 -1.28476 3.97241 0
M  V30 6592 H 622.516 1.91614 6.43998 0
M  V30 6593 N 625.236 -1.5273 0.388769 0
M  V30 6594 C 626.183 -2.26437 -0.446639 0
M  V30 6595 C 627.153 -1.28025 -1.05824 0
M  V30 6596 O 628.338 -1.56852 -1.08637 0
M  V30 6597 C 625.478 -3.07407 -1.56828 0
M  V30 6598 C 624.591 -4.20747 -0.979589 0
M  V30 6599 C 623.726 -4.89113 -2.07224 0
M  V30 6600 C 622.765 -5.94447 -1.45942 0
M  V30 6601 N 621.902 -6.56411 -2.49135 0
M  V30 6602 H 626.742 -2.97404 0.18837 0
M  V30 6603 H 624.279 -1.46727 0.104725 0
M  V30 6604 H 626.237 -3.52642 -2.22934 0
M  V30 6605 H 624.867 -2.3865 -2.17361 0
M  V30 6606 H 623.919 -3.7983 -0.208151 0
M  V30 6607 H 625.231 -4.9637 -0.491747 0
M  V30 6608 H 624.385 -5.3765 -2.81101 0
M  V30 6609 H 623.124 -4.13013 -2.59368 0
M  V30 6610 H 622.129 -5.4525 -0.705894 0
M  V30 6611 H 623.354 -6.7248 -0.945932 0
M  V30 6612 H 621.3 -5.83152 -3.00449 0
M  V30 6613 H 621.217 -7.27645 -2.05105 0
M  V30 6614 H 622.485 -7.09592 -3.22644 0
M  V30 6615 N 626.714 -0.118576 -1.57153 0
M  V30 6616 C 628.125 0.40687 -1.82213 0
M  V30 6617 C 628.476 1.66636 -1.03571 0
M  V30 6618 O 627.601 2.14682 -0.272171 0
M  V30 6619 C 628.196 0.744949 -3.30509 0
M  V30 6620 C 626.755 1.21503 -3.5625 0
M  V30 6621 C 625.902 0.223511 -2.76398 0
M  V30 6622 H 628.853 -0.343712 -1.54933 0
M  V30 6623 H 628.874 1.6024 -3.45114 0
M  V30 6624 H 628.386 -0.171911 -3.87719 0
M  V30 6625 H 626.487 2.1488 -3.04396 0
M  V30 6626 H 626.6 1.16065 -4.64829 0
M  V30 6627 H 624.964 0.71046 -2.44591 0
M  V30 6628 H 625.747 -0.686439 -3.36367 0
M  V30 6629 N 628.193 1.56834 0.155195 0
M  V30 6630 C 629.103 2.009 1.21146 0
M  V30 6631 C 630.119 0.923029 1.475 0
M  V30 6632 O 631.295 1.23189 1.59331 0
M  V30 6633 C 628.36 2.37378 2.52691 0
M  V30 6634 C 627.421 3.59883 2.34057 0
M  V30 6635 C 626.654 3.94612 3.59329 0
M  V30 6636 O 626.877 3.30104 4.65175 0
M  V30 6637 O 625.811 4.87895 3.52479 0
M  V30 6638 H 629.637 2.9105 0.867371 0
M  V30 6639 H 627.222 1.44916 0.363298 0
M  V30 6640 H 629.104 2.61737 3.3026 0
M  V30 6641 H 627.779 1.50385 2.86646 0
M  V30 6642 H 626.686 3.40722 1.54465 0
M  V30 6643 H 628.019 4.47468 2.0502 0
M  V30 6644 N 629.671 -0.424282 1.51781 0
M  V30 6645 C 630.581 -1.54087 1.76902 0
M  V30 6646 C 631.597 -1.61249 0.653826 0
M  V30 6647 O 632.773 -1.78247 0.937552 0
M  V30 6648 C 629.838 -2.8996 1.90063 0
M  V30 6649 C 628.899 -2.92809 3.13945 0
M  V30 6650 C 628.132 -4.22201 3.26469 0
M  V30 6651 O 628.355 -5.15286 2.44616 0
M  V30 6652 O 627.289 -4.31599 4.1953 0
M  V30 6653 H 631.115 -1.358 2.71647 0
M  V30 6654 H 628.7 -0.608618 1.36441 0
M  V30 6655 H 630.582 -3.70575 2.0063 0
M  V30 6656 H 629.257 -3.08347 0.985067 0
M  V30 6657 H 628.164 -2.11102 3.08847 0
M  V30 6658 H 629.497 -2.79369 4.05233 0
M  V30 6659 N 631.149 -1.42148 -0.680565 0
M  V30 6660 C 632.426 -1.32795 -1.43614 0
M  V30 6661 C 632.806 0.037415 -2.11067 0
M  V30 6662 O 632.154 1.05258 -2.02813 0
M  V30 6663 C 632.364 -2.49206 -2.44331 0
M  V30 6664 C 633.712 -2.91059 -3.09144 0
M  V30 6665 O 634.736 -2.49054 -2.54657 0
M  V30 6666 O 633.595 -3.63741 -4.07866 0
M  V30 6667 H 630.689 -0.523397 -0.640301 0
M  V30 6668 H 633.235 -1.54144 -0.709775 0
M  V30 6669 H 632.007 -3.40252 -1.93247 0
M  V30 6670 H 631.63 -2.29813 -3.24456 0
M  V30 6671 N 632.627 0.916307 -1.28225 0
M  V30 6672 C 633.855 1.69901 -1.18073 0
M  V30 6673 C 634.27 1.86988 0.260968 0
M  V30 6674 O 633.627 1.39505 1.17663 0
M  V30 6675 C 633.678 3.09254 -1.87201 0
M  V30 6676 O 633.399 2.92959 -3.2574 0
M  V30 6677 C 634.9 4.0362 -1.83319 0
M  V30 6678 H 632.12 0.531181 -0.409985 0
M  V30 6679 H 634.664 1.14703 -1.69303 0
M  V30 6680 H 632.819 3.61277 -1.39848 0
M  V30 6681 H 633.233 3.81139 -3.60324 0
M  V30 6682 H 634.707 4.98873 -2.36282 0
M  V30 6683 H 635.184 4.3176 -0.805007 0
M  V30 6684 H 635.79 3.57524 -2.3034 0
M  V30 6685 N 634.105 1.10431 1.1244 0
M  V30 6686 C 635.352 0.846717 1.83948 0
M  V30 6687 C 635.68 -0.627709 1.84093 0
M  V30 6688 O 634.935 -1.47876 1.28184 0
M  V30 6689 C 635.234 1.34022 3.3132 0
M  V30 6690 C 634.9 2.82606 3.51347 0
M  V30 6691 C 633.562 3.23182 3.56521 0
M  V30 6692 C 635.914 3.78356 3.58464 0
M  V30 6693 C 633.242 4.58258 3.66356 0
M  V30 6694 C 635.594 5.13234 3.69829 0
M  V30 6695 C 634.258 5.53384 3.73259 0
M  V30 6696 H 633.528 0.309836 0.673114 0
M  V30 6697 H 636.175 1.38091 1.32677 0
M  V30 6698 H 634.48 0.726047 3.85014 0
M  V30 6699 H 636.177 1.11739 3.85118 0
M  V30 6700 H 632.767 2.50212 3.47983 0
M  V30 6701 H 636.951 3.48115 3.53737 0
M  V30 6702 H 632.207 4.88787 3.67284 0
M  V30 6703 H 636.381 5.87272 3.74279 0
M  V30 6704 H 634.008 6.58045 3.80633 0
M  V30 6705 N 635.583 -1.29855 0.893053 0
M  V30 6706 C 636.831 -1.9544 0.514566 0
M  V30 6707 C 637.152 -1.70795 -0.940959 0
M  V30 6708 O 636.422 -1.03601 -1.66264 0
M  V30 6709 H 635.002 -0.723137 0.187302 0
M  V30 6710 H 637.664 -1.58234 1.13789 0
M  V30 6711 H 636.76 -3.04341 0.691581 0
M  V30 6712 N 637.061 -0.65484 -1.43351 0
M  V30 6713 C 638.307 -0.169142 -2.02093 0
M  V30 6714 C 638.64 1.21431 -1.51553 0
M  V30 6715 O 637.915 1.81105 -0.709317 0
M  V30 6716 C 638.198 -0.181775 -3.59641 0
M  V30 6717 C 638.051 -1.59926 -4.20409 0
M  V30 6718 C 639.37 0.480945 -4.37464 0
M  V30 6719 H 636.489 -0.0629371 -0.734308 0
M  V30 6720 H 639.131 -0.835833 -1.70628 0
M  V30 6721 H 637.281 0.385918 -3.86578 0
M  V30 6722 H 638.953 -2.21766 -4.04497 0
M  V30 6723 H 637.196 -2.14605 -3.76998 0
M  V30 6724 H 637.867 -1.55994 -5.295 0
M  V30 6725 H 640.343 -0.00208273 -4.161 0
M  V30 6726 H 639.219 0.441384 -5.47122 0
M  V30 6727 H 639.48 1.55533 -4.13838 0
M  V30 6728 N 638.539 1.52521 -0.396863 0
M  V30 6729 C 639.764 2.06571 0.185258 0
M  V30 6730 C 640.189 1.26605 1.39115 0
M  V30 6731 O 639.547 0.293055 1.78916 0
M  V30 6732 C 639.595 3.5674 0.526189 0
M  V30 6733 O 638.699 3.7929 1.61903 0
M  V30 6734 H 638.04 0.663712 0.0195474 0
M  V30 6735 H 640.57 1.966 -0.566519 0
M  V30 6736 H 640.58 4.00311 0.788338 0
M  V30 6737 H 639.255 4.14379 -0.355397 0
M  V30 6738 H 637.832 3.47605 1.35 0
M  V30 6739 N 640.017 0.126909 1.57088 0
M  V30 6740 C 641.266 -0.529024 1.94639 0
M  V30 6741 C 641.579 -1.67323 1.01304 0
M  V30 6742 O 642.785 -2.39245 1.28352 0
M  V30 6743 C 641.241 -0.992483 3.45945 0
M  V30 6744 C 640.849 0.123691 4.47829 0
M  V30 6745 C 642.593 -1.61934 3.924 0
M  V30 6746 C 640.5 -0.356911 5.90322 0
M  V30 6747 H 639.43 -0.201397 0.726605 0
M  V30 6748 H 642.081 0.208032 1.82317 0
M  V30 6749 H 640.463 -1.7842 3.53528 0
M  V30 6750 H 641.637 0.900168 4.51922 0
M  V30 6751 H 639.952 0.657699 4.11173 0
M  V30 6752 H 642.549 -1.9902 4.96281 0
M  V30 6753 H 642.892 -2.50075 3.32819 0
M  V30 6754 H 643.425 -0.892894 3.8765 0
M  V30 6755 H 640.164 0.488636 6.53676 0
M  V30 6756 H 639.684 -1.0997 5.89633 0
M  V30 6757 H 641.363 -0.815547 6.41839 0
M  V30 6758 N 641.495 -1.56914 -0.146875 0
M  V30 6759 C 642.458 -1.97368 -1.16526 0
M  V30 6760 C 643.458 -0.860223 -1.35856 0
M  V30 6761 O 644.648 -1.12684 -1.32846 0
M  V30 6762 C 641.78 -2.28974 -2.52555 0
M  V30 6763 H 642.973 -2.88523 -0.818209 0
M  V30 6764 H 640.526 -1.5135 -0.390221 0
M  V30 6765 H 641.261 -1.40611 -2.92231 0
M  V30 6766 H 641.046 -3.10157 -2.39886 0
M  V30 6767 H 642.536 -2.61109 -3.25902 0
M  V30 6768 N 642.974 0.416227 -1.52004 0
M  V30 6769 C 644.22 1.16555 -1.6596 0
M  V30 6770 C 644.553 1.90347 -0.384906 0
M  V30 6771 O 643.828 1.84474 0.616405 0
M  V30 6772 C 644.111 2.1657 -2.87696 0
M  V30 6773 C 643.964 1.46722 -4.25197 0
M  V30 6774 C 645.283 3.17321 -3.04951 0
M  V30 6775 H 642.402 0.422369 -0.603965 0
M  V30 6776 H 645.044 0.452141 -1.84542 0
M  V30 6777 H 643.194 2.77411 -2.71985 0
M  V30 6778 H 644.866 0.89056 -4.52622 0
M  V30 6779 H 643.109 0.769263 -4.26925 0
M  V30 6780 H 643.78 2.19665 -5.0641 0
M  V30 6781 H 646.256 2.66552 -3.19514 0
M  V30 6782 H 645.132 3.84573 -3.91656 0
M  V30 6783 H 645.393 3.84643 -2.17951 0
M  V30 6784 N 644.452 1.42507 0.673017 0
M  V30 6785 C 645.7 1.42789 1.43023 0
M  V30 6786 C 646.021 0.0459738 1.94946 0
M  V30 6787 O 645.291 -0.915765 1.73178 0
M  V30 6788 H 643.871 0.525657 0.530748 0
M  V30 6789 H 646.533 1.77944 0.795113 0
M  V30 6790 H 645.629 2.12872 2.28237 0
M  V30 6791 N 645.93 -0.909495 1.28709 0
M  V30 6792 C 646.86 -2.0291 1.15542 0
M  V30 6793 C 647.841 -1.7002 0.0521017 0
M  V30 6794 O 649.026 -1.92835 0.229849 0
M  V30 6795 C 646.156 -3.37458 0.820935 0
M  V30 6796 C 645.11 -3.84524 1.87949 0
M  V30 6797 C 644.436 -5.16086 1.39854 0
M  V30 6798 C 645.736 -4.05918 3.28676 0
M  V30 6799 H 647.43 -2.14183 2.09203 0
M  V30 6800 H 644.976 -1.02913 1.00722 0
M  V30 6801 H 646.929 -4.1528 0.715571 0
M  V30 6802 H 645.653 -3.26249 -0.151374 0
M  V30 6803 H 644.312 -3.08911 1.97408 0
M  V30 6804 H 643.96 -5.01284 0.41518 0
M  V30 6805 H 643.66 -5.48547 2.1064 0
M  V30 6806 H 645.184 -5.96459 1.30649 0
M  V30 6807 H 646.598 -4.74252 3.22115 0
M  V30 6808 H 644.995 -4.49717 3.97334 0
M  V30 6809 H 646.065 -3.10583 3.72379 0
M  V30 6810 N 647.408 -1.11026 -1.11852 0
M  V30 6811 C 648.371 -0.768006 -2.1595 0
M  V30 6812 C 649.371 0.210538 -1.59416 0
M  V30 6813 O 650.561 -0.0133978 -1.74195 0
M  V30 6814 C 647.693 -0.138678 -3.40618 0
M  V30 6815 H 648.886 -1.69012 -2.4774 0
M  V30 6816 H 646.439 -0.911578 -1.26964 0
M  V30 6817 H 647.174 0.793872 -3.14433 0
M  V30 6818 H 646.959 -0.843012 -3.8293 0
M  V30 6819 H 648.449 0.0848039 -4.17514 0
M  V30 6820 N 648.886 1.2938 -0.899927 0
M  V30 6821 C 649.849 2.25983 -0.382677 0
M  V30 6822 C 650.849 1.53366 0.483259 0
M  V30 6823 O 652.039 1.71798 0.28828 0
M  V30 6824 C 649.171 3.37878 0.452915 0
M  V30 6825 H 650.364 2.73252 -1.23586 0
M  V30 6826 H 647.917 1.40825 -0.678088 0
M  V30 6827 H 648.652 2.95949 1.32608 0
M  V30 6828 H 648.437 3.91742 -0.167562 0
M  V30 6829 H 649.927 4.09746 0.806107 0
M  V30 6830 N 650.364 0.662433 1.43002 0
M  V30 6831 C 651.611 0.179591 2.01702 0
M  V30 6832 C 651.939 -1.20964 1.52309 0
M  V30 6833 O 651.194 -1.82343 0.7106 0
M  V30 6834 C 651.493 0.149363 3.57088 0
M  V30 6835 C 651.159 1.48158 4.25864 0
M  V30 6836 C 649.821 1.84638 4.44367 0
M  V30 6837 C 652.173 2.35953 4.64732 0
M  V30 6838 C 649.501 3.08561 4.99006 0
M  V30 6839 C 651.853 3.59176 5.20745 0
M  V30 6840 C 650.517 3.95841 5.37463 0
M  V30 6841 H 649.787 0.0657172 0.73808 0
M  V30 6842 H 652.434 0.854968 1.71355 0
M  V30 6843 H 650.739 -0.609491 3.8703 0
M  V30 6844 H 652.436 -0.241241 4.00274 0
M  V30 6845 H 649.026 1.18777 4.11813 0
M  V30 6846 H 653.21 2.09058 4.50121 0
M  V30 6847 H 648.466 3.37005 5.10135 0
M  V30 6848 H 652.64 4.27417 5.49807 0
M  V30 6849 H 650.267 4.91942 5.79566 0
M  V30 6850 N 651.842 -1.52309 0.404946 0
M  V30 6851 C 652.805 -2.25491 -0.410651 0
M  V30 6852 C 653.805 -1.27704 -0.977154 0
M  V30 6853 O 654.995 -1.51679 -0.856691 0
M  V30 6854 C 652.127 -3.02197 -1.57765 0
M  V30 6855 H 653.32 -2.99015 0.230277 0
M  V30 6856 H 650.873 -1.55506 0.157377 0
M  V30 6857 H 651.608 -2.33013 -2.25556 0
M  V30 6858 H 651.393 -3.73987 -1.17797 0
M  V30 6859 H 652.883 -3.57719 -2.15469 0
M  V30 6860 N 653.32 -0.135238 -1.57019 0
M  V30 6861 C 654.56 0.521686 -1.9763 0
M  V30 6862 C 654.924 1.62804 -1.01778 0
M  V30 6863 O 656.125 2.345 -1.31389 0
M  V30 6864 C 654.396 1.0257 -3.42365 0
M  V30 6865 S 655.955 1.68888 -4.04997 0
M  V30 6866 H 652.773 0.169064 -0.690607 0
M  V30 6867 H 655.375 -0.224168 -1.94211 0
M  V30 6868 H 654.079 0.209556 -4.09865 0
M  V30 6869 H 653.61 1.80645 -3.49472 0
M  V30 6870 H 655.625 2.97554 -3.97084 0
M  V30 6871 N 654.798 1.5699 0.138552 0
M  V30 6872 C 656.044 1.84081 0.85099 0
M  V30 6873 C 656.377 0.718107 1.80435 0
M  V30 6874 O 655.652 -0.277633 1.92508 0
M  V30 6875 C 655.935 3.21699 1.61808 0
M  V30 6876 C 655.788 4.44544 0.685633 0
M  V30 6877 C 657.107 3.5664 2.57868 0
M  V30 6878 H 654.226 0.669592 0.307922 0
M  V30 6879 H 656.868 1.89646 0.11588 0
M  V30 6880 H 655.018 3.17086 2.24474 0
M  V30 6881 H 656.69 4.61248 0.0693179 0
M  V30 6882 H 654.933 4.338 -0.00421993 0
M  V30 6883 H 655.604 5.3746 1.25858 0
M  V30 6884 H 658.08 3.61918 2.05316 0
M  V30 6885 H 656.956 4.53946 3.08584 0
M  V30 6886 H 657.217 2.83036 3.39622 0
M  V30 6887 N 656.276 -0.40816 1.52223 0
M  V30 6888 C 657.206 -1.5042 1.78595 0
M  V30 6889 C 658.187 -1.57723 0.636974 0
M  V30 6890 O 659.372 -1.72982 0.882664 0
M  V30 6891 C 656.502 -2.88232 1.93751 0
M  V30 6892 C 655.456 -2.95779 3.09352 0
M  V30 6893 C 654.782 -4.35855 3.09732 0
M  V30 6894 C 656.082 -2.67175 4.48793 0
M  V30 6895 H 657.776 -1.28601 2.70374 0
M  V30 6896 H 655.322 -0.617221 1.30101 0
M  V30 6897 H 657.275 -3.64895 2.10783 0
M  V30 6898 H 655.999 -3.11347 0.986443 0
M  V30 6899 H 654.658 -2.21561 2.92072 0
M  V30 6900 H 654.306 -4.55981 2.12346 0
M  V30 6901 H 654.006 -4.41829 3.87377 0
M  V30 6902 H 655.53 -5.14451 3.28895 0
M  V30 6903 H 656.944 -3.3356 4.66273 0
M  V30 6904 H 655.341 -2.84523 5.28362 0
M  V30 6905 H 656.411 -1.62609 4.56822 0
M  V30 6906 N 657.755 -1.42862 -0.66545 0
M  V30 6907 C 658.685 -1.49867 -1.79059 0
M  V30 6908 C 659.666 -0.354394 -1.66367 0
M  V30 6909 O 660.851 -0.569969 -1.85647 0
M  V30 6910 C 657.981 -1.40943 -3.17415 0
M  V30 6911 C 656.935 -2.53495 -3.44854 0
M  V30 6912 C 656.261 -2.29626 -4.82883 0
M  V30 6913 C 657.561 -3.95781 -3.40815 0
M  V30 6914 H 659.255 -2.44037 -1.73453 0
M  V30 6915 H 656.801 -1.17456 -0.833071 0
M  V30 6916 H 658.754 -1.4445 -3.95869 0
M  V30 6917 H 657.478 -0.432716 -3.23721 0
M  V30 6918 H 656.137 -2.4932 -2.68766 0
M  V30 6919 H 655.785 -1.30226 -4.8585 0
M  V30 6920 H 655.485 -3.05065 -5.02204 0
M  V30 6921 H 657.009 -2.34897 -5.63609 0
M  V30 6922 H 658.423 -4.01508 -4.09224 0
M  V30 6923 H 656.82 -4.71148 -3.71672 0
M  V30 6924 H 657.89 -4.21786 -2.39216 0
M  V30 6925 N 659.233 0.902656 -1.29189 0
M  V30 6926 C 660.479 1.65532 -1.17163 0
M  V30 6927 C 660.812 1.92216 0.276879 0
M  V30 6928 O 660.087 1.53048 1.20027 0
M  V30 6929 C 660.37 3.00629 -1.98228 0
M  V30 6930 C 660.223 2.81029 -3.51202 0
M  V30 6931 C 661.542 4.01321 -1.80635 0
M  V30 6932 H 658.661 0.60071 -0.426985 0
M  V30 6933 H 661.303 1.04578 -1.5863 0
M  V30 6934 H 659.453 3.52656 -1.62991 0
M  V30 6935 H 661.125 2.35927 -3.96404 0
M  V30 6936 H 659.368 2.1587 -3.76275 0
M  V30 6937 H 660.039 3.77014 -4.03192 0
M  V30 6938 H 662.515 3.58394 -2.11406 0
M  V30 6939 H 661.391 4.93792 -2.3971 0
M  V30 6940 H 661.652 4.35505 -0.760754 0
M  V30 6941 N 660.711 1.11618 1.11262 0
M  V30 6942 C 661.957 0.867463 1.83311 0
M  V30 6943 C 662.29 -0.605366 1.84524 0
M  V30 6944 O 661.565 -1.44704 1.29965 0
M  V30 6945 C 661.848 1.43207 3.30399 0
M  V30 6946 C 661.701 2.97265 3.3757 0
M  V30 6947 C 663.02 1.08454 4.26528 0
M  V30 6948 H 660.139 0.316578 0.665543 0
M  V30 6949 H 662.781 1.38137 1.30454 0
M  V30 6950 H 660.931 0.994982 3.75543 0
M  V30 6951 H 662.603 3.49591 3.00971 0
M  V30 6952 H 660.846 3.33237 2.77733 0
M  V30 6953 H 661.517 3.31859 4.41105 0
M  V30 6954 H 663.993 1.4619 3.89574 0
M  V30 6955 H 662.869 1.50633 5.27826 0
M  V30 6956 H 663.13 -0.00444568 4.421 0
M  V30 6957 N 662.189 -1.289 0.906776 0
M  V30 6958 C 663.119 -2.29932 0.406659 0
M  V30 6959 C 664.1 -1.6189 -0.522061 0
M  V30 6960 O 665.285 -1.8935 -0.431283 0
M  V30 6961 C 662.415 -3.45425 -0.360366 0
M  V30 6962 C 661.369 -4.25316 0.478574 0
M  V30 6963 C 660.695 -5.33076 -0.416373 0
M  V30 6964 C 661.995 -4.92739 1.7322 0
M  V30 6965 H 663.689 -2.72013 1.25097 0
M  V30 6966 H 661.235 -1.30768 0.602977 0
M  V30 6967 H 663.188 -4.15186 -0.721029 0
M  V30 6968 H 661.912 -3.02206 -1.23852 0
M  V30 6969 H 660.571 -3.57273 0.821662 0
M  V30 6970 H 660.219 -4.86101 -1.29287 0
M  V30 6971 H 659.919 -5.8743 0.141309 0
M  V30 6972 H 661.443 -6.05686 -0.773072 0
M  V30 6973 H 662.857 -5.54898 1.44086 0
M  V30 6974 H 661.254 -5.57057 2.23175 0
M  V30 6975 H 662.324 -4.17625 2.46408 0
M  V30 6976 N 663.667 -0.670007 -1.42649 0
M  V30 6977 C 664.914 -0.190286 -2.01604 0
M  V30 6978 C 665.242 1.20155 -1.52948 0
M  V30 6979 O 664.497 1.81964 -0.72026 0
M  V30 6980 C 664.796 -0.168298 -3.57004 0
M  V30 6981 C 664.462 -1.50415 -4.25072 0
M  V30 6982 C 663.124 -1.86992 -4.43382 0
M  V30 6983 C 665.476 -2.38414 -4.63474 0
M  V30 6984 C 662.804 -3.11203 -4.97363 0
M  V30 6985 C 665.156 -3.61933 -5.18833 0
M  V30 6986 C 663.82 -3.98685 -5.35356 0
M  V30 6987 H 663.09 -0.0696305 -0.737721 0
M  V30 6988 H 665.737 -0.864044 -1.70899 0
M  V30 6989 H 664.042 0.588958 -3.87348 0
M  V30 6990 H 665.739 0.22001 -4.00396 0
M  V30 6991 H 662.329 -1.20959 -4.11177 0
M  V30 6992 H 666.513 -2.11442 -4.49006 0
M  V30 6993 H 661.769 -3.39705 -5.08341 0
M  V30 6994 H 665.943 -4.30326 -5.47533 0
M  V30 6995 H 663.57 -4.95009 -5.76949 0
M  V30 6996 N 665.145 1.52092 -0.413018 0
M  V30 6997 C 666.391 2.02154 0.161737 0
M  V30 6998 C 666.724 1.29789 1.44459 0
M  V30 6999 O 665.999 0.405378 1.90229 0
M  V30 7000 C 666.282 3.5781 0.405463 0
M  V30 7001 C 666.135 4.40819 -0.894335 0
M  V30 7002 C 667.454 4.23821 1.18591 0
M  V30 7003 H 664.573 0.734769 0.0573077 0
M  V30 7004 H 667.215 1.81948 -0.547247 0
M  V30 7005 H 665.365 3.75158 1.0094 0
M  V30 7006 H 667.037 4.35175 -1.53039 0
M  V30 7007 H 665.28 4.06877 -1.50444 0
M  V30 7008 H 665.951 5.47819 -0.678144 0
M  V30 7009 H 668.427 4.10596 0.674573 0
M  V30 7010 H 667.303 5.32663 1.3252 0
M  V30 7011 H 667.564 3.83038 2.20758 0
M  V30 7012 N 666.623 0.143563 1.56945 0
M  V30 7013 C 667.556 -0.835367 2.1236 0
M  V30 7014 C 668.534 -1.24466 1.04627 0
M  V30 7015 O 669.718 -1.34138 1.32436 0
M  V30 7016 C 666.845 -2.12123 2.64048 0
M  V30 7017 C 665.891 -1.85812 3.83896 0
M  V30 7018 S 666.724 -1.05222 5.25061 0
M  V30 7019 C 667.88 -2.34935 5.80135 0
M  V30 7020 H 668.113 -0.364109 2.95062 0
M  V30 7021 H 665.646 -0.0706601 1.54238 0
M  V30 7022 H 667.604 -2.85993 2.94479 0
M  V30 7023 H 666.265 -2.56364 1.81483 0
M  V30 7024 H 665.458 -2.81151 4.18294 0
M  V30 7025 H 665.06 -1.20052 3.54208 0
M  V30 7026 H 667.352 -3.3061 5.91357 0
M  V30 7027 H 668.295 -2.05046 6.77762 0
M  V30 7028 H 668.703 -2.45426 5.08356 0
M  V30 7029 N 668.101 -1.57061 -0.130224 0
M  V30 7030 C 669.35 -1.83446 -0.838488 0
M  V30 7031 C 669.663 -0.727468 -1.81569 0
M  V30 7032 O 670.869 -0.877394 -2.56932 0
M  V30 7033 C 669.325 -3.25201 -1.54182 0
M  V30 7034 C 668.933 -4.4388 -0.606178 0
M  V30 7035 C 670.677 -3.60844 -2.23588 0
M  V30 7036 C 668.584 -5.76661 -1.31209 0
M  V30 7037 H 667.514 -0.684185 -0.316871 0
M  V30 7038 H 670.165 -1.83273 -0.0912059 0
M  V30 7039 H 668.547 -3.1981 -2.33533 0
M  V30 7040 H 669.721 -4.60545 0.153308 0
M  V30 7041 H 668.036 -4.16395 -0.0196705 0
M  V30 7042 H 670.633 -4.57313 -2.77072 0
M  V30 7043 H 670.976 -2.87724 -3.00867 0
M  V30 7044 H 671.509 -3.67971 -1.51137 0
M  V30 7045 H 668.248 -6.52922 -0.580823 0
M  V30 7046 H 667.768 -5.63902 -2.04387 0
M  V30 7047 H 669.447 -6.20035 -1.8484 0
M  V30 7048 N 669.579 0.400081 -1.52437 0
M  V30 7049 C 670.527 1.50851 -1.7705 0
M  V30 7050 C 671.521 1.56928 -0.637969 0
M  V30 7051 O 672.727 1.60226 -0.820212 0
M  V30 7052 H 669.102 0.50186 -0.560036 0
M  V30 7053 H 671.073 1.27281 -2.69893 0
M  V30 7054 C 669.822 2.88117 -1.94638 0
M  V30 7055 H 669.145 2.84187 -2.81208 0
M  V30 7056 H 670.585 3.64942 -2.15855 0
M  V30 7057 C 669.044 3.29206 -0.715899 0
M  V30 7058 O 669.574 4.01544 0.111944 0
M  V30 7059 N 667.78 2.85363 -0.549191 0
M  V30 7060 H 667.327 2.26664 -1.22397 0
M  V30 7061 H 667.285 3.13214 0.27278 0
M  V30 7062 N 671.057 1.43213 0.657864 0
M  V30 7063 C 672.004 1.48011 1.77092 0
M  V30 7064 C 672.974 0.330291 1.62783 0
M  V30 7065 O 674.159 0.536787 1.83094 0
M  V30 7066 C 671.299 1.40461 3.15222 0
M  V30 7067 C 670.412 2.65612 3.40697 0
M  V30 7068 C 669.547 2.50083 4.68649 0
M  V30 7069 C 668.586 3.70525 4.87214 0
M  V30 7070 N 667.723 3.53835 6.0642 0
M  V30 7071 H 672.563 2.43121 1.72326 0
M  V30 7072 H 670.1 1.20687 0.841013 0
M  V30 7073 H 672.058 1.34079 3.95068 0
M  V30 7074 H 670.688 0.489359 3.19069 0
M  V30 7075 H 669.74 2.82292 2.54982 0
M  V30 7076 H 671.052 3.5509 3.50303 0
M  V30 7077 H 670.206 2.41383 5.56614 0
M  V30 7078 H 668.945 1.58121 4.61356 0
M  V30 7079 H 667.95 3.79639 3.97686 0
M  V30 7080 H 669.175 4.63489 4.96341 0
M  V30 7081 H 667.121 2.64604 6.00267 0
M  V30 7082 H 667.038 4.36912 6.16963 0
M  V30 7083 H 668.306 3.48978 6.97019 0
M  V30 7084 N 672.536 -0.895792 1.29666 0
M  V30 7085 C 673.766 -1.67757 1.20586 0
M  V30 7086 C 674.174 -1.87729 -0.235432 0
M  V30 7087 O 673.517 -1.41706 -1.16898 0
M  V30 7088 C 673.579 -3.08117 1.85215 0
M  V30 7089 C 673.243 -3.1136 3.3452 0
M  V30 7090 C 674.24 -2.91217 4.30684 0
M  V30 7091 C 671.925 -3.33302 3.75786 0
M  V30 7092 C 673.919 -2.92955 5.66089 0
M  V30 7093 C 671.606 -3.3467 5.11311 0
M  V30 7094 C 672.604 -3.14519 6.06273 0
M  V30 7095 O 672.292 -3.15684 7.39323 0
M  V30 7096 H 672.024 -0.530601 0.418854 0
M  V30 7097 H 674.578 -1.12831 1.71634 0
M  V30 7098 H 672.808 -3.64661 1.28683 0
M  V30 7099 H 674.497 -3.68399 1.70403 0
M  V30 7100 H 675.263 -2.74074 4.00136 0
M  V30 7101 H 671.142 -3.48025 3.02324 0
M  V30 7102 H 674.686 -2.77145 6.40185 0
M  V30 7103 H 670.583 -3.51346 5.41504 0
M  V30 7104 H 671.351 -3.31924 7.48177 0
M  V30 7105 N 674.014 -1.12206 -1.10668 0
M  V30 7106 C 675.262 -0.874144 -1.82217 0
M  V30 7107 C 675.583 0.601736 -1.85484 0
M  V30 7108 O 674.853 1.43725 -1.33116 0
M  V30 7109 H 673.433 -0.320404 -0.674797 0
M  V30 7110 H 676.095 -1.41606 -1.33917 0
M  V30 7111 H 675.191 -1.25349 -2.85822 0
M  V30 7112 N 675.492 1.28418 -0.913599 0
M  V30 7113 C 676.908 1.47411 -0.611728 0
M  V30 7114 C 677.108 1.83018 0.843008 0
M  V30 7115 O 676.164 1.93505 1.6221 0
M  V30 7116 C 677.477 2.57703 -1.5495 0
M  V30 7117 C 679.025 2.71572 -1.5562 0
M  V30 7118 C 679.5 3.85008 -2.48058 0
M  V30 7119 N 680.991 3.92361 -2.46184 0
M  V30 7120 C 681.726 4.79516 -3.14407 0
M  V30 7121 N 681.222 5.71262 -3.91958 0
M  V30 7122 N 683.015 4.73125 -3.03495 0
M  V30 7123 H 675.166 1.03585 -1.85429 0
M  V30 7124 H 677.429 0.515907 -0.795326 0
M  V30 7125 H 677.135 2.38298 -2.58663 0
M  V30 7126 H 677.009 3.54801 -1.28048 0
M  V30 7127 H 679.396 2.90366 -0.526441 0
M  V30 7128 H 679.477 1.75006 -1.86565 0
M  V30 7129 H 679.121 3.66969 -3.51136 0
M  V30 7130 H 679.051 4.80971 -2.14416 0
M  V30 7131 H 681.542 3.26749 -1.89851 0
M  V30 7132 H 681.855 6.34593 -4.41034 0
M  V30 7133 H 680.2 5.71103 -3.96063 0
M  V30 7134 H 683.391 4.00442 -2.42413 0
M  V30 7135 H 683.564 5.40834 -3.56935 0
M  V30 7136 N 676.97 0.677563 1.42291 0
M  V30 7137 C 678.386 0.347376 1.55774 0
M  V30 7138 C 678.586 -1.14703 1.65667 0
M  V30 7139 O 677.642 -1.93252 1.62512 0
M  V30 7140 C 678.955 1.08011 2.80631 0
M  V30 7141 C 680.503 1.06271 2.94407 0
M  V30 7142 C 680.978 1.77683 4.22129 0
M  V30 7143 N 682.469 1.74564 4.29047 0
M  V30 7144 C 683.204 2.26673 5.26694 0
M  V30 7145 N 682.7 2.87176 6.30477 0
M  V30 7146 N 684.493 2.17032 5.18511 0
M  V30 7147 H 676.644 1.64703 1.34114 0
M  V30 7148 H 678.907 0.694038 0.645768 0
M  V30 7149 H 678.613 2.13518 2.79469 0
M  V30 7150 H 678.487 0.647115 3.71608 0
M  V30 7151 H 680.874 0.0159658 2.95096 0
M  V30 7152 H 680.955 1.53461 2.04654 0
M  V30 7153 H 680.599 2.82327 4.22201 0
M  V30 7154 H 680.529 1.2794 5.10822 0
M  V30 7155 H 683.02 1.30436 3.54676 0
M  V30 7156 H 683.333 3.24551 7.01346 0
M  V30 7157 H 681.678 2.91247 6.31031 0
M  V30 7158 H 684.869 1.69451 4.36353 0
M  V30 7159 H 685.042 2.57948 5.94446 0
M  V30 7160 N 678.448 -1.51871 0.421078 0
M  V30 7161 C 679.673 -2.0684 -0.152371 0
M  V30 7162 C 680.098 -1.28802 -1.37083 0
M  V30 7163 O 679.456 -0.321482 -1.78427 0
M  V30 7164 C 679.504 -3.57532 -0.469368 0
M  V30 7165 O 678.608 -3.81818 -1.55848 0
M  V30 7166 H 677.949 -0.663939 -0.00898586 0
M  V30 7167 H 680.479 -1.95674 0.597724 0
M  V30 7168 H 680.489 -4.01515 -0.724553 0
M  V30 7169 H 679.164 -4.13761 0.421276 0
M  V30 7170 H 677.741 -3.49709 -1.29453 0
M  V30 7171 N 679.926 -0.151884 -1.56866 0
M  V30 7172 C 680.873 0.785936 -2.17006 0
M  V30 7173 C 681.843 1.2407 -1.10435 0
M  V30 7174 O 683.028 1.31235 -1.38499 0
M  V30 7175 C 680.168 2.01771 -2.79969 0
M  V30 7176 C 679.281 1.6083 -4.00946 0
M  V30 7177 C 678.416 2.79224 -4.51893 0
M  V30 7178 C 677.455 2.3468 -5.65324 0
M  V30 7179 N 676.592 3.461 -6.10867 0
M  V30 7180 H 681.432 0.266286 -2.96808 0
M  V30 7181 H 678.969 0.11972 -1.46612 0
M  V30 7182 H 680.927 2.73989 -3.14621 0
M  V30 7183 H 679.557 2.51139 -2.02803 0
M  V30 7184 H 678.609 0.783592 -3.72242 0
M  V30 7185 H 679.921 1.24119 -4.83111 0
M  V30 7186 H 679.075 3.59625 -4.88625 0
M  V30 7187 H 677.814 3.19183 -3.68746 0
M  V30 7188 H 676.819 1.52721 -5.28163 0
M  V30 7189 H 678.044 1.95801 -6.5026 0
M  V30 7190 H 675.99 3.85671 -5.30654 0
M  V30 7191 H 675.907 3.1342 -6.87971 0
M  V30 7192 H 677.175 4.26844 -6.52246 0
M  V30 7193 N 681.404 1.57128 0.121893 0
M  V30 7194 C 682.651 1.847 0.830188 0
M  V30 7195 C 682.979 0.736543 1.80015 0
M  V30 7196 O 682.234 -0.272358 1.93796 0
M  V30 7197 C 682.533 3.1874 1.61677 0
M  V30 7198 C 682.199 4.43901 0.791361 0
M  V30 7199 C 680.861 4.77887 0.563731 0
M  V30 7200 C 683.213 5.20753 0.215823 0
M  V30 7201 C 680.541 5.86168 -0.249737 0
M  V30 7202 C 682.893 6.29891 -0.584821 0
M  V30 7203 C 681.557 6.6241 -0.822794 0
M  V30 7204 H 680.827 0.675866 0.303787 0
M  V30 7205 H 683.474 1.91276 0.0926894 0
M  V30 7206 H 681.779 3.07728 2.42509 0
M  V30 7207 H 683.476 3.37295 2.16872 0
M  V30 7208 H 680.066 4.17272 0.978867 0
M  V30 7209 H 684.25 4.94851 0.378907 0
M  V30 7210 H 679.506 6.0979 -0.44336 0
M  V30 7211 H 683.68 6.88624 -1.03779 0
M  V30 7212 H 681.307 7.46147 -1.45496 0
M  V30 7213 N 682.882 -0.391992 1.52647 0
M  V30 7214 C 684.13 -1.13507 1.67214 0
M  V30 7215 C 684.451 -1.90575 0.41304 0
M  V30 7216 O 683.721 -1.87348 -0.572498 0
M  V30 7217 H 682.301 -0.422013 0.616372 0
M  V30 7218 H 684.963 -0.44502 1.89751 0
M  V30 7219 H 684.059 -1.83964 2.52118 0
M  V30 7220 N 684.36 -1.4356 -0.65026 0
M  V30 7221 C 685.293 -1.434 -1.77515 0
M  V30 7222 C 686.271 -0.295082 -1.599 0
M  V30 7223 O 687.455 -0.489128 -1.82043 0
M  V30 7224 C 684.582 -1.2484 -3.14853 0
M  V30 7225 C 683.628 -2.42046 -3.51163 0
M  V30 7226 S 684.461 -4.04595 -3.50803 0
M  V30 7227 C 685.617 -3.88424 -4.90793 0
M  V30 7228 H 685.85 -2.38586 -1.77381 0
M  V30 7229 H 683.383 -1.30627 -0.823169 0
M  V30 7230 H 685.341 -1.14819 -3.94115 0
M  V30 7231 H 684.002 -0.311977 -3.12547 0
M  V30 7232 H 683.195 -2.24873 -4.51052 0
M  V30 7233 H 682.797 -2.48708 -2.79321 0
M  V30 7234 H 685.089 -3.50932 -5.79528 0
M  V30 7235 H 686.032 -4.88076 -5.13018 0
M  V30 7236 H 686.44 -3.20829 -4.64467 0
M  V30 7237 N 685.838 0.888903 -1.30139 0
M  V30 7238 C 686.785 1.99422 -1.16188 0
M  V30 7239 C 687.755 1.66017 -0.0523869 0
M  V30 7240 O 688.94 1.89506 -0.221864 0
M  V30 7241 C 686.08 3.34325 -0.855612 0
M  V30 7242 C 685.193 3.80445 -2.0466 0
M  V30 7243 C 684.328 5.03975 -1.67876 0
M  V30 7244 C 683.367 5.42492 -2.83493 0
M  V30 7245 N 682.504 6.57206 -2.47032 0
M  V30 7246 H 687.344 2.10687 -2.10749 0
M  V30 7247 H 684.881 1.03165 -1.04859 0
M  V30 7248 H 686.839 4.11968 -0.658681 0
M  V30 7249 H 685.469 3.22756 0.0531155 0
M  V30 7250 H 684.521 2.98745 -2.3549 0
M  V30 7251 H 685.833 4.04933 -2.91257 0
M  V30 7252 H 684.987 5.89232 -1.44535 0
M  V30 7253 H 683.726 4.8135 -0.784431 0
M  V30 7254 H 682.731 4.55764 -3.07505 0
M  V30 7255 H 683.956 5.67093 -3.73607 0
M  V30 7256 H 681.902 6.36164 -1.601 0
M  V30 7257 H 681.819 6.81543 -3.27161 0
M  V30 7258 H 683.087 7.45704 -2.27038 0
M  V30 7259 N 687.317 1.12792 1.10072 0
M  V30 7260 C 688.565 0.883796 1.81751 0
M  V30 7261 C 688.886 -0.591891 1.858 0
M  V30 7262 O 688.156 -1.43017 1.33876 0
M  V30 7263 H 686.736 0.323978 0.673088 0
M  V30 7264 H 689.398 1.42314 1.33164 0
M  V30 7265 H 688.494 1.26863 2.85153 0
M  V30 7266 N 688.795 -1.27931 0.920396 0
M  V30 7267 C 690.206 -1.76707 0.602616 0
M  V30 7268 C 690.557 -1.75249 -0.882159 0
M  V30 7269 O 689.682 -1.35135 -1.69019 0
M  V30 7270 C 690.277 -3.20884 1.08714 0
M  V30 7271 C 688.836 -3.67356 0.820157 0
M  V30 7272 C 687.983 -2.47525 1.25006 0
M  V30 7273 H 690.934 -1.14301 1.10095 0
M  V30 7274 H 690.955 -3.78045 0.431535 0
M  V30 7275 H 690.467 -3.21913 2.1678 0
M  V30 7276 H 688.568 -3.7178 -0.247012 0
M  V30 7277 H 688.681 -4.57181 1.43257 0
M  V30 7278 H 687.045 -2.45765 0.668698 0
M  V30 7279 H 687.828 -2.51269 2.3392 0
M  V30 7280 N 690.273 -0.685099 -1.4193 0
M  V30 7281 C 691.519 -0.211971 -2.01689 0
M  V30 7282 C 691.852 1.18189 -1.54094 0
M  V30 7283 O 691.127 1.79559 -0.747572 0
M  V30 7284 C 691.41 -0.258019 -3.59174 0
M  V30 7285 C 691.263 -1.68807 -4.16922 0
M  V30 7286 C 692.582 0.388044 -4.38386 0
M  V30 7287 H 689.701 -0.0784987 -0.732808 0
M  V30 7288 H 692.343 -0.871837 -1.68816 0
M  V30 7289 H 690.493 0.303832 -3.8731 0
M  V30 7290 H 692.165 -2.30296 -3.99702 0
M  V30 7291 H 690.408 -2.22553 -3.72361 0
M  V30 7292 H 691.079 -1.6719 -5.26072 0
M  V30 7293 H 693.555 -0.0903432 -4.16002 0
M  V30 7294 H 692.431 0.325232 -5.47936 0
M  V30 7295 H 692.692 1.4672 -4.17044 0
M  V30 7296 N 691.751 1.51645 -0.429126 0
M  V30 7297 C 692.714 2.26116 0.374726 0
M  V30 7298 C 693.714 1.29242 0.956714 0
M  V30 7299 O 694.904 1.53022 0.832452 0
M  V30 7300 C 692.036 3.04669 1.52937 0
M  V30 7301 H 693.229 2.9861 -0.277818 0
M  V30 7302 H 690.782 1.55236 -0.182097 0
M  V30 7303 H 691.517 2.36571 2.21821 0
M  V30 7304 H 691.302 3.75814 1.11833 0
M  V30 7305 H 692.792 3.61102 2.09751 0
M  V30 7306 N 693.229 0.160201 1.56784 0
M  V30 7307 C 694.475 -0.48831 1.96833 0
M  V30 7308 C 694.808 -1.63641 1.04571 0
M  V30 7309 O 694.083 -1.94289 0.0906481 0
M  V30 7310 C 694.366 -0.981908 3.46454 0
M  V30 7311 C 694.219 0.165607 4.49495 0
M  V30 7312 C 695.538 -1.85931 3.98896 0
M  V30 7313 H 692.657 -0.176027 0.71567 0
M  V30 7314 H 695.299 0.244093 1.88426 0
M  V30 7315 H 693.449 -1.60602 3.5375 0
M  V30 7316 H 695.121 0.802372 4.54268 0
M  V30 7317 H 693.364 0.822789 4.25926 0
M  V30 7318 H 694.035 -0.221699 5.51555 0
M  V30 7319 H 696.511 -1.33327 3.94161 0
M  V30 7320 H 695.387 -2.17373 5.04024 0
M  V30 7321 H 695.648 -2.80106 3.42042 0
M  V30 7322 N 694.707 -1.5719 -0.113559 0
M  V30 7323 C 695.956 -1.84325 -0.818984 0
M  V30 7324 C 696.269 -0.746685 -1.80787 0
M  V30 7325 O 697.475 -0.904596 -2.55987 0
M  V30 7326 C 695.931 -3.26818 -1.50724 0
M  V30 7327 C 695.539 -4.44498 -0.559065 0
M  V30 7328 C 697.283 -3.63196 -2.19748 0
M  V30 7329 C 695.19 -5.7802 -1.25086 0
M  V30 7330 H 694.12 -0.687507 -0.309596 0
M  V30 7331 H 696.771 -1.8336 -0.0717621 0
M  V30 7332 H 695.153 -3.22269 -2.30128 0
M  V30 7333 H 696.327 -4.60356 0.202146 0
M  V30 7334 H 694.642 -4.16393 0.024495 0
M  V30 7335 H 697.239 -4.60226 -2.72206 0
M  V30 7336 H 697.582 -2.90899 -2.97798 0
M  V30 7337 H 698.115 -3.69553 -1.47226 0
M  V30 7338 H 694.854 -6.53501 -0.511539 0
M  V30 7339 H 694.374 -5.66038 -1.98395 0
M  V30 7340 H 696.053 -6.2196 -1.78253 0
M  V30 7341 N 696.185 0.383891 -1.52853 0
M  V30 7342 C 697.41 1.154 -1.7233 0
M  V30 7343 C 697.835 1.82809 -0.44298 0
M  V30 7344 O 697.193 1.71026 0.601645 0
M  V30 7345 C 697.241 2.17386 -2.87708 0
M  V30 7346 O 696.345 3.24082 -2.55038 0
M  V30 7347 H 695.686 0.335709 -0.572883 0
M  V30 7348 H 698.216 0.44662 -1.99666 0
M  V30 7349 H 698.226 2.61296 -3.1335 0
M  V30 7350 H 696.901 1.6771 -3.80587 0
M  V30 7351 H 695.478 2.85273 -2.40153 0
M  V30 7352 N 697.663 1.43903 0.642637 0
M  V30 7353 C 698.911 1.45791 1.39962 0
M  V30 7354 C 699.232 0.0873144 1.94804 0
M  V30 7355 O 698.502 -0.878825 1.75081 0
M  V30 7356 H 697.082 0.536797 0.519479 0
M  V30 7357 H 699.744 1.7959 0.757189 0
M  V30 7358 H 698.84 2.17665 2.2367 0
M  V30 7359 N 699.141 -0.881989 1.30609 0
M  V30 7360 C 700.051 -2.02076 1.19174 0
M  V30 7361 C 701.067 -1.73645 0.11102 0
M  V30 7362 O 702.243 -1.98735 0.326528 0
M  V30 7363 C 699.308 -3.3515 0.887438 0
M  V30 7364 C 698.369 -3.76983 2.05383 0
M  V30 7365 C 697.602 -5.03707 1.76395 0
M  V30 7366 O 697.825 -5.66171 0.693302 0
M  V30 7367 O 696.759 -5.42019 2.61723 0
M  V30 7368 H 700.585 -2.14652 2.14845 0
M  V30 7369 H 698.17 -1.00843 1.10232 0
M  V30 7370 H 700.052 -4.14975 0.73306 0
M  V30 7371 H 698.727 -3.23676 -0.0393354 0
M  V30 7372 H 697.634 -2.97849 2.26355 0
M  V30 7373 H 698.967 -3.93066 2.96243 0
M  V30 7374 N 700.619 -1.13374 -1.09472 0
M  V30 7375 C 701.529 -0.824029 -2.19652 0
M  V30 7376 C 702.545 0.19118 -1.72947 0
M  V30 7377 O 703.721 0.0223464 -2.01388 0
M  V30 7378 C 700.786 -0.294009 -3.45451 0
M  V30 7379 C 699.847 -1.3704 -4.0684 0
M  V30 7380 C 699.08 -0.86558 -5.26634 0
M  V30 7381 O 699.303 0.29702 -5.69626 0
M  V30 7382 O 698.237 -1.63968 -5.79136 0
M  V30 7383 H 702.063 -1.74454 -2.48595 0
M  V30 7384 H 699.648 -0.911155 -1.18399 0
M  V30 7385 H 701.53 -0.00381039 -4.214 0
M  V30 7386 H 700.205 0.598921 -3.18111 0
M  V30 7387 H 699.112 -1.71391 -3.3253 0
M  V30 7388 H 700.445 -2.23746 -4.38405 0
M  V30 7389 N 702.098 1.27442 -0.927168 0
M  V30 7390 C 703.375 1.89473 -0.485742 0
M  V30 7391 C 703.755 1.83922 1.03614 0
M  V30 7392 O 703.103 1.28409 1.89007 0
M  V30 7393 C 703.313 3.33417 -1.03123 0
M  V30 7394 C 704.661 4.10333 -1.0914 0
M  V30 7395 O 705.685 3.4243 -0.98082 0
M  V30 7396 O 704.544 5.31737 -1.26165 0
M  V30 7397 H 701.638 0.812124 -0.156154 0
M  V30 7398 H 704.184 1.35713 -1.01882 0
M  V30 7399 H 702.956 3.31747 -2.07508 0
M  V30 7400 H 702.579 3.94695 -0.479767 0
M  V30 7401 N 703.576 0.692616 1.41565 0
M  V30 7402 C 704.801 0.229776 2.06123 0
M  V30 7403 C 705.226 -1.11119 1.5177 0
M  V30 7404 O 704.584 -1.69498 0.643444 0
M  V30 7405 C 704.632 0.19469 3.60074 0
M  V30 7406 O 703.736 -0.831366 4.03933 0
M  V30 7407 H 703.077 0.113002 0.654314 0
M  V30 7408 H 705.607 0.946645 1.81383 0
M  V30 7409 H 705.617 0.0245487 4.07993 0
M  V30 7410 H 704.292 1.17339 3.99004 0
M  V30 7411 H 702.869 -0.630819 3.67526 0
M  V30 7412 N 705.054 -1.51416 0.437162 0
M  V30 7413 C 706.017 -2.26312 -0.362729 0
M  V30 7414 C 707.017 -1.29748 -0.949847 0
M  V30 7415 O 708.207 -1.53462 -0.824325 0
M  V30 7416 C 705.339 -3.05475 -1.5132 0
M  V30 7417 H 706.532 -2.98459 0.29365 0
M  V30 7418 H 704.085 -1.55137 0.190327 0
M  V30 7419 H 704.82 -2.37744 -2.20563 0
M  V30 7420 H 704.605 -3.76401 -1.09838 0
M  V30 7421 H 706.095 -3.62209 -2.07833 0
M  V30 7422 N 706.532 -0.168513 -1.56696 0
M  V30 7423 C 707.757 0.486688 -2.01609 0
M  V30 7424 C 708.182 1.56203 -1.04796 0
M  V30 7425 O 707.54 1.8128 -0.0270596 0
M  V30 7426 C 707.588 1.04451 -3.45141 0
M  V30 7427 O 706.692 2.15862 -3.51393 0
M  V30 7428 H 706.033 0.116831 -0.653641 0
M  V30 7429 H 708.563 -0.271579 -2.0279 0
M  V30 7430 H 708.573 1.36782 -3.84389 0
M  V30 7431 H 707.248 0.257155 -4.15104 0
M  V30 7432 H 705.825 1.84597 -3.24004 0
M  V30 7433 N 708.01 1.57248 0.105221 0
M  V30 7434 C 709.421 1.74612 0.660865 0
M  V30 7435 C 709.772 0.789231 1.79626 0
M  V30 7436 O 708.897 -0.0346611 2.16372 0
M  V30 7437 C 709.492 3.16624 1.20559 0
M  V30 7438 C 708.051 3.35447 1.7074 0
M  V30 7439 C 707.198 2.70445 0.612764 0
M  V30 7440 H 710.149 1.5824 -0.12079 0
M  V30 7441 H 710.17 3.18937 2.07508 0
M  V30 7442 H 709.682 3.86245 0.379012 0
M  V30 7443 H 707.783 2.7089 2.5583 0
M  V30 7444 H 707.896 4.43702 1.80736 0
M  V30 7445 H 706.26 2.32061 1.04975 0
M  V30 7446 H 707.043 3.42699 -0.203066 0
M  V30 7447 N 709.488 -0.375779 1.53054 0
M  V30 7448 C 710.418 -1.46598 1.81745 0
M  V30 7449 C 711.399 -1.56337 0.670286 0
M  V30 7450 O 712.584 -1.71071 0.919158 0
M  V30 7451 C 709.714 -2.84058 1.99821 0
M  V30 7452 C 708.668 -2.8915 3.15557 0
M  V30 7453 C 707.994 -4.29187 3.18908 0
M  V30 7454 C 709.294 -2.57595 4.54359 0
M  V30 7455 H 710.988 -1.22837 2.73041 0
M  V30 7456 H 708.534 -0.589485 1.31381 0
M  V30 7457 H 710.487 -3.60342 2.18475 0
M  V30 7458 H 709.211 -3.09184 1.05226 0
M  V30 7459 H 707.87 -2.15316 2.96706 0
M  V30 7460 H 707.518 -4.51374 2.2197 0
M  V30 7461 H 707.218 -4.33512 3.96662 0
M  V30 7462 H 708.742 -5.07359 3.39734 0
M  V30 7463 H 710.156 -3.23595 4.73243 0
M  V30 7464 H 708.553 -2.73252 5.34279 0
M  V30 7465 H 709.623 -1.52882 4.60169 0
M  V30 7466 N 710.966 -1.44241 -0.634997 0
M  V30 7467 C 711.916 -1.47247 -1.74076 0
M  V30 7468 C 712.9 -0.338708 -1.57295 0
M  V30 7469 O 714.092 -0.583751 -1.67097 0
M  V30 7470 C 711.221 -1.41579 -3.12746 0
M  V30 7471 C 710.307 -2.60055 -3.35011 0
M  V30 7472 N 710.698 -3.85321 -3.27661 0
M  V30 7473 C 708.996 -2.55168 -3.65794 0
M  V30 7474 C 709.697 -4.64241 -3.50508 0
M  V30 7475 N 708.673 -3.95254 -3.73196 0
M  V30 7476 H 712.475 -2.4195 -1.66845 0
M  V30 7477 H 709.989 -1.3915 -0.837326 0
M  V30 7478 H 711.986 -1.41816 -3.92038 0
M  V30 7479 H 710.646 -0.479108 -3.21146 0
M  V30 7480 H 711.657 -4.17345 -3.06665 0
M  V30 7481 H 708.334 -1.70276 -3.81198 0
M  V30 7482 H 709.724 -5.73267 -3.50449 0
M  V30 7483 N 712.444 0.87505 -1.31075 0
M  V30 7484 C 713.394 1.96933 -1.14898 0
M  V30 7485 C 714.378 1.60783 -0.0613703 0
M  V30 7486 O 715.57 1.74678 -0.285751 0
M  V30 7487 C 712.699 3.3253 -0.853166 0
M  V30 7488 C 711.785 3.74963 -1.98151 0
M  V30 7489 N 712.176 3.89403 -3.22799 0
M  V30 7490 C 710.474 4.04436 -1.8801 0
M  V30 7491 C 711.175 4.25563 -3.96574 0
M  V30 7492 N 710.151 4.3597 -3.24701 0
M  V30 7493 H 713.953 2.06201 -2.09424 0
M  V30 7494 H 711.467 1.06551 -1.22558 0
M  V30 7495 H 713.464 4.10666 -0.718266 0
M  V30 7496 H 712.124 3.24592 0.0839218 0
M  V30 7497 H 713.135 3.74266 -3.57974 0
M  V30 7498 H 709.812 4.04915 -1.01733 0
M  V30 7499 H 711.202 4.44375 -5.03965 0
M  V30 7500 N 713.922 1.13953 1.08869 0
M  V30 7501 C 715.171 0.899431 1.80536 0
M  V30 7502 C 715.484 -0.575781 1.86933 0
M  V30 7503 O 716.69 -0.932988 2.54966 0
M  V30 7504 C 715.146 1.55963 3.24351 0
M  V30 7505 C 714.754 3.07077 3.26202 0
M  V30 7506 C 716.498 1.40046 4.00733 0
M  V30 7507 C 714.405 3.65955 4.64576 0
M  V30 7508 H 713.335 0.332849 0.676556 0
M  V30 7509 H 715.986 1.3679 1.22314 0
M  V30 7510 H 714.368 1.01883 3.82669 0
M  V30 7511 H 715.542 3.67785 2.77617 0
M  V30 7512 H 713.857 3.22576 2.63312 0
M  V30 7513 H 716.454 1.81441 5.02974 0
M  V30 7514 H 716.797 0.345993 4.1486 0
M  V30 7515 H 717.33 1.91137 3.48872 0
M  V30 7516 H 714.069 4.71234 4.55652 0
M  V30 7517 H 713.589 3.10027 5.13462 0
M  V30 7518 H 715.268 3.65968 5.33551 0
M  V30 7519 N 715.4 -1.26948 0.933913 0
M  V30 7520 C 716.348 -2.2862 0.428463 0
M  V30 7521 C 717.342 -1.62144 -0.490464 0
M  V30 7522 O 718.548 -1.76167 -0.36948 0
M  V30 7523 H 714.923 -0.742363 0.120003 0
M  V30 7524 H 716.894 -2.68659 1.29865 0
M  V30 7525 C 715.643 -3.46423 -0.29774 0
M  V30 7526 H 714.966 -3.97792 0.400183 0
M  V30 7527 H 716.406 -4.19505 -0.615736 0
M  V30 7528 C 714.865 -3.01017 -1.51295 0
M  V30 7529 O 715.395 -3.05226 -2.61151 0
M  V30 7530 N 713.601 -2.56442 -1.36696 0
M  V30 7531 H 713.148 -2.53217 -0.473178 0
M  V30 7532 H 713.106 -2.26424 -2.18127 0
M  V30 7533 N 716.879 -0.700114 -1.41195 0
M  V30 7534 C 717.829 -0.0144098 -2.27995 0
M  V30 7535 C 718.813 0.748249 -1.42443 0
M  V30 7536 O 720.005 0.622995 -1.65674 0
M  V30 7537 C 717.134 0.917938 -3.308 0
M  V30 7538 C 716.22 0.151286 -4.2383 0
M  V30 7539 N 716.611 -0.85732 -4.98481 0
M  V30 7540 C 714.909 0.386108 -4.44326 0
M  V30 7541 C 715.61 -1.31663 -5.66604 0
M  V30 7542 N 714.586 -0.641689 -5.39799 0
M  V30 7543 H 718.388 -0.787662 -2.83149 0
M  V30 7544 H 715.902 -0.531344 -1.53462 0
M  V30 7545 H 717.899 1.42437 -3.91813 0
M  V30 7546 H 716.559 1.69074 -2.77208 0
M  V30 7547 H 717.57 -1.2377 -5.02893 0
M  V30 7548 H 714.247 1.13644 -4.01735 0
M  V30 7549 H 715.637 -2.15384 -6.36443 0
M  V30 7550 N 718.357 1.51182 -0.445186 0
M  V30 7551 C 719.605 2.01753 0.11841 0
M  V30 7552 C 719.926 1.33087 1.42523 0
M  V30 7553 O 719.196 0.467891 1.9023 0
M  V30 7554 H 717.776 0.745536 0.0467492 0
M  V30 7555 H 720.438 1.85765 -0.589688 0
M  V30 7556 H 719.534 3.10762 0.288665 0
M  V30 7557 N 719.835 0.176821 1.56605 0
M  V30 7558 C 721.084 -0.466833 1.96223 0
M  V30 7559 C 721.397 -1.64015 1.06576 0
M  V30 7560 O 722.603 -2.3504 1.35898 0
M  V30 7561 C 721.059 -0.881921 3.48927 0
M  V30 7562 C 720.667 0.266102 4.47209 0
M  V30 7563 C 722.411 -1.49368 3.97353 0
M  V30 7564 C 720.318 -0.168923 5.91159 0
M  V30 7565 H 719.248 -0.178178 0.732645 0
M  V30 7566 H 721.899 0.265929 1.81563 0
M  V30 7567 H 720.281 -1.67082 3.59026 0
M  V30 7568 H 721.455 1.04349 4.4883 0
M  V30 7569 H 719.77 0.788178 4.08872 0
M  V30 7570 H 722.367 -1.8313 5.02362 0
M  V30 7571 H 722.71 -2.3936 3.40606 0
M  V30 7572 H 723.243 -0.769114 3.90294 0
M  V30 7573 H 719.982 0.696351 6.51791 0
M  V30 7574 H 719.502 -0.911552 5.92833 0
M  V30 7575 H 721.181 -0.610938 6.44109 0
M  V30 7576 N 721.313 -1.57302 -0.09688 0
M  V30 7577 C 722.541 -1.90202 -0.814295 0
M  V30 7578 C 722.956 -0.770344 -1.72369 0
M  V30 7579 O 722.313 0.257764 -1.8067 0
M  V30 7580 C 722.364 -3.22708 -1.62916 0
M  V30 7581 O 722.085 -4.31522 -0.756343 0
M  V30 7582 C 723.586 -3.69459 -2.44979 0
M  V30 7583 H 720.806 -0.629275 -0.232925 0
M  V30 7584 H 723.35 -2.04364 -0.0746482 0
M  V30 7585 H 721.505 -3.1015 -2.32133 0
M  V30 7586 H 721.919 -5.07604 -1.32054 0
M  V30 7587 H 723.393 -4.64875 -2.9765 0
M  V30 7588 H 723.87 -2.97211 -3.23361 0
M  V30 7589 H 724.476 -3.84879 -1.80964 0
M  V30 7590 N 722.791 0.367657 -1.53252 0
M  V30 7591 C 724.019 1.13119 -1.73239 0
M  V30 7592 C 724.434 1.831 -0.460404 0
M  V30 7593 O 723.791 1.73483 0.566557 0
M  V30 7594 C 723.842 2.16308 -2.89643 0
M  V30 7595 O 723.563 1.49175 -4.1192 0
M  V30 7596 C 725.064 3.05224 -3.21486 0
M  V30 7597 H 722.284 0.338318 -0.579467 0
M  V30 7598 H 724.828 0.42721 -1.99988 0
M  V30 7599 H 722.983 2.82307 -2.65295 0
M  V30 7600 H 723.397 2.17912 -4.7709 0
M  V30 7601 H 724.871 3.73613 -4.06346 0
M  V30 7602 H 725.348 3.69919 -2.36763 0
M  V30 7603 H 725.954 2.44843 -3.47753 0
M  V30 7604 N 724.269 1.44576 0.627338 0
M  V30 7605 C 725.68 1.42266 1.20902 0
M  V30 7606 C 726.031 0.139964 1.957 0
M  V30 7607 O 725.156 -0.759489 2.02634 0
M  V30 7608 C 725.751 2.57727 2.19914 0
M  V30 7609 C 724.31 2.58599 2.73502 0
M  V30 7610 C 723.457 2.34145 1.48564 0
M  V30 7611 H 726.408 1.53102 0.417791 0
M  V30 7612 H 726.429 2.30697 3.02588 0
M  V30 7613 H 725.941 3.51068 1.65447 0
M  V30 7614 H 724.042 1.6921 3.31962 0
M  V30 7615 H 724.155 3.57205 3.19282 0
M  V30 7616 H 722.519 1.83313 1.76829 0
M  V30 7617 H 723.302 3.29606 0.959935 0
M  V30 7618 N 725.747 -0.868086 1.31537 0
M  V30 7619 C 726.972 -1.65926 1.24432 0
M  V30 7620 C 727.397 -1.87169 -0.186936 0
M  V30 7621 O 726.755 -1.4148 -1.13371 0
M  V30 7622 C 726.803 -3.00347 1.9956 0
M  V30 7623 O 725.907 -3.90221 1.33422 0
M  V30 7624 H 725.248 -0.506375 0.429512 0
M  V30 7625 H 727.778 -1.0822 1.73637 0
M  V30 7626 H 727.788 -3.50269 2.09226 0
M  V30 7627 H 726.463 -2.84205 3.03645 0
M  V30 7628 H 725.04 -3.48672 1.32219 0
M  V30 7629 N 727.225 -1.14528 -1.08264 0
M  V30 7630 C 728.45 -0.938381 -1.84957 0
M  V30 7631 C 728.875 0.508044 -1.81109 0
M  V30 7632 O 728.233 1.36146 -1.19724 0
M  V30 7633 C 728.281 -1.44568 -3.30352 0
M  V30 7634 O 727.385 -0.638745 -4.07423 0
M  V30 7635 H 726.726 -0.335394 -0.573068 0
M  V30 7636 H 729.256 -1.52287 -1.36637 0
M  V30 7637 H 729.266 -1.45449 -3.81194 0
M  V30 7638 H 727.941 -2.49876 -3.32468 0
M  V30 7639 H 726.518 -0.698801 -3.66294 0
M  V30 7640 N 728.703 1.26451 -0.940633 0
M  V30 7641 C 729.633 2.28773 -0.467479 0
M  V30 7642 C 730.614 1.63218 0.478955 0
M  V30 7643 O 731.799 1.90427 0.380929 0
M  V30 7644 C 728.929 3.46259 0.268656 0
M  V30 7645 C 727.883 4.23898 -0.591171 0
M  V30 7646 C 727.209 5.33993 0.274891 0
M  V30 7647 C 728.509 4.87974 -1.86223 0
M  V30 7648 H 730.203 2.68601 -1.32265 0
M  V30 7649 H 727.749 1.29123 -0.637436 0
M  V30 7650 H 729.702 4.16951 0.610696 0
M  V30 7651 H 728.426 3.05383 1.15796 0
M  V30 7652 H 727.085 3.54969 -0.916098 0
M  V30 7653 H 726.733 4.89358 1.16353 0
M  V30 7654 H 726.433 5.86849 -0.297006 0
M  V30 7655 H 727.957 6.07523 0.612213 0
M  V30 7656 H 729.371 5.50883 -1.58747 0
M  V30 7657 H 727.768 5.50945 -2.37866 0
M  V30 7658 H 728.838 4.10945 -2.57394 0
M  V30 7659 N 730.181 0.707592 1.40822 0
M  V30 7660 C 731.458 0.171172 1.9485 0
M  V30 7661 C 731.838 -1.32143 1.64625 0
M  V30 7662 O 731.186 -2.07372 0.959647 0
M  V30 7663 C 731.396 0.475334 3.45748 0
M  V30 7664 C 732.744 0.409625 4.22619 0
M  V30 7665 O 733.768 0.410934 3.53822 0
M  V30 7666 O 732.627 0.380185 5.45176 0
M  V30 7667 H 729.721 0.022015 0.826707 0
M  V30 7668 H 732.267 0.784577 1.50474 0
M  V30 7669 H 731.039 1.50801 3.61075 0
M  V30 7670 H 730.662 -0.168439 3.97243 0
M  V30 7671 N 731.66 -1.50943 0.453197 0
M  V30 7672 C 732.623 -2.26684 -0.338705 0
M  V30 7673 C 733.623 -1.30748 -0.936032 0
M  V30 7674 O 734.813 -1.54327 -0.808002 0
M  V30 7675 C 731.945 -3.07063 -1.48071 0
M  V30 7676 H 733.138 -2.98131 0.325289 0
M  V30 7677 H 730.691 -1.54926 0.206771 0
M  V30 7678 H 731.426 -2.4007 -2.18029 0
M  V30 7679 H 731.211 -3.77545 -1.0584 0
M  V30 7680 H 732.701 -3.64393 -2.0398 0
M  V30 7681 N 733.138 -0.185124 -1.56509 0
M  V30 7682 C 734.386 0.455357 -1.96903 0
M  V30 7683 C 734.707 1.62839 -1.07277 0
M  V30 7684 O 733.977 1.95385 -0.141966 0
M  V30 7685 H 732.557 0.171218 -0.727113 0
M  V30 7686 H 735.219 -0.26953 -1.93027 0
M  V30 7687 H 734.315 0.80616 -3.01509 0
M  V30 7688 N 734.616 1.57351 0.0885366 0
M  V30 7689 C 736.027 1.75303 0.642308 0
M  V30 7690 C 736.378 0.808238 1.78779 0
M  V30 7691 O 735.503 -0.01171 2.16397 0
M  V30 7692 C 736.098 3.17885 1.17194 0
M  V30 7693 C 734.657 3.37239 1.67172 0
M  V30 7694 C 733.804 2.7108 0.584045 0
M  V30 7695 H 736.755 1.58103 -0.137567 0
M  V30 7696 H 736.776 3.2112 2.04114 0
M  V30 7697 H 736.288 3.86625 0.338024 0
M  V30 7698 H 734.389 2.73588 2.52943 0
M  V30 7699 H 734.502 4.45594 1.76019 0
M  V30 7700 H 732.866 2.33161 1.02508 0
M  V30 7701 H 733.649 3.42464 -0.239403 0
M  V30 7702 N 736.094 -0.359525 1.53444 0
M  V30 7703 C 737.371 -1.11756 1.6053 0
M  V30 7704 C 737.751 -2.06949 0.416587 0
M  V30 7705 O 737.099 -2.20681 -0.592628 0
M  V30 7706 C 737.309 -1.85133 2.95849 0
M  V30 7707 C 738.657 -2.3945 3.50641 0
M  V30 7708 O 739.681 -1.95251 2.97918 0
M  V30 7709 O 738.54 -3.20266 4.42823 0
M  V30 7710 H 735.634 -0.513005 0.648656 0
M  V30 7711 H 738.18 -0.362301 1.65787 0
M  V30 7712 H 736.952 -1.15694 3.73806 0
M  V30 7713 H 736.575 -2.67554 2.9411 0
M  V30 7714 N 737.572 -1.44907 -0.619662 0
M  V30 7715 C 738.8 -1.51795 -1.40591 0
M  V30 7716 C 739.215 -0.146553 -1.8823 0
M  V30 7717 O 738.572 0.849698 -1.61513 0
M  V30 7718 C 738.623 -2.49229 -2.61853 0
M  V30 7719 O 738.344 -3.81039 -2.16197 0
M  V30 7720 C 739.845 -2.65696 -3.54853 0
M  V30 7721 H 737.065 -0.514463 -0.430777 0
M  V30 7722 H 739.609 -1.8998 -0.756813 0
M  V30 7723 H 737.764 -2.14149 -3.2283 0
M  V30 7724 H 738.178 -4.33747 -2.94896 0
M  V30 7725 H 739.652 -3.37874 -4.36515 0
M  V30 7726 H 740.129 -1.71316 -4.0441 0
M  V30 7727 H 740.735 -3.01724 -2.99737 0
M  V30 7728 N 739.05 0.861098 -1.31996 0
M  V30 7729 C 740.296 1.61721 -1.22369 0
M  V30 7730 C 740.629 1.93 0.215587 0
M  V30 7731 O 739.904 1.56789 1.15098 0
M  V30 7732 C 740.187 2.9417 -2.07691 0
M  V30 7733 C 740.04 2.69714 -3.59965 0
M  V30 7734 C 741.359 3.95372 -1.93312 0
M  V30 7735 H 738.478 0.586822 -0.44588 0
M  V30 7736 H 741.12 0.994788 -1.61876 0
M  V30 7737 H 739.27 3.47292 -1.74128 0
M  V30 7738 H 740.942 2.23196 -4.03709 0
M  V30 7739 H 739.185 2.03789 -3.82952 0
M  V30 7740 H 739.856 3.63996 -4.14983 0
M  V30 7741 H 742.332 3.51487 -2.22701 0
M  V30 7742 H 741.208 4.85916 -2.55298 0
M  V30 7743 H 741.469 4.32865 -0.898922 0
M  V30 7744 N 740.528 1.15101 1.07655 0
M  V30 7745 C 741.774 0.925343 1.80458 0
M  V30 7746 C 742.107 -0.546354 1.86356 0
M  V30 7747 O 741.382 -1.40496 1.34503 0
M  V30 7748 C 741.665 1.53646 3.25676 0
M  V30 7749 C 741.518 3.07854 3.27942 0
M  V30 7750 C 742.837 1.21968 4.22861 0
M  V30 7751 H 739.956 0.337592 0.655134 0
M  V30 7752 H 742.598 1.42217 1.25993 0
M  V30 7753 H 740.748 1.11395 3.72187 0
M  V30 7754 H 742.42 3.58989 2.89697 0
M  V30 7755 H 740.663 3.41904 2.66991 0
M  V30 7756 H 741.334 3.45725 4.30324 0
M  V30 7757 H 743.81 1.5851 3.84726 0
M  V30 7758 H 742.686 1.67349 5.22767 0
M  V30 7759 H 742.947 0.136207 4.4189 0
M  V30 7760 N 742.006 -1.2595 0.947325 0
M  V30 7761 C 743.255 -1.92759 0.593887 0
M  V30 7762 C 743.568 -1.75083 -0.872093 0
M  V30 7763 O 744.774 -2.36401 -1.33518 0
M  V30 7764 C 743.23 -3.45395 1.01144 0
M  V30 7765 C 742.838 -3.71795 2.49946 0
M  V30 7766 C 744.582 -4.18173 0.730185 0
M  V30 7767 C 742.489 -5.17901 2.85539 0
M  V30 7768 H 741.419 -0.721676 0.218403 0
M  V30 7769 H 744.07 -1.4293 1.15079 0
M  V30 7770 H 742.452 -3.94143 0.383007 0
M  V30 7771 H 743.626 -3.33728 3.17746 0
M  V30 7772 H 741.941 -3.12263 2.75465 0
M  V30 7773 H 744.538 -5.25784 0.972367 0
M  V30 7774 H 744.881 -4.14964 -0.333223 0
M  V30 7775 H 745.414 -3.75309 1.31862 0
M  V30 7776 H 742.153 -5.26216 3.90867 0
M  V30 7777 H 741.673 -5.57042 2.22406 0
M  V30 7778 H 743.352 -5.8596 2.74336 0
M  V30 7779 N 743.484 -0.715051 -1.40445 0
M  V30 7780 C 744.732 -0.253826 -2.005 0
M  V30 7781 C 745.053 1.15681 -1.5698 0
M  V30 7782 O 744.323 1.78414 -0.809027 0
M  V30 7783 H 742.903 -0.0908537 -0.741454 0
M  V30 7784 H 745.565 -0.920561 -1.7179 0
M  V30 7785 H 744.661 -0.286499 -3.10782 0
M  V30 7786 N 744.962 1.50701 -0.461195 0
M  V30 7787 C 745.895 2.24948 0.383863 0
M  V30 7788 C 746.873 1.27851 1.00464 0
M  V30 7789 O 748.057 1.57049 1.04249 0
M  V30 7790 C 745.184 3.01818 1.537 0
M  V30 7791 C 744.23 4.13762 1.03457 0
M  V30 7792 S 745.063 5.35483 -0.0427485 0
M  V30 7793 C 746.219 6.15898 1.11449 0
M  V30 7794 H 746.452 2.96277 -0.246425 0
M  V30 7795 H 743.985 1.52428 -0.245961 0
M  V30 7796 H 745.943 3.467 2.19794 0
M  V30 7797 H 744.604 2.30034 2.13877 0
M  V30 7798 H 743.797 4.66914 1.89757 0
M  V30 7799 H 743.399 3.71265 0.4515 0
M  V30 7800 H 745.691 6.46431 2.02813 0
M  V30 7801 H 746.634 7.05359 0.622444 0
M  V30 7802 H 747.042 5.47777 1.36385 0
M  V30 7803 N 746.441 0.193421 1.56409 0
M  V30 7804 C 747.669 -0.451438 2.01915 0
M  V30 7805 C 748.084 -1.55306 1.07357 0
M  V30 7806 O 747.441 -1.82333 0.0781512 0
M  V30 7807 C 747.492 -1.00931 3.47124 0
M  V30 7808 O 747.213 0.0483623 4.38073 0
M  V30 7809 C 748.714 -1.73021 4.0814 0
M  V30 7810 H 745.934 -0.113495 0.661332 0
M  V30 7811 H 748.478 0.301636 2.02263 0
M  V30 7812 H 746.633 -1.71277 3.47481 0
M  V30 7813 H 747.047 -0.366644 5.23217 0
M  V30 7814 H 748.521 -2.07289 5.11601 0
M  V30 7815 H 748.998 -2.6333 3.51502 0
M  V30 7816 H 749.604 -1.07264 4.11551 0
M  V30 7817 N 747.919 -1.57396 -0.0801906 0
M  V30 7818 C 749.335 -1.53564 -0.434778 0
M  V30 7819 C 749.535 -0.912372 -1.79661 0
M  V30 7820 O 748.591 -0.511268 -2.4727 0
M  V30 7821 C 749.904 -2.98244 -0.383561 0
M  V30 7822 C 751.452 -3.09536 -0.46435 0
M  V30 7823 C 751.927 -4.55851 -0.443128 0
M  V30 7824 N 753.418 -4.60456 -0.503448 0
M  V30 7825 C 754.153 -5.71135 -0.509106 0
M  V30 7826 N 753.649 -6.91203 -0.47008 0
M  V30 7827 N 755.442 -5.59353 -0.555035 0
M  V30 7828 H 747.593 -1.96281 0.811635 0
M  V30 7829 H 749.856 -0.898041 0.303689 0
M  V30 7830 H 749.562 -3.47369 0.550236 0
M  V30 7831 H 749.436 -3.57705 -1.19694 0
M  V30 7832 H 751.823 -2.6039 -1.38857 0
M  V30 7833 H 751.904 -2.53 0.377445 0
M  V30 7834 H 751.548 -5.05653 0.477207 0
M  V30 7835 H 751.478 -5.10242 -1.30234 0
M  V30 7836 H 753.969 -3.74048 -0.538199 0
M  V30 7837 H 754.282 -7.7132 -0.478091 0
M  V30 7838 H 752.627 -6.93625 -0.436897 0
M  V30 7839 H 755.818 -4.64453 -0.583158 0
M  V30 7840 H 755.991 -6.4561 -0.555976 0
M  V30 7841 N 749.397 0.351382 -1.53633 0
M  V30 7842 C 750.646 1.08988 -1.69719 0
M  V30 7843 C 750.959 1.90043 -0.462948 0
M  V30 7844 O 752.165 2.66769 -0.504613 0
M  V30 7845 C 750.621 1.98691 -3.00083 0
M  V30 7846 C 750.229 1.22881 -4.30818 0
M  V30 7847 C 751.973 2.72446 -3.25536 0
M  V30 7848 C 749.88 2.11568 -5.52262 0
M  V30 7849 H 748.81 0.410588 -0.632403 0
M  V30 7850 H 751.461 0.349886 -1.80133 0
M  V30 7851 H 749.843 2.76478 -2.83506 0
M  V30 7852 H 751.017 0.500582 -4.58073 0
M  V30 7853 H 749.332 0.60928 -4.11918 0
M  V30 7854 H 751.929 3.39055 -4.13456 0
M  V30 7855 H 752.272 3.38588 -2.42206 0
M  V30 7856 H 752.805 2.01735 -3.42852 0
M  V30 7857 H 749.544 1.4998 -6.38111 0
M  V30 7858 H 749.064 2.82201 -5.29266 0
M  V30 7859 H 750.743 2.70802 -5.87601 0
M  V30 7860 N 750.875 1.45233 0.611969 0
M  V30 7861 C 752.286 1.4354 1.19387 0
M  V30 7862 C 752.637 0.160713 1.95541 0
M  V30 7863 O 751.762 -0.737954 2.03429 0
M  V30 7864 C 752.357 2.60045 2.17169 0
M  V30 7865 C 750.916 2.61486 2.70744 0
M  V30 7866 C 750.063 2.35708 1.46072 0
M  V30 7867 H 753.014 1.53536 0.401529 0
M  V30 7868 H 753.035 2.33893 3.00124 0
M  V30 7869 H 752.547 3.52803 1.61714 0
M  V30 7870 H 750.648 1.72721 3.30149 0
M  V30 7871 H 750.761 3.60572 3.15476 0
M  V30 7872 H 749.125 1.85178 1.74875 0
M  V30 7873 H 749.908 3.30606 0.924922 0
M  V30 7874 N 752.353 -0.854086 1.3245 0
M  V30 7875 C 753.599 -1.61069 1.23225 0
M  V30 7876 C 753.932 -1.93111 -0.205349 0
M  V30 7877 O 753.207 -1.57397 -1.14265 0
M  V30 7878 C 753.49 -2.93065 2.09249 0
M  V30 7879 C 753.343 -2.67801 3.6139 0
M  V30 7880 C 754.662 -3.94341 1.95406 0
M  V30 7881 H 751.781 -0.584449 0.448986 0
M  V30 7882 H 754.423 -0.986189 1.62402 0
M  V30 7883 H 752.573 -3.46364 1.75967 0
M  V30 7884 H 754.245 -2.21052 4.04887 0
M  V30 7885 H 752.488 -2.01756 3.84027 0
M  V30 7886 H 753.159 -3.6179 4.16907 0
M  V30 7887 H 755.635 -3.50301 2.24562 0
M  V30 7888 H 754.511 -4.84555 2.57872 0
M  V30 7889 H 754.772 -4.32382 0.921865 0
M  V30 7890 N 753.831 -1.1567 -1.07043 0
M  V30 7891 C 755.08 -0.928039 -1.79082 0
M  V30 7892 C 755.393 0.545968 -1.87826 0
M  V30 7893 O 756.599 0.892308 -2.56418 0
M  V30 7894 C 755.055 -1.61103 -3.21829 0
M  V30 7895 C 754.663 -3.12228 -3.21275 0
M  V30 7896 C 756.407 -1.46404 -3.98455 0
M  V30 7897 C 754.314 -3.733 -4.58695 0
M  V30 7898 H 753.244 -0.34357 -0.671175 0
M  V30 7899 H 755.895 -1.38718 -1.20123 0
M  V30 7900 H 754.277 -1.07958 -3.81 0
M  V30 7901 H 755.451 -3.72155 -2.71731 0
M  V30 7902 H 753.766 -3.26725 -2.58147 0
M  V30 7903 H 756.363 -1.8942 -5.00024 0
M  V30 7904 H 756.706 -0.41195 -4.14257 0
M  V30 7905 H 757.239 -1.96663 -3.45787 0
M  V30 7906 H 753.978 -4.78423 -4.48098 0
M  V30 7907 H 753.498 -3.18157 -5.08465 0
M  V30 7908 H 755.177 -3.7441 -5.27661 0
M  V30 7909 N 755.309 1.25446 -0.953992 0
M  V30 7910 C 756.219 2.29632 -0.480264 0
M  V30 7911 C 757.235 1.68025 0.452071 0
M  V30 7912 O 758.411 1.98703 0.328472 0
M  V30 7913 C 755.476 3.45903 0.234974 0
M  V30 7914 C 754.537 4.22953 -0.735495 0
M  V30 7915 C 753.77 5.33672 -0.0542957 0
M  V30 7916 O 753.993 5.58477 1.16018 0
M  V30 7917 O 752.927 5.9734 -0.739509 0
M  V30 7918 H 756.753 2.72242 -1.34602 0
M  V30 7919 H 754.338 1.30883 -0.720419 0
M  V30 7920 H 756.22 4.16552 0.637341 0
M  V30 7921 H 754.895 3.05296 1.07592 0
M  V30 7922 H 753.802 3.54734 -1.18806 0
M  V30 7923 H 755.135 4.67341 -1.54444 0
M  V30 7924 N 756.787 0.722489 1.40064 0
M  V30 7925 C 757.735 0.063329 2.32514 0
M  V30 7926 C 758.729 -0.73953 1.52405 0
M  V30 7927 O 759.935 -0.642122 1.68157 0
M  V30 7928 H 756.31 0.00167692 0.751998 0
M  V30 7929 H 758.281 0.859656 2.85749 0
M  V30 7930 C 757.03 -0.839219 3.3742 0
M  V30 7931 H 756.353 -0.230836 3.99133 0
M  V30 7932 H 757.793 -1.26827 4.04587 0
M  V30 7933 C 756.252 -1.96783 2.73456 0
M  V30 7934 O 756.782 -3.05933 2.60323 0
M  V30 7935 N 754.988 -1.75351 2.31734 0
M  V30 7936 H 754.535 -0.865787 2.42615 0
M  V30 7937 H 754.493 -2.51043 1.89275 0
M  V30 7938 N 758.265 -1.50454 0.469181 0
M  V30 7939 C 759.676 -1.86695 0.0136034 0
M  V30 7940 C 760.027 -1.38413 -1.39055 0
M  V30 7941 O 759.152 -0.748294 -2.03051 0
M  V30 7942 C 759.747 -3.38795 0.0179098 0
M  V30 7943 C 758.306 -3.74455 -0.382191 0
M  V30 7944 C 757.453 -2.74338 0.404207 0
M  V30 7945 H 760.404 -1.43225 0.683547 0
M  V30 7946 H 760.425 -3.72321 -0.78468 0
M  V30 7947 H 759.937 -3.73906 1.04 0
M  V30 7948 H 758.038 -3.44944 -1.4087 0
M  V30 7949 H 758.151 -4.79025 -0.084862 0
M  V30 7950 H 756.515 -2.54305 -0.141829 0
M  V30 7951 H 757.298 -3.12293 1.42577 0
M  V30 7952 N 759.743 -0.201713 -1.56304 0
M  V30 7953 C 760.675 0.748466 -2.16635 0
M  V30 7954 C 761.688 1.172 -1.12996 0
M  V30 7955 O 762.877 1.10658 -1.40061 0
M  V30 7956 C 759.977 2.02296 -2.719 0
M  V30 7957 C 759.15 1.75818 -4.00508 0
M  V30 7958 C 758.209 2.87779 -4.40533 0
M  V30 7959 O 757.235 2.57101 -5.07826 0
M  V30 7960 N 758.437 4.16287 -4.04581 0
M  V30 7961 H 761.202 0.232505 -2.98797 0
M  V30 7962 H 758.763 -0.0199822 -1.61888 0
M  V30 7963 H 760.755 2.7635 -2.95657 0
M  V30 7964 H 759.325 2.44996 -1.94154 0
M  V30 7965 H 758.545 0.855095 -3.84814 0
M  V30 7966 H 759.833 1.55532 -4.84445 0
M  V30 7967 H 759.231 4.44061 -3.50466 0
M  V30 7968 H 757.788 4.86946 -4.33274 0
M  V30 7969 N 761.222 1.57436 0.0718424 0
M  V30 7970 C 762.452 1.91196 0.782795 0
M  V30 7971 C 762.86 0.795927 1.71644 0
M  V30 7972 O 762.203 -0.239604 1.82131 0
M  V30 7973 C 762.265 3.20421 1.63005 0
M  V30 7974 C 761.929 4.48724 0.865782 0
M  V30 7975 C 762.926 5.19571 0.185051 0
M  V30 7976 C 760.611 4.95345 0.832971 0
M  V30 7977 C 762.605 6.3529 -0.518264 0
M  V30 7978 C 760.292 6.1097 0.125884 0
M  V30 7979 C 761.29 6.80794 -0.548533 0
M  V30 7980 O 760.978 7.94213 -1.24423 0
M  V30 7981 H 760.71 0.636486 0.227731 0
M  V30 7982 H 763.264 2.05348 0.0464187 0
M  V30 7983 H 761.494 3.02478 2.40923 0
M  V30 7984 H 763.183 3.39831 2.21968 0
M  V30 7985 H 763.949 4.8458 0.201707 0
M  V30 7986 H 759.828 4.40871 1.34737 0
M  V30 7987 H 763.372 6.89725 -1.04523 0
M  V30 7988 H 759.269 6.45411 0.107155 0
M  V30 7989 H 760.037 8.10331 -1.1535 0
M  V30 7990 N 762.7 -0.34323 1.53817 0
M  V30 7991 C 763.947 -1.08344 1.71079 0
M  V30 7992 C 764.275 -1.88633 0.474133 0
M  V30 7993 O 763.53 -1.87984 -0.544116 0
M  V30 7994 C 763.829 -2.05195 2.92626 0
M  V30 7995 C 763.495 -1.41215 4.28216 0
M  V30 7996 C 762.157 -1.23495 4.65083 0
M  V30 7997 C 764.509 -0.951273 5.12445 0
M  V30 7998 C 761.837 -0.583065 5.83796 0
M  V30 7999 C 764.189 -0.313292 6.31824 0
M  V30 8000 C 762.853 -0.123779 6.67385 0
M  V30 8001 H 762.123 -0.396458 0.626021 0
M  V30 8002 H 764.77 -0.362689 1.88034 0
M  V30 8003 H 763.075 -2.83653 2.70275 0
M  V30 8004 H 764.772 -2.62462 3.03175 0
M  V30 8005 H 761.362 -1.56005 3.992 0
M  V30 8006 H 765.546 -1.07602 4.84495 0
M  V30 8007 H 760.802 -0.424854 6.09922 0
M  V30 8008 H 764.976 0.0519179 6.96381 0
M  V30 8009 H 762.603 0.383398 7.59233 0
M  V30 8010 N 764.178 -1.45556 -0.604258 0
M  V30 8011 C 765.594 -1.30035 -0.925368 0
M  V30 8012 C 765.794 -0.255833 -1.99869 0
M  V30 8013 O 764.85 0.349076 -2.50075 0
M  V30 8014 C 766.163 -2.68028 -1.36314 0
M  V30 8015 C 767.711 -2.75951 -1.47717 0
M  V30 8016 C 768.186 -4.14476 -1.94868 0
M  V30 8017 N 769.677 -4.16787 -2.02097 0
M  V30 8018 C 770.412 -5.20845 -2.39809 0
M  V30 8019 N 769.908 -6.35246 -2.76467 0
M  V30 8020 N 771.701 -5.08204 -2.40177 0
M  V30 8021 H 763.852 -2.1214 0.10512 0
M  V30 8022 H 766.115 -0.947871 -0.0156303 0
M  V30 8023 H 765.821 -3.45667 -0.648628 0
M  V30 8024 H 765.695 -2.96711 -2.329 0
M  V30 8025 H 768.082 -1.98613 -2.18258 0
M  V30 8026 H 768.163 -2.50977 -0.494371 0
M  V30 8027 H 767.807 -4.923 -1.24912 0
M  V30 8028 H 767.737 -4.36843 -2.94068 0
M  V30 8029 H 770.228 -3.34233 -1.76343 0
M  V30 8030 H 770.541 -7.10438 -3.04134 0
M  V30 8031 H 768.886 -6.38642 -2.74155 0
M  V30 8032 H 772.077 -4.17874 -2.10947 0
M  V30 8033 H 772.25 -5.89417 -2.69242 0
M  V30 8034 N 765.656 0.84705 -1.32902 0
M  V30 8035 C 766.588 1.96308 -1.18304 0
M  V30 8036 C 767.601 1.62386 -0.116082 0
M  V30 8037 O 768.79 1.74713 -0.365751 0
M  V30 8038 C 765.89 3.29556 -0.790305 0
M  V30 8039 C 765.063 3.91668 -1.94717 0
M  V30 8040 C 764.122 5.0326 -1.53674 0
M  V30 8041 O 763.148 5.22847 -2.24989 0
M  V30 8042 N 764.35 5.78852 -0.437075 0
M  V30 8043 H 767.115 2.09369 -2.14441 0
M  V30 8044 H 764.676 1.02233 -1.25539 0
M  V30 8045 H 766.668 4.01624 -0.49799 0
M  V30 8046 H 765.238 3.12497 0.0801286 0
M  V30 8047 H 764.458 3.12292 -2.40557 0
M  V30 8048 H 765.746 4.299 -2.72146 0
M  V30 8049 H 765.144 5.65484 0.156316 0
M  V30 8050 H 763.701 6.51479 -0.204399 0
M  V30 8051 N 767.134 1.16236 1.06428 0
M  V30 8052 C 768.382 0.941171 1.78847 0
M  V30 8053 C 768.703 -0.53248 1.87589 0
M  V30 8054 O 767.973 -1.38686 1.38358 0
M  V30 8055 H 766.553 0.345228 0.66244 0
M  V30 8056 H 769.215 1.46479 1.28569 0
M  V30 8057 H 768.311 1.35871 2.80972 0
M  V30 8058 N 768.612 -1.24939 0.960631 0
M  V30 8059 C 769.562 -2.23388 0.456266 0
M  V30 8060 C 770.546 -1.54249 -0.45782 0
M  V30 8061 O 771.738 -1.7461 -0.289894 0
M  V30 8062 C 768.867 -3.42321 -0.259024 0
M  V30 8063 C 767.953 -4.18718 0.673478 0
M  V30 8064 N 768.344 -4.72394 1.8077 0
M  V30 8065 C 766.642 -4.43378 0.482859 0
M  V30 8066 C 767.343 -5.30316 2.3904 0
M  V30 8067 N 766.319 -5.17109 1.67629 0
M  V30 8068 H 770.121 -2.62499 1.32179 0
M  V30 8069 H 767.635 -1.40245 0.818851 0
M  V30 8070 H 769.632 -4.11997 -0.637527 0
M  V30 8071 H 768.292 -3.04732 -1.12108 0
M  V30 8072 H 769.303 -4.69345 2.18942 0
M  V30 8073 H 765.98 -4.16147 -0.335821 0
M  V30 8074 H 767.37 -5.82594 3.34715 0
M  V30 8075 N 770.09 -0.729906 -1.39679 0
M  V30 8076 C 771.038 -0.0756589 -2.32477 0
M  V30 8077 C 772.032 0.731438 -1.52795 0
M  V30 8078 O 773.238 0.633195 -1.68495 0
M  V30 8079 H 769.613 -0.00566492 -0.751979 0
M  V30 8080 H 771.584 -0.874797 -2.85289 0
M  V30 8081 C 770.333 0.821313 -3.37861 0
M  V30 8082 H 769.656 0.209666 -3.9925 0
M  V30 8083 H 771.096 1.24679 -4.05254 0
M  V30 8084 C 769.555 1.9533 -2.74495 0
M  V30 8085 O 770.085 3.04548 -2.61942 0
M  V30 8086 N 768.291 1.74119 -2.3266 0
M  V30 8087 H 767.838 0.852908 -2.4307 0
M  V30 8088 H 767.796 2.50036 -1.90603 0
M  V30 8089 N 771.568 1.50203 -0.477153 0
M  V30 8090 C 772.808 2.04265 0.0744065 0
M  V30 8091 C 773.172 1.35082 1.36443 0
M  V30 8092 O 774.373 1.79732 1.99875 0
M  V30 8093 C 772.644 3.56539 0.247874 0
M  V30 8094 S 774.203 4.32219 0.757117 0
M  V30 8095 H 771.021 0.71088 0.0130891 0
M  V30 8096 H 773.623 1.8453 -0.645678 0
M  V30 8097 H 772.327 4.04443 -0.696709 0
M  V30 8098 H 771.858 3.80638 0.993896 0
M  V30 8099 H 773.873 4.52789 2.0297 0
M  V30 8100 N 773.046 0.209999 1.56195 0
M  V30 8101 C 773.996 -0.717978 2.164 0
M  V30 8102 C 774.98 -1.16577 1.10899 0
M  V30 8103 O 776.172 -1.12169 1.3692 0
M  V30 8104 C 773.301 -1.93091 2.8385 0
M  V30 8105 C 772.387 -1.50333 3.96561 0
M  V30 8106 N 772.778 -0.787621 4.9963 0
M  V30 8107 C 771.076 -1.79151 4.08437 0
M  V30 8108 C 771.777 -0.571204 5.78889 0
M  V30 8109 N 770.753 -1.12444 5.31843 0
M  V30 8110 H 774.555 -0.162603 2.9345 0
M  V30 8111 H 772.069 0.0107928 1.62396 0
M  V30 8112 H 774.066 -2.60635 3.25384 0
M  V30 8113 H 772.726 -2.49087 2.08293 0
M  V30 8114 H 773.737 -0.441513 5.16015 0
M  V30 8115 H 770.414 -2.36549 3.44022 0
M  V30 8116 H 771.804 -0.00237941 6.719 0
M  V30 8117 N 774.524 -1.57472 -0.0634922 0
M  V30 8118 C 775.471 -2.04258 -1.07457 0
M  V30 8119 C 776.441 -0.924804 -1.37973 0
M  V30 8120 O 777.626 -1.19305 -1.48899 0
M  V30 8121 C 774.766 -2.49832 -2.38071 0
M  V30 8122 C 773.879 -3.75263 -2.14014 0
M  V30 8123 C 773.014 -4.09585 -3.38251 0
M  V30 8124 C 772.053 -5.28032 -3.09594 0
M  V30 8125 N 771.19 -5.57953 -4.26185 0
M  V30 8126 H 776.03 -2.90402 -0.668626 0
M  V30 8127 H 773.567 -1.43609 -0.318572 0
M  V30 8128 H 775.525 -2.7431 -3.14341 0
M  V30 8129 H 774.155 -1.66654 -2.76453 0
M  V30 8130 H 773.207 -3.58075 -1.28399 0
M  V30 8131 H 774.519 -4.61667 -1.88852 0
M  V30 8132 H 773.673 -4.35008 -4.2291 0
M  V30 8133 H 772.412 -3.21765 -3.66495 0
M  V30 8134 H 771.417 -5.02397 -2.23332 0
M  V30 8135 H 772.642 -6.17477 -2.82663 0
M  V30 8136 H 770.588 -4.73092 -4.54445 0
M  V30 8137 H 770.505 -6.38793 -4.04326 0
M  V30 8138 H 771.773 -5.87931 -5.11817 0
M  V30 8139 N 776.003 0.335068 -1.53997 0
M  V30 8140 C 777.414 0.910191 -1.6301 0
M  V30 8141 C 777.765 1.89271 -0.516809 0
M  V30 8142 O 776.89 2.13516 0.352123 0
M  V30 8143 C 777.485 1.65761 -2.9548 0
M  V30 8144 C 776.044 2.18163 -3.06728 0
M  V30 8145 C 775.191 1.00338 -2.5851 0
M  V30 8146 H 778.142 0.112965 -1.58297 0
M  V30 8147 H 778.163 2.52107 -2.84995 0
M  V30 8148 H 777.675 0.94227 -3.76488 0
M  V30 8149 H 775.776 2.92847 -2.30372 0
M  V30 8150 H 775.889 2.43952 -4.1234 0
M  V30 8151 H 774.253 1.37925 -2.14124 0
M  V30 8152 H 775.036 0.30254 -3.41964 0
M  V30 8153 N 777.481 1.45874 0.596531 0
M  V30 8154 C 778.758 1.40942 1.35627 0
M  V30 8155 C 779.138 0.0857066 2.10926 0
M  V30 8156 O 778.486 -0.932544 2.08605 0
M  V30 8157 C 778.696 2.63027 2.29386 0
M  V30 8158 C 780.044 3.08588 2.91649 0
M  V30 8159 O 781.068 2.63478 2.39704 0
M  V30 8160 O 779.927 3.86902 3.85965 0
M  V30 8161 H 777.021 0.559838 0.608696 0
M  V30 8162 H 779.567 1.5802 0.618698 0
M  V30 8163 H 778.339 3.5094 1.7308 0
M  V30 8164 H 777.962 2.48338 3.10506 0
M  V30 8165 N 778.959 -0.83999 1.33349 0
M  V30 8166 C 780.187 -1.62728 1.27778 0
M  V30 8167 C 780.602 -1.88191 -0.151505 0
M  V30 8168 O 779.959 -1.46128 -1.09329 0
M  V30 8169 C 780.01 -2.97813 2.04913 0
M  V30 8170 O 779.731 -2.73469 3.42266 0
M  V30 8171 C 781.232 -3.92245 2.0654 0
M  V30 8172 H 778.452 -0.506374 0.440257 0
M  V30 8173 H 780.996 -1.04637 1.75703 0
M  V30 8174 H 779.151 -3.52509 1.60674 0
M  V30 8175 H 779.565 -3.59483 3.81932 0
M  V30 8176 H 781.039 -4.84249 2.64966 0
M  V30 8177 H 781.516 -4.26332 1.05537 0
M  V30 8178 H 782.122 -3.43487 2.50793 0
M  V30 8179 N 780.437 -1.16799 -1.0581 0
M  V30 8180 C 781.667 -0.975454 -1.82122 0
M  V30 8181 C 782.075 0.479584 -1.83021 0
M  V30 8182 O 781.418 1.34471 -1.25153 0
M  V30 8183 C 781.48 -1.43209 -3.29744 0
M  V30 8184 C 781.144 -2.908 -3.5254 0
M  V30 8185 C 782.141 -3.88775 -3.45181 0
M  V30 8186 C 779.826 -3.28832 -3.79703 0
M  V30 8187 C 781.82 -5.22782 -3.64661 0
M  V30 8188 C 779.507 -4.63007 -3.98832 0
M  V30 8189 C 780.505 -5.59791 -3.91309 0
M  V30 8190 O 780.193 -6.9154 -4.09911 0
M  V30 8191 H 779.925 -0.345655 -0.580947 0
M  V30 8192 H 782.479 -1.55355 -1.34365 0
M  V30 8193 H 780.709 -0.797504 -3.78387 0
M  V30 8194 H 782.398 -1.2062 -3.87564 0
M  V30 8195 H 783.164 -3.60738 -3.2418 0
M  V30 8196 H 779.043 -2.54073 -3.84666 0
M  V30 8197 H 782.587 -5.98312 -3.58705 0
M  V30 8198 H 778.484 -4.90752 -4.19324 0
M  V30 8199 H 779.252 -6.98188 -4.27172 0
M  V30 8200 N 781.915 1.24427 -0.967243 0
M  V30 8201 C 783.161 1.92772 -0.629812 0
M  V30 8202 C 783.494 1.75436 0.832827 0
M  V30 8203 O 782.769 1.10716 1.59913 0
M  V30 8204 C 783.052 3.45798 -1.00477 0
M  V30 8205 C 782.905 3.72304 -2.52407 0
M  V30 8206 C 784.224 4.36787 -0.538999 0
M  V30 8207 H 781.343 0.700099 -0.230282 0
M  V30 8208 H 783.985 1.46805 -1.20616 0
M  V30 8209 H 782.135 3.8508 -0.514336 0
M  V30 8210 H 783.807 3.42584 -3.08924 0
M  V30 8211 H 782.05 3.17472 -2.95625 0
M  V30 8212 H 782.721 4.7937 -2.73693 0
M  V30 8213 H 785.197 4.04877 -0.959874 0
M  V30 8214 H 784.073 5.4259 -0.829926 0
M  V30 8215 H 784.334 4.38527 0.560923 0
M  V30 8216 N 783.393 0.737304 1.3929 0
M  V30 8217 C 784.325 0.0592106 2.29124 0
M  V30 8218 C 785.338 -0.701026 1.46934 0
M  V30 8219 O 786.527 -0.544808 1.69983 0
M  V30 8220 C 783.627 -0.940358 3.25592 0
M  V30 8221 C 782.8 -0.241163 4.36735 0
M  V30 8222 C 781.859 -1.14916 5.13498 0
M  V30 8223 O 780.885 -0.625783 5.6575 0
M  V30 8224 N 782.087 -2.47869 5.2492 0
M  V30 8225 H 784.852 0.830647 2.87959 0
M  V30 8226 H 782.413 0.586718 1.50895 0
M  V30 8227 H 784.405 -1.55046 3.73822 0
M  V30 8228 H 782.975 -1.61299 2.67771 0
M  V30 8229 H 782.195 0.549441 3.90352 0
M  V30 8230 H 783.483 0.243299 5.08218 0
M  V30 8231 H 782.881 -2.92864 4.83991 0
M  V30 8232 H 781.438 -3.03969 5.76581 0
M  V30 8233 N 784.871 -1.49948 0.485112 0
M  V30 8234 C 785.821 -2.25734 -0.320658 0
M  V30 8235 C 786.805 -1.29907 -0.949373 0
M  V30 8236 O 787.997 -1.54725 -0.859601 0
M  V30 8237 C 785.126 -3.13728 -1.39391 0
M  V30 8238 C 784.212 -4.1701 -0.772225 0
M  V30 8239 N 784.603 -5.05667 0.115782 0
M  V30 8240 C 782.901 -4.33834 -1.03461 0
M  V30 8241 C 783.602 -5.79798 0.47004 0
M  V30 8242 N 782.578 -5.4337 -0.158204 0
M  V30 8243 H 786.38 -2.91647 0.36319 0
M  V30 8244 H 783.894 -1.59602 0.300154 0
M  V30 8245 H 785.891 -3.66639 -1.98447 0
M  V30 8246 H 784.551 -2.49365 -2.0796 0
M  V30 8247 H 785.562 -5.15619 0.485557 0
M  V30 8248 H 782.239 -3.80684 -1.71424 0
M  V30 8249 H 783.629 -6.61177 1.19558 0
M  V30 8250 N 786.349 -0.21828 -1.56081 0
M  V30 8251 C 787.598 0.414644 -1.97392 0
M  V30 8252 C 787.911 1.61132 -1.10887 0
M  V30 8253 O 789.117 2.31355 -1.42082 0
M  V30 8254 C 787.573 0.789099 -3.51143 0
M  V30 8255 C 787.181 -0.384578 -4.46346 0
M  V30 8256 C 788.925 1.38781 -4.01173 0
M  V30 8257 C 786.832 0.0121288 -5.91399 0
M  V30 8258 H 785.762 0.158691 -0.737111 0
M  V30 8259 H 788.413 -0.313974 -1.80794 0
M  V30 8260 H 786.795 1.57505 -3.6333 0
M  V30 8261 H 787.969 -1.16212 -4.45905 0
M  V30 8262 H 786.284 -0.896306 -4.06639 0
M  V30 8263 H 788.881 1.69746 -5.07041 0
M  V30 8264 H 789.224 2.30245 -3.46833 0
M  V30 8265 H 789.757 0.665364 -3.92196 0
M  V30 8266 H 786.496 -0.868917 -6.49715 0
M  V30 8267 H 786.016 0.754053 -5.95041 0
M  V30 8268 H 787.695 0.439949 -6.45502 0
M  V30 8269 N 787.827 1.57504 0.0551401 0
M  V30 8270 C 788.774 2.04825 1.06373 0
M  V30 8271 C 789.744 0.932108 1.37481 0
M  V30 8272 O 790.929 1.20093 1.48265 0
M  V30 8273 C 788.069 2.51091 2.36743 0
M  V30 8274 C 787.182 3.76392 2.12021 0
M  V30 8275 C 786.317 4.11373 3.36074 0
M  V30 8276 C 785.356 5.29666 3.0679 0
M  V30 8277 N 784.493 5.60205 4.2322 0
M  V30 8278 H 789.333 2.90753 0.653216 0
M  V30 8279 H 786.87 1.43776 0.310951 0
M  V30 8280 H 788.828 2.75973 3.12881 0
M  V30 8281 H 787.458 1.68118 2.75565 0
M  V30 8282 H 786.51 3.58751 1.26498 0
M  V30 8283 H 787.822 4.62662 1.86401 0
M  V30 8284 H 786.976 4.37245 4.20597 0
M  V30 8285 H 785.715 3.23704 3.64784 0
M  V30 8286 H 784.72 5.03574 2.20664 0
M  V30 8287 H 785.945 6.18968 2.79385 0
M  V30 8288 H 783.891 4.75495 4.5193 0
M  V30 8289 H 783.808 6.40928 4.00933 0
M  V30 8290 H 785.076 5.90637 5.08692 0
M  V30 8291 N 789.305 -0.326896 1.54172 0
M  V30 8292 C 790.721 -0.671034 1.44808 0
M  V30 8293 C 790.921 -1.91781 0.618258 0
M  V30 8294 O 789.977 -2.52235 0.115751 0
M  V30 8295 C 791.29 -0.848147 2.88491 0
M  V30 8296 C 792.838 -0.945702 2.98371 0
M  V30 8297 C 793.313 -1.15501 4.43197 0
M  V30 8298 N 794.804 -1.22183 4.46795 0
M  V30 8299 C 795.539 -1.4016 5.56006 0
M  V30 8300 N 795.035 -1.55202 6.75192 0
M  V30 8301 N 796.828 -1.42841 5.43648 0
M  V30 8302 H 788.979 0.49262 2.06608 0
M  V30 8303 H 791.242 0.158574 0.934643 0
M  V30 8304 H 790.948 -0.00329969 3.517 0
M  V30 8305 H 790.822 -1.74497 3.34411 0
M  V30 8306 H 793.209 -1.78106 2.35292 0
M  V30 8307 H 793.29 -0.0254215 2.55787 0
M  V30 8308 H 792.934 -0.324521 5.06862 0
M  V30 8309 H 792.864 -2.08911 4.83388 0
M  V30 8310 H 795.355 -1.12016 3.60917 0
M  V30 8311 H 795.668 -1.68601 7.54184 0
M  V30 8312 H 794.013 -1.52306 6.78106 0
M  V30 8313 H 797.204 -1.30683 4.49488 0
M  V30 8314 H 797.377 -1.56509 6.28816 0
M  V30 8315 N 790.784 -1.46188 -0.588786 0
M  V30 8316 C 792.2 -1.31009 -0.911524 0
M  V30 8317 C 792.4 -0.277017 -1.99587 0
M  V30 8318 O 791.456 0.322532 -2.50432 0
M  V30 8319 C 792.769 -2.69459 -1.33463 0
M  V30 8320 C 794.317 -2.77502 -1.44782 0
M  V30 8321 C 794.792 -4.1652 -1.90461 0
M  V30 8322 N 796.283 -4.18907 -1.97665 0
M  V30 8323 C 797.018 -5.23359 -2.34271 0
M  V30 8324 N 796.514 -6.38143 -2.69714 0
M  V30 8325 N 798.307 -5.10723 -2.34774 0
M  V30 8326 H 790.458 -2.12016 0.127614 0
M  V30 8327 H 792.721 -0.947984 -0.00557599 0
M  V30 8328 H 792.427 -3.46336 -0.611929 0
M  V30 8329 H 792.301 -2.99165 -2.2974 0
M  V30 8330 H 794.688 -2.00917 -2.1614 0
M  V30 8331 H 794.769 -2.51488 -0.467724 0
M  V30 8332 H 794.413 -4.93597 -1.19684 0
M  V30 8333 H 794.343 -4.39937 -2.89418 0
M  V30 8334 H 796.834 -3.36084 -1.72789 0
M  V30 8335 H 797.147 -7.13624 -2.96582 0
M  V30 8336 H 795.492 -6.41514 -2.67366 0
M  V30 8337 H 798.683 -4.20088 -2.06503 0
M  V30 8338 H 798.856 -5.9224 -2.62975 0
M  V30 8339 N 792.262 0.832906 -1.33792 0
M  V30 8340 C 793.539 1.57359 -1.16178 0
M  V30 8341 C 793.919 2.09372 0.269532 0
M  V30 8342 O 793.267 1.89993 1.26944 0
M  V30 8343 C 793.477 2.70279 -2.20795 0
M  V30 8344 C 794.825 3.39305 -2.55259 0
M  V30 8345 O 795.849 2.80526 -2.19508 0
M  V30 8346 O 794.708 4.45428 -3.16632 0
M  V30 8347 H 791.802 0.694025 -0.449731 0
M  V30 8348 H 794.348 0.875144 -1.45394 0
M  V30 8349 H 793.12 2.29527 -3.16911 0
M  V30 8350 H 792.743 3.47782 -1.927 0
M  V30 8351 N 793.74 1.17359 1.05189 0
M  V30 8352 C 794.989 0.956412 1.77583 0
M  V30 8353 C 795.302 -0.516018 1.88671 0
M  V30 8354 O 796.508 -0.851401 2.57805 0
M  V30 8355 C 794.964 1.66203 3.19225 0
M  V30 8356 C 794.572 3.17299 3.16267 0
M  V30 8357 C 796.316 1.52725 3.96075 0
M  V30 8358 C 794.223 3.8055 4.52698 0
M  V30 8359 H 793.153 0.354204 0.665624 0
M  V30 8360 H 795.804 1.40612 1.17901 0
M  V30 8361 H 794.186 1.14006 3.79234 0
M  V30 8362 H 795.36 3.76431 2.65776 0
M  V30 8363 H 793.675 3.3079 2.52917 0
M  V30 8364 H 796.272 1.97351 4.96947 0
M  V30 8365 H 796.615 0.477803 4.13549 0
M  V30 8366 H 797.148 2.02139 3.42614 0
M  V30 8367 H 793.887 4.85492 4.4043 0
M  V30 8368 H 793.407 3.26206 5.03339 0
M  V30 8369 H 795.086 3.82757 5.21638 0
M  V30 8370 N 795.218 -1.23913 0.973828 0
M  V30 8371 C 796.464 -1.92436 0.640026 0
M  V30 8372 C 796.797 -1.75875 -0.823512 0
M  V30 8373 O 796.072 -1.11563 -1.59323 0
M  V30 8374 C 796.355 -3.4526 1.0231 0
M  V30 8375 C 796.208 -3.70961 2.54378 0
M  V30 8376 C 797.527 -4.36495 0.562155 0
M  V30 8377 H 794.646 -0.698868 0.233992 0
M  V30 8378 H 797.288 -1.46163 1.21393 0
M  V30 8379 H 795.438 -3.84802 0.534751 0
M  V30 8380 H 797.11 -3.40941 3.10737 0
M  V30 8381 H 795.353 -3.15899 2.97305 0
M  V30 8382 H 796.024 -4.77912 2.76232 0
M  V30 8383 H 798.5 -4.04363 0.981333 0
M  V30 8384 H 797.376 -5.42142 0.858689 0
M  V30 8385 H 797.637 -4.38818 -0.537659 0
M  V30 8386 N 796.696 -0.74468 -1.38897 0
M  V30 8387 C 797.626 -0.126355 -2.33158 0
M  V30 8388 C 798.607 0.713517 -1.54412 0
M  V30 8389 O 799.792 0.656523 -1.82766 0
M  V30 8390 C 796.922 0.774375 -3.38557 0
M  V30 8391 C 795.876 0.0379214 -4.27983 0
M  V30 8392 C 795.202 1.05631 -5.24162 0
M  V30 8393 C 796.502 -1.12523 -5.10035 0
M  V30 8394 H 798.196 -0.913744 -2.85116 0
M  V30 8395 H 795.742 -0.440847 -1.37086 0
M  V30 8396 H 797.695 1.21655 -4.03458 0
M  V30 8397 H 796.419 1.59399 -2.85061 0
M  V30 8398 H 795.078 -0.384733 -3.64576 0
M  V30 8399 H 794.726 1.86975 -4.66958 0
M  V30 8400 H 794.426 0.568261 -5.84846 0
M  V30 8401 H 795.95 1.49799 -5.9194 0
M  V30 8402 H 797.364 -0.761037 -5.68226 0
M  V30 8403 H 795.761 -1.54355 -5.79909 0
M  V30 8404 H 796.831 -1.94237 -4.44297 0
M  V30 8405 N 798.174 1.49689 -0.493057 0
M  V30 8406 C 799.121 2.28976 0.28959 0
M  V30 8407 C 800.091 1.35011 0.967536 0
M  V30 8408 O 801.276 1.63964 0.975736 0
M  V30 8409 C 798.416 3.1748 1.35279 0
M  V30 8410 C 797.529 4.26496 0.687418 0
M  V30 8411 C 796.664 5.02226 1.73038 0
M  V30 8412 C 795.703 6.03089 1.04645 0
M  V30 8413 N 794.84 6.72014 2.03325 0
M  V30 8414 H 799.68 2.954 -0.392798 0
M  V30 8415 H 797.217 1.45657 -0.205554 0
M  V30 8416 H 799.175 3.67162 1.98111 0
M  V30 8417 H 797.805 2.53057 2.00405 0
M  V30 8418 H 796.857 3.80362 -0.0540001 0
M  V30 8419 H 798.169 4.98578 0.14864 0
M  V30 8420 H 797.323 5.55737 2.43395 0
M  V30 8421 H 796.062 4.29899 2.303 0
M  V30 8422 H 795.067 5.48817 0.328606 0
M  V30 8423 H 796.292 6.77398 0.480428 0
M  V30 8424 H 794.238 6.02464 2.59564 0
M  V30 8425 H 794.155 7.40046 1.54492 0
M  V30 8426 H 795.423 7.30133 2.72995 0
M  V30 8427 N 799.652 0.226554 1.55963 0
M  V30 8428 C 801.068 -0.128733 1.5908 0
M  V30 8429 C 801.268 -1.58558 1.24345 0
M  V30 8430 O 800.324 -2.32661 0.981069 0
M  V30 8431 C 801.637 0.202076 3.0002 0
M  V30 8432 C 803.185 0.144718 3.12665 0
M  V30 8433 C 803.66 0.449272 4.55791 0
M  V30 8434 N 805.151 0.399026 4.61478 0
M  V30 8435 C 805.886 0.608106 5.70166 0
M  V30 8436 N 805.382 0.879227 6.87198 0
M  V30 8437 N 807.175 0.5402 5.59498 0
M  V30 8438 H 799.326 1.17686 1.76816 0
M  V30 8439 H 801.589 0.472072 0.822102 0
M  V30 8440 H 801.295 1.21341 3.30105 0
M  V30 8441 H 801.169 -0.480554 3.74126 0
M  V30 8442 H 803.556 -0.857261 2.82374 0
M  V30 8443 H 803.637 0.860899 2.40878 0
M  V30 8444 H 803.281 1.44871 4.86801 0
M  V30 8445 H 803.211 -0.288157 5.25811 0
M  V30 8446 H 805.702 0.197372 3.77384 0
M  V30 8447 H 806.015 1.02673 7.65949 0
M  V30 8448 H 804.36 0.916477 6.88931 0
M  V30 8449 H 807.551 0.328581 4.66945 0
M  V30 8450 H 807.724 0.706548 6.44137 0
M  V30 8451 N 801.13 -1.57531 -0.0467866 0
M  V30 8452 C 802.04 -2.08768 -1.07018 0
M  V30 8453 C 803.056 -1.02245 -1.40791 0
M  V30 8454 O 804.232 -1.33873 -1.50466 0
M  V30 8455 C 801.297 -2.54221 -2.35738 0
M  V30 8456 C 800.358 -3.75152 -2.08709 0
M  V30 8457 C 799.591 -4.18428 -3.31291 0
M  V30 8458 O 799.814 -3.61365 -4.4133 0
M  V30 8459 O 798.748 -5.11018 -3.18032 0
M  V30 8460 H 802.574 -2.96334 -0.664812 0
M  V30 8461 H 800.159 -1.47074 -0.262605 0
M  V30 8462 H 802.041 -2.83866 -3.11445 0
M  V30 8463 H 800.716 -1.69774 -2.75605 0
M  V30 8464 H 799.623 -3.50553 -1.30627 0
M  V30 8465 H 800.956 -4.60528 -1.73708 0
M  V30 8466 N 802.608 0.318715 -1.54344 0
M  V30 8467 C 803.538 1.39751 -1.87061 0
M  V30 8468 C 804.519 1.53741 -0.727848 0
M  V30 8469 O 805.704 1.67541 -0.982016 0
M  V30 8470 C 802.834 2.76446 -2.10226 0
M  V30 8471 C 801.788 2.77239 -3.26071 0
M  V30 8472 C 801.114 4.17056 -3.34617 0
M  V30 8473 C 802.414 2.40555 -4.63606 0
M  V30 8474 H 804.108 1.12619 -2.77412 0
M  V30 8475 H 801.654 0.540318 -1.33479 0
M  V30 8476 H 803.607 3.51985 -2.31699 0
M  V30 8477 H 802.331 3.05066 -1.16629 0
M  V30 8478 H 800.99 2.04155 -3.04493 0
M  V30 8479 H 800.638 4.42824 -2.3857 0
M  V30 8480 H 800.338 4.18492 -4.12478 0
M  V30 8481 H 801.862 4.94401 -3.5833 0
M  V30 8482 H 803.276 3.05808 -4.84927 0
M  V30 8483 H 801.673 2.53234 -5.44052 0
M  V30 8484 H 802.743 1.35698 -4.65526 0
M  V30 8485 N 804.086 1.46499 0.581025 0
M  V30 8486 C 805.334 1.51596 1.33653 0
M  V30 8487 C 805.655 0.169859 1.94259 0
M  V30 8488 O 804.925 -0.803776 1.78651 0
M  V30 8489 H 803.505 0.558346 0.496244 0
M  V30 8490 H 806.167 1.8264 0.680338 0
M  V30 8491 H 805.263 2.26956 2.14237 0
M  V30 8492 N 805.565 -0.825799 1.34232 0
M  V30 8493 C 806.475 -1.9684 1.27638 0
M  V30 8494 C 807.491 -1.73018 0.184569 0
M  V30 8495 O 808.667 -1.97172 0.410525 0
M  V30 8496 C 805.732 -3.31084 1.02879 0
M  V30 8497 C 804.793 -3.67933 2.21188 0
M  V30 8498 C 804.026 -4.95772 1.976 0
M  V30 8499 O 804.249 -5.62721 0.93281 0
M  V30 8500 O 803.183 -5.30431 2.84477 0
M  V30 8501 H 807.009 -2.05346 2.23756 0
M  V30 8502 H 804.594 -0.960772 1.1441 0
M  V30 8503 H 806.476 -4.11492 0.908406 0
M  V30 8504 H 805.151 -3.23552 0.0979821 0
M  V30 8505 H 804.058 -2.87981 2.38784 0
M  V30 8506 H 805.391 -3.80147 3.12648 0
M  V30 8507 N 807.043 -1.17915 -1.04565 0
M  V30 8508 C 808.291 -0.969505 -1.77327 0
M  V30 8509 C 808.612 0.502569 -1.88412 0
M  V30 8510 O 807.882 1.36467 -1.40547 0
M  V30 8511 H 806.462 -0.355723 -0.656864 0
M  V30 8512 H 809.124 -1.48506 -1.26223 0
M  V30 8513 H 808.22 -1.40324 -2.78775 0
M  V30 8514 N 808.521 1.23394 -0.980386 0
M  V30 8515 C 809.484 2.23092 -0.525619 0
M  V30 8516 C 810.484 1.56129 0.384745 0
M  V30 8517 O 811.674 1.73284 0.178439 0
M  V30 8518 C 808.806 3.40074 0.23712 0
M  V30 8519 H 809.999 2.64839 -1.40714 0
M  V30 8520 H 807.552 1.36227 -0.766275 0
M  V30 8521 H 808.287 3.03783 1.13518 0
M  V30 8522 H 808.072 3.89883 -0.416356 0
M  V30 8523 H 809.562 4.14043 0.543892 0
M  V30 8524 N 809.999 0.752036 1.385 0
M  V30 8525 C 811.246 0.307503 2.00152 0
M  V30 8526 C 811.574 -1.11033 1.59693 0
M  V30 8527 O 810.829 -1.77455 0.825125 0
M  V30 8528 C 811.128 0.376155 3.55415 0
M  V30 8529 C 810.794 1.74942 4.15579 0
M  V30 8530 C 809.456 2.12525 4.31725 0
M  V30 8531 C 811.808 2.65031 4.48785 0
M  V30 8532 C 809.136 3.39671 4.78373 0
M  V30 8533 C 811.488 3.91567 4.96848 0
M  V30 8534 C 810.152 4.2922 5.11201 0
M  V30 8535 H 809.422 0.112523 0.732407 0
M  V30 8536 H 812.069 0.962213 1.65571 0
M  V30 8537 H 810.374 -0.362121 3.90123 0
M  V30 8538 H 812.071 0.0138065 4.00998 0
M  V30 8539 H 808.661 1.44726 4.03426 0
M  V30 8540 H 812.845 2.3726 4.35914 0
M  V30 8541 H 808.101 3.68765 4.8767 0
M  V30 8542 H 812.275 4.61517 5.21512 0
M  V30 8543 H 809.902 5.27805 5.47107 0
M  V30 8544 N 811.477 -1.49425 0.500989 0
M  V30 8545 C 812.725 -2.02053 -0.0434495 0
M  V30 8546 C 813.046 -1.38285 -1.37486 0
M  V30 8547 O 812.316 -0.538171 -1.88363 0
M  V30 8548 H 810.896 -0.746757 -0.0190469 0
M  V30 8549 H 813.558 -1.83449 0.658227 0
M  V30 8550 H 812.654 -3.11619 -0.173129 0
M  V30 8551 N 812.955 -0.234822 -1.55841 0
M  V30 8552 C 813.902 0.6698 -2.20867 0
M  V30 8553 C 814.872 1.18042 -1.16856 0
M  V30 8554 O 816.057 1.23709 -1.45261 0
M  V30 8555 C 813.197 1.86646 -2.90271 0
M  V30 8556 C 812.31 1.39351 -4.08908 0
M  V30 8557 C 811.445 2.54878 -4.66059 0
M  V30 8558 C 810.484 2.04384 -5.76969 0
M  V30 8559 N 809.621 3.13233 -6.28355 0
M  V30 8560 H 814.461 0.10858 -2.97802 0
M  V30 8561 H 811.998 0.041836 -1.4704 0
M  V30 8562 H 813.956 2.56926 -3.28702 0
M  V30 8563 H 812.586 2.40035 -2.15831 0
M  V30 8564 H 811.638 0.585173 -3.75872 0
M  V30 8565 H 812.95 0.983356 -4.89011 0
M  V30 8566 H 812.104 3.33219 -5.07001 0
M  V30 8567 H 810.843 2.99188 -3.85146 0
M  V30 8568 H 809.848 1.24509 -5.35516 0
M  V30 8569 H 811.073 1.61057 -6.59725 0
M  V30 8570 H 809.019 3.57 -5.50352 0
M  V30 8571 H 808.936 2.76511 -7.03618 0
M  V30 8572 H 810.204 3.91669 -6.73955 0
M  V30 8573 N 814.433 1.57553 0.0384317 0
M  V30 8574 C 815.679 1.89121 0.732199 0
M  V30 8575 C 816.012 0.831404 1.75503 0
M  V30 8576 O 815.287 -0.154642 1.93884 0
M  V30 8577 C 815.57 3.31338 1.41021 0
M  V30 8578 C 815.423 4.48004 0.401532 0
M  V30 8579 C 816.742 3.72318 2.34665 0
M  V30 8580 H 813.861 0.687819 0.264715 0
M  V30 8581 H 816.503 1.89999 -0.00496279 0
M  V30 8582 H 814.653 3.3072 2.03854 0
M  V30 8583 H 816.325 4.60755 -0.224159 0
M  V30 8584 H 814.568 4.32895 -0.280092 0
M  V30 8585 H 815.239 5.44377 0.91423 0
M  V30 8586 H 817.715 3.74243 1.81883 0
M  V30 8587 H 816.591 4.72652 2.7909 0
M  V30 8588 H 816.852 3.04062 3.20934 0
M  V30 8589 N 815.911 -0.310526 1.54511 0
M  V30 8590 C 817.158 -1.04691 1.73338 0
M  V30 8591 C 817.486 -1.87584 0.514038 0
M  V30 8592 O 816.741 -1.89096 -0.504119 0
M  V30 8593 C 817.04 -1.98942 2.96912 0
M  V30 8594 C 816.706 -1.321 4.31115 0
M  V30 8595 C 815.368 -1.13603 4.67598 0
M  V30 8596 C 817.72 -0.842362 5.14348 0
M  V30 8597 C 815.048 -0.459102 5.84901 0
M  V30 8598 C 817.4 -0.179202 6.32346 0
M  V30 8599 C 816.064 0.0178111 6.67498 0
M  V30 8600 H 815.334 -0.38309 0.634289 0
M  V30 8601 H 817.981 -0.322723 1.88761 0
M  V30 8602 H 816.286 -2.77856 2.76231 0
M  V30 8603 H 817.983 -2.55972 3.08674 0
M  V30 8604 H 814.573 -1.47502 4.02419 0
M  V30 8605 H 818.757 -0.973013 4.86668 0
M  V30 8606 H 814.013 -0.295385 6.10686 0
M  V30 8607 H 818.187 0.199619 6.96114 0
M  V30 8608 H 815.814 0.544356 7.58249 0
M  V30 8609 N 817.389 -1.46805 -0.573248 0
M  V30 8610 C 818.319 -1.60951 -1.69165 0
M  V30 8611 C 819.3 -0.45948 -1.63777 0
M  V30 8612 O 820.485 -0.68688 -1.81647 0
M  V30 8613 C 817.615 -1.60844 -3.07809 0
M  V30 8614 C 816.569 -2.74913 -3.28035 0
M  V30 8615 C 815.895 -2.59871 -4.67302 0
M  V30 8616 C 817.195 -4.16654 -3.14955 0
M  V30 8617 H 818.889 -2.54574 -1.57582 0
M  V30 8618 H 816.435 -1.22516 -0.756686 0
M  V30 8619 H 818.388 -1.69334 -3.85881 0
M  V30 8620 H 817.112 -0.637714 -3.20314 0
M  V30 8621 H 815.771 -2.65908 -2.52366 0
M  V30 8622 H 815.419 -1.60861 -4.76585 0
M  V30 8623 H 815.119 -3.36386 -4.81786 0
M  V30 8624 H 816.643 -2.70265 -5.4753 0
M  V30 8625 H 818.057 -4.26721 -3.82861 0
M  V30 8626 H 816.454 -4.93831 -3.40956 0
M  V30 8627 H 817.524 -4.36146 -2.11908 0
M  V30 8628 N 818.867 0.818669 -1.34668 0
M  V30 8629 C 819.83 1.9114 -1.26483 0
M  V30 8630 C 820.83 1.598 -0.179044 0
M  V30 8631 O 822.02 1.6876 -0.431952 0
M  V30 8632 C 819.152 3.27285 -0.95381 0
M  V30 8633 H 820.345 1.9982 -2.23634 0
M  V30 8634 H 817.898 1.01314 -1.19018 0
M  V30 8635 H 818.633 3.24297 0.0143428 0
M  V30 8636 H 818.418 3.51416 -1.73924 0
M  V30 8637 H 819.908 4.07299 -0.921827 0
M  V30 8638 N 820.346 1.18468 1.03938 0
M  V30 8639 C 821.256 0.927889 2.1547 0
M  V30 8640 C 822.272 -0.108447 1.73662 0
M  V30 8641 O 823.448 0.0737636 2.01265 0
M  V30 8642 C 820.513 0.458494 3.43655 0
M  V30 8643 C 819.574 1.56295 3.99838 0
M  V30 8644 C 818.807 1.11586 5.21904 0
M  V30 8645 O 819.03 -0.0249057 5.70395 0
M  V30 8646 O 817.964 1.91412 5.70653 0
M  V30 8647 H 821.79 1.86116 2.39989 0
M  V30 8648 H 819.375 0.966607 1.13917 0
M  V30 8649 H 821.257 0.204861 4.20902 0
M  V30 8650 H 819.932 -0.446464 3.20606 0
M  V30 8651 H 818.839 1.87061 3.23974 0
M  V30 8652 H 820.172 2.44408 4.2723 0
M  V30 8653 N 821.824 -1.22873 0.986916 0
M  V30 8654 C 823.064 -1.93192 0.667543 0
M  V30 8655 C 823.428 -1.7521 -0.785196 0
M  V30 8656 O 824.629 -2.39737 -1.2157 0
M  V30 8657 C 822.9 -3.4147 1.05513 0
M  V30 8658 S 824.459 -4.30425 0.853218 0
M  V30 8659 H 821.277 -0.667726 0.244261 0
M  V30 8660 H 823.879 -1.48808 1.26793 0
M  V30 8661 H 822.583 -3.52069 2.10892 0
M  V30 8662 H 822.114 -3.9086 0.446293 0
M  V30 8663 H 824.129 -4.95521 -0.259444 0
M  V30 8664 N 823.302 -0.75937 -1.38099 0
M  V30 8665 C 824.532 -0.328634 -2.0397 0
M  V30 8666 C 824.94 1.04989 -1.57398 0
M  V30 8667 O 824.283 1.67918 -0.744932 0
M  V30 8668 C 824.345 -0.279216 -3.58414 0
M  V30 8669 C 824.009 -1.60025 -4.28067 0
M  V30 8670 C 825.006 -2.55048 -4.53041 0
M  V30 8671 C 822.691 -1.87128 -4.66142 0
M  V30 8672 C 824.685 -3.7539 -5.15132 0
M  V30 8673 C 822.372 -3.07742 -5.27956 0
M  V30 8674 C 823.37 -4.01694 -5.52387 0
M  V30 8675 O 823.058 -5.20186 -6.12912 0
M  V30 8676 H 822.79 -0.137443 -0.66188 0
M  V30 8677 H 825.344 -1.03082 -1.77661 0
M  V30 8678 H 823.574 0.479254 -3.83719 0
M  V30 8679 H 825.263 0.122781 -4.05714 0
M  V30 8680 H 826.029 -2.35387 -4.24049 0
M  V30 8681 H 821.908 -1.14833 -4.46469 0
M  V30 8682 H 825.452 -4.48737 -5.34117 0
M  V30 8683 H 821.349 -3.27294 -5.56371 0
M  V30 8684 H 822.117 -5.20846 -6.31397 0
M  V30 8685 N 824.78 1.49157 -0.508906 0
M  V30 8686 C 825.728 2.30922 0.278906 0
M  V30 8687 C 826.722 1.39889 0.955382 0
M  V30 8688 O 827.928 1.56901 0.882169 0
M  V30 8689 H 824.303 0.744087 0.108805 0
M  V30 8690 H 826.274 2.95277 -0.430583 0
M  V30 8691 C 825.023 3.21432 1.32576 0
M  V30 8692 H 824.346 3.91413 0.814634 0
M  V30 8693 H 825.786 3.81568 1.84882 0
M  V30 8694 C 824.245 2.41583 2.34817 0
M  V30 8695 O 824.775 2.1256 3.40854 0
M  V30 8696 N 822.981 2.03462 2.07489 0
M  V30 8697 H 822.528 2.27265 1.21278 0
M  V30 8698 H 822.486 1.50345 2.76123 0
M  V30 8699 N 826.258 0.243083 1.55714 0
M  V30 8700 C 827.188 -0.652336 2.24203 0
M  V30 8701 C 828.169 -1.1843 1.221 0
M  V30 8702 O 829.354 -1.22435 1.50743 0
M  V30 8703 C 826.484 -1.85111 2.93856 0
M  V30 8704 C 825.438 -1.45208 4.02615 0
M  V30 8705 C 824.764 -2.73137 4.59674 0
M  V30 8706 C 826.064 -0.625988 5.18535 0
M  V30 8707 H 827.758 -0.0812504 2.9929 0
M  V30 8708 H 825.304 -0.0376388 1.43951 0
M  V30 8709 H 827.257 -2.48314 3.40468 0
M  V30 8710 H 825.981 -2.44751 2.16251 0
M  V30 8711 H 824.64 -0.843406 3.56766 0
M  V30 8712 H 824.288 -3.30967 3.78774 0
M  V30 8713 H 823.988 -2.47163 5.33089 0
M  V30 8714 H 825.512 -3.37245 5.09017 0
M  V30 8715 H 826.926 -1.16223 5.61396 0
M  V30 8716 H 825.323 -0.462465 5.98315 0
M  V30 8717 H 826.393 0.362652 4.83542 0
M  V30 8718 N 827.736 -1.57571 -0.0300757 0
M  V30 8719 C 828.961 -1.93879 -0.736601 0
M  V30 8720 C 829.386 -0.842998 -1.68152 0
M  V30 8721 O 828.744 0.20135 -1.80178 0
M  V30 8722 C 828.792 -3.29247 -1.47066 0
M  V30 8723 O 827.896 -3.21426 -2.58378 0
M  V30 8724 H 827.237 -0.633735 -0.198181 0
M  V30 8725 H 829.767 -2.04595 0.0141485 0
M  V30 8726 H 829.777 -3.64113 -1.84081 0
M  V30 8727 H 828.452 -4.08565 -0.77764 0
M  V30 8728 H 827.029 -2.98189 -2.23914 0
M  V30 8729 N 829.214 0.302327 -1.54673 0
M  V30 8730 C 830.625 0.875409 -1.64904 0
M  V30 8731 C 830.976 1.88132 -0.55684 0
M  V30 8732 O 830.101 2.14215 0.306754 0
M  V30 8733 C 830.696 1.59457 -2.9893 0
M  V30 8734 C 829.255 2.11607 -3.11287 0
M  V30 8735 C 828.402 0.948324 -2.6058 0
M  V30 8736 H 831.353 0.079362 -1.58501 0
M  V30 8737 H 831.374 2.46005 -2.90279 0
M  V30 8738 H 830.886 0.8622 -3.78402 0
M  V30 8739 H 828.987 2.87895 -2.36532 0
M  V30 8740 H 829.1 2.35151 -4.17422 0
M  V30 8741 H 827.464 1.33352 -2.17001 0
M  V30 8742 H 828.247 0.229936 -3.42529 0
M  V30 8743 N 830.692 1.47107 0.565454 0
M  V30 8744 C 831.92 1.56909 1.3486 0
M  V30 8745 C 832.335 0.216312 1.87557 0
M  V30 8746 O 831.692 -0.789168 1.64555 0
M  V30 8747 C 831.743 2.58776 2.52423 0
M  V30 8748 O 831.464 3.888 2.01906 0
M  V30 8749 C 832.965 2.78683 3.44747 0
M  V30 8750 H 830.185 0.530096 0.411387 0
M  V30 8751 H 832.729 1.92658 0.685782 0
M  V30 8752 H 830.884 2.25983 3.1466 0
M  V30 8753 H 831.298 4.44393 2.78595 0
M  V30 8754 H 832.772 3.53842 4.23674 0
M  V30 8755 H 833.249 1.86208 3.97773 0
M  V30 8756 H 833.855 3.12641 2.88333 0
M  V30 8757 N 832.17 -0.811516 1.35101 0
M  V30 8758 C 833.117 -1.92308 1.27617 0
M  V30 8759 C 834.087 -1.6543 0.149091 0
M  V30 8760 O 835.272 -1.8789 0.331974 0
M  V30 8761 C 832.412 -3.28768 1.04908 0
M  V30 8762 C 831.525 -3.67865 2.26493 0
M  V30 8763 C 830.66 -4.9333 1.96974 0
M  V30 8764 C 829.699 -5.25041 3.1464 0
M  V30 8765 N 828.836 -6.41685 2.84929 0
M  V30 8766 H 833.676 -1.98041 2.22674 0
M  V30 8767 H 831.213 -0.968755 1.10696 0
M  V30 8768 H 833.171 -4.07426 0.897749 0
M  V30 8769 H 831.801 -3.22517 0.135151 0
M  V30 8770 H 830.853 -2.84507 2.52507 0
M  V30 8771 H 832.165 -3.87263 3.14371 0
M  V30 8772 H 831.319 -5.79803 1.78643 0
M  V30 8773 H 830.058 -4.75958 1.06374 0
M  V30 8774 H 829.063 -4.3706 3.33554 0
M  V30 8775 H 830.288 -5.44346 4.06035 0
M  V30 8776 H 828.234 -6.25747 1.96918 0
M  V30 8777 H 828.151 -6.6131 3.66341 0
M  V30 8778 H 829.419 -7.31198 2.70128 0
M  V30 8779 N 833.648 -1.19017 -1.03309 0
M  V30 8780 C 834.925 -0.899659 -1.73682 0
M  V30 8781 C 835.305 0.595677 -2.02521 0
M  V30 8782 O 834.653 1.55263 -1.67648 0
M  V30 8783 C 834.863 -1.75508 -3.01659 0
M  V30 8784 C 836.211 -1.98679 -3.75249 0
M  V30 8785 O 837.235 -1.72624 -3.11576 0
M  V30 8786 O 836.094 -2.42587 -4.89708 0
M  V30 8787 H 833.188 -0.334903 -0.756154 0
M  V30 8788 H 835.734 -1.29809 -1.09305 0
M  V30 8789 H 834.506 -2.7684 -2.76542 0
M  V30 8790 H 834.129 -1.35565 -3.73775 0
M  V30 8791 N 835.127 1.22348 -0.993418 0
M  V30 8792 C 836.074 2.24294 -0.544118 0
M  V30 8793 C 837.044 1.60602 0.42381 0
M  V30 8794 O 838.229 1.87952 0.328453 0
M  V30 8795 C 835.369 3.44837 0.134578 0
M  V30 8796 C 834.482 4.23043 -0.875151 0
M  V30 8797 C 833.617 5.30928 -0.169919 0
M  V30 8798 C 832.656 6.00853 -1.16798 0
M  V30 8799 N 831.793 7.00381 -0.491021 0
M  V30 8800 H 836.633 2.6209 -1.4182 0
M  V30 8801 H 834.17 1.2881 -0.710384 0
M  V30 8802 H 836.128 4.13625 0.544998 0
M  V30 8803 H 834.758 3.07804 0.972446 0
M  V30 8804 H 833.81 3.53546 -1.40389 0
M  V30 8805 H 835.122 4.71237 -1.63516 0
M  V30 8806 H 834.276 6.05972 0.297205 0
M  V30 8807 H 833.015 4.8371 0.622586 0
M  V30 8808 H 832.02 5.24591 -1.64573 0
M  V30 8809 H 833.245 6.50159 -1.96137 0
M  V30 8810 H 831.191 6.55393 0.282037 0
M  V30 8811 H 831.108 7.46584 -1.18947 0
M  V30 8812 H 832.376 7.79486 -0.0467169 0
M  V30 8813 N 836.605 0.766683 1.37694 0
M  V30 8814 C 837.538 0.0959288 2.27998 0
M  V30 8815 C 838.516 -0.714493 1.46061 0
M  V30 8816 O 839.7 -0.690337 1.75404 0
M  V30 8817 C 836.827 -0.87057 3.27321 0
M  V30 8818 C 835.873 -0.144771 4.26254 0
M  V30 8819 S 836.706 1.16365 5.22704 0
M  V30 8820 C 837.862 0.200564 6.25579 0
M  V30 8821 H 838.095 0.861666 2.84539 0
M  V30 8822 H 835.628 0.559845 1.43893 0
M  V30 8823 H 837.586 -1.42282 3.85053 0
M  V30 8824 H 836.247 -1.60938 2.69737 0
M  V30 8825 H 835.44 -0.877259 4.96307 0
M  V30 8826 H 835.042 0.33633 3.72485 0
M  V30 8827 H 837.334 -0.628833 6.74575 0
M  V30 8828 H 838.277 0.869117 7.02746 0
M  V30 8829 H 838.685 -0.185972 5.64194 0
M  V30 8830 N 838.083 -1.48885 0.516809 0
M  V30 8831 C 839.013 -2.32241 -0.242157 0
M  V30 8832 C 839.994 -1.41258 -0.947633 0
M  V30 8833 O 841.179 -1.70156 -0.935973 0
M  V30 8834 C 838.309 -3.22151 -1.29754 0
M  V30 8835 C 837.263 -4.22053 -0.710995 0
M  V30 8836 C 836.589 -5.01007 -1.86806 0
M  V30 8837 C 837.889 -5.21388 0.30853 0
M  V30 8838 H 839.583 -2.95943 0.453651 0
M  V30 8839 H 837.129 -1.42316 0.219612 0
M  V30 8840 H 839.082 -3.79284 -1.83634 0
M  V30 8841 H 837.806 -2.56423 -2.02274 0
M  V30 8842 H 836.465 -3.66087 -0.193819 0
M  V30 8843 H 836.113 -4.31713 -2.58133 0
M  V30 8844 H 835.813 -5.68615 -1.48159 0
M  V30 8845 H 837.337 -5.60989 -2.4109 0
M  V30 8846 H 838.751 -5.73122 -0.142703 0
M  V30 8847 H 837.148 -5.96975 0.611673 0
M  V30 8848 H 838.218 -4.69329 1.21894 0
M  V30 8849 N 839.561 -0.251338 -1.55583 0
M  V30 8850 C 840.807 0.37272 -1.99346 0
M  V30 8851 C 841.14 1.57266 -1.13934 0
M  V30 8852 O 840.415 1.9343 -0.20377 0
M  V30 8853 C 840.698 0.778245 -3.5159 0
M  V30 8854 C 840.551 -0.427394 -4.47765 0
M  V30 8855 C 841.87 1.62358 -4.09057 0
M  V30 8856 H 838.989 0.134002 -0.724715 0
M  V30 8857 H 841.631 -0.353536 -1.86682 0
M  V30 8858 H 839.781 1.39704 -3.62512 0
M  V30 8859 H 841.453 -1.06586 -4.48818 0
M  V30 8860 H 839.696 -1.06972 -4.20404 0
M  V30 8861 H 840.367 -0.10025 -5.51909 0
M  V30 8862 H 842.843 1.1012 -4.01264 0
M  V30 8863 H 841.719 1.87617 -5.1584 0
M  V30 8864 H 841.98 2.59688 -3.57791 0
M  V30 8865 N 841.039 1.57585 0.0217189 0
M  V30 8866 C 842.002 2.06004 1.00474 0
M  V30 8867 C 843.002 0.965461 1.2859 0
M  V30 8868 O 844.192 1.22884 1.23471 0
M  V30 8869 C 841.324 2.48319 2.33561 0
M  V30 8870 H 842.517 2.94112 0.586346 0
M  V30 8871 H 840.07 1.53973 0.268716 0
M  V30 8872 H 840.805 1.63389 2.80133 0
M  V30 8873 H 840.59 3.28239 2.1448 0
M  V30 8874 H 842.08 2.86181 3.04122 0
M  V30 8875 N 842.517 -0.29412 1.54831 0
M  V30 8876 C 843.763 -1.02999 1.74697 0
M  V30 8877 C 844.096 -1.86687 0.534949 0
M  V30 8878 O 843.371 -1.88789 -0.467863 0
M  V30 8879 C 843.654 -1.93024 3.03996 0
M  V30 8880 C 843.507 -1.1247 4.35512 0
M  V30 8881 C 844.826 -2.92085 3.29203 0
M  V30 8882 H 841.945 -0.373039 0.635618 0
M  V30 8883 H 844.587 -0.304065 1.87551 0
M  V30 8884 H 842.737 -2.5492 2.93169 0
M  V30 8885 H 844.409 -0.528067 4.58268 0
M  V30 8886 H 842.652 -0.427574 4.31688 0
M  V30 8887 H 843.323 -1.78728 5.22265 0
M  V30 8888 H 845.799 -2.40319 3.39685 0
M  V30 8889 H 844.675 -3.52234 4.20978 0
M  V30 8890 H 844.936 -3.66107 2.47827 0
M  V30 8891 N 843.995 -1.47404 -0.557645 0
M  V30 8892 C 844.942 -1.59859 -1.66475 0
M  V30 8893 C 845.912 -0.441644 -1.60121 0
M  V30 8894 O 847.097 -0.661641 -1.78961 0
M  V30 8895 C 844.237 -1.61843 -3.04797 0
M  V30 8896 C 843.35 -2.8845 -3.2159 0
M  V30 8897 C 842.485 -2.81773 -4.50308 0
M  V30 8898 C 841.524 -4.03208 -4.60532 0
M  V30 8899 N 840.661 -3.94769 -5.80604 0
M  V30 8900 H 845.501 -2.54415 -1.55168 0
M  V30 8901 H 843.038 -1.26194 -0.755876 0
M  V30 8902 H 844.996 -1.60976 -3.84893 0
M  V30 8903 H 843.626 -0.707997 -3.1494 0
M  V30 8904 H 842.678 -2.99186 -2.34929 0
M  V30 8905 H 843.99 -3.78379 -3.25009 0
M  V30 8906 H 843.144 -2.79153 -5.38663 0
M  V30 8907 H 841.883 -1.89527 -4.49367 0
M  V30 8908 H 840.888 -4.06133 -3.70589 0
M  V30 8909 H 842.113 -4.9658 -4.63233 0
M  V30 8910 H 840.059 -3.05326 -5.80613 0
M  V30 8911 H 839.976 -4.78375 -5.854 0
M  V30 8912 H 841.244 -3.96165 -6.71322 0
M  V30 8913 N 845.473 0.80434 -1.35529 0
M  V30 8914 C 846.436 1.89788 -1.28503 0
M  V30 8915 C 847.436 1.59601 -0.195983 0
M  V30 8916 O 848.626 1.68292 -0.449827 0
M  V30 8917 C 845.758 3.26255 -0.98847 0
M  V30 8918 H 846.951 1.97436 -2.25741 0
M  V30 8919 H 844.504 1.00046 -1.20086 0
M  V30 8920 H 845.239 3.24294 -0.0200541 0
M  V30 8921 H 845.024 3.49551 -1.77641 0
M  V30 8922 H 846.514 4.06298 -0.964975 0
M  V30 8923 N 846.951 1.19563 1.02676 0
M  V30 8924 C 847.881 0.959024 2.12897 0
M  V30 8925 C 848.862 -0.108382 1.69754 0
M  V30 8926 O 850.047 0.0470698 1.94143 0
M  V30 8927 C 847.177 0.499211 3.43693 0
M  V30 8928 C 846.131 1.5087 4.00528 0
M  V30 8929 C 845.457 0.905884 5.2697 0
M  V30 8930 C 846.757 2.88954 4.3509 0
M  V30 8931 H 848.451 1.88084 2.32948 0
M  V30 8932 H 845.997 0.905731 1.11949 0
M  V30 8933 H 847.95 0.320965 4.20176 0
M  V30 8934 H 846.674 -0.458205 3.2337 0
M  V30 8935 H 845.333 1.67413 3.26142 0
M  V30 8936 H 844.981 -0.0591506 5.02965 0
M  V30 8937 H 844.681 1.58 5.65959 0
M  V30 8938 H 846.205 0.73848 6.06118 0
M  V30 8939 H 847.619 2.75981 5.02501 0
M  V30 8940 H 846.016 3.53177 4.85166 0
M  V30 8941 H 847.086 3.41447 3.44299 0
M  V30 8942 N 848.429 -1.21819 0.999893 0
M  V30 8943 C 849.376 -2.24003 0.556005 0
M  V30 8944 C 850.346 -1.60825 -0.415287 0
M  V30 8945 O 851.531 -1.88123 -0.318481 0
M  V30 8946 C 848.671 -3.44904 -0.116289 0
M  V30 8947 C 847.784 -4.22573 0.897574 0
M  V30 8948 C 846.919 -5.30831 0.198073 0
M  V30 8949 C 845.958 -6.00225 1.19983 0
M  V30 8950 N 845.095 -7.00111 0.528157 0
M  V30 8951 H 849.935 -2.61334 1.43208 0
M  V30 8952 H 847.472 -1.28431 0.717205 0
M  V30 8953 H 849.43 -4.13908 -0.523055 0
M  V30 8954 H 848.06 -3.08315 -0.956108 0
M  V30 8955 H 847.112 -3.52797 1.42262 0
M  V30 8956 H 848.424 -4.70363 1.66013 0
M  V30 8957 H 847.578 -6.06121 -0.265065 0
M  V30 8958 H 846.317 -4.84033 -0.596924 0
M  V30 8959 H 845.322 -5.23711 1.67353 0
M  V30 8960 H 846.547 -6.4911 1.99582 0
M  V30 8961 H 844.493 -6.55534 -0.247276 0
M  V30 8962 H 844.41 -7.45943 1.22904 0
M  V30 8963 H 845.678 -7.7945 0.0880543 0
M  V30 8964 N 849.908 -0.773975 -1.37286 0
M  V30 8965 C 851.185 -0.263942 -1.93811 0
M  V30 8966 C 851.565 1.24138 -1.70743 0
M  V30 8967 O 850.913 2.02557 -1.05749 0
M  V30 8968 C 851.123 -0.639753 -3.43086 0
M  V30 8969 C 852.471 -0.610796 -4.20184 0
M  V30 8970 O 853.495 -0.579278 -3.51458 0
M  V30 8971 O 852.354 -0.639862 -5.42741 0
M  V30 8972 H 849.448 -0.0614331 -0.824715 0
M  V30 8973 H 851.994 -0.855477 -1.46559 0
M  V30 8974 H 850.766 -1.67856 -3.53469 0
M  V30 8975 H 850.389 -0.0212827 -3.97594 0
M  V30 8976 N 851.386 1.48609 -0.524698 0
M  V30 8977 C 852.797 1.86516 -0.0828846 0
M  V30 8978 C 853.148 1.43478 1.33822 0
M  V30 8979 O 852.273 0.823139 2.00133 0
M  V30 8980 C 852.868 3.38495 -0.143639 0
M  V30 8981 C 851.427 3.75615 0.242951 0
M  V30 8982 C 850.574 2.72649 -0.505747 0
M  V30 8983 H 853.525 1.40589 -0.736233 0
M  V30 8984 H 853.546 3.74977 0.645955 0
M  V30 8985 H 853.058 3.69789 -1.17805 0
M  V30 8986 H 851.159 3.49935 1.27971 0
M  V30 8987 H 851.272 4.7901 -0.0929834 0
M  V30 8988 H 849.636 2.54656 0.0473482 0
M  V30 8989 H 850.419 3.06786 -1.54069 0
M  V30 8990 N 852.864 0.259585 1.55447 0
M  V30 8991 C 854.092 -0.365392 2.03648 0
M  V30 8992 C 854.507 -1.50613 1.13847 0
M  V30 8993 O 853.864 -1.81837 0.155414 0
M  V30 8994 C 853.915 -0.861172 3.51093 0
M  V30 8995 O 853.636 0.234121 4.37474 0
M  V30 8996 C 855.137 -1.55555 4.15111 0
M  V30 8997 H 852.357 -0.0853439 0.66555 0
M  V30 8998 H 854.901 0.387151 2.00802 0
M  V30 8999 H 853.056 -1.56385 3.54433 0
M  V30 9000 H 853.47 -0.1444 5.24301 0
M  V30 9001 H 854.944 -1.85403 5.19932 0
M  V30 9002 H 855.421 -2.48185 3.62355 0
M  V30 9003 H 856.027 -0.89712 4.15731 0
M  V30 9004 N 854.342 -1.57594 -0.0133615 0
M  V30 9005 C 855.272 -2.10611 -1.00823 0
M  V30 9006 C 856.253 -1.01217 -1.36708 0
M  V30 9007 O 857.438 -1.28827 -1.45318 0
M  V30 9008 C 854.568 -2.59844 -2.30431 0
M  V30 9009 C 853.522 -3.73644 -2.08745 0
M  V30 9010 C 852.848 -4.09141 -3.4425 0
M  V30 9011 C 854.148 -5.01454 -1.46086 0
M  V30 9012 H 855.842 -2.93985 -0.566849 0
M  V30 9013 H 853.388 -1.41423 -0.271219 0
M  V30 9014 H 855.341 -2.95557 -3.00373 0
M  V30 9015 H 854.065 -1.73573 -2.76658 0
M  V30 9016 H 852.724 -3.38303 -1.41232 0
M  V30 9017 H 852.372 -3.19914 -3.88155 0
M  V30 9018 H 852.072 -4.85802 -3.3056 0
M  V30 9019 H 853.596 -4.47402 -4.15528 0
M  V30 9020 H 855.01 -5.35024 -2.05966 0
M  V30 9021 H 853.407 -5.82832 -1.42924 0
M  V30 9022 H 854.477 -4.83003 -0.428471 0
M  V30 9023 N 855.82 0.285905 -1.54985 0
M  V30 9024 C 856.783 1.33625 -1.86218 0
M  V30 9025 C 857.783 1.42971 -0.735936 0
M  V30 9026 O 858.973 1.42345 -1.00417 0
M  V30 9027 C 856.105 2.71926 -2.05595 0
M  V30 9028 H 857.298 1.07167 -2.80099 0
M  V30 9029 H 854.851 0.523335 -1.47278 0
M  V30 9030 H 855.586 3.03583 -1.14053 0
M  V30 9031 H 855.371 2.6653 -2.87583 0
M  V30 9032 H 856.861 3.47841 -2.31077 0
M  V30 9033 N 857.298 1.47698 0.54982 0
M  V30 9034 C 858.261 1.60282 1.63837 0
M  V30 9035 C 859.261 0.477394 1.5355 0
M  V30 9036 O 860.451 0.742665 1.57576 0
M  V30 9037 C 857.583 1.55431 3.03404 0
M  V30 9038 H 858.776 2.57325 1.54026 0
M  V30 9039 H 856.329 1.35999 0.770329 0
M  V30 9040 H 857.064 0.597912 3.1874 0
M  V30 9041 H 856.849 2.37116 3.12279 0
M  V30 9042 H 858.339 1.6739 3.82584 0
M  V30 9043 N 858.776 -0.797141 1.35954 0
M  V30 9044 C 860.192 -1.09408 1.16198 0
M  V30 9045 C 860.392 -2.01491 -0.0191682 0
M  V30 9046 O 859.448 -2.42977 -0.686902 0
M  V30 9047 C 860.761 -1.71597 2.46931 0
M  V30 9048 C 862.309 -1.83974 2.53224 0
M  V30 9049 C 862.784 -2.49579 3.84024 0
M  V30 9050 N 864.275 -2.57055 3.85327 0
M  V30 9051 C 865.01 -3.08608 4.83268 0
M  V30 9052 N 864.506 -3.60527 5.91601 0
M  V30 9053 N 866.299 -3.07249 4.70696 0
M  V30 9054 H 858.45 -0.185209 2.11591 0
M  V30 9055 H 860.713 -0.144768 0.936881 0
M  V30 9056 H 860.419 -1.11404 3.3359 0
M  V30 9057 H 860.293 -2.71193 2.62172 0
M  V30 9058 H 862.68 -2.43308 1.66988 0
M  V30 9059 H 862.761 -0.83207 2.41889 0
M  V30 9060 H 862.405 -1.90892 4.70662 0
M  V30 9061 H 862.335 -3.50902 3.92651 0
M  V30 9062 H 864.826 -2.20283 3.07057 0
M  V30 9063 H 865.139 -3.98192 6.62317 0
M  V30 9064 H 863.484 -3.587 5.95281 0
M  V30 9065 H 866.675 -2.65972 3.85197 0
M  V30 9066 H 866.848 -3.47119 5.47186 0
M  V30 9067 N 860.254 -1.20106 -1.0204 0
M  V30 9068 C 861.201 -0.946468 -2.10501 0
M  V30 9069 C 862.171 0.121902 -1.65652 0
M  V30 9070 O 863.356 -0.0220244 -1.90787 0
M  V30 9071 C 860.496 -0.500499 -3.41451 0
M  V30 9072 C 859.609 -1.63659 -3.998 0
M  V30 9073 C 858.744 -1.14131 -5.18794 0
M  V30 9074 C 857.783 -2.25074 -5.69217 0
M  V30 9075 N 856.92 -1.76791 -6.79477 0
M  V30 9076 H 861.76 -1.87506 -2.31615 0
M  V30 9077 H 859.297 -0.934693 -1.13587 0
M  V30 9078 H 861.255 -0.223276 -4.16602 0
M  V30 9079 H 859.885 0.391099 -3.20422 0
M  V30 9080 H 858.937 -2.02882 -3.21781 0
M  V30 9081 H 860.249 -2.47213 -4.33229 0
M  V30 9082 H 859.403 -0.819826 -6.01135 0
M  V30 9083 H 858.142 -0.275615 -4.86921 0
M  V30 9084 H 857.147 -2.58043 -4.85483 0
M  V30 9085 H 858.372 -3.12114 -6.03127 0
M  V30 9086 H 856.318 -0.925428 -6.4944 0
M  V30 9087 H 856.235 -2.53928 -7.12079 0
M  V30 9088 H 857.503 -1.47631 -7.65392 0
M  V30 9089 N 861.732 1.21287 -1.00634 0
M  V30 9090 C 863.009 1.86 -0.605257 0
M  V30 9091 C 863.389 1.90139 0.917072 0
M  V30 9092 O 862.737 1.40169 1.80458 0
M  V30 9093 C 862.947 3.26183 -1.24119 0
M  V30 9094 C 864.295 4.02562 -1.35015 0
M  V30 9095 O 865.319 3.35499 -1.19661 0
M  V30 9096 O 864.178 5.22638 -1.59726 0
M  V30 9097 H 861.272 0.800549 -0.207486 0
M  V30 9098 H 863.818 1.28959 -1.10307 0
M  V30 9099 H 862.59 3.17878 -2.28186 0
M  V30 9100 H 862.213 3.90845 -0.729807 0
M  V30 9101 N 863.21 0.781244 1.36873 0
M  V30 9102 C 864.457 0.349889 1.99454 0
M  V30 9103 C 864.785 -1.07621 1.62013 0
M  V30 9104 O 864.04 -1.75665 0.86258 0
M  V30 9105 C 864.339 0.45146 3.54537 0
M  V30 9106 C 864.005 1.83718 4.11775 0
M  V30 9107 C 862.667 2.21634 4.2712 0
M  V30 9108 C 865.019 2.7449 4.43063 0
M  V30 9109 C 862.347 3.49742 4.7106 0
M  V30 9110 C 864.699 4.02017 4.88431 0
M  V30 9111 C 863.363 4.39967 5.01982 0
M  V30 9112 H 862.633 0.128033 0.729855 0
M  V30 9113 H 865.28 0.997117 1.63493 0
M  V30 9114 H 863.585 -0.279288 3.90803 0
M  V30 9115 H 865.282 0.0988609 4.00878 0
M  V30 9116 H 861.872 1.53251 4.00265 0
M  V30 9117 H 866.056 2.46453 4.30783 0
M  V30 9118 H 861.312 3.79026 4.79738 0
M  V30 9119 H 865.486 4.72475 5.11605 0
M  V30 9120 H 863.113 5.39291 5.35788 0
M  V30 9121 N 864.689 -1.48329 0.532571 0
M  V30 9122 C 865.621 -2.27652 -0.265931 0
M  V30 9123 C 866.634 -1.35522 -0.902083 0
M  V30 9124 O 867.823 -1.60552 -0.780088 0
M  V30 9125 C 864.923 -3.0899 -1.39207 0
M  V30 9126 C 864.096 -4.28915 -0.857349 0
M  V30 9127 C 863.155 -4.92044 -1.86493 0
M  V30 9128 O 862.181 -5.51181 -1.42084 0
M  V30 9129 N 863.383 -4.84518 -3.19723 0
M  V30 9130 H 866.148 -2.96821 0.414389 0
M  V30 9131 H 863.709 -1.57684 0.367066 0
M  V30 9132 H 865.701 -3.48091 -2.06433 0
M  V30 9133 H 864.271 -2.42224 -1.97601 0
M  V30 9134 H 863.491 -3.94199 -0.00901765 0
M  V30 9135 H 864.779 -5.0654 -0.479025 0
M  V30 9136 H 864.177 -4.37628 -3.58467 0
M  V30 9137 H 862.734 -5.27712 -3.82575 0
M  V30 9138 N 866.167 -0.267825 -1.55308 0
M  V30 9139 C 867.583 0.0865107 -1.59365 0
M  V30 9140 C 867.783 1.55205 -1.28505 0
M  V30 9141 O 866.839 2.29978 -1.04241 0
M  V30 9142 C 868.152 -0.28155 -2.99379 0
M  V30 9143 C 869.7 -0.227565 -3.12172 0
M  V30 9144 C 870.175 -0.569959 -4.5444 0
M  V30 9145 N 871.666 -0.521238 -4.60258 0
M  V30 9146 C 872.401 -0.759061 -5.68354 0
M  V30 9147 N 871.897 -1.06112 -6.84626 0
M  V30 9148 N 873.69 -0.688351 -5.57869 0
M  V30 9149 H 865.841 -1.22332 -1.73633 0
M  V30 9150 H 868.104 -0.493703 -0.809297 0
M  V30 9151 H 867.81 -1.3005 -3.26772 0
M  V30 9152 H 867.684 0.381192 -3.75269 0
M  V30 9153 H 870.071 0.782093 -2.84548 0
M  V30 9154 H 870.152 -0.924461 -2.38511 0
M  V30 9155 H 869.796 -1.57727 -4.82788 0
M  V30 9156 H 869.726 0.148646 -5.2639 0
M  V30 9157 H 872.217 -0.297359 -3.76728 0
M  V30 9158 H 872.53 -1.22945 -7.62958 0
M  V30 9159 H 870.875 -1.09881 -6.86259 0
M  V30 9160 H 874.066 -0.452268 -4.6591 0
M  V30 9161 H 874.239 -0.877081 -6.42037 0
M  V30 9162 N 867.645 1.57599 0.00500368 0
M  V30 9163 C 868.555 2.11532 1.01446 0
M  V30 9164 C 869.571 1.05941 1.3803 0
M  V30 9165 O 870.747 1.37815 1.46864 0
M  V30 9166 C 867.812 2.60382 2.28915 0
M  V30 9167 C 866.873 3.80554 1.98689 0
M  V30 9168 C 866.106 4.27064 3.20081 0
M  V30 9169 O 866.329 3.72939 4.31593 0
M  V30 9170 O 865.263 5.1927 3.04371 0
M  V30 9171 H 869.089 2.97993 0.586011 0
M  V30 9172 H 866.674 1.47718 0.223519 0
M  V30 9173 H 868.556 2.92024 3.03809 0
M  V30 9174 H 867.231 1.77022 2.71007 0
M  V30 9175 H 866.138 3.53893 1.21286 0
M  V30 9176 H 867.471 4.64972 1.61437 0
M  V30 9177 N 869.123 -0.277682 1.55134 0
M  V30 9178 C 870.086 -1.32635 1.86924 0
M  V30 9179 C 871.086 -1.42578 0.743507 0
M  V30 9180 O 872.276 -1.4181 1.01171 0
M  V30 9181 C 869.408 -2.70832 2.07034 0
M  V30 9182 H 870.601 -1.0568 2.80663 0
M  V30 9183 H 868.154 -0.515517 1.47554 0
M  V30 9184 H 868.889 -3.02974 1.15661 0
M  V30 9185 H 868.674 -2.65001 2.88993 0
M  V30 9186 H 870.164 -3.46611 2.32918 0
M  V30 9187 N 870.601 -1.47988 -0.541979 0
M  V30 9188 C 871.511 -1.64276 -1.67483 0
M  V30 9189 C 872.527 -0.525387 -1.65879 0
M  V30 9190 O 873.703 -0.794912 -1.85049 0
M  V30 9191 C 870.768 -1.66744 -3.03969 0
M  V30 9192 C 869.829 -2.90021 -3.16522 0
M  V30 9193 C 869.062 -2.92362 -4.46498 0
M  V30 9194 O 869.285 -2.03462 -5.32878 0
M  V30 9195 O 868.219 -3.84399 -4.63164 0
M  V30 9196 H 872.045 -2.60164 -1.5668 0
M  V30 9197 H 869.63 -1.31249 -0.71372 0
M  V30 9198 H 871.512 -1.70958 -3.85164 0
M  V30 9199 H 870.187 -0.740277 -3.15122 0
M  V30 9200 H 869.094 -2.91345 -2.34667 0
M  V30 9201 H 870.427 -3.82082 -3.10281 0
M  V30 9202 N 872.079 0.78992 -1.36375 0
M  V30 9203 C 873.009 1.91683 -1.33341 0
M  V30 9204 C 873.99 1.68861 -0.204965 0
M  V30 9205 O 875.175 1.89982 -0.402531 0
M  V30 9206 C 872.305 3.28696 -1.12143 0
M  V30 9207 C 871.259 3.66041 -2.21806 0
M  V30 9208 C 870.585 5.01399 -1.85751 0
M  V30 9209 C 871.885 3.74677 -3.63888 0
M  V30 9210 H 873.579 1.94478 -2.27637 0
M  V30 9211 H 871.125 0.934271 -1.09578 0
M  V30 9212 H 873.078 4.07151 -1.08656 0
M  V30 9213 H 871.802 3.26287 -0.142974 0
M  V30 9214 H 870.461 2.89883 -2.24418 0
M  V30 9215 H 870.109 4.9551 -0.864817 0
M  V30 9216 H 869.809 5.27355 -2.59173 0
M  V30 9217 H 871.333 5.82274 -1.83819 0
M  V30 9218 H 872.747 4.43324 -3.63506 0
M  V30 9219 H 871.144 4.12118 -4.3621 0
M  V30 9220 H 872.214 2.75795 -3.9883 0
M  V30 9221 N 873.557 1.20646 1.01402 0
M  V30 9222 C 874.487 0.98155 2.11867 0
M  V30 9223 C 875.468 -0.0903712 1.6986 0
M  V30 9224 O 876.653 0.0676586 1.94082 0
M  V30 9225 C 873.783 0.535636 3.43145 0
M  V30 9226 C 872.737 1.55109 3.98905 0
M  V30 9227 C 872.063 0.961725 5.2598 0
M  V30 9228 C 873.363 2.93552 4.32001 0
M  V30 9229 H 875.057 1.90544 2.3094 0
M  V30 9230 H 872.603 0.917554 1.10982 0
M  V30 9231 H 874.556 0.365512 4.19812 0
M  V30 9232 H 873.28 -0.423882 3.23838 0
M  V30 9233 H 871.939 1.70862 3.24348 0
M  V30 9234 H 871.587 -0.00580108 5.03 0
M  V30 9235 H 871.287 1.63993 5.64252 0
M  V30 9236 H 872.811 0.802726 6.053 0
M  V30 9237 H 874.225 2.81295 4.99546 0
M  V30 9238 H 872.622 3.58303 4.81393 0
M  V30 9239 H 873.692 3.4508 3.40658 0
M  V30 9240 N 875.035 -1.20752 1.01276 0
M  V30 9241 C 876.263 -1.94006 0.718976 0
M  V30 9242 C 876.678 -1.74544 -0.719711 0
M  V30 9243 O 876.035 -1.05697 -1.48776 0
M  V30 9244 C 876.086 -3.46208 1.04031 0
M  V30 9245 O 875.807 -3.65031 2.42248 0
M  V30 9246 C 877.308 -4.36614 0.767032 0
M  V30 9247 H 874.528 -0.616743 0.264327 0
M  V30 9248 H 877.072 -1.53352 1.3529 0
M  V30 9249 H 875.227 -3.84756 0.451852 0
M  V30 9250 H 875.641 -4.59054 2.53712 0
M  V30 9251 H 877.115 -5.42076 1.04198 0
M  V30 9252 H 877.592 -4.38182 -0.298851 0
M  V30 9253 H 878.198 -4.03723 1.33746 0
M  V30 9254 N 876.513 -0.788492 -1.36457 0
M  V30 9255 C 877.461 -0.174192 -2.31947 0
M  V30 9256 C 878.455 0.665974 -1.5576 0
M  V30 9257 O 879.661 0.561161 -1.71029 0
M  V30 9258 H 876.036 -0.0375538 -0.751062 0
M  V30 9259 H 878.007 -0.995011 -2.81322 0
M  V30 9260 C 876.756 0.677276 -3.4104 0
M  V30 9261 H 876.079 0.0401418 -3.9978 0
M  V30 9262 H 877.519 1.07379 -4.10178 0
M  V30 9263 C 875.978 1.83512 -2.82533 0
M  V30 9264 O 876.508 2.93164 -2.74623 0
M  V30 9265 N 874.714 1.64095 -2.39836 0
M  V30 9266 H 874.261 0.749046 -2.46469 0
M  V30 9267 H 874.219 2.41726 -2.01037 0
M  V30 9268 N 877.991 1.48044 -0.54043 0
M  V30 9269 C 878.921 2.32597 0.205178 0
M  V30 9270 C 879.902 1.42748 0.925041 0
M  V30 9271 O 881.087 1.71624 0.908784 0
M  V30 9272 C 878.217 3.24175 1.24612 0
M  V30 9273 C 877.171 4.23131 0.64376 0
M  V30 9274 C 876.497 5.03915 1.78812 0
M  V30 9275 C 877.797 5.20831 -0.39144 0
M  V30 9276 H 879.491 2.95184 -0.500676 0
M  V30 9277 H 877.037 1.41948 -0.242225 0
M  V30 9278 H 878.99 3.82158 1.77576 0
M  V30 9279 H 877.714 2.59608 1.98169 0
M  V30 9280 H 876.373 3.66349 0.135554 0
M  V30 9281 H 876.021 4.35765 2.51232 0
M  V30 9282 H 875.721 5.709 1.39094 0
M  V30 9283 H 877.245 5.64753 2.32134 0
M  V30 9284 H 878.659 5.73277 0.0515064 0
M  V30 9285 H 877.056 5.95926 -0.706569 0
M  V30 9286 H 878.126 4.6733 -1.29345 0
M  V30 9287 N 879.47 0.276058 1.55163 0
M  V30 9288 C 880.402 -0.644254 2.19959 0
M  V30 9289 C 881.415 -1.11675 1.18459 0
M  V30 9290 O 882.604 -1.0385 1.45181 0
M  V30 9291 C 879.704 -1.89093 2.81242 0
M  V30 9292 C 878.877 -1.56509 4.08441 0
M  V30 9293 C 877.936 -2.66433 4.53762 0
M  V30 9294 O 876.962 -2.32579 5.19515 0
M  V30 9295 N 878.164 -3.96509 4.23982 0
M  V30 9296 H 880.929 -0.0896808 2.99566 0
M  V30 9297 H 878.49 0.0971981 1.61608 0
M  V30 9298 H 880.482 -2.61929 3.08505 0
M  V30 9299 H 879.052 -2.35453 2.05622 0
M  V30 9300 H 878.272 -0.670522 3.88455 0
M  V30 9301 H 879.56 -1.32242 4.91314 0
M  V30 9302 H 878.958 -4.26834 3.71254 0
M  V30 9303 H 877.515 -4.6572 4.56014 0
M  V30 9304 N 880.948 -1.576 0.00335426 0
M  V30 9305 C 881.898 -2.05116 -0.995562 0
M  V30 9306 C 882.882 -0.946535 -1.30113 0
M  V30 9307 O 884.074 -1.21028 -1.29156 0
M  V30 9308 C 881.203 -2.56077 -2.28648 0
M  V30 9309 C 880.289 -3.73422 -2.0104 0
M  V30 9310 N 880.68 -4.84986 -1.43603 0
M  V30 9311 C 878.978 -3.81416 -2.31166 0
M  V30 9312 C 879.679 -5.66399 -1.32542 0
M  V30 9313 N 878.655 -5.12505 -1.81218 0
M  V30 9314 H 882.457 -2.88783 -0.546025 0
M  V30 9315 H 879.971 -1.61135 -0.202265 0
M  V30 9316 H 881.968 -2.88395 -3.01055 0
M  V30 9317 H 880.628 -1.73829 -2.74251 0
M  V30 9318 H 881.639 -5.05768 -1.11439 0
M  V30 9319 H 878.316 -3.1003 -2.7962 0
M  V30 9320 H 879.706 -6.66066 -0.88348 0
M  V30 9321 N 882.426 0.269451 -1.5528 0
M  V30 9322 C 883.336 1.35511 -1.91505 0
M  V30 9323 C 884.352 1.53854 -0.812712 0
M  V30 9324 O 885.528 1.67912 -1.1121 0
M  V30 9325 C 882.593 2.6937 -2.18267 0
M  V30 9326 C 881.654 2.59743 -3.41807 0
M  V30 9327 C 880.887 3.87219 -3.67283 0
M  V30 9328 O 881.11 4.88066 -2.95208 0
M  V30 9329 O 880.044 3.87209 -4.60818 0
M  V30 9330 H 883.87 1.07785 -2.8393 0
M  V30 9331 H 881.455 0.468282 -1.41871 0
M  V30 9332 H 883.337 3.48513 -2.36889 0
M  V30 9333 H 882.012 2.96874 -1.29024 0
M  V30 9334 H 880.919 1.78964 -3.28516 0
M  V30 9335 H 882.252 2.37188 -4.3128 0
M  V30 9336 N 883.904 1.48273 0.534124 0
M  V30 9337 C 884.854 1.58889 1.63519 0
M  V30 9338 C 885.838 0.44626 1.54588 0
M  V30 9339 O 887.03 0.697474 1.62679 0
M  V30 9340 C 884.159 1.62787 3.0225 0
M  V30 9341 C 883.245 2.82515 3.16301 0
M  V30 9342 N 883.636 4.06977 3.00338 0
M  V30 9343 C 881.934 2.7976 3.47347 0
M  V30 9344 C 882.635 4.87283 3.17694 0
M  V30 9345 N 881.611 4.20024 3.45081 0
M  V30 9346 H 885.413 2.52869 1.49781 0
M  V30 9347 H 882.927 1.44587 0.739479 0
M  V30 9348 H 884.924 1.68486 3.81337 0
M  V30 9349 H 883.584 0.699201 3.17082 0
M  V30 9350 H 884.595 4.37479 2.77186 0
M  V30 9351 H 881.272 1.96132 3.68563 0
M  V30 9352 H 882.662 5.96047 3.10126 0
M  V30 9353 N 885.382 -0.782676 1.36792 0
M  V30 9354 C 886.631 -1.53605 1.30723 0
M  V30 9355 C 886.944 -1.95294 -0.109296 0
M  V30 9356 O 888.15 -2.69921 -0.292398 0
M  V30 9357 C 886.606 -2.77321 2.29393 0
M  V30 9358 C 886.214 -2.42774 3.76517 0
M  V30 9359 C 887.958 -3.55289 2.32314 0
M  V30 9360 C 885.865 -3.62926 4.66947 0
M  V30 9361 H 884.795 -0.576646 0.485794 0
M  V30 9362 H 887.446 -0.858255 1.62192 0
M  V30 9363 H 885.828 -3.46934 1.90927 0
M  V30 9364 H 887.002 -1.81014 4.23758 0
M  V30 9365 H 885.317 -1.78002 3.76436 0
M  V30 9366 H 887.914 -4.44573 2.97083 0
M  V30 9367 H 888.257 -3.94361 1.3336 0
M  V30 9368 H 888.79 -2.92662 2.69432 0
M  V30 9369 H 885.529 -3.28944 5.66989 0
M  V30 9370 H 885.049 -4.23828 4.24418 0
M  V30 9371 H 886.728 -4.29873 4.83548 0
M  V30 9372 N 886.86 -1.21182 -1.00761 0
M  V30 9373 C 888.106 -1.02898 -1.74756 0
M  V30 9374 C 888.439 0.436774 -1.89225 0
M  V30 9375 O 887.714 1.32415 -1.42466 0
M  V30 9376 C 887.997 -1.72372 -3.16164 0
M  V30 9377 C 887.85 -3.2645 -3.09435 0
M  V30 9378 C 889.169 -1.46415 -4.15031 0
M  V30 9379 H 886.288 -0.375214 -0.634337 0
M  V30 9380 H 888.93 -1.49321 -1.17487 0
M  V30 9381 H 887.08 -1.32906 -3.65059 0
M  V30 9382 H 888.752 -3.75269 -2.68274 0
M  V30 9383 H 886.995 -3.56889 -2.46603 0
M  V30 9384 H 887.666 -3.70226 -4.09435 0
M  V30 9385 H 890.142 -1.80671 -3.7483 0
M  V30 9386 H 889.018 -1.97544 -5.12121 0
M  V30 9387 H 889.279 -0.39361 -4.40344 0
M  V30 9388 N 888.338 1.20213 -1.01915 0
M  V30 9389 C 889.285 2.2309 -0.591571 0
M  V30 9390 C 890.255 1.61465 0.389649 0
M  V30 9391 O 891.44 1.88606 0.288511 0
M  V30 9392 C 888.58 3.45045 0.0614028 0
M  V30 9393 C 887.693 4.21091 -0.964688 0
M  V30 9394 C 886.828 5.30448 -0.282499 0
M  V30 9395 C 885.867 5.98241 -1.29517 0
M  V30 9396 N 885.004 6.99182 -0.639472 0
M  V30 9397 H 889.844 2.59023 -1.47347 0
M  V30 9398 H 887.381 1.27274 -0.737547 0
M  V30 9399 H 889.339 4.14688 0.45714 0
M  V30 9400 H 887.969 3.09797 0.906937 0
M  V30 9401 H 887.021 3.50489 -1.47857 0
M  V30 9402 H 888.333 4.67662 -1.73475 0
M  V30 9403 H 887.487 6.06466 0.168603 0
M  V30 9404 H 886.226 4.84922 0.519843 0
M  V30 9405 H 885.231 5.20982 -1.75663 0
M  V30 9406 H 886.456 6.45853 -2.09884 0
M  V30 9407 H 884.402 6.55844 0.142955 0
M  V30 9408 H 884.319 7.43893 -1.34756 0
M  V30 9409 H 885.587 7.79212 -0.212047 0
M  V30 9410 N 889.816 0.795718 1.36037 0
M  V30 9411 C 891.063 0.371024 1.99072 0
M  V30 9412 C 891.391 -1.05896 1.63145 0
M  V30 9413 O 890.646 -1.7474 0.881163 0
M  V30 9414 C 890.945 0.489038 3.54038 0
M  V30 9415 C 890.611 1.88075 4.09803 0
M  V30 9416 C 889.273 2.26152 4.24745 0
M  V30 9417 C 891.625 2.79174 4.40126 0
M  V30 9418 C 888.953 3.54718 4.67324 0
M  V30 9419 C 891.305 4.07175 4.8414 0
M  V30 9420 C 889.969 4.45266 4.97287 0
M  V30 9421 H 889.239 0.135767 0.728456 0
M  V30 9422 H 891.886 1.0144 1.62426 0
M  V30 9423 H 890.191 -0.237823 3.91078 0
M  V30 9424 H 891.888 0.141374 4.00751 0
M  V30 9425 H 888.478 1.57488 3.98617 0
M  V30 9426 H 892.662 2.51009 4.28145 0
M  V30 9427 H 887.918 3.84093 4.75691 0
M  V30 9428 H 892.092 4.77875 5.06565 0
M  V30 9429 H 889.719 5.44943 5.30038 0
M  V30 9430 N 891.294 -1.47756 0.548274 0
M  V30 9431 C 892.524 -2.06584 0.0254503 0
M  V30 9432 C 892.932 -1.40268 -1.26971 0
M  V30 9433 O 892.275 -0.49019 -1.77039 0
M  V30 9434 C 892.337 -3.58628 -0.250301 0
M  V30 9435 C 892.001 -4.4693 0.954087 0
M  V30 9436 C 892.998 -4.85592 1.85733 0
M  V30 9437 C 890.683 -4.88573 1.16624 0
M  V30 9438 C 892.677 -5.64686 2.95648 0
M  V30 9439 C 890.364 -5.67435 2.2685 0
M  V30 9440 C 891.362 -6.05401 3.16194 0
M  V30 9441 O 891.05 -6.82676 4.24511 0
M  V30 9442 H 890.782 -0.67489 0.0387264 0
M  V30 9443 H 893.336 -1.90876 0.758663 0
M  V30 9444 H 891.566 -3.72516 -1.03771 0
M  V30 9445 H 893.255 -3.9951 -0.717419 0
M  V30 9446 H 894.021 -4.54026 1.70544 0
M  V30 9447 H 889.9 -4.58494 0.480039 0
M  V30 9448 H 893.444 -5.9424 3.65411 0
M  V30 9449 H 889.341 -5.98413 2.42016 0
M  V30 9450 H 890.109 -7.01057 4.22447 0
M  V30 9451 N 892.772 -0.284283 -1.55015 0
M  V30 9452 C 894.02 0.329212 -1.99401 0
M  V30 9453 C 894.341 1.55687 -1.17416 0
M  V30 9454 O 893.611 1.94087 -0.265937 0
M  V30 9455 H 892.191 0.12463 -0.73653 0
M  V30 9456 H 894.853 -0.391743 -1.90922 0
M  V30 9457 H 893.949 0.61278 -3.06025 0
M  V30 9458 N 894.251 1.57596 -0.0117121 0
M  V30 9459 C 895.497 1.91355 0.671661 0
M  V30 9460 C 895.83 0.886818 1.72769 0
M  V30 9461 O 895.105 -0.0928813 1.94278 0
M  V30 9462 C 895.388 3.35657 1.30409 0
M  V30 9463 C 895.241 4.49055 0.2588 0
M  V30 9464 C 896.56 3.79595 2.22701 0
M  V30 9465 H 893.679 0.695893 0.242698 0
M  V30 9466 H 896.321 1.89887 -0.0654071 0
M  V30 9467 H 894.471 3.37038 1.9323 0
M  V30 9468 H 896.143 4.59809 -0.370631 0
M  V30 9469 H 894.386 4.31785 -0.417672 0
M  V30 9470 H 895.057 5.4701 0.740578 0
M  V30 9471 H 897.533 3.7984 1.69885 0
M  V30 9472 H 896.409 4.81292 2.63912 0
M  V30 9473 H 896.67 3.14118 3.11098 0
M  V30 9474 N 895.729 -0.261212 1.5542 0
M  V30 9475 C 896.969 -0.998748 1.78338 0
M  V30 9476 C 897.333 -1.83064 0.578914 0
M  V30 9477 O 898.534 -2.59884 0.686575 0
M  V30 9478 C 896.805 -1.84828 3.05898 0
M  V30 9479 S 898.364 -2.64686 3.49981 0
M  V30 9480 H 895.182 -0.33619 0.626496 0
M  V30 9481 H 897.784 -0.26799 1.93655 0
M  V30 9482 H 896.488 -1.22658 3.91642 0
M  V30 9483 H 896.019 -2.62203 2.9328 0
M  V30 9484 H 898.034 -3.87299 3.10184 0
M  V30 9485 N 897.207 -1.48554 -0.526253 0
M  V30 9486 C 898.455 -1.56452 -1.27935 0
M  V30 9487 C 898.776 -0.24184 -1.93495 0
M  V30 9488 O 898.046 0.736917 -1.81511 0
M  V30 9489 H 896.626 -0.576379 -0.47518 0
M  V30 9490 H 899.288 -1.85039 -0.612083 0
M  V30 9491 H 898.384 -2.34751 -2.05666 0
M  V30 9492 N 898.685 0.775411 -1.37205 0
M  V30 9493 C 899.962 1.5229 -1.22748 0
M  V30 9494 C 900.342 2.10327 0.180487 0
M  V30 9495 O 899.69 1.95206 1.18772 0
M  V30 9496 C 899.9 2.60671 -2.3206 0
M  V30 9497 C 901.248 3.28173 -2.6942 0
M  V30 9498 O 902.272 2.70963 -2.31208 0
M  V30 9499 O 901.131 4.31598 -3.3524 0
M  V30 9500 H 898.225 0.674326 -0.478762 0
M  V30 9501 H 900.771 0.812691 -1.48975 0
M  V30 9502 H 899.543 2.1588 -3.26361 0
M  V30 9503 H 899.166 3.39296 -2.07277 0
M  V30 9504 N 900.163 1.21714 1.00117 0
M  V30 9505 C 901.411 1.03465 1.73607 0
M  V30 9506 C 901.732 -0.432295 1.90148 0
M  V30 9507 O 901.002 -1.31157 1.45515 0
M  V30 9508 H 899.582 0.379857 0.643209 0
M  V30 9509 H 902.244 1.53088 1.20624 0
M  V30 9510 H 901.34 1.50574 2.73375 0
M  V30 9511 N 901.641 -1.19671 1.02551 0
M  V30 9512 C 902.918 -1.85014 0.634771 0
M  V30 9513 C 903.298 -1.91574 -0.886706 0
M  V30 9514 O 902.646 -1.43022 -1.78205 0
M  V30 9515 C 902.856 -3.24167 1.29292 0
M  V30 9516 C 904.204 -4.00363 1.41402 0
M  V30 9517 O 905.228 -3.33553 1.24983 0
M  V30 9518 O 904.087 -5.2003 1.6802 0
M  V30 9519 H 901.181 -0.797147 0.220196 0
M  V30 9520 H 903.727 -1.27188 1.12345 0
M  V30 9521 H 902.499 -3.14208 2.33215 0
M  V30 9522 H 902.122 -3.89634 0.791895 0
M  V30 9523 N 903.119 -0.802921 -1.35613 0
M  V30 9524 C 904.53 -0.443004 -1.81368 0
M  V30 9525 C 904.881 1.03459 -1.66706 0
M  V30 9526 O 904.006 1.80372 -1.19561 0
M  V30 9527 C 904.601 -0.797324 -3.29284 0
M  V30 9528 C 903.16 -0.490055 -3.73196 0
M  V30 9529 C 902.307 -1.02487 -2.57666 0
M  V30 9530 H 905.258 -0.994888 -1.23643 0
M  V30 9531 H 905.279 -0.0934638 -3.80385 0
M  V30 9532 H 904.791 -1.87278 -3.39924 0
M  V30 9533 H 902.892 0.576818 -3.68108 0
M  V30 9534 H 903.005 -1.02012 -4.68114 0
M  V30 9535 H 901.369 -0.44738 -2.5074 0
M  V30 9536 H 902.152 -2.10636 -2.71085 0
M  V30 9537 N 904.597 1.47463 -0.556102 0
M  V30 9538 C 905.527 2.32801 0.180497 0
M  V30 9539 C 906.508 1.43721 0.909848 0
M  V30 9540 O 907.693 1.72578 0.89053 0
M  V30 9541 C 904.823 3.25478 1.21167 0
M  V30 9542 C 903.777 4.2379 0.598846 0
M  V30 9543 C 903.103 5.05783 1.73457 0
M  V30 9544 C 904.403 5.20387 -0.446659 0
M  V30 9545 H 906.097 2.94636 -0.531956 0
M  V30 9546 H 903.643 1.41683 -0.257267 0
M  V30 9547 H 905.596 3.8402 1.73513 0
M  V30 9548 H 904.32 2.61695 1.95405 0
M  V30 9549 H 902.979 3.66472 0.0966897 0
M  V30 9550 H 902.627 4.38405 2.46596 0
M  V30 9551 H 902.327 5.72343 1.33031 0
M  V30 9552 H 903.851 5.67183 2.26131 0
M  V30 9553 H 905.265 5.73299 -0.00930019 0
M  V30 9554 H 903.662 5.95143 -0.769735 0
M  V30 9555 H 904.732 4.65932 -1.34295 0
M  V30 9556 N 906.075 0.2925 1.54862 0
M  V30 9557 C 907.324 -0.319994 1.99146 0
M  V30 9558 C 907.637 -1.55658 1.18448 0
M  V30 9559 O 908.843 -2.24312 1.52959 0
M  V30 9560 C 907.299 -0.620665 3.54508 0
M  V30 9561 C 906.907 0.597098 4.44003 0
M  V30 9562 C 908.651 -1.19482 4.07338 0
M  V30 9563 C 906.558 0.270049 5.90783 0
M  V30 9564 H 905.488 -0.123342 0.743843 0
M  V30 9565 H 908.139 0.399876 1.7909 0
M  V30 9566 H 906.521 -1.3999 3.7043 0
M  V30 9567 H 907.695 1.37354 4.39853 0
M  V30 9568 H 906.01 1.0893 4.019 0
M  V30 9569 H 908.607 -1.45362 5.14562 0
M  V30 9570 H 908.95 -2.13435 3.57423 0
M  V30 9571 H 909.483 -0.477485 3.94924 0
M  V30 9572 H 906.222 1.17791 6.4483 0
M  V30 9573 H 905.742 -0.469292 5.97961 0
M  V30 9574 H 907.421 -0.131471 6.46866 0
M  V30 9575 N 907.553 -1.57587 0.0200696 0
M  V30 9576 C 908.486 -2.05157 -0.999295 0
M  V30 9577 C 909.464 -0.945466 -1.32286 0
M  V30 9578 O 910.648 -1.21512 -1.44108 0
M  V30 9579 C 907.775 -2.46604 -2.32173 0
M  V30 9580 C 906.821 -3.68146 -2.15339 0
M  V30 9581 S 907.654 -5.15194 -1.46065 0
M  V30 9582 C 908.81 -5.59929 -2.79697 0
M  V30 9583 H 909.043 -2.91299 -0.59433 0
M  V30 9584 H 906.576 -1.53209 -0.191372 0
M  V30 9585 H 908.534 -2.7115 -3.08201 0
M  V30 9586 H 907.195 -1.60825 -2.69804 0
M  V30 9587 H 906.388 -3.94963 -3.13082 0
M  V30 9588 H 905.99 -3.43705 -1.47454 0
M  V30 9589 H 908.282 -5.63615 -3.75957 0
M  V30 9590 H 909.225 -6.59599 -2.57555 0
M  V30 9591 H 909.633 -4.87549 -2.84528 0
M  V30 9592 N 909.032 0.252966 -1.55557 0
M  V30 9593 C 910.278 0.983306 -1.77367 0
M  V30 9594 C 910.611 1.85203 -0.584258 0
M  V30 9595 O 909.886 1.89963 0.417644 0
M  V30 9596 C 910.169 1.84896 -3.09007 0
M  V30 9597 C 910.022 1.00883 -4.38341 0
M  V30 9598 C 911.341 2.83254 -3.36831 0
M  V30 9599 H 908.46 0.356056 -0.645286 0
M  V30 9600 H 911.102 0.254232 -1.88291 0
M  V30 9601 H 909.252 2.47058 -2.99825 0
M  V30 9602 H 910.924 0.40638 -4.59507 0
M  V30 9603 H 909.167 0.31297 -4.3267 0
M  V30 9604 H 909.838 1.64818 -5.2682 0
M  V30 9605 H 912.314 2.31228 -3.45937 0
M  V30 9606 H 911.19 3.40949 -4.30169 0
M  V30 9607 H 911.451 3.59407 -2.57447 0
M  V30 9608 N 910.51 1.48831 0.518367 0
M  V30 9609 C 911.757 1.57439 1.27355 0
M  V30 9610 C 912.085 0.25338 1.92843 0
M  V30 9611 O 911.34 -0.757323 1.80452 0
M  V30 9612 C 911.639 2.67003 2.3758 0
M  V30 9613 C 911.305 4.09069 1.89667 0
M  V30 9614 C 909.967 4.47733 1.76319 0
M  V30 9615 C 912.319 4.98052 1.53603 0
M  V30 9616 C 909.647 5.73173 1.25258 0
M  V30 9617 C 911.999 6.23992 1.04001 0
M  V30 9618 C 910.663 6.61503 0.892784 0
M  V30 9619 H 909.933 0.57611 0.466023 0
M  V30 9620 H 912.58 1.82595 0.577166 0
M  V30 9621 H 910.885 2.35751 3.12936 0
M  V30 9622 H 912.582 2.70876 2.95681 0
M  V30 9623 H 909.172 3.7854 2.01011 0
M  V30 9624 H 913.356 4.68849 1.62771 0
M  V30 9625 H 908.612 6.0095 1.12557 0
M  V30 9626 H 912.786 6.92331 0.751706 0
M  V30 9627 H 910.413 7.58587 0.494939 0
M  V30 9628 N 911.988 -0.768124 1.37614 0
M  V30 9629 C 912.898 -1.91249 1.35871 0
M  V30 9630 C 913.914 -1.7208 0.257786 0
M  V30 9631 O 915.09 -1.95253 0.493782 0
M  V30 9632 C 912.155 -3.26423 1.16829 0
M  V30 9633 C 911.216 -3.5822 2.36594 0
M  V30 9634 C 910.449 -4.86945 2.1845 0
M  V30 9635 O 910.672 -5.58258 1.17064 0
M  V30 9636 O 909.606 -5.17888 3.06718 0
M  V30 9637 H 913.432 -1.95671 2.32264 0
M  V30 9638 H 911.017 -0.911382 1.18382 0
M  V30 9639 H 912.899 -4.07269 1.08212 0
M  V30 9640 H 911.574 -3.22845 0.235123 0
M  V30 9641 H 910.481 -2.77594 2.50783 0
M  V30 9642 H 911.814 -3.66545 3.2849 0
M  V30 9643 N 913.466 -1.22244 -0.994698 0
M  V30 9644 C 914.696 -1.07062 -1.76695 0
M  V30 9645 C 915.104 0.381895 -1.85306 0
M  V30 9646 O 914.447 1.27648 -1.32105 0
M  V30 9647 C 914.509 -1.60487 -3.2169 0
M  V30 9648 C 914.173 -3.09079 -3.36629 0
M  V30 9649 C 915.17 -4.06526 -3.24088 0
M  V30 9650 C 912.855 -3.48497 -3.61739 0
M  V30 9651 C 914.849 -5.41377 -3.36437 0
M  V30 9652 C 912.536 -4.83498 -3.73729 0
M  V30 9653 C 913.534 -5.79747 -3.61086 0
M  V30 9654 O 913.222 -7.12297 -3.72678 0
M  V30 9655 H 912.954 -0.375963 -0.561807 0
M  V30 9656 H 915.508 -1.62259 -1.25941 0
M  V30 9657 H 913.738 -0.996957 -3.73628 0
M  V30 9658 H 915.427 -1.40994 -3.80625 0
M  V30 9659 H 916.193 -3.77415 -3.04602 0
M  V30 9660 H 912.072 -2.74106 -3.70657 0
M  V30 9661 H 915.616 -6.16485 -3.26485 0
M  V30 9662 H 911.513 -5.1229 -3.92721 0
M  V30 9663 H 912.281 -7.1985 -3.89562 0
M  V30 9664 N 914.944 1.19125 -1.03184 0
M  V30 9665 C 915.877 2.21229 -0.559739 0
M  V30 9666 C 916.855 1.57578 0.400998 0
M  V30 9667 O 918.039 1.85809 0.317399 0
M  V30 9668 C 915.166 3.38203 0.183442 0
M  V30 9669 C 914.212 4.2022 -0.729182 0
M  V30 9670 S 915.045 4.87903 -2.20706 0
M  V30 9671 C 916.201 6.08284 -1.47448 0
M  V30 9672 H 916.434 2.60932 -1.42484 0
M  V30 9673 H 913.967 1.29419 -0.842028 0
M  V30 9674 H 915.925 4.06001 0.606084 0
M  V30 9675 H 914.586 2.96929 1.02432 0
M  V30 9676 H 913.779 5.03761 -0.155272 0
M  V30 9677 H 913.381 3.57755 -1.09028 0
M  V30 9678 H 915.673 6.73193 -0.762687 0
M  V30 9679 H 916.616 6.70165 -2.28659 0
M  V30 9680 H 917.024 5.56092 -0.97068 0
M  V30 9681 N 916.422 0.810101 1.35185 0
M  V30 9682 C 917.369 0.220927 2.2974 0
M  V30 9683 C 918.339 -0.647024 1.5298 0
M  V30 9684 O 919.524 -0.591367 1.81404 0
M  V30 9685 C 916.664 -0.62167 3.39454 0
M  V30 9686 C 915.777 0.267104 4.31173 0
M  V30 9687 C 914.912 -0.583833 5.27982 0
M  V30 9688 C 913.951 0.305123 6.11339 0
M  V30 9689 N 913.088 -0.505992 7.00274 0
M  V30 9690 H 917.928 1.03266 2.79536 0
M  V30 9691 H 915.465 0.520768 1.37573 0
M  V30 9692 H 917.423 -1.12539 4.01735 0
M  V30 9693 H 916.053 -1.39863 2.90926 0
M  V30 9694 H 915.105 0.88895 3.69867 0
M  V30 9695 H 916.417 0.951182 4.89647 0
M  V30 9696 H 915.571 -1.15254 5.95652 0
M  V30 9697 H 914.31 -1.30146 4.70014 0
M  V30 9698 H 913.315 0.886075 5.42613 0
M  V30 9699 H 914.54 1.02067 6.71386 0
M  V30 9700 H 912.486 -1.20753 6.4479 0
M  V30 9701 H 912.403 0.119966 7.55905 0
M  V30 9702 H 913.671 -1.05787 7.72288 0
M  V30 9703 N 917.9 -1.47166 0.563914 0
M  V30 9704 C 918.85 -2.27116 -0.20055 0
M  V30 9705 C 919.834 -1.34756 -0.879177 0
M  V30 9706 O 921.026 -1.59064 -0.776377 0
M  V30 9707 C 918.155 -3.20676 -1.22565 0
M  V30 9708 C 917.241 -4.20517 -0.550092 0
M  V30 9709 N 917.632 -5.04343 0.383662 0
M  V30 9710 C 915.93 -4.38708 -0.803186 0
M  V30 9711 C 916.631 -5.76491 0.776718 0
M  V30 9712 N 915.607 -5.43444 0.130047 0
M  V30 9713 H 919.409 -2.89312 0.517275 0
M  V30 9714 H 916.923 -1.57787 0.384334 0
M  V30 9715 H 918.92 -3.76643 -1.78733 0
M  V30 9716 H 917.58 -2.60038 -1.94449 0
M  V30 9717 H 918.591 -5.1232 0.758192 0
M  V30 9718 H 915.268 -3.89235 -1.51003 0
M  V30 9719 H 916.658 -6.5391 1.54437 0
M  V30 9720 N 919.378 -0.300708 -1.54705 0
M  V30 9721 C 920.626 0.308044 -1.99739 0
M  V30 9722 C 920.947 1.54433 -1.19061 0
M  V30 9723 O 920.217 1.93794 -0.286507 0
M  V30 9724 H 918.797 0.116811 -0.73781 0
M  V30 9725 H 921.459 -0.41197 -1.90496 0
M  V30 9726 H 920.555 0.580287 -3.06658 0
M  V30 9727 N 920.856 1.57574 -0.0284266 0
M  V30 9728 C 922.133 1.83064 0.688979 0
M  V30 9729 C 922.513 0.91219 1.90374 0
M  V30 9730 O 921.861 -0.0323672 2.28477 0
M  V30 9731 C 922.071 3.32262 1.06785 0
M  V30 9732 C 923.419 3.98717 1.45978 0
M  V30 9733 O 924.443 3.36753 1.16085 0
M  V30 9734 O 923.302 5.07927 2.01673 0
M  V30 9735 H 920.396 0.7548 0.337944 0
M  V30 9736 H 922.942 1.69607 -0.0560555 0
M  V30 9737 H 921.714 3.90772 0.203235 0
M  V30 9738 H 921.337 3.50823 1.87107 0
M  V30 9739 N 922.334 -0.244713 1.55689 0
M  V30 9740 C 923.264 -1.30667 1.93516 0
M  V30 9741 C 924.245 -1.50094 0.800371 0
M  V30 9742 O 925.43 -1.62665 1.06083 0
M  V30 9743 C 922.56 -2.66101 2.23176 0
M  V30 9744 C 921.514 -2.61366 3.38927 0
M  V30 9745 C 920.84 -4.00616 3.54134 0
M  V30 9746 C 922.14 -2.18161 4.74555 0
M  V30 9747 H 923.834 -0.992546 2.82469 0
M  V30 9748 H 921.38 -0.476018 1.35905 0
M  V30 9749 H 923.333 -3.4053 2.48228 0
M  V30 9750 H 922.057 -2.99154 1.31051 0
M  V30 9751 H 920.716 -1.89395 3.13887 0
M  V30 9752 H 920.364 -4.30938 2.59426 0
M  V30 9753 H 920.064 -3.98335 4.31975 0
M  V30 9754 H 921.588 -4.76741 3.8151 0
M  V30 9755 H 923.002 -2.82323 4.98965 0
M  V30 9756 H 921.399 -2.26988 5.55515 0
M  V30 9757 H 922.469 -1.13333 4.7147 0
M  V30 9758 N 923.813 -1.49104 -0.510467 0
M  V30 9759 C 924.761 -1.65547 -1.63392 0
M  V30 9760 C 925.755 -0.521522 -1.61172 0
M  V30 9761 O 926.961 -0.700865 -1.65795 0
M  V30 9762 H 923.336 -0.521843 -0.541464 0
M  V30 9763 H 925.307 -2.59864 -1.46673 0
M  V30 9764 C 924.056 -1.73051 -3.01577 0
M  V30 9765 H 923.379 -2.59676 -3.03987 0
M  V30 9766 H 924.819 -1.88594 -3.79748 0
M  V30 9767 C 923.278 -0.47328 -3.33559 0
M  V30 9768 O 923.808 0.405239 -3.99651 0
M  V30 9769 N 922.014 -0.339074 -2.88615 0
M  V30 9770 H 921.561 -1.05497 -2.35007 0
M  V30 9771 H 921.519 0.501061 -3.10382 0
M  V30 9772 N 925.291 0.760815 -1.38019 0
M  V30 9773 C 926.238 1.8744 -1.34666 0
M  V30 9774 C 927.208 1.64762 -0.210386 0
M  V30 9775 O 928.393 1.86528 -0.401479 0
M  V30 9776 C 925.533 3.24648 -1.17037 0
M  V30 9777 C 924.646 3.59206 -2.3999 0
M  V30 9778 C 923.781 4.8568 -2.15148 0
M  V30 9779 C 922.82 5.13002 -3.3391 0
M  V30 9780 N 921.957 6.30668 -3.08549 0
M  V30 9781 H 926.797 1.8964 -2.29871 0
M  V30 9782 H 924.334 0.927004 -1.14215 0
M  V30 9783 H 926.292 4.03814 -1.04834 0
M  V30 9784 H 924.922 3.21793 -0.254758 0
M  V30 9785 H 923.974 2.74939 -2.62893 0
M  V30 9786 H 925.286 3.75328 -3.28527 0
M  V30 9787 H 924.44 5.72773 -2.00039 0
M  V30 9788 H 923.179 4.71682 -1.23965 0
M  V30 9789 H 922.184 4.2438 -3.49545 0
M  V30 9790 H 923.409 5.28901 -4.25958 0
M  V30 9791 H 921.355 6.18008 -2.20006 0
M  V30 9792 H 921.272 6.47257 -3.90633 0
M  V30 9793 H 922.54 7.20669 -2.9708 0
M  V30 9794 N 926.769 1.22769 0.988202 0
M  V30 9795 C 928.016 1.05509 1.72841 0
M  V30 9796 C 928.344 -0.409145 1.90148 0
M  V30 9797 O 927.599 -1.3195 1.44526 0
M  V30 9798 C 927.898 1.71679 3.13466 0
M  V30 9799 C 927.564 3.21584 3.16061 0
M  V30 9800 C 926.226 3.62486 3.16476 0
M  V30 9801 C 928.578 4.17511 3.11984 0
M  V30 9802 C 925.906 4.97789 3.10521 0
M  V30 9803 C 928.258 5.52796 3.0757 0
M  V30 9804 C 926.922 5.93072 3.06304 0
M  V30 9805 H 926.192 0.386085 0.632471 0
M  V30 9806 H 928.839 1.52596 1.157 0
M  V30 9807 H 927.144 1.1693 3.73945 0
M  V30 9808 H 928.841 1.55809 3.69492 0
M  V30 9809 H 925.431 2.89019 3.1649 0
M  V30 9810 H 929.615 3.86926 3.10809 0
M  V30 9811 H 924.871 5.28218 3.07888 0
M  V30 9812 H 929.045 6.26848 3.03372 0
M  V30 9813 H 926.672 6.97879 3.01444 0
M  V30 9814 N 928.247 -1.18576 1.03814 0
M  V30 9815 C 929.177 -2.24334 0.647795 0
M  V30 9816 C 930.158 -1.66508 -0.34774 0
M  V30 9817 O 931.343 -1.92852 -0.228401 0
M  V30 9818 C 928.473 -3.47299 0.00734922 0
M  V30 9819 C 927.427 -4.17859 0.926152 0
M  V30 9820 C 926.753 -5.34489 0.150317 0
M  V30 9821 C 928.053 -4.71632 2.24411 0
M  V30 9822 H 929.747 -2.57241 1.53191 0
M  V30 9823 H 927.293 -1.23649 0.738028 0
M  V30 9824 H 929.246 -4.20486 -0.277434 0
M  V30 9825 H 927.97 -3.13619 -0.911626 0
M  V30 9826 H 926.629 -3.46567 1.19528 0
M  V30 9827 H 926.277 -4.97056 -0.770985 0
M  V30 9828 H 925.977 -5.82633 0.762407 0
M  V30 9829 H 927.501 -6.10467 -0.127508 0
M  V30 9830 H 928.915 -5.36526 2.02021 0
M  V30 9831 H 927.312 -5.303 2.80894 0
M  V30 9832 H 928.382 -3.89192 2.89236 0
M  V30 9833 N 929.725 -0.817259 -1.34754 0
M  V30 9834 C 931.141 -0.502309 -1.51489 0
M  V30 9835 C 931.341 0.974568 -1.76364 0
M  V30 9836 O 930.397 1.75924 -1.81127 0
M  V30 9837 C 931.71 -1.35693 -2.68343 0
M  V30 9838 C 933.258 -1.35347 -2.82224 0
M  V30 9839 C 933.733 -2.19244 -4.02114 0
M  V30 9840 N 935.224 -2.16837 -4.09311 0
M  V30 9841 C 935.959 -2.78505 -5.01221 0
M  V30 9842 N 935.455 -3.4914 -5.98392 0
M  V30 9843 N 937.248 -2.68089 -4.94049 0
M  V30 9844 H 929.399 -1.77359 -1.16866 0
M  V30 9845 H 931.662 -0.755476 -0.572678 0
M  V30 9846 H 931.368 -2.40548 -2.56573 0
M  V30 9847 H 931.242 -1.01764 -3.63213 0
M  V30 9848 H 933.629 -0.312727 -2.93438 0
M  V30 9849 H 933.71 -1.7327 -1.88179 0
M  V30 9850 H 933.354 -3.23365 -3.9166 0
M  V30 9851 H 933.284 -1.78675 -4.95361 0
M  V30 9852 H 935.775 -1.65452 -3.39756 0
M  V30 9853 H 936.088 -3.93455 -6.65141 0
M  V30 9854 H 934.433 -3.53246 -5.98533 0
M  V30 9855 H 937.624 -2.12485 -4.17094 0
M  V30 9856 H 937.797 -3.16436 -5.65484 0
M  V30 9857 N 931.203 1.46865 -0.571711 0
M  V30 9858 C 932.166 2.28658 0.157499 0
M  V30 9859 C 933.166 1.37773 0.829172 0
M  V30 9860 O 934.356 1.6026 0.682811 0
M  V30 9861 C 931.488 3.17859 1.23202 0
M  V30 9862 H 932.681 2.94603 -0.561171 0
M  V30 9863 H 930.234 1.52793 -0.329229 0
M  V30 9864 H 930.969 2.56637 1.98262 0
M  V30 9865 H 930.754 3.84762 0.755031 0
M  V30 9866 H 932.244 3.7945 1.74378 0
M  V30 9867 N 932.681 0.308908 1.54543 0
M  V30 9868 C 933.631 -0.578902 2.20528 0
M  V30 9869 C 934.615 -1.09288 1.18088 0
M  V30 9870 O 935.807 -1.03234 1.43777 0
M  V30 9871 C 932.936 -1.74649 2.95555 0
M  V30 9872 C 932.022 -1.24809 4.05319 0
M  V30 9873 N 932.413 -0.46828 5.03628 0
M  V30 9874 C 930.711 -1.52813 4.19004 0
M  V30 9875 C 931.412 -0.201896 5.8135 0
M  V30 9876 N 930.388 -0.783927 5.37918 0
M  V30 9877 H 934.19 0.0243496 2.9389 0
M  V30 9878 H 931.704 0.114049 1.61999 0
M  V30 9879 H 933.701 -2.39414 3.41301 0
M  V30 9880 H 932.361 -2.35336 2.23712 0
M  V30 9881 H 933.372 -0.112453 5.17778 0
M  V30 9882 H 930.049 -2.14191 3.58369 0
M  V30 9883 H 931.439 0.424929 6.70555 0
M  V30 9884 N 934.159 -1.57557 0.0367827 0
M  V30 9885 C 935.407 -1.91735 -0.63892 0
M  V30 9886 C 935.728 -0.914515 -1.72226 0
M  V30 9887 O 934.998 0.0428248 -1.95853 0
M  V30 9888 H 933.578 -0.707738 -0.23899 0
M  V30 9889 H 936.24 -1.94708 0.0863931 0
M  V30 9890 H 935.336 -2.92568 -1.08676 0
M  V30 9891 N 935.637 0.236453 -1.55816 0
M  V30 9892 C 937.048 0.80468 -1.68469 0
M  V30 9893 C 937.399 1.85601 -0.636133 0
M  V30 9894 O 936.524 2.15323 0.215622 0
M  V30 9895 C 937.119 1.46634 -3.05424 0
M  V30 9896 C 935.678 1.98214 -3.19981 0
M  V30 9897 C 934.825 0.83695 -2.64368 0
M  V30 9898 H 937.776 0.0120647 -1.58695 0
M  V30 9899 H 937.797 2.33472 -3.00451 0
M  V30 9900 H 937.309 0.700931 -3.81718 0
M  V30 9901 H 935.41 2.77604 -2.4853 0
M  V30 9902 H 935.523 2.17235 -4.2702 0
M  V30 9903 H 933.887 1.24028 -2.22462 0
M  V30 9904 H 934.67 0.084451 -3.43196 0
M  V30 9905 N 937.115 1.49373 0.502552 0
M  V30 9906 C 938.392 1.49282 1.26389 0
M  V30 9907 C 938.772 0.219674 2.09954 0
M  V30 9908 O 938.12 -0.797991 2.14113 0
M  V30 9909 C 938.33 2.77083 2.12194 0
M  V30 9910 C 939.678 3.26511 2.71433 0
M  V30 9911 O 940.702 2.78189 2.22462 0
M  V30 9912 O 939.561 4.10665 3.60578 0
M  V30 9913 H 936.655 0.597415 0.57186 0
M  V30 9914 H 939.201 1.61634 0.516951 0
M  V30 9915 H 937.973 3.61237 1.50411 0
M  V30 9916 H 937.596 2.67583 2.94084 0
M  V30 9917 N 938.594 -0.753485 1.38421 0
M  V30 9918 C 939.557 -1.84888 1.35459 0
M  V30 9919 C 940.557 -1.58764 0.255083 0
M  V30 9920 O 941.747 -1.66507 0.511978 0
M  V30 9921 C 938.879 -3.22361 1.10888 0
M  V30 9922 H 940.072 -1.88922 2.32913 0
M  V30 9923 H 937.625 -0.955199 1.23716 0
M  V30 9924 H 938.36 -3.23996 0.1404 0
M  V30 9925 H 938.145 -3.42717 1.90492 0
M  V30 9926 H 939.635 -4.02437 1.1151 0
M  V30 9927 N 940.072 -1.23292 -0.981677 0
M  V30 9928 C 941.005 -0.956198 -2.07201 0
M  V30 9929 C 941.983 0.105027 -1.6226 0
M  V30 9930 O 943.167 -0.0289582 -1.88478 0
M  V30 9931 C 940.294 -0.44029 -3.35826 0
M  V30 9932 C 939.34 -1.48792 -3.99704 0
M  V30 9933 S 940.173 -3.06491 -4.39117 0
M  V30 9934 C 941.329 -2.56567 -5.70898 0
M  V30 9935 H 941.562 -1.87947 -2.30355 0
M  V30 9936 H 939.095 -1.06522 -1.1177 0
M  V30 9937 H 941.053 -0.149237 -4.10229 0
M  V30 9938 H 939.714 0.462045 -3.10683 0
M  V30 9939 H 938.907 -1.07706 -4.92357 0
M  V30 9940 H 938.509 -1.72826 -3.31673 0
M  V30 9941 H 940.801 -1.98508 -6.47766 0
M  V30 9942 H 941.744 -3.47755 -6.16824 0
M  V30 9943 H 942.152 -1.97465 -5.28836 0
M  V30 9944 N 941.55 1.18024 -1.04442 0
M  V30 9945 C 942.799 1.8743 -0.745185 0
M  V30 9946 C 943.112 1.81459 0.730206 0
M  V30 9947 O 944.318 2.46263 1.1431 0
M  V30 9948 C 942.774 3.36266 -1.28271 0
M  V30 9949 C 942.382 3.50757 -2.787 0
M  V30 9950 C 944.126 4.11048 -1.06018 0
M  V30 9951 C 942.033 4.93573 -3.25791 0
M  V30 9952 H 940.963 0.702038 -0.27506 0
M  V30 9953 H 943.614 1.33333 -1.26073 0
M  V30 9954 H 941.996 3.89853 -0.695002 0
M  V30 9955 H 943.17 3.07423 -3.43261 0
M  V30 9956 H 941.485 2.89385 -2.99408 0
M  V30 9957 H 944.082 5.16395 -1.38711 0
M  V30 9958 H 944.425 4.163 0.00241716 0
M  V30 9959 H 944.958 3.63644 -1.61269 0
M  V30 9960 H 941.697 4.93491 -4.31447 0
M  V30 9961 H 941.217 5.37607 -2.65968 0
M  V30 9962 H 942.896 5.62307 -3.20031 0
M  V30 9963 N 943.028 0.824394 1.34319 0
M  V30 9964 C 943.958 0.262077 2.32025 0
M  V30 9965 C 944.939 -0.622277 1.58309 0
M  V30 9966 O 946.124 -0.548848 1.86283 0
M  V30 9967 C 943.254 -0.57567 3.42496 0
M  V30 9968 C 942.208 0.21167 4.27476 0
M  V30 9969 C 941.534 -0.748913 5.29429 0
M  V30 9970 C 942.834 1.42068 5.02607 0
M  V30 9971 H 944.528 1.07842 2.79304 0
M  V30 9972 H 942.074 0.520022 1.34282 0
M  V30 9973 H 944.027 -0.979251 4.09864 0
M  V30 9974 H 942.751 -1.42508 2.93869 0
M  V30 9975 H 941.41 0.596636 3.61712 0
M  V30 9976 H 941.058 -1.59432 4.77064 0
M  V30 9977 H 940.758 -0.226313 5.87164 0
M  V30 9978 H 942.282 -1.15032 5.99667 0
M  V30 9979 H 943.696 1.09103 5.62823 0
M  V30 9980 H 942.093 1.87903 5.69923 0
M  V30 9981 H 943.163 2.1981 4.32217 0
M  V30 9982 N 944.506 -1.46559 0.579492 0
M  V30 9983 C 945.752 -2.02699 0.0639363 0
M  V30 9984 C 946.085 -1.4504 -1.29139 0
M  V30 9985 O 945.36 -0.614284 -1.84545 0
M  V30 9986 C 945.643 -3.601 -0.00528618 0
M  V30 9987 C 945.496 -4.28149 1.37871 0
M  V30 9988 C 946.815 -4.34375 -0.707537 0
M  V30 9989 H 943.934 -0.736586 0.0247085 0
M  V30 9990 H 946.576 -1.74739 0.746071 0
M  V30 9991 H 944.726 -3.84052 -0.586206 0
M  V30 9992 H 946.398 -4.1547 2.00455 0
M  V30 9993 H 944.641 -3.87636 1.94732 0
M  V30 9994 H 945.312 -5.36888 1.28278 0
M  V30 9995 H 947.788 -4.15549 -0.214064 0
M  V30 9996 H 946.664 -5.44091 -0.724992 0
M  V30 9997 H 946.925 -4.052 -1.7682 0
M  V30 9998 N 945.984 -0.3171 -1.54377 0
M  V30 9999 C 947.261 0.341348 -1.92598 0
M  V30 10000 C 947.641 1.70402 -1.24605 0
M  V30 10001 O 946.989 2.25191 -0.387448 0
M  V30 10002 C 947.199 0.440003 -3.46215 0
M  V30 10003 C 948.547 0.703327 -4.18734 0
M  V30 10004 O 949.571 0.523181 -3.52337 0
M  V30 10005 O 948.43 1.05042 -5.3631 0
M  V30 10006 H 945.524 0.193696 -0.803997 0
M  V30 10007 H 948.07 -0.366341 -1.65699 0
M  V30 10008 H 946.842 -0.517299 -3.87866 0
M  V30 10009 H 946.465 1.19553 -3.792 0
M  V30 10010 N 947.462 1.57535 -0.0451378 0
M  V30 10011 C 948.71 1.92071 0.628743 0
M  V30 10012 C 949.031 0.923635 1.71738 0
M  V30 10013 O 948.301 -0.0324376 1.95873 0
M  V30 10014 H 946.881 0.708995 0.235233 0
M  V30 10015 H 949.543 1.9466 -0.0967177 0
M  V30 10016 H 948.639 2.9314 1.07123 0
M  V30 10017 N 948.94 -0.228186 1.55939 0
M  V30 10018 C 949.872 -1.30605 1.88348 0
M  V30 10019 C 950.885 -1.43375 0.771198 0
M  V30 10020 O 952.074 -1.44391 1.04945 0
M  V30 10021 C 949.174 -2.68248 2.07115 0
M  V30 10022 C 948.347 -2.77509 3.38094 0
M  V30 10023 C 947.406 -3.96121 3.46373 0
M  V30 10024 O 946.432 -3.8477 4.19453 0
M  V30 10025 N 947.634 -5.10132 2.77031 0
M  V30 10026 H 950.399 -1.03132 2.81396 0
M  V30 10027 H 947.96 -0.418245 1.56404 0
M  V30 10028 H 949.952 -3.45966 2.09976 0
M  V30 10029 H 948.522 -2.88348 1.20723 0
M  V30 10030 H 947.742 -1.8632 3.47388 0
M  V30 10031 H 949.03 -2.80662 4.2439 0
M  V30 10032 H 948.428 -5.22249 2.17424 0
M  V30 10033 H 946.985 -5.85916 2.85561 0
M  V30 10034 N 950.418 -1.49637 -0.494624 0
M  V30 10035 C 951.829 -1.52573 -1.07603 0
M  V30 10036 C 952.18 -0.315591 -1.93645 0
M  V30 10037 O 951.305 0.573966 -2.08649 0
M  V30 10038 C 951.9 -2.7648 -1.95817 0
M  V30 10039 C 950.459 -2.82173 -2.49109 0
M  V30 10040 C 949.606 -2.4657 -1.2688 0
M  V30 10041 H 952.557 -1.56242 -0.278251 0
M  V30 10042 H 952.578 -2.57003 -2.80588 0
M  V30 10043 H 952.09 -3.64538 -1.33167 0
M  V30 10044 H 950.191 -1.9841 -3.15379 0
M  V30 10045 H 950.304 -3.84501 -2.85825 0
M  V30 10046 H 948.668 -1.98489 -1.59607 0
M  V30 10047 H 949.451 -3.3691 -0.659281 0
M  V30 10048 N 951.896 0.746133 -1.38819 0
M  V30 10049 C 953.312 1.0502 -1.20179 0
M  V30 10050 C 953.512 2.01423 -0.0556271 0
M  V30 10051 O 952.568 2.45359 0.59625 0
M  V30 10052 C 953.881 1.62315 -2.53129 0
M  V30 10053 C 955.429 1.74449 -2.59878 0
M  V30 10054 C 955.904 2.35155 -3.93022 0
M  V30 10055 N 957.395 2.42577 -3.94602 0
M  V30 10056 C 958.13 2.9046 -4.94389 0
M  V30 10057 N 957.626 3.38322 -6.04574 0
M  V30 10058 N 959.419 2.89568 -4.81775 0
M  V30 10059 H 951.57 0.106551 -2.12133 0
M  V30 10060 H 953.833 0.109897 -0.941609 0
M  V30 10061 H 953.539 0.98946 -3.37495 0
M  V30 10062 H 953.413 2.61276 -2.72057 0
M  V30 10063 H 955.8 2.36943 -1.75903 0
M  V30 10064 H 955.881 0.741721 -2.4481 0
M  V30 10065 H 955.525 1.73292 -4.77422 0
M  V30 10066 H 955.455 3.36088 -4.05404 0
M  V30 10067 H 957.946 2.08735 -3.15021 0
M  V30 10068 H 958.259 3.73336 -6.76639 0
M  V30 10069 H 956.604 3.3636 -6.08184 0
M  V30 10070 H 959.795 2.51492 -3.94803 0
M  V30 10071 H 959.968 3.26571 -5.59692 0
M  V30 10072 N 953.375 1.23811 0.975125 0
M  V30 10073 C 954.307 0.981779 2.07108 0
M  V30 10074 C 955.32 -0.0461211 1.62735 0
M  V30 10075 O 956.509 0.190039 1.77486 0
M  V30 10076 C 953.609 0.458364 3.35786 0
M  V30 10077 C 952.782 1.54767 4.09104 0
M  V30 10078 C 951.841 1.0282 5.16057 0
M  V30 10079 O 950.867 1.71831 5.42644 0
M  V30 10080 N 952.069 -0.141243 5.80328 0
M  V30 10081 H 954.834 1.92537 2.29673 0
M  V30 10082 H 952.395 1.1474 1.14221 0
M  V30 10083 H 954.387 0.0957686 4.04587 0
M  V30 10084 H 952.957 -0.390768 3.10148 0
M  V30 10085 H 952.177 2.08279 3.34684 0
M  V30 10086 H 953.465 2.28006 4.54853 0
M  V30 10087 H 952.863 -0.718382 5.6112 0
M  V30 10088 H 951.42 -0.445052 6.50279 0
M  V30 10089 N 954.853 -1.17469 1.05066 0
M  V30 10090 C 955.816 -2.19648 0.654793 0
M  V30 10091 C 956.816 -1.58107 -0.293063 0
M  V30 10092 O 958.006 -1.74029 -0.077106 0
M  V30 10093 C 955.138 -3.40878 -0.0384437 0
M  V30 10094 H 956.331 -2.56184 1.55915 0
M  V30 10095 H 953.884 -1.31528 0.844396 0
M  V30 10096 H 954.619 -3.09885 -0.956133 0
M  V30 10097 H 954.404 -3.86792 0.642961 0
M  V30 10098 H 955.894 -4.1651 -0.301568 0
M  V30 10099 N 956.331 -0.831506 -1.3388 0
M  V30 10100 C 957.278 -0.257449 -2.2936 0
M  V30 10101 C 958.248 0.622604 -1.5399 0
M  V30 10102 O 959.433 0.562432 -1.82322 0
M  V30 10103 C 956.573 0.567587 -3.404 0
M  V30 10104 C 955.686 -0.335666 -4.30694 0
M  V30 10105 C 954.821 0.499762 -5.28844 0
M  V30 10106 C 953.86 -0.402343 -6.10776 0
M  V30 10107 N 952.997 0.39452 -7.00991 0
M  V30 10108 H 957.837 -1.077 -2.77857 0
M  V30 10109 H 955.374 -0.542589 -1.36727 0
M  V30 10110 H 957.332 1.06133 -4.03474 0
M  V30 10111 H 955.962 1.35217 -2.93115 0
M  V30 10112 H 955.014 -0.94768 -3.68406 0
M  V30 10113 H 956.326 -1.02896 -4.88072 0
M  V30 10114 H 955.48 1.05763 -5.9741 0
M  V30 10115 H 954.219 1.22652 -4.72025 0
M  V30 10116 H 953.224 -0.972288 -5.41135 0
M  V30 10117 H 954.449 -1.12735 -6.69677 0
M  V30 10118 H 952.395 1.1048 -6.4663 0
M  V30 10119 H 952.312 -0.240209 -7.55618 0
M  V30 10120 H 953.58 0.934867 -7.73874 0
M  V30 10121 N 957.809 1.4625 -0.587256 0
M  V30 10122 C 959.057 2.01963 -0.0744273 0
M  V30 10123 C 959.378 1.46065 1.29189 0
M  V30 10124 O 958.648 0.647077 1.84905 0
M  V30 10125 H 957.228 0.746597 -0.0245236 0
M  V30 10126 H 959.89 1.79299 -0.764063 0
M  V30 10127 H 958.986 3.12099 -0.00884894 0
M  V30 10128 N 959.287 0.325282 1.54207 0
M  V30 10129 C 960.197 -0.548778 2.28091 0
M  V30 10130 C 961.213 -1.12772 1.32508 0
M  V30 10131 O 962.389 -1.14732 1.65525 0
M  V30 10132 C 959.454 -1.69284 3.02562 0
M  V30 10133 C 958.515 -1.14553 4.13734 0
M  V30 10134 C 957.748 -2.23506 4.84645 0
M  V30 10135 O 957.971 -3.43884 4.55082 0
M  V30 10136 O 956.905 -1.88828 5.71513 0
M  V30 10137 H 960.731 0.0512974 3.03657 0
M  V30 10138 H 958.316 0.0909159 1.49123 0
M  V30 10139 H 960.198 -2.35887 3.49192 0
M  V30 10140 H 958.873 -2.27906 2.2987 0
M  V30 10141 H 957.78 -0.444532 3.71449 0
M  V30 10142 H 959.113 -0.60441 4.88475 0
M  V30 10143 N 960.765 -1.57509 0.0534917 0
M  V30 10144 C 961.695 -2.14698 -0.917999 0
M  V30 10145 C 962.676 -1.06924 -1.32292 0
M  V30 10146 O 963.861 -1.34875 -1.39723 0
M  V30 10147 C 960.991 -2.69383 -2.19203 0
M  V30 10148 C 959.945 -3.82161 -1.9271 0
M  V30 10149 C 959.271 -4.23373 -3.26587 0
M  V30 10150 C 960.571 -5.07199 -1.24686 0
M  V30 10151 H 962.265 -2.96125 -0.44165 0
M  V30 10152 H 959.811 -1.42446 -0.210993 0
M  V30 10153 H 961.764 -3.08031 -2.87567 0
M  V30 10154 H 960.488 -1.85151 -2.69048 0
M  V30 10155 H 959.147 -3.43989 -1.26757 0
M  V30 10156 H 958.795 -3.36089 -3.74237 0
M  V30 10157 H 958.495 -4.99385 -3.09658 0
M  V30 10158 H 960.019 -4.64623 -3.96178 0
M  V30 10159 H 961.433 -5.43279 -1.83088 0
M  V30 10160 H 959.83 -5.88369 -1.18076 0
M  V30 10161 H 960.9 -4.84386 -0.223227 0
M  V30 10162 N 962.243 0.219913 -1.56058 0
M  V30 10163 C 963.491 0.942199 -1.78793 0
M  V30 10164 C 963.812 1.84804 -0.622284 0
M  V30 10165 O 963.082 1.9255 0.360735 0
M  V30 10166 H 961.662 0.350895 -0.659455 0
M  V30 10167 H 964.324 0.231376 -1.93522 0
M  V30 10168 H 963.42 1.54804 -2.71002 0
M  V30 10169 N 963.721 1.49897 0.486681 0
M  V30 10170 C 964.651 1.7054 1.59494 0
M  V30 10171 C 965.632 0.554184 1.60819 0
M  V30 10172 O 966.817 0.791617 1.77333 0
M  V30 10173 C 963.947 1.78517 2.97908 0
M  V30 10174 C 962.901 2.93571 3.11449 0
M  V30 10175 C 962.227 2.86674 4.51356 0
M  V30 10176 C 963.527 4.34308 2.90127 0
M  V30 10177 H 965.221 2.63329 1.42472 0
M  V30 10178 H 962.767 1.2672 0.683969 0
M  V30 10179 H 964.72 1.91544 3.75352 0
M  V30 10180 H 963.444 0.823381 3.16051 0
M  V30 10181 H 962.103 2.80169 2.36433 0
M  V30 10182 H 961.751 1.88373 4.66395 0
M  V30 10183 H 961.451 3.63903 4.61355 0
M  V30 10184 H 962.975 3.01728 5.30841 0
M  V30 10185 H 964.389 4.48317 3.57331 0
M  V30 10186 H 962.786 5.12869 3.11585 0
M  V30 10187 H 963.856 4.47759 1.86119 0
M  V30 10188 N 965.199 -0.738761 1.39212 0
M  V30 10189 C 966.424 -1.5331 1.39681 0
M  V30 10190 C 966.849 -1.88098 -0.00768715 0
M  V30 10191 O 966.207 -1.51642 -0.993699 0
M  V30 10192 C 966.255 -2.79958 2.27279 0
M  V30 10193 O 965.359 -3.75727 1.70008 0
M  V30 10194 H 964.7 -0.463131 0.475821 0
M  V30 10195 H 967.23 -0.911768 1.83161 0
M  V30 10196 H 967.24 -3.28732 2.41659 0
M  V30 10197 H 965.915 -2.5397 3.29351 0
M  V30 10198 H 964.492 -3.34483 1.64851 0
M  V30 10199 N 966.677 -1.24326 -0.968545 0
M  V30 10200 C 967.609 -0.992749 -2.06584 0
M  V30 10201 C 968.622 0.0374902 -1.62757 0
M  V30 10202 O 969.811 -0.199448 -1.77382 0
M  V30 10203 C 966.911 -0.476165 -3.35538 0
M  V30 10204 C 966.084 -1.56934 -4.08277 0
M  V30 10205 C 965.143 -1.05555 -5.15504 0
M  V30 10206 O 964.169 -1.74707 -5.41725 0
M  V30 10207 N 965.371 0.110465 -5.80395 0
M  V30 10208 H 968.136 -1.93752 -2.28649 0
M  V30 10209 H 965.697 -1.15344 -1.13611 0
M  V30 10210 H 967.689 -0.117223 -4.0453 0
M  V30 10211 H 966.259 0.374315 -3.10351 0
M  V30 10212 H 965.479 -2.10051 -3.33575 0
M  V30 10213 H 966.767 -2.30415 -4.53637 0
M  V30 10214 H 966.165 0.688614 -5.61493 0
M  V30 10215 H 964.722 0.41056 -6.50506 0
M  V30 10216 N 968.156 1.1691 -1.05688 0
M  V30 10217 C 969.089 2.19992 -0.606539 0
M  V30 10218 C 970.067 1.58393 0.367483 0
M  V30 10219 O 971.251 1.8644 0.277914 0
M  V30 10220 C 968.378 3.38516 0.111663 0
M  V30 10221 C 967.424 4.18579 -0.818153 0
M  V30 10222 S 968.257 4.83111 -2.31006 0
M  V30 10223 C 969.413 6.0502 -1.60317 0
M  V30 10224 H 969.646 2.57851 -1.47987 0
M  V30 10225 H 967.179 1.27604 -0.869291 0
M  V30 10226 H 969.137 4.07195 0.519829 0
M  V30 10227 H 967.798 2.99034 0.961103 0
M  V30 10228 H 966.991 5.03318 -0.262092 0
M  V30 10229 H 966.593 3.55362 -1.16592 0
M  V30 10230 H 968.885 6.71424 -0.905309 0
M  V30 10231 H 969.828 6.65164 -2.42823 0
M  V30 10232 H 970.236 5.53908 -1.08842 0
M  V30 10233 N 969.634 0.838594 1.33437 0
M  V30 10234 C 970.564 0.286672 2.31734 0
M  V30 10235 C 971.545 -0.605451 1.5896 0
M  V30 10236 O 972.73 -0.529059 1.86854 0
M  V30 10237 C 969.86 -0.539311 3.43087 0
M  V30 10238 C 968.814 0.256997 4.27228 0
M  V30 10239 C 968.14 -0.692718 5.30194 0
M  V30 10240 C 969.44 1.47391 5.01072 0
M  V30 10241 H 971.134 1.10798 2.78144 0
M  V30 10242 H 968.68 0.534235 1.33723 0
M  V30 10243 H 970.633 -0.935724 4.1088 0
M  V30 10244 H 969.357 -1.39383 2.95364 0
M  V30 10245 H 968.016 0.634967 3.61059 0
M  V30 10246 H 967.664 -1.54363 4.78729 0
M  V30 10247 H 967.364 -0.164023 5.87371 0
M  V30 10248 H 968.888 -1.08665 6.00853 0
M  V30 10249 H 970.302 1.15067 5.61634 0
M  V30 10250 H 968.699 1.93937 5.67898 0
M  V30 10251 H 969.769 2.24382 4.29861 0
M  V30 10252 N 971.112 -1.45937 0.595003 0
M  V30 10253 C 972.062 -2.27491 -0.152331 0
M  V30 10254 C 973.046 -1.36591 -0.850396 0
M  V30 10255 O 974.238 -1.60675 -0.742462 0
M  V30 10256 C 971.367 -3.23203 -1.15735 0
M  V30 10257 C 970.453 -4.2159 -0.46077 0
M  V30 10258 N 970.844 -5.03416 0.490555 0
M  V30 10259 C 969.142 -4.40313 -0.709949 0
M  V30 10260 C 969.843 -5.74714 0.898825 0
M  V30 10261 N 968.819 -5.43046 0.24529 0
M  V30 10262 H 972.621 -2.8815 0.578526 0
M  V30 10263 H 970.135 -1.56936 0.417716 0
M  V30 10264 H 972.132 -3.8035 -1.70704 0
M  V30 10265 H 970.792 -2.64104 -1.8889 0
M  V30 10266 H 971.803 -5.10597 0.866692 0
M  V30 10267 H 968.48 -3.92351 -1.42713 0
M  V30 10268 H 969.87 -6.50487 1.68273 0
M  V30 10269 N 972.59 -0.333456 -1.54032 0
M  V30 10270 C 973.839 0.267081 -1.99924 0
M  V30 10271 C 974.152 1.52463 -1.22534 0
M  V30 10272 O 975.358 2.20178 -1.58852 0
M  V30 10273 C 973.814 0.526456 -3.56029 0
M  V30 10274 C 973.422 -0.714607 -4.42264 0
M  V30 10275 C 975.166 1.0864 -4.10363 0
M  V30 10276 C 973.073 -0.42659 -5.89859 0
M  V30 10277 H 972.003 0.103577 -0.746852 0
M  V30 10278 H 974.654 -0.447218 -1.77967 0
M  V30 10279 H 973.036 1.3012 -3.74012 0
M  V30 10280 H 974.21 -1.48968 -4.36056 0
M  V30 10281 H 972.525 -1.19547 -3.9887 0
M  V30 10282 H 975.122 1.31668 -5.18235 0
M  V30 10283 H 975.465 2.03884 -3.62956 0
M  V30 10284 H 975.998 0.37261 -3.96051 0
M  V30 10285 H 972.737 -1.34847 -6.4148 0
M  V30 10286 H 972.257 0.310588 -5.98995 0
M  V30 10287 H 973.936 -0.0400807 -6.46988 0
M  V30 10288 N 974.068 1.57479 -0.061844 0
M  V30 10289 C 975.031 2.1104 0.894127 0
M  V30 10290 C 976.031 1.03227 1.23292 0
M  V30 10291 O 977.221 1.29256 1.16784 0
M  V30 10292 C 974.353 2.6035 2.20069 0
M  V30 10293 H 975.546 2.96807 0.429619 0
M  V30 10294 H 973.099 1.55181 0.18672 0
M  V30 10295 H 973.834 1.78008 2.71079 0
M  V30 10296 H 973.619 3.39146 1.9678 0
M  V30 10297 H 975.109 3.019 2.88525 0
M  V30 10298 N 975.546 -0.211634 1.56173 0
M  V30 10299 C 976.771 -0.955324 1.84088 0
M  V30 10300 C 977.196 -1.76754 0.643407 0
M  V30 10301 O 976.554 -1.76653 -0.407842 0
M  V30 10302 C 976.602 -1.84063 3.10085 0
M  V30 10303 O 975.706 -2.9373 2.89476 0
M  V30 10304 H 975.047 -0.26996 0.606645 0
M  V30 10305 H 977.577 -0.221947 2.03393 0
M  V30 10306 H 977.587 -2.24852 3.40449 0
M  V30 10307 H 976.262 -1.24373 3.96868 0
M  V30 10308 H 974.839 -2.56816 2.7037 0
M  V30 10309 N 977.024 -1.50153 -0.478725 0
M  V30 10310 C 977.956 -1.64603 -1.59494 0
M  V30 10311 C 978.969 -0.527789 -1.54007 0
M  V30 10312 O 980.158 -0.80069 -1.59534 0
M  V30 10313 C 977.258 -1.60738 -2.98356 0
M  V30 10314 C 976.431 -2.88468 -3.28794 0
M  V30 10315 C 975.49 -2.77349 -4.47173 0
M  V30 10316 O 974.516 -3.51302 -4.47857 0
M  V30 10317 N 975.718 -1.9039 -5.4839 0
M  V30 10318 H 978.483 -2.6088 -1.47518 0
M  V30 10319 H 976.044 -1.47521 -0.667011 0
M  V30 10320 H 978.036 -1.50923 -3.75505 0
M  V30 10321 H 976.606 -0.722273 -3.04141 0
M  V30 10322 H 975.826 -3.12467 -2.40329 0
M  V30 10323 H 977.114 -3.73102 -3.45937 0
M  V30 10324 H 976.512 -1.29606 -5.50653 0
M  V30 10325 H 975.069 -1.86484 -6.24553 0
M  V30 10326 N 978.502 0.731368 -1.39602 0
M  V30 10327 C 979.751 1.48647 -1.36334 0
M  V30 10328 C 980.064 1.95565 0.0367383 0
M  V30 10329 O 981.27 2.7082 0.192017 0
M  V30 10330 C 979.726 2.68616 -2.39528 0
M  V30 10331 C 979.334 2.28632 -3.85268 0
M  V30 10332 C 981.078 3.46422 -2.45341 0
M  V30 10333 C 978.985 3.45345 -4.80095 0
M  V30 10334 H 977.915 0.558218 -0.506861 0
M  V30 10335 H 980.566 0.797467 -1.65266 0
M  V30 10336 H 978.948 3.39609 -2.03671 0
M  V30 10337 H 980.122 1.65162 -4.30184 0
M  V30 10338 H 978.437 1.63909 -3.82783 0
M  V30 10339 H 981.034 4.33241 -3.13379 0
M  V30 10340 H 981.377 3.8914 -1.47904 0
M  V30 10341 H 981.91 2.82461 -2.80108 0
M  V30 10342 H 978.649 3.07674 -5.78807 0
M  V30 10343 H 978.169 4.07784 -4.39855 0
M  V30 10344 H 979.848 4.1163 -4.99169 0
M  V30 10345 N 979.98 1.24838 0.961938 0
M  V30 10346 C 980.943 1.04674 2.03902 0
M  V30 10347 C 981.943 0.00204674 1.608 0
M  V30 10348 O 983.133 0.243555 1.72489 0
M  V30 10349 C 980.265 0.587736 3.35795 0
M  V30 10350 H 981.458 2.00278 2.23223 0
M  V30 10351 H 979.011 1.07142 1.138 0
M  V30 10352 H 979.746 -0.371244 3.22168 0
M  V30 10353 H 979.531 1.34182 3.68426 0
M  V30 10354 H 981.021 0.467867 4.14971 0
M  V30 10355 N 981.458 -1.16348 1.06306 0
M  V30 10356 C 982.683 -1.91323 0.800636 0
M  V30 10357 C 983.108 -1.7691 -0.639105 0
M  V30 10358 O 982.466 -1.0945 -1.44535 0
M  V30 10359 C 982.514 -3.40038 1.20027 0
M  V30 10360 O 981.618 -4.11003 0.339142 0
M  V30 10361 H 980.959 -0.596057 0.292595 0
M  V30 10362 H 983.489 -1.47406 1.41889 0
M  V30 10363 H 983.499 -3.90808 1.17188 0
M  V30 10364 H 982.174 -3.49848 2.24898 0
M  V30 10365 H 980.751 -3.70423 0.42911 0
M  V30 10366 N 982.937 -0.845659 -1.3299 0
M  V30 10367 C 984.185 -0.443774 -1.97168 0
M  V30 10368 C 984.506 1.00192 -1.67292 0
M  V30 10369 O 983.776 1.69891 -0.975397 0
M  V30 10370 H 982.356 -0.161111 -0.729419 0
M  V30 10371 H 985.018 -1.08011 -1.62233 0
M  V30 10372 H 984.114 -0.581414 -3.06637 0
M  V30 10373 N 984.415 1.45619 -0.602734 0
M  V30 10374 C 985.348 2.27583 0.167708 0
M  V30 10375 C 986.326 1.36844 0.878206 0
M  V30 10376 O 987.51 1.6627 0.888058 0
M  V30 10377 C 984.637 3.15094 1.24232 0
M  V30 10378 C 983.683 4.21739 0.63549 0
M  V30 10379 S 984.516 5.32638 -0.552944 0
M  V30 10380 C 985.672 6.23716 0.522382 0
M  V30 10381 H 985.905 2.92579 -0.527697 0
M  V30 10382 H 983.438 1.4939 -0.390127 0
M  V30 10383 H 985.396 3.66071 1.85748 0
M  V30 10384 H 984.057 2.49372 1.90978 0
M  V30 10385 H 983.25 4.82874 1.44389 0
M  V30 10386 H 982.852 3.73878 0.0955772 0
M  V30 10387 H 985.144 6.62819 1.40276 0
M  V30 10388 H 986.087 7.0808 -0.0526951 0
M  V30 10389 H 986.495 5.58282 0.83553 0
M  V30 10390 N 985.893 0.34162 1.53853 0
M  V30 10391 C 987.139 -0.255862 2.01179 0
M  V30 10392 C 987.472 -1.50356 1.22909 0
M  V30 10393 O 986.747 -1.91913 0.316198 0
M  V30 10394 C 987.03 -0.571934 3.55529 0
M  V30 10395 C 986.883 0.687727 4.44511 0
M  V30 10396 C 988.202 -1.38233 4.17827 0
M  V30 10397 H 985.321 -0.091521 0.731295 0
M  V30 10398 H 987.963 0.461775 1.84303 0
M  V30 10399 H 986.113 -1.18331 3.70041 0
M  V30 10400 H 987.785 1.32572 4.4184 0
M  V30 10401 H 986.028 1.313 4.13452 0
M  V30 10402 H 986.699 0.421858 5.50386 0
M  V30 10403 H 989.175 -0.865374 4.07002 0
M  V30 10404 H 988.051 -1.57223 5.25901 0
M  V30 10405 H 988.312 -2.38386 3.72323 0
M  V30 10406 N 987.371 -1.57444 0.0701946 0
M  V30 10407 C 988.601 -1.97467 -0.607476 0
M  V30 10408 C 989.009 -0.947232 -1.63781 0
M  V30 10409 O 988.352 0.074652 -1.83548 0
M  V30 10410 C 988.414 -3.33795 -1.33495 0
M  V30 10411 C 988.078 -4.54697 -0.458265 0
M  V30 10412 C 989.075 -5.19127 0.283488 0
M  V30 10413 C 986.76 -5.00833 -0.383612 0
M  V30 10414 C 988.754 -6.28043 1.08813 0
M  V30 10415 C 986.441 -6.09622 0.424705 0
M  V30 10416 C 987.439 -6.7309 1.15925 0
M  V30 10417 O 987.127 -7.79785 1.95423 0
M  V30 10418 H 986.859 -0.654405 -0.169501 0
M  V30 10419 H 989.413 -2.04931 0.138651 0
M  V30 10420 H 987.643 -3.22941 -2.12711 0
M  V30 10421 H 989.332 -3.58435 -1.9047 0
M  V30 10422 H 990.098 -4.84428 0.235397 0
M  V30 10423 H 985.977 -4.51211 -0.944968 0
M  V30 10424 H 989.521 -6.77513 1.66197 0
M  V30 10425 H 985.418 -6.43755 0.474366 0
M  V30 10426 H 986.186 -7.96655 1.87838 0
M  V30 10427 N 988.849 0.203349 -1.56283 0
M  V30 10428 C 989.779 1.2549 -1.96912 0
M  V30 10429 C 990.76 1.47919 -0.839884 0
M  V30 10430 O 991.945 1.59795 -1.10359 0
M  V30 10431 C 989.075 2.6009 -2.30153 0
M  V30 10432 C 988.029 2.52289 -3.45738 0
M  V30 10433 C 987.355 3.91086 -3.64632 0
M  V30 10434 C 988.655 2.05503 -4.80173 0
M  V30 10435 H 990.349 0.917306 -2.85002 0
M  V30 10436 H 987.895 0.439818 -1.37119 0
M  V30 10437 H 989.848 3.33829 -2.5717 0
M  V30 10438 H 988.572 2.95574 -1.38937 0
M  V30 10439 H 987.231 1.81006 -3.18798 0
M  V30 10440 H 986.879 4.23908 -2.7076 0
M  V30 10441 H 986.579 3.86742 -4.42385 0
M  V30 10442 H 988.103 4.66459 -3.94016 0
M  V30 10443 H 989.517 2.68995 -5.06275 0
M  V30 10444 H 987.914 2.1218 -5.61337 0
M  V30 10445 H 988.984 1.00793 -4.74309 0
M  V30 10446 N 990.327 1.50405 0.470755 0
M  V30 10447 C 991.29 1.68741 1.5511 0
M  V30 10448 C 992.29 0.558116 1.50804 0
M  V30 10449 O 993.48 0.825149 1.53418 0
M  V30 10450 C 990.612 1.71295 2.94739 0
M  V30 10451 H 991.805 2.65127 1.40169 0
M  V30 10452 H 989.358 1.39891 0.697156 0
M  V30 10453 H 990.093 0.766029 3.15123 0
M  V30 10454 H 989.878 2.53336 2.99271 0
M  V30 10455 H 991.368 1.87434 3.73173 0
M  V30 10456 N 991.805 -0.723954 1.39988 0
M  V30 10457 C 993.03 -1.5182 1.41299 0
M  V30 10458 C 993.455 -1.88096 0.0122636 0
M  V30 10459 O 992.813 -1.52687 -0.977559 0
M  V30 10460 C 992.861 -2.77532 2.30235 0
M  V30 10461 O 991.965 -3.73903 1.73984 0
M  V30 10462 H 991.306 -0.458058 0.480707 0
M  V30 10463 H 993.836 -0.892291 1.84118 0
M  V30 10464 H 993.846 -3.2615 2.45132 0
M  V30 10465 H 992.521 -2.50462 3.32026 0
M  V30 10466 H 991.098 -3.32715 1.68389 0
M  V30 10467 N 993.283 -1.25346 -0.955304 0
M  V30 10468 C 994.215 -1.0146 -2.0552 0
M  V30 10469 C 995.228 0.0202256 -1.62787 0
M  V30 10470 O 996.417 -0.218251 -1.77161 0
M  V30 10471 C 993.517 -0.511727 -3.35014 0
M  V30 10472 C 992.69 -1.61256 -4.0659 0
M  V30 10473 C 991.749 -1.11017 -5.14356 0
M  V30 10474 O 990.775 -1.80443 -5.39842 0
M  V30 10475 N 991.977 0.0489001 -5.80479 0
M  V30 10476 H 994.742 -1.96166 -2.26581 0
M  V30 10477 H 992.303 -1.16543 -1.12381 0
M  V30 10478 H 994.295 -0.160123 -4.04383 0
M  V30 10479 H 992.865 0.341377 -3.1073 0
M  V30 10480 H 992.085 -2.13577 -3.31328 0
M  V30 10481 H 993.373 -2.35213 -4.51168 0
M  V30 10482 H 992.771 0.629021 -5.62192 0
M  V30 10483 H 991.328 0.341542 -6.50905 0
M  V30 10484 N 994.761 1.15782 -1.06922 0
M  V30 10485 C 995.711 2.18373 -0.655537 0
M  V30 10486 C 996.695 1.57745 0.317084 0
M  V30 10487 O 997.887 1.76511 0.131509 0
M  V30 10488 C 995.016 3.43263 -0.0502314 0
M  V30 10489 C 994.102 4.10954 -1.04773 0
M  V30 10490 N 994.493 4.542 -2.22567 0
M  V30 10491 C 992.791 4.3723 -0.880087 0
M  V30 10492 C 993.492 5.06641 -2.85815 0
M  V30 10493 N 992.468 4.99917 -2.13505 0
M  V30 10494 H 996.27 2.49533 -1.55276 0
M  V30 10495 H 993.784 1.32303 -0.941793 0
M  V30 10496 H 995.781 4.16063 0.264003 0
M  V30 10497 H 994.441 3.13588 0.842167 0
M  V30 10498 H 995.452 4.47727 -2.60309 0
M  V30 10499 H 992.129 4.17481 -0.0402148 0
M  V30 10500 H 993.519 5.50092 -3.85808 0
M  V30 10501 N 996.239 0.8527 1.3254 0
M  V30 10502 C 997.486 0.455123 1.97319 0
M  V30 10503 C 997.814 -0.988814 1.67489 0
M  V30 10504 O 997.069 -1.70845 0.954483 0
M  V30 10505 C 997.368 0.638757 3.51646 0
M  V30 10506 C 997.034 2.05287 4.01458 0
M  V30 10507 C 995.696 2.43963 4.14771 0
M  V30 10508 C 998.048 2.9759 4.27889 0
M  V30 10509 C 995.376 3.7422 4.51859 0
M  V30 10510 C 997.728 4.27343 4.66434 0
M  V30 10511 C 996.392 4.65957 4.77954 0
M  V30 10512 H 995.662 0.166541 0.722042 0
M  V30 10513 H 998.309 1.08238 1.57977 0
M  V30 10514 H 996.614 -0.0717394 3.91734 0
M  V30 10515 H 998.311 0.311219 3.9979 0
M  V30 10516 H 994.901 1.74253 3.91579 0
M  V30 10517 H 999.085 2.68942 4.17114 0
M  V30 10518 H 994.341 4.03923 4.58973 0
M  V30 10519 H 998.515 4.9893 4.85841 0
M  V30 10520 H 996.142 5.66934 5.06449 0
M  V30 10521 N 997.718 -1.45297 0.610449 0
M  V30 10522 C 998.964 -2.02518 0.106917 0
M  V30 10523 C 999.297 -1.47747 -1.26034 0
M  V30 10524 O 998.572 -0.65329 -1.832 0
M  V30 10525 C 998.855 -3.6003 0.0710975 0
M  V30 10526 C 998.708 -4.25128 1.46922 0
M  V30 10527 C 1000.03 -4.35778 -0.61524 0
M  V30 10528 H 997.146 -0.735896 0.040327 0
M  V30 10529 H 999.788 -1.73117 0.782968 0
M  V30 10530 H 997.938 -3.85209 -0.504611 0
M  V30 10531 H 999.61 -4.11125 2.09223 0
M  V30 10532 H 997.853 -3.83418 2.02911 0
M  V30 10533 H 998.524 -5.34046 1.39637 0
M  V30 10534 H 1001 -4.1591 -0.125871 0
M  V30 10535 H 999.876 -5.45506 -0.609419 0
M  V30 10536 H 1000.14 -4.08859 -1.68186 0
M  V30 10537 N 999.196 -0.349774 -1.5367 0
M  V30 10538 C 1000.15 0.52023 -2.21986 0
M  V30 10539 C 1001.13 1.06119 -1.20944 0
M  V30 10540 O 1002.32 0.993857 -1.46463 0
M  V30 10541 C 999.451 1.66751 -3.00082 0
M  V30 10542 C 998.537 1.14019 -4.08486 0
M  V30 10543 N 998.928 0.334588 -5.04692 0
M  V30 10544 C 997.226 1.4165 -4.22908 0
M  V30 10545 C 997.927 0.0476906 -5.8168 0
M  V30 10546 N 996.903 0.641032 -5.39807 0
M  V30 10547 H 1000.7 -0.102261 -2.93722 0
M  V30 10548 H 998.219 -0.15696 -1.6164 0
M  V30 10549 H 1000.22 2.30281 -3.47529 0
M  V30 10550 H 998.876 2.29322 -2.29873 0
M  V30 10551 H 999.887 -0.0248665 -5.17894 0
M  V30 10552 H 996.564 2.04615 -3.63922 0
M  V30 10553 H 997.954 -0.602565 -6.69193 0
M  V30 10554 N 1000.67 1.57404 -0.0785433 0
M  V30 10555 C 1002.09 1.57158 0.2781 0
M  V30 10556 C 1002.29 1.08847 1.69572 0
M  V30 10557 O 1001.35 0.757407 2.40873 0
M  V30 10558 C 1002.66 3.00589 0.0816067 0
M  V30 10559 C 1004.21 3.12637 0.150627 0
M  V30 10560 C 1004.68 4.57997 -0.0176685 0
M  V30 10561 N 1006.17 4.63185 0.0377145 0
M  V30 10562 C 1006.91 5.7336 -0.0679907 0
M  V30 10563 N 1006.4 6.92426 -0.227598 0
M  V30 10564 N 1008.2 5.62099 -0.0104424 0
M  V30 10565 H 1000.35 1.87121 -1.00496 0
M  V30 10566 H 1002.61 0.862937 -0.392484 0
M  V30 10567 H 1002.32 3.40072 -0.896869 0
M  V30 10568 H 1002.19 3.67931 0.831046 0
M  V30 10569 H 1004.58 2.73037 1.11959 0
M  V30 10570 H 1004.66 2.4792 -0.630028 0
M  V30 10571 H 1004.3 4.98288 -0.983431 0
M  V30 10572 H 1004.23 5.20754 0.782475 0
M  V30 10573 H 1006.72 3.77564 0.159208 0
M  V30 10574 H 1007.04 7.72217 -0.300217 0
M  V30 10575 H 1005.38 6.94502 -0.263049 0
M  V30 10576 H 1008.57 4.67964 0.112999 0
M  V30 10577 H 1008.75 6.47928 -0.0962747 0
M  V30 10578 N 1002.15 -0.195058 1.56388 0
M  V30 10579 C 1003.43 -0.941335 1.71459 0
M  V30 10580 C 1003.81 -2.01375 0.633336 0
M  V30 10581 O 1003.16 -2.25715 -0.35567 0
M  V30 10582 C 1003.37 -1.52772 3.13786 0
M  V30 10583 C 1004.71 -2.00983 3.7402 0
M  V30 10584 O 1005.74 -1.62614 3.16915 0
M  V30 10585 O 1004.6 -2.71586 4.7424 0
M  V30 10586 H 1001.69 -0.441451 0.699321 0
M  V30 10587 H 1004.24 -0.184752 1.68691 0
M  V30 10588 H 1003.01 -0.754699 3.83953 0
M  V30 10589 H 1002.63 -2.34914 3.20782 0
M  V30 10590 N 1003.63 -1.50653 -0.462772 0
M  V30 10591 C 1004.56 -1.73056 -1.5676 0
M  V30 10592 C 1005.54 -0.579699 -1.59917 0
M  V30 10593 O 1006.73 -0.819729 -1.76051 0
M  V30 10594 C 1003.86 -1.83234 -2.9503 0
M  V30 10595 C 1002.81 -2.98488 -3.06739 0
M  V30 10596 C 1002.14 -2.93818 -4.46738 0
M  V30 10597 C 1003.44 -4.38869 -2.83181 0
M  V30 10598 H 1005.13 -2.65562 -1.38265 0
M  V30 10599 H 1002.68 -1.27792 -0.663722 0
M  V30 10600 H 1004.63 -1.97491 -3.72257 0
M  V30 10601 H 1003.35 -0.873558 -3.14701 0
M  V30 10602 H 1002.01 -2.83895 -2.31946 0
M  V30 10603 H 1001.66 -1.95769 -4.63339 0
M  V30 10604 H 1001.36 -3.71197 -4.55507 0
M  V30 10605 H 1002.88 -3.10135 -5.25974 0
M  V30 10606 H 1004.3 -4.53945 -3.50153 0
M  V30 10607 H 1002.69 -5.17762 -3.03386 0
M  V30 10608 H 1003.76 -4.50663 -1.78972 0
M  V30 10609 N 1005.11 0.71652 -1.4037 0
M  V30 10610 C 1006.07 1.81231 -1.40313 0
M  V30 10611 C 1007.07 1.58032 -0.297087 0
M  V30 10612 O 1008.26 1.65091 -0.555944 0
M  V30 10613 C 1005.39 3.19308 -1.19395 0
M  V30 10614 H 1006.59 1.8268 -2.3784 0
M  V30 10615 H 1004.14 0.922062 -1.26205 0
M  V30 10616 H 1004.87 3.2351 -0.226252 0
M  V30 10617 H 1004.66 3.37546 -1.99512 0
M  V30 10618 H 1006.15 3.99339 -1.22141 0
M  V30 10619 N 1006.59 1.25851 0.948643 0
M  V30 10620 C 1007.81 1.13711 1.72851 0
M  V30 10621 C 1008.23 -0.308471 1.86263 0
M  V30 10622 O 1007.59 -1.21175 1.36465 0
M  V30 10623 C 1007.64 1.79271 3.13918 0
M  V30 10624 O 1007.36 3.18179 3.01154 0
M  V30 10625 C 1008.86 1.72988 4.08154 0
M  V30 10626 H 1006.08 0.396334 0.541443 0
M  V30 10627 H 1008.62 1.66329 1.18974 0
M  V30 10628 H 1006.78 1.30609 3.64719 0
M  V30 10629 H 1007.19 3.50507 3.90186 0
M  V30 10630 H 1008.67 2.2351 5.04725 0
M  V30 10631 H 1009.14 0.694866 4.33668 0
M  V30 10632 H 1009.75 2.21166 3.63271 0
M  V30 10633 N 1008.06 -1.15214 1.07534 0
M  V30 10634 C 1009.48 -1.38031 0.801228 0
M  V30 10635 C 1009.68 -1.92556 -0.593672 0
M  V30 10636 O 1008.74 -2.1325 -1.35206 0
M  V30 10637 C 1010.05 -2.34958 1.87657 0
M  V30 10638 C 1011.6 -2.48617 1.90154 0
M  V30 10639 C 1012.07 -3.48837 2.96777 0
M  V30 10640 N 1013.56 -3.56374 2.95892 0
M  V30 10641 C 1014.3 -4.33746 3.75036 0
M  V30 10642 N 1013.79 -5.14435 4.64036 0
M  V30 10643 N 1015.59 -4.28853 3.63375 0
M  V30 10644 H 1007.74 -0.781639 1.97495 0
M  V30 10645 H 1010 -0.406243 0.856546 0
M  V30 10646 H 1009.71 -2.02013 2.87895 0
M  V30 10647 H 1009.58 -3.3476 1.73827 0
M  V30 10648 H 1011.97 -2.80859 0.905666 0
M  V30 10649 H 1012.05 -1.48808 2.08062 0
M  V30 10650 H 1011.69 -3.1733 3.96565 0
M  V30 10651 H 1011.62 -4.48406 2.76116 0
M  V30 10652 H 1014.11 -2.98784 2.31379 0
M  V30 10653 H 1014.43 -5.70722 5.21053 0
M  V30 10654 H 1012.77 -5.13734 4.68084 0
M  V30 10655 H 1015.96 -3.64882 2.93221 0
M  V30 10656 H 1016.14 -4.88903 4.25298 0
M  V30 10657 N 1009.54 -0.859717 -1.32086 0
M  V30 10658 C 1010.49 -0.296897 -2.30697 0
M  V30 10659 C 1011.48 0.582473 -1.59071 0
M  V30 10660 O 1012.69 0.469713 -1.73763 0
M  V30 10661 H 1009.07 -0.0773132 -0.748015 0
M  V30 10662 H 1011.04 -1.14273 -2.75652 0
M  V30 10663 C 1009.79 0.495546 -3.44151 0
M  V30 10664 H 1009.11 -0.171829 -3.99431 0
M  V30 10665 H 1010.55 0.854854 -4.15293 0
M  V30 10666 C 1009.01 1.68278 -2.91863 0
M  V30 10667 O 1009.54 2.78194 -2.89777 0
M  V30 10668 N 1007.74 1.51151 -2.48197 0
M  V30 10669 H 1007.29 0.617345 -2.50093 0
M  V30 10670 H 1007.25 2.3073 -2.13567 0
M  V30 10671 N 1011.02 1.44971 -0.618145 0
M  V30 10672 C 1012.26 2.04044 -0.120625 0
M  V30 10673 C 1012.62 1.47472 1.22947 0
M  V30 10674 O 1013.83 1.97965 1.81834 0
M  V30 10675 C 1012.1 3.57279 -0.0930863 0
M  V30 10676 S 1013.66 4.37468 0.341705 0
M  V30 10677 H 1010.47 0.708891 -0.0547272 0
M  V30 10678 H 1013.08 1.77535 -0.818621 0
M  V30 10679 H 1011.78 3.95961 -1.07903 0
M  V30 10680 H 1011.31 3.88378 0.62657 0
M  V30 10681 H 1013.33 4.70073 1.58888 0
M  V30 10682 N 1012.5 0.357919 1.53482 0
M  V30 10683 C 1013.43 -0.484231 2.28424 0
M  V30 10684 C 1014.41 -1.09046 1.30548 0
M  V30 10685 O 1015.59 -1.10916 1.59409 0
M  V30 10686 C 1012.72 -1.62803 3.06778 0
M  V30 10687 C 1011.68 -1.14943 4.12277 0
M  V30 10688 C 1011 -2.38287 4.78669 0
M  V30 10689 C 1012.3 -0.239627 5.2175 0
M  V30 10690 H 1014 0.140979 2.99068 0
M  V30 10691 H 1011.54 0.069244 1.43833 0
M  V30 10692 H 1013.5 -2.22374 3.57949 0
M  V30 10693 H 1012.22 -2.28036 2.3381 0
M  V30 10694 H 1010.88 -0.576442 3.6204 0
M  V30 10695 H 1010.53 -3.01959 4.02281 0
M  V30 10696 H 1010.23 -2.06939 5.49955 0
M  V30 10697 H 1011.75 -2.98558 5.32631 0
M  V30 10698 H 1013.17 -0.742597 5.6847 0
M  V30 10699 H 1011.56 -0.0173747 6.00097 0
M  V30 10700 H 1012.63 0.720333 4.7952 0
M  V30 10701 N 1013.98 -1.5736 0.0868897 0
M  V30 10702 C 1015.22 -1.94341 -0.579598 0
M  V30 10703 C 1015.56 -0.968238 -1.68341 0
M  V30 10704 O 1014.83 8.29649e-05 -1.945 0
M  V30 10705 C 1015.11 -3.41497 -1.14245 0
M  V30 10706 C 1014.97 -4.49778 -0.044255 0
M  V30 10707 C 1016.29 -3.89788 -2.04336 0
M  V30 10708 H 1013.4 -0.70668 -0.20922 0
M  V30 10709 H 1016.05 -1.89359 0.15593 0
M  V30 10710 H 1014.2 -3.45873 -1.76929 0
M  V30 10711 H 1015.87 -4.57517 0.58959 0
M  V30 10712 H 1014.11 -4.293 0.623207 0
M  V30 10713 H 1014.78 -5.4992 -0.478749 0
M  V30 10714 H 1017.26 -3.87513 -1.51569 0
M  V30 10715 H 1016.13 -4.93335 -2.40648 0
M  V30 10716 H 1016.4 -3.28603 -2.95757 0
M  V30 10717 N 1015.45 0.186762 -1.56489 0
M  V30 10718 C 1016.7 0.904063 -1.80752 0
M  V30 10719 C 1017.02 1.83443 -0.661343 0
M  V30 10720 O 1016.29 1.93272 0.319811 0
M  V30 10721 H 1014.87 0.336828 -0.66675 0
M  V30 10722 H 1017.54 0.190275 -1.93969 0
M  V30 10723 H 1016.63 1.49021 -2.74225 0
M  V30 10724 N 1016.93 1.50896 0.454776 0
M  V30 10725 C 1017.9 1.70377 1.53312 0
M  V30 10726 C 1018.9 0.57408 1.50203 0
M  V30 10727 O 1020.09 0.841374 1.52534 0
M  V30 10728 C 1017.22 1.74411 2.92905 0
M  V30 10729 H 1018.41 2.66599 1.37349 0
M  V30 10730 H 1015.96 1.40622 0.68228 0
M  V30 10731 H 1016.7 0.799408 3.14293 0
M  V30 10732 H 1016.48 2.56496 2.96568 0
M  V30 10733 H 1017.97 1.91382 3.71164 0
M  V30 10734 N 1018.41 -0.709066 1.40748 0
M  V30 10735 C 1019.36 -1.84445 1.41714 0
M  V30 10736 C 1020.35 -1.66779 0.296818 0
M  V30 10737 O 1021.56 -1.73805 0.468181 0
M  V30 10738 H 1017.93 -0.607581 0.443114 0
M  V30 10739 H 1019.9 -1.80747 2.3743 0
M  V30 10740 C 1018.65 -3.22362 1.303 0
M  V30 10741 H 1017.98 -3.36565 2.15787 0
M  V30 10742 H 1019.42 -4.01922 1.35036 0
M  V30 10743 C 1017.88 -3.36897 0.0139015 0
M  V30 10744 O 1018.41 -3.90389 -0.946553 0
M  V30 10745 N 1016.61 -2.90543 -0.0577491 0
M  V30 10746 H 1016.16 -2.472 0.724574 0
M  V30 10747 H 1016.12 -3.00647 -0.919721 0
M  V30 10748 N 1019.89 -1.26353 -0.941956 0
M  V30 10749 C 1020.82 -1.10341 -2.05784 0
M  V30 10750 C 1021.8 -0.00881565 -1.70098 0
M  V30 10751 O 1022.99 -0.180699 -1.93357 0
M  V30 10752 C 1020.12 -0.734788 -3.39438 0
M  V30 10753 C 1019.07 -1.78103 -3.89183 0
M  V30 10754 C 1018.4 -1.26675 -5.19478 0
M  V30 10755 C 1019.7 -3.1824 -4.14151 0
M  V30 10756 H 1021.39 -2.03684 -2.19438 0
M  V30 10757 H 1018.94 -0.980698 -1.05443 0
M  V30 10758 H 1020.89 -0.609653 -4.16967 0
M  V30 10759 H 1019.61 0.234354 -3.25758 0
M  V30 10760 H 1018.27 -1.89482 -3.13835 0
M  V30 10761 H 1017.92 -0.287472 -5.02178 0
M  V30 10762 H 1017.62 -1.96612 -5.53731 0
M  V30 10763 H 1019.14 -1.15427 -5.99591 0
M  V30 10764 H 1020.56 -3.09942 -4.82296 0
M  V30 10765 H 1018.95 -3.8576 -4.59684 0
M  V30 10766 H 1020.02 -3.64354 -3.19959 0
M  V30 10767 N 1021.37 1.14642 -1.08144 0
M  V30 10768 C 1022.3 2.21775 -0.730609 0
M  V30 10769 C 1023.28 1.67683 0.285702 0
M  V30 10770 O 1024.46 1.93567 0.156667 0
M  V30 10771 C 1021.59 3.47033 -0.136242 0
M  V30 10772 C 1020.55 4.14134 -1.0806 0
M  V30 10773 C 1019.87 5.33563 -0.348585 0
M  V30 10774 C 1021.17 4.62978 -2.41761 0
M  V30 10775 H 1022.87 2.51378 -1.62633 0
M  V30 10776 H 1020.41 1.20825 -0.783411 0
M  V30 10777 H 1022.37 4.21226 0.121182 0
M  V30 10778 H 1021.09 3.16786 0.7946 0
M  V30 10779 H 1019.75 3.41892 -1.32308 0
M  V30 10780 H 1019.4 4.99575 0.585974 0
M  V30 10781 H 1019.1 5.79402 -0.978122 0
M  V30 10782 H 1020.62 6.10519 -0.0991508 0
M  V30 10783 H 1022.04 5.28659 -2.21795 0
M  V30 10784 H 1020.43 5.1951 -3.00383 0
M  V30 10785 H 1021.5 3.78189 -3.03482 0
M  V30 10786 N 1022.85 0.866709 1.31628 0
M  V30 10787 C 1024.09 0.476731 1.97117 0
M  V30 10788 C 1024.42 -0.967813 1.68366 0
M  V30 10789 O 1023.7 -1.68101 0.978377 0
M  V30 10790 C 1023.98 0.730561 3.52611 0
M  V30 10791 C 1023.84 2.2244 3.90948 0
M  V30 10792 C 1025.15 0.19488 4.39668 0
M  V30 10793 H 1022.27 0.174682 0.715999 0
M  V30 10794 H 1024.92 1.08735 1.5581 0
M  V30 10795 H 1023.07 0.210834 3.87927 0
M  V30 10796 H 1024.74 2.81113 3.6575 0
M  V30 10797 H 1022.98 2.69824 3.39673 0
M  V30 10798 H 1023.65 2.35266 4.99353 0
M  V30 10799 H 1026.13 0.639478 4.11157 0
M  V30 10800 H 1025 0.401958 5.47426 0
M  V30 10801 H 1025.26 -0.90302 4.32779 0
M  V30 10802 N 1024.32 -1.44642 0.625825 0
M  V30 10803 C 1025.27 -2.30653 -0.082259 0
M  V30 10804 C 1026.24 -1.43174 -0.842052 0
M  V30 10805 O 1027.43 -1.72082 -0.824151 0
M  V30 10806 C 1024.57 -3.2837 -1.06146 0
M  V30 10807 C 1023.68 -4.30953 -0.300638 0
M  V30 10808 C 1022.81 -5.15766 -1.27118 0
M  V30 10809 C 1021.85 -6.10061 -0.499215 0
M  V30 10810 N 1020.99 -6.87591 -1.41995 0
M  V30 10811 H 1025.83 -2.90664 0.657161 0
M  V30 10812 H 1023.37 -1.43215 0.335859 0
M  V30 10813 H 1025.32 -3.83507 -1.6425 0
M  V30 10814 H 1023.95 -2.70072 -1.76807 0
M  V30 10815 H 1023.01 -3.78331 0.396234 0
M  V30 10816 H 1024.32 -4.97892 0.300851 0
M  V30 10817 H 1023.47 -5.75394 -1.92372 0
M  V30 10818 H 1022.21 -4.48888 -1.9066 0
M  V30 10819 H 1021.22 -5.49547 0.166848 0
M  V30 10820 H 1022.44 -6.78973 0.131409 0
M  V30 10821 H 1020.39 -6.23387 -2.04267 0
M  V30 10822 H 1020.3 -7.5095 -0.872354 0
M  V30 10823 H 1021.57 -7.51746 -2.0615 0
M  V30 10824 N 1025.8 -0.366053 -1.5329 0
M  V30 10825 C 1027.05 0.224614 -2.00445 0
M  V30 10826 C 1027.36 1.49829 -1.2574 0
M  V30 10827 O 1028.57 2.16759 -1.63487 0
M  V30 10828 C 1027.03 0.450818 -3.57065 0
M  V30 10829 C 1026.63 -0.808257 -4.40649 0
M  V30 10830 C 1028.38 0.999116 -4.12575 0
M  V30 10831 C 1026.28 -0.551612 -5.88822 0
M  V30 10832 H 1025.21 0.0877114 -0.748881 0
M  V30 10833 H 1027.87 -0.484866 -1.76978 0
M  V30 10834 H 1026.25 1.22157 -3.76688 0
M  V30 10835 H 1027.42 -1.58184 -4.32798 0
M  V30 10836 H 1025.74 -1.27981 -3.96245 0
M  V30 10837 H 1028.33 1.20646 -5.20911 0
M  V30 10838 H 1028.68 1.96139 -3.67199 0
M  V30 10839 H 1029.21 0.288518 -3.96752 0
M  V30 10840 H 1025.95 -1.48423 -6.38475 0
M  V30 10841 H 1025.47 0.183462 -5.99519 0
M  V30 10842 H 1027.15 -0.177307 -6.46757 0
M  V30 10843 N 1027.28 1.57312 -0.0952337 0
M  V30 10844 C 1028.53 1.93974 0.567319 0
M  V30 10845 C 1028.85 0.977805 1.68713 0
M  V30 10846 O 1028.12 0.0298944 1.95877 0
M  V30 10847 H 1026.7 0.71612 0.212558 0
M  V30 10848 H 1029.36 1.94254 -0.158598 0
M  V30 10849 H 1028.46 2.964 0.977423 0
M  V30 10850 N 1028.76 -0.17846 1.56586 0
M  V30 10851 C 1030.03 -0.923096 1.72448 0
M  V30 10852 C 1030.41 -2.00692 0.654659 0
M  V30 10853 O 1029.76 -2.26079 -0.33171 0
M  V30 10854 C 1029.97 -1.49435 3.15389 0
M  V30 10855 C 1031.32 -1.97005 3.76131 0
M  V30 10856 O 1032.34 -1.59244 3.18622 0
M  V30 10857 O 1031.2 -2.66541 4.77094 0
M  V30 10858 H 1028.3 -0.434009 0.703964 0
M  V30 10859 H 1030.84 -0.16685 1.68878 0
M  V30 10860 H 1029.62 -0.713933 3.84732 0
M  V30 10861 H 1029.24 -2.31498 3.23256 0
M  V30 10862 N 1030.24 -1.51135 -0.446768 0
M  V30 10863 C 1031.48 -1.63336 -1.19698 0
M  V30 10864 C 1031.81 -0.345099 -1.91414 0
M  V30 10865 O 1031.07 0.670365 -1.8386 0
M  V30 10866 C 1031.36 -2.78034 -2.2457 0
M  V30 10867 C 1031.03 -4.17652 -1.69934 0
M  V30 10868 C 1029.69 -4.55636 -1.54756 0
M  V30 10869 C 1032.04 -5.04813 -1.29665 0
M  V30 10870 C 1029.37 -5.78496 -0.977689 0
M  V30 10871 C 1031.72 -6.28244 -0.741112 0
M  V30 10872 C 1030.39 -6.65009 -0.576156 0
M  V30 10873 H 1029.66 -0.597689 -0.438006 0
M  V30 10874 H 1032.31 -1.85141 -0.48939 0
M  V30 10875 H 1030.61 -2.50413 -3.01331 0
M  V30 10876 H 1032.31 -2.84675 -2.8242 0
M  V30 10877 H 1028.9 -3.87699 -1.82722 0
M  V30 10878 H 1033.08 -4.76081 -1.40216 0
M  V30 10879 H 1028.34 -6.05636 -0.837563 0
M  V30 10880 H 1032.51 -6.95129 -0.42053 0
M  V30 10881 H 1030.14 -7.60085 -0.132443 0
M  V30 10882 N 1031.71 0.701592 -1.41122 0
M  V30 10883 C 1032.96 1.45871 -1.39879 0
M  V30 10884 C 1033.28 1.94999 -0.00668769 0
M  V30 10885 O 1032.55 1.71298 0.95047 0
M  V30 10886 H 1031.13 0.541231 -0.514857 0
M  V30 10887 H 1033.79 0.830803 -1.76306 0
M  V30 10888 H 1032.89 2.32479 -2.0823 0
M  V30 10889 N 1033.19 1.2685 0.935242 0
M  V30 10890 C 1034.12 1.03244 2.03509 0
M  V30 10891 C 1035.1 -0.0447323 1.62538 0
M  V30 10892 O 1036.29 0.0988905 1.8824 0
M  V30 10893 C 1033.41 0.564626 3.33961 0
M  V30 10894 C 1032.46 1.63524 3.93906 0
M  V30 10895 S 1033.29 3.22577 4.27439 0
M  V30 10896 C 1034.45 2.77579 5.60982 0
M  V30 10897 H 1034.68 1.96367 2.2322 0
M  V30 10898 H 1032.21 1.10597 1.07739 0
M  V30 10899 H 1034.17 0.301388 4.09392 0
M  V30 10900 H 1032.83 -0.346419 3.12184 0
M  V30 10901 H 1032.03 1.25905 4.8802 0
M  V30 10902 H 1031.63 1.85017 3.25031 0
M  V30 10903 H 1033.92 2.22412 6.39952 0
M  V30 10904 H 1034.86 3.70408 6.03493 0
M  V30 10905 H 1035.27 2.16956 5.21143 0
M  V30 10906 N 1034.67 -1.14067 1.0875 0
M  V30 10907 C 1035.9 -1.89582 0.841038 0
M  V30 10908 C 1036.32 -1.78226 -0.601436 0
M  V30 10909 O 1035.68 -1.12491 -1.42181 0
M  V30 10910 C 1035.73 -3.37415 1.27213 0
M  V30 10911 O 1034.83 -4.10191 0.426246 0
M  V30 10912 H 1034.17 -0.589716 0.305173 0
M  V30 10913 H 1036.7 -1.44364 1.44984 0
M  V30 10914 H 1036.71 -3.88234 1.25451 0
M  V30 10915 H 1035.39 -3.44999 2.32268 0
M  V30 10916 H 1033.96 -3.69429 0.507585 0
M  V30 10917 N 1036.15 -0.873678 -1.31166 0
M  V30 10918 C 1037.56 -0.566109 -1.49223 0
M  V30 10919 C 1037.76 0.898889 -1.80339 0
M  V30 10920 O 1036.82 1.68084 -1.88425 0
M  V30 10921 C 1038.13 -1.46952 -2.62346 0
M  V30 10922 C 1039.68 -1.47195 -2.76229 0
M  V30 10923 C 1040.16 -2.36102 -3.92454 0
M  V30 10924 N 1041.65 -2.34003 -3.99746 0
M  V30 10925 C 1042.38 -2.99513 -4.88958 0
M  V30 10926 N 1041.88 -3.74206 -5.83045 0
M  V30 10927 N 1043.67 -2.88802 -4.82234 0
M  V30 10928 H 1035.82 -1.82156 -1.09239 0
M  V30 10929 H 1038.09 -0.779086 -0.54012 0
M  V30 10930 H 1037.79 -2.51213 -2.4614 0
M  V30 10931 H 1037.67 -1.17077 -3.5857 0
M  V30 10932 H 1040.05 -0.436902 -2.91848 0
M  V30 10933 H 1040.13 -1.81095 -1.80661 0
M  V30 10934 H 1039.78 -3.39685 -3.77593 0
M  V30 10935 H 1039.71 -1.99524 -4.87337 0
M  V30 10936 H 1042.2 -1.79713 -3.32433 0
M  V30 10937 H 1042.51 -4.21312 -6.47855 0
M  V30 10938 H 1040.86 -3.78314 -5.83012 0
M  V30 10939 H 1044.05 -2.29984 -4.07707 0
M  V30 10940 H 1044.22 -3.40136 -5.51554 0
M  V30 10941 N 1037.63 1.44308 -0.633487 0
M  V30 10942 C 1038.9 1.95476 -0.0697262 0
M  V30 10943 C 1039.28 1.57539 1.40516 0
M  V30 10944 O 1038.63 0.850632 2.12077 0
M  V30 10945 C 1038.84 3.4775 -0.295093 0
M  V30 10946 C 1040.19 4.24177 -0.189542 0
M  V30 10947 O 1041.21 3.55479 -0.226586 0
M  V30 10948 O 1040.07 5.46415 -0.096479 0
M  V30 10949 H 1037.17 0.826734 0.0209582 0
M  V30 10950 H 1039.71 1.54347 -0.705354 0
M  V30 10951 H 1038.48 3.6842 -1.31841 0
M  V30 10952 H 1038.11 3.95832 0.37456 0
M  V30 10953 N 1039.1 0.374177 1.53094 0
M  V30 10954 C 1040.35 -0.213131 2.01677 0
M  V30 10955 C 1040.68 -1.47715 1.26071 0
M  V30 10956 O 1039.96 -1.91199 0.356834 0
M  V30 10957 C 1040.24 -0.496392 3.56662 0
M  V30 10958 C 1040.09 0.781859 4.42953 0
M  V30 10959 C 1041.41 -1.29339 4.20666 0
M  V30 10960 H 1038.53 -0.0759885 0.733072 0
M  V30 10961 H 1041.17 0.500765 1.83282 0
M  V30 10962 H 1039.32 -1.10455 3.72467 0
M  V30 10963 H 1041 1.41914 4.38928 0
M  V30 10964 H 1039.24 1.40041 4.10574 0
M  V30 10965 H 1039.91 0.538508 5.49367 0
M  V30 10966 H 1042.39 -0.778848 4.08746 0
M  V30 10967 H 1041.26 -1.46033 5.29118 0
M  V30 10968 H 1041.52 -2.30435 3.77296 0
M  V30 10969 N 1040.58 -1.57259 0.103575 0
M  V30 10970 C 1041.81 -1.98711 -0.565454 0
M  V30 10971 C 1042.22 -0.981759 -1.61735 0
M  V30 10972 O 1041.56 0.0357019 -1.83665 0
M  V30 10973 C 1041.63 -3.36552 -1.26384 0
M  V30 10974 C 1041.29 -4.55566 -0.361714 0
M  V30 10975 C 1042.29 -5.18408 0.393539 0
M  V30 10976 C 1039.97 -5.01534 -0.277292 0
M  V30 10977 C 1041.97 -6.25594 1.2211 0
M  V30 10978 C 1039.65 -6.08584 0.553919 0
M  V30 10979 C 1040.65 -6.7048 1.30176 0
M  V30 10980 O 1040.34 -7.75464 2.1192 0
M  V30 10981 H 1040.07 -0.657853 -0.155582 0
M  V30 10982 H 1042.62 -2.04591 0.182089 0
M  V30 10983 H 1040.85 -3.2738 -2.05813 0
M  V30 10984 H 1042.54 -3.62395 -1.82824 0
M  V30 10985 H 1043.31 -4.8382 0.338098 0
M  V30 10986 H 1039.19 -4.53114 -0.849047 0
M  V30 10987 H 1042.73 -6.73836 1.80531 0
M  V30 10988 H 1038.63 -6.42604 0.610809 0
M  V30 10989 H 1039.4 -7.92491 2.04694 0
M  V30 10990 N 1042.06 0.170153 -1.56679 0
M  V30 10991 C 1043.29 0.90618 -1.86556 0
M  V30 10992 C 1043.71 1.74986 -0.690044 0
M  V30 10993 O 1043.07 1.77672 0.360862 0
M  V30 10994 C 1043.12 1.75777 -3.14857 0
M  V30 10995 O 1042.22 2.85952 -2.97162 0
M  V30 10996 H 1041.56 0.253781 -0.613589 0
M  V30 10997 H 1044.09 0.167943 -2.0391 0
M  V30 10998 H 1044.1 2.15747 -3.46291 0
M  V30 10999 H 1042.78 1.13807 -4.00026 0
M  V30 11000 H 1041.35 2.49557 -2.77084 0
M  V30 11001 N 1043.54 1.5137 0.438746 0
M  V30 11002 C 1044.77 1.67774 1.21077 0
M  V30 11003 C 1045.18 0.374489 1.85049 0
M  V30 11004 O 1044.54 -0.646867 1.70651 0
M  V30 11005 C 1044.59 2.79238 2.29584 0
M  V30 11006 O 1044.31 4.04513 1.68228 0
M  V30 11007 C 1045.81 3.06898 3.19888 0
M  V30 11008 H 1043.03 0.563054 0.364981 0
M  V30 11009 H 1045.58 1.97777 0.520035 0
M  V30 11010 H 1043.73 2.51837 2.94375 0
M  V30 11011 H 1044.14 4.66405 2.3993 0
M  V30 11012 H 1045.62 3.88476 3.92162 0
M  V30 11013 H 1046.1 2.19249 3.80561 0
M  V30 11014 H 1046.7 3.35952 2.60799 0
M  V30 11015 N 1045.02 -0.694098 1.41492 0
M  V30 11016 C 1046.29 -1.44875 1.31418 0
M  V30 11017 C 1046.67 -2.11022 -0.0575538 0
M  V30 11018 O 1046.02 -2.01799 -1.07188 0
M  V30 11019 C 1046.23 -2.46698 2.46863 0
M  V30 11020 C 1047.58 -3.11907 2.88095 0
M  V30 11021 O 1048.6 -2.57022 2.46613 0
M  V30 11022 O 1047.46 -4.11318 3.59833 0
M  V30 11023 H 1044.56 -0.645266 0.517263 0
M  V30 11024 H 1047.1 -0.724452 1.53459 0
M  V30 11025 H 1045.87 -1.96485 3.38392 0
M  V30 11026 H 1045.5 -3.26634 2.26706 0
M  V30 11027 N 1046.49 -1.27344 -0.928501 0
M  V30 11028 C 1047.72 -1.16278 -1.70772 0
M  V30 11029 C 1048.13 0.283131 -1.8707 0
M  V30 11030 O 1047.48 1.20466 -1.38685 0
M  V30 11031 C 1047.54 -1.77313 -3.1273 0
M  V30 11032 C 1047.2 -3.26488 -3.19773 0
M  V30 11033 C 1048.2 -4.23133 -3.02083 0
M  V30 11034 C 1045.88 -3.67182 -3.42757 0
M  V30 11035 C 1047.88 -5.5845 -3.07267 0
M  V30 11036 C 1045.56 -5.02629 -3.47574 0
M  V30 11037 C 1046.56 -5.98072 -3.29847 0
M  V30 11038 O 1046.25 -7.3105 -3.34397 0
M  V30 11039 H 1045.98 -0.405215 -0.541089 0
M  V30 11040 H 1048.54 -1.68707 -1.17163 0
M  V30 11041 H 1046.77 -1.19361 -3.67818 0
M  V30 11042 H 1048.46 -1.60972 -3.72616 0
M  V30 11043 H 1049.22 -3.93031 -2.84168 0
M  V30 11044 H 1045.1 -2.93369 -3.55606 0
M  V30 11045 H 1048.64 -6.32924 -2.93348 0
M  V30 11046 H 1044.54 -5.32387 -3.65013 0
M  V30 11047 H 1045.31 -7.39488 -3.50857 0
M  V30 11048 N 1047.97 1.13488 -1.09353 0
M  V30 11049 C 1049.2 1.88319 -0.849681 0
M  V30 11050 C 1049.61 1.79347 0.602616 0
M  V30 11051 O 1048.95 1.15744 1.4265 0
M  V30 11052 C 1049.02 3.38698 -1.20514 0
M  V30 11053 C 1048.68 3.71452 -2.66219 0
M  V30 11054 C 1049.68 3.70755 -3.64467 0
M  V30 11055 C 1047.36 4.01132 -3.02321 0
M  V30 11056 C 1049.36 3.9928 -4.96845 0
M  V30 11057 C 1047.04 4.29318 -4.3489 0
M  V30 11058 C 1048.04 4.28376 -5.31961 0
M  V30 11059 O 1047.73 4.55872 -6.62145 0
M  V30 11060 H 1047.46 0.603053 -0.305455 0
M  V30 11061 H 1050.01 1.44592 -1.45884 0
M  V30 11062 H 1048.24 3.82925 -0.539022 0
M  V30 11063 H 1049.93 3.94852 -0.940552 0
M  V30 11064 H 1050.7 3.47901 -3.3792 0
M  V30 11065 H 1046.58 4.01013 -2.27398 0
M  V30 11066 H 1050.12 3.9846 -5.72604 0
M  V30 11067 H 1046.02 4.51644 -4.61181 0
M  V30 11068 H 1046.79 4.73544 -6.67607 0
M  V30 11069 N 1049.45 0.880621 1.30701 0
M  V30 11070 C 1050.87 0.574015 1.4892 0
M  V30 11071 C 1051.07 -0.889312 1.80813 0
M  V30 11072 O 1050.12 -1.67082 1.89314 0
M  V30 11073 C 1051.44 1.48341 2.61563 0
M  V30 11074 C 1052.98 1.48658 2.75445 0
M  V30 11075 C 1053.46 2.3818 3.91196 0
M  V30 11076 N 1054.95 2.36119 3.985 0
M  V30 11077 C 1055.69 3.02101 4.87363 0
M  V30 11078 N 1055.18 3.77293 5.81052 0
M  V30 11079 N 1056.97 2.91356 4.80696 0
M  V30 11080 H 1049.13 1.82732 1.08271 0
M  V30 11081 H 1051.39 0.781939 0.535981 0
M  V30 11082 H 1051.09 2.52515 2.44804 0
M  V30 11083 H 1050.97 1.18977 3.57944 0
M  V30 11084 H 1053.36 0.452374 2.91612 0
M  V30 11085 H 1053.44 1.8205 1.79698 0
M  V30 11086 H 1053.08 3.41683 3.75786 0
M  V30 11087 H 1053.01 2.02106 4.86272 0
M  V30 11088 H 1055.5 1.81474 3.31475 0
M  V30 11089 H 1055.81 4.24742 6.45612 0
M  V30 11090 H 1054.16 3.81401 5.80998 0
M  V30 11091 H 1057.35 2.32143 4.06481 0
M  V30 11092 H 1057.52 3.43056 5.49742 0
M  V30 11093 N 1050.93 -1.4397 0.641131 0
M  V30 11094 C 1051.86 -2.33458 -0.04446 0
M  V30 11095 C 1052.84 -1.48781 -0.824507 0
M  V30 11096 O 1054.03 -1.77477 -0.788397 0
M  V30 11097 C 1051.16 -3.31989 -1.01984 0
M  V30 11098 C 1050.11 -4.2656 -0.350745 0
M  V30 11099 C 1049.44 -5.15036 -1.43673 0
M  V30 11100 C 1050.74 -5.16897 0.749299 0
M  V30 11101 H 1052.43 -2.91034 0.702832 0
M  V30 11102 H 1049.98 -1.39942 0.339435 0
M  V30 11103 H 1051.93 -3.93483 -1.50828 0
M  V30 11104 H 1050.65 -2.72643 -1.79815 0
M  V30 11105 H 1049.31 -3.66413 0.117139 0
M  V30 11106 H 1048.96 -4.52037 -2.20617 0
M  V30 11107 H 1048.66 -5.79125 -0.994358 0
M  V30 11108 H 1050.18 -5.79403 -1.92678 0
M  V30 11109 H 1051.6 -5.7227 0.343534 0
M  V30 11110 H 1049.99 -5.89643 1.11541 0
M  V30 11111 H 1051.06 -4.5731 1.61232 0
M  V30 11112 N 1052.41 -0.382291 -1.52893 0
M  V30 11113 C 1053.65 0.202133 -2.01489 0
M  V30 11114 C 1053.98 1.47399 -1.26901 0
M  V30 11115 O 1053.24 1.92439 -0.355771 0
M  V30 11116 C 1053.54 0.523437 -3.53546 0
M  V30 11117 C 1053.2 -0.656042 -4.46102 0
M  V30 11118 C 1051.86 -0.979633 -4.71123 0
M  V30 11119 C 1054.22 -1.44545 -5.00756 0
M  V30 11120 C 1051.54 -2.0943 -5.48047 0
M  V30 11121 C 1053.9 -2.55066 -5.78899 0
M  V30 11122 C 1052.56 -2.87942 -6.02201 0
M  V30 11123 H 1051.83 0.0739659 -0.737299 0
M  V30 11124 H 1054.48 -0.518196 -1.84356 0
M  V30 11125 H 1052.78 1.325 -3.68715 0
M  V30 11126 H 1054.48 0.988148 -3.88634 0
M  V30 11127 H 1051.07 -0.393818 -4.26787 0
M  V30 11128 H 1055.25 -1.20869 -4.81357 0
M  V30 11129 H 1050.51 -2.3528 -5.64317 0
M  V30 11130 H 1054.68 -3.1664 -6.20252 0
M  V30 11131 H 1052.31 -3.74435 -6.61591 0
M  V30 11132 N 1053.89 1.57202 -0.111913 0
M  V30 11133 C 1054.83 2.16186 0.858286 0
M  V30 11134 C 1055.83 1.10917 1.28039 0
M  V30 11135 O 1057.03 1.29233 1.25295 0
M  V30 11136 H 1053.41 0.691777 0.29487 0
M  V30 11137 H 1055.38 2.96499 0.336265 0
M  V30 11138 C 1054.13 2.77024 2.10127 0
M  V30 11139 H 1053.45 3.5772 1.78539 0
M  V30 11140 H 1054.89 3.21841 2.76033 0
M  V30 11141 C 1053.35 1.73752 2.88638 0
M  V30 11142 O 1053.88 1.18659 3.83774 0
M  V30 11143 N 1052.09 1.43855 2.52496 0
M  V30 11144 H 1051.63 1.88846 1.75199 0
M  V30 11145 H 1051.59 0.749985 3.05324 0
M  V30 11146 N 1055.36 -0.161842 1.56767 0
M  V30 11147 C 1056.77 -0.723385 1.72116 0
M  V30 11148 C 1057.13 -1.82355 0.723961 0
M  V30 11149 O 1056.25 -2.16107 -0.112643 0
M  V30 11150 C 1056.85 -1.31895 3.12072 0
M  V30 11151 C 1055.4 -1.82722 3.29074 0
M  V30 11152 C 1054.55 -0.709863 2.6806 0
M  V30 11153 H 1057.5 0.0636647 1.58572 0
M  V30 11154 H 1057.52 -2.18871 3.11249 0
M  V30 11155 H 1057.04 -0.51801 3.84627 0
M  V30 11156 H 1055.14 -2.6543 2.61491 0
M  V30 11157 H 1055.25 -1.96614 4.36898 0
M  V30 11158 H 1053.61 -1.13273 2.28126 0
M  V30 11159 H 1054.4 0.0793884 3.43208 0
M  V30 11160 N 1056.84 -1.516 -0.430713 0
M  V30 11161 C 1058.07 -1.687 -1.20644 0
M  V30 11162 C 1058.49 -0.386555 -1.84085 0
M  V30 11163 O 1057.85 0.653952 -1.69095 0
M  V30 11164 C 1057.9 -2.80887 -2.2613 0
M  V30 11165 O 1057 -2.44952 -3.31772 0
M  V30 11166 H 1056.34 -0.562289 -0.353167 0
M  V30 11167 H 1058.87 -1.98198 -0.507807 0
M  V30 11168 H 1058.88 -3.05167 -2.70809 0
M  V30 11169 H 1057.56 -3.75249 -1.79334 0
M  V30 11170 H 1056.13 -2.31267 -2.92523 0
M  V30 11171 N 1058.32 0.686584 -1.41858 0
M  V30 11172 C 1059.57 1.44379 -1.41418 0
M  V30 11173 C 1059.89 1.94981 -0.0273696 0
M  V30 11174 O 1059.16 1.72296 0.932248 0
M  V30 11175 H 1057.74 0.53574 -0.520568 0
M  V30 11176 H 1060.4 0.812056 -1.77177 0
M  V30 11177 H 1059.5 2.30258 -2.10684 0
M  V30 11178 N 1059.8 1.27835 0.921735 0
M  V30 11179 C 1060.75 1.1092 2.04449 0
M  V30 11180 C 1061.74 0.0306469 1.69372 0
M  V30 11181 O 1062.95 0.188818 1.79007 0
M  V30 11182 H 1059.32 0.341973 0.669745 0
M  V30 11183 H 1061.29 2.06026 2.1586 0
M  V30 11184 C 1060.04 0.779443 3.38851 0
M  V30 11185 H 1059.36 1.60131 3.66331 0
M  V30 11186 H 1060.8 0.700999 4.18165 0
M  V30 11187 C 1059.26 -0.51647 3.32918 0
M  V30 11188 O 1059.79 -1.54914 3.70627 0
M  V30 11189 N 1058 -0.514276 2.86013 0
M  V30 11190 H 1057.55 0.32651 2.55522 0
M  V30 11191 H 1057.5 -1.38141 2.82426 0
M  V30 11192 N 1061.28 -1.12907 1.09954 0
M  V30 11193 C 1062.55 -1.80602 0.751148 0
M  V30 11194 C 1062.93 -1.96826 -0.763077 0
M  V30 11195 O 1062.28 -1.54066 -1.68749 0
M  V30 11196 C 1062.49 -3.15289 1.49646 0
M  V30 11197 C 1063.84 -3.9056 1.66578 0
M  V30 11198 O 1064.86 -3.24929 1.45943 0
M  V30 11199 O 1063.72 -5.08292 2.00752 0
M  V30 11200 H 1060.82 -0.781529 0.270446 0
M  V30 11201 H 1063.36 -1.19786 1.20206 0
M  V30 11202 H 1062.13 -2.9874 2.52725 0
M  V30 11203 H 1061.76 -3.83809 1.03808 0
M  V30 11204 N 1062.75 -0.88754 -1.30232 0
M  V30 11205 C 1064 -0.507279 -1.96043 0
M  V30 11206 C 1064.33 0.944059 -1.70052 0
M  V30 11207 O 1063.58 1.68255 -0.999444 0
M  V30 11208 C 1063.88 -0.731765 -3.49828 0
M  V30 11209 C 1063.55 -2.15858 -3.95874 0
M  V30 11210 C 1062.21 -2.54875 -4.08157 0
M  V30 11211 C 1064.56 -3.0883 -4.19849 0
M  V30 11212 C 1061.89 -3.86069 -4.41778 0
M  V30 11213 C 1064.24 -4.39559 -4.5494 0
M  V30 11214 C 1062.91 -4.78465 -4.65432 0
M  V30 11215 H 1062.18 -0.185627 -0.717373 0
M  V30 11216 H 1064.82 -1.12388 -1.55052 0
M  V30 11217 H 1063.13 -0.0321473 -3.91787 0
M  V30 11218 H 1064.83 -0.417107 -3.98825 0
M  V30 11219 H 1061.42 -1.84574 -3.86821 0
M  V30 11220 H 1065.6 -2.79906 -4.09837 0
M  V30 11221 H 1060.86 -4.1595 -4.48102 0
M  V30 11222 H 1065.03 -5.11636 -4.72442 0
M  V30 11223 H 1062.66 -5.80162 -4.91239 0
M  V30 11224 N 1064.23 1.43628 -0.648757 0
M  V30 11225 C 1065.47 2.03742 -0.163878 0
M  V30 11226 C 1065.84 1.50047 1.19791 0
M  V30 11227 O 1067.04 2.01777 1.77594 0
M  V30 11228 C 1065.31 3.57001 -0.168849 0
M  V30 11229 S 1066.87 4.38094 0.248835 0
M  V30 11230 H 1063.69 0.70757 -0.0697515 0
M  V30 11231 H 1066.29 1.75759 -0.856094 0
M  V30 11232 H 1064.99 3.93583 -1.16277 0
M  V30 11233 H 1064.52 3.8962 0.544048 0
M  V30 11234 H 1066.54 4.73338 1.48882 0
M  V30 11235 N 1065.71 0.390394 1.52688 0
M  V30 11236 C 1066.96 -0.192697 2.00777 0
M  V30 11237 C 1067.27 -1.4781 1.28108 0
M  V30 11238 O 1068.48 -2.1413 1.66914 0
M  V30 11239 C 1066.93 -0.393955 3.57737 0
M  V30 11240 C 1066.54 0.878259 4.39307 0
M  V30 11241 C 1068.29 -0.933352 4.14112 0
M  V30 11242 C 1066.19 0.645218 5.8787 0
M  V30 11243 H 1065.12 -0.0757862 0.750182 0
M  V30 11244 H 1067.77 0.512961 1.76184 0
M  V30 11245 H 1066.16 -1.16149 3.78583 0
M  V30 11246 H 1067.33 1.65049 4.30227 0
M  V30 11247 H 1065.65 1.34269 3.94158 0
M  V30 11248 H 1068.24 -1.12343 5.22765 0
M  V30 11249 H 1068.59 -1.90272 3.70273 0
M  V30 11250 H 1069.12 -0.225361 3.97161 0
M  V30 11251 H 1065.86 1.58562 6.36033 0
M  V30 11252 H 1065.38 -0.0880609 5.99735 0
M  V30 11253 H 1067.06 0.280178 6.46393 0
M  V30 11254 N 1067.19 -1.57141 0.120249 0
M  V30 11255 C 1068.43 -1.9632 -0.531989 0
M  V30 11256 C 1068.79 -1.00265 -1.64209 0
M  V30 11257 O 1068.08 -0.0328969 -1.91572 0
M  V30 11258 C 1068.28 -3.39745 -1.10941 0
M  V30 11259 C 1068.11 -4.49664 -0.0567772 0
M  V30 11260 C 1066.88 -5.03903 0.375466 0
M  V30 11261 C 1069.07 -5.09169 0.724667 0
M  V30 11262 N 1067.06 -5.974 1.41374 0
M  V30 11263 C 1068.43 -5.98621 1.61411 0
M  V30 11264 C 1070.48 -4.91825 0.775417 0
M  V30 11265 C 1069.18 -6.72587 2.54988 0
M  V30 11266 C 1071.21 -5.66473 1.69891 0
M  V30 11267 C 1070.57 -6.55611 2.57592 0
M  V30 11268 H 1066.67 -0.764554 -0.164259 0
M  V30 11269 H 1069.26 -1.93579 0.208656 0
M  V30 11270 H 1067.43 -3.43131 -1.81977 0
M  V30 11271 H 1069.16 -3.66045 -1.72607 0
M  V30 11272 H 1065.91 -4.73597 -0.0171723 0
M  V30 11273 H 1066.34 -6.48852 1.93184 0
M  V30 11274 H 1070.98 -4.22653 0.111497 0
M  V30 11275 H 1068.7 -7.41005 3.22393 0
M  V30 11276 H 1072.28 -5.55057 1.74363 0
M  V30 11277 H 1071.16 -7.12361 3.27889 0
M  V30 11278 N 1068.67 0.153526 -1.5685 0
M  V30 11279 C 1069.91 0.873522 -1.84794 0
M  V30 11280 C 1070.27 1.78642 -0.703648 0
M  V30 11281 O 1071.47 2.54537 -0.863972 0
M  V30 11282 C 1069.74 1.63316 -3.17904 0
M  V30 11283 S 1071.3 2.39948 -3.67383 0
M  V30 11284 H 1068.12 0.292233 -0.648167 0
M  V30 11285 H 1070.72 0.133949 -1.95041 0
M  V30 11286 H 1069.43 0.95387 -3.99161 0
M  V30 11287 H 1068.96 2.41377 -3.10646 0
M  V30 11288 H 1070.97 3.65011 -3.36127 0
M  V30 11289 N 1070.14 1.51827 0.422667 0
M  V30 11290 C 1071.05 1.77066 1.53899 0
M  V30 11291 C 1072.07 0.655541 1.61179 0
M  V30 11292 O 1073.25 0.939448 1.78147 0
M  V30 11293 C 1070.31 1.90372 2.89758 0
M  V30 11294 C 1069.37 3.14256 2.92475 0
M  V30 11295 C 1068.61 3.26918 4.21853 0
M  V30 11296 O 1068.83 2.45164 5.15025 0
M  V30 11297 O 1067.76 4.19989 4.31153 0
M  V30 11298 H 1071.59 2.71791 1.35511 0
M  V30 11299 H 1069.17 1.36506 0.607165 0
M  V30 11300 H 1071.06 2.01024 3.70361 0
M  V30 11301 H 1069.73 0.988347 3.08242 0
M  V30 11302 H 1068.64 3.09072 2.10773 0
M  V30 11303 H 1069.97 4.0553 2.78937 0
M  V30 11304 N 1071.62 -0.679052 1.4222 0
M  V30 11305 C 1072.87 -1.44125 1.42674 0
M  V30 11306 C 1073.2 -1.94156 0.041438 0
M  V30 11307 O 1072.48 -1.70628 -0.93361 0
M  V30 11308 C 1072.76 -2.64133 2.44756 0
M  V30 11309 C 1072.61 -2.19761 3.9246 0
M  V30 11310 C 1073.93 -3.66347 2.43881 0
M  V30 11311 H 1071.05 -0.522729 0.519541 0
M  V30 11312 H 1073.69 -0.772067 1.73606 0
M  V30 11313 H 1071.84 -3.21225 2.1851 0
M  V30 11314 H 1073.51 -1.67869 4.29671 0
M  V30 11315 H 1071.76 -1.51377 4.06531 0
M  V30 11316 H 1072.43 -3.05944 4.59459 0
M  V30 11317 H 1074.9 -3.18963 2.67211 0
M  V30 11318 H 1073.78 -4.47902 3.17293 0
M  V30 11319 H 1074.04 -4.17183 1.46325 0
M  V30 11320 N 1073.1 -1.28322 -0.914942 0
M  V30 11321 C 1074.35 -1.15179 -1.66067 0
M  V30 11322 C 1074.67 0.300279 -1.92674 0
M  V30 11323 O 1073.94 1.20821 -1.54205 0
M  V30 11324 H 1072.52 -0.423264 -0.615513 0
M  V30 11325 H 1075.18 -1.61034 -1.09791 0
M  V30 11326 H 1074.28 -1.69048 -2.62353 0
M  V30 11327 N 1074.58 1.12322 -1.10551 0
M  V30 11328 C 1075.83 1.83495 -0.846998 0
M  V30 11329 C 1076.15 1.8457 0.629205 0
M  V30 11330 O 1075.42 1.30968 1.45686 0
M  V30 11331 H 1074 0.679479 -0.310351 0
M  V30 11332 H 1076.66 1.36004 -1.39602 0
M  V30 11333 H 1075.76 2.87651 -1.21092 0
M  V30 11334 N 1076.06 0.894434 1.2976 0
M  V30 11335 C 1077.01 0.339611 2.25457 0
M  V30 11336 C 1077.99 -0.537326 1.51663 0
M  V30 11337 O 1079.18 -0.380204 1.72868 0
M  V30 11338 C 1076.31 -0.436494 3.40514 0
M  V30 11339 C 1075.4 0.455065 4.21651 0
M  V30 11340 N 1075.79 1.55988 4.81146 0
M  V30 11341 C 1074.09 0.251893 4.45288 0
M  V30 11342 C 1074.79 2.1117 5.42017 0
M  V30 11343 N 1073.76 1.40541 5.25118 0
M  V30 11344 H 1077.57 1.18365 2.69011 0
M  V30 11345 H 1075.08 0.744895 1.44309 0
M  V30 11346 H 1077.08 -0.850678 4.08129 0
M  V30 11347 H 1075.74 -1.27786 2.98498 0
M  V30 11348 H 1076.75 1.94266 4.80084 0
M  V30 11349 H 1073.42 -0.551536 4.13841 0
M  V30 11350 H 1074.81 3.04 5.99194 0
M  V30 11351 N 1077.53 -1.43282 0.656365 0
M  V30 11352 C 1078.76 -2.06125 0.178879 0
M  V30 11353 C 1079.18 -1.49216 -1.15672 0
M  V30 11354 O 1078.53 -0.624693 -1.71475 0
M  V30 11355 C 1078.59 -3.614 0.0851785 0
M  V30 11356 O 1078.31 -4.16194 1.36798 0
M  V30 11357 C 1079.81 -4.41325 -0.41801 0
M  V30 11358 H 1077.03 -0.664753 0.0913504 0
M  V30 11359 H 1079.57 -1.83733 0.897901 0
M  V30 11360 H 1077.73 -3.82966 -0.584421 0
M  V30 11361 H 1078.14 -5.09892 1.22924 0
M  V30 11362 H 1079.61 -5.50303 -0.432519 0
M  V30 11363 H 1080.09 -4.14577 -1.44991 0
M  V30 11364 H 1080.7 -4.24735 0.219208 0
M  V30 11365 N 1079.01 -0.398486 -1.52479 0
M  V30 11366 C 1079.95 0.476551 -2.23169 0
M  V30 11367 C 1080.92 1.05665 -1.23587 0
M  V30 11368 O 1082.11 1.10654 -1.52604 0
M  V30 11369 C 1079.24 1.66048 -2.95204 0
M  V30 11370 C 1078.28 1.20478 -4.0913 0
M  V30 11371 S 1079.11 0.178711 -5.35202 0
M  V30 11372 C 1080.27 1.36821 -6.10762 0
M  V30 11373 H 1080.5 -0.123704 -2.97043 0
M  V30 11374 H 1078.04 -0.182722 -1.53315 0
M  V30 11375 H 1079.99 2.33942 -3.37315 0
M  V30 11376 H 1078.66 2.23206 -2.20993 0
M  V30 11377 H 1077.85 2.08901 -4.58668 0
M  V30 11378 H 1077.45 0.604632 -3.6908 0
M  V30 11379 H 1079.74 2.2937 -6.37492 0
M  V30 11380 H 1080.69 0.913579 -7.02182 0
M  V30 11381 H 1081.09 1.58919 -5.41669 0
M  V30 11382 N 1080.49 1.57075 -0.12858 0
M  V30 11383 C 1081.42 2.18833 0.814519 0
M  V30 11384 C 1082.4 1.13114 1.2704 0
M  V30 11385 O 1083.59 1.41387 1.33129 0
M  V30 11386 C 1080.72 2.79535 2.06101 0
M  V30 11387 C 1079.67 3.9092 1.74257 0
M  V30 11388 C 1079 4.38473 3.06015 0
M  V30 11389 C 1080.3 5.1257 1.00345 0
M  V30 11390 H 1081.99 2.97895 0.299862 0
M  V30 11391 H 1079.54 1.4329 0.14279 0
M  V30 11392 H 1081.49 3.21401 2.72543 0
M  V30 11393 H 1080.21 1.97777 2.59907 0
M  V30 11394 H 1078.87 3.49645 1.102 0
M  V30 11395 H 1078.52 3.53561 3.57776 0
M  V30 11396 H 1078.22 5.13591 2.85479 0
M  V30 11397 H 1079.75 4.82997 3.7356 0
M  V30 11398 H 1081.16 5.51395 1.56959 0
M  V30 11399 H 1079.56 5.93333 0.898693 0
M  V30 11400 H 1080.63 4.84899 -0.0081335 0
M  V30 11401 N 1081.97 -0.145205 1.5693 0
M  V30 11402 C 1083.38 -0.705089 1.72874 0
M  V30 11403 C 1083.73 -1.81577 0.743261 0
M  V30 11404 O 1082.86 -2.16214 -0.0897153 0
M  V30 11405 C 1083.45 -1.28578 3.13454 0
M  V30 11406 C 1082.01 -1.79221 3.30994 0
M  V30 11407 C 1081.16 -0.681392 2.68798 0
M  V30 11408 H 1084.11 0.0804798 1.58496 0
M  V30 11409 H 1084.13 -2.15558 3.13552 0
M  V30 11410 H 1083.64 -0.477186 3.85155 0
M  V30 11411 H 1081.74 -2.62642 2.64292 0
M  V30 11412 H 1081.86 -1.91969 4.38959 0
M  V30 11413 H 1080.22 -1.10847 2.29314 0
M  V30 11414 H 1081 0.115786 3.43105 0
M  V30 11415 N 1083.45 -1.52049 -0.414609 0
M  V30 11416 C 1084.7 -1.65067 -1.15912 0
M  V30 11417 C 1085.01 -0.383969 -1.91794 0
M  V30 11418 O 1086.22 -0.393872 -2.68628 0
M  V30 11419 C 1084.67 -2.91611 -2.1093 0
M  V30 11420 C 1084.28 -4.25369 -1.4059 0
M  V30 11421 C 1086.02 -3.13992 -2.85674 0
M  V30 11422 C 1083.93 -5.43041 -2.34223 0
M  V30 11423 H 1082.86 -0.614884 -0.436387 0
M  V30 11424 H 1085.51 -1.78533 -0.424072 0
M  V30 11425 H 1083.89 -2.71831 -2.87965 0
M  V30 11426 H 1085.07 -4.55611 -0.689568 0
M  V30 11427 H 1083.38 -4.09047 -0.779088 0
M  V30 11428 H 1085.98 -3.99082 -3.55861 0
M  V30 11429 H 1086.32 -2.27998 -3.48314 0
M  V30 11430 H 1086.86 -3.34217 -2.1574 0
M  V30 11431 H 1083.59 -6.31364 -1.76238 0
M  V30 11432 H 1083.11 -5.17144 -3.03845 0
M  V30 11433 H 1084.79 -5.75901 -2.94868 0
M  V30 11434 N 1084.93 0.6715 -1.42579 0
M  V30 11435 C 1086.34 0.985019 -1.25577 0
M  V30 11436 C 1086.54 2.00845 -0.162319 0
M  V30 11437 O 1085.6 2.48175 0.465352 0
M  V30 11438 C 1086.91 1.48668 -2.61377 0
M  V30 11439 C 1088.46 1.60429 -2.68759 0
M  V30 11440 C 1088.93 2.13991 -4.04935 0
M  V30 11441 N 1090.42 2.21319 -4.06906 0
M  V30 11442 C 1091.16 2.63845 -5.09091 0
M  V30 11443 N 1090.66 3.05799 -6.21658 0
M  V30 11444 N 1092.45 2.63623 -4.96447 0
M  V30 11445 H 1084.6 -0.00604561 -2.12399 0
M  V30 11446 H 1086.86 0.0598299 -0.94611 0
M  V30 11447 H 1086.57 0.80917 -3.42265 0
M  V30 11448 H 1086.44 2.46487 -2.85524 0
M  V30 11449 H 1088.83 2.27286 -1.88216 0
M  V30 11450 H 1088.91 0.610909 -2.48398 0
M  V30 11451 H 1088.55 1.47741 -4.85937 0
M  V30 11452 H 1088.48 3.14126 -4.2265 0
M  V30 11453 H 1090.98 1.91743 -3.25643 0
M  V30 11454 H 1091.29 3.36944 -6.95477 0
M  V30 11455 H 1089.63 3.03648 -6.25158 0
M  V30 11456 H 1092.82 2.30211 -4.07579 0
M  V30 11457 H 1093 2.96444 -5.76216 0
M  V30 11458 N 1086.4 1.28806 0.908124 0
M  V30 11459 C 1087.65 1.17469 1.6605 0
M  V30 11460 C 1088 -0.272864 1.90455 0
M  V30 11461 O 1087.3 -1.19476 1.49787 0
M  V30 11462 C 1087.49 1.91267 3.01914 0
M  V30 11463 C 1087.32 3.43051 2.90769 0
M  V30 11464 C 1086.09 4.12395 2.9199 0
M  V30 11465 C 1088.29 4.38696 2.68422 0
M  V30 11466 N 1086.27 5.50604 2.71493 0
M  V30 11467 C 1087.64 5.64307 2.56823 0
M  V30 11468 C 1089.7 4.28557 2.53463 0
M  V30 11469 C 1088.4 6.80931 2.31789 0
M  V30 11470 C 1090.43 5.44923 2.2981 0
M  V30 11471 C 1089.79 6.69501 2.1897 0
M  V30 11472 H 1085.89 0.484813 0.61358 0
M  V30 11473 H 1088.47 1.62528 1.07204 0
M  V30 11474 H 1086.64 1.48634 3.58835 0
M  V30 11475 H 1088.37 1.72267 3.66205 0
M  V30 11476 H 1085.13 3.64024 3.02958 0
M  V30 11477 H 1085.55 6.23269 2.6432 0
M  V30 11478 H 1090.19 3.32944 2.60592 0
M  V30 11479 H 1087.91 7.76607 2.23399 0
M  V30 11480 H 1091.5 5.38971 2.19092 0
M  V30 11481 H 1090.38 7.58025 2.00918 0
M  V30 11482 N 1087.88 -1.11734 1.11145 0
M  V30 11483 C 1088.81 -2.16847 0.710809 0
M  V30 11484 C 1089.79 -1.59966 -0.291494 0
M  V30 11485 O 1090.98 -1.87554 -0.188645 0
M  V30 11486 C 1088.1 -3.38663 0.0499744 0
M  V30 11487 C 1087.15 -4.14199 1.01693 0
M  V30 11488 S 1087.98 -4.7154 2.53793 0
M  V30 11489 C 1089.14 -5.96682 1.89001 0
M  V30 11490 H 1089.37 -2.50497 1.60121 0
M  V30 11491 H 1086.9 -1.23311 0.929182 0
M  V30 11492 H 1088.86 -4.09212 -0.324959 0
M  V30 11493 H 1087.52 -3.03279 -0.817335 0
M  V30 11494 H 1086.72 -5.01494 0.501933 0
M  V30 11495 H 1086.32 -3.49395 1.33414 0
M  V30 11496 H 1088.61 -6.6634 1.22462 0
M  V30 11497 H 1089.55 -6.52821 2.74282 0
M  V30 11498 H 1089.96 -5.48084 1.35145 0
M  V30 11499 N 1089.36 -0.901303 -1.29284 0
M  V30 11500 C 1090.77 -0.576317 -1.77582 0
M  V30 11501 C 1091.12 0.908078 -1.73921 0
M  V30 11502 O 1090.25 1.71006 -1.32611 0
M  V30 11503 C 1090.84 -1.03938 -3.22463 0
M  V30 11504 C 1089.4 -0.765533 -3.68533 0
M  V30 11505 C 1088.55 -1.21318 -2.49354 0
M  V30 11506 H 1091.5 -1.08386 -1.15923 0
M  V30 11507 H 1091.52 -0.375367 -3.78644 0
M  V30 11508 H 1091.03 -2.11977 -3.25096 0
M  V30 11509 H 1089.13 0.302176 -3.71373 0
M  V30 11510 H 1089.25 -1.36454 -4.59257 0
M  V30 11511 H 1087.61 -0.632141 -2.46731 0
M  V30 11512 H 1088.39 -2.30165 -2.54714 0
M  V30 11513 N 1090.84 1.42931 -0.663954 0
M  V30 11514 C 1092.25 1.84877 -0.260283 0
M  V30 11515 C 1092.6 1.5558 1.19538 0
M  V30 11516 O 1091.72 1.01015 1.91377 0
M  V30 11517 C 1092.32 3.35585 -0.465618 0
M  V30 11518 C 1090.88 3.76221 -0.116169 0
M  V30 11519 C 1090.03 2.66587 -0.763317 0
M  V30 11520 H 1092.98 1.32932 -0.866882 0
M  V30 11521 H 1093 3.79427 0.285608 0
M  V30 11522 H 1092.51 3.56877 -1.52515 0
M  V30 11523 H 1090.61 3.60539 0.940342 0
M  V30 11524 H 1090.72 4.75943 -0.549123 0
M  V30 11525 H 1089.09 2.53948 -0.19559 0
M  V30 11526 H 1089.87 2.90704 -1.82609 0
M  V30 11527 N 1092.32 0.406567 1.52266 0
M  V30 11528 C 1093.23 -0.4271 2.30679 0
M  V30 11529 C 1094.24 -1.0559 1.383 0
M  V30 11530 O 1095.42 -1.05797 1.71374 0
M  V30 11531 C 1092.48 -1.53008 3.1111 0
M  V30 11532 C 1091.54 -0.924604 4.19225 0
M  V30 11533 C 1090.78 -1.97502 4.95811 0
M  V30 11534 O 1091 -3.19277 4.72671 0
M  V30 11535 O 1089.93 -1.58268 5.80719 0
M  V30 11536 H 1093.76 0.212187 3.02958 0
M  V30 11537 H 1091.34 0.169835 1.48432 0
M  V30 11538 H 1093.23 -2.17046 3.61205 0
M  V30 11539 H 1091.9 -2.15401 2.41628 0
M  V30 11540 H 1090.81 -0.247009 3.73284 0
M  V30 11541 H 1092.14 -0.34463 4.90992 0
M  V30 11542 N 1093.79 -1.57004 0.136909 0
M  V30 11543 C 1095.02 -2.00587 -0.527209 0
M  V30 11544 C 1095.44 -1.01628 -1.58283 0
M  V30 11545 O 1094.8 0.00946934 -1.81298 0
M  V30 11546 C 1094.85 -3.42967 -1.11384 0
M  V30 11547 O 1093.95 -3.46973 -2.22898 0
M  V30 11548 H 1093.3 -0.651155 -0.129976 0
M  V30 11549 H 1095.83 -2.03296 0.230667 0
M  V30 11550 H 1095.84 -3.81555 -1.44499 0
M  V30 11551 H 1094.51 -4.14502 -0.340736 0
M  V30 11552 H 1093.09 -3.20219 -1.91087 0
M  V30 11553 N 1095.27 0.136881 -1.57004 0
M  V30 11554 C 1096.52 0.846257 -1.83088 0
M  V30 11555 C 1096.83 1.81876 -0.719765 0
M  V30 11556 O 1098.04 2.57302 -0.866494 0
M  V30 11557 C 1096.5 1.55559 -3.24545 0
M  V30 11558 C 1096.1 0.624989 -4.43619 0
M  V30 11559 C 1097.85 2.25115 -3.59893 0
M  V30 11560 C 1095.76 1.33653 -5.761 0
M  V30 11561 H 1094.69 0.319768 -0.682836 0
M  V30 11562 H 1097.34 0.0989741 -1.83233 0
M  V30 11563 H 1095.72 2.34887 -3.18817 0
M  V30 11564 H 1096.89 -0.133783 -4.60606 0
M  V30 11565 H 1095.21 0.0373216 -4.16383 0
M  V30 11566 H 1097.8 2.79008 -4.56134 0
M  V30 11567 H 1098.15 3.02084 -2.86446 0
M  V30 11568 H 1098.68 1.52696 -3.67327 0
M  V30 11569 H 1095.42 0.608495 -6.5267 0
M  V30 11570 H 1094.94 2.06776 -5.63031 0
M  V30 11571 H 1096.62 1.87467 -6.19246 0
M  V30 11572 N 1096.75 1.52266 0.40654 0
M  V30 11573 C 1097.68 1.70519 1.51653 0
M  V30 11574 C 1098.66 0.552798 1.52915 0
M  V30 11575 O 1099.85 0.780468 1.71584 0
M  V30 11576 C 1096.97 1.74686 2.90176 0
M  V30 11577 C 1096.02 2.96255 3.06815 0
M  V30 11578 S 1096.85 4.56553 2.79856 0
M  V30 11579 C 1098.01 4.63511 4.20605 0
M  V30 11580 H 1098.24 2.64399 1.35942 0
M  V30 11581 H 1095.77 1.42337 0.598284 0
M  V30 11582 H 1097.73 1.77773 3.7001 0
M  V30 11583 H 1096.39 0.819291 3.03227 0
M  V30 11584 H 1095.59 2.95661 4.08167 0
M  V30 11585 H 1095.19 2.91069 2.34851 0
M  V30 11586 H 1097.48 4.41047 5.1428 0
M  V30 11587 H 1098.42 5.65456 4.26222 0
M  V30 11588 H 1098.83 3.92518 4.05697 0
M  V30 11589 N 1098.23 -0.663929 1.42933 0
M  V30 11590 C 1099.46 -1.44981 1.47187 0
M  V30 11591 C 1099.87 -1.89009 0.0850091 0
M  V30 11592 O 1099.21 -1.59413 -0.912855 0
M  V30 11593 C 1099.27 -2.72409 2.34592 0
M  V30 11594 C 1098.94 -2.5039 3.82301 0
M  V30 11595 C 1099.93 -2.14295 4.73681 0
M  V30 11596 C 1097.62 -2.65047 4.2668 0
M  V30 11597 C 1099.61 -1.93139 6.07434 0
M  V30 11598 C 1097.3 -2.43506 5.60489 0
M  V30 11599 C 1098.3 -2.07607 6.50683 0
M  V30 11600 O 1097.98 -1.86284 7.82019 0
M  V30 11601 H 1097.72 -0.452238 0.502451 0
M  V30 11602 H 1100.27 -0.822228 1.88225 0
M  V30 11603 H 1098.5 -3.37689 1.88422 0
M  V30 11604 H 1100.19 -3.34327 2.30174 0
M  V30 11605 H 1100.96 -2.02557 4.40676 0
M  V30 11606 H 1096.83 -2.91966 3.56759 0
M  V30 11607 H 1100.38 -1.65042 6.77796 0
M  V30 11608 H 1096.28 -2.54844 5.93064 0
M  V30 11609 H 1097.04 -2.00795 7.93488 0
M  V30 11610 N 1099.71 -1.29285 -0.901281 0
M  V30 11611 C 1101.12 -1.07263 -1.18182 0
M  V30 11612 C 1101.32 0.177087 -2.0072 0
M  V30 11613 O 1100.38 0.875292 -2.36844 0
M  V30 11614 C 1101.69 -2.32717 -1.9043 0
M  V30 11615 C 1103.24 -2.3802 -2.03262 0
M  V30 11616 C 1103.71 -3.63273 -2.7892 0
M  V30 11617 N 1105.21 -3.63986 -2.86475 0
M  V30 11618 C 1105.94 -4.57585 -3.45549 0
M  V30 11619 N 1105.44 -5.61513 -4.05801 0
M  V30 11620 N 1107.23 -4.45157 -3.43208 0
M  V30 11621 H 1099.38 -2.09487 -0.350536 0
M  V30 11622 H 1101.64 -0.922647 -0.217778 0
M  V30 11623 H 1101.35 -3.23828 -1.37216 0
M  V30 11624 H 1101.22 -2.40102 -2.90913 0
M  V30 11625 H 1103.61 -1.47398 -2.55652 0
M  V30 11626 H 1103.69 -2.3462 -1.01916 0
M  V30 11627 H 1103.34 -4.54246 -2.27206 0
M  V30 11628 H 1103.27 -3.6393 -3.80608 0
M  V30 11629 H 1105.76 -2.8884 -2.43679 0
M  V30 11630 H 1106.07 -6.29058 -4.48894 0
M  V30 11631 H 1104.41 -5.65325 -4.04268 0
M  V30 11632 H 1107.61 -3.63158 -2.95354 0
M  V30 11633 H 1107.78 -5.18286 -3.88952 0
M  V30 11634 N 1101.18 1.11143 -1.11736 0
M  V30 11635 C 1102.13 2.17274 -0.778513 0
M  V30 11636 C 1103.1 1.64186 0.251405 0
M  V30 11637 O 1104.29 1.90373 0.127629 0
M  V30 11638 C 1101.43 3.44324 -0.231246 0
M  V30 11639 C 1100.54 4.114 -1.31809 0
M  V30 11640 C 1099.67 5.26146 -0.73104 0
M  V30 11641 C 1098.71 5.85112 -1.79752 0
M  V30 11642 N 1097.85 6.91247 -1.22973 0
M  V30 11643 H 1102.69 2.45603 -1.68769 0
M  V30 11644 H 1100.23 1.20565 -0.842759 0
M  V30 11645 H 1102.19 4.1707 0.104045 0
M  V30 11646 H 1100.82 3.16369 0.641119 0
M  V30 11647 H 1099.87 3.36697 -1.77029 0
M  V30 11648 H 1101.18 4.51278 -2.12485 0
M  V30 11649 H 1100.33 6.05713 -0.345987 0
M  V30 11650 H 1099.07 4.87583 0.107 0
M  V30 11651 H 1098.08 5.0422 -2.19185 0
M  V30 11652 H 1099.3 6.25741 -2.63865 0
M  V30 11653 H 1097.25 6.54696 -0.41339 0
M  V30 11654 H 1097.17 7.29796 -1.97316 0
M  V30 11655 H 1098.43 7.74611 -0.87167 0
M  V30 11656 N 1102.66 0.908147 1.28804 0
M  V30 11657 C 1103.91 0.538404 1.95211 0
M  V30 11658 C 1104.24 -0.916886 1.71533 0
M  V30 11659 O 1103.49 -1.66643 1.02609 0
M  V30 11660 C 1103.79 0.787327 3.4862 0
M  V30 11661 C 1103.46 2.22129 3.92389 0
M  V30 11662 C 1102.12 2.61336 4.04051 0
M  V30 11663 C 1104.47 3.15471 4.14883 0
M  V30 11664 C 1101.8 3.93048 4.3558 0
M  V30 11665 C 1104.15 4.46741 4.47889 0
M  V30 11666 C 1102.82 4.85809 4.57761 0
M  V30 11667 H 1102.09 0.197016 0.714329 0
M  V30 11668 H 1104.73 1.14841 1.53244 0
M  V30 11669 H 1103.04 0.0944731 3.91686 0
M  V30 11670 H 1104.73 0.480503 3.98111 0
M  V30 11671 H 1101.32 1.90704 3.83836 0
M  V30 11672 H 1105.51 2.86391 4.05332 0
M  V30 11673 H 1100.76 4.23027 4.41428 0
M  V30 11674 H 1104.94 5.19087 4.64243 0
M  V30 11675 H 1102.57 5.87904 4.81947 0
M  V30 11676 N 1104.14 -1.42577 0.671525 0
M  V30 11677 C 1105.37 -2.05924 0.200731 0
M  V30 11678 C 1105.78 -1.50434 -1.14083 0
M  V30 11679 O 1105.14 -0.642845 -1.70803 0
M  V30 11680 C 1105.19 -3.61289 0.123505 0
M  V30 11681 O 1104.91 -4.1472 1.41205 0
M  V30 11682 C 1106.41 -4.41743 -0.371178 0
M  V30 11683 H 1103.63 -0.663746 0.0983958 0
M  V30 11684 H 1106.18 -1.82771 0.917338 0
M  V30 11685 H 1104.33 -3.83565 -0.543769 0
M  V30 11686 H 1104.75 -5.0856 1.28325 0
M  V30 11687 H 1106.22 -5.50731 -0.374128 0
M  V30 11688 H 1106.7 -4.16092 -1.40585 0
M  V30 11689 H 1107.3 -4.24478 0.264244 0
M  V30 11690 N 1105.62 -0.414636 -1.52048 0
M  V30 11691 C 1106.85 0.158686 -2.06291 0
M  V30 11692 C 1107.26 1.38397 -1.2842 0
M  V30 11693 O 1106.62 1.79351 -0.337539 0
M  V30 11694 C 1106.67 0.503634 -3.57975 0
M  V30 11695 O 1106.39 -0.672996 -4.329 0
M  V30 11696 C 1107.89 1.13009 -4.28653 0
M  V30 11697 H 1105.11 0.0179622 -0.67076 0
M  V30 11698 H 1107.66 -0.587177 -1.95889 0
M  V30 11699 H 1105.81 1.19939 -3.68366 0
M  V30 11700 H 1106.22 -0.383735 -5.23094 0
M  V30 11701 H 1107.7 1.32162 -5.35945 0
M  V30 11702 H 1108.18 2.10476 -3.85482 0
M  V30 11703 H 1108.78 0.474379 -4.22646 0
M  V30 11704 N 1107.1 1.56929 -0.145233 0
M  V30 11705 C 1108.01 2.20238 0.808219 0
M  V30 11706 C 1109.02 1.18615 1.27304 0
M  V30 11707 O 1110.2 1.51186 1.3306 0
M  V30 11708 C 1107.26 2.81016 2.03055 0
M  V30 11709 C 1106.32 3.97759 1.61512 0
M  V30 11710 C 1105.56 4.55628 2.77918 0
M  V30 11711 O 1105.78 4.12378 3.94082 0
M  V30 11712 O 1104.71 5.45917 2.53492 0
M  V30 11713 H 1108.54 3.02221 0.299314 0
M  V30 11714 H 1106.13 1.49176 0.0817051 0
M  V30 11715 H 1108.01 3.19652 2.74592 0
M  V30 11716 H 1106.68 2.02047 2.52901 0
M  V30 11717 H 1105.59 3.63842 0.870033 0
M  V30 11718 H 1106.92 4.78242 1.16383 0
M  V30 11719 N 1108.58 -0.128553 1.57075 0
M  V30 11720 C 1109.8 -0.8564 1.88893 0
M  V30 11721 C 1110.23 -1.73095 0.736196 0
M  V30 11722 O 1109.58 -1.78567 -0.313629 0
M  V30 11723 C 1109.63 -1.67368 3.19406 0
M  V30 11724 O 1108.74 -2.77973 3.04639 0
M  V30 11725 H 1108.08 -0.237424 0.620102 0
M  V30 11726 H 1110.61 -0.113821 2.04283 0
M  V30 11727 H 1110.62 -2.0649 3.51889 0
M  V30 11728 H 1109.29 -1.03161 4.02903 0
M  V30 11729 H 1107.87 -2.42123 2.83603 0
M  V30 11730 N 1110.05 -1.5248 -0.398459 0
M  V30 11731 C 1111.33 -1.57634 -1.15805 0
M  V30 11732 C 1111.71 -0.363785 -2.07942 0
M  V30 11733 O 1111.06 0.648598 -2.19101 0
M  V30 11734 C 1111.27 -2.91042 -1.92602 0
M  V30 11735 C 1112.62 -3.44433 -2.48296 0
M  V30 11736 O 1113.64 -2.92853 -2.0277 0
M  V30 11737 O 1112.5 -4.34529 -3.31432 0
M  V30 11738 H 1109.59 -0.63539 -0.529347 0
M  V30 11739 H 1112.14 -1.64812 -0.404376 0
M  V30 11740 H 1110.91 -3.7074 -1.25169 0
M  V30 11741 H 1110.53 -2.87206 -2.74952 0
M  V30 11742 N 1111.53 0.65634 -1.43283 0
M  V30 11743 C 1112.78 1.41837 -1.44949 0
M  V30 11744 C 1113.11 1.94065 -0.0723212 0
M  V30 11745 O 1112.39 1.72092 0.906346 0
M  V30 11746 C 1112.67 2.60206 -2.48927 0
M  V30 11747 C 1112.52 2.1349 -3.95907 0
M  V30 11748 C 1113.84 3.62421 -2.49678 0
M  V30 11749 H 1110.96 0.514398 -0.527792 0
M  V30 11750 H 1113.6 0.74435 -1.74813 0
M  V30 11751 H 1111.75 3.17708 -2.23592 0
M  V30 11752 H 1113.42 1.61012 -4.32288 0
M  V30 11753 H 1111.67 1.4489 -4.08888 0
M  V30 11754 H 1112.34 2.98596 -4.64268 0
M  V30 11755 H 1114.81 3.14671 -2.72252 0
M  V30 11756 H 1113.69 4.42798 -3.24378 0
M  V30 11757 H 1113.95 4.14802 -1.52944 0
M  V30 11758 N 1113.01 1.29761 0.894412 0
M  V30 11759 C 1114.26 1.19224 1.64794 0
M  V30 11760 C 1114.61 -0.252648 1.90734 0
M  V30 11761 O 1113.9 -1.17881 1.51045 0
M  V30 11762 C 1114.1 1.94458 2.99868 0
M  V30 11763 C 1113.93 3.46115 2.87114 0
M  V30 11764 C 1112.7 4.15469 2.87599 0
M  V30 11765 C 1114.89 4.41518 2.63754 0
M  V30 11766 N 1112.88 5.53453 2.65637 0
M  V30 11767 C 1114.25 5.66999 2.50823 0
M  V30 11768 C 1116.3 4.31221 2.48903 0
M  V30 11769 C 1115.01 6.83351 2.24554 0
M  V30 11770 C 1117.03 5.4733 2.24018 0
M  V30 11771 C 1116.39 6.71786 2.11856 0
M  V30 11772 H 1112.49 0.491294 0.608403 0
M  V30 11773 H 1115.08 1.63656 1.05474 0
M  V30 11774 H 1113.25 1.52432 3.57238 0
M  V30 11775 H 1114.98 1.76142 3.64357 0
M  V30 11776 H 1111.73 3.67217 2.9908 0
M  V30 11777 H 1112.16 6.26037 2.57695 0
M  V30 11778 H 1116.8 3.35689 2.57046 0
M  V30 11779 H 1114.52 7.78933 2.15149 0
M  V30 11780 H 1118.1 5.41265 2.13363 0
M  V30 11781 H 1116.98 7.60113 1.92867 0
M  V30 11782 N 1114.49 -1.10549 1.12324 0
M  V30 11783 C 1115.71 -1.8681 0.900927 0
M  V30 11784 C 1116.14 -1.80049 -0.54443 0
M  V30 11785 O 1115.5 -1.16957 -1.38531 0
M  V30 11786 C 1115.54 -3.33197 1.37883 0
M  V30 11787 O 1114.65 -4.08628 0.556529 0
M  V30 11788 H 1113.99 -0.579709 0.32378 0
M  V30 11789 H 1116.52 -1.39678 1.49503 0
M  V30 11790 H 1116.53 -3.84047 1.37739 0
M  V30 11791 H 1115.2 -3.37435 2.43127 0
M  V30 11792 H 1113.78 -3.67627 0.62486 0
M  V30 11793 N 1115.97 -0.914965 -1.28321 0
M  V30 11794 C 1117.21 -0.548749 -1.94923 0
M  V30 11795 C 1117.54 0.907776 -1.72016 0
M  V30 11796 O 1116.8 1.66097 -1.03491 0
M  V30 11797 C 1117.09 -0.805805 -3.48198 0
M  V30 11798 C 1116.76 -2.24207 -3.91206 0
M  V30 11799 C 1115.42 -2.63475 -4.02659 0
M  V30 11800 C 1117.77 -3.17667 -4.13204 0
M  V30 11801 C 1115.1 -3.95353 -4.3349 0
M  V30 11802 C 1117.45 -4.4911 -4.45514 0
M  V30 11803 C 1116.12 -4.8823 -4.55179 0
M  V30 11804 H 1115.39 -0.200801 -0.713274 0
M  V30 11805 H 1118.04 -1.15652 -1.52633 0
M  V30 11806 H 1116.34 -0.115244 -3.9163 0
M  V30 11807 H 1118.04 -0.501609 -3.9785 0
M  V30 11808 H 1114.63 -1.92737 -3.82819 0
M  V30 11809 H 1118.81 -2.88537 -4.03807 0
M  V30 11810 H 1114.07 -4.25362 -4.39178 0
M  V30 11811 H 1118.24 -5.21542 -4.61483 0
M  V30 11812 H 1115.87 -5.90451 -4.78823 0
M  V30 11813 N 1117.44 1.42219 -0.679077 0
M  V30 11814 C 1118.69 2.01081 -0.202718 0
M  V30 11815 C 1119.01 1.53986 1.19639 0
M  V30 11816 O 1118.28 0.763359 1.80415 0
M  V30 11817 H 1116.86 0.743526 -0.0719547 0
M  V30 11818 H 1119.52 1.74077 -0.876544 0
M  V30 11819 H 1118.62 3.11411 -0.207314 0
M  V30 11820 N 1118.92 0.422693 1.51826 0
M  V30 11821 C 1120.17 -0.148861 2.02253 0
M  V30 11822 C 1120.5 -1.43629 1.30707 0
M  V30 11823 O 1119.78 -1.89967 0.417482 0
M  V30 11824 C 1120.06 -0.382672 3.58061 0
M  V30 11825 C 1119.91 0.922386 4.40241 0
M  V30 11826 C 1121.23 -1.1589 4.24567 0
M  V30 11827 H 1118.35 -0.0526279 0.735119 0
M  V30 11828 H 1120.99 0.558821 1.81596 0
M  V30 11829 H 1119.14 -0.985495 3.75793 0
M  V30 11830 H 1120.81 1.55806 4.34191 0
M  V30 11831 H 1119.06 1.53032 4.05911 0
M  V30 11832 H 1119.73 0.713012 5.47376 0
M  V30 11833 H 1122.2 -0.648415 4.11017 0
M  V30 11834 H 1121.08 -1.29125 5.33496 0
M  V30 11835 H 1121.34 -2.18315 3.84436 0
M  V30 11836 N 1120.4 -1.5685 0.153553 0
M  V30 11837 C 1121.65 -1.95509 -0.495911 0
M  V30 11838 C 1121.96 -1.04129 -1.65579 0
M  V30 11839 O 1123.17 -1.32394 -2.37032 0
M  V30 11840 C 1121.62 -3.47579 -0.933622 0
M  V30 11841 C 1121.23 -4.47555 0.199684 0
M  V30 11842 C 1122.98 -3.95092 -1.55251 0
M  V30 11843 C 1120.88 -5.90843 -0.256663 0
M  V30 11844 H 1119.81 -0.729919 -0.189035 0
M  V30 11845 H 1122.46 -1.81938 0.238947 0
M  V30 11846 H 1120.85 -3.56506 -1.72394 0
M  V30 11847 H 1122.02 -4.50329 0.976744 0
M  V30 11848 H 1120.33 -4.09997 0.727394 0
M  V30 11849 H 1122.93 -4.99588 -1.90567 0
M  V30 11850 H 1123.27 -3.37015 -2.4439 0
M  V30 11851 H 1123.81 -3.89109 -0.826969 0
M  V30 11852 H 1120.55 -6.52753 0.599515 0
M  V30 11853 H 1120.07 -5.91414 -0.999458 0
M  V30 11854 H 1121.75 -6.43131 -0.70649 0
M  V30 11855 N 1121.88 0.120221 -1.57141 0
M  V30 11856 C 1122.81 1.14876 -2.03287 0
M  V30 11857 C 1123.79 1.43259 -0.917112 0
M  V30 11858 O 1124.97 1.53721 -1.18674 0
M  V30 11859 C 1122.1 2.47525 -2.43616 0
M  V30 11860 C 1121.06 2.33607 -3.58625 0
M  V30 11861 C 1120.38 3.71207 -3.84849 0
M  V30 11862 C 1121.68 1.79761 -4.90391 0
M  V30 11863 H 1123.38 0.764943 -2.89463 0
M  V30 11864 H 1120.92 0.366516 -1.39258 0
M  V30 11865 H 1122.88 3.19728 -2.74504 0
M  V30 11866 H 1121.6 2.87794 -1.54409 0
M  V30 11867 H 1120.26 1.63853 -3.27945 0
M  V30 11868 H 1119.91 4.0896 -2.9285 0
M  V30 11869 H 1119.61 3.62749 -4.62263 0
M  V30 11870 H 1121.13 4.44917 -4.18188 0
M  V30 11871 H 1122.55 2.4178 -5.19822 0
M  V30 11872 H 1120.94 1.82126 -5.71795 0
M  V30 11873 H 1122.01 0.755087 -4.78985 0
M  V30 11874 N 1123.36 1.52689 0.390367 0
M  V30 11875 C 1124.6 1.68866 1.13383 0
M  V30 11876 C 1124.96 0.422683 1.877 0
M  V30 11877 O 1124.25 -0.583587 1.82496 0
M  V30 11878 C 1124.44 2.86177 2.14096 0
M  V30 11879 C 1124.27 4.24062 1.49672 0
M  V30 11880 C 1123.04 4.89303 1.26139 0
M  V30 11881 C 1125.24 5.05496 0.947554 0
M  V30 11882 N 1123.22 6.11172 0.578051 0
M  V30 11883 C 1124.59 6.18758 0.392199 0
M  V30 11884 C 1126.65 4.90697 0.843832 0
M  V30 11885 C 1125.35 7.18842 -0.256734 0
M  V30 11886 C 1127.38 5.91032 0.208722 0
M  V30 11887 C 1126.74 7.03599 -0.33587 0
M  V30 11888 H 1122.84 0.671411 0.400914 0
M  V30 11889 H 1125.42 1.90037 0.423563 0
M  V30 11890 H 1123.59 2.66589 2.82462 0
M  V30 11891 H 1125.33 2.91298 2.80941 0
M  V30 11892 H 1122.08 4.48 1.53601 0
M  V30 11893 H 1122.51 6.76529 0.252464 0
M  V30 11894 H 1127.15 4.03879 1.25067 0
M  V30 11895 H 1124.87 8.05271 -0.675589 0
M  V30 11896 H 1128.45 5.81655 0.129732 0
M  V30 11897 H 1127.33 7.79906 -0.819557 0
M  V30 11898 N 1124.83 -0.648732 1.43629 0
M  V30 11899 C 1125.74 -1.79046 1.51591 0
M  V30 11900 C 1126.76 -1.69276 0.402697 0
M  V30 11901 O 1127.94 -1.90366 0.657484 0
M  V30 11902 C 1125 -3.15347 1.44073 0
M  V30 11903 C 1124.06 -3.3688 2.66102 0
M  V30 11904 C 1123.3 -4.66679 2.58933 0
M  V30 11905 O 1123.52 -5.46328 1.63956 0
M  V30 11906 O 1122.45 -4.9003 3.49506 0
M  V30 11907 H 1126.28 -1.75283 2.48011 0
M  V30 11908 H 1123.86 -0.807774 1.2568 0
M  V30 11909 H 1125.75 -3.96633 1.42339 0
M  V30 11910 H 1124.42 -3.19691 0.50789 0
M  V30 11911 H 1123.33 -2.55341 2.73407 0
M  V30 11912 H 1124.66 -3.37386 3.58373 0
M  V30 11913 N 1126.31 -1.30234 -0.887518 0
M  V30 11914 C 1127.56 -1.18277 -1.63381 0
M  V30 11915 C 1127.87 0.262079 -1.93836 0
M  V30 11916 O 1129.08 0.503127 -2.66797 0
M  V30 11917 C 1127.54 -2.06944 -2.94452 0
M  V30 11918 C 1127.14 -3.56323 -2.71547 0
M  V30 11919 C 1128.89 -2.03743 -3.7241 0
M  V30 11920 C 1126.8 -4.37054 -3.98419 0
M  V30 11921 H 1125.73 -0.439087 -0.612959 0
M  V30 11922 H 1128.38 -1.54964 -0.982779 0
M  V30 11923 H 1126.76 -1.63138 -3.60835 0
M  V30 11924 H 1127.93 -4.08261 -2.13681 0
M  V30 11925 H 1126.25 -3.61321 -2.06969 0
M  V30 11926 H 1128.84 -2.61312 -4.66497 0
M  V30 11927 H 1129.19 -1.02029 -4.03603 0
M  V30 11928 H 1129.72 -2.45657 -3.12886 0
M  V30 11929 H 1126.46 -5.39453 -3.72385 0
M  V30 11930 H 1125.98 -3.89881 -4.55799 0
M  V30 11931 H 1127.66 -4.48356 -4.66462 0
M  V30 11932 N 1127.79 1.09952 -1.12909 0
M  V30 11933 C 1129.04 1.82016 -0.887482 0
M  V30 11934 C 1129.37 1.85445 0.586546 0
M  V30 11935 O 1128.62 1.31446 1.44984 0
M  V30 11936 C 1128.92 3.28252 -1.41369 0
M  V30 11937 C 1128.59 3.44965 -2.90362 0
M  V30 11938 C 1127.25 3.49233 -3.31043 0
M  V30 11939 C 1129.6 3.49947 -3.86247 0
M  V30 11940 C 1126.93 3.56057 -4.66305 0
M  V30 11941 C 1129.28 3.58305 -5.21345 0
M  V30 11942 C 1127.94 3.6084 -5.61561 0
M  V30 11943 H 1127.21 0.666046 -0.324753 0
M  V30 11944 H 1129.86 1.29568 -1.41012 0
M  V30 11945 H 1128.17 3.83301 -0.81163 0
M  V30 11946 H 1129.86 3.82533 -1.20289 0
M  V30 11947 H 1126.45 3.42323 -2.57901 0
M  V30 11948 H 1130.64 3.45895 -3.55908 0
M  V30 11949 H 1125.89 3.56305 -4.96847 0
M  V30 11950 H 1130.07 3.61104 -5.95463 0
M  V30 11951 H 1127.69 3.6588 -6.6636 0
M  V30 11952 N 1129.27 0.921757 1.27833 0
M  V30 11953 C 1130.5 0.575202 1.98744 0
M  V30 11954 C 1130.91 -0.845405 1.68815 0
M  V30 11955 O 1130.27 -1.56106 0.94536 0
M  V30 11956 C 1130.32 0.784389 3.52888 0
M  V30 11957 O 1130.04 2.1491 3.81766 0
M  V30 11958 C 1131.54 0.445744 4.41053 0
M  V30 11959 H 1128.76 0.218525 0.634419 0
M  V30 11960 H 1131.31 1.23715 1.62834 0
M  V30 11961 H 1129.46 0.169323 3.8703 0
M  V30 11962 H 1129.87 2.19469 4.76375 0
M  V30 11963 H 1131.35 0.64284 5.48244 0
M  V30 11964 H 1131.83 -0.618433 4.34824 0
M  V30 11965 H 1132.43 1.03869 4.12421 0
M  V30 11966 N 1130.75 -1.41857 0.686609 0
M  V30 11967 C 1131.98 -2.05401 0.222238 0
M  V30 11968 C 1132.38 -1.51731 -1.13023 0
M  V30 11969 O 1131.73 -0.656701 -1.71561 0
M  V30 11970 C 1131.79 -3.59381 0.0926608 0
M  V30 11971 C 1131.45 -4.35801 1.37573 0
M  V30 11972 C 1132.45 -4.65678 2.31171 0
M  V30 11973 C 1130.14 -4.75233 1.62661 0
M  V30 11974 C 1132.13 -5.33936 3.48125 0
M  V30 11975 C 1129.82 -5.43229 2.79902 0
M  V30 11976 C 1130.81 -5.72507 3.72458 0
M  V30 11977 O 1130.5 -6.39106 4.87646 0
M  V30 11978 H 1130.23 -0.668126 0.102876 0
M  V30 11979 H 1132.79 -1.82775 0.93714 0
M  V30 11980 H 1131.02 -3.80711 -0.67793 0
M  V30 11981 H 1132.71 -4.04529 -0.333364 0
M  V30 11982 H 1133.47 -4.35704 2.13042 0
M  V30 11983 H 1129.35 -4.51831 0.914862 0
M  V30 11984 H 1132.9 -5.56706 4.20386 0
M  V30 11985 H 1128.79 -5.72621 2.97951 0
M  V30 11986 H 1129.56 -6.576 4.87344 0
M  V30 11987 N 1132.22 -0.430739 -1.51599 0
M  V30 11988 C 1133.47 0.137657 -2.01631 0
M  V30 11989 C 1133.79 1.43787 -1.31721 0
M  V30 11990 O 1133.06 1.90668 -0.449717 0
M  V30 11991 H 1131.64 0.0538611 -0.745056 0
M  V30 11992 H 1134.31 -0.571935 -1.86319 0
M  V30 11993 H 1133.4 0.318305 -3.10473 0
M  V30 11994 N 1133.7 1.56767 -0.161869 0
M  V30 11995 C 1134.65 2.17502 0.772102 0
M  V30 11996 C 1135.62 1.11223 1.23364 0
M  V30 11997 O 1136.8 1.39332 1.30351 0
M  V30 11998 C 1133.94 2.81248 1.99984 0
M  V30 11999 C 1133.06 4.01962 1.58274 0
M  V30 12000 C 1132.19 4.53662 2.76341 0
M  V30 12001 C 1131.23 5.66807 2.31076 0
M  V30 12002 N 1130.37 6.13059 3.42203 0
M  V30 12003 H 1135.21 2.96971 0.247382 0
M  V30 12004 H 1132.75 1.46685 0.110382 0
M  V30 12005 H 1134.7 3.16359 2.7198 0
M  V30 12006 H 1133.33 2.04398 2.49842 0
M  V30 12007 H 1132.39 3.72733 0.759874 0
M  V30 12008 H 1133.7 4.83891 1.2104 0
M  V30 12009 H 1132.85 4.90905 3.56507 0
M  V30 12010 H 1131.59 3.7077 3.16829 0
M  V30 12011 H 1130.6 5.29125 1.49354 0
M  V30 12012 H 1131.82 6.51494 1.91657 0
M  V30 12013 H 1129.77 5.33099 3.82285 0
M  V30 12014 H 1129.68 6.89953 3.09033 0
M  V30 12015 H 1130.95 6.54951 4.22682 0
M  V30 12016 N 1135.18 -0.111886 1.57202 0
M  V30 12017 C 1136.11 -1.16274 1.97517 0
M  V30 12018 C 1137.13 -1.37259 0.875425 0
M  V30 12019 O 1138.31 -1.36208 1.15367 0
M  V30 12020 C 1135.41 -2.52145 2.26442 0
M  V30 12021 C 1134.59 -2.51666 3.57747 0
M  V30 12022 C 1133.65 -3.69337 3.74802 0
M  V30 12023 O 1132.67 -3.52596 4.46839 0
M  V30 12024 N 1133.87 -4.88177 3.14108 0
M  V30 12025 H 1136.64 -0.819747 2.88271 0
M  V30 12026 H 1134.2 -0.301076 1.59076 0
M  V30 12027 H 1136.19 -3.29437 2.3506 0
M  V30 12028 H 1134.76 -2.78599 1.41779 0
M  V30 12029 H 1133.98 -1.60038 3.60252 0
M  V30 12030 H 1135.27 -2.48408 4.44039 0
M  V30 12031 H 1134.67 -5.04682 2.55564 0
M  V30 12032 H 1133.23 -5.6312 3.28237 0
M  V30 12033 N 1136.66 -1.52894 -0.382264 0
M  V30 12034 C 1138.07 -1.60135 -0.959887 0
M  V30 12035 C 1138.42 -0.458363 -1.90771 0
M  V30 12036 O 1137.55 0.417614 -2.12332 0
M  V30 12037 C 1138.14 -2.90243 -1.74769 0
M  V30 12038 C 1136.7 -2.99874 -2.27491 0
M  V30 12039 C 1135.85 -2.55302 -1.0824 0
M  V30 12040 H 1138.8 -1.57875 -0.161589 0
M  V30 12041 H 1138.82 -2.77108 -2.60751 0
M  V30 12042 H 1138.33 -3.73412 -1.0576 0
M  V30 12043 H 1136.43 -2.21258 -2.99793 0
M  V30 12044 H 1136.54 -4.04643 -2.56516 0
M  V30 12045 H 1134.91 -2.09781 -1.44444 0
M  V30 12046 H 1135.69 -3.40872 -0.407553 0
M  V30 12047 N 1138.14 0.641106 -1.43971 0
M  V30 12048 C 1139.38 1.40118 -1.4744 0
M  V30 12049 C 1139.74 1.92131 -0.101647 0
M  V30 12050 O 1139.03 1.70112 0.881614 0
M  V30 12051 C 1139.23 2.59092 -2.46183 0
M  V30 12052 C 1139.05 2.18725 -3.92924 0
M  V30 12053 C 1137.82 2.06475 -4.6119 0
M  V30 12054 C 1140.02 1.78255 -4.82421 0
M  V30 12055 N 1138 1.59566 -5.928 0
M  V30 12056 C 1139.38 1.42517 -6.03398 0
M  V30 12057 C 1141.43 1.65546 -4.69573 0
M  V30 12058 C 1140.13 0.953428 -7.12953 0
M  V30 12059 C 1142.16 1.19776 -5.79144 0
M  V30 12060 C 1141.52 0.84983 -6.99255 0
M  V30 12061 H 1137.62 0.507917 -0.594596 0
M  V30 12062 H 1140.2 0.736517 -1.80232 0
M  V30 12063 H 1138.38 3.232 -2.15398 0
M  V30 12064 H 1140.11 3.25847 -2.40012 0
M  V30 12065 H 1136.86 2.26615 -4.15863 0
M  V30 12066 H 1137.29 1.38438 -6.62694 0
M  V30 12067 H 1141.93 1.91081 -3.77158 0
M  V30 12068 H 1139.65 0.68558 -8.05187 0
M  V30 12069 H 1143.23 1.10415 -5.71226 0
M  V30 12070 H 1142.11 0.501081 -7.82597 0
M  V30 12071 N 1139.62 1.30703 0.880598 0
M  V30 12072 C 1140.86 1.19778 1.63277 0
M  V30 12073 C 1141.19 -0.246521 1.92931 0
M  V30 12074 O 1140.45 -1.19226 1.55189 0
M  V30 12075 C 1140.74 1.97628 2.97789 0
M  V30 12076 C 1140.41 3.47213 2.87669 0
M  V30 12077 C 1139.07 3.88004 2.84617 0
M  V30 12078 C 1141.42 4.4245 2.75477 0
M  V30 12079 C 1138.75 5.22315 2.67216 0
M  V30 12080 C 1141.1 5.76874 2.59614 0
M  V30 12081 C 1139.77 6.16898 2.54939 0
M  V30 12082 H 1139.04 0.438298 0.597475 0
M  V30 12083 H 1141.69 1.61853 1.02352 0
M  V30 12084 H 1139.99 1.48201 3.6269 0
M  V30 12085 H 1141.69 1.86563 3.54958 0
M  V30 12086 H 1138.28 3.14802 2.90857 0
M  V30 12087 H 1142.46 4.11875 2.76899 0
M  V30 12088 H 1137.72 5.52412 2.62014 0
M  V30 12089 H 1141.89 6.50304 2.49155 0
M  V30 12090 H 1139.52 7.20916 2.41214 0
M  V30 12091 N 1141.09 -1.09351 1.1349 0
M  V30 12092 C 1142.03 -2.15852 0.770763 0
M  V30 12093 C 1143.04 -1.61468 -0.207866 0
M  V30 12094 O 1144.23 -1.78496 0.0124385 0
M  V30 12095 C 1141.33 -3.38681 0.121871 0
M  V30 12096 C 1140.5 -4.22477 1.13279 0
M  V30 12097 C 1139.56 -5.23728 0.509448 0
M  V30 12098 O 1138.59 -5.57052 1.16967 0
M  V30 12099 N 1139.79 -5.76041 -0.718159 0
M  V30 12100 H 1142.55 -2.47696 1.6872 0
M  V30 12101 H 1140.11 -1.25074 1.02801 0
M  V30 12102 H 1142.11 -4.03531 -0.307404 0
M  V30 12103 H 1140.68 -3.04718 -0.697527 0
M  V30 12104 H 1139.9 -3.53753 1.73933 0
M  V30 12105 H 1141.18 -4.75288 1.81601 0
M  V30 12106 H 1140.58 -5.51183 -1.27331 0
M  V30 12107 H 1139.14 -6.4262 -1.09008 0
M  V30 12108 N 1142.57 -0.928524 -1.27343 0
M  V30 12109 C 1143.5 -0.445627 -2.29208 0
M  V30 12110 C 1144.48 0.494508 -1.62753 0
M  V30 12111 O 1145.67 0.399082 -1.90055 0
M  V30 12112 C 1142.8 0.301684 -3.45987 0
M  V30 12113 C 1141.75 -0.550695 -4.24442 0
M  V30 12114 C 1141.08 0.325833 -5.33706 0
M  V30 12115 C 1142.38 -1.81559 -4.89728 0
M  V30 12116 H 1144.07 -1.29696 -2.69851 0
M  V30 12117 H 1141.62 -0.625085 -1.29725 0
M  V30 12118 H 1143.57 0.650455 -4.1635 0
M  V30 12119 H 1142.29 1.18705 -3.04264 0
M  V30 12120 H 1140.95 -0.882185 -3.55827 0
M  V30 12121 H 1140.6 1.21018 -4.88225 0
M  V30 12122 H 1140.3 -0.240994 -5.87106 0
M  V30 12123 H 1141.83 0.670156 -6.06911 0
M  V30 12124 H 1143.24 -1.53483 -5.52373 0
M  V30 12125 H 1141.64 -2.32598 -5.53189 0
M  V30 12126 H 1142.71 -2.53461 -4.13383 0
M  V30 12127 N 1144.05 1.41491 -0.694123 0
M  V30 12128 C 1145.27 2.06099 -0.23197 0
M  V30 12129 C 1145.7 1.51888 1.10958 0
M  V30 12130 O 1145.06 0.645247 1.69429 0
M  V30 12131 C 1145.11 3.60053 -0.198522 0
M  V30 12132 O 1144.21 4.04021 0.827067 0
M  V30 12133 H 1143.55 0.654193 -0.113699 0
M  V30 12134 H 1146.08 1.81282 -0.948575 0
M  V30 12135 H 1146.09 4.0799 -0.0288904 0
M  V30 12136 H 1144.77 3.98879 -1.17764 0
M  V30 12137 H 1143.34 3.67593 0.626908 0
M  V30 12138 N 1145.53 0.438773 1.51369 0
M  V30 12139 C 1146.48 -0.386324 2.29369 0
M  V30 12140 C 1147.47 -1.0196 1.3528 0
M  V30 12141 O 1148.68 -0.9544 1.52615 0
M  V30 12142 H 1145.05 -0.143397 0.738201 0
M  V30 12143 H 1147.02 0.292372 2.96964 0
M  V30 12144 C 1145.77 -1.47426 3.14898 0
M  V30 12145 H 1145.09 -0.996335 3.87186 0
M  V30 12146 H 1146.53 -2.02481 3.72529 0
M  V30 12147 C 1144.99 -2.45831 2.30366 0
M  V30 12148 O 1145.52 -3.50398 1.96428 0
M  V30 12149 N 1143.73 -2.16754 1.93561 0
M  V30 12150 H 1143.28 -1.31748 2.2136 0
M  V30 12151 H 1143.23 -2.82836 1.373 0
M  V30 12152 N 1147.01 -1.56678 0.170181 0
M  V30 12153 C 1148.23 -2.01223 -0.481362 0
M  V30 12154 C 1148.65 -1.05039 -1.56883 0
M  V30 12155 O 1148.01 -0.0510751 -1.82429 0
M  V30 12156 C 1148.06 -3.45588 -1.06073 0
M  V30 12157 O 1147.78 -4.38097 -0.0166754 0
M  V30 12158 C 1149.28 -4.05527 -1.79061 0
M  V30 12159 H 1146.5 -0.659574 -0.1233 0
M  V30 12160 H 1149.04 -2.02689 0.271576 0
M  V30 12161 H 1147.2 -3.449 -1.76417 0
M  V30 12162 H 1147.61 -5.22615 -0.444276 0
M  V30 12163 H 1149.09 -5.08467 -2.1486 0
M  V30 12164 H 1149.56 -3.47554 -2.68519 0
M  V30 12165 H 1150.17 -4.09914 -1.13361 0
M  V30 12166 N 1148.48 0.103547 -1.57259 0
M  V30 12167 C 1149.39 1.14475 -2.04774 0
M  V30 12168 C 1150.41 1.44385 -0.971025 0
M  V30 12169 O 1151.59 1.55195 -1.28361 0
M  V30 12170 C 1148.65 2.4475 -2.45558 0
M  V30 12171 C 1147.71 2.22098 -3.67384 0
M  V30 12172 C 1146.94 3.4616 -4.06213 0
M  V30 12173 O 1147.17 4.5407 -3.45219 0
M  V30 12174 O 1146.1 3.36248 -4.9922 0
M  V30 12175 H 1149.93 0.771211 -2.93745 0
M  V30 12176 H 1147.51 0.315456 -1.46032 0
M  V30 12177 H 1149.39 3.21476 -2.72454 0
M  V30 12178 H 1148.07 2.81547 -1.59728 0
M  V30 12179 H 1146.98 1.43179 -3.45616 0
M  V30 12180 H 1148.31 1.90197 -4.53967 0
M  V30 12181 N 1149.96 1.53094 0.37415 0
M  V30 12182 C 1151.21 1.69111 1.11934 0
M  V30 12183 C 1151.54 0.437252 1.89213 0
M  V30 12184 O 1150.82 -0.565298 1.86104 0
M  V30 12185 C 1151.1 2.93559 2.08554 0
M  V30 12186 C 1150.95 4.29082 1.3494 0
M  V30 12187 C 1152.27 3.13586 3.08791 0
M  V30 12188 H 1149.39 0.615383 0.405553 0
M  V30 12189 H 1152.03 1.85719 0.401078 0
M  V30 12190 H 1150.18 2.79531 2.69805 0
M  V30 12191 H 1151.85 4.54906 0.765402 0
M  V30 12192 H 1150.1 4.28884 0.651238 0
M  V30 12193 H 1150.77 5.12275 2.05616 0
M  V30 12194 H 1153.24 3.26743 2.57639 0
M  V30 12195 H 1152.12 4.02112 3.73627 0
M  V30 12196 H 1152.38 2.28475 3.78486 0
M  V30 12197 N 1151.44 -0.633461 1.44309 0
M  V30 12198 C 1152.69 -1.38902 1.4625 0
M  V30 12199 C 1153 -1.95354 0.0980699 0
M  V30 12200 O 1154.21 -2.715 -0.0049983 0
M  V30 12201 C 1152.66 -2.51477 2.57463 0
M  V30 12202 C 1152.27 -2.01549 4.00103 0
M  V30 12203 C 1154.02 -3.28698 2.68622 0
M  V30 12204 C 1151.92 -3.11452 5.02744 0
M  V30 12205 H 1150.85 -0.521976 0.544112 0
M  V30 12206 H 1153.5 -0.681725 1.70367 0
M  V30 12207 H 1151.89 -3.24771 2.26582 0
M  V30 12208 H 1153.06 -1.35135 4.4054 0
M  V30 12209 H 1151.37 -1.3715 3.93165 0
M  V30 12210 H 1153.97 -4.10624 3.42479 0
M  V30 12211 H 1154.31 -3.78027 1.7436 0
M  V30 12212 H 1154.85 -2.62494 2.98901 0
M  V30 12213 H 1151.59 -2.6707 5.98627 0
M  V30 12214 H 1151.11 -3.76514 4.66902 0
M  V30 12215 H 1152.79 -3.76265 5.2634 0
M  V30 12216 N 1152.92 -1.31168 -0.873655 0
M  V30 12217 C 1153.83 -1.20458 -2.01313 0
M  V30 12218 C 1154.84 -0.122074 -1.73571 0
M  V30 12219 O 1156.02 -0.339176 -1.98523 0
M  V30 12220 C 1153.09 -0.90876 -3.34578 0
M  V30 12221 C 1152.15 -2.07779 -3.75668 0
M  V30 12222 C 1151.38 -1.79599 -5.02573 0
M  V30 12223 O 1151.6 -0.729338 -5.65718 0
M  V30 12224 O 1150.54 -2.65169 -5.40341 0
M  V30 12225 H 1154.36 -2.16207 -2.13279 0
M  V30 12226 H 1151.95 -1.10871 -1.00139 0
M  V30 12227 H 1153.83 -0.759469 -4.145 0
M  V30 12228 H 1152.5 0.0187249 -3.23695 0
M  V30 12229 H 1151.41 -2.28247 -2.96402 0
M  V30 12230 H 1152.74 -2.9874 -3.91172 0
M  V30 12231 N 1154.4 1.08748 -1.14068 0
M  V30 12232 C 1155.64 1.82672 -0.917072 0
M  V30 12233 C 1156 1.84052 0.546688 0
M  V30 12234 O 1157.2 2.53704 0.888118 0
M  V30 12235 C 1155.47 3.24525 -1.49727 0
M  V30 12236 S 1157.03 4.15369 -1.41472 0
M  V30 12237 H 1153.85 0.629576 -0.330387 0
M  V30 12238 H 1156.45 1.3074 -1.45352 0
M  V30 12239 H 1155.16 3.21101 -2.55583 0
M  V30 12240 H 1154.69 3.8153 -0.959069 0
M  V30 12241 H 1156.7 4.94602 -0.39788 0
M  V30 12242 N 1155.87 0.935264 1.26849 0
M  V30 12243 C 1157.12 0.575467 1.93317 0
M  V30 12244 C 1157.44 -0.88876 1.74242 0
M  V30 12245 O 1158.64 -1.35767 2.35116 0
M  V30 12246 C 1157.1 0.978433 3.46345 0
M  V30 12247 C 1156.71 2.46386 3.74163 0
M  V30 12248 C 1158.45 0.690249 4.18851 0
M  V30 12249 C 1156.36 2.80584 5.20602 0
M  V30 12250 H 1155.29 0.211506 0.723727 0
M  V30 12251 H 1157.94 1.1371 1.44022 0
M  V30 12252 H 1156.32 0.345379 3.94491 0
M  V30 12253 H 1157.49 3.14547 3.36745 0
M  V30 12254 H 1155.81 2.72473 3.14877 0
M  V30 12255 H 1158.41 0.922151 5.26688 0
M  V30 12256 H 1158.75 -0.372805 4.14627 0
M  V30 12257 H 1159.28 1.28275 3.76551 0
M  V30 12258 H 1156.02 3.85828 5.29921 0
M  V30 12259 H 1155.54 2.1708 5.59139 0
M  V30 12260 H 1157.22 2.68732 5.88551 0
M  V30 12261 N 1157.35 -1.41121 0.701616 0
M  V30 12262 C 1158.58 -2.05452 0.244365 0
M  V30 12263 C 1159 -1.5282 -1.10866 0
M  V30 12264 O 1158.35 -0.67893 -1.69401 0
M  V30 12265 C 1158.4 -3.60946 0.200112 0
M  V30 12266 O 1158.12 -4.11632 1.4997 0
M  V30 12267 C 1159.63 -4.42431 -0.277394 0
M  V30 12268 H 1156.85 -0.66151 0.112453 0
M  V30 12269 H 1159.39 -1.80784 0.9559 0
M  V30 12270 H 1157.54 -3.84632 -0.462287 0
M  V30 12271 H 1157.96 -5.05723 1.39084 0
M  V30 12272 H 1159.43 -5.514 -0.257225 0
M  V30 12273 H 1159.91 -4.1898 -1.31728 0
M  V30 12274 H 1160.52 -4.23822 0.354223 0
M  V30 12275 N 1158.83 -0.446794 -1.51134 0
M  V30 12276 C 1159.76 0.395804 -2.25757 0
M  V30 12277 C 1160.78 0.978178 -1.30137 0
M  V30 12278 O 1161.96 0.87071 -1.55823 0
M  V30 12279 C 1159.06 1.56665 -3.00515 0
M  V30 12280 C 1158.24 1.10146 -4.23305 0
M  V30 12281 C 1157.3 2.14352 -4.80562 0
M  V30 12282 O 1156.32 1.73401 -5.42145 0
M  V30 12283 N 1157.52 3.46932 -4.65423 0
M  V30 12284 H 1160.29 -0.243808 -2.98707 0
M  V30 12285 H 1157.85 -0.276205 -1.59527 0
M  V30 12286 H 1159.84 2.26019 -3.35704 0
M  V30 12287 H 1158.41 2.11142 -2.30516 0
M  V30 12288 H 1157.63 0.234644 -3.93501 0
M  V30 12289 H 1158.92 0.768185 -5.02968 0
M  V30 12290 H 1158.32 3.82929 -4.16391 0
M  V30 12291 H 1156.88 4.12154 -5.04948 0
M  V30 12292 N 1160.31 1.56586 -0.178487 0
M  V30 12293 C 1161.56 1.96709 0.4637 0
M  V30 12294 C 1161.88 1.06586 1.63292 0
M  V30 12295 O 1161.15 0.133683 1.95443 0
M  V30 12296 H 1159.73 0.726381 0.174299 0
M  V30 12297 H 1162.39 1.9314 -0.261345 0
M  V30 12298 H 1161.49 3.01164 0.818934 0
M  V30 12299 N 1161.79 -0.095206 1.57312 0
M  V30 12300 C 1163.2 -0.449411 1.53142 0
M  V30 12301 C 1163.4 -1.80523 0.895187 0
M  V30 12302 O 1162.46 -2.47746 0.487649 0
M  V30 12303 C 1163.77 -0.412002 2.97864 0
M  V30 12304 C 1165.32 -0.493866 3.09079 0
M  V30 12305 C 1165.79 -0.486606 4.55408 0
M  V30 12306 N 1167.29 -0.547363 4.59955 0
M  V30 12307 C 1168.02 -0.563582 5.70624 0
M  V30 12308 N 1167.52 -0.536015 6.90723 0
M  V30 12309 N 1169.31 -0.608385 5.58798 0
M  V30 12310 H 1161.46 0.792869 1.97047 0
M  V30 12311 H 1163.72 0.295106 0.900898 0
M  V30 12312 H 1163.43 0.517064 3.47878 0
M  V30 12313 H 1163.3 -1.23102 3.56547 0
M  V30 12314 H 1165.69 -1.41335 2.59053 0
M  V30 12315 H 1165.77 0.353286 2.53349 0
M  V30 12316 H 1165.42 0.428935 5.06086 0
M  V30 12317 H 1165.35 -1.35097 5.08976 0
M  V30 12318 H 1167.84 -0.573867 3.73517 0
M  V30 12319 H 1168.15 -0.551671 7.70828 0
M  V30 12320 H 1166.49 -0.503064 6.93177 0
M  V30 12321 H 1169.69 -0.627451 4.63876 0
M  V30 12322 H 1169.86 -0.617556 6.45051 0
M  V30 12323 N 1163.26 -1.53291 -0.366026 0
M  V30 12324 C 1164.51 -1.69702 -1.11036 0
M  V30 12325 C 1164.84 -0.44728 -1.88979 0
M  V30 12326 O 1164.12 0.55542 -1.86401 0
M  V30 12327 C 1164.4 -2.94661 -2.06995 0
M  V30 12328 C 1164.25 -4.29791 -1.32663 0
M  V30 12329 C 1165.57 -3.15219 -3.07123 0
M  V30 12330 H 1162.69 -0.617525 -0.402284 0
M  V30 12331 H 1165.33 -1.85929 -0.391223 0
M  V30 12332 H 1163.48 -2.80958 -2.68318 0
M  V30 12333 H 1165.16 -4.55305 -0.741266 0
M  V30 12334 H 1163.4 -4.29223 -0.628484 0
M  V30 12335 H 1164.07 -5.13359 -2.02896 0
M  V30 12336 H 1166.55 -3.28105 -2.55903 0
M  V30 12337 H 1165.42 -4.04088 -3.71489 0
M  V30 12338 H 1165.68 -2.30479 -3.77269 0
M  V30 12339 N 1164.74 0.6258 -1.44643 0
M  V30 12340 C 1165.67 1.74858 -1.54748 0
M  V30 12341 C 1166.65 1.65327 -0.400138 0
M  V30 12342 O 1167.84 1.84005 -0.620948 0
M  V30 12343 C 1164.97 3.13408 -1.49643 0
M  V30 12344 C 1163.92 3.37733 -2.62908 0
M  V30 12345 C 1163.25 4.76367 -2.42855 0
M  V30 12346 C 1164.55 3.29771 -4.05029 0
M  V30 12347 H 1166.24 1.66658 -2.48728 0
M  V30 12348 H 1163.79 0.800363 -1.19709 0
M  V30 12349 H 1165.74 3.91735 -1.55312 0
M  V30 12350 H 1164.47 3.22404 -0.521824 0
M  V30 12351 H 1163.12 2.61788 -2.56637 0
M  V30 12352 H 1162.77 4.82074 -1.43575 0
M  V30 12353 H 1162.47 4.936 -3.18799 0
M  V30 12354 H 1164 5.56917 -2.50351 0
M  V30 12355 H 1165.41 3.97996 -4.12641 0
M  V30 12356 H 1163.81 3.58538 -4.81218 0
M  V30 12357 H 1164.88 2.27493 -4.28223 0
M  V30 12358 N 1166.22 1.31629 0.866686 0
M  V30 12359 C 1167.13 1.21524 2.00671 0
M  V30 12360 C 1168.15 0.131277 1.73504 0
M  V30 12361 O 1169.32 0.349699 1.98341 0
M  V30 12362 C 1166.39 0.926491 3.34091 0
M  V30 12363 C 1165.45 2.09769 3.7456 0
M  V30 12364 C 1164.68 1.82262 5.01614 0
M  V30 12365 O 1164.9 0.759329 5.65323 0
M  V30 12366 O 1163.84 2.68031 5.38928 0
M  V30 12367 H 1167.66 2.17335 2.1213 0
M  V30 12368 H 1165.25 1.11401 0.995499 0
M  V30 12369 H 1167.13 0.78144 4.14091 0
M  V30 12370 H 1165.81 -0.00155829 3.237 0
M  V30 12371 H 1164.71 2.29816 2.95187 0
M  V30 12372 H 1166.05 3.0081 3.89582 0
M  V30 12373 N 1167.7 -1.08142 1.14644 0
M  V30 12374 C 1169.12 -1.32656 0.887388 0
M  V30 12375 C 1169.32 -1.95942 -0.470012 0
M  V30 12376 O 1168.37 -2.21417 -1.21371 0
M  V30 12377 C 1169.68 -2.22549 2.02219 0
M  V30 12378 C 1171.23 -2.36021 2.0558 0
M  V30 12379 C 1171.71 -3.29257 3.18361 0
M  V30 12380 N 1173.2 -3.36835 3.17957 0
M  V30 12381 C 1173.93 -4.09017 4.01862 0
M  V30 12382 N 1173.43 -4.83882 4.95812 0
M  V30 12383 N 1175.22 -4.04875 3.89913 0
M  V30 12384 H 1167.37 -0.654457 2.02066 0
M  V30 12385 H 1169.64 -0.350947 0.880648 0
M  V30 12386 H 1169.34 -1.83296 3.00159 0
M  V30 12387 H 1169.22 -3.23027 1.94765 0
M  V30 12388 H 1171.6 -2.74531 1.08245 0
M  V30 12389 H 1171.68 -1.35275 2.17105 0
M  V30 12390 H 1171.33 -2.91468 4.15944 0
M  V30 12391 H 1171.26 -4.29938 3.04074 0
M  V30 12392 H 1173.75 -2.83465 2.49912 0
M  V30 12393 H 1174.06 -5.3643 5.56294 0
M  V30 12394 H 1172.41 -4.82926 4.99808 0
M  V30 12395 H 1175.6 -3.45496 3.15833 0
M  V30 12396 H 1175.77 -4.60866 4.55529 0
M  V30 12397 N 1169.18 -0.941978 -1.26351 0
M  V30 12398 C 1170.59 -0.632522 -1.75659 0
M  V30 12399 C 1170.94 0.852287 -1.76722 0
M  V30 12400 O 1170.06 1.66701 -1.37985 0
M  V30 12401 C 1170.66 -1.14145 -3.18993 0
M  V30 12402 C 1169.22 -0.882391 -3.65911 0
M  V30 12403 C 1168.37 -1.29189 -2.45368 0
M  V30 12404 H 1171.32 -1.12019 -1.12416 0
M  V30 12405 H 1171.34 -0.495639 -3.77258 0
M  V30 12406 H 1170.85 -2.22213 -3.18187 0
M  V30 12407 H 1168.95 0.183873 -3.72146 0
M  V30 12408 H 1169.06 -1.50996 -4.54683 0
M  V30 12409 H 1167.43 -0.710316 -2.44595 0
M  V30 12410 H 1168.21 -2.38152 -2.47262 0
M  V30 12411 N 1170.66 1.40747 -0.709091 0
M  V30 12412 C 1172.07 1.54961 -0.381989 0
M  V30 12413 C 1172.27 1.68181 1.10985 0
M  V30 12414 O 1171.33 1.66776 1.89584 0
M  V30 12415 C 1172.64 2.78156 -1.14236 0
M  V30 12416 C 1174.19 2.91967 -1.12803 0
M  V30 12417 C 1174.66 4.18066 -1.87042 0
M  V30 12418 N 1176.15 4.25052 -1.84078 0
M  V30 12419 C 1176.89 5.21514 -2.38349 0
M  V30 12420 N 1176.39 6.23924 -3.01149 0
M  V30 12421 N 1178.18 5.13548 -2.28528 0
M  V30 12422 H 1170.33 1.30412 -1.6765 0
M  V30 12423 H 1172.59 0.630147 -0.70825 0
M  V30 12424 H 1172.3 2.74643 -2.19691 0
M  V30 12425 H 1172.17 3.70074 -0.729731 0
M  V30 12426 H 1174.56 2.94987 -0.0816956 0
M  V30 12427 H 1174.64 2.01185 -1.57982 0
M  V30 12428 H 1174.28 4.15808 -2.91662 0
M  V30 12429 H 1174.21 5.07845 -1.39287 0
M  V30 12430 H 1176.71 3.51682 -1.38305 0
M  V30 12431 H 1177.02 6.93942 -3.40094 0
M  V30 12432 H 1175.36 6.24387 -3.05231 0
M  V30 12433 H 1178.55 4.3247 -1.79129 0
M  V30 12434 H 1178.73 5.88553 -2.71126 0
M  V30 12435 N 1172.13 0.454803 1.50895 0
M  V30 12436 C 1173.38 -0.105927 2.02523 0
M  V30 12437 C 1173.71 -1.40825 1.33724 0
M  V30 12438 O 1172.99 -1.89038 0.457683 0
M  V30 12439 C 1173.27 -0.306635 3.58792 0
M  V30 12440 C 1173.12 1.01556 4.38185 0
M  V30 12441 C 1174.44 -1.06858 4.2693 0
M  V30 12442 H 1171.56 -0.0370232 0.736069 0
M  V30 12443 H 1174.2 0.597215 1.8037 0
M  V30 12444 H 1172.35 -0.905563 3.77799 0
M  V30 12445 H 1174.03 1.64981 4.30789 0
M  V30 12446 H 1172.27 1.61608 4.02574 0
M  V30 12447 H 1172.94 0.828959 5.4574 0
M  V30 12448 H 1175.42 -0.561086 4.123 0
M  V30 12449 H 1174.29 -1.1778 5.36115 0
M  V30 12450 H 1174.55 -2.10111 3.8898 0
M  V30 12451 N 1173.61 -1.56489 0.186789 0
M  V30 12452 C 1174.85 -1.99239 -0.456427 0
M  V30 12453 C 1175.22 -1.07076 -1.5937 0
M  V30 12454 O 1176.42 -1.39028 -2.30054 0
M  V30 12455 C 1174.69 -3.45553 -0.912587 0
M  V30 12456 S 1176.25 -4.1033 -1.55481 0
M  V30 12457 H 1173.06 -0.695792 -0.146267 0
M  V30 12458 H 1175.67 -1.93369 0.287899 0
M  V30 12459 H 1174.37 -4.10332 -0.0746877 0
M  V30 12460 H 1173.9 -3.55222 -1.69058 0
M  V30 12461 H 1175.92 -4.06653 -2.84338 0
M  V30 12462 N 1175.09 0.086862 -1.5736 0
M  V30 12463 C 1176.5 0.640442 -1.75372 0
M  V30 12464 C 1176.85 1.78693 -0.81014 0
M  V30 12465 O 1175.98 2.16398 0.00940712 0
M  V30 12466 C 1176.57 1.16856 -3.1801 0
M  V30 12467 C 1175.13 1.66813 -3.37417 0
M  V30 12468 C 1174.28 0.58116 -2.71142 0
M  V30 12469 H 1177.23 -0.139249 -1.58088 0
M  V30 12470 H 1177.25 2.03772 -3.21337 0
M  V30 12471 H 1176.76 0.333909 -3.86661 0
M  V30 12472 H 1174.86 2.52652 -2.73858 0
M  V30 12473 H 1174.98 1.75545 -4.45781 0
M  V30 12474 H 1173.34 1.0226 -2.3327 0
M  V30 12475 H 1174.12 -0.243047 -3.42439 0
M  V30 12476 N 1176.57 1.53483 0.357892 0
M  V30 12477 C 1177.51 1.80463 1.43881 0
M  V30 12478 C 1178.48 0.649438 1.52877 0
M  V30 12479 O 1179.67 0.892409 1.68644 0
M  V30 12480 C 1176.81 2.00714 2.80727 0
M  V30 12481 C 1175.92 3.28431 2.80637 0
M  V30 12482 C 1175.06 3.38828 4.09107 0
M  V30 12483 C 1174.1 4.60549 4.03189 0
M  V30 12484 N 1173.23 4.68057 5.23323 0
M  V30 12485 H 1178.07 2.72694 1.20174 0
M  V30 12486 H 1175.61 1.35079 0.582422 0
M  V30 12487 H 1177.57 2.10444 3.60235 0
M  V30 12488 H 1176.2 1.11811 3.02817 0
M  V30 12489 H 1175.25 3.27617 1.93317 0
M  V30 12490 H 1176.56 4.18022 2.72138 0
M  V30 12491 H 1175.72 3.47911 4.97034 0
M  V30 12492 H 1174.46 2.47267 4.20369 0
M  V30 12493 H 1173.46 4.51558 3.13649 0
M  V30 12494 H 1174.69 5.53459 3.93523 0
M  V30 12495 H 1172.63 3.794 5.35156 0
M  V30 12496 H 1172.55 5.51563 5.17024 0
M  V30 12497 H 1173.82 4.81433 6.1306 0
M  V30 12498 N 1178.05 -0.61812 1.44973 0
M  V30 12499 C 1178.96 -1.7579 1.55355 0
M  V30 12500 C 1179.97 -1.68384 0.438512 0
M  V30 12501 O 1181.15 -1.88928 0.697715 0
M  V30 12502 C 1178.21 -3.1222 1.50729 0
M  V30 12503 C 1177.27 -3.3116 2.73188 0
M  V30 12504 C 1176.51 -4.61082 2.68774 0
M  V30 12505 O 1176.73 -5.42728 1.75507 0
M  V30 12506 O 1175.66 -4.82506 3.59821 0
M  V30 12507 H 1179.49 -1.69983 2.51674 0
M  V30 12508 H 1177.07 -0.780934 1.27365 0
M  V30 12509 H 1178.96 -3.93524 1.5072 0
M  V30 12510 H 1177.63 -3.18541 0.575587 0
M  V30 12511 H 1176.54 -2.49485 2.78762 0
M  V30 12512 H 1177.87 -3.29709 3.65449 0
M  V30 12513 N 1179.52 -1.32087 -0.859693 0
M  V30 12514 C 1180.77 -1.22542 -1.6159 0
M  V30 12515 C 1181.1 0.213533 -1.93022 0
M  V30 12516 O 1180.38 1.14931 -1.56911 0
M  V30 12517 C 1180.66 -2.08004 -2.93949 0
M  V30 12518 C 1180.51 -3.60252 -2.6933 0
M  V30 12519 C 1181.83 -1.93732 -3.95166 0
M  V30 12520 H 1178.95 -0.446504 -0.586347 0
M  V30 12521 H 1181.59 -1.61982 -0.993064 0
M  V30 12522 H 1179.74 -1.74498 -3.47106 0
M  V30 12523 H 1181.42 -4.03947 -2.22766 0
M  V30 12524 H 1179.66 -3.83169 -2.03382 0
M  V30 12525 H 1180.33 -4.1537 -3.63555 0
M  V30 12526 H 1182.81 -2.23075 -3.5125 0
M  V30 12527 H 1181.68 -2.55815 -4.85644 0
M  V30 12528 H 1181.94 -0.903528 -4.32769 0
M  V30 12529 N 1181 1.07532 -1.15215 0
M  V30 12530 C 1182.23 1.8355 -0.94831 0
M  V30 12531 C 1182.64 1.82289 0.506701 0
M  V30 12532 O 1181.98 1.23142 1.36314 0
M  V30 12533 C 1182.04 3.31834 -1.38298 0
M  V30 12534 C 1181.71 3.56818 -2.85535 0
M  V30 12535 C 1182.71 3.50915 -3.83608 0
M  V30 12536 C 1180.39 3.84543 -3.23159 0
M  V30 12537 C 1182.38 3.72382 -5.17311 0
M  V30 12538 C 1180.07 4.05662 -4.57036 0
M  V30 12539 C 1181.07 3.99576 -5.53921 0
M  V30 12540 O 1180.76 4.20132 -6.85379 0
M  V30 12541 H 1180.49 0.586014 -0.336992 0
M  V30 12542 H 1183.04 1.36656 -1.53344 0
M  V30 12543 H 1181.27 3.79529 -0.741244 0
M  V30 12544 H 1182.96 3.89312 -1.14853 0
M  V30 12545 H 1183.73 3.295 -3.55886 0
M  V30 12546 H 1179.61 3.88395 -2.48335 0
M  V30 12547 H 1183.15 3.67547 -5.92921 0
M  V30 12548 H 1179.05 4.26563 -4.84473 0
M  V30 12549 H 1179.82 4.3749 -6.91769 0
M  V30 12550 N 1182.48 0.948665 1.2585 0
M  V30 12551 C 1183.76 0.517832 1.88621 0
M  V30 12552 C 1184.14 -1.00477 1.85654 0
M  V30 12553 O 1183.49 -1.868 1.31598 0
M  V30 12554 C 1183.7 1.08768 3.31618 0
M  V30 12555 C 1185.04 1.16089 4.08422 0
M  V30 12556 O 1186.07 1.0388 3.40716 0
M  V30 12557 O 1184.93 1.35172 5.29519 0
M  V30 12558 H 1182.02 0.169916 0.809356 0
M  V30 12559 H 1184.57 1.04171 1.33964 0
M  V30 12560 H 1183.34 2.13109 3.28177 0
M  V30 12561 H 1182.96 0.54669 3.93824 0
M  V30 12562 N 1183.96 -1.40369 0.716545 0
M  V30 12563 C 1185.2 -2.01167 0.256846 0
M  V30 12564 C 1185.54 -1.56689 -1.14727 0
M  V30 12565 O 1184.81 -0.787384 -1.7785 0
M  V30 12566 C 1185.1 -3.58511 0.337963 0
M  V30 12567 C 1184.95 -4.13059 1.78052 0
M  V30 12568 C 1186.27 -4.39142 -0.290295 0
M  V30 12569 H 1183.39 -0.730877 0.0948028 0
M  V30 12570 H 1186.03 -1.66833 0.909225 0
M  V30 12571 H 1184.18 -3.87891 -0.217482 0
M  V30 12572 H 1185.85 -3.94472 2.39143 0
M  V30 12573 H 1184.09 -3.67311 2.30793 0
M  V30 12574 H 1184.76 -5.22217 1.78867 0
M  V30 12575 H 1187.24 -4.15697 0.182987 0
M  V30 12576 H 1186.12 -5.48524 -0.203097 0
M  V30 12577 H 1186.38 -4.20209 -1.37394 0
M  V30 12578 N 1185.44 -0.462799 -1.50652 0
M  V30 12579 C 1186.37 0.381469 -2.24989 0
M  V30 12580 C 1187.35 1.00328 -1.27957 0
M  V30 12581 O 1188.53 1.04082 -1.5716 0
M  V30 12582 C 1185.66 1.53378 -3.01981 0
M  V30 12583 C 1184.7 1.03017 -4.13872 0
M  V30 12584 S 1185.54 -0.048447 -5.35478 0
M  V30 12585 C 1186.69 1.10794 -6.16016 0
M  V30 12586 H 1186.93 -0.249578 -2.96251 0
M  V30 12587 H 1184.46 -0.247583 -1.52402 0
M  V30 12588 H 1186.42 2.19425 -3.46934 0
M  V30 12589 H 1185.08 2.13632 -2.30261 0
M  V30 12590 H 1184.27 1.8926 -4.67115 0
M  V30 12591 H 1183.87 0.447548 -3.71313 0
M  V30 12592 H 1186.17 2.02125 -6.46646 0
M  V30 12593 H 1187.11 0.614937 -7.05425 0
M  V30 12594 H 1187.52 1.35802 -5.47922 0
M  V30 12595 N 1186.91 1.56388 -0.195085 0
M  V30 12596 C 1187.84 2.22091 0.720971 0
M  V30 12597 C 1188.83 1.184 1.22128 0
M  V30 12598 O 1190.01 1.46907 1.27012 0
M  V30 12599 C 1187.14 2.88025 1.94059 0
M  V30 12600 C 1186.09 3.97959 1.5752 0
M  V30 12601 C 1185.42 4.51058 2.87143 0
M  V30 12602 C 1186.72 5.16365 0.785145 0
M  V30 12603 H 1188.41 2.98898 0.173245 0
M  V30 12604 H 1185.96 1.43767 0.0818868 0
M  V30 12605 H 1187.91 3.32671 2.58666 0
M  V30 12606 H 1186.64 2.08623 2.51285 0
M  V30 12607 H 1185.3 3.54004 0.952715 0
M  V30 12608 H 1184.94 3.68418 3.42458 0
M  V30 12609 H 1184.64 5.25237 2.63439 0
M  V30 12610 H 1186.17 4.98406 3.52738 0
M  V30 12611 H 1187.58 5.57556 1.33431 0
M  V30 12612 H 1185.98 5.9661 0.646231 0
M  V30 12613 H 1187.05 4.84428 -0.213789 0
M  V30 12614 N 1188.39 -0.0785156 1.57404 0
M  V30 12615 C 1189.64 -0.777399 1.8655 0
M  V30 12616 C 1189.96 -1.78451 0.786142 0
M  V30 12617 O 1189.23 -1.95016 -0.185911 0
M  V30 12618 H 1187.81 -0.290097 0.688369 0
M  V30 12619 H 1190.47 -0.0562017 1.94819 0
M  V30 12620 H 1189.57 -1.29776 2.83839 0
M  V30 12621 N 1189.87 -1.5367 -0.349747 0
M  V30 12622 C 1191.11 -1.72329 -1.09919 0
M  V30 12623 C 1191.47 -0.473178 -1.86078 0
M  V30 12624 O 1192.68 -0.53669 -2.63388 0
M  V30 12625 C 1190.95 -2.94817 -2.02034 0
M  V30 12626 S 1192.51 -3.34257 -2.84285 0
M  V30 12627 H 1189.32 -0.606225 -0.3715 0
M  V30 12628 H 1191.93 -1.91803 -0.378399 0
M  V30 12629 H 1190.63 -3.83979 -1.44874 0
M  V30 12630 H 1190.16 -2.7779 -2.78561 0
M  V30 12631 H 1192.18 -2.87506 -4.04419 0
M  V30 12632 N 1191.35 0.610423 -1.45298 0
M  V30 12633 C 1192.59 1.36959 -1.50379 0
M  V30 12634 C 1192.95 1.91872 -0.142378 0
M  V30 12635 O 1192.24 1.71944 0.845332 0
M  V30 12636 C 1192.44 2.53812 -2.51623 0
M  V30 12637 C 1192.27 2.10341 -3.97476 0
M  V30 12638 C 1191.04 1.96646 -4.65466 0
M  V30 12639 C 1193.23 1.67982 -4.86093 0
M  V30 12640 N 1191.22 1.46956 -5.96051 0
M  V30 12641 C 1192.59 1.29686 -6.06285 0
M  V30 12642 C 1194.64 1.55548 -4.72979 0
M  V30 12643 C 1193.34 0.801985 -7.14815 0
M  V30 12644 C 1195.37 1.07465 -5.81554 0
M  V30 12645 C 1194.73 0.701317 -7.009 0
M  V30 12646 H 1190.83 0.495191 -0.605236 0
M  V30 12647 H 1193.42 0.698121 -1.81754 0
M  V30 12648 H 1191.59 3.18558 -2.22205 0
M  V30 12649 H 1193.32 3.20683 -2.4687 0
M  V30 12650 H 1190.07 2.17743 -4.20577 0
M  V30 12651 H 1190.5 1.2435 -6.65482 0
M  V30 12652 H 1195.14 1.83038 -3.81126 0
M  V30 12653 H 1192.86 0.514634 -8.0646 0
M  V30 12654 H 1196.44 0.98274 -5.7344 0
M  V30 12655 H 1195.32 0.334967 -7.83484 0
M  V30 12656 N 1192.83 1.32541 0.852676 0
M  V30 12657 C 1193.76 1.17471 1.96807 0
M  V30 12658 C 1194.77 0.109198 1.62433 0
M  V30 12659 O 1195.96 0.358342 1.74866 0
M  V30 12660 C 1193.06 0.776328 3.29888 0
M  V30 12661 C 1192.23 1.93055 3.9249 0
M  V30 12662 C 1191.29 1.51539 5.03907 0
M  V30 12663 O 1190.32 2.22771 5.23796 0
M  V30 12664 N 1191.52 0.412533 5.79032 0
M  V30 12665 H 1194.29 2.13551 2.10276 0
M  V30 12666 H 1191.85 1.25104 1.02764 0
M  V30 12667 H 1193.84 0.48096 4.01832 0
M  V30 12668 H 1192.41 -0.0933749 3.12461 0
M  V30 12669 H 1191.63 2.39231 3.13309 0
M  V30 12670 H 1192.92 2.70321 4.3105 0
M  V30 12671 H 1192.31 -0.180286 5.65413 0
M  V30 12672 H 1190.87 0.17678 6.5156 0
M  V30 12673 N 1194.3 -1.0692 1.15784 0
M  V30 12674 C 1195.72 -1.31707 0.901408 0
M  V30 12675 C 1195.92 -1.96429 -0.449203 0
M  V30 12676 O 1194.98 -2.22692 -1.19015 0
M  V30 12677 C 1196.29 -2.20391 2.04568 0
M  V30 12678 C 1197.84 -2.33827 2.08072 0
M  V30 12679 C 1198.31 -3.25862 3.21835 0
M  V30 12680 N 1199.8 -3.33444 3.21511 0
M  V30 12681 C 1200.54 -4.04731 4.06177 0
M  V30 12682 N 1200.03 -4.78596 5.00917 0
M  V30 12683 N 1201.83 -4.00717 3.94185 0
M  V30 12684 H 1193.98 -0.632989 2.02749 0
M  V30 12685 H 1196.24 -0.341587 0.88432 0
M  V30 12686 H 1195.95 -1.80102 3.02087 0
M  V30 12687 H 1195.82 -3.20943 1.9818 0
M  V30 12688 H 1198.21 -2.73367 1.11151 0
M  V30 12689 H 1198.29 -1.32964 2.18527 0
M  V30 12690 H 1197.93 -2.8704 4.19012 0
M  V30 12691 H 1197.86 -4.26689 3.08617 0
M  V30 12692 H 1200.35 -2.80798 2.52905 0
M  V30 12693 H 1200.67 -5.30499 5.61952 0
M  V30 12694 H 1199.01 -4.77598 5.04902 0
M  V30 12695 H 1202.2 -3.42126 3.1948 0
M  V30 12696 H 1202.38 -4.56008 4.60392 0
M  V30 12697 N 1195.78 -0.955326 -1.25345 0
M  V30 12698 C 1196.69 -0.482707 -2.2958 0
M  V30 12699 C 1197.71 0.450283 -1.68073 0
M  V30 12700 O 1198.88 0.326358 -1.98738 0
M  V30 12701 C 1195.95 0.231293 -3.45928 0
M  V30 12702 C 1195.01 -0.739995 -4.22874 0
M  V30 12703 C 1194.24 -0.0599748 -5.33666 0
M  V30 12704 O 1194.47 1.15423 -5.586 0
M  V30 12705 O 1193.4 -0.745865 -5.97261 0
M  V30 12706 H 1197.23 -1.34892 -2.72099 0
M  V30 12707 H 1194.81 -0.721812 -1.30806 0
M  V30 12708 H 1196.69 0.632908 -4.1662 0
M  V30 12709 H 1195.37 1.07267 -3.0541 0
M  V30 12710 H 1194.28 -1.19183 -3.54607 0
M  V30 12711 H 1195.61 -1.54941 -4.67177 0
M  V30 12712 N 1197.26 1.39987 -0.723979 0
M  V30 12713 C 1198.67 1.83606 -0.338461 0
M  V30 12714 C 1199.02 1.6051 1.12831 0
M  V30 12715 O 1198.15 1.09041 1.8692 0
M  V30 12716 C 1198.74 3.33308 -0.607533 0
M  V30 12717 C 1197.3 3.75389 -0.275632 0
M  V30 12718 C 1196.45 2.6311 -0.875699 0
M  V30 12719 H 1199.4 1.29135 -0.922483 0
M  V30 12720 H 1199.42 3.80297 0.124424 0
M  V30 12721 H 1198.93 3.50087 -1.67514 0
M  V30 12722 H 1197.03 3.64203 0.786579 0
M  V30 12723 H 1197.15 4.73185 -0.750492 0
M  V30 12724 H 1195.51 2.5289 -0.303122 0
M  V30 12725 H 1196.29 2.82698 -1.94774 0
M  V30 12726 N 1198.74 0.470782 1.50404 0
M  V30 12727 C 1199.67 -0.359838 2.26358 0
M  V30 12728 C 1200.68 -0.95735 1.31676 0
M  V30 12729 O 1201.87 -0.84581 1.57189 0
M  V30 12730 C 1198.97 -1.51864 3.02969 0
M  V30 12731 C 1198.15 -1.03397 4.25003 0
M  V30 12732 C 1197.21 -2.06679 4.83911 0
M  V30 12733 O 1196.23 -1.64754 5.44835 0
M  V30 12734 N 1197.43 -3.39484 4.70883 0
M  V30 12735 H 1200.2 0.291299 2.98281 0
M  V30 12736 H 1197.76 0.301549 1.59067 0
M  V30 12737 H 1199.75 -2.2065 3.39258 0
M  V30 12738 H 1198.32 -2.07448 2.33846 0
M  V30 12739 H 1197.54 -0.172012 3.93825 0
M  V30 12740 H 1198.83 -0.68807 5.04126 0
M  V30 12741 H 1198.23 -3.76256 4.22431 0
M  V30 12742 H 1196.78 -4.04068 5.11441 0
M  V30 12743 N 1200.22 -1.56282 0.203376 0
M  V30 12744 C 1201.15 -2.16714 -0.74616 0
M  V30 12745 C 1202.16 -1.13121 -1.17079 0
M  V30 12746 O 1203.35 -1.40179 -1.10509 0
M  V30 12747 C 1200.45 -2.72115 -2.02007 0
M  V30 12748 C 1199.62 -4.00695 -1.75391 0
M  V30 12749 C 1198.68 -4.40839 -2.8731 0
M  V30 12750 O 1197.71 -5.081 -2.56561 0
M  V30 12751 N 1198.91 -4.05024 -4.15856 0
M  V30 12752 H 1201.68 -2.98821 -0.229326 0
M  V30 12753 H 1199.24 -1.61885 0.0217049 0
M  V30 12754 H 1201.23 -2.95951 -2.76035 0
M  V30 12755 H 1199.8 -1.94415 -2.44789 0
M  V30 12756 H 1199.02 -3.84905 -0.851 0
M  V30 12757 H 1200.31 -4.8461 -1.55017 0
M  V30 12758 H 1199.71 -3.50938 -4.43688 0
M  V30 12759 H 1198.26 -4.33792 -4.86485 0
M  V30 12760 N 1201.7 0.070167 -1.57444 0
M  V30 12761 C 1203.11 0.424991 -1.53838 0
M  V30 12762 C 1203.31 1.79076 -0.923793 0
M  V30 12763 O 1202.37 2.46939 -0.527002 0
M  V30 12764 C 1203.68 0.364562 -2.98482 0
M  V30 12765 C 1205.23 0.444631 -3.09826 0
M  V30 12766 C 1205.7 0.414093 -4.56124 0
M  V30 12767 N 1207.19 0.474119 -4.60767 0
M  V30 12768 C 1207.93 0.472729 -5.71448 0
M  V30 12769 N 1207.43 0.426059 -6.91489 0
M  V30 12770 N 1209.22 0.519408 -5.59695 0
M  V30 12771 H 1201.37 -0.824117 -1.9576 0
M  V30 12772 H 1203.63 -0.309401 -0.896089 0
M  V30 12773 H 1203.34 -0.572343 -3.47012 0
M  V30 12774 H 1203.21 1.17414 -3.5846 0
M  V30 12775 H 1205.6 1.37196 -2.61269 0
M  V30 12776 H 1205.68 -0.393547 -2.52755 0
M  V30 12777 H 1205.32 -0.509394 -5.05339 0
M  V30 12778 H 1205.25 1.26983 -5.11061 0
M  V30 12779 H 1207.75 0.514371 -3.74383 0
M  V30 12780 H 1208.06 0.428969 -7.71609 0
M  V30 12781 H 1206.4 0.392722 -6.9389 0
M  V30 12782 H 1209.59 0.553573 -4.64815 0
M  V30 12783 H 1209.77 0.514856 -6.45951 0
M  V30 12784 N 1203.17 1.53854 0.341593 0
M  V30 12785 C 1204.1 1.84966 1.42513 0
M  V30 12786 C 1205.08 0.704944 1.54805 0
M  V30 12787 O 1206.27 0.957036 1.68981 0
M  V30 12788 C 1203.4 2.06099 2.79536 0
M  V30 12789 C 1202.35 3.21919 2.82049 0
M  V30 12790 C 1201.68 3.28389 4.21977 0
M  V30 12791 C 1202.98 4.59984 2.4741 0
M  V30 12792 H 1204.67 2.7571 1.16724 0
M  V30 12793 H 1202.22 1.32662 0.560073 0
M  V30 12794 H 1204.17 2.26448 3.55386 0
M  V30 12795 H 1202.9 1.12087 3.06764 0
M  V30 12796 H 1201.56 3.01429 2.08653 0
M  V30 12797 H 1201.2 2.3197 4.46317 0
M  V30 12798 H 1200.9 4.0622 4.24569 0
M  V30 12799 H 1202.43 3.50951 4.99666 0
M  V30 12800 H 1203.84 4.80334 3.12973 0
M  V30 12801 H 1202.24 5.40233 2.61282 0
M  V30 12802 H 1203.31 4.6346 1.42594 0
M  V30 12803 N 1204.65 -0.602709 1.4562 0
M  V30 12804 C 1205.6 -1.73425 1.55005 0
M  V30 12805 C 1206.59 -1.64118 0.419713 0
M  V30 12806 O 1207.8 -1.69853 0.595815 0
M  V30 12807 H 1204.17 -0.573038 0.486962 0
M  V30 12808 H 1206.15 -1.62637 2.50184 0
M  V30 12809 C 1204.89 -3.11808 1.53853 0
M  V30 12810 H 1204.22 -3.19631 2.40158 0
M  V30 12811 H 1205.66 -3.90798 1.64477 0
M  V30 12812 C 1204.12 -3.35866 0.263765 0
M  V30 12813 O 1204.65 -3.96334 -0.654364 0
M  V30 12814 N 1202.85 -2.90171 0.157927 0
M  V30 12815 H 1202.4 -2.41144 0.905944 0
M  V30 12816 H 1202.36 -3.06641 -0.694175 0
M  V30 12817 N 1206.13 -1.32992 -0.845635 0
M  V30 12818 C 1207.38 -1.23415 -1.59536 0
M  V30 12819 C 1207.69 0.200278 -1.94572 0
M  V30 12820 O 1208.9 0.417993 -2.68263 0
M  V30 12821 C 1207.35 -2.16207 -2.8772 0
M  V30 12822 C 1206.96 -3.64782 -2.60073 0
M  V30 12823 C 1208.71 -2.15488 -3.65739 0
M  V30 12824 C 1206.61 -4.49508 -3.84313 0
M  V30 12825 H 1205.54 -0.458366 -0.598679 0
M  V30 12826 H 1208.19 -1.58012 -0.932981 0
M  V30 12827 H 1206.58 -1.74535 -3.55462 0
M  V30 12828 H 1207.75 -4.14852 -2.00585 0
M  V30 12829 H 1206.06 -3.67723 -1.95369 0
M  V30 12830 H 1208.66 -2.76021 -4.57948 0
M  V30 12831 H 1209 -1.14818 -4.00153 0
M  V30 12832 H 1209.54 -2.55487 -3.04912 0
M  V30 12833 H 1206.28 -5.51027 -3.55035 0
M  V30 12834 H 1205.8 -4.04185 -4.43165 0
M  V30 12835 H 1207.48 -4.62969 -4.51961 0
M  V30 12836 N 1207.61 1.06304 -1.1635 0
M  V30 12837 C 1208.55 2.13776 -0.869965 0
M  V30 12838 C 1209.52 1.65105 0.181541 0
M  V30 12839 O 1210.71 1.90743 0.0467705 0
M  V30 12840 C 1207.85 3.43034 -0.377077 0
M  V30 12841 C 1206.96 4.0544 -1.4914 0
M  V30 12842 C 1206.1 5.22572 -0.953538 0
M  V30 12843 C 1205.14 5.76961 -2.04407 0
M  V30 12844 N 1204.27 6.85409 -1.52181 0
M  V30 12845 H 1209.11 2.38224 -1.79034 0
M  V30 12846 H 1206.65 1.16882 -0.893136 0
M  V30 12847 H 1208.61 4.17136 -0.0729426 0
M  V30 12848 H 1207.24 3.18804 0.506359 0
M  V30 12849 H 1206.29 3.28886 -1.9115 0
M  V30 12850 H 1207.6 4.41859 -2.31434 0
M  V30 12851 H 1206.76 6.037 -0.602579 0
M  V30 12852 H 1205.5 4.87598 -0.099897 0
M  V30 12853 H 1204.5 4.9447 -2.40373 0
M  V30 12854 H 1205.73 6.13987 -2.90167 0
M  V30 12855 H 1203.67 6.52354 -0.690697 0
M  V30 12856 H 1203.59 7.2077 -2.28092 0
M  V30 12857 H 1204.86 7.70217 -1.19942 0
M  V30 12858 N 1209.09 0.96196 1.24836 0
M  V30 12859 C 1210 0.494876 2.29321 0
M  V30 12860 C 1211.01 -0.441363 1.68309 0
M  V30 12861 O 1212.19 -0.315814 1.98908 0
M  V30 12862 C 1209.25 -0.212944 3.46045 0
M  V30 12863 C 1208.31 0.762411 4.22476 0
M  V30 12864 C 1207.55 0.0882756 5.33627 0
M  V30 12865 O 1207.77 -1.12459 5.59204 0
M  V30 12866 O 1206.7 0.777529 5.96857 0
M  V30 12867 H 1210.53 1.36333 2.7138 0
M  V30 12868 H 1208.11 0.728738 1.30421 0
M  V30 12869 H 1210 -0.610805 4.1695 0
M  V30 12870 H 1208.67 -1.05645 3.05975 0
M  V30 12871 H 1207.58 1.21062 3.5397 0
M  V30 12872 H 1208.91 1.57416 4.66349 0
M  V30 12873 N 1210.56 -1.39601 0.731392 0
M  V30 12874 C 1211.81 -1.99821 0.274661 0
M  V30 12875 C 1212.13 -1.58693 -1.1435 0
M  V30 12876 O 1213.33 -2.11724 -1.69957 0
M  V30 12877 C 1211.79 -3.57199 0.440124 0
M  V30 12878 C 1211.4 -4.07292 1.86594 0
M  V30 12879 C 1213.14 -4.24476 0.0449851 0
M  V30 12880 C 1211.05 -5.57229 1.98115 0
M  V30 12881 H 1209.98 -0.747481 0.0989383 0
M  V30 12882 H 1212.63 -1.59645 0.904755 0
M  V30 12883 H 1211.01 -3.95153 -0.25881 0
M  V30 12884 H 1212.18 -3.80679 2.59654 0
M  V30 12885 H 1210.5 -3.52665 2.21397 0
M  V30 12886 H 1213.1 -5.34587 0.110126 0
M  V30 12887 H 1213.44 -4.04129 -0.999269 0
M  V30 12888 H 1213.97 -3.91683 0.694942 0
M  V30 12889 H 1210.71 -5.82452 3.00716 0
M  V30 12890 H 1210.23 -5.85656 1.29487 0
M  V30 12891 H 1211.91 -6.22584 1.76063 0
M  V30 12892 N 1212.04 -0.478751 -1.50152 0
M  V30 12893 C 1213.27 0.0709455 -2.06478 0
M  V30 12894 C 1213.68 1.33376 -1.34192 0
M  V30 12895 O 1213.02 1.79133 -0.40707 0
M  V30 12896 C 1213.09 0.417322 -3.5707 0
M  V30 12897 C 1212.75 -0.744563 -4.50894 0
M  V30 12898 C 1213.75 -1.62879 -4.93727 0
M  V30 12899 C 1211.43 -0.937062 -4.93482 0
M  V30 12900 C 1213.43 -2.68985 -5.77863 0
M  V30 12901 C 1211.11 -2.00134 -5.77399 0
M  V30 12902 C 1212.11 -2.87609 -6.19492 0
M  V30 12903 O 1211.8 -3.92203 -7.01735 0
M  V30 12904 H 1211.53 -0.00720177 -0.675962 0
M  V30 12905 H 1214.08 -0.668797 -1.94207 0
M  V30 12906 H 1212.31 1.21036 -3.6727 0
M  V30 12907 H 1214 0.903002 -3.95728 0
M  V30 12908 H 1214.77 -1.49179 -4.61488 0
M  V30 12909 H 1210.65 -0.265636 -4.60234 0
M  V30 12910 H 1214.19 -3.37293 -6.10639 0
M  V30 12911 H 1210.09 -2.13837 -6.09052 0
M  V30 12912 H 1210.86 -3.89284 -7.2 0
M  V30 12913 N 1213.52 1.56172 -0.211661 0
M  V30 12914 C 1214.47 2.19849 0.702515 0
M  V30 12915 C 1215.44 1.15091 1.19763 0
M  V30 12916 O 1216.62 1.43408 1.25852 0
M  V30 12917 C 1213.76 2.87468 1.90935 0
M  V30 12918 C 1212.88 4.06794 1.45406 0
M  V30 12919 C 1212.01 4.62224 2.61769 0
M  V30 12920 C 1211.05 5.73872 2.12926 0
M  V30 12921 N 1210.19 6.23635 3.22526 0
M  V30 12922 H 1215.03 2.97608 0.152777 0
M  V30 12923 H 1212.56 1.46962 0.0636596 0
M  V30 12924 H 1214.52 3.24851 2.61777 0
M  V30 12925 H 1213.15 2.12244 2.43213 0
M  V30 12926 H 1212.2 3.74962 0.640907 0
M  V30 12927 H 1213.52 4.87497 1.05584 0
M  V30 12928 H 1212.67 5.01999 3.40709 0
M  V30 12929 H 1211.41 3.80662 3.04873 0
M  V30 12930 H 1210.41 5.33609 1.32445 0
M  V30 12931 H 1211.64 6.57262 1.70833 0
M  V30 12932 H 1209.58 5.44991 3.65131 0
M  V30 12933 H 1209.5 6.99435 2.86926 0
M  V30 12934 H 1210.77 6.68066 4.01631 0
M  V30 12935 N 1215 -0.0618163 1.57479 0
M  V30 12936 C 1216.25 -0.75794 1.86918 0
M  V30 12937 C 1216.56 -1.78234 0.80572 0
M  V30 12938 O 1217.77 -2.52874 0.98827 0
M  V30 12939 C 1216.22 -1.39898 3.31597 0
M  V30 12940 C 1215.83 -0.412621 4.46096 0
M  V30 12941 C 1217.57 -2.07688 3.70224 0
M  V30 12942 C 1215.48 -1.06014 5.8182 0
M  V30 12943 H 1214.41 -0.286825 0.697314 0
M  V30 12944 H 1217.06 -0.0114386 1.83496 0
M  V30 12945 H 1215.44 -2.19408 3.29661 0
M  V30 12946 H 1216.62 0.353392 4.59443 0
M  V30 12947 H 1214.93 0.161383 4.16087 0
M  V30 12948 H 1217.53 -2.56928 4.68927 0
M  V30 12949 H 1217.87 -2.88073 3.00532 0
M  V30 12950 H 1218.41 -1.34996 3.74194 0
M  V30 12951 H 1215.15 -0.296405 6.5483 0
M  V30 12952 H 1214.67 -1.79677 5.72255 0
M  V30 12953 H 1216.34 -1.57708 6.27485 0
M  V30 12954 N 1216.48 -1.54033 -0.333429 0
M  V30 12955 C 1217.41 -1.85719 -1.4153 0
M  V30 12956 C 1218.39 -0.713144 -1.54429 0
M  V30 12957 O 1219.57 -0.965984 -1.68471 0
M  V30 12958 C 1216.7 -2.07578 -2.78439 0
M  V30 12959 C 1215.66 -3.23411 -2.80338 0
M  V30 12960 C 1214.98 -3.30622 -4.2023 0
M  V30 12961 C 1216.28 -4.6129 -2.44968 0
M  V30 12962 H 1217.98 -2.76325 -1.15261 0
M  V30 12963 H 1215.52 -1.32957 -0.55303 0
M  V30 12964 H 1217.48 -2.28329 -3.5418 0
M  V30 12965 H 1216.2 -1.13713 -3.06165 0
M  V30 12966 H 1214.86 -3.02531 -2.07052 0
M  V30 12967 H 1214.51 -2.34333 -4.45081 0
M  V30 12968 H 1214.21 -4.08466 -4.22409 0
M  V30 12969 H 1215.73 -3.53596 -4.97798 0
M  V30 12970 H 1217.14 -4.81987 -3.10421 0
M  V30 12971 H 1215.54 -5.41611 -2.58414 0
M  V30 12972 H 1216.61 -4.6421 -1.40134 0
M  V30 12973 N 1217.95 0.594978 -1.45938 0
M  V30 12974 C 1218.9 1.69949 -1.51991 0
M  V30 12975 C 1219.89 1.56301 -0.381956 0
M  V30 12976 O 1221.08 1.65423 -0.62961 0
M  V30 12977 C 1218.21 3.08723 -1.5015 0
M  V30 12978 C 1217.3 3.27712 -2.69194 0
M  V30 12979 N 1217.69 3.1691 -3.9421 0
M  V30 12980 C 1215.98 3.58618 -2.65158 0
M  V30 12981 C 1216.69 3.37572 -4.7373 0
M  V30 12982 N 1215.66 3.62154 -4.05395 0
M  V30 12983 H 1219.46 1.60109 -2.46459 0
M  V30 12984 H 1216.98 0.798634 -1.41406 0
M  V30 12985 H 1218.97 3.87978 -1.52573 0
M  V30 12986 H 1217.63 3.19702 -0.567488 0
M  V30 12987 H 1218.65 2.95039 -4.25643 0
M  V30 12988 H 1215.32 3.76358 -1.80724 0
M  V30 12989 H 1216.71 3.34507 -5.82713 0
M  V30 12990 N 1219.43 1.33438 0.838571 0
M  V30 12991 C 1220.4 1.23632 1.92997 0
M  V30 12992 C 1221.4 0.155302 1.60048 0
M  V30 12993 O 1222.59 0.406852 1.69382 0
M  V30 12994 C 1219.72 0.90512 3.28665 0
M  V30 12995 H 1220.91 2.20643 2.03117 0
M  V30 12996 H 1218.46 1.17501 1.03069 0
M  V30 12997 H 1219.2 -0.0624833 3.2424 0
M  V30 12998 H 1218.98 1.68688 3.53959 0
M  V30 12999 H 1220.47 0.861262 4.08622 0
M  V30 13000 N 1220.91 -1.05686 1.16912 0
M  V30 13001 C 1221.84 -2.15268 0.904532 0
M  V30 13002 C 1222.82 -1.69424 -0.151548 0
M  V30 13003 O 1224.01 -1.942 -0.00235371 0
M  V30 13004 C 1221.14 -3.44853 0.411581 0
M  V30 13005 C 1220.09 -4.04237 1.40628 0
M  V30 13006 C 1219.42 -5.29105 0.771479 0
M  V30 13007 C 1220.72 -4.42303 2.77787 0
M  V30 13008 H 1222.41 -2.37659 1.82094 0
M  V30 13009 H 1219.96 -1.14217 0.876947 0
M  V30 13010 H 1221.91 -4.20857 0.213929 0
M  V30 13011 H 1220.63 -3.22099 -0.540352 0
M  V30 13012 H 1219.29 -3.30297 1.59058 0
M  V30 13013 H 1218.94 -5.02652 -0.187133 0
M  V30 13014 H 1218.64 -5.69797 1.43545 0
M  V30 13015 H 1220.16 -6.07801 0.583988 0
M  V30 13016 H 1221.58 -5.09362 2.63103 0
M  V30 13017 H 1219.98 -4.93997 3.40716 0
M  V30 13018 H 1221.05 -3.52877 3.32575 0
M  V30 13019 N 1222.39 -0.968567 -1.24324 0
M  V30 13020 C 1223.64 -0.629682 -1.9204 0
M  V30 13021 C 1223.96 0.837906 -1.7608 0
M  V30 13022 O 1223.23 1.5982 -1.13289 0
M  V30 13023 H 1221.81 -0.229901 -0.710742 0
M  V30 13024 H 1224.47 -1.22982 -1.512 0
M  V30 13025 H 1223.57 -0.871034 -2.99699 0
M  V30 13026 N 1223.87 1.39211 -0.738786 0
M  V30 13027 C 1224.81 2.30578 -0.10129 0
M  V30 13028 C 1225.78 1.49412 0.725616 0
M  V30 13029 O 1226.97 1.78087 0.684799 0
M  V30 13030 C 1224.11 3.35767 0.797161 0
M  V30 13031 C 1223.22 4.31979 -0.0427701 0
M  V30 13032 C 1222.36 5.24236 0.857306 0
M  V30 13033 C 1221.4 6.12099 0.0128501 0
M  V30 13034 N 1220.53 6.96701 0.869067 0
M  V30 13035 H 1225.37 2.84522 -0.88606 0
M  V30 13036 H 1222.91 1.40093 -0.448602 0
M  V30 13037 H 1224.87 3.95347 1.33255 0
M  V30 13038 H 1223.5 2.83268 1.54787 0
M  V30 13039 H 1222.55 3.73986 -0.695622 0
M  V30 13040 H 1223.86 4.93927 -0.69555 0
M  V30 13041 H 1223.02 5.88861 1.4604 0
M  V30 13042 H 1221.75 4.62619 1.54386 0
M  V30 13043 H 1220.76 5.46483 -0.603018 0
M  V30 13044 H 1221.98 6.75781 -0.67054 0
M  V30 13045 H 1219.93 6.37647 1.54084 0
M  V30 13046 H 1219.85 7.55507 0.272852 0
M  V30 13047 H 1221.12 7.65751 1.4576 0
M  V30 13048 N 1225.34 0.486708 1.49896 0
M  V30 13049 C 1226.31 -0.288126 2.27382 0
M  V30 13050 C 1227.31 -0.906675 1.32801 0
M  V30 13051 O 1228.5 -0.773425 1.56089 0
M  V30 13052 C 1225.63 -1.41194 3.10285 0
M  V30 13053 H 1226.82 0.391618 2.97332 0
M  V30 13054 H 1224.38 0.24123 1.54427 0
M  V30 13055 H 1225.11 -2.12627 2.44868 0
M  V30 13056 H 1224.9 -0.974033 3.79809 0
M  V30 13057 H 1226.39 -1.95812 3.68846 0
M  V30 13058 N 1226.82 -1.56058 0.219941 0
M  V30 13059 C 1228.05 -2.02652 -0.417101 0
M  V30 13060 C 1228.47 -1.09977 -1.53461 0
M  V30 13061 O 1227.82 -0.109088 -1.82174 0
M  V30 13062 C 1227.87 -3.48787 -0.950244 0
M  V30 13063 O 1227.6 -4.37928 0.12271 0
M  V30 13064 C 1229.1 -4.11018 -1.66069 0
M  V30 13065 H 1226.32 -0.663163 -0.102254 0
M  V30 13066 H 1228.86 -2.01722 0.335923 0
M  V30 13067 H 1227.02 -3.50338 -1.65355 0
M  V30 13068 H 1227.43 -5.23764 -0.277785 0
M  V30 13069 H 1228.9 -5.15046 -1.98575 0
M  V30 13070 H 1229.38 -3.55921 -2.57326 0
M  V30 13071 H 1229.99 -4.13313 -1.00263 0
M  V30 13072 N 1228.3 0.053464 -1.57509 0
M  V30 13073 C 1229.71 0.603099 -1.76691 0
M  V30 13074 C 1230.06 1.76934 -0.847861 0
M  V30 13075 O 1229.19 2.16369 -0.0364962 0
M  V30 13076 C 1229.78 1.10084 -3.20417 0
M  V30 13077 C 1228.34 1.59618 -3.4088 0
M  V30 13078 C 1227.49 0.523516 -2.72313 0
M  V30 13079 H 1230.44 -0.172751 -1.57757 0
M  V30 13080 H 1230.46 1.9691 -3.25587 0
M  V30 13081 H 1229.97 0.251818 -3.87282 0
M  V30 13082 H 1228.07 2.46786 -2.79155 0
M  V30 13083 H 1228.19 1.6605 -4.49404 0
M  V30 13084 H 1226.55 0.972886 -2.35387 0
M  V30 13085 H 1227.33 -0.315629 -3.41846 0
M  V30 13086 N 1229.78 1.54207 0.325255 0
M  V30 13087 C 1231.03 1.71544 1.06091 0
M  V30 13088 C 1231.34 0.495137 1.89229 0
M  V30 13089 O 1232.55 0.54982 2.65874 0
M  V30 13090 C 1231 3.03412 1.93569 0
M  V30 13091 C 1230.61 4.32842 1.1555 0
M  V30 13092 C 1232.36 3.30113 2.66881 0
M  V30 13093 C 1230.26 5.55773 2.02164 0
M  V30 13094 H 1229.19 0.639281 0.399795 0
M  V30 13095 H 1231.84 1.80701 0.319261 0
M  V30 13096 H 1230.23 2.88158 2.71626 0
M  V30 13097 H 1231.4 4.58857 0.42276 0
M  V30 13098 H 1229.71 4.12893 0.539277 0
M  V30 13099 H 1232.31 4.19151 3.31988 0
M  V30 13100 H 1232.65 2.47918 3.34428 0
M  V30 13101 H 1233.19 3.46227 1.95887 0
M  V30 13102 H 1229.93 6.40565 1.39128 0
M  V30 13103 H 1229.45 5.3398 2.73177 0
M  V30 13104 H 1231.13 5.92113 2.60789 0
M  V30 13105 N 1231.26 -0.58723 1.46251 0
M  V30 13106 C 1232.49 -1.36976 1.54665 0
M  V30 13107 C 1232.9 -1.88293 0.185079 0
M  V30 13108 O 1232.24 -1.64028 -0.82707 0
M  V30 13109 C 1232.3 -2.59591 2.48702 0
M  V30 13110 C 1231.96 -2.29773 3.95036 0
M  V30 13111 C 1232.96 -1.88885 4.84374 0
M  V30 13112 C 1230.65 -2.42057 4.40129 0
M  V30 13113 C 1232.64 -1.60669 6.16818 0
M  V30 13114 C 1230.33 -2.13454 5.72609 0
M  V30 13115 C 1231.33 -1.72824 6.60773 0
M  V30 13116 O 1231.01 -1.44569 7.90794 0
M  V30 13117 H 1230.75 -0.424968 0.525717 0
M  V30 13118 H 1233.3 -0.721298 1.92319 0
M  V30 13119 H 1231.53 -3.27226 2.06058 0
M  V30 13120 H 1233.22 -3.21656 2.47573 0
M  V30 13121 H 1233.98 -1.78913 4.50794 0
M  V30 13122 H 1229.86 -2.72644 3.71734 0
M  V30 13123 H 1233.41 -1.28882 6.85591 0
M  V30 13124 H 1229.3 -2.23048 6.05739 0
M  V30 13125 H 1230.07 -1.58452 8.03016 0
M  V30 13126 N 1232.74 -1.33881 -0.831482 0
M  V30 13127 C 1233.67 -1.27384 -1.95693 0
M  V30 13128 C 1234.65 -0.152943 -1.69411 0
M  V30 13129 O 1235.83 -0.34392 -1.9113 0
M  V30 13130 C 1232.96 -1.01982 -3.31989 0
M  V30 13131 C 1231.92 -2.10445 -3.72689 0
M  V30 13132 C 1231.24 -1.70245 -5.06873 0
M  V30 13133 C 1232.54 -3.52194 -3.8569 0
M  V30 13134 H 1234.24 -2.21549 -2.01386 0
M  V30 13135 H 1231.78 -1.06653 -0.967526 0
M  V30 13136 H 1233.73 -0.960841 -4.103 0
M  V30 13137 H 1232.46 -0.0425709 -3.26572 0
M  V30 13138 H 1231.12 -2.15398 -2.96647 0
M  V30 13139 H 1230.77 -0.712036 -4.97935 0
M  V30 13140 H 1230.47 -2.42834 -5.35075 0
M  V30 13141 H 1231.99 -1.65827 -5.87651 0
M  V30 13142 H 1233.4 -3.49701 -4.54293 0
M  V30 13143 H 1231.8 -4.23331 -4.25336 0
M  V30 13144 H 1232.87 -3.9016 -2.87929 0
M  V30 13145 N 1234.21 1.05064 -1.1747 0
M  V30 13146 C 1235.49 1.74999 -0.873776 0
M  V30 13147 C 1235.87 2.01615 0.625676 0
M  V30 13148 O 1235.22 1.65324 1.57734 0
M  V30 13149 C 1235.43 3.04231 -1.7101 0
M  V30 13150 C 1236.78 3.78157 -1.93087 0
M  V30 13151 O 1237.8 3.14104 -1.6798 0
M  V30 13152 O 1236.66 4.93255 -2.3529 0
M  V30 13153 H 1233.75 0.761042 -0.323641 0
M  V30 13154 H 1236.3 1.1122 -1.28172 0
M  V30 13155 H 1235.07 2.80621 -2.72704 0
M  V30 13156 H 1234.69 3.75746 -1.30002 0
M  V30 13157 N 1235.69 0.975146 1.23809 0
M  V30 13158 C 1236.94 0.636678 1.91388 0
M  V30 13159 C 1237.25 -0.832876 1.76982 0
M  V30 13160 O 1238.46 -1.28218 2.39316 0
M  V30 13161 C 1236.92 1.08813 3.43057 0
M  V30 13162 C 1236.52 2.58165 3.66135 0
M  V30 13163 C 1238.27 0.823154 4.16443 0
M  V30 13164 C 1236.17 2.97004 5.11412 0
M  V30 13165 H 1235.1 0.234424 0.716632 0
M  V30 13166 H 1237.76 1.18235 1.40331 0
M  V30 13167 H 1236.14 0.470709 3.93192 0
M  V30 13168 H 1237.31 3.25101 3.26567 0
M  V30 13169 H 1235.63 2.82353 3.06049 0
M  V30 13170 H 1238.22 1.08925 5.23488 0
M  V30 13171 H 1238.57 -0.240705 4.15604 0
M  V30 13172 H 1239.1 1.4019 3.72279 0
M  V30 13173 H 1235.84 4.02492 5.17378 0
M  V30 13174 H 1235.36 2.34759 5.51949 0
M  V30 13175 H 1237.04 2.8732 5.79704 0
M  V30 13176 N 1237.17 -1.38817 0.746158 0
M  V30 13177 C 1238.1 -2.33144 0.128836 0
M  V30 13178 C 1239.08 -1.54487 -0.711873 0
M  V30 13179 O 1240.27 -1.82836 -0.654577 0
M  V30 13180 C 1237.4 -3.38639 -0.770772 0
M  V30 13181 C 1236.35 -4.27987 -0.0333669 0
M  V30 13182 C 1235.68 -5.24274 -1.05073 0
M  V30 13183 C 1236.98 -5.09915 1.13066 0
M  V30 13184 H 1238.67 -2.85019 0.916778 0
M  V30 13185 H 1236.22 -1.37039 0.442306 0
M  V30 13186 H 1238.17 -4.03587 -1.21225 0
M  V30 13187 H 1236.89 -2.8523 -1.59095 0
M  V30 13188 H 1235.55 -3.64534 0.388612 0
M  V30 13189 H 1235.2 -4.67156 -1.86478 0
M  V30 13190 H 1234.9 -5.84906 -0.562037 0
M  V30 13191 H 1236.42 -5.92099 -1.49169 0
M  V30 13192 H 1237.84 -5.68145 0.767084 0
M  V30 13193 H 1236.23 -5.79744 1.54972 0
M  V30 13194 H 1237.3 -4.4409 1.94709 0
M  V30 13195 N 1238.65 -0.49465 -1.49636 0
M  V30 13196 C 1239.9 0.0520143 -2.02033 0
M  V30 13197 C 1240.22 1.38071 -1.37701 0
M  V30 13198 O 1239.49 1.88589 -0.530181 0
M  V30 13199 H 1238.07 0.0222123 -0.74667 0
M  V30 13200 H 1240.73 -0.650445 -1.83726 0
M  V30 13201 H 1239.82 0.186337 -3.11543 0
M  V30 13202 O 1240.16 1.57208 -0.369845 0
M  V30 13203 H 1240.86 1.92864 0.179772 0
M  V30 END ATOM
M  V30 BEGIN BOND
M  V30 END BOND
M  V30 END CTAB
M  END
$$$$
