drugbank_target|O95907 Monocarboxylate transporter 3 (DB00119)
 OpenBabel12092119303D

  0  0  0     0  0            999 V3000
M  V30 BEGIN CTAB
M  V30 COUNTS 7417 7499 0 0 0
M  V30 BEGIN ATOM
M  V30 1 H -0.908 1.98254 -0.117106 0
M  V30 2 N 0 1.576 0 0
M  V30 3 C 0.933 2.03868 1.02534 0
M  V30 4 C 1.911 0.928543 1.3348 0
M  V30 5 O 3.095 1.19667 1.45644 0
M  V30 6 C 0.222 2.43627 2.35294 0
M  V30 7 C -0.732 3.65373 2.2001 0
M  V30 8 S 0.101 5.13292 1.52614 0
M  V30 9 C 1.257 5.56322 2.86805 0
M  V30 10 H 1.49 2.90518 0.631377 0
M  V30 11 H -0.977 1.52953 0.210867 0
M  V30 12 H 0.981 2.67203 3.11629 0
M  V30 13 H -0.358 1.57376 2.7183 0
M  V30 14 H -1.165 3.90944 3.18086 0
M  V30 15 H -1.563 3.418 1.51819 0
M  V30 16 H 0.729 5.58782 3.83104 0
M  V30 17 H 1.672 6.56266 2.65933 0
M  V30 18 H 2.08 4.83886 2.90714 0
M  V30 19 N 1.4781 -0.272755 1.55222 0
M  V30 20 C 2.7261 -1.00234 1.75492 0
M  V30 21 C 3.0471 -1.8681 0.5592 0
M  V30 22 O 2.3171 -1.91215 -0.425882 0
M  V30 23 H 0.8971 -0.373076 0.647166 0
M  V30 24 H 3.5591 -0.296926 1.92625 0
M  V30 25 H 2.6551 -1.63913 2.65592 0
M  V30 26 N 2.9562 -1.48159 -0.537278 0
M  V30 27 C 3.9192 -1.61665 -1.62472 0
M  V30 28 C 4.9192 -0.490395 -1.5314 0
M  V30 29 O 6.1092 -0.755998 -1.5694 0
M  V30 30 C 3.2412 -1.57997 -3.02076 0
M  V30 31 H 4.4342 -2.58621 -1.51839 0
M  V30 32 H 1.9872 -1.36647 -0.758771 0
M  V30 33 H 2.7222 -0.624913 -3.18222 0
M  V30 34 H 2.5072 -2.39755 -3.10258 0
M  V30 35 H 3.9972 -1.70627 -3.81151 0
M  V30 36 N 4.4343 0.785586 -1.36625 0
M  V30 37 C 5.6823 1.54057 -1.30808 0
M  V30 38 C 6.0033 1.94683 0.111157 0
M  V30 39 O 5.2733 1.65241 1.05224 0
M  V30 40 H 3.8533 0.571354 -0.481211 0
M  V30 41 H 6.5153 0.935821 -1.70963 0
M  V30 42 H 5.6113 2.44637 -1.93801 0
M  V30 43 N 5.9124 1.20967 1.01018 0
M  V30 44 C 7.1604 1.02172 1.74371 0
M  V30 45 C 7.4814 -0.446414 1.89821 0
M  V30 46 O 6.7514 -1.32234 1.44537 0
M  V30 47 H 5.3314 0.375066 0.646014 0
M  V30 48 H 7.9934 1.52187 1.21758 0
M  V30 49 H 7.0894 1.48538 2.74487 0
M  V30 50 N 7.3905 -1.2043 1.01659 0
M  V30 51 C 8.8015 -1.71517 0.737482 0
M  V30 52 C 9.1525 -1.81547 -0.743973 0
M  V30 53 O 8.2775 -1.47803 -1.58061 0
M  V30 54 C 8.8725 -3.11515 1.33206 0
M  V30 55 C 7.4315 -3.59912 1.10183 0
M  V30 56 C 6.5785 -2.37116 1.43776 0
M  V30 57 H 9.5295 -1.05444 1.18606 0
M  V30 58 H 9.5505 -3.73575 0.722636 0
M  V30 59 H 9.0625 -3.04182 2.41028 0
M  V30 60 H 7.1635 -3.72577 0.0412756 0
M  V30 61 H 7.2765 -4.44731 1.78188 0
M  V30 62 H 5.6405 -2.39857 0.856778 0
M  V30 63 H 6.4235 -2.32424 2.52654 0
M  V30 64 N 8.8686 -0.792821 -1.36206 0
M  V30 65 C 10.2846 -0.474903 -1.52371 0
M  V30 66 C 10.4846 1.00622 -1.74578 0
M  V30 67 O 9.5406 1.79162 -1.77924 0
M  V30 68 C 10.8536 -1.3083 -2.70747 0
M  V30 69 C 12.4016 -1.30234 -2.84619 0
M  V30 70 C 12.8766 -2.11956 -4.06004 0
M  V30 71 N 14.3676 -2.09419 -4.13156 0
M  V30 72 C 15.1026 -2.69419 -5.06163 0
M  V30 73 N 14.5986 -3.3829 -6.04592 0
M  V30 74 N 16.3916 -2.59134 -4.98804 0
M  V30 75 H 8.5426 -1.75222 -1.20046 0
M  V30 76 H 10.8056 -0.745024 -0.586211 0
M  V30 77 H 10.5116 -2.35881 -2.6087 0
M  V30 78 H 10.3856 -0.95196 -3.6499 0
M  V30 79 H 12.7726 -0.259748 -2.93955 0
M  V30 80 H 12.8536 -1.69847 -1.91274 0
M  V30 81 H 12.4976 -3.16248 -3.97429 0
M  V30 82 H 12.4276 -1.69711 -4.98503 0
M  V30 83 H 14.9186 -1.59297 -3.42685 0
M  V30 84 H 15.2316 -3.81394 -6.7213 0
M  V30 85 H 13.5766 -3.42393 -6.04807 0
M  V30 86 H 16.7676 -2.04927 -4.20859 0
M  V30 87 H 16.9406 -3.06185 -5.711 0
M  V30 88 N 10.3467 1.47872 -0.545128 0
M  V30 89 C 11.7627 1.5829 -0.204032 0
M  V30 90 C 11.9627 1.54529 1.29317 0
M  V30 91 O 11.0187 1.44232 2.07252 0
M  V30 92 C 12.3317 2.89304 -0.819987 0
M  V30 93 C 13.8797 3.02864 -0.790105 0
M  V30 94 C 14.3547 4.3656 -1.38491 0
M  V30 95 N 15.8457 4.43165 -1.34755 0
M  V30 96 C 16.5807 5.45153 -1.77753 0
M  V30 97 N 16.0767 6.54016 -2.2855 0
M  V30 98 N 17.8697 5.36125 -1.68897 0
M  V30 99 H 10.0207 1.4856 -1.51802 0
M  V30 100 H 12.2837 0.706305 -0.632327 0
M  V30 101 H 11.9897 2.97757 -1.87173 0
M  V30 102 H 11.8637 3.75957 -0.305915 0
M  V30 103 H 14.2507 2.94014 0.252913 0
M  V30 104 H 14.3317 2.17782 -1.34181 0
M  V30 105 H 13.9757 4.46164 -2.42693 0
M  V30 106 H 13.9057 5.20353 -0.808754 0
M  V30 107 H 16.3967 3.65083 -0.975855 0
M  V30 108 H 16.7097 7.27994 -2.59314 0
M  V30 109 H 15.0547 6.54938 -2.32553 0
M  V30 110 H 18.2457 4.49975 -1.28998 0
M  V30 111 H 18.4187 6.15472 -2.02726 0
M  V30 112 N 11.8248 0.280983 1.55075 0
M  V30 113 C 13.0728 -0.333455 1.9933 0
M  V30 114 C 13.3938 -1.55937 1.17085 0
M  V30 115 O 12.6638 -1.94143 0.261805 0
M  V30 116 H 11.2438 -0.126197 0.736263 0
M  V30 117 H 13.9058 0.387678 1.91005 0
M  V30 118 H 13.0018 -0.619292 3.05894 0
M  V30 119 N 13.3029 -1.57598 0.00835791 0
M  V30 120 C 14.2129 -2.12385 -0.996487 0
M  V30 121 C 15.2289 -1.07108 -1.37127 0
M  V30 122 O 16.4049 -1.39055 -1.4569 0
M  V30 123 C 13.4699 -2.62314 -2.26699 0
M  V30 124 C 12.5309 -3.82225 -1.95456 0
M  V30 125 C 11.7639 -4.29763 -3.16449 0
M  V30 126 O 11.9869 -3.76584 -4.28416 0
M  V30 127 O 10.9209 -5.21832 -2.99958 0
M  V30 128 H 14.7469 -2.98479 -0.560725 0
M  V30 129 H 12.3319 -1.47903 -0.210987 0
M  V30 130 H 14.2139 -2.94589 -3.01322 0
M  V30 131 H 12.8889 -1.79313 -2.69497 0
M  V30 132 H 11.7959 -3.54909 -1.18282 0
M  V30 133 H 13.1289 -4.66324 -1.57489 0
M  V30 134 N 14.781 0.264519 -1.55364 0
M  V30 135 C 16.029 0.993021 -1.76021 0
M  V30 136 C 16.35 1.86511 -0.569099 0
M  V30 137 O 15.62 1.91438 0.415735 0
M  V30 138 H 14.2 0.369639 -0.649135 0
M  V30 139 H 16.862 0.286707 -1.9278 0
M  V30 140 H 15.958 1.62502 -2.66457 0
M  V30 141 N 16.2591 1.48442 0.529413 0
M  V30 142 C 17.6701 1.5002 1.11134 0
M  V30 143 C 18.0211 0.27031 1.94329 0
M  V30 144 O 17.1461 -0.622507 2.07253 0
M  V30 145 C 17.7411 2.71834 2.02217 0
M  V30 146 C 16.3001 2.76283 2.55627 0
M  V30 147 C 15.4471 2.43542 1.326 0
M  V30 148 H 18.3981 1.5555 0.314641 0
M  V30 149 H 18.4191 2.50384 2.8651 0
M  V30 150 H 17.9311 3.61331 1.41639 0
M  V30 151 H 16.0321 1.90995 3.19924 0
M  V30 152 H 16.1451 3.77725 2.94721 0
M  V30 153 H 14.5091 1.94709 1.64196 0
M  V30 154 H 15.2921 3.3528 0.737734 0
M  V30 155 N 17.7372 -0.778329 1.37039 0
M  V30 156 C 19.1482 -1.35421 1.28523 0
M  V30 157 C 19.4992 -1.96075 -0.0700901 0
M  V30 158 O 18.6242 -1.93352 -0.971801 0
M  V30 159 C 19.2192 -2.46211 2.32735 0
M  V30 160 C 17.7782 -2.99585 2.27873 0
M  V30 161 C 16.9252 -1.72748 2.16918 0
M  V30 162 H 19.8762 -0.5791 1.47757 0
M  V30 163 H 19.8972 -3.2552 1.9702 0
M  V30 164 H 19.4092 -2.02036 3.31365 0
M  V30 165 H 17.5102 -3.48152 1.32745 0
M  V30 166 H 17.6232 -3.55646 3.21018 0
M  V30 167 H 15.9872 -1.95416 1.63354 0
M  V30 168 H 16.7702 -1.30686 3.17452 0
M  V30 169 N 19.2153 -1.21501 -1.00376 0
M  V30 170 C 20.4923 -0.941745 -1.71437 0
M  V30 171 C 20.8723 0.546114 -2.03914 0
M  V30 172 O 20.2203 1.51128 -1.71384 0
M  V30 173 C 20.4303 -1.82812 -2.97289 0
M  V30 174 C 21.7783 -2.07771 -3.70292 0
M  V30 175 O 22.8023 -1.80171 -3.07273 0
M  V30 176 O 21.6613 -2.54456 -4.83647 0
M  V30 177 H 18.7553 -0.353243 -0.747762 0
M  V30 178 H 21.3013 -1.32436 -1.06108 0
M  V30 179 H 20.0733 -2.83501 -2.69709 0
M  V30 180 H 19.6963 -1.4464 -3.70358 0
M  V30 181 N 20.6934 1.19889 -1.02296 0
M  V30 182 C 21.9414 1.89046 -0.714558 0
M  V30 183 C 22.2624 1.79636 0.758681 0
M  V30 184 O 21.5324 1.20292 1.54618 0
M  V30 185 H 20.1124 0.699802 -0.261317 0
M  V30 186 H 22.7744 1.45574 -1.29592 0
M  V30 187 H 21.8704 2.95524 -1.0036 0
M  V30 188 N 22.1715 0.800033 1.35784 0
M  V30 189 C 23.4195 0.376597 1.9856 0
M  V30 190 C 23.7405 -1.05812 1.63795 0
M  V30 191 O 23.0105 -1.73103 0.917171 0
M  V30 192 H 21.5905 0.136261 0.734467 0
M  V30 193 H 24.2525 1.02442 1.65806 0
M  V30 194 H 23.3485 0.477002 3.08433 0
M  V30 195 N 23.6496 -1.47581 0.552962 0
M  V30 196 C 24.8956 -2.03369 0.0355807 0
M  V30 197 C 25.2506 -1.42016 -1.29805 0
M  V30 198 O 24.5436 -0.564917 -1.83083 0
M  V30 199 C 24.7376 -3.57199 -0.119728 0
M  V30 200 C 24.5666 -4.33468 1.1973 0
M  V30 201 C 23.3366 -4.7353 1.76345 0
M  V30 202 C 25.5346 -4.68866 2.11351 0
M  V30 203 N 23.5166 -5.34426 3.02097 0
M  V30 204 C 24.8876 -5.3002 3.21681 0
M  V30 205 C 26.9426 -4.50795 2.11397 0
M  V30 206 C 25.6456 -5.75011 4.32151 0
M  V30 207 C 27.6716 -4.96782 3.20876 0
M  V30 208 C 27.0336 -5.57981 4.29926 0
M  V30 209 H 23.1326 -0.780058 0.0550806 0
M  V30 210 H 25.7166 -1.80117 0.739315 0
M  V30 211 H 23.8876 -3.80227 -0.792579 0
M  V30 212 H 25.6196 -3.99627 -0.638792 0
M  V30 213 H 22.3746 -4.55352 1.30196 0
M  V30 214 H 22.7986 -5.69421 3.66182 0
M  V30 215 H 27.4406 -4.0284 1.28372 0
M  V30 216 H 25.1586 -6.21959 5.15938 0
M  V30 217 H 28.7446 -4.84573 3.21994 0
M  V30 218 H 27.6246 -5.92918 5.13243 0
M  V30 219 N 25.1277 -0.289203 -1.54924 0
M  V30 220 C 26.3757 0.322879 -1.99504 0
M  V30 221 C 26.6967 1.55313 -1.1791 0
M  V30 222 O 25.9667 1.94001 -0.272097 0
M  V30 223 H 24.5467 0.122291 -0.736922 0
M  V30 224 H 27.2087 -0.397802 -1.90797 0
M  V30 225 H 26.3047 0.603061 -3.06218 0
M  V30 226 N 26.6058 1.57591 -0.0167156 0
M  V30 227 C 27.8518 1.92399 0.659861 0
M  V30 228 C 28.2068 0.892561 1.70444 0
M  V30 229 O 27.4998 -0.0930755 1.91374 0
M  V30 230 C 27.6938 3.3172 1.33029 0
M  V30 231 C 27.5228 4.48319 0.352174 0
M  V30 232 C 26.2928 5.05281 -0.0434883 0
M  V30 233 C 28.4908 5.12831 -0.388474 0
M  V30 234 N 26.4728 6.05399 -1.01807 0
M  V30 235 C 27.8438 6.07934 -1.2172 0
M  V30 236 C 29.8988 4.95858 -0.450513 0
M  V30 237 C 28.6018 6.87891 -2.10235 0
M  V30 238 C 30.6278 5.76413 -1.32295 0
M  V30 239 C 29.9898 6.71123 -2.13948 0
M  V30 240 H 26.0888 0.752106 0.21415 0
M  V30 241 H 28.6728 1.94532 -0.0809846 0
M  V30 242 H 26.8438 3.3043 2.04134 0
M  V30 243 H 28.5758 3.5391 1.9629 0
M  V30 244 H 25.3308 4.7246 0.328384 0
M  V30 245 H 25.7548 6.60145 -1.50123 0
M  V30 246 H 30.3968 4.22472 0.166512 0
M  V30 247 H 28.1148 7.60591 -2.72997 0
M  V30 248 H 31.7008 5.65317 -1.37508 0
M  V30 249 H 30.5808 7.3237 -2.80364 0
M  V30 250 N 28.0839 -0.256276 1.55502 0
M  V30 251 C 29.3299 -0.987079 1.77157 0
M  V30 252 C 29.6629 -1.85327 0.580315 0
M  V30 253 O 28.9379 -1.89874 -0.421686 0
M  V30 254 C 29.2209 -1.85553 3.08613 0
M  V30 255 C 29.0739 -1.01816 4.38125 0
M  V30 256 C 30.3929 -2.8397 3.36228 0
M  V30 257 H 27.5119 -0.357428 0.644526 0
M  V30 258 H 30.1539 -0.258239 1.88237 0
M  V30 259 H 28.3039 -2.47695 2.99298 0
M  V30 260 H 29.9759 -0.416159 4.59419 0
M  V30 261 H 28.2189 -0.322178 4.32602 0
M  V30 262 H 28.8899 -1.65939 5.26468 0
M  V30 263 H 31.3659 -2.31964 3.45445 0
M  V30 264 H 30.2419 -3.41864 4.29442 0
M  V30 265 H 30.5029 -3.59955 2.56681 0
M  V30 266 N 29.562 -1.4872 -0.521534 0
M  V30 267 C 30.808 -1.574 -1.27879 0
M  V30 268 C 31.141 -0.250817 -1.92573 0
M  V30 269 O 30.416 0.743934 -1.79711 0
M  V30 270 C 30.699 -2.71843 -2.36164 0
M  V30 271 C 30.552 -4.13893 -1.76105 0
M  V30 272 C 31.871 -2.82008 -3.37875 0
M  V30 273 H 28.99 -0.572941 -0.463581 0
M  V30 274 H 31.632 -1.80927 -0.580119 0
M  V30 275 H 29.782 -2.51914 -2.95756 0
M  V30 276 H 31.454 -4.45284 -1.20499 0
M  V30 277 H 29.697 -4.20498 -1.06601 0
M  V30 278 H 30.368 -4.89804 -2.5455 0
M  V30 279 H 32.844 -3.00086 -2.88249 0
M  V30 280 H 31.72 -3.63796 -4.11028 0
M  V30 281 H 31.981 -1.90511 -3.98946 0
M  V30 282 N 31.0401 0.771051 -1.3745 0
M  V30 283 C 31.9701 1.89827 -1.3597 0
M  V30 284 C 32.9511 1.68562 -0.228216 0
M  V30 285 O 34.1361 1.8941 -0.428675 0
M  V30 286 C 31.2661 3.2712 -1.16662 0
M  V30 287 C 30.2201 3.6295 -2.2683 0
M  V30 288 C 29.5461 4.98791 -1.92644 0
M  V30 289 C 30.8461 3.69627 -3.69017 0
M  V30 290 H 32.5401 1.91323 -2.30295 0
M  V30 291 H 30.0861 0.919082 -1.10855 0
M  V30 292 H 32.0391 4.05615 -1.14256 0
M  V30 293 H 30.7631 3.26059 -0.187926 0
M  V30 294 H 29.4221 2.86763 -2.28392 0
M  V30 295 H 29.0701 4.94271 -0.933021 0
M  V30 296 H 28.7701 5.23733 -2.66416 0
M  V30 297 H 30.2941 5.79685 -1.91826 0
M  V30 298 H 31.7081 4.38273 -3.69581 0
M  V30 299 H 30.1051 4.06067 -4.41848 0
M  V30 300 H 31.1751 2.70273 -4.02592 0
M  V30 301 N 32.5182 1.22032 0.997298 0
M  V30 302 C 33.7662 1.04016 1.73278 0
M  V30 303 C 34.0872 -0.426255 1.90284 0
M  V30 304 O 33.3572 -1.30694 1.45931 0
M  V30 305 H 31.9372 0.381897 0.642 0
M  V30 306 H 34.5992 1.5347 1.20137 0
M  V30 307 H 33.6952 1.51441 2.72896 0
M  V30 308 N 33.9963 -1.19345 1.0293 0
M  V30 309 C 34.9593 -2.20793 0.615069 0
M  V30 310 C 35.9593 -1.57553 -0.321533 0
M  V30 311 O 37.1493 -1.73862 -0.108483 0
M  V30 312 C 34.2813 -3.40754 -0.0999222 0
M  V30 313 H 35.4743 -2.58955 1.51269 0
M  V30 314 H 33.0273 -1.3303 0.820534 0
M  V30 315 H 33.7623 -3.0811 -1.01187 0
M  V30 316 H 33.5473 -3.87889 0.57309 0
M  V30 317 H 35.0373 -4.15898 -0.376645 0
M  V30 318 N 35.4744 -0.807222 -1.35358 0
M  V30 319 C 36.7144 -0.393534 -2.00576 0
M  V30 320 C 37.0784 1.0203 -1.62647 0
M  V30 321 O 38.2794 1.53603 -2.20589 0
M  V30 322 C 36.5504 -0.572017 -3.52793 0
M  V30 323 S 38.1094 -0.248845 -4.38094 0
M  V30 324 H 34.9274 -0.149425 -0.695121 0
M  V30 325 H 37.5294 -1.04961 -1.64935 0
M  V30 326 H 36.2334 -1.60097 -3.77885 0
M  V30 327 H 35.7644 0.099359 -3.93275 0
M  V30 328 H 37.7794 0.943253 -4.87152 0
M  V30 329 N 36.9525 1.47285 -0.560781 0
M  V30 330 C 38.1995 2.02464 -0.038062 0
M  V30 331 C 38.5275 1.43474 1.31322 0
M  V30 332 O 37.7825 0.581311 1.86867 0
M  V30 333 C 38.0815 3.57258 0.100784 0
M  V30 334 C 37.7475 4.35184 -1.18007 0
M  V30 335 C 36.4095 4.56194 -1.53103 0
M  V30 336 C 38.7615 4.80098 -2.02867 0
M  V30 337 C 36.0895 5.19367 -2.729 0
M  V30 338 C 38.4415 5.44593 -3.21871 0
M  V30 339 C 37.1055 5.63835 -3.57276 0
M  V30 340 H 36.3755 0.740869 -0.0139279 0
M  V30 341 H 39.0225 1.76916 -0.733012 0
M  V30 342 H 37.3275 3.81819 0.878724 0
M  V30 343 H 39.0245 3.97606 0.520639 0
M  V30 344 H 35.6145 4.19113 -0.8968 0
M  V30 345 H 39.7985 4.63642 -1.7706 0
M  V30 346 H 35.0545 5.32459 -3.00496 0
M  V30 347 H 39.2285 5.78358 -3.87911 0
M  V30 348 H 36.8555 6.12557 -4.50197 0
M  V30 349 N 38.4306 0.297415 1.54768 0
M  V30 350 C 39.6766 -0.313376 2.00364 0
M  V30 351 C 40.0096 -1.53815 1.18553 0
M  V30 352 O 39.2846 -1.92739 0.261103 0
M  V30 353 C 39.5676 -0.673525 3.53745 0
M  V30 354 C 39.4206 0.560133 4.46299 0
M  V30 355 C 40.7396 -1.50143 4.13697 0
M  V30 356 H 37.8586 -0.112428 0.728374 0
M  V30 357 H 40.5006 0.4088 1.8555 0
M  V30 358 H 38.6506 -1.28881 3.665 0
M  V30 359 H 40.3226 1.19863 4.45455 0
M  V30 360 H 38.5656 1.19405 4.17043 0
M  V30 361 H 39.2366 0.26405 5.51368 0
M  V30 362 H 41.7126 -0.981588 4.04356 0
M  V30 363 H 40.5886 -1.72221 5.21182 0
M  V30 364 H 40.8496 -2.48952 3.65343 0
M  V30 365 N 39.9087 -1.5758 0.0250728 0
M  V30 366 C 41.1547 -1.91917 -0.655413 0
M  V30 367 C 41.4877 -0.901433 -1.72011 0
M  V30 368 O 40.7627 0.0764069 -1.9435 0
M  V30 369 C 41.0457 -3.36751 -1.27558 0
M  V30 370 C 40.8987 -4.49258 -0.220719 0
M  V30 371 C 42.2177 -3.81469 -2.19475 0
M  V30 372 H 39.3367 -0.697925 -0.23679 0
M  V30 373 H 41.9787 -1.89825 0.0815036 0
M  V30 374 H 40.1287 -3.38664 -1.90365 0
M  V30 375 H 41.8007 -4.59478 0.409601 0
M  V30 376 H 40.0437 -4.31415 0.454264 0
M  V30 377 H 40.7147 -5.47618 -0.694175 0
M  V30 378 H 43.1907 -3.81266 -1.66659 0
M  V30 379 H 42.0667 -4.83512 -2.59822 0
M  V30 380 H 42.3277 -3.16744 -3.08424 0
M  V30 381 N 41.3868 0.248026 -1.55636 0
M  V30 382 C 42.6148 0.993808 -1.81469 0
M  V30 383 C 43.0298 1.78991 -0.60064 0
M  V30 384 O 42.3868 1.77345 0.430682 0
M  V30 385 C 42.4378 1.93258 -3.05506 0
M  V30 386 O 42.1588 1.16869 -4.22224 0
M  V30 387 C 43.6598 2.79444 -3.4413 0
M  V30 388 H 40.8798 0.292486 -0.603898 0
M  V30 389 H 43.4238 0.271253 -2.02693 0
M  V30 390 H 41.5788 2.60943 -2.86335 0
M  V30 391 H 41.9928 1.80359 -4.92515 0
M  V30 392 H 43.4668 3.41066 -4.34026 0
M  V30 393 H 43.9438 3.50499 -2.64665 0
M  V30 394 H 44.5498 2.17214 -3.65648 0
M  V30 395 N 42.8649 1.48995 0.513639 0
M  V30 396 C 44.1129 1.57531 1.26604 0
M  V30 397 C 44.4339 0.258236 1.93283 0
M  V30 398 O 43.7039 -0.721502 1.8213 0
M  V30 399 H 42.2839 0.580387 0.470276 0
M  V30 400 H 44.9459 1.85552 0.596373 0
M  V30 401 H 44.0419 2.36486 2.03669 0
M  V30 402 N 44.343 -0.763751 1.37857 0
M  V30 403 C 45.59 -1.52257 1.33506 0
M  V30 404 C 45.918 -1.94343 -0.078022 0
M  V30 405 O 45.173 -1.64958 -1.05297 0
M  V30 406 C 45.472 -2.79499 2.22745 0
M  V30 407 C 45.138 -2.56426 3.70886 0
M  V30 408 C 43.8 -2.49842 4.11257 0
M  V30 409 C 46.152 -2.36008 4.64704 0
M  V30 410 C 43.48 -2.20841 5.43549 0
M  V30 411 C 45.832 -2.0853 5.97242 0
M  V30 412 C 44.496 -2.00396 6.36709 0
M  V30 413 H 43.766 -0.557149 0.488534 0
M  V30 414 H 46.413 -0.879073 1.70131 0
M  V30 415 H 44.718 -3.48447 1.79142 0
M  V30 416 H 46.415 -3.37413 2.16688 0
M  V30 417 H 43.005 -2.62416 3.38874 0
M  V30 418 H 47.189 -2.40079 4.34368 0
M  V30 419 H 42.445 -2.13045 5.73081 0
M  V30 420 H 46.619 -1.91732 6.69486 0
M  V30 421 H 44.246 -1.77688 7.39142 0
M  V30 422 N 45.8211 -1.22559 -0.990812 0
M  V30 423 C 46.7841 -0.998863 -2.0629 0
M  V30 424 C 47.7841 0.0354834 -1.60761 0
M  V30 425 O 48.9741 -0.203231 -1.7301 0
M  V30 426 C 46.1061 -0.509203 -3.37076 0
M  V30 427 H 47.2991 -1.95014 -2.27837 0
M  V30 428 H 44.8521 -1.04456 -1.16269 0
M  V30 429 H 45.5871 0.446335 -3.21214 0
M  V30 430 H 45.3721 -1.25547 -3.71457 0
M  V30 431 H 46.8621 -0.370888 -4.1595 0
M  V30 432 N 47.2992 1.18797 -1.03562 0
M  V30 433 C 48.5292 1.92319 -0.754773 0
M  V30 434 C 48.9372 1.7612 0.691248 0
M  V30 435 O 48.2802 1.08491 1.48241 0
M  V30 436 C 48.3422 3.44284 -1.03484 0
M  V30 437 C 48.0062 3.84258 -2.47376 0
M  V30 438 C 49.0032 3.88459 -3.45537 0
M  V30 439 C 46.6882 4.15701 -2.81954 0
M  V30 440 C 48.6822 4.23545 -4.76328 0
M  V30 441 C 46.3692 4.50458 -4.12954 0
M  V30 442 C 47.3672 4.54356 -5.09951 0
M  V30 443 O 47.0552 4.88305 -6.38603 0
M  V30 444 H 46.7872 0.617527 -0.275021 0
M  V30 445 H 49.3412 1.51683 -1.38497 0
M  V30 446 H 47.5712 3.85135 -0.347513 0
M  V30 447 H 49.2602 3.99049 -0.7426 0
M  V30 448 H 50.0262 3.6431 -3.20162 0
M  V30 449 H 45.9052 4.11847 -2.0713 0
M  V30 450 H 49.4492 4.26502 -5.52035 0
M  V30 451 H 45.3462 4.74067 -4.38099 0
M  V30 452 H 46.1142 5.06227 -6.43177 0
M  V30 453 N 48.7773 0.814389 1.34928 0
M  V30 454 C 50.0253 0.397636 1.9815 0
M  V30 455 C 50.3463 -1.04069 1.64908 0
M  V30 456 O 49.6163 -1.72121 0.93548 0
M  V30 457 H 48.1963 0.144043 0.732981 0
M  V30 458 H 50.8583 1.04195 1.6471 0
M  V30 459 H 49.9543 0.509688 3.0791 0
M  V30 460 N 50.2554 -1.46986 0.568584 0
M  V30 461 C 51.5024 -2.02441 0.0487986 0
M  V30 462 C 51.8304 -1.44169 -1.30559 0
M  V30 463 O 51.0854 -0.591213 -1.86556 0
M  V30 464 C 51.3844 -3.57306 -0.081836 0
M  V30 465 C 51.0504 -4.34552 1.20313 0
M  V30 466 C 49.7124 -4.55376 1.5552 0
M  V30 467 C 52.0644 -4.79016 2.05411 0
M  V30 468 C 49.3924 -5.17913 2.7565 0
M  V30 469 C 51.7444 -5.42879 3.24754 0
M  V30 470 C 50.4084 -5.61933 3.60261 0
M  V30 471 H 49.6784 -0.740785 0.0178567 0
M  V30 472 H 52.3254 -1.76525 0.742384 0
M  V30 473 H 50.6304 -3.8228 -0.858463 0
M  V30 474 H 52.3274 -3.97876 -0.499546 0
M  V30 475 H 48.9174 -4.18631 0.919014 0
M  V30 476 H 53.1014 -4.62696 1.79516 0
M  V30 477 H 48.3574 -5.30858 3.03315 0
M  V30 478 H 52.5314 -5.76293 3.90973 0
M  V30 479 H 50.1584 -6.10161 4.53439 0
M  V30 480 N 51.7335 -0.305618 -1.54608 0
M  V30 481 C 53.1445 0.186098 -1.8577 0
M  V30 482 C 53.4955 1.53058 -1.22751 0
M  V30 483 O 52.6205 2.09888 -0.526893 0
M  V30 484 C 53.2155 0.344449 -3.37044 0
M  V30 485 C 51.7745 0.780384 -3.68221 0
M  V30 486 C 50.9215 -0.108554 -2.77087 0
M  V30 487 H 53.8725 -0.526485 -1.49712 0
M  V30 488 H 53.8935 1.17828 -3.61796 0
M  V30 489 H 53.4055 -0.634235 -3.82883 0
M  V30 490 H 51.5065 1.76945 -3.27904 0
M  V30 491 H 51.6195 0.596572 -4.75371 0
M  V30 492 H 49.9835 0.412931 -2.5133 0
M  V30 493 H 50.7665 -1.08368 -3.25747 0
M  V30 494 N 53.2116 1.57565 -0.0334293 0
M  V30 495 C 54.1586 2.10478 0.946981 0
M  V30 496 C 55.1286 1.00787 1.32027 0
M  V30 497 O 56.3136 1.28232 1.41284 0
M  V30 498 C 53.4536 2.63994 2.22263 0
M  V30 499 C 52.5666 3.87709 1.90541 0
M  V30 500 C 51.7016 4.29604 3.12433 0
M  V30 501 C 50.7406 5.46065 2.76549 0
M  V30 502 N 49.8776 5.83096 3.9108 0
M  V30 503 H 54.7176 2.93963 0.488846 0
M  V30 504 H 52.2546 1.45296 0.22969 0
M  V30 505 H 54.2126 2.93114 2.96884 0
M  V30 506 H 52.8426 1.83333 2.65685 0
M  V30 507 H 51.8946 3.65291 1.06144 0
M  V30 508 H 53.2066 4.72403 1.60116 0
M  V30 509 H 52.3606 4.60182 3.9537 0
M  V30 510 H 51.0996 3.43685 3.46023 0
M  V30 511 H 50.1046 5.15176 1.92026 0
M  V30 512 H 51.3296 6.33685 2.44171 0
M  V30 513 H 49.2756 5.00132 4.24504 0
M  V30 514 H 49.1926 6.6244 3.64293 0
M  V30 515 H 50.4606 6.18282 4.74708 0
M  V30 516 N 54.6897 -0.239769 1.55765 0
M  V30 517 C 55.6527 -1.28038 1.90103 0
M  V30 518 C 56.6527 -1.40723 0.778055 0
M  V30 519 O 57.8427 -1.39301 1.04599 0
M  V30 520 C 54.9747 -2.65702 2.13577 0
M  V30 521 H 56.1677 -0.988048 2.83157 0
M  V30 522 H 53.7207 -0.479382 1.48767 0
M  V30 523 H 54.4557 -3.00063 1.23015 0
M  V30 524 H 54.2407 -2.57875 2.95369 0
M  V30 525 H 55.7307 -3.40828 2.41301 0
M  V30 526 N 56.1678 -1.49265 -0.50573 0
M  V30 527 C 57.4138 -1.58748 -1.26202 0
M  V30 528 C 57.7468 -0.271227 -1.92297 0
M  V30 529 O 57.0218 0.724831 -1.80489 0
M  V30 530 C 57.3048 -2.74332 -2.33268 0
M  V30 531 C 57.1578 -4.15737 -1.71705 0
M  V30 532 C 58.4768 -2.85576 -3.34865 0
M  V30 533 H 55.5958 -0.577826 -0.457478 0
M  V30 534 H 58.2378 -1.81532 -0.560897 0
M  V30 535 H 56.3878 -2.55036 -2.93068 0
M  V30 536 H 58.0598 -4.46537 -1.15769 0
M  V30 537 H 56.3028 -4.21605 -1.02135 0
M  V30 538 H 56.9738 -4.92477 -2.49341 0
M  V30 539 H 59.4498 -3.03127 -2.8505 0
M  V30 540 H 58.3258 -3.68135 -4.07146 0
M  V30 541 H 58.5868 -1.94732 -3.96903 0
M  V30 542 N 57.6459 0.756429 -1.3826 0
M  V30 543 C 58.8709 1.55077 -1.37717 0
M  V30 544 C 59.2959 1.88073 0.03164 0
M  V30 545 O 58.6539 1.50364 1.01293 0
M  V30 546 C 58.7019 2.8283 -2.23695 0
M  V30 547 O 57.8059 3.77862 -1.6521 0
M  V30 548 H 57.1469 0.469152 -0.469885 0
M  V30 549 H 59.6769 0.935019 -1.81985 0
M  V30 550 H 59.6869 3.31783 -2.37453 0
M  V30 551 H 58.3619 2.58144 -3.2609 0
M  V30 552 H 56.9389 3.36555 -1.60578 0
M  V30 553 N 59.124 1.23083 0.984299 0
M  V30 554 C 60.37 1.06214 1.72761 0
M  V30 555 C 60.703 -0.400584 1.90024 0
M  V30 556 O 59.978 -1.29672 1.44967 0
M  V30 557 C 60.261 1.78375 3.12817 0
M  V30 558 C 60.114 3.32296 3.03149 0
M  V30 559 C 61.433 1.54309 4.12161 0
M  V30 560 H 58.552 0.387251 0.627061 0
M  V30 561 H 61.194 1.51536 1.14616 0
M  V30 562 H 59.344 1.39848 3.62457 0
M  V30 563 H 61.016 3.8032 2.61064 0
M  V30 564 H 59.259 3.6153 2.39747 0
M  V30 565 H 59.93 3.77972 4.02295 0
M  V30 566 H 62.406 1.87791 3.71314 0
M  V30 567 H 61.282 2.07281 5.08258 0
M  V30 568 H 61.543 0.477572 4.39513 0
M  V30 569 N 60.6021 -1.18246 1.0419 0
M  V30 570 C 61.8491 -1.88257 0.746017 0
M  V30 571 C 62.1771 -1.80429 -0.726331 0
M  V30 572 O 61.4321 -1.2 -1.54591 0
M  V30 573 C 61.7311 -3.38082 1.15911 0
M  V30 574 C 61.3971 -3.66114 2.63195 0
M  V30 575 C 60.0591 -3.73474 3.03432 0
M  V30 576 C 62.4111 -3.78398 3.5842 0
M  V30 577 C 59.7391 -3.90599 4.37778 0
M  V30 578 C 62.0911 -3.97039 4.92487 0
M  V30 579 C 60.7551 -4.02635 5.32392 0
M  V30 580 H 60.0251 -0.688883 0.272987 0
M  V30 581 H 62.6721 -1.3995 1.30715 0
M  V30 582 H 60.9771 -3.88377 0.516806 0
M  V30 583 H 62.6741 -3.90596 0.907516 0
M  V30 584 H 59.2641 -3.61003 2.3103 0
M  V30 585 H 63.4481 -3.72042 3.28479 0
M  V30 586 H 58.7041 -3.93175 4.68213 0
M  V30 587 H 62.8781 -4.05486 5.66175 0
M  V30 588 H 60.5051 -4.15657 6.36501 0
M  V30 589 N 62.0802 -0.821533 -1.34494 0
M  V30 590 C 63.3272 -0.408946 -1.98328 0
M  V30 591 C 63.6552 1.02764 -1.65136 0
M  V30 592 O 62.9102 1.73026 -0.914349 0
M  V30 593 C 63.2092 -0.556512 -3.53041 0
M  V30 594 C 62.8752 -1.95861 -4.0614 0
M  V30 595 C 61.5372 -2.34217 -4.20352 0
M  V30 596 C 63.8892 -2.87523 -4.34718 0
M  V30 597 C 61.2172 -3.63572 -4.6047 0
M  V30 598 C 63.5692 -4.1634 -4.76281 0
M  V30 599 C 62.2332 -4.54675 -4.88699 0
M  V30 600 H 61.5032 -0.149644 -0.725732 0
M  V30 601 H 64.1502 -1.04521 -1.6046 0
M  V30 602 H 62.4552 0.163148 -3.9146 0
M  V30 603 H 64.1522 -0.217826 -4.00408 0
M  V30 604 H 60.7422 -1.65066 -3.95539 0
M  V30 605 H 64.9262 -2.59133 -4.23277 0
M  V30 606 H 60.1822 -3.93101 -4.68275 0
M  V30 607 H 64.3562 -4.87455 -4.97354 0
M  V30 608 H 61.9832 -5.54959 -5.19542 0
M  V30 609 N 63.5583 1.46682 -0.576371 0
M  V30 610 C 64.9743 1.57822 -0.237562 0
M  V30 611 C 65.1743 1.57237 1.26011 0
M  V30 612 O 64.2303 1.48596 2.04146 0
M  V30 613 C 65.5433 2.87499 -0.881168 0
M  V30 614 C 67.0913 3.01119 -0.85417 0
M  V30 615 C 67.5663 4.33524 -1.4772 0
M  V30 616 N 69.0573 4.40207 -1.44125 0
M  V30 617 C 69.7923 5.4126 -1.89276 0
M  V30 618 N 69.2883 6.49021 -2.42371 0
M  V30 619 N 71.0813 5.32422 -1.80231 0
M  V30 620 H 63.2323 1.45306 -1.54919 0
M  V30 621 H 65.4953 0.692733 -0.647167 0
M  V30 622 H 65.2013 2.9372 -1.93447 0
M  V30 623 H 65.0753 3.75224 -0.385592 0
M  V30 624 H 67.4623 2.94485 0.190491 0
M  V30 625 H 67.5433 2.14887 -1.3877 0
M  V30 626 H 67.1873 4.40916 -2.52103 0
M  V30 627 H 67.1173 5.1852 -0.918947 0
M  V30 628 H 69.6083 3.62931 -1.05307 0
M  V30 629 H 69.9213 7.2233 -2.74698 0
M  V30 630 H 68.2663 6.49858 -2.46393 0
M  V30 631 H 71.4573 4.47137 -1.38514 0
M  V30 632 H 71.6303 6.11034 -2.15735 0
M  V30 633 N 65.0364 0.313813 1.54444 0
M  V30 634 C 65.9994 -0.54379 2.22656 0
M  V30 635 C 66.9994 -1.05124 1.21678 0
M  V30 636 O 68.1894 -0.945225 1.46325 0
M  V30 637 C 65.3214 -1.75427 2.92298 0
M  V30 638 H 66.5144 0.0523599 2.99854 0
M  V30 639 H 64.0674 0.0647834 1.56166 0
M  V30 640 H 64.8024 -2.38991 2.19211 0
M  V30 641 H 64.5874 -1.39791 3.66334 0
M  V30 642 H 66.0774 -2.36325 3.44297 0
M  V30 643 N 66.5145 -1.57545 0.0417849 0
M  V30 644 C 67.4445 -2.14009 -0.933929 0
M  V30 645 C 68.4255 -1.05938 -1.33083 0
M  V30 646 O 69.6105 -1.33833 -1.40721 0
M  V30 647 C 66.7405 -2.67747 -2.21199 0
M  V30 648 C 65.6945 -3.80718 -1.95544 0
M  V30 649 C 65.0205 -4.20935 -3.29724 0
M  V30 650 C 66.3205 -5.06258 -1.28452 0
M  V30 651 H 68.0145 -2.95788 -0.463645 0
M  V30 652 H 65.5605 -1.42285 -0.221573 0
M  V30 653 H 67.5135 -3.05886 -2.89848 0
M  V30 654 H 66.2375 -1.83147 -2.70416 0
M  V30 655 H 64.8965 -3.43037 -1.2931 0
M  V30 656 H 64.5445 -3.33298 -3.76724 0
M  V30 657 H 64.2445 -4.9707 -3.13361 0
M  V30 658 H 65.7685 -4.61666 -3.9962 0
M  V30 659 H 67.1825 -5.41903 -1.8712 0
M  V30 660 H 65.5795 -5.87475 -1.22445 0
M  V30 661 H 66.6495 -4.84207 -0.259219 0
M  V30 662 N 67.9926 0.231505 -1.5589 0
M  V30 663 C 68.9256 1.31369 -1.86595 0
M  V30 664 C 69.9036 1.45671 -0.722397 0
M  V30 665 O 71.0876 1.61642 -0.969743 0
M  V30 666 C 68.2146 2.68529 -2.06421 0
M  V30 667 C 67.2606 2.71295 -3.29092 0
M  V30 668 S 68.0936 2.26358 -4.85306 0
M  V30 669 C 69.2496 3.65414 -5.08157 0
M  V30 670 H 69.4826 1.05128 -2.78092 0
M  V30 671 H 67.0156 0.433259 -1.48197 0
M  V30 672 H 68.9736 3.47499 -2.18528 0
M  V30 673 H 67.6346 2.91999 -1.15738 0
M  V30 674 H 66.8276 3.72063 -3.39978 0
M  V30 675 H 66.4296 2.0038 -3.15791 0
M  V30 676 H 68.7216 4.6103 -4.96445 0
M  V30 677 H 69.6646 3.5945 -6.10083 0
M  V30 678 H 70.0726 3.5864 -4.35933 0
M  V30 679 N 69.4707 1.49531 0.497807 0
M  V30 680 C 70.8867 1.36365 0.829266 0
M  V30 681 C 71.0867 0.399184 1.97506 0
M  V30 682 O 70.1427 -0.167977 2.51941 0
M  V30 683 C 71.4557 2.77153 1.16647 0
M  V30 684 C 73.0037 2.85877 1.27449 0
M  V30 685 C 73.4787 4.2744 1.64497 0
M  V30 686 N 74.9697 4.30265 1.7154 0
M  V30 687 C 75.7047 5.3677 2.01656 0
M  V30 688 N 75.2007 6.53516 2.29976 0
M  V30 689 N 76.9937 5.24189 2.02934 0
M  V30 690 H 69.1447 2.10831 -0.257703 0
M  V30 691 H 71.4077 0.946534 -0.0527091 0
M  V30 692 H 71.1137 3.49442 0.397872 0
M  V30 693 H 70.9877 3.12722 2.10915 0
M  V30 694 H 73.3747 2.13824 2.0338 0
M  V30 695 H 73.4557 2.53887 0.312244 0
M  V30 696 H 73.0997 5.00021 0.891151 0
M  V30 697 H 73.0297 4.56896 2.61827 0
M  V30 698 H 75.5207 3.4607 1.51802 0
M  V30 699 H 75.8337 7.30506 2.52153 0
M  V30 700 H 74.1787 6.56737 2.27425 0
M  V30 701 H 77.3697 4.31988 1.80289 0
M  V30 702 H 77.5427 6.07286 2.26071 0
M  V30 703 N 70.9488 -0.749086 1.3866 0
M  V30 704 C 72.2258 -1.4992 1.25632 0
M  V30 705 C 72.6058 -2.10633 -0.140317 0
M  V30 706 O 71.9538 -1.97437 -1.15025 0
M  V30 707 C 72.1638 -2.56195 2.36992 0
M  V30 708 C 73.5118 -3.22972 2.75634 0
M  V30 709 O 74.5358 -2.66502 2.36337 0
M  V30 710 O 73.3948 -4.25122 3.43415 0
M  V30 711 H 70.4888 -0.665067 0.491544 0
M  V30 712 H 73.0348 -0.784113 1.50498 0
M  V30 713 H 71.8068 -2.09612 3.30422 0
M  V30 714 H 71.4298 -3.35279 2.13714 0
M  V30 715 N 72.4269 -1.23603 -0.977757 0
M  V30 716 C 73.6739 -1.06971 -1.71941 0
M  V30 717 C 74.0019 0.393009 -1.90488 0
M  V30 718 O 73.2569 1.30719 -1.4564 0
M  V30 719 C 73.5559 -1.7433 -3.11999 0
M  V30 720 C 73.2219 -3.24252 -3.13323 0
M  V30 721 C 71.8839 -3.65156 -3.13392 0
M  V30 722 C 74.2359 -4.20141 -3.08433 0
M  V30 723 C 71.5639 -5.00403 -3.0629 0
M  V30 724 C 73.9159 -5.55384 -3.02873 0
M  V30 725 C 72.5799 -5.95647 -3.01265 0
M  V30 726 H 71.8499 -0.391433 -0.629175 0
M  V30 727 H 74.4969 -1.53572 -1.14403 0
M  V30 728 H 72.8019 -1.20096 -3.7294 0
M  V30 729 H 74.4989 -1.58936 -3.68158 0
M  V30 730 H 71.0889 -2.91692 -3.14029 0
M  V30 731 H 75.2729 -3.89547 -3.07517 0
M  V30 732 H 70.5289 -5.3081 -3.03399 0
M  V30 733 H 74.7029 -6.29398 -2.98046 0
M  V30 734 H 72.3299 -7.0041 -2.95516 0
M  V30 735 N 73.905 1.17692 -1.04816 0
M  V30 736 C 75.182 1.83768 -0.669963 0
M  V30 737 C 75.562 1.93232 0.849986 0
M  V30 738 O 74.91 1.46397 1.75443 0
M  V30 739 C 75.12 3.21641 -1.35455 0
M  V30 740 C 76.468 3.97592 -1.49017 0
M  V30 741 O 77.492 3.31107 -1.31326 0
M  V30 742 O 76.351 5.16729 -1.77914 0
M  V30 743 H 73.445 0.792799 -0.235368 0
M  V30 744 H 75.991 1.25021 -1.14751 0
M  V30 745 H 74.763 3.097 -2.39168 0
M  V30 746 H 74.386 3.88052 -0.866107 0
M  V30 747 N 75.3831 0.828654 1.34056 0
M  V30 748 C 76.3461 0.259927 2.27721 0
M  V30 749 C 77.3461 -0.565478 1.50529 0
M  V30 750 O 78.5361 -0.38075 1.69988 0
M  V30 751 C 75.6681 -0.634944 3.34935 0
M  V30 752 H 76.8611 1.0863 2.79534 0
M  V30 753 H 74.4141 0.600951 1.44285 0
M  V30 754 H 75.1491 -1.48416 2.88346 0
M  V30 755 H 74.9341 -0.0444999 3.92075 0
M  V30 756 H 76.4241 -1.02648 4.04788 0
M  V30 757 N 76.8612 -1.46375 0.584142 0
M  V30 758 C 78.1092 -2.01978 0.0701287 0
M  V30 759 C 78.4302 -1.4579 -1.295 0
M  V30 760 O 77.7002 -0.64314 -1.85042 0
M  V30 761 H 76.2802 -0.746648 0.0229345 0
M  V30 762 H 78.9422 -1.79461 0.760245 0
M  V30 763 H 78.0382 -3.121 0.0022064 0
M  V30 764 N 78.3393 -0.321999 -1.54275 0
M  V30 765 C 79.5693 0.282642 -2.04658 0
M  V30 766 C 79.9773 1.46453 -1.19784 0
M  V30 767 O 79.3203 1.82367 -0.220932 0
M  V30 768 C 79.3823 0.781857 -3.50895 0
M  V30 769 C 79.0463 -0.277517 -4.56157 0
M  V30 770 C 80.0433 -1.11307 -5.07845 0
M  V30 771 C 77.7283 -0.425256 -5.00497 0
M  V30 772 C 79.7223 -2.08211 -6.02434 0
M  V30 773 C 77.4093 -1.39771 -5.94901 0
M  V30 774 C 78.4073 -2.2246 -6.45756 0
M  V30 775 O 78.0953 -3.18054 -7.38307 0
M  V30 776 H 77.8273 0.0622636 -0.673126 0
M  V30 777 H 80.3813 -0.465792 -2.00049 0
M  V30 778 H 78.6113 1.58118 -3.52896 0
M  V30 779 H 80.3003 1.30467 -3.84361 0
M  V30 780 H 81.0663 -1.00991 -4.74369 0
M  V30 781 H 76.9453 0.20847 -4.60528 0
M  V30 782 H 80.4893 -2.72791 -6.42052 0
M  V30 783 H 76.3863 -1.50152 -6.27794 0
M  V30 784 H 77.1543 -3.13275 -7.56175 0
M  V30 785 N 79.8174 1.5752 -0.0501392 0
M  V30 786 C 81.0424 1.97376 0.636997 0
M  V30 787 C 81.4674 0.927466 1.63645 0
M  V30 788 O 80.8254 -0.10941 1.8097 0
M  V30 789 C 80.8734 3.36304 1.30123 0
M  V30 790 O 79.9774 3.34156 2.41689 0
M  V30 791 H 79.3184 0.642998 0.165679 0
M  V30 792 H 81.8484 2.04258 -0.118233 0
M  V30 793 H 81.8584 3.73008 1.65315 0
M  V30 794 H 80.5334 4.11993 0.568746 0
M  V30 795 H 79.1104 3.09196 2.08451 0
M  V30 796 N 81.2955 -0.223234 1.56011 0
M  V30 797 C 82.5725 -0.972108 1.69733 0
M  V30 798 C 82.9525 -2.02485 0.59691 0
M  V30 799 O 82.3005 -2.25037 -0.396324 0
M  V30 800 C 82.5105 -1.58407 3.10979 0
M  V30 801 C 83.8585 -2.07696 3.70334 0
M  V30 802 O 84.8825 -1.68304 3.1393 0
M  V30 803 O 83.7415 -2.80096 4.69264 0
M  V30 804 H 80.8355 -0.453993 0.691245 0
M  V30 805 H 83.3815 -0.215149 1.68331 0
M  V30 806 H 82.1535 -0.823831 3.82529 0
M  V30 807 H 81.7765 -2.40661 3.16493 0
M  V30 808 N 82.7736 -1.49793 -0.48987 0
M  V30 809 C 84.0016 -1.63568 -1.26701 0
M  V30 810 C 84.4166 -0.311465 -1.86213 0
M  V30 811 O 83.7736 0.704416 -1.68357 0
M  V30 812 C 83.8246 -2.71284 -2.38929 0
M  V30 813 O 83.5456 -3.9857 -1.81861 0
M  V30 814 C 85.0466 -2.95864 -3.3012 0
M  V30 815 H 82.2666 -0.550342 -0.383881 0
M  V30 816 H 84.8106 -1.95898 -0.586864 0
M  V30 817 H 82.9656 -2.417 -3.02753 0
M  V30 818 H 83.3796 -4.57993 -2.55622 0
M  V30 819 H 84.8536 -3.74941 -4.05121 0
M  V30 820 H 85.3306 -2.06206 -3.87783 0
M  V30 821 H 85.9366 -3.26907 -2.72051 0
M  V30 822 N 84.2517 0.741722 -1.39055 0
M  V30 823 C 85.2147 1.83733 -1.37021 0
M  V30 824 C 86.2147 1.58542 -0.268534 0
M  V30 825 O 87.4047 1.66067 -0.526076 0
M  V30 826 C 84.5367 3.2141 -1.13617 0
M  V30 827 H 85.7297 1.86941 -2.34506 0
M  V30 828 H 83.2827 0.944676 -1.24521 0
M  V30 829 H 84.0177 3.23865 -0.167863 0
M  V30 830 H 83.8027 3.4109 -1.93391 0
M  V30 831 H 85.2927 4.01477 -1.14918 0
M  V30 832 N 85.7298 1.2412 0.971189 0
M  V30 833 C 86.9758 1.09048 1.71698 0
M  V30 834 C 87.3308 -0.367442 1.88859 0
M  V30 835 O 86.6238 -1.26792 1.43646 0
M  V30 836 C 86.8178 1.75983 3.11071 0
M  V30 837 C 86.6468 3.28133 3.07504 0
M  V30 838 C 85.4168 3.97331 3.1218 0
M  V30 839 C 87.6148 4.24773 2.89952 0
M  V30 840 N 85.5968 5.3639 2.98596 0
M  V30 841 C 86.9678 5.50806 2.84627 0
M  V30 842 C 89.0228 4.15392 2.74506 0
M  V30 843 C 87.7258 6.68533 2.65437 0
M  V30 844 C 89.7518 5.32793 2.56682 0
M  V30 845 C 89.1138 6.57756 2.52063 0
M  V30 846 H 85.2128 0.453632 0.636979 0
M  V30 847 H 87.7968 1.56983 1.15171 0
M  V30 848 H 85.9678 1.30566 3.65796 0
M  V30 849 H 87.6998 1.53803 3.74335 0
M  V30 850 H 84.4548 3.48473 3.20724 0
M  V30 851 H 84.8788 6.09321 2.95054 0
M  V30 852 H 89.5208 3.19543 2.76861 0
M  V30 853 H 87.2388 7.64509 2.61825 0
M  V30 854 H 90.8248 5.27383 2.4568 0
M  V30 855 H 89.7048 7.4707 2.38446 0
M  V30 856 N 87.2079 -1.17134 1.05439 0
M  V30 857 C 88.4539 -1.87733 0.767077 0
M  V30 858 C 88.7869 -1.8098 -0.704253 0
M  V30 859 O 88.0619 -1.21951 -1.5152 0
M  V30 860 C 88.3449 -3.37659 1.25133 0
M  V30 861 C 88.1979 -3.53149 2.78578 0
M  V30 862 C 89.5169 -4.31768 0.852324 0
M  V30 863 H 86.6359 -0.681687 0.280129 0
M  V30 864 H 89.2779 -1.37732 1.30881 0
M  V30 865 H 87.4279 -3.80373 0.790469 0
M  V30 866 H 89.0999 -3.19434 3.32806 0
M  V30 867 H 87.3429 -2.95345 3.17732 0
M  V30 868 H 88.0139 -4.58403 3.07523 0
M  V30 869 H 90.4899 -3.96909 1.24911 0
M  V30 870 H 89.3659 -5.35199 1.21873 0
M  V30 871 H 89.6269 -4.41429 -0.243485 0
M  V30 872 N 88.686 -0.835752 -1.33615 0
M  V30 873 C 89.911 -0.442389 -2.02627 0
M  V30 874 C 90.336 0.947735 -1.62479 0
M  V30 875 O 89.694 1.61907 -0.815826 0
M  V30 876 C 89.742 -0.567216 -3.56111 0
M  V30 877 O 88.846 0.407799 -4.10379 0
M  V30 878 H 88.187 -0.180278 -0.639059 0
M  V30 879 H 90.717 -1.12972 -1.70583 0
M  V30 880 H 90.727 -0.447708 -4.05536 0
M  V30 881 H 89.402 -1.58103 -3.84677 0
M  V30 882 H 87.979 0.246107 -3.72087 0
M  V30 883 N 90.1641 1.46063 -0.591896 0
M  V30 884 C 91.3891 2.07226 -0.0850314 0
M  V30 885 C 91.8141 1.43625 1.21463 0
M  V30 886 O 91.1721 0.523305 1.73583 0
M  V30 887 C 91.2201 3.60554 0.0576567 0
M  V30 888 O 90.3241 3.97128 1.11188 0
M  V30 889 H 89.6651 0.660615 -0.0669568 0
M  V30 890 H 92.1951 1.8756 -0.81745 0
M  V30 891 H 92.2051 4.07165 0.2609 0
M  V30 892 H 90.8801 4.06235 -0.891416 0
M  V30 893 H 89.4571 3.62213 0.886356 0
M  V30 894 N 91.6422 0.330177 1.54103 0
M  V30 895 C 92.8912 -0.271336 1.99867 0
M  V30 896 C 93.2042 -1.52723 1.22209 0
M  V30 897 O 94.4102 -2.20515 1.58383 0
M  V30 898 C 92.8662 -0.534032 3.55916 0
M  V30 899 C 92.4742 0.705193 4.42415 0
M  V30 900 C 94.2182 -1.09514 4.1013 0
M  V30 901 C 92.1252 0.414035 5.89949 0
M  V30 902 H 91.0552 -0.105166 0.74663 0
M  V30 903 H 93.7062 0.443429 1.78062 0
M  V30 904 H 92.0882 -1.30915 3.73734 0
M  V30 905 H 93.2622 1.4804 4.36372 0
M  V30 906 H 91.5772 1.18698 3.99124 0
M  V30 907 H 94.1742 -1.3277 5.17954 0
M  V30 908 H 94.5172 -2.04656 3.62521 0
M  V30 909 H 95.0502 -0.381038 3.95971 0
M  V30 910 H 91.7892 1.33481 6.41766 0
M  V30 911 H 91.3092 -0.323336 5.98928 0
M  V30 912 H 92.9882 0.0263105 6.46995 0
M  V30 913 N 93.1203 -1.57491 0.0584922 0
M  V30 914 C 94.0533 -2.07533 -0.948969 0
M  V30 915 C 95.0313 -0.977444 -1.29942 0
M  V30 916 O 96.2153 -1.2499 -1.41102 0
M  V30 917 C 93.3423 -2.52192 -2.2609 0
M  V30 918 C 92.3883 -3.73287 -2.06298 0
M  V30 919 S 93.2213 -5.18603 -1.33459 0
M  V30 920 C 94.3773 -5.66583 -2.65959 0
M  V30 921 H 94.6103 -2.92662 -0.523118 0
M  V30 922 H 92.1433 -1.53631 -0.153954 0
M  V30 923 H 94.1013 -2.78585 -3.01498 0
M  V30 924 H 92.7623 -1.67356 -2.65802 0
M  V30 925 H 91.9553 -4.0248 -3.03357 0
M  V30 926 H 91.5573 -3.47199 -1.39029 0
M  V30 927 H 93.8493 -5.72616 -3.62101 0
M  V30 928 H 94.7923 -6.65684 -2.41393 0
M  V30 929 H 95.2003 -4.94342 -2.72554 0
M  V30 930 N 94.5984 0.214957 -1.56127 0
M  V30 931 C 95.5284 1.2695 -1.95974 0
M  V30 932 C 96.5094 1.48539 -0.828868 0
M  V30 933 O 97.6944 1.60611 -1.09168 0
M  V30 934 C 94.8244 2.61794 -2.28214 0
M  V30 935 C 93.7784 2.54851 -3.43853 0
M  V30 936 C 93.1044 3.93785 -3.61715 0
M  V30 937 C 94.4044 2.09065 -4.78632 0
M  V30 938 H 96.0984 0.93846 -2.84312 0
M  V30 939 H 93.6444 0.449996 -1.36788 0
M  V30 940 H 95.5974 3.35731 -2.54682 0
M  V30 941 H 94.3214 2.96599 -1.36736 0
M  V30 942 H 92.9804 1.8337 -3.17444 0
M  V30 943 H 92.6284 4.25908 -2.67602 0
M  V30 944 H 92.3284 3.90019 -4.39498 0
M  V30 945 H 93.8524 4.69374 -3.90539 0
M  V30 946 H 95.2664 2.7275 -5.04262 0
M  V30 947 H 93.6634 2.16346 -5.59745 0
M  V30 948 H 94.7334 1.04315 -4.73547 0
M  V30 949 N 96.0765 1.50051 0.48192 0
M  V30 950 C 97.0395 1.67584 1.5636 0
M  V30 951 C 98.0395 0.546894 1.51214 0
M  V30 952 O 99.2295 0.813725 1.54026 0
M  V30 953 C 96.3615 1.691 2.96003 0
M  V30 954 H 97.5545 2.64078 1.42136 0
M  V30 955 H 95.1075 1.39369 0.707533 0
M  V30 956 H 95.8425 0.742589 3.15684 0
M  V30 957 H 95.6275 2.51105 3.01146 0
M  V30 958 H 97.1175 1.84656 3.74556 0
M  V30 959 N 97.5546 -0.734337 1.39446 0
M  V30 960 C 98.4876 -1.85715 1.32609 0
M  V30 961 C 99.4656 -1.6137 0.199636 0
M  V30 962 O 100.65 -1.84626 0.380195 0
M  V30 963 C 97.7766 -3.21709 1.05929 0
M  V30 964 C 96.8226 -3.64913 2.20773 0
M  V30 965 S 97.6556 -3.74203 3.83056 0
M  V30 966 C 98.8116 -5.12986 3.58603 0
M  V30 967 H 99.0446 -1.91232 2.27635 0
M  V30 968 H 96.5776 -0.899263 1.25509 0
M  V30 969 H 98.5356 -4.00236 0.912203 0
M  V30 970 H 97.1966 -3.13848 0.125883 0
M  V30 971 H 96.3896 -4.63606 1.97699 0
M  V30 972 H 95.9916 -2.93593 2.31688 0
M  V30 973 H 98.2836 -5.99339 3.15909 0
M  V30 974 H 99.2266 -5.41088 4.5676 0
M  V30 975 H 99.6346 -4.82694 2.9269 0
M  V30 976 N 99.0327 -1.24633 -0.964593 0
M  V30 977 C 99.9627 -1.06611 -2.07741 0
M  V30 978 C 100.944 0.0218666 -1.70086 0
M  V30 979 O 102.129 -0.145793 -1.93652 0
M  V30 980 C 99.2587 -0.673444 -3.40708 0
M  V30 981 C 98.2127 -1.71054 -3.92332 0
M  V30 982 C 97.5387 -1.17285 -5.21678 0
M  V30 983 C 98.8387 -3.10718 -4.19824 0
M  V30 984 H 100.533 -1.99693 -2.23076 0
M  V30 985 H 98.0787 -0.96152 -1.07195 0
M  V30 986 H 100.032 -0.534345 -4.17998 0
M  V30 987 H 98.7557 0.293073 -3.25282 0
M  V30 988 H 97.4147 -1.83791 -3.17201 0
M  V30 989 H 97.0627 -0.196847 -5.02615 0
M  V30 990 H 96.7627 -1.86592 -5.57187 0
M  V30 991 H 98.2867 -1.04593 -6.01575 0
M  V30 992 H 99.7007 -3.01192 -4.87808 0
M  V30 993 H 98.0977 -3.77406 -4.66567 0
M  V30 994 H 99.1677 -3.58524 -3.26479 0
M  V30 995 N 100.511 1.16574 -1.06058 0
M  V30 996 C 101.741 1.90675 -0.795397 0
M  V30 997 C 102.149 1.77547 0.653735 0
M  V30 998 O 101.492 1.11611 1.45907 0
M  V30 999 C 101.554 3.42011 -1.10764 0
M  V30 1000 C 101.218 3.78924 -2.55471 0
M  V30 1001 C 102.215 3.81042 -3.53699 0
M  V30 1002 C 99.8998 4.09626 -2.90708 0
M  V30 1003 C 101.894 4.13346 -4.85205 0
M  V30 1004 C 99.5808 4.41597 -4.22416 0
M  V30 1005 C 100.579 4.43436 -5.19474 0
M  V30 1006 O 100.267 4.74649 -6.48817 0
M  V30 1007 H 99.9988 0.611554 -0.288058 0
M  V30 1008 H 102.553 1.48711 -1.41683 0
M  V30 1009 H 100.783 3.84312 -0.429128 0
M  V30 1010 H 102.472 3.97384 -0.827077 0
M  V30 1011 H 103.238 3.57437 -3.27817 0
M  V30 1012 H 99.1168 4.07361 -2.15819 0
M  V30 1013 H 102.661 4.14696 -5.60957 0
M  V30 1014 H 98.5578 4.64667 -4.48056 0
M  V30 1015 H 99.3258 4.9247 -6.5377 0
M  V30 1016 N 101.989 0.842826 1.3317 0
M  V30 1017 C 103.237 0.439577 1.97262 0
M  V30 1018 C 103.558 -1.00548 1.67078 0
M  V30 1019 O 102.828 -1.70098 0.971779 0
M  V30 1020 H 101.408 0.159558 0.72976 0
M  V30 1021 H 104.07 1.07665 1.62463 0
M  V30 1022 H 103.166 0.574886 3.0676 0
M  V30 1023 N 103.467 -1.45747 0.599634 0
M  V30 1024 C 104.695 -2.06668 0.0978551 0
M  V30 1025 C 105.11 -1.44562 -1.21439 0
M  V30 1026 O 104.467 -0.556923 -1.73795 0
M  V30 1027 C 104.518 -3.61456 -0.0567044 0
M  V30 1028 O 104.239 -4.21242 1.20361 0
M  V30 1029 C 105.74 -4.39345 -0.590869 0
M  V30 1030 H 102.96 -0.667825 0.0651943 0
M  V30 1031 H 105.504 -1.87115 0.82511 0
M  V30 1032 H 103.659 -3.80378 -0.734251 0
M  V30 1033 H 104.073 -5.14323 1.02821 0
M  V30 1034 H 105.547 -5.48182 -0.648131 0
M  V30 1035 H 106.024 -4.08568 -1.61147 0
M  V30 1036 H 106.63 -4.25268 0.0523679 0
M  V30 1037 N 104.945 -0.338344 -1.53925 0
M  V30 1038 C 106.193 0.259245 -2.0043 0
M  V30 1039 C 106.514 1.51484 -1.22791 0
M  V30 1040 O 105.784 1.93037 -0.33368 0
M  V30 1041 H 104.364 0.0987845 -0.740439 0
M  V30 1042 H 107.026 -0.458302 -1.89435 0
M  V30 1043 H 106.122 0.505334 -3.07982 0
M  V30 1044 N 106.423 1.57458 -0.0668435 0
M  V30 1045 C 107.834 1.80776 0.466558 0
M  V30 1046 C 108.185 0.980361 1.69951 0
M  V30 1047 O 107.31 0.201441 2.1546 0
M  V30 1048 C 107.905 3.27881 0.85321 0
M  V30 1049 C 106.464 3.52062 1.3315 0
M  V30 1050 C 105.611 2.75513 0.314264 0
M  V30 1051 H 108.562 1.5598 -0.292588 0
M  V30 1052 H 108.583 3.39659 1.715 0
M  V30 1053 H 108.095 3.88075 -0.0443439 0
M  V30 1054 H 106.196 2.97167 2.24772 0
M  V30 1055 H 106.309 4.60762 1.31285 0
M  V30 1056 H 104.673 2.42123 0.790492 0
M  V30 1057 H 105.456 3.38442 -0.575477 0
M  V30 1058 N 107.901 -0.206675 1.56239 0
M  V30 1059 C 109.147 -0.930218 1.80208 0
M  V30 1060 C 109.48 -1.83387 0.638981 0
M  V30 1061 O 108.755 -1.91119 -0.361066 0
M  V30 1062 C 109.038 -1.75641 3.1436 0
M  V30 1063 C 108.891 -0.878257 4.41142 0
M  V30 1064 C 110.21 -2.73129 3.45092 0
M  V30 1065 H 107.329 -0.336742 0.655571 0
M  V30 1066 H 109.971 -0.198222 1.88963 0
M  V30 1067 H 108.121 -2.38048 3.07027 0
M  V30 1068 H 109.793 -0.269787 4.6051 0
M  V30 1069 H 108.036 -0.184385 4.33408 0
M  V30 1070 H 108.707 -1.49106 5.3148 0
M  V30 1071 H 111.183 -2.20856 3.52649 0
M  V30 1072 H 110.059 -3.28028 4.40101 0
M  V30 1073 H 110.32 -3.51606 2.68003 0
M  V30 1074 N 109.379 -1.50304 -0.473955 0
M  V30 1075 C 110.604 -1.65175 -1.25427 0
M  V30 1076 C 111.029 -0.333673 -1.85117 0
M  V30 1077 O 110.387 0.702114 -1.67153 0
M  V30 1078 C 110.435 -2.74295 -2.34082 0
M  V30 1079 O 109.539 -2.35349 -3.38651 0
M  V30 1080 H 108.88 -0.551944 -0.369126 0
M  V30 1081 H 111.41 -1.96662 -0.564364 0
M  V30 1082 H 111.42 -2.97285 -2.79438 0
M  V30 1083 H 110.095 -3.69959 -1.90008 0
M  V30 1084 H 108.672 -2.22794 -2.99027 0
M  V30 1085 N 110.857 0.726932 -1.39834 0
M  V30 1086 C 112.082 1.52121 -1.40976 0
M  V30 1087 C 112.507 1.88098 -0.00826029 0
M  V30 1088 O 111.865 1.52479 0.980807 0
M  V30 1089 C 111.913 2.78021 -2.29644 0
M  V30 1090 O 111.017 3.74272 -1.73188 0
M  V30 1091 H 110.358 0.45908 -0.479731 0
M  V30 1092 H 112.888 0.896207 -1.83927 0
M  V30 1093 H 112.898 3.26671 -2.44438 0
M  V30 1094 H 111.573 2.51169 -3.31492 0
M  V30 1095 H 110.15 3.33073 -1.6768 0
M  V30 1096 N 112.336 1.25143 0.95797 0
M  V30 1097 C 113.585 1.0909 1.69654 0
M  V30 1098 C 113.898 -0.368548 1.92097 0
M  V30 1099 O 115.104 -0.649455 2.63618 0
M  V30 1100 C 113.56 1.90395 3.05414 0
M  V30 1101 C 113.168 3.4081 2.90779 0
M  V30 1102 C 114.912 1.82901 3.83076 0
M  V30 1103 C 112.819 4.14423 4.21909 0
M  V30 1104 H 111.749 0.404625 0.636235 0
M  V30 1105 H 114.4 1.4931 1.06672 0
M  V30 1106 H 112.782 1.42996 3.69281 0
M  V30 1107 H 113.956 3.95859 2.35865 0
M  V30 1108 H 112.271 3.49361 2.26575 0
M  V30 1109 H 114.868 2.35196 4.80195 0
M  V30 1110 H 115.211 0.796224 4.08615 0
M  V30 1111 H 115.744 2.28033 3.25954 0
M  V30 1112 H 112.483 5.18102 4.01561 0
M  V30 1113 H 112.003 3.64159 4.76601 0
M  V30 1114 H 113.682 4.21956 4.90471 0
M  V30 1115 N 113.814 -1.1601 1.06675 0
M  V30 1116 C 114.744 -2.22688 0.702307 0
M  V30 1117 C 115.725 -1.67306 -0.307032 0
M  V30 1118 O 116.91 -1.93352 -0.181305 0
M  V30 1119 C 114.04 -3.47178 0.092038 0
M  V30 1120 C 112.994 -4.15477 1.02777 0
M  V30 1121 C 112.32 -5.33963 0.28061 0
M  V30 1122 C 113.62 -4.66019 2.35846 0
M  V30 1123 H 115.314 -2.53429 1.59419 0
M  V30 1124 H 112.86 -1.21813 0.767961 0
M  V30 1125 H 114.813 -4.21037 -0.174814 0
M  V30 1126 H 113.537 -3.15749 -0.834877 0
M  V30 1127 H 112.196 -3.43549 1.27944 0
M  V30 1128 H 111.844 -4.98788 -0.649545 0
M  V30 1129 H 111.544 -5.806 0.904258 0
M  V30 1130 H 113.068 -6.10596 0.021396 0
M  V30 1131 H 114.482 -5.3144 2.15045 0
M  V30 1132 H 112.879 -5.23293 2.93743 0
M  V30 1133 H 113.949 -3.82023 2.98641 0
M  V30 1134 N 115.292 -0.849877 -1.32721 0
M  V30 1135 C 116.538 -0.451591 -1.97708 0
M  V30 1136 C 116.871 0.989175 -1.6712 0
M  V30 1137 O 116.146 1.69334 -0.956891 0
M  V30 1138 C 116.429 -0.685598 -3.53513 0
M  V30 1139 C 116.282 -2.17444 -3.93749 0
M  V30 1140 C 117.601 -0.138874 -4.39881 0
M  V30 1141 H 114.72 -0.16555 -0.718166 0
M  V30 1142 H 117.362 -1.06742 -1.57182 0
M  V30 1143 H 115.512 -0.161416 -3.88165 0
M  V30 1144 H 117.184 -2.76433 -3.693 0
M  V30 1145 H 115.427 -2.65476 -3.43081 0
M  V30 1146 H 116.098 -2.28888 -5.02309 0
M  V30 1147 H 118.574 -0.587068 -4.11938 0
M  V30 1148 H 117.45 -0.332213 -5.47894 0
M  V30 1149 H 117.711 0.95806 -4.31594 0
M  V30 1150 N 116.77 1.45427 -0.607355 0
M  V30 1151 C 117.998 2.06614 -0.108814 0
M  V30 1152 C 118.413 1.45204 1.2067 0
M  V30 1153 O 117.77 0.566132 1.73497 0
M  V30 1154 C 117.821 3.61481 0.0375347 0
M  V30 1155 O 117.542 4.20598 -1.22593 0
M  V30 1156 C 119.043 4.39652 0.567561 0
M  V30 1157 H 116.263 0.66747 -0.0687351 0
M  V30 1158 H 118.807 1.86675 -0.835022 0
M  V30 1159 H 116.962 3.80762 0.714068 0
M  V30 1160 H 117.376 5.1377 -1.05547 0
M  V30 1161 H 118.85 5.48518 0.61905 0
M  V30 1162 H 119.327 4.09417 1.58978 0
M  V30 1163 H 119.933 4.25234 -0.0749202 0
M  V30 1164 N 118.248 0.346503 1.53744 0
M  V30 1165 C 119.664 -0.00530975 1.59599 0
M  V30 1166 C 119.864 -1.48465 1.36236 0
M  V30 1167 O 118.92 -2.24376 1.15808 0
M  V30 1168 C 120.233 0.433516 2.97559 0
M  V30 1169 C 121.781 0.386111 3.10609 0
M  V30 1170 C 122.256 0.800451 4.50951 0
M  V30 1171 N 123.747 0.754753 4.5701 0
M  V30 1172 C 124.482 1.04727 5.63755 0
M  V30 1173 N 123.978 1.4081 6.7834 0
M  V30 1174 N 125.771 0.971316 5.53644 0
M  V30 1175 H 117.922 1.31009 1.67184 0
M  V30 1176 H 120.185 0.534242 0.783128 0
M  V30 1177 H 119.891 1.46509 3.19731 0
M  V30 1178 H 119.765 -0.189753 3.76722 0
M  V30 1179 H 122.152 -0.636295 2.88158 0
M  V30 1180 H 122.233 1.04462 2.33498 0
M  V30 1181 H 121.877 1.82088 4.74137 0
M  V30 1182 H 121.807 0.119386 5.26465 0
M  V30 1183 H 124.298 0.488662 3.74727 0
M  V30 1184 H 124.611 1.61607 7.55714 0
M  V30 1185 H 122.956 1.44657 6.79779 0
M  V30 1186 H 126.147 0.688748 4.63005 0
M  V30 1187 H 126.32 1.20263 6.36742 0
M  V30 1188 N 119.726 -1.57421 0.075193 0
M  V30 1189 C 120.973 -1.93618 -0.593146 0
M  V30 1190 C 121.301 -0.955484 -1.69413 0
M  V30 1191 O 120.556 0.0283251 -1.9568 0
M  V30 1192 C 120.855 -3.36428 -1.20626 0
M  V30 1193 C 120.521 -4.50307 -0.231078 0
M  V30 1194 C 119.183 -4.81186 0.0371936 0
M  V30 1195 C 121.535 -5.19374 0.435888 0
M  V30 1196 C 118.863 -5.78466 0.979461 0
M  V30 1197 C 121.215 -6.17665 1.3665 0
M  V30 1198 C 119.879 -6.46958 1.6432 0
M  V30 1199 H 119.149 -0.708499 -0.217047 0
M  V30 1200 H 121.796 -1.90937 0.146793 0
M  V30 1201 H 120.101 -3.35592 -2.02201 0
M  V30 1202 H 121.798 -3.61727 -1.73073 0
M  V30 1203 H 118.388 -4.26227 -0.450357 0
M  V30 1204 H 122.572 -4.95711 0.241748 0
M  V30 1205 H 117.828 -5.99487 1.20106 0
M  V30 1206 H 122.002 -6.70284 1.88924 0
M  V30 1207 H 119.629 -7.2215 2.37494 0
M  V30 1208 N 121.204 0.198386 -1.56346 0
M  V30 1209 C 122.452 0.91747 -1.80075 0
M  V30 1210 C 122.773 1.83929 -0.647692 0
M  V30 1211 O 122.043 1.93029 0.334166 0
M  V30 1212 H 120.623 0.341774 -0.664228 0
M  V30 1213 H 123.285 0.204684 -1.93822 0
M  V30 1214 H 122.381 1.51055 -2.7311 0
M  V30 1215 N 122.682 1.50554 0.465978 0
M  V30 1216 C 123.922 1.63439 1.22747 0
M  V30 1217 C 124.286 0.329822 1.89146 0
M  V30 1218 O 125.487 0.334161 2.66715 0
M  V30 1219 C 123.758 2.78542 2.2394 0
M  V30 1220 S 125.317 3.11591 3.0896 0
M  V30 1221 H 122.135 0.576113 0.416672 0
M  V30 1222 H 124.737 1.88357 0.523641 0
M  V30 1223 H 123.441 3.71805 1.7375 0
M  V30 1224 H 122.972 2.55726 2.98944 0
M  V30 1225 H 124.987 2.55811 4.25176 0
M  V30 1226 N 124.16 -0.719506 1.40217 0
M  V30 1227 C 125.576 -1.02707 1.22161 0
M  V30 1228 C 125.776 -2.0128 0.0940557 0
M  V30 1229 O 124.832 -2.46452 -0.549318 0
M  V30 1230 C 126.145 -1.57454 2.56181 0
M  V30 1231 C 127.693 -1.69458 2.63159 0
M  V30 1232 C 128.168 -2.27611 3.97438 0
M  V30 1233 N 129.659 -2.35002 3.99159 0
M  V30 1234 C 130.394 -2.80972 4.99842 0
M  V30 1235 N 129.89 -3.26723 6.10921 0
M  V30 1236 N 131.683 -2.80321 4.87213 0
M  V30 1237 H 123.834 -0.0660492 2.12297 0
M  V30 1238 H 126.097 -0.0919077 0.943534 0
M  V30 1239 H 125.803 -0.924873 3.39321 0
M  V30 1240 H 125.677 -2.56036 2.76993 0
M  V30 1241 H 128.064 -2.33543 1.80393 0
M  V30 1242 H 128.145 -0.694867 2.46181 0
M  V30 1243 H 127.789 -1.6415 4.80643 0
M  V30 1244 H 127.719 -3.2829 4.11744 0
M  V30 1245 H 130.21 -2.02685 3.18947 0
M  V30 1246 H 130.523 -3.60355 6.8364 0
M  V30 1247 H 128.868 -3.24692 6.14492 0
M  V30 1248 H 132.059 -2.43912 3.9953 0
M  V30 1249 H 132.232 -3.15831 5.65822 0
M  V30 1250 N 125.638 -1.25649 -0.95132 0
M  V30 1251 C 127.049 -1.09654 -1.51106 0
M  V30 1252 C 127.4 0.326615 -1.93462 0
M  V30 1253 O 126.525 1.21697 -1.78938 0
M  V30 1254 C 127.12 -1.98437 -2.74605 0
M  V30 1255 C 125.679 -1.86618 -3.2688 0
M  V30 1256 C 124.826 -1.9239 -1.99703 0
M  V30 1257 H 127.777 -1.38887 -0.767865 0
M  V30 1258 H 127.798 -1.5263 -3.48546 0
M  V30 1259 H 127.31 -3.02009 -2.43746 0
M  V30 1260 H 125.411 -0.859421 -3.62553 0
M  V30 1261 H 125.524 -2.71607 -3.94673 0
M  V30 1262 H 123.888 -1.36317 -2.15151 0
M  V30 1263 H 124.671 -2.97573 -1.71188 0
M  V30 1264 N 127.117 1.15442 -1.07289 0
M  V30 1265 C 128.363 1.86489 -0.796846 0
M  V30 1266 C 128.696 1.82078 0.675371 0
M  V30 1267 O 127.971 1.24346 1.4956 0
M  V30 1268 C 128.254 3.35626 -1.30489 0
M  V30 1269 C 128.107 3.48673 -2.84161 0
M  V30 1270 C 129.426 4.30357 -0.920907 0
M  V30 1271 H 126.545 0.677144 -0.290939 0
M  V30 1272 H 129.187 1.35633 -1.33056 0
M  V30 1273 H 127.337 3.79068 -0.850883 0
M  V30 1274 H 129.009 3.14099 -3.37846 0
M  V30 1275 H 127.252 2.90253 -3.22391 0
M  V30 1276 H 127.923 4.53453 -3.14777 0
M  V30 1277 H 130.399 3.94871 -1.3121 0
M  V30 1278 H 129.275 5.33193 -1.30372 0
M  V30 1279 H 129.536 4.4176 0.173226 0
M  V30 1280 N 128.595 0.856903 1.32268 0
M  V30 1281 C 129.528 0.247937 2.26849 0
M  V30 1282 C 130.506 -0.615382 1.50505 0
M  V30 1283 O 131.69 -0.571689 1.79622 0
M  V30 1284 C 128.817 -0.650093 3.32403 0
M  V30 1285 C 127.863 0.140138 4.2627 0
M  V30 1286 S 128.696 1.51004 5.13769 0
M  V30 1287 C 129.852 0.61778 6.22844 0
M  V30 1288 H 130.085 1.04971 2.78152 0
M  V30 1289 H 127.618 0.654665 1.39834 0
M  V30 1290 H 129.576 -1.16256 3.93694 0
M  V30 1291 H 128.237 -1.4257 2.7988 0
M  V30 1292 H 127.43 -0.543945 5.01056 0
M  V30 1293 H 127.032 0.584267 3.69408 0
M  V30 1294 H 129.324 -0.177053 6.77269 0
M  V30 1295 H 130.267 1.33636 6.95375 0
M  V30 1296 H 130.675 0.191124 5.64176 0
M  V30 1297 N 130.073 -1.45103 0.615059 0
M  V30 1298 C 131.003 -2.33339 -0.0865619 0
M  V30 1299 C 131.984 -1.4727 -0.851209 0
M  V30 1300 O 133.169 -1.76026 -0.820281 0
M  V30 1301 C 130.299 -3.30095 -1.07956 0
M  V30 1302 C 129.253 -4.25858 -0.427628 0
M  V30 1303 C 128.579 -5.12361 -1.5294 0
M  V30 1304 C 129.879 -5.18165 0.655944 0
M  V30 1305 H 131.573 -2.92254 0.650224 0
M  V30 1306 H 129.119 -1.40532 0.314138 0
M  V30 1307 H 131.072 -3.90698 -1.57901 0
M  V30 1308 H 129.796 -2.69355 -1.84703 0
M  V30 1309 H 128.455 -3.66564 0.0510292 0
M  V30 1310 H 128.103 -4.47984 -2.28734 0
M  V30 1311 H 127.803 -5.77238 -1.09865 0
M  V30 1312 H 129.327 -5.75833 -2.03098 0
M  V30 1313 H 130.741 -5.72796 0.240257 0
M  V30 1314 H 129.138 -5.91559 1.00888 0
M  V30 1315 H 130.208 -4.60144 1.52957 0
M  V30 1316 N 131.551 -0.354651 -1.53558 0
M  V30 1317 C 132.514 0.484566 -2.24019 0
M  V30 1318 C 133.514 1.01861 -1.24422 0
M  V30 1319 O 134.704 0.906097 -1.4878 0
M  V30 1320 C 131.836 1.67615 -2.96847 0
M  V30 1321 H 133.029 -0.131843 -2.9961 0
M  V30 1322 H 130.582 -0.106165 -1.55939 0
M  V30 1323 H 131.317 2.33095 -2.25471 0
M  V30 1324 H 131.102 1.30029 -3.69912 0
M  V30 1325 H 132.592 2.27114 -3.50441 0
M  V30 1326 N 133.029 1.57378 -0.0835403 0
M  V30 1327 C 134.277 1.93547 0.581718 0
M  V30 1328 C 134.598 0.96524 1.69435 0
M  V30 1329 O 133.868 0.0153369 1.95894 0
M  V30 1330 H 132.448 0.714521 0.217874 0
M  V30 1331 H 135.11 1.94366 -0.144158 0
M  V30 1332 H 134.206 2.95665 0.999423 0
M  V30 1333 N 134.507 -0.190092 1.56449 0
M  V30 1334 C 135.755 -0.907908 1.80559 0
M  V30 1335 C 136.076 -1.83583 0.657438 0
M  V30 1336 O 135.346 -1.93203 -0.323924 0
M  V30 1337 H 133.926 -0.338247 0.666032 0
M  V30 1338 H 136.588 -0.194403 1.93928 0
M  V30 1339 H 135.684 -1.49604 2.73907 0
M  V30 1340 N 135.985 -1.50799 -0.457987 0
M  V30 1341 C 136.915 -1.73553 -1.5621 0
M  V30 1342 C 137.896 -0.584774 -1.59732 0
M  V30 1343 O 139.081 -0.825314 -1.7579 0
M  V30 1344 C 136.211 -1.84169 -2.94447 0
M  V30 1345 C 135.165 -2.99461 -3.0579 0
M  V30 1346 C 134.491 -2.95235 -4.45803 0
M  V30 1347 C 135.791 -4.39766 -2.81786 0
M  V30 1348 H 137.485 -2.66 -1.37421 0
M  V30 1349 H 135.031 -1.28002 -0.659662 0
M  V30 1350 H 136.984 -1.98672 -3.71628 0
M  V30 1351 H 135.708 -0.883545 -3.14422 0
M  V30 1352 H 134.367 -2.8463 -2.31044 0
M  V30 1353 H 134.015 -1.97239 -4.62715 0
M  V30 1354 H 133.715 -3.72642 -4.54326 0
M  V30 1355 H 135.239 -3.11803 -5.24987 0
M  V30 1356 H 136.653 -4.55054 -3.4871 0
M  V30 1357 H 135.05 -5.18722 -3.0174 0
M  V30 1358 H 136.12 -4.51229 -1.7754 0
M  V30 1359 N 137.463 0.71206 -1.40597 0
M  V30 1360 C 138.393 1.83889 -1.43899 0
M  V30 1361 C 139.374 1.67442 -0.299504 0
M  V30 1362 O 140.559 1.87421 -0.508624 0
M  V30 1363 C 137.689 3.21877 -1.30431 0
M  V30 1364 C 136.643 3.53002 -2.42019 0
M  V30 1365 C 135.969 4.90172 -2.13626 0
M  V30 1366 C 137.269 3.53643 -3.84362 0
M  V30 1367 H 138.963 1.81383 -2.38203 0
M  V30 1368 H 136.509 0.871237 -1.14654 0
M  V30 1369 H 138.462 4.00404 -1.31357 0
M  V30 1370 H 137.186 3.24968 -0.326049 0
M  V30 1371 H 135.845 2.76818 -2.40349 0
M  V30 1372 H 135.493 4.89869 -1.14182 0
M  V30 1373 H 135.193 5.11962 -2.88389 0
M  V30 1374 H 136.717 5.71028 -2.1624 0
M  V30 1375 H 138.131 4.22203 -3.87837 0
M  V30 1376 H 136.528 3.86961 -4.58673 0
M  V30 1377 H 137.598 2.52954 -4.13693 0
M  V30 1378 N 138.941 1.26152 0.944643 0
M  V30 1379 C 139.904 1.07474 2.0244 0
M  V30 1380 C 140.904 0.0242064 1.60782 0
M  V30 1381 O 142.094 0.267302 1.72137 0
M  V30 1382 C 139.226 0.633956 3.34953 0
M  V30 1383 H 140.419 2.03336 2.20442 0
M  V30 1384 H 137.972 1.087 1.12312 0
M  V30 1385 H 138.707 -0.326811 3.22649 0
M  V30 1386 H 138.492 1.39247 3.66542 0
M  V30 1387 H 139.982 0.52501 4.14287 0
M  V30 1388 N 140.419 -1.14872 1.07899 0
M  V30 1389 C 141.644 -1.90202 0.826926 0
M  V30 1390 C 142.069 -1.77774 -0.614664 0
M  V30 1391 O 141.427 -1.11431 -1.43013 0
M  V30 1392 C 141.475 -3.38352 1.24702 0
M  V30 1393 O 140.579 -4.10497 0.39575 0
M  V30 1394 H 139.92 -0.591968 0.300782 0
M  V30 1395 H 142.45 -1.45437 1.43907 0
M  V30 1396 H 142.46 -3.89156 1.22563 0
M  V30 1397 H 141.135 -3.46715 2.29698 0
M  V30 1398 H 139.712 -3.69796 0.480117 0
M  V30 1399 N 141.898 -0.863906 -1.31812 0
M  V30 1400 C 142.861 -0.320212 -2.26952 0
M  V30 1401 C 143.861 0.525369 -1.51975 0
M  V30 1402 O 145.051 0.335547 -1.70938 0
M  V30 1403 C 142.183 0.545919 -3.365 0
M  V30 1404 H 143.376 -1.16004 -2.76556 0
M  V30 1405 H 140.929 -0.638995 -1.42641 0
M  V30 1406 H 141.664 1.40718 -2.92179 0
M  V30 1407 H 141.449 -0.0594674 -3.92055 0
M  V30 1408 H 142.939 0.918796 -4.07367 0
M  V30 1409 N 143.376 1.44774 -0.622745 0
M  V30 1410 C 144.624 2.01721 -0.123655 0
M  V30 1411 C 144.945 1.49172 1.25589 0
M  V30 1412 O 144.215 0.691974 1.83272 0
M  V30 1413 H 142.795 0.745777 -0.0427225 0
M  V30 1414 H 145.457 1.77382 -0.807559 0
M  V30 1415 H 144.553 3.11984 -0.0849534 0
M  V30 1416 N 144.854 0.36279 1.53368 0
M  V30 1417 C 145.787 -0.528507 2.21996 0
M  V30 1418 C 146.765 -1.0852 1.21087 0
M  V30 1419 O 147.949 -1.14186 1.4998 0
M  V30 1420 C 145.076 -1.72893 2.91249 0
M  V30 1421 C 144.122 -1.29994 4.06207 0
M  V30 1422 S 144.955 -0.303575 5.34639 0
M  V30 1423 C 146.111 -1.51039 6.07403 0
M  V30 1424 H 146.344 0.0543423 2.9725 0
M  V30 1425 H 143.877 0.146889 1.537 0
M  V30 1426 H 145.835 -2.41751 3.31763 0
M  V30 1427 H 144.496 -2.28303 2.15724 0
M  V30 1428 H 143.689 -2.19549 4.53667 0
M  V30 1429 H 143.291 -0.690608 3.67569 0
M  V30 1430 H 145.583 -2.44186 6.31965 0
M  V30 1431 H 146.526 -1.07721 6.99858 0
M  V30 1432 H 146.934 -1.71518 5.37812 0
M  V30 1433 N 146.332 -1.57332 0.0918853 0
M  V30 1434 C 147.581 -1.93412 -0.572249 0
M  V30 1435 C 147.894 -0.975515 -1.69538 0
M  V30 1436 O 149.1 -1.22991 -2.42045 0
M  V30 1437 C 147.556 -3.43648 -1.0693 0
M  V30 1438 C 147.164 -4.47994 0.0239049 0
M  V30 1439 C 148.908 -3.88695 -1.70635 0
M  V30 1440 C 146.815 -5.89381 -0.488319 0
M  V30 1441 H 145.745 -0.721939 -0.217532 0
M  V30 1442 H 148.396 -1.82735 0.167369 0
M  V30 1443 H 146.778 -3.49466 -1.8625 0
M  V30 1444 H 147.952 -4.53815 0.799277 0
M  V30 1445 H 146.267 -4.12536 0.565946 0
M  V30 1446 H 148.864 -4.91725 -2.10025 0
M  V30 1447 H 149.207 -3.27166 -2.57426 0
M  V30 1448 H 149.74 -3.85564 -0.979023 0
M  V30 1449 H 146.479 -6.54602 0.342906 0
M  V30 1450 H 145.999 -5.87037 -1.23077 0
M  V30 1451 H 147.678 -6.39863 -0.958317 0
M  V30 1452 N 147.81 0.181792 -1.56548 0
M  V30 1453 C 148.74 1.22765 -1.98623 0
M  V30 1454 C 149.721 1.46747 -0.860189 0
M  V30 1455 O 150.906 1.58259 -1.12551 0
M  V30 1456 C 148.036 2.56894 -2.33715 0
M  V30 1457 C 146.99 2.475 -3.49182 0
M  V30 1458 C 146.316 3.86023 -3.69986 0
M  V30 1459 C 147.616 1.98866 -4.82959 0
M  V30 1460 H 149.31 0.877942 -2.86239 0
M  V30 1461 H 146.856 0.42088 -1.37712 0
M  V30 1462 H 148.809 3.30253 -2.61746 0
M  V30 1463 H 147.533 2.93632 -1.42997 0
M  V30 1464 H 146.192 1.76596 -3.21262 0
M  V30 1465 H 145.84 4.20136 -2.76576 0
M  V30 1466 H 145.54 3.80609 -4.47672 0
M  V30 1467 H 147.064 4.60984 -4.00407 0
M  V30 1468 H 148.478 2.61992 -5.09934 0
M  V30 1469 H 146.875 2.04424 -5.64208 0
M  V30 1470 H 147.945 0.942465 -4.75653 0
M  V30 1471 N 149.288 1.51039 0.449983 0
M  V30 1472 C 150.251 1.70863 1.5277 0
M  V30 1473 C 151.251 0.578846 1.5002 0
M  V30 1474 O 152.441 0.846213 1.52266 0
M  V30 1475 C 149.573 1.75341 2.9235 0
M  V30 1476 H 150.766 2.67034 1.36502 0
M  V30 1477 H 148.319 1.40838 0.677812 0
M  V30 1478 H 149.054 0.809383 3.14037 0
M  V30 1479 H 148.839 2.57436 2.95752 0
M  V30 1480 H 150.329 1.92559 3.70555 0
M  V30 1481 N 150.766 -0.704594 1.40972 0
M  V30 1482 C 151.991 -1.49858 1.43378 0
M  V30 1483 C 152.416 -1.88061 0.038184 0
M  V30 1484 O 151.774 -1.5402 -0.956425 0
M  V30 1485 C 151.822 -2.74333 2.34038 0
M  V30 1486 O 150.926 -3.7147 1.7912 0
M  V30 1487 H 150.267 -0.45139 0.486974 0
M  V30 1488 H 152.797 -0.866832 1.8533 0
M  V30 1489 H 152.807 -3.22741 2.49604 0
M  V30 1490 H 151.482 -2.45863 3.35446 0
M  V30 1491 H 150.059 -3.30363 1.72958 0
M  V30 1492 N 152.244 -1.26651 -0.937939 0
M  V30 1493 C 153.491 -1.12387 -1.6845 0
M  V30 1494 C 153.819 0.332208 -1.91642 0
M  V30 1495 O 153.074 1.2602 -1.49725 0
M  V30 1496 C 153.373 -1.84168 -3.06295 0
M  V30 1497 C 153.039 -3.34056 -3.02849 0
M  V30 1498 C 151.701 -3.74942 -3.01616 0
M  V30 1499 C 154.053 -4.29741 -2.9491 0
M  V30 1500 C 151.381 -5.09894 -2.90215 0
M  V30 1501 C 153.733 -5.64738 -2.8505 0
M  V30 1502 C 152.397 -6.0493 -2.82162 0
M  V30 1503 H 151.667 -0.411252 -0.616403 0
M  V30 1504 H 154.314 -1.57134 -1.09459 0
M  V30 1505 H 152.619 -1.319 -3.6893 0
M  V30 1506 H 154.316 -1.70569 -3.62915 0
M  V30 1507 H 150.906 -3.01534 -3.0459 0
M  V30 1508 H 155.09 -3.99133 -2.94969 0
M  V30 1509 H 150.346 -5.40194 -2.86358 0
M  V30 1510 H 154.52 -6.38561 -2.77872 0
M  V30 1511 H 152.147 -7.09457 -2.73084 0
M  V30 1512 N 153.722 1.14298 -1.08507 0
M  V30 1513 C 154.685 2.17607 -0.719711 0
M  V30 1514 C 155.685 1.58907 0.245997 0
M  V30 1515 O 156.875 1.74181 0.0254081 0
M  V30 1516 C 154.007 3.40842 -0.0627695 0
M  V30 1517 H 155.2 2.51443 -1.63452 0
M  V30 1518 H 152.753 1.28963 -0.88307 0
M  V30 1519 H 153.488 3.12587 0.863716 0
M  V30 1520 H 153.273 3.84713 -0.757504 0
M  V30 1521 H 154.763 4.17221 0.177786 0
M  V30 1522 N 155.201 0.870884 1.31352 0
M  V30 1523 C 156.429 0.49677 2.00848 0
M  V30 1524 C 156.844 -0.910998 1.65367 0
M  V30 1525 O 156.201 -1.59696 0.883374 0
M  V30 1526 C 156.252 0.645308 3.55694 0
M  V30 1527 O 155.973 1.99764 3.89905 0
M  V30 1528 C 157.474 0.272326 4.42463 0
M  V30 1529 H 154.694 0.193462 0.642506 0
M  V30 1530 H 157.238 1.1723 1.67563 0
M  V30 1531 H 155.393 0.0173176 3.87396 0
M  V30 1532 H 155.807 2.00607 4.84621 0
M  V30 1533 H 157.281 0.427208 5.50344 0
M  V30 1534 H 157.758 -0.788587 4.32062 0
M  V30 1535 H 158.364 0.876054 4.1618 0
M  V30 1536 N 156.679 -1.44442 0.630414 0
M  V30 1537 C 158.095 -1.56832 0.295973 0
M  V30 1538 C 158.295 -1.61806 -1.20088 0
M  V30 1539 O 157.351 -1.5607 -1.9849 0
M  V30 1540 C 158.664 -2.84031 0.987264 0
M  V30 1541 C 160.212 -2.97742 0.96534 0
M  V30 1542 C 160.687 -4.27743 1.63708 0
M  V30 1543 N 162.178 -4.34555 1.60364 0
M  V30 1544 C 162.913 -5.33862 2.09234 0
M  V30 1545 N 162.409 -6.39578 2.66292 0
M  V30 1546 N 164.202 -5.25366 1.99867 0
M  V30 1547 H 156.353 -1.39457 1.60205 0
M  V30 1548 H 158.616 -0.668237 0.672431 0
M  V30 1549 H 158.322 -2.86338 2.04215 0
M  V30 1550 H 158.196 -3.73534 0.524588 0
M  V30 1551 H 160.583 -2.94989 -0.0810639 0
M  V30 1552 H 160.664 -2.09589 1.4665 0
M  V30 1553 H 160.308 -4.31255 2.68293 0
M  V30 1554 H 160.238 -5.14752 1.11076 0
M  V30 1555 H 162.729 -3.58772 1.18705 0
M  V30 1556 H 163.042 -7.11637 3.01317 0
M  V30 1557 H 161.387 -6.40265 2.70343 0
M  V30 1558 H 164.578 -4.41688 1.55013 0
M  V30 1559 H 164.751 -6.02606 2.38265 0
M  V30 1560 N 158.157 -0.370918 -1.53173 0
M  V30 1561 C 159.087 0.464847 -2.28826 0
M  V30 1562 C 160.068 1.07936 -1.31468 0
M  V30 1563 O 161.253 1.0956 -1.60344 0
M  V30 1564 C 158.383 1.60196 -3.08147 0
M  V30 1565 C 157.337 1.11443 -4.13237 0
M  V30 1566 C 156.663 2.3422 -4.80672 0
M  V30 1567 C 157.963 0.195384 -5.21934 0
M  V30 1568 H 159.657 -0.166329 -2.98938 0
M  V30 1569 H 157.203 -0.0814359 -1.4377 0
M  V30 1570 H 159.156 2.19332 -3.59822 0
M  V30 1571 H 157.88 2.26045 -2.35735 0
M  V30 1572 H 156.539 0.545727 -3.62515 0
M  V30 1573 H 156.187 2.98537 -4.04827 0
M  V30 1574 H 155.887 2.02269 -5.51689 0
M  V30 1575 H 157.411 2.94032 -5.35143 0
M  V30 1576 H 158.825 0.694375 -5.69079 0
M  V30 1577 H 157.222 -0.0335027 -6.00091 0
M  V30 1578 H 158.292 -0.760961 -4.78892 0
M  V30 1579 N 159.635 1.57281 -0.100228 0
M  V30 1580 C 160.565 2.17328 0.853857 0
M  V30 1581 C 161.546 1.10804 1.2906 0
M  V30 1582 O 162.731 1.38963 1.35657 0
M  V30 1583 C 159.861 2.75772 2.11109 0
M  V30 1584 C 158.815 3.87713 1.81279 0
M  V30 1585 C 158.141 4.32882 3.13874 0
M  V30 1586 C 159.441 5.10677 1.09574 0
M  V30 1587 H 161.135 2.97305 0.353545 0
M  V30 1588 H 158.681 1.43009 0.168612 0
M  V30 1589 H 160.634 3.16433 2.78296 0
M  V30 1590 H 159.358 1.93057 2.63432 0
M  V30 1591 H 158.017 3.476 1.16489 0
M  V30 1592 H 157.665 3.47051 3.64095 0
M  V30 1593 H 157.365 5.08358 2.94696 0
M  V30 1594 H 158.889 4.7618 3.82211 0
M  V30 1595 H 160.303 5.48474 1.66879 0
M  V30 1596 H 158.7 5.91615 1.00557 0
M  V30 1597 H 159.77 4.84835 0.0793299 0
M  V30 1598 N 161.113 -0.173488 1.56642 0
M  V30 1599 C 162.023 -1.23482 1.99473 0
M  V30 1600 C 163.039 -1.48567 0.905752 0
M  V30 1601 O 164.215 -1.60758 1.21321 0
M  V30 1602 C 161.28 -2.55444 2.34413 0
M  V30 1603 C 160.341 -2.38241 3.57127 0
M  V30 1604 C 159.574 -3.63909 3.90392 0
M  V30 1605 O 159.797 -4.68996 3.24653 0
M  V30 1606 O 158.731 -3.58149 4.83749 0
M  V30 1607 H 162.557 -0.901279 2.90018 0
M  V30 1608 H 160.142 -0.380185 1.44482 0
M  V30 1609 H 162.024 -3.33292 2.57865 0
M  V30 1610 H 160.699 -2.88382 1.4703 0
M  V30 1611 H 159.606 -1.58431 3.38896 0
M  V30 1612 H 160.939 -2.10228 4.45045 0
M  V30 1613 N 162.591 -1.51276 -0.441967 0
M  V30 1614 C 163.521 -1.752 -1.54361 0
M  V30 1615 C 164.502 -0.601682 -1.59103 0
M  V30 1616 O 165.687 -0.843913 -1.74905 0
M  V30 1617 C 162.817 -1.87282 -2.92477 0
M  V30 1618 C 161.771 -3.02687 -3.02596 0
M  V30 1619 C 161.097 -2.99947 -4.42647 0
M  V30 1620 C 162.397 -4.4273 -2.77106 0
M  V30 1621 H 164.091 -2.67442 -1.34592 0
M  V30 1622 H 161.637 -1.28694 -0.646048 0
M  V30 1623 H 163.59 -2.02602 -3.695 0
M  V30 1624 H 162.314 -0.916844 -3.13467 0
M  V30 1625 H 160.973 -2.87065 -2.28012 0
M  V30 1626 H 160.621 -2.02136 -4.60597 0
M  V30 1627 H 160.321 -3.77439 -4.50348 0
M  V30 1628 H 161.845 -3.17354 -5.2165 0
M  V30 1629 H 163.259 -4.58727 -3.43864 0
M  V30 1630 H 161.656 -5.21893 -2.96222 0
M  V30 1631 H 162.726 -4.53087 -1.72744 0
M  V30 1632 N 164.069 0.697108 -1.41344 0
M  V30 1633 C 165.299 1.48377 -1.43763 0
M  V30 1634 C 165.707 1.89156 -0.0408726 0
M  V30 1635 O 165.05 1.57239 0.949812 0
M  V30 1636 C 165.112 2.7781 -2.2817 0
M  V30 1637 C 164.776 2.59244 -3.76353 0
M  V30 1638 C 165.773 2.25292 -4.68551 0
M  V30 1639 C 163.458 2.74933 -4.20378 0
M  V30 1640 C 165.452 2.07264 -6.02761 0
M  V30 1641 C 163.139 2.56521 -5.54653 0
M  V30 1642 C 164.137 2.22737 -6.4566 0
M  V30 1643 O 163.825 2.04485 -7.77458 0
M  V30 1644 H 163.557 0.463842 -0.491759 0
M  V30 1645 H 166.111 0.865934 -1.86255 0
M  V30 1646 H 164.341 3.41995 -1.8049 0
M  V30 1647 H 166.03 3.39608 -2.22309 0
M  V30 1648 H 166.796 2.12787 -4.35829 0
M  V30 1649 H 162.675 3.00213 -3.49848 0
M  V30 1650 H 166.219 1.80817 -6.73759 0
M  V30 1651 H 162.116 2.68616 -5.86955 0
M  V30 1652 H 162.884 2.1926 -7.88586 0
M  V30 1653 N 165.547 1.27147 0.931209 0
M  V30 1654 C 166.477 1.12081 2.04842 0
M  V30 1655 C 167.458 0.0232364 1.70084 0
M  V30 1656 O 168.643 0.197085 1.93197 0
M  V30 1657 C 165.773 0.76354 3.38803 0
M  V30 1658 C 164.727 1.81396 3.87659 0
M  V30 1659 C 164.053 1.31075 5.18385 0
M  V30 1660 C 165.353 3.21739 4.11438 0
M  V30 1661 H 167.047 2.05537 2.17703 0
M  V30 1662 H 164.593 0.989603 1.04608 0
M  V30 1663 H 166.546 0.644982 4.16435 0
M  V30 1664 H 165.27 -0.206727 3.25945 0
M  V30 1665 H 163.929 1.92136 3.12217 0
M  V30 1666 H 163.577 0.330037 5.01916 0
M  V30 1667 H 163.277 2.013 5.52044 0
M  V30 1668 H 164.801 1.20506 5.98591 0
M  V30 1669 H 166.215 3.14019 4.79651 0
M  V30 1670 H 164.612 3.89644 4.56397 0
M  V30 1671 H 165.682 3.67054 3.16859 0
M  V30 1672 N 167.025 -1.13721 1.09112 0
M  V30 1673 C 168.253 -1.88773 0.846899 0
M  V30 1674 C 168.668 -1.7896 -0.601572 0
M  V30 1675 O 168.025 -1.15394 -1.41388 0
M  V30 1676 C 168.076 -3.3849 1.26913 0
M  V30 1677 O 167.797 -3.48043 2.66079 0
M  V30 1678 C 169.298 -4.30518 1.05682 0
M  V30 1679 H 166.518 -0.59772 0.304914 0
M  V30 1680 H 169.062 -1.43977 1.45227 0
M  V30 1681 H 167.217 -3.80881 0.707723 0
M  V30 1682 H 167.631 -4.4109 2.83795 0
M  V30 1683 H 169.105 -5.3391 1.40156 0
M  V30 1684 H 169.582 -4.392 -0.00563416 0
M  V30 1685 H 170.188 -3.93893 1.60402 0
M  V30 1686 N 168.503 -0.877838 -1.30888 0
M  V30 1687 C 169.466 -0.344265 -2.266 0
M  V30 1688 C 170.466 0.50922 -1.52524 0
M  V30 1689 O 171.656 0.317398 -1.71284 0
M  V30 1690 C 168.788 0.510198 -3.37061 0
M  V30 1691 H 169.981 -1.1893 -2.7531 0
M  V30 1692 H 167.534 -0.654088 -1.41956 0
M  V30 1693 H 168.269 1.37612 -2.93655 0
M  V30 1694 H 168.054 -0.101047 -3.9197 0
M  V30 1695 H 169.544 0.875537 -4.08319 0
M  V30 1696 N 169.982 1.44106 -0.638065 0
M  V30 1697 C 171.23 2.01579 -0.145043 0
M  V30 1698 C 171.551 1.50496 1.24 0
M  V30 1699 O 170.821 0.711374 1.82527 0
M  V30 1700 H 169.401 0.745282 -0.05063 0
M  V30 1701 H 172.063 1.76516 -0.826327 0
M  V30 1702 H 171.159 3.11877 -0.118039 0
M  V30 1703 N 171.46 0.379036 1.52974 0
M  V30 1704 C 172.706 -0.206727 2.01744 0
M  V30 1705 C 173.039 -1.47314 1.26539 0
M  V30 1706 O 172.314 -1.91084 0.362903 0
M  V30 1707 C 172.597 -0.485066 3.56818 0
M  V30 1708 C 172.45 0.795919 4.42702 0
M  V30 1709 C 173.769 -1.28003 4.21074 0
M  V30 1710 H 170.888 -0.0736607 0.73331 0
M  V30 1711 H 173.53 0.506581 1.83122 0
M  V30 1712 H 171.68 -1.09272 3.72816 0
M  V30 1713 H 173.352 1.43307 4.38476 0
M  V30 1714 H 171.595 1.41344 4.10127 0
M  V30 1715 H 172.266 0.555947 5.49193 0
M  V30 1716 H 174.742 -0.765867 4.08991 0
M  V30 1717 H 173.618 -1.44352 5.29579 0
M  V30 1718 H 173.879 -2.29236 3.78026 0
M  V30 1719 N 172.938 -1.57226 0.108567 0
M  V30 1720 C 173.868 -2.17778 -0.84232 0
M  V30 1721 C 174.849 -1.11487 -1.2847 0
M  V30 1722 O 176.034 -1.39681 -1.34918 0
M  V30 1723 C 173.164 -2.76888 -2.09644 0
M  V30 1724 C 172.118 -3.88669 -1.79221 0
M  V30 1725 C 171.444 -4.34541 -3.11574 0
M  V30 1726 C 172.744 -5.11251 -1.06864 0
M  V30 1727 H 174.438 -2.97489 -0.337774 0
M  V30 1728 H 171.984 -1.43097 -0.161025 0
M  V30 1729 H 173.937 -3.17904 -2.76614 0
M  V30 1730 H 172.661 -1.94451 -2.62405 0
M  V30 1731 H 171.32 -3.48213 -1.14644 0
M  V30 1732 H 170.968 -3.48977 -3.62249 0
M  V30 1733 H 170.668 -5.09914 -2.91996 0
M  V30 1734 H 172.192 -4.782 -3.7968 0
M  V30 1735 H 173.606 -5.49352 -1.63968 0
M  V30 1736 H 172.003 -5.9214 -0.974178 0
M  V30 1737 H 173.073 -4.8487 -0.0536168 0
M  V30 1738 N 174.416 0.165178 -1.56732 0
M  V30 1739 C 175.644 0.896218 -1.86482 0
M  V30 1740 C 176.059 1.75555 -0.694675 0
M  V30 1741 O 175.416 1.79379 0.33607 0
M  V30 1742 C 175.467 1.76792 -3.1532 0
M  V30 1743 O 175.188 0.943239 -4.27825 0
M  V30 1744 C 176.689 2.6081 -3.58459 0
M  V30 1745 H 173.909 0.260064 -0.618553 0
M  V30 1746 H 176.453 0.163428 -2.03846 0
M  V30 1747 H 174.608 2.45398 -2.99764 0
M  V30 1748 H 175.022 1.53998 -5.01383 0
M  V30 1749 H 176.496 3.17579 -4.51495 0
M  V30 1750 H 176.973 3.35977 -2.82872 0
M  V30 1751 H 177.579 1.97526 -3.76648 0
M  V30 1752 N 175.894 1.51508 0.433938 0
M  V30 1753 C 177.142 1.6402 1.18075 0
M  V30 1754 C 177.463 0.360328 1.91642 0
M  V30 1755 O 176.733 -0.623945 1.85698 0
M  V30 1756 H 175.313 0.6045 0.43885 0
M  V30 1757 H 177.975 1.88452 0.497178 0
M  V30 1758 H 177.071 2.46949 1.90847 0
M  V30 1759 N 177.372 -0.689602 1.41712 0
M  V30 1760 C 178.302 -1.81577 1.46806 0
M  V30 1761 C 179.283 -1.66945 0.326105 0
M  V30 1762 O 180.468 -1.86588 0.538377 0
M  V30 1763 C 177.598 -3.19762 1.35535 0
M  V30 1764 C 176.552 -3.49107 2.47605 0
M  V30 1765 C 175.878 -4.86711 2.21397 0
M  V30 1766 C 177.178 -3.47483 3.89939 0
M  V30 1767 H 178.872 -1.7757 2.41058 0
M  V30 1768 H 176.418 -0.852887 1.16025 0
M  V30 1769 H 178.371 -3.98263 1.3771 0
M  V30 1770 H 177.095 -3.24409 0.377708 0
M  V30 1771 H 175.754 -2.72959 2.44722 0
M  V30 1772 H 175.402 -4.8799 1.21961 0
M  V30 1773 H 175.102 -5.0731 2.96497 0
M  V30 1774 H 176.626 -5.67515 2.25297 0
M  V30 1775 H 178.04 -4.1598 3.94505 0
M  V30 1776 H 176.437 -3.79615 4.64771 0
M  V30 1777 H 177.507 -2.46341 4.17665 0
M  V30 1778 N 178.85 -1.27639 -0.924453 0
M  V30 1779 C 180.098 -1.13941 -1.66918 0
M  V30 1780 C 180.419 0.314589 -1.92446 0
M  V30 1781 O 179.689 1.21964 -1.53303 0
M  V30 1782 H 178.269 -0.418678 -0.618642 0
M  V30 1783 H 180.931 -1.60213 -1.10985 0
M  V30 1784 H 180.027 -1.67094 -2.63602 0
M  V30 1785 N 180.328 1.1314 -1.09713 0
M  V30 1786 C 181.258 2.20748 -0.761102 0
M  V30 1787 C 182.239 1.68061 0.262566 0
M  V30 1788 O 183.424 1.93765 0.129977 0
M  V30 1789 C 180.554 3.46812 -0.184054 0
M  V30 1790 C 179.508 4.12606 -1.13757 0
M  V30 1791 C 178.834 5.33031 -0.422083 0
M  V30 1792 C 180.134 4.59603 -2.48118 0
M  V30 1793 H 181.828 2.49113 -1.66082 0
M  V30 1794 H 179.374 1.19734 -0.799987 0
M  V30 1795 H 181.327 4.21353 0.0631215 0
M  V30 1796 H 180.051 3.17851 0.750868 0
M  V30 1797 H 178.71 3.40036 -1.37007 0
M  V30 1798 H 178.358 5.00335 0.517072 0
M  V30 1799 H 178.058 5.77999 -1.05788 0
M  V30 1800 H 179.582 6.10325 -0.183277 0
M  V30 1801 H 180.996 5.25552 -2.29059 0
M  V30 1802 H 179.393 5.15321 -3.07514 0
M  V30 1803 H 180.463 3.73971 -3.08665 0
M  V30 1804 N 181.806 0.884767 1.30421 0
M  V30 1805 C 182.769 0.356277 2.26414 0
M  V30 1806 C 183.769 -0.501124 1.52792 0
M  V30 1807 O 184.959 -0.30831 1.7145 0
M  V30 1808 C 182.091 -0.492316 3.37326 0
M  V30 1809 H 183.284 1.20389 2.74675 0
M  V30 1810 H 180.837 0.661607 1.41607 0
M  V30 1811 H 181.572 -1.36052 2.94381 0
M  V30 1812 H 181.357 0.121832 3.91911 0
M  V30 1813 H 182.847 -0.853871 4.08777 0
M  V30 1814 N 183.284 -1.43765 0.645699 0
M  V30 1815 C 184.214 -2.33471 -0.0370477 0
M  V30 1816 C 185.195 -1.49042 -0.819779 0
M  V30 1817 O 186.38 -1.77726 -0.782758 0
M  V30 1818 C 183.51 -3.32311 -1.0093 0
M  V30 1819 C 182.464 -4.2667 -0.337201 0
M  V30 1820 C 181.79 -5.1549 -1.42037 0
M  V30 1821 C 183.09 -5.16657 0.765706 0
M  V30 1822 H 184.784 -2.90809 0.712069 0
M  V30 1823 H 182.33 -1.39834 0.343876 0
M  V30 1824 H 184.283 -3.9396 -1.49578 0
M  V30 1825 H 183.007 -2.73213 -1.78948 0
M  V30 1826 H 181.666 -3.66374 0.128771 0
M  V30 1827 H 181.314 -4.52735 -2.1918 0
M  V30 1828 H 181.014 -5.79438 -0.975966 0
M  V30 1829 H 182.538 -5.80012 -1.90838 0
M  V30 1830 H 183.952 -5.72158 0.361702 0
M  V30 1831 H 182.349 -5.89286 1.13413 0
M  V30 1832 H 183.419 -4.56796 1.62683 0
M  V30 1833 N 184.763 -0.387143 -1.52771 0
M  V30 1834 C 185.711 0.463953 -2.27926 0
M  V30 1835 C 186.705 1.06493 -1.31741 0
M  V30 1836 O 187.911 1.00565 -1.49287 0
M  V30 1837 H 184.286 0.16837 -0.732909 0
M  V30 1838 H 186.257 -0.19141 -2.97785 0
M  V30 1839 C 185.006 1.5803 -3.09713 0
M  V30 1840 H 184.329 1.12718 -3.83581 0
M  V30 1841 H 185.769 2.15008 -3.65442 0
M  V30 1842 C 184.228 2.53509 -2.2189 0
M  V30 1843 O 184.758 3.56863 -1.84422 0
M  V30 1844 N 182.964 2.23199 -1.86093 0
M  V30 1845 H 182.511 1.39185 -2.16761 0
M  V30 1846 H 182.469 2.87333 -1.27621 0
M  V30 1847 N 186.241 1.57166 -0.116904 0
M  V30 1848 C 187.488 1.95123 0.541603 0
M  V30 1849 C 187.816 1.00006 1.6682 0
M  V30 1850 O 187.071 0.0235658 1.95686 0
M  V30 1851 C 187.37 3.39508 1.11664 0
M  V30 1852 C 187.036 4.50762 0.111606 0
M  V30 1853 C 185.698 4.80918 -0.164758 0
M  V30 1854 C 188.05 5.18036 -0.573438 0
M  V30 1855 C 185.378 5.75666 -1.13249 0
M  V30 1856 C 187.73 6.13824 -1.52978 0
M  V30 1857 C 186.394 6.42374 -1.81415 0
M  V30 1858 H 185.664 0.714005 0.198187 0
M  V30 1859 H 188.311 1.9048 -0.197365 0
M  V30 1860 H 186.616 3.40835 1.93232 0
M  V30 1861 H 188.313 3.66189 1.63422 0
M  V30 1862 H 184.903 4.27272 0.337192 0
M  V30 1863 H 189.087 4.94896 -0.373092 0
M  V30 1864 H 184.343 5.96092 -1.35958 0
M  V30 1865 H 188.517 6.65039 -2.06629 0
M  V30 1866 H 186.144 7.15599 -2.56557 0
M  V30 1867 N 187.719 -0.156864 1.56817 0
M  V30 1868 C 188.651 -1.21883 1.94106 0
M  V30 1869 C 189.664 -1.3971 0.835754 0
M  V30 1870 O 190.853 -1.39457 1.11418 0
M  V30 1871 C 187.953 -2.58527 2.19127 0
M  V30 1872 C 187.126 -2.61809 3.50393 0
M  V30 1873 C 186.185 -3.7992 3.64071 0
M  V30 1874 O 185.211 -3.65249 4.36557 0
M  V30 1875 N 186.413 -4.96973 2.99997 0
M  V30 1876 H 189.178 -0.901974 2.85805 0
M  V30 1877 H 186.739 -0.346513 1.58148 0
M  V30 1878 H 188.731 -3.36034 2.25529 0
M  V30 1879 H 187.301 -2.82545 1.33742 0
M  V30 1880 H 186.521 -1.7029 3.5552 0
M  V30 1881 H 187.809 -2.61024 4.36742 0
M  V30 1882 H 187.207 -5.11794 2.41004 0
M  V30 1883 H 185.764 -5.7229 3.11974 0
M  V30 1884 N 189.197 -1.51736 -0.425897 0
M  V30 1885 C 190.608 -1.5732 -1.00536 0
M  V30 1886 C 190.959 -0.403537 -1.92005 0
M  V30 1887 O 190.084 0.478256 -2.11049 0
M  V30 1888 C 190.679 -2.85119 -1.8301 0
M  V30 1889 C 189.238 -2.93236 -2.35987 0
M  V30 1890 C 188.385 -2.52098 -1.15508 0
M  V30 1891 H 191.336 -1.57348 -0.206739 0
M  V30 1892 H 191.357 -2.69526 -2.68581 0
M  V30 1893 H 190.869 -3.7023 -1.16411 0
M  V30 1894 H 188.97 -2.12581 -3.06007 0
M  V30 1895 H 189.083 -3.9713 -2.68001 0
M  V30 1896 H 187.447 -2.05558 -1.50393 0
M  V30 1897 H 188.23 -3.39565 -0.505014 0
M  V30 1898 N 190.675 0.682077 -1.42076 0
M  V30 1899 C 191.9 1.47558 -1.45744 0
M  V30 1900 C 192.325 1.87977 -0.0680981 0
M  V30 1901 O 191.683 1.55522 0.9318 0
M  V30 1902 C 191.731 2.70575 -2.38373 0
M  V30 1903 O 190.835 3.68573 -1.85007 0
M  V30 1904 H 190.176 0.443585 -0.494093 0
M  V30 1905 H 192.706 0.837238 -1.86686 0
M  V30 1906 H 192.716 3.18729 -2.54707 0
M  V30 1907 H 191.391 2.40495 -3.39315 0
M  V30 1908 H 189.968 3.2757 -1.78192 0
M  V30 1909 N 192.153 1.28127 0.917671 0
M  V30 1910 C 193.083 1.14248 2.03641 0
M  V30 1911 C 194.064 0.0412748 1.7005 0
M  V30 1912 O 195.249 0.217566 1.92977 0
M  V30 1913 C 192.379 0.799431 3.37974 0
M  V30 1914 C 191.333 1.85497 3.85713 0
M  V30 1915 C 190.659 1.36565 5.16966 0
M  V30 1916 C 191.959 3.26085 4.08002 0
M  V30 1917 H 193.653 2.07835 2.15511 0
M  V30 1918 H 191.199 1.00064 1.03553 0
M  V30 1919 H 193.152 0.689114 4.15727 0
M  V30 1920 H 191.876 -0.172145 3.26146 0
M  V30 1921 H 190.535 1.95437 3.10161 0
M  V30 1922 H 190.183 0.383253 5.01538 0
M  V30 1923 H 189.883 2.07143 5.49878 0
M  V30 1924 H 191.407 1.26848 5.97279 0
M  V30 1925 H 192.821 3.19089 4.76293 0
M  V30 1926 H 191.218 3.94462 4.52238 0
M  V30 1927 H 192.288 3.70394 3.12948 0
M  V30 1928 N 193.631 -1.12557 1.10312 0
M  V30 1929 C 194.88 -1.83395 0.839588 0
M  V30 1930 C 195.193 -1.84939 -0.636929 0
M  V30 1931 O 196.399 -2.51761 -1.01631 0
M  V30 1932 C 194.855 -3.29303 1.45215 0
M  V30 1933 C 194.463 -3.36122 2.96186 0
M  V30 1934 C 196.207 -4.05121 1.26796 0
M  V30 1935 C 194.114 -4.76357 3.50483 0
M  V30 1936 H 193.044 -0.687133 0.310425 0
M  V30 1937 H 195.695 -1.26746 1.32694 0
M  V30 1938 H 194.077 -3.85812 0.892469 0
M  V30 1939 H 195.251 -2.89559 3.58458 0
M  V30 1940 H 193.566 -2.73776 3.13745 0
M  V30 1941 H 196.163 -5.08668 1.64806 0
M  V30 1942 H 196.506 -4.15773 0.209409 0
M  V30 1943 H 197.039 -3.54967 1.79563 0
M  V30 1944 H 193.778 -4.70899 4.55998 0
M  V30 1945 H 193.298 -5.23377 2.92978 0
M  V30 1946 H 194.977 -5.45294 3.48228 0
M  V30 1947 N 195.109 -0.891671 -1.2995 0
M  V30 1948 C 196.042 -0.307994 -2.26112 0
M  V30 1949 C 197.02 0.575262 -1.52084 0
M  V30 1950 O 198.204 0.523864 -1.81074 0
M  V30 1951 C 195.331 0.561734 -3.34009 0
M  V30 1952 C 194.377 -0.253107 -4.25748 0
M  V30 1953 S 195.21 -1.64572 -5.09584 0
M  V30 1954 C 196.366 -0.782699 -6.20987 0
M  V30 1955 H 196.599 -1.12309 -2.75271 0
M  V30 1956 H 194.132 -0.691509 -1.38049 0
M  V30 1957 H 196.09 1.05777 -3.96638 0
M  V30 1958 H 194.751 1.35099 -2.83561 0
M  V30 1959 H 193.944 0.410908 -5.02322 0
M  V30 1960 H 193.546 -0.682004 -3.67729 0
M  V30 1961 H 195.838 -0.00257476 -6.775 0
M  V30 1962 H 196.781 -1.52026 -6.91588 0
M  V30 1963 H 197.189 -0.340638 -5.63471 0
M  V30 1964 N 196.587 1.43421 -0.653314 0
M  V30 1965 C 197.517 2.33487 0.0246656 0
M  V30 1966 C 198.498 1.49475 0.811863 0
M  V30 1967 O 199.683 1.78139 0.773322 0
M  V30 1968 C 196.813 3.32841 0.99166 0
M  V30 1969 C 195.767 4.26842 0.314568 0
M  V30 1970 C 195.093 5.16236 1.39302 0
M  V30 1971 C 196.393 5.16243 -0.793095 0
M  V30 1972 H 198.087 2.90427 -0.727481 0
M  V30 1973 H 195.633 1.39649 -0.351287 0
M  V30 1974 H 197.586 3.94747 1.47487 0
M  V30 1975 H 196.31 2.74158 1.77497 0
M  V30 1976 H 194.969 3.663 -0.148199 0
M  V30 1977 H 194.617 4.53891 2.16776 0
M  V30 1978 H 194.317 5.79948 0.945223 0
M  V30 1979 H 195.841 5.81015 1.87759 0
M  V30 1980 H 197.255 5.71958 -0.392039 0
M  V30 1981 H 195.652 5.88676 -1.16536 0
M  V30 1982 H 196.722 4.55927 -1.65103 0
M  V30 1983 N 198.065 0.39524 1.52563 0
M  V30 1984 C 199.313 -0.184678 2.01254 0
M  V30 1985 C 199.634 -1.46822 1.28329 0
M  V30 1986 O 198.904 -1.91666 0.405094 0
M  V30 1987 H 197.484 -0.0712355 0.743596 0
M  V30 1988 H 200.146 0.528293 1.87603 0
M  V30 1989 H 199.242 -0.390681 3.09645 0
M  V30 1990 N 199.544 -1.57102 0.125237 0
M  V30 1991 C 200.474 -2.18659 -0.819174 0
M  V30 1992 C 201.455 -1.12843 -1.27281 0
M  V30 1993 O 202.64 -1.41104 -1.33429 0
M  V30 1994 C 199.77 -2.79096 -2.06695 0
M  V30 1995 C 198.724 -3.90548 -1.75088 0
M  V30 1996 C 198.05 -4.37821 -3.06948 0
M  V30 1997 C 199.35 -5.12356 -1.01435 0
M  V30 1998 H 201.044 -2.9783 -0.306202 0
M  V30 1999 H 198.59 -1.4326 -0.145839 0
M  V30 2000 H 200.543 -3.2082 -2.73226 0
M  V30 2001 H 199.267 -1.97223 -2.60328 0
M  V30 2002 H 197.926 -3.49409 -1.10944 0
M  V30 2003 H 197.574 -3.52799 -3.58527 0
M  V30 2004 H 197.274 -5.12982 -2.86571 0
M  V30 2005 H 198.798 -4.822 -3.74587 0
M  V30 2006 H 200.212 -5.5106 -1.58132 0
M  V30 2007 H 198.609 -5.9314 -0.911319 0
M  V30 2008 H 199.679 -4.849 -0.00218681 0
M  V30 2009 N 201.022 0.148545 -1.56898 0
M  V30 2010 C 202.252 0.875118 -1.8715 0
M  V30 2011 C 202.66 1.75322 -0.711262 0
M  V30 2012 O 202.003 1.80745 0.328151 0
M  V30 2013 C 202.065 1.7844 -3.12089 0
M  V30 2014 C 201.729 1.08361 -4.43967 0
M  V30 2015 C 202.726 0.438247 -5.1805 0
M  V30 2016 C 200.411 1.07358 -4.90693 0
M  V30 2017 C 202.405 -0.20779 -6.37061 0
M  V30 2018 C 200.092 0.42373 -6.09629 0
M  V30 2019 C 201.09 -0.215829 -6.82659 0
M  V30 2020 O 200.778 -0.855378 -7.99336 0
M  V30 2021 H 200.51 0.258504 -0.624621 0
M  V30 2022 H 203.064 0.14652 -2.04877 0
M  V30 2023 H 201.294 2.55389 -2.90367 0
M  V30 2024 H 202.983 2.38279 -3.286 0
M  V30 2025 H 203.749 0.437817 -4.8302 0
M  V30 2026 H 199.628 1.5608 -4.33774 0
M  V30 2027 H 203.172 -0.70758 -6.94002 0
M  V30 2028 H 199.069 0.421822 -6.4412 0
M  V30 2029 H 199.837 -0.756892 -8.14993 0
M  V30 2030 N 202.5 1.5196 0.417844 0
M  V30 2031 C 203.747 1.65591 1.16559 0
M  V30 2032 C 204.075 0.381565 1.90721 0
M  V30 2033 O 203.33 -0.635156 1.85106 0
M  V30 2034 C 203.629 2.82269 2.19223 0
M  V30 2035 C 203.295 4.20819 1.61933 0
M  V30 2036 C 201.957 4.58506 1.46033 0
M  V30 2037 C 204.309 5.07196 1.20008 0
M  V30 2038 C 201.637 5.80257 0.867113 0
M  V30 2039 C 203.989 6.29544 0.621086 0
M  V30 2040 C 202.653 6.65987 0.449144 0
M  V30 2041 H 201.923 0.605939 0.42652 0
M  V30 2042 H 204.57 1.86041 0.45397 0
M  V30 2043 H 202.875 2.56118 2.96498 0
M  V30 2044 H 204.572 2.90012 2.76936 0
M  V30 2045 H 201.162 3.91116 1.7529 0
M  V30 2046 H 205.346 4.7867 1.31105 0
M  V30 2047 H 200.602 6.07124 0.721833 0
M  V30 2048 H 204.776 6.95805 0.287798 0
M  V30 2049 H 202.403 7.60199 -0.012632 0
M  V30 2050 N 203.978 -0.674533 1.42435 0
M  V30 2051 C 204.888 -1.81751 1.48337 0
M  V30 2052 C 205.904 -1.69975 0.372099 0
M  V30 2053 O 207.08 -1.91521 0.62304 0
M  V30 2054 C 204.145 -3.17895 1.38361 0
M  V30 2055 C 203.206 -3.41625 2.59982 0
M  V30 2056 C 202.439 -4.71274 2.50473 0
M  V30 2057 O 202.662 -5.49197 1.54075 0
M  V30 2058 O 201.596 -4.96254 3.4061 0
M  V30 2059 H 205.422 -1.79728 2.44809 0
M  V30 2060 H 203.007 -0.830312 1.24202 0
M  V30 2061 H 204.889 -3.99136 1.35161 0
M  V30 2062 H 203.564 -3.20555 0.450144 0
M  V30 2063 H 202.471 -2.60231 2.68757 0
M  V30 2064 H 203.804 -3.43796 3.52229 0
M  V30 2065 N 205.456 -1.28612 -0.910864 0
M  V30 2066 C 206.872 -1.06381 -1.18976 0
M  V30 2067 C 207.072 0.191998 -2.00583 0
M  V30 2068 O 206.128 0.892869 -2.36187 0
M  V30 2069 C 207.441 -2.31295 -1.92154 0
M  V30 2070 C 208.989 -2.36503 -2.05025 0
M  V30 2071 C 209.464 -3.61191 -2.81612 0
M  V30 2072 N 210.955 -3.61847 -2.89172 0
M  V30 2073 C 211.69 -4.55004 -3.4894 0
M  V30 2074 N 211.186 -5.58482 -4.09963 0
M  V30 2075 N 212.979 -4.42594 -3.46506 0
M  V30 2076 H 205.13 -2.09221 -0.366094 0
M  V30 2077 H 207.393 -0.921003 -0.224629 0
M  V30 2078 H 207.099 -3.228 -1.39618 0
M  V30 2079 H 206.973 -2.37934 -2.9269 0
M  V30 2080 H 209.36 -1.45494 -2.5674 0
M  V30 2081 H 209.441 -2.33857 -1.03657 0
M  V30 2082 H 209.085 -4.52545 -2.30576 0
M  V30 2083 H 209.015 -3.61092 -3.83302 0
M  V30 2084 H 211.506 -2.87022 -2.45819 0
M  V30 2085 H 211.819 -6.25704 -4.53557 0
M  V30 2086 H 210.164 -5.62305 -4.08459 0
M  V30 2087 H 213.355 -3.60953 -2.98045 0
M  V30 2088 H 213.528 -5.15381 -3.92793 0
M  V30 2089 N 206.934 1.1197 -1.10907 0
M  V30 2090 C 208.35 1.35591 -0.841852 0
M  V30 2091 C 208.55 1.94233 0.536246 0
M  V30 2092 O 207.606 2.1717 1.28816 0
M  V30 2093 C 208.919 2.29284 -1.94549 0
M  V30 2094 C 210.467 2.42862 -1.97451 0
M  V30 2095 C 210.942 3.39873 -3.07002 0
M  V30 2096 N 212.433 3.47433 -3.06341 0
M  V30 2097 C 213.168 4.22421 -3.87748 0
M  V30 2098 N 212.664 5.00432 -4.79103 0
M  V30 2099 N 214.457 4.17876 -3.75946 0
M  V30 2100 H 206.608 0.722664 -1.99728 0
M  V30 2101 H 208.871 0.380635 -0.868229 0
M  V30 2102 H 208.577 1.93378 -2.93765 0
M  V30 2103 H 208.451 3.29452 -1.83688 0
M  V30 2104 H 210.838 2.78046 -0.988645 0
M  V30 2105 H 210.919 1.42566 -2.12388 0
M  V30 2106 H 210.563 3.05417 -4.05811 0
M  V30 2107 H 210.493 4.40011 -2.89306 0
M  V30 2108 H 212.984 2.91784 -2.40147 0
M  V30 2109 H 213.297 5.55002 -5.37766 0
M  V30 2110 H 211.642 4.99612 -4.83128 0
M  V30 2111 H 214.833 3.56016 -3.03924 0
M  V30 2112 H 215.006 4.76061 -4.39624 0
M  V30 2113 N 208.412 0.89855 1.29475 0
M  V30 2114 C 209.828 0.594483 1.48115 0
M  V30 2115 C 210.028 -0.86431 1.82022 0
M  V30 2116 O 209.084 -1.64457 1.91599 0
M  V30 2117 C 210.397 1.51932 2.59494 0
M  V30 2118 C 211.945 1.5244 2.7337 0
M  V30 2119 C 212.42 2.43548 3.87877 0
M  V30 2120 N 213.911 2.41589 3.95208 0
M  V30 2121 C 214.646 3.08789 4.83153 0
M  V30 2122 N 214.142 3.85265 5.75798 0
M  V30 2123 N 215.935 2.97952 4.76635 0
M  V30 2124 H 208.086 1.84207 1.05742 0
M  V30 2125 H 210.349 0.789251 0.525154 0
M  V30 2126 H 210.055 2.55865 2.41301 0
M  V30 2127 H 209.929 1.23899 3.56271 0
M  V30 2128 H 212.316 0.492518 2.90961 0
M  V30 2129 H 212.397 1.8451 1.77172 0
M  V30 2130 H 212.041 3.46829 3.71041 0
M  V30 2131 H 211.971 2.08788 4.83441 0
M  V30 2132 H 214.462 1.86025 3.28943 0
M  V30 2133 H 214.775 4.33598 6.39697 0
M  V30 2134 H 213.12 3.89371 5.75687 0
M  V30 2135 H 216.311 2.37723 4.03244 0
M  V30 2136 H 216.484 3.50599 5.44962 0
M  V30 2137 N 209.89 -1.43072 0.660911 0
M  V30 2138 C 211.301 -1.84932 0.256348 0
M  V30 2139 C 211.652 -1.55325 -1.19868 0
M  V30 2140 O 210.777 -1.00607 -1.91591 0
M  V30 2141 C 211.372 -3.35684 0.458475 0
M  V30 2142 C 209.931 -3.76245 0.108161 0
M  V30 2143 C 209.078 -2.66749 0.757641 0
M  V30 2144 H 212.029 -1.33116 0.864051 0
M  V30 2145 H 212.05 -3.79365 -0.293683 0
M  V30 2146 H 211.562 -3.572 1.51755 0
M  V30 2147 H 209.663 -3.60338 -0.948014 0
M  V30 2148 H 209.776 -4.76058 0.538992 0
M  V30 2149 H 208.14 -2.53989 0.190185 0
M  V30 2150 H 208.923 -2.91092 1.81989 0
M  V30 2151 N 211.368 -0.403325 -1.52352 0
M  V30 2152 C 212.298 0.416205 -2.29761 0
M  V30 2153 C 213.279 1.05123 -1.33728 0
M  V30 2154 O 214.464 1.06134 -1.62632 0
M  V30 2155 C 211.594 1.53624 -3.11475 0
M  V30 2156 C 210.548 1.02653 -4.15507 0
M  V30 2157 C 209.874 2.23971 -4.85532 0
M  V30 2158 C 211.174 0.08463 -5.22231 0
M  V30 2159 H 212.868 -0.229701 -2.98518 0
M  V30 2160 H 210.414 -0.111913 -1.43564 0
M  V30 2161 H 212.367 2.1165 -3.64393 0
M  V30 2162 H 211.091 2.20994 -2.40477 0
M  V30 2163 H 209.75 0.46871 -3.63591 0
M  V30 2164 H 209.398 2.89883 -4.11068 0
M  V30 2165 H 209.098 1.90521 -5.55856 0
M  V30 2166 H 210.622 2.82614 -5.41259 0
M  V30 2167 H 212.036 0.573509 -5.70424 0
M  V30 2168 H 210.433 -0.160783 -5.99885 0
M  V30 2169 H 211.503 -0.86237 -4.7717 0
M  V30 2170 N 212.846 1.57033 -0.133567 0
M  V30 2171 C 213.809 2.14897 0.796995 0
M  V30 2172 C 214.809 1.0874 1.18458 0
M  V30 2173 O 215.999 1.34446 1.1077 0
M  V30 2174 C 213.131 2.70112 2.07973 0
M  V30 2175 H 214.324 2.98457 0.293873 0
M  V30 2176 H 211.877 1.55871 0.115787 0
M  V30 2177 H 212.612 1.9018 2.62682 0
M  V30 2178 H 212.397 3.47764 1.81115 0
M  V30 2179 H 213.887 3.14738 2.74462 0
M  V30 2180 N 214.325 -0.140222 1.56975 0
M  V30 2181 C 215.273 -1.19207 1.99731 0
M  V30 2182 C 216.267 -1.44089 0.890777 0
M  V30 2183 O 217.473 -1.44301 1.07597 0
M  V30 2184 H 213.848 -0.40142 0.635898 0
M  V30 2185 H 215.819 -0.804813 2.87342 0
M  V30 2186 C 214.568 -2.51617 2.39967 0
M  V30 2187 H 213.891 -2.33303 3.24669 0
M  V30 2188 H 215.331 -3.23827 2.73701 0
M  V30 2189 C 213.79 -3.12654 1.25496 0
M  V30 2190 O 214.32 -3.97786 0.559371 0
M  V30 2191 N 212.526 -2.72206 1.01746 0
M  V30 2192 H 212.073 -2.03074 1.58489 0
M  V30 2193 H 212.031 -3.13377 0.253461 0
M  V30 2194 N 215.803 -1.52179 -0.40978 0
M  V30 2195 C 217.051 -1.65878 -1.15451 0
M  V30 2196 C 217.372 -0.390771 -1.91044 0
M  V30 2197 O 216.642 0.594323 -1.86667 0
M  V30 2198 H 215.222 -0.611405 -0.429177 0
M  V30 2199 H 217.884 -1.89219 -0.467134 0
M  V30 2200 H 216.98 -2.49954 -1.86894 0
M  V30 2201 N 217.281 0.66697 -1.42791 0
M  V30 2202 C 218.211 1.79218 -1.49677 0
M  V30 2203 C 219.192 1.66405 -0.352623 0
M  V30 2204 O 220.377 1.85708 -0.567993 0
M  V30 2205 C 217.507 3.17565 -1.40605 0
M  V30 2206 C 216.461 3.45124 -2.53127 0
M  V30 2207 C 215.787 4.83127 -2.29112 0
M  V30 2208 C 217.087 3.41236 -3.95418 0
M  V30 2209 H 218.781 1.73713 -2.43853 0
M  V30 2210 H 216.327 0.83432 -1.17367 0
M  V30 2211 H 218.28 3.96022 -1.44029 0
M  V30 2212 H 217.004 3.23767 -0.429271 0
M  V30 2213 H 215.663 2.69031 -2.49034 0
M  V30 2214 H 215.311 4.85988 -1.29709 0
M  V30 2215 H 215.011 5.02528 -3.04531 0
M  V30 2216 H 216.535 5.63859 -2.34297 0
M  V30 2217 H 217.949 4.09651 -4.01073 0
M  V30 2218 H 216.346 3.72173 -4.70752 0
M  V30 2219 H 217.416 2.39665 -4.21532 0
M  V30 2220 N 218.759 1.29093 0.90403 0
M  V30 2221 C 219.722 1.1386 1.98919 0
M  V30 2222 C 220.722 0.0753457 1.60623 0
M  V30 2223 O 221.912 0.321931 1.71199 0
M  V30 2224 C 219.044 0.740198 3.32767 0
M  V30 2225 H 220.237 2.10246 2.13861 0
M  V30 2226 H 217.79 1.12218 1.08797 0
M  V30 2227 H 218.525 -0.223997 3.23525 0
M  V30 2228 H 218.31 1.50838 3.61926 0
M  V30 2229 H 219.8 0.656546 4.12407 0
M  V30 2230 N 220.237 -1.11381 1.11499 0
M  V30 2231 C 221.2 -2.15622 0.777153 0
M  V30 2232 C 222.2 -1.59504 -0.203779 0
M  V30 2233 O 223.39 -1.74188 0.020782 0
M  V30 2234 C 220.522 -3.40556 0.153116 0
M  V30 2235 H 221.715 -2.47021 1.70061 0
M  V30 2236 H 219.268 -1.26577 0.916952 0
M  V30 2237 H 220.003 -3.14767 -0.780536 0
M  V30 2238 H 219.788 -3.8257 0.859238 0
M  V30 2239 H 221.278 -4.17546 -0.0671044 0
M  V30 2240 N 221.715 -0.905404 -1.28997 0
M  V30 2241 C 222.678 -0.392253 -2.25819 0
M  V30 2242 C 223.678 0.476753 -1.5357 0
M  V30 2243 O 224.868 0.280994 -1.71919 0
M  V30 2244 C 222 0.438588 -3.38067 0
M  V30 2245 H 223.193 -1.24743 -2.72725 0
M  V30 2246 H 220.746 -0.684051 -1.40536 0
M  V30 2247 H 221.481 1.31352 -2.96508 0
M  V30 2248 H 221.266 -0.184167 -3.91667 0
M  V30 2249 H 222.756 0.78873 -4.10084 0
M  V30 2250 N 223.193 1.4272 -0.668489 0
M  V30 2251 C 224.441 2.01226 -0.187769 0
M  V30 2252 C 224.762 1.53092 1.2078 0
M  V30 2253 O 224.032 0.74993 1.80977 0
M  V30 2254 H 222.612 0.744041 -0.0664272 0
M  V30 2255 H 225.274 1.74723 -0.863583 0
M  V30 2256 H 224.37 3.11556 -0.184166 0
M  V30 2257 N 224.671 0.411399 1.52136 0
M  V30 2258 C 225.896 -0.165538 2.06738 0
M  V30 2259 C 226.321 -1.379 1.27926 0
M  V30 2260 O 225.679 -1.78628 0.310114 0
M  V30 2261 C 225.727 -0.492124 3.57226 0
M  V30 2262 O 224.831 -1.58276 3.80818 0
M  V30 2263 H 224.172 -0.0132132 0.663869 0
M  V30 2264 H 226.702 0.585253 1.96051 0
M  V30 2265 H 226.712 -0.750104 4.01045 0
M  V30 2266 H 225.387 0.394922 4.14021 0
M  V30 2267 H 223.964 -1.31677 3.48877 0
M  V30 2268 N 226.149 -1.5696 0.141893 0
M  V30 2269 C 227.56 -1.82797 -0.379776 0
M  V30 2270 C 227.911 -1.06033 -1.6508 0
M  V30 2271 O 227.036 -0.304011 -2.14254 0
M  V30 2272 C 227.631 -3.31578 -0.695802 0
M  V30 2273 C 226.19 -3.58014 -1.16201 0
M  V30 2274 C 225.337 -2.76699 -0.182455 0
M  V30 2275 H 228.288 -1.54406 0.366675 0
M  V30 2276 H 228.309 -3.47454 -1.55099 0
M  V30 2277 H 227.821 -3.87421 0.229449 0
M  V30 2278 H 225.922 -3.07553 -2.10338 0
M  V30 2279 H 226.035 -4.66501 -1.09151 0
M  V30 2280 H 224.399 -2.45618 -0.674072 0
M  V30 2281 H 225.182 -3.35311 0.736297 0
M  V30 2282 N 227.627 0.131896 -1.57047 0
M  V30 2283 C 228.873 0.843179 -1.84441 0
M  V30 2284 C 229.206 1.80129 -0.725749 0
M  V30 2285 O 228.481 1.92624 0.269469 0
M  V30 2286 C 228.764 1.60442 -3.22382 0
M  V30 2287 C 228.617 0.666782 -4.4483 0
M  V30 2288 C 229.936 2.56354 -3.5773 0
M  V30 2289 H 227.055 0.305081 -0.670891 0
M  V30 2290 H 229.697 0.107839 -1.89694 0
M  V30 2291 H 227.847 2.23128 -3.18035 0
M  V30 2292 H 229.519 0.0497646 -4.61273 0
M  V30 2293 H 227.762 -0.022609 -4.33794 0
M  V30 2294 H 228.433 1.23579 -5.37989 0
M  V30 2295 H 230.909 2.0378 -3.62785 0
M  V30 2296 H 229.785 3.06657 -4.5525 0
M  V30 2297 H 230.046 3.38419 -2.84473 0
M  V30 2298 N 229.106 1.52395 0.401703 0
M  V30 2299 C 230.353 1.66817 1.14796 0
M  V30 2300 C 230.681 0.401772 1.90305 0
M  V30 2301 O 229.936 -0.615487 1.85769 0
M  V30 2302 C 230.235 2.84578 2.16217 0
M  V30 2303 C 229.901 4.22513 1.5746 0
M  V30 2304 C 228.563 4.60029 1.41161 0
M  V30 2305 C 230.915 5.0844 1.14622 0
M  V30 2306 C 228.243 5.81144 0.80552 0
M  V30 2307 C 230.595 6.30167 0.55428 0
M  V30 2308 C 229.259 6.66426 0.378482 0
M  V30 2309 H 228.529 0.610428 0.420069 0
M  V30 2310 H 231.176 1.86512 0.434212 0
M  V30 2311 H 229.481 2.59248 2.93764 0
M  V30 2312 H 231.178 2.92933 2.73845 0
M  V30 2313 H 227.768 3.92953 1.71132 0
M  V30 2314 H 231.952 4.80034 1.26021 0
M  V30 2315 H 227.208 6.07855 0.657399 0
M  V30 2316 H 231.382 6.96071 0.213983 0
M  V30 2317 H 229.009 7.60143 -0.0932606 0
M  V30 2318 N 230.584 -0.659388 1.43143 0
M  V30 2319 C 231.514 -1.78422 1.50625 0
M  V30 2320 C 232.495 -1.66216 0.361443 0
M  V30 2321 O 233.68 -1.85404 0.577834 0
M  V30 2322 C 230.81 -3.16815 1.42287 0
M  V30 2323 C 229.764 -3.43777 2.54954 0
M  V30 2324 C 229.09 -4.81905 2.31671 0
M  V30 2325 C 230.39 -3.39134 3.97222 0
M  V30 2326 H 232.084 -1.72417 2.44771 0
M  V30 2327 H 229.63 -0.828084 1.17808 0
M  V30 2328 H 231.583 -3.95253 1.46127 0
M  V30 2329 H 230.307 -3.23534 0.446435 0
M  V30 2330 H 228.966 -2.67707 2.50457 0
M  V30 2331 H 228.614 -4.85294 1.32284 0
M  V30 2332 H 228.314 -5.00906 3.07192 0
M  V30 2333 H 229.838 -5.62609 2.37284 0
M  V30 2334 H 231.252 -4.07518 4.03239 0
M  V30 2335 H 229.649 -3.69671 4.72719 0
M  V30 2336 H 230.719 -2.37426 4.22797 0
M  V30 2337 N 232.062 -1.29571 -0.897171 0
M  V30 2338 C 233.287 -1.20705 -1.68656 0
M  V30 2339 C 233.712 0.228582 -1.86706 0
M  V30 2340 O 233.07 1.16494 -1.3892 0
M  V30 2341 C 233.118 -1.9282 -3.04717 0
M  V30 2342 O 232.222 -1.24697 -3.93096 0
M  V30 2343 H 231.563 -0.418126 -0.515816 0
M  V30 2344 H 234.093 -1.71183 -1.12061 0
M  V30 2345 H 234.103 -2.01372 -3.54843 0
M  V30 2346 H 232.778 -2.97239 -2.90899 0
M  V30 2347 H 231.355 -1.2442 -3.51531 0
M  V30 2348 N 233.54 1.10788 -1.12088 0
M  V30 2349 C 234.503 2.15207 -0.788577 0
M  V30 2350 C 235.503 1.59609 0.195317 0
M  V30 2351 O 236.693 1.74174 -0.0300193 0
M  V30 2352 C 233.825 3.4047 -0.171174 0
M  V30 2353 H 235.018 2.46116 -1.71368 0
M  V30 2354 H 232.571 1.26089 -0.923652 0
M  V30 2355 H 233.306 3.15176 0.763832 0
M  V30 2356 H 233.091 3.82109 -0.879514 0
M  V30 2357 H 234.581 4.17576 0.04496 0
M  V30 2358 N 235.018 0.912232 1.28515 0
M  V30 2359 C 235.948 0.416403 2.29757 0
M  V30 2360 C 236.929 -0.515194 1.6211 0
M  V30 2361 O 238.114 -0.423253 1.89532 0
M  V30 2362 C 235.244 -0.34572 3.45575 0
M  V30 2363 C 234.198 0.496599 4.25109 0
M  V30 2364 C 233.524 -0.393771 5.33248 0
M  V30 2365 C 234.824 1.75307 4.92001 0
M  V30 2366 H 236.518 1.26249 2.7148 0
M  V30 2367 H 234.064 0.608515 1.30511 0
M  V30 2368 H 236.017 -0.703422 4.15488 0
M  V30 2369 H 234.741 -1.2257 3.02728 0
M  V30 2370 H 233.4 0.8368 3.56922 0
M  V30 2371 H 233.048 -1.27225 4.86644 0
M  V30 2372 H 232.748 0.166209 5.87365 0
M  V30 2373 H 234.272 -0.747389 6.06009 0
M  V30 2374 H 235.686 1.46437 5.54283 0
M  V30 2375 H 234.083 2.25534 5.56106 0
M  V30 2376 H 235.153 2.48176 4.16577 0
M  V30 2377 N 236.496 -1.42363 0.676048 0
M  V30 2378 C 237.721 -2.06377 0.205705 0
M  V30 2379 C 238.146 -1.50463 -1.12883 0
M  V30 2380 O 237.504 -0.623619 -1.70237 0
M  V30 2381 C 237.552 -3.60277 0.152655 0
M  V30 2382 O 236.656 -4.02935 -0.87845 0
M  V30 2383 H 235.997 -0.655588 0.105359 0
M  V30 2384 H 238.527 -1.82475 0.925412 0
M  V30 2385 H 238.537 -4.07993 -0.0230675 0
M  V30 2386 H 237.212 -4.00346 1.12675 0
M  V30 2387 H 235.789 -3.66764 -0.673668 0
M  V30 2388 N 237.974 -0.419461 -1.51915 0
M  V30 2389 C 239.385 0.0477853 -1.86639 0
M  V30 2390 C 239.736 1.43531 -1.33766 0
M  V30 2391 O 238.861 2.05401 -0.68113 0
M  V30 2392 C 239.456 0.0934885 -3.38671 0
M  V30 2393 C 238.015 0.505097 -3.72996 0
M  V30 2394 C 237.162 -0.313792 -2.75519 0
M  V30 2395 H 240.113 -0.636088 -1.45395 0
M  V30 2396 H 240.134 0.906667 -3.6954 0
M  V30 2397 H 239.646 -0.916501 -3.77123 0
M  V30 2398 H 237.747 1.52135 -3.40126 0
M  V30 2399 H 237.86 0.242309 -4.78487 0
M  V30 2400 H 236.224 0.225363 -2.53701 0
M  V30 2401 H 237.007 -1.32232 -3.16812 0
M  V30 2402 N 239.452 1.56882 -0.150215 0
M  V30 2403 C 240.382 2.19935 0.784284 0
M  V30 2404 C 241.363 1.14854 1.25469 0
M  V30 2405 O 242.548 1.43209 1.31168 0
M  V30 2406 C 239.678 2.82349 2.02229 0
M  V30 2407 C 238.632 3.93285 1.68853 0
M  V30 2408 C 237.958 4.42649 2.99944 0
M  V30 2409 C 239.258 5.13904 0.932714 0
M  V30 2410 H 240.952 2.9828 0.258781 0
M  V30 2411 H 238.498 1.43473 0.123029 0
M  V30 2412 H 240.451 3.25126 2.68088 0
M  V30 2413 H 239.175 2.0134 2.57157 0
M  V30 2414 H 237.834 3.5113 1.05371 0
M  V30 2415 H 237.482 3.58458 3.52869 0
M  V30 2416 H 237.182 5.17476 2.78374 0
M  V30 2417 H 238.706 4.88099 3.66868 0
M  V30 2418 H 240.12 5.53506 1.49345 0
M  V30 2419 H 238.517 5.94515 0.81684 0
M  V30 2420 H 239.587 4.84842 -0.0749568 0
M  V30 2421 N 240.93 -0.123565 1.57115 0
M  V30 2422 C 242.178 -0.83051 1.84247 0
M  V30 2423 C 242.499 -1.80629 0.73471 0
M  V30 2424 O 241.769 -1.94403 -0.241688 0
M  V30 2425 H 240.349 -0.309694 0.679778 0
M  V30 2426 H 243.011 -0.111976 1.94578 0
M  V30 2427 H 242.107 -1.37852 2.80006 0
M  V30 2428 N 242.408 -1.52605 -0.393616 0
M  V30 2429 C 243.34 -1.73303 -1.49995 0
M  V30 2430 C 244.353 -0.613473 -1.50799 0
M  V30 2431 O 245.542 -0.889049 -1.54784 0
M  V30 2432 C 242.642 -1.77245 -2.88855 0
M  V30 2433 C 241.815 -3.06483 -3.12069 0
M  V30 2434 C 240.874 -3.02033 -4.30886 0
M  V30 2435 O 239.9 -3.75907 -4.27414 0
M  V30 2436 N 241.102 -2.20897 -5.36828 0
M  V30 2437 H 243.867 -2.68756 -1.32629 0
M  V30 2438 H 241.428 -1.51036 -0.583083 0
M  V30 2439 H 243.42 -1.7178 -3.66434 0
M  V30 2440 H 241.99 -0.891993 -2.99603 0
M  V30 2441 H 241.21 -3.25474 -2.22396 0
M  V30 2442 H 242.498 -3.91947 -3.2443 0
M  V30 2443 H 241.896 -1.60336 -5.42502 0
M  V30 2444 H 240.453 -2.21275 -6.13091 0
M  V30 2445 N 243.887 0.651787 -1.4349 0
M  V30 2446 C 244.819 1.77725 -1.44729 0
M  V30 2447 C 245.832 1.59141 -0.343231 0
M  V30 2448 O 247.021 1.67835 -0.607751 0
M  V30 2449 C 244.121 3.15172 -1.24579 0
M  V30 2450 C 243.294 3.60402 -2.47849 0
M  V30 2451 C 242.353 4.76656 -2.22902 0
M  V30 2452 O 241.379 4.86022 -2.96263 0
M  V30 2453 N 242.581 5.66958 -1.24656 0
M  V30 2454 H 245.346 1.77141 -2.41746 0
M  V30 2455 H 242.907 0.835678 -1.38665 0
M  V30 2456 H 244.899 3.90634 -1.0577 0
M  V30 2457 H 243.469 3.1052 -0.360015 0
M  V30 2458 H 242.689 2.75369 -2.82073 0
M  V30 2459 H 243.977 3.87368 -3.29884 0
M  V30 2460 H 243.375 5.62065 -0.640265 0
M  V30 2461 H 241.932 6.42135 -1.1183 0
M  V30 2462 N 245.365 1.30045 0.890287 0
M  V30 2463 C 246.295 1.18541 2.01172 0
M  V30 2464 C 247.276 0.0773356 1.69924 0
M  V30 2465 O 248.461 0.25845 1.92473 0
M  V30 2466 C 245.591 0.870941 3.36202 0
M  V30 2467 C 244.545 1.93637 3.81692 0
M  V30 2468 C 243.871 1.475 5.13953 0
M  V30 2469 C 245.171 3.34666 4.00994 0
M  V30 2470 H 246.865 2.12359 2.11054 0
M  V30 2471 H 244.411 1.02238 1.01407 0
M  V30 2472 H 246.364 0.777141 4.14172 0
M  V30 2473 H 245.088 -0.102926 3.26438 0
M  V30 2474 H 243.747 2.01972 3.05946 0
M  V30 2475 H 243.395 0.489551 5.00612 0
M  V30 2476 H 243.095 2.1876 5.4536 0
M  V30 2477 H 244.619 1.39489 5.94454 0
M  V30 2478 H 246.033 3.2912 4.69417 0
M  V30 2479 H 244.43 4.03966 4.43769 0
M  V30 2480 H 245.5 3.76949 3.05021 0
M  V30 2481 N 246.843 -1.10192 1.12674 0
M  V30 2482 C 247.773 -2.18652 0.819362 0
M  V30 2483 C 248.754 -1.68698 -0.217915 0
M  V30 2484 O 249.939 -1.94041 -0.0785581 0
M  V30 2485 C 247.069 -3.46202 0.27594 0
M  V30 2486 C 246.023 -4.09444 1.24656 0
M  V30 2487 C 245.349 -5.31725 0.563258 0
M  V30 2488 C 246.649 -4.52863 2.60217 0
M  V30 2489 H 248.343 -2.44622 1.72628 0
M  V30 2490 H 245.889 -1.17571 0.831451 0
M  V30 2491 H 247.842 -4.21372 0.0486149 0
M  V30 2492 H 246.566 -3.1973 -0.666331 0
M  V30 2493 H 245.225 -3.36284 1.45974 0
M  V30 2494 H 244.873 -5.0153 -0.384235 0
M  V30 2495 H 244.573 -5.74991 1.21075 0
M  V30 2496 H 246.097 -6.09624 0.34503 0
M  V30 2497 H 247.511 -5.19294 2.42913 0
M  V30 2498 H 245.908 -5.06986 3.21068 0
M  V30 2499 H 246.978 -3.65656 3.18471 0
M  V30 2500 N 248.321 -0.919034 -1.28029 0
M  V30 2501 C 249.231 -0.416756 -2.30869 0
M  V30 2502 C 250.247 0.498235 -1.66714 0
M  V30 2503 O 251.423 0.383144 -1.97722 0
M  V30 2504 C 248.488 0.330274 -3.45123 0
M  V30 2505 C 247.549 -0.618578 -4.2482 0
M  V30 2506 C 246.782 0.0928959 -5.33619 0
M  V30 2507 O 247.005 1.31375 -5.55065 0
M  V30 2508 O 245.939 -0.574499 -5.99152 0
M  V30 2509 H 249.765 -1.27043 -2.75851 0
M  V30 2510 H 247.35 -0.684052 -1.3282 0
M  V30 2511 H 249.232 0.751972 -4.14636 0
M  V30 2512 H 247.907 1.1597 -3.02213 0
M  V30 2513 H 246.814 -1.08978 -3.57875 0
M  V30 2514 H 248.147 -1.41497 -4.71423 0
M  V30 2515 N 249.799 1.42003 -0.683588 0
M  V30 2516 C 251.215 1.55625 -0.353976 0
M  V30 2517 C 251.415 1.66151 1.14 0
M  V30 2518 O 250.471 1.63329 1.92561 0
M  V30 2519 C 251.784 2.80171 -1.092 0
M  V30 2520 C 253.332 2.93954 -1.07518 0
M  V30 2521 C 253.807 4.21372 -1.79471 0
M  V30 2522 N 255.298 4.28303 -1.76381 0
M  V30 2523 C 256.033 5.25729 -2.28904 0
M  V30 2524 N 255.529 6.29254 -2.89846 0
M  V30 2525 N 257.322 5.17586 -2.19228 0
M  V30 2526 H 249.473 1.33415 -1.6527 0
M  V30 2527 H 251.736 0.64282 -0.696769 0
M  V30 2528 H 251.442 2.78561 -2.14701 0
M  V30 2529 H 251.316 3.7133 -0.662862 0
M  V30 2530 H 253.703 2.95086 -0.028475 0
M  V30 2531 H 253.784 2.04002 -1.54328 0
M  V30 2532 H 253.428 4.21001 -2.84114 0
M  V30 2533 H 253.358 5.10275 -1.30104 0
M  V30 2534 H 255.849 3.54119 -1.31939 0
M  V30 2535 H 256.162 6.99964 -3.27522 0
M  V30 2536 H 254.507 6.29791 -2.93919 0
M  V30 2537 H 257.698 4.35631 -1.71299 0
M  V30 2538 H 257.871 5.93348 -2.60466 0
M  V30 2539 N 251.277 0.427512 1.51691 0
M  V30 2540 C 252.524 -0.142229 2.02 0
M  V30 2541 C 252.852 -1.43566 1.31221 0
M  V30 2542 O 252.107 -1.91298 0.412744 0
M  V30 2543 C 252.406 -0.418249 3.54944 0
M  V30 2544 C 252.072 0.788187 4.43958 0
M  V30 2545 C 250.734 1.11906 4.68007 0
M  V30 2546 C 253.086 1.59347 4.96244 0
M  V30 2547 C 250.414 2.25608 5.41588 0
M  V30 2548 C 252.766 2.7214 5.71072 0
M  V30 2549 C 251.43 3.05692 5.93387 0
M  V30 2550 H 250.7 -0.0520451 0.73917 0
M  V30 2551 H 253.347 0.572697 1.82736 0
M  V30 2552 H 251.652 -1.21496 3.72486 0
M  V30 2553 H 253.349 -0.872339 3.91397 0
M  V30 2554 H 249.939 0.520344 4.2543 0
M  V30 2555 H 254.123 1.35106 4.77556 0
M  V30 2556 H 249.379 2.51929 5.57083 0
M  V30 2557 H 253.553 3.34914 6.10578 0
M  V30 2558 H 251.18 3.9391 6.50184 0
M  V30 2559 N 252.755 -1.56801 0.158532 0
M  V30 2560 C 254.003 -1.96102 -0.488712 0
M  V30 2561 C 254.324 -1.04498 -1.64636 0
M  V30 2562 O 253.594 -0.108783 -1.95598 0
M  V30 2563 H 252.174 -0.724102 -0.183535 0
M  V30 2564 H 254.836 -1.93457 0.236728 0
M  V30 2565 H 253.932 -3.00097 -0.857219 0
M  V30 2566 N 254.233 0.115231 -1.57178 0
M  V30 2567 C 255.479 0.818565 -1.86202 0
M  V30 2568 C 255.834 1.77316 -0.746785 0
M  V30 2569 O 255.127 1.89923 0.25291 0
M  V30 2570 C 255.321 1.60324 -3.19423 0
M  V30 2571 C 255.15 0.726138 -4.43799 0
M  V30 2572 C 253.92 0.379535 -5.03873 0
M  V30 2573 C 256.118 0.0420774 -5.14283 0
M  V30 2574 N 254.1 -0.507841 -6.11796 0
M  V30 2575 C 255.471 -0.704152 -6.15988 0
M  V30 2576 C 257.526 -0.0339486 -4.97888 0
M  V30 2577 C 256.229 -1.51927 -7.03072 0
M  V30 2578 C 258.255 -0.835906 -5.85463 0
M  V30 2579 C 257.617 -1.57031 -6.86673 0
M  V30 2580 H 253.716 0.276343 -0.731545 0
M  V30 2581 H 256.3 0.0821032 -1.94527 0
M  V30 2582 H 254.471 2.31072 -3.12186 0
M  V30 2583 H 256.203 2.2522 -3.36241 0
M  V30 2584 H 252.958 0.722634 -4.68054 0
M  V30 2585 H 253.382 -0.94349 -6.70393 0
M  V30 2586 H 258.024 0.519496 -4.19596 0
M  V30 2587 H 255.742 -2.08386 -7.80769 0
M  V30 2588 H 259.328 -0.89714 -5.74841 0
M  V30 2589 H 258.208 -2.18088 -7.53264 0
M  V30 2590 N 255.711 1.52812 0.385517 0
M  V30 2591 C 257.127 1.4214 0.725829 0
M  V30 2592 C 257.327 0.544589 1.94001 0
M  V30 2593 O 256.383 0.0193693 2.52493 0
M  V30 2594 C 257.696 2.85042 0.957668 0
M  V30 2595 C 259.244 2.94543 1.05892 0
M  V30 2596 C 259.719 4.38464 1.32337 0
M  V30 2597 N 261.21 4.41804 1.39151 0
M  V30 2598 C 261.945 5.5025 1.61285 0
M  V30 2599 N 261.441 6.68775 1.80866 0
M  V30 2600 N 263.234 5.37798 1.63492 0
M  V30 2601 H 255.385 2.08338 -0.413383 0
M  V30 2602 H 257.648 0.940016 -0.122775 0
M  V30 2603 H 257.354 3.51431 0.137568 0
M  V30 2604 H 257.228 3.27505 1.87137 0
M  V30 2605 H 259.615 2.28321 1.86959 0
M  V30 2606 H 259.696 2.55504 0.123057 0
M  V30 2607 H 259.34 5.05254 0.517793 0
M  V30 2608 H 259.27 4.75059 2.27214 0
M  V30 2609 H 261.761 3.56377 1.25713 0
M  V30 2610 H 262.074 7.47197 1.97271 0
M  V30 2611 H 260.419 6.71797 1.78083 0
M  V30 2612 H 263.61 4.44171 1.47749 0
M  V30 2613 H 263.783 6.22382 1.80402 0
M  V30 2614 N 257.189 -0.644168 1.43834 0
M  V30 2615 C 258.437 -1.40117 1.45642 0
M  V30 2616 C 258.758 -1.94814 0.0852413 0
M  V30 2617 O 258.028 -1.74988 -0.880688 0
M  V30 2618 H 256.608 -0.52005 0.536243 0
M  V30 2619 H 259.27 -0.7591 1.7951 0
M  V30 2620 H 258.366 -2.23902 2.17427 0
M  V30 2621 N 258.668 -1.30515 -0.883378 0
M  V30 2622 C 259.916 -1.19194 -1.63209 0
M  V30 2623 C 260.237 0.253205 -1.93349 0
M  V30 2624 O 259.507 1.17025 -1.57105 0
M  V30 2625 H 258.087 -0.438148 -0.605009 0
M  V30 2626 H 260.749 -1.63663 -1.05832 0
M  V30 2627 H 259.845 -1.75396 -2.58153 0
M  V30 2628 N 260.146 1.09593 -1.13257 0
M  V30 2629 C 261.393 1.81734 -0.893257 0
M  V30 2630 C 261.721 1.8563 0.580656 0
M  V30 2631 O 260.976 1.31906 1.44566 0
M  V30 2632 C 261.275 3.27802 -1.42411 0
M  V30 2633 C 260.941 3.44041 -2.91456 0
M  V30 2634 C 259.603 3.48181 -3.3215 0
M  V30 2635 C 261.955 3.48719 -3.87356 0
M  V30 2636 C 259.283 3.54575 -4.67433 0
M  V30 2637 C 261.635 3.56648 -5.2248 0
M  V30 2638 C 260.299 3.59055 -5.62704 0
M  V30 2639 H 259.569 0.665011 -0.326866 0
M  V30 2640 H 262.216 1.2912 -1.41422 0
M  V30 2641 H 260.521 3.83042 -0.823795 0
M  V30 2642 H 262.218 3.82149 -1.21503 0
M  V30 2643 H 258.808 3.41502 -2.58987 0
M  V30 2644 H 262.992 3.44763 -3.57004 0
M  V30 2645 H 258.248 3.54725 -4.97976 0
M  V30 2646 H 262.422 3.59212 -5.96607 0
M  V30 2647 H 260.049 3.63763 -6.67518 0
M  V30 2648 N 261.624 0.925811 1.2754 0
M  V30 2649 C 262.554 0.440748 2.29303 0
M  V30 2650 C 263.535 -0.497971 1.62648 0
M  V30 2651 O 264.72 -0.403126 1.8997 0
M  V30 2652 C 261.85 -0.309048 3.45922 0
M  V30 2653 C 260.804 0.54166 4.24559 0
M  V30 2654 C 260.13 -0.337191 5.33636 0
M  V30 2655 C 261.43 1.80516 4.90114 0
M  V30 2656 H 263.124 1.29121 2.70126 0
M  V30 2657 H 260.67 0.622323 1.29858 0
M  V30 2658 H 262.623 -0.659315 4.1621 0
M  V30 2659 H 261.347 -1.19352 3.04011 0
M  V30 2660 H 260.006 0.874609 3.56014 0
M  V30 2661 H 259.654 -1.22056 4.87966 0
M  V30 2662 H 259.354 0.228497 5.87156 0
M  V30 2663 H 260.878 -0.683072 6.06767 0
M  V30 2664 H 262.292 1.52307 5.52698 0
M  V30 2665 H 260.689 2.3142 5.53683 0
M  V30 2666 H 261.759 2.52581 4.13921 0
M  V30 2667 N 263.102 -1.41638 0.69111 0
M  V30 2668 C 264.032 -2.3347 0.037248 0
M  V30 2669 C 265.013 -1.51575 -0.771947 0
M  V30 2670 O 266.198 -1.80126 -0.72582 0
M  V30 2671 C 263.328 -3.35354 -0.903064 0
M  V30 2672 C 262.282 -4.27526 -0.201288 0
M  V30 2673 C 261.608 -5.19747 -1.25565 0
M  V30 2674 C 262.908 -5.13959 0.929689 0
M  V30 2675 H 264.602 -2.88397 0.804227 0
M  V30 2676 H 262.148 -1.38669 0.388189 0
M  V30 2677 H 264.101 -3.98519 -1.36969 0
M  V30 2678 H 262.825 -2.78767 -1.70166 0
M  V30 2679 H 261.484 -3.65779 0.245265 0
M  V30 2680 H 261.132 -4.59479 -2.04666 0
M  V30 2681 H 260.832 -5.8225 -0.791128 0
M  V30 2682 H 262.356 -5.85789 -1.72288 0
M  V30 2683 H 263.77 -5.70718 0.543546 0
M  V30 2684 H 262.167 -5.85379 1.32103 0
M  V30 2685 H 263.237 -4.51389 1.77133 0
M  V30 2686 N 264.58 -0.43555 -1.51462 0
M  V30 2687 C 265.51 0.367376 -2.30592 0
M  V30 2688 C 266.491 1.02263 -1.35928 0
M  V30 2689 O 267.676 1.02661 -1.64847 0
M  V30 2690 C 264.806 1.46983 -3.14664 0
M  V30 2691 C 263.76 0.938161 -4.17591 0
M  V30 2692 C 263.086 2.13622 -4.90173 0
M  V30 2693 C 264.386 -0.0261621 -5.22293 0
M  V30 2694 H 266.08 -0.292969 -2.97963 0
M  V30 2695 H 263.626 -0.14234 -1.43295 0
M  V30 2696 H 265.579 2.03873 -3.688 0
M  V30 2697 H 264.303 2.15843 -2.4511 0
M  V30 2698 H 262.962 0.391481 -3.64504 0
M  V30 2699 H 262.61 2.81098 -4.17124 0
M  V30 2700 H 262.31 1.78688 -5.59772 0
M  V30 2701 H 263.834 2.7107 -5.47132 0
M  V30 2702 H 265.248 0.452384 -5.71512 0
M  V30 2703 H 263.645 -0.287992 -5.99409 0
M  V30 2704 H 264.715 -0.963391 -4.75233 0
M  V30 2705 N 266.058 1.56714 -0.166846 0
M  V30 2706 C 267.306 1.96358 0.478305 0
M  V30 2707 C 267.627 1.0537 1.6408 0
M  V30 2708 O 266.897 0.119154 1.95537 0
M  V30 2709 H 265.477 0.725065 0.179692 0
M  V30 2710 H 268.139 1.93329 -0.246985 0
M  V30 2711 H 267.235 3.00547 0.841292 0
M  V30 2712 N 267.536 -0.106894 1.57237 0
M  V30 2713 C 268.784 -0.810921 1.85117 0
M  V30 2714 C 269.105 -1.7984 0.753827 0
M  V30 2715 O 268.375 -1.94649 -0.221056 0
M  V30 2716 H 266.955 -0.302466 0.683025 0
M  V30 2717 H 269.617 -0.0913324 1.94686 0
M  V30 2718 H 268.713 -1.34875 2.81452 0
M  V30 2719 N 269.014 -1.53014 -0.377408 0
M  V30 2720 C 269.944 -1.81589 -1.46791 0
M  V30 2721 C 270.925 -0.668622 -1.56408 0
M  V30 2722 O 272.11 -0.917337 -1.71168 0
M  V30 2723 C 269.24 -1.99519 -2.8427 0
M  V30 2724 C 268.194 -3.15249 -2.89486 0
M  V30 2725 C 267.52 -3.18451 -4.29527 0
M  V30 2726 C 268.82 -4.54084 -2.58079 0
M  V30 2727 H 270.514 -2.7291 -1.23127 0
M  V30 2728 H 268.06 -1.31319 -0.590883 0
M  V30 2729 H 270.013 -2.18092 -3.60575 0
M  V30 2730 H 268.737 -1.04897 -3.09296 0
M  V30 2731 H 267.396 -2.96477 -2.15631 0
M  V30 2732 H 267.044 -2.2149 -4.5161 0
M  V30 2733 H 266.744 -3.962 -4.33934 0
M  V30 2734 H 268.268 -3.39193 -5.07721 0
M  V30 2735 H 269.682 -4.72899 -3.24098 0
M  V30 2736 H 268.079 -5.33987 -2.7382 0
M  V30 2737 H 269.149 -4.60006 -1.53372 0
M  V30 2738 N 270.492 0.636531 -1.44174 0
M  V30 2739 C 271.422 1.76003 -1.53444 0
M  V30 2740 C 272.403 1.65619 -0.387841 0
M  V30 2741 O 273.588 1.84461 -0.607257 0
M  V30 2742 C 270.718 3.14511 -1.4731 0
M  V30 2743 C 269.672 3.39677 -2.60391 0
M  V30 2744 C 268.998 4.78159 -2.39308 0
M  V30 2745 C 270.298 3.32772 -4.02567 0
M  V30 2746 H 271.992 1.68501 -2.47483 0
M  V30 2747 H 269.538 0.809237 -1.19111 0
M  V30 2748 H 271.491 3.92878 -1.52397 0
M  V30 2749 H 270.215 3.22783 -0.49785 0
M  V30 2750 H 268.874 2.63688 -2.54684 0
M  V30 2751 H 268.522 4.83128 -1.39988 0
M  V30 2752 H 268.222 4.95956 -3.15122 0
M  V30 2753 H 269.746 5.58762 -2.46205 0
M  V30 2754 H 271.16 4.01051 -4.09672 0
M  V30 2755 H 269.557 3.62104 -4.7854 0
M  V30 2756 H 270.627 2.30669 -4.2652 0
M  V30 2757 N 271.97 1.30982 0.876444 0
M  V30 2758 C 272.9 1.20668 1.99903 0
M  V30 2759 C 273.881 0.095354 1.69833 0
M  V30 2760 O 275.066 0.27885 1.92188 0
M  V30 2761 C 272.196 0.90655 3.3526 0
M  V30 2762 C 271.15 1.97675 3.79617 0
M  V30 2763 C 270.476 1.52943 5.1236 0
M  V30 2764 C 271.776 3.389 3.97422 0
M  V30 2765 H 273.47 2.14586 2.0879 0
M  V30 2766 H 271.016 1.03308 1.00317 0
M  V30 2767 H 272.969 0.821025 4.13324 0
M  V30 2768 H 271.693 -0.0682969 3.26529 0
M  V30 2769 H 270.352 2.05205 3.03787 0
M  V30 2770 H 270 0.54262 5.00065 0
M  V30 2771 H 269.7 2.24532 5.43009 0
M  V30 2772 H 271.224 1.45786 5.92941 0
M  V30 2773 H 272.638 3.34081 4.659 0
M  V30 2774 H 271.035 4.0865 4.3946 0
M  V30 2775 H 272.105 3.80163 3.01006 0
M  V30 2776 N 273.449 -1.08991 1.13837 0
M  V30 2777 C 274.399 -2.1393 0.788535 0
M  V30 2778 C 275.383 -1.59396 -0.219516 0
M  V30 2779 O 276.575 -1.76985 -0.0227557 0
M  V30 2780 C 273.704 -3.42305 0.261147 0
M  V30 2781 C 272.79 -4.03736 1.29837 0
M  V30 2782 N 273.181 -4.39659 2.50067 0
M  V30 2783 C 271.479 -4.30993 1.1472 0
M  V30 2784 C 272.18 -4.88113 3.16419 0
M  V30 2785 N 271.156 -4.85846 2.43832 0
M  V30 2786 H 274.958 -2.39516 1.70322 0
M  V30 2787 H 272.472 -1.26263 1.02134 0
M  V30 2788 H 274.469 -4.16899 -0.0077405 0
M  V30 2789 H 273.129 -3.18172 -0.647805 0
M  V30 2790 H 274.14 -4.30878 2.8734 0
M  V30 2791 H 270.817 -4.16444 0.296773 0
M  V30 2792 H 272.207 -5.25336 4.18894 0
M  V30 2793 N 274.927 -0.932562 -1.27047 0
M  V30 2794 C 276.167 -0.582919 -1.95912 0
M  V30 2795 C 276.531 0.860629 -1.71631 0
M  V30 2796 O 277.732 1.31878 -2.34225 0
M  V30 2797 C 276.003 -0.905673 -3.45734 0
M  V30 2798 S 277.562 -0.665277 -4.33727 0
M  V30 2799 H 274.38 -0.215 -0.677714 0
M  V30 2800 H 276.982 -1.20204 -1.54179 0
M  V30 2801 H 275.686 -1.95386 -3.60905 0
M  V30 2802 H 275.217 -0.275939 -3.92431 0
M  V30 2803 H 277.232 0.474635 -4.93925 0
M  V30 2804 N 276.405 1.4127 -0.698611 0
M  V30 2805 C 277.645 2.03044 -0.235062 0
M  V30 2806 C 278.009 1.54146 1.14468 0
M  V30 2807 O 279.21 2.07867 1.70425 0
M  V30 2808 C 277.481 3.56192 -0.293651 0
M  V30 2809 S 279.04 4.38696 0.0954053 0
M  V30 2810 H 275.858 0.704697 -0.0944648 0
M  V30 2811 H 278.46 1.72656 -0.917064 0
M  V30 2812 H 277.164 3.89274 -1.29977 0
M  V30 2813 H 276.695 3.91285 0.407397 0
M  V30 2814 H 278.71 4.78257 1.3223 0
M  V30 2815 N 277.883 0.443576 1.51229 0
M  V30 2816 C 278.846 -0.353132 2.26463 0
M  V30 2817 C 279.846 -0.944338 1.3015 0
M  V30 2818 O 281.036 -0.817813 1.5381 0
M  V30 2819 C 278.168 -1.50023 3.06114 0
M  V30 2820 H 279.361 0.3063 2.98332 0
M  V30 2821 H 276.914 0.196902 1.55055 0
M  V30 2822 H 277.649 -2.19553 2.38677 0
M  V30 2823 H 277.434 -1.08241 3.76864 0
M  V30 2824 H 278.924 -2.06296 3.63087 0
M  V30 2825 N 279.361 -1.56624 0.175154 0
M  V30 2826 C 280.601 -1.98894 -0.471221 0
M  V30 2827 C 280.965 -1.05889 -1.60161 0
M  V30 2828 O 282.166 -1.37315 -2.3108 0
M  V30 2829 C 280.437 -3.44865 -0.938241 0
M  V30 2830 S 281.996 -4.09164 -1.58526 0
M  V30 2831 H 278.814 -0.694686 -0.151434 0
M  V30 2832 H 281.416 -1.93577 0.27352 0
M  V30 2833 H 280.12 -4.10265 -0.10518 0
M  V30 2834 H 279.651 -3.53956 -1.71693 0
M  V30 2835 H 281.666 -4.04528 -2.87352 0
M  V30 2836 N 280.839 0.0985539 -1.57292 0
M  V30 2837 C 282.087 0.801092 -1.85545 0
M  V30 2838 C 282.408 1.79438 -0.763353 0
M  V30 2839 O 281.678 1.94763 0.21073 0
M  V30 2840 H 280.258 0.29884 -0.684619 0
M  V30 2841 H 282.92 0.0810064 -1.94732 0
M  V30 2842 H 282.016 1.3338 -2.82163 0
M  V30 2843 N 282.317 1.53212 0.369288 0
M  V30 2844 C 283.28 1.7872 1.43498 0
M  V30 2845 C 284.28 0.657554 1.46741 0
M  V30 2846 O 285.47 0.925736 1.47566 0
M  V30 2847 C 282.602 1.90591 2.82645 0
M  V30 2848 H 283.795 2.73894 1.22156 0
M  V30 2849 H 281.348 1.44233 0.602203 0
M  V30 2850 H 282.083 0.974709 3.09306 0
M  V30 2851 H 281.868 2.72751 2.8169 0
M  V30 2852 H 283.358 2.11931 3.59826 0
M  V30 2853 N 283.795 -0.628877 1.44509 0
M  V30 2854 C 285.041 -1.39045 1.47629 0
M  V30 2855 C 285.374 -1.93892 0.109343 0
M  V30 2856 O 284.649 -1.7379 -0.87334 0
M  V30 2857 C 284.932 -2.55408 2.53848 0
M  V30 2858 C 284.785 -2.05896 3.99909 0
M  V30 2859 C 286.104 -3.5759 2.56549 0
M  V30 2860 H 283.223 -0.504232 0.537512 0
M  V30 2861 H 285.865 -0.710854 1.76201 0
M  V30 2862 H 284.015 -3.13384 2.29615 0
M  V30 2863 H 285.687 -1.52734 4.35282 0
M  V30 2864 H 283.93 -1.37061 4.11578 0
M  V30 2865 H 284.601 -2.89681 4.69882 0
M  V30 2866 H 287.077 -3.09419 2.78207 0
M  V30 2867 H 285.953 -4.36527 3.32769 0
M  V30 2868 H 286.214 -4.11808 1.60832 0
M  V30 2869 N 285.273 -1.31445 -0.869486 0
M  V30 2870 C 286.206 -1.13465 -1.97992 0
M  V30 2871 C 287.184 -0.0380291 -1.62556 0
M  V30 2872 O 288.368 -0.194544 -1.87493 0
M  V30 2873 C 285.495 -0.733822 -3.30655 0
M  V30 2874 C 284.541 -1.83356 -3.85075 0
M  V30 2875 S 285.374 -3.43909 -4.10472 0
M  V30 2876 C 286.53 -3.05763 -5.46132 0
M  V30 2877 H 286.763 -2.07471 -2.1294 0
M  V30 2878 H 284.296 -1.15936 -1.01972 0
M  V30 2879 H 286.254 -0.509306 -4.07328 0
M  V30 2880 H 284.915 0.187123 -3.13542 0
M  V30 2881 H 284.108 -1.50574 -4.80982 0
M  V30 2882 H 283.71 -2.01315 -3.15195 0
M  V30 2883 H 286.002 -2.54686 -6.27807 0
M  V30 2884 H 286.945 -4.00635 -5.83864 0
M  V30 2885 H 287.353 -2.43192 -5.09429 0
M  V30 2886 N 286.751 1.08385 -1.14413 0
M  V30 2887 C 288.167 1.32844 -0.884563 0
M  V30 2888 C 288.367 1.95841 0.474181 0
M  V30 2889 O 287.423 2.21158 1.21842 0
M  V30 2890 C 288.736 2.22978 -2.01745 0
M  V30 2891 C 290.284 2.36458 -2.05077 0
M  V30 2892 C 290.759 3.29934 -3.1766 0
M  V30 2893 N 292.25 3.37511 -3.17239 0
M  V30 2894 C 292.985 4.09871 -4.0099 0
M  V30 2895 N 292.481 4.84936 -4.94781 0
M  V30 2896 N 294.274 4.05704 -3.89051 0
M  V30 2897 H 286.425 0.658756 -2.01926 0
M  V30 2898 H 288.688 0.352821 -0.879899 0
M  V30 2899 H 288.394 1.83934 -2.99769 0
M  V30 2900 H 288.268 3.23441 -1.94077 0
M  V30 2901 H 290.655 2.7476 -1.0766 0
M  V30 2902 H 290.736 1.35736 -2.16816 0
M  V30 2903 H 290.38 2.92352 -4.15322 0
M  V30 2904 H 290.31 4.30584 -3.03158 0
M  V30 2905 H 292.801 2.83996 -2.49308 0
M  V30 2906 H 293.114 5.37612 -5.55151 0
M  V30 2907 H 291.459 4.83988 -4.98779 0
M  V30 2908 H 294.65 3.46167 -3.15097 0
M  V30 2909 H 294.823 4.61834 -4.54547 0
M  V30 2910 N 288.23 0.939286 1.26551 0
M  V30 2911 C 289.641 0.628782 1.75793 0
M  V30 2912 C 289.992 -0.856046 1.7654 0
M  V30 2913 O 289.117 -1.66994 1.3763 0
M  V30 2914 C 289.712 1.13465 3.19235 0
M  V30 2915 C 288.271 0.874601 3.66098 0
M  V30 2916 C 287.418 1.28667 2.45642 0
M  V30 2917 H 290.369 1.1178 1.12654 0
M  V30 2918 H 290.39 0.487609 3.77363 0
M  V30 2919 H 289.902 2.21535 3.1866 0
M  V30 2920 H 288.003 -0.191793 3.72106 0
M  V30 2921 H 288.116 1.50028 4.55004 0
M  V30 2922 H 286.48 0.705109 2.44745 0
M  V30 2923 H 287.263 2.37625 2.47769 0
M  V30 2924 N 289.708 -1.40897 0.706093 0
M  V30 2925 C 291.119 -1.84023 0.315052 0
M  V30 2926 C 291.47 -1.5906 -1.14866 0
M  V30 2927 O 290.595 -1.06651 -1.88293 0
M  V30 2928 C 291.19 -3.34055 0.565038 0
M  V30 2929 C 289.749 -3.7571 0.227806 0
M  V30 2930 C 288.896 -2.64204 0.842122 0
M  V30 2931 H 291.847 -1.303 0.905963 0
M  V30 2932 H 291.868 -3.80107 -0.172843 0
M  V30 2933 H 291.38 -3.52192 1.63042 0
M  V30 2934 H 289.481 -3.63172 -0.832895 0
M  V30 2935 H 289.594 -4.74103 0.690174 0
M  V30 2936 H 287.958 -2.53255 0.270893 0
M  V30 2937 H 288.741 -2.85155 1.91158 0
M  V30 2938 N 291.186 -0.45159 -1.50991 0
M  V30 2939 C 292.597 0.00818571 -1.86698 0
M  V30 2940 C 292.948 1.40661 -1.3678 0
M  V30 2941 O 292.073 2.0391 -0.724546 0
M  V30 2942 C 292.668 0.0216303 -3.38793 0
M  V30 2943 C 291.227 0.425865 -3.73983 0
M  V30 2944 C 290.374 -0.372163 -2.74791 0
M  V30 2945 H 293.325 -0.666785 -1.44013 0
M  V30 2946 H 293.346 0.828078 -3.7138 0
M  V30 2947 H 292.858 -0.996288 -3.75094 0
M  V30 2948 H 290.959 1.44886 -3.43277 0
M  V30 2949 H 291.072 0.140761 -4.78893 0
M  V30 2950 H 289.436 0.171498 -2.54122 0
M  V30 2951 H 290.219 -1.38922 -3.13935 0
M  V30 2952 N 292.664 1.56529 -0.183458 0
M  V30 2953 C 293.912 1.96855 0.457452 0
M  V30 2954 C 294.233 1.07104 1.62953 0
M  V30 2955 O 293.503 0.139887 1.954 0
M  V30 2956 H 292.083 0.72693 0.171992 0
M  V30 2957 H 294.745 1.93056 -0.267476 0
M  V30 2958 H 293.841 3.01423 0.809368 0
M  V30 2959 N 294.142 -0.090211 1.57342 0
M  V30 2960 C 295.553 -0.644173 1.75235 0
M  V30 2961 C 295.904 -1.78865 0.806335 0
M  V30 2962 O 295.029 -2.16395 -0.0140128 0
M  V30 2963 C 295.624 -1.17532 3.1776 0
M  V30 2964 C 294.183 -1.67531 3.37061 0
M  V30 2965 C 293.33 -0.58693 2.71017 0
M  V30 2966 H 296.281 0.135884 1.58117 0
M  V30 2967 H 296.302 -2.04455 3.20902 0
M  V30 2968 H 295.814 -0.342138 3.86589 0
M  V30 2969 H 293.915 -2.53234 2.73319 0
M  V30 2970 H 294.028 -1.76493 4.45406 0
M  V30 2971 H 292.392 -1.02756 2.33052 0
M  V30 2972 H 293.175 0.235758 3.4249 0
M  V30 2973 N 295.62 -1.53406 -0.361157 0
M  V30 2974 C 296.868 -1.69467 -1.10115 0
M  V30 2975 C 297.189 -0.451352 -1.89705 0
M  V30 2976 O 296.459 0.534636 -1.88463 0
M  V30 2977 H 295.039 -0.624749 -0.409508 0
M  V30 2978 H 297.701 -1.90609 -0.406699 0
M  V30 2979 H 296.797 -2.55774 -1.78847 0
M  V30 2980 N 297.098 0.621204 -1.44841 0
M  V30 2981 C 298.509 1.20298 -1.42777 0
M  V30 2982 C 298.86 1.95639 -0.148259 0
M  V30 2983 O 297.985 2.02955 0.750892 0
M  V30 2984 C 298.58 2.1882 -2.58657 0
M  V30 2985 C 297.139 2.72403 -2.59756 0
M  V30 2986 C 296.286 1.4757 -2.34773 0
M  V30 2987 H 299.237 0.411297 -1.53278 0
M  V30 2988 H 299.258 3.01607 -2.31977 0
M  V30 2989 H 298.77 1.63957 -3.51766 0
M  V30 2990 H 296.871 3.31242 -1.70615 0
M  V30 2991 H 296.984 3.17765 -3.58556 0
M  V30 2992 H 295.348 1.76051 -1.8406 0
M  V30 2993 H 296.131 0.945954 -3.3001 0
M  V30 2994 N 298.576 1.31904 0.862503 0
M  V30 2995 C 299.992 1.10724 1.14945 0
M  V30 2996 C 300.192 -0.117421 2.01158 0
M  V30 2997 O 299.248 -0.804595 2.39338 0
M  V30 2998 C 300.561 2.38267 1.83437 0
M  V30 2999 C 302.109 2.43949 1.96106 0
M  V30 3000 C 302.584 3.71394 2.68013 0
M  V30 3001 N 304.075 3.72331 2.75543 0
M  V30 3002 C 304.81 4.67641 3.31812 0
M  V30 3003 N 304.306 5.73313 3.88953 0
M  V30 3004 N 306.099 4.5515 3.29841 0
M  V30 3005 H 298.25 2.10436 0.288191 0
M  V30 3006 H 300.513 0.928705 0.190292 0
M  V30 3007 H 300.219 3.27759 1.27542 0
M  V30 3008 H 300.093 2.48633 2.83657 0
M  V30 3009 H 302.48 1.54922 2.51164 0
M  V30 3010 H 302.561 2.37543 0.949059 0
M  V30 3011 H 302.205 4.60791 2.13621 0
M  V30 3012 H 302.135 3.75069 3.69636 0
M  V30 3013 H 304.626 2.95947 2.34997 0
M  V30 3014 H 304.939 6.42107 4.30022 0
M  V30 3015 H 303.284 5.77077 3.87308 0
M  V30 3016 H 306.475 3.71766 2.84443 0
M  V30 3017 H 306.648 5.29604 3.73394 0
M  V30 3018 N 300.054 -1.07777 1.14986 0
M  V30 3019 C 301.465 -1.61766 0.932127 0
M  V30 3020 C 301.816 -1.88974 -0.527581 0
M  V30 3021 O 300.941 -1.65198 -1.39781 0
M  V30 3022 C 301.536 -2.93891 1.68563 0
M  V30 3023 C 300.095 -3.44639 1.5133 0
M  V30 3024 C 299.242 -2.18767 1.704 0
M  V30 3025 H 302.193 -0.909201 1.30074 0
M  V30 3026 H 302.214 -3.62623 1.15259 0
M  V30 3027 H 301.726 -2.74057 2.74799 0
M  V30 3028 H 299.827 -3.69564 0.474702 0
M  V30 3029 H 299.94 -4.20966 2.28746 0
M  V30 3030 H 298.304 -2.28253 1.13016 0
M  V30 3031 H 299.087 -2.01433 2.77992 0
M  V30 3032 N 301.532 -0.945985 -1.26051 0
M  V30 3033 C 302.948 -0.649045 -1.45807 0
M  V30 3034 C 303.148 0.796158 -1.85104 0
M  V30 3035 O 302.204 1.57233 -1.97571 0
M  V30 3036 C 303.517 -1.61458 -2.53677 0
M  V30 3037 C 305.065 -1.62481 -2.67524 0
M  V30 3038 C 305.54 -2.57776 -3.7857 0
M  V30 3039 N 307.031 -2.5609 -3.85969 0
M  V30 3040 C 307.766 -3.26508 -4.7136 0
M  V30 3041 N 307.262 -4.0637 -5.61102 0
M  V30 3042 N 309.055 -3.15437 -4.65248 0
M  V30 3043 H 301.206 -1.88005 -0.988328 0
M  V30 3044 H 303.469 -0.808198 -0.4955 0
M  V30 3045 H 303.175 -2.64644 -2.31638 0
M  V30 3046 H 303.049 -1.37036 -3.51427 0
M  V30 3047 H 305.436 -0.600167 -2.88933 0
M  V30 3048 H 305.517 -1.90958 -1.70202 0
M  V30 3049 H 305.161 -3.60361 -3.57913 0
M  V30 3050 H 305.091 -2.26587 -4.75359 0
M  V30 3051 H 307.582 -1.98105 -3.21812 0
M  V30 3052 H 307.895 -4.57042 -6.23164 0
M  V30 3053 H 306.24 -4.10469 -5.60839 0
M  V30 3054 H 309.431 -2.52525 -3.94143 0
M  V30 3055 H 309.604 -3.70584 -5.31575 0
M  V30 3056 N 303.011 1.40521 -0.713556 0
M  V30 3057 C 304.427 1.54839 -0.386907 0
M  V30 3058 C 304.627 1.68532 1.1045 0
M  V30 3059 O 303.683 1.67377 1.89053 0
M  V30 3060 C 304.996 2.77792 -1.15118 0
M  V30 3061 C 306.544 2.91607 -1.13729 0
M  V30 3062 C 307.019 4.1747 -1.88368 0
M  V30 3063 N 308.51 4.24466 -1.85427 0
M  V30 3064 C 309.245 5.20755 -2.40004 0
M  V30 3065 N 308.741 6.22965 -3.03129 0
M  V30 3066 N 310.534 5.1282 -2.30158 0
M  V30 3067 H 302.685 1.29879 -1.68063 0
M  V30 3068 H 304.948 0.627896 -0.710247 0
M  V30 3069 H 304.654 2.73944 -2.20561 0
M  V30 3070 H 304.528 3.6984 -0.741477 0
M  V30 3071 H 306.915 2.94959 -0.0910608 0
M  V30 3072 H 306.996 2.00682 -1.5862 0
M  V30 3073 H 306.64 4.1488 -2.9298 0
M  V30 3074 H 306.57 5.074 -1.40898 0
M  V30 3075 H 309.061 3.51241 -1.3942 0
M  V30 3076 H 309.374 6.92859 -3.42295 0
M  V30 3077 H 307.719 6.23415 -3.07212 0
M  V30 3078 H 310.91 4.31899 -1.80501 0
M  V30 3079 H 311.083 5.87689 -2.72993 0
M  V30 3080 N 304.489 0.459591 1.5075 0
M  V30 3081 C 305.766 -0.160371 1.94941 0
M  V30 3082 C 306.146 -1.58048 1.39943 0
M  V30 3083 O 305.494 -2.206 0.595629 0
M  V30 3084 C 305.704 -0.115432 3.48809 0
M  V30 3085 C 307.052 -0.310026 4.23467 0
M  V30 3086 O 308.076 -0.192543 3.55679 0
M  V30 3087 O 306.935 -0.546031 5.43765 0
M  V30 3088 H 304.029 -0.117925 0.818549 0
M  V30 3089 H 306.575 0.519169 1.61563 0
M  V30 3090 H 305.347 0.87652 3.81357 0
M  V30 3091 H 304.97 -0.836928 3.88692 0
M  V30 3092 N 305.967 -1.56429 0.191757 0
M  V30 3093 C 307.192 -2.02309 -0.456706 0
M  V30 3094 C 307.617 -1.07103 -1.5463 0
M  V30 3095 O 306.975 -0.0539677 -1.8122 0
M  V30 3096 C 307.023 -3.46654 -0.993159 0
M  V30 3097 O 306.127 -3.54559 -2.10622 0
M  V30 3098 H 305.468 -0.655303 -0.107114 0
M  V30 3099 H 307.998 -2.02364 0.301653 0
M  V30 3100 H 308.008 -3.86377 -1.31061 0
M  V30 3101 H 306.683 -4.1544 -0.195504 0
M  V30 3102 H 305.26 -3.26708 -1.79767 0
M  V30 3103 N 307.445 0.0818655 -1.57387 0
M  V30 3104 C 308.408 1.08265 -2.02018 0
M  V30 3105 C 309.408 1.32183 -0.915664 0
M  V30 3106 O 310.598 1.28073 -1.18081 0
M  V30 3107 C 307.73 2.42871 -2.39221 0
M  V30 3108 H 308.923 0.698204 -2.91659 0
M  V30 3109 H 306.476 0.327303 -1.52835 0
M  V30 3110 H 307.211 2.86167 -1.52575 0
M  V30 3111 H 306.996 2.26855 -3.19811 0
M  V30 3112 H 308.486 3.14826 -2.74362 0
M  V30 3113 N 308.923 1.53595 0.353017 0
M  V30 3114 C 310.171 1.70049 1.09215 0
M  V30 3115 C 310.492 0.461406 1.89463 0
M  V30 3116 O 309.762 -0.524633 1.88744 0
M  V30 3117 H 308.342 0.626912 0.40619 0
M  V30 3118 H 311.004 1.90822 0.396585 0
M  V30 3119 H 310.1 2.56718 1.77488 0
M  V30 3120 N 310.401 -0.613514 1.45168 0
M  V30 3121 C 311.678 -1.37263 1.39349 0
M  V30 3122 C 312.058 -2.11012 0.0610848 0
M  V30 3123 O 311.406 -2.07502 -0.956825 0
M  V30 3124 C 311.616 -2.3244 2.60332 0
M  V30 3125 C 312.964 -2.9523 3.05163 0
M  V30 3126 O 313.988 -2.42762 2.60663 0
M  V30 3127 O 312.847 -3.90454 3.82372 0
M  V30 3128 H 309.941 -0.615188 0.552696 0
M  V30 3129 H 312.487 -0.637097 1.57287 0
M  V30 3130 H 311.259 -1.77164 3.48896 0
M  V30 3131 H 310.882 -3.13383 2.44698 0
M  V30 3132 N 311.879 -1.3236 -0.855495 0
M  V30 3133 C 313.295 -1.11332 -1.14356 0
M  V30 3134 C 313.495 0.106751 -2.01217 0
M  V30 3135 O 312.551 0.791891 -2.39761 0
M  V30 3136 C 313.864 -2.39237 -1.82171 0
M  V30 3137 C 315.412 -2.44986 -1.9481 0
M  V30 3138 C 315.887 -3.7281 -2.66039 0
M  V30 3139 N 317.378 -3.73787 -2.73565 0
M  V30 3140 C 318.113 -4.69394 -3.29327 0
M  V30 3141 N 317.609 -5.75367 -3.85907 0
M  V30 3142 N 319.402 -4.56893 -3.27423 0
M  V30 3143 H 311.553 -2.10586 -0.277027 0
M  V30 3144 H 313.816 -0.929701 -0.185364 0
M  V30 3145 H 313.522 -3.28431 -1.25802 0
M  V30 3146 H 313.396 -2.50134 -2.82335 0
M  V30 3147 H 315.783 -1.56252 -2.50338 0
M  V30 3148 H 315.864 -2.38043 -0.936448 0
M  V30 3149 H 315.508 -4.61918 -2.11174 0
M  V30 3150 H 315.438 -3.77024 -3.67642 0
M  V30 3151 H 317.929 -2.97189 -2.33424 0
M  V30 3152 H 318.242 -6.44378 -4.26611 0
M  V30 3153 H 316.587 -5.79123 -3.84242 0
M  V30 3154 H 319.778 -3.73269 -2.82467 0
M  V30 3155 H 319.951 -5.31577 -3.7058 0
M  V30 3156 N 313.357 1.07166 -1.15556 0
M  V30 3157 C 314.32 2.12589 -0.856644 0
M  V30 3158 C 315.32 1.6015 0.14444 0
M  V30 3159 O 316.51 1.7399 -0.0854163 0
M  V30 3160 C 313.642 3.39753 -0.279405 0
M  V30 3161 H 314.835 2.40539 -1.79112 0
M  V30 3162 H 312.388 1.23086 -0.963298 0
M  V30 3163 H 313.123 3.17447 0.663174 0
M  V30 3164 H 312.908 3.79117 -1.00063 0
M  V30 3165 H 314.398 4.17507 -0.0879113 0
M  V30 3166 N 314.835 0.952656 1.25548 0
M  V30 3167 C 316.083 0.605176 1.92826 0
M  V30 3168 C 316.404 -0.860261 1.74999 0
M  V30 3169 O 315.674 -1.6125 1.11244 0
M  V30 3170 H 314.254 0.220832 0.713612 0
M  V30 3171 H 316.916 1.21047 1.52754 0
M  V30 3172 H 316.012 0.832798 3.00784 0
M  V30 3173 N 316.313 -1.40141 0.720998 0
M  V30 3174 C 317.59 -1.94677 0.189757 0
M  V30 3175 C 317.97 -1.65879 -1.30566 0
M  V30 3176 O 317.318 -0.979391 -2.06447 0
M  V30 3177 C 317.528 -3.45279 0.508304 0
M  V30 3178 C 318.876 -4.22209 0.449934 0
M  V30 3179 O 319.9 -3.53413 0.444677 0
M  V30 3180 O 318.759 -5.44788 0.432189 0
M  V30 3181 H 315.853 -0.826459 0.0299026 0
M  V30 3182 H 318.399 -1.49719 0.7989 0
M  V30 3183 H 317.171 -3.59619 1.54239 0
M  V30 3184 H 316.794 -3.97386 -0.130525 0
M  V30 3185 N 317.792 -0.46758 -1.50504 0
M  V30 3186 C 318.755 0.317059 -2.26996 0
M  V30 3187 C 319.755 0.923513 -1.31635 0
M  V30 3188 O 320.945 0.793239 -1.55091 0
M  V30 3189 C 318.077 1.45134 -3.08462 0
M  V30 3190 H 319.27 -0.353723 -2.97807 0
M  V30 3191 H 316.823 -0.221545 -1.54722 0
M  V30 3192 H 317.558 2.15728 -2.4214 0
M  V30 3193 H 317.343 1.02232 -3.78538 0
M  V30 3194 H 318.833 2.00493 -3.66323 0
M  V30 3195 N 319.27 1.56325 -0.20005 0
M  V30 3196 C 320.681 1.8408 0.31167 0
M  V30 3197 C 321.032 1.12087 1.61031 0
M  V30 3198 O 320.157 0.38332 2.12978 0
M  V30 3199 C 320.752 3.33932 0.57226 0
M  V30 3200 C 319.311 3.6208 1.02834 0
M  V30 3201 C 318.458 2.77186 0.079634 0
M  V30 3202 H 321.409 1.52939 -0.423729 0
M  V30 3203 H 321.43 3.52971 1.42096 0
M  V30 3204 H 320.942 3.86303 -0.37308 0
M  V30 3205 H 319.043 3.15147 1.98778 0
M  V30 3206 H 319.156 4.7023 0.917624 0
M  V30 3207 H 317.52 2.47951 0.582448 0
M  V30 3208 H 318.303 3.32347 -0.860238 0
M  V30 3209 N 320.748 -0.0735177 1.57428 0
M  V30 3210 C 321.996 -0.771472 1.86796 0
M  V30 3211 C 322.317 -1.78201 0.791804 0
M  V30 3212 O 321.587 -1.95074 -0.179718 0
M  V30 3213 H 320.167 -0.28791 0.689287 0
M  V30 3214 H 322.829 -0.0500161 1.94836 0
M  V30 3215 H 321.925 -1.28874 2.8425 0
M  V30 3216 N 322.226 -1.5378 -0.344866 0
M  V30 3217 C 323.136 -1.84667 -1.4469 0
M  V30 3218 C 324.152 -0.736704 -1.57635 0
M  V30 3219 O 325.328 -1.02888 -1.73136 0
M  V30 3220 C 322.393 -2.04869 -2.79696 0
M  V30 3221 C 321.454 -3.28731 -2.76106 0
M  V30 3222 C 320.687 -3.4796 -4.04673 0
M  V30 3223 O 320.91 -2.71052 -5.01883 0
M  V30 3224 O 319.844 -4.41383 -4.09224 0
M  V30 3225 H 323.67 -2.78334 -1.21506 0
M  V30 3226 H 321.255 -1.39418 -0.536921 0
M  V30 3227 H 323.137 -2.19609 -3.59652 0
M  V30 3228 H 321.812 -1.14391 -3.02814 0
M  V30 3229 H 320.719 -3.19396 -1.94774 0
M  V30 3230 H 322.052 -4.19198 -2.57941 0
M  V30 3231 N 323.704 0.605807 -1.45491 0
M  V30 3232 C 324.667 1.69836 -1.5391 0
M  V30 3233 C 325.667 1.55261 -0.418424 0
M  V30 3234 O 326.857 1.60296 -0.681965 0
M  V30 3235 C 323.989 3.09117 -1.43734 0
M  V30 3236 H 325.182 1.63738 -2.51257 0
M  V30 3237 H 322.735 0.821689 -1.32959 0
M  V30 3238 H 323.47 3.20791 -0.475788 0
M  V30 3239 H 323.255 3.21104 -2.25021 0
M  V30 3240 H 324.745 3.88696 -1.52661 0
M  V30 3241 N 325.182 1.32811 0.848464 0
M  V30 3242 C 326.092 1.24278 1.98978 0
M  V30 3243 C 327.108 0.155176 1.73307 0
M  V30 3244 O 328.284 0.376999 1.9784 0
M  V30 3245 C 325.349 0.972444 3.32783 0
M  V30 3246 C 324.41 2.14911 3.71634 0
M  V30 3247 C 323.643 1.89157 4.99054 0
M  V30 3248 O 323.866 0.837165 5.64223 0
M  V30 3249 O 322.8 2.75433 5.35183 0
M  V30 3250 H 326.626 2.20238 2.09115 0
M  V30 3251 H 324.211 1.12762 0.980052 0
M  V30 3252 H 326.093 0.838432 4.12975 0
M  V30 3253 H 324.768 0.043051 3.23671 0
M  V30 3254 H 323.675 2.33862 2.91992 0
M  V30 3255 H 325.008 3.06151 3.85399 0
M  V30 3256 N 326.66 -1.06551 1.16123 0
M  V30 3257 C 327.623 -2.12132 0.867906 0
M  V30 3258 C 328.623 -1.60224 -0.135944 0
M  V30 3259 O 329.813 -1.73943 0.0946422 0
M  V30 3260 C 326.945 -3.396 0.297419 0
M  V30 3261 H 328.138 -2.39586 1.80385 0
M  V30 3262 H 325.691 -1.22574 0.969812 0
M  V30 3263 H 326.426 -3.17794 -0.64633 0
M  V30 3264 H 326.211 -3.78581 1.02073 0
M  V30 3265 H 327.701 -4.17455 0.110052 0
M  V30 3266 N 328.138 -0.959301 -1.25041 0
M  V30 3267 C 329.415 -0.533805 -1.88175 0
M  V30 3268 C 329.795 0.988994 -1.865 0
M  V30 3269 O 329.143 1.85677 -1.33177 0
M  V30 3270 C 329.353 -1.11575 -3.30684 0
M  V30 3271 C 330.701 -1.19548 -4.07423 0
M  V30 3272 O 331.725 -1.06765 -3.39823 0
M  V30 3273 O 330.584 -1.39656 -5.28354 0
M  V30 3274 H 327.678 -0.176772 -0.807887 0
M  V30 3275 H 330.224 -1.05303 -1.33076 0
M  V30 3276 H 328.996 -2.15884 -3.26358 0
M  V30 3277 H 328.619 -0.580059 -3.93346 0
M  V30 3278 N 329.616 1.39756 -0.72842 0
M  V30 3279 C 330.864 2.00248 -0.272946 0
M  V30 3280 C 331.185 1.58077 1.14178 0
M  V30 3281 O 330.455 0.826014 1.77634 0
M  V30 3282 H 329.035 0.740554 -0.0979247 0
M  V30 3283 H 331.697 1.70903 -0.936912 0
M  V30 3284 H 330.793 3.10495 -0.316142 0
M  V30 3285 N 331.094 0.475555 1.50254 0
M  V30 3286 C 332.057 -0.305016 2.27161 0
M  V30 3287 C 333.057 -0.916519 1.32123 0
M  V30 3288 O 334.247 -0.785003 1.5551 0
M  V30 3289 C 331.379 -1.43496 3.09227 0
M  V30 3290 H 332.572 0.369511 2.97615 0
M  V30 3291 H 330.125 0.229747 1.54602 0
M  V30 3292 H 330.86 -2.14441 2.43281 0
M  V30 3293 H 330.645 -1.00223 3.79075 0
M  V30 3294 H 332.135 -1.98548 3.67381 0
M  V30 3295 N 332.573 -1.56217 0.208337 0
M  V30 3296 C 333.821 -1.97558 -0.426076 0
M  V30 3297 C 334.142 -1.09683 -1.61229 0
M  V30 3298 O 333.412 -0.170956 -1.95153 0
M  V30 3299 H 331.992 -0.729575 -0.160405 0
M  V30 3300 H 334.654 -1.92606 0.298155 0
M  V30 3301 H 333.75 -3.02672 -0.761312 0
M  V30 3302 N 334.051 0.0651679 -1.57465 0
M  V30 3303 C 334.981 1.07693 -2.07182 0
M  V30 3304 C 335.962 1.39962 -0.966673 0
M  V30 3305 O 337.147 1.49475 -1.2398 0
M  V30 3306 C 334.277 2.3885 -2.52127 0
M  V30 3307 C 333.231 2.20917 -3.66579 0
M  V30 3308 C 332.557 3.57515 -3.97601 0
M  V30 3309 C 333.857 1.62493 -4.9638 0
M  V30 3310 H 335.551 0.663199 -2.91962 0
M  V30 3311 H 333.097 0.317569 -1.40455 0
M  V30 3312 H 335.05 3.09928 -2.85522 0
M  V30 3313 H 333.774 2.82215 -1.64384 0
M  V30 3314 H 332.433 1.52279 -3.33477 0
M  V30 3315 H 332.081 3.98463 -3.06979 0
M  V30 3316 H 331.781 3.46353 -4.74672 0
M  V30 3317 H 333.305 4.30013 -4.33499 0
M  V30 3318 H 334.719 2.23445 -5.27963 0
M  V30 3319 H 333.116 1.62009 -5.77818 0
M  V30 3320 H 334.186 0.587041 -4.81333 0
M  V30 3321 N 335.529 1.53961 0.336706 0
M  V30 3322 C 336.461 1.78751 1.4346 0
M  V30 3323 C 337.474 0.669019 1.48418 0
M  V30 3324 O 338.663 0.945884 1.51378 0
M  V30 3325 C 335.763 1.87844 2.82078 0
M  V30 3326 C 334.936 3.17854 3.00479 0
M  V30 3327 C 333.995 3.17816 4.19379 0
M  V30 3328 O 333.021 3.91511 4.13168 0
M  V30 3329 N 334.223 2.40669 5.2826 0
M  V30 3330 H 336.988 2.73493 1.22563 0
M  V30 3331 H 334.549 1.53096 0.526625 0
M  V30 3332 H 336.541 1.85261 3.59806 0
M  V30 3333 H 335.111 1.00257 2.96086 0
M  V30 3334 H 334.331 3.33504 2.10163 0
M  V30 3335 H 335.619 4.03718 3.0966 0
M  V30 3336 H 335.017 1.8036 5.36178 0
M  V30 3337 H 333.574 2.43877 6.04456 0
M  V30 3338 N 337.007 -0.598083 1.45811 0
M  V30 3339 C 337.937 -1.71873 1.58057 0
M  V30 3340 C 338.918 -1.64533 0.431615 0
M  V30 3341 O 340.103 -1.82787 0.65595 0
M  V30 3342 C 337.233 -3.10495 1.55597 0
M  V30 3343 C 336.187 -3.32654 2.69305 0
M  V30 3344 C 335.513 -4.71646 2.51902 0
M  V30 3345 C 336.813 -3.21981 4.11248 0
M  V30 3346 H 338.507 -1.61881 2.51863 0
M  V30 3347 H 336.053 -0.777372 1.21214 0
M  V30 3348 H 338.006 -3.88699 1.6276 0
M  V30 3349 H 336.73 -3.2135 0.583255 0
M  V30 3350 H 335.389 -2.56843 2.61586 0
M  V30 3351 H 335.037 -4.79246 1.52748 0
M  V30 3352 H 334.737 -4.87426 3.2816 0
M  V30 3353 H 336.261 -5.52038 2.60933 0
M  V30 3354 H 337.675 -3.90049 4.20161 0
M  V30 3355 H 336.072 -3.49289 4.87972 0
M  V30 3356 H 337.142 -2.1928 4.32486 0
M  V30 3357 N 338.485 -1.33259 -0.841409 0
M  V30 3358 C 339.901 -1.12538 -1.13169 0
M  V30 3359 C 340.101 0.0854037 -2.01319 0
M  V30 3360 O 339.157 0.766417 -2.40587 0
M  V30 3361 C 340.47 -2.41156 -1.79623 0
M  V30 3362 C 342.018 -2.47038 -1.922 0
M  V30 3363 C 342.493 -3.7561 -2.6207 0
M  V30 3364 N 343.984 -3.76667 -2.69585 0
M  V30 3365 C 344.719 -4.72861 -3.2433 0
M  V30 3366 N 344.215 -5.79428 -3.79783 0
M  V30 3367 N 346.008 -4.6034 -3.22558 0
M  V30 3368 H 338.159 -2.10868 -0.254676 0
M  V30 3369 H 340.422 -0.931615 -0.175493 0
M  V30 3370 H 340.128 -3.29747 -1.22311 0
M  V30 3371 H 340.002 -2.53114 -2.79666 0
M  V30 3372 H 342.389 -1.58898 -2.48667 0
M  V30 3373 H 342.47 -2.39022 -0.911148 0
M  V30 3374 H 342.114 -4.64131 -2.06263 0
M  V30 3375 H 342.044 -3.80902 -3.63622 0
M  V30 3376 H 344.535 -2.99648 -2.30259 0
M  V30 3377 H 344.848 -6.48867 -4.19752 0
M  V30 3378 H 343.193 -5.83166 -3.78078 0
M  V30 3379 H 346.384 -3.76244 -2.78492 0
M  V30 3380 H 346.557 -5.35478 -3.64921 0
M  V30 3381 N 339.963 1.05934 -1.16686 0
M  V30 3382 C 340.873 2.17014 -0.891183 0
M  V30 3383 C 341.889 1.73453 0.137907 0
M  V30 3384 O 343.065 2.01361 -0.039592 0
M  V30 3385 C 340.13 3.44384 -0.400099 0
M  V30 3386 C 339.191 4.02433 -1.49486 0
M  V30 3387 C 338.424 5.23723 -1.02711 0
M  V30 3388 O 338.647 5.7027 0.121716 0
M  V30 3389 O 337.581 5.7382 -1.81699 0
M  V30 3390 H 341.407 2.43113 -1.82015 0
M  V30 3391 H 338.992 1.15541 -0.947132 0
M  V30 3392 H 340.874 4.21189 -0.133392 0
M  V30 3393 H 339.549 3.19802 0.500817 0
M  V30 3394 H 338.456 3.27102 -1.81535 0
M  V30 3395 H 339.789 4.31317 -2.37121 0
M  V30 3396 N 341.441 0.965919 1.2453 0
M  V30 3397 C 342.404 0.499547 2.2369 0
M  V30 3398 C 343.404 -0.40294 1.5567 0
M  V30 3399 O 344.594 -0.19865 1.73064 0
M  V30 3400 C 341.726 -0.276792 3.39774 0
M  V30 3401 H 342.919 1.37613 2.66463 0
M  V30 3402 H 340.472 0.750324 1.37112 0
M  V30 3403 H 341.207 -1.17055 3.02438 0
M  V30 3404 H 340.992 0.370826 3.90343 0
M  V30 3405 H 342.482 -0.592175 4.1338 0
M  V30 3406 N 342.919 -1.39368 0.735821 0
M  V30 3407 C 344.144 -2.05319 0.293052 0
M  V30 3408 C 344.569 -1.55115 -1.064 0
M  V30 3409 O 343.927 -0.695261 -1.67439 0
M  V30 3410 C 343.975 -3.59305 0.305323 0
M  V30 3411 O 343.079 -4.06299 -0.706761 0
M  V30 3412 H 342.42 -0.650529 0.13307 0
M  V30 3413 H 344.95 -1.78386 1.00197 0
M  V30 3414 H 344.96 -4.07724 0.149997 0
M  V30 3415 H 343.635 -3.95207 1.29553 0
M  V30 3416 H 342.212 -3.69292 -0.517504 0
M  V30 3417 N 344.397 -0.483516 -1.5 0
M  V30 3418 C 345.808 -0.0314176 -1.86674 0
M  V30 3419 C 346.159 1.37728 -1.39733 0
M  V30 3420 O 345.284 2.02327 -0.767635 0
M  V30 3421 C 345.879 -0.0502376 -3.38763 0
M  V30 3422 C 344.438 0.346442 -3.74802 0
M  V30 3423 C 343.585 -0.430366 -2.7394 0
M  V30 3424 H 346.536 -0.697182 -1.42566 0
M  V30 3425 H 346.557 0.749116 -3.73053 0
M  V30 3426 H 346.069 -1.07563 -3.72897 0
M  V30 3427 H 344.17 1.37572 -3.46273 0
M  V30 3428 H 344.283 0.0391486 -4.79084 0
M  V30 3429 H 342.647 0.117557 -2.54429 0
M  V30 3430 H 343.43 -1.4555 -3.10918 0
M  V30 3431 N 345.875 1.56104 -0.216619 0
M  V30 3432 C 347.291 1.58995 0.13886 0
M  V30 3433 C 347.491 1.23333 1.59346 0
M  V30 3434 O 346.547 0.966234 2.33281 0
M  V30 3435 C 347.86 3.00143 -0.182968 0
M  V30 3436 C 349.408 3.12751 -0.124807 0
M  V30 3437 C 349.883 4.56068 -0.420241 0
M  V30 3438 N 351.374 4.61723 -0.369634 0
M  V30 3439 C 352.109 5.70542 -0.571789 0
M  V30 3440 N 351.605 6.87744 -0.835453 0
M  V30 3441 N 353.398 5.59831 -0.504563 0
M  V30 3442 H 345.549 1.77562 -1.16557 0
M  V30 3443 H 347.812 0.825091 -0.466828 0
M  V30 3444 H 347.518 3.30871 -1.19237 0
M  V30 3445 H 347.392 3.73813 0.504367 0
M  V30 3446 H 349.779 2.81822 0.875223 0
M  V30 3447 H 349.86 2.41421 -0.845544 0
M  V30 3448 H 349.504 4.87713 -1.41769 0
M  V30 3449 H 349.434 5.25617 0.321631 0
M  V30 3450 H 351.925 3.77502 -0.173338 0
M  V30 3451 H 352.238 7.66587 -0.977938 0
M  V30 3452 H 350.583 6.895 -0.872592 0
M  V30 3453 H 353.774 4.67145 -0.298842 0
M  V30 3454 H 353.947 6.44573 -0.665519 0
M  V30 3455 N 347.353 -0.0568162 1.57498 0
M  V30 3456 C 348.599 -0.75422 1.88253 0
M  V30 3457 C 348.932 -1.76461 0.810865 0
M  V30 3458 O 348.207 -1.93691 -0.177259 0
M  V30 3459 C 348.49 -1.44878 3.2967 0
M  V30 3460 C 348.343 -0.453789 4.47505 0
M  V30 3461 C 349.662 -2.38994 3.69554 0
M  V30 3462 H 346.781 -0.272724 0.684683 0
M  V30 3463 H 349.423 -0.0172113 1.89992 0
M  V30 3464 H 347.573 -2.077 3.28318 0
M  V30 3465 H 349.245 0.170371 4.60985 0
M  V30 3466 H 347.488 0.229552 4.33192 0
M  V30 3467 H 348.159 -0.977699 5.43273 0
M  V30 3468 H 350.635 -1.86239 3.72095 0
M  V30 3469 H 349.511 -2.84587 4.69363 0
M  V30 3470 H 349.772 -3.24461 3.00296 0
M  V30 3471 N 348.832 -1.54138 -0.328536 0
M  V30 3472 C 350.248 -1.44736 -0.672574 0
M  V30 3473 C 350.448 -0.616217 -1.91846 0
M  V30 3474 O 349.504 -0.113067 -2.52247 0
M  V30 3475 C 350.817 -2.884 -0.851217 0
M  V30 3476 C 352.365 -2.98271 -0.948877 0
M  V30 3477 C 352.84 -4.43074 -1.15973 0
M  V30 3478 N 354.331 -4.46665 -1.22658 0
M  V30 3479 C 355.066 -5.55857 -1.40751 0
M  V30 3480 N 354.562 -6.75026 -1.5592 0
M  V30 3481 N 356.355 -5.43495 -1.4342 0
M  V30 3482 H 348.506 -2.06661 0.490421 0
M  V30 3483 H 350.769 -0.934812 0.157579 0
M  V30 3484 H 350.475 -3.51699 -0.00704236 0
M  V30 3485 H 350.349 -3.34225 -1.74853 0
M  V30 3486 H 352.736 -2.35102 -1.78356 0
M  V30 3487 H 352.817 -2.55785 -0.0281435 0
M  V30 3488 H 352.461 -5.06827 -0.329915 0
M  V30 3489 H 352.391 -4.83165 -2.09426 0
M  V30 3490 H 354.882 -3.60797 -1.124 0
M  V30 3491 H 355.195 -7.54004 -1.69404 0
M  V30 3492 H 353.54 -6.77944 -1.53027 0
M  V30 3493 H 356.731 -4.49349 -1.31162 0
M  V30 3494 H 356.904 -6.28649 -1.57178 0
M  V30 3495 N 350.31 0.590341 -1.46126 0
M  V30 3496 C 351.721 1.17243 -1.45296 0
M  V30 3497 C 352.072 1.95281 -0.189723 0
M  V30 3498 O 351.197 2.04502 0.707674 0
M  V30 3499 C 351.792 2.13284 -2.6324 0
M  V30 3500 C 350.351 2.66832 -2.65476 0
M  V30 3501 C 349.498 1.42557 -2.3785 0
M  V30 3502 H 352.449 0.378692 -1.54116 0
M  V30 3503 H 352.47 2.96619 -2.38323 0
M  V30 3504 H 351.982 1.56459 -3.55165 0
M  V30 3505 H 350.083 3.27548 -1.77603 0
M  V30 3506 H 350.196 3.10088 -3.65215 0
M  V30 3507 H 348.56 1.72107 -1.87753 0
M  V30 3508 H 349.343 0.875741 -3.31942 0
M  V30 3509 N 351.788 1.33704 0.83433 0
M  V30 3510 C 353.204 1.13137 1.12571 0
M  V30 3511 C 353.404 -0.0747261 2.01361 0
M  V30 3512 O 352.46 -0.753647 2.4099 0
M  V30 3513 C 353.773 2.42105 1.78342 0
M  V30 3514 C 355.321 2.48054 1.90888 0
M  V30 3515 C 355.796 3.76995 2.60075 0
M  V30 3516 N 357.287 3.78092 2.67584 0
M  V30 3517 C 358.022 4.74574 3.21818 0
M  V30 3518 N 357.518 5.81434 3.76705 0
M  V30 3519 N 359.311 4.62044 3.20112 0
M  V30 3520 H 351.462 2.11 0.243489 0
M  V30 3521 H 353.725 0.932532 0.17055 0
M  V30 3522 H 353.431 3.30391 1.20561 0
M  V30 3523 H 353.305 2.54594 2.7832 0
M  V30 3524 H 355.692 1.60215 2.47821 0
M  V30 3525 H 355.773 2.39502 0.898459 0
M  V30 3526 H 355.417 4.65219 2.03799 0
M  V30 3527 H 355.347 3.82825 3.61597 0
M  V30 3528 H 357.838 3.00865 2.28667 0
M  V30 3529 H 358.151 6.51084 4.16305 0
M  V30 3530 H 356.496 5.85163 3.7498 0
M  V30 3531 H 359.687 3.77716 2.76493 0
M  V30 3532 H 359.86 5.37406 3.62076 0
M  V30 3533 N 353.266 -1.05314 1.17247 0
M  V30 3534 C 354.682 -1.30452 0.919473 0
M  V30 3535 C 354.882 -1.9703 -0.42209 0
M  V30 3536 O 353.938 -2.24311 -1.15935 0
M  V30 3537 C 355.251 -2.17551 2.07586 0
M  V30 3538 C 356.799 -2.30937 2.11275 0
M  V30 3539 C 357.274 -3.21396 3.26296 0
M  V30 3540 N 358.765 -3.28981 3.26076 0
M  V30 3541 C 359.5 -3.99095 4.11716 0
M  V30 3542 N 358.996 -4.71648 5.07465 0
M  V30 3543 N 360.789 -3.95247 3.9967 0
M  V30 3544 H 352.94 -0.604988 2.03602 0
M  V30 3545 H 355.203 -0.329368 0.888944 0
M  V30 3546 H 354.909 -1.75921 3.0454 0
M  V30 3547 H 354.783 -3.18182 2.02584 0
M  V30 3548 H 357.17 -2.71809 1.14907 0
M  V30 3549 H 357.251 -1.2994 2.20339 0
M  V30 3550 H 356.895 -2.81238 4.22927 0
M  V30 3551 H 356.825 -4.22395 3.14467 0
M  V30 3552 H 359.316 -2.77286 2.5675 0
M  V30 3553 H 359.629 -5.22705 5.6921 0
M  V30 3554 H 357.974 -4.70594 5.11435 0
M  V30 3555 H 361.165 -3.37691 3.24164 0
M  V30 3556 H 361.338 -4.4962 4.66632 0
M  V30 3557 N 354.744 -0.972509 -1.24016 0
M  V30 3558 C 356.16 -0.679827 -1.44397 0
M  V30 3559 C 356.36 0.756716 -1.86751 0
M  V30 3560 O 355.416 1.53007 -2.00861 0
M  V30 3561 C 356.729 -1.66803 -2.50195 0
M  V30 3562 C 358.277 -1.68119 -2.64017 0
M  V30 3563 C 358.752 -2.65748 -3.73017 0
M  V30 3564 N 360.243 -2.64219 -3.8045 0
M  V30 3565 C 360.978 -3.36433 -4.64328 0
M  V30 3566 N 360.474 -4.1818 -5.52356 0
M  V30 3567 N 362.267 -3.25235 -4.58453 0
M  V30 3568 H 354.418 -1.90059 -0.948228 0
M  V30 3569 H 356.681 -0.818527 -0.478245 0
M  V30 3570 H 356.387 -2.69498 -2.25973 0
M  V30 3571 H 356.261 -1.4446 -3.48441 0
M  V30 3572 H 358.648 -0.661319 -2.87594 0
M  V30 3573 H 358.729 -1.94525 -1.66113 0
M  V30 3574 H 358.373 -3.67872 -3.50189 0
M  V30 3575 H 358.303 -2.36619 -4.70446 0
M  V30 3576 H 360.794 -2.04887 -3.17537 0
M  V30 3577 H 361.107 -4.70157 -6.13329 0
M  V30 3578 H 359.452 -4.22273 -5.52006 0
M  V30 3579 H 362.643 -2.60829 -3.88698 0
M  V30 3580 H 362.816 -3.81776 -5.23594 0
M  V30 3581 N 356.222 1.38976 -0.743202 0
M  V30 3582 C 357.152 2.33171 -0.123873 0
M  V30 3583 C 358.133 1.54336 0.71516 0
M  V30 3584 O 359.318 1.82696 0.658467 0
M  V30 3585 C 356.448 3.38474 0.777978 0
M  V30 3586 C 355.402 4.27979 0.0424758 0
M  V30 3587 C 354.728 5.2405 1.06189 0
M  V30 3588 C 356.028 5.10155 -1.1198 0
M  V30 3589 H 357.722 2.85213 -0.910709 0
M  V30 3590 H 355.268 1.37133 -0.439388 0
M  V30 3591 H 357.221 4.03328 1.22084 0
M  V30 3592 H 355.945 2.84891 1.59702 0
M  V30 3593 H 354.604 3.64616 -0.380853 0
M  V30 3594 H 354.252 4.66758 1.87472 0
M  V30 3595 H 353.952 5.84785 0.574485 0
M  V30 3596 H 355.476 5.9178 1.50428 0
M  V30 3597 H 356.89 5.68307 -0.75499 0
M  V30 3598 H 355.287 5.80073 -1.53738 0
M  V30 3599 H 356.357 4.44504 -1.93764 0
M  V30 3600 N 357.7 0.491464 1.49741 0
M  V30 3601 C 358.63 -0.28154 2.31796 0
M  V30 3602 C 359.611 -0.971473 1.3963 0
M  V30 3603 O 360.796 -0.964719 1.68543 0
M  V30 3604 C 357.926 -1.35203 3.19902 0
M  V30 3605 C 356.88 -0.782529 4.20786 0
M  V30 3606 C 356.206 -1.95283 4.97764 0
M  V30 3607 C 357.506 0.21999 5.21837 0
M  V30 3608 H 359.2 0.403355 2.96671 0
M  V30 3609 H 356.746 0.195425 1.42668 0
M  V30 3610 H 358.699 -1.90045 3.76113 0
M  V30 3611 H 357.423 -2.06598 2.52953 0
M  V30 3612 H 356.082 -0.255928 3.65706 0
M  V30 3613 H 355.73 -2.65423 4.2727 0
M  V30 3614 H 355.43 -1.57789 5.66018 0
M  V30 3615 H 356.954 -2.50577 5.56816 0
M  V30 3616 H 358.368 -0.23996 5.72798 0
M  V30 3617 H 356.765 0.51026 5.97927 0
M  V30 3618 H 357.835 1.13911 4.7133 0
M  V30 3619 N 359.178 -1.55987 0.224894 0
M  V30 3620 C 360.455 -1.90232 -0.455083 0
M  V30 3621 C 360.835 -1.14269 -1.77499 0
M  V30 3622 O 360.183 -0.253079 -2.27094 0
M  V30 3623 C 360.393 -3.42993 -0.644758 0
M  V30 3624 C 361.741 -4.13821 -0.950669 0
M  V30 3625 O 362.765 -3.4861 -0.731423 0
M  V30 3626 O 361.624 -5.29128 -1.36695 0
M  V30 3627 H 358.718 -0.79108 -0.241084 0
M  V30 3628 H 361.264 -1.67581 0.267327 0
M  V30 3629 H 360.036 -3.90252 0.28613 0
M  V30 3630 H 359.659 -3.71434 -1.41853 0
M  V30 3631 N 360.656 0.0484629 -1.57525 0
M  V30 3632 C 361.586 1.0549 -2.08313 0
M  V30 3633 C 362.567 1.38929 -0.981463 0
M  V30 3634 O 363.752 1.48151 -1.25558 0
M  V30 3635 C 360.882 2.36162 -2.54646 0
M  V30 3636 C 359.836 2.17016 -3.68901 0
M  V30 3637 C 359.162 3.53278 -4.01371 0
M  V30 3638 C 360.462 1.57219 -4.98076 0
M  V30 3639 H 362.156 0.632195 -2.92649 0
M  V30 3640 H 359.702 0.302654 -1.40784 0
M  V30 3641 H 361.655 3.06882 -2.88793 0
M  V30 3642 H 360.379 2.80456 -1.67368 0
M  V30 3643 H 359.038 1.48733 -3.35073 0
M  V30 3644 H 358.686 3.95185 -3.11188 0
M  V30 3645 H 358.386 3.41299 -4.78318 0
M  V30 3646 H 359.91 4.25391 -4.38035 0
M  V30 3647 H 361.324 2.17832 -5.30304 0
M  V30 3648 H 359.721 1.55871 -5.79503 0
M  V30 3649 H 360.791 0.535956 -4.81929 0
M  V30 3650 N 362.134 1.5431 0.320358 0
M  V30 3651 C 363.097 1.83195 1.3774 0
M  V30 3652 C 364.097 0.703906 1.44575 0
M  V30 3653 O 365.287 0.972214 1.44546 0
M  V30 3654 C 362.419 1.99487 2.76438 0
M  V30 3655 H 363.612 2.77642 1.1338 0
M  V30 3656 H 361.165 1.46076 0.556012 0
M  V30 3657 H 361.9 1.07262 3.06048 0
M  V30 3658 H 361.685 2.81575 2.7287 0
M  V30 3659 H 363.175 2.23271 3.52902 0
M  V30 3660 N 363.613 -0.582584 1.46437 0
M  V30 3661 C 364.859 -1.34278 1.51978 0
M  V30 3662 C 365.192 -1.93446 0.170973 0
M  V30 3663 O 364.467 -1.76481 -0.817608 0
M  V30 3664 C 364.75 -2.47203 2.61845 0
M  V30 3665 C 364.603 -1.93069 4.06257 0
M  V30 3666 C 365.922 -3.49247 2.67795 0
M  V30 3667 H 363.041 -0.486876 0.553282 0
M  V30 3668 H 365.683 -0.654437 1.78374 0
M  V30 3669 H 363.833 -3.0592 2.39469 0
M  V30 3670 H 365.505 -1.38808 4.3992 0
M  V30 3671 H 363.748 -1.23898 4.1573 0
M  V30 3672 H 364.419 -2.74586 4.7886 0
M  V30 3673 H 366.895 -3.00411 2.8791 0
M  V30 3674 H 365.771 -4.25719 3.46489 0
M  V30 3675 H 366.032 -4.06482 1.73852 0
M  V30 3676 N 365.091 -1.34144 -0.827227 0
M  V30 3677 C 366.331 -1.27603 -1.59677 0
M  V30 3678 C 366.695 0.153035 -1.91389 0
M  V30 3679 O 367.896 0.342566 -2.66608 0
M  V30 3680 C 366.167 -2.13784 -2.86411 0
M  V30 3681 S 367.726 -2.24552 -3.76991 0
M  V30 3682 H 364.544 -0.453789 -0.547354 0
M  V30 3683 H 367.146 -1.69309 -0.977479 0
M  V30 3684 H 365.85 -3.16627 -2.61104 0
M  V30 3685 H 365.381 -1.72959 -3.5334 0
M  V30 3686 H 367.396 -1.41514 -4.75593 0
M  V30 3687 N 366.569 1.04691 -1.17803 0
M  V30 3688 C 367.797 1.81446 -0.99423 0
M  V30 3689 C 368.212 1.83174 0.457459 0
M  V30 3690 O 367.569 1.26265 1.31771 0
M  V30 3691 C 367.62 3.27334 -1.5341 0
M  V30 3692 O 367.341 3.25798 -2.92895 0
M  V30 3693 C 368.842 4.20759 -1.39559 0
M  V30 3694 H 366.062 0.571599 -0.351447 0
M  V30 3695 H 368.606 1.31982 -1.56208 0
M  V30 3696 H 366.761 3.74052 -1.00815 0
M  V30 3697 H 367.175 4.17144 -3.17949 0
M  V30 3698 H 368.649 5.21084 -1.82141 0
M  V30 3699 H 369.126 4.37856 -0.343394 0
M  V30 3700 H 369.732 3.79901 -1.91195 0
M  V30 3701 N 368.047 0.979072 1.23499 0
M  V30 3702 C 369.324 0.563674 1.87302 0
M  V30 3703 C 369.704 -0.959199 1.88049 0
M  V30 3704 O 369.052 -1.83535 1.36114 0
M  V30 3705 C 369.262 1.16822 3.28867 0
M  V30 3706 C 370.61 1.26014 4.0547 0
M  V30 3707 O 371.634 1.12158 3.38082 0
M  V30 3708 O 370.493 1.48044 5.26066 0
M  V30 3709 H 367.587 0.189602 0.804972 0
M  V30 3710 H 370.133 1.07407 1.31384 0
M  V30 3711 H 368.905 2.21049 3.22883 0
M  V30 3712 H 368.528 0.642564 3.92373 0
M  V30 3713 N 369.525 -1.3858 0.750561 0
M  V30 3714 C 370.941 -1.53759 0.427824 0
M  V30 3715 C 371.141 -1.71401 -1.05943 0
M  V30 3716 O 370.197 -1.72331 -1.84549 0
M  V30 3717 C 371.51 -2.74642 1.22443 0
M  V30 3718 C 373.058 -2.88489 1.2142 0
M  V30 3719 C 373.533 -4.12329 1.9937 0
M  V30 3720 N 375.024 -4.194 1.96616 0
M  V30 3721 C 375.759 -5.14209 2.53727 0
M  V30 3722 N 375.255 -6.14709 3.19539 0
M  V30 3723 N 377.048 -5.06537 2.43673 0
M  V30 3724 H 369.199 -1.25377 1.71447 0
M  V30 3725 H 371.462 -0.608844 0.726645 0
M  V30 3726 H 371.168 -2.68 2.27747 0
M  V30 3727 H 371.042 -3.67745 0.839273 0
M  V30 3728 H 373.429 -2.94614 0.169232 0
M  V30 3729 H 373.51 -1.96406 1.63885 0
M  V30 3730 H 373.154 -4.06966 3.03877 0
M  V30 3731 H 373.084 -5.03486 1.54302 0
M  V30 3732 H 375.575 -3.47421 1.48684 0
M  V30 3733 H 375.888 -6.8354 3.60545 0
M  V30 3734 H 374.233 -6.1505 3.23633 0
M  V30 3735 H 377.424 -4.26962 1.91889 0
M  V30 3736 H 377.597 -5.80245 2.88479 0
M  V30 3737 N 371.003 -0.499398 -1.49478 0
M  V30 3738 C 371.966 0.268838 -2.27618 0
M  V30 3739 C 372.966 0.895383 -1.33565 0
M  V30 3740 O 374.156 0.760164 -1.56739 0
M  V30 3741 C 371.288 1.38559 -3.11471 0
M  V30 3742 H 372.481 -0.416812 -2.96989 0
M  V30 3743 H 370.034 -0.254313 -1.54217 0
M  V30 3744 H 370.769 2.10544 -2.46661 0
M  V30 3745 H 370.554 0.941797 -3.80621 0
M  V30 3746 H 372.044 1.92678 -3.70493 0
M  V30 3747 N 372.481 1.55866 -0.233164 0
M  V30 3748 C 373.728 1.98603 0.395374 0
M  V30 3749 C 374.056 1.12105 1.58942 0
M  V30 3750 O 373.311 0.168656 1.94972 0
M  V30 3751 C 373.61 3.46856 0.861724 0
M  V30 3752 C 373.276 4.50348 -0.223066 0
M  V30 3753 C 371.938 4.78371 -0.521038 0
M  V30 3754 C 374.29 5.12355 -0.956124 0
M  V30 3755 C 371.618 5.6568 -1.55638 0
M  V30 3756 C 373.97 6.00786 -1.98089 0
M  V30 3757 C 372.634 6.27148 -2.28565 0
M  V30 3758 H 371.904 0.726739 0.144677 0
M  V30 3759 H 374.551 1.88491 -0.338114 0
M  V30 3760 H 372.856 3.5423 1.67418 0
M  V30 3761 H 374.553 3.77302 1.35809 0
M  V30 3762 H 371.143 4.28596 0.0193234 0
M  V30 3763 H 375.327 4.90765 -0.739166 0
M  V30 3764 H 370.583 5.84365 -1.798 0
M  V30 3765 H 374.757 6.4788 -2.55391 0
M  V30 3766 H 372.384 6.94597 -3.08932 0
M  V30 3767 N 373.959 -0.0401083 1.57549 0
M  V30 3768 C 374.922 -1.02871 2.04817 0
M  V30 3769 C 375.922 -1.29708 0.950388 0
M  V30 3770 O 377.112 -1.24897 1.21435 0
M  V30 3771 C 374.244 -2.36443 2.45576 0
M  V30 3772 H 375.437 -0.620631 2.93408 0
M  V30 3773 H 372.99 -0.286667 1.53649 0
M  V30 3774 H 373.725 -2.82021 1.60108 0
M  V30 3775 H 373.51 -2.18296 3.25713 0
M  V30 3776 H 375 -3.07441 2.82612 0
M  V30 3777 N 375.437 -1.54477 -0.31217 0
M  V30 3778 C 376.683 -1.73483 -1.0503 0
M  V30 3779 C 377.016 -0.513125 -1.87298 0
M  V30 3780 O 376.291 0.489864 -1.8823 0
M  V30 3781 C 376.574 -3.01723 -1.96558 0
M  V30 3782 C 376.427 -4.3417 -1.17545 0
M  V30 3783 C 377.746 -3.25772 -2.95907 0
M  V30 3784 H 374.865 -0.631222 -0.380432 0
M  V30 3785 H 377.507 -1.87184 -0.325932 0
M  V30 3786 H 375.657 -2.90174 -2.58324 0
M  V30 3787 H 377.329 -4.5762 -0.581513 0
M  V30 3788 H 375.572 -4.31159 -0.477925 0
M  V30 3789 H 376.243 -5.20143 -1.84811 0
M  V30 3790 H 378.719 -3.36857 -2.44267 0
M  V30 3791 H 377.595 -4.16838 -3.57123 0
M  V30 3792 H 377.856 -2.43537 -3.68974 0
M  V30 3793 N 376.915 0.57481 -1.46744 0
M  V30 3794 C 378.145 1.35659 -1.55821 0
M  V30 3795 C 378.553 1.88129 -0.201036 0
M  V30 3796 O 377.896 1.64723 0.813134 0
M  V30 3797 C 377.958 2.57473 -2.50894 0
M  V30 3798 C 377.622 2.26415 -3.9697 0
M  V30 3799 C 378.619 1.84771 -4.85958 0
M  V30 3800 C 376.304 2.38316 -4.42166 0
M  V30 3801 C 378.298 1.55434 -6.18158 0
M  V30 3802 C 375.985 2.08591 -5.74398 0
M  V30 3803 C 376.983 1.67216 -6.62214 0
M  V30 3804 O 376.671 1.37859 -7.91991 0
M  V30 3805 H 376.403 0.420496 -0.529301 0
M  V30 3806 H 378.957 0.704967 -1.92923 0
M  V30 3807 H 377.187 3.25468 -2.08824 0
M  V30 3808 H 378.876 3.19546 -2.50291 0
M  V30 3809 H 379.642 1.75085 -4.52295 0
M  V30 3810 H 375.521 2.69483 -3.74032 0
M  V30 3811 H 379.065 1.23065 -6.86659 0
M  V30 3812 H 374.962 2.17905 -6.07608 0
M  V30 3813 H 375.73 1.51638 -8.04331 0
M  V30 3814 N 378.394 1.34581 0.820102 0
M  V30 3815 C 379.357 1.2628 1.91275 0
M  V30 3816 C 380.357 0.177344 1.59819 0
M  V30 3817 O 381.547 0.430156 1.68806 0
M  V30 3818 C 378.679 0.950327 3.27386 0
M  V30 3819 H 379.872 2.23421 2.00057 0
M  V30 3820 H 377.425 1.1891 1.0144 0
M  V30 3821 H 378.16 -0.0177938 3.24295 0
M  V30 3822 H 377.945 1.73549 3.51601 0
M  V30 3823 H 379.435 0.917492 4.07396 0
M  V30 3824 N 379.872 -1.04064 1.18357 0
M  V30 3825 C 381.118 -1.77528 0.980397 0
M  V30 3826 C 381.451 -1.87948 -0.48879 0
M  V30 3827 O 380.726 -1.3876 -1.36293 0
M  V30 3828 C 381.009 -3.20797 1.63588 0
M  V30 3829 C 380.862 -3.1832 3.17793 0
M  V30 3830 C 382.181 -4.18911 1.34914 0
M  V30 3831 H 379.3 -0.644443 0.357578 0
M  V30 3832 H 381.942 -1.2156 1.46024 0
M  V30 3833 H 380.092 -3.68586 1.22788 0
M  V30 3834 H 381.764 -2.78521 3.67728 0
M  V30 3835 H 380.007 -2.56351 3.49952 0
M  V30 3836 H 380.678 -4.19489 3.58794 0
M  V30 3837 H 383.154 -3.7967 1.70265 0
M  V30 3838 H 382.03 -5.17374 1.83346 0
M  V30 3839 H 382.291 -4.41262 0.272027 0
M  V30 3840 N 381.35 -0.985608 -1.22978 0
M  V30 3841 C 382.578 -0.675582 -1.95559 0
M  V30 3842 C 382.993 0.758413 -1.72897 0
M  V30 3843 O 382.35 1.51094 -1.02357 0
M  V30 3844 C 382.401 -0.96293 -3.48439 0
M  V30 3845 O 382.122 -2.34057 -3.70336 0
M  V30 3846 C 383.623 -0.669585 -4.38214 0
M  V30 3847 H 380.843 -0.250523 -0.622478 0
M  V30 3848 H 383.387 -1.3184 -1.56328 0
M  V30 3849 H 381.542 -0.366033 -3.85667 0
M  V30 3850 H 381.956 -2.43424 -4.64591 0
M  V30 3851 H 383.43 -0.920967 -5.44263 0
M  V30 3852 H 383.907 0.396383 -4.37408 0
M  V30 3853 H 384.513 -1.2472 -4.06602 0
M  V30 3854 N 382.828 1.3818 -0.7579 0
M  V30 3855 C 383.775 2.30416 -0.133057 0
M  V30 3856 C 384.745 1.50398 0.704957 0
M  V30 3857 O 385.93 1.79014 0.660192 0
M  V30 3858 C 383.07 3.36834 0.750813 0
M  V30 3859 C 382.183 4.31879 -0.102297 0
M  V30 3860 C 381.318 5.25368 0.784979 0
M  V30 3861 C 380.357 6.12058 -0.0715046 0
M  V30 3862 N 379.494 6.97832 0.772972 0
M  V30 3863 H 384.334 2.83274 -0.925186 0
M  V30 3864 H 381.871 1.39461 -0.467866 0
M  V30 3865 H 383.829 3.97145 1.27794 0
M  V30 3866 H 382.459 2.85374 1.50868 0
M  V30 3867 H 381.511 3.72991 -0.747095 0
M  V30 3868 H 382.823 4.92921 -0.763552 0
M  V30 3869 H 381.977 5.90818 1.37911 0
M  V30 3870 H 380.716 4.64703 1.47996 0
M  V30 3871 H 379.721 5.456 -0.678272 0
M  V30 3872 H 380.946 6.74793 -0.763606 0
M  V30 3873 H 378.892 6.3971 1.45282 0
M  V30 3874 H 378.809 7.55812 0.168709 0
M  V30 3875 H 380.077 7.67687 1.35194 0
M  V30 3876 N 384.306 0.507319 1.49211 0
M  V30 3877 C 385.553 -0.0349529 2.0247 0
M  V30 3878 C 385.881 -1.36409 1.38647 0
M  V30 3879 O 385.136 -1.88841 0.513566 0
M  V30 3880 C 385.435 -0.229513 3.56662 0
M  V30 3881 C 385.101 1.02241 4.39156 0
M  V30 3882 C 383.763 1.36557 4.61417 0
M  V30 3883 C 386.115 1.85428 4.871 0
M  V30 3884 C 383.443 2.53999 5.28868 0
M  V30 3885 C 385.795 3.02028 5.55843 0
M  V30 3886 C 384.459 3.36717 5.76349 0
M  V30 3887 H 383.729 -0.0127902 0.74089 0
M  V30 3888 H 386.376 0.668756 1.79443 0
M  V30 3889 H 384.681 -1.0158 3.78403 0
M  V30 3890 H 386.378 -0.663641 3.9547 0
M  V30 3891 H 382.968 0.745124 4.22073 0
M  V30 3892 H 387.152 1.6023 4.69723 0
M  V30 3893 H 382.408 2.81105 5.42946 0
M  V30 3894 H 386.582 3.66808 5.91967 0
M  V30 3895 H 384.209 4.27821 6.28389 0
M  V30 3896 N 385.784 -1.5574 0.241426 0
M  V30 3897 C 386.714 -2.24133 -0.654722 0
M  V30 3898 C 387.695 -1.21974 -1.1856 0
M  V30 3899 O 388.88 -1.50612 -1.22595 0
M  V30 3900 C 386.01 -2.93659 -1.85423 0
M  V30 3901 C 384.964 -4.0246 -1.45636 0
M  V30 3902 C 384.29 -4.59383 -2.73626 0
M  V30 3903 C 385.59 -5.18468 -0.631506 0
M  V30 3904 H 387.284 -2.99281 -0.0844353 0
M  V30 3905 H 384.83 -1.43947 -0.0391707 0
M  V30 3906 H 386.783 -3.40203 -2.48676 0
M  V30 3907 H 385.507 -2.15991 -2.44981 0
M  V30 3908 H 384.166 -3.56676 -0.847202 0
M  V30 3909 H 383.814 -3.78422 -3.3137 0
M  V30 3910 H 383.514 -5.32826 -2.4773 0
M  V30 3911 H 385.038 -5.08658 -3.37786 0
M  V30 3912 H 386.452 -5.61272 -1.1682 0
M  V30 3913 H 384.849 -5.98266 -0.468831 0
M  V30 3914 H 385.919 -4.8358 0.357506 0
M  V30 3915 N 387.262 0.0317525 -1.57568 0
M  V30 3916 C 388.195 1.06621 -2.0176 0
M  V30 3917 C 389.173 1.35323 -0.901462 0
M  V30 3918 O 390.357 1.48025 -1.16708 0
M  V30 3919 C 387.484 2.40155 -2.38837 0
M  V30 3920 C 386.53 2.27327 -3.60867 0
M  V30 3921 S 387.363 1.62925 -5.10113 0
M  V30 3922 C 388.519 2.97955 -5.5043 0
M  V30 3923 H 388.752 0.689781 -2.89187 0
M  V30 3924 H 386.285 0.24164 -1.52497 0
M  V30 3925 H 388.243 3.1695 -2.6087 0
M  V30 3926 H 386.904 2.74946 -1.51867 0
M  V30 3927 H 386.097 3.25898 -3.84456 0
M  V30 3928 H 385.699 1.58675 -3.38671 0
M  V30 3929 H 387.991 3.94285 -5.5095 0
M  V30 3930 H 388.934 2.79102 -6.50775 0
M  V30 3931 H 389.342 3.00404 -4.77931 0
M  V30 3932 N 388.74 1.54641 0.303973 0
M  V30 3933 C 389.703 1.84646 1.35789 0
M  V30 3934 C 390.703 0.7192 1.4382 0
M  V30 3935 O 391.893 0.987491 1.43507 0
M  V30 3936 C 389.025 2.02407 2.74307 0
M  V30 3937 H 390.218 2.78829 1.10429 0
M  V30 3938 H 387.771 1.46658 0.540487 0
M  V30 3939 H 388.506 1.10502 3.04893 0
M  V30 3940 H 388.291 2.84453 2.69868 0
M  V30 3941 H 389.781 2.27002 3.50514 0
M  V30 3942 N 390.218 -0.567019 1.47046 0
M  V30 3943 C 391.148 -1.68482 1.61667 0
M  V30 3944 C 392.129 -1.6358 0.466418 0
M  V30 3945 O 393.314 -1.81354 0.694574 0
M  V30 3946 C 390.444 -3.07124 1.62148 0
M  V30 3947 C 389.398 -3.26867 2.76301 0
M  V30 3948 C 388.724 -4.66196 2.61849 0
M  V30 3949 C 390.024 -3.13186 4.17986 0
M  V30 3950 H 391.718 -1.56502 2.5524 0
M  V30 3951 H 389.264 -0.751486 1.22836 0
M  V30 3952 H 391.217 -3.8516 1.70968 0
M  V30 3953 H 389.941 -3.2004 0.651287 0
M  V30 3954 H 388.6 -2.51237 2.66975 0
M  V30 3955 H 388.248 -4.75898 1.62879 0
M  V30 3956 H 387.948 -4.80356 3.38425 0
M  V30 3957 H 389.472 -5.46379 2.72584 0
M  V30 3958 H 390.886 -3.81049 4.2834 0
M  V30 3959 H 389.283 -3.3886 4.95272 0
M  V30 3960 H 390.353 -2.10057 4.3704 0
M  V30 3961 N 391.696 -1.35014 -0.812953 0
M  V30 3962 C 392.944 -1.27678 -1.56661 0
M  V30 3963 C 393.265 0.150359 -1.94419 0
M  V30 3964 O 392.535 1.08532 -1.63088 0
M  V30 3965 H 391.115 -0.469602 -0.580933 0
M  V30 3966 H 393.777 -1.69043 -0.970076 0
M  V30 3967 H 392.873 -1.88833 -2.48492 0
M  V30 3968 N 393.175 1.03435 -1.18907 0
M  V30 3969 C 394.105 2.13503 -0.945448 0
M  V30 3970 C 395.086 1.69682 0.119189 0
M  V30 3971 O 396.271 1.94169 -0.034707 0
M  V30 3972 C 393.401 3.44004 -0.477316 0
M  V30 3973 C 392.355 4.0148 -1.48316 0
M  V30 3974 C 391.681 5.27537 -0.872311 0
M  V30 3975 C 392.981 4.36921 -2.86177 0
M  V30 3976 H 394.675 2.34141 -1.86597 0
M  V30 3977 H 392.221 1.12523 -0.898584 0
M  V30 3978 H 394.174 4.20372 -0.294204 0
M  V30 3979 H 392.898 3.23072 0.478786 0
M  V30 3980 H 391.557 3.27201 -1.65332 0
M  V30 3981 H 391.205 5.02917 0.0911752 0
M  V30 3982 H 390.905 5.66954 -1.54393 0
M  V30 3983 H 392.429 6.06576 -0.699871 0
M  V30 3984 H 393.843 5.04248 -2.72776 0
M  V30 3985 H 392.24 4.87405 -3.50081 0
M  V30 3986 H 393.31 3.46466 -3.39248 0
M  V30 3987 N 394.653 0.992116 1.22453 0
M  V30 3988 C 395.9 0.667534 1.91181 0
M  V30 3989 C 396.228 -0.800317 1.77271 0
M  V30 3990 O 395.483 -1.59421 1.13505 0
M  V30 3991 C 395.782 1.01832 3.42586 0
M  V30 3992 C 395.448 2.47831 3.76684 0
M  V30 3993 C 394.11 2.87729 3.85701 0
M  V30 3994 C 396.462 3.42466 3.92895 0
M  V30 3995 C 393.79 4.21252 4.08367 0
M  V30 3996 C 396.142 4.75648 4.17064 0
M  V30 3997 C 394.806 5.15288 4.24305 0
M  V30 3998 H 394.076 0.244268 0.699581 0
M  V30 3999 H 396.723 1.24816 1.45235 0
M  V30 4000 H 395.028 0.355769 3.90181 0
M  V30 4001 H 396.725 0.745228 3.94014 0
M  V30 4002 H 393.315 2.15905 3.70247 0
M  V30 4003 H 397.499 3.12814 3.85307 0
M  V30 4004 H 392.755 4.51554 4.122 0
M  V30 4005 H 396.929 5.48924 4.2855 0
M  V30 4006 H 394.556 6.18769 4.41621 0
M  V30 4007 N 396.131 -1.37776 0.765217 0
M  V30 4008 C 397.377 -2.00145 0.327072 0
M  V30 4009 C 397.71 -1.60607 -1.09175 0
M  V30 4010 O 396.985 -0.849127 -1.74986 0
M  V30 4011 C 397.268 -3.57109 0.46319 0
M  V30 4012 C 397.121 -4.06576 1.92395 0
M  V30 4013 C 398.44 -4.39888 -0.136473 0
M  V30 4014 H 395.559 -0.727113 0.120316 0
M  V30 4015 H 398.201 -1.63549 0.967039 0
M  V30 4016 H 396.351 -3.88414 -0.0816358 0
M  V30 4017 H 398.023 -3.85864 2.52798 0
M  V30 4018 H 396.266 -3.59011 2.43503 0
M  V30 4019 H 396.937 -5.15639 1.97028 0
M  V30 4020 H 399.413 -4.14803 0.328317 0
M  V30 4021 H 398.289 -5.48899 -0.0110582 0
M  V30 4022 H 398.55 -4.24758 -1.22608 0
M  V30 4023 N 397.609 -0.515225 -1.4894 0
M  V30 4024 C 399.02 -0.0710067 -1.86565 0
M  V30 4025 C 399.371 1.34733 -1.42623 0
M  V30 4026 O 398.496 2.00653 -0.810379 0
M  V30 4027 C 399.091 -0.122083 -3.3858 0
M  V30 4028 C 397.65 0.266863 -3.75453 0
M  V30 4029 C 396.797 -0.488376 -2.72966 0
M  V30 4030 H 399.748 -0.727266 -1.41055 0
M  V30 4031 H 399.769 0.669818 -3.74558 0
M  V30 4032 H 399.281 -1.15448 -3.70531 0
M  V30 4033 H 397.382 1.30196 -3.49113 0
M  V30 4034 H 397.495 -0.0624811 -4.79059 0
M  V30 4035 H 395.859 0.0635622 -2.54621 0
M  V30 4036 H 396.642 -1.52113 -3.07761 0
M  V30 4037 N 399.087 1.5561 -0.249682 0
M  V30 4038 C 400.05 2.20217 0.635394 0
M  V30 4039 C 401.05 1.17227 1.10066 0
M  V30 4040 O 402.24 1.42292 1.00492 0
M  V30 4041 C 399.372 2.84794 1.87363 0
M  V30 4042 H 400.565 2.99814 0.0716752 0
M  V30 4043 H 398.118 1.563 -0.000153234 0
M  V30 4044 H 398.853 2.09142 2.47851 0
M  V30 4045 H 398.638 3.60241 1.5482 0
M  V30 4046 H 400.128 3.3423 2.5036 0
M  V30 4047 N 400.565 -0.0233959 1.57583 0
M  V30 4048 C 401.814 -0.712133 1.8871 0
M  V30 4049 C 402.127 -1.76217 0.848944 0
M  V30 4050 O 403.333 -2.50389 1.04964 0
M  V30 4051 C 401.789 -1.3177 3.3491 0
M  V30 4052 C 401.397 -0.303715 4.46969 0
M  V30 4053 C 403.141 -1.98598 3.75179 0
M  V30 4054 C 401.048 -0.917945 5.84233 0
M  V30 4055 H 399.978 -0.269735 0.704101 0
M  V30 4056 H 402.629 0.0333114 1.8347 0
M  V30 4057 H 401.011 -2.11304 3.34913 0
M  V30 4058 H 402.185 0.465325 4.58445 0
M  V30 4059 H 400.5 0.2628 4.1557 0
M  V30 4060 H 403.097 -2.45416 4.75053 0
M  V30 4061 H 403.44 -2.80659 3.07468 0
M  V30 4062 H 403.973 -1.25831 3.77374 0
M  V30 4063 H 400.712 -0.136633 6.55358 0
M  V30 4064 H 400.232 -1.65669 5.76467 0
M  V30 4065 H 401.911 -1.4236 6.31144 0
M  V30 4066 N 402.043 -1.548 -0.295768 0
M  V30 4067 C 402.973 -1.89115 -1.36959 0
M  V30 4068 C 403.954 -0.75059 -1.52644 0
M  V30 4069 O 405.139 -1.00678 -1.66065 0
M  V30 4070 C 402.269 -2.14307 -2.73295 0
M  V30 4071 C 401.223 -3.30151 -2.72368 0
M  V30 4072 C 400.549 -3.40772 -4.12042 0
M  V30 4073 C 401.849 -4.67126 -2.33646 0
M  V30 4074 H 403.543 -2.79053 -1.08488 0
M  V30 4075 H 401.089 -1.34266 -0.520443 0
M  V30 4076 H 403.042 -2.36898 -3.48507 0
M  V30 4077 H 401.766 -1.21145 -3.03301 0
M  V30 4078 H 400.425 -3.0749 -1.99613 0
M  V30 4079 H 400.073 -2.45117 -4.39234 0
M  V30 4080 H 399.773 -4.18645 -4.12322 0
M  V30 4081 H 401.297 -3.6563 -4.89027 0
M  V30 4082 H 402.711 -4.89414 -2.98575 0
M  V30 4083 H 401.108 -5.47751 -2.45129 0
M  V30 4084 H 402.178 -4.67489 -1.28772 0
M  V30 4085 N 403.521 0.559213 -1.47345 0
M  V30 4086 C 404.451 1.67622 -1.62558 0
M  V30 4087 C 405.432 1.63331 -0.475087 0
M  V30 4088 O 406.617 1.80983 -0.704182 0
M  V30 4089 C 403.747 3.0626 -1.63774 0
M  V30 4090 C 402.701 3.25397 -2.7803 0
M  V30 4091 C 402.027 4.64801 -2.64318 0
M  V30 4092 C 403.327 3.10965 -4.19641 0
M  V30 4093 H 405.021 1.55146 -2.56067 0
M  V30 4094 H 402.567 0.744961 -1.23233 0
M  V30 4095 H 404.52 3.84247 -1.73008 0
M  V30 4096 H 403.244 3.1969 -0.66825 0
M  V30 4097 H 401.903 2.49817 -2.68304 0
M  V30 4098 H 401.551 4.75028 -1.65401 0
M  V30 4099 H 401.251 4.78555 -3.40968 0
M  V30 4100 H 402.775 5.44926 -2.75478 0
M  V30 4101 H 404.189 3.78772 -4.30354 0
M  V30 4102 H 402.586 3.36229 -4.97062 0
M  V30 4103 H 403.656 2.07736 -4.38148 0
M  V30 4104 N 404.999 1.35443 0.805782 0
M  V30 4105 C 406.245 1.28952 1.56522 0
M  V30 4106 C 406.578 -0.135597 1.93726 0
M  V30 4107 O 405.853 -1.08516 1.61414 0
M  V30 4108 C 406.136 2.19678 2.85331 0
M  V30 4109 C 405.989 3.7081 2.54598 0
M  V30 4110 C 407.308 2.09495 3.8704 0
M  V30 4111 H 404.427 0.469764 0.567883 0
M  V30 4112 H 407.069 1.65851 0.927001 0
M  V30 4113 H 405.219 1.8834 3.39795 0
M  V30 4114 H 406.891 4.12593 2.06312 0
M  V30 4115 H 405.134 3.91051 1.8778 0
M  V30 4116 H 405.805 4.29679 3.46525 0
M  V30 4117 H 408.281 2.37045 3.41978 0
M  V30 4118 H 407.157 2.75173 4.74943 0
M  V30 4119 H 407.418 1.07714 4.28777 0
M  V30 4120 N 406.477 -1.02803 1.19454 0
M  V30 4121 C 407.425 -2.13213 0.929673 0
M  V30 4122 C 408.419 -1.69011 -0.114806 0
M  V30 4123 O 409.625 -1.79967 0.0345147 0
M  V30 4124 H 406 -0.69662 0.28324 0
M  V30 4125 H 407.971 -2.32744 1.86743 0
M  V30 4126 C 406.72 -3.4429 0.485797 0
M  V30 4127 H 406.043 -3.7872 1.28105 0
M  V30 4128 H 407.483 -4.22638 0.339582 0
M  V30 4129 C 405.942 -3.27258 -0.800244 0
M  V30 4130 O 406.472 -3.55967 -1.86146 0
M  V30 4131 N 404.678 -2.80545 -0.75781 0
M  V30 4132 H 404.225 -2.57382 0.106039 0
M  V30 4133 H 404.183 -2.6953 -1.61867 0
M  V30 4134 N 407.956 -0.998596 -1.21925 0
M  V30 4135 C 409.186 -0.695276 -1.94549 0
M  V30 4136 C 409.594 0.745079 -1.73911 0
M  V30 4137 O 408.937 1.51507 -1.03881 0
M  V30 4138 C 408.999 -0.928485 -3.47303 0
M  V30 4139 C 408.663 -2.35443 -3.91683 0
M  V30 4140 C 409.66 -3.33428 -3.98901 0
M  V30 4141 C 407.345 -2.69038 -4.24174 0
M  V30 4142 C 409.339 -4.63079 -4.37992 0
M  V30 4143 C 407.026 -3.98906 -4.62944 0
M  V30 4144 C 408.024 -4.95738 -4.69822 0
M  V30 4145 O 407.712 -6.23285 -5.07711 0
M  V30 4146 H 407.444 -0.255902 -0.625692 0
M  V30 4147 H 409.998 -1.33767 -1.5587 0
M  V30 4148 H 408.228 -0.228917 -3.86022 0
M  V30 4149 H 409.917 -0.619539 -4.01144 0
M  V30 4150 H 410.683 -3.08807 -3.73983 0
M  V30 4151 H 406.562 -1.94367 -4.18022 0
M  V30 4152 H 410.106 -5.38658 -4.43275 0
M  V30 4153 H 406.003 -4.23314 -4.87314 0
M  V30 4154 H 406.771 -6.27306 -5.25766 0
M  V30 4155 N 409.434 1.37368 -0.772513 0
M  V30 4156 C 410.397 2.28601 -0.165541 0
M  V30 4157 C 411.397 1.48062 0.627238 0
M  V30 4158 O 412.587 1.68268 0.450715 0
M  V30 4159 C 409.719 3.32023 0.772897 0
M  V30 4160 H 410.912 2.83787 -0.969787 0
M  V30 4161 H 408.465 1.46647 -0.540775 0
M  V30 4162 H 409.2 2.81962 1.60212 0
M  V30 4163 H 408.985 3.91555 0.206585 0
M  V30 4164 H 410.475 4.00197 1.19298 0
M  V30 4165 N 410.912 0.523116 1.48665 0
M  V30 4166 C 411.859 -0.243398 2.29513 0
M  V30 4167 C 412.829 -0.940139 1.36933 0
M  V30 4168 O 414.014 -0.942503 1.65896 0
M  V30 4169 C 411.154 -1.28855 3.20141 0
M  V30 4170 C 410.267 -0.60135 4.27794 0
M  V30 4171 C 409.402 -1.62884 5.05611 0
M  V30 4172 C 408.441 -0.924726 6.05075 0
M  V30 4173 N 407.578 -1.89744 6.75975 0
M  V30 4174 H 412.418 0.452234 2.94549 0
M  V30 4175 H 409.955 0.234858 1.45213 0
M  V30 4176 H 411.913 -1.90674 3.71079 0
M  V30 4177 H 410.543 -1.95266 2.57043 0
M  V30 4178 H 409.595 0.130623 3.80176 0
M  V30 4179 H 410.907 -0.0481585 4.98777 0
M  V30 4180 H 410.061 -2.32149 5.60528 0
M  V30 4181 H 408.8 -2.21592 4.34452 0
M  V30 4182 H 407.805 -0.217966 5.49368 0
M  V30 4183 H 409.03 -0.343851 6.78229 0
M  V30 4184 H 406.976 -2.47373 6.07571 0
M  V30 4185 H 406.893 -1.3955 7.43009 0
M  V30 4186 H 408.161 -2.58229 7.35485 0
M  V30 4187 N 412.39 -1.55475 0.257931 0
M  V30 4188 C 413.667 -1.91155 -0.414629 0
M  V30 4189 C 414.047 -1.18008 -1.75035 0
M  V30 4190 O 413.395 -0.301193 -2.26506 0
M  V30 4191 C 413.605 -3.44283 -0.571859 0
M  V30 4192 C 414.953 -4.15744 -0.862678 0
M  V30 4193 O 415.977 -3.50083 -0.657314 0
M  V30 4194 O 414.836 -5.31909 -1.2544 0
M  V30 4195 H 411.93 -0.796016 -0.22425 0
M  V30 4196 H 414.476 -1.66976 0.302814 0
M  V30 4197 H 413.248 -3.89558 0.368844 0
M  V30 4198 H 412.871 -3.7436 -1.33943 0
M  V30 4199 N 413.868 0.0150385 -1.57593 0
M  V30 4200 C 414.831 0.995996 -2.06428 0
M  V30 4201 C 415.831 1.2818 -0.970903 0
M  V30 4202 O 417.021 1.22949 -1.23406 0
M  V30 4203 C 414.153 2.32506 -2.49307 0
M  V30 4204 H 415.346 0.573873 -2.94358 0
M  V30 4205 H 412.899 0.262186 -1.54085 0
M  V30 4206 H 413.634 2.79438 -1.64575 0
M  V30 4207 H 413.419 2.13087 -3.29145 0
M  V30 4208 H 414.909 3.02906 -2.87468 0
M  V30 4209 N 415.346 1.54954 0.287554 0
M  V30 4210 C 416.594 1.74528 1.01904 0
M  V30 4211 C 416.915 0.541349 1.87335 0
M  V30 4212 O 416.185 -0.444108 1.908 0
M  V30 4213 H 414.765 0.643576 0.379235 0
M  V30 4214 H 417.427 1.92333 0.315294 0
M  V30 4215 H 416.523 2.64015 1.6644 0
M  V30 4216 N 416.824 -0.551391 1.4764 0
M  V30 4217 C 418.07 -1.31024 1.54792 0
M  V30 4218 C 418.403 -1.9304 0.211967 0
M  V30 4219 O 417.678 -1.78175 -0.77999 0
M  V30 4220 C 417.961 -2.41593 2.67029 0
M  V30 4221 C 417.814 -1.84408 4.10261 0
M  V30 4222 C 419.133 -3.43488 2.75143 0
M  V30 4223 H 416.252 -0.475031 0.563485 0
M  V30 4224 H 418.894 -0.616454 1.79722 0
M  V30 4225 H 417.044 -3.00772 2.45904 0
M  V30 4226 H 418.716 -1.29445 4.42766 0
M  V30 4227 H 416.959 -1.15051 4.18265 0
M  V30 4228 H 417.63 -2.64367 4.84576 0
M  V30 4229 H 420.106 -2.94236 2.94218 0
M  V30 4230 H 418.982 -4.18274 3.55441 0
M  V30 4231 H 419.243 -4.02703 1.82435 0
M  V30 4232 N 418.302 -1.35869 -0.798587 0
M  V30 4233 C 419.713 -1.26498 -1.37314 0
M  V30 4234 C 420.064 0.0991899 -1.95949 0
M  V30 4235 O 419.189 1.0004 -1.91888 0
M  V30 4236 C 419.784 -2.29054 -2.49639 0
M  V30 4237 C 418.343 -2.234 -3.02935 0
M  V30 4238 C 417.49 -2.14329 -1.75949 0
M  V30 4239 H 420.441 -1.46881 -0.600971 0
M  V30 4240 H 420.462 -1.92166 -3.28409 0
M  V30 4241 H 419.974 -3.2833 -2.06933 0
M  V30 4242 H 418.075 -1.27562 -3.50084 0
M  V30 4243 H 418.188 -3.15703 -3.60372 0
M  V30 4244 H 416.552 -1.60435 -1.9782 0
M  V30 4245 H 417.335 -3.15477 -1.35384 0
M  V30 4246 N 419.78 1.02168 -1.19998 0
M  V30 4247 C 421.057 1.72816 -0.916191 0
M  V30 4248 C 421.437 2.03081 0.576325 0
M  V30 4249 O 420.785 1.69122 1.53656 0
M  V30 4250 C 420.995 2.9997 -1.78378 0
M  V30 4251 C 422.343 3.73336 -2.02251 0
M  V30 4252 O 423.367 3.09914 -1.75589 0
M  V30 4253 O 422.226 4.87371 -2.47249 0
M  V30 4254 H 419.32 0.752924 -0.342103 0
M  V30 4255 H 421.866 1.08062 -1.30846 0
M  V30 4256 H 420.638 2.73888 -2.79466 0
M  V30 4257 H 420.261 3.72464 -1.39126 0
M  V30 4258 N 421.258 1.00505 1.21394 0
M  V30 4259 C 422.486 0.706609 1.9446 0
M  V30 4260 C 422.901 -0.73081 1.74082 0
M  V30 4261 O 422.258 -1.49446 1.04747 0
M  V30 4262 C 422.309 1.01824 3.46863 0
M  V30 4263 O 422.03 2.39919 3.66566 0
M  V30 4264 C 423.531 0.739216 4.37093 0
M  V30 4265 H 420.751 0.260394 0.618414 0
M  V30 4266 H 423.295 1.34311 1.54211 0
M  V30 4267 H 421.45 0.427343 3.85036 0
M  V30 4268 H 421.864 2.50784 4.6066 0
M  V30 4269 H 423.338 1.00744 5.42729 0
M  V30 4270 H 423.815 -0.326746 4.37983 0
M  V30 4271 H 424.421 1.31173 4.04566 0
M  V30 4272 N 422.737 -1.36956 0.779787 0
M  V30 4273 C 424.014 -1.93697 0.272156 0
M  V30 4274 C 424.394 -1.71267 -1.23413 0
M  V30 4275 O 423.742 -1.06607 -2.02107 0
M  V30 4276 C 423.952 -3.42812 0.654291 0
M  V30 4277 C 425.3 -4.19921 0.628602 0
M  V30 4278 O 426.324 -3.51209 0.594172 0
M  V30 4279 O 425.183 -5.42465 0.662864 0
M  V30 4280 H 422.277 -0.824447 0.0649286 0
M  V30 4281 H 424.823 -1.46196 0.861682 0
M  V30 4282 H 423.595 -3.52754 1.69353 0
M  V30 4283 H 423.218 -3.97582 0.0381369 0
M  V30 4284 N 424.215 -0.530993 -1.48385 0
M  V30 4285 C 425.178 0.220497 -2.28137 0
M  V30 4286 C 426.178 0.866851 -1.35434 0
M  V30 4287 O 427.368 0.726746 -1.58316 0
M  V30 4288 C 424.5 1.31921 -3.1434 0
M  V30 4289 H 425.693 -0.479714 -2.96038 0
M  V30 4290 H 423.246 -0.286968 -1.53643 0
M  V30 4291 H 423.981 2.05264 -2.51072 0
M  V30 4292 H 423.766 0.86085 -3.82533 0
M  V30 4293 H 425.256 1.84776 -3.74497 0
M  V30 4294 N 425.693 1.55336 -0.266172 0
M  V30 4295 C 426.656 2.20878 0.612001 0
M  V30 4296 C 427.656 1.18388 1.08816 0
M  V30 4297 O 428.846 1.4335 0.989774 0
M  V30 4298 C 425.978 2.86765 1.84332 0
M  V30 4299 H 427.171 2.99873 0.0398718 0
M  V30 4300 H 424.724 1.56291 -0.0167309 0
M  V30 4301 H 425.459 2.11759 2.45619 0
M  V30 4302 H 425.244 3.61862 1.5099 0
M  V30 4303 H 426.734 3.36867 2.46801 0
M  V30 4304 N 427.171 -0.0066808 1.57599 0
M  V30 4305 C 428.418 -0.69292 1.90276 0
M  V30 4306 C 428.746 -1.74148 0.866192 0
M  V30 4307 O 428.001 -1.95268 -0.129933 0
M  V30 4308 C 428.3 -1.37939 3.29708 0
M  V30 4309 C 427.966 -0.464679 4.48499 0
M  V30 4310 C 426.628 -0.212809 4.80729 0
M  V30 4311 C 428.98 0.16551 5.20937 0
M  V30 4312 C 426.308 0.677653 5.82773 0
M  V30 4313 C 428.66 1.04381 6.23929 0
M  V30 4314 C 427.324 1.30492 6.54621 0
M  V30 4315 H 426.594 -0.253558 0.696268 0
M  V30 4316 H 429.241 0.0474123 1.91441 0
M  V30 4317 H 427.546 -2.1936 3.24636 0
M  V30 4318 H 429.243 -1.9163 3.52249 0
M  V30 4319 H 425.833 -0.671153 4.23313 0
M  V30 4320 H 430.017 -0.0160756 4.96297 0
M  V30 4321 H 425.273 0.88803 6.04917 0
M  V30 4322 H 429.447 1.53851 6.79193 0
M  V30 4323 H 427.074 1.99662 7.33512 0
M  V30 4324 N 428.649 -1.55105 -0.279332 0
M  V30 4325 C 429.579 -1.90557 -1.34945 0
M  V30 4326 C 430.56 -0.766738 -1.51839 0
M  V30 4327 O 431.745 -1.02434 -1.64988 0
M  V30 4328 C 428.875 -2.17193 -2.71006 0
M  V30 4329 C 427.829 -3.33021 -2.68851 0
M  V30 4330 C 427.155 -3.45123 -4.08405 0
M  V30 4331 C 428.455 -4.69578 -2.28678 0
M  V30 4332 H 430.149 -2.80188 -1.05522 0
M  V30 4333 H 427.695 -1.34811 -0.506173 0
M  V30 4334 H 429.648 -2.40581 -3.45975 0
M  V30 4335 H 428.372 -1.24355 -3.01999 0
M  V30 4336 H 427.031 -3.0959 -1.9634 0
M  V30 4337 H 426.679 -2.49762 -4.3661 0
M  V30 4338 H 426.379 -4.22995 -4.07859 0
M  V30 4339 H 427.903 -3.70796 -4.85121 0
M  V30 4340 H 429.317 -4.92553 -2.93368 0
M  V30 4341 H 427.714 -5.5032 -2.39306 0
M  V30 4342 H 428.784 -4.68828 -1.23807 0
M  V30 4343 N 430.127 0.543554 -1.4793 0
M  V30 4344 C 431.057 1.65888 -1.64327 0
M  V30 4345 C 432.038 1.62818 -0.492383 0
M  V30 4346 O 433.223 1.80226 -0.723338 0
M  V30 4347 C 430.353 3.04506 -1.67013 0
M  V30 4348 C 429.307 3.2243 -2.81466 0
M  V30 4349 C 428.633 4.61972 -2.69233 0
M  V30 4350 C 429.933 3.06496 -4.22915 0
M  V30 4351 H 431.627 1.52421 -2.57698 0
M  V30 4352 H 429.173 0.731849 -1.24016 0
M  V30 4353 H 431.126 3.82391 -1.77074 0
M  V30 4354 H 429.85 3.18964 -0.70212 0
M  V30 4355 H 428.509 2.46957 -2.70938 0
M  V30 4356 H 428.157 4.73247 -1.7043 0
M  V30 4357 H 427.857 4.74911 -3.46025 0
M  V30 4358 H 429.381 5.41974 -2.81242 0
M  V30 4359 H 430.795 3.74186 -4.34348 0
M  V30 4360 H 429.192 3.30938 -5.006 0
M  V30 4361 H 430.262 2.03077 -4.40327 0
M  V30 4362 N 431.605 1.3629 0.791371 0
M  V30 4363 C 432.83 1.33726 1.58531 0
M  V30 4364 C 433.255 -0.0794933 1.87932 0
M  V30 4365 O 432.613 -1.05087 1.47738 0
M  V30 4366 C 432.661 2.16425 2.88431 0
M  V30 4367 O 431.765 1.5554 3.81944 0
M  V30 4368 H 431.106 0.457793 0.480959 0
M  V30 4369 H 433.636 1.79547 0.981031 0
M  V30 4370 H 433.646 2.28933 3.37718 0
M  V30 4371 H 432.321 3.19415 2.66359 0
M  V30 4372 H 430.898 1.51961 3.40532 0
M  V30 4373 N 433.083 -1.0153 1.20538 0
M  V30 4374 C 434.332 -1.74558 1.01057 0
M  V30 4375 C 434.645 -1.90168 -0.457756 0
M  V30 4376 O 435.851 -2.60301 -0.771722 0
M  V30 4377 C 434.307 -3.13963 1.75941 0
M  V30 4378 C 433.915 -3.06361 3.26875 0
M  V30 4379 C 435.659 -3.91191 1.64832 0
M  V30 4380 C 433.566 -4.40782 3.94291 0
M  V30 4381 H 432.496 -0.654417 0.374505 0
M  V30 4382 H 435.147 -1.13521 1.44171 0
M  V30 4383 H 433.529 -3.75549 1.25614 0
M  V30 4384 H 434.703 -2.54074 3.84425 0
M  V30 4385 H 433.018 -2.42625 3.38411 0
M  V30 4386 H 435.615 -4.90644 2.12539 0
M  V30 4387 H 435.958 -4.11884 0.604745 0
M  V30 4388 H 436.491 -3.36236 2.12579 0
M  V30 4389 H 433.23 -4.25292 4.98805 0
M  V30 4390 H 432.75 -4.9307 3.41529 0
M  V30 4391 H 434.429 -5.09621 3.98617 0
M  V30 4392 N 434.561 -1.01147 -1.20859 0
M  V30 4393 C 435.807 -0.698899 -1.90377 0
M  V30 4394 C 436.14 0.76904 -1.78324 0
M  V30 4395 O 435.415 1.55817 -1.16409 0
M  V30 4396 C 435.698 -1.12878 -3.41951 0
M  V30 4397 C 435.551 -2.65665 -3.62963 0
M  V30 4398 C 436.87 -0.696114 -4.3456 0
M  V30 4399 H 433.989 -0.255372 -0.691342 0
M  V30 4400 H 436.631 -1.25831 -1.42361 0
M  V30 4401 H 434.781 -0.652827 -3.82976 0
M  V30 4402 H 436.453 -3.21074 -3.31224 0
M  V30 4403 H 434.696 -3.06878 -3.06608 0
M  V30 4404 H 435.367 -2.90797 -4.69192 0
M  V30 4405 H 437.843 -1.10521 -4.01154 0
M  V30 4406 H 436.719 -1.025 -5.39245 0
M  V30 4407 H 436.98 0.402465 -4.40264 0
M  V30 4408 N 436.039 1.36541 -0.78704 0
M  V30 4409 C 437.287 1.98911 -0.357633 0
M  V30 4410 C 437.608 1.62778 1.07371 0
M  V30 4411 O 436.878 0.900612 1.73971 0
M  V30 4412 H 435.458 0.735734 -0.129246 0
M  V30 4413 H 438.12 1.66776 -1.00855 0
M  V30 4414 H 437.216 3.08874 -0.447549 0
M  V30 4415 N 437.518 0.538854 1.48102 0
M  V30 4416 C 438.765 0.0080018 2.02498 0
M  V30 4417 C 439.093 -1.33437 1.41509 0
M  V30 4418 O 438.348 -1.87709 0.553507 0
M  V30 4419 C 438.647 -0.153808 3.57069 0
M  V30 4420 C 438.313 1.11533 4.36888 0
M  V30 4421 C 436.975 1.46314 4.58417 0
M  V30 4422 C 439.327 1.95718 4.83057 0
M  V30 4423 C 436.655 2.6516 5.23361 0
M  V30 4424 C 439.007 3.13751 5.49312 0
M  V30 4425 C 437.671 3.48866 5.69077 0
M  V30 4426 H 436.941 0.00292807 0.740994 0
M  V30 4427 H 439.588 0.706668 1.77984 0
M  V30 4428 H 437.893 -0.935309 3.80472 0
M  V30 4429 H 439.59 -0.579607 3.96789 0
M  V30 4430 H 436.18 0.834484 4.20398 0
M  V30 4431 H 440.364 1.70158 4.66219 0
M  V30 4432 H 435.62 2.92558 5.36861 0
M  V30 4433 H 439.794 3.79282 5.84053 0
M  V30 4434 H 437.421 4.41054 6.19173 0
M  V30 4435 N 438.996 -1.55193 0.274407 0
M  V30 4436 C 440.242 -1.99877 -0.343086 0
M  V30 4437 C 440.575 -1.16256 -1.55558 0
M  V30 4438 O 439.85 -0.232462 -1.93106 0
M  V30 4439 C 440.133 -3.52706 -0.725965 0
M  V30 4440 C 439.986 -4.47081 0.493818 0
M  V30 4441 C 441.305 -4.11422 -1.56268 0
M  V30 4442 H 438.424 -0.726625 -0.123229 0
M  V30 4443 H 441.066 -1.86136 0.38121 0
M  V30 4444 H 439.216 -3.64546 -1.34307 0
M  V30 4445 H 440.888 -4.47186 1.13237 0
M  V30 4446 H 439.131 -4.1877 1.13201 0
M  V30 4447 H 439.802 -5.51699 0.18217 0
M  V30 4448 H 442.278 -4.02855 -1.04151 0
M  V30 4449 H 441.154 -5.18568 -1.79939 0
M  V30 4450 H 441.415 -3.61607 -2.54348 0
M  V30 4451 N 440.474 -0.00167713 -1.576 0
M  V30 4452 C 441.751 0.719951 -1.81868 0
M  V30 4453 C 442.131 1.91895 -0.879747 0
M  V30 4454 O 441.479 2.28389 0.0711423 0
M  V30 4455 C 441.689 1.12409 -3.30402 0
M  V30 4456 C 443.037 1.52724 -3.96182 0
M  V30 4457 O 444.061 1.21784 -3.34734 0
M  V30 4458 O 442.92 2.10265 -5.04431 0
M  V30 4459 H 440.014 0.350707 -0.748955 0
M  V30 4460 H 442.56 -0.0272597 -1.69678 0
M  V30 4461 H 441.332 0.269532 -3.90371 0
M  V30 4462 H 440.955 1.93035 -3.47596 0
M  V30 4463 N 441.952 1.55251 0.271103 0
M  V30 4464 C 443.201 1.75151 1.00025 0
M  V30 4465 C 443.514 0.561041 1.87381 0
M  V30 4466 O 444.72 0.642506 2.63788 0
M  V30 4467 C 443.176 3.09999 1.82835 0
M  V30 4468 C 442.784 4.3662 1.00336 0
M  V30 4469 C 444.528 3.39249 2.55168 0
M  V30 4470 C 442.435 5.62506 1.82595 0
M  V30 4471 H 441.365 0.652877 0.377183 0
M  V30 4472 H 444.016 1.81708 0.255843 0
M  V30 4473 H 442.398 2.97485 2.61378 0
M  V30 4474 H 443.572 4.60055 0.261959 0
M  V30 4475 H 441.887 4.14527 0.394486 0
M  V30 4476 H 444.484 4.3051 3.1712 0
M  V30 4477 H 444.827 2.59467 3.2555 0
M  V30 4478 H 445.36 3.52869 1.83653 0
M  V30 4479 H 442.099 6.45041 1.16631 0
M  V30 4480 H 441.619 5.43211 2.54327 0
M  V30 4481 H 443.298 6.00875 2.39913 0
M  V30 4482 N 443.43 -0.535701 1.48216 0
M  V30 4483 C 444.676 -1.29375 1.56173 0
M  V30 4484 C 445.009 -1.92804 0.232429 0
M  V30 4485 O 444.284 -1.78992 -0.761048 0
M  V30 4486 C 444.567 -2.38747 2.69577 0
M  V30 4487 C 444.42 -1.80046 4.12193 0
M  V30 4488 C 445.739 -3.40551 2.78771 0
M  V30 4489 H 442.858 -0.469027 0.568491 0
M  V30 4490 H 445.5 -0.597358 1.80365 0
M  V30 4491 H 443.65 -2.98147 2.4908 0
M  V30 4492 H 445.322 -1.24742 4.44114 0
M  V30 4493 H 443.565 -1.10609 4.19462 0
M  V30 4494 H 444.236 -2.59212 4.87353 0
M  V30 4495 H 446.712 -2.91099 2.97322 0
M  V30 4496 H 445.588 -4.1448 3.59857 0
M  V30 4497 H 445.849 -4.00746 1.86696 0
M  V30 4498 N 444.908 -1.36708 -0.784132 0
M  V30 4499 C 445.871 -1.31307 -1.87859 0
M  V30 4500 C 446.871 -0.219654 -1.59293 0
M  V30 4501 O 448.061 -0.47476 -1.67606 0
M  V30 4502 C 445.193 -1.03679 -3.24751 0
M  V30 4503 H 446.386 -2.28647 -1.94064 0
M  V30 4504 H 443.939 -1.21558 -0.98252 0
M  V30 4505 H 444.674 -0.0681936 -3.24228 0
M  V30 4506 H 444.459 -1.82811 -3.46876 0
M  V30 4507 H 445.949 -1.02518 -4.04821 0
M  V30 4508 N 446.386 1.0089 -1.21074 0
M  V30 4509 C 447.802 1.2695 -0.967257 0
M  V30 4510 C 448.002 1.9846 0.348673 0
M  V30 4511 O 447.058 2.28459 1.0753 0
M  V30 4512 C 448.371 2.09697 -2.15517 0
M  V30 4513 C 449.919 2.22937 -2.197 0
M  V30 4514 C 450.394 3.09064 -3.37999 0
M  V30 4515 N 451.885 3.16653 -3.38061 0
M  V30 4516 C 452.62 3.8354 -4.26245 0
M  V30 4517 N 452.116 4.52488 -5.2462 0
M  V30 4518 N 453.909 3.80141 -4.14064 0
M  V30 4519 H 446.06 0.529005 -2.05707 0
M  V30 4520 H 448.323 0.296148 -0.900556 0
M  V30 4521 H 448.029 1.64497 -3.10859 0
M  V30 4522 H 447.903 3.10444 -2.14253 0
M  V30 4523 H 450.29 2.67357 -1.24916 0
M  V30 4524 H 450.371 1.21673 -2.2501 0
M  V30 4525 H 450.015 2.65347 -4.33074 0
M  V30 4526 H 449.945 4.10433 -3.29928 0
M  V30 4527 H 452.436 2.67566 -2.66865 0
M  V30 4528 H 452.749 5.01219 -5.88217 0
M  V30 4529 H 451.094 4.51288 -5.28549 0
M  V30 4530 H 454.285 3.25427 -3.36474 0
M  V30 4531 H 454.458 4.31992 -4.82998 0
M  V30 4532 N 447.864 1.01787 1.20321 0
M  V30 4533 C 449.275 0.739307 1.71438 0
M  V30 4534 C 449.626 -0.742041 1.81627 0
M  V30 4535 O 448.751 -1.57903 1.47971 0
M  V30 4536 C 449.346 1.33538 3.11373 0
M  V30 4537 C 447.905 1.10566 3.59795 0
M  V30 4538 C 447.052 1.44028 2.36962 0
M  V30 4539 H 450.003 1.18718 1.05317 0
M  V30 4540 H 450.024 0.726611 3.73498 0
M  V30 4541 H 449.536 2.41352 3.03926 0
M  V30 4542 H 447.637 0.0452405 3.72573 0
M  V30 4543 H 447.75 1.78661 4.44542 0
M  V30 4544 H 446.114 0.85933 2.39766 0
M  V30 4545 H 446.897 2.52901 2.32155 0
M  V30 4546 N 449.342 -1.36122 0.79427 0
M  V30 4547 C 450.305 -2.28309 0.201889 0
M  V30 4548 C 451.305 -1.49041 -0.603603 0
M  V30 4549 O 452.495 -1.68964 -0.423888 0
M  V30 4550 C 449.627 -3.3321 -0.719978 0
M  V30 4551 H 450.82 -2.82208 1.01481 0
M  V30 4552 H 448.373 -1.45768 0.564037 0
M  V30 4553 H 449.108 -2.84475 -1.55706 0
M  V30 4554 H 448.893 -3.91835 -0.144266 0
M  V30 4555 H 450.383 -4.02044 -1.12916 0
M  V30 4556 N 450.82 -0.546701 -1.47814 0
M  V30 4557 C 452.06 -0.0209604 -2.04389 0
M  V30 4558 C 452.424 1.29993 -1.413 0
M  V30 4559 O 453.625 1.91273 -1.8886 0
M  V30 4560 C 451.896 0.0812844 -3.57308 0
M  V30 4561 S 453.455 0.55467 -4.3528 0
M  V30 4562 H 450.273 -0.0200865 -0.710716 0
M  V30 4563 H 452.875 -0.731055 -1.81317 0
M  V30 4564 H 451.579 -0.884616 -4.00753 0
M  V30 4565 H 451.11 0.815253 -3.8486 0
M  V30 4566 H 453.125 1.81627 -4.61764 0
M  V30 4567 N 452.299 1.55045 -0.282633 0
M  V30 4568 C 453.547 1.99365 0.331334 0
M  V30 4569 C 453.868 1.1725 1.55812 0
M  V30 4570 O 453.138 0.263871 1.94115 0
M  V30 4571 H 451.718 0.736397 0.125414 0
M  V30 4572 H 454.38 1.90964 -0.389711 0
M  V30 4573 H 453.476 3.0596 0.616036 0
M  V30 4574 N 453.777 0.010035 1.57597 0
M  V30 4575 C 454.74 -0.963029 2.07986 0
M  V30 4576 C 455.74 -1.26619 0.991173 0
M  V30 4577 O 456.93 -1.2097 1.25347 0
M  V30 4578 C 454.062 -2.2851 2.52974 0
M  V30 4579 H 455.255 -0.526971 2.95234 0
M  V30 4580 H 452.808 -0.237639 1.54483 0
M  V30 4581 H 453.543 -2.76784 1.69 0
M  V30 4582 H 453.328 -2.07824 3.32493 0
M  V30 4583 H 454.818 -2.98294 2.9225 0
M  V30 4584 N 455.255 -1.55392 -0.262866 0
M  V30 4585 C 456.185 -1.91978 -1.32917 0
M  V30 4586 C 457.166 -0.7828 -1.51017 0
M  V30 4587 O 458.351 -1.04178 -1.63892 0
M  V30 4588 C 455.481 -2.20055 -2.68687 0
M  V30 4589 C 454.435 -3.35854 -2.65304 0
M  V30 4590 C 453.761 -3.49435 -4.04721 0
M  V30 4591 C 455.061 -4.71977 -2.23685 0
M  V30 4592 H 456.755 -2.81292 -1.02544 0
M  V30 4593 H 454.301 -1.3534 -0.491846 0
M  V30 4594 H 456.254 -2.44237 -3.43404 0
M  V30 4595 H 454.978 -1.27551 -3.00663 0
M  V30 4596 H 453.637 -3.11655 -1.93045 0
M  V30 4597 H 453.285 -2.54379 -4.33936 0
M  V30 4598 H 452.985 -4.27297 -4.0335 0
M  V30 4599 H 454.509 -3.7592 -4.81161 0
M  V30 4600 H 455.923 -4.95637 -2.88127 0
M  V30 4601 H 454.32 -5.52828 -2.33456 0
M  V30 4602 H 455.39 -4.70115 -1.18827 0
M  V30 4603 N 456.733 0.527833 -1.48498 0
M  V30 4604 C 457.696 1.61439 -1.62696 0
M  V30 4605 C 458.696 1.52824 -0.500136 0
M  V30 4606 O 459.886 1.56456 -0.765976 0
M  V30 4607 C 457.018 3.01063 -1.59918 0
M  V30 4608 H 458.211 1.50189 -2.59583 0
M  V30 4609 H 455.764 0.750055 -1.37127 0
M  V30 4610 H 456.499 3.17818 -0.645163 0
M  V30 4611 H 456.284 3.08725 -2.41726 0
M  V30 4612 H 457.774 3.80057 -1.73051 0
M  V30 4613 N 458.211 1.37122 0.776871 0
M  V30 4614 C 459.459 1.31787 1.53221 0
M  V30 4615 C 459.78 -0.0987589 1.9475 0
M  V30 4616 O 459.05 -1.0417 1.65908 0
M  V30 4617 H 457.63 0.484839 0.568278 0
M  V30 4618 H 460.292 1.71556 0.924917 0
M  V30 4619 H 459.388 1.95355 2.43398 0
M  V30 4620 N 459.689 -1.00246 1.21608 0
M  V30 4621 C 460.619 -2.10921 1.00172 0
M  V30 4622 C 461.6 -1.69938 -0.0741587 0
M  V30 4623 O 462.785 -1.94009 0.0861753 0
M  V30 4624 C 459.915 -3.42618 0.568355 0
M  V30 4625 C 458.869 -3.97407 1.58909 0
M  V30 4626 C 458.195 -5.25038 1.01187 0
M  V30 4627 C 459.495 -4.2918 2.97661 0
M  V30 4628 H 461.189 -2.29112 1.92739 0
M  V30 4629 H 458.735 -1.10101 0.928102 0
M  V30 4630 H 460.688 -4.19444 0.405555 0
M  V30 4631 H 459.412 -3.24227 -0.392961 0
M  V30 4632 H 458.071 -3.22703 1.73949 0
M  V30 4633 H 457.719 -5.02982 0.0421965 0
M  V30 4634 H 457.419 -5.62661 1.6937 0
M  V30 4635 H 458.943 -6.04507 0.860448 0
M  V30 4636 H 460.357 -4.96839 2.86049 0
M  V30 4637 H 458.754 -4.77952 3.6288 0
M  V30 4638 H 459.824 -3.3735 3.48315 0
M  V30 4639 N 461.167 -1.02423 -1.1978 0
M  V30 4640 C 462.13 -0.605703 -2.21052 0
M  V30 4641 C 463.13 0.328209 -1.57415 0
M  V30 4642 O 464.32 0.115853 -1.73814 0
M  V30 4643 C 461.452 0.114366 -3.40708 0
M  V30 4644 H 462.645 -1.5017 -2.59594 0
M  V30 4645 H 460.198 -0.814888 -1.33376 0
M  V30 4646 H 460.933 1.02492 -3.07678 0
M  V30 4647 H 460.718 -0.556641 -3.88129 0
M  V30 4648 H 462.208 0.394272 -4.15735 0
M  V30 4649 N 462.645 1.35699 -0.801477 0
M  V30 4650 C 464.061 1.52065 -0.484596 0
M  V30 4651 C 464.261 1.75215 0.995084 0
M  V30 4652 O 463.317 1.79061 1.78026 0
M  V30 4653 C 464.63 2.69908 -1.32552 0
M  V30 4654 C 466.178 2.83784 -1.32044 0
M  V30 4655 C 466.653 4.04646 -2.14536 0
M  V30 4656 N 468.144 4.11814 -2.12046 0
M  V30 4657 C 468.879 5.04437 -2.72636 0
M  V30 4658 N 468.375 6.02426 -3.42133 0
M  V30 4659 N 470.168 4.97144 -2.62305 0
M  V30 4660 H 462.319 1.18928 -1.75983 0
M  V30 4661 H 464.582 0.581455 -0.748741 0
M  V30 4662 H 464.288 2.59363 -2.37537 0
M  V30 4663 H 464.162 3.64376 -0.975181 0
M  V30 4664 H 466.549 2.93783 -0.27846 0
M  V30 4665 H 466.63 1.90188 -1.71062 0
M  V30 4666 H 466.274 3.95407 -3.18772 0
M  V30 4667 H 466.204 4.97413 -1.72882 0
M  V30 4668 H 468.695 3.41664 -1.61476 0
M  V30 4669 H 469.008 6.69688 -3.85666 0
M  V30 4670 H 467.353 6.02615 -3.46237 0
M  V30 4671 H 470.544 4.19546 -2.07603 0
M  V30 4672 H 470.717 5.69138 -3.09815 0
M  V30 4673 N 464.123 0.554532 1.47522 0
M  V30 4674 C 465.053 -0.182974 2.32782 0
M  V30 4675 C 466.034 -0.911377 1.43624 0
M  V30 4676 O 467.219 -0.892366 1.72483 0
M  V30 4677 C 464.349 -1.21513 3.25349 0
M  V30 4678 C 463.303 -0.603355 4.23726 0
M  V30 4679 C 462.629 -1.73995 5.05598 0
M  V30 4680 C 463.929 0.441121 5.20434 0
M  V30 4681 H 465.623 0.52882 2.94693 0
M  V30 4682 H 463.169 0.255759 1.41711 0
M  V30 4683 H 465.122 -1.73922 3.83835 0
M  V30 4684 H 463.846 -1.95683 2.61487 0
M  V30 4685 H 462.505 -0.10059 3.66462 0
M  V30 4686 H 462.153 -2.47063 4.38143 0
M  V30 4687 H 461.853 -1.3364 5.72201 0
M  V30 4688 H 463.377 -2.26735 5.66942 0
M  V30 4689 H 464.791 0.00319931 5.733 0
M  V30 4690 H 463.188 0.763402 5.95224 0
M  V30 4691 H 464.258 1.33799 4.66075 0
M  V30 4692 N 465.601 -1.54893 0.290851 0
M  V30 4693 C 467.017 -1.59476 -0.0628432 0
M  V30 4694 C 467.217 -1.30795 -1.5328 0
M  V30 4695 O 466.273 -1.07644 -2.28406 0
M  V30 4696 C 467.586 -2.98928 0.325962 0
M  V30 4697 C 469.134 -3.11799 0.273882 0
M  V30 4698 C 469.609 -4.53544 0.637359 0
M  V30 4699 N 471.1 -4.59433 0.589507 0
M  V30 4700 C 471.835 -5.67164 0.84335 0
M  V30 4701 N 471.331 -6.82975 1.16263 0
M  V30 4702 N 473.124 -5.56786 0.771091 0
M  V30 4703 H 465.275 -1.71798 1.24896 0
M  V30 4704 H 467.538 -0.801879 0.505663 0
M  V30 4705 H 467.244 -3.24805 1.34887 0
M  V30 4706 H 467.118 -3.75793 -0.325441 0
M  V30 4707 H 469.505 -2.85677 -0.739765 0
M  V30 4708 H 469.586 -2.37112 0.959766 0
M  V30 4709 H 469.23 -4.80394 1.64877 0
M  V30 4710 H 469.16 -5.26553 -0.0704866 0
M  V30 4711 H 471.651 -3.76245 0.353252 0
M  V30 4712 H 471.964 -7.61048 1.34257 0
M  V30 4713 H 470.309 -6.84552 1.20057 0
M  V30 4714 H 473.5 -4.65187 0.521383 0
M  V30 4715 H 473.673 -6.40664 0.972295 0
M  V30 4716 N 467.08 -0.0183926 -1.57589 0
M  V30 4717 C 468.491 0.521927 -1.79256 0
M  V30 4718 C 468.842 1.72885 -0.927636 0
M  V30 4719 O 467.967 2.15978 -0.135091 0
M  V30 4720 C 468.562 0.953632 -3.25102 0
M  V30 4721 C 467.121 1.43913 -3.47801 0
M  V30 4722 C 466.268 0.398837 -2.74417 0
M  V30 4723 H 469.219 -0.244485 -1.56805 0
M  V30 4724 H 469.24 1.81863 -3.34224 0
M  V30 4725 H 468.752 0.0750123 -3.88028 0
M  V30 4726 H 466.853 2.33804 -2.90115 0
M  V30 4727 H 466.966 1.45391 -4.56507 0
M  V30 4728 H 465.33 0.864572 -2.39577 0
M  V30 4729 H 466.113 -0.471132 -3.40052 0
M  V30 4730 N 468.558 1.5553 0.254621 0
M  V30 4731 C 469.508 1.86057 1.31783 0
M  V30 4732 C 470.492 0.720827 1.4385 0
M  V30 4733 O 471.684 0.982586 1.47222 0
M  V30 4734 C 468.813 2.15203 2.67475 0
M  V30 4735 C 467.899 3.35484 2.59444 0
M  V30 4736 N 468.29 4.54945 2.2104 0
M  V30 4737 C 466.588 3.38441 2.90472 0
M  V30 4738 C 467.289 5.3707 2.23453 0
M  V30 4739 N 466.265 4.75936 2.62652 0
M  V30 4740 H 470.067 2.75953 1.01129 0
M  V30 4741 H 467.581 1.55653 0.463255 0
M  V30 4742 H 469.578 2.35235 3.44195 0
M  V30 4743 H 468.238 1.26601 2.99002 0
M  V30 4744 H 469.249 4.8071 1.92712 0
M  V30 4745 H 465.926 2.60087 3.2659 0
M  V30 4746 H 467.316 6.42626 1.96166 0
M  V30 4747 N 470.036 -0.519951 1.48776 0
M  V30 4748 C 471.282 -1.27711 1.57536 0
M  V30 4749 C 471.615 -1.92547 0.252866 0
M  V30 4750 O 470.89 -1.7979 -0.742021 0
M  V30 4751 C 471.173 -2.35875 2.72094 0
M  V30 4752 C 471.026 -1.75664 4.1408 0
M  V30 4753 C 472.345 -3.37575 2.82367 0
M  V30 4754 H 469.464 -0.462971 0.573434 0
M  V30 4755 H 472.106 -0.578194 1.80989 0
M  V30 4756 H 470.256 -2.95488 2.52228 0
M  V30 4757 H 471.928 -1.20025 4.45412 0
M  V30 4758 H 470.171 -1.06154 4.20611 0
M  V30 4759 H 470.842 -2.54029 4.90075 0
M  V30 4760 H 473.318 -2.87929 3.00393 0
M  V30 4761 H 472.194 -4.1064 3.64233 0
M  V30 4762 H 472.455 -3.98743 1.90936 0
M  V30 4763 N 471.514 -1.37532 -0.769588 0
M  V30 4764 C 472.925 -1.29382 -1.346 0
M  V30 4765 C 473.276 0.0576039 -1.96115 0
M  V30 4766 O 472.401 0.95947 -1.93967 0
M  V30 4767 C 472.996 -2.34298 -2.44724 0
M  V30 4768 C 471.555 -2.29776 -2.98128 0
M  V30 4769 C 470.702 -2.18013 -1.71364 0
M  V30 4770 H 473.653 -1.48123 -0.56968 0
M  V30 4771 H 473.674 -1.99089 -3.24259 0
M  V30 4772 H 473.186 -3.32645 -1.99922 0
M  V30 4773 H 471.287 -1.34959 -3.47299 0
M  V30 4774 H 471.4 -3.23276 -3.53595 0
M  V30 4775 H 469.764 -1.64595 -1.94372 0
M  V30 4776 H 470.547 -3.18278 -1.28662 0
M  V30 4777 N 472.992 0.995999 -1.22138 0
M  V30 4778 C 474.222 1.76809 -1.06874 0
M  V30 4779 C 474.63 1.85265 0.383866 0
M  V30 4780 O 473.973 1.31969 1.27789 0
M  V30 4781 C 474.035 3.2186 -1.60144 0
M  V30 4782 C 473.699 3.36958 -3.0872 0
M  V30 4783 C 474.696 3.2452 -4.0618 0
M  V30 4784 C 472.381 3.62109 -3.48112 0
M  V30 4785 C 474.375 3.37013 -5.41019 0
M  V30 4786 C 472.062 3.74243 -4.831 0
M  V30 4787 C 473.06 3.61702 -5.79362 0
M  V30 4788 O 472.748 3.73436 -7.119 0
M  V30 4789 H 472.48 0.562207 -0.375365 0
M  V30 4790 H 475.034 1.26113 -1.62125 0
M  V30 4791 H 473.264 3.73734 -0.992981 0
M  V30 4792 H 474.953 3.80775 -1.40589 0
M  V30 4793 H 475.719 3.05004 -3.77091 0
M  V30 4794 H 471.598 3.70949 -2.73712 0
M  V30 4795 H 475.142 3.27141 -6.16137 0
M  V30 4796 H 471.039 3.93266 -5.11872 0
M  V30 4797 H 471.807 3.90328 -7.19435 0
M  V30 4798 N 474.47 1.03057 1.19235 0
M  V30 4799 C 475.4 0.633497 2.24742 0
M  V30 4800 C 476.381 -0.358335 1.66283 0
M  V30 4801 O 477.566 -0.240676 1.92703 0
M  V30 4802 C 474.696 -0.0147648 3.47297 0
M  V30 4803 C 473.65 0.899527 4.18441 0
M  V30 4804 C 472.976 0.116281 5.34574 0
M  V30 4805 C 474.276 2.21404 4.73051 0
M  V30 4806 H 475.97 1.5155 2.58211 0
M  V30 4807 H 473.516 0.73014 1.24117 0
M  V30 4808 H 475.469 -0.304202 4.20301 0
M  V30 4809 H 474.193 -0.931577 3.13032 0
M  V30 4810 H 472.852 1.17319 3.47321 0
M  V30 4811 H 472.5 -0.802619 4.96555 0
M  V30 4812 H 472.2 0.725293 5.83107 0
M  V30 4813 H 473.724 -0.166376 6.10373 0
M  V30 4814 H 475.138 1.98601 5.37802 0
M  V30 4815 H 473.535 2.77512 5.32078 0
M  V30 4816 H 474.605 2.86752 3.91026 0
M  V30 4817 N 475.948 -1.35272 0.808662 0
M  V30 4818 C 477.195 -1.98709 0.390003 0
M  V30 4819 C 477.523 -1.64148 -1.04335 0
M  V30 4820 O 476.778 -0.897797 -1.73891 0
M  V30 4821 C 477.077 -3.53556 0.522798 0
M  V30 4822 C 476.743 -4.0799 1.91977 0
M  V30 4823 C 475.405 -4.22568 2.30195 0
M  V30 4824 C 477.757 -4.37442 2.83361 0
M  V30 4825 C 475.085 -4.63918 3.59162 0
M  V30 4826 C 477.437 -4.80232 4.11776 0
M  V30 4827 C 476.101 -4.93016 4.49991 0
M  V30 4828 H 475.371 -0.727127 0.142712 0
M  V30 4829 H 478.018 -1.6145 1.02985 0
M  V30 4830 H 476.323 -3.91287 -0.200494 0
M  V30 4831 H 478.02 -4.00598 0.179608 0
M  V30 4832 H 474.61 -3.97096 1.61284 0
M  V30 4833 H 478.794 -4.25731 2.55083 0
M  V30 4834 H 474.05 -4.72005 3.88615 0
M  V30 4835 H 478.224 -5.01982 4.82687 0
M  V30 4836 H 475.851 -5.24814 5.49976 0
M  V30 4837 N 477.426 -0.562348 -1.47226 0
M  V30 4838 C 478.651 -0.0432632 -2.07355 0
M  V30 4839 C 479.076 1.24332 -1.41149 0
M  V30 4840 O 478.434 1.74603 -0.488226 0
M  V30 4841 C 478.482 0.130288 -3.60365 0
M  V30 4842 O 477.586 1.19166 -3.94808 0
M  V30 4843 H 476.927 -0.0536334 -0.66183 0
M  V30 4844 H 479.457 -0.779495 -1.89169 0
M  V30 4845 H 479.467 0.342881 -4.06557 0
M  V30 4846 H 478.142 -0.809389 -4.07948 0
M  V30 4847 H 476.719 0.959153 -3.60354 0
M  V30 4848 N 478.904 1.54736 -0.299062 0
M  V30 4849 C 479.834 2.26409 0.571085 0
M  V30 4850 C 480.815 1.2629 1.13951 0
M  V30 4851 O 482 1.55059 1.16921 0
M  V30 4852 C 479.13 3.00338 1.74396 0
M  V30 4853 C 478.084 4.07588 1.30599 0
M  V30 4854 C 477.41 4.69222 2.56387 0
M  V30 4855 C 478.71 5.20455 0.438645 0
M  V30 4856 H 480.404 2.99388 -0.0266991 0
M  V30 4857 H 477.95 1.43993 -0.0142812 0
M  V30 4858 H 479.903 3.49198 2.35878 0
M  V30 4859 H 478.627 2.24934 2.36796 0
M  V30 4860 H 477.286 3.59575 0.71424 0
M  V30 4861 H 476.934 3.9046 3.17097 0
M  V30 4862 H 476.634 5.41653 2.27784 0
M  V30 4863 H 478.158 5.20844 3.18675 0
M  V30 4864 H 479.572 5.65221 0.959085 0
M  V30 4865 H 477.969 5.99594 0.246466 0
M  V30 4866 H 479.039 4.8192 -0.536738 0
M  V30 4867 N 480.382 0.0267497 1.57577 0
M  V30 4868 C 481.345 -0.940916 2.08996 0
M  V30 4869 C 482.345 -1.25561 1.00455 0
M  V30 4870 O 483.535 -1.19634 1.26623 0
M  V30 4871 C 480.667 -2.25814 2.55384 0
M  V30 4872 H 481.86 -0.495628 2.95776 0
M  V30 4873 H 479.413 -0.221241 1.54726 0
M  V30 4874 H 480.148 -2.74976 1.71926 0
M  V30 4875 H 479.933 -2.04285 3.34679 0
M  V30 4876 H 481.423 -2.95178 2.95398 0
M  V30 4877 N 481.861 -1.55662 -0.24637 0
M  V30 4878 C 482.791 -1.93377 -1.30873 0
M  V30 4879 C 483.772 -0.798773 -1.50179 0
M  V30 4880 O 484.957 -1.0591 -1.62778 0
M  V30 4881 C 482.087 -2.22893 -2.66338 0
M  V30 4882 C 481.041 -3.38649 -2.61727 0
M  V30 4883 C 480.367 -3.53708 -4.00992 0
M  V30 4884 C 481.667 -4.74323 -2.18666 0
M  V30 4885 H 483.361 -2.82363 -0.995552 0
M  V30 4886 H 480.907 -1.35854 -0.477464 0
M  V30 4887 H 482.86 -2.47866 -3.40794 0
M  V30 4888 H 481.584 -1.30733 -2.99293 0
M  V30 4889 H 480.243 -3.13685 -1.89729 0
M  V30 4890 H 479.891 -2.58967 -4.31214 0
M  V30 4891 H 479.591 -4.31551 -3.98795 0
M  V30 4892 H 481.115 -3.81003 -4.77147 0
M  V30 4893 H 482.529 -4.98665 -2.82854 0
M  V30 4894 H 480.926 -5.55273 -2.27579 0
M  V30 4895 H 481.996 -4.71349 -1.13834 0
M  V30 4896 N 483.339 0.512053 -1.4905 0
M  V30 4897 C 484.269 1.62365 -1.67809 0
M  V30 4898 C 485.25 1.61737 -0.526809 0
M  V30 4899 O 486.435 1.78651 -0.761404 0
M  V30 4900 C 483.565 3.00895 -1.73435 0
M  V30 4901 C 482.519 3.16387 -2.88242 0
M  V30 4902 C 481.845 4.56157 -2.78971 0
M  V30 4903 C 483.145 2.97457 -4.29321 0
M  V30 4904 H 484.839 1.46921 -2.60873 0
M  V30 4905 H 482.385 0.705379 -1.2554 0
M  V30 4906 H 484.338 3.78549 -1.85145 0
M  V30 4907 H 483.062 3.17403 -0.769619 0
M  V30 4908 H 481.721 2.41155 -2.76116 0
M  V30 4909 H 481.369 4.69525 -1.8043 0
M  V30 4910 H 481.069 4.67465 -3.5602 0
M  V30 4911 H 482.593 5.35886 -2.92675 0
M  V30 4912 H 484.007 3.64888 -4.42187 0
M  V30 4913 H 482.404 3.20245 -5.07507 0
M  V30 4914 H 483.474 1.93692 -4.44535 0
M  V30 4915 N 484.817 1.37938 0.762283 0
M  V30 4916 C 485.78 1.34279 1.85747 0
M  V30 4917 C 486.78 0.244969 1.58923 0
M  V30 4918 O 487.97 0.501365 1.66829 0
M  V30 4919 C 485.102 1.08833 3.23061 0
M  V30 4920 H 486.295 2.31705 1.90401 0
M  V30 4921 H 483.848 1.23105 0.963057 0
M  V30 4922 H 484.583 0.119767 3.24079 0
M  V30 4923 H 484.368 1.88306 3.43923 0
M  V30 4924 H 485.858 1.08946 4.03138 0
M  V30 4925 N 486.295 -0.989507 1.22664 0
M  V30 4926 C 487.243 -2.10148 0.997035 0
M  V30 4927 C 488.237 -1.6929 -0.0609783 0
M  V30 4928 O 489.443 -1.79766 0.0917523 0
M  V30 4929 H 485.818 -0.687256 0.305259 0
M  V30 4930 H 487.789 -2.26685 1.94053 0
M  V30 4931 C 486.538 -3.4257 0.595085 0
M  V30 4932 H 485.861 -3.74453 1.40089 0
M  V30 4933 H 487.301 -4.21344 0.473869 0
M  V30 4934 C 485.76 -3.29638 -0.695725 0
M  V30 4935 O 486.29 -3.61709 -1.74727 0
M  V30 4936 N 484.496 -2.82814 -0.668173 0
M  V30 4937 H 484.043 -2.56914 0.18787 0
M  V30 4938 H 484.001 -2.74544 -1.5321 0
M  V30 4939 N 487.773 -1.03688 -1.18687 0
M  V30 4940 C 489.021 -0.736572 -1.88199 0
M  V30 4941 C 489.342 0.737665 -1.80509 0
M  V30 4942 O 488.612 1.53204 -1.22088 0
M  V30 4943 H 487.192 -0.269466 -0.696704 0
M  V30 4944 H 489.854 -1.31282 -1.44052 0
M  V30 4945 H 488.95 -1.03802 -2.94332 0
M  V30 4946 N 489.251 1.34841 -0.815825 0
M  V30 4947 C 490.181 2.32187 -0.247298 0
M  V30 4948 C 491.162 1.5791 0.632344 0
M  V30 4949 O 492.347 1.8593 0.560698 0
M  V30 4950 C 489.477 3.42122 0.597466 0
M  V30 4951 C 488.431 4.27602 -0.184446 0
M  V30 4952 C 487.757 5.28942 0.782609 0
M  V30 4953 C 489.057 5.03502 -1.38865 0
M  V30 4954 H 490.751 2.79985 -1.06061 0
M  V30 4955 H 488.297 1.34611 -0.511461 0
M  V30 4956 H 490.25 4.09232 1.00533 0
M  V30 4957 H 488.974 2.92956 1.44376 0
M  V30 4958 H 487.633 3.62085 -0.573592 0
M  V30 4959 H 487.281 4.7604 1.62466 0
M  V30 4960 H 486.981 5.87008 0.263695 0
M  V30 4961 H 488.505 5.98922 1.18848 0
M  V30 4962 H 489.919 5.63506 -1.05518 0
M  V30 4963 H 488.316 5.71108 -1.8427 0
M  V30 4964 H 489.386 4.33608 -2.17054 0
M  V30 4965 N 490.729 0.570148 1.46925 0
M  V30 4966 C 491.957 0.0561966 2.06824 0
M  V30 4967 C 492.372 -1.24326 1.42086 0
M  V30 4968 O 491.729 -1.74882 0.521794 0
M  V30 4969 C 491.78 -0.129517 3.61268 0
M  V30 4970 O 491.501 1.1185 4.23581 0
M  V30 4971 C 493.002 -0.679266 4.38065 0
M  V30 4972 H 490.222 0.0517261 0.669003 0
M  V30 4973 H 492.766 0.787243 1.8874 0
M  V30 4974 H 490.921 -0.810739 3.78822 0
M  V30 4975 H 491.335 0.924375 5.1629 0
M  V30 4976 H 492.809 -0.758445 5.46765 0
M  V30 4977 H 493.286 -1.69346 4.05239 0
M  V30 4978 H 493.892 -0.0333237 4.25287 0
M  V30 4979 N 492.207 -1.54576 0.307264 0
M  V30 4980 C 493.484 -1.92377 -0.353605 0
M  V30 4981 C 493.864 -1.23517 -1.71192 0
M  V30 4982 O 493.212 -0.373101 -2.25433 0
M  V30 4983 C 493.422 -3.45928 -0.462039 0
M  V30 4984 C 494.77 -4.18278 -0.729975 0
M  V30 4985 O 495.794 -3.51997 -0.545605 0
M  V30 4986 O 494.653 -5.3563 -1.08454 0
M  V30 4987 H 491.747 -0.802747 -0.198812 0
M  V30 4988 H 494.293 -1.65929 0.355783 0
M  V30 4989 H 493.065 -3.88187 0.492592 0
M  V30 4990 H 492.688 -3.78431 -1.21965 0
M  V30 4991 N 493.685 -0.035106 -1.57561 0
M  V30 4992 C 494.615 0.942993 -2.13612 0
M  V30 4993 C 495.596 1.33531 -1.05373 0
M  V30 4994 O 496.781 1.41287 -1.33235 0
M  V30 4995 C 493.911 2.22332 -2.66807 0
M  V30 4996 C 492.865 1.97156 -3.79886 0
M  V30 4997 C 492.191 3.31506 -4.19533 0
M  V30 4998 C 493.491 1.30596 -5.05709 0
M  V30 4999 H 495.185 0.476179 -2.95589 0
M  V30 5000 H 492.731 0.227602 -1.4219 0
M  V30 5001 H 494.684 2.91142 -3.04654 0
M  V30 5002 H 493.408 2.7119 -1.81999 0
M  V30 5003 H 492.067 1.30763 -3.42486 0
M  V30 5004 H 491.715 3.78134 -3.31698 0
M  V30 5005 H 491.415 3.15465 -4.95738 0
M  V30 5006 H 492.939 4.01574 -4.59968 0
M  V30 5007 H 494.353 1.89416 -5.41105 0
M  V30 5008 H 492.75 1.24934 -5.86951 0
M  V30 5009 H 493.82 0.279742 -4.84092 0
M  V30 5010 N 495.163 1.55791 0.238111 0
M  V30 5011 C 496.388 1.8244 0.986432 0
M  V30 5012 C 496.813 0.613314 1.7782 0
M  V30 5013 O 496.171 -0.437767 1.75935 0
M  V30 5014 C 496.219 3.06917 1.893 0
M  V30 5015 O 495.323 2.84449 2.98601 0
M  V30 5016 H 494.664 0.601975 0.280218 0
M  V30 5017 H 497.194 2.02987 0.256437 0
M  V30 5018 H 497.204 3.36583 2.30598 0
M  V30 5019 H 495.879 3.947 1.31091 0
M  V30 5020 H 494.456 2.65972 2.61368 0
M  V30 5021 N 496.642 -0.504142 1.49319 0
M  V30 5022 C 497.867 -1.28729 1.62615 0
M  V30 5023 C 498.292 -1.85752 0.296309 0
M  V30 5024 O 497.65 -1.65704 -0.735649 0
M  V30 5025 C 497.698 -2.39561 2.69524 0
M  V30 5026 O 496.802 -3.43324 2.28478 0
M  V30 5027 H 496.143 -0.380172 0.544395 0
M  V30 5028 H 498.673 -0.603872 1.95485 0
M  V30 5029 H 498.683 -2.8537 2.91595 0
M  V30 5030 H 497.358 -1.97423 3.66056 0
M  V30 5031 H 495.935 -3.03455 2.16725 0
M  V30 5032 N 498.12 -1.38341 -0.754957 0
M  V30 5033 C 499.083 -1.35262 -1.85032 0
M  V30 5034 C 500.083 -0.253393 -1.58791 0
M  V30 5035 O 501.273 -0.510205 -1.66561 0
M  V30 5036 C 498.405 -1.10544 -3.22479 0
M  V30 5037 H 499.598 -2.32712 -1.8917 0
M  V30 5038 H 497.151 -1.23614 -0.956515 0
M  V30 5039 H 497.886 -0.136952 -3.24011 0
M  V30 5040 H 497.671 -1.90127 -3.4292 0
M  V30 5041 H 499.161 -1.11082 -4.02555 0
M  V30 5042 N 499.598 0.982988 -1.23187 0
M  V30 5043 C 501.014 1.2487 -0.993967 0
M  V30 5044 C 501.214 1.99155 0.306498 0
M  V30 5045 O 500.27 2.30688 1.0266 0
M  V30 5046 C 501.583 2.05078 -2.19917 0
M  V30 5047 C 503.131 2.18227 -2.2438 0
M  V30 5048 C 503.606 3.01825 -3.44479 0
M  V30 5049 N 505.097 3.09411 -3.44702 0
M  V30 5050 C 505.832 3.74412 -4.34285 0
M  V30 5051 N 505.328 4.41259 -5.341 0
M  V30 5052 N 507.121 3.71273 -4.22035 0
M  V30 5053 H 499.272 0.485253 -2.06783 0
M  V30 5054 H 501.535 0.276979 -0.906635 0
M  V30 5055 H 501.241 1.57867 -3.14279 0
M  V30 5056 H 501.115 3.05829 -2.2079 0
M  V30 5057 H 503.502 2.64648 -1.30559 0
M  V30 5058 H 503.583 1.16873 -2.2754 0
M  V30 5059 H 503.227 2.56102 -4.38605 0
M  V30 5060 H 503.157 4.03342 -3.38559 0
M  V30 5061 H 505.648 2.61845 -2.7248 0
M  V30 5062 H 505.961 4.88629 -5.98717 0
M  V30 5063 H 504.306 4.39975 -5.38002 0
M  V30 5064 H 507.497 3.18217 -3.43301 0
M  V30 5065 H 507.67 4.21649 -4.92053 0
M  V30 5066 N 501.076 1.04316 1.18135 0
M  V30 5067 C 502.039 0.640794 2.2006 0
M  V30 5068 C 503.039 -0.303124 1.57917 0
M  V30 5069 O 504.229 -0.0881855 1.73977 0
M  V30 5070 C 501.361 -0.060148 3.40847 0
M  V30 5071 H 502.554 1.54281 2.57172 0
M  V30 5072 H 500.107 0.836004 1.32063 0
M  V30 5073 H 500.842 -0.975845 3.0927 0
M  V30 5074 H 500.627 0.618319 3.87194 0
M  V30 5075 H 502.117 -0.328082 4.16309 0
M  V30 5076 N 502.554 -1.34406 0.822964 0
M  V30 5077 C 503.97 -1.51275 0.508727 0
M  V30 5078 C 504.17 -1.76776 -0.967083 0
M  V30 5079 O 503.226 -1.81871 -1.75155 0
M  V30 5080 C 504.539 -2.67765 1.36829 0
M  V30 5081 C 506.087 -2.81647 1.36542 0
M  V30 5082 C 506.562 -4.01181 2.20947 0
M  V30 5083 N 508.053 -4.08388 2.18571 0
M  V30 5084 C 508.788 -5.00036 2.80627 0
M  V30 5085 N 508.284 -5.96906 3.51674 0
M  V30 5086 N 510.077 -4.92908 2.70181 0
M  V30 5087 H 502.228 -1.16113 1.77852 0
M  V30 5088 H 504.491 -0.56947 0.757897 0
M  V30 5089 H 504.197 -2.55551 2.41633 0
M  V30 5090 H 504.071 -3.62779 1.03303 0
M  V30 5091 H 506.458 -2.93303 0.325163 0
M  V30 5092 H 506.539 -1.87443 1.74066 0
M  V30 5093 H 506.183 -3.90286 3.25022 0
M  V30 5094 H 506.113 -4.94599 1.80774 0
M  V30 5095 H 508.604 -3.39051 1.66891 0
M  V30 5096 H 508.917 -6.63468 3.96271 0
M  V30 5097 H 507.262 -5.9703 3.5578 0
M  V30 5098 H 510.453 -4.1619 2.14251 0
M  V30 5099 H 510.626 -5.64137 3.18831 0
M  V30 5100 N 504.032 -0.577932 -1.46621 0
M  V30 5101 C 505.257 -0.0652536 -2.07297 0
M  V30 5102 C 505.682 1.22828 -1.4246 0
M  V30 5103 O 505.04 1.74075 -0.506718 0
M  V30 5104 C 505.088 0.0920589 -3.60482 0
M  V30 5105 O 504.192 1.14972 -3.96049 0
M  V30 5106 H 503.533 -0.06065 -0.661224 0
M  V30 5107 H 506.063 -0.799515 -1.88332 0
M  V30 5108 H 506.073 0.299741 -4.06897 0
M  V30 5109 H 504.748 -0.852612 -4.07067 0
M  V30 5110 H 503.325 0.920879 -3.61351 0
M  V30 5111 N 505.51 1.54411 -0.315457 0
M  V30 5112 C 506.74 2.04536 0.291315 0
M  V30 5113 C 507.148 1.19162 1.4696 0
M  V30 5114 O 506.491 0.213199 1.82459 0
M  V30 5115 C 506.553 3.5056 0.796725 0
M  V30 5116 C 506.217 4.5627 -0.258178 0
M  V30 5117 C 507.214 5.08312 -1.09153 0
M  V30 5118 C 504.899 5.00672 -0.404036 0
M  V30 5119 C 506.893 6.03312 -2.05655 0
M  V30 5120 C 504.58 5.95488 -1.37248 0
M  V30 5121 C 505.578 6.46693 -2.19721 0
M  V30 5122 O 505.266 7.39648 -3.14921 0
M  V30 5123 H 504.998 0.672856 0.0651165 0
M  V30 5124 H 507.552 2.00244 -0.457308 0
M  V30 5125 H 505.782 3.52223 1.59612 0
M  V30 5126 H 507.471 3.83804 1.32096 0
M  V30 5127 H 508.237 4.74793 -0.98979 0
M  V30 5128 H 504.116 4.60436 0.22799 0
M  V30 5129 H 507.66 6.43203 -2.70067 0
M  V30 5130 H 503.557 6.28424 -1.47489 0
M  V30 5131 H 504.325 7.57496 -3.10067 0
M  V30 5132 N 506.988 0.0434614 1.5754 0
M  V30 5133 C 508.236 -0.630786 1.92004 0
M  V30 5134 C 508.557 -1.71836 0.921807 0
M  V30 5135 O 507.827 -1.9587 -0.034522 0
M  V30 5136 H 506.407 -0.235988 0.708745 0
M  V30 5137 H 509.069 0.0946462 1.9467 0
M  V30 5138 H 508.165 -1.07434 2.93026 0
M  V30 5139 N 508.466 -1.55915 -0.229846 0
M  V30 5140 C 509.429 -1.90914 -1.26824 0
M  V30 5141 C 510.429 -0.786999 -1.40225 0
M  V30 5142 O 511.619 -1.05484 -1.38632 0
M  V30 5143 C 508.751 -2.15264 -2.64337 0
M  V30 5144 H 509.944 -2.8378 -0.969998 0
M  V30 5145 H 507.497 -1.49069 -0.4699 0
M  V30 5146 H 508.232 -1.24923 -2.99274 0
M  V30 5147 H 508.017 -2.97005 -2.55989 0
M  V30 5148 H 509.507 -2.43467 -3.39284 0
M  V30 5149 N 509.944 0.496216 -1.49584 0
M  V30 5150 C 510.874 1.60576 -1.69521 0
M  V30 5151 C 511.855 1.61169 -0.543933 0
M  V30 5152 O 513.04 1.77834 -0.78031 0
M  V30 5153 C 510.17 2.99038 -1.76616 0
M  V30 5154 C 509.124 3.13312 -2.91581 0
M  V30 5155 C 508.45 4.53172 -2.83794 0
M  V30 5156 C 509.75 2.92886 -4.32452 0
M  V30 5157 H 511.444 1.44146 -2.62416 0
M  V30 5158 H 508.99 0.692024 -1.26282 0
M  V30 5159 H 510.943 3.76564 -1.8915 0
M  V30 5160 H 509.667 3.16568 -0.80324 0
M  V30 5161 H 508.326 2.38213 -2.78658 0
M  V30 5162 H 507.974 4.67585 -1.854 0
M  V30 5163 H 507.674 4.63662 -3.60958 0
M  V30 5164 H 509.198 5.32752 -2.98342 0
M  V30 5165 H 510.612 3.60178 -4.46032 0
M  V30 5166 H 509.009 3.14844 -5.10875 0
M  V30 5167 H 510.079 1.88966 -4.46565 0
M  V30 5168 N 511.423 1.38739 0.74761 0
M  V30 5169 C 512.669 1.35475 1.50912 0
M  V30 5170 C 513.002 -0.0533093 1.94127 0
M  V30 5171 O 512.277 -1.01572 1.65871 0
M  V30 5172 C 512.56 2.31582 2.75757 0
M  V30 5173 C 512.413 3.81274 2.38642 0
M  V30 5174 C 513.732 2.25722 3.77806 0
M  V30 5175 H 510.851 0.493427 0.547447 0
M  V30 5176 H 513.493 1.69634 0.855823 0
M  V30 5177 H 511.643 2.02582 3.31501 0
M  V30 5178 H 513.315 4.20972 1.88626 0
M  V30 5179 H 511.558 3.98664 1.71025 0
M  V30 5180 H 512.229 4.4399 3.27989 0
M  V30 5181 H 514.705 2.51336 3.31616 0
M  V30 5182 H 513.581 2.95069 4.62845 0
M  V30 5183 H 513.842 1.25803 4.23823 0
M  V30 5184 N 512.901 -0.976442 1.23707 0
M  V30 5185 C 513.864 -2.0511 1.02287 0
M  V30 5186 C 514.864 -1.60791 -0.0167195 0
M  V30 5187 O 516.054 -1.72761 0.223408 0
M  V30 5188 C 513.186 -3.36458 0.548507 0
M  V30 5189 H 514.379 -2.25545 1.9766 0
M  V30 5190 H 511.932 -1.15042 1.05806 0
M  V30 5191 H 512.667 -3.21713 -0.408818 0
M  V30 5192 H 512.452 -3.69967 1.29874 0
M  V30 5193 H 513.942 -4.15489 0.419406 0
M  V30 5194 N 514.379 -1.04941 -1.1758 0
M  V30 5195 C 515.626 -0.757989 -1.87779 0
M  V30 5196 C 515.954 0.714827 -1.80888 0
M  V30 5197 O 515.209 1.53824 -1.20982 0
M  V30 5198 C 515.508 -1.18062 -3.37337 0
M  V30 5199 C 515.174 -2.65521 -3.6443 0
M  V30 5200 C 513.836 -3.05804 -3.71534 0
M  V30 5201 C 516.188 -3.60822 -3.76108 0
M  V30 5202 C 513.516 -4.40256 -3.87803 0
M  V30 5203 C 515.868 -4.95005 -3.93895 0
M  V30 5204 C 514.532 -5.34945 -3.99237 0
M  V30 5205 H 513.802 -0.277368 -0.68713 0
M  V30 5206 H 516.449 -1.31603 -1.39115 0
M  V30 5207 H 514.754 -0.541525 -3.8804 0
M  V30 5208 H 516.451 -0.932368 -3.9001 0
M  V30 5209 H 513.041 -2.33324 -3.59524 0
M  V30 5210 H 517.225 -3.30841 -3.69943 0
M  V30 5211 H 512.481 -4.70707 -3.90186 0
M  V30 5212 H 516.655 -5.68746 -4.01872 0
M  V30 5213 H 514.282 -6.39135 -4.11596 0
M  V30 5214 N 515.857 1.33968 -0.830081 0
M  V30 5215 C 517.097 1.99879 -0.427521 0
M  V30 5216 C 517.461 1.64355 0.992546 0
M  V30 5217 O 518.662 2.23164 1.49837 0
M  V30 5218 C 516.933 3.51771 -0.631815 0
M  V30 5219 S 518.492 4.37608 -0.323168 0
M  V30 5220 H 515.31 0.692485 -0.161202 0
M  V30 5221 H 517.912 1.63129 -1.07745 0
M  V30 5222 H 516.616 3.75113 -1.66488 0
M  V30 5223 H 516.147 3.93386 0.0325936 0
M  V30 5224 H 518.162 4.88683 0.860432 0
M  V30 5225 N 517.335 0.585699 1.46312 0
M  V30 5226 C 518.581 0.0725284 2.0267 0
M  V30 5227 C 518.914 -1.28523 1.45586 0
M  V30 5228 O 518.189 -1.84283 0.622101 0
M  V30 5229 C 518.472 0.0099788 3.60099 0
M  V30 5230 C 518.325 1.39685 4.27561 0
M  V30 5231 C 519.644 -0.689117 4.34671 0
M  V30 5232 H 516.763 0.0278307 0.736474 0
M  V30 5233 H 519.405 0.753472 1.74421 0
M  V30 5234 H 517.555 -0.56992 3.84297 0
M  V30 5235 H 519.227 2.02215 4.14617 0
M  V30 5236 H 517.47 1.96374 3.86807 0
M  V30 5237 H 518.141 1.30553 5.36339 0
M  V30 5238 H 520.617 -0.196446 4.15636 0
M  V30 5239 H 519.493 -0.701921 5.44393 0
M  V30 5240 H 519.754 -1.75101 4.05946 0
M  V30 5241 N 518.813 -1.54241 0.323641 0
M  V30 5242 C 519.776 -2.22997 -0.529602 0
M  V30 5243 C 520.776 -1.22345 -1.04347 0
M  V30 5244 O 521.966 -1.46924 -0.935889 0
M  V30 5245 C 519.098 -2.93409 -1.73562 0
M  V30 5246 H 520.291 -2.99815 0.0714518 0
M  V30 5247 H 517.844 -1.56121 0.0747258 0
M  V30 5248 H 518.579 -2.20729 -2.37591 0
M  V30 5249 H 518.364 -3.67217 -1.37456 0
M  V30 5250 H 519.854 -3.45794 -2.34128 0
M  V30 5251 N 520.291 -0.0518155 -1.57515 0
M  V30 5252 C 521.538 0.621823 -1.92716 0
M  V30 5253 C 521.866 1.70813 -0.930229 0
M  V30 5254 O 521.121 1.95616 0.0573708 0
M  V30 5255 C 521.42 1.25607 -3.34601 0
M  V30 5256 C 521.086 0.297901 -4.49915 0
M  V30 5257 C 519.748 0.034243 -4.81188 0
M  V30 5258 C 522.1 -0.358738 -5.19964 0
M  V30 5259 C 519.428 -0.893479 -5.79857 0
M  V30 5260 C 521.78 -1.27466 -6.19625 0
M  V30 5261 C 520.444 -1.54698 -6.49326 0
M  V30 5262 H 519.714 0.227541 -0.705199 0
M  V30 5263 H 522.361 -0.118432 -1.91133 0
M  V30 5264 H 520.666 2.07161 -3.32553 0
M  V30 5265 H 522.363 1.78424 -3.59118 0
M  V30 5266 H 518.953 0.513581 -4.25512 0
M  V30 5267 H 523.137 -0.168133 -4.96015 0
M  V30 5268 H 518.393 -1.11193 -6.01204 0
M  V30 5269 H 522.567 -1.78953 -6.73015 0
M  V30 5270 H 520.194 -2.26748 -7.25596 0
M  V30 5271 N 521.769 1.56035 0.221574 0
M  V30 5272 C 523.017 1.78693 0.944102 0
M  V30 5273 C 523.338 0.620317 1.8487 0
M  V30 5274 O 522.608 -0.362784 1.92512 0
M  V30 5275 H 521.188 0.659082 0.351597 0
M  V30 5276 H 523.85 1.93497 0.233435 0
M  V30 5277 H 522.946 2.70837 1.55093 0
M  V30 5278 N 523.247 -0.488276 1.49845 0
M  V30 5279 C 524.177 -1.59675 1.70371 0
M  V30 5280 C 525.158 -1.60878 0.552473 0
M  V30 5281 O 526.343 -1.77417 0.78973 0
M  V30 5282 C 523.473 -2.98098 1.782 0
M  V30 5283 C 522.427 -3.11761 2.93239 0
M  V30 5284 C 521.753 -4.51661 2.86193 0
M  V30 5285 C 523.053 -2.90589 4.33999 0
M  V30 5286 H 524.747 -1.42752 2.63177 0
M  V30 5287 H 522.293 -0.685317 1.26647 0
M  V30 5288 H 524.246 -3.75555 1.91144 0
M  V30 5289 H 522.97 -3.16138 0.820018 0
M  V30 5290 H 521.629 -2.36732 2.79917 0
M  V30 5291 H 521.277 -4.66595 1.87877 0
M  V30 5292 H 520.977 -4.61742 3.63412 0
M  V30 5293 H 522.501 -5.31162 3.01163 0
M  V30 5294 H 523.915 -3.57807 4.47936 0
M  V30 5295 H 522.312 -3.1213 5.12538 0
M  V30 5296 H 523.382 -1.86595 4.4756 0
M  V30 5297 N 524.725 -1.39134 -0.740242 0
M  V30 5298 C 525.95 -1.39518 -1.53459 0
M  V30 5299 C 526.375 0.00968883 -1.88098 0
M  V30 5300 O 525.733 0.995312 -1.51536 0
M  V30 5301 C 525.781 -2.26981 -2.802 0
M  V30 5302 O 524.885 -1.69609 -3.75908 0
M  V30 5303 H 524.226 -0.475328 -0.463637 0
M  V30 5304 H 526.756 -1.83064 -0.913717 0
M  V30 5305 H 526.766 -2.41309 -3.28989 0
M  V30 5306 H 525.441 -3.29081 -2.5432 0
M  V30 5307 H 524.018 -1.64495 -3.34658 0
M  V30 5308 N 526.204 0.969867 -1.24223 0
M  V30 5309 C 527.434 1.74502 -1.106 0
M  V30 5310 C 527.842 1.86038 0.344483 0
M  V30 5311 O 527.185 1.3465 1.24961 0
M  V30 5312 C 527.247 3.18391 -1.66935 0
M  V30 5313 C 526.911 3.30334 -3.15798 0
M  V30 5314 C 527.908 3.15832 -4.12973 0
M  V30 5315 C 525.593 3.54644 -3.55715 0
M  V30 5316 C 527.587 3.25461 -5.48045 0
M  V30 5317 C 525.274 3.63912 -4.90929 0
M  V30 5318 C 526.272 3.49332 -5.86904 0
M  V30 5319 O 525.96 3.58251 -7.1966 0
M  V30 5320 H 525.692 0.554119 -0.387206 0
M  V30 5321 H 528.246 1.22646 -1.64764 0
M  V30 5322 H 526.476 3.71543 -1.07203 0
M  V30 5323 H 528.165 3.77707 -1.48634 0
M  V30 5324 H 528.931 2.96937 -3.83476 0
M  V30 5325 H 524.81 3.65059 -2.81519 0
M  V30 5326 H 528.354 3.13998 -6.22937 0
M  V30 5327 H 524.251 3.82319 -5.20098 0
M  V30 5328 H 525.019 3.7498 -7.27552 0
M  V30 5329 N 527.682 1.05563 1.17022 0
M  V30 5330 C 528.93 0.76642 1.87004 0
M  V30 5331 C 529.251 -0.708854 1.8166 0
M  V30 5332 O 528.521 -1.51242 1.2451 0
M  V30 5333 H 527.101 0.280516 0.692329 0
M  V30 5334 H 529.763 1.33557 1.41945 0
M  V30 5335 H 528.859 1.08472 2.92644 0
M  V30 5336 N 529.16 -1.33526 0.837174 0
M  V30 5337 C 530.093 -2.27192 0.214233 0
M  V30 5338 C 531.071 -1.49575 -0.637657 0
M  V30 5339 O 532.255 -1.78753 -0.598291 0
M  V30 5340 C 529.382 -3.31401 -0.699367 0
M  V30 5341 C 528.428 -4.26431 0.0768429 0
M  V30 5342 S 529.261 -5.15954 1.4336 0
M  V30 5343 C 530.417 -6.23692 0.525251 0
M  V30 5344 H 530.65 -2.79679 1.00831 0
M  V30 5345 H 528.183 -1.4079 0.633834 0
M  V30 5346 H 530.141 -3.91924 -1.22088 0
M  V30 5347 H 528.802 -2.77732 -1.46709 0
M  V30 5348 H 527.995 -5.00193 -0.618268 0
M  V30 5349 H 527.597 -3.70235 0.529364 0
M  V30 5350 H 529.889 -6.76931 -0.277575 0
M  V30 5351 H 530.832 -6.97283 1.23299 0
M  V30 5352 H 531.24 -5.64398 0.107351 0
M  V30 5353 N 530.638 -0.59345 -1.46 0
M  V30 5354 C 531.884 -0.0832754 -2.02629 0
M  V30 5355 C 532.217 1.27749 -1.46266 0
M  V30 5356 O 531.492 1.8395 -0.631866 0
M  V30 5357 C 531.775 -0.0290756 -3.60088 0
M  V30 5358 C 531.628 -1.41951 -4.26814 0
M  V30 5359 C 532.947 0.666055 -4.35031 0
M  V30 5360 H 530.066 -0.031736 -0.736316 0
M  V30 5361 H 532.708 -0.762711 -1.74019 0
M  V30 5362 H 530.858 0.549532 -3.84594 0
M  V30 5363 H 532.53 -2.04411 -4.13538 0
M  V30 5364 H 530.773 -1.98422 -3.8576 0
M  V30 5365 H 531.444 -1.33395 -5.3564 0
M  V30 5366 H 533.92 0.174401 -4.15734 0
M  V30 5367 H 532.796 0.673041 -5.44758 0
M  V30 5368 H 533.057 1.72946 -4.06869 0
M  V30 5369 N 532.116 1.54067 -0.331816 0
M  V30 5370 C 533.364 2.00319 0.267739 0
M  V30 5371 C 533.685 1.22148 1.52003 0
M  V30 5372 O 532.955 0.325494 1.93177 0
M  V30 5373 H 531.535 0.740014 0.101922 0
M  V30 5374 H 534.197 1.89628 -0.450267 0
M  V30 5375 H 533.293 3.07765 0.518385 0
M  V30 5376 N 533.594 0.0601682 1.57485 0
M  V30 5377 C 534.557 -0.896373 2.10945 0
M  V30 5378 C 535.557 -1.23402 1.03095 0
M  V30 5379 O 536.747 -1.16921 1.29132 0
M  V30 5380 C 533.879 -2.20346 2.60116 0
M  V30 5381 H 535.072 -0.432778 2.96761 0
M  V30 5382 H 532.625 -0.188372 1.55161 0
M  V30 5383 H 533.36 -2.71268 1.7772 0
M  V30 5384 H 533.145 -1.9714 3.38937 0
M  V30 5385 H 534.635 -2.88846 3.01592 0
M  V30 5386 N 535.072 -1.5615 -0.213296 0
M  V30 5387 C 536.002 -1.96109 -1.26742 0
M  V30 5388 C 536.983 -0.830448 -1.48451 0
M  V30 5389 O 538.168 -1.09339 -1.60495 0
M  V30 5390 C 535.298 -2.28492 -2.61551 0
M  V30 5391 C 534.252 -3.44124 -2.54485 0
M  V30 5392 C 533.578 -3.62134 -3.93399 0
M  V30 5393 C 534.878 -4.78855 -2.08556 0
M  V30 5394 H 536.572 -2.84412 -0.935434 0
M  V30 5395 H 534.118 -1.36836 -0.44854 0
M  V30 5396 H 536.071 -2.55039 -3.3546 0
M  V30 5397 H 534.795 -1.37052 -2.96453 0
M  V30 5398 H 533.454 -3.17639 -1.83033 0
M  V30 5399 H 533.102 -2.68055 -4.25623 0
M  V30 5400 H 532.802 -4.39913 -3.89551 0
M  V30 5401 H 534.326 -3.91038 -4.68958 0
M  V30 5402 H 535.74 -5.04552 -2.72213 0
M  V30 5403 H 534.137 -5.59975 -2.1575 0
M  V30 5404 H 535.207 -4.73657 -1.03811 0
M  V30 5405 N 536.55 0.480323 -1.50102 0
M  V30 5406 C 537.482 1.59669 -1.64433 0
M  V30 5407 C 538.495 1.54063 -0.52615 0
M  V30 5408 O 539.684 1.59619 -0.798992 0
M  V30 5409 C 536.784 2.98527 -1.6042 0
M  V30 5410 C 535.957 3.291 -2.88117 0
M  V30 5411 C 535.016 4.47468 -2.76873 0
M  V30 5412 O 534.042 4.4823 -3.50825 0
M  V30 5413 N 535.244 5.48593 -1.89806 0
M  V30 5414 H 538.009 1.47795 -2.60723 0
M  V30 5415 H 535.57 0.66858 -1.4745 0
M  V30 5416 H 537.562 3.75666 -1.50523 0
M  V30 5417 H 536.132 3.04218 -0.719036 0
M  V30 5418 H 535.352 2.40662 -3.12211 0
M  V30 5419 H 536.64 3.46334 -3.72734 0
M  V30 5420 H 536.038 5.50791 -1.2902 0
M  V30 5421 H 534.595 6.24752 -1.85819 0
M  V30 5422 N 538.028 1.39524 0.732853 0
M  V30 5423 C 539.275 1.36865 1.49246 0
M  V30 5424 C 539.603 -0.0347118 1.94469 0
M  V30 5425 O 538.858 -1.01596 1.67262 0
M  V30 5426 C 539.157 2.28916 2.74468 0
M  V30 5427 C 538.823 3.76506 2.481 0
M  V30 5428 C 537.485 4.16721 2.40619 0
M  V30 5429 C 539.837 4.69846 2.25598 0
M  V30 5430 C 537.165 5.48334 2.08679 0
M  V30 5431 C 539.517 6.01739 1.95174 0
M  V30 5432 C 538.181 6.41015 1.86163 0
M  V30 5433 H 537.451 0.500824 0.546129 0
M  V30 5434 H 540.098 1.72047 0.840958 0
M  V30 5435 H 538.403 1.86859 3.4437 0
M  V30 5436 H 540.1 2.2415 3.32502 0
M  V30 5437 H 536.69 3.44635 2.54803 0
M  V30 5438 H 540.874 4.39608 2.30344 0
M  V30 5439 H 536.13 5.77685 2.00226 0
M  V30 5440 H 540.304 6.73591 1.76771 0
M  V30 5441 H 537.931 7.42917 1.61179 0
M  V30 5442 N 539.506 -0.963266 1.24736 0
M  V30 5443 C 540.416 -2.09246 1.06082 0
M  V30 5444 C 541.432 -1.74 0.000363101 0
M  V30 5445 O 542.608 -2.0041 0.199479 0
M  V30 5446 C 539.673 -3.40115 0.672498 0
M  V30 5447 C 538.734 -3.89282 1.80993 0
M  V30 5448 C 537.967 -5.13905 1.44004 0
M  V30 5449 O 538.19 -5.69434 0.331835 0
M  V30 5450 O 537.124 -5.57566 2.26723 0
M  V30 5451 H 540.95 -2.27881 2.00759 0
M  V30 5452 H 538.535 -1.07649 1.03595 0
M  V30 5453 H 540.417 -4.18797 0.467668 0
M  V30 5454 H 539.092 -3.22771 -0.245102 0
M  V30 5455 H 537.999 -3.11642 2.06955 0
M  V30 5456 H 539.332 -4.1111 2.70646 0
M  V30 5457 N 540.985 -1.06182 -1.16461 0
M  V30 5458 C 542.231 -0.779015 -1.87241 0
M  V30 5459 C 542.564 0.692715 -1.81425 0
M  V30 5460 O 541.839 1.5074 -1.22913 0
M  V30 5461 C 542.122 -1.2728 -3.36856 0
M  V30 5462 C 541.975 -2.80821 -3.51368 0
M  V30 5463 C 543.294 -0.879799 -4.31216 0
M  V30 5464 H 540.413 -0.284464 -0.679889 0
M  V30 5465 H 543.055 -1.31755 -1.36896 0
M  V30 5466 H 541.205 -0.814673 -3.79862 0
M  V30 5467 H 542.877 -3.34833 -3.17308 0
M  V30 5468 H 541.12 -3.19606 -2.93316 0
M  V30 5469 H 541.791 -3.10435 -4.56436 0
M  V30 5470 H 544.267 -1.27436 -3.96105 0
M  V30 5471 H 543.143 -1.25278 -5.34412 0
M  V30 5472 H 543.404 0.215372 -4.41575 0
M  V30 5473 N 542.463 1.3308 -0.844243 0
M  V30 5474 C 543.393 2.3161 -0.296493 0
M  V30 5475 C 544.374 1.59215 0.598707 0
M  V30 5476 O 545.559 1.87077 0.521134 0
M  V30 5477 C 542.689 3.43313 0.524762 0
M  V30 5478 C 541.643 4.27115 -0.275106 0
M  V30 5479 C 540.969 5.30483 0.670236 0
M  V30 5480 C 542.269 5.00443 -1.49514 0
M  V30 5481 H 543.963 2.77672 -1.11976 0
M  V30 5482 H 541.509 1.33496 -0.539899 0
M  V30 5483 H 543.462 4.11273 0.918298 0
M  V30 5484 H 542.186 2.95952 1.3813 0
M  V30 5485 H 540.845 3.60787 -0.650267 0
M  V30 5486 H 540.493 4.79379 1.52332 0
M  V30 5487 H 540.193 5.87435 0.139123 0
M  V30 5488 H 541.717 6.01308 1.06117 0
M  V30 5489 H 543.131 5.61141 -1.17447 0
M  V30 5490 H 541.528 5.67071 -1.96343 0
M  V30 5491 H 542.598 4.28906 -2.26202 0
M  V30 5492 N 543.941 0.601185 1.45683 0
M  V30 5493 C 544.874 -0.17013 2.27565 0
M  V30 5494 C 545.852 -0.879661 1.36751 0
M  V30 5495 O 547.036 -0.889827 1.66176 0
M  V30 5496 C 544.163 -1.24568 3.14961 0
M  V30 5497 C 543.209 -0.639978 4.21671 0
M  V30 5498 S 544.042 0.547275 5.32696 0
M  V30 5499 C 545.198 -0.529019 6.2366 0
M  V30 5500 H 545.431 0.524583 2.92635 0
M  V30 5501 H 542.964 0.388537 1.49431 0
M  V30 5502 H 544.922 -1.86138 3.65873 0
M  V30 5503 H 543.583 -1.91243 2.49169 0
M  V30 5504 H 542.776 -1.44903 4.8272 0
M  V30 5505 H 542.378 -0.0995558 3.73867 0
M  V30 5506 H 544.67 -1.40981 6.62669 0
M  V30 5507 H 545.613 0.0451599 7.08086 0
M  V30 5508 H 546.021 -0.84147 5.58193 0
M  V30 5509 N 545.419 -1.53889 0.339982 0
M  V30 5510 C 546.382 -2.23547 -0.50592 0
M  V30 5511 C 547.382 -1.23445 -1.03044 0
M  V30 5512 O 548.572 -1.47909 -0.920253 0
M  V30 5513 C 545.704 -2.95234 -1.7044 0
M  V30 5514 H 546.897 -2.99722 0.103247 0
M  V30 5515 H 544.45 -1.56033 0.0912804 0
M  V30 5516 H 545.185 -2.23236 -2.35236 0
M  V30 5517 H 544.97 -3.68654 -1.33553 0
M  V30 5518 H 546.46 -3.48258 -2.30447 0
M  V30 5519 N 546.897 -0.0685191 -1.57451 0
M  V30 5520 C 547.86 0.885173 -2.11417 0
M  V30 5521 C 548.86 1.22853 -1.03748 0
M  V30 5522 O 550.05 1.16235 -1.2975 0
M  V30 5523 C 547.182 2.18964 -2.61281 0
M  V30 5524 H 548.375 0.417034 -2.96986 0
M  V30 5525 H 545.928 0.18014 -1.55258 0
M  V30 5526 H 546.663 2.70321 -1.79156 0
M  V30 5527 H 546.448 1.9534 -3.39977 0
M  V30 5528 H 547.938 2.87242 -3.0312 0
M  V30 5529 N 548.375 1.56261 0.205012 0
M  V30 5530 C 549.621 1.80306 0.9283 0
M  V30 5531 C 549.954 0.640932 1.83319 0
M  V30 5532 O 549.229 -0.359032 1.91158 0
M  V30 5533 C 549.512 3.14547 1.75306 0
M  V30 5534 C 549.365 4.41236 0.873562 0
M  V30 5535 C 550.684 3.45382 2.72762 0
M  V30 5536 H 547.803 0.655929 0.336044 0
M  V30 5537 H 550.445 1.88984 0.196211 0
M  V30 5538 H 548.595 3.0728 2.37721 0
M  V30 5539 H 550.267 4.60539 0.264887 0
M  V30 5540 H 548.51 4.33427 0.179773 0
M  V30 5541 H 549.181 5.31639 1.48541 0
M  V30 5542 H 551.657 3.52884 2.20481 0
M  V30 5543 H 550.533 4.40449 3.2756 0
M  V30 5544 H 550.794 2.68377 3.51321 0
M  V30 5545 N 549.853 -0.472356 1.50355 0
M  V30 5546 C 551.101 -1.22211 1.60962 0
M  V30 5547 C 551.422 -1.92497 0.311439 0
M  V30 5548 O 550.692 -1.8405 -0.671002 0
M  V30 5549 H 549.272 -0.454092 0.593135 0
M  V30 5550 H 551.934 -0.544977 1.87126 0
M  V30 5551 H 551.03 -1.9707 2.42012 0
M  V30 5552 N 551.331 -1.39911 -0.725443 0
M  V30 5553 C 552.294 -1.39156 -1.82121 0
M  V30 5554 C 553.294 -0.287018 -1.58218 0
M  V30 5555 O 554.484 -0.545421 -1.65441 0
M  V30 5556 C 551.616 -1.1736 -3.20062 0
M  V30 5557 H 552.809 -2.36672 -1.84191 0
M  V30 5558 H 550.362 -1.25615 -0.930079 0
M  V30 5559 H 551.097 -0.205648 -3.23647 0
M  V30 5560 H 550.882 -1.97358 -3.3881 0
M  V30 5561 H 552.372 -1.19596 -4.00108 0
M  V30 5562 N 552.809 0.956637 -1.25245 0
M  V30 5563 C 554.22 1.51569 -1.09012 0
M  V30 5564 C 554.571 1.93322 0.334813 0
M  V30 5565 O 553.696 1.78421 1.22454 0
M  V30 5566 C 554.291 2.75444 -1.97271 0
M  V30 5567 C 552.85 3.27669 -1.8523 0
M  V30 5568 C 551.997 2.00517 -1.91542 0
M  V30 5569 H 554.948 0.773746 -1.3856 0
M  V30 5570 H 554.969 3.4919 -1.51151 0
M  V30 5571 H 554.481 2.45024 -3.00973 0
M  V30 5572 H 552.582 3.62914 -0.844045 0
M  V30 5573 H 552.695 3.9582 -2.69932 0
M  V30 5574 H 551.059 2.15727 -1.35404 0
M  V30 5575 H 551.842 1.72448 -2.96844 0
M  V30 5576 N 554.287 1.06798 1.15896 0
M  V30 5577 C 555.703 0.792423 1.38538 0
M  V30 5578 C 555.903 -0.60592 1.92174 0
M  V30 5579 O 554.959 -1.36561 2.12385 0
M  V30 5580 C 556.272 1.86157 2.36149 0
M  V30 5581 C 557.82 1.88567 2.49823 0
M  V30 5582 C 558.295 2.9455 3.5072 0
M  V30 5583 N 559.786 2.93616 3.58251 0
M  V30 5584 C 560.521 3.72267 4.36125 0
M  V30 5585 N 560.017 4.60751 5.17379 0
M  V30 5586 N 561.81 3.60637 4.31158 0
M  V30 5587 H 553.961 1.96993 0.794198 0
M  V30 5588 H 556.224 0.853942 0.411688 0
M  V30 5589 H 555.93 2.86603 2.03843 0
M  V30 5590 H 555.804 1.71692 3.3586 0
M  V30 5591 H 558.191 0.887765 2.8143 0
M  V30 5592 H 558.272 2.0711 1.5013 0
M  V30 5593 H 557.916 3.94537 3.19849 0
M  V30 5594 H 557.846 2.73255 4.50155 0
M  V30 5595 H 560.337 2.29472 3.00252 0
M  V30 5596 H 560.65 5.17408 5.74028 0
M  V30 5597 H 558.995 4.64803 5.16704 0
M  V30 5598 H 562.186 2.90892 3.66742 0
M  V30 5599 H 562.359 4.22176 4.91601 0
M  V30 5600 N 555.766 -1.3263 0.851289 0
M  V30 5601 C 557.013 -1.97368 0.453023 0
M  V30 5602 C 557.341 -1.67384 -0.990596 0
M  V30 5603 O 556.596 -0.952665 -1.70947 0
M  V30 5604 C 556.895 -3.51713 0.635015 0
M  V30 5605 C 556.561 -4.01676 2.04859 0
M  V30 5606 C 555.223 -4.15031 2.43522 0
M  V30 5607 C 557.575 -4.28206 2.97135 0
M  V30 5608 C 554.903 -4.52257 3.73739 0
M  V30 5609 C 557.255 -4.66889 4.26846 0
M  V30 5610 C 555.919 -4.7845 4.65448 0
M  V30 5611 H 555.189 -0.722219 0.165773 0
M  V30 5612 H 557.836 -1.58092 1.0807 0
M  V30 5613 H 556.141 -3.91726 -0.0759081 0
M  V30 5614 H 557.838 -3.99823 0.306964 0
M  V30 5615 H 554.428 -3.91764 1.73836 0
M  V30 5616 H 558.612 -4.174 2.68498 0
M  V30 5617 H 553.868 -4.59402 4.03435 0
M  V30 5618 H 558.042 -4.86372 4.98413 0
M  V30 5619 H 555.669 -5.07052 5.66395 0
M  V30 5620 N 557.244 -0.608902 -1.45362 0
M  V30 5621 C 558.655 -0.189511 -1.85736 0
M  V30 5622 C 559.006 1.2539 -1.50903 0
M  V30 5623 O 558.131 1.95094 -0.936347 0
M  V30 5624 C 558.726 -0.33716 -3.37118 0
M  V30 5625 C 557.285 0.0275487 -3.7639 0
M  V30 5626 C 556.432 -0.660983 -2.69307 0
M  V30 5627 H 559.383 -0.815499 -1.36144 0
M  V30 5628 H 559.404 0.430257 -3.7806 0
M  V30 5629 H 558.916 -1.38779 -3.62439 0
M  V30 5630 H 557.017 1.0773 -3.56686 0
M  V30 5631 H 557.13 -0.367018 -4.77692 0
M  V30 5632 H 555.494 -0.0984958 -2.54509 0
M  V30 5633 H 556.277 -1.71377 -2.97464 0
M  V30 5634 N 558.722 1.53707 -0.348139 0
M  V30 5635 C 559.947 2.05877 0.250883 0
M  V30 5636 C 560.372 1.22115 1.43072 0
M  V30 5637 O 559.73 0.235986 1.79758 0
M  V30 5638 C 559.778 3.54886 0.639416 0
M  V30 5639 O 558.882 3.73948 1.73888 0
M  V30 5640 H 558.223 0.662754 0.040653 0
M  V30 5641 H 560.753 1.98303 -0.503685 0
M  V30 5642 H 560.763 3.97601 0.915295 0
M  V30 5643 H 559.438 4.153 -0.223386 0
M  V30 5644 H 558.015 3.43134 1.45991 0
M  V30 5645 N 560.2 0.0768682 1.57412 0
M  V30 5646 C 561.163 -0.873949 2.11884 0
M  V30 5647 C 562.163 -1.22301 1.04398 0
M  V30 5648 O 563.353 -1.15545 1.30365 0
M  V30 5649 C 560.485 -2.17575 2.62438 0
M  V30 5650 H 561.678 -0.401278 2.97203 0
M  V30 5651 H 559.231 -0.171904 1.55352 0
M  V30 5652 H 559.966 -2.69368 1.80587 0
M  V30 5653 H 559.751 -1.93534 3.41009 0
M  V30 5654 H 561.241 -2.85631 3.04639 0
M  V30 5655 N 561.678 -1.56367 -0.196722 0
M  V30 5656 C 562.608 -1.97442 -1.24655 0
M  V30 5657 C 563.589 -0.846147 -1.47561 0
M  V30 5658 O 564.774 -1.11035 -1.59326 0
M  V30 5659 C 561.904 -2.31253 -2.59112 0
M  V30 5660 C 560.858 -3.46804 -2.50821 0
M  V30 5661 C 560.184 -3.66286 -3.89536 0
M  V30 5662 C 561.484 -4.8104 -2.03465 0
M  V30 5663 H 563.178 -2.85388 -0.905216 0
M  V30 5664 H 560.724 -1.37304 -0.434002 0
M  V30 5665 H 562.677 -2.58583 -3.32736 0
M  V30 5666 H 561.401 -1.40188 -2.94983 0
M  V30 5667 H 560.06 -3.19563 -1.79653 0
M  V30 5668 H 559.708 -2.72555 -4.22756 0
M  V30 5669 H 559.408 -4.4402 -3.84864 0
M  V30 5670 H 560.932 -3.9599 -4.64784 0
M  V30 5671 H 562.346 -5.07411 -2.66846 0
M  V30 5672 H 560.743 -5.62232 -2.09798 0
M  V30 5673 H 561.813 -4.74732 -0.98781 0
M  V30 5674 N 563.156 0.464375 -1.50603 0
M  V30 5675 C 564.404 1.21356 -1.61608 0
M  V30 5676 C 564.725 1.92329 -0.321643 0
M  V30 5677 O 563.995 1.84403 0.661232 0
M  V30 5678 H 562.575 0.45094 -0.595535 0
M  V30 5679 H 565.237 0.535046 -1.87412 0
M  V30 5680 H 564.333 1.95783 -2.43054 0
M  V30 5681 N 564.634 1.40294 0.718013 0
M  V30 5682 C 565.564 1.43118 1.84498 0
M  V30 5683 C 566.545 0.292403 1.67568 0
M  V30 5684 O 567.73 0.500675 1.87635 0
M  V30 5685 C 564.86 1.29065 3.22427 0
M  V30 5686 C 563.814 2.40521 3.54025 0
M  V30 5687 C 563.14 2.11546 4.91073 0
M  V30 5688 C 564.44 3.82859 3.55269 0
M  V30 5689 H 566.134 2.37432 1.82391 0
M  V30 5690 H 563.68 1.14283 0.87609 0
M  V30 5691 H 565.633 1.29658 4.00957 0
M  V30 5692 H 564.357 0.312271 3.25104 0
M  V30 5693 H 563.016 2.39173 2.77834 0
M  V30 5694 H 562.664 1.12104 4.90348 0
M  V30 5695 H 562.364 2.86216 5.1318 0
M  V30 5696 H 563.888 2.13817 5.71939 0
M  V30 5697 H 565.302 3.86044 4.23843 0
M  V30 5698 H 563.699 4.57029 3.88902 0
M  V30 5699 H 564.769 4.12617 2.54706 0
M  V30 5700 N 566.112 -0.949982 1.2575 0
M  V30 5701 C 567.358 -1.69766 1.10938 0
M  V30 5702 C 567.691 -1.91056 -0.348028 0
M  V30 5703 O 566.966 -1.48488 -1.25625 0
M  V30 5704 C 567.249 -3.07779 1.86933 0
M  V30 5705 C 567.102 -2.9387 3.4053 0
M  V30 5706 C 568.421 -4.07749 1.65616 0
M  V30 5707 H 565.54 -0.616144 0.404396 0
M  V30 5708 H 568.182 -1.10394 1.54639 0
M  V30 5709 H 566.332 -3.58462 1.4979 0
M  V30 5710 H 568.004 -2.50476 3.87375 0
M  V30 5711 H 566.247 -2.29686 3.68004 0
M  V30 5712 H 566.918 -3.91719 3.88922 0
M  V30 5713 H 569.394 -3.65994 1.97959 0
M  V30 5714 H 568.27 -5.02348 2.21218 0
M  V30 5715 H 568.531 -4.38029 0.598595 0
M  V30 5716 N 567.59 -1.07411 -1.15328 0
M  V30 5717 C 568.52 -0.716472 -2.22236 0
M  V30 5718 C 569.501 0.296373 -1.67498 0
M  V30 5719 O 570.686 0.168989 -1.93463 0
M  V30 5720 C 567.816 -0.114142 -3.47112 0
M  V30 5721 C 566.77 -1.05421 -4.14814 0
M  V30 5722 C 566.096 -0.314604 -5.33774 0
M  V30 5723 C 567.396 -2.38808 -4.64508 0
M  V30 5724 H 569.09 -1.61029 -2.52408 0
M  V30 5725 H 566.636 -0.775702 -1.21321 0
M  V30 5726 H 568.589 0.148001 -4.2114 0
M  V30 5727 H 567.313 0.814755 -3.16274 0
M  V30 5728 H 565.972 -1.30128 -3.42728 0
M  V30 5729 H 565.62 0.617772 -4.99192 0
M  V30 5730 H 565.32 -0.941209 -5.80013 0
M  V30 5731 H 566.844 -0.0602747 -6.1057 0
M  V30 5732 H 568.258 -2.18424 -5.3006 0
M  V30 5733 H 566.655 -2.97069 -5.21412 0
M  V30 5734 H 567.725 -3.01067 -3.80114 0
M  V30 5735 N 569.068 1.32177 -0.85831 0
M  V30 5736 C 569.998 2.31282 -0.321041 0
M  V30 5737 C 570.979 1.59841 0.581786 0
M  V30 5738 O 572.164 1.87619 0.501262 0
M  V30 5739 C 569.294 3.4385 0.48832 0
M  V30 5740 C 568.248 4.26799 -0.320391 0
M  V30 5741 C 567.574 5.31164 0.613934 0
M  V30 5742 C 568.874 4.98829 -1.54813 0
M  V30 5743 H 570.568 2.76469 -1.14915 0
M  V30 5744 H 568.114 1.32916 -0.554028 0
M  V30 5745 H 570.067 4.12224 0.874626 0
M  V30 5746 H 568.791 2.97401 1.34983 0
M  V30 5747 H 567.45 3.60077 -0.688497 0
M  V30 5748 H 567.098 4.80967 1.47239 0
M  V30 5749 H 566.798 5.8755 0.0768097 0
M  V30 5750 H 568.322 6.024 0.997336 0
M  V30 5751 H 569.736 5.59864 -1.23392 0
M  V30 5752 H 568.133 5.64957 -2.02346 0
M  V30 5753 H 569.203 4.26483 -2.30739 0
M  V30 5754 N 570.547 0.616602 1.45037 0
M  V30 5755 C 571.793 0.115501 2.02471 0
M  V30 5756 C 572.126 -1.25406 1.4828 0
M  V30 5757 O 571.401 -1.82922 0.661051 0
M  V30 5758 C 571.684 0.0863588 3.59996 0
M  V30 5759 C 571.537 1.48723 4.24501 0
M  V30 5760 C 572.856 -0.596762 4.36035 0
M  V30 5761 H 569.975 0.0434461 0.735718 0
M  V30 5762 H 572.617 0.7903 1.72784 0
M  V30 5763 H 570.767 -0.488277 3.85419 0
M  V30 5764 H 572.439 2.10964 4.10234 0
M  V30 5765 H 570.682 2.04534 3.82555 0
M  V30 5766 H 571.353 1.419 5.3345 0
M  V30 5767 H 573.829 -0.10824 4.15959 0
M  V30 5768 H 572.705 -0.586289 5.4576 0
M  V30 5769 H 572.966 -1.66451 4.09569 0
M  V30 5770 N 572.025 -1.5352 0.356285 0
M  V30 5771 C 572.935 -2.29151 -0.502712 0
M  V30 5772 C 573.951 -1.34753 -1.1008 0
M  V30 5773 O 575.127 -1.67803 -1.11374 0
M  V30 5774 C 572.192 -3.05911 -1.63154 0
M  V30 5775 C 571.253 -4.15958 -1.06194 0
M  V30 5776 C 570.486 -4.8905 -2.13696 0
M  V30 5777 O 570.709 -4.61919 -3.34645 0
M  V30 5778 O 569.643 -5.75202 -1.77275 0
M  V30 5779 H 573.469 -3.03492 0.112466 0
M  V30 5780 H 571.054 -1.4891 0.120942 0
M  V30 5781 H 572.936 -3.53874 -2.28804 0
M  V30 5782 H 571.611 -2.34415 -2.23229 0
M  V30 5783 H 570.518 -3.7227 -0.369603 0
M  V30 5784 H 571.851 -4.89593 -0.505872 0
M  V30 5785 N 573.503 -0.0852151 -1.57369 0
M  V30 5786 C 574.466 0.8627 -2.12344 0
M  V30 5787 C 575.466 1.21746 -1.05046 0
M  V30 5788 O 576.656 1.14852 -1.30976 0
M  V30 5789 C 573.788 2.1618 -2.63589 0
M  V30 5790 H 574.981 0.385511 -2.97412 0
M  V30 5791 H 572.534 0.163663 -1.55441 0
M  V30 5792 H 573.269 2.68406 -1.82013 0
M  V30 5793 H 573.054 1.91723 -3.4203 0
M  V30 5794 H 574.544 2.84011 -3.06149 0
M  V30 5795 N 574.981 1.5647 0.188427 0
M  V30 5796 C 575.944 1.9421 1.21718 0
M  V30 5797 C 576.944 0.823901 1.38089 0
M  V30 5798 O 578.134 1.09122 1.35787 0
M  V30 5799 C 575.266 2.22197 2.58537 0
M  V30 5800 H 576.459 2.86252 0.894418 0
M  V30 5801 H 574.012 1.50263 0.430211 0
M  V30 5802 H 574.747 1.32814 2.95856 0
M  V30 5803 H 574.532 3.03688 2.48025 0
M  V30 5804 H 576.022 2.52376 3.3271 0
M  V30 5805 N 576.459 -0.456382 1.50847 0
M  V30 5806 C 577.422 -1.53493 1.70213 0
M  V30 5807 C 578.422 -1.50264 0.572481 0
M  V30 5808 O 579.612 -1.52623 0.839751 0
M  V30 5809 C 576.744 -2.93091 1.741 0
M  V30 5810 H 577.937 -1.37633 2.66453 0
M  V30 5811 H 575.49 -0.683776 1.4055 0
M  V30 5812 H 576.225 -3.14378 0.796063 0
M  V30 5813 H 576.01 -2.9684 2.5618 0
M  V30 5814 H 577.5 -3.71368 1.90987 0
M  V30 5815 N 577.937 -1.40673 -0.710563 0
M  V30 5816 C 579.183 -1.39428 -1.47267 0
M  V30 5817 C 579.516 0.00182129 -1.942 0
M  V30 5818 O 578.791 0.971387 -1.68506 0
M  V30 5819 C 579.074 -2.38812 -2.6952 0
M  V30 5820 C 578.927 -3.87467 -2.28449 0
M  V30 5821 C 580.246 -2.3566 -3.71689 0
M  V30 5822 H 577.365 -0.507768 -0.534173 0
M  V30 5823 H 580.007 -1.71843 -0.810547 0
M  V30 5824 H 578.157 -2.113 -3.26013 0
M  V30 5825 H 579.829 -4.25825 -1.77399 0
M  V30 5826 H 578.072 -4.03058 -1.60395 0
M  V30 5827 H 578.743 -4.5253 -3.16103 0
M  V30 5828 H 581.219 -2.6004 -3.24836 0
M  V30 5829 H 580.095 -3.07237 -4.54859 0
M  V30 5830 H 580.356 -1.36996 -4.20339 0
M  V30 5831 N 579.415 0.9433 -1.26252 0
M  V30 5832 C 580.345 2.05902 -1.10122 0
M  V30 5833 C 581.326 1.70099 -0.00700552 0
M  V30 5834 O 582.511 1.93377 -0.178641 0
M  V30 5835 C 579.641 3.39516 -0.731175 0
M  V30 5836 C 578.595 3.89372 -1.77688 0
M  V30 5837 C 577.921 5.19613 -1.26122 0
M  V30 5838 C 579.221 4.14489 -3.17799 0
M  V30 5839 H 580.915 2.19655 -2.03451 0
M  V30 5840 H 578.461 1.05548 -0.979576 0
M  V30 5841 H 580.414 4.17031 -0.605215 0
M  V30 5842 H 579.138 3.25733 0.23782 0
M  V30 5843 H 577.797 3.14036 -1.89148 0
M  V30 5844 H 577.445 5.02208 -0.282128 0
M  V30 5845 H 577.145 5.53939 -1.96023 0
M  V30 5846 H 578.669 5.99713 -1.14789 0
M  V30 5847 H 580.083 4.82625 -3.09428 0
M  V30 5848 H 578.48 4.60094 -3.85271 0
M  V30 5849 H 579.55 3.20347 -3.64014 0
M  V30 5850 N 580.893 1.08022 1.14757 0
M  V30 5851 C 582.142 0.802468 1.8505 0
M  V30 5852 C 582.455 -0.674061 1.83619 0
M  V30 5853 O 583.661 -1.06683 2.49662 0
M  V30 5854 C 582.117 1.38551 3.32162 0
M  V30 5855 C 581.725 2.89354 3.42021 0
M  V30 5856 C 583.469 1.18608 4.07594 0
M  V30 5857 C 581.376 3.40815 4.83321 0
M  V30 5858 H 580.306 0.296518 0.693248 0
M  V30 5859 H 582.957 1.30114 1.29393 0
M  V30 5860 H 581.339 0.814556 3.87532 0
M  V30 5861 H 582.513 3.52552 2.96722 0
M  V30 5862 H 580.828 3.08165 2.80041 0
M  V30 5863 H 583.425 1.54525 5.11885 0
M  V30 5864 H 583.768 0.125599 4.1611 0
M  V30 5865 H 584.301 1.72375 3.58513 0
M  V30 5866 H 581.04 4.46418 4.79991 0
M  V30 5867 H 580.56 2.82374 5.29174 0
M  V30 5868 H 582.239 3.37171 5.522 0
M  V30 5869 N 582.371 -1.3172 0.865308 0
M  V30 5870 C 583.619 -1.96487 0.472995 0
M  V30 5871 C 583.94 -1.68761 -0.976975 0
M  V30 5872 O 583.21 -1.00051 -1.68424 0
M  V30 5873 H 581.79 -0.726947 0.171922 0
M  V30 5874 H 584.452 -1.60612 1.10407 0
M  V30 5875 H 583.548 -3.0574 0.62687 0
M  V30 5876 N 583.85 -0.624285 -1.44708 0
M  V30 5877 C 585.26 -0.2092 -1.85524 0
M  V30 5878 C 585.611 1.23783 -1.52225 0
M  V30 5879 O 584.736 1.94089 -0.956986 0
M  V30 5880 C 585.332 -0.372897 -3.36742 0
M  V30 5881 C 583.891 -0.012374 -3.76398 0
M  V30 5882 C 583.038 -0.68951 -2.68591 0
M  V30 5883 H 585.989 -0.829894 -1.35272 0
M  V30 5884 H 586.01 0.390134 -3.78495 0
M  V30 5885 H 585.522 -1.42615 -3.60947 0
M  V30 5886 H 583.623 1.03941 -3.57809 0
M  V30 5887 H 583.736 -0.417663 -4.77276 0
M  V30 5888 H 582.1 -0.125484 -2.54391 0
M  V30 5889 H 582.883 -1.74522 -2.9563 0
M  V30 5890 N 585.328 1.53329 -0.364422 0
M  V30 5891 C 586.739 1.86345 0.115039 0
M  V30 5892 C 587.09 1.28505 1.4826 0
M  V30 5893 O 586.215 0.606639 2.07723 0
M  V30 5894 C 586.81 3.38114 0.215522 0
M  V30 5895 C 585.369 3.70932 0.639237 0
M  V30 5896 C 584.516 2.76471 -0.214261 0
M  V30 5897 H 587.467 1.47593 -0.583258 0
M  V30 5898 H 587.488 3.66031 1.0393 0
M  V30 5899 H 587 3.80182 -0.779948 0
M  V30 5900 H 585.101 3.3442 1.64298 0
M  V30 5901 H 585.214 4.77302 0.41465 0
M  V30 5902 H 583.578 2.52724 0.316678 0
M  V30 5903 H 584.361 3.21373 -1.20725 0
M  V30 5904 N 586.806 0.0935595 1.57322 0
M  V30 5905 C 588.031 -0.582324 1.99057 0
M  V30 5906 C 588.456 -1.61025 0.972242 0
M  V30 5907 O 587.814 -1.81202 -0.0594622 0
M  V30 5908 C 587.862 -1.20799 3.39765 0
M  V30 5909 O 586.966 -2.32382 3.40694 0
M  V30 5910 H 586.307 -0.147884 0.647323 0
M  V30 5911 H 588.837 0.174516 2.03854 0
M  V30 5912 H 588.847 -1.54966 3.77425 0
M  V30 5913 H 587.522 -0.454914 4.13405 0
M  V30 5914 H 586.099 -1.99845 3.14827 0
M  V30 5915 N 588.284 -1.56567 -0.180126 0
M  V30 5916 C 589.247 -1.94852 -1.20686 0
M  V30 5917 C 590.247 -0.831212 -1.3765 0
M  V30 5918 O 591.437 -1.09841 -1.35206 0
M  V30 5919 C 588.569 -2.23565 -2.57355 0
M  V30 5920 H 589.762 -2.86722 -0.879225 0
M  V30 5921 H 587.315 -1.50489 -0.422237 0
M  V30 5922 H 588.05 -1.34381 -2.95148 0
M  V30 5923 H 587.835 -3.04999 -2.46411 0
M  V30 5924 H 589.325 -2.54137 -3.31367 0
M  V30 5925 N 589.762 0.448376 -1.51087 0
M  V30 5926 C 591.01 1.19635 -1.62886 0
M  V30 5927 C 591.331 1.91977 -0.342024 0
M  V30 5928 O 590.601 1.85094 0.641636 0
M  V30 5929 H 589.181 0.444598 -0.600285 0
M  V30 5930 H 591.843 0.515138 -1.87969 0
M  V30 5931 H 590.939 1.93194 -2.45117 0
M  V30 5932 N 591.24 1.41047 0.703093 0
M  V30 5933 C 592.656 1.23351 1.01275 0
M  V30 5934 C 592.856 0.11754 2.01157 0
M  V30 5935 O 591.912 -0.520518 2.47077 0
M  V30 5936 C 593.225 2.58001 1.54454 0
M  V30 5937 C 594.773 2.65119 1.66376 0
M  V30 5938 C 595.248 4.00067 2.22958 0
M  V30 5939 N 596.739 4.01875 2.30328 0
M  V30 5940 C 597.474 5.03087 2.75119 0
M  V30 5941 N 596.97 6.14692 3.19571 0
M  V30 5942 N 598.763 4.90451 2.74616 0
M  V30 5943 H 590.914 2.1236 0.0412686 0
M  V30 5944 H 593.177 0.944543 0.08089 0
M  V30 5945 H 592.883 3.40378 0.88521 0
M  V30 5946 H 592.757 2.79962 2.52786 0
M  V30 5947 H 595.144 1.83106 2.31422 0
M  V30 5948 H 595.225 2.46975 0.666089 0
M  V30 5949 H 594.869 4.82526 1.58529 0
M  V30 5950 H 594.799 4.15547 3.23462 0
M  V30 5951 H 597.29 3.21291 1.98949 0
M  V30 5952 H 597.603 6.87799 3.52352 0
M  V30 5953 H 595.948 6.18239 3.17498 0
M  V30 5954 H 599.139 4.0235 2.39233 0
M  V30 5955 H 599.312 5.6947 3.09206 0
M  V30 5956 N 592.718 -0.936591 1.26751 0
M  V30 5957 C 593.648 -2.05315 1.11212 0
M  V30 5958 C 594.629 -1.70092 0.0160262 0
M  V30 5959 O 595.814 -1.93279 0.188894 0
M  V30 5960 C 592.944 -3.39123 0.749171 0
M  V30 5961 C 591.898 -3.88425 1.79751 0
M  V30 5962 C 591.224 -5.18936 1.28876 0
M  V30 5963 C 592.524 -4.12798 3.19992 0
M  V30 5964 H 594.218 -2.18573 2.04613 0
M  V30 5965 H 591.764 -1.05027 0.985159 0
M  V30 5966 H 593.717 -4.16704 0.627323 0
M  V30 5967 H 592.441 -3.25855 -0.220543 0
M  V30 5968 H 591.1 -3.13028 1.90811 0
M  V30 5969 H 590.748 -5.02051 0.308757 0
M  V30 5970 H 590.448 -5.52892 1.98958 0
M  V30 5971 H 591.972 -5.99096 1.17967 0
M  V30 5972 H 593.386 -4.80977 3.11983 0
M  V30 5973 H 591.783 -4.58044 3.87705 0
M  V30 5974 H 592.853 -3.18412 3.65707 0
M  V30 5975 N 594.196 -1.08629 -1.14182 0
M  V30 5976 C 595.442 -0.818556 -1.85546 0
M  V30 5977 C 595.775 0.654076 -1.82854 0
M  V30 5978 O 595.05 1.48099 -1.26083 0
M  V30 5979 C 595.333 -1.34397 -3.3408 0
M  V30 5980 C 595.186 -2.8821 -3.45333 0
M  V30 5981 C 596.505 -0.971069 -4.29253 0
M  V30 5982 H 593.624 -0.298821 -0.673702 0
M  V30 5983 H 596.266 -1.34629 -1.34071 0
M  V30 5984 H 594.416 -0.895064 -3.78049 0
M  V30 5985 H 596.088 -3.41488 -3.10134 0
M  V30 5986 H 594.331 -3.25756 -2.86471 0
M  V30 5987 H 595.002 -3.20047 -4.49749 0
M  V30 5988 H 597.478 -1.35809 -3.93313 0
M  V30 5989 H 596.354 -1.36586 -5.31635 0
M  V30 5990 H 596.615 0.121659 -4.41933 0
M  V30 5991 N 595.674 1.31259 -0.872281 0
M  V30 5992 C 596.951 1.91362 -0.404943 0
M  V30 5993 C 597.331 1.79362 1.11321 0
M  V30 5994 O 596.679 1.20277 1.94283 0
M  V30 5995 C 596.889 3.3749 -0.888893 0
M  V30 5996 C 598.237 4.14593 -0.916384 0
M  V30 5997 O 599.261 3.46282 -0.834701 0
M  V30 5998 O 598.12 5.3661 -1.03498 0
M  V30 5999 H 595.214 0.818016 -0.121569 0
M  V30 6000 H 597.76 1.39912 -0.960346 0
M  V30 6001 H 596.532 3.40249 -1.93251 0
M  V30 6002 H 596.155 3.96375 -0.311932 0
M  V30 6003 N 597.152 0.631951 1.44375 0
M  V30 6004 C 598.398 0.13697 2.02337 0
M  V30 6005 C 598.731 -1.23826 1.49602 0
M  V30 6006 O 598.006 -1.8221 0.680415 0
M  V30 6007 C 598.289 0.124536 3.59885 0
M  V30 6008 C 598.142 1.53217 4.229 0
M  V30 6009 C 599.461 -0.550481 4.36644 0
M  V30 6010 H 596.58 0.051247 0.735216 0
M  V30 6011 H 599.222 0.808581 1.71936 0
M  V30 6012 H 597.372 -0.44737 3.85916 0
M  V30 6013 H 599.044 2.15303 4.07973 0
M  V30 6014 H 597.287 2.0858 3.80364 0
M  V30 6015 H 597.958 1.4755 5.31914 0
M  V30 6016 H 600.434 -0.0641154 4.16051 0
M  V30 6017 H 599.31 -0.528371 5.46351 0
M  V30 6018 H 599.571 -1.62097 4.11311 0
M  V30 6019 N 598.631 -1.53133 0.372548 0
M  V30 6020 C 599.561 -2.28876 -0.462412 0
M  V30 6021 C 600.542 -1.31583 -1.07796 0
M  V30 6022 O 601.727 -1.60461 -1.09389 0
M  V30 6023 C 598.857 -3.08317 -1.59868 0
M  V30 6024 C 597.811 -4.13355 -1.11003 0
M  V30 6025 C 597.137 -4.8092 -2.33708 0
M  V30 6026 C 598.437 -5.21955 -0.18983 0
M  V30 6027 H 600.131 -2.9892 0.169511 0
M  V30 6028 H 597.677 -1.43761 0.0829658 0
M  V30 6029 H 599.63 -3.60055 -2.18949 0
M  V30 6030 H 598.354 -2.35976 -2.25794 0
M  V30 6031 H 597.013 -3.62573 -0.541869 0
M  V30 6032 H 596.661 -4.05144 -2.98106 0
M  V30 6033 H 596.361 -5.51904 -2.01682 0
M  V30 6034 H 597.885 -5.35455 -2.93462 0
M  V30 6035 H 599.299 -5.69153 -0.688319 0
M  V30 6036 H 597.696 -6.00087 0.0398887 0
M  V30 6037 H 598.766 -4.78811 0.766057 0
M  V30 6038 N 600.109 -0.101901 -1.5727 0
M  V30 6039 C 601.056 0.854577 -2.14396 0
M  V30 6040 C 602.026 1.27521 -1.06432 0
M  V30 6041 O 603.211 1.35575 -1.34253 0
M  V30 6042 C 600.351 2.10576 -2.73408 0
M  V30 6043 C 599.464 1.73504 -3.95626 0
M  V30 6044 C 598.599 2.9346 -4.42781 0
M  V30 6045 C 597.638 2.52547 -5.57572 0
M  V30 6046 N 596.775 3.65359 -5.99547 0
M  V30 6047 H 601.615 0.360578 -2.9581 0
M  V30 6048 H 599.152 0.166303 -1.46157 0
M  V30 6049 H 601.11 2.83859 -3.05745 0
M  V30 6050 H 599.74 2.57463 -1.94711 0
M  V30 6051 H 598.792 0.901622 -3.6956 0
M  V30 6052 H 600.104 1.39426 -4.78917 0
M  V30 6053 H 599.258 3.74988 -4.76937 0
M  V30 6054 H 597.997 3.30753 -3.58404 0
M  V30 6055 H 597.002 1.69446 -5.23037 0
M  V30 6056 H 598.227 2.1639 -6.43702 0
M  V30 6057 H 596.173 4.02358 -5.18116 0
M  V30 6058 H 596.09 3.35148 -6.77652 0
M  V30 6059 H 597.358 4.47378 -6.38336 0
M  V30 6060 N 601.587 1.56661 0.17182 0
M  V30 6061 C 602.535 1.97289 1.23207 0
M  V30 6062 C 603.529 0.861566 1.45854 0
M  V30 6063 O 604.735 1.04668 1.4644 0
M  V30 6064 H 601.11 0.627681 0.41415 0
M  V30 6065 H 603.081 2.85662 0.862542 0
M  V30 6066 C 601.83 2.34849 2.564 0
M  V30 6067 H 601.153 3.19903 2.39797 0
M  V30 6068 H 602.593 2.67121 3.29276 0
M  V30 6069 C 601.052 1.19172 3.15119 0
M  V30 6070 O 601.582 0.479113 3.98833 0
M  V30 6071 N 599.788 0.962415 2.74201 0
M  V30 6072 H 599.335 1.54365 2.06226 0
M  V30 6073 H 599.293 0.190272 3.13824 0
M  V30 6074 N 603.065 -0.440357 1.51323 0
M  V30 6075 C 604.295 -1.21079 1.67402 0
M  V30 6076 C 604.703 -1.85555 0.369599 0
M  V30 6077 O 604.046 -1.71375 -0.661525 0
M  V30 6078 C 604.108 -2.33839 2.73056 0
M  V30 6079 C 603.772 -1.89755 4.15743 0
M  V30 6080 C 604.769 -1.40268 5.0062 0
M  V30 6081 C 602.454 -1.97539 4.61826 0
M  V30 6082 C 604.448 -0.991474 6.29642 0
M  V30 6083 C 602.135 -1.56029 5.90845 0
M  V30 6084 C 603.133 -1.06915 6.7458 0
M  V30 6085 O 602.821 -0.659933 8.01187 0
M  V30 6086 H 602.553 -0.371133 0.56501 0
M  V30 6087 H 605.107 -0.528409 1.98487 0
M  V30 6088 H 603.337 -3.05345 2.37279 0
M  V30 6089 H 605.026 -2.95713 2.78044 0
M  V30 6090 H 605.792 -1.33652 4.66221 0
M  V30 6091 H 601.671 -2.34713 3.96776 0
M  V30 6092 H 605.215 -0.607425 6.9495 0
M  V30 6093 H 601.112 -1.62315 6.24759 0
M  V30 6094 H 601.88 -0.786052 8.14717 0
M  V30 6095 N 604.543 -1.41418 -0.695603 0
M  V30 6096 C 605.453 -1.45622 -1.83933 0
M  V30 6097 C 606.469 -0.346825 -1.70508 0
M  V30 6098 O 607.645 -0.59454 -1.92424 0
M  V30 6099 C 604.71 -1.33627 -3.19914 0
M  V30 6100 C 603.771 -2.54882 -3.45447 0
M  V30 6101 C 603.004 -2.43449 -4.7494 0
M  V30 6102 O 603.227 -1.45905 -5.51424 0
M  V30 6103 O 602.161 -3.33206 -5.01256 0
M  V30 6104 H 605.987 -2.42114 -1.83342 0
M  V30 6105 H 603.572 -1.22956 -0.848658 0
M  V30 6106 H 605.454 -1.29221 -4.01098 0
M  V30 6107 H 604.129 -0.402508 -3.21188 0
M  V30 6108 H 603.036 -2.64865 -2.64192 0
M  V30 6109 H 604.369 -3.47087 -3.48987 0
M  V30 6110 N 606.021 0.929856 -1.27246 0
M  V30 6111 C 607.27 1.67182 -1.12842 0
M  V30 6112 C 607.583 1.9287 0.325666 0
M  V30 6113 O 608.789 2.64999 0.590572 0
M  V30 6114 C 607.245 3.01097 -1.97151 0
M  V30 6115 C 606.853 2.83115 -3.47203 0
M  V30 6116 C 608.597 3.78907 -1.91389 0
M  V30 6117 C 606.504 4.12573 -4.23719 0
M  V30 6118 H 605.434 0.627064 -0.418697 0
M  V30 6119 H 608.085 1.0332 -1.51649 0
M  V30 6120 H 606.467 3.66004 -1.51186 0
M  V30 6121 H 607.641 2.26989 -4.01015 0
M  V30 6122 H 605.956 2.18736 -3.54321 0
M  V30 6123 H 608.553 4.74837 -2.45834 0
M  V30 6124 H 608.896 4.0674 -0.887047 0
M  V30 6125 H 609.429 3.20794 -2.35237 0
M  V30 6126 H 606.168 3.8992 -5.26918 0
M  V30 6127 H 605.688 4.68371 -3.74685 0
M  V30 6128 H 607.367 4.8095 -4.32777 0
M  V30 6129 N 607.499 1.09233 1.13605 0
M  V30 6130 C 608.748 0.82205 1.84188 0
M  V30 6131 C 609.061 -0.654548 1.84323 0
M  V30 6132 O 610.267 -1.04029 2.50779 0
M  V30 6133 C 608.723 1.42066 3.30674 0
M  V30 6134 C 608.331 2.92965 3.38933 0
M  V30 6135 C 610.075 1.22924 4.06313 0
M  V30 6136 C 607.982 3.45922 4.79679 0
M  V30 6137 H 606.912 0.303854 0.690064 0
M  V30 6138 H 609.563 1.31479 1.28006 0
M  V30 6139 H 607.945 0.855613 3.86646 0
M  V30 6140 H 609.119 3.55679 2.92966 0
M  V30 6141 H 607.434 3.11118 2.76757 0
M  V30 6142 H 610.031 1.59945 5.10217 0
M  V30 6143 H 610.374 0.169726 4.15954 0
M  V30 6144 H 610.907 1.76168 3.56665 0
M  V30 6145 H 607.646 4.51484 4.75229 0
M  V30 6146 H 607.166 2.87971 5.26149 0
M  V30 6147 H 608.845 3.43009 5.48592 0
M  V30 6148 N 608.977 -1.30795 0.87923 0
M  V30 6149 C 610.224 -1.96362 0.494786 0
M  V30 6150 C 610.552 -1.69448 -0.954868 0
M  V30 6151 O 609.807 -0.988711 -1.68888 0
M  V30 6152 C 610.106 -3.50287 0.709476 0
M  V30 6153 C 609.772 -3.9724 2.13333 0
M  V30 6154 C 608.434 -4.09772 2.52271 0
M  V30 6155 C 610.786 -4.21807 3.06151 0
M  V30 6156 C 608.114 -4.44227 3.83248 0
M  V30 6157 C 610.466 -4.5773 4.36654 0
M  V30 6158 C 609.13 -4.68469 4.75492 0
M  V30 6159 H 608.4 -0.71854 0.181055 0
M  V30 6160 H 611.047 -1.55764 1.11399 0
M  V30 6161 H 609.352 -3.91799 0.0072 0
M  V30 6162 H 611.049 -3.99082 0.391703 0
M  V30 6163 H 607.639 -3.87988 1.82107 0
M  V30 6164 H 611.823 -4.11611 2.77291 0
M  V30 6165 H 607.079 -4.50741 4.13089 0
M  V30 6166 H 611.253 -4.7569 5.08617 0
M  V30 6167 H 608.88 -4.94923 5.77022 0
M  V30 6168 N 610.455 -0.639598 -1.44038 0
M  V30 6169 C 611.685 -0.154586 -2.06021 0
M  V30 6170 C 612.093 1.17951 -1.47933 0
M  V30 6171 O 611.436 1.73627 -0.59994 0
M  V30 6172 C 611.498 0.0255459 -3.59491 0
M  V30 6173 C 611.162 -1.2317 -4.40089 0
M  V30 6174 C 612.159 -2.15735 -4.73027 0
M  V30 6175 C 609.844 -1.46949 -4.80324 0
M  V30 6176 C 611.838 -3.30382 -5.45093 0
M  V30 6177 C 609.525 -2.61891 -5.52138 0
M  V30 6178 C 610.523 -3.53433 -5.84443 0
M  V30 6179 O 610.211 -4.6637 -6.54793 0
M  V30 6180 H 609.943 -0.0808543 -0.671147 0
M  V30 6181 H 612.497 -0.876541 -1.85758 0
M  V30 6182 H 610.727 0.802733 -3.78276 0
M  V30 6183 H 612.416 0.466184 -4.03214 0
M  V30 6184 H 613.182 -1.98602 -4.42473 0
M  V30 6185 H 609.061 -0.765815 -4.54595 0
M  V30 6186 H 612.605 -4.01856 -5.70226 0
M  V30 6187 H 608.502 -2.78964 -5.82108 0
M  V30 6188 H 609.27 -4.6546 -6.73267 0
M  V30 6189 N 611.933 1.52934 -0.380664 0
M  V30 6190 C 612.863 2.29118 0.450268 0
M  V30 6191 C 613.844 1.32153 1.07096 0
M  V30 6192 O 615.029 1.61038 1.08537 0
M  V30 6193 C 612.159 3.09161 1.58231 0
M  V30 6194 C 611.113 4.13938 1.0881 0
M  V30 6195 C 610.439 4.82153 2.31155 0
M  V30 6196 C 611.739 5.22048 0.162146 0
M  V30 6197 H 613.433 2.98826 -0.185361 0
M  V30 6198 H 610.979 1.43715 -0.0905886 0
M  V30 6199 H 612.932 3.61211 2.17036 0
M  V30 6200 H 611.656 2.3717 2.2454 0
M  V30 6201 H 610.315 3.62855 0.522633 0
M  V30 6202 H 609.963 4.06719 2.95953 0
M  V30 6203 H 609.663 5.52966 1.98752 0
M  V30 6204 H 611.187 5.37004 2.90618 0
M  V30 6205 H 612.601 5.6951 0.658126 0
M  V30 6206 H 610.998 6.00057 -0.0717122 0
M  V30 6207 H 612.068 4.78398 -0.791438 0
M  V30 6208 N 613.412 0.11024 1.57214 0
M  V30 6209 C 614.375 -0.828808 2.1369 0
M  V30 6210 C 615.375 -1.20059 1.06969 0
M  V30 6211 O 616.565 -1.12754 1.32786 0
M  V30 6212 C 613.697 -2.11959 2.66994 0
M  V30 6213 H 614.89 -0.338146 2.97988 0
M  V30 6214 H 612.443 -0.138913 1.55681 0
M  V30 6215 H 613.178 -2.65476 1.8626 0
M  V30 6216 H 612.963 -1.86258 3.45037 0
M  V30 6217 H 614.453 -2.79105 3.10629 0
M  V30 6218 N 614.89 -1.56749 -0.16351 0
M  V30 6219 C 616.138 -1.82074 -0.87713 0
M  V30 6220 C 616.459 -0.688503 -1.82441 0
M  V30 6221 O 615.729 0.291085 -1.93725 0
M  V30 6222 H 614.309 -0.671677 -0.326893 0
M  V30 6223 H 616.971 -1.9423 -0.161459 0
M  V30 6224 H 616.067 -2.76407 -1.44934 0
M  V30 6225 N 616.368 0.432326 -1.51554 0
M  V30 6226 C 617.593 1.20824 -1.68571 0
M  V30 6227 C 618.018 1.84126 -0.384596 0
M  V30 6228 O 617.376 1.69025 0.655751 0
M  V30 6229 C 617.424 2.26429 -2.80646 0
M  V30 6230 O 616.528 3.32032 -2.44598 0
M  V30 6231 H 615.869 0.353765 -0.561913 0
M  V30 6232 H 618.399 0.509916 -1.98144 0
M  V30 6233 H 618.409 2.71133 -3.04878 0
M  V30 6234 H 617.084 1.79733 -3.75058 0
M  V30 6235 H 615.661 2.92769 -2.30956 0
M  V30 6236 N 617.846 1.41785 0.688094 0
M  V30 6237 C 618.756 1.46596 1.83158 0
M  V30 6238 C 619.772 0.355862 1.70322 0
M  V30 6239 O 620.948 0.604737 1.92106 0
M  V30 6240 C 618.013 1.35322 3.192 0
M  V30 6241 C 617.074 2.56711 3.4409 0
M  V30 6242 C 616.307 2.45965 4.73642 0
M  V30 6243 O 616.53 1.48827 5.50642 0
M  V30 6244 O 615.464 3.35859 4.99482 0
M  V30 6245 H 619.29 2.43083 1.82056 0
M  V30 6246 H 616.875 1.23404 0.842126 0
M  V30 6247 H 618.757 1.31347 4.00407 0
M  V30 6248 H 617.432 0.419536 3.2097 0
M  V30 6249 H 616.339 2.66262 2.62784 0
M  V30 6250 H 617.672 3.48933 3.47141 0
M  V30 6251 N 619.324 -0.923095 1.27737 0
M  V30 6252 C 620.57 -1.67375 1.14514 0
M  V30 6253 C 620.903 -1.91751 -0.307424 0
M  V30 6254 O 620.178 -1.51119 -1.22447 0
M  V30 6255 C 620.461 -3.03745 1.9342 0
M  V30 6256 C 620.314 -2.86581 3.46686 0
M  V30 6257 C 621.633 -4.04144 1.74228 0
M  V30 6258 H 618.752 -0.607427 0.417374 0
M  V30 6259 H 621.394 -1.07089 1.56946 0
M  V30 6260 H 619.544 -3.55204 1.5736 0
M  V30 6261 H 621.216 -2.42203 3.92601 0
M  V30 6262 H 619.459 -2.21829 3.72793 0
M  V30 6263 H 620.13 -3.83381 3.97143 0
M  V30 6264 H 622.606 -3.61712 2.05678 0
M  V30 6265 H 621.482 -4.97543 2.31824 0
M  V30 6266 H 621.743 -4.36661 0.691373 0
M  V30 6267 N 620.802 -1.09834 -1.13024 0
M  V30 6268 C 621.765 -0.745058 -2.16752 0
M  V30 6269 C 622.765 0.227435 -1.59183 0
M  V30 6270 O 623.955 0.0050786 -1.74199 0
M  V30 6271 C 621.087 -0.102543 -3.40746 0
M  V30 6272 H 622.28 -1.66375 -2.49518 0
M  V30 6273 H 619.833 -0.898061 -1.27924 0
M  V30 6274 H 620.568 0.827177 -3.13573 0
M  V30 6275 H 620.353 -0.80235 -3.83803 0
M  V30 6276 H 621.843 0.129082 -4.174 0
M  V30 6277 N 622.28 1.30327 -0.886154 0
M  V30 6278 C 623.21 2.30549 -0.370028 0
M  V30 6279 C 624.191 1.61039 0.547751 0
M  V30 6280 O 625.376 1.8864 0.461353 0
M  V30 6281 C 622.506 3.44808 0.415275 0
M  V30 6282 C 621.46 4.26024 -0.41085 0
M  V30 6283 C 620.786 5.32347 0.501128 0
M  V30 6284 C 622.086 4.95433 -1.65359 0
M  V30 6285 H 623.78 2.73969 -1.20754 0
M  V30 6286 H 621.326 1.3171 -0.582097 0
M  V30 6287 H 623.279 4.13986 0.78699 0
M  V30 6288 H 622.003 3.00197 1.28644 0
M  V30 6289 H 620.662 3.58535 -0.764719 0
M  V30 6290 H 620.31 4.83982 1.37004 0
M  V30 6291 H 620.01 5.87581 -0.0478356 0
M  V30 6292 H 621.534 6.0438 0.869333 0
M  V30 6293 H 622.948 5.5712 -1.35239 0
M  V30 6294 H 621.345 5.60537 -2.14284 0
M  V30 6295 H 622.415 4.21493 -2.39733 0
M  V30 6296 N 623.758 0.647228 1.43697 0
M  V30 6297 C 624.721 -0.0385101 2.29168 0
M  V30 6298 C 625.721 -0.756487 1.41894 0
M  V30 6299 O 626.911 -0.598641 1.63591 0
M  V30 6300 C 624.043 -1.06524 3.23829 0
M  V30 6301 H 625.236 0.713445 2.9129 0
M  V30 6302 H 622.789 0.408153 1.50877 0
M  V30 6303 H 623.524 -1.84664 2.66589 0
M  V30 6304 H 623.309 -0.554147 3.88164 0
M  V30 6305 H 624.799 -1.54432 3.87996 0
M  V30 6306 N 625.236 -1.5273 0.388769 0
M  V30 6307 C 626.484 -2.01174 -0.193208 0
M  V30 6308 C 626.805 -1.27705 -1.47365 0
M  V30 6309 O 626.075 -0.396966 -1.91836 0
M  V30 6310 H 624.655 -0.743287 -0.0743871 0
M  V30 6311 H 627.317 -1.87826 0.520336 0
M  V30 6312 H 626.413 -3.09477 -0.403803 0
M  V30 6313 N 626.714 -0.118576 -1.57153 0
M  V30 6314 C 627.96 0.540326 -1.95469 0
M  V30 6315 C 628.293 1.66356 -1.00196 0
M  V30 6316 O 627.568 1.94461 -0.039104 0
M  V30 6317 C 627.851 1.07342 -3.43729 0
M  V30 6318 C 627.704 -0.0463732 -4.49776 0
M  V30 6319 C 629.023 1.96442 -3.93826 0
M  V30 6320 H 626.142 0.19494 -0.710751 0
M  V30 6321 H 628.784 -0.19405 -1.89006 0
M  V30 6322 H 626.934 1.69925 -3.49368 0
M  V30 6323 H 628.606 -0.681648 -4.56236 0
M  V30 6324 H 626.849 -0.709574 -4.27957 0
M  V30 6325 H 627.52 0.367856 -5.50773 0
M  V30 6326 H 629.996 1.43731 -3.90488 0
M  V30 6327 H 628.872 2.3066 -4.98084 0
M  V30 6328 H 629.133 2.89077 -3.34495 0
M  V30 6329 N 628.193 1.56834 0.155195 0
M  V30 6330 C 629.44 1.82898 0.869179 0
M  V30 6331 C 629.768 0.698194 1.81537 0
M  V30 6332 O 629.023 -0.313404 1.93174 0
M  V30 6333 C 629.322 3.15239 1.68402 0
M  V30 6334 C 628.988 4.42123 0.885341 0
M  V30 6335 C 627.65 4.76583 0.664971 0
M  V30 6336 C 630.002 5.20178 0.326234 0
M  V30 6337 C 627.33 5.86566 -0.125346 0
M  V30 6338 C 629.682 6.3099 -0.45108 0
M  V30 6339 C 628.346 6.64006 -0.682102 0
M  V30 6340 H 627.616 0.66927 0.318055 0
M  V30 6341 H 630.263 1.91036 0.133241 0
M  V30 6342 H 628.568 3.02515 2.48982 0
M  V30 6343 H 630.265 3.32618 2.23978 0
M  V30 6344 H 626.855 4.15102 1.06716 0
M  V30 6345 H 631.039 4.93936 0.483787 0
M  V30 6346 H 626.295 6.10594 -0.313915 0
M  V30 6347 H 630.469 6.9067 -0.89149 0
M  V30 6348 H 628.096 7.49065 -1.29636 0
M  V30 6349 N 629.671 -0.424282 1.51781 0
M  V30 6350 C 630.604 -1.53633 1.68737 0
M  V30 6351 C 631.582 -1.53549 0.534915 0
M  V30 6352 O 632.766 -1.72483 0.760391 0
M  V30 6353 C 629.893 -2.92195 1.71288 0
M  V30 6354 C 628.939 -3.10251 2.92654 0
M  V30 6355 S 629.772 -2.85166 4.53256 0
M  V30 6356 C 630.928 -4.25986 4.58571 0
M  V30 6357 H 631.161 -1.39018 2.62795 0
M  V30 6358 H 628.694 -0.614854 1.41629 0
M  V30 6359 H 630.652 -3.72059 1.73443 0
M  V30 6360 H 629.313 -3.04162 0.783847 0
M  V30 6361 H 628.506 -4.1159 2.90877 0
M  V30 6362 H 628.108 -2.38231 2.88308 0
M  V30 6363 H 630.4 -5.19392 4.35015 0
M  V30 6364 H 631.343 -4.32792 5.60444 0
M  V30 6365 H 631.751 -4.1025 3.87757 0
M  V30 6366 N 631.149 -1.42148 -0.680565 0
M  V30 6367 C 632.112 -1.4488 -1.77602 0
M  V30 6368 C 633.112 -0.337209 -1.57224 0
M  V30 6369 O 634.302 -0.597778 -1.63622 0
M  V30 6370 C 631.434 -1.27483 -3.16166 0
M  V30 6371 H 632.627 -2.42412 -1.76568 0
M  V30 6372 H 630.18 -1.28511 -0.889645 0
M  V30 6373 H 630.915 -0.30851 -3.22829 0
M  V30 6374 H 630.7 -2.08037 -3.3236 0
M  V30 6375 H 632.19 -1.32265 -3.96101 0
M  V30 6376 N 632.627 0.916307 -1.28225 0
M  V30 6377 C 633.873 1.66765 -1.154 0
M  V30 6378 C 634.206 1.91912 0.297251 0
M  V30 6379 O 633.481 1.51766 1.21644 0
M  V30 6380 C 633.764 3.02715 -1.95028 0
M  V30 6381 C 633.617 2.84738 -3.48201 0
M  V30 6382 C 634.936 4.03215 -1.76369 0
M  V30 6383 H 632.055 0.605205 -0.42059 0
M  V30 6384 H 634.697 1.06255 -1.57512 0
M  V30 6385 H 632.847 3.54365 -1.59242 0
M  V30 6386 H 634.519 2.40118 -3.9388 0
M  V30 6387 H 632.762 2.19848 -3.73964 0
M  V30 6388 H 633.433 3.8127 -3.99171 0
M  V30 6389 H 635.909 3.60617 -2.07593 0
M  V30 6390 H 634.785 4.96306 -2.34459 0
M  V30 6391 H 635.046 4.36288 -0.71452 0
M  V30 6392 N 634.105 1.10431 1.1244 0
M  V30 6393 C 635.068 0.756542 2.16354 0
M  V30 6394 C 636.068 -0.21899 1.59302 0
M  V30 6395 O 637.258 0.00415969 1.742 0
M  V30 6396 C 634.39 0.120612 3.40687 0
M  V30 6397 H 635.583 1.67696 2.48632 0
M  V30 6398 H 633.136 0.904832 1.27446 0
M  V30 6399 H 633.871 -0.810536 3.14008 0
M  V30 6400 H 633.656 0.822693 3.83372 0
M  V30 6401 H 635.146 -0.106945 4.17463 0
M  V30 6402 N 635.583 -1.29855 0.893053 0
M  V30 6403 C 636.811 -1.99976 0.530788 0
M  V30 6404 C 637.226 -1.66889 -0.882799 0
M  V30 6405 O 636.583 -0.910352 -1.58173 0
M  V30 6406 C 636.634 -3.54547 0.705587 0
M  V30 6407 O 636.355 -3.86458 2.06353 0
M  V30 6408 C 637.856 -4.41937 0.347387 0
M  V30 6409 H 635.076 -0.639129 0.204339 0
M  V30 6410 H 637.62 -1.65549 1.20057 0
M  V30 6411 H 635.775 -3.87311 0.0830685 0
M  V30 6412 H 636.189 -4.81146 2.08803 0
M  V30 6413 H 637.663 -5.4954 0.520557 0
M  V30 6414 H 638.14 -4.33339 -0.715139 0
M  V30 6415 H 638.746 -4.14633 0.946567 0
M  V30 6416 N 637.061 -0.65484 -1.43351 0
M  V30 6417 C 638.009 0.0476784 -2.32551 0
M  V30 6418 C 639.003 0.811403 -1.48703 0
M  V30 6419 O 640.209 0.721621 -1.64902 0
M  V30 6420 H 636.584 0.0342038 -0.751222 0
M  V30 6421 H 638.555 -0.722342 -2.89525 0
M  V30 6422 C 637.304 0.999251 -3.33032 0
M  V30 6423 H 636.627 0.421005 -3.97577 0
M  V30 6424 H 638.067 1.45986 -3.98076 0
M  V30 6425 C 636.526 2.09606 -2.63756 0
M  V30 6426 O 637.056 3.18004 -2.4543 0
M  V30 6427 N 635.262 1.86207 -2.23103 0
M  V30 6428 H 634.809 0.980555 -2.38208 0
M  V30 6429 H 634.767 2.59787 -1.77081 0
M  V30 6430 N 638.539 1.52521 -0.396863 0
M  V30 6431 C 639.779 2.03583 0.182578 0
M  V30 6432 C 640.143 1.2766 1.43412 0
M  V30 6433 O 641.344 1.68884 2.09121 0
M  V30 6434 C 639.615 3.54724 0.436519 0
M  V30 6435 S 641.174 4.27598 0.985163 0
M  V30 6436 H 637.992 0.709186 0.0507529 0
M  V30 6437 H 640.594 1.87693 -0.546955 0
M  V30 6438 H 639.298 4.07567 -0.481343 0
M  V30 6439 H 638.829 3.74834 1.19427 0
M  V30 6440 H 640.844 4.41393 2.26686 0
M  V30 6441 N 640.017 0.126909 1.57088 0
M  V30 6442 C 641.257 -0.53216 1.97351 0
M  V30 6443 C 641.621 -1.63342 1.00913 0
M  V30 6444 O 642.822 -2.35194 1.30144 0
M  V30 6445 C 641.093 -1.04385 3.41817 0
M  V30 6446 S 642.652 -1.71033 4.04095 0
M  V30 6447 H 639.47 -0.172724 0.689701 0
M  V30 6448 H 642.072 0.213865 1.94327 0
M  V30 6449 H 640.776 -0.231289 4.09748 0
M  V30 6450 H 640.307 -1.82496 3.48509 0
M  V30 6451 H 642.322 -2.99656 3.95501 0
M  V30 6452 N 641.495 -1.56914 -0.146875 0
M  V30 6453 C 642.425 -2.01308 -1.1831 0
M  V30 6454 C 643.406 -0.892664 -1.44795 0
M  V30 6455 O 644.591 -1.16048 -1.55713 0
M  V30 6456 C 641.721 -2.3938 -2.51624 0
M  V30 6457 C 640.675 -3.54608 -2.3966 0
M  V30 6458 C 640.001 -3.78493 -3.77686 0
M  V30 6459 C 641.301 -4.87269 -1.88058 0
M  V30 6460 H 642.995 -2.88123 -0.813964 0
M  V30 6461 H 640.541 -1.38615 -0.3901 0
M  V30 6462 H 642.494 -2.69037 -3.24341 0
M  V30 6463 H 641.218 -1.49502 -2.90373 0
M  V30 6464 H 639.877 -3.25116 -1.69396 0
M  V30 6465 H 639.525 -2.85866 -4.13871 0
M  V30 6466 H 639.225 -4.56039 -3.70543 0
M  V30 6467 H 640.749 -4.10576 -4.51951 0
M  V30 6468 H 642.163 -5.15644 -2.50568 0
M  V30 6469 H 640.56 -5.68622 -1.91805 0
M  V30 6470 H 641.63 -4.77634 -0.836277 0
M  V30 6471 N 642.974 0.416227 -1.52004 0
M  V30 6472 C 644.39 0.754319 -1.40649 0
M  V30 6473 C 644.59 1.95059 -0.505392 0
M  V30 6474 O 643.646 2.5248 0.0315057 0
M  V30 6475 C 644.959 1.0149 -2.83055 0
M  V30 6476 C 646.507 1.11805 -2.9235 0
M  V30 6477 C 646.982 1.41144 -4.35709 0
M  V30 6478 N 648.473 1.48024 -4.38911 0
M  V30 6479 C 649.208 1.72338 -5.46889 0
M  V30 6480 N 648.704 1.94303 -6.64995 0
M  V30 6481 N 650.497 1.74294 -5.34395 0
M  V30 6482 H 642.648 -0.371324 -2.09129 0
M  V30 6483 H 644.911 -0.103811 -0.942299 0
M  V30 6484 H 644.617 0.208345 -3.51082 0
M  V30 6485 H 644.491 1.93697 -3.23668 0
M  V30 6486 H 646.878 1.91521 -2.24508 0
M  V30 6487 H 646.959 0.17451 -2.55204 0
M  V30 6488 H 646.603 0.619484 -5.04108 0
M  V30 6489 H 646.533 2.36739 -4.70385 0
M  V30 6490 H 649.024 1.32868 -3.53772 0
M  V30 6491 H 649.337 2.12286 -7.43071 0
M  V30 6492 H 647.682 1.91582 -6.68073 0
M  V30 6493 H 650.873 1.56667 -4.41104 0
M  V30 6494 H 651.046 1.92904 -6.18621 0
M  V30 6495 N 644.452 1.42507 0.673017 0
M  V30 6496 C 645.692 1.44559 1.44507 0
M  V30 6497 C 646.056 0.0606206 1.91904 0
M  V30 6498 O 647.257 -0.044139 2.68764 0
M  V30 6499 C 645.528 2.44291 2.60877 0
M  V30 6500 S 647.087 2.65059 3.49699 0
M  V30 6501 H 643.905 0.51181 0.49353 0
M  V30 6502 H 646.507 1.79124 0.783256 0
M  V30 6503 H 645.211 3.43685 2.24297 0
M  V30 6504 H 644.742 2.11157 3.31928 0
M  V30 6505 H 646.757 1.93494 4.56919 0
M  V30 6506 N 645.93 -0.909495 1.28709 0
M  V30 6507 C 646.893 -1.99399 1.13016 0
M  V30 6508 C 647.893 -1.60654 0.068536 0
M  V30 6509 O 649.083 -1.71334 0.314671 0
M  V30 6510 C 646.215 -3.33078 0.726085 0
M  V30 6511 H 647.408 -2.14751 2.09338 0
M  V30 6512 H 644.961 -1.09272 1.11756 0
M  V30 6513 H 645.696 -3.23428 -0.23771 0
M  V30 6514 H 645.481 -3.62562 1.49302 0
M  V30 6515 H 646.971 -4.12681 0.639058 0
M  V30 6516 N 647.408 -1.11026 -1.11852 0
M  V30 6517 C 648.355 -0.764662 -2.17765 0
M  V30 6518 C 649.325 0.261854 -1.64023 0
M  V30 6519 O 650.51 0.139748 -1.90288 0
M  V30 6520 C 647.65 -0.209317 -3.44465 0
M  V30 6521 C 646.763 -1.29187 -4.12231 0
M  V30 6522 C 645.898 -0.697523 -5.266 0
M  V30 6523 C 644.937 -1.76023 -5.86244 0
M  V30 6524 N 644.074 -1.18569 -6.92016 0
M  V30 6525 H 648.914 -1.67202 -2.46673 0
M  V30 6526 H 646.451 -0.835065 -1.21099 0
M  V30 6527 H 648.409 0.130599 -4.16996 0
M  V30 6528 H 647.039 0.661251 -3.15955 0
M  V30 6529 H 646.091 -1.74881 -3.37818 0
M  V30 6530 H 647.403 -2.09607 -4.52622 0
M  V30 6531 H 646.557 -0.307412 -6.05921 0
M  V30 6532 H 645.296 0.138044 -4.87505 0
M  V30 6533 H 644.301 -2.1597 -5.05606 0
M  V30 6534 H 645.526 -2.59875 -6.27409 0
M  V30 6535 H 643.472 -0.371695 -6.54946 0
M  V30 6536 H 643.389 -1.92666 -7.31038 0
M  V30 6537 H 644.657 -0.82233 -7.7515 0
M  V30 6538 N 648.886 1.2938 -0.899927 0
M  V30 6539 C 649.849 2.25983 -0.382677 0
M  V30 6540 C 650.849 1.53366 0.483259 0
M  V30 6541 O 652.039 1.71798 0.28828 0
M  V30 6542 C 649.171 3.37878 0.452915 0
M  V30 6543 H 650.364 2.73252 -1.23586 0
M  V30 6544 H 647.917 1.40825 -0.678088 0
M  V30 6545 H 648.652 2.95949 1.32608 0
M  V30 6546 H 648.437 3.91742 -0.167562 0
M  V30 6547 H 649.927 4.09746 0.806107 0
M  V30 6548 N 650.364 0.662433 1.43002 0
M  V30 6549 C 651.327 -0.0142016 2.29196 0
M  V30 6550 C 652.327 -0.741394 1.42688 0
M  V30 6551 O 653.517 -0.581257 1.64216 0
M  V30 6552 C 650.649 -1.03084 3.24941 0
M  V30 6553 H 651.842 0.7443 2.90517 0
M  V30 6554 H 649.395 0.424133 1.50435 0
M  V30 6555 H 650.13 -1.81826 2.68533 0
M  V30 6556 H 649.915 -0.512946 3.8873 0
M  V30 6557 H 651.405 -1.50308 3.89612 0
M  V30 6558 N 651.842 -1.52309 0.404946 0
M  V30 6559 C 653.253 -1.86585 -0.0655926 0
M  V30 6560 C 653.604 -1.3239 -1.44801 0
M  V30 6561 O 652.729 -0.6615 -2.06042 0
M  V30 6562 C 653.324 -3.38566 -0.125801 0
M  V30 6563 C 651.883 -3.72497 -0.540666 0
M  V30 6564 C 651.03 -2.75806 0.287487 0
M  V30 6565 H 653.981 -1.45995 0.622185 0
M  V30 6566 H 654.002 -3.68658 -0.941888 0
M  V30 6567 H 653.514 -3.77981 0.880473 0
M  V30 6568 H 651.615 -3.38659 -1.55373 0
M  V30 6569 H 651.728 -4.78234 -0.287956 0
M  V30 6570 H 650.092 -2.53474 -0.249561 0
M  V30 6571 H 650.875 -3.18059 1.29203 0
M  V30 6572 N 653.32 -0.135238 -1.57019 0
M  V30 6573 C 654.545 0.529343 -2.00531 0
M  V30 6574 C 654.97 1.58391 -1.01459 0
M  V30 6575 O 654.328 1.81296 0.0113986 0
M  V30 6576 C 654.376 1.11748 -3.42848 0
M  V30 6577 O 653.48 2.23267 -3.46736 0
M  V30 6578 H 652.821 0.130669 -0.651016 0
M  V30 6579 H 655.351 -0.228503 -2.0332 0
M  V30 6580 H 655.361 1.44905 -3.81401 0
M  V30 6581 H 654.036 0.345147 -4.14465 0
M  V30 6582 H 652.613 1.91428 -3.20015 0
M  V30 6583 N 654.798 1.5699 0.138552 0
M  V30 6584 C 656.046 1.83446 0.848053 0
M  V30 6585 C 656.367 0.71744 1.81322 0
M  V30 6586 O 655.637 -0.260228 1.94164 0
M  V30 6587 H 654.217 0.676792 0.316166 0
M  V30 6588 H 656.879 1.94462 0.130538 0
M  V30 6589 H 655.975 2.78677 1.40518 0
M  V30 6590 N 656.276 -0.40816 1.52223 0
M  V30 6591 C 657.687 -0.986929 1.58482 0
M  V30 6592 C 658.038 -1.91521 0.425917 0
M  V30 6593 O 657.163 -2.11593 -0.453593 0
M  V30 6594 C 657.758 -1.7967 2.87235 0
M  V30 6595 C 656.317 -2.32549 2.9597 0
M  V30 6596 C 655.464 -1.12558 2.53428 0
M  V30 6597 H 658.415 -0.188362 1.57578 0
M  V30 6598 H 658.436 -2.65417 2.72642 0
M  V30 6599 H 657.948 -1.12082 3.71563 0
M  V30 6600 H 656.049 -3.03505 2.16137 0
M  V30 6601 H 656.162 -2.63348 4.00231 0
M  V30 6602 H 654.526 -1.47984 2.07299 0
M  V30 6603 H 655.309 -0.465351 3.40131 0
M  V30 6604 N 657.755 -1.42862 -0.66545 0
M  V30 6605 C 659.003 -1.43546 -1.42264 0
M  V30 6606 C 659.324 -0.0563116 -1.94919 0
M  V30 6607 O 658.594 0.906568 -1.73661 0
M  V30 6608 H 657.174 -0.528464 -0.527953 0
M  V30 6609 H 659.836 -1.78363 -0.785665 0
M  V30 6610 H 658.932 -2.14079 -2.27105 0
M  V30 6611 N 659.233 0.902656 -1.29189 0
M  V30 6612 C 660.461 1.68639 -1.19869 0
M  V30 6613 C 660.876 1.87254 0.241121 0
M  V30 6614 O 660.233 1.40745 1.16177 0
M  V30 6615 C 660.284 3.07251 -1.90471 0
M  V30 6616 O 660.005 2.89488 -3.28829 0
M  V30 6617 C 661.506 4.01653 -1.8759 0
M  V30 6618 H 658.726 0.526802 -0.415596 0
M  V30 6619 H 661.27 1.12901 -1.7051 0
M  V30 6620 H 659.425 3.59774 -1.43672 0
M  V30 6621 H 659.839 3.77296 -3.64346 0
M  V30 6622 H 661.313 4.96339 -2.4156 0
M  V30 6623 H 661.79 4.30881 -0.850756 0
M  V30 6624 H 662.396 3.55061 -2.34119 0
M  V30 6625 N 660.711 1.11618 1.11262 0
M  V30 6626 C 661.621 0.78898 2.20935 0
M  V30 6627 C 662.637 -0.21867 1.7262 0
M  V30 6628 O 663.813 -0.0543826 2.01327 0
M  V30 6629 C 660.878 0.239014 3.45875 0
M  V30 6630 C 659.939 1.3055 4.08968 0
M  V30 6631 C 659.172 0.781687 5.27944 0
M  V30 6632 O 659.395 -0.387605 5.69082 0
M  V30 6633 O 658.329 1.54734 5.81671 0
M  V30 6634 H 662.155 1.70477 2.51339 0
M  V30 6635 H 659.74 0.892203 1.19834 0
M  V30 6636 H 661.622 -0.0632312 4.21353 0
M  V30 6637 H 660.297 -0.649454 3.17118 0
M  V30 6638 H 659.204 1.66079 3.35214 0
M  V30 6639 H 660.537 2.16743 4.41909 0
M  V30 6640 N 662.189 -1.289 0.906776 0
M  V30 6641 C 663.437 -1.94883 0.535266 0
M  V30 6642 C 663.758 -1.71784 -0.922791 0
M  V30 6643 O 663.028 -1.05359 -1.65156 0
M  V30 6644 H 661.608 -0.721109 0.194962 0
M  V30 6645 H 664.27 -1.57018 1.15461 0
M  V30 6646 H 663.366 -3.03591 0.723821 0
M  V30 6647 N 663.667 -0.670007 -1.42649 0
M  V30 6648 C 664.915 -0.18991 -2.01206 0
M  V30 6649 C 665.236 1.20617 -1.53221 0
M  V30 6650 O 664.506 1.80898 -0.751856 0
M  V30 6651 H 663.086 -0.0672189 -0.743969 0
M  V30 6652 H 665.748 -0.865442 -1.74631 0
M  V30 6653 H 664.844 -0.187481 -3.11536 0
M  V30 6654 N 665.145 1.52092 -0.413018 0
M  V30 6655 C 666.108 2.25706 0.398687 0
M  V30 6656 C 667.108 1.28221 0.970368 0
M  V30 6657 O 668.298 1.52131 0.848635 0
M  V30 6658 C 665.43 3.03029 1.5616 0
M  V30 6659 H 666.623 2.98888 -0.246131 0
M  V30 6660 H 664.176 1.5542 -0.165622 0
M  V30 6661 H 664.911 2.34205 2.24317 0
M  V30 6662 H 664.696 3.74606 1.15812 0
M  V30 6663 H 666.186 3.58857 2.13569 0
M  V30 6664 N 666.623 0.143563 1.56945 0
M  V30 6665 C 667.848 -0.518701 2.00809 0
M  V30 6666 C 668.273 -1.5785 1.02298 0
M  V30 6667 O 667.631 -1.813 -0.0017839 0
M  V30 6668 C 667.679 -1.09929 3.43436 0
M  V30 6669 O 666.783 -2.21425 3.47915 0
M  V30 6670 H 666.124 -0.127215 0.6517 0
M  V30 6671 H 668.654 0.239283 2.03196 0
M  V30 6672 H 668.664 -1.4288 3.82164 0
M  V30 6673 H 667.339 -0.323162 4.14643 0
M  V30 6674 H 665.916 -1.89728 3.21026 0
M  V30 6675 N 668.101 -1.57061 -0.130224 0
M  V30 6676 C 669.378 -1.75205 -0.869631 0
M  V30 6677 C 669.758 -0.716063 -1.98584 0
M  V30 6678 O 669.106 0.262032 -2.26993 0
M  V30 6679 C 669.316 -3.19835 -1.39666 0
M  V30 6680 C 670.664 -3.82011 -1.85345 0
M  V30 6681 O 671.688 -3.23368 -1.49371 0
M  V30 6682 O 670.547 -4.85064 -2.51744 0
M  V30 6683 H 667.641 -0.716977 -0.412157 0
M  V30 6684 H 670.187 -1.69311 -0.11484 0
M  V30 6685 H 668.959 -3.86745 -0.595288 0
M  V30 6686 H 668.582 -3.30222 -2.21448 0
M  V30 6687 N 669.579 0.400081 -1.52437 0
M  V30 6688 C 670.807 1.16768 -1.70801 0
M  V30 6689 C 671.222 1.84036 -0.421462 0
M  V30 6690 O 670.579 1.72242 0.603228 0
M  V30 6691 C 670.63 2.22403 -2.8499 0
M  V30 6692 O 670.351 1.57879 -4.08663 0
M  V30 6693 C 671.852 3.11974 -3.1494 0
M  V30 6694 H 669.072 0.350533 -0.57216 0
M  V30 6695 H 671.616 0.469534 -1.99037 0
M  V30 6696 H 669.771 2.87871 -2.59247 0
M  V30 6697 H 670.185 2.27982 -4.7236 0
M  V30 6698 H 671.659 3.82148 -3.9833 0
M  V30 6699 H 672.136 3.74858 -2.28863 0
M  V30 6700 H 672.742 2.52165 -3.42481 0
M  V30 6701 N 671.057 1.43213 0.657864 0
M  V30 6702 C 671.967 1.50448 1.80007 0
M  V30 6703 C 672.983 0.39191 1.69529 0
M  V30 6704 O 674.159 0.645349 1.90781 0
M  V30 6705 C 671.224 1.42062 3.16258 0
M  V30 6706 C 670.285 2.63951 3.38568 0
M  V30 6707 C 669.518 2.55956 4.68318 0
M  V30 6708 O 669.741 1.60473 5.47361 0
M  V30 6709 O 668.675 3.46378 4.92245 0
M  V30 6710 H 672.501 2.4689 1.76858 0
M  V30 6711 H 670.086 1.25163 0.81576 0
M  V30 6712 H 671.968 1.3981 3.97531 0
M  V30 6713 H 670.643 0.487524 3.20008 0
M  V30 6714 H 669.55 2.71776 2.57077 0
M  V30 6715 H 670.883 3.56217 3.39662 0
M  V30 6716 N 672.536 -0.895792 1.29666 0
M  V30 6717 C 673.813 -1.62723 1.08538 0
M  V30 6718 C 674.193 -2.07848 -0.369119 0
M  V30 6719 O 673.541 -1.8372 -1.35864 0
M  V30 6720 C 673.751 -2.80505 2.07648 0
M  V30 6721 C 675.099 -3.51098 2.3878 0
M  V30 6722 O 676.123 -2.90679 2.05874 0
M  V30 6723 O 674.982 -4.60028 2.9502 0
M  V30 6724 H 672.076 -0.714692 0.416106 0
M  V30 6725 H 674.622 -0.943517 1.41053 0
M  V30 6726 H 673.394 -2.44386 3.05599 0
M  V30 6727 H 673.017 -3.5658 1.75887 0
M  V30 6728 N 674.014 -1.12206 -1.10668 0
M  V30 6729 C 674.977 -0.790867 -2.15123 0
M  V30 6730 C 675.977 0.193618 -1.5963 0
M  V30 6731 O 677.167 -0.0318728 -1.74171 0
M  V30 6732 C 674.299 -0.174797 -3.40452 0
M  V30 6733 H 675.492 -1.7163 -2.45933 0
M  V30 6734 H 673.045 -0.924993 -1.2599 0
M  V30 6735 H 673.78 0.760478 -3.15257 0
M  V30 6736 H 673.565 -0.88358 -3.82015 0
M  V30 6737 H 675.055 0.0405162 -4.1758 0
M  V30 6738 N 675.492 1.28418 -0.913599 0
M  V30 6739 C 676.402 2.31043 -0.406965 0
M  V30 6740 C 677.418 1.66501 0.505298 0
M  V30 6741 O 678.594 1.97558 0.391522 0
M  V30 6742 C 675.659 3.4498 0.344901 0
M  V30 6743 C 674.72 4.25078 -0.600563 0
M  V30 6744 C 673.953 5.33575 0.115516 0
M  V30 6745 O 674.176 5.54503 1.33727 0
M  V30 6746 O 673.11 5.9939 -0.549095 0
M  V30 6747 H 676.936 2.76387 -1.25873 0
M  V30 6748 H 674.521 1.33109 -0.678415 0
M  V30 6749 H 676.403 4.14314 0.769542 0
M  V30 6750 H 675.078 3.01719 1.1725 0
M  V30 6751 H 673.985 3.58334 -1.0746 0
M  V30 6752 H 675.318 4.72018 -1.39497 0
M  V30 6753 N 676.97 0.677563 1.42291 0
M  V30 6754 C 677.933 0.0101085 2.29198 0
M  V30 6755 C 678.933 -0.726219 1.43467 0
M  V30 6756 O 680.123 -0.563807 1.64824 0
M  V30 6757 C 677.255 -0.996316 3.26016 0
M  V30 6758 H 678.448 0.775071 2.89711 0
M  V30 6759 H 676.001 0.440065 1.49977 0
M  V30 6760 H 676.736 -1.78967 2.70446 0
M  V30 6761 H 676.521 -0.471687 3.89253 0
M  V30 6762 H 678.011 -1.46167 3.91184 0
M  V30 6763 N 678.448 -1.51871 0.421078 0
M  V30 6764 C 679.358 -2.31077 -0.405069 0
M  V30 6765 C 680.374 -1.39301 -1.04265 0
M  V30 6766 O 681.55 -1.72376 -1.04157 0
M  V30 6767 C 678.615 -3.12556 -1.50032 0
M  V30 6768 C 677.676 -4.20088 -0.884559 0
M  V30 6769 C 676.909 -4.97673 -1.92762 0
M  V30 6770 O 677.132 -4.75696 -3.14753 0
M  V30 6771 O 676.066 -5.82203 -1.52719 0
M  V30 6772 H 679.892 -3.02742 0.241086 0
M  V30 6773 H 677.477 -1.48263 0.183991 0
M  V30 6774 H 679.359 -3.6326 -2.13589 0
M  V30 6775 H 678.034 -2.43672 -2.13086 0
M  V30 6776 H 676.941 -3.73502 -0.211379 0
M  V30 6777 H 678.274 -4.91298 -0.297763 0
M  V30 6778 N 679.926 -0.151884 -1.56866 0
M  V30 6779 C 681.174 0.497021 -1.95893 0
M  V30 6780 C 681.495 1.65078 -1.03799 0
M  V30 6781 O 680.765 1.95642 -0.10049 0
M  V30 6782 H 679.345 0.186603 -0.723318 0
M  V30 6783 H 682.007 -0.228525 -1.93556 0
M  V30 6784 H 681.103 0.869933 -2.99731 0
M  V30 6785 N 681.404 1.57128 0.121893 0
M  V30 6786 C 682.681 1.75664 0.860327 0
M  V30 6787 C 683.061 0.726585 1.98202 0
M  V30 6788 O 682.409 -0.24999 2.27128 0
M  V30 6789 C 682.619 3.20571 1.37968 0
M  V30 6790 C 683.967 3.82988 1.83317 0
M  V30 6791 O 684.991 3.24156 1.47654 0
M  V30 6792 O 683.85 4.86393 2.49168 0
M  V30 6793 H 680.944 0.719153 0.408348 0
M  V30 6794 H 683.49 1.6937 0.105859 0
M  V30 6795 H 682.262 3.87056 0.57477 0
M  V30 6796 H 681.885 3.31392 2.19694 0
M  V30 6797 N 682.882 -0.391992 1.52647 0
M  V30 6798 C 684.107 -1.16312 1.71716 0
M  V30 6799 C 684.532 -1.83042 0.433279 0
M  V30 6800 O 683.89 -1.70705 -0.610707 0
M  V30 6801 C 683.938 -2.18908 2.86551 0
M  V30 6802 O 683.042 -3.2543 2.53316 0
M  V30 6803 H 682.383 -0.338743 0.571095 0
M  V30 6804 H 684.913 -0.457202 1.99426 0
M  V30 6805 H 684.923 -2.62954 3.1196 0
M  V30 6806 H 683.598 -1.69726 3.79692 0
M  V30 6807 H 682.175 -2.86543 2.38637 0
M  V30 6808 N 684.36 -1.4356 -0.65026 0
M  V30 6809 C 685.27 -1.514 -1.79207 0
M  V30 6810 C 686.286 -0.400895 -1.69319 0
M  V30 6811 O 687.462 -0.655458 -1.90436 0
M  V30 6812 C 684.527 -1.43737 -3.155 0
M  V30 6813 C 683.588 -2.65743 -3.37163 0
M  V30 6814 C 682.821 -2.58436 -4.66954 0
M  V30 6815 O 683.044 -1.63374 -5.46503 0
M  V30 6816 O 681.978 -3.48984 -4.90402 0
M  V30 6817 H 685.804 -2.47825 -1.75547 0
M  V30 6818 H 683.389 -1.25594 -0.809111 0
M  V30 6819 H 685.271 -1.41916 -3.96784 0
M  V30 6820 H 683.946 -0.504488 -3.19745 0
M  V30 6821 H 682.853 -2.73136 -2.55632 0
M  V30 6822 H 684.186 -3.58014 -3.37768 0
M  V30 6823 N 685.838 0.888903 -1.30139 0
M  V30 6824 C 687.249 1.45578 -1.16893 0
M  V30 6825 C 687.6 1.94825 0.231866 0
M  V30 6826 O 686.725 1.84661 1.12824 0
M  V30 6827 C 687.32 2.646 -2.11595 0
M  V30 6828 C 685.879 3.17389 -2.02339 0
M  V30 6829 C 685.026 1.90081 -2.01902 0
M  V30 6830 H 687.977 0.69921 -1.42467 0
M  V30 6831 H 687.998 3.40687 -1.69449 0
M  V30 6832 H 687.51 2.28726 -3.13538 0
M  V30 6833 H 685.611 3.5793 -1.03523 0
M  V30 6834 H 685.724 3.80955 -2.90534 0
M  V30 6835 H 684.088 2.08246 -1.46648 0
M  V30 6836 H 684.871 1.5647 -3.05568 0
M  V30 6837 N 687.317 1.12792 1.10072 0
M  V30 6838 C 688.247 0.821688 2.18565 0
M  V30 6839 C 689.228 -0.21612 1.68721 0
M  V30 6840 O 690.413 -0.0764932 1.94049 0
M  V30 6841 C 687.543 0.279624 3.46172 0
M  V30 6842 C 686.497 1.25092 4.09312 0
M  V30 6843 C 685.823 0.568916 5.31665 0
M  V30 6844 C 687.123 2.60699 4.52585 0
M  V30 6845 H 688.817 1.72888 2.44438 0
M  V30 6846 H 686.363 0.832702 1.17482 0
M  V30 6847 H 688.316 0.053099 4.21367 0
M  V30 6848 H 687.04 -0.662929 3.19801 0
M  V30 6849 H 685.699 1.46332 3.36129 0
M  V30 6850 H 685.347 -0.378898 5.01571 0
M  V30 6851 H 685.047 1.21687 5.74862 0
M  V30 6852 H 686.571 0.351517 6.09587 0
M  V30 6853 H 687.985 2.43465 5.19035 0
M  V30 6854 H 686.382 3.21608 5.06644 0
M  V30 6855 H 687.452 3.1886 3.65317 0
M  V30 6856 N 688.795 -1.27931 0.920396 0
M  V30 6857 C 690.206 -1.76707 0.602616 0
M  V30 6858 C 690.557 -1.75249 -0.882159 0
M  V30 6859 O 689.682 -1.35135 -1.69019 0
M  V30 6860 C 690.277 -3.20884 1.08714 0
M  V30 6861 C 688.836 -3.67356 0.820157 0
M  V30 6862 C 687.983 -2.47525 1.25006 0
M  V30 6863 H 690.934 -1.14301 1.10095 0
M  V30 6864 H 690.955 -3.78045 0.431535 0
M  V30 6865 H 690.467 -3.21913 2.1678 0
M  V30 6866 H 688.568 -3.7178 -0.247012 0
M  V30 6867 H 688.681 -4.57181 1.43257 0
M  V30 6868 H 687.045 -2.45765 0.668698 0
M  V30 6869 H 687.828 -2.51269 2.3392 0
M  V30 6870 N 690.273 -0.685099 -1.4193 0
M  V30 6871 C 691.519 -0.211971 -2.01689 0
M  V30 6872 C 691.852 1.18189 -1.54094 0
M  V30 6873 O 691.127 1.79559 -0.747572 0
M  V30 6874 C 691.41 -0.258019 -3.59174 0
M  V30 6875 C 691.263 -1.68807 -4.16922 0
M  V30 6876 C 692.582 0.388044 -4.38386 0
M  V30 6877 H 689.701 -0.0784987 -0.732808 0
M  V30 6878 H 692.343 -0.871837 -1.68816 0
M  V30 6879 H 690.493 0.303832 -3.8731 0
M  V30 6880 H 692.165 -2.30296 -3.99702 0
M  V30 6881 H 690.408 -2.22553 -3.72361 0
M  V30 6882 H 691.079 -1.6719 -5.26072 0
M  V30 6883 H 693.555 -0.0903432 -4.16002 0
M  V30 6884 H 692.431 0.325232 -5.47936 0
M  V30 6885 H 692.692 1.4672 -4.17044 0
M  V30 6886 N 691.751 1.51645 -0.429126 0
M  V30 6887 C 692.997 2.02314 0.140286 0
M  V30 6888 C 693.33 1.31314 1.43074 0
M  V30 6889 O 692.605 0.425531 1.89788 0
M  V30 6890 C 692.888 3.5822 0.36749 0
M  V30 6891 C 692.741 4.39846 -0.941039 0
M  V30 6892 C 694.06 4.25055 1.14089 0
M  V30 6893 H 691.179 0.735335 0.0495112 0
M  V30 6894 H 693.821 1.81358 -0.566514 0
M  V30 6895 H 691.971 3.76207 0.969556 0
M  V30 6896 H 693.643 4.33527 -1.57646 0
M  V30 6897 H 691.886 4.05259 -1.54751 0
M  V30 6898 H 692.557 5.47069 -0.73621 0
M  V30 6899 H 695.033 4.11288 0.630986 0
M  V30 6900 H 693.909 5.34038 1.26863 0
M  V30 6901 H 694.17 3.85358 2.16683 0
M  V30 6902 N 693.229 0.160201 1.56784 0
M  V30 6903 C 694.192 -0.760405 2.16219 0
M  V30 6904 C 695.192 -1.16595 1.10735 0
M  V30 6905 O 696.382 -1.08472 1.36306 0
M  V30 6906 C 693.514 -2.03358 2.73603 0
M  V30 6907 H 694.707 -0.243173 2.98912 0
M  V30 6908 H 692.26 -0.0893139 1.56045 0
M  V30 6909 H 692.995 -2.59416 1.94612 0
M  V30 6910 H 692.78 -1.75186 3.50788 0
M  V30 6911 H 694.27 -2.69081 3.19351 0
M  V30 6912 N 694.707 -1.5719 -0.113559 0
M  V30 6913 C 695.617 -2.04041 -1.15777 0
M  V30 6914 C 696.633 -0.961812 -1.45001 0
M  V30 6915 O 697.809 -1.2737 -1.56009 0
M  V30 6916 C 694.874 -2.43994 -2.46308 0
M  V30 6917 C 693.935 -3.65962 -2.24433 0
M  V30 6918 C 693.168 -4.04 -3.4874 0
M  V30 6919 O 693.391 -3.42321 -4.56259 0
M  V30 6920 O 692.325 -4.97069 -3.3942 0
M  V30 6921 H 696.151 -2.93248 -0.789899 0
M  V30 6922 H 693.736 -1.45828 -0.324748 0
M  V30 6923 H 695.618 -2.70401 -3.23204 0
M  V30 6924 H 694.293 -1.57932 -2.82558 0
M  V30 6925 H 693.2 -3.44697 -1.45377 0
M  V30 6926 H 694.533 -4.52746 -1.93084 0
M  V30 6927 N 696.185 0.383891 -1.52853 0
M  V30 6928 C 697.095 1.49343 -1.80925 0
M  V30 6929 C 698.111 1.59458 -0.696348 0
M  V30 6930 O 699.287 1.75698 -0.984481 0
M  V30 6931 C 696.352 2.84819 -1.97684 0
M  V30 6932 C 695.413 2.84382 -3.21598 0
M  V30 6933 C 694.646 4.13397 -3.37548 0
M  V30 6934 O 694.869 5.08619 -2.58192 0
M  V30 6935 O 693.803 4.20325 -4.30826 0
M  V30 6936 H 697.629 1.2855 -2.75152 0
M  V30 6937 H 695.214 0.572229 -1.38007 0
M  V30 6938 H 697.096 3.65125 -2.10385 0
M  V30 6939 H 695.771 3.05627 -1.06647 0
M  V30 6940 H 694.678 2.0284 -3.14336 0
M  V30 6941 H 696.011 2.68526 -4.12498 0
M  V30 6942 N 697.663 1.43903 0.642637 0
M  V30 6943 C 699.074 1.40975 1.22404 0
M  V30 6944 C 699.425 0.1192 1.95838 0
M  V30 6945 O 698.55 -0.780939 2.01818 0
M  V30 6946 C 699.145 2.5538 2.22636 0
M  V30 6947 C 697.704 2.55684 2.76229 0
M  V30 6948 C 696.851 2.32556 1.51039 0
M  V30 6949 H 699.802 1.5265 0.434006 0
M  V30 6950 H 699.823 2.27474 3.05017 0
M  V30 6951 H 699.335 3.49294 1.69161 0
M  V30 6952 H 697.436 1.65679 3.33738 0
M  V30 6953 H 697.549 3.53799 3.23053 0
M  V30 6954 H 695.913 1.81427 1.78764 0
M  V30 6955 H 696.696 3.28569 0.99484 0
M  V30 6956 N 699.141 -0.881989 1.30609 0
M  V30 6957 C 700.389 -1.63082 1.19368 0
M  V30 6958 C 700.71 -1.93376 -0.251147 0
M  V30 6959 O 699.98 -1.5723 -1.16857 0
M  V30 6960 H 698.56 -0.604542 0.438791 0
M  V30 6961 H 701.222 -1.05658 1.63776 0
M  V30 6962 H 700.318 -2.57966 1.7567 0
M  V30 6963 N 700.619 -1.13374 -1.09472 0
M  V30 6964 C 701.567 -0.806105 -2.18185 0
M  V30 6965 C 702.561 0.21136 -1.68076 0
M  V30 6966 O 703.767 0.0685558 -1.79869 0
M  V30 6967 H 700.142 -0.242901 -0.71169 0
M  V30 6968 H 702.113 -1.73115 -2.43051 0
M  V30 6969 C 700.862 -0.287928 -3.46506 0
M  V30 6970 H 700.185 -1.06217 -3.85432 0
M  V30 6971 H 701.625 -0.0971054 -4.23889 0
M  V30 6972 C 700.084 0.986256 -3.22141 0
M  V30 6973 O 700.614 2.06217 -3.44728 0
M  V30 6974 N 698.82 0.917153 -2.75747 0
M  V30 6975 H 698.367 0.0414609 -2.57567 0
M  V30 6976 H 698.325 1.77029 -2.59823 0
M  V30 6977 N 702.098 1.27442 -0.927168 0
M  V30 6978 C 703.028 2.29256 -0.443188 0
M  V30 6979 C 704.009 1.62701 0.49624 0
M  V30 6980 O 705.194 1.90013 0.401105 0
M  V30 6981 C 702.324 3.45955 0.305366 0
M  V30 6982 C 701.278 4.24501 -0.546178 0
M  V30 6983 C 700.604 5.33671 0.331512 0
M  V30 6984 C 701.904 4.89921 -1.81037 0
M  V30 6985 H 703.598 2.69988 -1.29409 0
M  V30 6986 H 701.144 1.29792 -0.623705 0
M  V30 6987 H 703.097 4.1628 0.654885 0
M  V30 6988 H 701.821 3.04138 1.19029 0
M  V30 6989 H 700.48 3.55921 -0.878398 0
M  V30 6990 H 700.128 4.88096 1.21537 0
M  V30 6991 H 699.828 5.87131 -0.234746 0
M  V30 6992 H 701.352 6.0684 0.676614 0
M  V30 6993 H 702.766 5.52536 -1.52895 0
M  V30 6994 H 701.163 5.53436 -2.32009 0
M  V30 6995 H 702.233 4.13652 -2.53021 0
M  V30 6996 N 703.576 0.692616 1.41565 0
M  V30 6997 C 704.486 0.0258451 2.34586 0
M  V30 6998 C 705.502 -0.769324 1.56069 0
M  V30 6999 O 706.678 -0.707563 1.88562 0
M  V30 7000 C 703.743 -0.901289 3.3478 0
M  V30 7001 C 702.804 -0.0986579 4.29187 0
M  V30 7002 C 702.037 -0.981634 5.24595 0
M  V30 7003 O 702.26 -2.22115 5.25377 0
M  V30 7004 O 701.194 -0.432892 6.00341 0
M  V30 7005 H 705.02 0.792537 2.93177 0
M  V30 7006 H 702.605 0.452935 1.42369 0
M  V30 7007 H 704.487 -1.43302 3.96286 0
M  V30 7008 H 703.162 -1.64752 2.78637 0
M  V30 7009 H 702.069 0.477604 3.71039 0
M  V30 7010 H 703.402 0.608848 4.8842 0
M  V30 7011 N 705.054 -1.51416 0.437162 0
M  V30 7012 C 706.017 -2.26312 -0.362729 0
M  V30 7013 C 707.017 -1.29748 -0.949847 0
M  V30 7014 O 708.207 -1.53462 -0.824325 0
M  V30 7015 C 705.339 -3.05475 -1.5132 0
M  V30 7016 H 706.532 -2.98459 0.29365 0
M  V30 7017 H 704.085 -1.55137 0.190327 0
M  V30 7018 H 704.82 -2.37744 -2.20563 0
M  V30 7019 H 704.605 -3.76401 -1.09838 0
M  V30 7020 H 706.095 -3.62209 -2.07833 0
M  V30 7021 N 706.532 -0.168513 -1.56696 0
M  V30 7022 C 707.462 0.758563 -2.20835 0
M  V30 7023 C 708.443 1.24121 -1.1631 0
M  V30 7024 O 709.628 1.29487 -1.4473 0
M  V30 7025 C 706.758 1.9892 -2.8469 0
M  V30 7026 C 705.712 1.64252 -3.95228 0
M  V30 7027 C 705.038 2.94757 -4.46119 0
M  V30 7028 C 706.338 0.872675 -5.14958 0
M  V30 7029 H 708.032 0.223953 -2.98561 0
M  V30 7030 H 705.578 0.106277 -1.43607 0
M  V30 7031 H 707.531 2.64275 -3.28233 0
M  V30 7032 H 706.255 2.5479 -2.04327 0
M  V30 7033 H 704.914 1.01266 -3.52336 0
M  V30 7034 H 704.562 3.48662 -3.62552 0
M  V30 7035 H 704.262 2.72316 -5.2069 0
M  V30 7036 H 705.786 3.61147 -4.92347 0
M  V30 7037 H 707.2 1.42875 -5.55211 0
M  V30 7038 H 705.597 0.747402 -5.95428 0
M  V30 7039 H 706.667 -0.131535 -4.84722 0
M  V30 7040 N 708.01 1.57248 0.105221 0
M  V30 7041 C 708.92 2.04653 1.14693 0
M  V30 7042 C 709.936 0.969488 1.44489 0
M  V30 7043 O 711.112 1.28196 1.55331 0
M  V30 7044 C 708.177 2.45297 2.45011 0
M  V30 7045 C 707.238 3.67148 2.22489 0
M  V30 7046 C 706.471 4.05844 3.46592 0
M  V30 7047 O 706.694 3.44736 4.54437 0
M  V30 7048 O 705.628 4.98862 3.36779 0
M  V30 7049 H 709.454 2.93663 0.774336 0
M  V30 7050 H 707.039 1.45998 0.31701 0
M  V30 7051 H 708.921 2.72112 3.21766 0
M  V30 7052 H 707.596 1.59429 2.81717 0
M  V30 7053 H 706.503 3.45463 1.43547 0
M  V30 7054 H 707.836 4.53764 1.9068 0
M  V30 7055 N 709.488 -0.375779 1.53054 0
M  V30 7056 C 710.734 -1.12114 1.68992 0
M  V30 7057 C 711.067 -1.8926 0.435238 0
M  V30 7058 O 710.342 -1.86044 -0.567278 0
M  V30 7059 C 710.625 -2.08867 2.93337 0
M  V30 7060 C 710.478 -1.35397 4.28938 0
M  V30 7061 C 711.797 -3.09124 3.13257 0
M  V30 7062 H 708.916 -0.406207 0.614951 0
M  V30 7063 H 711.558 -0.403054 1.85676 0
M  V30 7064 H 709.708 -2.70102 2.79244 0
M  V30 7065 H 711.38 -0.770242 4.54824 0
M  V30 7066 H 709.623 -0.655801 4.28814 0
M  V30 7067 H 710.294 -2.06161 5.12056 0
M  V30 7068 H 712.77 -2.57987 3.26469 0
M  V30 7069 H 711.646 -3.74054 4.01715 0
M  V30 7070 H 711.907 -3.78729 2.28072 0
M  V30 7071 N 710.966 -1.44241 -0.634997 0
M  V30 7072 C 711.896 -1.53632 -1.7584 0
M  V30 7073 C 712.877 -0.389603 -1.65578 0
M  V30 7074 O 714.062 -0.609219 -1.84397 0
M  V30 7075 C 711.192 -1.47644 -3.14354 0
M  V30 7076 C 710.146 -2.60752 -3.394 0
M  V30 7077 C 709.472 -2.39817 -4.77904 0
M  V30 7078 C 710.772 -4.02921 -3.32343 0
M  V30 7079 H 712.466 -2.47662 -1.68238 0
M  V30 7080 H 710.012 -1.19197 -0.807969 0
M  V30 7081 H 711.965 -1.52815 -3.92716 0
M  V30 7082 H 710.689 -0.501284 -3.2273 0
M  V30 7083 H 709.348 -2.54965 -2.63417 0
M  V30 7084 H 708.996 -1.40502 -4.82978 0
M  V30 7085 H 708.696 -3.15649 -4.9562 0
M  V30 7086 H 710.22 -2.46799 -5.585 0
M  V30 7087 H 711.634 -4.10098 -4.00615 0
M  V30 7088 H 710.031 -4.78925 -3.61595 0
M  V30 7089 H 711.101 -4.26766 -2.30215 0
M  V30 7090 N 712.444 0.87505 -1.31075 0
M  V30 7091 C 713.669 1.66583 -1.23551 0
M  V30 7092 C 714.094 1.87067 0.19686 0
M  V30 7093 O 713.452 1.40877 1.1412 0
M  V30 7094 C 713.5 3.01401 -1.97965 0
M  V30 7095 O 712.604 3.90923 -1.31351 0
M  V30 7096 H 711.945 0.508645 -0.426821 0
M  V30 7097 H 714.475 1.09139 -1.7306 0
M  V30 7098 H 714.485 3.51374 -2.07366 0
M  V30 7099 H 713.16 2.85812 -3.02133 0
M  V30 7100 H 711.737 3.49369 -1.30368 0
M  V30 7101 N 713.922 1.13953 1.08869 0
M  V30 7102 C 714.885 0.824991 2.13838 0
M  V30 7103 C 715.885 -0.168198 1.59918 0
M  V30 7104 O 717.075 0.0595778 1.74098 0
M  V30 7105 C 714.207 0.228938 3.4013 0
M  V30 7106 H 715.4 1.75521 2.43171 0
M  V30 7107 H 712.953 0.94492 1.24503 0
M  V30 7108 H 713.688 -0.710227 3.16427 0
M  V30 7109 H 713.473 0.944243 3.80561 0
M  V30 7110 H 714.963 0.0259223 4.17592 0
M  V30 7111 N 715.4 -1.26948 0.933913 0
M  V30 7112 C 716.816 -1.46419 0.635103 0
M  V30 7113 C 717.016 -1.84336 -0.813785 0
M  V30 7114 O 716.072 -1.96061 -1.59111 0
M  V30 7115 C 717.385 -2.55206 1.5903 0
M  V30 7116 C 718.933 -2.69062 1.5992 0
M  V30 7117 C 719.408 -3.81013 2.54152 0
M  V30 7118 N 720.899 -3.88395 2.52395 0
M  V30 7119 C 721.634 -4.74454 3.21996 0
M  V30 7120 N 721.13 -5.64954 4.00997 0
M  V30 7121 N 722.923 -4.68237 3.10983 0
M  V30 7122 H 715.074 -1.00622 1.87053 0
M  V30 7123 H 717.337 -0.503189 0.803433 0
M  V30 7124 H 717.043 -2.34153 2.62422 0
M  V30 7125 H 716.917 -3.52719 1.33677 0
M  V30 7126 H 719.304 -2.89492 0.572569 0
M  V30 7127 H 719.385 -1.72016 1.89325 0
M  V30 7128 H 719.029 -3.61336 3.5693 0
M  V30 7129 H 718.959 -4.77499 2.22041 0
M  V30 7130 H 721.45 -3.23687 1.95025 0
M  V30 7131 H 721.763 -6.27496 4.51074 0
M  V30 7132 H 720.108 -5.6473 4.05099 0
M  V30 7133 H 723.299 -3.96535 2.48753 0
M  V30 7134 H 723.472 -5.35087 3.65494 0
M  V30 7135 N 716.879 -0.700114 -1.41195 0
M  V30 7136 C 718.127 -0.232546 -2.00758 0
M  V30 7137 C 718.448 1.1734 -1.55745 0
M  V30 7138 O 717.718 1.79262 -0.790058 0
M  V30 7139 H 716.298 -0.0829845 -0.742376 0
M  V30 7140 H 718.96 -0.902289 -1.72756 0
M  V30 7141 H 718.056 -0.253521 -3.11069 0
M  V30 7142 N 718.357 1.51182 -0.445186 0
M  V30 7143 C 719.267 2.31692 0.368255 0
M  V30 7144 C 720.283 1.40942 1.02036 0
M  V30 7145 O 721.459 1.74011 1.01401 0
M  V30 7146 C 718.524 3.14903 1.45041 0
M  V30 7147 C 717.585 4.21442 0.817615 0
M  V30 7148 C 716.818 5.00677 1.8482 0
M  V30 7149 O 717.041 4.80644 3.07145 0
M  V30 7150 O 715.975 5.84559 1.43438 0
M  V30 7151 H 719.801 3.0232 -0.289219 0
M  V30 7152 H 717.386 1.47951 -0.207555 0
M  V30 7153 H 719.268 3.66612 2.07783 0
M  V30 7154 H 717.943 2.47031 2.09182 0
M  V30 7155 H 716.85 3.73791 0.151931 0
M  V30 7156 H 718.183 4.9171 0.219564 0
M  V30 7157 N 719.835 0.176821 1.56605 0
M  V30 7158 C 721.246 -0.338963 1.83597 0
M  V30 7159 C 721.597 -1.62677 1.09684 0
M  V30 7160 O 720.722 -2.13524 0.351661 0
M  V30 7161 C 721.317 -0.62177 3.33046 0
M  V30 7162 C 719.876 -1.08198 3.60514 0
M  V30 7163 C 719.023 -0.120774 2.77037 0
M  V30 7164 H 721.974 0.400978 1.53551 0
M  V30 7165 H 721.995 -1.47321 3.50823 0
M  V30 7166 H 721.507 0.315692 3.86814 0
M  V30 7167 H 719.608 -2.03435 3.12162 0
M  V30 7168 H 719.721 -0.987329 4.68816 0
M  V30 7169 H 718.085 -0.619192 2.47059 0
M  V30 7170 H 718.868 0.810806 3.33588 0
M  V30 7171 N 721.313 -1.57302 -0.09688 0
M  V30 7172 C 722.541 -1.90202 -0.814295 0
M  V30 7173 C 722.956 -0.770344 -1.72369 0
M  V30 7174 O 722.313 0.257764 -1.8067 0
M  V30 7175 C 722.364 -3.22708 -1.62916 0
M  V30 7176 O 722.085 -4.31522 -0.756343 0
M  V30 7177 C 723.586 -3.69459 -2.44979 0
M  V30 7178 H 720.806 -0.629275 -0.232925 0
M  V30 7179 H 723.35 -2.04364 -0.0746482 0
M  V30 7180 H 721.505 -3.1015 -2.32133 0
M  V30 7181 H 721.919 -5.07604 -1.32054 0
M  V30 7182 H 723.393 -4.64875 -2.9765 0
M  V30 7183 H 723.87 -2.97211 -3.23361 0
M  V30 7184 H 724.476 -3.84879 -1.80964 0
M  V30 7185 N 722.791 0.367657 -1.53252 0
M  V30 7186 C 723.701 1.47415 -1.82499 0
M  V30 7187 C 724.717 1.58711 -0.713222 0
M  V30 7188 O 725.893 1.74644 -1.00306 0
M  V30 7189 C 722.958 2.82706 -2.00694 0
M  V30 7190 C 722.019 2.80955 -3.24596 0
M  V30 7191 C 721.252 4.09793 -3.41914 0
M  V30 7192 O 721.475 5.05852 -2.63572 0
M  V30 7193 O 720.409 4.15731 -4.3526 0
M  V30 7194 H 724.235 1.25624 -2.765 0
M  V30 7195 H 721.82 0.557559 -1.38606 0
M  V30 7196 H 723.702 3.62873 -2.14246 0
M  V30 7197 H 722.377 3.04479 -1.09883 0
M  V30 7198 H 721.284 1.99494 -3.16469 0
M  V30 7199 H 722.617 2.64136 -4.15323 0
M  V30 7200 N 724.269 1.44576 0.627338 0
M  V30 7201 C 725.68 1.42266 1.20902 0
M  V30 7202 C 726.031 0.139964 1.957 0
M  V30 7203 O 725.156 -0.759489 2.02634 0
M  V30 7204 C 725.751 2.57727 2.19914 0
M  V30 7205 C 724.31 2.58599 2.73502 0
M  V30 7206 C 723.457 2.34145 1.48564 0
M  V30 7207 H 726.408 1.53102 0.417791 0
M  V30 7208 H 726.429 2.30697 3.02588 0
M  V30 7209 H 725.941 3.51068 1.65447 0
M  V30 7210 H 724.042 1.6921 3.31962 0
M  V30 7211 H 724.155 3.57205 3.19282 0
M  V30 7212 H 722.519 1.83313 1.76829 0
M  V30 7213 H 723.302 3.29606 0.959935 0
M  V30 7214 N 725.747 -0.868086 1.31537 0
M  V30 7215 C 726.657 -2.00801 1.21311 0
M  V30 7216 C 727.673 -1.73518 0.129431 0
M  V30 7217 O 728.849 -1.98378 0.347588 0
M  V30 7218 C 725.914 -3.3419 0.922935 0
M  V30 7219 C 724.975 -3.74783 2.0937 0
M  V30 7220 C 724.208 -5.01807 1.81728 0
M  V30 7221 O 724.431 -5.65404 0.753313 0
M  V30 7222 O 723.365 -5.39213 2.67457 0
M  V30 7223 H 727.191 -2.12361 2.17109 0
M  V30 7224 H 724.776 -0.996684 1.11295 0
M  V30 7225 H 726.658 -4.14174 0.777033 0
M  V30 7226 H 725.333 -3.237 -0.00500301 0
M  V30 7227 H 724.24 -2.95432 2.29501 0
M  V30 7228 H 725.573 -3.89902 3.00396 0
M  V30 7229 N 727.225 -1.14528 -1.08264 0
M  V30 7230 C 728.474 -0.908992 -1.80056 0
M  V30 7231 C 728.787 0.565859 -1.87236 0
M  V30 7232 O 729.993 0.919454 -2.55457 0
M  V30 7233 C 728.449 -1.57681 -3.23519 0
M  V30 7234 C 728.057 -3.08803 -3.24569 0
M  V30 7235 C 729.801 -1.4217 -3.99985 0
M  V30 7236 C 727.708 -3.68414 -4.62629 0
M  V30 7237 H 726.638 -0.336432 -0.674781 0
M  V30 7238 H 729.289 -1.37437 -1.21587 0
M  V30 7239 H 727.671 -1.03911 -3.82124 0
M  V30 7240 H 728.845 -3.69252 -2.75663 0
M  V30 7241 H 727.16 -3.23968 -2.61598 0
M  V30 7242 H 729.757 -1.84106 -5.02005 0
M  V30 7243 H 730.1 -0.367989 -4.1467 0
M  V30 7244 H 730.633 -1.92984 -3.47853 0
M  V30 7245 H 727.372 -4.73644 -4.53147 0
M  V30 7246 H 726.892 -3.12746 -5.11811 0
M  V30 7247 H 728.571 -3.68793 -5.31602 0
M  V30 7248 N 728.703 1.26451 -0.940633 0
M  V30 7249 C 729.613 2.30128 -0.455881 0
M  V30 7250 C 730.629 1.67536 0.469867 0
M  V30 7251 O 731.805 1.98344 0.349529 0
M  V30 7252 C 728.87 3.45634 0.271648 0
M  V30 7253 C 727.931 4.23709 -0.690594 0
M  V30 7254 C 727.164 5.337 0.00231047 0
M  V30 7255 O 727.387 5.57215 1.21935 0
M  V30 7256 O 726.321 5.98091 -0.676111 0
M  V30 7257 H 730.147 2.73655 -1.31707 0
M  V30 7258 H 727.732 1.3164 -0.706497 0
M  V30 7259 H 729.614 4.15853 0.681486 0
M  V30 7260 H 728.289 3.04138 1.10824 0
M  V30 7261 H 727.196 3.55974 -1.15037 0
M  V30 7262 H 728.529 4.68953 -1.49478 0
M  V30 7263 N 730.181 0.707592 1.40822 0
M  V30 7264 C 731.144 0.0587224 2.29125 0
M  V30 7265 C 732.144 -0.695624 1.44975 0
M  V30 7266 O 733.334 -0.528718 1.65983 0
M  V30 7267 C 730.466 -0.926939 3.28056 0
M  V30 7268 H 731.659 0.836349 2.88002 0
M  V30 7269 H 729.212 0.471778 1.4901 0
M  V30 7270 H 729.947 -1.7319 2.74182 0
M  V30 7271 H 729.732 -0.389015 3.90165 0
M  V30 7272 H 731.222 -1.37837 3.94196 0
M  V30 7273 N 731.66 -1.50943 0.453197 0
M  V30 7274 C 733.076 -1.59245 0.106342 0
M  V30 7275 C 733.276 -1.46287 -1.38572 0
M  V30 7276 O 732.332 -1.31219 -2.15726 0
M  V30 7277 C 733.645 -2.93797 0.640595 0
M  V30 7278 C 735.193 -3.07148 0.602435 0
M  V30 7279 C 735.668 -4.44247 1.11393 0
M  V30 7280 N 737.159 -4.50611 1.07258 0
M  V30 7281 C 737.894 -5.55049 1.43905 0
M  V30 7282 N 737.39 -6.66828 1.87914 0
M  V30 7283 N 739.183 -5.45494 1.35621 0
M  V30 7284 H 731.334 -1.5761 1.42382 0
M  V30 7285 H 733.597 -0.74384 0.587713 0
M  V30 7286 H 733.303 -3.087 1.68515 0
M  V30 7287 H 733.177 -3.77127 0.0742272 0
M  V30 7288 H 735.564 -2.91903 -0.433171 0
M  V30 7289 H 735.645 -2.25619 1.20539 0
M  V30 7290 H 735.289 -4.60239 2.14808 0
M  V30 7291 H 735.219 -5.2434 0.487353 0
M  V30 7292 H 737.71 -3.70391 0.749585 0
M  V30 7293 H 738.023 -7.42558 2.14072 0
M  V30 7294 H 736.368 -6.67995 1.91853 0
M  V30 7295 H 739.559 -4.57053 1.01093 0
M  V30 7296 H 739.732 -6.2677 1.64508 0
M  V30 7297 N 733.138 -0.185124 -1.56509 0
M  V30 7298 C 734.549 0.329221 -1.83774 0
M  V30 7299 C 734.9 1.62093 -1.10545 0
M  V30 7300 O 734.025 2.13334 -0.36298 0
M  V30 7301 C 734.62 0.604099 -3.33371 0
M  V30 7302 C 733.179 1.06284 -3.61083 0
M  V30 7303 C 732.326 0.10608 -2.77097 0
M  V30 7304 H 735.277 -0.409116 -1.53336 0
M  V30 7305 H 735.298 1.45458 -3.51599 0
M  V30 7306 H 734.81 -0.336201 -3.86641 0
M  V30 7307 H 732.911 2.01777 -3.13236 0
M  V30 7308 H 733.024 0.962453 -4.69333 0
M  V30 7309 H 731.388 0.606082 -2.47384 0
M  V30 7310 H 732.171 -0.828486 -3.33153 0
M  V30 7311 N 734.616 1.57351 0.0885366 0
M  V30 7312 C 736.032 1.53331 0.442916 0
M  V30 7313 C 736.232 0.902831 1.80142 0
M  V30 7314 O 735.288 0.498147 2.47537 0
M  V30 7315 C 736.601 2.98036 0.399372 0
M  V30 7316 C 738.149 3.09286 0.480759 0
M  V30 7317 C 738.624 4.5561 0.467296 0
M  V30 7318 N 740.115 4.60182 0.52786 0
M  V30 7319 C 740.85 5.70857 0.539388 0
M  V30 7320 N 740.346 6.90944 0.506729 0
M  V30 7321 N 742.139 5.59051 0.584691 0
M  V30 7322 H 734.29 1.96709 -0.801215 0
M  V30 7323 H 736.553 0.899639 -0.298922 0
M  V30 7324 H 736.259 3.47656 -0.531806 0
M  V30 7325 H 736.133 3.57066 1.21589 0
M  V30 7326 H 738.52 2.5965 1.40236 0
M  V30 7327 H 738.601 2.53197 -0.364023 0
M  V30 7328 H 738.245 5.05899 -0.450384 0
M  V30 7329 H 738.175 5.09544 1.32938 0
M  V30 7330 H 740.666 3.73757 0.558028 0
M  V30 7331 H 740.979 7.71055 0.518989 0
M  V30 7332 H 739.324 6.93384 0.473675 0
M  V30 7333 H 742.515 4.64138 0.607781 0
M  V30 7334 H 742.688 6.45307 0.590206 0
M  V30 7335 N 736.094 -0.359525 1.53444 0
M  V30 7336 C 737.024 -1.44662 1.8329 0
M  V30 7337 C 738.005 -1.55617 0.68683 0
M  V30 7338 O 739.19 -1.70086 0.93725 0
M  V30 7339 C 736.32 -2.81923 2.02822 0
M  V30 7340 C 735.274 -2.85787 3.18606 0
M  V30 7341 C 734.6 -4.25781 3.23442 0
M  V30 7342 C 735.9 -2.52762 4.57065 0
M  V30 7343 H 737.594 -1.19934 2.74329 0
M  V30 7344 H 735.14 -0.575517 1.31999 0
M  V30 7345 H 737.093 -3.58005 2.22285 0
M  V30 7346 H 735.817 -3.08051 1.085 0
M  V30 7347 H 734.476 -2.12157 2.98973 0
M  V30 7348 H 734.124 -4.48994 2.26745 0
M  V30 7349 H 733.824 -4.29281 4.01238 0
M  V30 7350 H 735.348 -5.03727 3.45096 0
M  V30 7351 H 736.762 -3.18557 4.76649 0
M  V30 7352 H 735.159 -2.67569 5.37147 0
M  V30 7353 H 736.229 -1.47993 4.61764 0
M  V30 7354 N 737.572 -1.44907 -0.619662 0
M  V30 7355 C 738.535 -1.52282 -1.71297 0
M  V30 7356 C 739.535 -0.40359 -1.55653 0
M  V30 7357 O 740.725 -0.666638 -1.6094 0
M  V30 7358 C 737.857 -1.40778 -3.10474 0
M  V30 7359 H 739.05 -2.49683 -1.66128 0
M  V30 7360 H 736.603 -1.32168 -0.834339 0
M  V30 7361 H 737.338 -0.445156 -3.2123 0
M  V30 7362 H 737.123 -2.21947 -3.23237 0
M  V30 7363 H 738.613 -1.48946 -3.90135 0
M  V30 7364 N 739.05 0.861098 -1.31996 0
M  V30 7365 C 740.013 1.95068 -1.20338 0
M  V30 7366 C 741.013 1.60289 -0.128114 0
M  V30 7367 O 742.203 1.70048 -0.378044 0
M  V30 7368 C 739.335 3.30153 -0.849205 0
M  V30 7369 H 740.528 2.06833 -2.17164 0
M  V30 7370 H 738.081 1.05049 -1.15734 0
M  V30 7371 H 738.816 3.24087 0.117508 0
M  V30 7372 H 738.601 3.56771 -1.62655 0
M  V30 7373 H 740.091 4.10025 -0.791782 0
M  V30 7374 N 740.528 1.15101 1.07655 0
M  V30 7375 C 741.438 0.858869 2.18313 0
M  V30 7376 C 742.454 -0.163641 1.73229 0
M  V30 7377 O 743.63 0.00969541 2.01398 0
M  V30 7378 C 740.695 0.34893 3.4494 0
M  V30 7379 C 739.756 1.43495 4.04608 0
M  V30 7380 C 738.989 0.949253 5.2519 0
M  V30 7381 O 739.212 -0.20636 5.70027 0
M  V30 7382 O 738.146 1.73161 5.76454 0
M  V30 7383 H 741.972 1.78386 2.45788 0
M  V30 7384 H 739.557 0.929876 1.16934 0
M  V30 7385 H 741.439 0.070851 4.2134 0
M  V30 7386 H 740.114 -0.548237 3.19024 0
M  V30 7387 H 739.021 1.7666 3.29761 0
M  V30 7388 H 740.354 2.30692 4.3479 0
M  V30 7389 N 742.006 -1.2595 0.947325 0
M  V30 7390 C 743.231 -1.98083 0.614633 0
M  V30 7391 C 743.656 -1.70013 -0.804815 0
M  V30 7392 O 743.014 -0.95175 -1.54309 0
M  V30 7393 C 743.062 -3.4993 0.870706 0
M  V30 7394 O 742.166 -4.12364 -0.0541451 0
M  V30 7395 H 741.507 -0.621232 0.234451 0
M  V30 7396 H 744.037 -1.60259 1.27193 0
M  V30 7397 H 744.047 -4.00198 0.794051 0
M  V30 7398 H 742.722 -3.69691 1.90529 0
M  V30 7399 H 741.299 -3.72826 0.0740917 0
M  V30 7400 N 743.484 -0.715051 -1.40445 0
M  V30 7401 C 744.73 -0.254705 -2.01194 0
M  V30 7402 C 745.063 1.14894 -1.56567 0
M  V30 7403 O 744.338 1.77933 -0.785491 0
M  V30 7404 C 744.621 -0.334148 -3.58546 0
M  V30 7405 C 744.474 -1.77613 -4.13248 0
M  V30 7406 C 745.793 0.294968 -4.3911 0
M  V30 7407 H 742.912 -0.094025 -0.730978 0
M  V30 7408 H 745.554 -0.907449 -1.66929 0
M  V30 7409 H 743.704 0.221609 -3.87867 0
M  V30 7410 H 745.376 -2.38723 -3.94727 0
M  V30 7411 H 743.619 -2.30402 -3.67556 0
M  V30 7412 H 744.29 -1.78311 -5.22407 0
M  V30 7413 H 746.766 -0.178563 -4.15717 0
M  V30 7414 H 745.642 0.208934 -5.48502 0
M  V30 7415 H 745.903 1.37841 -4.20062 0
M  V30 7416 O 745.001 1.49816 -0.603118 0
M  V30 7417 H 745.692 1.93366 -0.113681 0
M  V30 END ATOM
M  V30 BEGIN BOND
M  V30 END BOND
M  V30 END CTAB
M  END
$$$$
