drugbank_target|P49247 Ribose-5-phosphate isomerase (DB01756)
 OpenBabel12092120533D

  0  0  0     0  0            999 V3000
M  V30 BEGIN CTAB
M  V30 COUNTS 4673 4717 0 0 0
M  V30 BEGIN ATOM
M  V30 1 H -0.908 1.98254 -0.117106 0
M  V30 2 N 0 1.576 0 0
M  V30 3 C 0.933 2.03868 1.02534 0
M  V30 4 C 1.911 0.928543 1.3348 0
M  V30 5 O 3.095 1.19667 1.45644 0
M  V30 6 C 0.222 2.43627 2.35294 0
M  V30 7 C -0.732 3.65373 2.2001 0
M  V30 8 S 0.101 5.13292 1.52614 0
M  V30 9 C 1.257 5.56322 2.86805 0
M  V30 10 H 1.49 2.90518 0.631377 0
M  V30 11 H -0.977 1.52953 0.210867 0
M  V30 12 H 0.981 2.67203 3.11629 0
M  V30 13 H -0.358 1.57376 2.7183 0
M  V30 14 H -1.165 3.90944 3.18086 0
M  V30 15 H -1.563 3.418 1.51819 0
M  V30 16 H 0.729 5.58782 3.83104 0
M  V30 17 H 1.672 6.56266 2.65933 0
M  V30 18 H 2.08 4.83886 2.90714 0
M  V30 19 N 1.4781 -0.272755 1.55222 0
M  V30 20 C 2.4101 -1.35946 1.8453 0
M  V30 21 C 3.4231 -1.45525 0.729818 0
M  V30 22 O 4.6121 -1.47337 1.00767 0
M  V30 23 C 1.7121 -2.74069 1.99347 0
M  V30 24 C 0.8851 -2.87079 3.30007 0
M  V30 25 C -0.0559 -4.05879 3.34886 0
M  V30 26 O -1.0299 -3.96626 4.08261 0
M  V30 27 N 0.1721 -5.17857 2.62307 0
M  V30 28 H 2.9371 -1.11149 2.78327 0
M  V30 29 H 0.4981 -0.462869 1.55142 0
M  V30 30 H 2.4901 -3.51838 1.99981 0
M  V30 31 H 1.0601 -2.91688 1.12415 0
M  V30 32 H 0.2801 -1.96193 3.41909 0
M  V30 33 H 1.5681 -2.92701 4.16177 0
M  V30 34 H 0.9661 -5.28261 2.02377 0
M  V30 35 H -0.4769 -5.93855 2.68663 0
M  V30 36 N 2.9562 -1.48159 -0.537278 0
M  V30 37 C 4.3722 -1.34118 -0.865129 0
M  V30 38 C 4.5722 -0.346678 -1.98495 0
M  V30 39 O 3.6282 0.234715 -2.51407 0
M  V30 40 C 4.9412 -2.73963 -1.23954 0
M  V30 41 C 6.4892 -2.82397 -1.34984 0
M  V30 42 C 6.9642 -4.22928 -1.75772 0
M  V30 43 N 8.4552 -4.25566 -1.82887 0
M  V30 44 C 9.1902 -5.31235 -2.15817 0
M  V30 45 N 8.6862 -6.47189 -2.47222 0
M  V30 46 N 10.4792 -5.18624 -2.16761 0
M  V30 47 H 2.6302 -2.1144 0.201715 0
M  V30 48 H 4.8932 -0.947598 0.0275949 0
M  V30 49 H 4.5992 -3.48264 -0.490381 0
M  V30 50 H 4.4732 -3.0702 -2.19132 0
M  V30 51 H 6.8602 -2.08356 -2.08978 0
M  V30 52 H 6.9412 -2.5297 -0.379448 0
M  V30 53 H 6.5852 -4.97482 -1.02341 0
M  V30 54 H 6.5152 -4.49794 -2.73848 0
M  V30 55 H 9.0062 -3.41924 -1.60924 0
M  V30 56 H 9.3192 -7.23564 -2.71433 0
M  V30 57 H 7.6642 -6.50476 -2.44757 0
M  V30 58 H 10.8552 -4.27056 -1.91679 0
M  V30 59 H 11.0282 -6.01078 -2.42093 0
M  V30 60 N 4.4343 0.785586 -1.36625 0
M  V30 61 C 5.8453 1.36101 -1.27803 0
M  V30 62 C 6.1963 1.96035 0.0804875 0
M  V30 63 O 5.3213 1.92834 0.982042 0
M  V30 64 C 5.9163 2.47442 -2.31426 0
M  V30 65 C 4.4753 3.00789 -2.26281 0
M  V30 66 C 3.6223 1.73896 -2.15999 0
M  V30 67 H 6.5733 0.586928 -1.47448 0
M  V30 68 H 6.5943 3.2656 -1.95291 0
M  V30 69 H 6.1063 2.03791 -3.30289 0
M  V30 70 H 4.2073 3.48851 -1.30896 0
M  V30 71 H 4.3203 3.57343 -3.19128 0
M  V30 72 H 2.6843 1.9628 -1.62316 0
M  V30 73 H 3.4673 1.32368 -3.16755 0
M  V30 74 N 5.9124 1.20967 1.01018 0
M  V30 75 C 7.1604 1.02172 1.74371 0
M  V30 76 C 7.4814 -0.446414 1.89821 0
M  V30 77 O 6.7514 -1.32234 1.44537 0
M  V30 78 H 5.3314 0.375066 0.646014 0
M  V30 79 H 7.9934 1.52187 1.21758 0
M  V30 80 H 7.0894 1.48538 2.74487 0
M  V30 81 N 7.3905 -1.2043 1.01659 0
M  V30 82 C 8.8015 -1.71517 0.737482 0
M  V30 83 C 9.1525 -1.81547 -0.743973 0
M  V30 84 O 8.2775 -1.47803 -1.58061 0
M  V30 85 C 8.8725 -3.11515 1.33206 0
M  V30 86 C 7.4315 -3.59912 1.10183 0
M  V30 87 C 6.5785 -2.37116 1.43776 0
M  V30 88 H 9.5295 -1.05444 1.18606 0
M  V30 89 H 9.5505 -3.73575 0.722636 0
M  V30 90 H 9.0625 -3.04182 2.41028 0
M  V30 91 H 7.1635 -3.72577 0.0412756 0
M  V30 92 H 7.2765 -4.44731 1.78188 0
M  V30 93 H 5.6405 -2.39857 0.856778 0
M  V30 94 H 6.4235 -2.32424 2.52654 0
M  V30 95 N 8.8686 -0.792821 -1.36206 0
M  V30 96 C 10.1156 -0.366786 -1.99151 0
M  V30 97 C 10.4436 1.06243 -1.62919 0
M  V30 98 O 9.6986 1.74927 -0.877442 0
M  V30 99 C 9.9976 -0.481501 -3.54142 0
M  V30 100 C 9.6636 -1.87202 -4.10203 0
M  V30 101 C 8.3256 -2.25248 -4.25226 0
M  V30 102 C 10.6776 -2.78237 -4.40719 0
M  V30 103 C 8.0056 -3.53723 -4.68078 0
M  V30 104 C 10.3576 -4.06144 -4.85005 0
M  V30 105 C 9.0216 -4.44207 -4.98234 0
M  V30 106 H 8.2916 -0.134217 -0.728743 0
M  V30 107 H 10.9386 -1.01094 -1.62641 0
M  V30 108 H 9.2436 0.246146 -3.91026 0
M  V30 109 H 10.9406 -0.132844 -4.0078 0
M  V30 110 H 7.5306 -1.56639 -3.98951 0
M  V30 111 H 11.7146 -2.50097 -4.28679 0
M  V30 112 H 6.9706 -3.8308 -4.76508 0
M  V30 113 H 11.1446 -4.76796 -5.07581 0
M  V30 114 H 8.7716 -5.43814 -5.31197 0
M  V30 115 N 10.3467 1.47872 -0.545128 0
M  V30 116 C 11.5717 2.07391 -0.0190611 0
M  V30 117 C 11.9967 1.39688 1.25971 0
M  V30 118 O 11.3547 0.467816 1.7516 0
M  V30 119 C 11.4027 3.60188 0.172335 0
M  V30 120 O 10.5067 3.9339 1.23766 0
M  V30 121 H 9.8477 0.662411 -0.0459059 0
M  V30 122 H 12.3777 1.90066 -0.757365 0
M  V30 123 H 12.3877 4.06129 0.390305 0
M  V30 124 H 11.0627 4.08865 -0.761725 0
M  V30 125 H 9.6397 3.5921 1.00114 0
M  V30 126 N 11.8248 0.280983 1.55075 0
M  V30 127 C 13.0528 -0.337293 2.04132 0
M  V30 128 C 13.4678 -1.4903 1.15912 0
M  V30 129 O 12.8248 -1.81606 0.180459 0
M  V30 130 C 12.8758 -0.812706 3.52246 0
M  V30 131 O 12.5968 0.294387 4.3711 0
M  V30 132 C 14.0978 -1.4982 4.17216 0
M  V30 133 H 11.3178 -0.0761638 0.666663 0
M  V30 134 H 13.8618 0.414787 2.00249 0
M  V30 135 H 12.0168 -1.51486 3.56554 0
M  V30 136 H 12.4308 -0.0721325 5.2445 0
M  V30 137 H 13.9048 -1.7822 5.22438 0
M  V30 138 H 14.3818 -2.43168 3.65741 0
M  V30 139 H 14.9878 -0.839742 4.16927 0
M  V30 140 N 13.3029 -1.57598 0.00835791 0
M  V30 141 C 14.2329 -2.1198 -0.979113 0
M  V30 142 C 15.2139 -1.03091 -1.35301 0
M  V30 143 O 16.3989 -1.30818 -1.43528 0
M  V30 144 C 13.5289 -2.62995 -2.26828 0
M  V30 145 C 12.4829 -3.76485 -2.03576 0
M  V30 146 C 11.8089 -4.13846 -3.38579 0
M  V30 147 C 13.1089 -5.0342 -1.39161 0
M  V30 148 H 14.8029 -2.94738 -0.526281 0
M  V30 149 H 12.3489 -1.41783 -0.251704 0
M  V30 150 H 14.3019 -2.99669 -2.96271 0
M  V30 151 H 13.0259 -1.7737 -2.7424 0
M  V30 152 H 11.6849 -3.40217 -1.36557 0
M  V30 153 H 11.3329 -3.25232 -3.83709 0
M  V30 154 H 11.0329 -4.90312 -3.23834 0
M  V30 155 H 12.5569 -4.53086 -4.09323 0
M  V30 156 H 13.9709 -5.37812 -1.98573 0
M  V30 157 H 12.3679 -5.84746 -1.34878 0
M  V30 158 H 13.4379 -4.83548 -0.361868 0
M  V30 159 N 14.781 0.264519 -1.55364 0
M  V30 160 C 16.011 1.01153 -1.80143 0
M  V30 161 C 16.419 1.80115 -0.579253 0
M  V30 162 O 15.762 1.77813 0.46132 0
M  V30 163 C 15.824 2.01098 -2.97993 0
M  V30 164 C 15.488 1.40995 -4.34706 0
M  V30 165 C 16.485 0.821316 -5.13372 0
M  V30 166 C 14.17 1.43461 -4.81378 0
M  V30 167 C 16.164 0.265339 -6.36847 0
M  V30 168 C 13.851 0.874771 -6.04807 0
M  V30 169 C 14.849 0.291146 -6.82379 0
M  V30 170 O 14.537 -0.260093 -8.03479 0
M  V30 171 H 14.269 0.304125 -0.603725 0
M  V30 172 H 16.823 0.298089 -2.03225 0
M  V30 173 H 15.053 2.76224 -2.70623 0
M  V30 174 H 16.742 2.61997 -3.1002 0
M  V30 175 H 17.508 0.794903 -4.78442 0
M  V30 176 H 13.387 1.87826 -4.21002 0
M  V30 177 H 16.931 -0.190837 -6.97339 0
M  V30 178 H 12.828 0.898452 -6.39217 0
M  V30 179 H 13.596 -0.150265 -8.18362 0
M  V30 180 N 16.2591 1.48442 0.529413 0
M  V30 181 C 17.5071 1.56179 1.28267 0
M  V30 182 C 17.8281 0.237721 1.93546 0
M  V30 183 O 17.0981 -0.740779 1.81354 0
M  V30 184 H 15.6781 0.575367 0.476405 0
M  V30 185 H 18.3401 1.84909 0.61602 0
M  V30 186 H 17.4361 2.34312 2.06165 0
M  V30 187 N 17.7372 -0.778329 1.37039 0
M  V30 188 C 19.1532 -1.07796 1.17695 0
M  V30 189 C 19.3532 -2.01498 0.00860115 0
M  V30 190 O 18.4092 -2.43901 -0.653352 0
M  V30 191 C 19.7222 -1.68178 2.49272 0
M  V30 192 C 21.2702 -1.80467 2.55735 0
M  V30 193 C 21.7452 -2.44263 3.87427 0
M  V30 194 N 23.2362 -2.51721 3.88833 0
M  V30 195 C 23.9712 -3.01919 4.87476 0
M  V30 196 N 23.4672 -3.5234 5.96513 0
M  V30 197 N 25.2602 -3.00733 4.74885 0
M  V30 198 H 17.4112 -0.156032 2.11826 0
M  V30 199 H 19.6742 -0.131844 0.938787 0
M  V30 200 H 19.3802 -1.06796 3.35093 0
M  V30 201 H 19.2542 -2.67554 2.65885 0
M  V30 202 H 21.6412 -2.40984 1.70325 0
M  V30 203 H 21.7222 -0.798656 2.43013 0
M  V30 204 H 21.3662 -1.84388 4.73248 0
M  V30 205 H 21.2962 -3.45458 3.9745 0
M  V30 206 H 23.7872 -2.1603 3.10063 0
M  V30 207 H 24.1002 -3.89027 6.67741 0
M  V30 208 H 22.4452 -3.50462 6.00168 0
M  V30 209 H 25.6362 -2.60638 3.88826 0
M  V30 210 H 25.8092 -3.39545 5.51918 0
M  V30 211 N 19.2153 -1.21501 -1.00376 0
M  V30 212 C 20.4613 -1.03452 -1.74429 0
M  V30 213 C 20.7943 0.430764 -1.89362 0
M  V30 214 O 20.0693 1.31962 -1.42886 0
M  V30 215 C 20.3523 -1.73375 -3.15615 0
M  V30 216 C 20.2053 -3.27431 -3.08397 0
M  V30 217 C 21.5243 -1.47732 -4.14564 0
M  V30 218 H 18.6433 -0.377226 -0.633143 0
M  V30 219 H 21.2853 -1.49693 -1.17013 0
M  V30 220 H 19.4353 -1.34064 -3.64636 0
M  V30 221 H 21.1073 -3.76119 -2.67081 0
M  V30 222 H 19.3503 -3.5767 -2.45468 0
M  V30 223 H 20.0213 -3.71524 -4.08258 0
M  V30 224 H 22.4973 -1.8186 -3.74254 0
M  V30 225 H 21.3733 -1.99169 -5.11491 0
M  V30 226 H 21.6343 -0.407589 -4.40217 0
M  V30 227 N 20.6934 1.19889 -1.02296 0
M  V30 228 C 21.6234 2.25141 -0.619174 0
M  V30 229 C 22.6044 1.66051 0.368915 0
M  V30 230 O 23.7894 1.92546 0.252941 0
M  V30 231 C 20.9194 3.4728 0.0368783 0
M  V30 232 C 19.8734 4.19005 -0.872865 0
M  V30 233 C 19.1994 5.34637 -0.0822402 0
M  V30 234 C 20.4994 4.74452 -2.18387 0
M  V30 235 H 22.1934 2.59171 -1.49903 0
M  V30 236 H 19.7394 1.24579 -0.722222 0
M  V30 237 H 21.6924 4.20098 0.330958 0
M  V30 238 H 20.4164 3.12433 0.95149 0
M  V30 239 H 19.0754 3.48061 -1.15105 0
M  V30 240 H 18.7234 4.96034 0.83422 0
M  V30 241 H 18.4234 5.83557 -0.688149 0
M  V30 242 H 19.9474 6.10255 0.205238 0
M  V30 243 H 21.3614 5.39055 -1.95172 0
M  V30 244 H 19.7584 5.33834 -2.74119 0
M  V30 245 H 20.8284 3.92844 -2.84257 0
M  V30 246 N 22.1715 0.800033 1.35784 0
M  V30 247 C 23.1345 0.211565 2.28221 0
M  V30 248 C 24.1345 -0.59728 1.49296 0
M  V30 249 O 25.3245 -0.416721 1.69142 0
M  V30 250 C 22.4565 -0.705846 3.33513 0
M  V30 251 H 23.6495 1.02677 2.81776 0
M  V30 252 H 21.2025 0.570211 1.45528 0
M  V30 253 H 21.9375 -1.54498 2.85133 0
M  V30 254 H 21.7225 -0.127655 3.91892 0
M  V30 255 H 23.2125 -1.11211 4.02519 0
M  V30 256 N 23.6496 -1.47581 0.552962 0
M  V30 257 C 25.0606 -1.86324 0.118463 0
M  V30 258 C 25.4116 -1.46006 -1.3106 0
M  V30 259 O 24.5366 -0.861182 -1.98526 0
M  V30 260 C 25.1316 -3.3816 0.20821 0
M  V30 261 C 23.6906 -3.7601 -0.171226 0
M  V30 262 C 22.8376 -2.71634 0.557686 0
M  V30 263 H 25.7886 -1.39159 0.762928 0
M  V30 264 H 25.8096 -3.76141 -0.574278 0
M  V30 265 H 25.3216 -3.67473 1.24841 0
M  V30 266 H 23.4226 -3.52313 -1.21269 0
M  V30 267 H 23.5356 -4.78745 0.184379 0
M  V30 268 H 21.8996 -2.547 0.00125792 0
M  V30 269 H 22.6826 -3.0379 1.59896 0
M  V30 270 N 25.1277 -0.289203 -1.54924 0
M  V30 271 C 26.0577 0.58549 -2.2604 0
M  V30 272 C 27.0387 1.14753 -1.25562 0
M  V30 273 O 28.2237 1.17906 -1.54311 0
M  V30 274 C 25.3537 1.76305 -2.99222 0
M  V30 275 C 24.3077 1.33191 -4.06748 0
M  V30 276 C 23.6337 2.5937 -4.6758 0
M  V30 277 C 24.9337 0.471775 -5.20165 0
M  V30 278 H 26.6277 -0.00763532 -2.99399 0
M  V30 279 H 24.1737 -0.00511229 -1.43999 0
M  V30 280 H 26.1267 2.38097 -3.47689 0
M  V30 281 H 24.8507 2.38223 -2.23422 0
M  V30 282 H 23.5097 0.737121 -3.59113 0
M  V30 283 H 23.1577 3.19576 -3.88433 0
M  V30 284 H 22.8577 2.31228 -5.40192 0
M  V30 285 H 24.3817 3.21985 -5.18804 0
M  V30 286 H 25.7957 0.995056 -5.64599 0
M  V30 287 H 24.1927 0.284639 -5.99425 0
M  V30 288 H 25.2627 -0.506041 -4.82252 0
M  V30 289 N 26.6058 1.57591 -0.0167156 0
M  V30 290 C 28.0168 1.79201 0.523834 0
M  V30 291 C 28.3678 0.925796 1.72984 0
M  V30 292 O 27.4928 0.132792 2.15992 0
M  V30 293 C 28.0878 3.25 0.957091 0
M  V30 294 C 26.6468 3.47648 1.44283 0
M  V30 295 C 25.7938 2.74374 0.401757 0
M  V30 296 H 28.7448 1.56831 -0.242816 0
M  V30 297 H 28.7658 3.34031 1.82219 0
M  V30 298 H 28.2778 3.88019 0.0791415 0
M  V30 299 H 26.3788 2.89866 2.34113 0
M  V30 300 H 26.4918 4.56352 1.45877 0
M  V30 301 H 24.8558 2.39485 0.867121 0
M  V30 302 H 25.6388 3.40102 -0.467513 0
M  V30 303 N 28.0839 -0.256276 1.55502 0
M  V30 304 C 29.3319 -0.983672 1.76545 0
M  V30 305 C 29.6529 -1.86206 0.578982 0
M  V30 306 O 28.9229 -1.91656 -0.405577 0
M  V30 307 H 27.5029 -0.366191 0.651086 0
M  V30 308 H 30.1649 -0.276479 1.92929 0
M  V30 309 H 29.2609 -1.61087 2.67315 0
M  V30 310 N 29.562 -1.4872 -0.521534 0
M  V30 311 C 30.978 -1.35028 -0.850855 0
M  V30 312 C 31.178 -0.367712 -1.98116 0
M  V30 313 O 30.234 0.208037 -2.51642 0
M  V30 314 C 31.547 -2.75263 -1.21041 0
M  V30 315 C 33.095 -2.83813 -1.31981 0
M  V30 316 C 33.57 -4.24769 -1.71276 0
M  V30 317 N 35.061 -4.27482 -1.78363 0
M  V30 318 C 35.796 -5.33494 -2.1017 0
M  V30 319 N 35.292 -6.49775 -2.40343 0
M  V30 320 N 37.085 -5.20894 -2.11248 0
M  V30 321 H 29.236 -2.11214 0.22413 0
M  V30 322 H 31.499 -0.947252 0.0376439 0
M  V30 323 H 31.205 -3.48765 -0.453415 0
M  V30 324 H 31.079 -3.09327 -2.15863 0
M  V30 325 H 33.466 -2.10561 -2.06756 0
M  V30 326 H 33.547 -2.53358 -0.352596 0
M  V30 327 H 33.191 -4.9854 -0.970588 0
M  V30 328 H 33.121 -4.52673 -2.69062 0
M  V30 329 H 35.612 -3.43611 -1.57288 0
M  V30 330 H 35.925 -7.26402 -2.63743 0
M  V30 331 H 34.27 -6.53035 -2.37844 0
M  V30 332 H 37.461 -4.29065 -1.87139 0
M  V30 333 H 37.634 -6.03612 -2.35704 0
M  V30 334 N 31.0401 0.771051 -1.3745 0
M  V30 335 C 32.0031 1.86598 -1.33093 0
M  V30 336 C 33.0031 1.59076 -0.234845 0
M  V30 337 O 34.1931 1.67145 -0.490732 0
M  V30 338 C 31.3251 3.23747 -1.06773 0
M  V30 339 H 32.5181 1.91873 -2.30488 0
M  V30 340 H 30.0711 0.970876 -1.2249 0
M  V30 341 H 30.8061 3.24148 -0.099129 0
M  V30 342 H 30.5911 3.45115 -1.86112 0
M  V30 343 H 32.0811 4.03824 -1.06377 0
M  V30 344 N 32.5182 1.22032 0.997298 0
M  V30 345 C 33.7662 1.04016 1.73278 0
M  V30 346 C 34.0872 -0.426255 1.90284 0
M  V30 347 O 33.3572 -1.30694 1.45931 0
M  V30 348 H 31.9372 0.381897 0.642 0
M  V30 349 H 34.5992 1.5347 1.20137 0
M  V30 350 H 33.6952 1.51441 2.72896 0
M  V30 351 N 33.9963 -1.19345 1.0293 0
M  V30 352 C 35.2443 -1.88665 0.724574 0
M  V30 353 C 35.5653 -1.80036 -0.749144 0
M  V30 354 O 34.8353 -1.2111 -1.53978 0
M  V30 355 H 33.4153 -0.698406 0.265025 0
M  V30 356 H 36.0773 -1.44885 1.30362 0
M  V30 357 H 35.1733 -2.94987 1.01926 0
M  V30 358 N 35.4744 -0.807222 -1.35358 0
M  V30 359 C 36.4374 -0.223665 -2.28106 0
M  V30 360 C 37.4374 0.589354 -1.4961 0
M  V30 361 O 38.6274 0.407745 -1.69361 0
M  V30 362 C 35.7594 0.688149 -3.33882 0
M  V30 363 H 36.9524 -1.04169 -2.81227 0
M  V30 364 H 34.5054 -0.577921 -1.45223 0
M  V30 365 H 35.2404 1.52984 -2.85948 0
M  V30 366 H 35.0254 0.10687 -3.91954 0
M  V30 367 H 36.5154 1.09075 -4.03104 0
M  V30 368 N 36.9525 1.47285 -0.560781 0
M  V30 369 C 37.9155 2.28535 0.174488 0
M  V30 370 C 38.9155 1.37153 0.839388 0
M  V30 371 O 40.1055 1.59748 0.694702 0
M  V30 372 C 37.2375 3.16934 1.25561 0
M  V30 373 H 38.4305 2.95012 -0.539262 0
M  V30 374 H 35.9835 1.53034 -0.317865 0
M  V30 375 H 36.7185 2.55157 2.00164 0
M  V30 376 H 36.5035 3.8419 0.783604 0
M  V30 377 H 37.9935 3.78143 1.77193 0
M  V30 378 N 38.4306 0.297415 1.54768 0
M  V30 379 C 39.6556 -0.318435 2.04941 0
M  V30 380 C 40.0806 -1.4701 1.17345 0
M  V30 381 O 39.4386 -1.80436 0.176758 0
M  V30 382 C 39.4866 -0.755749 3.52592 0
M  V30 383 O 38.5906 -1.86088 3.68028 0
M  V30 384 H 37.9316 -0.062421 0.661059 0
M  V30 385 H 40.4616 0.438215 1.99852 0
M  V30 386 H 40.4716 -1.04552 3.94376 0
M  V30 387 H 39.1466 0.0867233 4.1581 0
M  V30 388 H 37.7236 -1.57193 3.38149 0
M  V30 389 N 39.9087 -1.5758 0.0250728 0
M  V30 390 C 41.1567 -1.91255 -0.653151 0
M  V30 391 C 41.4777 -0.901691 -1.729 0
M  V30 392 O 40.7477 0.0573785 -1.95816 0
M  V30 393 H 39.3277 -0.705942 -0.244243 0
M  V30 394 H 41.9897 -1.94767 0.0719209 0
M  V30 395 H 41.0857 -2.91752 -1.10847 0
M  V30 396 N 41.3868 0.248026 -1.55636 0
M  V30 397 C 42.6348 0.974295 -1.77065 0
M  V30 398 C 42.9558 1.85897 -0.588849 0
M  V30 399 O 42.2258 1.91868 0.395407 0
M  V30 400 H 40.8058 0.362733 -0.653019 0
M  V30 401 H 43.4678 0.266244 -1.93073 0
M  V30 402 H 42.5638 1.59667 -2.68166 0
M  V30 403 N 42.8649 1.48995 0.513639 0
M  V30 404 C 44.1129 1.57531 1.26604 0
M  V30 405 C 44.4339 0.258236 1.93283 0
M  V30 406 O 43.7039 -0.721502 1.8213 0
M  V30 407 H 42.2839 0.580387 0.470276 0
M  V30 408 H 44.9459 1.85552 0.596373 0
M  V30 409 H 44.0419 2.36486 2.03669 0
M  V30 410 N 44.343 -0.763751 1.37857 0
M  V30 411 C 45.591 -1.51957 1.33243 0
M  V30 412 C 45.912 -1.94835 -0.0801709 0
M  V30 413 O 45.182 -1.66894 -1.02582 0
M  V30 414 H 43.762 -0.563626 0.49024 0
M  V30 415 H 46.424 -0.908504 1.7243 0
M  V30 416 H 45.52 -2.41523 1.97669 0
M  V30 417 N 45.8211 -1.22559 -0.990812 0
M  V30 418 C 46.7691 -0.994798 -2.10253 0
M  V30 419 C 47.7631 0.0627798 -1.69284 0
M  V30 420 O 48.9691 -0.0898392 -1.79776 0
M  V30 421 H 45.3441 -0.304527 -0.687581 0
M  V30 422 H 47.3151 -1.93812 -2.26891 0
M  V30 423 C 46.0641 -0.591439 -3.42633 0
M  V30 424 H 45.3871 -1.3969 -3.74602 0
M  V30 425 H 46.8271 -0.469385 -4.21394 0
M  V30 426 C 45.2861 0.699232 -3.29564 0
M  V30 427 O 45.8161 1.75112 -3.61523 0
M  V30 428 N 44.0221 0.671182 -2.82743 0
M  V30 429 H 43.5691 -0.185136 -2.56934 0
M  V30 430 H 43.5271 1.53502 -2.7438 0
M  V30 431 N 47.2992 1.18797 -1.03562 0
M  V30 432 C 48.5242 1.9314 -0.755764 0
M  V30 433 C 48.9492 1.7537 0.68022 0
M  V30 434 O 48.3072 1.06046 1.47051 0
M  V30 435 C 48.3552 3.42747 -1.12058 0
M  V30 436 O 47.4592 4.11683 -0.243124 0
M  V30 437 H 46.8002 0.602724 -0.278604 0
M  V30 438 H 49.3302 1.50678 -1.3841 0
M  V30 439 H 49.3402 3.93437 -1.08035 0
M  V30 440 H 48.0152 3.55002 -2.16672 0
M  V30 441 H 46.5922 3.71323 -0.342539 0
M  V30 442 N 48.7773 0.814389 1.34928 0
M  V30 443 C 50.0233 0.408167 1.99263 0
M  V30 444 C 50.3783 -1.0154 1.63424 0
M  V30 445 O 49.6713 -1.69607 0.891289 0
M  V30 446 C 49.8653 0.537781 3.53331 0
M  V30 447 C 49.6943 1.9724 4.04137 0
M  V30 448 C 48.4643 2.60245 4.33129 0
M  V30 449 C 50.6623 2.93801 4.2212 0
M  V30 450 N 48.6443 3.95036 4.69914 0
M  V30 451 C 50.0153 4.1348 4.6199 0
M  V30 452 C 52.0703 2.9053 4.04348 0
M  V30 453 C 50.7733 5.3033 4.85945 0
M  V30 454 C 52.7993 4.06589 4.29464 0
M  V30 455 C 52.1613 5.25017 4.69613 0
M  V30 456 H 48.2603 0.197289 0.756704 0
M  V30 457 H 50.8443 1.05728 1.63492 0
M  V30 458 H 49.0153 -0.0813868 3.88315 0
M  V30 459 H 50.7473 0.105389 4.04563 0
M  V30 460 H 47.5023 2.11545 4.23728 0
M  V30 461 H 47.9263 4.64455 4.92555 0
M  V30 462 H 52.5683 2.00115 3.72443 0
M  V30 463 H 50.2863 6.21309 5.16721 0
M  V30 464 H 53.8723 4.05447 4.17257 0
M  V30 465 H 52.7523 6.1333 4.88667 0
M  V30 466 N 50.2554 -1.46986 0.568584 0
M  V30 467 C 51.5324 -1.95592 -0.0174074 0
M  V30 468 C 51.9124 -1.51124 -1.47393 0
M  V30 469 O 51.2604 -0.755329 -2.15655 0
M  V30 470 C 51.4704 -3.48719 0.139913 0
M  V30 471 C 52.8184 -4.246 0.000426376 0
M  V30 472 O 53.8424 -3.56135 0.0680316 0
M  V30 473 O 52.7014 -5.46302 -0.146988 0
M  V30 474 H 49.7954 -0.82498 -0.0577599 0
M  V30 475 H 52.3414 -1.57335 0.635909 0
M  V30 476 H 51.1134 -3.73927 1.15301 0
M  V30 477 H 50.7364 -3.93771 -0.550491 0
M  V30 478 N 51.7335 -0.305618 -1.54608 0
M  V30 479 C 52.6635 0.561482 -2.26649 0
M  V30 480 C 53.6445 1.13415 -1.26772 0
M  V30 481 O 54.8295 1.16262 -1.55553 0
M  V30 482 C 51.9595 1.73122 -3.01075 0
M  V30 483 C 50.9135 1.2887 -4.08138 0
M  V30 484 C 50.2395 2.54396 -4.70305 0
M  V30 485 C 51.5395 0.416578 -5.20636 0
M  V30 486 H 53.2335 -0.0393902 -2.99374 0
M  V30 487 H 50.7795 -0.020385 -1.43986 0
M  V30 488 H 52.7325 2.34396 -3.50195 0
M  V30 489 H 51.4565 2.3584 -2.25936 0
M  V30 490 H 50.1155 0.698991 -3.59875 0
M  V30 491 H 49.7635 3.15439 -3.918 0
M  V30 492 H 49.4635 2.25486 -5.42614 0
M  V30 493 H 50.9875 3.16464 -5.2219 0
M  V30 494 H 52.4015 0.935116 -5.65622 0
M  V30 495 H 50.7985 0.221046 -5.99693 0
M  V30 496 H 51.8685 -0.557162 -4.81688 0
M  V30 497 N 53.2116 1.57565 -0.0334293 0
M  V30 498 C 54.6226 1.79746 0.504798 0
M  V30 499 C 54.9736 0.944091 1.71992 0
M  V30 500 O 54.0986 0.155694 2.15839 0
M  V30 501 C 54.6936 3.25997 0.922567 0
M  V30 502 C 53.2526 3.49159 1.40588 0
M  V30 503 C 52.3996 2.74785 0.372633 0
M  V30 504 H 55.3506 1.56565 -0.259436 0
M  V30 505 H 55.3716 3.35945 1.78666 0
M  V30 506 H 54.8836 3.88081 0.0379825 0
M  V30 507 H 52.9846 2.92332 2.31025 0
M  V30 508 H 53.0976 4.57873 1.41028 0
M  V30 509 H 51.4616 2.40391 0.841672 0
M  V30 510 H 52.2446 3.39587 -0.503559 0
M  V30 511 N 54.6897 -0.239769 1.55765 0
M  V30 512 C 55.9377 -0.964892 1.77579 0
M  V30 513 C 56.2587 -1.85582 0.598699 0
M  V30 514 O 55.5287 -1.92075 -0.385226 0
M  V30 515 H 54.1087 -0.359265 0.654933 0
M  V30 516 H 56.7707 -0.256001 1.93211 0
M  V30 517 H 55.8667 -1.58243 2.69009 0
M  V30 518 N 56.1678 -1.49265 -0.50573 0
M  V30 519 C 57.3928 -1.62478 -1.28902 0
M  V30 520 C 57.8178 -0.294332 -1.85783 0
M  V30 521 O 57.1758 0.737412 -1.65626 0
M  V30 522 C 57.2238 -2.69268 -2.39848 0
M  V30 523 O 56.3278 -2.28113 -3.43567 0
M  V30 524 H 55.6688 -0.54399 -0.380751 0
M  V30 525 H 58.1988 -1.95421 -0.605952 0
M  V30 526 H 58.2088 -2.91291 -2.85681 0
M  V30 527 H 56.8838 -3.65846 -1.97812 0
M  V30 528 H 55.4608 -2.16401 -3.03685 0
M  V30 529 N 57.6459 0.756429 -1.3826 0
M  V30 530 C 58.5959 1.86069 -1.31766 0
M  V30 531 C 59.5799 1.59621 -0.202483 0
M  V30 532 O 60.7719 1.7149 -0.438211 0
M  V30 533 C 57.9009 3.23742 -1.1422 0
M  V30 534 C 56.9869 3.56091 -2.30348 0
M  V30 535 N 57.3779 3.59517 -3.55783 0
M  V30 536 C 55.6759 3.86341 -2.22838 0
M  V30 537 C 56.3769 3.89052 -4.32451 0
M  V30 538 N 55.3529 4.05736 -3.61772 0
M  V30 539 H 59.1549 1.86992 -2.26741 0
M  V30 540 H 56.6689 0.953643 -1.31451 0
M  V30 541 H 58.6659 4.02761 -1.07652 0
M  V30 542 H 57.3259 3.24073 -0.201763 0
M  V30 543 H 58.3369 3.41347 -3.89491 0
M  V30 544 H 55.0139 3.94404 -1.36937 0
M  V30 545 H 56.4039 3.98349 -5.4108 0
M  V30 546 N 59.124 1.23083 0.984299 0
M  V30 547 C 60.37 1.06214 1.72761 0
M  V30 548 C 60.703 -0.400584 1.90024 0
M  V30 549 O 59.978 -1.29672 1.44967 0
M  V30 550 C 60.261 1.78375 3.12817 0
M  V30 551 C 60.114 3.32296 3.03149 0
M  V30 552 C 61.433 1.54309 4.12161 0
M  V30 553 H 58.552 0.387251 0.627061 0
M  V30 554 H 61.194 1.51536 1.14616 0
M  V30 555 H 59.344 1.39848 3.62457 0
M  V30 556 H 61.016 3.8032 2.61064 0
M  V30 557 H 59.259 3.6153 2.39747 0
M  V30 558 H 59.93 3.77972 4.02295 0
M  V30 559 H 62.406 1.87791 3.71314 0
M  V30 560 H 61.282 2.07281 5.08258 0
M  V30 561 H 61.543 0.477572 4.39513 0
M  V30 562 N 60.6021 -1.18246 1.0419 0
M  V30 563 C 62.0181 -1.40269 0.761366 0
M  V30 564 C 62.2181 -1.90777 -0.648578 0
M  V30 565 O 61.2741 -2.0929 -1.41258 0
M  V30 566 C 62.5871 -2.40237 1.8085 0
M  V30 567 C 64.1351 -2.53961 1.82955 0
M  V30 568 C 64.6101 -3.57194 2.86664 0
M  V30 569 N 66.1011 -3.64702 2.85563 0
M  V30 570 C 66.8361 -4.44309 3.6246 0
M  V30 571 N 66.3321 -5.27514 4.49111 0
M  V30 572 N 68.1251 -4.39084 3.50944 0
M  V30 573 H 60.2761 -0.837882 1.95175 0
M  V30 574 H 62.5391 -0.430608 0.84456 0
M  V30 575 H 62.2451 -2.10176 2.81991 0
M  V30 576 H 62.1191 -3.39601 1.64168 0
M  V30 577 H 64.5061 -2.83338 0.824855 0
M  V30 578 H 64.5871 -1.54706 2.03715 0
M  V30 579 H 64.2311 -3.28558 3.87314 0
M  V30 580 H 64.1611 -4.5613 2.6316 0
M  V30 581 H 66.6521 -3.05289 2.22727 0
M  V30 582 H 66.9651 -5.85411 5.04493 0
M  V30 583 H 65.3101 -5.2693 4.53178 0
M  V30 584 H 68.5011 -3.7313 2.82651 0
M  V30 585 H 68.6741 -5.00883 4.11121 0
M  V30 586 N 62.0802 -0.821533 -1.34494 0
M  V30 587 C 63.0102 -0.257138 -2.3208 0
M  V30 588 C 63.9912 0.625645 -1.58176 0
M  V30 589 O 65.1762 0.552811 -1.86166 0
M  V30 590 C 62.3062 0.582958 -3.42372 0
M  V30 591 C 61.2602 -0.202571 -4.2752 0
M  V30 592 C 60.5862 0.760179 -5.29269 0
M  V30 593 C 61.8862 -1.40998 -5.02908 0
M  V30 594 H 63.5802 -1.07247 -2.79532 0
M  V30 595 H 61.1262 -0.517163 -1.34393 0
M  V30 596 H 63.0792 0.987972 -4.09655 0
M  V30 597 H 61.8032 1.43133 -2.93565 0
M  V30 598 H 60.4622 -0.588936 -3.61838 0
M  V30 599 H 60.1102 1.60447 -4.76724 0
M  V30 600 H 59.8102 0.238809 -5.87115 0
M  V30 601 H 61.3342 1.16308 -5.9942 0
M  V30 602 H 62.7482 -1.07905 -5.63054 0
M  V30 603 H 61.1452 -1.86689 -5.70322 0
M  V30 604 H 62.2152 -2.1889 -4.32684 0
M  V30 605 N 63.5583 1.46682 -0.576371 0
M  V30 606 C 64.9693 1.86112 -0.148091 0
M  V30 607 C 65.3203 1.48073 1.2872 0
M  V30 608 O 64.4453 0.892656 1.97131 0
M  V30 609 C 65.0403 3.37786 -0.261982 0
M  V30 610 C 63.5993 3.76235 0.111384 0
M  V30 611 C 62.7463 2.70713 -0.60083 0
M  V30 612 H 65.6973 1.37927 -0.78497 0
M  V30 613 H 65.7183 3.77007 0.514364 0
M  V30 614 H 65.2303 3.6544 -1.30671 0
M  V30 615 H 63.3313 3.54198 1.15649 0
M  V30 616 H 63.4443 4.78391 -0.26052 0
M  V30 617 H 61.8083 2.54666 -0.0417783 0
M  V30 618 H 62.5913 3.01208 -1.64708 0
M  V30 619 N 65.0364 0.313813 1.54444 0
M  V30 620 C 66.2844 -0.291099 1.99993 0
M  V30 621 C 66.6054 -1.53418 1.20366 0
M  V30 622 O 65.8754 -1.93544 0.302927 0
M  V30 623 H 64.4554 -0.110552 0.738774 0
M  V30 624 H 67.1174 0.428106 1.9014 0
M  V30 625 H 66.2134 -0.554268 3.07139 0
M  V30 626 N 66.5145 -1.57545 0.0417849 0
M  V30 627 C 67.9305 -1.56467 -0.314704 0
M  V30 628 C 68.1305 -1.04859 -1.72066 0
M  V30 629 O 67.1865 -0.700983 -2.42575 0
M  V30 630 C 68.4995 -3.00317 -0.15174 0
M  V30 631 C 70.0475 -3.12201 -0.223553 0
M  V30 632 C 70.5225 -4.57913 -0.0892295 0
M  V30 633 N 72.0135 -4.6297 -0.145808 0
M  V30 634 C 72.7485 -5.73362 -0.0658459 0
M  V30 635 N 72.2445 -6.92769 0.0659282 0
M  V30 636 N 74.0375 -5.6197 -0.12075 0
M  V30 637 H 66.1885 -1.89416 0.961014 0
M  V30 638 H 68.4515 -0.871862 0.372237 0
M  V30 639 H 68.1575 -3.42073 0.817254 0
M  V30 640 H 68.0315 -3.65892 -0.916692 0
M  V30 641 H 70.4185 -2.70349 -1.18301 0
M  V30 642 H 70.4995 -2.49323 0.571994 0
M  V30 643 H 70.1435 -5.00448 0.866867 0
M  V30 644 H 70.0735 -5.18786 -0.903802 0
M  V30 645 H 72.5645 -3.7709 -0.247286 0
M  V30 646 H 72.8775 -7.72707 0.119905 0
M  V30 647 H 71.2225 -6.94927 0.100885 0
M  V30 648 H 74.4135 -4.67572 -0.222187 0
M  V30 649 H 74.5865 -6.47977 -0.0549735 0
M  V30 650 N 67.9926 0.231505 -1.5589 0
M  V30 651 C 68.9556 1.27028 -1.90779 0
M  V30 652 C 69.9556 1.40308 -0.785507 0
M  V30 653 O 71.1456 1.38744 -1.05336 0
M  V30 654 C 68.2776 2.64566 -2.14983 0
M  V30 655 H 69.4706 0.973017 -2.83677 0
M  V30 656 H 67.0236 0.471486 -1.49019 0
M  V30 657 H 67.7586 2.99406 -1.24604 0
M  V30 658 H 67.5436 2.56305 -2.96732 0
M  V30 659 H 69.0336 3.39543 -2.43105 0
M  V30 660 N 69.4707 1.49531 0.497807 0
M  V30 661 C 70.4027 1.62559 1.61578 0
M  V30 662 C 71.4157 0.508134 1.54667 0
M  V30 663 O 72.6047 0.780309 1.60541 0
M  V30 664 C 69.7047 1.56925 3.00379 0
M  V30 665 C 68.8777 2.84257 3.3244 0
M  V30 666 C 67.9367 2.71632 4.50669 0
M  V30 667 O 66.9627 3.4557 4.52294 0
M  V30 668 N 68.1647 1.83391 5.5077 0
M  V30 669 H 70.9297 2.58981 1.50828 0
M  V30 670 H 68.4907 1.4666 0.685743 0
M  V30 671 H 70.4827 1.46129 3.77397 0
M  V30 672 H 69.0527 0.683483 3.05037 0
M  V30 673 H 68.2727 3.09381 2.44289 0
M  V30 674 H 69.5607 3.68666 3.5066 0
M  V30 675 H 68.9587 1.22583 5.52259 0
M  V30 676 H 67.5157 1.78515 6.26878 0
M  V30 677 N 70.9488 -0.749086 1.3866 0
M  V30 678 C 72.1738 -1.54344 1.38538 0
M  V30 679 C 72.5988 -1.88088 -0.0216655 0
M  V30 680 O 71.9568 -1.50899 -1.00494 0
M  V30 681 C 72.0048 -2.8164 2.25192 0
M  V30 682 O 71.1088 -3.7698 1.67212 0
M  V30 683 H 70.4498 -0.466654 0.472367 0
M  V30 684 H 72.9798 -0.925355 1.82478 0
M  V30 685 H 72.9898 -3.30519 2.3921 0
M  V30 686 H 71.6648 -2.56411 3.27454 0
M  V30 687 H 70.2418 -3.35699 1.6236 0
M  V30 688 N 72.4269 -1.23603 -0.977757 0
M  V30 689 C 73.6749 -1.06759 -1.71601 0
M  V30 690 C 73.9959 0.395929 -1.90938 0
M  V30 691 O 73.2659 1.28356 -1.47992 0
M  V30 692 H 71.8459 -0.392062 -0.635843 0
M  V30 693 H 74.5079 -1.55362 -1.1768 0
M  V30 694 H 73.6039 -1.55763 -2.70452 0
M  V30 695 N 73.905 1.17692 -1.04816 0
M  V30 696 C 75.133 1.91786 -0.776254 0
M  V30 697 C 75.548 1.76604 0.667577 0
M  V30 698 O 74.905 1.10067 1.45573 0
M  V30 699 C 74.956 3.42967 -1.14263 0
M  V30 700 O 74.677 3.57678 -2.52978 0
M  V30 701 C 76.178 4.34144 -0.896311 0
M  V30 702 H 73.398 0.608624 -0.282519 0
M  V30 703 H 75.942 1.49268 -1.39783 0
M  V30 704 H 74.097 3.83245 -0.565874 0
M  V30 705 H 74.511 4.51319 -2.67229 0
M  V30 706 H 75.985 5.38744 -1.20244 0
M  V30 707 H 76.462 4.38876 0.168636 0
M  V30 708 H 77.068 3.99574 -1.45672 0
M  V30 709 N 75.3831 0.828654 1.34056 0
M  V30 710 C 76.7991 0.515135 1.51058 0
M  V30 711 C 76.9991 -0.959581 1.77184 0
M  V30 712 O 76.0551 -1.74382 1.82612 0
M  V30 713 C 77.3681 1.37963 2.67183 0
M  V30 714 C 78.9161 1.37735 2.81066 0
M  V30 715 C 79.3911 2.22645 4.00241 0
M  V30 716 N 80.8821 2.203 4.07458 0
M  V30 717 C 81.6171 2.82744 4.98842 0
M  V30 718 N 81.1131 3.54201 5.9541 0
M  V30 719 N 82.9061 2.72268 4.91759 0
M  V30 720 H 75.0571 1.78343 1.15358 0
M  V30 721 H 77.3201 0.760304 0.566252 0
M  V30 722 H 77.0261 2.42714 2.54525 0
M  V30 723 H 76.9001 1.0484 3.62338 0
M  V30 724 H 79.2871 0.337593 2.93163 0
M  V30 725 H 79.3681 1.74859 1.86703 0
M  V30 726 H 79.0121 3.26674 3.88905 0
M  V30 727 H 78.9421 1.82869 4.93829 0
M  V30 728 H 81.4331 1.68327 3.38341 0
M  V30 729 H 81.7461 3.9908 6.61782 0
M  V30 730 H 80.0911 3.58308 5.95517 0
M  V30 731 H 83.2821 2.16014 4.15278 0
M  V30 732 H 83.4551 3.21219 5.62781 0
M  V30 733 N 76.8612 -1.46375 0.584142 0
M  V30 734 C 78.1092 -2.01978 0.0701287 0
M  V30 735 C 78.4302 -1.4579 -1.295 0
M  V30 736 O 77.7002 -0.64314 -1.85042 0
M  V30 737 H 76.2802 -0.746648 0.0229345 0
M  V30 738 H 78.9422 -1.79461 0.760245 0
M  V30 739 H 78.0382 -3.121 0.0022064 0
M  V30 740 N 78.3393 -0.321999 -1.54275 0
M  V30 741 C 79.5873 0.280489 -2.00144 0
M  V30 742 C 79.9083 1.52777 -1.21178 0
M  V30 743 O 79.1783 1.9338 -0.313187 0
M  V30 744 H 77.7583 0.106632 -0.73935 0
M  V30 745 H 80.4203 -0.438184 -1.8991 0
M  V30 746 H 79.5163 0.537972 -3.07428 0
M  V30 747 N 79.8174 1.5752 -0.0501392 0
M  V30 748 C 80.7804 2.1037 0.909786 0
M  V30 749 C 81.7804 1.02308 1.24056 0
M  V30 750 O 82.9704 1.28385 1.17741 0
M  V30 751 C 80.1024 2.58708 2.21998 0
M  V30 752 H 81.2954 2.96479 0.451665 0
M  V30 753 H 78.8484 1.55038 0.198248 0
M  V30 754 H 79.5834 1.75989 2.72394 0
M  V30 755 H 79.3684 3.37675 1.99295 0
M  V30 756 H 80.8584 2.99747 2.9076 0
M  V30 757 N 81.2955 -0.223234 1.56011 0
M  V30 758 C 82.5435 -0.946003 1.78592 0
M  V30 759 C 82.8645 -1.84936 0.618349 0
M  V30 760 O 82.1345 -1.92473 -0.364833 0
M  V30 761 H 80.7145 -0.352298 0.658707 0
M  V30 762 H 83.3765 -0.235494 1.93472 0
M  V30 763 H 82.4725 -1.55381 2.70672 0
M  V30 764 N 82.7736 -1.49793 -0.48987 0
M  V30 765 C 83.7216 -1.67783 -1.61095 0
M  V30 766 C 84.7156 -0.543683 -1.60438 0
M  V30 767 O 85.9216 -0.723647 -1.64813 0
M  V30 768 H 82.2966 -0.529255 -0.534222 0
M  V30 769 H 84.2676 -2.61861 -1.43078 0
M  V30 770 C 83.0166 -1.77191 -2.99164 0
M  V30 771 H 82.3396 -2.63841 -3.0038 0
M  V30 772 H 83.7796 -1.93809 -3.77113 0
M  V30 773 C 82.2386 -0.519203 -3.32875 0
M  V30 774 O 82.7686 0.350124 -4.00171 0
M  V30 775 N 80.9746 -0.378816 -2.8812 0
M  V30 776 H 80.5216 -1.08725 -2.33531 0
M  V30 777 H 80.4796 0.458239 -3.11043 0
M  V30 778 N 84.2517 0.741722 -1.39055 0
M  V30 779 C 85.4797 1.53098 -1.39171 0
M  V30 780 C 85.8947 1.88794 0.0155099 0
M  V30 781 O 85.2517 1.53626 0.985159 0
M  V30 782 C 85.3027 2.82274 -2.2584 0
M  V30 783 O 85.0237 2.48097 -3.61081 0
M  V30 784 C 86.5247 3.76343 -2.34266 0
M  V30 785 H 83.7447 0.473335 -0.4756 0
M  V30 786 H 86.2887 0.917045 -1.82785 0
M  V30 787 H 84.4437 3.40015 -1.85656 0
M  V30 788 H 84.8577 3.31029 -4.06842 0
M  V30 789 H 86.3317 4.63898 -2.9917 0
M  V30 790 H 86.8087 4.17619 -1.35982 0
M  V30 791 H 87.4147 3.24523 -2.74891 0
M  V30 792 N 85.7298 1.2412 0.971189 0
M  V30 793 C 86.9548 1.10667 1.75407 0
M  V30 794 C 87.3798 -0.337048 1.85056 0
M  V30 795 O 86.7378 -1.24396 1.31892 0
M  V30 796 C 86.7858 1.74726 3.15441 0
M  V30 797 O 85.8898 1.01566 3.99697 0
M  V30 798 H 85.2308 0.387341 0.539317 0
M  V30 799 H 87.7608 1.64358 1.2185 0
M  V30 800 H 87.7708 1.80341 3.6598 0
M  V30 801 H 86.4458 2.79773 3.07734 0
M  V30 802 H 85.0228 1.03713 3.58187 0
M  V30 803 N 87.2079 -1.17134 1.05439 0
M  V30 804 C 88.4359 -1.91372 0.786414 0
M  V30 805 C 88.8509 -1.76955 -0.658202 0
M  V30 806 O 88.2079 -1.10838 -1.44987 0
M  V30 807 C 88.2589 -3.42356 1.1608 0
M  V30 808 O 87.9799 -3.56332 2.54871 0
M  V30 809 C 89.4809 -4.33663 0.919322 0
M  V30 810 H 86.7009 -0.607118 0.285743 0
M  V30 811 H 89.2449 -1.48525 1.40572 0
M  V30 812 H 87.3999 -3.82939 0.586191 0
M  V30 813 H 87.8139 -4.49896 2.69618 0
M  V30 814 H 89.2879 -5.38099 1.231 0
M  V30 815 H 89.7649 -4.38959 -0.145359 0
M  V30 816 H 90.3709 -3.98796 1.47789 0
M  V30 817 N 88.686 -0.835752 -1.33615 0
M  V30 818 C 89.911 -0.442389 -2.02627 0
M  V30 819 C 90.336 0.947735 -1.62479 0
M  V30 820 O 89.694 1.61907 -0.815826 0
M  V30 821 C 89.742 -0.567216 -3.56111 0
M  V30 822 O 88.846 0.407799 -4.10379 0
M  V30 823 H 88.187 -0.180278 -0.639059 0
M  V30 824 H 90.717 -1.12972 -1.70583 0
M  V30 825 H 90.727 -0.447708 -4.05536 0
M  V30 826 H 89.402 -1.58103 -3.84677 0
M  V30 827 H 87.979 0.246107 -3.72087 0
M  V30 828 N 90.1641 1.46063 -0.591896 0
M  V30 829 C 91.4041 2.04228 -0.0838014 0
M  V30 830 C 91.7681 1.45231 1.25587 0
M  V30 831 O 92.9691 1.94653 1.85375 0
M  V30 832 C 91.2401 3.57389 -0.0286282 0
M  V30 833 S 92.7991 4.3678 0.420557 0
M  V30 834 H 89.6171 0.709762 -0.0419319 0
M  V30 835 H 92.2191 1.78983 -0.786465 0
M  V30 836 H 90.9231 3.97843 -1.00743 0
M  V30 837 H 90.4541 3.87185 0.69652 0
M  V30 838 H 92.4691 4.67131 1.67341 0
M  V30 839 N 91.6422 0.330177 1.54103 0
M  V30 840 C 92.8902 -0.269871 2.0029 0
M  V30 841 C 93.2112 -1.52133 1.21986 0
M  V30 842 O 92.4812 -1.93212 0.323438 0
M  V30 843 H 91.0612 -0.10271 0.739905 0
M  V30 844 H 93.7232 0.448249 1.89675 0
M  V30 845 H 92.8192 -0.52166 3.07709 0
M  V30 846 N 93.1203 -1.57491 0.0584922 0
M  V30 847 C 94.3973 -1.84346 -0.653918 0
M  V30 848 C 94.7773 -0.948355 -1.88599 0
M  V30 849 O 94.1253 -0.0112403 -2.28497 0
M  V30 850 C 94.3353 -3.34239 -1.00425 0
M  V30 851 C 95.6833 -4.01431 -1.38342 0
M  V30 852 O 96.7073 -3.38907 -1.09637 0
M  V30 853 O 95.5663 -5.11683 -1.91943 0
M  V30 854 H 92.6603 -0.761112 -0.323478 0
M  V30 855 H 95.2063 -1.6947 0.0884125 0
M  V30 856 H 93.9783 -3.91089 -0.128625 0
M  V30 857 H 93.6013 -3.54329 -1.80378 0
M  V30 858 N 94.5984 0.214957 -1.56127 0
M  V30 859 C 95.8234 0.95924 -1.83884 0
M  V30 860 C 96.2484 1.7689 -0.639644 0
M  V30 861 O 95.6064 1.76566 0.411601 0
M  V30 862 C 95.6544 1.84723 -3.09693 0
M  V30 863 O 94.7584 2.94346 -2.8885 0
M  V30 864 H 94.0994 0.27125 -0.606069 0
M  V30 865 H 96.6294 0.226276 -2.03345 0
M  V30 866 H 96.6394 2.25576 -3.39969 0
M  V30 867 H 95.3144 1.25218 -3.96602 0
M  V30 868 H 93.8914 2.57391 -2.69823 0
M  V30 869 N 96.0765 1.50051 0.48192 0
M  V30 870 C 97.0245 1.68635 1.60203 0
M  V30 871 C 98.0185 0.552184 1.60148 0
M  V30 872 O 99.2245 0.732377 1.64427 0
M  V30 873 H 95.5995 0.532081 0.531407 0
M  V30 874 H 97.5705 2.62616 1.41688 0
M  V30 875 C 96.3195 1.78775 2.9822 0
M  V30 876 H 95.6425 2.6543 2.98976 0
M  V30 877 H 97.0825 1.95806 3.7608 0
M  V30 878 C 95.5415 0.536849 3.32595 0
M  V30 879 O 96.0715 -0.328897 4.00351 0
M  V30 880 N 94.2775 0.394091 2.87915 0
M  V30 881 H 93.8245 1.09962 2.32951 0
M  V30 882 H 93.7825 -0.441737 3.11281 0
M  V30 883 N 97.5546 -0.734337 1.39446 0
M  V30 884 C 98.7796 -1.52866 1.40167 0
M  V30 885 C 99.2046 -1.881 -0.00171513 0
M  V30 886 O 98.5626 -1.51957 -0.988879 0
M  V30 887 C 98.6106 -2.79235 2.28167 0
M  V30 888 O 97.7146 -3.75185 1.71201 0
M  V30 889 H 97.0556 -0.461618 0.477289 0
M  V30 890 H 99.5856 -0.905949 1.8345 0
M  V30 891 H 99.5956 -3.27963 2.42702 0
M  V30 892 H 98.2706 -2.52923 3.30156 0
M  V30 893 H 96.8476 -3.33958 1.65912 0
M  V30 894 N 99.0327 -1.24633 -0.964593 0
M  V30 895 C 100.282 -1.08188 -1.7023 0
M  V30 896 C 100.595 0.37873 -1.91898 0
M  V30 897 O 101.801 0.663427 -2.6327 0
M  V30 898 C 100.257 -1.88773 -3.06419 0
M  V30 899 C 99.8647 -3.39263 -2.92582 0
M  V30 900 C 101.609 -1.80867 -3.84041 0
M  V30 901 C 99.5157 -4.1218 -4.24101 0
M  V30 902 H 98.4457 -0.401245 -0.638372 0
M  V30 903 H 101.097 -1.48742 -1.07462 0
M  V30 904 H 99.4787 -1.41035 -3.70034 0
M  V30 905 H 100.653 -3.94603 -2.37961 0
M  V30 906 H 98.9677 -3.48154 -2.28424 0
M  V30 907 H 101.565 -2.32646 -4.81435 0
M  V30 908 H 101.908 -0.774543 -4.09031 0
M  V30 909 H 102.441 -2.26301 -3.27159 0
M  V30 910 H 99.1797 -5.15965 -4.04303 0
M  V30 911 H 98.6997 -3.61626 -4.78526 0
M  V30 912 H 100.379 -4.19349 -4.92702 0
M  V30 913 N 100.511 1.16574 -1.06058 0
M  V30 914 C 101.751 1.88723 -0.78504 0
M  V30 915 C 102.115 1.79706 0.676006 0
M  V30 916 O 103.316 2.46757 1.06603 0
M  V30 917 C 101.587 3.34338 -1.26304 0
M  V30 918 S 103.146 4.24366 -1.1162 0
M  V30 919 H 99.9638 0.651448 -0.284846 0
M  V30 920 H 102.566 1.40732 -1.35701 0
M  V30 921 H 101.27 3.38439 -2.32136 0
M  V30 922 H 100.801 3.87378 -0.685719 0
M  V30 923 H 102.816 4.96179 -0.0456539 0
M  V30 924 N 101.989 0.842826 1.3317 0
M  V30 925 C 103.4 0.496651 1.79973 0
M  V30 926 C 103.751 -0.984641 1.69703 0
M  V30 927 O 102.876 -1.76743 1.24863 0
M  V30 928 C 103.471 0.894727 3.26772 0
M  V30 929 C 102.03 0.600629 3.71577 0
M  V30 930 C 101.177 1.10091 2.5451 0
M  V30 931 H 104.128 1.03116 1.20635 0
M  V30 932 H 104.149 0.206347 3.7994 0
M  V30 933 H 103.661 1.97287 3.34215 0
M  V30 934 H 101.762 -0.467284 3.69658 0
M  V30 935 H 101.875 1.15863 4.64879 0
M  V30 936 H 100.239 0.52162 2.49301 0
M  V30 937 H 101.022 2.18591 2.64713 0
M  V30 938 N 103.467 -1.45747 0.599634 0
M  V30 939 C 104.43 -2.28917 -0.113835 0
M  V30 940 C 105.43 -1.3933 -0.802729 0
M  V30 941 O 106.62 -1.61534 -0.652103 0
M  V30 942 C 103.752 -3.20152 -1.17114 0
M  V30 943 H 104.945 -2.93478 0.617289 0
M  V30 944 H 102.498 -1.52137 0.358327 0
M  V30 945 H 103.233 -2.60374 -1.93329 0
M  V30 946 H 103.018 -3.86133 -0.681468 0
M  V30 947 H 104.508 -3.82708 -1.67105 0
M  V30 948 N 104.945 -0.338344 -1.53925 0
M  V30 949 C 106.356 0.146651 -1.86123 0
M  V30 950 C 106.707 1.5042 -1.2597 0
M  V30 951 O 105.832 2.08723 -0.571294 0
M  V30 952 C 106.427 0.272879 -3.37699 0
M  V30 953 C 104.986 0.702103 -3.69794 0
M  V30 954 C 104.133 -0.167304 -2.76795 0
M  V30 955 H 107.084 -0.558123 -1.48562 0
M  V30 956 H 107.105 1.10128 -3.64214 0
M  V30 957 H 106.617 -0.715307 -3.81451 0
M  V30 958 H 104.718 1.6995 -3.31584 0
M  V30 959 H 104.831 0.495604 -4.7653 0
M  V30 960 H 103.195 0.359527 -2.5215 0
M  V30 961 H 103.978 -1.15253 -3.23375 0
M  V30 962 N 106.423 1.57458 -0.0668435 0
M  V30 963 C 107.648 1.9804 0.616027 0
M  V30 964 C 108.073 0.944771 1.62652 0
M  V30 965 O 107.431 -0.0902094 1.81075 0
M  V30 966 C 107.479 3.37665 1.26549 0
M  V30 967 O 106.583 3.36701 2.38131 0
M  V30 968 H 105.924 0.644719 0.158849 0
M  V30 969 H 108.454 2.04121 -0.139891 0
M  V30 970 H 108.464 3.7474 1.6135 0
M  V30 971 H 107.139 4.12573 0.525016 0
M  V30 972 H 105.716 3.1139 2.0516 0
M  V30 973 N 107.901 -0.206675 1.56239 0
M  V30 974 C 109.129 -0.945345 1.8404 0
M  V30 975 C 109.544 -1.77336 0.647885 0
M  V30 976 O 108.901 -1.78425 -0.383511 0
M  V30 977 C 108.952 -1.8509 3.10522 0
M  V30 978 O 108.673 -1.05634 4.25174 0
M  V30 979 C 110.174 -2.70222 3.51418 0
M  V30 980 H 107.394 -0.276372 0.61144 0
M  V30 981 H 109.938 -0.217417 2.03341 0
M  V30 982 H 108.093 -2.53259 2.93153 0
M  V30 983 H 108.507 -1.67238 4.97124 0
M  V30 984 H 109.981 -3.29438 4.42916 0
M  V30 985 H 110.458 -3.43358 2.73864 0
M  V30 986 H 111.064 -2.07443 3.71278 0
M  V30 987 N 109.379 -1.50304 -0.473955 0
M  V30 988 C 110.312 -1.63595 -1.59097 0
M  V30 989 C 111.29 -0.484142 -1.55225 0
M  V30 990 O 112.474 -0.703271 -1.7489 0
M  V30 991 C 109.601 -1.61589 -2.97669 0
M  V30 992 C 108.647 -2.82295 -3.19705 0
M  V30 993 S 109.48 -4.43635 -2.99913 0
M  V30 994 C 110.636 -4.44317 -4.40832 0
M  V30 995 H 110.869 -2.58082 -1.47583 0
M  V30 996 H 108.402 -1.39531 -0.661087 0
M  V30 997 H 110.36 -1.61116 -3.7756 0
M  V30 998 H 109.021 -0.683421 -3.06575 0
M  V30 999 H 108.214 -2.77188 -4.20931 0
M  V30 1000 H 107.816 -2.8032 -2.47582 0
M  V30 1001 H 110.108 -4.17703 -5.33414 0
M  V30 1002 H 111.051 -5.45911 -4.50984 0
M  V30 1003 H 111.459 -3.74059 -4.22777 0
M  V30 1004 N 110.857 0.726932 -1.39834 0
M  V30 1005 C 112.082 1.52121 -1.40976 0
M  V30 1006 C 112.507 1.88098 -0.00826029 0
M  V30 1007 O 111.865 1.52479 0.980807 0
M  V30 1008 C 111.913 2.78021 -2.29644 0
M  V30 1009 O 111.017 3.74272 -1.73188 0
M  V30 1010 H 110.358 0.45908 -0.479731 0
M  V30 1011 H 112.888 0.896207 -1.83927 0
M  V30 1012 H 112.898 3.26671 -2.44438 0
M  V30 1013 H 111.573 2.51169 -3.31492 0
M  V30 1014 H 110.15 3.33073 -1.6768 0
M  V30 1015 N 112.336 1.25143 0.95797 0
M  V30 1016 C 113.283 1.05235 2.05412 0
M  V30 1017 C 114.253 -0.0374561 1.66058 0
M  V30 1018 O 115.438 0.119073 1.90428 0
M  V30 1019 C 112.578 0.673589 3.38462 0
M  V30 1020 C 111.691 1.8379 3.90954 0
M  V30 1021 C 110.826 1.40381 5.12315 0
M  V30 1022 C 109.865 2.53746 5.57027 0
M  V30 1023 N 109.002 2.11136 6.69601 0
M  V30 1024 H 113.842 1.99048 2.21774 0
M  V30 1025 H 111.379 0.991277 1.08683 0
M  V30 1026 H 113.337 0.434964 4.14926 0
M  V30 1027 H 111.967 -0.227554 3.21997 0
M  V30 1028 H 111.019 2.18992 3.11041 0
M  V30 1029 H 112.331 2.68937 4.20089 0
M  V30 1030 H 111.485 1.12464 5.96185 0
M  V30 1031 H 110.224 0.523015 4.84887 0
M  V30 1032 H 109.229 2.82412 4.71724 0
M  V30 1033 H 110.454 3.42398 5.86464 0
M  V30 1034 H 108.4 1.25468 6.4389 0
M  V30 1035 H 108.317 2.89832 6.98236 0
M  V30 1036 H 109.585 1.86385 7.56889 0
M  V30 1037 N 113.814 -1.1601 1.06675 0
M  V30 1038 C 114.777 -2.18724 0.685001 0
M  V30 1039 C 115.777 -1.58496 -0.271246 0
M  V30 1040 O 116.967 -1.74119 -0.0531156 0
M  V30 1041 C 114.099 -3.40899 0.00853648 0
M  V30 1042 H 115.292 -2.54011 1.59431 0
M  V30 1043 H 112.845 -1.30352 0.862441 0
M  V30 1044 H 113.58 -3.11173 -0.913337 0
M  V30 1045 H 113.365 -3.8587 0.696204 0
M  V30 1046 H 114.855 -4.16886 -0.24414 0
M  V30 1047 N 115.292 -0.849877 -1.32721 0
M  V30 1048 C 116.202 -0.293791 -2.32753 0
M  V30 1049 C 117.218 0.585906 -1.63839 0
M  V30 1050 O 118.394 0.487413 -1.95413 0
M  V30 1051 C 115.459 0.512752 -3.42887 0
M  V30 1052 C 114.52 -0.39252 -4.27502 0
M  V30 1053 C 113.753 0.375625 -5.32377 0
M  V30 1054 O 113.976 1.60613 -5.4732 0
M  V30 1055 O 112.91 -0.256094 -6.01355 0
M  V30 1056 H 116.736 -1.12242 -2.82197 0
M  V30 1057 H 114.321 -0.612685 -1.36259 0
M  V30 1058 H 116.203 0.970704 -4.10067 0
M  V30 1059 H 114.878 1.31826 -2.95641 0
M  V30 1060 H 113.785 -0.898547 -3.63149 0
M  V30 1061 H 115.118 -1.16309 -4.7826 0
M  V30 1062 N 116.77 1.45427 -0.607355 0
M  V30 1063 C 117.68 2.34325 0.113463 0
M  V30 1064 C 118.696 1.51226 0.860617 0
M  V30 1065 O 119.872 1.84029 0.818255 0
M  V30 1066 C 116.937 3.28839 1.09844 0
M  V30 1067 C 115.998 4.27844 0.353271 0
M  V30 1068 C 115.231 5.17842 1.29133 0
M  V30 1069 O 115.454 5.11264 2.52913 0
M  V30 1070 O 114.388 5.96713 0.788523 0
M  V30 1071 H 118.214 2.97364 -0.617094 0
M  V30 1072 H 115.799 1.44807 -0.367619 0
M  V30 1073 H 117.681 3.8708 1.66575 0
M  V30 1074 H 116.356 2.68365 1.81003 0
M  V30 1075 H 115.263 3.7322 -0.256494 0
M  V30 1076 H 116.596 4.91173 -0.317822 0
M  V30 1077 N 118.248 0.346503 1.53744 0
M  V30 1078 C 119.211 -0.496439 2.23759 0
M  V30 1079 C 120.211 -1.0252 1.2388 0
M  V30 1080 O 121.401 -0.913974 1.48297 0
M  V30 1081 C 118.533 -1.69187 2.95954 0
M  V30 1082 H 119.726 0.115952 2.99676 0
M  V30 1083 H 117.279 0.0978939 1.55993 0
M  V30 1084 H 118.014 -2.34288 2.24231 0
M  V30 1085 H 117.799 -1.31989 3.69217 0
M  V30 1086 H 119.289 -2.28969 3.49232 0
M  V30 1087 N 119.726 -1.57421 0.075193 0
M  V30 1088 C 120.673 -2.12915 -0.890843 0
M  V30 1089 C 121.643 -1.04252 -1.29309 0
M  V30 1090 O 122.828 -1.31933 -1.37834 0
M  V30 1091 C 119.968 -2.69795 -2.15186 0
M  V30 1092 C 119.081 -3.92624 -1.80194 0
M  V30 1093 C 118.216 -4.37736 -3.00933 0
M  V30 1094 C 117.255 -5.53205 -2.61974 0
M  V30 1095 N 116.392 -5.9326 -3.75483 0
M  V30 1096 H 121.232 -2.95156 -0.410735 0
M  V30 1097 H 118.769 -1.45854 -0.191086 0
M  V30 1098 H 120.727 -3.00883 -2.89008 0
M  V30 1099 H 119.357 -1.90313 -2.60731 0
M  V30 1100 H 118.409 -3.67977 -0.964218 0
M  V30 1101 H 119.721 -4.76482 -1.47534 0
M  V30 1102 H 118.875 -4.70503 -3.8303 0
M  V30 1103 H 117.614 -3.52739 -3.36789 0
M  V30 1104 H 116.619 -5.20086 -1.783 0
M  V30 1105 H 117.844 -6.39936 -2.27284 0
M  V30 1106 H 115.79 -5.11212 -4.11094 0
M  V30 1107 H 115.707 -6.71865 -3.46602 0
M  V30 1108 H 116.975 -6.30651 -4.58148 0
M  V30 1109 N 121.204 0.198386 -1.56346 0
M  V30 1110 C 122.151 1.24589 -1.94284 0
M  V30 1111 C 123.121 1.454 -0.802997 0
M  V30 1112 O 124.306 1.58588 -1.06087 0
M  V30 1113 C 121.446 2.58631 -2.28482 0
M  V30 1114 C 120.559 2.45426 -3.55514 0
M  V30 1115 C 119.694 3.7215 -3.79049 0
M  V30 1116 C 118.733 3.53763 -4.99518 0
M  V30 1117 N 117.87 4.72491 -5.19323 0
M  V30 1118 H 122.71 0.915356 -2.83593 0
M  V30 1119 H 120.247 0.440629 -1.40346 0
M  V30 1120 H 122.205 3.3672 -2.46324 0
M  V30 1121 H 120.835 2.89734 -1.42317 0
M  V30 1122 H 119.887 1.58652 -3.45737 0
M  V30 1123 H 121.199 2.27772 -4.43758 0
M  V30 1124 H 120.353 4.58679 -3.97113 0
M  V30 1125 H 119.092 3.92754 -2.89129 0
M  V30 1126 H 118.097 2.65619 -4.8138 0
M  V30 1127 H 119.322 3.34607 -5.90944 0
M  V30 1128 H 117.268 4.93365 -4.3235 0
M  V30 1129 H 117.185 4.5765 -6.01741 0
M  V30 1130 H 118.453 5.6038 -5.41843 0
M  V30 1131 N 122.682 1.50554 0.465978 0
M  V30 1132 C 123.612 1.72722 1.57128 0
M  V30 1133 C 124.593 0.576294 1.6004 0
M  V30 1134 O 125.778 0.81598 1.76225 0
M  V30 1135 C 122.908 1.82605 2.95419 0
M  V30 1136 C 121.862 2.97835 3.07373 0
M  V30 1137 C 121.188 2.92867 4.47363 0
M  V30 1138 C 122.488 4.38265 2.84114 0
M  V30 1139 H 124.182 2.65267 1.38829 0
M  V30 1140 H 121.728 1.2765 0.666441 0
M  V30 1141 H 123.681 1.96698 3.72677 0
M  V30 1142 H 122.405 0.866858 3.14886 0
M  V30 1143 H 121.064 2.83401 2.3255 0
M  V30 1144 H 120.712 1.94783 4.63755 0
M  V30 1145 H 120.412 3.70227 4.56296 0
M  V30 1146 H 121.936 3.09015 5.26633 0
M  V30 1147 H 123.35 4.53198 3.51118 0
M  V30 1148 H 121.747 5.17115 3.04487 0
M  V30 1149 H 122.817 4.50281 1.7993 0
M  V30 1150 N 124.16 -0.719506 1.40217 0
M  V30 1151 C 125.123 -1.8153 1.39927 0
M  V30 1152 C 126.123 -1.58095 0.293723 0
M  V30 1153 O 127.313 -1.65209 0.552429 0
M  V30 1154 C 124.445 -3.19561 1.18716 0
M  V30 1155 H 125.638 -1.83186 2.37451 0
M  V30 1156 H 123.191 -0.924746 1.26008 0
M  V30 1157 H 123.926 -3.23557 0.219366 0
M  V30 1158 H 123.711 -3.3797 1.98793 0
M  V30 1159 H 125.201 -3.99598 1.21291 0
M  V30 1160 N 125.638 -1.25649 -0.95132 0
M  V30 1161 C 126.886 -1.10375 -1.69298 0
M  V30 1162 C 127.207 0.355339 -1.91735 0
M  V30 1163 O 126.477 1.25188 -1.50681 0
M  V30 1164 H 125.057 -0.405461 -0.627384 0
M  V30 1165 H 127.719 -1.57823 -1.14358 0
M  V30 1166 H 126.815 -1.61465 -2.67087 0
M  V30 1167 N 127.117 1.15442 -1.07289 0
M  V30 1168 C 128.533 1.38201 -0.798288 0
M  V30 1169 C 128.733 1.92429 0.597769 0
M  V30 1170 O 127.789 2.12962 1.3566 0
M  V30 1171 C 129.102 2.35357 -1.87156 0
M  V30 1172 C 130.65 2.49021 -1.89624 0
M  V30 1173 C 131.125 3.49468 -2.96034 0
M  V30 1174 N 132.616 3.57003 -2.95132 0
M  V30 1175 C 133.351 4.34543 -3.74112 0
M  V30 1176 N 132.847 5.15421 -4.6294 0
M  V30 1177 N 134.64 4.29625 -3.62462 0
M  V30 1178 H 126.791 0.78584 -1.97328 0
M  V30 1179 H 129.054 0.408065 -0.855679 0
M  V30 1180 H 128.76 2.02626 -2.87464 0
M  V30 1181 H 128.634 3.35129 -1.73114 0
M  V30 1182 H 131.021 2.81051 -0.899687 0
M  V30 1183 H 131.102 1.4925 -2.07745 0
M  V30 1184 H 130.746 3.18173 -3.95889 0
M  V30 1185 H 130.676 4.48992 -2.75161 0
M  V30 1186 H 133.167 2.99276 -2.30743 0
M  V30 1187 H 133.48 5.7183 -5.19837 0
M  V30 1188 H 131.825 5.14729 -4.66989 0
M  V30 1189 H 135.016 3.65505 -2.92444 0
M  V30 1190 H 135.189 4.89807 -4.24256 0
M  V30 1191 N 128.595 0.856903 1.32268 0
M  V30 1192 C 129.558 0.308171 2.27119 0
M  V30 1193 C 130.558 -0.533421 1.51695 0
M  V30 1194 O 131.748 -0.344607 1.70757 0
M  V30 1195 C 128.88 -0.563757 3.36206 0
M  V30 1196 H 130.073 1.14535 2.77167 0
M  V30 1197 H 127.626 0.631421 1.42978 0
M  V30 1198 H 128.361 -1.42266 2.91429 0
M  V30 1199 H 128.146 0.0386749 3.92081 0
M  V30 1200 H 129.636 -0.940386 4.06874 0
M  V30 1201 N 130.073 -1.45103 0.615059 0
M  V30 1202 C 131.036 -2.29025 -0.0895485 0
M  V30 1203 C 132.036 -1.40174 -0.787906 0
M  V30 1204 O 133.226 -1.62217 -0.634933 0
M  V30 1205 C 130.358 -3.21376 -1.13711 0
M  V30 1206 H 131.551 -2.92807 0.648382 0
M  V30 1207 H 129.104 -1.51749 0.374444 0
M  V30 1208 H 129.839 -2.6241 -1.90556 0
M  V30 1209 H 129.624 -3.86834 -0.640475 0
M  V30 1210 H 131.114 -3.84459 -1.63036 0
M  V30 1211 N 131.551 -0.354651 -1.53558 0
M  V30 1212 C 132.797 0.238797 -2.01389 0
M  V30 1213 C 133.13 1.49309 -1.2418 0
M  V30 1214 O 132.405 1.91638 -0.332457 0
M  V30 1215 C 132.688 0.541771 -3.56001 0
M  V30 1216 C 132.541 -0.725388 -4.43912 0
M  V30 1217 C 133.86 1.34685 -4.18984 0
M  V30 1218 H 130.979 0.0853177 -0.732045 0
M  V30 1219 H 133.621 -0.477384 -1.83905 0
M  V30 1220 H 131.771 1.15189 -3.71031 0
M  V30 1221 H 133.443 -1.36313 -4.407 0
M  V30 1222 H 131.686 -1.34801 -4.12324 0
M  V30 1223 H 132.357 -0.468505 -5.50008 0
M  V30 1224 H 134.833 0.830837 -4.07721 0
M  V30 1225 H 133.709 1.52759 -5.27215 0
M  V30 1226 H 133.97 2.35221 -3.74331 0
M  V30 1227 N 133.029 1.57378 -0.0835403 0
M  V30 1228 C 133.939 2.16897 0.894021 0
M  V30 1229 C 134.955 1.13528 1.31861 0
M  V30 1230 O 136.131 1.45848 1.3889 0
M  V30 1231 C 133.196 2.72831 2.13925 0
M  V30 1232 C 132.257 3.91115 1.76997 0
M  V30 1233 C 131.49 4.44371 2.95584 0
M  V30 1234 O 131.713 3.96596 4.09961 0
M  V30 1235 O 130.647 5.35549 2.74719 0
M  V30 1236 H 134.473 3.00814 0.417679 0
M  V30 1237 H 132.058 1.48741 0.140181 0
M  V30 1238 H 133.94 3.0863 2.86924 0
M  V30 1239 H 132.615 1.91967 2.60635 0
M  V30 1240 H 131.522 3.60148 1.01214 0
M  V30 1241 H 132.855 4.73307 1.3506 0
M  V30 1242 N 134.507 -0.190092 1.56449 0
M  V30 1243 C 135.455 -1.25501 1.95837 0
M  V30 1244 C 136.449 -1.4685 0.844485 0
M  V30 1245 O 137.655 -1.47651 1.02952 0
M  V30 1246 H 134.03 -0.421447 0.622805 0
M  V30 1247 H 136.001 -0.895821 2.84636 0
M  V30 1248 C 134.75 -2.59124 2.31841 0
M  V30 1249 H 134.073 -2.43514 3.17082 0
M  V30 1250 H 135.513 -3.32371 2.6326 0
M  V30 1251 C 133.972 -3.16488 1.15486 0
M  V30 1252 O 134.502 -3.99365 0.432535 0
M  V30 1253 N 132.708 -2.75305 0.930349 0
M  V30 1254 H 132.255 -2.08013 1.51948 0
M  V30 1255 H 132.213 -3.14024 0.153634 0
M  V30 1256 N 135.985 -1.50799 -0.457987 0
M  V30 1257 C 136.935 -1.67003 -1.55222 0
M  V30 1258 C 137.919 -0.52434 -1.52117 0
M  V30 1259 O 139.111 -0.779345 -1.58919 0
M  V30 1260 C 136.24 -1.77956 -2.93576 0
M  V30 1261 C 135.326 -2.98243 -3.01516 0
M  V30 1262 N 135.717 -4.21732 -2.79241 0
M  V30 1263 C 134.015 -2.97072 -3.32662 0
M  V30 1264 C 134.716 -5.02817 -2.92489 0
M  V30 1265 N 133.692 -4.37038 -3.23262 0
M  V30 1266 H 137.494 -2.60163 -1.36721 0
M  V30 1267 H 135.008 -1.48163 -0.664952 0
M  V30 1268 H 137.005 -1.87671 -3.72271 0
M  V30 1269 H 135.665 -0.859634 -3.13114 0
M  V30 1270 H 136.676 -4.51016 -2.54567 0
M  V30 1271 H 133.353 -2.14631 -3.58106 0
M  V30 1272 H 134.743 -6.11054 -2.79396 0
M  V30 1273 N 137.463 0.71206 -1.40597 0
M  V30 1274 C 138.709 1.47416 -1.39271 0
M  V30 1275 C 139.042 1.942 0.00388791 0
M  V30 1276 O 138.317 1.68403 0.973179 0
M  V30 1277 C 138.6 2.69774 -2.38525 0
M  V30 1278 C 138.453 2.28861 -3.87224 0
M  V30 1279 C 139.772 3.71939 -2.35264 0
M  V30 1280 H 136.891 0.534713 -0.5072 0
M  V30 1281 H 139.533 0.812375 -1.71757 0
M  V30 1282 H 137.683 3.26238 -2.10953 0
M  V30 1283 H 139.355 1.77852 -4.25636 0
M  V30 1284 H 137.598 1.60824 -4.02887 0
M  V30 1285 H 138.269 3.16584 -4.52193 0
M  V30 1286 H 140.745 3.25113 -2.59694 0
M  V30 1287 H 139.621 4.55186 -3.06753 0
M  V30 1288 H 139.882 4.20484 -1.36549 0
M  V30 1289 N 138.941 1.26152 0.944643 0
M  V30 1290 C 140.357 1.03189 1.21754 0
M  V30 1291 C 140.557 -0.245112 2.00004 0
M  V30 1292 O 139.613 -0.955176 2.33736 0
M  V30 1293 C 140.926 2.26119 1.98219 0
M  V30 1294 C 142.474 2.30984 2.11224 0
M  V30 1295 C 142.949 3.53597 2.91089 0
M  V30 1296 N 144.44 3.54053 2.98664 0
M  V30 1297 C 145.175 4.45593 3.60881 0
M  V30 1298 N 144.671 5.47416 4.24626 0
M  V30 1299 N 146.464 4.33252 3.58119 0
M  V30 1300 H 138.615 2.08177 0.421437 0
M  V30 1301 H 140.878 0.914723 0.248969 0
M  V30 1302 H 140.584 3.18984 1.48128 0
M  V30 1303 H 140.458 2.3009 2.98895 0
M  V30 1304 H 142.845 1.38635 2.60508 0
M  V30 1305 H 142.926 2.31026 1.09821 0
M  V30 1306 H 142.57 4.46273 2.42493 0
M  V30 1307 H 142.5 3.50802 3.92741 0
M  V30 1308 H 144.991 2.80403 2.53343 0
M  V30 1309 H 145.304 6.13459 4.69987 0
M  V30 1310 H 143.649 5.51278 4.23223 0
M  V30 1311 H 146.84 3.52924 3.0751 0
M  V30 1312 H 147.013 5.04786 4.06319 0
M  V30 1313 N 140.419 -1.14872 1.07899 0
M  V30 1314 C 141.367 -2.21857 0.698727 0
M  V30 1315 C 142.361 -1.66845 -0.293086 0
M  V30 1316 O 143.567 -1.79321 -0.156204 0
M  V30 1317 H 139.942 -0.722691 0.207899 0
M  V30 1318 H 141.913 -2.51205 1.61054 0
M  V30 1319 C 140.662 -3.47498 0.11858 0
M  V30 1320 H 139.985 -3.90154 0.872914 0
M  V30 1321 H 141.425 -4.23858 -0.109759 0
M  V30 1322 C 139.884 -3.16947 -1.1422 0
M  V30 1323 O 140.414 -3.3426 -2.22785 0
M  V30 1324 N 138.62 -2.70946 -1.05055 0
M  V30 1325 H 138.167 -2.57058 -0.167038 0
M  V30 1326 H 138.125 -2.50879 -1.89491 0
M  V30 1327 N 141.898 -0.863906 -1.31812 0
M  V30 1328 C 142.846 -0.30422 -2.30602 0
M  V30 1329 C 143.84 0.577419 -1.59255 0
M  V30 1330 O 145.046 0.464194 -1.73912 0
M  V30 1331 H 141.421 -0.0796877 -0.747766 0
M  V30 1332 H 143.392 -1.15148 -2.75288 0
M  V30 1333 C 142.141 0.484617 -3.44306 0
M  V30 1334 H 141.464 -0.18451 -3.99374 0
M  V30 1335 H 142.904 0.841664 -4.15562 0
M  V30 1336 C 141.363 1.6735 -2.92396 0
M  V30 1337 O 141.893 2.77273 -2.90659 0
M  V30 1338 N 140.099 1.50362 -2.48676 0
M  V30 1339 H 139.646 0.609402 -2.50288 0
M  V30 1340 H 139.604 2.30051 -2.14299 0
M  V30 1341 N 143.376 1.44774 -0.622745 0
M  V30 1342 C 144.308 2.28856 0.125485 0
M  V30 1343 C 145.321 1.40811 0.817069 0
M  V30 1344 O 146.51 1.65044 0.679918 0
M  V30 1345 C 143.61 3.16963 1.19949 0
M  V30 1346 C 142.783 4.33374 0.592064 0
M  V30 1347 C 141.842 5.02577 1.55893 0
M  V30 1348 O 140.868 5.58873 1.07933 0
M  V30 1349 N 142.07 5.03256 2.89334 0
M  V30 1350 H 144.835 2.93713 -0.596068 0
M  V30 1351 H 142.396 1.55129 -0.463303 0
M  V30 1352 H 144.388 3.60123 1.84644 0
M  V30 1353 H 142.958 2.53913 1.82337 0
M  V30 1354 H 142.178 3.93509 -0.233322 0
M  V30 1355 H 143.466 5.08527 0.166738 0
M  V30 1356 H 142.864 4.58836 3.30887 0
M  V30 1357 H 141.421 5.50232 3.49412 0
M  V30 1358 N 144.854 0.36279 1.53368 0
M  V30 1359 C 146.1 -0.228113 2.01513 0
M  V30 1360 C 146.433 -1.48648 1.2497 0
M  V30 1361 O 145.708 -1.91459 0.342616 0
M  V30 1362 C 145.991 -0.522884 3.56284 0
M  V30 1363 C 145.844 0.74892 4.43521 0
M  V30 1364 C 147.163 -1.32461 4.19693 0
M  V30 1365 H 144.282 -0.0814343 0.732487 0
M  V30 1366 H 146.924 0.48713 1.83649 0
M  V30 1367 H 145.074 -1.1322 3.71636 0
M  V30 1368 H 146.746 1.38648 4.39971 0
M  V30 1369 H 144.989 1.36986 4.11603 0
M  V30 1370 H 145.66 0.497667 5.49752 0
M  V30 1371 H 148.136 -0.809203 4.08156 0
M  V30 1372 H 147.012 -1.49961 5.28018 0
M  V30 1373 H 147.273 -2.33232 3.75573 0
M  V30 1374 N 146.332 -1.57332 0.0918853 0
M  V30 1375 C 147.262 -2.16872 -0.865371 0
M  V30 1376 C 148.243 -1.10118 -1.29646 0
M  V30 1377 O 149.428 -1.38242 -1.36392 0
M  V30 1378 C 146.558 -2.74649 -2.12569 0
M  V30 1379 C 145.512 -3.86747 -1.83333 0
M  V30 1380 C 144.838 -4.31212 -3.16166 0
M  V30 1381 C 146.138 -5.10089 -1.1228 0
M  V30 1382 H 147.832 -2.97114 -0.369307 0
M  V30 1383 H 145.378 -1.42918 -0.176194 0
M  V30 1384 H 147.331 -3.14952 -2.7997 0
M  V30 1385 H 146.055 -1.91657 -2.64452 0
M  V30 1386 H 144.714 -3.46978 -1.18331 0
M  V30 1387 H 144.362 -3.45115 -3.6593 0
M  V30 1388 H 144.062 -5.06788 -2.97388 0
M  V30 1389 H 145.586 -4.74146 -3.84731 0
M  V30 1390 H 147 -5.47582 -1.69785 0
M  V30 1391 H 145.397 -5.91073 -1.03693 0
M  V30 1392 H 146.467 -4.84786 -0.105041 0
M  V30 1393 N 147.81 0.181792 -1.56548 0
M  V30 1394 C 149.058 0.89832 -1.81038 0
M  V30 1395 C 149.379 1.83232 -0.667164 0
M  V30 1396 O 148.649 1.93372 0.313673 0
M  V30 1397 H 147.229 0.33471 -0.667816 0
M  V30 1398 H 149.891 0.184116 -1.94028 0
M  V30 1399 H 148.987 1.4815 -2.74696 0
M  V30 1400 N 149.288 1.51039 0.449983 0
M  V30 1401 C 150.537 1.62317 1.19733 0
M  V30 1402 C 150.85 0.339101 1.92638 0
M  V30 1403 O 152.056 0.331069 2.69474 0
M  V30 1404 C 150.512 2.86608 2.17678 0
M  V30 1405 C 150.12 4.21972 1.50479 0
M  V30 1406 C 151.864 3.07239 2.92924 0
M  V30 1407 C 149.771 5.37426 2.46834 0
M  V30 1408 H 148.701 0.604532 0.450619 0
M  V30 1409 H 151.352 1.77494 0.465625 0
M  V30 1410 H 149.734 2.65037 2.94231 0
M  V30 1411 H 150.908 4.53878 0.795716 0
M  V30 1412 H 149.223 4.07117 0.874344 0
M  V30 1413 H 151.82 3.90668 3.65079 0
M  V30 1414 H 152.163 2.19807 3.5354 0
M  V30 1415 H 152.696 3.29091 2.23481 0
M  V30 1416 H 149.435 6.27079 1.90926 0
M  V30 1417 H 148.955 5.09912 3.15832 0
M  V30 1418 H 150.634 5.68862 3.08228 0
M  V30 1419 N 150.766 -0.704594 1.40972 0
M  V30 1420 C 152.014 -1.46169 1.39568 0
M  V30 1421 C 152.335 -1.95 0.00253745 0
M  V30 1422 O 151.605 -1.71095 -0.954114 0
M  V30 1423 H 150.185 -0.542326 0.513704 0
M  V30 1424 H 152.847 -0.834553 1.76128 0
M  V30 1425 H 151.943 -2.32922 2.07735 0
M  V30 1426 N 152.244 -1.26651 -0.937939 0
M  V30 1427 C 153.469 -1.15279 -1.72411 0
M  V30 1428 C 153.894 0.287866 -1.85884 0
M  V30 1429 O 153.252 1.20855 -1.35143 0
M  V30 1430 C 153.3 -1.83028 -3.10698 0
M  V30 1431 O 152.404 -1.12128 -3.96864 0
M  V30 1432 H 151.745 -0.401504 -0.528858 0
M  V30 1433 H 154.275 -1.67531 -1.1745 0
M  V30 1434 H 154.285 -1.89981 -3.6107 0
M  V30 1435 H 152.96 -2.87833 -3.00208 0
M  V30 1436 H 151.537 -1.13173 -3.55312 0
M  V30 1437 N 153.722 1.14298 -1.08507 0
M  V30 1438 C 154.97 1.84993 -0.813763 0
M  V30 1439 C 155.291 1.83405 0.662393 0
M  V30 1440 O 154.561 1.28319 1.48024 0
M  V30 1441 H 153.141 0.684966 -0.298045 0
M  V30 1442 H 155.803 1.385 -1.37126 0
M  V30 1443 H 154.899 2.89788 -1.15884 0
M  V30 1444 N 155.201 0.870884 1.31352 0
M  V30 1445 C 156.426 0.495957 2.01383 0
M  V30 1446 C 156.851 -0.904324 1.64935 0
M  V30 1447 O 156.209 -1.59687 0.858466 0
M  V30 1448 C 156.257 0.661433 3.54482 0
M  V30 1449 O 155.361 -0.298851 4.11316 0
M  V30 1450 H 154.702 0.197158 0.634054 0
M  V30 1451 H 157.232 1.17455 1.67527 0
M  V30 1452 H 157.242 0.555072 4.04207 0
M  V30 1453 H 155.917 1.68246 3.8035 0
M  V30 1454 H 154.494 -0.147368 3.72609 0
M  V30 1455 N 156.679 -1.44442 0.630414 0
M  V30 1456 C 157.907 -2.06414 0.141671 0
M  V30 1457 C 158.322 -1.47105 -1.18345 0
M  V30 1458 O 157.679 -0.593662 -1.72574 0
M  V30 1459 C 157.73 -3.61494 0.0199784 0
M  V30 1460 O 157.451 -4.18594 1.29269 0
M  V30 1461 C 158.952 -4.40499 -0.497544 0
M  V30 1462 H 156.172 -0.666292 0.0793452 0
M  V30 1463 H 158.716 -1.85323 0.864614 0
M  V30 1464 H 156.871 -3.8185 -0.653402 0
M  V30 1465 H 157.285 -5.12026 1.13707 0
M  V30 1466 H 158.759 -5.49433 -0.531708 0
M  V30 1467 H 159.236 -4.11895 -1.52445 0
M  V30 1468 H 159.842 -4.25061 0.142562 0
M  V30 1469 N 158.157 -0.370918 -1.53173 0
M  V30 1470 C 159.406 0.218249 -2.00516 0
M  V30 1471 C 159.719 1.49429 -1.26215 0
M  V30 1472 O 160.925 2.16239 -1.64174 0
M  V30 1473 C 159.381 0.43948 -3.57207 0
M  V30 1474 C 158.989 -0.822244 -4.4039 0
M  V30 1475 C 160.733 0.986012 -4.1289 0
M  V30 1476 C 158.64 -0.570304 -5.88644 0
M  V30 1477 H 157.57 0.0853333 -0.749156 0
M  V30 1478 H 160.221 -0.490483 -1.76823 0
M  V30 1479 H 158.603 1.20961 -3.77074 0
M  V30 1480 H 159.777 -1.59557 -4.32294 0
M  V30 1481 H 158.092 -1.29238 -3.95836 0
M  V30 1482 H 160.689 1.18991 -5.21292 0
M  V30 1483 H 161.032 1.94972 -3.6782 0
M  V30 1484 H 161.565 0.27592 -3.96842 0
M  V30 1485 H 158.304 -1.50449 -6.38001 0
M  V30 1486 H 157.824 0.164427 -5.99575 0
M  V30 1487 H 159.503 -0.19784 -6.46697 0
M  V30 1488 N 159.635 1.57281 -0.100228 0
M  V30 1489 C 160.881 1.94826 0.563101 0
M  V30 1490 C 161.214 0.982475 1.67514 0
M  V30 1491 O 160.489 0.0164069 1.94493 0
M  V30 1492 C 160.772 3.42453 1.11346 0
M  V30 1493 C 160.625 4.498 0.00612081 0
M  V30 1494 C 161.944 3.91506 2.01024 0
M  V30 1495 H 159.063 0.708428 0.203221 0
M  V30 1496 H 161.705 1.8922 -0.171979 0
M  V30 1497 H 159.855 3.47361 1.7399 0
M  V30 1498 H 161.527 4.57 -0.628357 0
M  V30 1499 H 159.77 4.28756 -0.659581 0
M  V30 1500 H 160.441 5.50306 0.432109 0
M  V30 1501 H 162.917 3.88784 1.48278 0
M  V30 1502 H 161.793 4.95358 2.36457 0
M  V30 1503 H 162.054 3.31099 2.92961 0
M  V30 1504 N 161.113 -0.173488 1.56642 0
M  V30 1505 C 162.063 -1.21941 1.92651 0
M  V30 1506 C 163.047 -1.39912 0.794577 0
M  V30 1507 O 164.239 -1.41919 1.05773 0
M  V30 1508 C 161.368 -2.55935 2.28806 0
M  V30 1509 C 160.454 -2.41667 3.48508 0
M  V30 1510 N 160.845 -1.9711 4.65813 0
M  V30 1511 C 159.143 -2.72499 3.53072 0
M  V30 1512 C 159.844 -1.95253 5.47952 0
M  V30 1513 N 158.82 -2.37575 4.88937 0
M  V30 1514 H 162.622 -0.866581 2.80834 0
M  V30 1515 H 160.136 -0.381776 1.57849 0
M  V30 1516 H 162.133 -3.31511 2.52797 0
M  V30 1517 H 160.793 -2.92022 1.41961 0
M  V30 1518 H 161.804 -1.67481 4.90072 0
M  V30 1519 H 158.481 -3.12639 2.767 0
M  V30 1520 H 159.871 -1.6252 6.51948 0
M  V30 1521 N 162.591 -1.51276 -0.441967 0
M  V30 1522 C 163.554 -1.7167 -1.51862 0
M  V30 1523 C 164.554 -0.586793 -1.49711 0
M  V30 1524 O 165.744 -0.854276 -1.51815 0
M  V30 1525 C 162.876 -1.76889 -2.91416 0
M  V30 1526 H 164.069 -2.67754 -1.35084 0
M  V30 1527 H 161.622 -1.41196 -0.670333 0
M  V30 1528 H 162.357 -0.826026 -3.13604 0
M  V30 1529 H 162.142 -2.59001 -2.94382 0
M  V30 1530 H 163.632 -1.94522 -3.69528 0
M  V30 1531 N 164.069 0.697108 -1.41344 0
M  V30 1532 C 165.315 1.4593 -1.40827 0
M  V30 1533 C 165.648 1.94193 -0.0167098 0
M  V30 1534 O 164.923 1.69425 0.955263 0
M  V30 1535 C 165.206 2.67229 -2.41373 0
M  V30 1536 C 165.059 2.24741 -3.8963 0
M  V30 1537 C 166.378 3.69423 -2.39196 0
M  V30 1538 H 163.497 0.529303 -0.512842 0
M  V30 1539 H 166.139 0.794112 -1.72609 0
M  V30 1540 H 164.289 3.23982 -2.14401 0
M  V30 1541 H 165.961 1.73327 -4.27499 0
M  V30 1542 H 164.204 1.56542 -4.0457 0
M  V30 1543 H 164.875 3.1177 -4.55525 0
M  V30 1544 H 167.351 3.2234 -2.63128 0
M  V30 1545 H 166.227 4.51907 -3.11563 0
M  V30 1546 H 166.488 4.19012 -1.41001 0
M  V30 1547 N 165.547 1.27147 0.931209 0
M  V30 1548 C 166.479 1.05364 2.03546 0
M  V30 1549 C 167.492 0.0108438 1.62796 0
M  V30 1550 O 168.681 0.25202 1.76712 0
M  V30 1551 C 165.781 0.575566 3.33977 0
M  V30 1552 C 164.954 1.68985 4.03439 0
M  V30 1553 C 164.013 1.20813 5.12143 0
M  V30 1554 O 163.039 1.90712 5.363 0
M  V30 1555 N 164.241 0.0618851 5.80467 0
M  V30 1556 H 167.006 2.00454 2.22796 0
M  V30 1557 H 164.567 1.18666 1.10136 0
M  V30 1558 H 166.559 0.237264 4.04004 0
M  V30 1559 H 165.129 -0.282016 3.11325 0
M  V30 1560 H 164.349 2.19861 3.27192 0
M  V30 1561 H 165.637 2.4378 4.46597 0
M  V30 1562 H 165.035 -0.521621 5.6329 0
M  V30 1563 H 163.592 -0.217264 6.51438 0
M  V30 1564 N 167.025 -1.13721 1.09112 0
M  V30 1565 C 168.441 -1.36914 0.820174 0
M  V30 1566 C 168.641 -1.93356 -0.567079 0
M  V30 1567 O 167.697 -2.15093 -1.32255 0
M  V30 1568 C 169.01 -2.3235 1.90877 0
M  V30 1569 C 170.558 -2.45973 1.93562 0
M  V30 1570 C 171.033 -3.44714 3.01556 0
M  V30 1571 N 172.524 -3.52263 3.00775 0
M  V30 1572 C 173.259 -4.28536 3.80978 0
M  V30 1573 N 172.755 -5.07991 4.71081 0
M  V30 1574 N 174.548 -4.23804 3.69251 0
M  V30 1575 H 166.699 -0.754348 1.98553 0
M  V30 1576 H 168.962 -0.3944 0.862063 0
M  V30 1577 H 168.668 -1.98027 2.90651 0
M  V30 1578 H 168.542 -3.32332 1.78424 0
M  V30 1579 H 170.929 -2.79584 0.944286 0
M  V30 1580 H 171.01 -1.45926 2.10093 0
M  V30 1581 H 170.654 -3.11835 4.00901 0
M  V30 1582 H 170.584 -4.44558 2.82269 0
M  V30 1583 H 173.075 -2.95567 2.35475 0
M  V30 1584 H 173.388 -5.63487 5.28869 0
M  V30 1585 H 171.733 -5.07235 4.75119 0
M  V30 1586 H 174.924 -3.60806 2.98222 0
M  V30 1587 H 175.097 -4.82995 4.31995 0
M  V30 1588 N 168.503 -0.877838 -1.30888 0
M  V30 1589 C 169.752 -0.488793 -1.95688 0
M  V30 1590 C 170.065 0.965485 -1.70111 0
M  V30 1591 O 171.271 1.46104 -2.28836 0
M  V30 1592 C 169.727 -0.823201 -3.50359 0
M  V30 1593 C 169.335 -2.29477 -3.84765 0
M  V30 1594 C 171.079 -0.503009 -4.21509 0
M  V30 1595 C 168.986 -2.57118 -5.32583 0
M  V30 1596 H 167.916 -0.179062 -0.732429 0
M  V30 1597 H 170.567 -1.07183 -1.48943 0
M  V30 1598 H 168.949 -0.169331 -3.95638 0
M  V30 1599 H 170.123 -2.99236 -3.5042 0
M  V30 1600 H 168.438 -2.58178 -3.267 0
M  V30 1601 H 171.035 -0.68665 -5.30273 0
M  V30 1602 H 171.378 0.557109 -4.12555 0
M  V30 1603 H 171.911 -1.11376 -3.8189 0
M  V30 1604 H 168.65 -3.61843 -5.4658 0
M  V30 1605 H 168.17 -1.91961 -5.68253 0
M  V30 1606 H 169.849 -2.42251 -5.99936 0
M  V30 1607 N 169.982 1.44106 -0.638065 0
M  V30 1608 C 170.945 2.29138 0.0531013 0
M  V30 1609 C 171.945 1.41409 0.765506 0
M  V30 1610 O 173.135 1.63206 0.609046 0
M  V30 1611 C 170.267 3.23144 1.08584 0
M  V30 1612 H 171.46 2.91739 -0.694883 0
M  V30 1613 H 169.013 1.51134 -0.398538 0
M  V30 1614 H 169.748 2.65408 1.86357 0
M  V30 1615 H 169.533 3.87804 0.578852 0
M  V30 1616 H 171.023 3.87004 1.56899 0
M  V30 1617 N 171.46 0.379036 1.52974 0
M  V30 1618 C 172.37 -0.468639 2.29872 0
M  V30 1619 C 173.386 -1.08067 1.36373 0
M  V30 1620 O 174.562 -1.08871 1.69438 0
M  V30 1621 C 171.627 -1.58594 3.083 0
M  V30 1622 C 170.688 -1.00007 4.17489 0
M  V30 1623 C 169.921 -2.06413 4.92168 0
M  V30 1624 O 170.144 -3.27751 4.66835 0
M  V30 1625 O 169.078 -1.68717 5.7777 0
M  V30 1626 H 172.904 0.157508 3.03291 0
M  V30 1627 H 170.489 0.143035 1.48714 0
M  V30 1628 H 172.371 -2.23525 3.57232 0
M  V30 1629 H 171.046 -2.19724 2.37703 0
M  V30 1630 H 169.953 -0.314299 3.72777 0
M  V30 1631 H 171.286 -0.433135 4.90291 0
M  V30 1632 N 172.938 -1.57226 0.108567 0
M  V30 1633 C 174.354 -1.5766 -0.248058 0
M  V30 1634 C 174.554 -1.12063 -1.67464 0
M  V30 1635 O 173.61 -0.803236 -2.39383 0
M  V30 1636 C 174.923 -3.0069 -0.0242287 0
M  V30 1637 C 176.471 -3.12868 -0.0909372 0
M  V30 1638 C 176.946 -4.57879 0.105067 0
M  V30 1639 N 178.437 -4.63172 0.0506846 0
M  V30 1640 C 179.172 -5.73126 0.177396 0
M  V30 1641 N 178.668 -6.91866 0.359696 0
M  V30 1642 N 180.461 -5.61977 0.117709 0
M  V30 1643 H 172.612 -1.85169 1.04049 0
M  V30 1644 H 174.875 -0.85529 0.40888 0
M  V30 1645 H 174.581 -3.38299 0.961604 0
M  V30 1646 H 174.455 -3.6945 -0.76068 0
M  V30 1647 H 176.842 -2.75124 -1.06729 0
M  V30 1648 H 176.923 -2.46672 0.677225 0
M  V30 1649 H 176.567 -4.96321 1.07834 0
M  V30 1650 H 176.497 -5.22153 -0.682954 0
M  V30 1651 H 178.988 -3.778 -0.0871266 0
M  V30 1652 H 179.301 -7.71503 0.447529 0
M  V30 1653 H 177.646 -6.93874 0.395536 0
M  V30 1654 H 180.837 -4.68094 -0.0236741 0
M  V30 1655 H 181.01 -6.47627 0.219905 0
M  V30 1656 N 174.416 0.165178 -1.56732 0
M  V30 1657 C 175.662 0.882112 -1.82611 0
M  V30 1658 C 175.995 1.81628 -0.687378 0
M  V30 1659 O 175.27 1.92009 0.310267 0
M  V30 1660 C 175.553 1.67245 -3.18906 0
M  V30 1661 C 175.406 0.760987 -4.43316 0
M  V30 1662 C 176.725 2.63884 -3.52212 0
M  V30 1663 H 173.844 0.319242 -0.664269 0
M  V30 1664 H 176.486 0.148052 -1.89422 0
M  V30 1665 H 174.636 2.29824 -3.1323 0
M  V30 1666 H 176.308 0.147596 -4.61064 0
M  V30 1667 H 174.551 0.0694102 -4.33744 0
M  V30 1668 H 175.222 1.34962 -5.35247 0
M  V30 1669 H 177.698 2.11429 -3.58381 0
M  V30 1670 H 176.574 3.16245 -4.48643 0
M  V30 1671 H 176.835 3.44377 -2.77231 0
M  V30 1672 N 175.894 1.51508 0.433938 0
M  V30 1673 C 176.841 1.73068 1.52696 0
M  V30 1674 C 177.811 0.572441 1.55924 0
M  V30 1675 O 178.996 0.807253 1.72882 0
M  V30 1676 C 176.136 1.86474 2.90381 0
M  V30 1677 C 175.249 3.14037 2.96656 0
M  V30 1678 C 174.384 3.18019 4.25485 0
M  V30 1679 C 173.423 4.39882 4.2564 0
M  V30 1680 N 172.56 4.41394 5.45999 0
M  V30 1681 H 177.4 2.66366 1.33615 0
M  V30 1682 H 174.937 1.32008 0.649018 0
M  V30 1683 H 176.895 1.92229 3.70275 0
M  V30 1684 H 175.525 0.965809 3.08013 0
M  V30 1685 H 174.577 3.17575 2.09404 0
M  V30 1686 H 175.889 4.0394 2.92633 0
M  V30 1687 H 175.043 3.22708 5.13755 0
M  V30 1688 H 173.782 2.2601 4.3217 0
M  V30 1689 H 172.787 4.35366 3.35763 0
M  V30 1690 H 174.012 5.33159 4.20617 0
M  V30 1691 H 171.958 3.52258 5.53399 0
M  V30 1692 H 171.875 5.25111 5.4387 0
M  V30 1693 H 173.143 4.50281 6.36292 0
M  V30 1694 N 177.372 -0.689602 1.41712 0
M  V30 1695 C 178.304 -1.815 1.39966 0
M  V30 1696 C 179.317 -1.59995 0.300917 0
M  V30 1697 O 180.506 -1.69387 0.563039 0
M  V30 1698 C 177.606 -3.18364 1.16179 0
M  V30 1699 C 176.779 -3.66847 2.38206 0
M  V30 1700 C 175.838 -4.82398 2.10186 0
M  V30 1701 O 174.864 -4.93706 2.83272 0
M  V30 1702 N 176.066 -5.70064 1.0958 0
M  V30 1703 H 178.831 -1.83488 2.36965 0
M  V30 1704 H 176.392 -0.872149 1.36401 0
M  V30 1705 H 178.384 -3.93301 0.953756 0
M  V30 1706 H 176.954 -3.11365 0.27756 0
M  V30 1707 H 176.174 -2.82751 2.74673 0
M  V30 1708 H 177.462 -3.95978 3.19498 0
M  V30 1709 H 176.86 -5.63565 0.491019 0
M  V30 1710 H 175.417 -6.44874 0.947656 0
M  V30 1711 N 178.85 -1.27639 -0.924453 0
M  V30 1712 C 179.76 -1.12466 -2.05885 0
M  V30 1713 C 180.776 -0.053869 -1.73917 0
M  V30 1714 O 181.952 -0.261012 -1.99702 0
M  V30 1715 C 179.017 -0.776768 -3.37886 0
M  V30 1716 C 178.078 -1.92878 -3.83532 0
M  V30 1717 C 177.311 -1.59739 -5.09234 0
M  V30 1718 O 177.534 -0.506782 -5.68144 0
M  V30 1719 O 176.468 -2.43761 -5.50331 0
M  V30 1720 H 180.294 -2.07671 -2.21599 0
M  V30 1721 H 177.879 -1.06857 -1.04413 0
M  V30 1722 H 179.761 -0.596229 -4.17161 0
M  V30 1723 H 178.436 0.145732 -3.23372 0
M  V30 1724 H 177.343 -2.1644 -3.0513 0
M  V30 1725 H 178.676 -2.8316 -4.02593 0
M  V30 1726 N 180.328 1.1314 -1.09713 0
M  V30 1727 C 181.276 2.20717 -0.733934 0
M  V30 1728 C 182.27 1.6729 0.266506 0
M  V30 1729 O 183.476 1.79547 0.127656 0
M  V30 1730 H 179.851 0.719292 -0.21937 0
M  V30 1731 H 181.822 2.48611 -1.6503 0
M  V30 1732 C 180.571 3.47265 -0.173849 0
M  V30 1733 H 179.894 3.88716 -0.934873 0
M  V30 1734 H 181.334 4.23979 0.0423126 0
M  V30 1735 C 179.793 3.18724 1.09164 0
M  V30 1736 O 180.323 3.37762 2.17439 0
M  V30 1737 N 178.529 2.72583 1.00732 0
M  V30 1738 H 178.076 2.57291 0.126121 0
M  V30 1739 H 178.034 2.53862 1.85476 0
M  V30 1740 N 181.806 0.884767 1.30421 0
M  V30 1741 C 182.736 0.367574 2.30589 0
M  V30 1742 C 183.717 -0.549464 1.60981 0
M  V30 1743 O 184.902 -0.46336 1.88591 0
M  V30 1744 C 182.032 -0.418944 3.44764 0
M  V30 1745 C 180.986 0.406316 4.26067 0
M  V30 1746 C 180.312 -0.506793 5.32293 0
M  V30 1747 C 181.612 1.64832 4.95608 0
M  V30 1748 H 183.306 1.20462 2.74097 0
M  V30 1749 H 180.852 0.580695 1.31772 0
M  V30 1750 H 182.805 -0.791395 4.13902 0
M  V30 1751 H 181.529 -1.28964 3.0006 0
M  V30 1752 H 180.188 0.760903 3.58617 0
M  V30 1753 H 179.836 -1.37519 4.83836 0
M  V30 1754 H 179.536 0.0415828 5.87585 0
M  V30 1755 H 181.06 -0.875764 6.04287 0
M  V30 1756 H 182.474 1.34646 5.57264 0
M  V30 1757 H 180.871 2.13688 5.60765 0
M  V30 1758 H 181.941 2.39284 4.21748 0
M  V30 1759 N 183.284 -1.43765 0.645699 0
M  V30 1760 C 184.232 -2.32516 -0.0624849 0
M  V30 1761 C 185.226 -1.48183 -0.820855 0
M  V30 1762 O 186.432 -1.64439 -0.732106 0
M  V30 1763 H 182.807 -0.750989 -0.0389864 0
M  V30 1764 H 184.778 -2.89979 0.703892 0
M  V30 1765 C 183.527 -3.32389 -1.02044 0
M  V30 1766 H 182.85 -3.97301 -0.446312 0
M  V30 1767 H 184.29 -3.97138 -1.48517 0
M  V30 1768 C 182.749 -2.62416 -2.11281 0
M  V30 1769 O 183.279 -2.434 -3.19561 0
M  V30 1770 N 181.485 -2.21913 -1.87624 0
M  V30 1771 H 181.032 -2.37578 -0.995703 0
M  V30 1772 H 180.99 -1.75424 -2.6091 0
M  V30 1773 N 184.763 -0.387143 -1.52771 0
M  V30 1774 C 185.693 0.440551 -2.29306 0
M  V30 1775 C 186.674 1.06535 -1.32606 0
M  V30 1776 O 187.859 1.07853 -1.61497 0
M  V30 1777 C 184.989 1.56919 -3.09829 0
M  V30 1778 C 183.943 1.07054 -4.14395 0
M  V30 1779 C 183.269 2.29109 -4.83129 0
M  V30 1780 C 184.569 0.140015 -5.22112 0
M  V30 1781 H 186.263 -0.198026 -2.98744 0
M  V30 1782 H 183.809 -0.09668 -1.43675 0
M  V30 1783 H 185.762 2.15503 -3.62128 0
M  V30 1784 H 184.486 2.23532 -2.3812 0
M  V30 1785 H 183.145 0.507247 -3.63074 0
M  V30 1786 H 182.793 2.94227 -4.0797 0
M  V30 1787 H 182.493 1.96406 -5.53804 0
M  V30 1788 H 184.017 2.88339 -5.38231 0
M  V30 1789 H 185.431 0.633978 -5.69784 0
M  V30 1790 H 183.828 -0.0971485 -6.00021 0
M  V30 1791 H 184.898 -0.811711 -4.78058 0
M  V30 1792 N 186.241 1.57166 -0.116904 0
M  V30 1793 C 187.487 1.95412 0.542405 0
M  V30 1794 C 187.82 1.00019 1.66463 0
M  V30 1795 O 187.095 0.0370346 1.94465 0
M  V30 1796 C 187.378 3.43615 1.07708 0
M  V30 1797 C 187.231 4.49781 -0.0415868 0
M  V30 1798 C 188.55 3.93616 1.96861 0
M  V30 1799 H 185.669 0.710543 0.195696 0
M  V30 1800 H 188.311 1.89027 -0.192038 0
M  V30 1801 H 186.461 3.49187 1.70296 0
M  V30 1802 H 188.133 4.56308 -0.676793 0
M  V30 1803 H 186.376 4.28033 -0.705019 0
M  V30 1804 H 187.047 5.50733 0.373717 0
M  V30 1805 H 189.523 3.90335 1.44146 0
M  V30 1806 H 188.399 4.97838 2.3119 0
M  V30 1807 H 188.66 3.34188 2.89432 0
M  V30 1808 N 187.719 -0.156864 1.56817 0
M  V30 1809 C 188.959 -0.877453 1.84608 0
M  V30 1810 C 189.323 -1.78791 0.699845 0
M  V30 1811 O 190.524 -2.5472 0.858553 0
M  V30 1812 C 188.795 -1.63992 3.17555 0
M  V30 1813 S 190.354 -2.40729 3.66872 0
M  V30 1814 H 187.172 -0.293612 0.647544 0
M  V30 1815 H 189.774 -0.138099 1.95012 0
M  V30 1816 H 188.478 -0.962363 3.98957 0
M  V30 1817 H 188.009 -2.42038 3.10131 0
M  V30 1818 H 190.024 -3.65725 3.3535 0
M  V30 1819 N 189.197 -1.51736 -0.425897 0
M  V30 1820 C 190.446 -1.64201 -1.17136 0
M  V30 1821 C 190.759 -0.369705 -1.92074 0
M  V30 1822 O 191.965 -0.373898 -2.68913 0
M  V30 1823 C 190.421 -2.90035 -2.13091 0
M  V30 1824 C 190.029 -4.24312 -1.43747 0
M  V30 1825 C 191.773 -3.1186 -2.87999 0
M  V30 1826 C 189.68 -5.41285 -2.38253 0
M  V30 1827 H 188.61 -0.611624 -0.440944 0
M  V30 1828 H 191.261 -1.78212 -0.437328 0
M  V30 1829 H 189.643 -2.69684 -2.89977 0
M  V30 1830 H 190.817 -4.55086 -0.723408 0
M  V30 1831 H 189.132 -4.08456 -0.809465 0
M  V30 1832 H 191.729 -3.96427 -3.58817 0
M  V30 1833 H 192.072 -2.25403 -3.49999 0
M  V30 1834 H 192.605 -3.32605 -2.18217 0
M  V30 1835 H 189.344 -6.30037 -1.80925 0
M  V30 1836 H 188.864 -5.14872 -3.0768 0
M  V30 1837 H 190.543 -5.73694 -2.99139 0
M  V30 1838 N 190.675 0.682077 -1.42076 0
M  V30 1839 C 192.086 1.26246 -1.37546 0
M  V30 1840 C 192.437 1.96092 -0.0651481 0
M  V30 1841 O 191.562 1.99587 0.836297 0
M  V30 1842 C 192.157 2.29594 -2.49143 0
M  V30 1843 C 190.716 2.83175 -2.47969 0
M  V30 1844 C 189.863 1.57395 -2.28303 0
M  V30 1845 H 192.814 0.475937 -1.51395 0
M  V30 1846 H 192.835 3.11175 -2.18976 0
M  V30 1847 H 192.347 1.78729 -3.44496 0
M  V30 1848 H 190.448 3.3818 -1.56413 0
M  V30 1849 H 190.561 3.32687 -3.44755 0
M  V30 1850 H 188.925 1.83699 -1.76428 0
M  V30 1851 H 189.708 1.08507 -3.25701 0
M  V30 1852 N 192.153 1.28127 0.917671 0
M  V30 1853 C 193.381 1.17892 1.70026 0
M  V30 1854 C 193.796 -0.262958 1.8696 0
M  V30 1855 O 193.153 -1.17811 1.3938 0
M  V30 1856 C 193.204 1.86872 3.09453 0
M  V30 1857 O 192.925 3.25428 2.93306 0
M  V30 1858 C 194.426 1.8289 4.03815 0
M  V30 1859 H 191.646 0.40942 0.531617 0
M  V30 1860 H 194.19 1.69181 1.14883 0
M  V30 1861 H 192.345 1.39464 3.61426 0
M  V30 1862 H 192.759 3.59918 3.81523 0
M  V30 1863 H 194.233 2.35751 4.99125 0
M  V30 1864 H 194.71 0.800412 4.31845 0
M  V30 1865 H 195.316 2.29959 3.57769 0
M  V30 1866 N 193.631 -1.12557 1.10312 0
M  V30 1867 C 194.856 -1.88405 0.867085 0
M  V30 1868 C 195.281 -1.79038 -0.576817 0
M  V30 1869 O 194.639 -1.14439 -1.40618 0
M  V30 1870 C 194.687 -3.3563 1.31851 0
M  V30 1871 O 193.791 -4.09565 0.482734 0
M  V30 1872 H 193.132 -0.585455 0.313271 0
M  V30 1873 H 195.662 -1.42352 1.4696 0
M  V30 1874 H 195.672 -3.86469 1.3079 0
M  V30 1875 H 194.347 -3.41765 2.37001 0
M  V30 1876 H 192.924 -3.68695 0.558448 0
M  V30 1877 N 195.109 -0.891671 -1.2995 0
M  V30 1878 C 196.356 -0.513501 -1.95881 0
M  V30 1879 C 196.684 0.938655 -1.70351 0
M  V30 1880 O 195.939 1.67936 -1.00478 0
M  V30 1881 C 196.238 -0.742868 -3.49594 0
M  V30 1882 C 195.904 -2.17114 -3.95186 0
M  V30 1883 C 194.566 -2.56169 -4.07346 0
M  V30 1884 C 196.918 -3.10162 -4.18866 0
M  V30 1885 C 194.246 -3.87469 -4.4055 0
M  V30 1886 C 196.598 -4.41001 -4.53542 0
M  V30 1887 C 195.262 -4.79941 -4.63911 0
M  V30 1888 H 194.532 -0.187903 -0.71678 0
M  V30 1889 H 197.179 -1.1288 -1.54694 0
M  V30 1890 H 195.484 -0.044586 -3.91775 0
M  V30 1891 H 197.181 -0.429767 -3.9869 0
M  V30 1892 H 193.771 -1.85801 -3.86233 0
M  V30 1893 H 197.955 -2.81206 -4.08946 0
M  V30 1894 H 193.211 -4.17371 -4.46779 0
M  V30 1895 H 197.385 -5.13133 -4.70815 0
M  V30 1896 H 195.012 -5.81719 -4.89395 0
M  V30 1897 N 196.587 1.43421 -0.653314 0
M  V30 1898 C 197.519 2.29071 0.0769134 0
M  V30 1899 C 198.532 1.42513 0.787017 0
M  V30 1900 O 199.721 1.66449 0.644757 0
M  V30 1901 C 196.821 3.19436 1.13199 0
M  V30 1902 C 195.994 4.34533 0.500006 0
M  V30 1903 C 195.053 5.05771 1.45198 0
M  V30 1904 O 194.079 5.61037 0.960538 0
M  V30 1905 N 195.281 5.0928 2.78594 0
M  V30 1906 H 198.046 2.92382 -0.658235 0
M  V30 1907 H 195.607 1.54112 -0.496104 0
M  V30 1908 H 197.599 3.63958 1.76964 0
M  V30 1909 H 196.169 2.57724 1.7691 0
M  V30 1910 H 195.389 3.92925 -0.316738 0
M  V30 1911 H 196.677 5.08766 0.0588345 0
M  V30 1912 H 196.075 4.65751 3.2108 0
M  V30 1913 H 194.632 5.57519 3.37662 0
M  V30 1914 N 198.065 0.39524 1.52563 0
M  V30 1915 C 199.028 -0.425001 2.25225 0
M  V30 1916 C 200.028 -0.985266 1.27079 0
M  V30 1917 O 201.218 -0.866332 1.5113 0
M  V30 1918 C 198.35 -1.59686 3.01186 0
M  V30 1919 H 199.543 0.211233 2.99155 0
M  V30 1920 H 197.096 0.147472 1.55603 0
M  V30 1921 H 197.831 -2.27035 2.31572 0
M  V30 1922 H 197.616 -1.20176 3.73229 0
M  V30 1923 H 199.106 -2.17743 3.5634 0
M  V30 1924 N 199.544 -1.57102 0.125237 0
M  V30 1925 C 200.96 -1.57915 -0.231322 0
M  V30 1926 C 201.16 -1.13833 -1.66266 0
M  V30 1927 O 200.216 -0.828581 -2.38518 0
M  V30 1928 C 201.529 -3.00699 0.00766489 0
M  V30 1929 C 203.077 -3.12947 -0.0577483 0
M  V30 1930 C 203.552 -4.57742 0.153626 0
M  V30 1931 N 205.043 -4.63092 0.0998073 0
M  V30 1932 C 205.778 -5.72905 0.238174 0
M  V30 1933 N 205.274 -6.91445 0.433057 0
M  V30 1934 N 207.067 -5.6182 0.177308 0
M  V30 1935 H 199.218 -1.84055 1.06007 0
M  V30 1936 H 201.481 -0.850905 0.417929 0
M  V30 1937 H 201.187 -3.3726 0.997431 0
M  V30 1938 H 201.061 -3.70236 -0.721452 0
M  V30 1939 H 203.448 -2.7624 -1.03804 0
M  V30 1940 H 203.529 -2.4594 0.70335 0
M  V30 1941 H 203.173 -4.95149 1.13092 0
M  V30 1942 H 203.103 -5.22848 -0.627534 0
M  V30 1943 H 205.594 -3.77871 -0.047051 0
M  V30 1944 H 205.907 -7.70985 0.529332 0
M  V30 1945 H 204.252 -6.93415 0.469109 0
M  V30 1946 H 207.443 -4.68093 0.0259748 0
M  V30 1947 H 207.616 -6.47357 0.288582 0
M  V30 1948 N 201.022 0.148545 -1.56898 0
M  V30 1949 C 201.954 1.20852 -1.9475 0
M  V30 1950 C 202.967 1.39265 -0.843152 0
M  V30 1951 O 204.156 1.38864 -1.12156 0
M  V30 1952 C 201.256 2.57362 -2.20495 0
M  V30 1953 C 200.429 2.59947 -3.51776 0
M  V30 1954 C 199.488 3.77984 -3.6608 0
M  V30 1955 O 198.514 3.62929 -4.38487 0
M  V30 1956 N 199.716 4.95375 -3.02629 0
M  V30 1957 H 202.481 0.886804 -2.86279 0
M  V30 1958 H 200.042 0.338121 -1.5833 0
M  V30 1959 H 202.034 3.34833 -2.27307 0
M  V30 1960 H 200.604 2.81832 -1.35238 0
M  V30 1961 H 199.824 1.68403 -3.56419 0
M  V30 1962 H 201.112 2.58704 -4.38121 0
M  V30 1963 H 200.51 5.10509 -2.43715 0
M  V30 1964 H 199.067 5.70627 -3.15004 0
M  V30 1965 N 202.5 1.5196 0.417844 0
M  V30 1966 C 203.43 1.77634 1.51554 0
M  V30 1967 C 204.411 0.626918 1.58126 0
M  V30 1968 O 205.596 0.871632 1.7354 0
M  V30 1969 C 202.726 1.91911 2.8946 0
M  V30 1970 C 201.68 3.07463 2.97743 0
M  V30 1971 C 201.006 3.06951 4.37819 0
M  V30 1972 C 202.306 4.47082 2.70027 0
M  V30 1973 H 204 2.6955 1.3032 0
M  V30 1974 H 201.546 1.29706 0.625492 0
M  V30 1975 H 203.499 2.08455 3.6623 0
M  V30 1976 H 202.223 0.966598 3.11969 0
M  V30 1977 H 200.882 2.90656 2.23416 0
M  V30 1978 H 200.53 2.09438 4.57323 0
M  V30 1979 H 200.23 3.84556 4.44286 0
M  V30 1980 H 201.754 3.25613 5.16535 0
M  V30 1981 H 203.168 4.6414 3.36522 0
M  V30 1982 H 201.565 5.2654 2.87881 0
M  V30 1983 H 202.635 4.55777 1.65514 0
M  V30 1984 N 203.978 -0.674533 1.42435 0
M  V30 1985 C 205.227 -1.43034 1.42212 0
M  V30 1986 C 205.54 -1.95555 0.0420788 0
M  V30 1987 O 206.746 -2.71374 -0.0827558 0
M  V30 1988 C 205.202 -2.58748 2.50155 0
M  V30 1989 C 204.81 -2.12925 3.94166 0
M  V30 1990 C 206.554 -3.36257 2.59098 0
M  V30 1991 C 204.461 -3.25723 4.93618 0
M  V30 1992 H 203.391 -0.537345 0.528939 0
M  V30 1993 H 206.042 -0.73024 1.68344 0
M  V30 1994 H 204.424 -3.31128 2.17188 0
M  V30 1995 H 205.598 -1.47697 4.36488 0
M  V30 1996 H 203.913 -1.48354 3.89076 0
M  V30 1997 H 206.51 -4.20264 3.30578 0
M  V30 1998 H 206.853 -3.82866 1.63461 0
M  V30 1999 H 207.386 -2.70947 2.9126 0
M  V30 2000 H 204.125 -2.84105 5.90732 0
M  V30 2001 H 203.645 -3.89732 4.55926 0
M  V30 2002 H 205.324 -3.91186 5.15347 0
M  V30 2003 N 205.456 -1.28612 -0.910864 0
M  V30 2004 C 206.386 -1.15326 -2.03032 0
M  V30 2005 C 207.367 -0.0502924 -1.70026 0
M  V30 2006 O 208.552 -0.227797 -1.92859 0
M  V30 2007 C 205.682 -0.817343 -3.37545 0
M  V30 2008 C 204.636 -1.8754 -3.84724 0
M  V30 2009 C 203.962 -1.39305 -5.16235 0
M  V30 2010 C 205.262 -3.28244 -4.06267 0
M  V30 2011 H 206.956 -2.08975 -2.14406 0
M  V30 2012 H 204.502 -1.00612 -1.03021 0
M  V30 2013 H 206.455 -0.711151 -4.15356 0
M  V30 2014 H 205.179 0.154846 -3.26233 0
M  V30 2015 H 203.838 -1.97079 -3.09121 0
M  V30 2016 H 203.486 -0.409846 -5.01328 0
M  V30 2017 H 203.186 -2.10057 -5.48771 0
M  V30 2018 H 204.71 -1.30014 -5.96598 0
M  V30 2019 H 206.124 -3.21611 -4.74594 0
M  V30 2020 H 204.521 -3.96855 -4.5014 0
M  V30 2021 H 205.591 -3.72048 -3.10979 0
M  V30 2022 N 206.934 1.1197 -1.10907 0
M  V30 2023 C 207.866 2.17592 -0.720175 0
M  V30 2024 C 208.879 1.60938 0.245495 0
M  V30 2025 O 210.068 1.78476 0.0292245 0
M  V30 2026 C 207.168 3.38873 -0.0427917 0
M  V30 2027 C 206.341 4.25006 -1.03388 0
M  V30 2028 C 205.4 5.24774 -0.387075 0
M  V30 2029 O 204.426 5.59631 -1.03934 0
M  V30 2030 N 205.628 5.74208 0.852407 0
M  V30 2031 H 208.393 2.51567 -1.62893 0
M  V30 2032 H 205.954 1.27439 -0.998543 0
M  V30 2033 H 207.946 4.02703 0.401501 0
M  V30 2034 H 206.516 3.03007 0.768456 0
M  V30 2035 H 205.736 3.57716 -1.65629 0
M  V30 2036 H 207.024 4.79397 -1.70458 0
M  V30 2037 H 206.422 5.48062 1.40161 0
M  V30 2038 H 204.979 6.39901 1.23977 0
M  V30 2039 N 208.412 0.89855 1.29475 0
M  V30 2040 C 209.642 0.538479 1.99459 0
M  V30 2041 C 210.05 -0.880922 1.67441 0
M  V30 2042 O 209.393 -1.59283 0.915127 0
M  V30 2043 C 209.455 0.649564 3.53583 0
M  V30 2044 C 209.119 2.03573 4.09154 0
M  V30 2045 C 210.116 3.00675 4.24135 0
M  V30 2046 C 207.801 2.3448 4.44212 0
M  V30 2047 C 209.795 4.26809 4.73405 0
M  V30 2048 C 207.482 3.60857 4.93179 0
M  V30 2049 C 208.48 4.56836 5.0773 0
M  V30 2050 O 208.168 5.80969 5.55635 0
M  V30 2051 H 207.9 0.205372 0.644048 0
M  V30 2052 H 210.454 1.20958 1.66007 0
M  V30 2053 H 208.684 -0.0785592 3.8662 0
M  V30 2054 H 210.373 0.29881 4.04799 0
M  V30 2055 H 211.139 2.78112 3.97339 0
M  V30 2056 H 207.018 1.60534 4.32145 0
M  V30 2057 H 210.562 5.0173 4.84678 0
M  V30 2058 H 206.459 3.83251 5.19412 0
M  V30 2059 H 207.227 5.83542 5.73952 0
M  V30 2060 N 209.89 -1.43072 0.660911 0
M  V30 2061 C 211.138 -2.01323 0.177094 0
M  V30 2062 C 211.459 -1.5245 -1.2159 0
M  V30 2063 O 210.729 -0.740322 -1.81373 0
M  V30 2064 H 209.309 -0.744382 0.0624804 0
M  V30 2065 H 211.971 -1.75179 0.854305 0
M  V30 2066 H 211.067 -3.11649 0.167641 0
M  V30 2067 N 211.368 -0.403325 -1.52352 0
M  V30 2068 C 212.298 0.416205 -2.29761 0
M  V30 2069 C 213.279 1.05123 -1.33728 0
M  V30 2070 O 214.464 1.06134 -1.62632 0
M  V30 2071 C 211.594 1.53624 -3.11475 0
M  V30 2072 C 210.548 1.02653 -4.15507 0
M  V30 2073 C 209.874 2.23971 -4.85532 0
M  V30 2074 C 211.174 0.08463 -5.22231 0
M  V30 2075 H 212.868 -0.229701 -2.98518 0
M  V30 2076 H 210.414 -0.111913 -1.43564 0
M  V30 2077 H 212.367 2.1165 -3.64393 0
M  V30 2078 H 211.091 2.20994 -2.40477 0
M  V30 2079 H 209.75 0.46871 -3.63591 0
M  V30 2080 H 209.398 2.89883 -4.11068 0
M  V30 2081 H 209.098 1.90521 -5.55856 0
M  V30 2082 H 210.622 2.82614 -5.41259 0
M  V30 2083 H 212.036 0.573509 -5.70424 0
M  V30 2084 H 210.433 -0.160783 -5.99885 0
M  V30 2085 H 211.503 -0.86237 -4.7717 0
M  V30 2086 N 212.846 1.57033 -0.133567 0
M  V30 2087 C 214.074 2.00044 0.528195 0
M  V30 2088 C 214.489 1.01349 1.59291 0
M  V30 2089 O 213.846 0.00848369 1.82498 0
M  V30 2090 C 213.897 3.43018 1.1411 0
M  V30 2091 O 213.618 4.37939 0.11892 0
M  V30 2092 C 215.119 4.01237 1.88477 0
M  V30 2093 H 212.339 0.656517 0.138661 0
M  V30 2094 H 214.883 2.03267 -0.224196 0
M  V30 2095 H 213.038 3.40688 1.84418 0
M  V30 2096 H 213.452 5.21436 0.56613 0
M  V30 2097 H 214.926 5.03314 2.26669 0
M  V30 2098 H 215.403 3.41193 2.76558 0
M  V30 2099 H 216.009 4.07156 1.22898 0
M  V30 2100 N 214.325 -0.140222 1.56975 0
M  V30 2101 C 215.255 -1.17456 2.01808 0
M  V30 2102 C 216.236 -1.44415 0.898794 0
M  V30 2103 O 217.421 -1.5522 1.16707 0
M  V30 2104 C 214.551 -2.50607 2.40444 0
M  V30 2105 C 213.505 -2.38155 3.55621 0
M  V30 2106 C 212.831 -3.76078 3.80091 0
M  V30 2107 C 214.131 -1.85991 4.88062 0
M  V30 2108 H 215.825 -0.801743 2.88466 0
M  V30 2109 H 213.371 -0.38422 1.38779 0
M  V30 2110 H 215.324 -3.23197 2.7041 0
M  V30 2111 H 214.048 -2.89737 1.50732 0
M  V30 2112 H 212.707 -1.68016 3.25832 0
M  V30 2113 H 212.355 -4.12656 2.87618 0
M  V30 2114 H 212.055 -3.68606 4.57606 0
M  V30 2115 H 213.579 -4.50206 4.12488 0
M  V30 2116 H 214.993 -2.4838 5.16701 0
M  V30 2117 H 213.39 -1.89393 5.6943 0
M  V30 2118 H 214.46 -0.816023 4.77984 0
M  V30 2119 N 215.803 -1.52179 -0.40978 0
M  V30 2120 C 217.028 -1.70347 -1.18308 0
M  V30 2121 C 217.453 -0.411887 -1.83535 0
M  V30 2122 O 216.811 0.630587 -1.6998 0
M  V30 2123 C 216.859 -2.83977 -2.22238 0
M  V30 2124 O 215.963 -2.495 -3.28365 0
M  V30 2125 H 215.304 -0.567103 -0.345384 0
M  V30 2126 H 217.834 -1.98879 -0.480445 0
M  V30 2127 H 217.844 -3.0887 -2.66577 0
M  V30 2128 H 216.519 -3.77685 -1.74146 0
M  V30 2129 H 215.096 -2.35277 -2.89308 0
M  V30 2130 N 217.281 0.66697 -1.42791 0
M  V30 2131 C 218.558 1.4234 -1.34159 0
M  V30 2132 C 218.938 2.11093 0.0172729 0
M  V30 2133 O 218.286 2.03808 1.03318 0
M  V30 2134 C 218.496 2.41942 -2.51526 0
M  V30 2135 C 219.844 3.06353 -2.93995 0
M  V30 2136 O 220.868 2.52269 -2.51473 0
M  V30 2137 O 219.727 4.04376 -3.67617 0
M  V30 2138 H 216.821 0.635277 -0.529483 0
M  V30 2139 H 219.367 0.695034 -1.54814 0
M  V30 2140 H 218.139 1.89991 -3.42081 0
M  V30 2141 H 217.762 3.22249 -2.32898 0
M  V30 2142 N 218.759 1.29093 0.90403 0
M  V30 2143 C 219.689 1.16401 2.02418 0
M  V30 2144 C 220.67 0.0593085 1.69997 0
M  V30 2145 O 221.855 0.238021 1.92736 0
M  V30 2146 C 218.985 0.835233 3.37107 0
M  V30 2147 C 217.939 1.89578 3.83724 0
M  V30 2148 C 217.265 1.42041 5.15489 0
M  V30 2149 C 218.565 3.30394 4.04521 0
M  V30 2150 H 220.259 2.10109 2.13295 0
M  V30 2151 H 217.805 1.01157 1.02486 0
M  V30 2152 H 219.758 0.733169 4.14973 0
M  V30 2153 H 218.482 -0.137543 3.2631 0
M  V30 2154 H 217.141 1.98715 3.08071 0
M  V30 2155 H 216.789 0.436426 5.01103 0
M  V30 2156 H 216.489 2.12964 5.4765 0
M  V30 2157 H 218.013 1.33176 5.959 0
M  V30 2158 H 219.427 3.24123 4.72882 0
M  V30 2159 H 217.824 3.99237 4.48029 0
M  V30 2160 H 218.894 3.73692 3.09002 0
M  V30 2161 N 220.237 -1.11381 1.11499 0
M  V30 2162 C 221.514 -1.7955 0.775965 0
M  V30 2163 C 221.894 -1.97859 -0.73588 0
M  V30 2164 O 221.242 -1.56376 -1.66609 0
M  V30 2165 C 221.452 -3.13196 1.53977 0
M  V30 2166 C 222.8 -3.88227 1.71944 0
M  V30 2167 O 223.824 -3.22887 1.50407 0
M  V30 2168 O 222.683 -5.05477 2.07738 0
M  V30 2169 H 219.777 -0.777728 0.28119 0
M  V30 2170 H 222.323 -1.18118 1.21845 0
M  V30 2171 H 221.095 -2.95229 2.56818 0
M  V30 2172 H 220.718 -3.82342 1.09088 0
M  V30 2173 N 221.715 -0.905404 -1.28997 0
M  V30 2174 C 223.131 -0.60233 -1.47798 0
M  V30 2175 C 223.331 0.854645 -1.82478 0
M  V30 2176 O 222.387 1.63439 -1.92468 0
M  V30 2177 C 223.7 -1.53306 -2.58685 0
M  V30 2178 C 225.248 -1.53887 -2.72558 0
M  V30 2179 C 225.723 -2.45602 -3.86579 0
M  V30 2180 N 227.214 -2.43681 -3.93921 0
M  V30 2181 C 227.949 -3.11347 -4.81509 0
M  V30 2182 N 227.445 -3.88313 -5.73746 0
M  V30 2183 N 229.238 -3.00476 -4.75048 0
M  V30 2184 H 221.389 -1.84765 -1.04764 0
M  V30 2185 H 223.652 -0.792025 -0.520961 0
M  V30 2186 H 223.358 -2.57141 -2.39941 0
M  V30 2187 H 223.232 -1.25787 -3.55609 0
M  V30 2188 H 225.619 -0.507941 -2.90696 0
M  V30 2189 H 225.7 -1.85447 -1.76191 0
M  V30 2190 H 225.344 -3.48792 -3.69197 0
M  V30 2191 H 225.274 -2.11349 -4.82327 0
M  V30 2192 H 227.765 -1.87767 -3.27951 0
M  V30 2193 H 228.078 -4.36985 -6.37389 0
M  V30 2194 H 226.423 -3.92419 -5.73614 0
M  V30 2195 H 229.614 -2.39858 -4.01977 0
M  V30 2196 H 229.787 -3.53485 -5.43095 0
M  V30 2197 N 223.193 1.4272 -0.668489 0
M  V30 2198 C 224.143 2.27971 0.0363806 0
M  V30 2199 C 225.127 1.40741 0.779794 0
M  V30 2200 O 226.319 1.64245 0.659745 0
M  V30 2201 C 223.448 3.28673 0.991398 0
M  V30 2202 C 222.534 4.23388 0.245658 0
M  V30 2203 N 222.925 5.00267 -0.746069 0
M  V30 2204 C 221.223 4.43355 0.484988 0
M  V30 2205 C 221.924 5.69396 -1.19009 0
M  V30 2206 N 220.9 5.41095 -0.521287 0
M  V30 2207 H 224.702 2.84833 -0.724394 0
M  V30 2208 H 222.216 1.54607 -0.497028 0
M  V30 2209 H 224.213 3.88543 1.51129 0
M  V30 2210 H 222.873 2.73373 1.75207 0
M  V30 2211 H 223.884 5.05525 -1.12537 0
M  V30 2212 H 220.561 3.99104 1.22565 0
M  V30 2213 H 221.951 6.41083 -2.01153 0
M  V30 2214 N 224.671 0.411399 1.52136 0
M  V30 2215 C 226.082 -0.0576826 1.86611 0
M  V30 2216 C 226.433 -1.44238 1.33003 0
M  V30 2217 O 225.558 -2.05759 0.670228 0
M  V30 2218 C 226.153 -0.111448 3.38617 0
M  V30 2219 C 224.712 -0.52487 3.72723 0
M  V30 2220 C 223.859 0.299176 2.75681 0
M  V30 2221 H 226.81 0.628368 1.4573 0
M  V30 2222 H 226.831 -0.926252 3.69054 0
M  V30 2223 H 226.343 0.896488 3.77604 0
M  V30 2224 H 224.444 -1.53936 3.39315 0
M  V30 2225 H 224.557 -0.267681 4.78352 0
M  V30 2226 H 222.921 -0.238814 2.53578 0
M  V30 2227 H 223.704 1.3055 3.17508 0
M  V30 2228 N 226.149 -1.5696 0.141893 0
M  V30 2229 C 227.059 -2.20066 -0.812905 0
M  V30 2230 C 228.075 -1.18344 -1.27557 0
M  V30 2231 O 229.251 -1.50902 -1.33381 0
M  V30 2232 C 226.316 -2.80583 -2.03652 0
M  V30 2233 C 225.377 -3.97414 -1.62359 0
M  V30 2234 C 224.61 -4.55036 -2.78887 0
M  V30 2235 O 224.833 -4.11538 -3.94959 0
M  V30 2236 O 223.767 -5.45376 -2.54653 0
M  V30 2237 H 227.593 -3.02157 -0.305746 0
M  V30 2238 H 225.178 -1.49159 -0.0848799 0
M  V30 2239 H 227.06 -3.19067 -2.75272 0
M  V30 2240 H 225.735 -2.01508 -2.5333 0
M  V30 2241 H 224.642 -3.63656 -0.877775 0
M  V30 2242 H 225.975 -4.77994 -1.17401 0
M  V30 2243 N 227.627 0.131896 -1.57047 0
M  V30 2244 C 228.876 0.84044 -1.83356 0
M  V30 2245 C 229.189 1.81646 -0.725535 0
M  V30 2246 O 230.395 2.57025 -0.874659 0
M  V30 2247 C 228.851 1.54528 -3.25037 0
M  V30 2248 C 228.459 0.610902 -4.43815 0
M  V30 2249 C 230.203 2.23972 -3.60606 0
M  V30 2250 C 228.11 1.31823 -5.76521 0
M  V30 2251 H 227.04 0.317599 -0.683847 0
M  V30 2252 H 229.691 0.0931561 -1.83263 0
M  V30 2253 H 228.073 2.33873 -3.19561 0
M  V30 2254 H 229.247 -0.148407 -4.60561 0
M  V30 2255 H 227.562 0.0241016 -4.16393 0
M  V30 2256 H 230.159 2.77558 -4.57018 0
M  V30 2257 H 230.502 3.01173 -2.87403 0
M  V30 2258 H 231.035 1.51529 -3.6781 0
M  V30 2259 H 227.774 0.587771 -6.52859 0
M  V30 2260 H 227.294 2.04987 -5.63685 0
M  V30 2261 H 228.973 1.855 -6.19838 0
M  V30 2262 N 229.106 1.52395 0.401703 0
M  V30 2263 C 230.383 1.57387 1.16141 0
M  V30 2264 C 230.763 0.359359 2.08019 0
M  V30 2265 O 230.111 -0.65326 2.18963 0
M  V30 2266 C 230.321 2.90631 1.93221 0
M  V30 2267 C 231.669 3.43904 2.49028 0
M  V30 2268 O 232.693 2.92421 2.03393 0
M  V30 2269 O 231.552 4.33823 3.32356 0
M  V30 2270 H 228.646 0.634262 0.530698 0
M  V30 2271 H 231.192 1.64725 0.407883 0
M  V30 2272 H 229.964 3.70473 1.25958 0
M  V30 2273 H 229.587 2.8662 2.75563 0
M  V30 2274 N 230.584 -0.659388 1.43143 0
M  V30 2275 C 231.514 -1.78422 1.50625 0
M  V30 2276 C 232.495 -1.66216 0.361443 0
M  V30 2277 O 233.68 -1.85404 0.577834 0
M  V30 2278 C 230.81 -3.16815 1.42287 0
M  V30 2279 C 229.764 -3.43777 2.54954 0
M  V30 2280 C 229.09 -4.81905 2.31671 0
M  V30 2281 C 230.39 -3.39134 3.97222 0
M  V30 2282 H 232.084 -1.72417 2.44771 0
M  V30 2283 H 229.63 -0.828084 1.17808 0
M  V30 2284 H 231.583 -3.95253 1.46127 0
M  V30 2285 H 230.307 -3.23534 0.446435 0
M  V30 2286 H 228.966 -2.67707 2.50457 0
M  V30 2287 H 228.614 -4.85294 1.32284 0
M  V30 2288 H 228.314 -5.00906 3.07192 0
M  V30 2289 H 229.838 -5.62609 2.37284 0
M  V30 2290 H 231.252 -4.07518 4.03239 0
M  V30 2291 H 229.649 -3.69671 4.72719 0
M  V30 2292 H 230.719 -2.37426 4.22797 0
M  V30 2293 N 232.062 -1.29571 -0.897171 0
M  V30 2294 C 233.025 -1.14913 -1.98312 0
M  V30 2295 C 234.025 -0.0838629 -1.60581 0
M  V30 2296 O 235.215 -0.331006 -1.71026 0
M  V30 2297 C 232.347 -0.757835 -3.3237 0
M  V30 2298 H 233.54 -2.11377 -2.12743 0
M  V30 2299 H 231.093 -1.12793 -1.08201 0
M  V30 2300 H 231.828 0.206837 -3.2364 0
M  V30 2301 H 231.613 -1.52755 -3.61121 0
M  V30 2302 H 233.103 -0.678408 -4.12053 0
M  V30 2303 N 233.54 1.10788 -1.12088 0
M  V30 2304 C 234.789 1.82036 -0.868659 0
M  V30 2305 C 235.102 1.85929 0.607426 0
M  V30 2306 O 236.308 2.53346 0.97613 0
M  V30 2307 C 234.764 3.26951 -1.50435 0
M  V30 2308 C 234.372 3.31367 -3.01496 0
M  V30 2309 C 236.116 4.03053 -1.33225 0
M  V30 2310 C 234.023 4.7072 -3.58017 0
M  V30 2311 H 232.953 0.682108 -0.321318 0
M  V30 2312 H 235.604 1.24618 -1.34694 0
M  V30 2313 H 233.986 3.84343 -0.953735 0
M  V30 2314 H 235.16 2.83819 -3.6302 0
M  V30 2315 H 233.475 2.6875 -3.18061 0
M  V30 2316 H 236.072 5.05981 -1.72878 0
M  V30 2317 H 236.415 4.15387 -0.275529 0
M  V30 2318 H 236.948 3.52066 -1.85188 0
M  V30 2319 H 233.687 4.63585 -4.63432 0
M  V30 2320 H 233.207 5.1865 -3.01268 0
M  V30 2321 H 234.886 5.39685 -3.56859 0
M  V30 2322 N 235.018 0.912232 1.28515 0
M  V30 2323 C 236.295 0.463597 1.90027 0
M  V30 2324 C 236.675 -1.05753 1.82701 0
M  V30 2325 O 236.023 -1.90492 1.26194 0
M  V30 2326 C 236.233 0.992253 3.34597 0
M  V30 2327 C 237.581 1.04344 4.11579 0
M  V30 2328 O 238.605 0.94079 3.43551 0
M  V30 2329 O 237.464 1.1995 5.33174 0
M  V30 2330 H 234.558 0.146666 0.813891 0
M  V30 2331 H 237.104 1.00292 1.36893 0
M  V30 2332 H 235.876 2.03623 3.34146 0
M  V30 2333 H 235.499 0.433672 3.95228 0
M  V30 2334 N 236.496 -1.42363 0.676048 0
M  V30 2335 C 237.744 -2.01123 0.198437 0
M  V30 2336 C 238.065 -1.53731 -1.19966 0
M  V30 2337 O 237.335 -0.759518 -1.80577 0
M  V30 2338 H 235.915 -0.743678 0.0703721 0
M  V30 2339 H 238.577 -1.74263 0.872837 0
M  V30 2340 H 237.673 -3.11454 0.200686 0
M  V30 2341 N 237.974 -0.419461 -1.51915 0
M  V30 2342 C 238.937 0.389116 -2.25873 0
M  V30 2343 C 239.937 0.964924 -1.28631 0
M  V30 2344 O 241.127 0.842179 -1.52489 0
M  V30 2345 C 238.259 1.54874 -3.03689 0
M  V30 2346 H 239.452 -0.258799 -2.98781 0
M  V30 2347 H 237.005 -0.172209 -1.55348 0
M  V30 2348 H 237.74 2.23323 -2.35154 0
M  V30 2349 H 237.525 1.14223 -3.75094 0
M  V30 2350 H 239.015 2.12046 -3.59759 0
M  V30 2351 N 239.452 1.56882 -0.150215 0
M  V30 2352 C 240.729 1.87844 0.545327 0
M  V30 2353 C 241.109 1.0567 1.82749 0
M  V30 2354 O 240.457 0.144442 2.28043 0
M  V30 2355 C 240.667 3.39526 0.80767 0
M  V30 2356 C 242.015 4.08814 1.14703 0
M  V30 2357 O 243.039 3.44723 0.896917 0
M  V30 2358 O 241.898 5.22004 1.61784 0
M  V30 2359 H 238.992 0.778677 0.278553 0
M  V30 2360 H 241.538 1.68666 -0.187068 0
M  V30 2361 H 240.31 3.91173 -0.0996096 0
M  V30 2362 H 239.933 3.64243 1.59413 0
M  V30 2363 N 240.93 -0.123565 1.57115 0
M  V30 2364 C 241.84 -1.17074 2.033 0
M  V30 2365 C 242.856 -1.4561 0.952559 0
M  V30 2366 O 244.032 -1.56817 1.26374 0
M  V30 2367 C 241.097 -2.47857 2.42421 0
M  V30 2368 C 240.158 -2.26758 3.64526 0
M  V30 2369 C 239.391 -3.51305 4.01771 0
M  V30 2370 O 239.614 -4.5843 3.39409 0
M  V30 2371 O 238.548 -3.42578 4.94898 0
M  V30 2372 H 242.374 -0.808555 2.92739 0
M  V30 2373 H 239.959 -0.334027 1.45618 0
M  V30 2374 H 241.841 -3.2492 2.68338 0
M  V30 2375 H 240.516 -2.83558 1.5613 0
M  V30 2376 H 239.423 -1.47569 3.43765 0
M  V30 2377 H 240.756 -1.95963 4.51508 0
M  V30 2378 N 242.408 -1.52605 -0.393616 0
M  V30 2379 C 243.654 -1.67672 -1.14079 0
M  V30 2380 C 243.987 -0.413121 -1.89755 0
M  V30 2381 O 243.262 0.588952 -1.85369 0
M  V30 2382 C 243.545 -2.9088 -2.12276 0
M  V30 2383 C 243.398 -4.27329 -1.40394 0
M  V30 2384 C 244.717 -3.09628 -3.12759 0
M  V30 2385 H 241.836 -0.610168 -0.413356 0
M  V30 2386 H 244.478 -1.85193 -0.424696 0
M  V30 2387 H 242.628 -2.76073 -2.73342 0
M  V30 2388 H 244.3 -4.53894 -0.82327 0
M  V30 2389 H 242.543 -4.2802 -0.705801 0
M  V30 2390 H 243.214 -5.09615 -2.12123 0
M  V30 2391 H 245.69 -3.23436 -2.61779 0
M  V30 2392 H 244.566 -3.97322 -3.78717 0
M  V30 2393 H 244.827 -2.23637 -3.81365 0
M  V30 2394 N 243.887 0.651787 -1.4349 0
M  V30 2395 C 245.164 1.40909 -1.35661 0
M  V30 2396 C 245.544 2.11099 -0.00511733 0
M  V30 2397 O 244.892 2.04892 1.0115 0
M  V30 2398 C 245.102 2.3926 -2.54078 0
M  V30 2399 C 246.45 3.03217 -2.97228 0
M  V30 2400 O 247.474 2.49588 -2.54135 0
M  V30 2401 O 246.333 4.00455 -3.71885 0
M  V30 2402 H 243.427 0.629625 -0.536191 0
M  V30 2403 H 245.973 0.678575 -1.55542 0
M  V30 2404 H 244.745 1.86352 -3.44076 0
M  V30 2405 H 244.368 3.1976 -2.36303 0
M  V30 2406 N 245.365 1.30045 0.890287 0
M  V30 2407 C 246.328 1.15963 1.977 0
M  V30 2408 C 247.328 0.0923777 1.60534 0
M  V30 2409 O 248.518 0.340071 1.70848 0
M  V30 2410 C 245.65 0.775451 3.31963 0
M  V30 2411 H 246.843 2.12502 2.11619 0
M  V30 2412 H 244.396 1.13366 1.07601 0
M  V30 2413 H 245.131 -0.189671 3.23745 0
M  V30 2414 H 244.916 1.54668 3.60306 0
M  V30 2415 H 246.406 0.700251 4.11687 0
M  V30 2416 N 246.843 -1.10192 1.12674 0
M  V30 2417 C 248.12 -1.78717 0.794965 0
M  V30 2418 C 248.5 -1.98628 -0.714853 0
M  V30 2419 O 247.848 -1.58135 -1.64941 0
M  V30 2420 C 248.058 -3.11546 1.5729 0
M  V30 2421 C 249.406 -3.86382 1.76052 0
M  V30 2422 O 250.43 -3.21274 1.53823 0
M  V30 2423 O 249.289 -5.03246 2.13087 0
M  V30 2424 H 246.383 -0.774702 0.289423 0
M  V30 2425 H 248.929 -1.16819 1.23091 0
M  V30 2426 H 247.701 -2.92489 2.59935 0
M  V30 2427 H 247.324 -3.81164 1.13137 0
M  V30 2428 N 248.321 -0.919034 -1.28029 0
M  V30 2429 C 249.251 -0.428581 -2.29533 0
M  V30 2430 C 250.232 0.50659 -1.62381 0
M  V30 2431 O 251.417 0.413195 -1.89753 0
M  V30 2432 C 248.547 0.327388 -3.45753 0
M  V30 2433 C 247.501 -0.519137 -4.2484 0
M  V30 2434 C 246.827 0.365486 -5.33449 0
M  V30 2435 C 248.127 -1.77914 -4.91064 0
M  V30 2436 H 249.821 -1.27687 -2.70807 0
M  V30 2437 H 247.367 -0.615428 -1.30186 0
M  V30 2438 H 249.32 0.681378 -4.15855 0
M  V30 2439 H 248.044 1.20963 -3.03374 0
M  V30 2440 H 246.703 -0.855717 -3.56473 0
M  V30 2441 H 246.351 1.24642 -4.87312 0
M  V30 2442 H 246.051 -0.197356 -5.87268 0
M  V30 2443 H 247.575 0.715241 -6.06396 0
M  V30 2444 H 248.989 -1.49374 -5.53498 0
M  V30 2445 H 247.386 -2.2848 -5.54903 0
M  V30 2446 H 248.456 -2.50382 -4.15255 0
M  V30 2447 N 249.799 1.42003 -0.683588 0
M  V30 2448 C 250.747 2.326 0.000815408 0
M  V30 2449 C 251.741 1.50308 0.781278 0
M  V30 2450 O 252.947 1.66322 0.688251 0
M  V30 2451 H 249.322 0.751758 0.0190616 0
M  V30 2452 H 251.293 2.88011 -0.780528 0
M  V30 2453 C 250.042 3.34978 0.93195 0
M  V30 2454 H 249.365 3.98345 0.340817 0
M  V30 2455 H 250.805 4.00936 1.37936 0
M  V30 2456 C 249.264 2.67925 2.04249 0
M  V30 2457 O 249.794 2.51788 3.12995 0
M  V30 2458 N 248 2.2681 1.81675 0
M  V30 2459 H 247.547 2.40135 0.932363 0
M  V30 2460 H 247.505 1.8228 2.56167 0
M  V30 2461 N 251.277 0.427512 1.51691 0
M  V30 2462 C 252.207 -0.3796 2.30394 0
M  V30 2463 C 253.188 -1.02982 1.35384 0
M  V30 2464 O 254.373 -1.03534 1.643 0
M  V30 2465 C 251.503 -1.48649 3.1388 0
M  V30 2466 C 250.457 -0.960294 4.17088 0
M  V30 2467 C 249.783 -2.16219 4.89033 0
M  V30 2468 C 251.083 -0.00153679 5.223 0
M  V30 2469 H 252.777 0.277164 2.98114 0
M  V30 2470 H 250.323 0.134739 1.43368 0
M  V30 2471 H 252.276 -2.05826 3.67714 0
M  V30 2472 H 251 -2.1714 2.43962 0
M  V30 2473 H 249.659 -0.410806 3.64291 0
M  V30 2474 H 249.307 -2.83307 4.15628 0
M  V30 2475 H 249.007 -1.81654 5.58816 0
M  V30 2476 H 250.531 -2.73968 5.45687 0
M  V30 2477 H 251.945 -0.482687 5.71264 0
M  V30 2478 H 250.342 0.256199 5.99553 0
M  V30 2479 H 251.412 0.938174 4.75738 0
M  V30 2480 N 252.755 -1.56801 0.158532 0
M  V30 2481 C 254.004 -1.95665 -0.489702 0
M  V30 2482 C 254.317 -1.04654 -1.65248 0
M  V30 2483 O 255.523 -1.33146 -2.3661 0
M  V30 2484 C 253.979 -3.47874 -0.922582 0
M  V30 2485 C 253.587 -4.47489 0.213893 0
M  V30 2486 C 255.331 -3.95583 -1.53996 0
M  V30 2487 C 253.238 -5.90921 -0.237903 0
M  V30 2488 H 252.168 -0.730516 -0.186716 0
M  V30 2489 H 254.819 -1.81861 0.244722 0
M  V30 2490 H 253.201 -3.57051 -1.71261 0
M  V30 2491 H 254.375 -4.50017 0.991036 0
M  V30 2492 H 252.69 -4.09764 0.740407 0
M  V30 2493 H 255.287 -5.0019 -1.8898 0
M  V30 2494 H 255.63 -3.37789 -2.43319 0
M  V30 2495 H 256.163 -3.8937 -0.814611 0
M  V30 2496 H 252.902 -6.52559 0.620236 0
M  V30 2497 H 252.422 -5.91729 -0.980676 0
M  V30 2498 H 254.101 -6.43352 -0.686067 0
M  V30 2499 N 254.233 0.115231 -1.57178 0
M  V30 2500 C 255.18 1.14115 -2.00615 0
M  V30 2501 C 256.15 1.40939 -0.878941 0
M  V30 2502 O 257.335 1.52741 -1.14345 0
M  V30 2503 C 254.475 2.46156 -2.4187 0
M  V30 2504 C 253.588 2.26236 -3.68024 0
M  V30 2505 C 252.723 3.51534 -3.98243 0
M  V30 2506 C 251.762 3.26787 -5.17568 0
M  V30 2507 N 250.899 4.44298 -5.43639 0
M  V30 2508 H 255.739 0.763743 -2.88047 0
M  V30 2509 H 253.276 0.365615 -1.42484 0
M  V30 2510 H 255.234 3.23189 -2.63827 0
M  V30 2511 H 253.864 2.81783 -1.57475 0
M  V30 2512 H 252.916 1.40102 -3.5366 0
M  V30 2513 H 254.228 2.03929 -4.55208 0
M  V30 2514 H 253.382 4.36984 -4.20868 0
M  V30 2515 H 252.121 3.76876 -3.09541 0
M  V30 2516 H 251.126 2.39729 -4.94783 0
M  V30 2517 H 252.351 3.02812 -6.0785 0
M  V30 2518 H 250.297 4.69754 -4.57895 0
M  V30 2519 H 250.214 4.25109 -6.25154 0
M  V30 2520 H 251.482 5.3087 -5.70786 0
M  V30 2521 N 255.711 1.52812 0.385517 0
M  V30 2522 C 256.959 1.67694 1.12797 0
M  V30 2523 C 257.28 0.421115 1.90399 0
M  V30 2524 O 256.55 -0.564551 1.87589 0
M  V30 2525 H 255.13 0.618155 0.419396 0
M  V30 2526 H 257.792 1.89938 0.436972 0
M  V30 2527 H 256.888 2.52896 1.82894 0
M  V30 2528 N 257.189 -0.644168 1.43834 0
M  V30 2529 C 258.437 -1.40117 1.45642 0
M  V30 2530 C 258.758 -1.94814 0.0852413 0
M  V30 2531 O 258.028 -1.74988 -0.880688 0
M  V30 2532 H 256.608 -0.52005 0.536243 0
M  V30 2533 H 259.27 -0.7591 1.7951 0
M  V30 2534 H 258.366 -2.23902 2.17427 0
M  V30 2535 N 258.668 -1.30515 -0.883378 0
M  V30 2536 C 259.916 -1.19194 -1.63209 0
M  V30 2537 C 260.237 0.253205 -1.93349 0
M  V30 2538 O 259.507 1.17025 -1.57105 0
M  V30 2539 H 258.087 -0.438148 -0.605009 0
M  V30 2540 H 260.749 -1.63663 -1.05832 0
M  V30 2541 H 259.845 -1.75396 -2.58153 0
M  V30 2542 N 260.146 1.09593 -1.13257 0
M  V30 2543 C 261.394 1.81375 -0.891492 0
M  V30 2544 C 261.715 1.86049 0.584009 0
M  V30 2545 O 260.985 1.34481 1.42449 0
M  V30 2546 H 259.565 0.671708 -0.326828 0
M  V30 2547 H 262.227 1.3256 -1.42877 0
M  V30 2548 H 261.323 2.84612 -1.28071 0
M  V30 2549 N 261.624 0.925811 1.2754 0
M  V30 2550 C 262.864 0.572521 1.96218 0
M  V30 2551 C 263.228 -0.869719 1.71172 0
M  V30 2552 O 264.429 -1.33119 2.33523 0
M  V30 2553 C 262.7 0.887325 3.4621 0
M  V30 2554 S 264.259 0.642266 4.34074 0
M  V30 2555 H 261.077 0.211403 0.678845 0
M  V30 2556 H 263.679 1.19384 1.54815 0
M  V30 2557 H 262.383 1.93469 3.61936 0
M  V30 2558 H 261.914 0.255123 3.92572 0
M  V30 2559 H 263.929 -0.500822 4.93666 0
M  V30 2560 N 263.102 -1.41638 0.69111 0
M  V30 2561 C 264.032 -2.3347 0.037248 0
M  V30 2562 C 265.013 -1.51575 -0.771947 0
M  V30 2563 O 266.198 -1.80126 -0.72582 0
M  V30 2564 C 263.328 -3.35354 -0.903064 0
M  V30 2565 C 262.282 -4.27526 -0.201288 0
M  V30 2566 C 261.608 -5.19747 -1.25565 0
M  V30 2567 C 262.908 -5.13959 0.929689 0
M  V30 2568 H 264.602 -2.88397 0.804227 0
M  V30 2569 H 262.148 -1.38669 0.388189 0
M  V30 2570 H 264.101 -3.98519 -1.36969 0
M  V30 2571 H 262.825 -2.78767 -1.70166 0
M  V30 2572 H 261.484 -3.65779 0.245265 0
M  V30 2573 H 261.132 -4.59479 -2.04666 0
M  V30 2574 H 260.832 -5.8225 -0.791128 0
M  V30 2575 H 262.356 -5.85789 -1.72288 0
M  V30 2576 H 263.77 -5.70718 0.543546 0
M  V30 2577 H 262.167 -5.85379 1.32103 0
M  V30 2578 H 263.237 -4.51389 1.77133 0
M  V30 2579 N 264.58 -0.43555 -1.51462 0
M  V30 2580 C 265.808 0.130242 -2.0649 0
M  V30 2581 C 266.223 1.36614 -1.30315 0
M  V30 2582 O 265.58 1.78869 -0.362223 0
M  V30 2583 C 265.631 0.454253 -3.58635 0
M  V30 2584 O 265.352 -0.73259 -4.31931 0
M  V30 2585 C 266.853 1.07091 -4.3017 0
M  V30 2586 H 264.073 0.00871669 -0.670943 0
M  V30 2587 H 266.617 -0.614117 -1.95061 0
M  V30 2588 H 264.772 1.14851 -3.69984 0
M  V30 2589 H 265.186 -0.455787 -5.22516 0
M  V30 2590 H 266.66 1.24764 -5.37716 0
M  V30 2591 H 267.137 2.05144 -3.88346 0
M  V30 2592 H 267.743 0.416089 -4.2326 0
M  V30 2593 N 266.058 1.56714 -0.166846 0
M  V30 2594 C 266.99 2.14914 0.796537 0
M  V30 2595 C 268.003 1.10357 1.19688 0
M  V30 2596 O 269.192 1.37561 1.13751 0
M  V30 2597 C 266.292 2.67326 2.08303 0
M  V30 2598 C 265.465 3.96493 1.84696 0
M  V30 2599 C 264.524 4.34014 2.97521 0
M  V30 2600 O 263.55 5.01973 2.6835 0
M  V30 2601 N 264.752 3.95208 4.25196 0
M  V30 2602 H 267.517 2.98205 0.299006 0
M  V30 2603 H 265.078 1.61892 0.0160839 0
M  V30 2604 H 267.07 2.89428 2.82867 0
M  V30 2605 H 265.64 1.88649 2.4926 0
M  V30 2606 H 264.86 3.82814 0.940602 0
M  V30 2607 H 266.148 4.8086 1.66285 0
M  V30 2608 H 265.546 3.40487 4.51758 0
M  V30 2609 H 264.103 4.2232 4.96477 0
M  V30 2610 N 267.536 -0.106894 1.57237 0
M  V30 2611 C 268.446 -1.14911 2.0453 0
M  V30 2612 C 269.462 -1.44592 0.96795 0
M  V30 2613 O 270.638 -1.55468 1.2803 0
M  V30 2614 C 267.703 -2.45272 2.45036 0
M  V30 2615 C 266.764 -2.22879 3.66911 0
M  V30 2616 C 265.997 -3.47024 4.05475 0
M  V30 2617 O 266.22 -4.54804 3.44252 0
M  V30 2618 O 265.154 -3.3731 4.98504 0
M  V30 2619 H 268.98 -0.777461 2.9358 0
M  V30 2620 H 266.565 -0.318563 1.45964 0
M  V30 2621 H 268.447 -3.22055 2.71769 0
M  V30 2622 H 267.122 -2.81886 1.59129 0
M  V30 2623 H 266.029 -1.43915 3.45311 0
M  V30 2624 H 267.362 -1.91163 4.53561 0
M  V30 2625 N 269.014 -1.53014 -0.377408 0
M  V30 2626 C 269.961 -1.78616 -1.46168 0
M  V30 2627 C 270.931 -0.629917 -1.53692 0
M  V30 2628 O 272.116 -0.870861 -1.69766 0
M  V30 2629 C 269.256 -1.97123 -2.8326 0
M  V30 2630 C 268.369 -3.24831 -2.84796 0
M  V30 2631 C 267.504 -3.33591 -4.13389 0
M  V30 2632 C 266.543 -4.55377 -4.09021 0
M  V30 2633 N 265.68 -4.61355 -5.29241 0
M  V30 2634 H 270.52 -2.71142 -1.23637 0
M  V30 2635 H 268.057 -1.34326 -0.599577 0
M  V30 2636 H 270.015 -2.05839 -3.62886 0
M  V30 2637 H 268.645 -1.07946 -3.04216 0
M  V30 2638 H 267.697 -3.25128 -1.97474 0
M  V30 2639 H 269.009 -4.14523 -2.77439 0
M  V30 2640 H 268.163 -3.41554 -5.01424 0
M  V30 2641 H 266.902 -2.41894 -4.23484 0
M  V30 2642 H 265.907 -4.47527 -3.19373 0
M  V30 2643 H 267.132 -5.48402 -4.00539 0
M  V30 2644 H 265.078 -3.72554 -5.39944 0
M  V30 2645 H 264.995 -5.44935 -5.24006 0
M  V30 2646 H 266.263 -4.73586 -6.19141 0
M  V30 2647 N 270.492 0.636531 -1.44174 0
M  V30 2648 C 271.741 1.39213 -1.45954 0
M  V30 2649 C 272.054 1.95374 -0.0939119 0
M  V30 2650 O 273.26 2.71498 0.0107767 0
M  V30 2651 C 271.716 2.52025 -2.56927 0
M  V30 2652 C 271.324 2.024 -3.99673 0
M  V30 2653 C 273.068 3.29269 -2.67922 0
M  V30 2654 C 270.975 3.12521 -5.0208 0
M  V30 2655 H 269.905 0.523132 -0.542999 0
M  V30 2656 H 272.556 0.685349 -1.70221 0
M  V30 2657 H 270.938 3.25253 -2.25891 0
M  V30 2658 H 272.112 1.36073 -4.40251 0
M  V30 2659 H 270.427 1.37987 -3.92872 0
M  V30 2660 H 273.024 4.11352 -3.41605 0
M  V30 2661 H 273.367 3.78397 -1.73555 0
M  V30 2662 H 273.9 2.63129 -2.98342 0
M  V30 2663 H 270.639 2.68343 -5.98057 0
M  V30 2664 H 270.159 3.77507 -4.66099 0
M  V30 2665 H 271.838 3.77385 -5.25538 0
M  V30 2666 N 271.97 1.30982 0.876444 0
M  V30 2667 C 273.216 1.20474 1.63138 0
M  V30 2668 C 273.549 -0.238096 1.92735 0
M  V30 2669 O 272.824 -1.1692 1.55435 0
M  V30 2670 C 273.107 2.04244 2.96574 0
M  V30 2671 C 272.96 3.56793 2.73896 0
M  V30 2672 C 274.279 1.88684 3.97601 0
M  V30 2673 H 271.398 0.439001 0.591985 0
M  V30 2674 H 274.04 1.60704 1.01361 0
M  V30 2675 H 272.19 1.70063 3.493 0
M  V30 2676 H 273.862 4.01077 2.27892 0
M  V30 2677 H 272.105 3.80548 2.08245 0
M  V30 2678 H 272.776 4.10706 3.68815 0
M  V30 2679 H 275.252 2.18584 3.54062 0
M  V30 2680 H 274.128 2.4961 4.88862 0
M  V30 2681 H 274.389 0.848343 4.33884 0
M  V30 2682 N 273.449 -1.08991 1.13837 0
M  V30 2683 C 274.412 -2.13925 0.822715 0
M  V30 2684 C 275.412 -1.599 -0.1699 0
M  V30 2685 O 276.602 -1.74104 0.0577251 0
M  V30 2686 C 273.734 -3.40155 0.225318 0
M  V30 2687 H 274.927 -2.43358 1.75262 0
M  V30 2688 H 272.48 -1.24603 0.943594 0
M  V30 2689 H 273.215 -3.16352 -0.713594 0
M  V30 2690 H 273 -3.80661 0.940193 0
M  V30 2691 H 274.49 -4.17594 0.0214784 0
M  V30 2692 N 274.927 -0.932562 -1.27047 0
M  V30 2693 C 276.175 -0.574422 -1.93765 0
M  V30 2694 C 276.496 0.887993 -1.73608 0
M  V30 2695 O 275.766 1.62999 -1.08665 0
M  V30 2696 H 274.346 -0.209451 -0.717035 0
M  V30 2697 H 277.008 -1.18601 -1.5466 0
M  V30 2698 H 276.104 -0.784841 -3.02071 0
M  V30 2699 N 276.405 1.4127 -0.698611 0
M  V30 2700 C 277.635 2.05205 -0.239644 0
M  V30 2701 C 278.043 1.52684 1.11733 0
M  V30 2702 O 277.386 0.671222 1.70998 0
M  V30 2703 C 277.448 3.59289 -0.123126 0
M  V30 2704 C 277.112 4.34619 -1.41263 0
M  V30 2705 C 278.109 4.63701 -2.35111 0
M  V30 2706 C 275.794 4.73837 -1.66684 0
M  V30 2707 C 277.788 5.30966 -3.52639 0
M  V30 2708 C 275.475 5.40837 -2.84498 0
M  V30 2709 C 276.473 5.69329 -3.77298 0
M  V30 2710 O 276.161 6.34949 -4.93047 0
M  V30 2711 H 275.893 0.66723 -0.108537 0
M  V30 2712 H 278.447 1.81974 -0.952602 0
M  V30 2713 H 276.677 3.81272 0.645628 0
M  V30 2714 H 278.366 4.04797 0.299056 0
M  V30 2715 H 279.132 4.33882 -2.16729 0
M  V30 2716 H 275.011 4.51039 -0.953135 0
M  V30 2717 H 278.555 5.53121 -4.25091 0
M  V30 2718 H 274.452 5.70075 -3.02795 0
M  V30 2719 H 275.22 6.53445 -4.92902 0
M  V30 2720 N 277.883 0.443576 1.51229 0
M  V30 2721 C 278.846 -0.353132 2.26463 0
M  V30 2722 C 279.846 -0.944338 1.3015 0
M  V30 2723 O 281.036 -0.817813 1.5381 0
M  V30 2724 C 278.168 -1.50023 3.06114 0
M  V30 2725 H 279.361 0.3063 2.98332 0
M  V30 2726 H 276.914 0.196902 1.55055 0
M  V30 2727 H 277.649 -2.19553 2.38677 0
M  V30 2728 H 277.434 -1.08241 3.76864 0
M  V30 2729 H 278.924 -2.06296 3.63087 0
M  V30 2730 N 279.361 -1.56624 0.175154 0
M  V30 2731 C 280.586 -2.01813 -0.478137 0
M  V30 2732 C 281.011 -1.05457 -1.55757 0
M  V30 2733 O 280.369 -0.0347439 -1.81267 0
M  V30 2734 C 280.417 -3.45581 -1.02987 0
M  V30 2735 O 279.521 -3.52305 -2.14371 0
M  V30 2736 H 278.862 -0.65413 -0.114059 0
M  V30 2737 H 281.392 -2.02673 0.280173 0
M  V30 2738 H 281.402 -3.84965 -1.35151 0
M  V30 2739 H 280.077 -4.1521 -0.239556 0
M  V30 2740 H 278.654 -3.24783 -1.83222 0
M  V30 2741 N 280.839 0.0985539 -1.57292 0
M  V30 2742 C 282.255 0.45267 -1.53046 0
M  V30 2743 C 282.455 1.80713 -0.891342 0
M  V30 2744 O 281.511 2.4785 -0.482375 0
M  V30 2745 C 282.824 0.418341 -2.97776 0
M  V30 2746 C 284.372 0.500443 -3.08973 0
M  V30 2747 C 284.847 0.496297 -4.55303 0
M  V30 2748 N 286.338 0.557151 -4.59837 0
M  V30 2749 C 287.073 0.575726 -5.70502 0
M  V30 2750 N 286.569 0.550714 -6.90608 0
M  V30 2751 N 288.362 0.620277 -5.58667 0
M  V30 2752 H 280.513 -0.788673 -1.97215 0
M  V30 2753 H 282.776 -0.293188 -0.901524 0
M  V30 2754 H 282.482 -0.509659 -3.47988 0
M  V30 2755 H 282.356 1.2386 -3.56284 0
M  V30 2756 H 284.743 1.41886 -2.58751 0
M  V30 2757 H 284.824 -0.347894 -2.53423 0
M  V30 2758 H 284.468 -0.418162 -5.06176 0
M  V30 2759 H 284.398 1.3618 -5.08687 0
M  V30 2760 H 286.889 0.581816 -3.73394 0
M  V30 2761 H 287.202 0.568075 -7.70709 0
M  V30 2762 H 285.547 0.517816 -6.93068 0
M  V30 2763 H 288.738 0.637322 -4.63741 0
M  V30 2764 H 288.911 0.631283 -6.44918 0
M  V30 2765 N 282.317 1.53212 0.369288 0
M  V30 2766 C 283.564 1.69215 1.11232 0
M  V30 2767 C 283.892 0.442048 1.8941 0
M  V30 2768 O 283.147 -0.575944 1.87033 0
M  V30 2769 C 283.446 2.89101 2.10132 0
M  V30 2770 C 283.112 4.25758 1.48463 0
M  V30 2771 C 281.774 4.6292 1.31372 0
M  V30 2772 C 284.126 5.10757 1.03811 0
M  V30 2773 C 281.454 5.82722 0.68207 0
M  V30 2774 C 283.806 6.31201 0.420487 0
M  V30 2775 C 282.47 6.67079 0.237038 0
M  V30 2776 H 281.74 0.619201 0.407027 0
M  V30 2777 H 284.387 1.87391 0.394552 0
M  V30 2778 H 282.692 2.65421 2.88199 0
M  V30 2779 H 284.389 2.98676 2.6757 0
M  V30 2780 H 280.979 3.96494 1.62758 0
M  V30 2781 H 285.163 4.82599 1.1581 0
M  V30 2782 H 280.419 6.09113 0.528316 0
M  V30 2783 H 284.593 6.96368 0.0662874 0
M  V30 2784 H 282.22 7.59774 -0.254477 0
M  V30 2785 N 283.795 -0.628877 1.44509 0
M  V30 2786 C 285.044 -1.38437 1.4669 0
M  V30 2787 C 285.357 -1.95322 0.104272 0
M  V30 2788 O 286.563 -2.715 0.00362163 0
M  V30 2789 C 285.019 -2.50659 2.5826 0
M  V30 2790 C 284.627 -2.00277 4.0074 0
M  V30 2791 C 286.371 -3.27844 2.69664 0
M  V30 2792 C 284.278 -3.09854 5.0373 0
M  V30 2793 H 283.208 -0.520245 0.545766 0
M  V30 2794 H 285.859 -0.676313 1.70582 0
M  V30 2795 H 284.241 -3.2405 2.27612 0
M  V30 2796 H 285.415 -1.33736 4.40966 0
M  V30 2797 H 283.73 -1.35901 3.93599 0
M  V30 2798 H 286.327 -4.09534 3.43781 0
M  V30 2799 H 286.67 -3.77471 1.75559 0
M  V30 2800 H 287.203 -2.61543 2.99733 0
M  V30 2801 H 283.942 -2.65168 5.99472 0
M  V30 2802 H 283.462 -3.7503 4.68095 0
M  V30 2803 H 285.141 -3.74592 5.27532 0
M  V30 2804 N 285.273 -1.31445 -0.869486 0
M  V30 2805 C 286.519 -1.21337 -1.62496 0
M  V30 2806 C 286.852 0.227872 -1.92858 0
M  V30 2807 O 286.127 1.16094 -1.56053 0
M  V30 2808 C 286.41 -2.05814 -2.95487 0
M  V30 2809 C 286.263 -3.5824 -2.72 0
M  V30 2810 C 287.582 -1.9079 -3.96594 0
M  V30 2811 H 284.701 -0.442135 -0.589649 0
M  V30 2812 H 287.343 -1.6124 -1.00507 0
M  V30 2813 H 285.493 -1.71913 -3.48394 0
M  V30 2814 H 287.165 -4.0228 -2.25762 0
M  V30 2815 H 285.408 -3.81647 -2.06224 0
M  V30 2816 H 286.079 -4.12657 -3.66631 0
M  V30 2817 H 288.555 -2.20459 -3.52898 0
M  V30 2818 H 287.431 -2.52199 -4.87531 0
M  V30 2819 H 287.692 -0.871341 -4.33428 0
M  V30 2820 N 286.751 1.08385 -1.14413 0
M  V30 2821 C 288 1.80153 -0.907076 0
M  V30 2822 C 288.313 1.87176 0.567851 0
M  V30 2823 O 289.519 2.55359 0.922172 0
M  V30 2824 C 287.975 3.23687 -1.57336 0
M  V30 2825 C 287.583 3.24897 -3.08457 0
M  V30 2826 C 289.327 4.00136 -1.41744 0
M  V30 2827 C 287.234 4.6302 -3.67921 0
M  V30 2828 H 286.164 0.675139 -0.335714 0
M  V30 2829 H 288.815 1.21733 -1.37307 0
M  V30 2830 H 287.197 3.82234 -1.03505 0
M  V30 2831 H 288.371 2.76055 -3.68958 0
M  V30 2832 H 286.686 2.61943 -3.2369 0
M  V30 2833 H 289.283 5.02201 -1.83572 0
M  V30 2834 H 289.626 4.14709 -0.363576 0
M  V30 2835 H 290.159 3.48058 -1.92614 0
M  V30 2836 H 286.898 4.5365 -4.73161 0
M  V30 2837 H 286.418 5.12143 -3.12201 0
M  V30 2838 H 288.097 5.31994 -3.68227 0
M  V30 2839 N 288.23 0.939286 1.26551 0
M  V30 2840 C 289.193 0.451987 2.24699 0
M  V30 2841 C 290.193 -0.435869 1.5478 0
M  V30 2842 O 291.383 -0.235314 1.72603 0
M  V30 2843 C 288.515 -0.348801 3.39111 0
M  V30 2844 H 289.708 1.3193 2.69322 0
M  V30 2845 H 287.261 0.721072 1.38673 0
M  V30 2846 H 287.996 -1.23444 2.99887 0
M  V30 2847 H 287.781 0.287945 3.91041 0
M  V30 2848 H 289.271 -0.679726 4.12031 0
M  V30 2849 N 289.708 -1.40897 0.706093 0
M  V30 2850 C 290.985 -1.94868 0.169099 0
M  V30 2851 C 291.365 -1.64485 -1.32318 0
M  V30 2852 O 290.713 -0.95744 -2.07474 0
M  V30 2853 C 290.923 -3.45798 0.471654 0
M  V30 2854 C 292.271 -4.22663 0.405127 0
M  V30 2855 O 293.295 -3.53865 0.407168 0
M  V30 2856 O 292.154 -5.45216 0.374383 0
M  V30 2857 H 289.248 -0.82673 0.0211352 0
M  V30 2858 H 291.794 -1.50558 0.782976 0
M  V30 2859 H 290.566 -3.61235 1.50416 0
M  V30 2860 H 290.189 -3.97225 -0.172666 0
M  V30 2861 N 291.186 -0.45159 -1.50991 0
M  V30 2862 C 292.433 0.110074 -2.02201 0
M  V30 2863 C 292.761 1.4146 -1.33489 0
M  V30 2864 O 292.016 1.90617 -0.443125 0
M  V30 2865 C 292.315 0.361728 -3.55565 0
M  V30 2866 C 291.981 -0.858717 -4.42648 0
M  V30 2867 C 290.643 -1.19338 -4.66167 0
M  V30 2868 C 292.995 -1.67221 -4.93646 0
M  V30 2869 C 290.323 -2.34195 -5.37931 0
M  V30 2870 C 292.675 -2.8119 -5.6667 0
M  V30 2871 C 291.339 -3.15094 -5.88449 0
M  V30 2872 H 290.609 0.040279 -0.739904 0
M  V30 2873 H 293.256 -0.601696 -1.81802 0
M  V30 2874 H 291.561 1.15554 -3.74372 0
M  V30 2875 H 293.258 0.80996 -3.92735 0
M  V30 2876 H 289.848 -0.58796 -4.24548 0
M  V30 2877 H 294.032 -1.42686 -4.75347 0
M  V30 2878 H 289.288 -2.6076 -5.53005 0
M  V30 2879 H 293.462 -3.44585 -6.05173 0
M  V30 2880 H 291.089 -4.04204 -6.43835 0
M  V30 2881 N 292.664 1.56529 -0.183458 0
M  V30 2882 C 294.08 1.58664 0.172554 0
M  V30 2883 C 294.28 1.19925 1.61926 0
M  V30 2884 O 293.336 0.916534 2.35278 0
M  V30 2885 C 294.649 3.00463 -0.119262 0
M  V30 2886 C 296.197 3.12945 -0.0584396 0
M  V30 2887 C 296.672 4.56857 -0.323408 0
M  V30 2888 N 298.163 4.62403 -0.271612 0
M  V30 2889 C 298.898 5.71626 -0.450639 0
M  V30 2890 N 298.394 6.89362 -0.689384 0
M  V30 2891 N 300.187 5.60775 -0.385701 0
M  V30 2892 H 292.338 1.79994 -1.12765 0
M  V30 2893 H 294.601 0.834808 -0.449222 0
M  V30 2894 H 294.307 3.33326 -1.12192 0
M  V30 2895 H 294.181 3.72659 0.583544 0
M  V30 2896 H 296.568 2.79902 0.934805 0
M  V30 2897 H 296.649 2.4316 -0.794144 0
M  V30 2898 H 296.293 4.9061 -1.31392 0
M  V30 2899 H 296.223 5.24816 0.43305 0
M  V30 2900 H 298.714 3.77785 -0.0932256 0
M  V30 2901 H 299.027 7.68489 -0.815113 0
M  V30 2902 H 297.372 6.91196 -0.726142 0
M  V30 2903 H 300.563 4.67674 -0.199687 0
M  V30 2904 H 300.736 6.4584 -0.528646 0
M  V30 2905 N 294.142 -0.090211 1.57342 0
M  V30 2906 C 295.089 -1.10909 2.02405 0
M  V30 2907 C 296.059 -1.39523 0.901252 0
M  V30 2908 O 297.244 -1.50903 1.1676 0
M  V30 2909 C 294.384 -2.42277 2.45755 0
M  V30 2910 C 293.497 -2.20352 3.71576 0
M  V30 2911 C 292.632 -3.45154 4.03785 0
M  V30 2912 C 291.671 -3.18512 5.22701 0
M  V30 2913 N 290.808 -4.35593 5.50639 0
M  V30 2914 H 295.648 -0.71782 2.89225 0
M  V30 2915 H 293.185 -0.342901 1.43048 0
M  V30 2916 H 295.143 -3.18951 2.68935 0
M  V30 2917 H 293.773 -2.79242 1.61938 0
M  V30 2918 H 292.825 -1.34458 3.55844 0
M  V30 2919 H 294.137 -1.96661 4.58395 0
M  V30 2920 H 293.291 -4.30233 4.27767 0
M  V30 2921 H 292.03 -3.71904 3.15498 0
M  V30 2922 H 291.035 -2.31827 4.98534 0
M  V30 2923 H 292.26 -2.93103 6.12591 0
M  V30 2924 H 290.206 -4.6241 4.6531 0
M  V30 2925 H 290.123 -4.1511 6.31838 0
M  V30 2926 H 291.391 -5.21723 5.7916 0
M  V30 2927 N 295.62 -1.53406 -0.361157 0
M  V30 2928 C 296.897 -1.60411 -1.11927 0
M  V30 2929 C 297.277 -0.414385 -2.06993 0
M  V30 2930 O 296.625 0.594976 -2.20618 0
M  V30 2931 C 296.835 -2.95652 -1.85448 0
M  V30 2932 C 298.183 -3.50386 -2.39823 0
M  V30 2933 O 299.207 -2.97711 -1.95568 0
M  V30 2934 O 298.066 -4.42482 -3.20737 0
M  V30 2935 H 295.16 -0.64811 -0.513695 0
M  V30 2936 H 297.706 -1.65749 -0.364065 0
M  V30 2937 H 296.478 -3.73682 -1.16091 0
M  V30 2938 H 296.101 -2.93825 -2.67866 0
M  V30 2939 N 297.098 0.621204 -1.44841 0
M  V30 2940 C 298.323 1.41244 -1.51871 0
M  V30 2941 C 298.748 1.87519 -0.147764 0
M  V30 2942 O 298.106 1.59334 0.865 0
M  V30 2943 C 298.154 2.60221 -2.49634 0
M  V30 2944 O 297.258 3.60395 -2.00473 0
M  V30 2945 H 296.599 0.42223 -0.512463 0
M  V30 2946 H 299.129 0.757305 -1.90069 0
M  V30 2947 H 299.139 3.0764 -2.67996 0
M  V30 2948 H 297.814 2.25887 -3.4921 0
M  V30 2949 H 296.391 3.19717 -1.91925 0
M  V30 2950 N 298.576 1.31904 0.862503 0
M  V30 2951 C 299.523 1.20182 1.9704 0
M  V30 2952 C 300.493 0.0858247 1.65878 0
M  V30 2953 O 301.678 0.26 1.8902 0
M  V30 2954 C 298.818 0.922797 3.32533 0
M  V30 2955 C 297.931 2.12284 3.76244 0
M  V30 2956 C 297.066 1.77996 5.00491 0
M  V30 2957 C 296.105 2.94366 5.36671 0
M  V30 2958 N 295.242 2.60223 6.52095 0
M  V30 2959 H 300.082 2.14951 2.06398 0
M  V30 2960 H 297.619 1.06917 1.01031 0
M  V30 2961 H 299.577 0.741548 4.10557 0
M  V30 2962 H 298.207 0.0119227 3.22798 0
M  V30 2963 H 297.259 2.41461 2.9394 0
M  V30 2964 H 298.571 2.99357 3.98982 0
M  V30 2965 H 297.725 1.56377 5.862 0
M  V30 2966 H 296.464 0.881252 4.79672 0
M  V30 2967 H 295.469 3.16625 4.49476 0
M  V30 2968 H 296.694 3.84957 5.59451 0
M  V30 2969 H 294.64 1.72884 6.32809 0
M  V30 2970 H 294.557 3.40827 6.74814 0
M  V30 2971 H 295.825 2.42016 7.40978 0
M  V30 2972 N 300.054 -1.07777 1.14986 0
M  V30 2973 C 301.002 -2.16964 0.838406 0
M  V30 2974 C 301.996 -1.68372 -0.186386 0
M  V30 2975 O 303.202 -1.79951 -0.0418465 0
M  V30 2976 H 299.577 -0.708006 0.253439 0
M  V30 2977 H 301.548 -2.40454 1.76704 0
M  V30 2978 C 300.297 -3.4604 0.339335 0
M  V30 2979 H 299.62 -3.83813 1.11927 0
M  V30 2980 H 301.06 -4.23698 0.160021 0
M  V30 2981 C 299.519 -3.23569 -0.938325 0
M  V30 2982 O 300.049 -3.47752 -2.01077 0
M  V30 2983 N 298.255 -2.77079 -0.876117 0
M  V30 2984 H 297.802 -2.576 -0.00322037 0
M  V30 2985 H 297.76 -2.62422 -1.73153 0
M  V30 2986 N 301.532 -0.945985 -1.26051 0
M  V30 2987 C 302.462 -0.477172 -2.28572 0
M  V30 2988 C 303.443 0.472032 -1.63419 0
M  V30 2989 O 304.628 0.372853 -1.90587 0
M  V30 2990 C 301.758 0.253975 -3.4637 0
M  V30 2991 C 300.712 -0.609135 -4.23643 0
M  V30 2992 C 300.038 0.252252 -5.34105 0
M  V30 2993 C 301.338 -1.8829 -4.8718 0
M  V30 2994 H 303.032 -1.33402 -2.68038 0
M  V30 2995 H 300.578 -0.642904 -1.28852 0
M  V30 2996 H 302.531 0.593016 -4.17207 0
M  V30 2997 H 301.255 1.145 -3.05871 0
M  V30 2998 H 299.914 -0.931138 -3.54578 0
M  V30 2999 H 299.562 1.14278 -4.89846 0
M  V30 3000 H 299.262 -0.32188 -5.86718 0
M  V30 3001 H 300.786 0.586454 -6.07777 0
M  V30 3002 H 302.2 -1.61081 -5.50205 0
M  V30 3003 H 300.597 -2.40199 -5.49931 0
M  V30 3004 H 301.667 -2.59134 -4.09851 0
M  V30 3005 N 303.011 1.40521 -0.713556 0
M  V30 3006 C 304.259 2.00527 -0.251692 0
M  V30 3007 C 304.58 1.56857 1.15848 0
M  V30 3008 O 303.85 0.807127 1.785 0
M  V30 3009 H 302.43 0.741551 -0.0900646 0
M  V30 3010 H 305.092 1.71887 -0.918733 0
M  V30 3011 H 304.188 3.10813 -0.283192 0
M  V30 3012 N 304.489 0.459591 1.5075 0
M  V30 3013 C 305.766 -0.160371 1.94941 0
M  V30 3014 C 306.146 -1.58048 1.39943 0
M  V30 3015 O 305.494 -2.206 0.595629 0
M  V30 3016 C 305.704 -0.115432 3.48809 0
M  V30 3017 C 307.052 -0.310026 4.23467 0
M  V30 3018 O 308.076 -0.192543 3.55679 0
M  V30 3019 O 306.935 -0.546031 5.43765 0
M  V30 3020 H 304.029 -0.117925 0.818549 0
M  V30 3021 H 306.575 0.519169 1.61563 0
M  V30 3022 H 305.347 0.87652 3.81357 0
M  V30 3023 H 304.97 -0.836928 3.88692 0
M  V30 3024 N 305.967 -1.56429 0.191757 0
M  V30 3025 C 306.899 -2.16154 -0.762245 0
M  V30 3026 C 307.912 -1.12247 -1.17917 0
M  V30 3027 O 309.101 -1.39353 -1.11548 0
M  V30 3028 C 306.201 -2.70606 -2.04024 0
M  V30 3029 C 305.374 -3.99381 -1.78364 0
M  V30 3030 C 304.433 -4.38692 -2.90578 0
M  V30 3031 O 303.459 -5.06179 -2.6033 0
M  V30 3032 N 304.661 -4.01922 -4.18854 0
M  V30 3033 H 307.426 -2.98643 -0.251526 0
M  V30 3034 H 304.987 -1.61897 0.00967373 0
M  V30 3035 H 306.979 -2.93891 -2.78227 0
M  V30 3036 H 305.549 -1.9259 -2.46227 0
M  V30 3037 H 304.769 -3.84262 -0.879581 0
M  V30 3038 H 306.057 -4.83445 -1.58614 0
M  V30 3039 H 305.455 -3.47631 -4.46283 0
M  V30 3040 H 304.012 -4.30165 -4.89695 0
M  V30 3041 N 307.445 0.0818655 -1.57387 0
M  V30 3042 C 308.691 0.778884 -1.87896 0
M  V30 3043 C 309.046 1.75692 -0.784229 0
M  V30 3044 O 308.339 1.90417 0.212567 0
M  V30 3045 C 308.533 1.53513 -3.22752 0
M  V30 3046 C 308.362 0.631838 -4.45239 0
M  V30 3047 C 307.132 0.272571 -5.04564 0
M  V30 3048 C 309.33 -0.0670191 -5.14256 0
M  V30 3049 N 307.312 -0.637498 -6.10581 0
M  V30 3050 C 308.683 -0.834653 -6.14356 0
M  V30 3051 C 310.738 -0.139551 -4.97704 0
M  V30 3052 C 309.441 -1.66806 -6.99691 0
M  V30 3053 C 311.467 -0.959903 -5.83558 0
M  V30 3054 C 310.829 -1.71561 -6.83188 0
M  V30 3055 H 306.928 0.260764 -0.737242 0
M  V30 3056 H 309.512 0.0408227 -1.94657 0
M  V30 3057 H 307.683 2.24398 -3.17018 0
M  V30 3058 H 309.415 2.18038 -3.40942 0
M  V30 3059 H 306.17 0.62319 -4.69482 0
M  V30 3060 H 306.594 -1.08548 -6.68241 0
M  V30 3061 H 311.236 0.430376 -4.20604 0
M  V30 3062 H 308.954 -2.249 -7.76174 0
M  V30 3063 H 312.54 -1.01887 -5.72809 0
M  V30 3064 H 311.42 -2.34017 -7.48469 0
M  V30 3065 N 308.923 1.53595 0.353017 0
M  V30 3066 C 309.873 1.77299 1.43349 0
M  V30 3067 C 310.857 0.627884 1.48143 0
M  V30 3068 O 312.049 0.88697 1.53173 0
M  V30 3069 C 309.178 1.97757 2.80619 0
M  V30 3070 C 308.264 3.18305 2.80254 0
M  V30 3071 N 308.655 4.39967 2.49526 0
M  V30 3072 C 306.953 3.19283 3.11407 0
M  V30 3073 C 307.654 5.21772 2.57156 0
M  V30 3074 N 306.63 4.58269 2.92388 0
M  V30 3075 H 310.432 2.68963 1.18474 0
M  V30 3076 H 307.946 1.52391 0.561306 0
M  V30 3077 H 309.943 2.1287 3.58458 0
M  V30 3078 H 308.603 1.07329 3.06448 0
M  V30 3079 H 309.614 4.67482 2.22893 0
M  V30 3080 H 306.291 2.3879 3.4247 0
M  V30 3081 H 307.681 6.2885 2.36638 0
M  V30 3082 N 310.401 -0.613514 1.45168 0
M  V30 3083 C 311.348 -1.72456 1.53387 0
M  V30 3084 C 312.318 -1.6169 0.380191 0
M  V30 3085 O 313.503 -1.81356 0.592836 0
M  V30 3086 C 310.643 -3.10753 1.50088 0
M  V30 3087 C 309.756 -3.32368 2.75963 0
M  V30 3088 C 308.891 -4.60737 2.64376 0
M  V30 3089 C 307.93 -4.7559 3.85332 0
M  V30 3090 N 307.067 -5.95253 3.72315 0
M  V30 3091 H 311.907 -1.64768 2.48305 0
M  V30 3092 H 309.444 -0.803503 1.23216 0
M  V30 3093 H 311.402 -3.90758 1.46164 0
M  V30 3094 H 310.032 -3.17413 0.587243 0
M  V30 3095 H 309.084 -2.4618 2.89999 0
M  V30 3096 H 310.396 -3.39218 3.65695 0
M  V30 3097 H 309.55 -5.48928 2.58385 0
M  V30 3098 H 308.289 -4.56275 1.72233 0
M  V30 3099 H 307.294 -3.85824 3.91688 0
M  V30 3100 H 308.519 -4.81854 4.78533 0
M  V30 3101 H 306.465 -5.91847 2.82937 0
M  V30 3102 H 306.382 -6.03236 4.55677 0
M  V30 3103 H 307.65 -6.85958 3.70246 0
M  V30 3104 N 311.879 -1.3236 -0.855495 0
M  V30 3105 C 313.127 -1.22629 -1.60644 0
M  V30 3106 C 313.448 0.212136 -1.93843 0
M  V30 3107 O 312.718 1.13666 -1.59552 0
M  V30 3108 H 311.298 -0.450882 -0.595579 0
M  V30 3109 H 313.96 -1.65871 -1.02337 0
M  V30 3110 H 313.056 -1.80832 -2.54374 0
M  V30 3111 N 313.357 1.07166 -1.15556 0
M  V30 3112 C 314.606 1.79181 -0.926132 0
M  V30 3113 C 314.919 1.87768 0.547967 0
M  V30 3114 O 316.125 2.56323 0.895036 0
M  V30 3115 C 314.581 3.22 -1.60761 0
M  V30 3116 C 314.189 3.21607 -3.11886 0
M  V30 3117 C 315.933 3.9861 -1.4598 0
M  V30 3118 C 313.84 4.59092 -3.72812 0
M  V30 3119 H 312.77 0.67154 -0.342856 0
M  V30 3120 H 315.421 1.2027 -1.3859 0
M  V30 3121 H 313.803 3.81115 -1.07553 0
M  V30 3122 H 314.977 2.72127 -3.71865 0
M  V30 3123 H 313.292 2.58495 -3.2645 0
M  V30 3124 H 315.889 5.00225 -1.88888 0
M  V30 3125 H 316.232 4.143 -0.407541 0
M  V30 3126 H 316.765 3.45996 -1.96295 0
M  V30 3127 H 313.504 4.48606 -4.77946 0
M  V30 3128 H 313.024 5.08803 -3.17616 0
M  V30 3129 H 314.703 5.28059 -3.73848 0
M  V30 3130 N 314.835 0.952656 1.25548 0
M  V30 3131 C 316.246 0.647392 1.75116 0
M  V30 3132 C 316.597 -0.837274 1.77438 0
M  V30 3133 O 315.722 -1.65525 1.39393 0
M  V30 3134 C 316.317 1.16845 3.18014 0
M  V30 3135 C 314.876 0.913382 3.6515 0
M  V30 3136 C 314.023 1.31265 2.44264 0
M  V30 3137 H 316.974 1.12968 1.11462 0
M  V30 3138 H 316.995 0.527606 3.76824 0
M  V30 3139 H 316.507 2.24902 3.16292 0
M  V30 3140 H 314.608 -0.152316 3.72289 0
M  V30 3141 H 314.721 1.54845 4.53387 0
M  V30 3142 H 313.085 0.731028 2.43984 0
M  V30 3143 H 313.868 2.40239 2.45234 0
M  V30 3144 N 316.313 -1.40141 0.720998 0
M  V30 3145 C 317.562 -2.0002 0.259804 0
M  V30 3146 C 317.875 -1.57839 -1.15526 0
M  V30 3147 O 319.081 -2.10455 -1.71525 0
M  V30 3148 C 317.537 -3.57516 0.413566 0
M  V30 3149 C 317.145 -4.08667 1.83562 0
M  V30 3150 C 318.889 -4.24498 0.0134387 0
M  V30 3151 C 316.796 -5.58686 1.93968 0
M  V30 3152 H 315.726 -0.748195 0.0933806 0
M  V30 3153 H 318.377 -1.60313 0.892866 0
M  V30 3154 H 316.759 -3.9495 -0.288169 0
M  V30 3155 H 317.933 -3.82598 2.56817 0
M  V30 3156 H 316.248 -3.543 2.1877 0
M  V30 3157 H 318.845 -5.34654 0.0703954 0
M  V30 3158 H 319.188 -4.03375 -1.02927 0
M  V30 3159 H 319.721 -3.92188 0.665815 0
M  V30 3160 H 316.46 -5.8467 2.96379 0
M  V30 3161 H 315.98 -5.86602 1.25131 0
M  V30 3162 H 317.659 -6.23875 1.71431 0
M  V30 3163 N 317.792 -0.46758 -1.50504 0
M  V30 3164 C 318.702 0.33382 -2.32213 0
M  V30 3165 C 319.718 0.999323 -1.42441 0
M  V30 3166 O 320.894 0.988068 -1.75497 0
M  V30 3167 C 317.959 1.4035 -3.17022 0
M  V30 3168 C 317.02 0.754961 -4.2261 0
M  V30 3169 C 316.253 1.77367 -5.03365 0
M  V30 3170 O 316.476 2.99976 -4.8515 0
M  V30 3171 O 315.41 1.34744 -5.86624 0
M  V30 3172 H 319.236 -0.334067 -3.01857 0
M  V30 3173 H 316.821 -0.229496 -1.47627 0
M  V30 3174 H 318.703 2.02318 -3.69656 0
M  V30 3175 H 317.378 2.05492 -2.5011 0
M  V30 3176 H 316.285 0.0964244 -3.73976 0
M  V30 3177 H 317.618 0.146545 -4.91982 0
M  V30 3178 N 319.27 1.56325 -0.20005 0
M  V30 3179 C 320.516 1.98012 0.438059 0
M  V30 3180 C 320.849 1.08702 1.60927 0
M  V30 3181 O 320.124 0.140064 1.93995 0
M  V30 3182 C 320.407 3.48841 0.893419 0
M  V30 3183 C 320.26 4.48928 -0.279947 0
M  V30 3184 C 321.579 4.03498 1.75719 0
M  V30 3185 H 318.698 0.719918 0.157757 0
M  V30 3186 H 321.34 1.87743 -0.291968 0
M  V30 3187 H 319.49 3.57723 1.51547 0
M  V30 3188 H 321.162 4.52079 -0.91772 0
M  V30 3189 H 319.405 4.23694 -0.930919 0
M  V30 3190 H 320.076 5.5194 0.0812601 0
M  V30 3191 H 322.552 3.97427 1.23253 0
M  V30 3192 H 321.428 5.09393 2.04476 0
M  V30 3193 H 321.689 3.4906 2.71311 0
M  V30 3194 N 320.748 -0.0735177 1.57428 0
M  V30 3195 C 321.997 -0.771809 1.86349 0
M  V30 3196 C 322.31 -1.78828 0.792452 0
M  V30 3197 O 323.516 -2.53602 0.96945 0
M  V30 3198 C 321.972 -1.42358 3.30548 0
M  V30 3199 C 321.58 -0.445761 4.45777 0
M  V30 3200 C 323.324 -2.10434 3.6867 0
M  V30 3201 C 321.231 -1.10335 5.81016 0
M  V30 3202 H 320.161 -0.291999 0.695164 0
M  V30 3203 H 322.812 -0.0250749 1.83483 0
M  V30 3204 H 321.194 -2.21852 3.28021 0
M  V30 3205 H 322.368 0.319239 4.59693 0
M  V30 3206 H 320.683 0.130457 4.16196 0
M  V30 3207 H 323.28 -2.60405 4.67004 0
M  V30 3208 H 323.623 -2.90298 2.98383 0
M  V30 3209 H 324.156 -1.37773 3.7318 0
M  V30 3210 H 320.895 -0.345061 6.54591 0
M  V30 3211 H 320.415 -1.83925 5.70904 0
M  V30 3212 H 322.094 -1.62367 6.26295 0
M  V30 3213 N 322.226 -1.5378 -0.344866 0
M  V30 3214 C 323.637 -1.62428 -0.920552 0
M  V30 3215 C 323.988 -0.504747 -1.89596 0
M  V30 3216 O 323.113 0.365711 -2.13287 0
M  V30 3217 C 323.708 -2.94419 -1.67639 0
M  V30 3218 C 322.267 -3.05333 -2.20111 0
M  V30 3219 C 321.414 -2.57866 -1.01982 0
M  V30 3220 H 324.365 -1.58222 -0.123042 0
M  V30 3221 H 324.386 -2.83384 -2.53917 0
M  V30 3222 H 323.898 -3.7588 -0.966224 0
M  V30 3223 H 321.999 -2.28502 -2.94308 0
M  V30 3224 H 322.112 -4.10778 -2.46573 0
M  V30 3225 H 320.476 -2.13241 -1.39285 0
M  V30 3226 H 321.259 -3.41765 -0.324308 0
M  V30 3227 N 323.704 0.605807 -1.45491 0
M  V30 3228 C 324.637 1.73022 -1.48791 0
M  V30 3229 C 325.615 1.58917 -0.344112 0
M  V30 3230 O 326.799 1.80453 -0.544876 0
M  V30 3231 C 323.926 3.10865 -1.34463 0
M  V30 3232 C 322.972 3.43554 -2.5273 0
M  V30 3233 S 323.805 3.38196 -4.15191 0
M  V30 3234 C 324.961 4.78616 -4.03333 0
M  V30 3235 H 325.194 1.69961 -2.43928 0
M  V30 3236 H 322.727 0.782611 -1.33096 0
M  V30 3237 H 324.685 3.90398 -1.26884 0
M  V30 3238 H 323.346 3.1144 -0.40794 0
M  V30 3239 H 322.539 4.43924 -2.38637 0
M  V30 3240 H 322.141 2.71541 -2.5718 0
M  V30 3241 H 324.433 5.68463 -3.68587 0
M  V30 3242 H 325.376 4.97767 -5.03621 0
M  V30 3243 H 325.784 4.54381 -3.34959 0
M  V30 3244 N 325.182 1.32811 0.848464 0
M  V30 3245 C 326.145 1.22194 1.9391 0
M  V30 3246 C 327.145 0.143404 1.60159 0
M  V30 3247 O 328.335 0.394253 1.6968 0
M  V30 3248 C 325.467 0.88067 3.29328 0
M  V30 3249 H 326.66 2.19127 2.04752 0
M  V30 3250 H 324.213 1.16731 1.0394 0
M  V30 3251 H 324.948 -0.0865776 3.24184 0
M  V30 3252 H 324.733 1.66052 3.55203 0
M  V30 3253 H 326.223 0.830871 4.09251 0
M  V30 3254 N 326.66 -1.06551 1.16123 0
M  V30 3255 C 327.89 -1.8274 0.963838 0
M  V30 3256 C 328.298 -1.82712 -0.491228 0
M  V30 3257 O 327.641 -1.24294 -1.35265 0
M  V30 3258 C 327.703 -3.3065 1.41106 0
M  V30 3259 C 327.367 -3.54384 2.88549 0
M  V30 3260 C 328.364 -3.4765 3.86569 0
M  V30 3261 C 326.049 -3.81789 3.26408 0
M  V30 3262 C 328.043 -3.67982 5.2045 0
M  V30 3263 C 325.73 -4.01772 4.60459 0
M  V30 3264 C 326.728 -3.94866 5.57288 0
M  V30 3265 O 326.416 -4.14306 6.88916 0
M  V30 3266 H 326.148 -0.583136 0.341948 0
M  V30 3267 H 328.702 -1.35351 1.54497 0
M  V30 3268 H 326.932 -3.78887 0.773394 0
M  V30 3269 H 328.621 -3.88324 1.1815 0
M  V30 3270 H 329.387 -3.2647 3.58667 0
M  V30 3271 H 325.266 -3.86276 2.51619 0
M  V30 3272 H 328.81 -3.62507 5.96015 0
M  V30 3273 H 324.707 -4.2244 4.88072 0
M  V30 3274 H 325.475 -4.31609 6.95454 0
M  V30 3275 N 328.138 -0.959301 -1.25041 0
M  V30 3276 C 329.384 -0.617525 -1.9317 0
M  V30 3277 C 329.717 0.843981 -1.74902 0
M  V30 3278 O 328.992 1.60615 -1.09696 0
M  V30 3279 C 329.275 -0.982736 -3.46431 0
M  V30 3280 C 329.128 -2.50032 -3.73904 0
M  V30 3281 C 330.447 -0.511176 -4.37121 0
M  V30 3282 H 327.566 -0.22582 -0.701552 0
M  V30 3283 H 330.208 -1.19679 -1.4757 0
M  V30 3284 H 328.358 -0.489806 -3.854 0
M  V30 3285 H 330.03 -3.06737 -3.44544 0
M  V30 3286 H 328.273 -2.93598 -3.19348 0
M  V30 3287 H 328.944 -2.70635 -4.81103 0
M  V30 3288 H 331.42 -0.934075 -4.0548 0
M  V30 3289 H 330.296 -0.795361 -5.43107 0
M  V30 3290 H 330.557 0.588834 -4.38161 0
M  V30 3291 N 329.616 1.39756 -0.72842 0
M  V30 3292 C 331.027 1.83498 -0.344289 0
M  V30 3293 C 331.378 1.60868 1.12321 0
M  V30 3294 O 330.503 1.09634 1.86573 0
M  V30 3295 C 331.098 3.33114 -0.618112 0
M  V30 3296 C 329.657 3.753 -0.287549 0
M  V30 3297 C 328.804 2.62831 -0.884048 0
M  V30 3298 H 331.755 1.28842 -0.926578 0
M  V30 3299 H 331.776 3.80334 0.112349 0
M  V30 3300 H 331.288 3.49553 -1.68625 0
M  V30 3301 H 329.389 3.64451 0.775012 0
M  V30 3302 H 329.502 4.72945 -0.765512 0
M  V30 3303 H 327.866 2.52792 -0.311149 0
M  V30 3304 H 328.649 2.82078 -1.95671 0
M  V30 3305 N 331.094 0.475555 1.50254 0
M  V30 3306 C 332.34 -0.0780073 2.0265 0
M  V30 3307 C 332.673 -1.38968 1.35652 0
M  V30 3308 O 331.948 -1.8839 0.483691 0
M  V30 3309 C 332.231 -0.257161 3.59181 0
M  V30 3310 C 332.084 1.07585 4.36744 0
M  V30 3311 C 333.403 -1.00965 4.28362 0
M  V30 3312 H 330.522 -0.0268758 0.73651 0
M  V30 3313 H 333.164 0.622015 1.7953 0
M  V30 3314 H 331.314 -0.853412 3.79011 0
M  V30 3315 H 332.986 1.70902 4.28474 0
M  V30 3316 H 331.229 1.6714 4.00308 0
M  V30 3317 H 331.9 0.904088 5.44546 0
M  V30 3318 H 334.376 -0.504214 4.13034 0
M  V30 3319 H 333.252 -1.10381 5.37687 0
M  V30 3320 H 333.513 -2.04731 3.91839 0
M  V30 3321 N 332.573 -1.56217 0.208337 0
M  V30 3322 C 333.798 -2.02782 -0.435222 0
M  V30 3323 C 334.223 -1.08738 -1.53485 0
M  V30 3324 O 333.581 -0.0731855 -1.81152 0
M  V30 3325 C 333.629 -3.47687 -0.956335 0
M  V30 3326 O 332.733 -3.56773 -2.06849 0
M  V30 3327 H 332.074 -0.656403 -0.100158 0
M  V30 3328 H 334.604 -2.02033 0.3231 0
M  V30 3329 H 334.614 -3.87745 -1.26955 0
M  V30 3330 H 333.289 -4.15624 -0.15143 0
M  V30 3331 H 331.866 -3.28597 -1.76292 0
M  V30 3332 N 334.051 0.0651679 -1.57465 0
M  V30 3333 C 335.467 0.420105 -1.53972 0
M  V30 3334 C 335.667 1.78782 -0.929474 0
M  V30 3335 O 334.723 2.46771 -0.534839 0
M  V30 3336 C 336.036 0.355084 -2.98596 0
M  V30 3337 C 337.584 0.434792 -3.09965 0
M  V30 3338 C 338.059 0.399609 -4.56253 0
M  V30 3339 N 339.55 0.459488 -4.60915 0
M  V30 3340 C 340.285 0.454584 -5.71595 0
M  V30 3341 N 339.781 0.404102 -6.9162 0
M  V30 3342 N 341.574 0.501635 -5.59857 0
M  V30 3343 H 333.725 -0.830328 -1.95498 0
M  V30 3344 H 335.988 -0.312244 -0.895102 0
M  V30 3345 H 335.694 -0.583357 -3.46828 0
M  V30 3346 H 335.568 1.16275 -3.58831 0
M  V30 3347 H 337.955 1.36366 -2.61703 0
M  V30 3348 H 338.036 -0.40157 -2.52628 0
M  V30 3349 H 337.68 -0.525436 -5.05175 0
M  V30 3350 H 337.61 1.25359 -5.11461 0
M  V30 3351 H 340.101 0.502482 -3.74544 0
M  V30 3352 H 340.414 0.404468 -7.71741 0
M  V30 3353 H 338.759 0.37069 -6.94011 0
M  V30 3354 H 341.95 0.538812 -4.64989 0
M  V30 3355 H 342.123 0.494345 -6.46112 0
M  V30 3356 N 335.529 1.53961 0.336706 0
M  V30 3357 C 336.492 1.81724 1.39675 0
M  V30 3358 C 337.492 0.688532 1.45313 0
M  V30 3359 O 338.682 0.956829 1.45569 0
M  V30 3360 C 335.814 1.96543 2.78538 0
M  V30 3361 H 337.007 2.76424 1.16318 0
M  V30 3362 H 334.56 1.45478 0.571474 0
M  V30 3363 H 335.295 1.0401 3.07168 0
M  V30 3364 H 335.08 2.78665 2.75841 0
M  V30 3365 H 336.57 2.19516 3.5525 0
M  V30 3366 N 337.007 -0.598083 1.45811 0
M  V30 3367 C 338.253 -1.35882 1.50545 0
M  V30 3368 C 338.586 -1.93616 0.150445 0
M  V30 3369 O 337.861 -1.75604 -0.83628 0
M  V30 3370 C 338.144 -2.49966 2.59208 0
M  V30 3371 C 337.997 -1.97367 4.04186 0
M  V30 3372 C 339.316 -3.52068 2.64076 0
M  V30 3373 H 336.435 -0.492717 0.548087 0
M  V30 3374 H 339.077 -0.673319 1.77669 0
M  V30 3375 H 337.227 -3.08443 2.3621 0
M  V30 3376 H 338.899 -1.43466 4.38423 0
M  V30 3377 H 337.142 -1.283 4.14393 0
M  V30 3378 H 337.813 -2.79649 4.75921 0
M  V30 3379 H 340.289 -3.03448 2.84708 0
M  V30 3380 H 339.165 -4.2937 3.41954 0
M  V30 3381 H 339.426 -4.08304 1.69531 0
M  V30 3382 N 338.485 -1.33259 -0.841409 0
M  V30 3383 C 339.71 -1.2775 -1.63385 0
M  V30 3384 C 340.135 0.149188 -1.87507 0
M  V30 3385 O 339.493 1.10498 -1.43736 0
M  V30 3386 C 339.541 -2.05571 -2.96265 0
M  V30 3387 O 338.645 -1.41257 -3.87453 0
M  V30 3388 H 337.986 -0.439627 -0.497618 0
M  V30 3389 H 340.516 -1.75782 -1.04699 0
M  V30 3390 H 340.526 -2.16241 -3.45982 0
M  V30 3391 H 339.201 -3.09309 -2.7803 0
M  V30 3392 H 337.778 -1.39217 -3.45938 0
M  V30 3393 N 339.963 1.05934 -1.16686 0
M  V30 3394 C 340.895 2.13468 -0.834503 0
M  V30 3395 C 341.908 1.62013 0.15984 0
M  V30 3396 O 343.097 1.7838 -0.0654228 0
M  V30 3397 C 340.197 3.3817 -0.222361 0
M  V30 3398 C 339.37 4.18928 -1.25771 0
M  V30 3399 C 338.429 5.21985 -0.664703 0
M  V30 3400 O 337.455 5.53334 -1.33453 0
M  V30 3401 N 338.657 5.77919 0.546834 0
M  V30 3402 H 341.422 2.42578 -1.75999 0
M  V30 3403 H 338.983 1.21967 -1.06469 0
M  V30 3404 H 340.975 4.04266 0.187472 0
M  V30 3405 H 339.545 3.06655 0.606758 0
M  V30 3406 H 338.765 3.48433 -1.84358 0
M  V30 3407 H 340.053 4.69687 -1.95631 0
M  V30 3408 H 339.451 5.54721 1.10912 0
M  V30 3409 H 338.008 6.45573 0.898829 0
M  V30 3410 N 341.441 0.965919 1.2453 0
M  V30 3411 C 342.388 0.49402 2.25451 0
M  V30 3412 C 343.358 -0.45948 1.59618 0
M  V30 3413 O 344.543 -0.370238 1.87173 0
M  V30 3414 C 341.683 -0.211359 3.44452 0
M  V30 3415 C 340.796 0.7807 4.24887 0
M  V30 3416 C 339.931 0.0516105 5.31175 0
M  V30 3417 C 338.97 1.03385 6.03306 0
M  V30 3418 N 338.107 0.334887 7.01301 0
M  V30 3419 H 342.947 1.35946 2.65184 0
M  V30 3420 H 340.484 0.681515 1.3036 0
M  V30 3421 H 342.442 -0.637 4.12308 0
M  V30 3422 H 341.072 -1.04077 3.05562 0
M  V30 3423 H 340.124 1.32479 3.56586 0
M  V30 3424 H 341.436 1.52978 4.74762 0
M  V30 3425 H 340.59 -0.432114 6.05159 0
M  V30 3426 H 339.329 -0.730179 4.82203 0
M  V30 3427 H 338.334 1.52847 5.28127 0
M  V30 3428 H 339.559 1.81606 6.54367 0
M  V30 3429 H 337.505 -0.427959 6.54603 0
M  V30 3430 H 337.422 1.02287 7.49048 0
M  V30 3431 H 338.69 -0.126928 7.79397 0
M  V30 3432 N 342.919 -1.39368 0.735821 0
M  V30 3433 C 344.166 -2.00497 0.284123 0
M  V30 3434 C 344.494 -1.58387 -1.12889 0
M  V30 3435 O 343.749 -0.804359 -1.78406 0
M  V30 3436 C 344.048 -3.5583 0.334651 0
M  V30 3437 C 343.714 -4.17593 1.7008 0
M  V30 3438 C 342.376 -4.34176 2.07472 0
M  V30 3439 C 344.728 -4.51848 2.59775 0
M  V30 3440 C 342.056 -4.82304 3.34065 0
M  V30 3441 C 344.408 -5.01384 3.85741 0
M  V30 3442 C 343.072 -5.16175 4.23225 0
M  V30 3443 H 342.342 -0.73367 0.103968 0
M  V30 3444 H 344.989 -1.66683 0.942825 0
M  V30 3445 H 343.294 -3.89674 -0.407625 0
M  V30 3446 H 344.991 -4.00986 -0.0329927 0
M  V30 3447 H 341.581 -4.05087 1.40008 0
M  V30 3448 H 345.765 -4.38653 2.32157 0
M  V30 3449 H 341.021 -4.91941 3.63049 0
M  V30 3450 H 345.195 -5.26863 4.55399 0
M  V30 3451 H 342.822 -5.5323 5.21384 0
M  V30 3452 N 344.397 -0.483516 -1.5 0
M  V30 3453 C 345.645 0.067027 -2.01989 0
M  V30 3454 C 345.966 1.3909 -1.36671 0
M  V30 3455 O 345.236 1.88978 -0.516152 0
M  V30 3456 H 343.816 0.0277606 -0.746484 0
M  V30 3457 H 346.478 -0.636773 -1.84204 0
M  V30 3458 H 345.574 0.209484 -3.11396 0
M  V30 3459 N 345.875 1.56104 -0.216619 0
M  V30 3460 C 347.123 1.97781 0.415593 0
M  V30 3461 C 347.444 1.10536 1.60645 0
M  V30 3462 O 346.714 0.181303 1.95059 0
M  V30 3463 H 345.294 0.730415 0.156534 0
M  V30 3464 H 347.956 1.92445 -0.308366 0
M  V30 3465 H 347.052 3.03072 0.74525 0
M  V30 3466 N 347.353 -0.0568162 1.57498 0
M  V30 3467 C 348.599 -0.75422 1.88253 0
M  V30 3468 C 348.932 -1.76461 0.810865 0
M  V30 3469 O 348.207 -1.93691 -0.177259 0
M  V30 3470 C 348.49 -1.44878 3.2967 0
M  V30 3471 C 348.343 -0.453789 4.47505 0
M  V30 3472 C 349.662 -2.38994 3.69554 0
M  V30 3473 H 346.781 -0.272724 0.684683 0
M  V30 3474 H 349.423 -0.0172113 1.89992 0
M  V30 3475 H 347.573 -2.077 3.28318 0
M  V30 3476 H 349.245 0.170371 4.60985 0
M  V30 3477 H 347.488 0.229552 4.33192 0
M  V30 3478 H 348.159 -0.977699 5.43273 0
M  V30 3479 H 350.635 -1.86239 3.72095 0
M  V30 3480 H 349.511 -2.84587 4.69363 0
M  V30 3481 H 349.772 -3.24461 3.00296 0
M  V30 3482 N 348.832 -1.54138 -0.328536 0
M  V30 3483 C 350.078 -1.7236 -1.06865 0
M  V30 3484 C 350.411 -0.493231 -1.87832 0
M  V30 3485 O 349.686 0.5098 -1.877 0
M  V30 3486 C 349.969 -2.99621 -1.99747 0
M  V30 3487 C 349.822 -4.32899 -1.22143 0
M  V30 3488 C 351.141 -3.22615 -2.99345 0
M  V30 3489 H 348.26 -0.627151 -0.387105 0
M  V30 3490 H 350.902 -1.86827 -0.345767 0
M  V30 3491 H 349.052 -2.87418 -2.61387 0
M  V30 3492 H 350.724 -4.56978 -0.630017 0
M  V30 3493 H 348.967 -4.30628 -0.523628 0
M  V30 3494 H 349.638 -5.18154 -1.90318 0
M  V30 3495 H 352.114 -3.34248 -2.47826 0
M  V30 3496 H 350.99 -4.13027 -3.61524 0
M  V30 3497 H 351.251 -2.3961 -3.71536 0
M  V30 3498 N 350.31 0.590341 -1.46126 0
M  V30 3499 C 351.22 1.72793 -1.58681 0
M  V30 3500 C 352.236 1.67516 -0.470566 0
M  V30 3501 O 353.412 1.87562 -0.733642 0
M  V30 3502 C 350.477 3.09287 -1.5666 0
M  V30 3503 C 349.538 3.25886 -2.79458 0
M  V30 3504 C 348.771 4.55869 -2.77524 0
M  V30 3505 O 348.994 5.3928 -1.85832 0
M  V30 3506 O 347.928 4.75552 -3.68964 0
M  V30 3507 H 351.754 1.65149 -2.54872 0
M  V30 3508 H 349.339 0.756486 -1.28832 0
M  V30 3509 H 351.221 3.90577 -1.58202 0
M  V30 3510 H 349.896 3.17385 -0.636271 0
M  V30 3511 H 348.803 2.44119 -2.83472 0
M  V30 3512 H 350.136 3.22675 -3.71674 0
M  V30 3513 N 351.788 1.33704 0.83433 0
M  V30 3514 C 352.718 1.26967 1.95963 0
M  V30 3515 C 353.699 0.149337 1.69443 0
M  V30 3516 O 354.884 0.339852 1.91203 0
M  V30 3517 C 352.014 1.01275 3.32206 0
M  V30 3518 C 350.968 2.09652 3.73136 0
M  V30 3519 C 350.294 1.69166 5.07235 0
M  V30 3520 C 351.594 3.51372 3.86439 0
M  V30 3521 H 353.288 2.2112 2.01857 0
M  V30 3522 H 350.834 1.06447 0.969793 0
M  V30 3523 H 352.787 0.952106 4.10503 0
M  V30 3524 H 351.511 0.0356203 3.26581 0
M  V30 3525 H 350.17 2.14766 2.97104 0
M  V30 3526 H 349.818 0.701437 4.98085 0
M  V30 3527 H 349.518 2.41694 5.35591 0
M  V30 3528 H 351.042 1.64576 5.88003 0
M  V30 3529 H 352.456 3.48734 4.55036 0
M  V30 3530 H 350.853 4.22425 4.26236 0
M  V30 3531 H 351.923 3.89546 2.88759 0
M  V30 3532 N 353.266 -1.05314 1.17247 0
M  V30 3533 C 354.682 -1.30452 0.919473 0
M  V30 3534 C 354.882 -1.9703 -0.42209 0
M  V30 3535 O 353.938 -2.24311 -1.15935 0
M  V30 3536 C 355.251 -2.17551 2.07586 0
M  V30 3537 C 356.799 -2.30937 2.11275 0
M  V30 3538 C 357.274 -3.21396 3.26296 0
M  V30 3539 N 358.765 -3.28981 3.26076 0
M  V30 3540 C 359.5 -3.99095 4.11716 0
M  V30 3541 N 358.996 -4.71648 5.07465 0
M  V30 3542 N 360.789 -3.95247 3.9967 0
M  V30 3543 H 352.94 -0.604988 2.03602 0
M  V30 3544 H 355.203 -0.329368 0.888944 0
M  V30 3545 H 354.909 -1.75921 3.0454 0
M  V30 3546 H 354.783 -3.18182 2.02584 0
M  V30 3547 H 357.17 -2.71809 1.14907 0
M  V30 3548 H 357.251 -1.2994 2.20339 0
M  V30 3549 H 356.895 -2.81238 4.22927 0
M  V30 3550 H 356.825 -4.22395 3.14467 0
M  V30 3551 H 359.316 -2.77286 2.5675 0
M  V30 3552 H 359.629 -5.22705 5.6921 0
M  V30 3553 H 357.974 -4.70594 5.11435 0
M  V30 3554 H 361.165 -3.37691 3.24164 0
M  V30 3555 H 361.338 -4.4962 4.66632 0
M  V30 3556 N 354.744 -0.972509 -1.24016 0
M  V30 3557 C 355.677 -0.45117 -2.23696 0
M  V30 3558 C 356.655 0.477378 -1.55434 0
M  V30 3559 O 357.839 0.407647 -1.84039 0
M  V30 3560 C 354.966 0.34818 -3.36906 0
M  V30 3561 C 354.012 -0.523355 -4.23277 0
M  V30 3562 S 354.845 -1.96647 -4.98087 0
M  V30 3563 C 356.001 -1.17604 -6.14752 0
M  V30 3564 H 356.234 -1.29588 -2.67571 0
M  V30 3565 H 353.767 -0.777903 -1.33372 0
M  V30 3566 H 355.725 0.803387 -4.02562 0
M  V30 3567 H 354.386 1.16792 -2.91579 0
M  V30 3568 H 353.579 0.0906181 -5.03919 0
M  V30 3569 H 353.181 -0.914485 -3.62647 0
M  V30 3570 H 355.473 -0.433434 -6.76112 0
M  V30 3571 H 356.416 -1.95701 -6.8052 0
M  V30 3572 H 356.824 -0.698295 -5.60164 0
M  V30 3573 N 356.222 1.38976 -0.743202 0
M  V30 3574 C 357.185 2.28901 -0.117014 0
M  V30 3575 C 358.185 1.46698 0.658503 0
M  V30 3576 O 359.375 1.67274 0.486305 0
M  V30 3577 C 356.507 3.30309 0.84315 0
M  V30 3578 H 357.7 2.8578 -0.909373 0
M  V30 3579 H 355.253 1.47761 -0.509547 0
M  V30 3580 H 355.988 2.785 1.66157 0
M  V30 3581 H 355.773 3.91029 0.289594 0
M  V30 3582 H 357.263 3.97577 1.2776 0
M  V30 3583 N 357.7 0.491464 1.49741 0
M  V30 3584 C 358.946 -0.0565092 2.02721 0
M  V30 3585 C 359.279 -1.37522 1.37118 0
M  V30 3586 O 358.554 -1.87866 0.503645 0
M  V30 3587 C 358.837 -0.219051 3.59433 0
M  V30 3588 C 358.69 1.12211 4.35579 0
M  V30 3589 C 360.009 -0.964157 4.29409 0
M  V30 3590 H 357.128 -0.0190627 0.736753 0
M  V30 3591 H 359.77 0.641021 1.7886 0
M  V30 3592 H 357.92 -0.813165 3.79895 0
M  V30 3593 H 359.592 1.75437 4.26637 0
M  V30 3594 H 357.835 1.71377 3.98513 0
M  V30 3595 H 358.506 0.961794 5.43556 0
M  V30 3596 H 360.982 -0.460378 4.13545 0
M  V30 3597 H 359.858 -1.04671 5.38828 0
M  V30 3598 H 360.119 -2.00563 3.93988 0
M  V30 3599 N 359.178 -1.55987 0.224894 0
M  V30 3600 C 360.126 -2.21808 -0.700283 0
M  V30 3601 C 361.12 -1.19854 -1.19714 0
M  V30 3602 O 362.326 -1.37925 -1.15658 0
M  V30 3603 H 358.701 -0.711226 -0.244258 0
M  V30 3604 H 360.672 -2.98152 -0.121749 0
M  V30 3605 C 359.421 -2.91444 -1.8962 0
M  V30 3606 H 358.744 -3.69655 -1.52299 0
M  V30 3607 H 360.184 -3.40894 -2.52125 0
M  V30 3608 C 358.643 -1.94098 -2.75368 0
M  V30 3609 O 359.173 -1.46004 -3.74227 0
M  V30 3610 N 357.379 -1.61675 -2.41474 0
M  V30 3611 H 356.926 -2.00979 -1.61137 0
M  V30 3612 H 356.884 -0.968036 -2.99126 0
M  V30 3613 N 360.656 0.0484629 -1.57525 0
M  V30 3614 C 361.603 1.05504 -2.05275 0
M  V30 3615 C 362.573 1.37084 -0.937927 0
M  V30 3616 O 363.758 1.47754 -1.2072 0
M  V30 3617 C 360.898 2.35676 -2.52093 0
M  V30 3618 C 360.011 2.10423 -3.77288 0
M  V30 3619 C 359.146 3.34327 -4.12794 0
M  V30 3620 C 358.185 3.04542 -5.30962 0
M  V30 3621 N 357.322 4.20841 -5.61994 0
M  V30 3622 H 362.162 0.640885 -2.91027 0
M  V30 3623 H 359.699 0.304854 -1.43906 0
M  V30 3624 H 361.657 3.11709 -2.77297 0
M  V30 3625 H 360.287 2.7485 -1.69285 0
M  V30 3626 H 359.339 1.24976 -3.59284 0
M  V30 3627 H 360.651 1.84438 -4.63448 0
M  V30 3628 H 359.805 4.1874 -4.39024 0
M  V30 3629 H 358.544 3.63408 -3.25247 0
M  V30 3630 H 357.549 2.18528 -5.04505 0
M  V30 3631 H 358.774 2.76758 -6.20146 0
M  V30 3632 H 356.72 4.4991 -4.77406 0
M  V30 3633 H 356.637 3.98212 -6.42622 0
M  V30 3634 H 357.905 5.06184 -5.92789 0
M  V30 3635 N 362.134 1.5431 0.320358 0
M  V30 3636 C 363.097 1.83195 1.3774 0
M  V30 3637 C 364.097 0.703906 1.44575 0
M  V30 3638 O 365.287 0.972214 1.44546 0
M  V30 3639 C 362.419 1.99487 2.76438 0
M  V30 3640 H 363.612 2.77642 1.1338 0
M  V30 3641 H 361.165 1.46076 0.556012 0
M  V30 3642 H 361.9 1.07262 3.06048 0
M  V30 3643 H 361.685 2.81575 2.7287 0
M  V30 3644 H 363.175 2.23271 3.52902 0
M  V30 3645 N 363.613 -0.582584 1.46437 0
M  V30 3646 C 364.861 -1.33814 1.51453 0
M  V30 3647 C 365.182 -1.94277 0.167792 0
M  V30 3648 O 364.452 -1.78566 -0.805677 0
M  V30 3649 H 363.032 -0.496838 0.557818 0
M  V30 3650 H 365.694 -0.682281 1.82568 0
M  V30 3651 H 364.79 -2.14479 2.26728 0
M  V30 3652 N 365.091 -1.34144 -0.827227 0
M  V30 3653 C 366.502 -1.23557 -1.39966 0
M  V30 3654 C 366.853 0.140731 -1.95695 0
M  V30 3655 O 365.978 1.04087 -1.89723 0
M  V30 3656 C 366.573 -2.23708 -2.54441 0
M  V30 3657 C 365.132 -2.16924 -3.07605 0
M  V30 3658 C 364.279 -2.10549 -1.80456 0
M  V30 3659 H 367.23 -1.45573 -0.631991 0
M  V30 3660 H 367.251 -1.85157 -3.32411 0
M  V30 3661 H 366.763 -3.23866 -2.13851 0
M  V30 3662 H 364.864 -1.20107 -3.52711 0
M  V30 3663 H 364.977 -3.07988 -3.66988 0
M  V30 3664 H 363.341 -1.56203 -2.01178 0
M  V30 3665 H 364.124 -3.12535 -1.42046 0
M  V30 3666 N 366.569 1.04691 -1.17803 0
M  V30 3667 C 367.815 1.78045 -0.970969 0
M  V30 3668 C 368.148 1.87686 0.498751 0
M  V30 3669 O 367.423 1.38035 1.37027 0
M  V30 3670 C 367.706 3.2166 -1.61884 0
M  V30 3671 C 367.559 3.20001 -3.161 0
M  V30 3672 C 368.878 4.1962 -1.3269 0
M  V30 3673 H 365.997 0.64633 -0.354155 0
M  V30 3674 H 368.639 1.22333 -1.45378 0
M  V30 3675 H 366.789 3.69232 -1.20831 0
M  V30 3676 H 368.461 2.80467 -3.66246 0
M  V30 3677 H 366.704 2.58203 -3.48588 0
M  V30 3678 H 367.375 4.21386 -3.56564 0
M  V30 3679 H 369.851 3.80567 -1.68249 0
M  V30 3680 H 368.727 5.18339 -1.80599 0
M  V30 3681 H 368.988 4.414 -0.248622 0
M  V30 3682 N 368.047 0.979072 1.23499 0
M  V30 3683 C 369.293 0.648178 1.92163 0
M  V30 3684 C 369.626 -0.816049 1.76222 0
M  V30 3685 O 368.901 -1.58849 1.12237 0
M  V30 3686 C 369.184 1.03773 3.44824 0
M  V30 3687 C 369.037 2.55948 3.69879 0
M  V30 3688 C 370.356 0.580653 4.36253 0
M  V30 3689 H 367.475 0.236952 0.69787 0
M  V30 3690 H 370.117 1.22012 1.45647 0
M  V30 3691 H 368.267 0.551058 3.84572 0
M  V30 3692 H 369.939 3.12179 3.3962 0
M  V30 3693 H 368.182 2.98641 3.14636 0
M  V30 3694 H 368.853 2.78255 4.76737 0
M  V30 3695 H 371.329 0.998465 4.03943 0
M  V30 3696 H 370.205 0.881663 5.41773 0
M  V30 3697 H 370.466 -0.519052 4.39042 0
M  V30 3698 N 369.525 -1.3858 0.750561 0
M  V30 3699 C 370.753 -2.04471 0.316098 0
M  V30 3700 C 371.168 -1.56606 -1.05452 0
M  V30 3701 O 370.525 -0.737784 -1.66922 0
M  V30 3702 C 370.576 -3.60025 0.326275 0
M  V30 3703 O 370.297 -4.06133 1.6428 0
M  V30 3704 C 371.798 -4.43131 -0.122429 0
M  V30 3705 H 369.018 -0.65717 0.135528 0
M  V30 3706 H 371.562 -1.77329 1.01857 0
M  V30 3707 H 369.717 -3.86014 -0.327431 0
M  V30 3708 H 370.131 -5.00547 1.56693 0
M  V30 3709 H 371.605 -5.51963 -0.0641473 0
M  V30 3710 H 372.082 -4.23333 -1.16988 0
M  V30 3711 H 372.688 -4.22323 0.50229 0
M  V30 3712 N 371.003 -0.499398 -1.49478 0
M  V30 3713 C 372.28 0.108629 -1.95298 0
M  V30 3714 C 372.66 1.54282 -1.44084 0
M  V30 3715 O 372.008 2.18944 -0.653908 0
M  V30 3716 C 372.218 0.0229111 -3.48992 0
M  V30 3717 C 373.566 0.197643 -4.2414 0
M  V30 3718 O 374.59 0.0981735 -3.56065 0
M  V30 3719 O 373.449 0.401669 -5.45022 0
M  V30 3720 H 370.543 0.096181 -0.821388 0
M  V30 3721 H 373.089 -0.561822 -1.6013 0
M  V30 3722 H 371.861 -0.977321 -3.78899 0
M  V30 3723 H 371.484 0.733579 -3.90774 0
M  V30 3724 N 372.481 1.55866 -0.233164 0
M  V30 3725 C 373.429 2.22176 0.68851 0
M  V30 3726 C 374.423 1.20487 1.19076 0
M  V30 3727 O 375.629 1.38536 1.14925 0
M  V30 3728 H 372.004 0.712511 0.240483 0
M  V30 3729 H 373.975 2.98212 0.105935 0
M  V30 3730 C 372.724 2.92446 1.88071 0
M  V30 3731 H 372.047 3.70458 1.50337 0
M  V30 3732 H 373.487 3.42226 2.50314 0
M  V30 3733 C 371.946 1.95555 2.74335 0
M  V30 3734 O 372.476 1.47986 3.73447 0
M  V30 3735 N 370.682 1.62953 2.40613 0
M  V30 3736 H 370.229 2.01831 1.60069 0
M  V30 3737 H 370.187 0.983886 2.98609 0
M  V30 3738 N 373.959 -0.0401083 1.57549 0
M  V30 3739 C 375.207 -0.731677 1.8839 0
M  V30 3740 C 375.528 -1.76481 0.829425 0
M  V30 3741 O 374.798 -1.95411 -0.1383 0
M  V30 3742 H 373.378 -0.273225 0.695239 0
M  V30 3743 H 376.04 -0.00867725 1.94898 0
M  V30 3744 H 375.136 -1.22816 2.86919 0
M  V30 3745 N 375.437 -1.54477 -0.31217 0
M  V30 3746 C 376.385 -1.85395 -1.40469 0
M  V30 3747 C 377.379 -0.726749 -1.53019 0
M  V30 3748 O 378.585 -0.910582 -1.55269 0
M  V30 3749 H 374.96 -0.587845 -0.46898 0
M  V30 3750 H 376.931 -2.76736 -1.11623 0
M  V30 3751 C 375.68 -2.10811 -2.76503 0
M  V30 3752 H 375.003 -2.97014 -2.67625 0
M  V30 3753 H 376.443 -2.3639 -3.51988 0
M  V30 3754 C 374.902 -0.903165 -3.24568 0
M  V30 3755 O 375.432 -0.118085 -4.01526 0
M  V30 3756 N 373.638 -0.711634 -2.81752 0
M  V30 3757 H 373.185 -1.35171 -2.19286 0
M  V30 3758 H 373.143 0.0930473 -3.14262 0
M  V30 3759 N 376.915 0.57481 -1.46744 0
M  V30 3760 C 378.162 1.33272 -1.52462 0
M  V30 3761 C 378.49 1.93669 -0.179572 0
M  V30 3762 O 377.745 1.7743 0.825664 0
M  V30 3763 C 378.044 2.476 -2.57738 0
M  V30 3764 C 377.71 2.05146 -4.01529 0
M  V30 3765 C 376.372 1.93284 -4.40676 0
M  V30 3766 C 378.724 1.72506 -4.91824 0
M  V30 3767 C 376.052 1.47049 -5.67973 0
M  V30 3768 C 378.404 1.27748 -6.19567 0
M  V30 3769 C 377.068 1.14468 -6.57612 0
M  V30 3770 H 376.338 0.487678 -0.557899 0
M  V30 3771 H 378.985 0.646456 -1.80259 0
M  V30 3772 H 377.29 3.21708 -2.23632 0
M  V30 3773 H 378.987 3.05807 -2.5939 0
M  V30 3774 H 375.577 2.15316 -3.7059 0
M  V30 3775 H 379.761 1.80552 -4.62293 0
M  V30 3776 H 375.017 1.35417 -5.96215 0
M  V30 3777 H 379.191 1.01547 -6.88957 0
M  V30 3778 H 376.818 0.78419 -7.56145 0
M  V30 3779 N 378.394 1.34581 0.820102 0
M  V30 3780 C 379.643 1.26437 1.57151 0
M  V30 3781 C 379.956 -0.163111 1.94919 0
M  V30 3782 O 381.162 -0.366722 2.69012 0
M  V30 3783 C 379.618 2.21658 2.83541 0
M  V30 3784 C 379.226 3.69679 2.53065 0
M  V30 3785 C 380.97 2.22428 3.61561 0
M  V30 3786 C 378.877 4.56761 3.75664 0
M  V30 3787 H 377.807 0.469707 0.589823 0
M  V30 3788 H 380.458 1.59763 0.902656 0
M  V30 3789 H 378.84 1.81287 3.52067 0
M  V30 3790 H 380.014 4.18605 1.92631 0
M  V30 3791 H 378.329 3.71384 1.88316 0
M  V30 3792 H 380.926 2.8471 4.52597 0
M  V30 3793 H 381.269 1.22434 3.97889 0
M  V30 3794 H 381.802 2.61259 2.99981 0
M  V30 3795 H 378.541 5.57702 3.44454 0
M  V30 3796 H 378.061 4.12568 4.35371 0
M  V30 3797 H 379.74 4.71509 4.43044 0
M  V30 3798 N 379.872 -1.04064 1.18357 0
M  V30 3799 C 380.802 -2.14001 0.934113 0
M  V30 3800 C 381.783 -1.69616 -0.128186 0
M  V30 3801 O 382.968 -1.94185 0.0244093 0
M  V30 3802 C 380.098 -3.44253 0.459066 0
M  V30 3803 C 379.052 -4.02261 1.46185 0
M  V30 3804 C 378.378 -5.27992 0.844322 0
M  V30 3805 C 379.678 -4.38432 2.83856 0
M  V30 3806 H 381.372 -2.35127 1.85352 0
M  V30 3807 H 378.918 -1.12998 0.892604 0
M  V30 3808 H 380.871 -4.20522 0.271907 0
M  V30 3809 H 379.595 -3.22813 -0.495912 0
M  V30 3810 H 378.254 -3.28074 1.63595 0
M  V30 3811 H 377.902 -5.02862 -0.117845 0
M  V30 3812 H 377.602 -5.67765 1.51384 0
M  V30 3813 H 379.126 -6.06938 0.667693 0
M  V30 3814 H 380.54 -5.05688 2.70098 0
M  V30 3815 H 378.937 -4.89254 3.47491 0
M  V30 3816 H 380.007 -3.4826 3.37406 0
M  V30 3817 N 381.35 -0.985608 -1.22978 0
M  V30 3818 C 382.627 -0.573599 -1.87001 0
M  V30 3819 C 383.007 0.949213 -1.88555 0
M  V30 3820 O 382.355 1.82811 -1.37086 0
M  V30 3821 C 382.565 -1.18564 -3.28243 0
M  V30 3822 C 383.913 -1.28163 -4.04796 0
M  V30 3823 O 384.937 -1.13949 -3.37482 0
M  V30 3824 O 383.796 -1.50832 -5.25273 0
M  V30 3825 H 380.89 -0.193868 -0.803955 0
M  V30 3826 H 383.436 -1.08102 -1.30813 0
M  V30 3827 H 382.208 -2.22758 -3.21706 0
M  V30 3828 H 381.831 -0.663363 -3.92027 0
M  V30 3829 N 382.828 1.3818 -0.7579 0
M  V30 3830 C 384.074 2.0078 -0.325423 0
M  V30 3831 C 384.429 1.59085 1.08211 0
M  V30 3832 O 383.722 0.820394 1.73148 0
M  V30 3833 C 383.916 3.55252 -0.391218 0
M  V30 3834 C 383.745 4.11947 -1.8036 0
M  V30 3835 C 382.515 4.43519 -2.42113 0
M  V30 3836 C 384.713 4.33908 -2.76095 0
M  V30 3837 N 382.695 4.85847 -3.75267 0
M  V30 3838 C 384.066 4.78692 -3.94023 0
M  V30 3839 C 386.121 4.16015 -2.73561 0
M  V30 3840 C 384.824 5.07459 -5.09782 0
M  V30 3841 C 386.85 4.45909 -3.88483 0
M  V30 3842 C 386.212 4.90921 -5.0515 0
M  V30 3843 H 382.311 0.764215 -0.165831 0
M  V30 3844 H 384.895 1.67724 -0.988776 0
M  V30 3845 H 383.066 3.87646 0.241886 0
M  V30 3846 H 384.798 4.04653 0.061989 0
M  V30 3847 H 381.553 4.32113 -1.93842 0
M  V30 3848 H 381.977 5.11339 -4.4369 0
M  V30 3849 H 386.619 3.80399 -1.84544 0
M  V30 3850 H 384.337 5.4197 -5.99412 0
M  V30 3851 H 387.923 4.33666 -3.87847 0
M  V30 3852 H 386.803 5.1361 -5.92599 0
M  V30 3853 N 384.306 0.507319 1.49211 0
M  V30 3854 C 385.253 -0.267728 2.29242 0
M  V30 3855 C 386.223 -0.954609 1.35928 0
M  V30 3856 O 387.408 -0.960046 1.64887 0
M  V30 3857 C 384.548 -1.32243 3.18756 0
M  V30 3858 C 383.661 -0.64669 4.27132 0
M  V30 3859 C 382.796 -1.68238 5.03855 0
M  V30 3860 C 381.835 -0.98885 6.0406 0
M  V30 3861 N 380.972 -1.96903 6.73924 0
M  V30 3862 H 385.812 0.420968 2.95012 0
M  V30 3863 H 383.349 0.219443 1.45454 0
M  V30 3864 H 385.307 -1.94599 3.69036 0
M  V30 3865 H 383.937 -1.97981 2.54958 0
M  V30 3866 H 382.989 0.0902926 3.80293 0
M  V30 3867 H 384.301 -0.101058 4.98698 0
M  V30 3868 H 383.455 -2.38081 5.58034 0
M  V30 3869 H 382.194 -2.26187 4.32077 0
M  V30 3870 H 381.199 -0.276222 5.49106 0
M  V30 3871 H 382.424 -0.415767 6.77826 0
M  V30 3872 H 380.37 -2.53803 6.04913 0
M  V30 3873 H 380.287 -1.47423 7.41487 0
M  V30 3874 H 381.555 -2.66015 7.32705 0
M  V30 3875 N 385.784 -1.5574 0.241426 0
M  V30 3876 C 387.031 -1.9881 -0.384836 0
M  V30 3877 C 387.359 -1.12947 -1.58346 0
M  V30 3878 O 386.614 -0.178993 -1.9488 0
M  V30 3879 C 386.913 -3.47308 -0.843317 0
M  V30 3880 C 386.579 -4.50223 0.246946 0
M  V30 3881 C 385.241 -4.78088 0.546399 0
M  V30 3882 C 387.593 -5.11841 0.983282 0
M  V30 3883 C 384.921 -5.64846 1.58636 0
M  V30 3884 C 387.273 -5.99727 2.01272 0
M  V30 3885 C 385.937 -6.25927 2.31888 0
M  V30 3886 H 385.207 -0.727496 -0.140821 0
M  V30 3887 H 387.854 -1.8831 0.348106 0
M  V30 3888 H 386.159 -3.55112 -1.65537 0
M  V30 3889 H 387.856 -3.78017 -1.33806 0
M  V30 3890 H 384.446 -4.286 0.00340639 0
M  V30 3891 H 388.63 -4.90366 0.765182 0
M  V30 3892 H 383.886 -5.83403 1.82896 0
M  V30 3893 H 388.06 -6.46517 2.58823 0
M  V30 3894 H 385.687 -6.92949 3.12611 0
M  V30 3895 N 387.262 0.0317525 -1.57568 0
M  V30 3896 C 388.539 0.758366 -1.803 0
M  V30 3897 C 388.919 1.93718 -0.838845 0
M  V30 3898 O 388.267 2.28187 0.119571 0
M  V30 3899 C 388.477 1.19392 -3.27943 0
M  V30 3900 C 389.825 1.61094 -3.92854 0
M  V30 3901 O 390.849 1.28857 -3.32076 0
M  V30 3902 O 389.708 2.20918 -4.99858 0
M  V30 3903 H 386.802 0.366514 -0.741348 0
M  V30 3904 H 389.348 0.00873765 -1.69698 0
M  V30 3905 H 388.12 0.352275 -3.89711 0
M  V30 3906 H 387.743 2.00365 -3.43424 0
M  V30 3907 N 388.74 1.54641 0.303973 0
M  V30 3908 C 390.156 1.45788 0.649463 0
M  V30 3909 C 390.356 0.64666 1.90842 0
M  V30 3910 O 389.412 0.153183 2.52035 0
M  V30 3911 C 390.725 2.89718 0.805227 0
M  V30 3912 C 392.273 2.99742 0.901305 0
M  V30 3913 C 392.748 4.44863 1.08909 0
M  V30 3914 N 394.239 4.48559 1.15536 0
M  V30 3915 C 394.974 5.58026 1.3189 0
M  V30 3916 N 394.47 6.77422 1.45161 0
M  V30 3917 N 396.263 5.45708 1.34755 0
M  V30 3918 H 388.414 2.05854 -0.523237 0
M  V30 3919 H 390.677 0.932186 -0.172431 0
M  V30 3920 H 390.383 3.51666 -0.0489108 0
M  V30 3921 H 390.257 3.36964 1.69513 0
M  V30 3922 H 392.644 2.3791 1.74593 0
M  V30 3923 H 392.725 2.55797 -0.0125531 0
M  V30 3924 H 392.369 5.07288 0.249241 0
M  V30 3925 H 392.299 4.86436 2.01713 0
M  V30 3926 H 394.79 3.6254 1.06646 0
M  V30 3927 H 395.103 7.56604 1.57387 0
M  V30 3928 H 393.448 6.80292 1.42223 0
M  V30 3929 H 396.639 4.51378 1.23996 0
M  V30 3930 H 396.812 6.3107 1.47157 0
M  V30 3931 N 390.218 -0.567019 1.47046 0
M  V30 3932 C 391.464 -1.32658 1.53394 0
M  V30 3933 C 391.797 -1.93254 0.19148 0
M  V30 3934 O 391.072 -1.77338 -0.798844 0
M  V30 3935 C 391.355 -2.44412 2.64452 0
M  V30 3936 C 391.208 -1.88749 4.08282 0
M  V30 3937 C 392.527 -3.46387 2.71485 0
M  V30 3938 H 389.646 -0.48098 0.558415 0
M  V30 3939 H 392.288 -0.635481 1.79058 0
M  V30 3940 H 390.438 -3.03363 2.427 0
M  V30 3941 H 392.11 -1.34134 4.41368 0
M  V30 3942 H 390.353 -1.19481 4.17021 0
M  V30 3943 H 391.024 -2.69491 4.81745 0
M  V30 3944 H 393.5 -2.9734 2.91081 0
M  V30 3945 H 392.376 -4.2202 3.50985 0
M  V30 3946 H 392.637 -4.04616 1.78153 0
M  V30 3947 N 391.696 -1.35014 -0.812953 0
M  V30 3948 C 392.646 -1.23959 -1.91359 0
M  V30 3949 C 393.63 -0.136306 -1.60322 0
M  V30 3950 O 394.822 -0.366925 -1.73155 0
M  V30 3951 C 391.951 -1.00736 -3.28188 0
M  V30 3952 C 391.037 -2.15426 -3.65311 0
M  V30 3953 N 391.428 -3.40612 -3.73921 0
M  V30 3954 C 389.726 -2.06672 -3.95225 0
M  V30 3955 C 390.427 -4.15994 -4.06601 0
M  V30 3956 N 389.403 -3.44685 -4.20349 0
M  V30 3957 H 393.205 -2.18815 -1.96208 0
M  V30 3958 H 390.719 -1.27395 -1.00718 0
M  V30 3959 H 392.716 -0.909052 -4.06868 0
M  V30 3960 H 391.376 -0.067586 -3.2463 0
M  V30 3961 H 392.387 -3.75043 -3.5716 0
M  V30 3962 H 389.064 -1.20511 -3.99729 0
M  V30 3963 H 390.454 -5.24145 -4.20382 0
M  V30 3964 N 393.175 1.03435 -1.18907 0
M  V30 3965 C 394.122 2.11591 -0.921837 0
M  V30 3966 C 395.092 1.65499 0.141226 0
M  V30 3967 O 396.277 1.908 0.000242829 0
M  V30 3968 C 393.417 3.42012 -0.460616 0
M  V30 3969 C 392.53 4.01682 -1.58982 0
M  V30 3970 C 391.665 5.20091 -1.08069 0
M  V30 3971 C 390.704 5.71805 -2.18416 0
M  V30 3972 N 389.841 6.81494 -1.68849 0
M  V30 3973 H 394.681 2.33787 -1.8479 0
M  V30 3974 H 392.218 1.1467 -0.921373 0
M  V30 3975 H 394.176 4.16834 -0.174642 0
M  V30 3976 H 392.806 3.19944 0.428467 0
M  V30 3977 H 391.858 3.24127 -1.99113 0
M  V30 3978 H 393.17 4.36084 -2.4214 0
M  V30 3979 H 392.324 6.02051 -0.749615 0
M  V30 3980 H 391.063 4.87209 -0.218771 0
M  V30 3981 H 390.068 4.88461 -2.5236 0
M  V30 3982 H 391.293 6.06728 -3.05054 0
M  V30 3983 H 389.239 6.50475 -0.849572 0
M  V30 3984 H 389.156 7.14994 -2.45601 0
M  V30 3985 H 390.424 7.67063 -1.38689 0
M  V30 3986 N 394.653 0.992116 1.22453 0
M  V30 3987 C 395.899 0.678177 1.91761 0
M  V30 3988 C 396.254 -0.781141 1.75829 0
M  V30 3989 O 395.547 -1.55747 1.11595 0
M  V30 3990 C 395.741 1.01832 3.42586 0
M  V30 3991 C 395.57 2.50916 3.73191 0
M  V30 3992 C 394.34 3.17308 3.93248 0
M  V30 3993 C 396.538 3.49032 3.77732 0
M  V30 3994 N 394.52 4.55876 4.11157 0
M  V30 3995 C 395.891 4.73055 4.00773 0
M  V30 3996 C 397.946 3.43349 3.60577 0
M  V30 3997 C 396.649 5.92089 4.0844 0
M  V30 3998 C 398.675 4.61759 3.69503 0
M  V30 3999 C 398.037 5.84582 3.92993 0
M  V30 4000 H 394.136 0.299425 0.722405 0
M  V30 4001 H 396.72 1.27197 1.47408 0
M  V30 4002 H 394.891 0.453118 3.85748 0
M  V30 4003 H 396.623 0.660454 3.99274 0
M  V30 4004 H 393.378 2.67778 3.9063 0
M  V30 4005 H 393.802 5.27748 4.24042 0
M  V30 4006 H 398.444 2.49408 3.41402 0
M  V30 4007 H 396.162 6.86435 4.26418 0
M  V30 4008 H 399.748 4.58951 3.57569 0
M  V30 4009 H 398.628 6.74676 3.99728 0
M  V30 4010 N 396.131 -1.37776 0.765217 0
M  V30 4011 C 397.356 -2.04651 0.336537 0
M  V30 4012 C 397.781 -1.57337 -1.03086 0
M  V30 4013 O 397.139 -0.730621 -1.65927 0
M  V30 4014 C 397.187 -3.58577 0.381468 0
M  V30 4015 O 396.291 -4.07706 -0.62042 0
M  V30 4016 H 395.632 -0.64756 0.146838 0
M  V30 4017 H 398.162 -1.76221 1.03959 0
M  V30 4018 H 398.172 -4.07314 0.236448 0
M  V30 4019 H 396.847 -3.9237 1.37907 0
M  V30 4020 H 395.424 -3.70306 -0.439056 0
M  V30 4021 N 397.609 -0.515225 -1.4894 0
M  V30 4022 C 398.519 0.259774 -2.33157 0
M  V30 4023 C 399.535 0.953501 -1.45548 0
M  V30 4024 O 400.711 0.931735 -1.78552 0
M  V30 4025 C 397.776 1.30193 -3.21326 0
M  V30 4026 C 396.837 0.620129 -4.24797 0
M  V30 4027 C 396.07 1.61263 -5.08753 0
M  V30 4028 O 396.293 2.84389 -4.94448 0
M  V30 4029 O 395.227 1.16013 -5.90614 0
M  V30 4030 H 399.053 -0.429932 -3.00641 0
M  V30 4031 H 396.638 -0.276346 -1.46822 0
M  V30 4032 H 398.52 1.90455 -3.75905 0
M  V30 4033 H 397.195 1.97431 -2.56521 0
M  V30 4034 H 396.102 -0.0226019 -3.74093 0
M  V30 4035 H 397.435 -0.0100493 -4.92199 0
M  V30 4036 N 399.087 1.5561 -0.249682 0
M  V30 4037 C 400.333 1.99306 0.374841 0
M  V30 4038 C 400.666 1.13767 1.57387 0
M  V30 4039 O 399.941 0.201711 1.93451 0
M  V30 4040 C 400.224 3.51507 0.781986 0
M  V30 4041 C 400.077 4.4781 -0.422629 0
M  V30 4042 C 401.396 4.08884 1.62793 0
M  V30 4043 H 398.515 0.724572 0.134773 0
M  V30 4044 H 401.157 1.86719 -0.351549 0
M  V30 4045 H 399.307 3.62363 1.4009 0
M  V30 4046 H 400.979 4.48931 -1.06108 0
M  V30 4047 H 399.222 4.20518 -1.06524 0
M  V30 4048 H 399.893 5.51919 -0.0943766 0
M  V30 4049 H 402.369 4.01147 1.10547 0
M  V30 4050 H 401.245 5.1564 1.88166 0
M  V30 4051 H 401.506 3.57515 2.60068 0
M  V30 4052 N 400.565 -0.0233959 1.57583 0
M  V30 4053 C 401.513 -1.04063 2.08023 0
M  V30 4054 C 402.507 -1.37084 0.995204 0
M  V30 4055 O 403.713 -1.35923 1.18004 0
M  V30 4056 H 400.088 -0.353144 0.663922 0
M  V30 4057 H 402.059 -0.589453 2.9252 0
M  V30 4058 C 400.808 -2.33123 2.57971 0
M  V30 4059 H 400.131 -2.08577 3.4108 0
M  V30 4060 H 401.571 -3.02632 2.96967 0
M  V30 4061 C 400.03 -3.02483 1.48342 0
M  V30 4062 O 400.56 -3.92541 0.852898 0
M  V30 4063 N 398.766 -2.63909 1.21658 0
M  V30 4064 H 398.313 -1.90758 1.73116 0
M  V30 4065 H 398.271 -3.10633 0.485218 0
M  V30 4066 N 402.043 -1.548 -0.295768 0
M  V30 4067 C 403.271 -1.78327 -1.04914 0
M  V30 4068 C 403.686 -0.545316 -1.80753 0
M  V30 4069 O 403.043 0.485013 -1.75937 0
M  V30 4070 C 403.094 -2.99418 -2.02561 0
M  V30 4071 O 402.815 -4.18431 -1.29798 0
M  V30 4072 C 404.316 -3.35375 -2.89895 0
M  V30 4073 H 401.536 -0.594618 -0.310918 0
M  V30 4074 H 404.08 -2.01763 -0.333454 0
M  V30 4075 H 402.235 -2.78175 -2.69624 0
M  V30 4076 H 402.649 -4.86736 -1.95419 0
M  V30 4077 H 404.123 -4.23332 -3.54251 0
M  V30 4078 H 404.6 -2.53761 -3.58472 0
M  V30 4079 H 405.206 -3.58796 -2.28355 0
M  V30 4080 N 403.521 0.559213 -1.47345 0
M  V30 4081 C 404.484 1.64854 -1.59235 0
M  V30 4082 C 405.484 1.53851 -0.467607 0
M  V30 4083 O 406.674 1.58045 -0.732617 0
M  V30 4084 C 403.806 3.04388 -1.53496 0
M  V30 4085 H 404.999 1.55662 -2.56339 0
M  V30 4086 H 402.552 0.778973 -1.35505 0
M  V30 4087 H 403.287 3.19115 -0.577604 0
M  V30 4088 H 403.072 3.13783 -2.35123 0
M  V30 4089 H 404.562 3.83642 -1.6495 0
M  V30 4090 N 404.999 1.35443 0.805782 0
M  V30 4091 C 406.248 1.28097 1.55801 0
M  V30 4092 C 406.561 -0.142428 1.95081 0
M  V30 4093 O 407.767 -0.33817 2.69386 0
M  V30 4094 C 406.223 2.24653 2.81174 0
M  V30 4095 C 405.831 3.72342 2.49129 0
M  V30 4096 C 407.575 2.2625 3.59181 0
M  V30 4097 C 405.482 4.60719 3.70799 0
M  V30 4098 H 404.412 0.475937 0.584808 0
M  V30 4099 H 407.063 1.60712 0.885661 0
M  V30 4100 H 405.445 1.85011 3.50124 0
M  V30 4101 H 406.619 4.20624 1.88181 0
M  V30 4102 H 404.934 3.73361 1.84366 0
M  V30 4103 H 407.531 2.89495 4.49552 0
M  V30 4104 H 407.874 1.26647 3.96568 0
M  V30 4105 H 408.407 2.64426 2.97193 0
M  V30 4106 H 405.146 5.61324 3.3852 0
M  V30 4107 H 404.666 4.17163 4.3097 0
M  V30 4108 H 406.345 4.76182 4.38018 0
M  V30 4109 N 406.477 -1.02803 1.19454 0
M  V30 4110 C 407.424 -2.11099 0.933046 0
M  V30 4111 C 408.394 -1.65571 -0.132447 0
M  V30 4112 O 409.579 -1.90797 0.00987576 0
M  V30 4113 C 406.719 -3.41763 0.478747 0
M  V30 4114 C 405.832 -4.00833 1.6111 0
M  V30 4115 C 404.967 -5.19511 1.10825 0
M  V30 4116 C 404.006 -5.70639 2.21445 0
M  V30 4117 N 403.143 -6.80589 1.72461 0
M  V30 4118 H 407.983 -2.32804 1.86028 0
M  V30 4119 H 405.52 -1.14179 0.927441 0
M  V30 4120 H 407.478 -4.16736 0.196745 0
M  V30 4121 H 406.108 -3.20166 -0.411493 0
M  V30 4122 H 405.16 -3.23066 2.00829 0
M  V30 4123 H 406.472 -4.34794 2.4445 0
M  V30 4124 H 405.626 -6.01645 0.781533 0
M  V30 4125 H 404.365 -4.87086 0.244606 0
M  V30 4126 H 403.37 -4.87116 2.54947 0
M  V30 4127 H 404.595 -6.05102 3.08267 0
M  V30 4128 H 402.541 -6.50016 0.884056 0
M  V30 4129 H 402.458 -7.13681 2.49389 0
M  V30 4130 H 403.726 -7.66317 1.42755 0
M  V30 4131 N 407.956 -0.998596 -1.21925 0
M  V30 4132 C 408.889 -0.498517 -2.22688 0
M  V30 4133 C 409.867 0.444301 -1.56412 0
M  V30 4134 O 411.051 0.368518 -1.84863 0
M  V30 4135 C 408.178 0.276639 -3.37568 0
M  V30 4136 C 407.224 -0.61302 -4.22071 0
M  V30 4137 S 408.057 -2.07168 -4.93803 0
M  V30 4138 C 409.213 -1.30617 -6.12119 0
M  V30 4139 H 409.446 -1.35234 -2.64762 0
M  V30 4140 H 406.979 -0.806018 -1.31692 0
M  V30 4141 H 408.937 0.717817 -4.04175 0
M  V30 4142 H 407.598 1.10581 -2.93991 0
M  V30 4143 H 406.791 -0.0162909 -5.03997 0
M  V30 4144 H 406.393 -0.991202 -3.60626 0
M  V30 4145 H 408.685 -0.57675 -6.75041 0
M  V30 4146 H 409.628 -2.10091 -6.76215 0
M  V30 4147 H 410.036 -0.816957 -5.58557 0
M  V30 4148 N 409.434 1.37368 -0.772513 0
M  V30 4149 C 410.683 1.98918 -0.333861 0
M  V30 4150 C 410.996 1.62017 1.09589 0
M  V30 4151 O 412.202 2.16676 1.63596 0
M  V30 4152 C 410.658 3.55735 -0.545971 0
M  V30 4153 C 410.266 4.01573 -1.98603 0
M  V30 4154 C 412.01 4.24156 -0.170979 0
M  V30 4155 C 409.917 5.51102 -2.1457 0
M  V30 4156 H 408.847 0.744214 -0.121085 0
M  V30 4157 H 411.498 1.56888 -0.95175 0
M  V30 4158 H 409.88 3.95748 0.141387 0
M  V30 4159 H 411.054 3.72803 -2.7084 0
M  V30 4160 H 409.369 3.45937 -2.31769 0
M  V30 4161 H 411.966 5.34024 -0.26878 0
M  V30 4162 H 412.309 4.06917 0.878855 0
M  V30 4163 H 412.842 3.89447 -0.810914 0
M  V30 4164 H 409.581 5.73268 -3.17875 0
M  V30 4165 H 409.101 5.81554 -1.46817 0
M  V30 4166 H 410.78 6.17083 -1.94468 0
M  V30 4167 N 410.912 0.523116 1.48665 0
M  V30 4168 C 412.323 0.0808997 1.86525 0
M  V30 4169 C 412.674 -1.33975 1.43336 0
M  V30 4170 O 411.799 -2.00221 0.821009 0
M  V30 4171 C 412.394 0.140037 3.3851 0
M  V30 4172 C 410.953 -0.246948 3.75589 0
M  V30 4173 C 410.1 0.502845 2.72703 0
M  V30 4174 H 413.051 0.734736 1.40667 0
M  V30 4175 H 413.072 -0.649945 3.74908 0
M  V30 4176 H 412.584 1.17412 3.69914 0
M  V30 4177 H 410.685 -1.28343 3.49798 0
M  V30 4178 H 410.798 0.0878859 4.79019 0
M  V30 4179 H 409.162 -0.0500581 2.54651 0
M  V30 4180 H 409.945 1.53743 3.0695 0
M  V30 4181 N 412.39 -1.55475 0.257931 0
M  V30 4182 C 413.638 -1.98813 -0.363009 0
M  V30 4183 C 413.959 -1.14757 -1.57657 0
M  V30 4184 O 413.229 -0.232956 -1.9451 0
M  V30 4185 H 411.809 -0.734308 -0.137113 0
M  V30 4186 H 414.471 -1.9156 0.359281 0
M  V30 4187 H 413.567 -3.04941 -0.664634 0
M  V30 4188 N 413.868 0.0150385 -1.57593 0
M  V30 4189 C 415.114 0.704043 -1.90187 0
M  V30 4190 C 415.447 1.74249 -0.857366 0
M  V30 4191 O 414.722 1.94092 0.125843 0
M  V30 4192 C 415.005 1.36087 -3.33395 0
M  V30 4193 C 414.858 0.334981 -4.48551 0
M  V30 4194 C 416.177 2.29112 -3.7576 0
M  V30 4195 H 413.296 0.254475 -0.691673 0
M  V30 4196 H 415.938 -0.0331678 -1.89971 0
M  V30 4197 H 414.088 1.98922 -3.3371 0
M  V30 4198 H 415.76 -0.292534 -4.60372 0
M  V30 4199 H 414.003 -0.344325 -4.32431 0
M  V30 4200 H 414.674 0.833316 -5.45674 0
M  V30 4201 H 417.15 1.76308 -3.76902 0
M  V30 4202 H 416.026 2.72043 -4.76743 0
M  V30 4203 H 416.287 3.16385 -3.08793 0
M  V30 4204 N 415.346 1.54954 0.287554 0
M  V30 4205 C 416.592 1.75132 1.02257 0
M  V30 4206 C 416.925 0.542858 1.86458 0
M  V30 4207 O 416.2 -0.459856 1.88986 0
M  V30 4208 C 416.483 3.04812 1.91733 0
M  V30 4209 C 416.336 4.35985 1.10622 0
M  V30 4210 C 417.655 3.30438 2.90687 0
M  V30 4211 H 414.774 0.637194 0.370341 0
M  V30 4212 H 417.416 1.87678 0.296111 0
M  V30 4213 H 415.566 2.94247 2.53675 0
M  V30 4214 H 417.238 4.58487 0.508636 0
M  V30 4215 H 415.481 4.31865 0.409271 0
M  V30 4216 H 416.152 5.23017 1.76513 0
M  V30 4217 H 418.628 3.40701 2.38877 0
M  V30 4218 H 417.504 4.22467 3.50447 0
M  V30 4219 H 417.765 2.49377 3.65053 0
M  V30 4220 N 416.824 -0.551391 1.4764 0
M  V30 4221 C 418.101 -1.31229 1.45046 0
M  V30 4222 C 418.481 -2.10563 0.150527 0
M  V30 4223 O 417.829 -2.11374 -0.867956 0
M  V30 4224 C 418.039 -2.21189 2.69956 0
M  V30 4225 C 419.387 -2.82021 3.1741 0
M  V30 4226 O 420.411 -2.31488 2.70724 0
M  V30 4227 O 419.27 -3.73885 3.98588 0
M  V30 4228 H 416.364 -0.591193 0.578291 0
M  V30 4229 H 418.91 -0.569813 1.59847 0
M  V30 4230 H 417.682 -1.62207 3.56096 0
M  V30 4231 H 417.305 -3.02722 2.57769 0
M  V30 4232 N 418.302 -1.35869 -0.798587 0
M  V30 4233 C 419.53 -1.32722 -1.58722 0
M  V30 4234 C 419.945 0.0935631 -1.88568 0
M  V30 4235 O 419.302 1.04784 -1.49421 0
M  V30 4236 C 419.353 -2.13974 -2.91371 0
M  V30 4237 O 419.074 -3.50514 -2.62815 0
M  V30 4238 C 420.575 -2.18504 -3.85708 0
M  V30 4239 H 417.795 -0.45562 -0.492596 0
M  V30 4240 H 420.339 -1.78837 -0.991843 0
M  V30 4241 H 418.494 -1.71438 -3.47402 0
M  V30 4242 H 418.908 -3.92806 -3.47568 0
M  V30 4243 H 420.382 -2.79732 -4.75872 0
M  V30 4244 H 420.859 -1.18597 -4.22885 0
M  V30 4245 H 421.465 -2.61236 -3.35612 0
M  V30 4246 N 419.78 1.02168 -1.19998 0
M  V30 4247 C 421.028 1.75338 -1.00504 0
M  V30 4248 C 421.349 1.89387 0.464506 0
M  V30 4249 O 420.619 1.43268 1.33608 0
M  V30 4250 H 419.199 0.649564 -0.368885 0
M  V30 4251 H 421.861 1.23205 -1.51018 0
M  V30 4252 H 420.957 2.75892 -1.45912 0
M  V30 4253 N 421.258 1.00505 1.21394 0
M  V30 4254 C 422.188 0.585684 2.26035 0
M  V30 4255 C 423.169 -0.393525 1.65485 0
M  V30 4256 O 424.354 -0.281497 1.92149 0
M  V30 4257 C 421.484 -0.0884283 3.47187 0
M  V30 4258 C 420.438 0.810567 4.20254 0
M  V30 4259 C 419.764 0.00286382 5.347 0
M  V30 4260 C 421.064 2.1132 4.77641 0
M  V30 4261 H 422.758 1.46039 2.61368 0
M  V30 4262 H 420.304 0.703648 1.25638 0
M  V30 4263 H 422.257 -0.393286 4.19561 0
M  V30 4264 H 420.981 -0.997766 3.10986 0
M  V30 4265 H 419.64 1.09925 3.49731 0
M  V30 4266 H 419.288 -0.907765 4.94741 0
M  V30 4267 H 418.988 0.601444 5.84514 0
M  V30 4268 H 420.512 -0.295808 6.09883 0
M  V30 4269 H 421.926 1.87148 5.41893 0
M  V30 4270 H 420.323 2.66164 5.37845 0
M  V30 4271 H 421.393 2.78393 3.9702 0
M  V30 4272 N 422.737 -1.36956 0.779787 0
M  V30 4273 C 423.984 -1.99491 0.347766 0
M  V30 4274 C 424.312 -1.61898 -1.07793 0
M  V30 4275 O 423.567 -0.86071 -1.75756 0
M  V30 4276 C 423.866 -3.54585 0.447686 0
M  V30 4277 C 423.532 -4.1197 1.83279 0
M  V30 4278 C 422.194 -4.27356 2.2118 0
M  V30 4279 C 424.546 -4.43354 2.74019 0
M  V30 4280 C 421.874 -4.71432 3.4924 0
M  V30 4281 C 424.226 -4.88858 4.01497 0
M  V30 4282 C 422.89 -5.0245 4.39432 0
M  V30 4283 H 422.16 -0.729991 0.127257 0
M  V30 4284 H 424.807 -1.63599 0.995376 0
M  V30 4285 H 423.112 -3.90773 -0.283447 0
M  V30 4286 H 424.809 -4.00888 0.0945948 0
M  V30 4287 H 421.399 -4.00428 1.52825 0
M  V30 4288 H 425.583 -4.31045 2.45995 0
M  V30 4289 H 420.839 -4.80141 3.78516 0
M  V30 4290 H 425.013 -5.12108 4.71931 0
M  V30 4291 H 422.64 -5.36362 5.38721 0
M  V30 4292 N 424.215 -0.530993 -1.48385 0
M  V30 4293 C 425.464 0.00474348 -2.01699 0
M  V30 4294 C 425.777 1.35227 -1.41325 0
M  V30 4295 O 426.983 1.97643 -1.86144 0
M  V30 4296 C 425.439 0.0588473 -3.59852 0
M  V30 4297 C 425.047 -1.28385 -4.2921 0
M  V30 4298 C 426.791 0.543358 -4.21008 0
M  V30 4299 C 424.698 -1.19028 -5.79298 0
M  V30 4300 H 423.628 0.00554317 -0.75398 0
M  V30 4301 H 426.279 -0.674924 -1.70637 0
M  V30 4302 H 424.661 0.803612 -3.8776 0
M  V30 4303 H 425.835 -2.04426 -4.12973 0
M  V30 4304 H 424.15 -1.70418 -3.7993 0
M  V30 4305 H 426.747 0.631351 -5.3096 0
M  V30 4306 H 427.09 1.54937 -3.86394 0
M  V30 4307 H 427.623 -0.145754 -3.97533 0
M  V30 4308 H 424.362 -2.17147 -6.18488 0
M  V30 4309 H 423.882 -0.471246 -5.97946 0
M  V30 4310 H 425.561 -0.881365 -6.40969 0
M  V30 4311 N 425.693 1.55336 -0.266172 0
M  V30 4312 C 426.641 2.23587 0.641228 0
M  V30 4313 C 427.635 1.22986 1.16494 0
M  V30 4314 O 428.841 1.40943 1.1196 0
M  V30 4315 H 425.216 0.717452 0.225315 0
M  V30 4316 H 427.187 2.9837 0.0426561 0
M  V30 4317 C 425.936 2.96369 1.81826 0
M  V30 4318 H 425.259 3.73563 1.42445 0
M  V30 4319 H 426.699 3.47459 2.42998 0
M  V30 4320 C 425.158 2.0133 2.70125 0
M  V30 4321 O 425.688 1.55875 3.70224 0
M  V30 4322 N 423.894 1.6802 2.37102 0
M  V30 4323 H 423.441 2.05181 1.55751 0
M  V30 4324 H 423.399 1.047 2.96454 0
M  V30 4325 N 427.171 -0.0066808 1.57599 0
M  V30 4326 C 428.104 -1.03397 2.03431 0
M  V30 4327 C 429.082 -1.33872 0.922877 0
M  V30 4328 O 430.266 -1.4615 1.19048 0
M  V30 4329 C 427.393 -2.36325 2.42628 0
M  V30 4330 C 426.439 -2.21557 3.64438 0
M  V30 4331 S 427.272 -1.54789 5.12641 0
M  V30 4332 C 428.428 -2.8916 5.55101 0
M  V30 4333 H 428.661 -0.643687 2.90248 0
M  V30 4334 H 426.194 -0.217349 1.52863 0
M  V30 4335 H 428.152 -3.12759 2.65879 0
M  V30 4336 H 426.813 -2.72495 1.56222 0
M  V30 4337 H 426.006 -3.1974 3.89592 0
M  V30 4338 H 425.608 -1.53267 3.41153 0
M  V30 4339 H 427.9 -3.8547 5.57153 0
M  V30 4340 H 428.843 -2.68713 6.55133 0
M  V30 4341 H 429.251 -2.92762 4.82649 0
M  V30 4342 N 428.649 -1.55105 -0.279332 0
M  V30 4343 C 429.612 -1.86783 -1.32834 0
M  V30 4344 C 430.612 -0.74199 -1.42657 0
M  V30 4345 O 431.802 -1.0102 -1.41918 0
M  V30 4346 C 428.934 -2.06746 -2.71052 0
M  V30 4347 H 430.127 -2.8055 -1.05979 0
M  V30 4348 H 427.68 -1.47499 -0.517087 0
M  V30 4349 H 428.415 -1.15339 -3.03097 0
M  V30 4350 H 428.2 -2.88711 -2.65309 0
M  V30 4351 H 429.69 -2.32549 -3.46858 0
M  V30 4352 N 430.127 0.543554 -1.4793 0
M  V30 4353 C 431.037 1.67657 -1.64098 0
M  V30 4354 C 432.053 1.65934 -0.523622 0
M  V30 4355 O 433.229 1.85133 -0.792943 0
M  V30 4356 C 430.294 3.04146 -1.66421 0
M  V30 4357 C 429.355 3.16831 -2.89684 0
M  V30 4358 C 428.588 4.46809 -2.91886 0
M  V30 4359 O 428.811 5.33095 -2.02895 0
M  V30 4360 O 427.745 4.63573 -3.83906 0
M  V30 4361 H 431.571 1.56957 -2.59997 0
M  V30 4362 H 429.156 0.715116 -1.31173 0
M  V30 4363 H 431.038 3.85346 -1.70548 0
M  V30 4364 H 429.713 3.152 -0.736923 0
M  V30 4365 H 428.62 2.34977 -2.91095 0
M  V30 4366 H 429.953 3.10687 -3.81752 0
M  V30 4367 N 431.605 1.3629 0.791371 0
M  V30 4368 C 433.021 1.16661 1.08914 0
M  V30 4369 C 433.221 -0.0106266 2.01497 0
M  V30 4370 O 432.277 -0.676596 2.43266 0
M  V30 4371 C 433.59 2.47656 1.70549 0
M  V30 4372 C 435.138 2.54002 1.82899 0
M  V30 4373 C 435.613 3.85078 2.47949 0
M  V30 4374 N 437.104 3.86413 2.5542 0
M  V30 4375 C 437.839 4.84572 3.06557 0
M  V30 4376 N 437.335 5.93124 3.58016 0
M  V30 4377 N 439.128 4.71994 3.05251 0
M  V30 4378 H 431.279 2.11668 0.176238 0
M  V30 4379 H 433.542 0.937486 0.140796 0
M  V30 4380 H 433.248 3.34059 1.09989 0
M  V30 4381 H 433.122 2.63319 2.70079 0
M  V30 4382 H 435.509 1.68018 2.42598 0
M  V30 4383 H 435.59 2.42239 0.821808 0
M  V30 4384 H 435.234 4.71467 1.88895 0
M  V30 4385 H 435.164 3.94135 3.49235 0
M  V30 4386 H 437.655 3.07988 2.18979 0
M  V30 4387 H 437.968 6.63999 3.95381 0
M  V30 4388 H 436.313 5.96796 3.56173 0
M  V30 4389 H 439.504 3.86321 2.64336 0
M  V30 4390 H 439.677 5.48653 3.44796 0
M  V30 4391 N 433.083 -1.0153 1.20538 0
M  V30 4392 C 434.329 -1.75408 1.01783 0
M  V30 4393 C 434.662 -1.88943 -0.448814 0
M  V30 4394 O 433.937 -1.4162 -1.33319 0
M  V30 4395 C 434.22 -3.17255 1.70356 0
M  V30 4396 C 434.073 -3.11508 3.24473 0
M  V30 4397 C 435.392 -4.15955 1.43769 0
M  V30 4398 H 432.511 -0.636713 0.371167 0
M  V30 4399 H 435.153 -1.18436 1.4857 0
M  V30 4400 H 433.303 -3.65898 1.30578 0
M  V30 4401 H 434.975 -2.70658 3.73553 0
M  V30 4402 H 433.218 -2.4887 3.55311 0
M  V30 4403 H 433.889 -4.11784 3.67611 0
M  V30 4404 H 436.365 -3.75973 1.7828 0
M  V30 4405 H 435.241 -5.13368 1.94279 0
M  V30 4406 H 435.502 -4.40586 0.365564 0
M  V30 4407 N 434.561 -1.01147 -1.20859 0
M  V30 4408 C 435.791 -0.715872 -1.93801 0
M  V30 4409 C 436.199 0.726592 -1.74692 0
M  V30 4410 O 435.542 1.50397 -1.05482 0
M  V30 4411 C 435.604 -0.965269 -3.46299 0
M  V30 4412 C 435.268 -2.39584 -3.89164 0
M  V30 4413 C 436.265 -3.3764 -3.95342 0
M  V30 4414 C 433.95 -2.73522 -4.21297 0
M  V30 4415 C 435.944 -4.67698 -4.33056 0
M  V30 4416 C 433.631 -4.03794 -4.58687 0
M  V30 4417 C 434.629 -5.00693 -4.64538 0
M  V30 4418 O 434.317 -6.28635 -5.01072 0
M  V30 4419 H 434.049 -0.262524 -0.622942 0
M  V30 4420 H 436.603 -1.35413 -1.54443 0
M  V30 4421 H 434.833 -0.269847 -3.85757 0
M  V30 4422 H 436.522 -0.662051 -4.00464 0
M  V30 4423 H 437.288 -3.12757 -3.70686 0
M  V30 4424 H 433.167 -1.9879 -4.15937 0
M  V30 4425 H 436.711 -5.4333 -4.37537 0
M  V30 4426 H 432.608 -4.28459 -4.82797 0
M  V30 4427 H 433.376 -6.32847 -5.19083 0
M  V30 4428 N 436.039 1.36541 -0.78704 0
M  V30 4429 C 437.286 1.99304 -0.358341 0
M  V30 4430 C 437.614 1.62467 1.06933 0
M  V30 4431 O 436.869 0.870019 1.75297 0
M  V30 4432 C 437.168 3.54343 -0.466485 0
M  V30 4433 C 436.834 4.10993 -1.85461 0
M  V30 4434 C 435.496 4.26177 -2.23443 0
M  V30 4435 C 437.848 4.41895 -2.76366 0
M  V30 4436 C 435.176 4.69573 -3.51736 0
M  V30 4437 C 437.528 4.86722 -4.04084 0
M  V30 4438 C 436.192 5.00112 -4.42091 0
M  V30 4439 H 435.462 0.729306 -0.131126 0
M  V30 4440 H 438.109 1.63068 -1.00404 0
M  V30 4441 H 436.414 3.90918 0.262719 0
M  V30 4442 H 438.111 4.00833 -0.115854 0
M  V30 4443 H 434.701 3.99612 -1.54946 0
M  V30 4444 H 438.885 4.29735 -2.48277 0
M  V30 4445 H 434.141 4.78127 -3.81057 0
M  V30 4446 H 438.315 5.09598 -4.7464 0
M  V30 4447 H 435.942 5.33498 -5.41557 0
M  V30 4448 N 437.518 0.538854 1.48102 0
M  V30 4449 C 438.766 0.00798599 2.02098 0
M  V30 4450 C 439.087 -1.33922 1.41739 0
M  V30 4451 O 438.357 -1.86932 0.585934 0
M  V30 4452 H 436.937 -3.62179e-05 0.747 0
M  V30 4453 H 439.599 0.7047 1.81714 0
M  V30 4454 H 438.695 -0.0937672 3.11959 0
M  V30 4455 N 438.996 -1.55193 0.274407 0
M  V30 4456 C 439.929 -2.18606 -0.654712 0
M  V30 4457 C 440.907 -1.14677 -1.15273 0
M  V30 4458 O 442.091 -1.43198 -1.22583 0
M  V30 4459 C 439.218 -2.80875 -1.89281 0
M  V30 4460 C 438.264 -3.981 -1.53032 0
M  V30 4461 S 439.097 -5.32025 -0.609107 0
M  V30 4462 C 440.253 -5.97761 -1.85559 0
M  V30 4463 H 440.486 -2.97074 -0.115894 0
M  V30 4464 H 438.019 -1.54288 0.05867 0
M  V30 4465 H 439.977 -3.17381 -2.60345 0
M  V30 4466 H 438.638 -2.02302 -2.40277 0
M  V30 4467 H 437.831 -4.40356 -2.45158 0
M  V30 4468 H 437.433 -3.63013 -0.899874 0
M  V30 4469 H 439.725 -6.16951 -2.7996 0
M  V30 4470 H 440.668 -6.92545 -1.47605 0
M  V30 4471 H 441.076 -5.27113 -2.02021 0
M  V30 4472 N 440.474 -0.00167713 -1.576 0
M  V30 4473 C 441.406 1.0174 -2.05382 0
M  V30 4474 C 442.419 1.30595 -0.972052 0
M  V30 4475 O 443.608 1.27542 -1.24882 0
M  V30 4476 C 440.708 2.35174 -2.44022 0
M  V30 4477 C 439.881 2.25234 -3.74951 0
M  V30 4478 C 438.94 3.4137 -4.00441 0
M  V30 4479 O 437.966 3.19483 -4.71083 0
M  V30 4480 N 439.168 4.64275 -3.48467 0
M  V30 4481 H 441.933 0.609902 -2.93428 0
M  V30 4482 H 439.494 0.185672 -1.60832 0
M  V30 4483 H 441.486 3.11643 -2.58187 0
M  V30 4484 H 440.056 2.67659 -1.61485 0
M  V30 4485 H 439.276 1.33664 -3.70847 0
M  V30 4486 H 440.564 2.15767 -4.60784 0
M  V30 4487 H 439.962 4.84955 -2.91264 0
M  V30 4488 H 438.519 5.38005 -3.67959 0
M  V30 4489 N 441.952 1.55251 0.271103 0
M  V30 4490 C 443.229 1.66664 1.02384 0
M  V30 4491 C 443.609 0.534363 2.04225 0
M  V30 4492 O 442.957 -0.465337 2.23712 0
M  V30 4493 C 443.167 3.05961 1.67895 0
M  V30 4494 C 444.515 3.63772 2.18986 0
M  V30 4495 O 445.539 3.08606 1.77878 0
M  V30 4496 O 444.398 4.60429 2.94393 0
M  V30 4497 H 441.492 0.676957 0.475035 0
M  V30 4498 H 444.038 1.67589 0.26681 0
M  V30 4499 H 442.81 3.79815 0.941071 0
M  V30 4500 H 442.433 3.08943 2.5028 0
M  V30 4501 N 443.43 -0.535701 1.48216 0
M  V30 4502 C 444.678 -1.28928 1.55634 0
M  V30 4503 C 444.999 -1.93645 0.229514 0
M  V30 4504 O 444.269 -1.81038 -0.74846 0
M  V30 4505 H 442.849 -0.47884 0.573342 0
M  V30 4506 H 445.511 -0.623853 1.84646 0
M  V30 4507 H 444.607 -2.07157 2.33436 0
M  V30 4508 N 444.908 -1.36708 -0.784132 0
M  V30 4509 C 446.133 -1.34565 -1.5782 0
M  V30 4510 C 446.558 0.0695257 -1.87971 0
M  V30 4511 O 445.916 1.04302 -1.48293 0
M  V30 4512 C 445.964 -2.17952 -2.87279 0
M  V30 4513 O 445.068 -1.57563 -3.81114 0
M  V30 4514 H 444.409 -0.460337 -0.478524 0
M  V30 4515 H 446.939 -1.80064 -0.971495 0
M  V30 4516 H 446.949 -2.30721 -3.365 0
M  V30 4517 H 445.624 -3.20823 -2.64661 0
M  V30 4518 H 444.201 -1.53764 -3.39722 0
M  V30 4519 N 446.386 1.0089 -1.21074 0
M  V30 4520 C 447.632 1.74866 -1.02712 0
M  V30 4521 C 447.965 1.89178 0.438787 0
M  V30 4522 O 447.24 1.42325 1.32567 0
M  V30 4523 C 447.523 3.16347 -1.72036 0
M  V30 4524 C 447.376 3.09782 -3.26121 0
M  V30 4525 C 448.695 4.15187 -1.45973 0
M  V30 4526 H 445.814 0.634736 -0.374539 0
M  V30 4527 H 448.456 1.17646 -1.49196 0
M  V30 4528 H 446.606 3.65201 -1.32517 0
M  V30 4529 H 448.278 2.68673 -3.74983 0
M  V30 4530 H 446.521 2.46982 -3.56626 0
M  V30 4531 H 447.192 4.09829 -3.6979 0
M  V30 4532 H 449.668 3.75022 -1.80272 0
M  V30 4533 H 448.544 5.12331 -1.96999 0
M  V30 4534 H 448.805 4.40386 -0.388924 0
M  V30 4535 N 447.864 1.01787 1.20321 0
M  V30 4536 C 448.812 0.58254 2.25187 0
M  V30 4537 C 449.806 -0.379359 1.65098 0
M  V30 4538 O 451.012 -0.249142 1.78267 0
M  V30 4539 H 447.387 0.170078 0.732514 0
M  V30 4540 H 449.358 1.47788 2.59232 0
M  V30 4541 C 448.107 -0.0620885 3.47645 0
M  V30 4542 H 447.43 0.669069 3.94162 0
M  V30 4543 H 448.87 -0.329784 4.22716 0
M  V30 4544 C 447.329 -1.3053 3.10586 0
M  V30 4545 O 447.859 -2.39848 3.22236 0
M  V30 4546 N 446.065 -1.18988 2.65123 0
M  V30 4547 H 445.612 -0.300341 2.55843 0
M  V30 4548 H 445.57 -2.02267 2.40698 0
M  V30 4549 N 449.342 -1.36122 0.79427 0
M  V30 4550 C 450.275 -2.27759 0.141845 0
M  V30 4551 C 451.253 -1.47471 -0.684921 0
M  V30 4552 O 452.437 -1.76759 -0.654857 0
M  V30 4553 C 449.564 -3.29008 -0.804446 0
M  V30 4554 C 448.61 -4.26459 -0.0588617 0
M  V30 4555 S 449.443 -5.20253 1.26873 0
M  V30 4556 C 450.599 -6.25048 0.326562 0
M  V30 4557 H 450.832 -2.82746 0.918818 0
M  V30 4558 H 448.365 -1.42736 0.588722 0
M  V30 4559 H 450.323 -3.87842 -1.34495 0
M  V30 4560 H 448.984 -2.72924 -1.5547 0
M  V30 4561 H 448.177 -4.97973 -0.777087 0
M  V30 4562 H 447.779 -3.71731 0.411309 0
M  V30 4563 H 450.071 -6.75705 -0.492795 0
M  V30 4564 H 451.014 -7.00852 1.01053 0
M  V30 4565 H 451.422 -5.64454 -0.0722627 0
M  V30 4566 N 450.82 -0.546701 -1.47814 0
M  V30 4567 C 452.236 -0.205717 -1.58269 0
M  V30 4568 C 452.436 1.29153 -1.54667 0
M  V30 4569 O 451.492 2.07098 -1.44453 0
M  V30 4570 C 452.805 -0.823065 -2.89216 0
M  V30 4571 C 454.353 -0.793328 -3.02779 0
M  V30 4572 C 454.828 -1.38955 -4.36412 0
M  V30 4573 N 456.319 -1.35227 -4.43021 0
M  V30 4574 C 457.054 -1.78333 -5.44963 0
M  V30 4575 N 456.55 -2.29246 -6.53772 0
M  V30 4576 N 458.343 -1.69467 -5.35945 0
M  V30 4577 H 450.494 -1.5196 -1.48398 0
M  V30 4578 H 452.757 -0.633078 -0.705632 0
M  V30 4579 H 452.463 -1.8749 -2.97558 0
M  V30 4580 H 452.337 -0.309915 -3.75925 0
M  V30 4581 H 454.724 0.249784 -2.94041 0
M  V30 4582 H 454.805 -1.34412 -2.17639 0
M  V30 4583 H 454.449 -2.43168 -4.45906 0
M  V30 4584 H 454.379 -0.814291 -5.20266 0
M  V30 4585 H 456.87 -0.979739 -3.64979 0
M  V30 4586 H 457.183 -2.60089 -7.27718 0
M  V30 4587 H 455.528 -2.3325 -6.5469 0
M  V30 4588 H 458.719 -1.29477 -4.49837 0
M  V30 4589 H 458.892 -2.03381 -6.15256 0
M  V30 4590 N 452.299 1.55045 -0.282633 0
M  V30 4591 C 453.209 2.26491 0.61147 0
M  V30 4592 C 454.225 1.29348 1.16384 0
M  V30 4593 O 455.401 1.62298 1.19253 0
M  V30 4594 C 452.466 2.97779 1.77563 0
M  V30 4595 C 451.527 4.10418 1.25919 0
M  V30 4596 C 450.76 4.78297 2.36786 0
M  V30 4597 O 450.983 4.45426 3.56303 0
M  V30 4598 O 449.917 5.66089 2.04517 0
M  V30 4599 H 453.743 3.03683 0.0324615 0
M  V30 4600 H 451.328 1.49317 -0.0497576 0
M  V30 4601 H 453.21 3.42554 2.45427 0
M  V30 4602 H 451.885 2.23498 2.34159 0
M  V30 4603 H 450.792 3.70082 0.546797 0
M  V30 4604 H 452.125 4.86622 0.738887 0
M  V30 4605 N 453.777 0.010035 1.57597 0
M  V30 4606 C 454.724 -0.978122 2.09049 0
M  V30 4607 C 455.694 -1.33509 0.988159 0
M  V30 4608 O 456.879 -1.43172 1.26121 0
M  V30 4609 C 454.019 -2.26158 2.60666 0
M  V30 4610 C 453.132 -1.96275 3.84838 0
M  V30 4611 C 452.267 -3.18776 4.24918 0
M  V30 4612 C 451.306 -2.84625 5.41899 0
M  V30 4613 N 450.443 -3.99693 5.77226 0
M  V30 4614 H 455.283 -0.532431 2.93205 0
M  V30 4615 H 452.82 -0.251234 1.44939 0
M  V30 4616 H 454.778 -3.01202 2.88675 0
M  V30 4617 H 453.408 -2.68378 1.79369 0
M  V30 4618 H 452.46 -1.11555 3.63675 0
M  V30 4619 H 453.772 -1.67111 4.69974 0
M  V30 4620 H 452.926 -4.02157 4.54262 0
M  V30 4621 H 451.665 -3.51087 3.38511 0
M  V30 4622 H 450.67 -1.99653 5.12268 0
M  V30 4623 H 451.895 -2.53551 6.29991 0
M  V30 4624 H 449.841 -4.31882 4.93776 0
M  V30 4625 H 449.758 -3.74087 6.56959 0
M  V30 4626 H 451.026 -4.83834 6.11167 0
M  V30 4627 N 455.255 -1.55392 -0.262866 0
M  V30 4628 C 456.666 -1.67079 -0.833158 0
M  V30 4629 C 457.017 -0.604539 -1.86654 0
M  V30 4630 O 456.142 0.252138 -2.14926 0
M  V30 4631 C 456.737 -3.02891 -1.51797 0
M  V30 4632 C 455.296 -3.16571 -2.03617 0
M  V30 4633 C 454.443 -2.62909 -0.881701 0
M  V30 4634 H 457.394 -1.58652 -0.0389986 0
M  V30 4635 H 457.415 -2.96445 -2.38538 0
M  V30 4636 H 456.927 -3.80473 -0.765619 0
M  V30 4637 H 455.028 -2.43782 -2.81782 0
M  V30 4638 H 455.141 -4.23271 -2.24452 0
M  V30 4639 H 453.505 -2.20324 -1.27786 0
M  V30 4640 H 454.288 -3.43003 -0.14269 0
M  V30 4641 N 456.733 0.527833 -1.48498 0
M  V30 4642 C 457.98 1.28354 -1.56625 0
M  V30 4643 C 458.308 1.93 -0.241096 0
M  V30 4644 O 457.563 1.79967 0.768798 0
M  V30 4645 C 457.862 2.39275 -2.65485 0
M  V30 4646 C 457.528 1.92268 -4.07853 0
M  V30 4647 C 456.19 1.79166 -4.46602 0
M  V30 4648 C 458.542 1.56771 -4.97064 0
M  V30 4649 C 455.87 1.28905 -5.72364 0
M  V30 4650 C 458.222 1.07972 -6.23318 0
M  V30 4651 C 456.886 0.934887 -6.60921 0
M  V30 4652 H 456.156 0.469682 -0.573131 0
M  V30 4653 H 458.803 0.588781 -1.82224 0
M  V30 4654 H 457.108 3.1443 -2.33754 0
M  V30 4655 H 458.805 2.974 -2.68988 0
M  V30 4656 H 455.395 2.03417 -3.77252 0
M  V30 4657 H 459.579 1.65753 -4.67803 0
M  V30 4658 H 454.835 1.16381 -6.00221 0
M  V30 4659 H 459.009 0.795775 -6.91838 0
M  V30 4660 H 456.636 0.543231 -7.58257 0
M  V30 4661 N 458.211 1.37122 0.776871 0
M  V30 4662 C 459.451 1.33441 1.54831 0
M  V30 4663 C 459.815 -0.0818963 1.91825 0
M  V30 4664 O 461.016 -0.24338 2.67696 0
M  V30 4665 C 459.287 2.24267 2.78279 0
M  V30 4666 S 460.846 2.38389 3.68397 0
M  V30 4667 H 457.664 0.473791 0.530135 0
M  V30 4668 H 460.266 1.7282 0.913968 0
M  V30 4669 H 458.97 3.261 2.49173 0
M  V30 4670 H 458.501 1.85953 3.46677 0
M  V30 4671 H 460.516 1.59068 4.70013 0
M  V30 4672 O 459.728 -0.91678 1.32956 0
M  V30 4673 H 460.419 -1.55003 1.16162 0
M  V30 END ATOM
M  V30 BEGIN BOND
M  V30 END BOND
M  V30 END CTAB
M  END
$$$$
