drugbank_target|P43004 Excitatory amino acid transporter 2 (DB00142)
 OpenBabel12092119423D

  0  0  0     0  0            999 V3000
M  V30 BEGIN CTAB
M  V30 COUNTS 8887 8958 0 0 0
M  V30 BEGIN ATOM
M  V30 1 H -0.908 1.98254 -0.117106 0
M  V30 2 N 0 1.576 0 0
M  V30 3 C 0.933 2.03868 1.02534 0
M  V30 4 C 1.911 0.928543 1.3348 0
M  V30 5 O 3.095 1.19667 1.45644 0
M  V30 6 C 0.222 2.43627 2.35294 0
M  V30 7 C -0.732 3.65373 2.2001 0
M  V30 8 S 0.101 5.13292 1.52614 0
M  V30 9 C 1.257 5.56322 2.86805 0
M  V30 10 H 1.49 2.90518 0.631377 0
M  V30 11 H -0.977 1.52953 0.210867 0
M  V30 12 H 0.981 2.67203 3.11629 0
M  V30 13 H -0.358 1.57376 2.7183 0
M  V30 14 H -1.165 3.90944 3.18086 0
M  V30 15 H -1.563 3.418 1.51819 0
M  V30 16 H 0.729 5.58782 3.83104 0
M  V30 17 H 1.672 6.56266 2.65933 0
M  V30 18 H 2.08 4.83886 2.90714 0
M  V30 19 N 1.4781 -0.272755 1.55222 0
M  V30 20 C 2.4411 -1.32041 1.87344 0
M  V30 21 C 3.4411 -1.42342 0.74803 0
M  V30 22 O 4.6311 -1.41488 1.0162 0
M  V30 23 C 1.7631 -2.70173 2.07893 0
M  V30 24 H 2.9561 -1.04789 2.80997 0
M  V30 25 H 0.5091 -0.51083 1.47717 0
M  V30 26 H 1.2441 -3.02605 1.16622 0
M  V30 27 H 1.0291 -2.64082 2.89833 0
M  V30 28 H 2.5191 -3.45869 2.34017 0
M  V30 29 N 2.9562 -1.48159 -0.537278 0
M  V30 30 C 4.1812 -1.59707 -1.32319 0
M  V30 31 C 4.6062 -0.254859 -1.86365 0
M  V30 32 O 3.9642 0.772378 -1.64024 0
M  V30 33 C 4.0122 -2.6412 -2.45505 0
M  V30 34 O 3.1162 -2.20774 -3.48328 0
M  V30 35 H 2.4572 -0.535791 -0.392204 0
M  V30 36 H 4.9872 -1.94092 -0.647268 0
M  V30 37 H 4.9972 -2.85166 -2.91795 0
M  V30 38 H 3.6722 -3.61567 -2.05528 0
M  V30 39 H 2.2492 -2.09911 -3.08207 0
M  V30 40 N 4.4343 0.785586 -1.36625 0
M  V30 41 C 5.6623 1.57448 -1.3423 0
M  V30 42 C 6.0773 1.88649 0.0755653 0
M  V30 43 O 5.4343 1.50414 1.03354 0
M  V30 44 C 5.4853 2.89316 -2.16745 0
M  V30 45 O 5.2063 2.59459 -3.53005 0
M  V30 46 C 6.7073 3.83606 -2.22174 0
M  V30 47 H 3.9273 0.488226 -0.4603 0
M  V30 48 H 6.4713 0.974733 -1.79775 0
M  V30 49 H 4.6263 3.4575 -1.74745 0
M  V30 50 H 5.0403 3.43804 -3.96105 0
M  V30 51 H 6.5143 4.73181 -2.8426 0
M  V30 52 H 6.9913 4.21734 -1.22627 0
M  V30 53 H 7.5973 3.33104 -2.64427 0
M  V30 54 N 5.9124 1.20967 1.01018 0
M  V30 55 C 6.8224 0.980157 2.13143 0
M  V30 56 C 7.8384 -0.0660665 1.73875 0
M  V30 57 O 9.0144 0.122821 2.01025 0
M  V30 58 C 6.0794 0.54216 3.42435 0
M  V30 59 C 5.1404 1.65999 3.95908 0
M  V30 60 C 4.3734 1.2428 5.19028 0
M  V30 61 O 4.5964 0.114196 5.70286 0
M  V30 62 O 3.5304 2.05271 5.65816 0
M  V30 63 H 7.3564 1.91913 2.35379 0
M  V30 64 H 4.9414 0.994099 1.11526 0
M  V30 65 H 6.8234 0.30744 4.20277 0
M  V30 66 H 5.4984 -0.36815 3.216 0
M  V30 67 H 4.4054 1.94906 3.19316 0
M  V30 68 H 5.7384 2.54753 4.21143 0
M  V30 69 N 7.3905 -1.2043 1.01659 0
M  V30 70 C 8.6385 -1.89423 0.704522 0
M  V30 71 C 8.9595 -1.79231 -0.768197 0
M  V30 72 O 8.2295 -1.1947 -1.55254 0
M  V30 73 H 6.8095 -0.701178 0.257602 0
M  V30 74 H 9.4715 -1.4626 1.28818 0
M  V30 75 H 8.5675 -2.96052 0.987916 0
M  V30 76 N 8.8686 -0.792821 -1.36206 0
M  V30 77 C 9.8316 -0.199459 -2.2833 0
M  V30 78 C 10.8316 0.605189 -1.48977 0
M  V30 79 O 12.0216 0.425685 -1.68919 0
M  V30 80 C 9.1536 0.723523 -3.33134 0
M  V30 81 H 10.3466 -1.01181 -2.82316 0
M  V30 82 H 7.8996 -0.562485 -1.45828 0
M  V30 83 H 8.6346 1.56008 -2.84309 0
M  V30 84 H 8.4196 0.148436 -3.91819 0
M  V30 85 H 9.9096 1.13344 -4.01924 0
M  V30 86 N 10.3467 1.47872 -0.545128 0
M  V30 87 C 11.2947 2.31533 0.222512 0
M  V30 88 C 12.2887 1.42177 0.920985 0
M  V30 89 O 13.4947 1.59005 0.843645 0
M  V30 90 H 9.8697 0.746519 0.0906278 0
M  V30 91 H 11.8407 2.94139 -0.50246 0
M  V30 92 C 10.5897 3.2457 1.24699 0
M  V30 93 H 9.9127 3.93283 0.718944 0
M  V30 94 H 11.3527 3.85963 1.75523 0
M  V30 95 C 9.8117 2.47237 2.28856 0
M  V30 96 O 10.3417 2.20808 3.35569 0
M  V30 97 N 8.5477 2.08461 2.02466 0
M  V30 98 H 8.0947 2.30155 1.157 0
M  V30 99 H 8.0527 1.57033 2.72375 0
M  V30 100 N 11.8248 0.280983 1.55075 0
M  V30 101 C 12.7728 -0.619864 2.24188 0
M  V30 102 C 13.7668 -1.15315 1.24092 0
M  V30 103 O 14.9728 -1.1061 1.42005 0
M  V30 104 H 11.3478 -0.218459 0.719569 0
M  V30 105 H 13.3188 -0.0141831 2.98397 0
M  V30 106 C 12.0678 -1.7899 2.98091 0
M  V30 107 H 11.3908 -1.38874 3.74905 0
M  V30 108 H 12.8308 -2.39672 3.49762 0
M  V30 109 C 11.2898 -2.68192 2.03899 0
M  V30 110 O 11.8198 -3.6872 1.594 0
M  V30 111 N 10.0258 -2.35488 1.70275 0
M  V30 112 H 9.5728 -1.53787 2.06658 0
M  V30 113 H 9.5308 -2.95442 1.07524 0
M  V30 114 N 13.3029 -1.57598 0.00835791 0
M  V30 115 C 14.2359 -2.04409 -1.01451 0
M  V30 116 C 15.2139 -0.935609 -1.32985 0
M  V30 117 O 16.3979 -1.20437 -1.45007 0
M  V30 118 C 13.5249 -2.44872 -2.33999 0
M  V30 119 C 12.5709 -3.66535 -2.18069 0
M  V30 120 S 13.4039 -5.14095 -1.4989 0
M  V30 121 C 14.5599 -5.57835 -2.8385 0
M  V30 122 H 14.7929 -2.90849 -0.615961 0
M  V30 123 H 12.3259 -1.53063 -0.202752 0
M  V30 124 H 14.2839 -2.68852 -3.10208 0
M  V30 125 H 12.9449 -1.58815 -2.70992 0
M  V30 126 H 12.1379 -3.92626 -3.16008 0
M  V30 127 H 11.7399 -3.426 -1.50004 0
M  V30 128 H 14.0319 -5.60806 -3.80136 0
M  V30 129 H 14.9749 -6.57667 -2.62449 0
M  V30 130 H 15.3829 -4.85421 -2.88144 0
M  V30 131 N 14.781 0.264519 -1.55364 0
M  V30 132 C 16.192 0.834936 -1.6699 0
M  V30 133 C 16.543 1.86718 -0.602552 0
M  V30 134 O 15.668 2.14899 0.254425 0
M  V30 135 C 16.263 1.5212 -3.02729 0
M  V30 136 C 14.822 2.03954 -3.16354 0
M  V30 137 C 13.969 0.884498 -2.62815 0
M  V30 138 H 16.92 0.0406869 -1.58648 0
M  V30 139 H 16.941 2.38853 -2.96191 0
M  V30 140 H 16.453 0.769668 -3.80392 0
M  V30 141 H 14.554 2.82041 -2.43482 0
M  V30 142 H 14.667 2.24902 -4.23032 0
M  V30 143 H 13.031 1.2802 -2.20188 0
M  V30 144 H 13.814 0.14634 -3.42988 0
M  V30 145 N 16.2591 1.48442 0.529413 0
M  V30 146 C 17.2061 1.63007 1.63394 0
M  V30 147 C 18.1761 0.47212 1.59249 0
M  V30 148 O 19.3611 0.695673 1.77666 0
M  V30 149 C 16.5011 1.6763 3.01653 0
M  V30 150 C 15.6141 2.94535 3.16027 0
M  V30 151 C 14.7491 2.90316 4.44849 0
M  V30 152 C 13.7881 4.11923 4.52754 0
M  V30 153 N 12.9251 4.05777 5.72965 0
M  V30 154 H 17.7651 2.5733 1.50285 0
M  V30 155 H 15.3021 1.27613 0.731656 0
M  V30 156 H 17.2601 1.68292 3.81751 0
M  V30 157 H 15.8901 0.76797 3.13532 0
M  V30 158 H 14.9421 3.03615 2.29177 0
M  V30 159 H 16.2541 3.84512 3.17729 0
M  V30 160 H 15.4081 2.89382 5.33238 0
M  V30 161 H 14.1471 1.98068 4.45668 0
M  V30 162 H 13.1521 4.13131 3.62771 0
M  V30 163 H 14.3771 5.0533 4.53672 0
M  V30 164 H 12.3231 3.16351 5.74681 0
M  V30 165 H 12.2401 4.8946 5.76164 0
M  V30 166 H 13.5081 4.08904 6.6364 0
M  V30 167 N 17.7372 -0.778329 1.37039 0
M  V30 168 C 18.6692 -1.90034 1.2814 0
M  V30 169 C 19.6822 -1.61585 0.198558 0
M  V30 170 O 20.8712 -1.72625 0.454175 0
M  V30 171 C 17.9712 -3.25108 0.956968 0
M  V30 172 C 17.1442 -3.81253 2.14394 0
M  V30 173 C 16.2032 -4.94789 1.79082 0
M  V30 174 O 15.2292 -5.10721 2.51301 0
M  V30 175 N 16.4312 -5.75878 0.731043 0
M  V30 176 H 19.1962 -1.98186 2.24816 0
M  V30 177 H 16.7572 -0.957129 1.30578 0
M  V30 178 H 18.7492 -3.9857 0.701701 0
M  V30 179 H 17.3192 -3.125 0.0789812 0
M  V30 180 H 16.5392 -2.99647 2.56135 0
M  V30 181 H 17.8272 -4.15495 2.93668 0
M  V30 182 H 17.2252 -5.65547 0.131618 0
M  V30 183 H 15.7822 -6.49596 0.535622 0
M  V30 184 N 19.2153 -1.21501 -1.00376 0
M  V30 185 C 20.4613 -1.03452 -1.74429 0
M  V30 186 C 20.7943 0.430764 -1.89362 0
M  V30 187 O 20.0693 1.31962 -1.42886 0
M  V30 188 C 20.3523 -1.73375 -3.15615 0
M  V30 189 C 20.2053 -3.27431 -3.08397 0
M  V30 190 C 21.5243 -1.47732 -4.14564 0
M  V30 191 H 18.6433 -0.377226 -0.633143 0
M  V30 192 H 21.2853 -1.49693 -1.17013 0
M  V30 193 H 19.4353 -1.34064 -3.64636 0
M  V30 194 H 21.1073 -3.76119 -2.67081 0
M  V30 195 H 19.3503 -3.5767 -2.45468 0
M  V30 196 H 20.0213 -3.71524 -4.08258 0
M  V30 197 H 22.4973 -1.8186 -3.74254 0
M  V30 198 H 21.3733 -1.99169 -5.11491 0
M  V30 199 H 21.6343 -0.407589 -4.40217 0
M  V30 200 N 20.6934 1.19889 -1.02296 0
M  V30 201 C 21.6034 2.26571 -0.608508 0
M  V30 202 C 22.6194 1.70299 0.356964 0
M  V30 203 O 23.7954 2.00235 0.216326 0
M  V30 204 C 20.8604 3.46677 0.0402814 0
M  V30 205 C 19.9214 4.18153 -0.97194 0
M  V30 206 C 19.1544 5.32525 -0.354016 0
M  V30 207 O 19.3774 5.64112 0.844604 0
M  V30 208 O 18.3114 5.92242 -1.07391 0
M  V30 209 H 22.1374 2.64251 -1.49684 0
M  V30 210 H 19.7224 1.26629 -0.792809 0
M  V30 211 H 21.6044 4.19475 0.402324 0
M  V30 212 H 20.2794 3.10858 0.902707 0
M  V30 213 H 19.1864 3.47499 -1.38546 0
M  V30 214 H 20.5194 4.57927 -1.80454 0
M  V30 215 N 22.1715 0.800033 1.35784 0
M  V30 216 C 23.4175 0.377901 1.99248 0
M  V30 217 C 23.7505 -1.05052 1.63333 0
M  V30 218 O 23.0255 -1.72768 0.893385 0
M  V30 219 C 23.3085 0.553922 3.55814 0
M  V30 220 C 23.1615 2.0268 4.01548 0
M  V30 221 C 24.4805 -0.0244802 4.40093 0
M  V30 222 H 21.5995 0.138782 0.723815 0
M  V30 223 H 24.2415 1.00835 1.61035 0
M  V30 224 H 22.3915 0.0172398 3.88496 0
M  V30 225 H 24.0635 2.62536 3.79305 0
M  V30 226 H 22.3065 2.5256 3.52698 0
M  V30 227 H 22.9775 2.10087 5.10458 0
M  V30 228 H 25.4535 0.433775 4.13833 0
M  V30 229 H 24.3295 0.128637 5.48749 0
M  V30 230 H 24.5905 -1.11758 4.27741 0
M  V30 231 N 23.6496 -1.47581 0.552962 0
M  V30 232 C 25.0656 -1.5818 0.212424 0
M  V30 233 C 25.2656 -1.55213 -1.28496 0
M  V30 234 O 24.3216 -1.45329 -2.06484 0
M  V30 235 C 25.6346 -2.88865 0.835318 0
M  V30 236 C 27.1826 -3.0244 0.806156 0
M  V30 237 C 27.6576 -4.35819 1.40804 0
M  V30 238 N 29.1486 -4.42444 1.37103 0
M  V30 239 C 29.8836 -5.44202 1.80641 0
M  V30 240 N 29.3796 -6.52795 2.32015 0
M  V30 241 N 31.1726 -5.35222 1.71738 0
M  V30 242 H 23.3236 -1.47753 1.52587 0
M  V30 243 H 25.5866 -0.702941 0.636064 0
M  V30 244 H 25.2926 -2.9676 1.88749 0
M  V30 245 H 25.1666 -3.7579 0.325848 0
M  V30 246 H 27.5536 -2.94144 -0.237317 0
M  V30 247 H 27.6346 -2.17068 1.35334 0
M  V30 248 H 27.2786 -4.44871 2.45056 0
M  V30 249 H 27.2086 -5.19916 0.836338 0
M  V30 250 H 29.6996 -3.6456 0.995202 0
M  V30 251 H 30.0126 -7.26609 2.63171 0
M  V30 252 H 28.3576 -6.53696 2.36023 0
M  V30 253 H 31.5486 -4.49284 1.31382 0
M  V30 254 H 31.7216 -6.14389 2.05987 0
M  V30 255 N 25.1277 -0.289203 -1.54924 0
M  V30 256 C 26.0607 0.633823 -2.19221 0
M  V30 257 C 27.0387 1.14174 -1.15772 0
M  V30 258 O 28.2227 1.21211 -1.44361 0
M  V30 259 C 25.3497 1.86592 -2.82668 0
M  V30 260 C 24.3957 1.49227 -3.99542 0
M  V30 261 S 25.2287 0.558312 -5.32582 0
M  V30 262 C 26.3847 1.79847 -5.99505 0
M  V30 263 H 26.6177 0.0875416 -2.97171 0
M  V30 264 H 24.1507 -0.0733899 -1.54225 0
M  V30 265 H 26.1087 2.57305 -3.19851 0
M  V30 266 H 24.7697 2.38335 -2.04585 0
M  V30 267 H 23.9627 2.40945 -4.42676 0
M  V30 268 H 23.5647 0.865193 -3.63855 0
M  V30 269 H 25.8567 2.7406 -6.19595 0
M  V30 270 H 26.7997 1.4099 -6.93922 0
M  V30 271 H 27.2077 1.96982 -5.29016 0
M  V30 272 N 26.6058 1.57591 -0.0167156 0
M  V30 273 C 27.5558 2.05953 0.978137 0
M  V30 274 C 28.5398 0.957532 1.29306 0
M  V30 275 O 29.7318 1.22119 1.28125 0
M  V30 276 C 26.8608 2.58006 2.26468 0
M  V30 277 C 25.9468 3.75113 1.97867 0
M  V30 278 N 26.3378 4.86187 1.39486 0
M  V30 279 C 24.6358 3.83363 2.27924 0
M  V30 280 C 25.3368 5.67502 1.27735 0
M  V30 281 N 24.3128 5.14023 1.76866 0
M  V30 282 H 28.1148 2.89236 0.521522 0
M  V30 283 H 25.6288 1.61301 0.188596 0
M  V30 284 H 27.6258 2.90937 2.98599 0
M  V30 285 H 26.2858 1.76148 2.72767 0
M  V30 286 H 27.2968 5.06695 1.07147 0
M  V30 287 H 23.9738 3.1239 2.76982 0
M  V30 288 H 25.3638 6.66791 0.826978 0
M  V30 289 N 28.0839 -0.256276 1.55502 0
M  V30 290 C 29.3609 -1.00789 1.67633 0
M  V30 291 C 29.7409 -2.03706 0.553826 0
M  V30 292 O 29.0889 -2.24145 -0.443969 0
M  V30 293 C 29.2989 -1.64968 3.07549 0
M  V30 294 C 30.6469 -2.15505 3.65845 0
M  V30 295 O 31.6709 -1.74925 3.1029 0
M  V30 296 O 30.5299 -2.89986 4.63217 0
M  V30 297 H 27.6239 -0.468553 0.681459 0
M  V30 298 H 30.1699 -0.250806 1.67836 0
M  V30 299 H 28.9419 -0.904785 3.80696 0
M  V30 300 H 28.5649 -2.47321 3.11317 0
M  V30 301 N 29.562 -1.4872 -0.521534 0
M  V30 302 C 30.787 -1.61101 -1.30618 0
M  V30 303 C 31.212 -0.274611 -1.86085 0
M  V30 304 O 30.57 0.754937 -1.64834 0
M  V30 305 C 30.618 -2.66709 -2.4269 0
M  V30 306 O 29.722 -2.24456 -3.45967 0
M  V30 307 H 29.063 -0.539921 -0.386499 0
M  V30 308 H 31.593 -1.94767 -0.626645 0
M  V30 309 H 31.603 -2.88245 -2.88754 0
M  V30 310 H 30.278 -3.63727 -2.01682 0
M  V30 311 H 28.855 -2.13168 -3.05964 0
M  V30 312 N 31.0401 0.771051 -1.3745 0
M  V30 313 C 31.9901 1.87456 -1.29785 0
M  V30 314 C 32.9741 1.59827 -0.185541 0
M  V30 315 O 34.1661 1.71945 -0.419997 0
M  V30 316 C 31.2951 3.24935 -1.1078 0
M  V30 317 C 30.3811 3.58514 -2.26558 0
M  V30 318 N 30.7721 3.6327 -3.5195 0
M  V30 319 C 29.0701 3.88683 -2.18727 0
M  V30 320 C 29.7711 3.93616 -4.283 0
M  V30 321 N 28.7471 4.09551 -3.57448 0
M  V30 322 H 32.5491 1.89386 -2.24745 0
M  V30 323 H 30.0631 0.967531 -1.30432 0
M  V30 324 H 32.0601 4.03881 -1.03374 0
M  V30 325 H 30.7201 3.24268 -0.16738 0
M  V30 326 H 31.7311 3.45458 -3.85848 0
M  V30 327 H 28.4081 3.95834 -1.32746 0
M  V30 328 H 29.7981 4.04066 -5.36824 0
M  V30 329 N 32.5182 1.22032 0.997298 0
M  V30 330 C 33.4482 1.01065 2.10495 0
M  V30 331 C 34.4292 -0.0669542 1.69968 0
M  V30 332 O 35.6142 0.0943987 1.9397 0
M  V30 333 C 32.7442 0.582874 3.42374 0
M  V30 334 C 31.6982 1.60592 3.96729 0
M  V30 335 C 31.0242 1.03412 5.24605 0
M  V30 336 C 32.3242 2.99478 4.27914 0
M  V30 337 H 34.0182 1.93708 2.28292 0
M  V30 338 H 31.5642 0.932761 1.09707 0
M  V30 339 H 33.5172 0.423332 4.19268 0
M  V30 340 H 32.2412 -0.379213 3.24391 0
M  V30 341 H 30.9002 1.75316 3.21963 0
M  V30 342 H 30.5482 0.063518 5.0296 0
M  V30 343 H 30.2482 1.71754 5.61938 0
M  V30 344 H 31.7722 0.886066 6.04137 0
M  V30 345 H 33.1862 2.88153 4.95622 0
M  V30 346 H 31.5832 3.64903 4.76409 0
M  V30 347 H 32.6532 3.49742 3.3587 0
M  V30 348 N 33.9963 -1.19345 1.0293 0
M  V30 349 C 35.2443 -1.88665 0.724574 0
M  V30 350 C 35.5653 -1.80036 -0.749144 0
M  V30 351 O 34.8353 -1.2111 -1.53978 0
M  V30 352 H 33.4153 -0.698406 0.265025 0
M  V30 353 H 36.0773 -1.44885 1.30362 0
M  V30 354 H 35.1733 -2.94987 1.01926 0
M  V30 355 N 35.4744 -0.807222 -1.35358 0
M  V30 356 C 36.6994 -0.399309 -2.0352 0
M  V30 357 C 37.1244 0.981986 -1.60433 0
M  V30 358 O 36.4824 1.63601 -0.781299 0
M  V30 359 C 36.5304 -0.491552 -3.57234 0
M  V30 360 O 35.6344 0.494754 -4.09421 0
M  V30 361 H 34.9754 -0.166682 -0.642739 0
M  V30 362 H 37.5054 -1.09328 -1.72941 0
M  V30 363 H 37.5154 -0.361588 -4.06395 0
M  V30 364 H 36.1904 -1.49907 -3.87944 0
M  V30 365 H 34.7674 0.324977 -3.71481 0
M  V30 366 N 36.9525 1.47285 -0.560781 0
M  V30 367 C 37.8625 2.33846 0.187954 0
M  V30 368 C 38.8785 1.48412 0.908293 0
M  V30 369 O 40.0545 1.81332 0.876388 0
M  V30 370 C 37.1195 3.25178 1.2025 0
M  V30 371 C 36.1805 4.26504 0.489208 0
M  V30 372 C 35.4135 5.13472 1.45542 0
M  V30 373 O 35.6365 5.02959 2.6905 0
M  V30 374 O 34.5705 5.93902 0.977963 0
M  V30 375 H 38.3965 2.99177 -0.522177 0
M  V30 376 H 35.9815 1.45903 -0.321364 0
M  V30 377 H 37.8635 3.81584 1.78805 0
M  V30 378 H 36.5385 2.6247 1.89449 0
M  V30 379 H 35.4455 3.73847 -0.137627 0
M  V30 380 H 36.7785 4.91935 -0.161399 0
M  V30 381 N 38.4306 0.297415 1.54768 0
M  V30 382 C 39.3406 -0.58983 2.27064 0
M  V30 383 C 40.3566 -1.15144 1.30453 0
M  V30 384 O 41.5326 -1.17699 1.63428 0
M  V30 385 C 38.5976 -1.74714 2.9946 0
M  V30 386 C 37.6586 -1.21997 4.11601 0
M  V30 387 C 36.8916 -2.32212 4.80535 0
M  V30 388 O 37.1146 -3.52036 4.48806 0
M  V30 389 O 36.0486 -1.99106 5.68014 0
M  V30 390 H 39.8746 -0.00348199 3.037 0
M  V30 391 H 37.4596 0.0640035 1.49263 0
M  V30 392 H 39.3416 -2.42147 3.44881 0
M  V30 393 H 38.0166 -2.32016 2.25722 0
M  V30 394 H 36.9236 -0.511458 3.70587 0
M  V30 395 H 38.2566 -0.692419 4.87305 0
M  V30 396 N 39.9087 -1.5758 0.0250728 0
M  V30 397 C 41.3197 -1.79476 -0.514323 0
M  V30 398 C 41.6707 -0.934956 -1.72491 0
M  V30 399 O 40.7957 -0.144245 -2.15919 0
M  V30 400 C 41.3907 -3.25503 -0.939842 0
M  V30 401 C 39.9497 -3.48408 -1.42438 0
M  V30 402 C 39.0967 -2.74583 -0.387201 0
M  V30 403 H 42.0477 -1.567 0.25113 0
M  V30 404 H 42.0687 -3.34992 -1.80445 0
M  V30 405 H 41.5807 -3.88056 -0.0585628 0
M  V30 406 H 39.6817 -2.91103 -2.32572 0
M  V30 407 H 39.7947 -4.57119 -1.43455 0
M  V30 408 H 38.1587 -2.39942 -0.854409 0
M  V30 409 H 38.9417 -3.39849 0.485543 0
M  V30 410 N 41.3868 0.248026 -1.55636 0
M  V30 411 C 42.3338 1.30707 -1.90222 0
M  V30 412 C 43.3038 1.47881 -0.756332 0
M  V30 413 O 44.4888 1.61883 -1.00988 0
M  V30 414 C 41.6288 2.65769 -2.20138 0
M  V30 415 C 40.7418 2.56612 -3.47526 0
M  V30 416 C 39.8768 3.8402 -3.67017 0
M  V30 417 C 38.9158 3.69476 -4.8801 0
M  V30 418 N 38.0528 4.88774 -5.04029 0
M  V30 419 H 42.8928 1.00512 -2.80538 0
M  V30 420 H 40.4298 0.485055 -1.38873 0
M  V30 421 H 42.3878 3.44386 -2.35487 0
M  V30 422 H 41.0178 2.94115 -1.33027 0
M  V30 423 H 40.0698 1.69571 -3.40514 0
M  V30 424 H 41.3818 2.41774 -4.36287 0
M  V30 425 H 40.5358 4.7108 -3.8232 0
M  V30 426 H 39.2748 4.01754 -2.76487 0
M  V30 427 H 38.2798 2.80799 -4.72686 0
M  V30 428 H 39.5048 3.53238 -5.8 0
M  V30 429 H 37.4508 5.0687 -4.16435 0
M  V30 430 H 37.3678 4.76562 -5.86877 0
M  V30 431 H 38.6358 5.77335 -5.23741 0
M  V30 432 N 42.8649 1.48995 0.513639 0
M  V30 433 C 43.8149 1.61127 1.61314 0
M  V30 434 C 44.7989 0.467521 1.53958 0
M  V30 435 O 45.9909 0.719826 1.61702 0
M  V30 436 C 43.1199 1.66937 2.99978 0
M  V30 437 C 42.2059 2.86847 3.12377 0
M  V30 438 N 42.5969 4.11078 2.94701 0
M  V30 439 C 40.8949 2.84521 3.43459 0
M  V30 440 C 41.5959 4.91615 3.10949 0
M  V30 441 N 40.5719 4.24739 3.3926 0
M  V30 442 H 44.3739 2.54909 1.46282 0
M  V30 443 H 41.8879 1.45593 0.719483 0
M  V30 444 H 43.8849 1.73725 3.78979 0
M  V30 445 H 42.5449 0.742831 3.16089 0
M  V30 446 H 43.5559 4.41258 2.71131 0
M  V30 447 H 40.2329 2.01192 3.65825 0
M  V30 448 H 41.6229 6.00264 3.01882 0
M  V30 449 N 44.343 -0.763751 1.37857 0
M  V30 450 C 45.759 -1.06542 1.18832 0
M  V30 451 C 45.959 -2.01478 0.0299722 0
M  V30 452 O 45.015 -2.4458 -0.627447 0
M  V30 453 C 46.328 -1.65525 2.51042 0
M  V30 454 C 47.876 -1.77745 2.57635 0
M  V30 455 C 48.351 -2.4014 3.89996 0
M  V30 456 N 49.842 -2.47582 3.91481 0
M  V30 457 C 50.577 -2.96732 4.9065 0
M  V30 458 N 50.073 -3.45993 6.00217 0
M  V30 459 N 51.866 -2.95679 4.78048 0
M  V30 460 H 44.017 -0.133556 2.1198 0
M  V30 461 H 46.28 -0.121879 0.940133 0
M  V30 462 H 45.986 -1.03236 3.36207 0
M  V30 463 H 45.86 -2.64719 2.68707 0
M  V30 464 H 48.247 -2.39164 1.72872 0
M  V30 465 H 48.328 -0.772836 2.43846 0
M  V30 466 H 47.972 -1.79358 4.75177 0
M  V30 467 H 47.902 -3.41223 4.01092 0
M  V30 468 H 50.393 -2.1273 3.12337 0
M  V30 469 H 50.706 -3.81922 6.7183 0
M  V30 470 H 49.051 -3.44077 6.03851 0
M  V30 471 H 52.242 -2.56499 3.91568 0
M  V30 472 H 52.415 -3.33672 5.55488 0
M  V30 473 N 45.8211 -1.22559 -0.990812 0
M  V30 474 C 46.7711 -0.964807 -2.0658 0
M  V30 475 C 47.7551 0.0853472 -1.60673 0
M  V30 476 O 48.9471 -0.125443 -1.76555 0
M  V30 477 C 46.0761 -0.546707 -3.38919 0
M  V30 478 C 45.1621 -1.6317 -3.91454 0
M  V30 479 N 45.5531 -2.85985 -4.17189 0
M  V30 480 C 43.8511 -1.50387 -4.19881 0
M  V30 481 C 44.5521 -3.56159 -4.59919 0
M  V30 482 N 43.5281 -2.83637 -4.63736 0
M  V30 483 H 47.3301 -1.89769 -2.24421 0
M  V30 484 H 44.8441 -1.12343 -1.17273 0
M  V30 485 H 46.8411 -0.34119 -4.15502 0
M  V30 486 H 45.5011 0.379254 -3.22478 0
M  V30 487 H 46.5121 -3.22392 -4.05319 0
M  V30 488 H 43.1891 -0.644254 -4.12499 0
M  V30 489 H 44.5791 -4.6139 -4.88435 0
M  V30 490 N 47.2992 1.18797 -1.03562 0
M  V30 491 C 48.2292 2.24472 -0.643019 0
M  V30 492 C 49.2102 1.66433 0.351283 0
M  V30 493 O 50.3952 1.92803 0.232505 0
M  V30 494 C 47.5252 3.473 4.24935e-05 0
M  V30 495 C 46.4792 4.18055 -0.917257 0
M  V30 496 C 45.8052 5.34519 -0.138941 0
M  V30 497 C 47.1052 4.72109 -2.23407 0
M  V30 498 H 48.7992 2.57566 -1.52643 0
M  V30 499 H 46.3452 1.23806 -0.735394 0
M  V30 500 H 48.2982 4.20426 0.286383 0
M  V30 501 H 47.0222 3.13424 0.918299 0
M  V30 502 H 45.6812 3.46821 -1.1879 0
M  V30 503 H 45.3292 4.96891 0.781562 0
M  V30 504 H 45.0292 5.82794 -0.750005 0
M  V30 505 H 46.5532 6.10438 0.1405 0
M  V30 506 H 47.9672 5.36955 -2.00879 0
M  V30 507 H 46.3642 5.30897 -2.79765 0
M  V30 508 H 47.4342 3.89807 -2.88407 0
M  V30 509 N 48.7773 0.814389 1.34928 0
M  V30 510 C 50.0253 0.397636 1.9815 0
M  V30 511 C 50.3463 -1.04069 1.64908 0
M  V30 512 O 49.6163 -1.72121 0.93548 0
M  V30 513 H 48.1963 0.144043 0.732981 0
M  V30 514 H 50.8583 1.04195 1.6471 0
M  V30 515 H 49.9543 0.509688 3.0791 0
M  V30 516 N 50.2554 -1.46986 0.568584 0
M  V30 517 C 51.1854 -2.32946 -0.160753 0
M  V30 518 C 52.1664 -1.44487 -0.897631 0
M  V30 519 O 53.3514 -1.73327 -0.875867 0
M  V30 520 C 50.4814 -3.26494 -1.18403 0
M  V30 521 C 49.4354 -4.24282 -0.562895 0
M  V30 522 C 48.7614 -5.07236 -1.69163 0
M  V30 523 C 50.0614 -5.19989 0.490761 0
M  V30 524 H 51.7554 -2.94175 0.556916 0
M  V30 525 H 49.3014 -1.4146 0.26927 0
M  V30 526 H 51.2544 -3.85477 -1.70251 0
M  V30 527 H 49.9784 -2.63343 -1.93179 0
M  V30 528 H 48.6374 -3.66541 -0.0656164 0
M  V30 529 H 48.2854 -4.4048 -2.42871 0
M  V30 530 H 47.9854 -5.7345 -1.28174 0
M  V30 531 H 49.5094 -5.6908 -2.21314 0
M  V30 532 H 50.9234 -5.73271 0.0579047 0
M  V30 533 H 49.3204 -5.94469 0.820165 0
M  V30 534 H 50.3904 -4.64777 1.3824 0
M  V30 535 N 51.7335 -0.305618 -1.54608 0
M  V30 536 C 53.1495 0.0476228 -1.59529 0
M  V30 537 C 53.3495 1.52025 -1.32252 0
M  V30 538 O 52.4055 2.27368 -1.09818 0
M  V30 539 C 53.7185 -0.354471 -2.98603 0
M  V30 540 C 55.2665 -0.303622 -3.11524 0
M  V30 541 C 55.7415 -0.680608 -4.52915 0
M  V30 542 N 57.2325 -0.63332 -4.5885 0
M  V30 543 C 57.9675 -0.897432 -5.66334 0
M  V30 544 N 57.4635 -1.22775 -6.81834 0
M  V30 545 N 59.2565 -0.824186 -5.56025 0
M  V30 546 H 51.4075 -1.2653 -1.70599 0
M  V30 547 H 53.6705 -0.513291 -0.797017 0
M  V30 548 H 53.3765 -1.3798 -3.23503 0
M  V30 549 H 53.2505 0.289568 -3.76087 0
M  V30 550 H 55.6375 0.712472 -2.8637 0
M  V30 551 H 55.7185 -0.982348 -2.36185 0
M  V30 552 H 55.3625 -1.69453 -4.78799 0
M  V30 553 H 55.2925 0.0202385 -5.26596 0
M  V30 554 H 57.7835 -0.389138 -3.75891 0
M  V30 555 H 58.0965 -1.41513 -7.59733 0
M  V30 556 H 56.4415 -1.26583 -6.83375 0
M  V30 557 H 59.6325 -0.565748 -4.64669 0
M  V30 558 H 59.8055 -1.03338 -6.39707 0
M  V30 559 N 53.2116 1.57565 -0.0334293 0
M  V30 560 C 54.1416 2.13511 0.945265 0
M  V30 561 C 55.1226 1.05231 1.33643 0
M  V30 562 O 56.3076 1.33084 1.41429 0
M  V30 563 C 53.4376 2.6657 2.22616 0
M  V30 564 C 52.3916 3.79676 1.97561 0
M  V30 565 C 51.7176 4.1918 3.31952 0
M  V30 566 C 53.0176 5.0557 1.31135 0
M  V30 567 H 54.7116 2.95538 0.479325 0
M  V30 568 H 52.2576 1.42166 0.229115 0
M  V30 569 H 54.2106 3.04344 2.91466 0
M  V30 570 H 52.9346 1.8171 2.71384 0
M  V30 571 H 51.5936 3.42347 1.31127 0
M  V30 572 H 51.2416 3.31296 3.78487 0
M  V30 573 H 50.9416 4.95402 3.15992 0
M  V30 574 H 52.4656 4.59541 4.02063 0
M  V30 575 H 53.8796 5.40903 1.89992 0
M  V30 576 H 52.2766 5.86818 1.25559 0
M  V30 577 H 53.3466 4.84062 0.284894 0
M  V30 578 N 54.6897 -0.239769 1.55765 0
M  V30 579 C 55.9297 -0.974076 1.79697 0
M  V30 580 C 56.2937 -1.82249 0.604088 0
M  V30 581 O 57.4947 -2.58913 0.722324 0
M  V30 582 C 55.7657 -1.80595 3.08416 0
M  V30 583 S 57.3247 -2.59838 3.53596 0
M  V30 584 H 54.1427 -0.327524 0.63107 0
M  V30 585 H 56.7447 -0.241277 1.94005 0
M  V30 586 H 55.4487 -1.17249 3.93295 0
M  V30 587 H 54.9797 -2.58137 2.96865 0
M  V30 588 H 56.9947 -3.82987 3.15492 0
M  V30 589 N 56.1678 -1.49265 -0.50573 0
M  V30 590 C 57.4448 -1.49012 -1.26707 0
M  V30 591 C 57.8248 -0.215205 -2.1 0
M  V30 592 O 57.1728 0.802547 -2.13943 0
M  V30 593 C 57.3828 -2.7663 -2.12783 0
M  V30 594 C 58.7308 -3.25932 -2.72127 0
M  V30 595 O 59.7548 -2.77715 -2.23054 0
M  V30 596 O 58.6138 -4.09897 -3.61451 0
M  V30 597 H 55.7078 -0.596197 -0.57313 0
M  V30 598 H 58.2538 -1.61524 -0.52039 0
M  V30 599 H 57.0258 -3.60916 -1.5118 0
M  V30 600 H 56.6488 -2.66956 -2.94653 0
M  V30 601 N 57.6459 0.756429 -1.3826 0
M  V30 602 C 58.5929 1.87011 -1.35261 0
M  V30 603 C 59.5629 1.64695 -0.215616 0
M  V30 604 O 60.7479 1.864 -0.407399 0
M  V30 605 C 57.8879 3.24275 -1.18068 0
M  V30 606 C 57.0009 3.58442 -2.41129 0
M  V30 607 C 56.1359 4.84994 -2.16689 0
M  V30 608 C 55.1749 5.11939 -3.35537 0
M  V30 609 N 54.3119 6.29685 -3.10549 0
M  V30 610 H 59.1519 1.8891 -2.30472 0
M  V30 611 H 56.6889 0.923373 -1.14509 0
M  V30 612 H 58.6469 4.03479 -1.06116 0
M  V30 613 H 57.2769 3.21711 -0.264973 0
M  V30 614 H 56.3289 2.74103 -2.63764 0
M  V30 615 H 57.6409 3.74283 -3.29717 0
M  V30 616 H 56.7949 5.72135 -2.01857 0
M  V30 617 H 55.5339 4.71286 -1.25462 0
M  V30 618 H 54.5389 4.23268 -3.50891 0
M  V30 619 H 55.7639 5.27546 -4.27635 0
M  V30 620 H 53.7099 6.17306 -2.21967 0
M  V30 621 H 53.6269 6.46014 -3.92686 0
M  V30 622 H 54.8949 7.19722 -2.99367 0
M  V30 623 N 59.124 1.23083 0.984299 0
M  V30 624 C 60.054 1.03292 2.09411 0
M  V30 625 C 61.035 -0.048923 1.7003 0
M  V30 626 O 62.22 0.114967 1.93859 0
M  V30 627 C 59.35 0.619155 3.41736 0
M  V30 628 C 58.304 1.64791 3.95004 0
M  V30 629 C 57.63 1.0897 5.23478 0
M  V30 630 C 58.93 3.03999 4.24714 0
M  V30 631 H 60.624 1.96119 2.26225 0
M  V30 632 H 58.17 0.944344 1.08711 0
M  V30 633 H 60.123 0.467777 4.18796 0
M  V30 634 H 58.847 -0.344786 3.24775 0
M  V30 635 H 57.506 1.78721 3.20085 0
M  V30 636 H 57.154 0.11686 5.02864 0
M  V30 637 H 56.854 1.77704 5.60085 0
M  V30 638 H 58.378 0.950093 6.03163 0
M  V30 639 H 59.792 2.93393 4.92538 0
M  V30 640 H 58.189 3.69936 4.72512 0
M  V30 641 H 59.259 3.53285 3.32142 0
M  V30 642 N 60.6021 -1.18246 1.0419 0
M  V30 643 C 61.8501 -1.87886 0.744543 0
M  V30 644 C 62.1711 -1.8082 -0.730006 0
M  V30 645 O 61.4411 -1.22736 -1.52685 0
M  V30 646 H 60.0211 -0.695556 0.272417 0
M  V30 647 H 62.6831 -1.43494 1.31892 0
M  V30 648 H 61.7791 -2.9389 1.05049 0
M  V30 649 N 62.0802 -0.821533 -1.34494 0
M  V30 650 C 63.0272 -0.240397 -2.29545 0
M  V30 651 C 63.9972 0.634031 -1.53523 0
M  V30 652 O 65.1822 0.575966 -1.81899 0
M  V30 653 C 62.3222 0.592869 -3.39969 0
M  V30 654 C 61.4352 -0.30365 -4.30932 0
M  V30 655 C 60.5702 0.539049 -5.28458 0
M  V30 656 C 59.6092 -0.356942 -6.11058 0
M  V30 657 N 58.7462 0.446603 -7.00678 0
M  V30 658 H 63.5862 -1.05632 -2.7865 0
M  V30 659 H 61.1232 -0.532413 -1.37127 0
M  V30 660 H 63.0812 1.09129 -4.02675 0
M  V30 661 H 61.7112 1.37392 -2.92102 0
M  V30 662 H 60.7632 -0.920276 -3.691 0
M  V30 663 H 62.0752 -0.992661 -4.88823 0
M  V30 664 H 61.2292 1.102 -5.96608 0
M  V30 665 H 59.9682 1.26157 -4.71101 0
M  V30 666 H 58.9732 -0.932047 -5.41842 0
M  V30 667 H 60.1982 -1.07755 -6.70497 0
M  V30 668 H 58.1442 1.15282 -6.45791 0
M  V30 669 H 58.0612 -0.184048 -7.55776 0
M  V30 670 H 59.3292 0.992352 -7.73158 0
M  V30 671 N 63.5583 1.46682 -0.576371 0
M  V30 672 C 64.5063 2.31953 0.17335 0
M  V30 673 C 65.5003 1.44098 0.89062 0
M  V30 674 O 66.7063 1.60759 0.809728 0
M  V30 675 H 63.0813 0.748273 0.0747727 0
M  V30 676 H 65.0523 2.93007 -0.564738 0
M  V30 677 C 63.8013 3.27142 1.17786 0
M  V30 678 H 63.1243 3.94719 0.635361 0
M  V30 679 H 64.5643 3.896 1.67296 0
M  V30 680 C 63.0233 2.52036 2.23561 0
M  V30 681 O 63.5533 2.27877 3.3081 0
M  V30 682 N 61.7593 2.12709 1.97998 0
M  V30 683 H 61.3063 2.32557 1.10792 0
M  V30 684 H 61.2643 1.62776 2.68982 0
M  V30 685 N 65.0364 0.313813 1.54444 0
M  V30 686 C 65.9664 -0.549454 2.26943 0
M  V30 687 C 66.9474 -1.12741 1.27372 0
M  V30 688 O 68.1324 -1.15436 1.56167 0
M  V30 689 C 65.2624 -1.71523 3.01989 0
M  V30 690 C 64.2164 -1.26703 4.08816 0
M  V30 691 C 63.5424 -2.51898 4.71647 0
M  V30 692 C 64.8424 -0.388962 5.2085 0
M  V30 693 H 66.5364 0.0552661 2.99349 0
M  V30 694 H 64.0824 0.0280207 1.43973 0
M  V30 695 H 66.0354 -2.32535 3.51433 0
M  V30 696 H 64.7594 -2.34639 2.27183 0
M  V30 697 H 63.4184 -0.679896 3.6024 0
M  V30 698 H 63.0664 -3.13356 3.93468 0
M  V30 699 H 62.7664 -2.22605 5.43802 0
M  V30 700 H 64.2904 -3.1369 5.23861 0
M  V30 701 H 65.7044 -0.905107 5.6611 0
M  V30 702 H 64.1014 -0.18924 5.99802 0
M  V30 703 H 65.1714 0.582699 4.81386 0
M  V30 704 N 66.5145 -1.57545 0.0417849 0
M  V30 705 C 67.4445 -2.14009 -0.933929 0
M  V30 706 C 68.4255 -1.05938 -1.33083 0
M  V30 707 O 69.6105 -1.33833 -1.40721 0
M  V30 708 C 66.7405 -2.67747 -2.21199 0
M  V30 709 C 65.6945 -3.80718 -1.95544 0
M  V30 710 C 65.0205 -4.20935 -3.29724 0
M  V30 711 C 66.3205 -5.06258 -1.28452 0
M  V30 712 H 68.0145 -2.95788 -0.463645 0
M  V30 713 H 65.5605 -1.42285 -0.221573 0
M  V30 714 H 67.5135 -3.05886 -2.89848 0
M  V30 715 H 66.2375 -1.83147 -2.70416 0
M  V30 716 H 64.8965 -3.43037 -1.2931 0
M  V30 717 H 64.5445 -3.33298 -3.76724 0
M  V30 718 H 64.2445 -4.9707 -3.13361 0
M  V30 719 H 65.7685 -4.61666 -3.9962 0
M  V30 720 H 67.1825 -5.41903 -1.8712 0
M  V30 721 H 65.5795 -5.87475 -1.22445 0
M  V30 722 H 66.6495 -4.84207 -0.259219 0
M  V30 723 N 67.9926 0.231505 -1.5589 0
M  V30 724 C 68.9226 1.29022 -1.94617 0
M  V30 725 C 69.9036 1.4941 -0.813067 0
M  V30 726 O 71.0886 1.6176 -1.07459 0
M  V30 727 C 68.2186 2.64199 -2.25424 0
M  V30 728 C 67.1726 2.58484 -3.41131 0
M  V30 729 C 66.4986 3.97599 -3.57518 0
M  V30 730 C 67.7986 2.1413 -4.76388 0
M  V30 731 H 69.4926 0.968563 -2.83301 0
M  V30 732 H 67.0386 0.464479 -1.36303 0
M  V30 733 H 68.9916 3.38413 -2.51107 0
M  V30 734 H 67.7156 2.98032 -1.33583 0
M  V30 735 H 66.3746 1.86727 -3.15481 0
M  V30 736 H 66.0226 4.28723 -2.6307 0
M  V30 737 H 65.7226 3.94659 -4.35337 0
M  V30 738 H 67.2466 4.7349 -3.85538 0
M  V30 739 H 68.6606 2.78083 -5.01341 0
M  V30 740 H 67.0576 2.2227 -5.57419 0
M  V30 741 H 68.1276 1.09331 -4.72414 0
M  V30 742 N 69.4707 1.49531 0.497807 0
M  V30 743 C 70.6987 1.62893 1.27567 0
M  V30 744 C 71.1137 0.301585 1.86376 0
M  V30 745 O 70.4707 -0.713335 1.67982 0
M  V30 746 C 70.5217 2.70013 2.40364 0
M  V30 747 O 70.2427 3.976 1.83972 0
M  V30 748 C 71.7437 2.94109 3.31685 0
M  V30 749 H 68.9637 0.548298 0.386794 0
M  V30 750 H 71.5077 1.95584 0.597245 0
M  V30 751 H 69.6627 2.40092 3.04031 0
M  V30 752 H 70.0767 4.56631 2.58047 0
M  V30 753 H 71.5507 3.72788 4.07104 0
M  V30 754 H 72.0277 2.04147 3.88871 0
M  V30 755 H 72.6337 3.2546 2.73781 0
M  V30 756 N 70.9488 -0.749086 1.3866 0
M  V30 757 C 71.8788 -1.8764 1.38973 0
M  V30 758 C 72.8598 -1.68178 0.255004 0
M  V30 759 O 74.0448 -1.88704 0.458754 0
M  V30 760 C 71.1748 -3.25222 1.21851 0
M  V30 761 C 70.1288 -3.59295 2.32575 0
M  V30 762 C 69.4548 -4.95663 2.00555 0
M  V30 763 C 70.7548 -3.63709 3.7485 0
M  V30 764 H 72.4488 -1.87635 2.3331 0
M  V30 765 H 69.9948 -0.901329 1.12303 0
M  V30 766 H 71.9478 -4.03746 1.20695 0
M  V30 767 H 70.6718 -3.25719 0.239775 0
M  V30 768 H 69.3308 -2.83093 2.32925 0
M  V30 769 H 68.9788 -4.92724 1.01154 0
M  V30 770 H 68.6788 -5.19429 2.74714 0
M  V30 771 H 70.2028 -5.7656 2.01024 0
M  V30 772 H 71.6168 -4.32338 3.76506 0
M  V30 773 H 70.0138 -3.98986 4.48252 0
M  V30 774 H 71.0838 -2.63834 4.06841 0
M  V30 775 N 72.4269 -1.23603 -0.977757 0
M  V30 776 C 73.6549 -1.09646 -1.75458 0
M  V30 777 C 74.0699 0.351859 -1.85492 0
M  V30 778 O 73.4269 1.24327 -1.336 0
M  V30 779 C 73.4779 -1.71895 -3.18016 0
M  V30 780 O 73.1989 -3.11063 -3.08498 0
M  V30 781 C 74.6999 -1.63415 -4.12081 0
M  V30 782 H 71.9199 -0.38359 -0.550545 0
M  V30 783 H 74.4639 -1.63507 -1.22824 0
M  V30 784 H 72.6189 -1.22061 -3.67668 0
M  V30 785 H 73.0329 -3.41305 -3.9826 0
M  V30 786 H 74.5069 -2.11669 -5.09804 0
M  V30 787 H 74.9839 -0.593462 -4.35172 0
M  V30 788 H 75.5899 -2.12628 -3.68334 0
M  V30 789 N 73.905 1.17692 -1.04816 0
M  V30 790 C 75.151 1.88137 -0.75711 0
M  V30 791 C 75.484 1.80604 0.713841 0
M  V30 792 O 74.759 1.21146 1.52164 0
M  V30 793 C 75.042 3.38318 -1.2334 0
M  V30 794 C 74.895 3.54622 -2.76701 0
M  V30 795 C 76.214 4.32214 -0.829415 0
M  V30 796 H 73.333 0.683163 -0.27651 0
M  V30 797 H 75.975 1.38424 -1.30149 0
M  V30 798 H 74.125 3.80787 -0.770286 0
M  V30 799 H 75.797 3.21194 -3.31107 0
M  V30 800 H 74.04 2.97026 -3.16161 0
M  V30 801 H 74.711 4.60028 -3.05088 0
M  V30 802 H 77.187 3.97565 -1.22805 0
M  V30 803 H 76.063 5.35838 -1.19033 0
M  V30 804 H 76.324 4.41294 0.266891 0
M  V30 805 N 75.3831 0.828654 1.34056 0
M  V30 806 C 76.6301 0.419458 1.98108 0
M  V30 807 C 76.9581 -1.01886 1.65679 0
M  V30 808 O 76.2131 -1.72539 0.923512 0
M  V30 809 C 76.5121 0.575226 3.52741 0
M  V30 810 C 76.1781 1.98012 4.05095 0
M  V30 811 C 74.8401 2.36442 4.19104 0
M  V30 812 C 77.1921 2.89824 4.33188 0
M  V30 813 C 74.5201 3.66009 4.58535 0
M  V30 814 C 76.8721 4.1886 4.74066 0
M  V30 815 C 75.5361 4.5726 4.86281 0
M  V30 816 H 74.8061 0.153491 0.724929 0
M  V30 817 H 77.4531 1.05371 1.59904 0
M  V30 818 H 75.7581 -0.142385 3.91541 0
M  V30 819 H 77.4551 0.239057 4.00287 0
M  V30 820 H 74.0451 1.67162 3.94658 0
M  V30 821 H 78.2291 2.61375 4.21897 0
M  V30 822 H 73.4851 3.95579 4.66184 0
M  V30 823 H 77.6591 4.90086 4.94761 0
M  V30 824 H 75.2861 5.57707 5.16592 0
M  V30 825 N 76.8612 -1.46375 0.584142 0
M  V30 826 C 78.1092 -2.01978 0.0701287 0
M  V30 827 C 78.4302 -1.4579 -1.295 0
M  V30 828 O 77.7002 -0.64314 -1.85042 0
M  V30 829 H 76.2802 -0.746648 0.0229345 0
M  V30 830 H 78.9422 -1.79461 0.760245 0
M  V30 831 H 78.0382 -3.121 0.0022064 0
M  V30 832 N 78.3393 -0.321999 -1.54275 0
M  V30 833 C 79.5853 0.281461 -2.00837 0
M  V30 834 C 79.9183 1.51909 -1.20985 0
M  V30 835 O 79.1933 1.923 -0.291733 0
M  V30 836 C 79.4763 0.617162 -3.54772 0
M  V30 837 C 79.3293 -0.631064 -4.45351 0
M  V30 838 C 80.6483 1.43542 -4.16033 0
M  V30 839 H 77.7673 0.100826 -0.730071 0
M  V30 840 H 80.4093 -0.438268 -1.84876 0
M  V30 841 H 78.5593 1.23034 -3.68504 0
M  V30 842 H 80.2313 -1.26934 -4.43492 0
M  V30 843 H 78.4743 -1.26025 -4.15091 0
M  V30 844 H 79.1453 -0.351735 -5.50878 0
M  V30 845 H 81.6213 0.917134 -4.05867 0
M  V30 846 H 80.4973 1.63907 -5.23856 0
M  V30 847 H 80.7583 2.43108 -3.69257 0
M  V30 848 N 79.8174 1.5752 -0.0501392 0
M  V30 849 C 81.0664 1.91827 0.623328 0
M  V30 850 C 81.3794 0.930222 1.72065 0
M  V30 851 O 82.5854 1.1653 2.4522 0
M  V30 852 C 81.0414 3.40692 1.16003 0
M  V30 853 C 80.6494 4.479 0.0948811 0
M  V30 854 C 82.3934 3.84034 1.80881 0
M  V30 855 C 80.3004 5.87879 0.644411 0
M  V30 856 H 79.2304 0.715918 0.236596 0
M  V30 857 H 81.8814 1.83115 -0.118861 0
M  V30 858 H 80.2634 3.44405 1.9545 0
M  V30 859 H 81.4374 4.55775 -0.678675 0
M  V30 860 H 79.7524 4.13892 -0.45637 0
M  V30 861 H 82.3494 4.85984 2.22988 0
M  V30 862 H 82.6924 3.20225 2.6601 0
M  V30 863 H 83.2254 3.82833 1.0809 0
M  V30 864 H 79.9644 6.55282 -0.169229 0
M  V30 865 H 79.4844 5.83567 1.38598 0
M  V30 866 H 81.1634 6.37098 1.12763 0
M  V30 867 N 81.2955 -0.223234 1.56011 0
M  V30 868 C 82.2255 -1.27988 1.95298 0
M  V30 869 C 83.2065 -1.48976 0.820979 0
M  V30 870 O 84.3915 -1.61188 1.08315 0
M  V30 871 C 81.5215 -2.63 2.26822 0
M  V30 872 C 80.4755 -2.56671 3.42497 0
M  V30 873 C 79.8015 -3.95697 3.59622 0
M  V30 874 C 81.1015 -2.11601 4.77517 0
M  V30 875 H 82.7955 -0.953525 2.8381 0
M  V30 876 H 80.3415 -0.457244 1.36548 0
M  V30 877 H 82.2945 -3.37077 2.52898 0
M  V30 878 H 81.0185 -2.9732 1.35161 0
M  V30 879 H 79.6775 -1.85051 3.16467 0
M  V30 880 H 79.3255 -4.27322 2.6534 0
M  V30 881 H 79.0255 -3.92345 4.37424 0
M  V30 882 H 80.5495 -4.71438 3.88044 0
M  V30 883 H 81.9635 -2.7542 5.02809 0
M  V30 884 H 80.3605 -2.19311 5.5859 0
M  V30 885 H 81.4305 -1.06824 4.72987 0
M  V30 886 N 82.7736 -1.49793 -0.48987 0
M  V30 887 C 84.0216 -1.59525 -1.24081 0
M  V30 888 C 84.3426 -0.288953 -1.92847 0
M  V30 889 O 83.6126 0.692436 -1.83254 0
M  V30 890 H 82.1926 -0.587796 -0.460983 0
M  V30 891 H 84.8546 -1.86477 -0.566778 0
M  V30 892 H 83.9506 -2.39696 -1.99881 0
M  V30 893 N 84.2517 0.741722 -1.39055 0
M  V30 894 C 85.2147 1.83733 -1.37021 0
M  V30 895 C 86.2147 1.58542 -0.268534 0
M  V30 896 O 87.4047 1.66067 -0.526076 0
M  V30 897 C 84.5367 3.2141 -1.13617 0
M  V30 898 H 85.7297 1.86941 -2.34506 0
M  V30 899 H 83.2827 0.944676 -1.24521 0
M  V30 900 H 84.0177 3.23865 -0.167863 0
M  V30 901 H 83.8027 3.4109 -1.93391 0
M  V30 902 H 85.2927 4.01477 -1.14918 0
M  V30 903 N 85.7298 1.2412 0.971189 0
M  V30 904 C 86.9758 1.08041 1.71625 0
M  V30 905 C 87.3088 -0.380407 1.90438 0
M  V30 906 O 86.5838 -1.28127 1.46334 0
M  V30 907 C 86.8668 1.81682 3.10908 0
M  V30 908 C 86.7198 3.35493 2.99608 0
M  V30 909 C 88.0388 1.58671 4.10501 0
M  V30 910 H 85.1578 0.39388 0.622919 0
M  V30 911 H 87.7998 1.52743 1.13003 0
M  V30 912 H 85.9498 1.43684 3.60953 0
M  V30 913 H 87.6218 3.83068 2.57015 0
M  V30 914 H 85.8648 3.64052 2.35899 0
M  V30 915 H 86.5358 3.82217 3.98264 0
M  V30 916 H 89.0118 1.91719 3.69301 0
M  V30 917 H 87.8878 2.1266 5.06031 0
M  V30 918 H 88.1488 0.524161 4.38982 0
M  V30 919 N 87.2079 -1.17134 1.05439 0
M  V30 920 C 88.4479 -1.89137 0.77502 0
M  V30 921 C 88.8119 -1.79345 -0.685526 0
M  V30 922 O 90.0129 -2.46188 -1.0791 0
M  V30 923 C 88.2839 -3.35003 1.2453 0
M  V30 924 S 89.8429 -4.24952 1.09367 0
M  V30 925 H 86.6609 -0.652949 0.281387 0
M  V30 926 H 89.2629 -1.4145 1.34953 0
M  V30 927 H 87.9669 -3.39666 2.30338 0
M  V30 928 H 87.4979 -3.87736 0.665166 0
M  V30 929 H 89.5129 -4.96196 0.0193397 0
M  V30 930 N 88.686 -0.835752 -1.33615 0
M  V30 931 C 89.934 -0.429109 -1.97492 0
M  V30 932 C 90.255 1.01433 -1.66543 0
M  V30 933 O 89.525 1.70611 -0.962744 0
M  V30 934 H 88.105 -0.155686 -0.730596 0
M  V30 935 H 90.767 -1.06802 -1.63031 0
M  V30 936 H 89.863 -0.55861 -3.0706 0
M  V30 937 N 90.1641 1.46063 -0.591896 0
M  V30 938 C 91.4121 2.01938 -0.0808391 0
M  V30 939 C 91.7331 1.46475 1.28725 0
M  V30 940 O 91.0031 0.652944 1.84698 0
M  V30 941 H 89.5831 0.746516 -0.0268938 0
M  V30 942 H 92.2451 1.79055 -0.769752 0
M  V30 943 H 91.3411 3.12094 -0.0187578 0
M  V30 944 N 91.6422 0.330177 1.54103 0
M  V30 945 C 92.5722 -0.525353 2.27513 0
M  V30 946 C 93.5532 -1.11383 1.2856 0
M  V30 947 O 94.7382 -1.13773 1.57383 0
M  V30 948 C 91.8682 -1.6831 3.03791 0
M  V30 949 C 90.8222 -1.2236 4.10137 0
M  V30 950 C 90.1482 -2.46882 4.74293 0
M  V30 951 C 91.4482 -0.333697 5.21233 0
M  V30 952 H 93.1422 0.087013 2.99274 0
M  V30 953 H 90.6882 0.0432893 1.43935 0
M  V30 954 H 92.6412 -2.28795 3.5388 0
M  V30 955 H 91.3652 -2.32216 2.29659 0
M  V30 956 H 90.0242 -0.64165 3.60941 0
M  V30 957 H 89.6722 -3.09165 3.96769 0
M  V30 958 H 89.3722 -2.16825 5.46133 0
M  V30 959 H 90.8962 -3.08117 5.27159 0
M  V30 960 H 92.3102 -0.845013 5.67038 0
M  V30 961 H 90.7072 -0.125612 5.99969 0
M  V30 962 H 91.7772 0.633724 4.80741 0
M  V30 963 N 93.1203 -1.57491 0.0584922 0
M  V30 964 C 94.0503 -2.14988 -0.911178 0
M  V30 965 C 95.0313 -1.07343 -1.31952 0
M  V30 966 O 96.2163 -1.35318 -1.39294 0
M  V30 967 C 93.3463 -2.70078 -2.18347 0
M  V30 968 C 92.3003 -3.82771 -1.91495 0
M  V30 969 C 91.6263 -4.24408 -3.25241 0
M  V30 970 C 92.9263 -5.07592 -1.23075 0
M  V30 971 H 94.6203 -2.96263 -0.432246 0
M  V30 972 H 92.1663 -1.42512 -0.206469 0
M  V30 973 H 94.1193 -3.08943 -2.86587 0
M  V30 974 H 92.8433 -1.86005 -2.68458 0
M  V30 975 H 91.5023 -3.44389 -1.25664 0
M  V30 976 H 91.1503 -3.37275 -3.73168 0
M  V30 977 H 90.8503 -5.00366 -3.08071 0
M  V30 978 H 92.3743 -4.65879 -3.94701 0
M  V30 979 H 93.7883 -5.43857 -1.81362 0
M  V30 980 H 92.1853 -5.88741 -1.16207 0
M  V30 981 H 93.2553 -4.84454 -0.207847 0
M  V30 982 N 94.5984 0.214957 -1.56127 0
M  V30 983 C 96.0144 0.564948 -1.49267 0
M  V30 984 C 96.2144 1.86827 -0.754838 0
M  V30 985 O 95.2704 2.50745 -0.297198 0
M  V30 986 C 96.5834 0.638071 -2.93852 0
M  V30 987 C 98.1314 0.728253 -3.0441 0
M  V30 988 C 98.6064 0.832663 -4.50367 0
M  V30 989 N 100.097 0.896712 -4.54437 0
M  V30 990 C 100.832 0.997324 -5.6466 0
M  V30 991 N 100.328 1.06147 -6.8462 0
M  V30 992 N 102.121 1.03297 -5.52527 0
M  V30 993 H 94.2724 -0.640211 -2.02522 0
M  V30 994 H 96.5354 -0.225507 -0.920788 0
M  V30 995 H 96.2414 -0.250126 -3.50809 0
M  V30 996 H 96.1154 1.49947 -3.46115 0
M  V30 997 H 98.5024 1.60689 -2.47514 0
M  V30 998 H 98.5834 -0.158952 -2.55306 0
M  V30 999 H 98.2274 -0.0415417 -5.07883 0
M  V30 1000 H 98.1574 1.73538 -4.97184 0
M  V30 1001 H 100.648 0.857188 -3.6805 0
M  V30 1002 H 100.961 1.1382 -7.64372 0
M  V30 1003 H 99.3064 1.03049 -6.87318 0
M  V30 1004 H 102.497 0.979558 -4.57736 0
M  V30 1005 H 102.67 1.10793 -6.38458 0
M  V30 1006 N 96.0765 1.50051 0.48192 0
M  V30 1007 C 97.0065 1.71046 1.58951 0
M  V30 1008 C 97.9875 0.559288 1.60642 0
M  V30 1009 O 99.1725 0.797243 1.77081 0
M  V30 1010 C 96.3025 1.79462 2.97339 0
M  V30 1011 C 95.2565 2.94558 3.10515 0
M  V30 1012 C 94.5825 2.88105 4.50444 0
M  V30 1013 C 95.8825 4.35227 2.88747 0
M  V30 1014 H 97.5765 2.6378 1.41635 0
M  V30 1015 H 95.1225 1.26936 0.679942 0
M  V30 1016 H 97.0755 1.92734 3.74742 0
M  V30 1017 H 95.7995 0.833412 3.15788 0
M  V30 1018 H 94.4585 2.80918 2.35543 0
M  V30 1019 H 94.1065 1.89853 4.65795 0
M  V30 1020 H 93.8065 3.65366 4.60197 0
M  V30 1021 H 95.3305 3.03412 5.29881 0
M  V30 1022 H 96.7445 4.49449 3.55905 0
M  V30 1023 H 95.1415 5.13856 3.09955 0
M  V30 1024 H 96.2115 4.48347 1.84696 0
M  V30 1025 N 97.5546 -0.734337 1.39446 0
M  V30 1026 C 98.5176 -1.83004 1.37994 0
M  V30 1027 C 99.5176 -1.58397 0.276938 0
M  V30 1028 O 100.708 -1.65785 0.534875 0
M  V30 1029 C 97.8396 -3.20802 1.1532 0
M  V30 1030 H 99.0326 -1.85694 2.35494 0
M  V30 1031 H 96.5856 -0.938059 1.25021 0
M  V30 1032 H 97.3206 -3.23772 0.185036 0
M  V30 1033 H 97.1056 -3.4006 1.95197 0
M  V30 1034 H 98.5956 -4.00862 1.17046 0
M  V30 1035 N 99.0327 -1.24633 -0.964593 0
M  V30 1036 C 100.258 -1.11596 -1.74818 0
M  V30 1037 C 100.683 0.32723 -1.85232 0
M  V30 1038 O 100.041 1.23695 -1.32549 0
M  V30 1039 C 100.089 -1.76397 -3.1451 0
M  V30 1040 O 99.1927 -1.03685 -3.99153 0
M  V30 1041 H 98.5337 -0.390196 -0.537255 0
M  V30 1042 H 101.064 -1.65002 -1.20977 0
M  V30 1043 H 101.074 -1.8228 -3.65018 0
M  V30 1044 H 99.7487 -2.81401 -3.06246 0
M  V30 1045 H 98.3257 -1.05611 -3.57632 0
M  V30 1046 N 100.511 1.16574 -1.06058 0
M  V30 1047 C 101.922 1.68662 -0.800632 0
M  V30 1048 C 102.273 1.84184 0.67608 0
M  V30 1049 O 101.398 1.53568 1.52466 0
M  V30 1050 C 101.993 3.06356 -1.44676 0
M  V30 1051 C 100.552 3.55575 -1.23465 0
M  V30 1052 C 99.6988 2.31616 -1.52477 0
M  V30 1053 H 102.65 1.00969 -1.22438 0
M  V30 1054 H 102.671 3.70636 -0.860788 0
M  V30 1055 H 102.183 2.95027 -2.52152 0
M  V30 1056 H 100.284 3.72167 -0.179527 0
M  V30 1057 H 100.397 4.37812 -1.94571 0
M  V30 1058 H 98.7608 2.36512 -0.945209 0
M  V30 1059 H 99.5438 2.22887 -2.61106 0
M  V30 1060 N 101.989 0.842826 1.3317 0
M  V30 1061 C 103.238 0.436738 1.96915 0
M  V30 1062 C 103.551 -1.01025 1.67491 0
M  V30 1063 O 104.757 -1.5212 2.24881 0
M  V30 1064 C 103.213 0.730021 3.52418 0
M  V30 1065 C 102.821 2.19195 3.90714 0
M  V30 1066 C 104.565 0.391076 4.22695 0
M  V30 1067 C 102.472 2.42907 5.39212 0
M  V30 1068 H 101.402 0.15958 0.736919 0
M  V30 1069 H 104.053 1.03196 1.51733 0
M  V30 1070 H 102.435 0.0643755 3.95948 0
M  V30 1071 H 103.609 2.8984 3.58231 0
M  V30 1072 H 101.924 2.49425 3.33431 0
M  V30 1073 H 104.521 0.545817 5.31907 0
M  V30 1074 H 104.864 -0.666294 4.10933 0
M  V30 1075 H 105.397 1.01212 3.84709 0
M  V30 1076 H 102.136 3.47224 5.55982 0
M  V30 1077 H 101.656 1.76827 5.73142 0
M  V30 1078 H 103.335 2.2626 6.06148 0
M  V30 1079 N 103.467 -1.45747 0.599634 0
M  V30 1080 C 104.417 -2.27538 -0.145107 0
M  V30 1081 C 105.401 -1.3686 -0.846055 0
M  V30 1082 O 106.593 -1.6091 -0.737357 0
M  V30 1083 C 103.722 -3.23569 -1.14708 0
M  V30 1084 C 102.808 -4.21734 -0.447383 0
M  V30 1085 N 103.199 -5.03257 0.506535 0
M  V30 1086 C 101.497 -4.40536 -0.695966 0
M  V30 1087 C 102.198 -5.74426 0.917068 0
M  V30 1088 N 101.174 -5.42966 0.26253 0
M  V30 1089 H 104.976 -2.87965 0.587672 0
M  V30 1090 H 102.49 -1.56803 0.422697 0
M  V30 1091 H 104.487 -3.8089 -1.69495 0
M  V30 1092 H 103.147 -2.64702 -1.8805 0
M  V30 1093 H 104.158 -5.10319 0.882899 0
M  V30 1094 H 100.835 -3.92802 -1.41467 0
M  V30 1095 H 102.225 -6.4995 1.70338 0
M  V30 1096 N 104.945 -0.338344 -1.53925 0
M  V30 1097 C 106.356 0.146651 -1.86123 0
M  V30 1098 C 106.707 1.5042 -1.2597 0
M  V30 1099 O 105.832 2.08723 -0.571294 0
M  V30 1100 C 106.427 0.272879 -3.37699 0
M  V30 1101 C 104.986 0.702103 -3.69794 0
M  V30 1102 C 104.133 -0.167304 -2.76795 0
M  V30 1103 H 107.084 -0.558123 -1.48562 0
M  V30 1104 H 107.105 1.10128 -3.64214 0
M  V30 1105 H 106.617 -0.715307 -3.81451 0
M  V30 1106 H 104.718 1.6995 -3.31584 0
M  V30 1107 H 104.831 0.495604 -4.7653 0
M  V30 1108 H 103.195 0.359527 -2.5215 0
M  V30 1109 H 103.978 -1.15253 -3.23375 0
M  V30 1110 N 106.423 1.57458 -0.0668435 0
M  V30 1111 C 107.7 1.8469 0.644132 0
M  V30 1112 C 108.08 0.958343 1.88093 0
M  V30 1113 O 107.428 0.0233579 2.28488 0
M  V30 1114 C 107.638 3.34767 0.986509 0
M  V30 1115 C 108.986 4.02159 1.36212 0
M  V30 1116 O 110.01 3.39484 1.07839 0
M  V30 1117 O 108.869 5.12694 1.89227 0
M  V30 1118 H 105.963 0.762816 0.319437 0
M  V30 1119 H 108.509 1.6942 -0.0973986 0
M  V30 1120 H 107.281 3.91151 0.107883 0
M  V30 1121 H 106.904 3.55281 1.78497 0
M  V30 1122 N 107.901 -0.206675 1.56239 0
M  V30 1123 C 109.147 -0.930218 1.80208 0
M  V30 1124 C 109.48 -1.83387 0.638981 0
M  V30 1125 O 108.755 -1.91119 -0.361066 0
M  V30 1126 C 109.038 -1.75641 3.1436 0
M  V30 1127 C 108.891 -0.878257 4.41142 0
M  V30 1128 C 110.21 -2.73129 3.45092 0
M  V30 1129 H 107.329 -0.336742 0.655571 0
M  V30 1130 H 109.971 -0.198222 1.88963 0
M  V30 1131 H 108.121 -2.38048 3.07027 0
M  V30 1132 H 109.793 -0.269787 4.6051 0
M  V30 1133 H 108.036 -0.184385 4.33408 0
M  V30 1134 H 108.707 -1.49106 5.3148 0
M  V30 1135 H 111.183 -2.20856 3.52649 0
M  V30 1136 H 110.059 -3.28028 4.40101 0
M  V30 1137 H 110.32 -3.51606 2.68003 0
M  V30 1138 N 109.379 -1.50304 -0.473955 0
M  V30 1139 C 110.625 -1.61389 -1.22806 0
M  V30 1140 C 110.958 -0.311955 -1.91678 0
M  V30 1141 O 110.233 0.686384 -1.81986 0
M  V30 1142 C 110.516 -2.79219 -2.27396 0
M  V30 1143 C 110.369 -4.19286 -1.62848 0
M  V30 1144 C 111.688 -2.92614 -3.28732 0
M  V30 1145 H 108.807 -0.587399 -0.445119 0
M  V30 1146 H 111.449 -1.82681 -0.522265 0
M  V30 1147 H 109.599 -2.61195 -2.87592 0
M  V30 1148 H 111.271 -4.48892 -1.06271 0
M  V30 1149 H 109.514 -4.23677 -0.931693 0
M  V30 1150 H 110.185 -4.97655 -2.38838 0
M  V30 1151 H 112.661 -3.09105 -2.78556 0
M  V30 1152 H 111.537 -3.76688 -3.99246 0
M  V30 1153 H 111.798 -2.03107 -3.92683 0
M  V30 1154 N 110.857 0.726932 -1.39834 0
M  V30 1155 C 111.79 1.8501 -1.33592 0
M  V30 1156 C 112.768 1.61262 -0.208191 0
M  V30 1157 O 113.952 1.84422 -0.389981 0
M  V30 1158 C 111.079 3.21143 -1.07633 0
M  V30 1159 C 110.125 3.63737 -2.22705 0
M  V30 1160 S 110.958 3.72167 -3.85035 0
M  V30 1161 C 112.114 5.11077 -3.61318 0
M  V30 1162 H 112.347 1.90022 -2.28646 0
M  V30 1163 H 109.88 0.892595 -1.25985 0
M  V30 1164 H 111.838 3.99747 -0.933415 0
M  V30 1165 H 110.499 3.13776 -0.142526 0
M  V30 1166 H 109.692 4.62551 -2.00155 0
M  V30 1167 H 109.294 2.9236 -2.33242 0
M  V30 1168 H 111.586 5.97656 -3.19083 0
M  V30 1169 H 112.529 5.38658 -4.59623 0
M  V30 1170 H 112.937 4.81135 -2.95245 0
M  V30 1171 N 112.336 1.25143 0.95797 0
M  V30 1172 C 113.266 1.07711 2.07173 0
M  V30 1173 C 114.247 -0.0128462 1.70095 0
M  V30 1174 O 115.432 0.156061 1.93572 0
M  V30 1175 C 112.562 0.691503 3.40346 0
M  V30 1176 C 111.516 1.73132 3.9142 0
M  V30 1177 C 110.842 1.20049 5.21049 0
M  V30 1178 C 112.142 3.1294 4.1817 0
M  V30 1179 H 113.836 2.00873 2.22014 0
M  V30 1180 H 111.382 0.967191 1.06684 0
M  V30 1181 H 113.335 0.556505 4.17709 0
M  V30 1182 H 112.059 -0.275819 3.25433 0
M  V30 1183 H 110.718 1.8547 3.16222 0
M  V30 1184 H 110.366 0.223499 5.02503 0
M  V30 1185 H 110.066 1.89545 5.56189 0
M  V30 1186 H 111.59 1.07782 6.01012 0
M  V30 1187 H 113.004 3.03775 4.86203 0
M  V30 1188 H 111.401 3.79875 4.64559 0
M  V30 1189 H 112.471 3.6025 3.24573 0
M  V30 1190 N 113.814 -1.1601 1.06675 0
M  V30 1191 C 115.063 -1.85973 0.780818 0
M  V30 1192 C 115.376 -1.82819 -0.695444 0
M  V30 1193 O 116.582 -2.484 -1.09589 0
M  V30 1194 C 115.038 -3.33757 1.34665 0
M  V30 1195 C 114.646 -3.45374 2.85343 0
M  V30 1196 C 116.39 -4.0895 1.13843 0
M  V30 1197 C 114.297 -4.87266 3.35151 0
M  V30 1198 H 113.227 -0.696661 0.288407 0
M  V30 1199 H 115.878 -1.30903 1.28595 0
M  V30 1200 H 114.26 -3.88456 0.769274 0
M  V30 1201 H 115.434 -3.00816 3.49065 0
M  V30 1202 H 113.749 -2.83619 3.04876 0
M  V30 1203 H 116.346 -5.13654 1.4854 0
M  V30 1204 H 116.689 -4.16229 0.0770282 0
M  V30 1205 H 117.222 -3.605 1.68179 0
M  V30 1206 H 113.961 -4.85168 4.40786 0
M  V30 1207 H 113.481 -5.32433 2.76179 0
M  V30 1208 H 115.16 -5.56097 3.30704 0
M  V30 1209 N 115.292 -0.849877 -1.32721 0
M  V30 1210 C 116.255 -0.296122 -2.27279 0
M  V30 1211 C 117.255 0.541458 -1.5141 0
M  V30 1212 O 118.445 0.353658 -1.70572 0
M  V30 1213 C 115.577 0.581579 -3.35902 0
M  V30 1214 H 116.77 -1.13064 -2.77771 0
M  V30 1215 H 114.323 -0.62383 -1.43311 0
M  V30 1216 H 115.058 1.43809 -2.9067 0
M  V30 1217 H 114.843 -0.0178814 -3.92096 0
M  V30 1218 H 116.333 0.961951 -4.0637 0
M  V30 1219 N 116.77 1.45427 -0.607355 0
M  V30 1220 C 118.017 2.02241 -0.102455 0
M  V30 1221 C 118.345 1.4758 1.26691 0
M  V30 1222 O 117.6 0.640468 1.84923 0
M  V30 1223 C 117.899 3.57398 -0.0129263 0
M  V30 1224 C 117.565 4.3121 -1.31792 0
M  V30 1225 C 116.227 4.51092 -1.67539 0
M  V30 1226 C 118.579 4.73401 -2.18039 0
M  V30 1227 C 115.907 5.10422 -2.89285 0
M  V30 1228 C 118.259 5.34078 -3.39034 0
M  V30 1229 C 116.923 5.52184 -3.75033 0
M  V30 1230 H 116.193 0.740051 -0.037491 0
M  V30 1231 H 118.84 1.74494 -0.788926 0
M  V30 1232 H 117.145 3.84421 0.756806 0
M  V30 1233 H 118.842 3.99061 0.393881 0
M  V30 1234 H 115.432 4.16047 -1.02968 0
M  V30 1235 H 119.616 4.57774 -1.91721 0
M  V30 1236 H 114.872 5.22629 -3.17283 0
M  V30 1237 H 119.046 5.65724 -4.06115 0
M  V30 1238 H 116.673 5.97925 -4.69457 0
M  V30 1239 N 118.248 0.346503 1.53744 0
M  V30 1240 C 119.659 -0.136779 1.86198 0
M  V30 1241 C 120.01 -1.49749 1.26766 0
M  V30 1242 O 119.135 -2.08417 0.582355 0
M  V30 1243 C 119.73 -0.254966 3.37839 0
M  V30 1244 C 118.289 -0.682482 3.70161 0
M  V30 1245 C 117.436 0.181981 2.76702 0
M  V30 1246 H 120.387 0.565994 1.48264 0
M  V30 1247 H 120.408 -1.08195 3.64793 0
M  V30 1248 H 119.92 0.735526 3.81066 0
M  V30 1249 H 118.021 -1.68189 3.3248 0
M  V30 1250 H 118.134 -0.470326 4.76786 0
M  V30 1251 H 116.498 -0.34615 2.52337 0
M  V30 1252 H 117.281 1.16966 3.2276 0
M  V30 1253 N 119.726 -1.57421 0.075193 0
M  V30 1254 C 120.974 -1.93236 -0.591974 0
M  V30 1255 C 121.295 -0.956241 -1.69944 0
M  V30 1256 O 120.565 -0.00494792 -1.95899 0
M  V30 1257 H 119.145 -0.713355 -0.22166 0
M  V30 1258 H 121.807 -1.9444 0.133848 0
M  V30 1259 H 120.903 -2.95131 -1.01509 0
M  V30 1260 N 121.204 0.198386 -1.56346 0
M  V30 1261 C 122.481 0.944982 -1.71258 0
M  V30 1262 C 122.861 2.0151 -0.629048 0
M  V30 1263 O 122.209 2.25639 0.360473 0
M  V30 1264 C 122.419 1.5344 -3.1346 0
M  V30 1265 C 123.767 2.01778 -3.73591 0
M  V30 1266 O 124.791 1.63288 -3.16568 0
M  V30 1267 O 123.65 2.72594 -4.73661 0
M  V30 1268 H 120.744 0.442939 -0.69838 0
M  V30 1269 H 123.29 0.188342 -1.68652 0
M  V30 1270 H 122.062 0.762869 -3.83792 0
M  V30 1271 H 121.685 2.35596 -3.20282 0
M  V30 1272 N 122.682 1.50554 0.465978 0
M  V30 1273 C 123.931 1.61038 1.21448 0
M  V30 1274 C 124.244 0.31865 1.92987 0
M  V30 1275 O 125.45 0.302469 2.6981 0
M  V30 1276 C 123.906 2.84283 2.20706 0
M  V30 1277 C 123.514 4.20352 1.54946 0
M  V30 1278 C 125.258 3.04115 2.96166 0
M  V30 1279 C 123.165 5.34778 2.5252 0
M  V30 1280 H 122.095 0.599718 0.457005 0
M  V30 1281 H 124.746 1.7699 0.484424 0
M  V30 1282 H 123.128 2.61901 2.97025 0
M  V30 1283 H 124.302 4.53008 0.843811 0
M  V30 1284 H 122.617 4.06167 0.917475 0
M  V30 1285 H 125.214 3.86774 3.69202 0
M  V30 1286 H 125.557 2.16045 3.55852 0
M  V30 1287 H 126.09 3.26702 2.26959 0
M  V30 1288 H 122.829 6.25018 1.97566 0
M  V30 1289 H 122.349 5.06534 3.21222 0
M  V30 1290 H 124.028 5.65561 3.14245 0
M  V30 1291 N 124.16 -0.719506 1.40217 0
M  V30 1292 C 125.09 -1.8465 1.42922 0
M  V30 1293 C 126.071 -1.67599 0.29062 0
M  V30 1294 O 127.256 -1.87688 0.498677 0
M  V30 1295 C 124.386 -3.22565 1.28722 0
M  V30 1296 C 123.34 -3.54281 2.40144 0
M  V30 1297 C 122.666 -4.91298 2.11023 0
M  V30 1298 C 123.966 -3.55676 3.82481 0
M  V30 1299 H 125.66 -1.82644 2.37237 0
M  V30 1300 H 123.206 -0.877305 1.1419 0
M  V30 1301 H 125.159 -4.01095 1.29232 0
M  V30 1302 H 123.883 -3.25137 0.308811 0
M  V30 1303 H 122.542 -2.78088 2.38877 0
M  V30 1304 H 122.19 -4.90468 1.11582 0
M  V30 1305 H 121.89 -5.13485 2.8567 0
M  V30 1306 H 123.414 -5.72166 2.13209 0
M  V30 1307 H 124.828 -4.24254 3.85592 0
M  V30 1308 H 123.225 -3.89388 4.56614 0
M  V30 1309 H 124.295 -2.55144 4.12346 0
M  V30 1310 N 125.638 -1.25649 -0.95132 0
M  V30 1311 C 126.571 -1.00644 -2.04807 0
M  V30 1312 C 127.549 0.0654271 -1.62468 0
M  V30 1313 O 128.733 -0.074911 -1.88351 0
M  V30 1314 C 125.86 -0.522052 -3.34653 0
M  V30 1315 C 124.906 -1.58495 -3.95957 0
M  V30 1316 S 125.739 -3.17108 -4.31512 0
M  V30 1317 C 126.895 -2.70412 -5.64471 0
M  V30 1318 H 127.128 -1.93508 -2.25703 0
M  V30 1319 H 124.661 -1.09216 -1.09139 0
M  V30 1320 H 126.619 -0.24923 -4.09743 0
M  V30 1321 H 125.28 0.386146 -3.11717 0
M  V30 1322 H 124.473 -1.1968 -4.89584 0
M  V30 1323 H 124.075 -1.80862 -3.2736 0
M  V30 1324 H 126.367 -2.14245 -6.42733 0
M  V30 1325 H 127.31 -3.62693 -6.08161 0
M  V30 1326 H 127.718 -2.10302 -5.23864 0
M  V30 1327 N 127.117 1.15442 -1.07289 0
M  V30 1328 C 128.533 1.38201 -0.798288 0
M  V30 1329 C 128.733 1.92429 0.597769 0
M  V30 1330 O 127.789 2.12962 1.3566 0
M  V30 1331 C 129.102 2.35357 -1.87156 0
M  V30 1332 C 130.65 2.49021 -1.89624 0
M  V30 1333 C 131.125 3.49468 -2.96034 0
M  V30 1334 N 132.616 3.57003 -2.95132 0
M  V30 1335 C 133.351 4.34543 -3.74112 0
M  V30 1336 N 132.847 5.15421 -4.6294 0
M  V30 1337 N 134.64 4.29625 -3.62462 0
M  V30 1338 H 126.791 0.78584 -1.97328 0
M  V30 1339 H 129.054 0.408065 -0.855679 0
M  V30 1340 H 128.76 2.02626 -2.87464 0
M  V30 1341 H 128.634 3.35129 -1.73114 0
M  V30 1342 H 131.021 2.81051 -0.899687 0
M  V30 1343 H 131.102 1.4925 -2.07745 0
M  V30 1344 H 130.746 3.18173 -3.95889 0
M  V30 1345 H 130.676 4.48992 -2.75161 0
M  V30 1346 H 133.167 2.99276 -2.30743 0
M  V30 1347 H 133.48 5.7183 -5.19837 0
M  V30 1348 H 131.825 5.14729 -4.66989 0
M  V30 1349 H 135.016 3.65505 -2.92444 0
M  V30 1350 H 135.189 4.89807 -4.24256 0
M  V30 1351 N 128.595 0.856903 1.32268 0
M  V30 1352 C 129.528 0.247937 2.26849 0
M  V30 1353 C 130.506 -0.615382 1.50505 0
M  V30 1354 O 131.69 -0.571689 1.79622 0
M  V30 1355 C 128.817 -0.650093 3.32403 0
M  V30 1356 C 127.863 0.140138 4.2627 0
M  V30 1357 S 128.696 1.51004 5.13769 0
M  V30 1358 C 129.852 0.61778 6.22844 0
M  V30 1359 H 130.085 1.04971 2.78152 0
M  V30 1360 H 127.618 0.654665 1.39834 0
M  V30 1361 H 129.576 -1.16256 3.93694 0
M  V30 1362 H 128.237 -1.4257 2.7988 0
M  V30 1363 H 127.43 -0.543945 5.01056 0
M  V30 1364 H 127.032 0.584267 3.69408 0
M  V30 1365 H 129.324 -0.177053 6.77269 0
M  V30 1366 H 130.267 1.33636 6.95375 0
M  V30 1367 H 130.675 0.191124 5.64176 0
M  V30 1368 N 130.073 -1.45103 0.615059 0
M  V30 1369 C 131.003 -2.33339 -0.0865619 0
M  V30 1370 C 131.984 -1.4727 -0.851209 0
M  V30 1371 O 133.169 -1.76026 -0.820281 0
M  V30 1372 C 130.299 -3.30095 -1.07956 0
M  V30 1373 C 129.253 -4.25858 -0.427628 0
M  V30 1374 C 128.579 -5.12361 -1.5294 0
M  V30 1375 C 129.879 -5.18165 0.655944 0
M  V30 1376 H 131.573 -2.92254 0.650224 0
M  V30 1377 H 129.119 -1.40532 0.314138 0
M  V30 1378 H 131.072 -3.90698 -1.57901 0
M  V30 1379 H 129.796 -2.69355 -1.84703 0
M  V30 1380 H 128.455 -3.66564 0.0510292 0
M  V30 1381 H 128.103 -4.47984 -2.28734 0
M  V30 1382 H 127.803 -5.77238 -1.09865 0
M  V30 1383 H 129.327 -5.75833 -2.03098 0
M  V30 1384 H 130.741 -5.72796 0.240257 0
M  V30 1385 H 129.138 -5.91559 1.00888 0
M  V30 1386 H 130.208 -4.60144 1.52957 0
M  V30 1387 N 131.551 -0.354651 -1.53558 0
M  V30 1388 C 132.498 0.496968 -2.25386 0
M  V30 1389 C 133.468 1.0865 -1.25636 0
M  V30 1390 O 134.653 1.12104 -1.54394 0
M  V30 1391 C 131.793 1.63637 -3.03837 0
M  V30 1392 C 130.906 1.07307 -4.18461 0
M  V30 1393 C 130.041 2.18068 -4.84376 0
M  V30 1394 C 129.08 1.59147 -5.91049 0
M  V30 1395 N 128.217 2.63695 -6.50699 0
M  V30 1396 H 133.057 -0.122075 -2.9775 0
M  V30 1397 H 130.594 -0.0720154 -1.46924 0
M  V30 1398 H 132.552 2.30734 -3.47589 0
M  V30 1399 H 131.182 2.22623 -2.33749 0
M  V30 1400 H 130.234 0.292708 -3.79272 0
M  V30 1401 H 131.546 0.602193 -4.95152 0
M  V30 1402 H 130.7 2.93007 -5.31255 0
M  V30 1403 H 129.439 2.68504 -4.07133 0
M  V30 1404 H 128.444 0.827175 -5.43542 0
M  V30 1405 H 129.669 1.09549 -6.70206 0
M  V30 1406 H 127.615 3.13365 -5.76315 0
M  V30 1407 H 127.532 2.21263 -7.22896 0
M  V30 1408 H 128.8 3.3837 -7.02229 0
M  V30 1409 N 133.029 1.57378 -0.0835403 0
M  V30 1410 C 133.962 2.09016 0.915833 0
M  V30 1411 C 134.94 0.997993 1.2837 0
M  V30 1412 O 136.124 1.27219 1.39096 0
M  V30 1413 C 133.251 2.55757 2.22049 0
M  V30 1414 C 132.297 3.76522 2.00333 0
M  V30 1415 S 133.13 5.20661 1.25191 0
M  V30 1416 C 134.286 5.70743 2.56912 0
M  V30 1417 H 134.519 2.93457 0.476492 0
M  V30 1418 H 132.052 1.53856 0.129493 0
M  V30 1419 H 134.01 2.83346 2.97027 0
M  V30 1420 H 132.671 1.71564 2.63106 0
M  V30 1421 H 131.864 4.07256 2.96916 0
M  V30 1422 H 131.466 3.49367 1.33488 0
M  V30 1423 H 133.758 5.78304 3.52946 0
M  V30 1424 H 134.701 6.6944 2.30772 0
M  V30 1425 H 135.109 4.98616 2.64655 0
M  V30 1426 N 134.507 -0.190092 1.56449 0
M  V30 1427 C 135.437 -1.23816 1.97969 0
M  V30 1428 C 136.418 -1.47201 0.852395 0
M  V30 1429 O 137.603 -1.58854 1.1171 0
M  V30 1430 C 134.733 -2.5813 2.3235 0
M  V30 1431 C 133.687 -2.49348 3.47864 0
M  V30 1432 C 133.013 -3.8798 3.67934 0
M  V30 1433 C 134.313 -2.01424 4.81898 0
M  V30 1434 H 136.007 -0.89311 2.85769 0
M  V30 1435 H 133.553 -0.428177 1.37487 0
M  V30 1436 H 135.506 -3.31637 2.59991 0
M  V30 1437 H 134.23 -2.94386 1.41438 0
M  V30 1438 H 132.889 -1.78297 3.20321 0
M  V30 1439 H 132.537 -4.21597 2.74344 0
M  V30 1440 H 132.237 -3.82978 4.45648 0
M  V30 1441 H 133.761 -4.63101 3.97957 0
M  V30 1442 H 135.175 -2.64693 5.08538 0
M  V30 1443 H 133.572 -2.07413 5.63116 0
M  V30 1444 H 134.642 -0.967677 4.75146 0
M  V30 1445 N 135.985 -1.50799 -0.457987 0
M  V30 1446 C 137.234 -1.6168 -1.20593 0
M  V30 1447 C 137.547 -0.32888 -1.92815 0
M  V30 1448 O 138.753 -0.316773 -2.69646 0
M  V30 1449 C 137.209 -2.8545 -2.19195 0
M  V30 1450 C 136.817 -4.21168 -1.52715 0
M  V30 1451 C 138.561 -3.05681 -2.94549 0
M  V30 1452 C 136.468 -5.3611 -2.4968 0
M  V30 1453 H 135.398 -0.602134 -0.453818 0
M  V30 1454 H 138.049 -1.77245 -0.475031 0
M  V30 1455 H 136.431 -2.63472 -2.95632 0
M  V30 1456 H 137.605 -4.53449 -0.819775 0
M  V30 1457 H 135.92 -4.06648 -0.895922 0
M  V30 1458 H 138.517 -3.88727 -3.67145 0
M  V30 1459 H 138.86 -2.17929 -3.54701 0
M  V30 1460 H 139.393 -3.27901 -2.25223 0
M  V30 1461 H 136.132 -6.26057 -1.94249 0
M  V30 1462 H 135.652 -5.0823 -3.18532 0
M  V30 1463 H 137.331 -5.6722 -3.11241 0
M  V30 1464 N 137.463 0.71206 -1.40597 0
M  V30 1465 C 138.393 1.83889 -1.43899 0
M  V30 1466 C 139.374 1.67442 -0.299504 0
M  V30 1467 O 140.559 1.87421 -0.508624 0
M  V30 1468 C 137.689 3.21877 -1.30431 0
M  V30 1469 C 136.643 3.53002 -2.42019 0
M  V30 1470 C 135.969 4.90172 -2.13626 0
M  V30 1471 C 137.269 3.53643 -3.84362 0
M  V30 1472 H 138.963 1.81383 -2.38203 0
M  V30 1473 H 136.509 0.871237 -1.14654 0
M  V30 1474 H 138.462 4.00404 -1.31357 0
M  V30 1475 H 137.186 3.24968 -0.326049 0
M  V30 1476 H 135.845 2.76818 -2.40349 0
M  V30 1477 H 135.493 4.89869 -1.14182 0
M  V30 1478 H 135.193 5.11962 -2.88389 0
M  V30 1479 H 136.717 5.71028 -2.1624 0
M  V30 1480 H 138.131 4.22203 -3.87837 0
M  V30 1481 H 136.528 3.86961 -4.58673 0
M  V30 1482 H 137.598 2.52954 -4.13693 0
M  V30 1483 N 138.941 1.26152 0.944643 0
M  V30 1484 C 140.352 1.10454 1.50522 0
M  V30 1485 C 140.703 -0.31635 1.93633 0
M  V30 1486 O 139.828 -1.20746 1.79581 0
M  V30 1487 C 140.423 1.99891 2.73549 0
M  V30 1488 C 138.982 1.88348 3.25886 0
M  V30 1489 C 138.129 1.93447 1.9868 0
M  V30 1490 H 141.08 1.39292 0.760489 0
M  V30 1491 H 141.101 1.54477 3.47732 0
M  V30 1492 H 140.613 3.03297 2.42141 0
M  V30 1493 H 138.714 0.878636 3.62092 0
M  V30 1494 H 138.827 2.73696 3.93227 0
M  V30 1495 H 137.191 1.37456 2.14425 0
M  V30 1496 H 137.974 2.98476 1.69607 0
M  V30 1497 N 140.419 -1.14872 1.07899 0
M  V30 1498 C 141.349 -2.2193 0.725887 0
M  V30 1499 C 142.33 -1.67622 -0.28927 0
M  V30 1500 O 143.515 -1.93533 -0.160787 0
M  V30 1501 C 140.645 -3.47061 0.128856 0
M  V30 1502 C 139.599 -4.14363 1.07178 0
M  V30 1503 C 138.925 -5.33636 0.337229 0
M  V30 1504 C 140.225 -4.63492 2.40775 0
M  V30 1505 H 141.919 -2.51724 1.62097 0
M  V30 1506 H 139.465 -1.20991 0.780838 0
M  V30 1507 H 141.418 -4.21199 -0.130147 0
M  V30 1508 H 140.142 -3.16617 -0.80134 0
M  V30 1509 H 138.801 -3.42173 1.3158 0
M  V30 1510 H 138.449 -4.99449 -0.596606 0
M  V30 1511 H 138.149 -5.79609 0.965788 0
M  V30 1512 H 139.673 -6.10539 0.0861567 0
M  V30 1513 H 141.087 -5.2913 2.20669 0
M  V30 1514 H 139.484 -5.20148 2.99276 0
M  V30 1515 H 140.554 -3.78834 3.02676 0
M  V30 1516 N 141.898 -0.863906 -1.31812 0
M  V30 1517 C 143.147 -0.46801 -1.96195 0
M  V30 1518 C 143.46 0.983474 -1.69077 0
M  V30 1519 O 144.666 1.48523 -2.27273 0
M  V30 1520 C 143.122 -0.785995 -3.51212 0
M  V30 1521 C 142.73 -2.25383 -3.87178 0
M  V30 1522 C 144.474 -0.458274 -4.22019 0
M  V30 1523 C 142.381 -2.51455 -5.3528 0
M  V30 1524 H 141.311 -0.171283 -0.734287 0
M  V30 1525 H 143.962 -1.05597 -1.50072 0
M  V30 1526 H 142.344 -0.127359 -3.95795 0
M  V30 1527 H 143.518 -2.95502 -3.53575 0
M  V30 1528 H 141.833 -2.54698 -3.2942 0
M  V30 1529 H 144.43 -0.630369 -5.30971 0
M  V30 1530 H 144.773 0.600834 -4.11941 0
M  V30 1531 H 145.306 -1.07319 -3.8305 0
M  V30 1532 H 142.045 -3.56025 -5.50387 0
M  V30 1533 H 141.565 -1.85923 -5.70257 0
M  V30 1534 H 143.244 -2.35874 -6.02472 0
M  V30 1535 N 143.376 1.44774 -0.622745 0
M  V30 1536 C 144.625 2.01334 -0.121397 0
M  V30 1537 C 144.938 1.49505 1.26125 0
M  V30 1538 O 146.144 1.98139 1.85616 0
M  V30 1539 C 144.6 3.59516 -0.166298 0
M  V30 1540 C 144.208 4.20342 -1.54974 0
M  V30 1541 C 145.952 4.23582 0.279021 0
M  V30 1542 C 143.859 5.70721 -1.55021 0
M  V30 1543 H 142.789 0.752851 -0.0416172 0
M  V30 1544 H 145.44 1.66083 -0.780309 0
M  V30 1545 H 143.822 3.92027 0.559557 0
M  V30 1546 H 144.996 3.99381 -2.29851 0
M  V30 1547 H 143.311 3.68529 -1.93843 0
M  V30 1548 H 145.908 5.33868 0.298083 0
M  V30 1549 H 146.251 3.95327 1.30471 0
M  V30 1550 H 146.784 3.95843 -0.394063 0
M  V30 1551 H 143.523 6.03698 -2.55399 0
M  V30 1552 H 143.043 5.93829 -0.844245 0
M  V30 1553 H 144.722 6.34203 -1.28047 0
M  V30 1554 N 144.854 0.36279 1.53368 0
M  V30 1555 C 146.079 -0.231226 2.06107 0
M  V30 1556 C 146.504 -1.419 1.23474 0
M  V30 1557 O 145.862 -1.79524 0.253128 0
M  V30 1558 C 145.91 -0.605523 3.5548 0
M  V30 1559 O 145.014 -1.70312 3.7559 0
M  V30 1560 H 144.355 -0.034327 0.663112 0
M  V30 1561 H 146.885 0.522584 1.97814 0
M  V30 1562 H 146.895 -0.877314 3.98456 0
M  V30 1563 H 145.57 0.263004 4.15068 0
M  V30 1564 H 144.147 -1.4271 3.44512 0
M  V30 1565 N 146.332 -1.57332 0.0918853 0
M  V30 1566 C 147.557 -1.98995 -0.584442 0
M  V30 1567 C 147.982 -0.970528 -1.61128 0
M  V30 1568 O 147.34 0.0613904 -1.81196 0
M  V30 1569 C 147.388 -3.39636 -1.21161 0
M  V30 1570 O 146.492 -3.40447 -2.32744 0
M  V30 1571 H 145.833 -0.647165 -0.148572 0
M  V30 1572 H 148.363 -2.03873 0.172347 0
M  V30 1573 H 148.373 -3.7726 -1.55367 0
M  V30 1574 H 147.048 -4.13356 -0.459313 0
M  V30 1575 H 145.625 -3.14614 -2.0018 0
M  V30 1576 N 147.81 0.181792 -1.56548 0
M  V30 1577 C 148.74 1.22765 -1.98623 0
M  V30 1578 C 149.721 1.46747 -0.860189 0
M  V30 1579 O 150.906 1.58259 -1.12551 0
M  V30 1580 C 148.036 2.56894 -2.33715 0
M  V30 1581 C 146.99 2.475 -3.49182 0
M  V30 1582 C 146.316 3.86023 -3.69986 0
M  V30 1583 C 147.616 1.98866 -4.82959 0
M  V30 1584 H 149.31 0.877942 -2.86239 0
M  V30 1585 H 146.856 0.42088 -1.37712 0
M  V30 1586 H 148.809 3.30253 -2.61746 0
M  V30 1587 H 147.533 2.93632 -1.42997 0
M  V30 1588 H 146.192 1.76596 -3.21262 0
M  V30 1589 H 145.84 4.20136 -2.76576 0
M  V30 1590 H 145.54 3.80609 -4.47672 0
M  V30 1591 H 147.064 4.60984 -4.00407 0
M  V30 1592 H 148.478 2.61992 -5.09934 0
M  V30 1593 H 146.875 2.04424 -5.64208 0
M  V30 1594 H 147.945 0.942465 -4.75653 0
M  V30 1595 N 149.288 1.51039 0.449983 0
M  V30 1596 C 150.537 1.62317 1.19733 0
M  V30 1597 C 150.85 0.339101 1.92638 0
M  V30 1598 O 152.056 0.331069 2.69474 0
M  V30 1599 C 150.512 2.86608 2.17678 0
M  V30 1600 C 150.12 4.21972 1.50479 0
M  V30 1601 C 151.864 3.07239 2.92924 0
M  V30 1602 C 149.771 5.37426 2.46834 0
M  V30 1603 H 148.701 0.604532 0.450619 0
M  V30 1604 H 151.352 1.77494 0.465625 0
M  V30 1605 H 149.734 2.65037 2.94231 0
M  V30 1606 H 150.908 4.53878 0.795716 0
M  V30 1607 H 149.223 4.07117 0.874344 0
M  V30 1608 H 151.82 3.90668 3.65079 0
M  V30 1609 H 152.163 2.19807 3.5354 0
M  V30 1610 H 152.696 3.29091 2.23481 0
M  V30 1611 H 149.435 6.27079 1.90926 0
M  V30 1612 H 148.955 5.09912 3.15832 0
M  V30 1613 H 150.634 5.68862 3.08228 0
M  V30 1614 N 150.766 -0.704594 1.40972 0
M  V30 1615 C 151.994 -1.49354 1.43182 0
M  V30 1616 C 152.409 -1.88768 0.0345508 0
M  V30 1617 O 151.766 -1.56184 -0.944081 0
M  V30 1618 C 151.817 -2.76187 2.33244 0
M  V30 1619 O 151.538 -2.38436 3.67532 0
M  V30 1620 C 153.039 -3.7 2.44162 0
M  V30 1621 H 150.259 -0.460559 0.487982 0
M  V30 1622 H 152.803 -0.868261 1.85153 0
M  V30 1623 H 150.958 -3.34974 1.94606 0
M  V30 1624 H 151.372 -3.20126 4.15475 0
M  V30 1625 H 152.846 -4.55803 3.11364 0
M  V30 1626 H 153.323 -4.13867 1.47006 0
M  V30 1627 H 153.929 -3.17121 2.83398 0
M  V30 1628 N 152.244 -1.26651 -0.937939 0
M  V30 1629 C 153.492 -1.12165 -1.68118 0
M  V30 1630 C 153.813 0.334983 -1.92101 0
M  V30 1631 O 153.083 1.23583 -1.52 0
M  V30 1632 H 151.663 -0.412093 -0.623048 0
M  V30 1633 H 154.325 -1.59027 -1.12678 0
M  V30 1634 H 153.421 -1.64289 -2.6536 0
M  V30 1635 N 153.722 1.14298 -1.08507 0
M  V30 1636 C 154.652 2.21542 -0.737646 0
M  V30 1637 C 155.633 1.67773 0.280377 0
M  V30 1638 O 156.818 1.93616 0.150521 0
M  V30 1639 C 153.948 3.46988 -0.147259 0
M  V30 1640 C 152.902 4.13789 -1.09374 0
M  V30 1641 C 152.228 5.33449 -0.365524 0
M  V30 1642 C 153.528 4.62208 -2.4323 0
M  V30 1643 H 155.222 2.5086 -1.6343 0
M  V30 1644 H 152.768 1.20576 -0.787243 0
M  V30 1645 H 154.721 4.21262 0.107808 0
M  V30 1646 H 153.445 3.17037 0.784538 0
M  V30 1647 H 152.104 3.4147 -1.33393 0
M  V30 1648 H 151.752 4.99759 0.57011 0
M  V30 1649 H 151.452 5.79088 -0.996512 0
M  V30 1650 H 152.976 6.10485 -0.118534 0
M  V30 1651 H 154.39 5.27952 -2.23472 0
M  V30 1652 H 152.787 5.18553 -3.02031 0
M  V30 1653 H 153.857 3.77224 -3.04681 0
M  V30 1654 N 155.201 0.870884 1.31352 0
M  V30 1655 C 156.426 0.495957 2.01383 0
M  V30 1656 C 156.851 -0.904324 1.64935 0
M  V30 1657 O 156.209 -1.59687 0.858466 0
M  V30 1658 C 156.257 0.661433 3.54482 0
M  V30 1659 O 155.361 -0.298851 4.11316 0
M  V30 1660 H 154.702 0.197158 0.634054 0
M  V30 1661 H 157.232 1.17455 1.67527 0
M  V30 1662 H 157.242 0.555072 4.04207 0
M  V30 1663 H 155.917 1.68246 3.8035 0
M  V30 1664 H 154.494 -0.147368 3.72609 0
M  V30 1665 N 156.679 -1.44442 0.630414 0
M  V30 1666 C 157.927 -2.01653 0.134351 0
M  V30 1667 C 158.248 -1.49836 -1.24796 0
M  V30 1668 O 157.518 -0.701684 -1.82902 0
M  V30 1669 H 156.098 -0.74554 0.0466769 0
M  V30 1670 H 158.76 -1.76952 0.816955 0
M  V30 1671 H 157.856 -3.11935 0.101498 0
M  V30 1672 N 158.157 -0.370918 -1.53173 0
M  V30 1673 C 159.087 0.464847 -2.28826 0
M  V30 1674 C 160.068 1.07936 -1.31468 0
M  V30 1675 O 161.253 1.0956 -1.60344 0
M  V30 1676 C 158.383 1.60196 -3.08147 0
M  V30 1677 C 157.337 1.11443 -4.13237 0
M  V30 1678 C 156.663 2.3422 -4.80672 0
M  V30 1679 C 157.963 0.195384 -5.21934 0
M  V30 1680 H 159.657 -0.166329 -2.98938 0
M  V30 1681 H 157.203 -0.0814359 -1.4377 0
M  V30 1682 H 159.156 2.19332 -3.59822 0
M  V30 1683 H 157.88 2.26045 -2.35735 0
M  V30 1684 H 156.539 0.545727 -3.62515 0
M  V30 1685 H 156.187 2.98537 -4.04827 0
M  V30 1686 H 155.887 2.02269 -5.51689 0
M  V30 1687 H 157.411 2.94032 -5.35143 0
M  V30 1688 H 158.825 0.694375 -5.69079 0
M  V30 1689 H 157.222 -0.0335027 -6.00091 0
M  V30 1690 H 158.292 -0.760961 -4.78892 0
M  V30 1691 N 159.635 1.57281 -0.100228 0
M  V30 1692 C 160.912 1.86014 0.604812 0
M  V30 1693 C 161.292 0.998025 1.86018 0
M  V30 1694 O 160.64 0.0718184 2.28387 0
M  V30 1695 C 160.85 3.36784 0.915278 0
M  V30 1696 C 162.198 4.04957 1.27651 0
M  V30 1697 O 163.222 3.41695 1.00613 0
M  V30 1698 O 162.081 5.16593 1.7831 0
M  V30 1699 H 159.175 0.76942 0.303185 0
M  V30 1700 H 161.721 1.69176 -0.133313 0
M  V30 1701 H 160.493 3.91292 0.0248896 0
M  V30 1702 H 160.116 3.58987 1.70921 0
M  V30 1703 N 161.113 -0.173488 1.56642 0
M  V30 1704 C 162.076 -1.19859 1.95362 0
M  V30 1705 C 163.076 -1.37296 0.83704 0
M  V30 1706 O 164.266 -1.34739 1.10413 0
M  V30 1707 C 161.398 -2.56405 2.24654 0
M  V30 1708 H 162.591 -0.867062 2.87092 0
M  V30 1709 H 160.144 -0.415853 1.50666 0
M  V30 1710 H 160.879 -2.94576 1.35631 0
M  V30 1711 H 160.664 -2.45115 3.06041 0
M  V30 1712 H 162.154 -3.30287 2.5554 0
M  V30 1713 N 162.591 -1.51276 -0.441967 0
M  V30 1714 C 163.538 -1.72256 -1.53612 0
M  V30 1715 C 164.508 -0.564164 -1.56225 0
M  V30 1716 O 165.693 -0.798074 -1.73307 0
M  V30 1717 C 162.833 -1.84932 -2.91366 0
M  V30 1718 C 161.946 -3.12459 -2.98317 0
M  V30 1719 C 161.081 -3.15758 -4.27166 0
M  V30 1720 C 160.12 -4.37619 -4.27967 0
M  V30 1721 N 159.257 -4.38493 -5.48333 0
M  V30 1722 H 164.097 -2.65654 -1.35026 0
M  V30 1723 H 161.634 -1.31662 -0.656009 0
M  V30 1724 H 163.592 -1.90263 -3.7129 0
M  V30 1725 H 162.222 -0.949461 -3.08521 0
M  V30 1726 H 161.274 -3.1646 -2.11086 0
M  V30 1727 H 162.586 -4.02382 -2.94771 0
M  V30 1728 H 161.74 -3.19979 -5.15459 0
M  V30 1729 H 160.479 -2.23715 -4.33362 0
M  V30 1730 H 159.484 -4.33579 -3.38067 0
M  V30 1731 H 160.709 -5.30921 -4.23438 0
M  V30 1732 H 158.655 -3.49318 -5.55259 0
M  V30 1733 H 158.572 -5.22219 -5.46647 0
M  V30 1734 H 159.84 -4.469 -6.38671 0
M  V30 1735 N 164.069 0.697108 -1.41344 0
M  V30 1736 C 165.032 1.79281 -1.42797 0
M  V30 1737 C 166.032 1.57607 -0.318837 0
M  V30 1738 O 167.222 1.64309 -0.578642 0
M  V30 1739 C 164.354 3.17632 -1.23785 0
M  V30 1740 H 165.547 1.79385 -2.40335 0
M  V30 1741 H 163.1 0.904582 -1.27464 0
M  V30 1742 H 163.835 3.23167 -0.270814 0
M  V30 1743 H 163.62 3.34765 -2.04144 0
M  V30 1744 H 165.11 3.97617 -1.27633 0
M  V30 1745 N 165.547 1.27147 0.931209 0
M  V30 1746 C 166.772 1.16191 1.71797 0
M  V30 1747 C 167.197 -0.278004 1.86034 0
M  V30 1748 O 166.555 -1.20137 1.35782 0
M  V30 1749 C 166.603 1.84673 3.09723 0
M  V30 1750 O 165.707 1.14231 3.96264 0
M  V30 1751 H 165.048 0.404303 0.526721 0
M  V30 1752 H 167.578 1.68152 1.1656 0
M  V30 1753 H 167.588 1.91893 3.60057 0
M  V30 1754 H 166.263 2.89421 2.98677 0
M  V30 1755 H 164.84 1.15056 3.54706 0
M  V30 1756 N 167.025 -1.13721 1.09112 0
M  V30 1757 C 168.273 -1.84559 0.823562 0
M  V30 1758 C 168.594 -1.83754 -0.652658 0
M  V30 1759 O 167.864 -1.29102 -1.47342 0
M  V30 1760 H 166.444 -0.683376 0.301673 0
M  V30 1761 H 169.106 -1.37771 1.37859 0
M  V30 1762 H 168.202 -2.8917 1.17419 0
M  V30 1763 N 168.503 -0.877838 -1.30888 0
M  V30 1764 C 169.919 -0.570844 -1.49042 0
M  V30 1765 C 170.119 0.893159 -1.80624 0
M  V30 1766 O 169.175 1.67485 -1.88958 0
M  V30 1767 C 170.488 -1.47784 -2.61878 0
M  V30 1768 C 172.036 -1.48071 -2.75761 0
M  V30 1769 C 172.511 -2.37347 -3.91702 0
M  V30 1770 N 174.002 -2.35271 -3.99001 0
M  V30 1771 C 174.737 -3.01063 -4.88004 0
M  V30 1772 N 174.233 -3.76055 -5.81854 0
M  V30 1773 N 176.026 -2.90332 -4.81315 0
M  V30 1774 H 168.177 -1.82502 -1.0866 0
M  V30 1775 H 170.44 -0.780797 -0.537644 0
M  V30 1776 H 170.146 -2.51993 -2.45341 0
M  V30 1777 H 170.02 -1.18215 -3.58197 0
M  V30 1778 H 172.407 -0.446166 -2.91708 0
M  V30 1779 H 172.488 -1.81668 -1.80085 0
M  V30 1780 H 172.132 -3.40883 -3.76512 0
M  V30 1781 H 172.062 -2.01071 -4.86701 0
M  V30 1782 H 174.553 -1.80768 -3.3186 0
M  V30 1783 H 174.866 -4.23366 -6.46514 0
M  V30 1784 H 173.211 -3.80163 -5.81808 0
M  V30 1785 H 176.402 -2.31278 -4.06974 0
M  V30 1786 H 176.575 -3.41885 -5.50471 0
M  V30 1787 N 169.982 1.44106 -0.638065 0
M  V30 1788 C 170.912 2.33448 0.0494287 0
M  V30 1789 C 171.893 1.48606 0.827672 0
M  V30 1790 O 173.078 1.77308 0.792173 0
M  V30 1791 C 170.208 3.31771 1.02691 0
M  V30 1792 C 169.162 4.26485 0.359823 0
M  V30 1793 C 168.488 5.14729 1.44769 0
M  V30 1794 C 169.788 5.17056 -0.738296 0
M  V30 1795 H 171.482 2.91183 -0.696636 0
M  V30 1796 H 169.028 1.40014 -0.336456 0
M  V30 1797 H 170.981 3.93161 1.51666 0
M  V30 1798 H 169.705 2.7226 1.80395 0
M  V30 1799 H 168.364 3.66437 -0.10934 0
M  V30 1800 H 168.012 4.51566 2.21578 0
M  V30 1801 H 167.712 5.78913 1.00668 0
M  V30 1802 H 169.236 5.78991 1.93911 0
M  V30 1803 H 170.65 5.72342 -0.331354 0
M  V30 1804 H 169.047 5.89879 -1.10286 0
M  V30 1805 H 170.117 4.57652 -1.60258 0
M  V30 1806 N 171.46 0.379036 1.52974 0
M  V30 1807 C 172.708 -0.206014 2.01047 0
M  V30 1808 C 173.029 -1.48175 1.26765 0
M  V30 1809 O 172.299 -1.92085 0.384743 0
M  V30 1810 H 170.879 -0.0791184 0.742798 0
M  V30 1811 H 173.541 0.508366 1.88153 0
M  V30 1812 H 172.637 -0.423501 3.09213 0
M  V30 1813 N 172.938 -1.57226 0.108567 0
M  V30 1814 C 174.166 -1.99179 -0.559954 0
M  V30 1815 C 174.581 -0.988022 -1.60884 0
M  V30 1816 O 173.938 0.0205512 -1.82488 0
M  V30 1817 C 173.989 -3.41159 -1.19552 0
M  V30 1818 O 173.71 -4.37694 -0.188577 0
M  V30 1819 C 175.211 -3.98188 -1.94837 0
M  V30 1820 H 172.431 -0.654228 -0.149088 0
M  V30 1821 H 174.975 -2.03598 0.19183 0
M  V30 1822 H 173.13 -3.37711 -1.89815 0
M  V30 1823 H 173.544 -5.20469 -0.649014 0
M  V30 1824 H 175.018 -4.99644 -2.34648 0
M  V30 1825 H 175.495 -3.3675 -2.81951 0
M  V30 1826 H 176.101 -4.0515 -1.2936 0
M  V30 1827 N 174.416 0.165178 -1.56732 0
M  V30 1828 C 175.832 0.517174 -1.50988 0
M  V30 1829 C 176.032 1.84331 -0.813894 0
M  V30 1830 O 175.088 2.49672 -0.37682 0
M  V30 1831 C 176.401 0.544261 -2.95733 0
M  V30 1832 C 177.949 0.631039 -3.06573 0
M  V30 1833 C 178.424 0.68896 -4.52788 0
M  V30 1834 N 179.915 0.751683 -4.5706 0
M  V30 1835 C 180.65 0.817177 -5.67547 0
M  V30 1836 N 180.146 0.843129 -6.8765 0
M  V30 1837 N 181.939 0.856668 -5.55534 0
M  V30 1838 H 174.09 -0.704318 -2.00382 0
M  V30 1839 H 176.353 -0.254687 -0.913148 0
M  V30 1840 H 176.059 -0.361607 -3.49836 0
M  V30 1841 H 175.933 1.3886 -3.5071 0
M  V30 1842 H 178.32 1.52733 -2.52501 0
M  V30 1843 H 178.401 -0.240095 -2.54671 0
M  V30 1844 H 178.045 -0.2031 -5.07494 0
M  V30 1845 H 177.975 1.57633 -5.02454 0
M  V30 1846 H 180.466 0.739661 -3.70591 0
M  V30 1847 H 180.779 0.894448 -7.67606 0
M  V30 1848 H 179.124 0.811304 -6.90248 0
M  V30 1849 H 182.315 0.833437 -4.60621 0
M  V30 1850 H 182.488 0.904247 -6.4166 0
M  V30 1851 N 175.894 1.51508 0.433938 0
M  V30 1852 C 176.857 1.72473 1.50949 0
M  V30 1853 C 177.857 0.594725 1.49398 0
M  V30 1854 O 179.047 0.862315 1.5136 0
M  V30 1855 C 176.179 1.78431 2.90474 0
M  V30 1856 H 177.372 2.68467 1.33662 0
M  V30 1857 H 174.925 1.41549 0.662836 0
M  V30 1858 H 175.66 0.842645 3.13161 0
M  V30 1859 H 175.445 2.60558 2.93005 0
M  V30 1860 H 176.935 1.96479 3.68491 0
M  V30 1861 N 177.372 -0.689602 1.41712 0
M  V30 1862 C 178.305 -1.81403 1.3845 0
M  V30 1863 C 179.283 -1.60653 0.250874 0
M  V30 1864 O 180.467 -1.83323 0.43874 0
M  V30 1865 C 177.594 -3.18176 1.1611 0
M  V30 1866 C 176.64 -3.57705 2.3227 0
M  V30 1867 S 177.473 -3.61827 3.94767 0
M  V30 1868 C 178.629 -5.01318 3.74742 0
M  V30 1869 H 178.862 -1.83893 2.33603 0
M  V30 1870 H 176.395 -0.858878 1.28307 0
M  V30 1871 H 178.353 -3.97132 1.03907 0
M  V30 1872 H 177.014 -3.13288 0.225668 0
M  V30 1873 H 176.207 -4.57082 2.12349 0
M  V30 1874 H 175.809 -2.86073 2.40911 0
M  V30 1875 H 178.101 -5.88986 3.34817 0
M  V30 1876 H 179.044 -5.26283 4.73743 0
M  V30 1877 H 179.452 -4.73138 3.07898 0
M  V30 1878 N 178.85 -1.27639 -0.924453 0
M  V30 1879 C 180.096 -1.14336 -1.67497 0
M  V30 1880 C 180.429 0.309465 -1.91718 0
M  V30 1881 O 179.704 1.22608 -1.50989 0
M  V30 1882 C 179.987 -1.93096 -3.0395 0
M  V30 1883 C 179.84 -3.46381 -2.8695 0
M  V30 1884 C 181.159 -1.73798 -4.0433 0
M  V30 1885 H 178.278 -0.416728 -0.607871 0
M  V30 1886 H 180.92 -1.56832 -1.07256 0
M  V30 1887 H 179.07 -1.56982 -3.55372 0
M  V30 1888 H 180.742 -3.92343 -2.42621 0
M  V30 1889 H 178.985 -3.72557 -2.22225 0
M  V30 1890 H 179.656 -3.96735 -3.83804 0
M  V30 1891 H 182.132 -2.05293 -3.61931 0
M  V30 1892 H 181.008 -2.31294 -4.97789 0
M  V30 1893 H 181.269 -0.686725 -4.36734 0
M  V30 1894 N 180.328 1.1314 -1.09713 0
M  V30 1895 C 181.558 1.88048 -0.855656 0
M  V30 1896 C 181.966 1.79537 0.596919 0
M  V30 1897 O 181.309 1.16196 1.42282 0
M  V30 1898 C 181.371 3.38314 -1.21589 0
M  V30 1899 C 181.035 3.70605 -2.67397 0
M  V30 1900 C 182.032 3.69596 -3.65643 0
M  V30 1901 C 179.717 4.0017 -3.03593 0
M  V30 1902 C 181.711 3.977 -4.9811 0
M  V30 1903 C 179.398 4.27935 -4.36251 0
M  V30 1904 C 180.396 4.26685 -5.33318 0
M  V30 1905 O 180.084 4.53767 -6.63589 0
M  V30 1906 H 179.816 0.60208 -0.307368 0
M  V30 1907 H 182.37 1.44128 -1.46343 0
M  V30 1908 H 180.6 3.82752 -0.551177 0
M  V30 1909 H 182.289 3.94552 -0.953083 0
M  V30 1910 H 183.055 3.46826 -3.39023 0
M  V30 1911 H 178.934 4.00289 -2.2867 0
M  V30 1912 H 182.478 3.9664 -5.73866 0
M  V30 1913 H 178.375 4.50178 -4.62613 0
M  V30 1914 H 179.143 4.71422 -6.69107 0
M  V30 1915 N 181.806 0.884767 1.30421 0
M  V30 1916 C 183.036 0.517293 2.00019 0
M  V30 1917 C 183.444 -0.898632 1.66497 0
M  V30 1918 O 182.787 -1.60245 0.898181 0
M  V30 1919 C 182.849 0.612025 3.54252 0
M  V30 1920 C 182.513 1.99222 4.1129 0
M  V30 1921 C 183.51 2.9616 4.273 0
M  V30 1922 C 181.195 2.29755 4.46674 0
M  V30 1923 C 183.189 4.21764 4.77906 0
M  V30 1924 C 180.876 3.55606 4.96979 0
M  V30 1925 C 181.874 4.51425 5.12547 0
M  V30 1926 O 181.562 5.75043 5.61766 0
M  V30 1927 H 181.294 0.198529 0.64619 0
M  V30 1928 H 183.848 1.1919 1.67281 0
M  V30 1929 H 182.078 -0.119561 3.86515 0
M  V30 1930 H 183.767 0.255859 4.05093 0
M  V30 1931 H 184.533 2.73882 4.00267 0
M  V30 1932 H 180.412 1.55942 4.33824 0
M  V30 1933 H 183.956 4.96561 4.89972 0
M  V30 1934 H 179.853 3.7772 5.23448 0
M  V30 1935 H 180.621 5.77422 5.80109 0
M  V30 1936 N 183.284 -1.43765 0.645699 0
M  V30 1937 C 184.217 -2.2798 -0.100072 0
M  V30 1938 C 185.195 -1.39391 -0.837194 0
M  V30 1939 O 186.379 -1.68833 -0.838306 0
M  V30 1940 C 183.506 -3.18643 -1.14823 0
M  V30 1941 C 182.552 -4.2344 -0.510009 0
M  V30 1942 S 183.385 -5.30761 0.710824 0
M  V30 1943 C 184.541 -6.24992 -0.33699 0
M  V30 1944 H 184.774 -2.90884 0.614322 0
M  V30 1945 H 182.307 -1.48166 0.434304 0
M  V30 1946 H 184.265 -3.71424 -1.74799 0
M  V30 1947 H 182.926 -2.54932 -1.8349 0
M  V30 1948 H 182.119 -4.86948 -1.29991 0
M  V30 1949 H 181.721 -3.73997 0.0154577 0
M  V30 1950 H 184.013 -6.66691 -1.20537 0
M  V30 1951 H 184.956 -7.07612 0.262879 0
M  V30 1952 H 185.364 -5.60517 -0.669425 0
M  V30 1953 N 184.763 -0.387143 -1.52771 0
M  V30 1954 C 185.988 0.198407 -2.06449 0
M  V30 1955 C 186.413 1.39918 -1.25716 0
M  V30 1956 O 185.771 1.79099 -0.281657 0
M  V30 1957 C 185.819 0.548893 -3.56398 0
M  V30 1958 O 184.923 1.64315 -3.78252 0
M  V30 1959 H 184.264 0.0237731 -0.663574 0
M  V30 1960 H 186.794 -0.553989 -1.96957 0
M  V30 1961 H 186.804 0.813812 -3.99801 0
M  V30 1962 H 185.479 -0.329005 -4.14597 0
M  V30 1963 H 184.056 1.37211 -3.46738 0
M  V30 1964 N 186.241 1.57166 -0.116904 0
M  V30 1965 C 187.469 1.99473 0.549383 0
M  V30 1966 C 187.884 0.996541 1.60357 0
M  V30 1967 O 187.241 -0.0108731 1.82497 0
M  V30 1968 C 187.292 3.41788 1.17741 0
M  V30 1969 O 187.013 4.37788 0.165362 0
M  V30 1970 C 188.514 3.99216 1.92722 0
M  V30 1971 H 185.734 0.655009 0.145616 0
M  V30 1972 H 188.278 2.03494 -0.202625 0
M  V30 1973 H 186.433 3.38713 1.88021 0
M  V30 1974 H 186.847 5.20806 0.621403 0
M  V30 1975 H 188.321 5.00882 2.31995 0
M  V30 1976 H 188.798 3.3824 2.80161 0
M  V30 1977 H 189.404 4.0583 1.27209 0
M  V30 1978 N 187.719 -0.156864 1.56817 0
M  V30 1979 C 188.947 -0.886316 1.86955 0
M  V30 1980 C 189.362 -1.75185 0.703975 0
M  V30 1981 O 188.719 -1.79555 -0.326552 0
M  V30 1982 C 188.77 -1.75117 3.16253 0
M  V30 1983 O 188.491 -0.920537 4.2832 0
M  V30 1984 C 189.992 -2.58905 3.59837 0
M  V30 1985 H 187.212 -0.25678 0.619923 0
M  V30 1986 H 189.756 -0.152615 2.0393 0
M  V30 1987 H 187.911 -2.43805 3.01062 0
M  V30 1988 H 188.325 -1.51337 5.02192 0
M  V30 1989 H 189.799 -3.1518 4.53172 0
M  V30 1990 H 190.276 -3.34472 2.84649 0
M  V30 1991 H 190.882 -1.95526 3.7769 0
M  V30 1992 N 189.197 -1.51736 -0.425897 0
M  V30 1993 C 190.446 -1.64201 -1.17136 0
M  V30 1994 C 190.759 -0.369705 -1.92074 0
M  V30 1995 O 191.965 -0.373898 -2.68913 0
M  V30 1996 C 190.421 -2.90035 -2.13091 0
M  V30 1997 C 190.029 -4.24312 -1.43747 0
M  V30 1998 C 191.773 -3.1186 -2.87999 0
M  V30 1999 C 189.68 -5.41285 -2.38253 0
M  V30 2000 H 188.61 -0.611624 -0.440944 0
M  V30 2001 H 191.261 -1.78212 -0.437328 0
M  V30 2002 H 189.643 -2.69684 -2.89977 0
M  V30 2003 H 190.817 -4.55086 -0.723408 0
M  V30 2004 H 189.132 -4.08456 -0.809465 0
M  V30 2005 H 191.729 -3.96427 -3.58817 0
M  V30 2006 H 192.072 -2.25403 -3.49999 0
M  V30 2007 H 192.605 -3.32605 -2.18217 0
M  V30 2008 H 189.344 -6.30037 -1.80925 0
M  V30 2009 H 188.864 -5.14872 -3.0768 0
M  V30 2010 H 190.543 -5.73694 -2.99139 0
M  V30 2011 N 190.675 0.682077 -1.42076 0
M  V30 2012 C 191.924 1.43786 -1.41451 0
M  V30 2013 C 192.237 1.95574 -0.0317074 0
M  V30 2014 O 193.443 2.71326 0.0971462 0
M  V30 2015 C 191.899 2.60071 -2.48779 0
M  V30 2016 C 191.507 2.15013 -3.93031 0
M  V30 2017 C 193.251 3.37626 -2.57311 0
M  V30 2018 C 191.158 3.28336 -4.91883 0
M  V30 2019 H 190.088 0.540143 -0.526082 0
M  V30 2020 H 192.739 0.739157 -1.67955 0
M  V30 2021 H 191.121 3.32275 -2.15429 0
M  V30 2022 H 192.295 1.5001 -4.35699 0
M  V30 2023 H 190.61 1.50416 -3.88284 0
M  V30 2024 H 193.207 4.22012 -3.28345 0
M  V30 2025 H 193.55 3.83727 -1.61429 0
M  V30 2026 H 194.083 2.72488 -2.89819 0
M  V30 2027 H 190.822 2.87234 -5.89217 0
M  V30 2028 H 190.342 3.92145 -4.53853 0
M  V30 2029 H 192.021 3.93913 -5.13265 0
M  V30 2030 N 192.153 1.28127 0.917671 0
M  V30 2031 C 193.116 1.11744 2.00115 0
M  V30 2032 C 194.116 0.0583052 1.60694 0
M  V30 2033 O 195.306 0.303755 1.71531 0
M  V30 2034 C 192.438 0.704862 3.33533 0
M  V30 2035 H 193.631 2.07966 2.16079 0
M  V30 2036 H 191.184 1.11058 1.09981 0
M  V30 2037 H 191.919 -0.258299 3.2327 0
M  V30 2038 H 191.704 1.4699 3.63505 0
M  V30 2039 H 193.194 0.612768 4.1308 0
M  V30 2040 N 193.631 -1.12557 1.10312 0
M  V30 2041 C 194.594 -2.16434 0.75424 0
M  V30 2042 C 195.594 -1.59278 -0.220685 0
M  V30 2043 O 196.784 -1.742 0.00230591 0
M  V30 2044 C 193.916 -3.40699 0.116987 0
M  V30 2045 H 195.109 -2.48811 1.67431 0
M  V30 2046 H 192.662 -1.27542 0.903475 0
M  V30 2047 H 193.397 -3.13921 -0.813877 0
M  V30 2048 H 193.182 -3.83459 0.818613 0
M  V30 2049 H 194.672 -4.17451 -0.111387 0
M  V30 2050 N 195.109 -0.891671 -1.2995 0
M  V30 2051 C 196.355 -0.514261 -1.96171 0
M  V30 2052 C 196.688 0.935506 -1.70182 0
M  V30 2053 O 195.963 1.66204 -1.01028 0
M  V30 2054 C 196.246 -0.797719 -3.51153 0
M  V30 2055 C 196.099 -2.2986 -3.86632 0
M  V30 2056 C 197.418 -0.278749 -4.39216 0
M  V30 2057 H 194.537 -0.188314 -0.712535 0
M  V30 2058 H 197.179 -1.11689 -1.53706 0
M  V30 2059 H 195.329 -0.284826 -3.87455 0
M  V30 2060 H 197.001 -2.88042 -3.60319 0
M  V30 2061 H 195.244 -2.76257 -3.34462 0
M  V30 2062 H 195.915 -2.44753 -4.94773 0
M  V30 2063 H 198.391 -0.717825 -4.09862 0
M  V30 2064 H 197.267 -0.506353 -5.46559 0
M  V30 2065 H 197.528 0.820266 -4.34424 0
M  V30 2066 N 196.587 1.43421 -0.653314 0
M  V30 2067 C 197.517 2.33487 0.0246656 0
M  V30 2068 C 198.498 1.49475 0.811863 0
M  V30 2069 O 199.683 1.78139 0.773322 0
M  V30 2070 C 196.813 3.32841 0.99166 0
M  V30 2071 C 195.767 4.26842 0.314568 0
M  V30 2072 C 195.093 5.16236 1.39302 0
M  V30 2073 C 196.393 5.16243 -0.793095 0
M  V30 2074 H 198.087 2.90427 -0.727481 0
M  V30 2075 H 195.633 1.39649 -0.351287 0
M  V30 2076 H 197.586 3.94747 1.47487 0
M  V30 2077 H 196.31 2.74158 1.77497 0
M  V30 2078 H 194.969 3.663 -0.148199 0
M  V30 2079 H 194.617 4.53891 2.16776 0
M  V30 2080 H 194.317 5.79948 0.945223 0
M  V30 2081 H 195.841 5.81015 1.87759 0
M  V30 2082 H 197.255 5.71958 -0.392039 0
M  V30 2083 H 195.652 5.88676 -1.16536 0
M  V30 2084 H 196.722 4.55927 -1.65103 0
M  V30 2085 N 198.065 0.39524 1.52563 0
M  V30 2086 C 199.313 -0.184678 2.01254 0
M  V30 2087 C 199.634 -1.46822 1.28329 0
M  V30 2088 O 198.904 -1.91666 0.405094 0
M  V30 2089 H 197.484 -0.0712355 0.743596 0
M  V30 2090 H 200.146 0.528293 1.87603 0
M  V30 2091 H 199.242 -0.390681 3.09645 0
M  V30 2092 N 199.544 -1.57102 0.125237 0
M  V30 2093 C 200.79 -1.95697 -0.532035 0
M  V30 2094 C 201.123 -1.009 -1.6593 0
M  V30 2095 O 200.398 -0.047347 -1.94442 0
M  V30 2096 C 200.681 -3.44181 -1.05884 0
M  V30 2097 C 200.534 -4.49752 0.0654392 0
M  V30 2098 C 201.853 -3.94655 -1.9477 0
M  V30 2099 H 198.972 -0.711571 -0.191925 0
M  V30 2100 H 201.614 -1.88923 0.20206 0
M  V30 2101 H 199.764 -3.50085 -1.68442 0
M  V30 2102 H 201.436 -4.55943 0.700982 0
M  V30 2103 H 199.679 -4.27653 0.727709 0
M  V30 2104 H 200.35 -5.50924 -0.344505 0
M  V30 2105 H 202.826 -3.91094 -1.42074 0
M  V30 2106 H 201.702 -4.99057 -2.28546 0
M  V30 2107 H 201.963 -3.35718 -2.87656 0
M  V30 2108 N 201.022 0.148545 -1.56898 0
M  V30 2109 C 202.271 0.85984 -1.82454 0
M  V30 2110 C 202.584 1.82406 -0.706229 0
M  V30 2111 O 203.79 2.57938 -0.847349 0
M  V30 2112 C 202.246 1.57967 -3.2338 0
M  V30 2113 C 201.854 0.65794 -4.43142 0
M  V30 2114 C 203.598 2.27784 -3.58211 0
M  V30 2115 C 201.505 1.3793 -5.75091 0
M  V30 2116 H 200.435 0.324834 -0.68044 0
M  V30 2117 H 203.086 0.112588 -1.83154 0
M  V30 2118 H 201.468 2.37249 -3.17063 0
M  V30 2119 H 202.642 -0.0995497 -4.60692 0
M  V30 2120 H 200.957 0.0682643 -4.16344 0
M  V30 2121 H 203.554 2.8239 -4.54048 0
M  V30 2122 H 203.897 3.04204 -2.84193 0
M  V30 2123 H 204.43 1.55421 -3.66182 0
M  V30 2124 H 201.169 0.656982 -6.52199 0
M  V30 2125 H 200.689 2.10954 -5.61479 0
M  V30 2126 H 202.368 1.92063 -6.17835 0
M  V30 2127 N 202.5 1.5196 0.417844 0
M  V30 2128 C 203.43 1.77634 1.51554 0
M  V30 2129 C 204.411 0.626918 1.58126 0
M  V30 2130 O 205.596 0.871632 1.7354 0
M  V30 2131 C 202.726 1.91911 2.8946 0
M  V30 2132 C 201.68 3.07463 2.97743 0
M  V30 2133 C 201.006 3.06951 4.37819 0
M  V30 2134 C 202.306 4.47082 2.70027 0
M  V30 2135 H 204 2.6955 1.3032 0
M  V30 2136 H 201.546 1.29706 0.625492 0
M  V30 2137 H 203.499 2.08455 3.6623 0
M  V30 2138 H 202.223 0.966598 3.11969 0
M  V30 2139 H 200.882 2.90656 2.23416 0
M  V30 2140 H 200.53 2.09438 4.57323 0
M  V30 2141 H 200.23 3.84556 4.44286 0
M  V30 2142 H 201.754 3.25613 5.16535 0
M  V30 2143 H 203.168 4.6414 3.36522 0
M  V30 2144 H 201.565 5.2654 2.87881 0
M  V30 2145 H 202.635 4.55777 1.65514 0
M  V30 2146 N 203.978 -0.674533 1.42435 0
M  V30 2147 C 205.224 -1.43671 1.43131 0
M  V30 2148 C 205.557 -1.94142 0.0476021 0
M  V30 2149 O 204.832 -1.70924 -0.928188 0
M  V30 2150 C 205.115 -2.63355 2.45594 0
M  V30 2151 C 204.968 -2.18514 3.93156 0
M  V30 2152 C 206.287 -3.65571 2.45043 0
M  V30 2153 H 203.406 -0.521077 0.521198 0
M  V30 2154 H 206.048 -0.766551 1.7385 0
M  V30 2155 H 204.198 -3.2053 2.19528 0
M  V30 2156 H 205.87 -1.66504 4.30202 0
M  V30 2157 H 204.113 -1.50086 4.07009 0
M  V30 2158 H 204.784 -3.04484 4.60428 0
M  V30 2159 H 207.26 -3.18113 2.68223 0
M  V30 2160 H 206.136 -4.46893 3.18713 0
M  V30 2161 H 206.397 -4.16716 1.47649 0
M  V30 2162 N 205.456 -1.28612 -0.910864 0
M  V30 2163 C 206.386 -1.15326 -2.03032 0
M  V30 2164 C 207.367 -0.0502924 -1.70026 0
M  V30 2165 O 208.552 -0.227797 -1.92859 0
M  V30 2166 C 205.682 -0.817343 -3.37545 0
M  V30 2167 C 204.636 -1.8754 -3.84724 0
M  V30 2168 C 203.962 -1.39305 -5.16235 0
M  V30 2169 C 205.262 -3.28244 -4.06267 0
M  V30 2170 H 206.956 -2.08975 -2.14406 0
M  V30 2171 H 204.502 -1.00612 -1.03021 0
M  V30 2172 H 206.455 -0.711151 -4.15356 0
M  V30 2173 H 205.179 0.154846 -3.26233 0
M  V30 2174 H 203.838 -1.97079 -3.09121 0
M  V30 2175 H 203.486 -0.409846 -5.01328 0
M  V30 2176 H 203.186 -2.10057 -5.48771 0
M  V30 2177 H 204.71 -1.30014 -5.96598 0
M  V30 2178 H 206.124 -3.21611 -4.74594 0
M  V30 2179 H 204.521 -3.96855 -4.5014 0
M  V30 2180 H 205.591 -3.72048 -3.10979 0
M  V30 2181 N 206.934 1.1197 -1.10907 0
M  V30 2182 C 207.897 2.16031 -0.765707 0
M  V30 2183 C 208.897 1.59393 0.212235 0
M  V30 2184 O 210.087 1.74196 -0.0115441 0
M  V30 2185 C 207.219 3.40632 -0.135053 0
M  V30 2186 H 208.412 2.47919 -1.68748 0
M  V30 2187 H 205.965 1.27061 -0.910226 0
M  V30 2188 H 206.7 3.14348 0.797218 0
M  V30 2189 H 206.485 3.8302 -0.838937 0
M  V30 2190 H 207.975 4.17505 0.0892469 0
M  V30 2191 N 208.412 0.89855 1.29475 0
M  V30 2192 C 209.661 0.519863 1.94885 0
M  V30 2193 C 209.974 -0.9383 1.71625 0
M  V30 2194 O 211.18 -1.42445 2.31131 0
M  V30 2195 C 209.636 0.878836 3.49005 0
M  V30 2196 C 209.244 2.35569 3.81066 0
M  V30 2197 C 210.988 0.570004 4.20656 0
M  V30 2198 C 208.895 2.65558 5.28425 0
M  V30 2199 H 207.825 0.190692 0.729488 0
M  V30 2200 H 210.476 1.09539 1.47219 0
M  V30 2201 H 208.858 0.232253 3.95318 0
M  V30 2202 H 210.032 3.04773 3.45616 0
M  V30 2203 H 208.347 2.63343 3.22552 0
M  V30 2204 H 210.944 0.770925 5.29113 0
M  V30 2205 H 211.287 -0.491404 4.1339 0
M  V30 2206 H 211.82 1.17438 3.8007 0
M  V30 2207 H 208.559 3.70493 5.40754 0
M  V30 2208 H 208.079 2.00977 5.65127 0
M  V30 2209 H 209.758 2.51765 5.96006 0
M  V30 2210 N 209.89 -1.43072 0.660911 0
M  V30 2211 C 210.84 -2.27948 -0.04847 0
M  V30 2212 C 211.824 -1.40325 -0.787246 0
M  V30 2213 O 213.016 -1.63893 -0.668446 0
M  V30 2214 C 210.145 -3.28143 -1.00881 0
M  V30 2215 C 209.231 -4.23252 -0.268108 0
M  V30 2216 N 209.622 -5.00656 0.719528 0
M  V30 2217 C 207.92 -4.43092 -0.508493 0
M  V30 2218 C 208.621 -5.70019 1.15988 0
M  V30 2219 N 207.597 -5.41364 0.492584 0
M  V30 2220 H 211.399 -2.85213 0.709279 0
M  V30 2221 H 208.913 -1.54869 0.488822 0
M  V30 2222 H 210.91 -3.87736 -1.53188 0
M  V30 2223 H 209.57 -2.7244 -1.76654 0
M  V30 2224 H 210.581 -5.06115 1.09855 0
M  V30 2225 H 207.258 -3.98449 -1.24679 0
M  V30 2226 H 208.648 -6.4214 1.97751 0
M  V30 2227 N 211.368 -0.403325 -1.52352 0
M  V30 2228 C 212.779 0.0675782 -1.86578 0
M  V30 2229 C 213.13 1.44941 -1.32236 0
M  V30 2230 O 212.255 2.06112 -0.659307 0
M  V30 2231 C 212.85 0.129404 -3.38553 0
M  V30 2232 C 211.409 0.544629 -3.72439 0
M  V30 2233 C 210.556 -0.284551 -2.75836 0
M  V30 2234 H 213.507 -0.620631 -1.46061 0
M  V30 2235 H 213.528 0.94581 -3.68558 0
M  V30 2236 H 213.04 -0.87645 -3.78074 0
M  V30 2237 H 211.141 1.55734 -3.38493 0
M  V30 2238 H 211.254 0.293046 -4.78203 0
M  V30 2239 H 209.618 0.252258 -2.53448 0
M  V30 2240 H 210.401 -1.28865 -3.18196 0
M  V30 2241 N 212.846 1.57033 -0.133567 0
M  V30 2242 C 214.094 1.953 0.519848 0
M  V30 2243 C 214.415 1.01866 1.66278 0
M  V30 2244 O 213.685 0.0776513 1.95746 0
M  V30 2245 H 212.265 0.721091 0.195032 0
M  V30 2246 H 214.927 1.93809 -0.205921 0
M  V30 2247 H 214.023 2.98695 0.904854 0
M  V30 2248 N 214.325 -0.140222 1.56975 0
M  V30 2249 C 215.273 -1.19207 1.99731 0
M  V30 2250 C 216.267 -1.44089 0.890777 0
M  V30 2251 O 217.473 -1.44301 1.07597 0
M  V30 2252 H 213.848 -0.40142 0.635898 0
M  V30 2253 H 215.819 -0.804813 2.87342 0
M  V30 2254 C 214.568 -2.51617 2.39967 0
M  V30 2255 H 213.891 -2.33303 3.24669 0
M  V30 2256 H 215.331 -3.23827 2.73701 0
M  V30 2257 C 213.79 -3.12654 1.25496 0
M  V30 2258 O 214.32 -3.97786 0.559371 0
M  V30 2259 N 212.526 -2.72206 1.01746 0
M  V30 2260 H 212.073 -2.03074 1.58489 0
M  V30 2261 H 212.031 -3.13377 0.253461 0
M  V30 2262 N 215.803 -1.52179 -0.40978 0
M  V30 2263 C 217.214 -1.58377 -0.988615 0
M  V30 2264 C 217.565 -0.423879 -1.91566 0
M  V30 2265 O 216.69 0.455844 -2.11544 0
M  V30 2266 C 217.285 -2.87044 -1.79976 0
M  V30 2267 C 215.844 -2.95722 -2.32863 0
M  V30 2268 C 214.991 -2.53309 -1.12828 0
M  V30 2269 H 217.942 -1.57558 -0.190039 0
M  V30 2270 H 217.963 -2.7236 -2.65707 0
M  V30 2271 H 217.475 -3.71444 -1.12478 0
M  V30 2272 H 215.576 -2.15814 -3.03735 0
M  V30 2273 H 215.689 -3.99951 -2.63773 0
M  V30 2274 H 214.053 -2.07142 -1.48204 0
M  V30 2275 H 214.836 -3.40082 -0.46897 0
M  V30 2276 N 217.281 0.66697 -1.42791 0
M  V30 2277 C 218.228 1.7803 -1.4688 0
M  V30 2278 C 219.198 1.6299 -0.319919 0
M  V30 2279 O 220.383 1.83432 -0.525118 0
M  V30 2280 C 217.523 3.1611 -1.38451 0
M  V30 2281 C 216.636 3.42381 -2.63437 0
M  V30 2282 C 215.771 4.70232 -2.47094 0
M  V30 2283 C 214.81 4.89564 -3.67415 0
M  V30 2284 N 213.947 6.08661 -3.49966 0
M  V30 2285 H 218.787 1.7387 -2.42019 0
M  V30 2286 H 216.324 0.84868 -1.20149 0
M  V30 2287 H 218.282 3.95914 -1.31561 0
M  V30 2288 H 216.912 3.19374 -0.469033 0
M  V30 2289 H 215.964 2.56774 -2.80662 0
M  V30 2290 H 217.276 3.52557 -3.52853 0
M  V30 2291 H 216.43 5.5814 -2.37834 0
M  V30 2292 H 215.169 4.62353 -1.5518 0
M  V30 2293 H 214.174 4.00096 -3.77099 0
M  V30 2294 H 215.399 4.99282 -4.6032 0
M  V30 2295 H 213.345 6.0194 -2.60776 0
M  V30 2296 H 213.262 6.19733 -4.32975 0
M  V30 2297 H 214.53 6.99226 -3.44532 0
M  V30 2298 N 218.759 1.29093 0.90403 0
M  V30 2299 C 219.689 1.16401 2.02418 0
M  V30 2300 C 220.67 0.0593085 1.69997 0
M  V30 2301 O 221.855 0.238021 1.92736 0
M  V30 2302 C 218.985 0.835233 3.37107 0
M  V30 2303 C 217.939 1.89578 3.83724 0
M  V30 2304 C 217.265 1.42041 5.15489 0
M  V30 2305 C 218.565 3.30394 4.04521 0
M  V30 2306 H 220.259 2.10109 2.13295 0
M  V30 2307 H 217.805 1.01157 1.02486 0
M  V30 2308 H 219.758 0.733169 4.14973 0
M  V30 2309 H 218.482 -0.137543 3.2631 0
M  V30 2310 H 217.141 1.98715 3.08071 0
M  V30 2311 H 216.789 0.436426 5.01103 0
M  V30 2312 H 216.489 2.12964 5.4765 0
M  V30 2313 H 218.013 1.33176 5.959 0
M  V30 2314 H 219.427 3.24123 4.72882 0
M  V30 2315 H 217.824 3.99237 4.48029 0
M  V30 2316 H 218.894 3.73692 3.09002 0
M  V30 2317 N 220.237 -1.11381 1.11499 0
M  V30 2318 C 221.184 -2.17439 0.773887 0
M  V30 2319 C 222.154 -1.64132 -0.254899 0
M  V30 2320 O 223.339 -1.90345 -0.13168 0
M  V30 2321 C 220.479 -3.44373 0.223917 0
M  V30 2322 C 219.592 -4.1168 1.30934 0
M  V30 2323 C 218.727 -5.263 0.71984 0
M  V30 2324 C 217.766 -5.85493 1.78507 0
M  V30 2325 N 216.903 -6.91507 1.21502 0
M  V30 2326 H 221.743 -2.45962 1.68246 0
M  V30 2327 H 219.28 -1.20744 0.840191 0
M  V30 2328 H 221.238 -4.17047 -0.112921 0
M  V30 2329 H 219.868 -3.16232 -0.647851 0
M  V30 2330 H 218.92 -3.37073 1.76312 0
M  V30 2331 H 220.232 -4.51729 2.11524 0
M  V30 2332 H 219.386 -6.05785 0.333094 0
M  V30 2333 H 218.125 -4.87559 -0.117377 0
M  V30 2334 H 217.13 -5.04686 2.18111 0
M  V30 2335 H 218.355 -6.26301 2.62533 0
M  V30 2336 H 216.301 -6.54783 0.399455 0
M  V30 2337 H 216.218 -7.30214 1.95763 0
M  V30 2338 H 217.486 -7.74795 0.855181 0
M  V30 2339 N 221.715 -0.905404 -1.28997 0
M  V30 2340 C 222.662 -0.385892 -2.27551 0
M  V30 2341 C 223.632 0.535113 -1.57244 0
M  V30 2342 O 224.817 0.459119 -1.85194 0
M  V30 2343 C 221.957 0.375461 -3.43051 0
M  V30 2344 C 221.07 -0.577092 -4.28128 0
M  V30 2345 C 220.205 0.201879 -5.30816 0
M  V30 2346 C 219.244 -0.744829 -6.07551 0
M  V30 2347 N 218.381 9.42587e-05 -7.021 0
M  V30 2348 H 223.221 -1.23139 -2.71368 0
M  V30 2349 H 220.758 -0.618542 -1.33463 0
M  V30 2350 H 222.716 0.832992 -4.088 0
M  V30 2351 H 221.346 1.18537 -3.00248 0
M  V30 2352 H 220.398 -1.15315 -3.62501 0
M  V30 2353 H 221.71 -1.30152 -4.8152 0
M  V30 2354 H 220.864 0.720351 -6.02408 0
M  V30 2355 H 219.603 0.959413 -4.7817 0
M  V30 2356 H 218.608 -1.27475 -5.34818 0
M  V30 2357 H 219.833 -1.50178 -6.62286 0
M  V30 2358 H 217.779 0.739791 -6.51815 0
M  V30 2359 H 217.696 -0.664321 -7.53076 0
M  V30 2360 H 218.964 0.498644 -7.77903 0
M  V30 2361 N 223.193 1.4272 -0.668489 0
M  V30 2362 C 224.125 2.2914 0.052613 0
M  V30 2363 C 225.138 1.43339 0.771857 0
M  V30 2364 O 226.327 1.67123 0.627067 0
M  V30 2365 C 223.427 3.20618 1.09804 0
M  V30 2366 C 222.6 4.35039 0.45389 0
M  V30 2367 C 221.659 5.07282 1.39825 0
M  V30 2368 O 220.685 5.62024 0.900978 0
M  V30 2369 N 221.887 5.12206 2.73176 0
M  V30 2370 H 224.652 2.91668 -0.689209 0
M  V30 2371 H 222.213 1.53577 -0.512422 0
M  V30 2372 H 224.205 3.65815 1.73094 0
M  V30 2373 H 222.775 2.59585 1.74167 0
M  V30 2374 H 221.995 3.92567 -0.358396 0
M  V30 2375 H 223.283 5.088 0.00486972 0
M  V30 2376 H 222.681 4.6913 3.16122 0
M  V30 2377 H 221.238 5.61069 3.31729 0
M  V30 2378 N 224.671 0.411399 1.52136 0
M  V30 2379 C 225.601 -0.404015 2.29978 0
M  V30 2380 C 226.582 -1.04412 1.34284 0
M  V30 2381 O 227.767 -1.0527 1.63192 0
M  V30 2382 C 224.897 -1.5197 3.12286 0
M  V30 2383 C 223.851 -1.00448 4.16046 0
M  V30 2384 C 223.177 -2.21393 4.86712 0
M  V30 2385 C 224.477 -0.0569336 5.22269 0
M  V30 2386 H 226.171 0.245529 2.98392 0
M  V30 2387 H 223.717 0.119525 1.43503 0
M  V30 2388 H 225.67 -2.09715 3.6551 0
M  V30 2389 H 224.394 -2.19716 2.41646 0
M  V30 2390 H 223.053 -0.449421 3.63835 0
M  V30 2391 H 222.701 -2.87699 4.12599 0
M  V30 2392 H 222.401 -1.87571 5.56858 0
M  V30 2393 H 223.925 -2.7974 5.4275 0
M  V30 2394 H 225.339 -0.54325 5.7072 0
M  V30 2395 H 223.736 0.192594 5.99791 0
M  V30 2396 H 224.806 0.887663 4.76706 0
M  V30 2397 N 226.149 -1.5696 0.141893 0
M  V30 2398 C 227.397 -1.95573 -0.509484 0
M  V30 2399 C 227.718 -1.02746 -1.65736 0
M  V30 2400 O 226.988 -0.0880311 -1.95702 0
M  V30 2401 H 225.568 -0.722115 -0.191205 0
M  V30 2402 H 228.23 -1.93697 0.216196 0
M  V30 2403 H 227.326 -2.99171 -0.889 0
M  V30 2404 N 227.627 0.131896 -1.57047 0
M  V30 2405 C 229.038 0.690407 -1.73465 0
M  V30 2406 C 229.389 1.8094 -0.758629 0
M  V30 2407 O 228.514 2.16282 0.0713813 0
M  V30 2408 C 229.109 1.25916 -3.14532 0
M  V30 2409 C 227.668 1.76409 -3.32501 0
M  V30 2410 C 226.815 0.658579 -2.69366 0
M  V30 2411 H 229.766 -0.0939144 -1.58422 0
M  V30 2412 H 229.787 2.12892 -3.15369 0
M  V30 2413 H 229.299 0.444515 -3.85546 0
M  V30 2414 H 227.4 2.60391 -2.66509 0
M  V30 2415 H 227.513 1.88241 -4.4057 0
M  V30 2416 H 225.877 1.08899 -2.30246 0
M  V30 2417 H 226.66 -0.14487 -3.42994 0
M  V30 2418 N 229.106 1.52395 0.401703 0
M  V30 2419 C 230.354 1.66488 1.14569 0
M  V30 2420 C 230.675 0.400897 1.90835 0
M  V30 2421 O 229.945 -0.584415 1.8698 0
M  V30 2422 H 228.525 0.613672 0.425929 0
M  V30 2423 H 231.187 1.89464 0.457093 0
M  V30 2424 H 230.283 2.50942 1.85566 0
M  V30 2425 N 230.584 -0.659388 1.43143 0
M  V30 2426 C 231.531 -1.77249 1.47822 0
M  V30 2427 C 232.501 -1.62818 0.328558 0
M  V30 2428 O 233.686 -1.83151 0.534838 0
M  V30 2429 C 230.826 -3.15371 1.40126 0
M  V30 2430 C 229.939 -3.4098 2.65249 0
M  V30 2431 C 229.074 -4.68915 2.49584 0
M  V30 2432 C 228.113 -4.87608 3.70006 0
M  V30 2433 N 227.25 -6.06796 3.53189 0
M  V30 2434 H 232.09 -1.72584 2.42938 0
M  V30 2435 H 229.627 -0.842297 1.20598 0
M  V30 2436 H 231.585 -3.9521 1.33659 0
M  V30 2437 H 230.215 -3.19121 0.485964 0
M  V30 2438 H 229.267 -2.55282 2.8202 0
M  V30 2439 H 230.579 -3.50681 3.54717 0
M  V30 2440 H 229.733 -5.56871 2.4079 0
M  V30 2441 H 228.472 -4.61524 1.5763 0
M  V30 2442 H 227.477 -3.9809 3.79215 0
M  V30 2443 H 228.702 -4.96834 4.62961 0
M  V30 2444 H 226.648 -6.00549 2.63965 0
M  V30 2445 H 226.565 -6.17428 4.36255 0
M  V30 2446 H 227.833 -6.9739 3.48236 0
M  V30 2447 N 232.062 -1.29571 -0.897171 0
M  V30 2448 C 233.009 -1.14916 -2.00158 0
M  V30 2449 C 233.979 -0.0418149 -1.66047 0
M  V30 2450 O 235.164 -0.209793 -1.89643 0
M  V30 2451 C 232.304 -0.834307 -3.34863 0
M  V30 2452 C 231.417 -2.02234 -3.8174 0
M  V30 2453 C 230.552 -1.64664 -5.05034 0
M  V30 2454 C 229.591 -2.80033 -5.44286 0
M  V30 2455 N 228.728 -2.42843 -6.58765 0
M  V30 2456 H 233.568 -2.09403 -2.12025 0
M  V30 2457 H 231.105 -1.042 -1.0383 0
M  V30 2458 H 233.063 -0.632436 -4.12379 0
M  V30 2459 H 231.693 0.0736656 -3.22716 0
M  V30 2460 H 230.745 -2.33583 -3.00238 0
M  V30 2461 H 232.057 -2.88673 -4.06779 0
M  V30 2462 H 231.211 -1.4078 -5.9014 0
M  V30 2463 H 229.95 -0.753766 -4.8184 0
M  V30 2464 H 228.955 -3.04596 -4.57713 0
M  V30 2465 H 230.18 -3.69989 -5.6946 0
M  V30 2466 H 228.126 -1.56046 -6.3717 0
M  V30 2467 H 228.043 -3.22815 -6.83613 0
M  V30 2468 H 229.311 -2.22285 -7.47134 0
M  V30 2469 N 233.54 1.10788 -1.12088 0
M  V30 2470 C 234.488 2.19111 -0.780587 0
M  V30 2471 C 235.482 1.67818 0.230961 0
M  V30 2472 O 236.688 1.79777 0.0895427 0
M  V30 2473 H 233.063 0.714477 -0.234578 0
M  V30 2474 H 235.034 2.45055 -1.70266 0
M  V30 2475 C 233.783 3.46818 -0.24747 0
M  V30 2476 H 233.106 3.86646 -1.01712 0
M  V30 2477 H 234.546 4.23973 -0.0476291 0
M  V30 2478 C 233.005 3.20968 1.02378 0
M  V30 2479 O 233.535 3.42298 2.10226 0
M  V30 2480 N 231.741 2.74658 0.949271 0
M  V30 2481 H 231.288 2.57501 0.0715173 0
M  V30 2482 H 231.246 2.57739 1.80049 0
M  V30 2483 N 235.018 0.912232 1.28515 0
M  V30 2484 C 236.295 0.463597 1.90027 0
M  V30 2485 C 236.675 -1.05753 1.82701 0
M  V30 2486 O 236.023 -1.90492 1.26194 0
M  V30 2487 C 236.233 0.992253 3.34597 0
M  V30 2488 C 237.581 1.04344 4.11579 0
M  V30 2489 O 238.605 0.94079 3.43551 0
M  V30 2490 O 237.464 1.1995 5.33174 0
M  V30 2491 H 234.558 0.146666 0.813891 0
M  V30 2492 H 237.104 1.00292 1.36893 0
M  V30 2493 H 235.876 2.03623 3.34146 0
M  V30 2494 H 235.499 0.433672 3.95228 0
M  V30 2495 N 236.496 -1.42363 0.676048 0
M  V30 2496 C 237.406 -2.346 -0.00153389 0
M  V30 2497 C 238.422 -1.5516 -0.787485 0
M  V30 2498 O 239.598 -1.87723 -0.729521 0
M  V30 2499 C 236.663 -3.33705 -0.940298 0
M  V30 2500 C 235.724 -4.29042 -0.148739 0
M  V30 2501 C 234.957 -5.23413 -1.04279 0
M  V30 2502 O 235.18 -5.22749 -2.28232 0
M  V30 2503 O 234.114 -5.99795 -0.502925 0
M  V30 2504 H 237.94 -2.94082 0.758268 0
M  V30 2505 H 235.525 -1.42888 0.436289 0
M  V30 2506 H 237.407 -3.94586 -1.47917 0
M  V30 2507 H 236.082 -2.76695 -1.67993 0
M  V30 2508 H 234.989 -3.71571 0.43427 0
M  V30 2509 H 236.322 -4.89097 0.551805 0
M  V30 2510 N 237.974 -0.419461 -1.51915 0
M  V30 2511 C 239.22 0.153166 -2.02221 0
M  V30 2512 C 239.553 1.43907 -1.30401 0
M  V30 2513 O 238.828 1.90055 -0.413438 0
M  V30 2514 C 239.111 0.390291 -3.57979 0
M  V30 2515 C 238.964 -0.913014 -4.40436 0
M  V30 2516 C 240.283 1.16794 -4.2432 0
M  V30 2517 H 237.402 0.0541924 -0.735005 0
M  V30 2518 H 240.044 -0.554955 -1.81715 0
M  V30 2519 H 238.194 0.993491 -3.75582 0
M  V30 2520 H 239.866 -1.54882 -4.34522 0
M  V30 2521 H 238.109 -1.52168 -4.06236 0
M  V30 2522 H 238.78 -0.701361 -5.47526 0
M  V30 2523 H 241.256 0.657161 -4.10878 0
M  V30 2524 H 240.132 1.3026 -5.3322 0
M  V30 2525 H 240.393 2.19132 -3.83971 0
M  V30 2526 N 239.452 1.56882 -0.150215 0
M  V30 2527 C 240.677 2.01027 0.510184 0
M  V30 2528 C 241.102 1.02966 1.57415 0
M  V30 2529 O 240.46 0.00590158 1.81299 0
M  V30 2530 C 240.508 3.43899 1.08472 0
M  V30 2531 O 239.612 3.4885 2.19948 0
M  V30 2532 H 238.953 0.652233 0.124451 0
M  V30 2533 H 241.483 2.03093 -0.247894 0
M  V30 2534 H 241.493 3.82766 1.41259 0
M  V30 2535 H 240.168 4.14776 0.305582 0
M  V30 2536 H 238.745 3.21827 1.88366 0
M  V30 2537 N 240.93 -0.123565 1.57115 0
M  V30 2538 C 242.155 -0.850398 1.89164 0
M  V30 2539 C 242.58 -1.7286 0.741688 0
M  V30 2540 O 241.938 -1.78665 -0.307958 0
M  V30 2541 C 241.986 -1.66353 3.19936 0
M  V30 2542 O 241.09 -2.77004 3.0552 0
M  V30 2543 H 240.431 -0.235454 0.620852 0
M  V30 2544 H 242.961 -0.107335 2.04318 0
M  V30 2545 H 242.971 -2.05372 3.52543 0
M  V30 2546 H 241.646 -1.01881 4.03228 0
M  V30 2547 H 240.223 -2.41221 2.84371 0
M  V30 2548 N 242.408 -1.52605 -0.393616 0
M  V30 2549 C 243.338 -1.80022 -1.48709 0
M  V30 2550 C 244.319 -0.651995 -1.57108 0
M  V30 2551 O 245.504 -0.89913 -1.72132 0
M  V30 2552 C 242.634 -1.96492 -2.86371 0
M  V30 2553 C 241.588 -3.12161 -2.92813 0
M  V30 2554 C 240.914 -3.13877 -4.3288 0
M  V30 2555 C 242.214 -4.51322 -2.6288 0
M  V30 2556 H 243.908 -2.71589 -1.26015 0
M  V30 2557 H 241.454 -1.30684 -0.604778 0
M  V30 2558 H 243.407 -2.14255 -3.62867 0
M  V30 2559 H 242.131 -1.01611 -3.10391 0
M  V30 2560 H 240.79 -2.94173 -2.18764 0
M  V30 2561 H 240.438 -2.16687 -4.53933 0
M  V30 2562 H 240.138 -3.91576 -4.38112 0
M  V30 2563 H 241.662 -3.33789 -5.1129 0
M  V30 2564 H 243.076 -4.69435 -3.29096 0
M  V30 2565 H 241.473 -5.31053 -2.79468 0
M  V30 2566 H 242.543 -4.58353 -1.58242 0
M  V30 2567 N 243.887 0.651787 -1.4349 0
M  V30 2568 C 245.164 1.40909 -1.35661 0
M  V30 2569 C 245.544 2.11099 -0.00511733 0
M  V30 2570 O 244.892 2.04892 1.0115 0
M  V30 2571 C 245.102 2.3926 -2.54078 0
M  V30 2572 C 246.45 3.03217 -2.97228 0
M  V30 2573 O 247.474 2.49588 -2.54135 0
M  V30 2574 O 246.333 4.00455 -3.71885 0
M  V30 2575 H 243.427 0.629625 -0.536191 0
M  V30 2576 H 245.973 0.678575 -1.55542 0
M  V30 2577 H 244.745 1.86352 -3.44076 0
M  V30 2578 H 244.368 3.1976 -2.36303 0
M  V30 2579 N 245.365 1.30045 0.890287 0
M  V30 2580 C 246.328 1.15963 1.977 0
M  V30 2581 C 247.328 0.0923777 1.60534 0
M  V30 2582 O 248.518 0.340071 1.70848 0
M  V30 2583 C 245.65 0.775451 3.31963 0
M  V30 2584 H 246.843 2.12502 2.11619 0
M  V30 2585 H 244.396 1.13366 1.07601 0
M  V30 2586 H 245.131 -0.189671 3.23745 0
M  V30 2587 H 244.916 1.54668 3.60306 0
M  V30 2588 H 246.406 0.700251 4.11687 0
M  V30 2589 N 246.843 -1.10192 1.12674 0
M  V30 2590 C 248.09 -1.82205 0.883606 0
M  V30 2591 C 248.418 -1.8532 -0.590492 0
M  V30 2592 O 247.673 -1.31137 -1.45264 0
M  V30 2593 C 247.972 -3.28552 1.4067 0
M  V30 2594 C 247.638 -3.45582 2.89627 0
M  V30 2595 C 246.3 -3.49937 3.30299 0
M  V30 2596 C 248.652 -3.50768 3.85501 0
M  V30 2597 C 245.98 -3.57049 4.65546 0
M  V30 2598 C 248.332 -3.59414 5.20581 0
M  V30 2599 C 246.996 -3.62034 5.60792 0
M  V30 2600 H 246.266 -0.666735 0.323334 0
M  V30 2601 H 248.913 -1.29868 1.40736 0
M  V30 2602 H 247.218 -3.83473 0.80347 0
M  V30 2603 H 248.915 -3.82788 1.19475 0
M  V30 2604 H 245.505 -3.42871 2.57172 0
M  V30 2605 H 249.689 -3.46651 3.55171 0
M  V30 2606 H 244.945 -3.57361 4.96088 0
M  V30 2607 H 249.119 -3.62371 5.94693 0
M  V30 2608 H 246.746 -3.67298 6.6558 0
M  V30 2609 N 248.321 -0.919034 -1.28029 0
M  V30 2610 C 249.251 -0.428581 -2.29533 0
M  V30 2611 C 250.232 0.50659 -1.62381 0
M  V30 2612 O 251.417 0.413195 -1.89753 0
M  V30 2613 C 248.547 0.327388 -3.45753 0
M  V30 2614 C 247.501 -0.519137 -4.2484 0
M  V30 2615 C 246.827 0.365486 -5.33449 0
M  V30 2616 C 248.127 -1.77914 -4.91064 0
M  V30 2617 H 249.821 -1.27687 -2.70807 0
M  V30 2618 H 247.367 -0.615428 -1.30186 0
M  V30 2619 H 249.32 0.681378 -4.15855 0
M  V30 2620 H 248.044 1.20963 -3.03374 0
M  V30 2621 H 246.703 -0.855717 -3.56473 0
M  V30 2622 H 246.351 1.24642 -4.87312 0
M  V30 2623 H 246.051 -0.197356 -5.87268 0
M  V30 2624 H 247.575 0.715241 -6.06396 0
M  V30 2625 H 248.989 -1.49374 -5.53498 0
M  V30 2626 H 247.386 -2.2848 -5.54903 0
M  V30 2627 H 248.456 -2.50382 -4.15255 0
M  V30 2628 N 249.799 1.42003 -0.683588 0
M  V30 2629 C 251.076 1.95112 -0.138075 0
M  V30 2630 C 251.456 1.62359 1.34918 0
M  V30 2631 O 250.804 0.924311 2.08971 0
M  V30 2632 C 251.014 3.46505 -0.416581 0
M  V30 2633 C 252.362 4.23254 -0.337834 0
M  V30 2634 O 253.386 3.54468 -0.35082 0
M  V30 2635 O 252.245 5.45743 -0.287596 0
M  V30 2636 H 249.339 0.826961 -0.00797996 0
M  V30 2637 H 251.885 1.51784 -0.758924 0
M  V30 2638 H 250.657 3.63582 -1.4465 0
M  V30 2639 H 250.28 3.969 0.235839 0
M  V30 2640 N 251.277 0.427512 1.51691 0
M  V30 2641 C 252.207 -0.3796 2.30394 0
M  V30 2642 C 253.188 -1.02982 1.35384 0
M  V30 2643 O 254.373 -1.03534 1.643 0
M  V30 2644 C 251.503 -1.48649 3.1388 0
M  V30 2645 C 250.457 -0.960294 4.17088 0
M  V30 2646 C 249.783 -2.16219 4.89033 0
M  V30 2647 C 251.083 -0.00153679 5.223 0
M  V30 2648 H 252.777 0.277164 2.98114 0
M  V30 2649 H 250.323 0.134739 1.43368 0
M  V30 2650 H 252.276 -2.05826 3.67714 0
M  V30 2651 H 251 -2.1714 2.43962 0
M  V30 2652 H 249.659 -0.410806 3.64291 0
M  V30 2653 H 249.307 -2.83307 4.15628 0
M  V30 2654 H 249.007 -1.81654 5.58816 0
M  V30 2655 H 250.531 -2.73968 5.45687 0
M  V30 2656 H 251.945 -0.482687 5.71264 0
M  V30 2657 H 250.342 0.256199 5.99553 0
M  V30 2658 H 251.412 0.938174 4.75738 0
M  V30 2659 N 252.755 -1.56801 0.158532 0
M  V30 2660 C 254.004 -1.95665 -0.489702 0
M  V30 2661 C 254.317 -1.04654 -1.65248 0
M  V30 2662 O 255.523 -1.33146 -2.3661 0
M  V30 2663 C 253.979 -3.47874 -0.922582 0
M  V30 2664 C 253.587 -4.47489 0.213893 0
M  V30 2665 C 255.331 -3.95583 -1.53996 0
M  V30 2666 C 253.238 -5.90921 -0.237903 0
M  V30 2667 H 252.168 -0.730516 -0.186716 0
M  V30 2668 H 254.819 -1.81861 0.244722 0
M  V30 2669 H 253.201 -3.57051 -1.71261 0
M  V30 2670 H 254.375 -4.50017 0.991036 0
M  V30 2671 H 252.69 -4.09764 0.740407 0
M  V30 2672 H 255.287 -5.0019 -1.8898 0
M  V30 2673 H 255.63 -3.37789 -2.43319 0
M  V30 2674 H 256.163 -3.8937 -0.814611 0
M  V30 2675 H 252.902 -6.52559 0.620236 0
M  V30 2676 H 252.422 -5.91729 -0.980676 0
M  V30 2677 H 254.101 -6.43352 -0.686067 0
M  V30 2678 N 254.233 0.115231 -1.57178 0
M  V30 2679 C 255.649 0.468877 -1.52557 0
M  V30 2680 C 255.849 1.81649 -0.872125 0
M  V30 2681 O 254.905 2.48347 -0.45606 0
M  V30 2682 C 256.218 0.4499 -2.97315 0
M  V30 2683 C 257.766 0.533185 -3.08425 0
M  V30 2684 C 258.241 0.54456 -4.54751 0
M  V30 2685 N 259.732 0.605892 -4.5922 0
M  V30 2686 C 260.467 0.636203 -5.6986 0
M  V30 2687 N 259.963 0.623931 -6.89985 0
M  V30 2688 N 261.756 0.679496 -5.57978 0
M  V30 2689 H 253.907 -0.767712 -1.9804 0
M  V30 2690 H 256.17 -0.283609 -0.904583 0
M  V30 2691 H 255.876 -0.472721 -3.48509 0
M  V30 2692 H 255.75 1.27632 -3.5495 0
M  V30 2693 H 258.137 1.44623 -2.57232 0
M  V30 2694 H 258.218 -0.320995 -2.53778 0
M  V30 2695 H 257.862 -0.364452 -5.06591 0
M  V30 2696 H 257.792 1.41568 -5.07214 0
M  V30 2697 H 260.283 0.621386 -3.72756 0
M  V30 2698 H 260.596 0.649787 -7.70063 0
M  V30 2699 H 258.941 0.591296 -6.9248 0
M  V30 2700 H 262.132 0.686472 -4.63039 0
M  V30 2701 H 262.305 0.69965 -6.44212 0
M  V30 2702 N 255.711 1.52812 0.385517 0
M  V30 2703 C 256.659 1.78482 1.49155 0
M  V30 2704 C 257.653 0.652914 1.56312 0
M  V30 2705 O 258.859 0.835464 1.59436 0
M  V30 2706 H 255.234 0.5648 0.496493 0
M  V30 2707 H 257.205 2.71095 1.24699 0
M  V30 2708 C 255.954 1.97378 2.86247 0
M  V30 2709 H 255.277 2.83907 2.81491 0
M  V30 2710 H 256.717 2.19327 3.62866 0
M  V30 2711 C 255.176 0.74728 3.28508 0
M  V30 2712 O 255.706 -0.0736232 4.01633 0
M  V30 2713 N 253.912 0.576396 2.84826 0
M  V30 2714 H 253.459 1.24555 2.25486 0
M  V30 2715 H 253.417 -0.24288 3.1346 0
M  V30 2716 N 257.189 -0.644168 1.43834 0
M  V30 2717 C 258.119 -1.76814 1.52509 0
M  V30 2718 C 259.1 -1.65823 0.379052 0
M  V30 2719 O 260.285 -1.84781 0.597466 0
M  V30 2720 C 257.415 -3.15288 1.4564 0
M  V30 2721 C 256.369 -3.41053 2.58586 0
M  V30 2722 C 255.695 -4.79421 2.36769 0
M  V30 2723 C 256.995 -3.34902 4.00797 0
M  V30 2724 H 258.689 -1.69812 2.46586 0
M  V30 2725 H 256.235 -0.815542 1.1868 0
M  V30 2726 H 258.188 -3.93681 1.50311 0
M  V30 2727 H 256.912 -3.23043 0.480725 0
M  V30 2728 H 255.571 -2.65035 2.53282 0
M  V30 2729 H 255.219 -4.83863 1.37424 0
M  V30 2730 H 254.919 -4.9762 3.12487 0
M  V30 2731 H 256.443 -5.6006 2.43238 0
M  V30 2732 H 257.857 -4.03218 4.07539 0
M  V30 2733 H 256.254 -3.64637 4.76613 0
M  V30 2734 H 257.324 -2.32928 4.25291 0
M  V30 2735 N 258.668 -1.30515 -0.883378 0
M  V30 2736 C 259.915 -1.1943 -1.63532 0
M  V30 2737 C 260.243 0.250627 -1.92878 0
M  V30 2738 O 259.498 1.19556 -1.54935 0
M  V30 2739 C 259.797 -1.96994 -2.98209 0
M  V30 2740 C 259.463 -3.466 -2.88408 0
M  V30 2741 C 258.125 -3.87397 -2.85442 0
M  V30 2742 C 260.477 -4.41863 -2.76418 0
M  V30 2743 C 257.805 -5.21745 -2.68327 0
M  V30 2744 C 260.157 -5.7632 -2.60841 0
M  V30 2745 C 258.821 -6.16354 -2.56251 0
M  V30 2746 H 258.091 -0.437025 -0.598406 0
M  V30 2747 H 260.738 -1.61635 -1.02696 0
M  V30 2748 H 259.043 -1.47429 -3.63004 0
M  V30 2749 H 260.74 -1.85808 -3.55354 0
M  V30 2750 H 257.33 -3.14182 -2.91527 0
M  V30 2751 H 261.514 -4.11285 -2.77775 0
M  V30 2752 H 256.77 -5.51853 -2.63189 0
M  V30 2753 H 260.944 -6.49772 -2.50538 0
M  V30 2754 H 258.571 -7.20401 -2.42748 0
M  V30 2755 N 260.146 1.09593 -1.13257 0
M  V30 2756 C 261.557 1.63229 -0.906274 0
M  V30 2757 C 261.908 1.8811 0.557578 0
M  V30 2758 O 261.033 1.62953 1.42391 0
M  V30 2759 C 261.628 2.96535 -1.63867 0
M  V30 2760 C 260.187 3.47003 -1.45828 0
M  V30 2761 C 259.334 2.2145 -1.66898 0
M  V30 2762 H 262.285 0.92978 -1.28611 0
M  V30 2763 H 262.306 3.64411 -1.09476 0
M  V30 2764 H 261.818 2.78394 -2.70404 0
M  V30 2765 H 259.919 3.70272 -0.415848 0
M  V30 2766 H 260.032 4.24551 -2.2202 0
M  V30 2767 H 258.396 2.30022 -1.09371 0
M  V30 2768 H 259.179 2.0583 -2.74752 0
M  V30 2769 N 261.624 0.925811 1.2754 0
M  V30 2770 C 262.534 0.428993 2.30644 0
M  V30 2771 C 263.55 -0.489387 1.66976 0
M  V30 2772 O 264.726 -0.372653 1.97922 0
M  V30 2773 C 261.791 -0.311967 3.45294 0
M  V30 2774 C 260.852 0.641098 4.24486 0
M  V30 2775 C 260.085 -0.0645955 5.33661 0
M  V30 2776 O 260.308 -1.28429 5.55754 0
M  V30 2777 O 259.242 0.606265 5.98839 0
M  V30 2778 H 263.068 1.28504 2.75173 0
M  V30 2779 H 260.653 0.691086 1.32455 0
M  V30 2780 H 262.535 -0.729972 4.15029 0
M  V30 2781 H 261.21 -1.14365 3.02824 0
M  V30 2782 H 260.117 1.10874 3.57292 0
M  V30 2783 H 261.45 1.43995 4.70666 0
M  V30 2784 N 263.102 -1.41638 0.69111 0
M  V30 2785 C 264.05 -2.32597 0.0115199 0
M  V30 2786 C 265.044 -1.5072 -0.773296 0
M  V30 2787 O 266.25 -1.66685 -0.67942 0
M  V30 2788 H 262.625 -0.751849 -0.0150746 0
M  V30 2789 H 264.596 -2.87593 0.795791 0
M  V30 2790 C 263.345 -3.35467 -0.914172 0
M  V30 2791 H 262.668 -3.9852 -0.319687 0
M  V30 2792 H 264.108 -4.01662 -1.35808 0
M  V30 2793 C 262.567 -2.69004 -2.02826 0
M  V30 2794 O 263.097 -2.53444 -3.11655 0
M  V30 2795 N 261.303 -2.2777 -1.80469 0
M  V30 2796 H 260.85 -2.40626 -0.919615 0
M  V30 2797 H 260.808 -1.83635 -2.55197 0
M  V30 2798 N 264.58 -0.43555 -1.51462 0
M  V30 2799 C 265.51 0.367376 -2.30592 0
M  V30 2800 C 266.491 1.02263 -1.35928 0
M  V30 2801 O 267.676 1.02661 -1.64847 0
M  V30 2802 C 264.806 1.46983 -3.14664 0
M  V30 2803 C 263.76 0.938161 -4.17591 0
M  V30 2804 C 263.086 2.13622 -4.90173 0
M  V30 2805 C 264.386 -0.0261621 -5.22293 0
M  V30 2806 H 266.08 -0.292969 -2.97963 0
M  V30 2807 H 263.626 -0.14234 -1.43295 0
M  V30 2808 H 265.579 2.03873 -3.688 0
M  V30 2809 H 264.303 2.15843 -2.4511 0
M  V30 2810 H 262.962 0.391481 -3.64504 0
M  V30 2811 H 262.61 2.81098 -4.17124 0
M  V30 2812 H 262.31 1.78688 -5.59772 0
M  V30 2813 H 263.834 2.7107 -5.47132 0
M  V30 2814 H 265.248 0.452384 -5.71512 0
M  V30 2815 H 263.645 -0.287992 -5.99409 0
M  V30 2816 H 264.715 -0.963391 -4.75233 0
M  V30 2817 N 266.058 1.56714 -0.166846 0
M  V30 2818 C 267.304 1.97039 0.479962 0
M  V30 2819 C 267.637 1.05264 1.63197 0
M  V30 2820 O 266.912 0.0988833 1.94248 0
M  V30 2821 C 267.195 3.46867 0.967212 0
M  V30 2822 C 267.048 4.49421 -0.18466 0
M  V30 2823 C 268.367 3.9968 1.84238 0
M  V30 2824 H 265.486 0.71641 0.172992 0
M  V30 2825 H 268.128 1.8832 -0.252079 0
M  V30 2826 H 266.278 3.54428 1.59101 0
M  V30 2827 H 267.95 4.53924 -0.821621 0
M  V30 2828 H 266.193 4.25573 -0.840837 0
M  V30 2829 H 266.864 5.51644 0.198317 0
M  V30 2830 H 269.34 3.94723 1.31655 0
M  V30 2831 H 268.216 5.04941 2.15234 0
M  V30 2832 H 268.477 3.43226 2.78654 0
M  V30 2833 N 267.536 -0.106894 1.57237 0
M  V30 2834 C 268.468 -1.15646 1.97885 0
M  V30 2835 C 269.481 -1.36981 0.879779 0
M  V30 2836 O 270.67 -1.35841 1.15799 0
M  V30 2837 C 267.77 -2.51425 2.27241 0
M  V30 2838 C 266.943 -2.50529 3.58545 0
M  V30 2839 C 266.002 -3.68145 3.75973 0
M  V30 2840 O 265.028 -3.51176 4.47956 0
M  V30 2841 N 266.23 -4.87177 3.15656 0
M  V30 2842 H 268.995 -0.81059 2.8853 0
M  V30 2843 H 266.556 -0.296024 1.59171 0
M  V30 2844 H 268.548 -3.28689 2.36105 0
M  V30 2845 H 267.118 -2.78147 1.42663 0
M  V30 2846 H 266.338 -1.58894 3.60758 0
M  V30 2847 H 267.626 -2.46997 4.44826 0
M  V30 2848 H 267.024 -5.03868 2.57165 0
M  V30 2849 H 265.581 -5.62075 3.30023 0
M  V30 2850 N 269.014 -1.53014 -0.377408 0
M  V30 2851 C 269.977 -1.77957 -1.44444 0
M  V30 2852 C 270.977 -0.649763 -1.47087 0
M  V30 2853 O 272.167 -0.917897 -1.48055 0
M  V30 2854 C 269.299 -1.89089 -2.83651 0
M  V30 2855 H 270.492 -2.73243 -1.23606 0
M  V30 2856 H 268.045 -1.43912 -0.609844 0
M  V30 2857 H 268.78 -0.958293 -3.09818 0
M  V30 2858 H 268.565 -2.71254 -2.83132 0
M  V30 2859 H 270.055 -2.1002 -3.60945 0
M  V30 2860 N 270.492 0.636531 -1.44174 0
M  V30 2861 C 271.732 1.40781 -1.48189 0
M  V30 2862 C 272.096 1.91688 -0.10944 0
M  V30 2863 O 273.297 2.68789 -0.0242741 0
M  V30 2864 C 271.568 2.54575 -2.50851 0
M  V30 2865 S 273.127 3.4284 -2.73873 0
M  V30 2866 H 269.945 0.480345 -0.524204 0
M  V30 2867 H 272.547 0.737416 -1.81059 0
M  V30 2868 H 271.251 2.15478 -3.49281 0
M  V30 2869 H 270.782 3.26447 -2.19536 0
M  V30 2870 H 272.797 4.51846 -2.05059 0
M  V30 2871 N 271.97 1.30982 0.876444 0
M  V30 2872 C 273.217 1.20296 1.62896 0
M  V30 2873 C 273.545 -0.240395 1.93009 0
M  V30 2874 O 272.8 -1.18733 1.55567 0
M  V30 2875 C 273.099 1.98572 2.9716 0
M  V30 2876 C 272.765 3.48125 2.86566 0
M  V30 2877 C 271.427 3.88905 2.83383 0
M  V30 2878 C 273.779 4.43322 2.74071 0
M  V30 2879 C 271.107 5.2316 2.65556 0
M  V30 2880 C 273.459 5.77695 2.57781 0
M  V30 2881 C 272.123 6.17704 2.52979 0
M  V30 2882 H 271.393 0.440193 0.59608 0
M  V30 2883 H 274.04 1.62177 1.01837 0
M  V30 2884 H 272.345 1.49352 3.62217 0
M  V30 2885 H 274.042 1.8769 3.54364 0
M  V30 2886 H 270.632 3.15723 2.89856 0
M  V30 2887 H 274.816 4.12752 2.75589 0
M  V30 2888 H 270.072 5.53241 2.60259 0
M  V30 2889 H 274.246 6.51091 2.47089 0
M  V30 2890 H 271.873 7.21678 2.38924 0
M  V30 2891 N 273.449 -1.08991 1.13837 0
M  V30 2892 C 274.381 -2.15606 0.777612 0
M  V30 2893 C 275.394 -1.61533 -0.202739 0
M  V30 2894 O 276.583 -1.78491 0.0181055 0
M  V30 2895 C 273.683 -3.3864 0.132623 0
M  V30 2896 C 272.856 -4.22115 1.1462 0
M  V30 2897 C 271.915 -5.23564 0.526074 0
M  V30 2898 O 270.941 -5.56678 1.18735 0
M  V30 2899 N 272.143 -5.76266 -0.699866 0
M  V30 2900 H 274.908 -2.47159 1.69506 0
M  V30 2901 H 272.469 -1.24747 1.03198 0
M  V30 2902 H 274.461 -4.03626 -0.29459 0
M  V30 2903 H 273.031 -3.04938 -0.687849 0
M  V30 2904 H 272.251 -3.53199 1.75055 0
M  V30 2905 H 273.539 -4.74709 1.83109 0
M  V30 2906 H 272.937 -5.51585 -1.25581 0
M  V30 2907 H 271.494 -6.42963 -1.06968 0
M  V30 2908 N 274.927 -0.932562 -1.27047 0
M  V30 2909 C 275.859 -0.392734 -2.2581 0
M  V30 2910 C 276.872 0.479241 -1.55586 0
M  V30 2911 O 278.061 0.291078 -1.76111 0
M  V30 2912 C 275.161 0.455456 -3.35826 0
M  V30 2913 C 274.334 -0.398355 -4.35582 0
M  V30 2914 C 273.393 0.387985 -5.24768 0
M  V30 2915 O 272.419 -0.206003 -5.68827 0
M  V30 2916 N 273.621 1.68664 -5.55457 0
M  V30 2917 H 276.386 -1.24173 -2.72766 0
M  V30 2918 H 273.947 -0.800511 -1.40725 0
M  V30 2919 H 275.939 0.988692 -3.92437 0
M  V30 2920 H 274.509 1.20522 -2.88432 0
M  V30 2921 H 273.729 -1.11286 -3.78165 0
M  V30 2922 H 275.017 -0.981889 -4.99236 0
M  V30 2923 H 274.415 2.19147 -5.21528 0
M  V30 2924 H 272.972 2.1663 -6.14748 0
M  V30 2925 N 276.405 1.4127 -0.698611 0
M  V30 2926 C 277.654 2.00408 -0.227949 0
M  V30 2927 C 277.967 1.55981 1.18023 0
M  V30 2928 O 279.173 2.07699 1.74852 0
M  V30 2929 C 277.629 3.58129 -0.356636 0
M  V30 2930 C 277.237 4.11536 -1.77037 0
M  V30 2931 C 278.981 4.24466 0.0540969 0
M  V30 2932 C 276.888 5.61701 -1.85055 0
M  V30 2933 H 275.818 0.749586 -0.0814657 0
M  V30 2934 H 278.469 1.61713 -0.867249 0
M  V30 2935 H 276.851 3.94442 0.350965 0
M  V30 2936 H 278.025 3.86636 -2.50698 0
M  V30 2937 H 276.34 3.57736 -2.13105 0
M  V30 2938 H 278.937 5.34698 0.0146723 0
M  V30 2939 H 279.28 4.01687 1.09332 0
M  V30 2940 H 279.813 3.93198 -0.603337 0
M  V30 2941 H 276.552 5.89312 -2.8704 0
M  V30 2942 H 276.072 5.88519 -1.15783 0
M  V30 2943 H 277.751 6.26524 -1.61484 0
M  V30 2944 N 277.883 0.443576 1.51229 0
M  V30 2945 C 278.815 -0.400608 2.25672 0
M  V30 2946 C 279.828 -0.980945 1.29928 0
M  V30 2947 O 281.017 -0.874024 1.55638 0
M  V30 2948 C 278.117 -1.57304 3.00181 0
M  V30 2949 C 277.29 -1.11046 4.23069 0
M  V30 2950 C 276.349 -2.15374 4.80105 0
M  V30 2951 O 275.375 -1.74554 5.41774 0
M  V30 2952 N 276.577 -3.47922 4.64683 0
M  V30 2953 H 279.342 0.23745 2.98758 0
M  V30 2954 H 276.903 0.272809 1.59585 0
M  V30 2955 H 278.895 -2.26733 3.35223 0
M  V30 2956 H 277.465 -2.11632 2.30066 0
M  V30 2957 H 276.685 -0.243019 3.9345 0
M  V30 2958 H 277.973 -0.778888 5.02803 0
M  V30 2959 H 277.371 -3.83815 4.15575 0
M  V30 2960 H 275.928 -4.13228 5.0407 0
M  V30 2961 N 279.361 -1.56624 0.175154 0
M  V30 2962 C 280.589 -2.01374 -0.474971 0
M  V30 2963 C 281.004 -1.05537 -1.56548 0
M  V30 2964 O 280.361 -0.0568668 -1.82411 0
M  V30 2965 C 280.412 -3.45923 -1.04975 0
M  V30 2966 O 280.133 -4.381 -0.00276605 0
M  V30 2967 C 281.634 -4.06093 -1.77773 0
M  V30 2968 H 278.854 -0.659962 -0.121206 0
M  V30 2969 H 281.398 -2.02601 0.27801 0
M  V30 2970 H 279.553 -3.45458 -1.75321 0
M  V30 2971 H 279.967 -5.22753 -0.427681 0
M  V30 2972 H 281.441 -5.09147 -2.13245 0
M  V30 2973 H 281.918 -3.48405 -2.67414 0
M  V30 2974 H 282.524 -4.10272 -1.12059 0
M  V30 2975 N 280.839 0.0985539 -1.57292 0
M  V30 2976 C 282.085 0.803867 -1.86188 0
M  V30 2977 C 282.418 1.78549 -0.763794 0
M  V30 2978 O 281.693 1.93153 0.22855 0
M  V30 2979 C 281.976 1.53568 -3.25713 0
M  V30 2980 C 281.829 0.572277 -4.46145 0
M  V30 2981 C 283.148 2.48708 -3.63087 0
M  V30 2982 H 280.267 0.290781 -0.677211 0
M  V30 2983 H 282.909 0.0675783 -1.8988 0
M  V30 2984 H 281.059 2.16332 -3.22696 0
M  V30 2985 H 282.731 -0.0480894 -4.61275 0
M  V30 2986 H 280.974 -0.114618 -4.33649 0
M  V30 2987 H 281.645 1.12139 -5.40489 0
M  V30 2988 H 284.121 1.96039 -3.67026 0
M  V30 2989 H 282.997 2.96932 -4.61652 0
M  V30 2990 H 283.258 3.32309 -2.91588 0
M  V30 2991 N 282.317 1.53212 0.369288 0
M  V30 2992 C 283.545 1.73119 1.13303 0
M  V30 2993 C 283.96 0.458455 1.83149 0
M  V30 2994 O 283.317 -0.568403 1.73423 0
M  V30 2995 C 283.368 2.89413 2.16616 0
M  V30 2996 O 283.089 4.11761 1.49614 0
M  V30 2997 C 284.59 3.21161 3.05566 0
M  V30 2998 H 281.81 0.579107 0.338934 0
M  V30 2999 H 284.354 1.99942 0.429338 0
M  V30 3000 H 282.509 2.64994 2.82589 0
M  V30 3001 H 282.923 4.76858 2.18419 0
M  V30 3002 H 284.397 4.05949 3.74045 0
M  V30 3003 H 284.874 2.36369 3.70171 0
M  V30 3004 H 285.48 3.47492 2.45213 0
M  V30 3005 N 283.795 -0.628877 1.44509 0
M  V30 3006 C 284.742 -1.74074 1.51549 0
M  V30 3007 C 285.712 -1.62084 0.363021 0
M  V30 3008 O 286.897 -1.81975 0.573567 0
M  V30 3009 C 284.037 -3.12328 1.46784 0
M  V30 3010 C 283.15 -3.35277 2.72422 0
M  V30 3011 C 282.285 -4.63515 2.59475 0
M  V30 3012 C 281.324 -4.7965 3.80266 0
M  V30 3013 N 280.461 -5.99168 3.65981 0
M  V30 3014 H 285.301 -1.67392 2.46544 0
M  V30 3015 H 282.838 -0.816527 1.22357 0
M  V30 3016 H 284.796 -3.92286 1.42012 0
M  V30 3017 H 283.426 -3.18018 0.553544 0
M  V30 3018 H 282.478 -2.49242 2.87372 0
M  V30 3019 H 283.79 -3.43078 3.62076 0
M  V30 3020 H 282.944 -5.51638 2.52548 0
M  V30 3021 H 281.683 -4.58076 1.67384 0
M  V30 3022 H 280.688 -3.89957 3.87574 0
M  V30 3023 H 281.913 -4.86902 4.73395 0
M  V30 3024 H 279.859 -5.94814 2.76644 0
M  V30 3025 H 279.776 -6.08035 4.49254 0
M  V30 3026 H 281.044 -6.89846 3.6295 0
M  V30 3027 N 285.273 -1.31445 -0.869486 0
M  V30 3028 C 286.22 -1.19135 -1.97675 0
M  V30 3029 C 287.19 -0.0770266 -1.65921 0
M  V30 3030 O 288.375 -0.249972 -1.89155 0
M  V30 3031 C 285.515 -0.905149 -3.33018 0
M  V30 3032 C 284.628 -2.10285 -3.77365 0
M  V30 3033 C 283.763 -1.75339 -5.01427 0
M  V30 3034 C 282.802 -2.91515 -5.38224 0
M  V30 3035 N 281.939 -2.56762 -6.53466 0
M  V30 3036 H 286.779 -2.13853 -2.07535 0
M  V30 3037 H 284.316 -1.06379 -1.01597 0
M  V30 3038 H 286.274 -0.719765 -4.10944 0
M  V30 3039 H 284.904 0.00519624 -3.228 0
M  V30 3040 H 283.956 -2.39899 -2.95216 0
M  V30 3041 H 285.268 -2.97237 -4.00564 0
M  V30 3042 H 284.422 -1.53266 -5.87022 0
M  V30 3043 H 283.161 -0.855801 -4.80133 0
M  V30 3044 H 282.166 -3.14237 -4.51149 0
M  V30 3045 H 283.391 -3.81985 -5.61484 0
M  V30 3046 H 281.337 -1.69526 -6.33717 0
M  V30 3047 H 281.254 -3.37243 -6.76612 0
M  V30 3048 H 282.522 -2.38083 -7.42251 0
M  V30 3049 N 286.751 1.08385 -1.14413 0
M  V30 3050 C 287.997 1.81044 -0.913834 0
M  V30 3051 C 288.33 1.86004 0.558209 0
M  V30 3052 O 287.605 1.33606 1.4135 0
M  V30 3053 C 287.888 3.26648 -1.51569 0
M  V30 3054 C 287.741 3.29895 -3.0576 0
M  V30 3055 C 289.06 4.23629 -1.19273 0
M  V30 3056 H 286.179 0.65727 -0.333414 0
M  V30 3057 H 288.821 1.26896 -1.41412 0
M  V30 3058 H 286.971 3.72889 -1.09023 0
M  V30 3059 H 288.643 2.91977 -3.57137 0
M  V30 3060 H 286.886 2.69163 -3.40197 0
M  V30 3061 H 287.557 4.32516 -3.42977 0
M  V30 3062 H 290.033 3.85727 -1.56057 0
M  V30 3063 H 288.909 5.23822 -1.64017 0
M  V30 3064 H 289.17 4.41968 -0.108068 0
M  V30 3065 N 288.23 0.939286 1.26551 0
M  V30 3066 C 289.16 0.465044 2.28822 0
M  V30 3067 C 290.141 -0.480692 1.63167 0
M  V30 3068 O 291.326 -0.382955 1.90387 0
M  V30 3069 C 288.456 -0.27234 3.46231 0
M  V30 3070 C 287.41 0.58666 4.2396 0
M  V30 3071 C 286.736 -0.280573 5.33963 0
M  V30 3072 C 288.036 1.85704 4.88171 0
M  V30 3073 H 289.73 1.31979 2.68741 0
M  V30 3074 H 287.276 0.636061 1.29191 0
M  V30 3075 H 289.229 -0.615133 4.16886 0
M  V30 3076 H 287.953 -1.16121 3.0526 0
M  V30 3077 H 286.612 0.91232 3.55067 0
M  V30 3078 H 286.26 -1.16874 4.89234 0
M  V30 3079 H 285.96 0.29076 5.8688 0
M  V30 3080 H 287.484 -0.618678 6.07458 0
M  V30 3081 H 288.898 1.58161 5.51052 0
M  V30 3082 H 287.295 2.37279 5.51197 0
M  V30 3083 H 288.365 2.56957 4.11219 0
M  V30 3084 N 289.708 -1.40897 0.706093 0
M  V30 3085 C 290.954 -2.01352 0.241889 0
M  V30 3086 C 291.287 -1.55832 -1.15888 0
M  V30 3087 O 290.562 -0.774145 -1.7843 0
M  V30 3088 C 290.845 -3.58752 0.311311 0
M  V30 3089 C 290.698 -4.1437 1.74978 0
M  V30 3090 C 292.017 -4.38914 -0.322922 0
M  V30 3091 H 289.136 -0.731562 0.0893687 0
M  V30 3092 H 291.778 -1.67504 0.896802 0
M  V30 3093 H 289.928 -3.87718 -0.246302 0
M  V30 3094 H 291.6 -3.96239 2.36205 0
M  V30 3095 H 289.843 -3.69016 2.28057 0
M  V30 3096 H 290.514 -5.23532 1.74981 0
M  V30 3097 H 292.99 -4.15822 0.152089 0
M  V30 3098 H 291.866 -5.48358 -0.243855 0
M  V30 3099 H 292.127 -4.19176 -1.40513 0
M  V30 3100 N 291.186 -0.45159 -1.50991 0
M  V30 3101 C 292.149 0.341117 -2.26647 0
M  V30 3102 C 293.149 0.937422 -1.30649 0
M  V30 3103 O 294.339 0.809644 -1.54241 0
M  V30 3104 C 291.471 1.48398 -3.06905 0
M  V30 3105 H 292.664 -0.322117 -2.98165 0
M  V30 3106 H 290.217 -0.205122 -1.54948 0
M  V30 3107 H 290.952 2.18284 -2.39838 0
M  V30 3108 H 290.737 1.06241 -3.77432 0
M  V30 3109 H 292.227 2.04367 -3.64176 0
M  V30 3110 N 292.664 1.56529 -0.183458 0
M  V30 3111 C 294.075 1.83739 0.331177 0
M  V30 3112 C 294.426 1.10373 1.62211 0
M  V30 3113 O 293.551 0.36071 2.13373 0
M  V30 3114 C 294.146 3.33306 0.607646 0
M  V30 3115 C 292.705 3.60969 1.06668 0
M  V30 3116 C 291.852 2.77086 0.109029 0
M  V30 3117 H 294.803 1.53379 -0.407484 0
M  V30 3118 H 294.824 3.51444 1.45832 0
M  V30 3119 H 294.336 3.86677 -0.332086 0
M  V30 3120 H 292.437 3.13021 2.0211 0
M  V30 3121 H 292.55 4.69231 0.967447 0
M  V30 3122 H 290.914 2.47319 0.608714 0
M  V30 3123 H 291.697 3.33241 -0.82494 0
M  V30 3124 N 294.142 -0.090211 1.57342 0
M  V30 3125 C 295.553 -0.644173 1.75235 0
M  V30 3126 C 295.904 -1.78865 0.806335 0
M  V30 3127 O 295.029 -2.16395 -0.0140128 0
M  V30 3128 C 295.624 -1.17532 3.1776 0
M  V30 3129 C 294.183 -1.67531 3.37061 0
M  V30 3130 C 293.33 -0.58693 2.71017 0
M  V30 3131 H 296.281 0.135884 1.58117 0
M  V30 3132 H 296.302 -2.04455 3.20902 0
M  V30 3133 H 295.814 -0.342138 3.86589 0
M  V30 3134 H 293.915 -2.53234 2.73319 0
M  V30 3135 H 294.028 -1.76493 4.45406 0
M  V30 3136 H 292.392 -1.02756 2.33052 0
M  V30 3137 H 293.175 0.235758 3.4249 0
M  V30 3138 N 295.62 -1.53406 -0.361157 0
M  V30 3139 C 297.031 -1.61442 -0.937728 0
M  V30 3140 C 297.382 -0.48461 -1.90121 0
M  V30 3141 O 296.507 0.388312 -2.12888 0
M  V30 3142 C 297.102 -2.92624 -1.70753 0
M  V30 3143 C 295.661 -3.02981 -2.23337 0
M  V30 3144 C 294.808 -2.5677 -1.04712 0
M  V30 3145 H 297.759 -1.58083 -0.139816 0
M  V30 3146 H 297.78 -2.80675 -2.56908 0
M  V30 3147 H 297.292 -3.74834 -1.00604 0
M  V30 3148 H 295.393 -2.25368 -2.96715 0
M  V30 3149 H 295.506 -4.0814 -2.50916 0
M  V30 3150 H 293.87 -2.11752 -1.41539 0
M  V30 3151 H 294.653 -3.41402 -0.360539 0
M  V30 3152 N 297.098 0.621204 -1.44841 0
M  V30 3153 C 298.375 1.38 -1.38619 0
M  V30 3154 C 298.755 2.11041 -0.0498935 0
M  V30 3155 O 298.103 2.06992 0.967816 0
M  V30 3156 C 298.313 2.33817 -2.59096 0
M  V30 3157 C 299.661 2.96844 -3.03593 0
M  V30 3158 O 300.685 2.44141 -2.59371 0
M  V30 3159 O 299.544 3.92476 -3.80296 0
M  V30 3160 H 296.638 0.61811 -0.549426 0
M  V30 3161 H 299.184 0.645429 -1.56947 0
M  V30 3162 H 297.956 1.79012 -3.47952 0
M  V30 3163 H 297.579 3.14676 -2.43032 0
M  V30 3164 N 298.576 1.31904 0.862503 0
M  V30 3165 C 299.486 1.22161 2.00285 0
M  V30 3166 C 300.502 0.136785 1.73462 0
M  V30 3167 O 301.678 0.355994 1.98229 0
M  V30 3168 C 298.743 0.937093 3.33796 0
M  V30 3169 C 297.804 2.10957 3.73893 0
M  V30 3170 C 297.037 1.83853 5.01033 0
M  V30 3171 O 297.26 0.777274 5.65079 0
M  V30 3172 O 296.194 2.69741 5.38074 0
M  V30 3173 H 300.02 2.18008 2.11439 0
M  V30 3174 H 297.605 1.11716 0.991957 0
M  V30 3175 H 299.487 0.794583 4.13841 0
M  V30 3176 H 298.162 0.00871894 3.23699 0
M  V30 3177 H 297.069 2.30752 2.94456 0
M  V30 3178 H 298.402 3.02046 3.88625 0
M  V30 3179 N 300.054 -1.07777 1.14986 0
M  V30 3180 C 300.964 -2.18404 0.856546 0
M  V30 3181 C 301.98 -1.73211 -0.165485 0
M  V30 3182 O 303.156 -2.01399 0.00755219 0
M  V30 3183 C 300.221 -3.44977 0.34526 0
M  V30 3184 C 299.282 -4.0476 1.43065 0
M  V30 3185 C 298.515 -5.25291 0.943663 0
M  V30 3186 O 298.738 -5.70004 -0.212426 0
M  V30 3187 O 297.672 -5.76638 1.72547 0
M  V30 3188 H 301.498 -2.45978 1.78125 0
M  V30 3189 H 299.083 -1.17033 0.928631 0
M  V30 3190 H 300.965 -4.21348 0.0663671 0
M  V30 3191 H 299.64 -3.18965 -0.551631 0
M  V30 3192 H 298.547 -3.29949 1.76309 0
M  V30 3193 H 299.88 -4.35035 2.30229 0
M  V30 3194 N 301.532 -0.945985 -1.26051 0
M  V30 3195 C 302.495 -0.463897 -2.24456 0
M  V30 3196 C 303.495 0.427655 -1.55009 0
M  V30 3197 O 304.685 0.226157 -1.72726 0
M  V30 3198 C 301.817 0.330812 -3.39291 0
M  V30 3199 H 303.01 -1.33357 -2.68619 0
M  V30 3200 H 300.563 -0.728416 -1.38289 0
M  V30 3201 H 301.298 1.21852 -3.00537 0
M  V30 3202 H 301.083 -0.308679 -3.90883 0
M  V30 3203 H 302.573 0.657865 -4.12386 0
M  V30 3204 N 303.011 1.40521 -0.713556 0
M  V30 3205 C 303.959 2.32549 -0.0485227 0
M  V30 3206 C 304.953 1.51931 0.74922 0
M  V30 3207 O 306.159 1.67745 0.652816 0
M  V30 3208 H 302.534 0.751994 0.00311138 0
M  V30 3209 H 304.505 2.86291 -0.841443 0
M  V30 3210 C 303.254 3.36879 0.860687 0
M  V30 3211 H 302.577 3.98978 0.256246 0
M  V30 3212 H 304.017 4.03772 1.294 0
M  V30 3213 C 302.476 2.72197 1.9852 0
M  V30 3214 O 303.006 2.5837 3.07584 0
M  V30 3215 N 301.212 2.30612 1.76823 0
M  V30 3216 H 300.759 2.42059 0.881217 0
M  V30 3217 H 300.717 1.87672 2.52243 0
M  V30 3218 N 304.489 0.459591 1.5075 0
M  V30 3219 C 305.452 -0.329093 2.26825 0
M  V30 3220 C 306.452 -0.930481 1.31144 0
M  V30 3221 O 307.642 -0.801453 1.54669 0
M  V30 3222 C 304.774 -1.46768 3.07688 0
M  V30 3223 H 305.967 0.337924 2.9799 0
M  V30 3224 H 303.52 0.213336 1.54837 0
M  V30 3225 H 304.255 -2.17009 2.40993 0
M  V30 3226 H 304.04 -1.04238 3.77991 0
M  V30 3227 H 305.53 -2.02433 3.65254 0
M  V30 3228 N 305.967 -1.56429 0.191757 0
M  V30 3229 C 307.195 -2.01867 -0.453586 0
M  V30 3230 C 307.61 -1.07191 -1.5542 0
M  V30 3231 O 306.967 -0.0762108 -1.82341 0
M  V30 3232 C 307.018 -3.47017 -1.013 0
M  V30 3233 O 306.739 -4.38078 0.0437005 0
M  V30 3234 C 308.24 -4.07956 -1.73456 0
M  V30 3235 H 305.46 -0.661211 -0.114199 0
M  V30 3236 H 308.004 -2.02295 0.299483 0
M  V30 3237 H 306.159 -3.47298 -1.71647 0
M  V30 3238 H 306.573 -5.23178 -0.372212 0
M  V30 3239 H 308.047 -5.1138 -2.07833 0
M  V30 3240 H 308.524 -3.51222 -2.63704 0
M  V30 3241 H 309.13 -4.11437 -1.07702 0
M  V30 3242 N 307.445 0.0818655 -1.57387 0
M  V30 3243 C 308.67 0.799946 -1.91352 0
M  V30 3244 C 309.095 1.70833 -0.787258 0
M  V30 3245 O 308.453 1.79419 0.26048 0
M  V30 3246 C 308.501 1.57812 -3.24234 0
M  V30 3247 O 307.605 2.68806 -3.12757 0
M  V30 3248 H 306.946 0.21891 -0.626877 0
M  V30 3249 H 309.476 0.0531256 -2.04531 0
M  V30 3250 H 309.486 1.95952 -3.57864 0
M  V30 3251 H 308.161 0.911548 -4.05788 0
M  V30 3252 H 306.738 2.33597 -2.90666 0
M  V30 3253 N 308.923 1.53595 0.353017 0
M  V30 3254 C 309.886 1.80232 1.41594 0
M  V30 3255 C 310.886 0.673081 1.46035 0
M  V30 3256 O 312.076 0.941335 1.46576 0
M  V30 3257 C 309.208 1.93578 2.80607 0
M  V30 3258 H 310.401 2.75174 1.19244 0
M  V30 3259 H 307.954 1.44864 0.586872 0
M  V30 3260 H 308.689 1.00746 3.08254 0
M  V30 3261 H 308.474 2.75724 2.78781 0
M  V30 3262 H 309.964 2.15735 3.57558 0
M  V30 3263 N 310.401 -0.613514 1.45168 0
M  V30 3264 C 311.647 -1.37471 1.49096 0
M  V30 3265 C 311.98 -1.93765 0.129901 0
M  V30 3266 O 311.255 -1.74707 -0.854858 0
M  V30 3267 C 311.538 -2.52701 2.56542 0
M  V30 3268 C 311.391 -2.01643 4.0207 0
M  V30 3269 C 312.71 -3.54849 2.60327 0
M  V30 3270 H 309.829 -0.498502 0.54283 0
M  V30 3271 H 312.471 -0.692125 1.76945 0
M  V30 3272 H 310.621 -3.10931 2.32926 0
M  V30 3273 H 312.293 -1.48108 4.36877 0
M  V30 3274 H 310.536 -1.32688 4.13009 0
M  V30 3275 H 311.207 -2.84681 4.72928 0
M  V30 3276 H 313.683 -3.0645 2.81474 0
M  V30 3277 H 312.559 -4.32973 3.37381 0
M  V30 3278 H 312.82 -4.10079 1.6519 0
M  V30 3279 N 311.879 -1.3236 -0.855495 0
M  V30 3280 C 313.125 -1.23054 -1.612 0
M  V30 3281 C 313.458 0.207404 -1.93089 0
M  V30 3282 O 312.733 1.14432 -1.57275 0
M  V30 3283 C 313.016 -2.08937 -2.93287 0
M  V30 3284 C 312.869 -3.61105 -2.68185 0
M  V30 3285 C 314.188 -1.94986 -3.94549 0
M  V30 3286 H 311.307 -0.448364 -0.584926 0
M  V30 3287 H 313.949 -1.62297 -0.987917 0
M  V30 3288 H 312.099 -1.75599 -3.46551 0
M  V30 3289 H 313.771 -4.04652 -2.21483 0
M  V30 3290 H 312.014 -3.83813 -2.02164 0
M  V30 3291 H 312.685 -4.16522 -3.62234 0
M  V30 3292 H 315.161 -2.24189 -3.5054 0
M  V30 3293 H 314.037 -2.57356 -4.84829 0
M  V30 3294 H 314.298 -0.917263 -4.3248 0
M  V30 3295 N 313.357 1.07166 -1.15556 0
M  V30 3296 C 314.582 1.84053 -0.955988 0
M  V30 3297 C 315.007 1.81586 0.490739 0
M  V30 3298 O 314.365 1.21018 1.34997 0
M  V30 3299 C 314.413 3.28957 -1.47714 0
M  V30 3300 O 313.517 4.06795 -0.677593 0
M  V30 3301 H 312.858 0.569842 -0.340847 0
M  V30 3302 H 315.388 1.35178 -1.53584 0
M  V30 3303 H 315.398 3.79788 -1.4908 0
M  V30 3304 H 314.073 3.30068 -2.53037 0
M  V30 3305 H 312.65 3.6561 -0.733721 0
M  V30 3306 N 314.835 0.952656 1.25548 0
M  V30 3307 C 315.765 0.489287 2.28316 0
M  V30 3308 C 316.746 -0.463359 1.63667 0
M  V30 3309 O 317.931 -0.36274 1.90782 0
M  V30 3310 C 315.061 -0.235603 3.465 0
M  V30 3311 C 314.015 0.631593 4.23314 0
M  V30 3312 C 313.341 -0.223923 5.34231 0
M  V30 3313 C 314.641 1.90871 4.86174 0
M  V30 3314 H 316.335 1.34822 2.67326 0
M  V30 3315 H 313.881 0.649728 1.28509 0
M  V30 3316 H 315.834 -0.570882 4.17515 0
M  V30 3317 H 314.558 -1.12877 3.06474 0
M  V30 3318 H 313.217 0.949929 3.54079 0
M  V30 3319 H 312.865 -1.11678 4.90446 0
M  V30 3320 H 312.565 0.35299 5.86539 0
M  V30 3321 H 314.089 -0.554214 6.0808 0
M  V30 3322 H 315.503 1.63997 5.49343 0
M  V30 3323 H 313.9 2.43112 5.4865 0
M  V30 3324 H 314.97 2.61304 4.08471 0
M  V30 3325 N 316.313 -1.40141 0.720998 0
M  V30 3326 C 317.243 -2.33339 0.0867621 0
M  V30 3327 C 318.224 -1.53178 -0.739622 0
M  V30 3328 O 319.409 -1.81625 -0.687449 0
M  V30 3329 C 316.539 -3.37194 -0.831728 0
M  V30 3330 C 315.493 -4.27857 -0.110558 0
M  V30 3331 C 314.819 -5.22294 -1.14513 0
M  V30 3332 C 316.119 -5.11872 1.0385 0
M  V30 3333 H 317.813 -2.86626 0.865219 0
M  V30 3334 H 315.359 -1.37814 0.417516 0
M  V30 3335 H 317.312 -4.01335 -1.28485 0
M  V30 3336 H 316.036 -2.82314 -1.64214 0
M  V30 3337 H 314.695 -3.65176 0.322797 0
M  V30 3338 H 314.343 -4.63717 -1.94874 0
M  V30 3339 H 314.043 -5.83797 -0.667446 0
M  V30 3340 H 315.567 -5.89312 -1.59824 0
M  V30 3341 H 316.981 -5.69436 0.664482 0
M  V30 3342 H 315.378 -5.82445 1.4449 0
M  V30 3343 H 316.448 -4.4753 1.86668 0
M  V30 3344 N 317.792 -0.46758 -1.50504 0
M  V30 3345 C 318.74 0.342482 -2.30065 0
M  V30 3346 C 319.734 0.993596 -1.37201 0
M  V30 3347 O 320.94 0.925102 -1.54408 0
M  V30 3348 H 317.315 0.129283 -0.740803 0
M  V30 3349 H 319.286 -0.34899 -2.96352 0
M  V30 3350 C 318.035 1.4139 -3.17654 0
M  V30 3351 H 317.358 0.922264 -3.89017 0
M  V30 3352 H 318.798 1.95335 -3.76325 0
M  V30 3353 C 317.257 2.4139 -2.35016 0
M  V30 3354 O 317.787 3.46586 -2.03079 0
M  V30 3355 N 315.993 2.13021 -1.97662 0
M  V30 3356 H 315.54 1.27499 -2.23834 0
M  V30 3357 H 315.498 2.80164 -1.42673 0
M  V30 3358 N 319.27 1.56325 -0.20005 0
M  V30 3359 C 320.18 2.22931 0.730668 0
M  V30 3360 C 321.196 1.22997 1.23076 0
M  V30 3361 O 322.372 1.55748 1.27689 0
M  V30 3362 C 319.437 2.87948 1.93098 0
M  V30 3363 C 318.498 4.03166 1.47497 0
M  V30 3364 C 317.731 4.65073 2.61807 0
M  V30 3365 O 317.954 4.25913 3.79413 0
M  V30 3366 O 316.888 5.54452 2.34237 0
M  V30 3367 H 320.714 3.03084 0.193391 0
M  V30 3368 H 318.299 1.49371 0.0294621 0
M  V30 3369 H 320.181 3.29063 2.6324 0
M  V30 3370 H 318.856 2.10771 2.45677 0
M  V30 3371 H 317.763 3.66664 0.742201 0
M  V30 3372 H 319.096 4.82022 0.995796 0
M  V30 3373 N 320.748 -0.0735177 1.57428 0
M  V30 3374 C 321.976 -0.785969 1.9139 0
M  V30 3375 C 322.391 -1.71207 0.795847 0
M  V30 3376 O 321.748 -1.81033 -0.230915 0
M  V30 3377 C 321.799 -1.58107 3.25091 0
M  V30 3378 O 321.52 -0.6922 4.32597 0
M  V30 3379 C 323.021 -2.39467 3.73055 0
M  V30 3380 H 320.241 -0.223558 0.632663 0
M  V30 3381 H 322.785 -0.044302 2.04452 0
M  V30 3382 H 320.94 -2.27503 3.13562 0
M  V30 3383 H 321.354 -1.24504 5.09508 0
M  V30 3384 H 322.828 -2.90716 4.69242 0
M  V30 3385 H 323.305 -3.18913 3.01979 0
M  V30 3386 H 323.911 -1.7523 3.87523 0
M  V30 3387 N 322.226 -1.5378 -0.344866 0
M  V30 3388 C 323.472 -1.71216 -1.08687 0
M  V30 3389 C 323.805 -0.473281 -1.88345 0
M  V30 3390 O 323.08 0.52968 -1.87149 0
M  V30 3391 C 323.363 -2.97486 -2.02914 0
M  V30 3392 C 323.216 -4.31579 -1.26727 0
M  V30 3393 C 324.535 -3.19422 -3.0275 0
M  V30 3394 H 321.654 -0.62301 -0.393735 0
M  V30 3395 H 324.296 -1.8645 -0.365563 0
M  V30 3396 H 322.446 -2.84629 -2.64421 0
M  V30 3397 H 324.118 -4.56284 -0.67845 0
M  V30 3398 H 322.361 -4.30049 -0.569273 0
M  V30 3399 H 323.032 -5.16106 -1.95803 0
M  V30 3400 H 325.508 -3.316 -2.51357 0
M  V30 3401 H 324.384 -4.09169 -3.65885 0
M  V30 3402 H 324.645 -2.35656 -3.74057 0
M  V30 3403 N 323.704 0.605807 -1.45491 0
M  V30 3404 C 324.932 1.39136 -1.5313 0
M  V30 3405 C 325.347 1.88082 -0.164507 0
M  V30 3406 O 324.704 1.62316 0.834247 0
M  V30 3407 C 324.755 2.59463 -2.51716 0
M  V30 3408 O 324.476 2.12551 -3.83084 0
M  V30 3409 C 325.977 3.52301 -2.6907 0
M  V30 3410 H 323.197 0.425849 -0.51855 0
M  V30 3411 H 325.741 0.73865 -1.90694 0
M  V30 3412 H 323.896 3.20772 -2.17219 0
M  V30 3413 H 324.31 2.90744 -4.36541 0
M  V30 3414 H 325.784 4.33271 -3.42024 0
M  V30 3415 H 326.261 4.02757 -1.75167 0
M  V30 3416 H 326.867 2.96845 -3.04571 0
M  V30 3417 N 325.182 1.32811 0.848464 0
M  V30 3418 C 326.092 1.24278 1.98978 0
M  V30 3419 C 327.108 0.155176 1.73307 0
M  V30 3420 O 328.284 0.376999 1.9784 0
M  V30 3421 C 325.349 0.972444 3.32783 0
M  V30 3422 C 324.41 2.14911 3.71634 0
M  V30 3423 C 323.643 1.89157 4.99054 0
M  V30 3424 O 323.866 0.837165 5.64223 0
M  V30 3425 O 322.8 2.75433 5.35183 0
M  V30 3426 H 326.626 2.20238 2.09115 0
M  V30 3427 H 324.211 1.12762 0.980052 0
M  V30 3428 H 326.093 0.838432 4.12975 0
M  V30 3429 H 324.768 0.043051 3.23671 0
M  V30 3430 H 323.675 2.33862 2.91992 0
M  V30 3431 H 325.008 3.06151 3.85399 0
M  V30 3432 N 326.66 -1.06551 1.16123 0
M  V30 3433 C 327.906 -1.79567 0.94252 0
M  V30 3434 C 328.239 -1.86869 -0.528547 0
M  V30 3435 O 327.514 -1.35838 -1.39206 0
M  V30 3436 C 327.797 -3.24195 1.56747 0
M  V30 3437 C 327.65 -3.24989 3.10969 0
M  V30 3438 C 328.969 -4.21678 1.25998 0
M  V30 3439 H 326.088 -0.651883 0.343828 0
M  V30 3440 H 328.73 -1.2463 1.43413 0
M  V30 3441 H 326.88 -3.71107 1.14942 0
M  V30 3442 H 328.552 -2.86258 3.61737 0
M  V30 3443 H 326.795 -2.63716 3.44436 0
M  V30 3444 H 327.466 -4.27005 3.49815 0
M  V30 3445 H 329.942 -3.83196 1.62174 0
M  V30 3446 H 328.818 -5.21146 1.7233 0
M  V30 3447 H 329.079 -4.4174 0.178367 0
M  V30 3448 N 328.138 -0.959301 -1.25041 0
M  V30 3449 C 329.549 -0.65667 -1.74771 0
M  V30 3450 C 329.9 0.827852 -1.77879 0
M  V30 3451 O 329.025 1.64783 -1.40269 0
M  V30 3452 C 329.62 -1.1853 -3.1739 0
M  V30 3453 C 328.179 -0.932734 -3.6466 0
M  V30 3454 C 327.326 -1.32558 -2.43564 0
M  V30 3455 H 330.277 -1.13558 -1.10862 0
M  V30 3456 H 330.298 -0.547582 -3.76539 0
M  V30 3457 H 329.81 -2.26576 -3.15095 0
M  V30 3458 H 327.911 0.13257 -3.72364 0
M  V30 3459 H 328.024 -1.57248 -4.52559 0
M  V30 3460 H 326.388 -0.743956 -2.43593 0
M  V30 3461 H 327.171 -2.41537 -2.43957 0
M  V30 3462 N 329.616 1.39756 -0.72842 0
M  V30 3463 C 330.526 2.34444 -0.0855374 0
M  V30 3464 C 331.542 1.57976 0.729356 0
M  V30 3465 O 332.718 1.90301 0.659346 0
M  V30 3466 C 329.783 3.36965 0.815798 0
M  V30 3467 C 328.844 4.29299 -0.0105996 0
M  V30 3468 C 328.077 5.26923 0.84781 0
M  V30 3469 O 328.3 5.30859 2.08673 0
M  V30 3470 O 327.234 6.01249 0.279969 0
M  V30 3471 H 331.06 2.91065 -0.866892 0
M  V30 3472 H 328.645 1.4117 -0.48902 0
M  V30 3473 H 330.527 3.99804 1.33171 0
M  V30 3474 H 329.202 2.82739 1.57608 0
M  V30 3475 H 328.109 3.69703 -0.571877 0
M  V30 3476 H 329.442 4.86712 -0.73295 0
M  V30 3477 N 331.094 0.475555 1.50254 0
M  V30 3478 C 332.004 -0.321501 2.32387 0
M  V30 3479 C 333.02 -0.991755 1.42969 0
M  V30 3480 O 334.196 -0.978747 1.76018 0
M  V30 3481 C 331.261 -1.38667 3.17762 0
M  V30 3482 C 330.322 -0.732538 4.23004 0
M  V30 3483 C 329.555 -1.74695 5.04299 0
M  V30 3484 O 329.778 -2.97399 4.86734 0
M  V30 3485 O 328.712 -1.31631 5.8733 0
M  V30 3486 H 332.538 0.350071 3.01676 0
M  V30 3487 H 330.123 0.237321 1.47503 0
M  V30 3488 H 332.005 -2.00354 3.70724 0
M  V30 3489 H 330.68 -2.04163 2.51196 0
M  V30 3490 H 329.587 -0.0765902 3.74022 0
M  V30 3491 H 330.92 -0.120452 4.92053 0
M  V30 3492 N 332.573 -1.56217 0.208337 0
M  V30 3493 C 333.801 -2.02337 -0.43215 0
M  V30 3494 C 334.216 -1.08834 -1.54275 0
M  V30 3495 O 333.573 -0.0955462 -1.8225 0
M  V30 3496 C 333.624 -3.48072 -0.976138 0
M  V30 3497 O 333.345 -4.38007 0.0901621 0
M  V30 3498 C 334.846 -4.09773 -1.69119 0
M  V30 3499 H 332.066 -0.662385 -0.10718 0
M  V30 3500 H 334.61 -2.01966 0.320923 0
M  V30 3501 H 332.765 -3.49099 -1.67954 0
M  V30 3502 H 333.179 -5.23543 -0.316701 0
M  V30 3503 H 334.653 -5.13556 -2.02397 0
M  V30 3504 H 335.13 -3.53999 -2.59964 0
M  V30 3505 H 335.736 -4.12556 -1.03332 0
M  V30 3506 N 334.051 0.0651679 -1.57465 0
M  V30 3507 C 334.998 1.07675 -2.04144 0
M  V30 3508 C 335.968 1.38071 -0.923335 0
M  V30 3509 O 337.153 1.49026 -1.19146 0
M  V30 3510 C 334.293 2.38337 -2.49579 0
M  V30 3511 C 333.406 2.14413 -3.75035 0
M  V30 3512 C 332.541 3.38686 -4.09225 0
M  V30 3513 C 331.58 3.10156 -5.27702 0
M  V30 3514 N 330.717 4.26778 -5.57499 0
M  V30 3515 H 335.557 0.671716 -2.90331 0
M  V30 3516 H 333.094 0.3201 -1.43575 0
M  V30 3517 H 335.052 3.14632 -2.73975 0
M  V30 3518 H 333.682 2.7663 -1.6636 0
M  V30 3519 H 332.734 1.2878 -3.57939 0
M  V30 3520 H 334.046 1.89344 -4.61466 0
M  V30 3521 H 333.2 4.23373 -4.34558 0
M  V30 3522 H 331.939 3.66837 -3.21374 0
M  V30 3523 H 330.944 2.23866 -5.02159 0
M  V30 3524 H 332.169 2.8332 -6.17176 0
M  V30 3525 H 330.115 4.54948 -4.72608 0
M  V30 3526 H 330.032 4.05005 -6.38362 0
M  V30 3527 H 331.3 5.12443 -5.87386 0
M  V30 3528 N 335.529 1.53961 0.336706 0
M  V30 3529 C 336.462 1.77255 1.43722 0
M  V30 3530 C 337.44 0.62193 1.50236 0
M  V30 3531 O 338.624 0.857874 1.67847 0
M  V30 3532 C 335.751 1.87733 2.81912 0
M  V30 3533 C 334.797 3.09933 2.92991 0
M  V30 3534 S 335.63 4.68836 2.58753 0
M  V30 3535 C 336.786 4.82202 3.99039 0
M  V30 3536 H 337.019 2.70322 1.23748 0
M  V30 3537 H 334.552 1.44917 0.532777 0
M  V30 3538 H 336.51 1.94455 3.61521 0
M  V30 3539 H 335.171 0.956666 2.99177 0
M  V30 3540 H 334.364 3.1396 3.94265 0
M  V30 3541 H 333.966 3.01472 2.21338 0
M  V30 3542 H 336.258 4.64032 4.9364 0
M  V30 3543 H 337.201 5.84298 4.00002 0
M  V30 3544 H 337.609 4.10604 3.87382 0
M  V30 3545 N 337.007 -0.598083 1.45811 0
M  V30 3546 C 338.253 -1.35882 1.50545 0
M  V30 3547 C 338.586 -1.93616 0.150445 0
M  V30 3548 O 337.861 -1.75604 -0.83628 0
M  V30 3549 C 338.144 -2.49966 2.59208 0
M  V30 3550 C 337.997 -1.97367 4.04186 0
M  V30 3551 C 339.316 -3.52068 2.64076 0
M  V30 3552 H 336.435 -0.492717 0.548087 0
M  V30 3553 H 339.077 -0.673319 1.77669 0
M  V30 3554 H 337.227 -3.08443 2.3621 0
M  V30 3555 H 338.899 -1.43466 4.38423 0
M  V30 3556 H 337.142 -1.283 4.14393 0
M  V30 3557 H 337.813 -2.79649 4.75921 0
M  V30 3558 H 340.289 -3.03448 2.84708 0
M  V30 3559 H 339.165 -4.2937 3.41954 0
M  V30 3560 H 339.426 -4.08304 1.69531 0
M  V30 3561 N 338.485 -1.33259 -0.841409 0
M  V30 3562 C 339.734 -1.23921 -1.59143 0
M  V30 3563 C 340.047 0.1941 -1.94635 0
M  V30 3564 O 341.253 0.409474 -2.68394 0
M  V30 3565 C 339.709 -2.17119 -2.87032 0
M  V30 3566 C 339.317 -3.65606 -2.58914 0
M  V30 3567 C 341.061 -2.16648 -3.65053 0
M  V30 3568 C 338.968 -4.50726 -3.82884 0
M  V30 3569 H 337.898 -0.460264 -0.597221 0
M  V30 3570 H 340.549 -1.58307 -0.927959 0
M  V30 3571 H 338.931 -1.75663 -3.54906 0
M  V30 3572 H 340.105 -4.15487 -1.99267 0
M  V30 3573 H 338.42 -3.68341 -1.942 0
M  V30 3574 H 341.017 -2.77474 -4.57069 0
M  V30 3575 H 341.36 -1.16088 -3.99787 0
M  V30 3576 H 341.893 -2.56453 -3.041 0
M  V30 3577 H 338.632 -5.52151 -3.53283 0
M  V30 3578 H 338.152 -4.0559 -4.41879 0
M  V30 3579 H 339.831 -4.64401 -4.50489 0
M  V30 3580 N 339.963 1.05934 -1.16686 0
M  V30 3581 C 340.91 2.13499 -0.876748 0
M  V30 3582 C 341.88 1.65162 0.176299 0
M  V30 3583 O 343.065 1.90757 0.0407143 0
M  V30 3584 C 340.205 3.42912 -0.387967 0
M  V30 3585 C 339.318 4.04964 -1.50426 0
M  V30 3586 C 338.453 5.22266 -0.970125 0
M  V30 3587 C 337.492 5.76309 -2.06238 0
M  V30 3588 N 336.629 6.84922 -1.54356 0
M  V30 3589 H 341.469 2.37654 -1.7979 0
M  V30 3590 H 339.006 1.16598 -0.896843 0
M  V30 3591 H 340.964 4.17111 -0.086186 0
M  V30 3592 H 339.594 3.18963 0.496235 0
M  V30 3593 H 338.646 3.28277 -1.92193 0
M  V30 3594 H 339.958 4.41122 -2.32836 0
M  V30 3595 H 339.112 6.03506 -0.621743 0
M  V30 3596 H 337.851 4.87564 -0.115377 0
M  V30 3597 H 336.856 4.93704 -2.41942 0
M  V30 3598 H 338.081 6.13062 -2.92115 0
M  V30 3599 H 336.027 6.52131 -0.711406 0
M  V30 3600 H 335.944 7.20043 -2.30379 0
M  V30 3601 H 337.212 7.69832 -1.22387 0
M  V30 3602 N 341.441 0.965919 1.2453 0
M  V30 3603 C 342.388 0.49402 2.25451 0
M  V30 3604 C 343.358 -0.45948 1.59618 0
M  V30 3605 O 344.543 -0.370238 1.87173 0
M  V30 3606 C 341.683 -0.211359 3.44452 0
M  V30 3607 C 340.796 0.7807 4.24887 0
M  V30 3608 C 339.931 0.0516105 5.31175 0
M  V30 3609 C 338.97 1.03385 6.03306 0
M  V30 3610 N 338.107 0.334887 7.01301 0
M  V30 3611 H 342.947 1.35946 2.65184 0
M  V30 3612 H 340.484 0.681515 1.3036 0
M  V30 3613 H 342.442 -0.637 4.12308 0
M  V30 3614 H 341.072 -1.04077 3.05562 0
M  V30 3615 H 340.124 1.32479 3.56586 0
M  V30 3616 H 341.436 1.52978 4.74762 0
M  V30 3617 H 340.59 -0.432114 6.05159 0
M  V30 3618 H 339.329 -0.730179 4.82203 0
M  V30 3619 H 338.334 1.52847 5.28127 0
M  V30 3620 H 339.559 1.81606 6.54367 0
M  V30 3621 H 337.505 -0.427959 6.54603 0
M  V30 3622 H 337.422 1.02287 7.49048 0
M  V30 3623 H 338.69 -0.126928 7.79397 0
M  V30 3624 N 342.919 -1.39368 0.735821 0
M  V30 3625 C 344.167 -2.00101 0.283562 0
M  V30 3626 C 344.488 -1.5868 -1.13338 0
M  V30 3627 O 343.758 -0.835423 -1.77193 0
M  V30 3628 H 342.338 -0.740024 0.101851 0
M  V30 3629 H 345 -1.70404 0.945962 0
M  V30 3630 H 344.096 -3.10323 0.332604 0
M  V30 3631 N 344.397 -0.483516 -1.5 0
M  V30 3632 C 345.327 0.293829 -2.31644 0
M  V30 3633 C 346.308 0.978864 -1.39112 0
M  V30 3634 O 347.493 0.973644 -1.68029 0
M  V30 3635 C 344.623 1.36897 -3.19181 0
M  V30 3636 C 343.577 0.804833 -4.20365 0
M  V30 3637 C 342.903 1.9792 -4.96721 0
M  V30 3638 C 344.203 -0.192313 -5.21946 0
M  V30 3639 H 345.897 -0.387616 -2.9688 0
M  V30 3640 H 343.443 -0.187856 -1.42769 0
M  V30 3641 H 345.396 1.92037 -3.751 0
M  V30 3642 H 344.12 2.07936 -2.51853 0
M  V30 3643 H 342.779 0.275319 -3.65565 0
M  V30 3644 H 342.427 2.67686 -4.25856 0
M  V30 3645 H 342.127 1.60789 -5.65173 0
M  V30 3646 H 343.651 2.53526 -5.55479 0
M  V30 3647 H 345.065 0.270333 -5.72662 0
M  V30 3648 H 343.462 -0.478543 -5.98189 0
M  V30 3649 H 344.532 -1.11409 -4.71928 0
M  V30 3650 N 345.875 1.56104 -0.216619 0
M  V30 3651 C 346.785 2.23694 0.706982 0
M  V30 3652 C 347.801 1.24295 1.21765 0
M  V30 3653 O 348.977 1.57094 1.2603 0
M  V30 3654 C 346.042 2.8998 1.90033 0
M  V30 3655 C 345.103 4.04708 1.43213 0
M  V30 3656 C 344.336 4.67824 2.56859 0
M  V30 3657 O 344.559 4.29913 3.74874 0
M  V30 3658 O 343.493 5.56905 2.28343 0
M  V30 3659 H 347.319 3.03272 0.161235 0
M  V30 3660 H 344.904 1.49394 0.0136177 0
M  V30 3661 H 346.786 3.31837 2.59735 0
M  V30 3662 H 345.461 2.13365 2.43428 0
M  V30 3663 H 344.368 3.6743 0.70327 0
M  V30 3664 H 345.701 4.83051 0.944615 0
M  V30 3665 N 347.353 -0.0568162 1.57498 0
M  V30 3666 C 348.6 -0.753104 1.87975 0
M  V30 3667 C 348.928 -1.76815 0.81035 0
M  V30 3668 O 348.183 -1.94756 -0.19199 0
M  V30 3669 C 348.482 -1.48359 3.25153 0
M  V30 3670 C 348.148 -0.60713 4.46794 0
M  V30 3671 C 346.81 -0.365642 4.79809 0
M  V30 3672 C 349.162 -0.000305978 5.212 0
M  V30 3673 C 346.49 0.491905 5.84634 0
M  V30 3674 C 348.842 0.844781 6.26934 0
M  V30 3675 C 347.506 1.096 6.58441 0
M  V30 3676 H 346.776 -0.27558 0.687849 0
M  V30 3677 H 349.423 -0.0135173 1.91495 0
M  V30 3678 H 347.728 -2.29577 3.17492 0
M  V30 3679 H 349.425 -2.02739 3.45974 0
M  V30 3680 H 346.015 -0.805487 4.20963 0
M  V30 3681 H 350.199 -0.173961 4.95995 0
M  V30 3682 H 345.455 0.695131 6.07436 0
M  V30 3683 H 349.629 1.32165 6.83744 0
M  V30 3684 H 347.256 1.76224 7.39492 0
M  V30 3685 N 348.832 -1.54138 -0.328536 0
M  V30 3686 C 349.779 -1.83176 -1.40411 0
M  V30 3687 C 350.749 -0.678494 -1.5161 0
M  V30 3688 O 351.934 -0.92443 -1.6691 0
M  V30 3689 C 349.074 -2.06035 -2.76846 0
M  V30 3690 C 348.187 -3.33727 -2.74318 0
M  V30 3691 C 347.322 -3.46574 -4.02567 0
M  V30 3692 C 346.361 -4.68159 -3.94327 0
M  V30 3693 N 345.498 -4.77959 -5.14296 0
M  V30 3694 H 350.338 -2.74938 -1.14948 0
M  V30 3695 H 347.875 -1.36166 -0.556538 0
M  V30 3696 H 349.833 -2.1728 -3.56153 0
M  V30 3697 H 348.463 -1.1757 -3.00628 0
M  V30 3698 H 347.515 -3.31246 -1.8703 0
M  V30 3699 H 348.827 -4.23139 -2.64111 0
M  V30 3700 H 347.981 -3.57333 -4.90304 0
M  V30 3701 H 346.72 -2.55245 -4.15574 0
M  V30 3702 H 345.725 -4.57461 -3.04974 0
M  V30 3703 H 346.95 -5.60868 -3.82889 0
M  V30 3704 H 344.896 -3.89544 -5.27818 0
M  V30 3705 H 344.813 -5.6133 -5.06404 0
M  V30 3706 H 346.081 -4.93044 -6.03761 0
M  V30 3707 N 350.31 0.590341 -1.46126 0
M  V30 3708 C 351.587 1.35029 -1.41515 0
M  V30 3709 C 351.967 2.10888 -0.0946472 0
M  V30 3710 O 351.315 2.08998 0.923693 0
M  V30 3711 C 351.525 2.28269 -2.63997 0
M  V30 3712 C 352.873 2.90338 -3.09821 0
M  V30 3713 O 353.897 2.38585 -2.64492 0
M  V30 3714 O 352.756 3.84321 -3.88535 0
M  V30 3715 H 349.85 0.606317 -0.562413 0
M  V30 3716 H 352.396 0.611994 -1.58281 0
M  V30 3717 H 351.168 1.71591 -3.51671 0
M  V30 3718 H 350.791 3.0945 -2.49652 0
M  V30 3719 N 351.788 1.33704 0.83433 0
M  V30 3720 C 353.036 1.25169 1.58673 0
M  V30 3721 C 353.357 -0.18127 1.94156 0
M  V30 3722 O 352.627 -1.11113 1.6134 0
M  V30 3723 H 351.207 0.4603 0.58833 0
M  V30 3724 H 353.869 1.67478 0.996847 0
M  V30 3725 H 352.965 1.84856 2.51465 0
M  V30 3726 N 353.266 -1.05314 1.17247 0
M  V30 3727 C 354.199 -2.12512 0.831507 0
M  V30 3728 C 355.177 -1.61351 -0.201168 0
M  V30 3729 O 356.361 -1.88317 -0.0829831 0
M  V30 3730 C 353.488 -3.37848 0.24015 0
M  V30 3731 C 352.534 -4.07832 1.24801 0
M  V30 3732 S 353.367 -4.56537 2.79882 0
M  V30 3733 C 354.523 -5.85122 2.22223 0
M  V30 3734 H 354.756 -2.41106 1.7394 0
M  V30 3735 H 352.289 -1.17896 0.996988 0
M  V30 3736 H 354.247 -4.10391 -0.0945588 0
M  V30 3737 H 352.908 -3.07392 -0.645668 0
M  V30 3738 H 352.101 -4.97883 0.78287 0
M  V30 3739 H 351.703 -3.41348 1.52831 0
M  V30 3740 H 353.995 -6.58408 1.59703 0
M  V30 3741 H 354.938 -6.36381 3.10523 0
M  V30 3742 H 355.346 -5.39626 1.65722 0
M  V30 3743 N 354.744 -0.972509 -1.24016 0
M  V30 3744 C 355.692 -0.498562 -2.27194 0
M  V30 3745 C 356.686 0.440372 -1.63576 0
M  V30 3746 O 357.892 0.315133 -1.7722 0
M  V30 3747 H 354.267 -0.142775 -0.738322 0
M  V30 3748 H 356.238 -1.38065 -2.64539 0
M  V30 3749 C 354.987 0.191072 -3.47175 0
M  V30 3750 H 354.31 -0.522318 -3.96373 0
M  V30 3751 H 355.75 0.486445 -4.212 0
M  V30 3752 C 354.209 1.41967 -3.05527 0
M  V30 3753 O 354.739 2.51642 -3.13112 0
M  V30 3754 N 352.945 1.28746 -2.60524 0
M  V30 3755 H 352.492 0.395089 -2.54552 0
M  V30 3756 H 352.45 2.11061 -2.33025 0
M  V30 3757 N 356.222 1.38976 -0.743202 0
M  V30 3758 C 357.468 2.0064 -0.295189 0
M  V30 3759 C 357.801 1.5885 1.11716 0
M  V30 3760 O 357.076 0.821181 1.76315 0
M  V30 3761 C 357.359 3.578 -0.406318 0
M  V30 3762 C 357.212 4.09586 -1.85903 0
M  V30 3763 C 358.531 4.39616 0.206439 0
M  V30 3764 H 355.65 0.728935 -0.108733 0
M  V30 3765 H 358.292 1.65067 -0.940897 0
M  V30 3766 H 356.442 3.88235 0.143419 0
M  V30 3767 H 358.114 3.89837 -2.46627 0
M  V30 3768 H 356.357 3.6284 -2.3776 0
M  V30 3769 H 357.028 5.18708 -1.888 0
M  V30 3770 H 359.504 4.15273 -0.262283 0
M  V30 3771 H 358.38 5.48812 0.0983819 0
M  V30 3772 H 358.641 4.22754 1.2935 0
M  V30 3773 N 357.7 0.491464 1.49741 0
M  V30 3774 C 358.63 -0.28154 2.31796 0
M  V30 3775 C 359.611 -0.971473 1.3963 0
M  V30 3776 O 360.796 -0.964719 1.68543 0
M  V30 3777 C 357.926 -1.35203 3.19902 0
M  V30 3778 C 356.88 -0.782529 4.20786 0
M  V30 3779 C 356.206 -1.95283 4.97764 0
M  V30 3780 C 357.506 0.21999 5.21837 0
M  V30 3781 H 359.2 0.403355 2.96671 0
M  V30 3782 H 356.746 0.195425 1.42668 0
M  V30 3783 H 358.699 -1.90045 3.76113 0
M  V30 3784 H 357.423 -2.06598 2.52953 0
M  V30 3785 H 356.082 -0.255928 3.65706 0
M  V30 3786 H 355.73 -2.65423 4.2727 0
M  V30 3787 H 355.43 -1.57789 5.66018 0
M  V30 3788 H 356.954 -2.50577 5.56816 0
M  V30 3789 H 358.368 -0.23996 5.72798 0
M  V30 3790 H 356.765 0.51026 5.97927 0
M  V30 3791 H 357.835 1.13911 4.7133 0
M  V30 3792 N 359.178 -1.55987 0.224894 0
M  V30 3793 C 360.426 -1.97998 -0.405099 0
M  V30 3794 C 360.747 -1.11387 -1.60056 0
M  V30 3795 O 360.017 -0.191645 -1.9496 0
M  V30 3796 H 358.597 -0.731235 -0.152658 0
M  V30 3797 H 361.259 -1.92279 0.318567 0
M  V30 3798 H 360.355 -3.03463 -0.729167 0
M  V30 3799 N 360.656 0.0484629 -1.57525 0
M  V30 3800 C 361.586 1.0549 -2.08313 0
M  V30 3801 C 362.567 1.38929 -0.981463 0
M  V30 3802 O 363.752 1.48151 -1.25558 0
M  V30 3803 C 360.882 2.36162 -2.54646 0
M  V30 3804 C 359.836 2.17016 -3.68901 0
M  V30 3805 C 359.162 3.53278 -4.01371 0
M  V30 3806 C 360.462 1.57219 -4.98076 0
M  V30 3807 H 362.156 0.632195 -2.92649 0
M  V30 3808 H 359.702 0.302654 -1.40784 0
M  V30 3809 H 361.655 3.06882 -2.88793 0
M  V30 3810 H 360.379 2.80456 -1.67368 0
M  V30 3811 H 359.038 1.48733 -3.35073 0
M  V30 3812 H 358.686 3.95185 -3.11188 0
M  V30 3813 H 358.386 3.41299 -4.78318 0
M  V30 3814 H 359.91 4.25391 -4.38035 0
M  V30 3815 H 361.324 2.17832 -5.30304 0
M  V30 3816 H 359.721 1.55871 -5.79503 0
M  V30 3817 H 360.791 0.535956 -4.81929 0
M  V30 3818 N 362.134 1.5431 0.320358 0
M  V30 3819 C 363.383 1.7188 1.05546 0
M  V30 3820 C 363.696 0.501143 1.89071 0
M  V30 3821 O 364.902 0.558258 2.65699 0
M  V30 3822 C 363.358 3.04025 1.92605 0
M  V30 3823 C 362.966 4.33207 1.14176 0
M  V30 3824 C 364.71 3.30959 2.65832 0
M  V30 3825 C 362.617 5.56412 2.00399 0
M  V30 3826 H 361.547 0.640547 0.397763 0
M  V30 3827 H 364.198 1.80802 0.313522 0
M  V30 3828 H 362.58 2.89019 2.7071 0
M  V30 3829 H 363.754 4.58989 0.40819 0
M  V30 3830 H 362.069 4.13062 0.526165 0
M  V30 3831 H 364.666 4.20203 3.30656 0
M  V30 3832 H 365.009 2.48979 3.33639 0
M  V30 3833 H 365.542 3.46847 1.94787 0
M  V30 3834 H 362.281 6.41004 1.37094 0
M  V30 3835 H 361.801 5.34844 2.7148 0
M  V30 3836 H 363.48 5.92938 2.58908 0
M  V30 3837 N 363.613 -0.582584 1.46437 0
M  V30 3838 C 364.861 -1.33814 1.51453 0
M  V30 3839 C 365.182 -1.94277 0.167792 0
M  V30 3840 O 364.452 -1.78566 -0.805677 0
M  V30 3841 H 363.032 -0.496838 0.557818 0
M  V30 3842 H 365.694 -0.682281 1.82568 0
M  V30 3843 H 364.79 -2.14479 2.26728 0
M  V30 3844 N 365.091 -1.34144 -0.827227 0
M  V30 3845 C 366.338 -1.26258 -1.58319 0
M  V30 3846 C 366.666 0.168595 -1.93768 0
M  V30 3847 O 365.921 1.12877 -1.59866 0
M  V30 3848 C 366.22 -2.09464 -2.89585 0
M  V30 3849 C 365.886 -3.58521 -2.73448 0
M  V30 3850 C 364.548 -3.99155 -2.68754 0
M  V30 3851 C 366.9 -4.53189 -2.57428 0
M  V30 3852 C 364.228 -5.32656 -2.45957 0
M  V30 3853 C 366.58 -5.86864 -2.36163 0
M  V30 3854 C 365.244 -6.26667 -2.29879 0
M  V30 3855 H 364.514 -0.462013 -0.579332 0
M  V30 3856 H 367.161 -1.65845 -0.95748 0
M  V30 3857 H 365.466 -1.62692 -3.56425 0
M  V30 3858 H 367.163 -2.00712 -3.47154 0
M  V30 3859 H 363.753 -3.26264 -2.77939 0
M  V30 3860 H 367.937 -4.22696 -2.60081 0
M  V30 3861 H 363.193 -5.62519 -2.39546 0
M  V30 3862 H 367.367 -6.59813 -2.22754 0
M  V30 3863 H 364.994 -7.30049 -2.11975 0
M  V30 3864 N 366.569 1.04691 -1.17803 0
M  V30 3865 C 367.816 1.77782 -0.969532 0
M  V30 3866 C 368.144 1.87926 0.501401 0
M  V30 3867 O 367.399 1.37918 1.38842 0
M  V30 3868 C 367.698 3.21467 -1.56186 0
M  V30 3869 C 367.364 3.3137 -3.05786 0
M  V30 3870 C 366.026 3.3378 -3.46619 0
M  V30 3871 C 368.378 3.31976 -4.01797 0
M  V30 3872 C 365.706 3.34431 -4.82051 0
M  V30 3873 C 368.058 3.34167 -5.37136 0
M  V30 3874 C 366.722 3.34866 -5.77426 0
M  V30 3875 H 365.992 0.650549 -0.354777 0
M  V30 3876 H 368.639 1.23006 -1.46772 0
M  V30 3877 H 366.944 3.79203 -0.985515 0
M  V30 3878 H 368.641 3.76652 -1.37602 0
M  V30 3879 H 365.231 3.3021 -2.73238 0
M  V30 3880 H 369.415 3.29311 -3.71306 0
M  V30 3881 H 364.671 3.33285 -5.12573 0
M  V30 3882 H 368.845 3.33585 -6.11305 0
M  V30 3883 H 366.472 3.35124 -6.82346 0
M  V30 3884 N 368.047 0.979072 1.23499 0
M  V30 3885 C 369.296 0.642751 1.91185 0
M  V30 3886 C 369.609 -0.827253 1.77245 0
M  V30 3887 O 370.815 -1.27458 2.39722 0
M  V30 3888 C 369.271 1.09901 3.42709 0
M  V30 3889 C 368.879 2.59327 3.65313 0
M  V30 3890 C 370.623 0.836371 4.16179 0
M  V30 3891 C 368.53 2.98627 5.10467 0
M  V30 3892 H 367.46 0.236698 0.715884 0
M  V30 3893 H 370.111 1.1868 1.39955 0
M  V30 3894 H 368.493 0.48319 3.93041 0
M  V30 3895 H 369.667 3.26136 3.25533 0
M  V30 3896 H 367.982 2.83323 3.05151 0
M  V30 3897 H 370.579 1.10586 5.23139 0
M  V30 3898 H 370.922 -0.227509 4.15678 0
M  V30 3899 H 371.455 1.41371 3.71832 0
M  V30 3900 H 368.194 4.04133 5.16098 0
M  V30 3901 H 367.714 2.3651 5.51201 0
M  V30 3902 H 369.393 2.89159 5.78788 0
M  V30 3903 N 369.525 -1.3858 0.750561 0
M  V30 3904 C 370.488 -2.28836 0.129152 0
M  V30 3905 C 371.488 -1.47045 -0.650714 0
M  V30 3906 O 372.678 -1.6753 -0.477428 0
M  V30 3907 C 369.81 -3.30751 -0.825622 0
M  V30 3908 H 371.003 -2.85294 0.924516 0
M  V30 3909 H 368.556 -1.47489 0.517376 0
M  V30 3910 H 369.291 -2.79378 -1.64677 0
M  V30 3911 H 369.076 -3.91177 -0.268852 0
M  V30 3912 H 370.566 -3.98249 -1.2565 0
M  V30 3913 N 371.003 -0.499398 -1.49478 0
M  V30 3914 C 372.25 0.0456899 -2.02448 0
M  V30 3915 C 372.578 1.37142 -1.37921 0
M  V30 3916 O 371.833 1.89111 -0.503544 0
M  V30 3917 C 372.132 0.248424 -3.56536 0
M  V30 3918 C 371.798 -0.999107 -4.39692 0
M  V30 3919 C 370.46 -1.34108 -4.62135 0
M  V30 3920 C 372.812 -1.82842 -4.88076 0
M  V30 3921 C 370.14 -2.51191 -5.30208 0
M  V30 3922 C 372.492 -2.99076 -5.57437 0
M  V30 3923 C 371.156 -3.33655 -5.78127 0
M  V30 3924 H 370.426 0.0167191 -0.740811 0
M  V30 3925 H 373.073 -0.65923 -1.79795 0
M  V30 3926 H 371.378 1.03586 -3.77859 0
M  V30 3927 H 373.075 0.684605 -3.95113 0
M  V30 3928 H 369.665 -0.722729 -4.22463 0
M  V30 3929 H 373.849 -1.57737 -4.70566 0
M  V30 3930 H 369.105 -2.78221 -5.44429 0
M  V30 3931 H 373.279 -3.63664 -5.93904 0
M  V30 3932 H 370.906 -4.24483 -6.30649 0
M  V30 3933 N 372.481 1.55866 -0.233164 0
M  V30 3934 C 373.729 1.9821 0.394593 0
M  V30 3935 C 374.05 1.12234 1.59463 0
M  V30 3936 O 373.32 0.201981 1.94856 0
M  V30 3937 H 371.9 0.732034 0.148778 0
M  V30 3938 H 374.562 1.92107 -0.32876 0
M  V30 3939 H 373.658 3.03845 0.713063 0
M  V30 3940 N 373.959 -0.0401083 1.57549 0
M  V30 3941 C 375.208 -0.732108 1.87944 0
M  V30 3942 C 375.521 -1.77107 0.830206 0
M  V30 3943 O 376.727 -2.51488 1.02302 0
M  V30 3944 C 375.183 -1.35315 3.33494 0
M  V30 3945 C 374.791 -0.351105 4.46622 0
M  V30 3946 C 376.535 -2.02566 3.73051 0
M  V30 3947 C 374.442 -0.979859 5.83226 0
M  V30 3948 H 373.372 -0.277188 0.701201 0
M  V30 3949 H 376.023 0.0138501 1.83495 0
M  V30 3950 H 374.405 -2.14844 3.32653 0
M  V30 3951 H 375.579 0.416674 4.58912 0
M  V30 3952 H 373.894 0.218708 4.15825 0
M  V30 3953 H 376.491 -2.50441 4.72423 0
M  V30 3954 H 376.834 -2.83904 3.04474 0
M  V30 3955 H 377.367 -1.29827 3.76018 0
M  V30 3956 H 374.106 -0.206135 6.55176 0
M  V30 3957 H 373.626 -1.71774 5.74677 0
M  V30 3958 H 375.305 -1.49046 6.29599 0
M  V30 3959 N 375.437 -1.54477 -0.31217 0
M  V30 3960 C 376.4 -1.83923 -1.36766 0
M  V30 3961 C 377.4 -0.711563 -1.44199 0
M  V30 3962 O 378.59 -0.979866 -1.44029 0
M  V30 3963 C 375.722 -2.0095 -2.75376 0
M  V30 3964 H 376.915 -2.78239 -1.11906 0
M  V30 3965 H 374.468 -1.46369 -0.548257 0
M  V30 3966 H 375.203 -1.08883 -3.05475 0
M  V30 3967 H 374.988 -2.83018 -2.71373 0
M  V30 3968 H 376.478 -2.2514 -3.51713 0
M  V30 3969 N 376.915 0.57481 -1.46744 0
M  V30 3970 C 377.848 1.69827 -1.52427 0
M  V30 3971 C 378.826 1.58151 -0.377744 0
M  V30 3972 O 380.01 1.79257 -0.58303 0
M  V30 3973 C 377.137 3.07943 -1.41027 0
M  V30 3974 C 376.183 3.38116 -2.59961 0
M  V30 3975 S 377.016 3.29313 -4.22272 0
M  V30 3976 C 378.172 4.69953 -4.13394 0
M  V30 3977 H 378.405 1.64748 -2.47478 0
M  V30 3978 H 375.938 0.754203 -1.34726 0
M  V30 3979 H 377.896 3.87619 -1.35137 0
M  V30 3980 H 376.557 3.10504 -0.473909 0
M  V30 3981 H 375.75 4.38762 -2.47999 0
M  V30 3982 H 375.352 2.66024 -2.62882 0
M  V30 3983 H 377.644 5.60517 -3.80562 0
M  V30 3984 H 378.587 4.86972 -5.14066 0
M  V30 3985 H 378.995 4.47174 -3.44522 0
M  V30 3986 N 378.394 1.34581 0.820102 0
M  V30 3987 C 379.642 1.26845 1.57336 0
M  V30 3988 C 379.963 -0.160667 1.94337 0
M  V30 3989 O 379.233 -1.09396 1.6251 0
M  V30 3990 H 377.813 0.466514 0.583415 0
M  V30 3991 H 380.475 1.68526 0.979027 0
M  V30 3992 H 379.571 1.87513 2.4949 0
M  V30 3993 N 379.872 -1.04064 1.18357 0
M  V30 3994 C 380.819 -2.12077 0.910603 0
M  V30 3995 C 381.789 -1.65421 -0.15 0
M  V30 3996 O 382.974 -1.90797 -0.0103614 0
M  V30 3997 C 380.114 -3.42252 0.442472 0
M  V30 3998 C 379.227 -4.0252 1.5685 0
M  V30 3999 C 378.362 -5.20657 1.05309 0
M  V30 4000 C 377.401 -5.72955 2.1538 0
M  V30 4001 N 376.538 -6.8238 1.65233 0
M  V30 4002 H 381.378 -2.34764 1.83548 0
M  V30 4003 H 378.915 -1.15157 0.915279 0
M  V30 4004 H 380.873 -4.16921 0.152534 0
M  V30 4005 H 379.503 -3.19712 -0.445428 0
M  V30 4006 H 378.555 -3.25178 1.97391 0
M  V30 4007 H 379.867 -4.37362 2.39824 0
M  V30 4008 H 379.021 -6.0244 0.717677 0
M  V30 4009 H 377.76 -4.87318 0.19293 0
M  V30 4010 H 376.765 -4.89793 2.49766 0
M  V30 4011 H 377.99 -6.08337 3.01832 0
M  V30 4012 H 375.936 -6.50917 0.815064 0
M  V30 4013 H 375.853 -7.16286 2.41805 0
M  V30 4014 H 377.121 -7.67788 1.34619 0
M  V30 4015 N 381.35 -0.985608 -1.22978 0
M  V30 4016 C 382.283 -0.47487 -2.23204 0
M  V30 4017 C 383.261 0.460865 -1.55932 0
M  V30 4018 O 384.445 0.388105 -1.84461 0
M  V30 4019 C 381.572 0.312427 -3.37256 0
M  V30 4020 C 380.618 -0.568219 -4.22698 0
M  V30 4021 S 381.451 -2.01919 -4.95973 0
M  V30 4022 C 382.607 -1.24118 -6.1347 0
M  V30 4023 H 382.84 -1.32419 -2.66181 0
M  V30 4024 H 380.373 -0.792005 -1.32539 0
M  V30 4025 H 382.331 0.760645 -4.03391 0
M  V30 4026 H 380.992 1.13693 -2.92801 0
M  V30 4027 H 380.185 0.0371657 -5.03986 0
M  V30 4028 H 379.787 -0.952897 -3.61657 0
M  V30 4029 H 382.079 -0.505121 -6.75614 0
M  V30 4030 H 383.022 -2.02907 -6.78406 0
M  V30 4031 H 383.43 -0.757669 -5.59392 0
M  V30 4032 N 382.828 1.3818 -0.7579 0
M  V30 4033 C 384.076 1.99624 -0.315361 0
M  V30 4034 C 384.397 1.60464 1.10799 0
M  V30 4035 O 383.667 0.863507 1.75842 0
M  V30 4036 H 382.247 0.73831 -0.113611 0
M  V30 4037 H 384.909 1.68878 -0.972952 0
M  V30 4038 H 384.005 3.09754 -0.381931 0
M  V30 4039 N 384.306 0.507319 1.49211 0
M  V30 4040 C 385.583 -0.0982702 1.95353 0
M  V30 4041 C 385.963 -1.53516 1.449 0
M  V30 4042 O 385.311 -2.18594 0.66551 0
M  V30 4043 C 385.521 -0.00440283 3.49 0
M  V30 4044 C 386.869 -0.175147 4.24239 0
M  V30 4045 O 387.893 -0.0792891 3.56112 0
M  V30 4046 O 386.752 -0.37276 5.45227 0
M  V30 4047 H 383.846 -0.0918236 0.821887 0
M  V30 4048 H 386.392 0.570307 1.5983 0
M  V30 4049 H 385.164 0.997402 3.78375 0
M  V30 4050 H 384.787 -0.712845 3.91158 0
M  V30 4051 N 385.784 -1.5574 0.241426 0
M  V30 4052 C 386.716 -2.18469 -0.693091 0
M  V30 4053 C 387.729 -1.15942 -1.14286 0
M  V30 4054 O 388.918 -1.42832 -1.07058 0
M  V30 4055 C 386.018 -2.7696 -1.95311 0
M  V30 4056 C 385.191 -4.04853 -1.65568 0
M  V30 4057 C 384.25 -4.47715 -2.76474 0
M  V30 4058 O 383.276 -5.14205 -2.44094 0
M  V30 4059 N 384.478 -4.15044 -4.05855 0
M  V30 4060 H 387.243 -2.99292 -0.156388 0
M  V30 4061 H 384.804 -1.61784 0.0611752 0
M  V30 4062 H 386.796 -3.02594 -2.68736 0
M  V30 4063 H 385.366 -2.00326 -2.39975 0
M  V30 4064 H 384.586 -3.86865 -0.756886 0
M  V30 4065 H 385.874 -4.88246 -1.43153 0
M  V30 4066 H 385.272 -3.61654 -4.34998 0
M  V30 4067 H 383.829 -4.45526 -4.75762 0
M  V30 4068 N 387.262 0.0317525 -1.57568 0
M  V30 4069 C 388.225 1.01783 -2.0536 0
M  V30 4070 C 389.225 1.29203 -0.957253 0
M  V30 4071 O 390.415 1.24251 -1.22095 0
M  V30 4072 C 387.547 2.35137 -2.46827 0
M  V30 4073 H 388.74 0.605062 -2.93733 0
M  V30 4074 H 386.293 0.278514 -1.53799 0
M  V30 4075 H 387.028 2.81168 -1.61602 0
M  V30 4076 H 386.813 2.16566 -3.26866 0
M  V30 4077 H 388.303 3.05938 -2.84239 0
M  V30 4078 N 388.74 1.54641 0.303973 0
M  V30 4079 C 389.687 1.85386 1.37479 0
M  V30 4080 C 390.657 0.702528 1.50512 0
M  V30 4081 O 391.842 0.950867 1.65418 0
M  V30 4082 C 388.982 2.10413 2.73533 0
M  V30 4083 C 388.095 3.38049 2.68974 0
M  V30 4084 C 387.23 3.52934 3.97002 0
M  V30 4085 C 386.269 4.74373 3.86829 0
M  V30 4086 N 385.406 4.8608 5.06627 0
M  V30 4087 H 390.246 2.76732 1.1056 0
M  V30 4088 H 387.783 1.37034 0.534805 0
M  V30 4089 H 389.741 2.22919 3.52652 0
M  V30 4090 H 388.371 1.22338 2.98719 0
M  V30 4091 H 387.423 3.3418 1.81736 0
M  V30 4092 H 388.735 4.27288 2.57346 0
M  V30 4093 H 387.889 3.65088 4.84557 0
M  V30 4094 H 386.628 2.61824 4.1146 0
M  V30 4095 H 385.633 4.62255 2.97658 0
M  V30 4096 H 386.858 5.66888 3.73918 0
M  V30 4097 H 384.804 3.97891 5.21554 0
M  V30 4098 H 384.721 5.69315 4.9741 0
M  V30 4099 H 385.989 5.02587 5.95841 0
M  V30 4100 N 390.218 -0.567019 1.47046 0
M  V30 4101 C 391.148 -1.68482 1.61667 0
M  V30 4102 C 392.129 -1.6358 0.466418 0
M  V30 4103 O 393.314 -1.81354 0.694574 0
M  V30 4104 C 390.444 -3.07124 1.62148 0
M  V30 4105 C 389.398 -3.26867 2.76301 0
M  V30 4106 C 388.724 -4.66196 2.61849 0
M  V30 4107 C 390.024 -3.13186 4.17986 0
M  V30 4108 H 391.718 -1.56502 2.5524 0
M  V30 4109 H 389.264 -0.751486 1.22836 0
M  V30 4110 H 391.217 -3.8516 1.70968 0
M  V30 4111 H 389.941 -3.2004 0.651287 0
M  V30 4112 H 388.6 -2.51237 2.66975 0
M  V30 4113 H 388.248 -4.75898 1.62879 0
M  V30 4114 H 387.948 -4.80356 3.38425 0
M  V30 4115 H 389.472 -5.46379 2.72584 0
M  V30 4116 H 390.886 -3.81049 4.2834 0
M  V30 4117 H 389.283 -3.3886 4.95272 0
M  V30 4118 H 390.353 -2.10057 4.3704 0
M  V30 4119 N 391.696 -1.35014 -0.812953 0
M  V30 4120 C 392.629 -1.21761 -1.93001 0
M  V30 4121 C 393.607 -0.10694 -1.62248 0
M  V30 4122 O 394.791 -0.273891 -1.865 0
M  V30 4123 C 391.918 -0.873404 -3.27245 0
M  V30 4124 C 390.964 -1.99523 -3.76952 0
M  V30 4125 S 391.797 -3.61009 -3.95516 0
M  V30 4126 C 392.953 -3.28651 -5.32672 0
M  V30 4127 H 393.186 -2.16315 -2.03948 0
M  V30 4128 H 390.719 -1.20156 -0.969631 0
M  V30 4129 H 392.677 -0.68161 -4.04802 0
M  V30 4130 H 391.338 0.053971 -3.14054 0
M  V30 4131 H 390.531 -1.70838 -4.74163 0
M  V30 4132 H 390.133 -2.14503 -3.06373 0
M  V30 4133 H 392.425 -2.81085 -6.1644 0
M  V30 4134 H 393.368 -4.25039 -5.66346 0
M  V30 4135 H 393.776 -2.6458 -4.98656 0
M  V30 4136 N 393.175 1.03435 -1.18907 0
M  V30 4137 C 394.421 1.77005 -0.989798 0
M  V30 4138 C 394.754 1.88205 0.478816 0
M  V30 4139 O 394.029 1.39481 1.35556 0
M  V30 4140 C 394.312 3.19925 -1.65287 0
M  V30 4141 C 394.165 3.1663 -3.19477 0
M  V30 4142 C 395.484 4.18189 -1.37134 0
M  V30 4143 H 392.603 0.642538 -0.360991 0
M  V30 4144 H 395.245 1.20784 -1.46667 0
M  V30 4145 H 393.395 3.67929 -1.24741 0
M  V30 4146 H 395.067 2.76567 -3.692 0
M  V30 4147 H 393.31 2.54491 -3.51307 0
M  V30 4148 H 393.981 4.1758 -3.61013 0
M  V30 4149 H 396.457 3.78761 -1.72276 0
M  V30 4150 H 395.333 5.16394 -1.86087 0
M  V30 4151 H 395.594 4.41112 -0.295424 0
M  V30 4152 N 394.653 0.992116 1.22453 0
M  V30 4153 C 395.93 0.583508 1.86694 0
M  V30 4154 C 396.31 -0.9392 1.89056 0
M  V30 4155 O 395.658 -1.82081 1.38053 0
M  V30 4156 C 395.868 1.20304 3.2761 0
M  V30 4157 C 397.216 1.30308 4.0411 0
M  V30 4158 O 398.24 1.15737 3.36873 0
M  V30 4159 O 397.099 1.53615 5.24466 0
M  V30 4160 H 394.193 0.198129 0.802916 0
M  V30 4161 H 396.739 1.08794 1.30238 0
M  V30 4162 H 395.511 2.24461 3.2052 0
M  V30 4163 H 395.134 0.684144 3.9167 0
M  V30 4164 N 396.131 -1.37776 0.765217 0
M  V30 4165 C 397.378 -1.99849 0.326588 0
M  V30 4166 C 397.706 -1.60746 -1.09504 0
M  V30 4167 O 396.961 -0.84202 -1.76659 0
M  V30 4168 C 397.26 -3.5504 0.410053 0
M  V30 4169 C 396.926 -4.13891 1.78899 0
M  V30 4170 C 395.588 -4.29678 2.16635 0
M  V30 4171 C 397.94 -4.46236 2.69301 0
M  V30 4172 C 395.268 -4.7511 3.44221 0
M  V30 4173 C 397.62 -4.93089 3.9629 0
M  V30 4174 C 396.284 -5.07082 4.34078 0
M  V30 4175 H 395.554 -0.7313 0.119507 0
M  V30 4176 H 398.201 -1.64645 0.977968 0
M  V30 4177 H 396.506 -3.90451 -0.324878 0
M  V30 4178 H 398.203 -4.00966 0.0520699 0
M  V30 4179 H 394.793 -4.02026 1.48569 0
M  V30 4180 H 398.977 -4.3363 2.41409 0
M  V30 4181 H 394.233 -4.84129 3.73402 0
M  V30 4182 H 398.407 -5.17084 4.66472 0
M  V30 4183 H 396.034 -5.42046 5.33001 0
M  V30 4184 N 397.609 -0.515225 -1.4894 0
M  V30 4185 C 398.856 0.024215 -2.02486 0
M  V30 4186 C 399.184 1.35671 -1.39368 0
M  V30 4187 O 398.439 1.88566 -0.523574 0
M  V30 4188 C 398.738 0.210595 -3.56779 0
M  V30 4189 C 398.404 -1.04569 -4.38607 0
M  V30 4190 C 397.066 -1.39002 -4.60686 0
M  V30 4191 C 399.418 -1.88008 -4.86109 0
M  V30 4192 C 396.746 -2.568 -5.27514 0
M  V30 4193 C 399.098 -3.04972 -5.54234 0
M  V30 4194 C 397.762 -3.39768 -5.74555 0
M  V30 4195 H 397.032 0.00886088 -0.740947 0
M  V30 4196 H 399.679 -0.678263 -1.79086 0
M  V30 4197 H 397.984 0.99572 -3.78936 0
M  V30 4198 H 399.681 0.642659 -3.95817 0
M  V30 4199 H 396.271 -0.767497 -4.21672 0
M  V30 4200 H 400.455 -1.62719 -4.68867 0
M  V30 4201 H 395.711 -2.8398 -5.41447 0
M  V30 4202 H 399.885 -3.69943 -5.90013 0
M  V30 4203 H 397.512 -4.31148 -6.26112 0
M  V30 4204 N 399.087 1.5561 -0.249682 0
M  V30 4205 C 400.035 2.22894 0.664906 0
M  V30 4206 C 401.029 1.21743 1.17792 0
M  V30 4207 O 402.235 1.39748 1.13449 0
M  V30 4208 H 398.61 0.715022 0.232912 0
M  V30 4209 H 400.581 2.98307 0.0742998 0
M  V30 4210 C 399.33 2.94424 1.84959 0
M  V30 4211 H 398.653 3.72031 1.46399 0
M  V30 4212 H 400.093 3.44862 2.4667 0
M  V30 4213 C 398.552 1.98454 2.72245 0
M  V30 4214 O 399.082 1.51939 3.71857 0
M  V30 4215 N 397.288 1.65496 2.38871 0
M  V30 4216 H 396.835 2.03517 1.57919 0
M  V30 4217 H 396.793 1.0155 2.97548 0
M  V30 4218 N 400.565 -0.0233959 1.57583 0
M  V30 4219 C 401.814 -0.712133 1.8871 0
M  V30 4220 C 402.127 -1.76217 0.848944 0
M  V30 4221 O 403.333 -2.50389 1.04964 0
M  V30 4222 C 401.789 -1.3177 3.3491 0
M  V30 4223 C 401.397 -0.303715 4.46969 0
M  V30 4224 C 403.141 -1.98598 3.75179 0
M  V30 4225 C 401.048 -0.917945 5.84233 0
M  V30 4226 H 399.978 -0.269735 0.704101 0
M  V30 4227 H 402.629 0.0333114 1.8347 0
M  V30 4228 H 401.011 -2.11304 3.34913 0
M  V30 4229 H 402.185 0.465325 4.58445 0
M  V30 4230 H 400.5 0.2628 4.1557 0
M  V30 4231 H 403.097 -2.45416 4.75053 0
M  V30 4232 H 403.44 -2.80659 3.07468 0
M  V30 4233 H 403.973 -1.25831 3.77374 0
M  V30 4234 H 400.712 -0.136633 6.55358 0
M  V30 4235 H 400.232 -1.65669 5.76467 0
M  V30 4236 H 401.911 -1.4236 6.31144 0
M  V30 4237 N 402.043 -1.548 -0.295768 0
M  V30 4238 C 402.973 -1.89115 -1.36959 0
M  V30 4239 C 403.954 -0.75059 -1.52644 0
M  V30 4240 O 405.139 -1.00678 -1.66065 0
M  V30 4241 C 402.269 -2.14307 -2.73295 0
M  V30 4242 C 401.223 -3.30151 -2.72368 0
M  V30 4243 C 400.549 -3.40772 -4.12042 0
M  V30 4244 C 401.849 -4.67126 -2.33646 0
M  V30 4245 H 403.543 -2.79053 -1.08488 0
M  V30 4246 H 401.089 -1.34266 -0.520443 0
M  V30 4247 H 403.042 -2.36898 -3.48507 0
M  V30 4248 H 401.766 -1.21145 -3.03301 0
M  V30 4249 H 400.425 -3.0749 -1.99613 0
M  V30 4250 H 400.073 -2.45117 -4.39234 0
M  V30 4251 H 399.773 -4.18645 -4.12322 0
M  V30 4252 H 401.297 -3.6563 -4.89027 0
M  V30 4253 H 402.711 -4.89414 -2.98575 0
M  V30 4254 H 401.108 -5.47751 -2.45129 0
M  V30 4255 H 402.178 -4.67489 -1.28772 0
M  V30 4256 N 403.521 0.559213 -1.47345 0
M  V30 4257 C 404.469 1.68747 -1.60085 0
M  V30 4258 C 405.463 1.628 -0.46825 0
M  V30 4259 O 406.669 1.68009 -0.645977 0
M  V30 4260 H 403.044 0.558329 -0.503759 0
M  V30 4261 H 405.015 1.55138 -2.54902 0
M  V30 4262 C 403.764 3.07103 -1.63042 0
M  V30 4263 H 403.087 3.12361 -2.49541 0
M  V30 4264 H 404.527 3.85743 -1.76006 0
M  V30 4265 C 402.986 3.34935 -0.363357 0
M  V30 4266 O 403.516 3.98102 0.536416 0
M  V30 4267 N 401.722 2.89574 -0.244 0
M  V30 4268 H 401.269 2.38348 -0.977133 0
M  V30 4269 H 401.227 3.08566 0.602836 0
M  V30 4270 N 404.999 1.35443 0.805782 0
M  V30 4271 C 405.909 1.30546 1.94923 0
M  V30 4272 C 406.925 0.210233 1.72725 0
M  V30 4273 O 408.101 0.43975 1.9654 0
M  V30 4274 C 405.166 1.07782 3.29521 0
M  V30 4275 C 404.227 2.26625 3.64609 0
M  V30 4276 C 403.46 2.04938 4.92784 0
M  V30 4277 O 403.683 1.01624 5.61274 0
M  V30 4278 O 402.617 2.9232 5.26149 0
M  V30 4279 H 406.443 2.26779 2.02002 0
M  V30 4280 H 404.028 1.15823 0.943682 0
M  V30 4281 H 405.91 0.969392 4.10098 0
M  V30 4282 H 404.585 0.146003 3.23371 0
M  V30 4283 H 403.492 2.43033 2.84404 0
M  V30 4284 H 404.825 3.18257 3.75464 0
M  V30 4285 N 406.477 -1.02803 1.19454 0
M  V30 4286 C 407.726 -1.7562 0.991996 0
M  V30 4287 C 408.039 -1.89672 -0.477901 0
M  V30 4288 O 409.245 -2.59468 -0.799287 0
M  V30 4289 C 407.701 -3.15812 1.72601 0
M  V30 4290 C 407.309 -3.0981 3.23607 0
M  V30 4291 C 409.053 -3.92918 1.60674 0
M  V30 4292 C 406.96 -4.44939 3.89594 0
M  V30 4293 H 405.89 -0.658352 0.367543 0
M  V30 4294 H 408.541 -1.15044 1.42959 0
M  V30 4295 H 406.923 -3.7686 1.21624 0
M  V30 4296 H 408.097 -2.58138 3.81709 0
M  V30 4297 H 406.412 -2.46201 3.35819 0
M  V30 4298 H 409.009 -4.9287 2.07323 0
M  V30 4299 H 409.352 -4.12502 0.561025 0
M  V30 4300 H 409.885 -3.38472 2.09001 0
M  V30 4301 H 406.624 -4.30559 4.94267 0
M  V30 4302 H 406.144 -4.96664 3.36281 0
M  V30 4303 H 407.823 -5.1382 3.93189 0
M  V30 4304 N 407.956 -0.998596 -1.21925 0
M  V30 4305 C 409.202 -0.678667 -1.91107 0
M  V30 4306 C 409.535 0.78791 -1.77498 0
M  V30 4307 O 408.81 1.57043 -1.1475 0
M  V30 4308 C 409.093 -1.09245 -3.43129 0
M  V30 4309 C 408.946 -2.61801 -3.6576 0
M  V30 4310 C 410.265 -0.649984 -4.35274 0
M  V30 4311 H 407.384 -0.248025 -0.694012 0
M  V30 4312 H 410.026 -1.24314 -1.43688 0
M  V30 4313 H 408.176 -0.612171 -3.83647 0
M  V30 4314 H 409.848 -3.17543 -3.34611 0
M  V30 4315 H 408.091 -3.03609 -3.09845 0
M  V30 4316 H 408.762 -2.85804 -4.7225 0
M  V30 4317 H 411.238 -1.0626 -4.02303 0
M  V30 4318 H 410.114 -0.967743 -5.40302 0
M  V30 4319 H 410.375 0.449139 -4.39813 0
M  V30 4320 N 409.434 1.37368 -0.772513 0
M  V30 4321 C 410.367 2.27956 -0.105593 0
M  V30 4322 C 411.345 1.46362 0.708295 0
M  V30 4323 O 412.529 1.75695 0.682895 0
M  V30 4324 C 409.656 3.27687 0.856686 0
M  V30 4325 C 408.702 4.26312 0.1267 0
M  V30 4326 S 409.535 5.22206 -1.1858 0
M  V30 4327 C 410.691 6.25488 -0.227081 0
M  V30 4328 H 410.924 2.84171 -0.87372 0
M  V30 4329 H 408.457 1.43654 -0.565939 0
M  V30 4330 H 410.415 3.85653 1.40648 0
M  V30 4331 H 409.076 2.70417 1.59793 0
M  V30 4332 H 408.269 4.96674 0.856212 0
M  V30 4333 H 407.871 3.72339 -0.352117 0
M  V30 4334 H 410.163 6.74836 0.600231 0
M  V30 4335 H 411.106 7.02371 -0.898899 0
M  V30 4336 H 411.514 5.64267 0.162053 0
M  V30 4337 N 410.912 0.523116 1.48665 0
M  V30 4338 C 411.859 -0.243398 2.29513 0
M  V30 4339 C 412.829 -0.940139 1.36933 0
M  V30 4340 O 414.014 -0.942503 1.65896 0
M  V30 4341 C 411.154 -1.28855 3.20141 0
M  V30 4342 C 410.267 -0.60135 4.27794 0
M  V30 4343 C 409.402 -1.62884 5.05611 0
M  V30 4344 C 408.441 -0.924726 6.05075 0
M  V30 4345 N 407.578 -1.89744 6.75975 0
M  V30 4346 H 412.418 0.452234 2.94549 0
M  V30 4347 H 409.955 0.234858 1.45213 0
M  V30 4348 H 411.913 -1.90674 3.71079 0
M  V30 4349 H 410.543 -1.95266 2.57043 0
M  V30 4350 H 409.595 0.130623 3.80176 0
M  V30 4351 H 410.907 -0.0481585 4.98777 0
M  V30 4352 H 410.061 -2.32149 5.60528 0
M  V30 4353 H 408.8 -2.21592 4.34452 0
M  V30 4354 H 407.805 -0.217966 5.49368 0
M  V30 4355 H 409.03 -0.343851 6.78229 0
M  V30 4356 H 406.976 -2.47373 6.07571 0
M  V30 4357 H 406.893 -1.3955 7.43009 0
M  V30 4358 H 408.161 -2.58229 7.35485 0
M  V30 4359 N 412.39 -1.55475 0.257931 0
M  V30 4360 C 413.32 -2.24815 -0.630912 0
M  V30 4361 C 414.301 -1.23224 -1.17259 0
M  V30 4362 O 415.486 -1.51904 -1.20991 0
M  V30 4363 C 412.616 -2.95609 -1.82298 0
M  V30 4364 C 411.57 -4.03982 -1.41359 0
M  V30 4365 C 410.896 -4.6226 -2.68738 0
M  V30 4366 C 412.196 -5.19109 -0.57648 0
M  V30 4367 H 413.89 -2.99354 -0.0526878 0
M  V30 4368 H 411.436 -1.4398 -0.023901 0
M  V30 4369 H 413.389 -3.42822 -2.45054 0
M  V30 4370 H 412.113 -2.18577 -2.42676 0
M  V30 4371 H 410.772 -3.57555 -0.809324 0
M  V30 4372 H 410.42 -3.81915 -3.27338 0
M  V30 4373 H 410.12 -5.35424 -2.42065 0
M  V30 4374 H 411.644 -5.12212 -3.32372 0
M  V30 4375 H 413.058 -5.62479 -1.10861 0
M  V30 4376 H 411.455 -5.98729 -0.405351 0
M  V30 4377 H 412.525 -4.83174 0.408776 0
M  V30 4378 N 413.868 0.0150385 -1.57593 0
M  V30 4379 C 415.114 0.704043 -1.90187 0
M  V30 4380 C 415.447 1.74249 -0.857366 0
M  V30 4381 O 414.722 1.94092 0.125843 0
M  V30 4382 C 415.005 1.36087 -3.33395 0
M  V30 4383 C 414.858 0.334981 -4.48551 0
M  V30 4384 C 416.177 2.29112 -3.7576 0
M  V30 4385 H 413.296 0.254475 -0.691673 0
M  V30 4386 H 415.938 -0.0331678 -1.89971 0
M  V30 4387 H 414.088 1.98922 -3.3371 0
M  V30 4388 H 415.76 -0.292534 -4.60372 0
M  V30 4389 H 414.003 -0.344325 -4.32431 0
M  V30 4390 H 414.674 0.833316 -5.45674 0
M  V30 4391 H 417.15 1.76308 -3.76902 0
M  V30 4392 H 416.026 2.72043 -4.76743 0
M  V30 4393 H 416.287 3.16385 -3.08793 0
M  V30 4394 N 415.346 1.54954 0.287554 0
M  V30 4395 C 416.595 1.74081 1.01877 0
M  V30 4396 C 416.908 0.541135 1.87966 0
M  V30 4397 O 418.114 0.614491 2.64455 0
M  V30 4398 C 416.57 3.08042 1.86113 0
M  V30 4399 C 416.178 4.35531 1.04961 0
M  V30 4400 C 417.922 3.36523 2.58752 0
M  V30 4401 C 415.829 5.60538 1.88551 0
M  V30 4402 H 414.759 0.64884 0.384087 0
M  V30 4403 H 417.41 1.81426 0.275101 0
M  V30 4404 H 415.792 2.94696 2.64519 0
M  V30 4405 H 416.966 4.59751 0.31074 0
M  V30 4406 H 415.281 4.14085 0.43843 0
M  V30 4407 H 417.878 4.27122 3.21668 0
M  V30 4408 H 418.221 2.56 3.28283 0
M  V30 4409 H 418.754 3.50901 1.87386 0
M  V30 4410 H 415.493 6.43767 1.23466 0
M  V30 4411 H 415.013 5.40483 2.60074 0
M  V30 4412 H 416.692 5.98297 2.46273 0
M  V30 4413 N 416.824 -0.551391 1.4764 0
M  V30 4414 C 417.757 -1.6738 1.5511 0
M  V30 4415 C 418.735 -1.5753 0.402856 0
M  V30 4416 O 419.919 -1.78307 0.611475 0
M  V30 4417 C 417.046 -3.05661 1.45908 0
M  V30 4418 C 416.092 -3.33938 2.65307 0
M  V30 4419 S 416.925 -3.22553 4.27457 0
M  V30 4420 C 418.081 -4.63317 4.20818 0
M  V30 4421 H 418.314 -1.6079 2.50068 0
M  V30 4422 H 415.847 -0.732674 1.35909 0
M  V30 4423 H 417.805 -3.8542 1.41286 0
M  V30 4424 H 416.466 -3.09711 0.523248 0
M  V30 4425 H 415.659 -4.34761 2.54948 0
M  V30 4426 H 415.261 -2.61809 2.67081 0
M  V30 4427 H 417.553 -5.54391 3.89431 0
M  V30 4428 H 418.496 -4.78732 5.21748 0
M  V30 4429 H 418.904 -4.41636 3.51593 0
M  V30 4430 N 418.302 -1.35869 -0.798587 0
M  V30 4431 C 419.551 -1.28921 -1.5512 0
M  V30 4432 C 419.864 0.13208 -1.95154 0
M  V30 4433 O 421.07 0.323879 -2.69561 0
M  V30 4434 C 419.526 -2.26141 -2.79979 0
M  V30 4435 C 419.134 -3.73658 -2.47151 0
M  V30 4436 C 420.878 -2.28152 -3.57976 0
M  V30 4437 C 418.785 -4.62679 -3.6835 0
M  V30 4438 H 417.715 -0.479031 -0.582276 0
M  V30 4439 H 420.366 -1.61179 -0.877125 0
M  V30 4440 H 418.748 -1.86865 -3.49138 0
M  V30 4441 H 419.922 -4.21616 -1.85947 0
M  V30 4442 H 418.237 -3.74333 -1.82383 0
M  V30 4443 H 420.834 -2.91875 -4.4801 0
M  V30 4444 H 421.177 -1.28748 -3.95891 0
M  V30 4445 H 421.71 -2.65998 -2.95787 0
M  V30 4446 H 418.449 -5.63111 -3.35538 0
M  V30 4447 H 417.969 -4.19442 -4.28752 0
M  V30 4448 H 419.648 -4.78498 -4.35487 0
M  V30 4449 N 419.78 1.02168 -1.19998 0
M  V30 4450 C 420.713 2.10232 -0.887558 0
M  V30 4451 C 421.691 1.61827 0.158317 0
M  V30 4452 O 422.875 1.88471 0.0330249 0
M  V30 4453 C 420.002 3.37092 -0.32964 0
M  V30 4454 C 419.048 4.0438 -1.3557 0
M  V30 4455 S 419.881 4.48956 -2.91888 0
M  V30 4456 C 421.037 5.79024 -2.37658 0
M  V30 4457 H 421.27 2.36409 -1.80272 0
M  V30 4458 H 418.803 1.15211 -1.0279 0
M  V30 4459 H 420.761 4.10498 -0.0142824 0
M  V30 4460 H 419.422 3.08996 0.563941 0
M  V30 4461 H 418.615 4.95632 -0.9146 0
M  V30 4462 H 418.217 3.37176 -1.61828 0
M  V30 4463 H 420.509 6.53942 -1.77103 0
M  V30 4464 H 421.452 6.27924 -3.27287 0
M  V30 4465 H 421.86 5.35043 -1.79971 0
M  V30 4466 N 421.258 1.00505 1.21394 0
M  V30 4467 C 422.504 0.698477 1.91031 0
M  V30 4468 C 422.859 -0.762448 1.76648 0
M  V30 4469 O 422.152 -1.54554 1.13241 0
M  V30 4470 C 422.346 1.0546 3.41486 0
M  V30 4471 C 422.175 2.5486 3.70508 0
M  V30 4472 C 420.945 3.21461 3.8986 0
M  V30 4473 C 423.143 3.53019 3.74008 0
M  V30 4474 N 421.125 4.60211 4.06299 0
M  V30 4475 C 422.496 4.77279 3.95733 0
M  V30 4476 C 424.551 3.47154 3.56915 0
M  V30 4477 C 423.254 5.96388 4.02137 0
M  V30 4478 C 425.28 4.65652 3.64585 0
M  V30 4479 C 424.642 5.88717 3.86771 0
M  V30 4480 H 420.741 0.30707 0.719189 0
M  V30 4481 H 423.325 1.28753 1.46051 0
M  V30 4482 H 421.496 0.494007 3.85246 0
M  V30 4483 H 423.228 0.702765 3.98552 0
M  V30 4484 H 419.983 2.71906 3.87768 0
M  V30 4485 H 420.407 5.32216 4.1842 0
M  V30 4486 H 425.049 2.53015 3.38738 0
M  V30 4487 H 422.767 6.90919 4.19114 0
M  V30 4488 H 426.353 4.62717 3.52681 0
M  V30 4489 H 425.233 6.78877 3.92549 0
M  V30 4490 N 422.737 -1.36956 0.779787 0
M  V30 4491 C 423.967 -2.03459 0.358877 0
M  V30 4492 C 424.375 -1.58939 -1.02641 0
M  V30 4493 O 423.718 -0.769777 -1.66794 0
M  V30 4494 C 423.78 -3.5796 0.332393 0
M  V30 4495 C 423.444 -4.25644 1.66362 0
M  V30 4496 C 424.441 -4.49205 2.61746 0
M  V30 4497 C 422.126 -4.63313 1.94027 0
M  V30 4498 C 424.12 -5.09503 3.82996 0
M  V30 4499 C 421.807 -5.2333 3.15546 0
M  V30 4500 C 422.805 -5.46363 4.0985 0
M  V30 4501 O 422.493 -6.05122 5.29228 0
M  V30 4502 H 422.225 -0.659767 0.147254 0
M  V30 4503 H 424.779 -1.76111 1.05708 0
M  V30 4504 H 423.009 -3.84388 -0.422237 0
M  V30 4505 H 424.698 -4.05852 -0.0625389 0
M  V30 4506 H 425.464 -4.20508 2.41657 0
M  V30 4507 H 421.343 -4.44715 1.21448 0
M  V30 4508 H 424.887 -5.27397 4.56617 0
M  V30 4509 H 420.784 -5.51451 3.35517 0
M  V30 4510 H 421.552 -6.23595 5.30161 0
M  V30 4511 N 424.215 -0.530993 -1.48385 0
M  V30 4512 C 425.44 0.000729535 -2.074 0
M  V30 4513 C 425.865 1.27298 -1.3848 0
M  V30 4514 O 425.223 1.75599 -0.451081 0
M  V30 4515 C 425.271 0.206697 -3.60007 0
M  V30 4516 O 424.375 1.27514 -3.92191 0
M  V30 4517 H 423.716 -0.039583 -0.662819 0
M  V30 4518 H 426.246 -0.739194 -1.9078 0
M  V30 4519 H 426.256 0.42904 -4.05738 0
M  V30 4520 H 424.931 -0.722675 -4.09573 0
M  V30 4521 H 423.508 1.03537 -3.58238 0
M  V30 4522 N 425.693 1.55336 -0.266172 0
M  V30 4523 C 427.104 1.85236 0.233315 0
M  V30 4524 C 427.455 1.18816 1.56132 0
M  V30 4525 O 426.58 0.473307 2.11161 0
M  V30 4526 C 427.175 3.36059 0.430113 0
M  V30 4527 C 425.734 3.66116 0.873842 0
M  V30 4528 C 424.881 2.77274 -0.0380016 0
M  V30 4529 H 427.832 1.51004 -0.488214 0
M  V30 4530 H 427.853 3.58681 1.26998 0
M  V30 4531 H 427.365 3.84373 -0.536588 0
M  V30 4532 H 425.466 3.23295 1.85233 0
M  V30 4533 H 425.579 4.73699 0.717358 0
M  V30 4534 H 423.943 2.50198 0.476759 0
M  V30 4535 H 424.726 3.284 -1.00042 0
M  V30 4536 N 427.171 -0.0066808 1.57599 0
M  V30 4537 C 428.101 -0.999296 2.11036 0
M  V30 4538 C 429.082 -1.36278 1.01795 0
M  V30 4539 O 430.267 -1.4477 1.29442 0
M  V30 4540 C 427.397 -2.29328 2.60818 0
M  V30 4541 C 426.351 -2.07159 3.74525 0
M  V30 4542 C 425.677 -3.42512 4.10596 0
M  V30 4543 C 426.977 -1.43959 5.02069 0
M  V30 4544 H 428.671 -0.554382 2.94223 0
M  V30 4545 H 426.217 -0.265221 1.41536 0
M  V30 4546 H 428.17 -2.99117 2.96828 0
M  V30 4547 H 426.894 -2.7592 1.74745 0
M  V30 4548 H 425.553 -1.39797 3.38899 0
M  V30 4549 H 425.201 -3.86795 3.21556 0
M  V30 4550 H 424.901 -3.28498 4.87199 0
M  V30 4551 H 426.425 -4.13628 4.4916 0
M  V30 4552 H 427.839 -2.03696 5.35893 0
M  V30 4553 H 426.236 -1.40452 5.83432 0
M  V30 4554 H 427.306 -0.407992 4.83181 0
M  V30 4555 N 428.649 -1.55105 -0.279332 0
M  V30 4556 C 429.897 -1.75066 -1.00977 0
M  V30 4557 C 430.218 -0.551276 -1.87045 0
M  V30 4558 O 429.488 0.433984 -1.91032 0
M  V30 4559 H 428.068 -0.645578 -0.375816 0
M  V30 4560 H 430.73 -1.92497 -0.305089 0
M  V30 4561 H 429.826 -2.64894 -1.65038 0
M  V30 4562 N 430.127 0.543554 -1.4793 0
M  V30 4563 C 431.376 1.29649 -1.54512 0
M  V30 4564 C 431.689 1.94382 -0.217973 0
M  V30 4565 O 432.895 2.71017 -0.161908 0
M  V30 4566 C 431.351 2.35175 -2.72435 0
M  V30 4567 C 430.959 1.76572 -4.11736 0
M  V30 4568 C 432.703 3.11564 -2.8832 0
M  V30 4569 C 430.61 2.79958 -5.20939 0
M  V30 4570 H 429.54 0.487541 -0.57517 0
M  V30 4571 H 432.191 0.575708 -1.74235 0
M  V30 4572 H 430.573 3.10229 -2.46118 0
M  V30 4573 H 431.747 1.07799 -4.48013 0
M  V30 4574 H 430.062 1.12722 -4.00852 0
M  V30 4575 H 432.659 3.88794 -3.67074 0
M  V30 4576 H 433.002 3.66594 -1.97268 0
M  V30 4577 H 433.535 2.43623 -3.14472 0
M  V30 4578 H 430.274 2.29766 -6.13912 0
M  V30 4579 H 429.794 3.47101 -4.89164 0
M  V30 4580 H 431.473 3.43198 -5.48474 0
M  V30 4581 N 431.605 1.3629 0.791371 0
M  V30 4582 C 432.568 1.30309 1.88553 0
M  V30 4583 C 433.568 0.211204 1.59407 0
M  V30 4584 O 434.758 0.465865 1.67855 0
M  V30 4585 C 431.89 1.01956 3.25297 0
M  V30 4586 H 433.083 2.27614 1.95273 0
M  V30 4587 H 430.636 1.21035 0.988953 0
M  V30 4588 H 431.371 0.050998 3.2426 0
M  V30 4589 H 431.156 1.80968 3.4784 0
M  V30 4590 H 432.646 1.0037 4.05359 0
M  V30 4591 N 433.083 -1.0153 1.20538 0
M  V30 4592 C 434.323 -1.76689 1.02763 0
M  V30 4593 C 434.687 -1.87065 -0.432513 0
M  V30 4594 O 435.888 -2.58684 -0.730481 0
M  V30 4595 C 434.159 -3.14707 1.69393 0
M  V30 4596 S 435.718 -4.05886 1.66738 0
M  V30 4597 H 432.536 -0.608076 0.368463 0
M  V30 4598 H 435.138 -1.21558 1.53114 0
M  V30 4599 H 433.842 -3.04782 2.74838 0
M  V30 4600 H 433.373 -3.74913 1.19179 0
M  V30 4601 H 435.388 -4.91221 0.70117 0
M  V30 4602 N 434.561 -1.01147 -1.20859 0
M  V30 4603 C 435.491 -0.597663 -2.25722 0
M  V30 4604 C 436.472 0.384744 -1.65692 0
M  V30 4605 O 437.657 0.271303 -1.92296 0
M  V30 4606 C 434.787 0.0700149 -3.47229 0
M  V30 4607 C 433.741 -0.832843 -4.19819 0
M  V30 4608 C 433.067 -0.0312202 -5.34691 0
M  V30 4609 C 434.367 -2.1385 -4.76514 0
M  V30 4610 H 436.061 -1.47423 -2.60589 0
M  V30 4611 H 433.607 -0.710301 -1.25263 0
M  V30 4612 H 435.56 0.37103 -4.19763 0
M  V30 4613 H 434.284 0.981259 -3.11511 0
M  V30 4614 H 432.943 -1.11778 -3.49144 0
M  V30 4615 H 432.591 0.881515 -4.95215 0
M  V30 4616 H 432.291 -0.632434 -5.84187 0
M  V30 4617 H 433.815 0.26346 -6.10031 0
M  V30 4618 H 435.229 -1.9002 -5.40893 0
M  V30 4619 H 433.626 -2.69012 -5.36426 0
M  V30 4620 H 434.696 -2.80495 -3.95538 0
M  V30 4621 N 436.039 1.36541 -0.78704 0
M  V30 4622 C 437.288 1.98552 -0.35494 0
M  V30 4623 C 437.601 1.63171 1.07864 0
M  V30 4624 O 438.807 2.18399 1.61289 0
M  V30 4625 C 437.263 3.55136 -0.583671 0
M  V30 4626 C 436.871 3.99444 -2.02851 0
M  V30 4627 C 438.615 4.2395 -0.215957 0
M  V30 4628 C 436.522 5.48796 -2.20403 0
M  V30 4629 H 435.452 0.742888 -0.128972 0
M  V30 4630 H 438.103 1.5587 -0.968337 0
M  V30 4631 H 436.485 3.95875 0.0994046 0
M  V30 4632 H 437.659 3.6991 -2.74779 0
M  V30 4633 H 435.974 3.43459 -2.35425 0
M  V30 4634 H 438.571 5.33709 -0.325405 0
M  V30 4635 H 438.914 4.07827 0.835646 0
M  V30 4636 H 439.447 3.88565 -0.852175 0
M  V30 4637 H 436.186 5.69864 -3.23937 0
M  V30 4638 H 435.706 5.79964 -1.52977 0
M  V30 4639 H 437.385 6.14986 -2.01002 0
M  V30 4640 N 437.518 0.538854 1.48102 0
M  V30 4641 C 438.758 0.0101209 2.04397 0
M  V30 4642 C 439.122 -1.30741 1.40609 0
M  V30 4643 O 440.323 -1.92272 1.87843 0
M  V30 4644 C 438.594 -0.100232 3.57259 0
M  V30 4645 S 440.153 -0.577746 4.3498 0
M  V30 4646 H 436.971 0.0163171 0.710813 0
M  V30 4647 H 439.573 0.721429 1.81702 0
M  V30 4648 H 438.277 0.863351 4.01216 0
M  V30 4649 H 437.808 -0.835651 3.84422 0
M  V30 4650 H 439.823 -1.84073 4.60794 0
M  V30 4651 N 438.996 -1.55193 0.274407 0
M  V30 4652 C 440.244 -1.99187 -0.341902 0
M  V30 4653 C 440.565 -1.16422 -1.56431 0
M  V30 4654 O 439.835 -0.253573 -1.94252 0
M  V30 4655 H 438.415 -0.735721 -0.129317 0
M  V30 4656 H 441.077 -1.91168 0.379578 0
M  V30 4657 H 440.173 -3.05629 -0.632253 0
M  V30 4658 N 440.474 -0.00167713 -1.576 0
M  V30 4659 C 441.421 0.989195 -2.08527 0
M  V30 4660 C 442.391 1.34031 -0.981065 0
M  V30 4661 O 443.576 1.43839 -1.2536 0
M  V30 4662 C 440.716 2.27537 -2.59463 0
M  V30 4663 C 439.829 1.98314 -3.83791 0
M  V30 4664 C 438.964 3.21025 -4.23222 0
M  V30 4665 C 438.003 2.87495 -5.40382 0
M  V30 4666 N 437.14 4.02749 -5.75098 0
M  V30 4667 H 441.98 0.547973 -2.92919 0
M  V30 4668 H 439.517 0.258917 -1.44803 0
M  V30 4669 H 441.475 3.02729 -2.87073 0
M  V30 4670 H 440.105 2.69325 -1.77943 0
M  V30 4671 H 439.157 1.13482 -3.63078 0
M  V30 4672 H 440.469 1.69601 -4.69081 0
M  V30 4673 H 439.623 4.04561 -4.52123 0
M  V30 4674 H 438.362 3.52877 -3.36644 0
M  V30 4675 H 437.367 2.02367 -5.11202 0
M  V30 4676 H 438.592 2.56889 -6.28637 0
M  V30 4677 H 436.538 4.34494 -4.91478 0
M  V30 4678 H 436.455 3.77566 -6.54966 0
M  V30 4679 H 437.723 4.87068 -6.08592 0
M  V30 4680 N 441.952 1.55251 0.271103 0
M  V30 4681 C 443.201 1.75151 1.00025 0
M  V30 4682 C 443.514 0.561041 1.87381 0
M  V30 4683 O 444.72 0.642506 2.63788 0
M  V30 4684 C 443.176 3.09999 1.82835 0
M  V30 4685 C 442.784 4.3662 1.00336 0
M  V30 4686 C 444.528 3.39249 2.55168 0
M  V30 4687 C 442.435 5.62506 1.82595 0
M  V30 4688 H 441.365 0.652877 0.377183 0
M  V30 4689 H 444.016 1.81708 0.255843 0
M  V30 4690 H 442.398 2.97485 2.61378 0
M  V30 4691 H 443.572 4.60055 0.261959 0
M  V30 4692 H 441.887 4.14527 0.394486 0
M  V30 4693 H 444.484 4.3051 3.1712 0
M  V30 4694 H 444.827 2.59467 3.2555 0
M  V30 4695 H 445.36 3.52869 1.83653 0
M  V30 4696 H 442.099 6.45041 1.16631 0
M  V30 4697 H 441.619 5.43211 2.54327 0
M  V30 4698 H 443.298 6.00875 2.39913 0
M  V30 4699 N 443.43 -0.535701 1.48216 0
M  V30 4700 C 444.679 -1.28828 1.55197 0
M  V30 4701 C 444.992 -1.94263 0.228278 0
M  V30 4702 O 446.198 -2.70927 0.176278 0
M  V30 4703 C 444.654 -2.33727 2.73678 0
M  V30 4704 C 444.262 -1.74386 4.12666 0
M  V30 4705 C 446.006 -3.1003 2.89968 0
M  V30 4706 C 443.913 -2.77192 5.22416 0
M  V30 4707 H 442.843 -0.484484 0.577747 0
M  V30 4708 H 445.494 -0.56646 1.74538 0
M  V30 4709 H 443.876 -3.08919 2.4776 0
M  V30 4710 H 445.05 -1.05421 4.48579 0
M  V30 4711 H 443.365 -1.10595 4.01445 0
M  V30 4712 H 445.962 -3.86842 3.6913 0
M  V30 4713 H 446.305 -3.65542 1.9921 0
M  V30 4714 H 446.838 -2.41952 3.15759 0
M  V30 4715 H 443.577 -2.26507 6.15122 0
M  V30 4716 H 443.097 -3.44502 4.90998 0
M  V30 4717 H 444.776 -3.40285 5.50286 0
M  V30 4718 N 444.908 -1.36708 -0.784132 0
M  V30 4719 C 445.871 -1.31307 -1.87859 0
M  V30 4720 C 446.871 -0.219654 -1.59293 0
M  V30 4721 O 448.061 -0.47476 -1.67606 0
M  V30 4722 C 445.193 -1.03679 -3.24751 0
M  V30 4723 H 446.386 -2.28647 -1.94064 0
M  V30 4724 H 443.939 -1.21558 -0.98252 0
M  V30 4725 H 444.674 -0.0681936 -3.24228 0
M  V30 4726 H 444.459 -1.82811 -3.46876 0
M  V30 4727 H 445.949 -1.02518 -4.04821 0
M  V30 4728 N 446.386 1.0089 -1.21074 0
M  V30 4729 C 447.635 1.74019 -1.01981 0
M  V30 4730 C 447.948 1.90408 0.447665 0
M  V30 4731 O 449.154 2.60707 0.757906 0
M  V30 4732 C 447.61 3.13026 -1.77603 0
M  V30 4733 C 447.218 3.04623 -3.28495 0
M  V30 4734 C 448.962 3.90312 -1.66904 0
M  V30 4735 C 446.869 4.38685 -3.96623 0
M  V30 4736 H 445.799 0.652422 -0.377971 0
M  V30 4737 H 448.45 1.12755 -1.44771 0
M  V30 4738 H 446.832 3.74878 -1.27604 0
M  V30 4739 H 448.006 2.52032 -3.85767 0
M  V30 4740 H 446.321 2.40827 -3.39693 0
M  V30 4741 H 448.918 4.8951 -2.15138 0
M  V30 4742 H 449.261 4.11558 -0.62658 0
M  V30 4743 H 449.794 3.35104 -2.14359 0
M  V30 4744 H 446.533 4.22641 -5.01054 0
M  V30 4745 H 446.053 4.91252 -3.4414 0
M  V30 4746 H 447.732 5.075 -4.01314 0
M  V30 4747 N 447.864 1.01787 1.20321 0
M  V30 4748 C 448.811 0.589197 2.23153 0
M  V30 4749 C 449.781 -0.391367 1.61423 0
M  V30 4750 O 450.966 -0.290518 1.88575 0
M  V30 4751 C 448.106 -0.0650747 3.45039 0
M  V30 4752 C 447.219 0.960207 4.21194 0
M  V30 4753 C 446.354 0.276854 5.30478 0
M  V30 4754 C 445.393 1.2888 5.98378 0
M  V30 4755 N 444.53 0.632031 6.99249 0
M  V30 4756 H 449.37 1.47071 2.59179 0
M  V30 4757 H 446.907 0.736192 1.27352 0
M  V30 4758 H 448.865 -0.461552 4.14639 0
M  V30 4759 H 447.495 -0.910233 3.09701 0
M  V30 4760 H 446.547 1.47484 3.50646 0
M  V30 4761 H 447.859 1.72977 4.67847 0
M  V30 4762 H 447.013 -0.175056 6.06447 0
M  V30 4763 H 445.752 -0.525004 4.84866 0
M  V30 4764 H 444.757 1.75109 5.21169 0
M  V30 4765 H 445.982 2.09196 6.46076 0
M  V30 4766 H 443.928 -0.149935 6.55829 0
M  V30 4767 H 443.845 1.33964 7.44036 0
M  V30 4768 H 445.113 0.203755 7.79234 0
M  V30 4769 N 449.342 -1.36122 0.79427 0
M  V30 4770 C 450.619 -1.93398 0.292685 0
M  V30 4771 C 450.999 -1.72567 -1.21589 0
M  V30 4772 O 450.347 -1.08745 -2.00965 0
M  V30 4773 C 450.557 -3.42099 0.690614 0
M  V30 4774 C 451.905 -4.19231 0.673105 0
M  V30 4775 O 452.929 -3.50559 0.631389 0
M  V30 4776 O 451.788 -5.41732 0.720362 0
M  V30 4777 H 448.882 -0.823712 0.0736693 0
M  V30 4778 H 451.428 -1.45273 0.87714 0
M  V30 4779 H 450.2 -3.50938 1.73085 0
M  V30 4780 H 449.823 -3.97519 0.0803036 0
M  V30 4781 N 450.82 -0.546701 -1.47814 0
M  V30 4782 C 451.75 0.195317 -2.32682 0
M  V30 4783 C 452.731 0.918981 -1.43139 0
M  V30 4784 O 453.916 0.901501 -1.72008 0
M  V30 4785 C 451.046 1.23237 -3.247 0
M  V30 4786 C 450 0.625818 -4.234 0
M  V30 4787 C 449.326 1.76674 -5.04669 0
M  V30 4788 C 450.626 -0.413515 -5.2066 0
M  V30 4789 H 452.32 -0.513184 -2.94969 0
M  V30 4790 H 449.866 -0.248241 -1.41844 0
M  V30 4791 H 451.819 1.75955 -3.82907 0
M  V30 4792 H 450.543 1.97067 -2.60446 0
M  V30 4793 H 449.202 0.120023 -3.66403 0
M  V30 4794 H 448.85 2.49383 -4.36826 0
M  V30 4795 H 448.55 1.36673 -5.71484 0
M  V30 4796 H 450.074 2.29738 -5.65732 0
M  V30 4797 H 451.488 0.0272042 -5.73294 0
M  V30 4798 H 449.885 -0.731825 -5.95621 0
M  V30 4799 H 450.955 -1.31325 -4.66778 0
M  V30 4800 N 452.299 1.55045 -0.282633 0
M  V30 4801 C 453.209 2.26491 0.61147 0
M  V30 4802 C 454.225 1.29348 1.16384 0
M  V30 4803 O 455.401 1.62298 1.19253 0
M  V30 4804 C 452.466 2.97779 1.77563 0
M  V30 4805 C 451.527 4.10418 1.25919 0
M  V30 4806 C 450.76 4.78297 2.36786 0
M  V30 4807 O 450.983 4.45426 3.56303 0
M  V30 4808 O 449.917 5.66089 2.04517 0
M  V30 4809 H 453.743 3.03683 0.0324615 0
M  V30 4810 H 451.328 1.49317 -0.0497576 0
M  V30 4811 H 453.21 3.42554 2.45427 0
M  V30 4812 H 451.885 2.23498 2.34159 0
M  V30 4813 H 450.792 3.70082 0.546797 0
M  V30 4814 H 452.125 4.86622 0.738887 0
M  V30 4815 N 453.777 0.010035 1.57597 0
M  V30 4816 C 455.023 -0.673697 1.91283 0
M  V30 4817 C 455.356 -1.72863 0.884979 0
M  V30 4818 O 454.631 -1.94268 -0.0949487 0
M  V30 4819 C 454.914 -1.30766 3.35518 0
M  V30 4820 C 454.767 -0.263578 4.49027 0
M  V30 4821 C 456.086 -2.23105 3.79358 0
M  V30 4822 H 453.205 -0.243439 0.695634 0
M  V30 4823 H 455.847 0.0633864 1.89894 0
M  V30 4824 H 453.997 -1.93588 3.36832 0
M  V30 4825 H 455.669 0.365738 4.59848 0
M  V30 4826 H 453.912 0.413077 4.31829 0
M  V30 4827 H 454.583 -0.746398 5.4693 0
M  V30 4828 H 457.059 -1.70289 3.79659 0
M  V30 4829 H 455.935 -2.64424 4.81011 0
M  V30 4830 H 456.196 -3.11433 3.13787 0
M  V30 4831 N 455.255 -1.55392 -0.262866 0
M  V30 4832 C 456.501 -1.76737 -0.99458 0
M  V30 4833 C 456.834 -0.572453 -1.85571 0
M  V30 4834 O 456.109 0.429732 -1.89693 0
M  V30 4835 C 456.392 -3.07824 -1.8686 0
M  V30 4836 C 456.245 -4.3769 -1.03672 0
M  V30 4837 C 457.564 -3.35021 -2.85393 0
M  V30 4838 H 454.683 -0.643005 -0.360157 0
M  V30 4839 H 457.325 -1.88126 -0.266216 0
M  V30 4840 H 455.475 -2.98245 -2.48962 0
M  V30 4841 H 457.147 -4.59238 -0.43563 0
M  V30 4842 H 455.39 -4.32461 -0.340513 0
M  V30 4843 H 456.061 -5.25759 -1.6817 0
M  V30 4844 H 458.537 -3.44458 -2.33426 0
M  V30 4845 H 457.413 -4.27989 -3.43681 0
M  V30 4846 H 457.674 -2.55153 -3.61039 0
M  V30 4847 N 456.733 0.527833 -1.48498 0
M  V30 4848 C 457.696 1.61439 -1.62696 0
M  V30 4849 C 458.696 1.52824 -0.500136 0
M  V30 4850 O 459.886 1.56456 -0.765976 0
M  V30 4851 C 457.018 3.01063 -1.59918 0
M  V30 4852 H 458.211 1.50189 -2.59583 0
M  V30 4853 H 455.764 0.750055 -1.37127 0
M  V30 4854 H 456.499 3.17818 -0.645163 0
M  V30 4855 H 456.284 3.08725 -2.41726 0
M  V30 4856 H 457.774 3.80057 -1.73051 0
M  V30 4857 N 458.211 1.37122 0.776871 0
M  V30 4858 C 459.627 1.1781 1.07671 0
M  V30 4859 C 459.827 0.0107454 2.01497 0
M  V30 4860 O 458.883 -0.650756 2.4397 0
M  V30 4861 C 460.196 2.49451 1.67913 0
M  V30 4862 C 461.744 2.55927 1.80195 0
M  V30 4863 C 462.219 3.87686 2.43851 0
M  V30 4864 N 463.71 3.891 2.51307 0
M  V30 4865 C 464.445 4.87797 3.014 0
M  V30 4866 N 463.941 5.96888 3.51705 0
M  V30 4867 N 465.734 4.75205 3.00227 0
M  V30 4868 H 457.885 2.11843 0.153778 0
M  V30 4869 H 460.148 0.938927 0.130844 0
M  V30 4870 H 459.854 3.35207 1.06439 0
M  V30 4871 H 459.728 2.66169 2.67271 0
M  V30 4872 H 462.115 1.70582 2.40803 0
M  V30 4873 H 462.196 2.43097 0.796069 0
M  V30 4874 H 461.84 4.73444 1.83884 0
M  V30 4875 H 461.77 3.97817 3.45035 0
M  V30 4876 H 464.261 3.10293 2.157 0
M  V30 4877 H 464.574 6.68155 3.88316 0
M  V30 4878 H 462.919 6.0054 3.49824 0
M  V30 4879 H 466.11 3.89103 2.60224 0
M  V30 4880 H 466.283 5.52279 3.38957 0
M  V30 4881 N 459.689 -1.00246 1.21608 0
M  V30 4882 C 460.621 -2.09244 0.935401 0
M  V30 4883 C 461.634 -1.62592 -0.0823594 0
M  V30 4884 O 462.823 -1.77865 0.150456 0
M  V30 4885 C 459.923 -3.36724 0.383453 0
M  V30 4886 C 459.096 -4.1245 1.45615 0
M  V30 4887 C 458.155 -5.18219 0.912991 0
M  V30 4888 O 457.181 -5.46337 1.59701 0
M  V30 4889 N 458.383 -5.7987 -0.270478 0
M  V30 4890 H 461.148 -2.33905 1.87373 0
M  V30 4891 H 458.709 -1.16748 1.12167 0
M  V30 4892 H 460.701 -4.047 0.00562157 0
M  V30 4893 H 459.271 -3.09201 -0.459758 0
M  V30 4894 H 458.491 -3.39241 2.00772 0
M  V30 4895 H 459.779 -4.59819 2.17817 0
M  V30 4896 H 459.177 -5.59381 -0.843195 0
M  V30 4897 H 457.734 -6.49126 -0.589794 0
M  V30 4898 N 461.167 -1.02423 -1.1978 0
M  V30 4899 C 462.097 -0.62157 -2.25075 0
M  V30 4900 C 463.078 0.367148 -1.6609 0
M  V30 4901 O 464.263 0.250892 -1.92573 0
M  V30 4902 C 461.393 0.0331826 -3.47284 0
M  V30 4903 C 460.347 -0.877323 -4.18912 0
M  V30 4904 C 459.673 -0.0879296 -5.34628 0
M  V30 4905 C 460.973 -2.18892 -4.74219 0
M  V30 4906 H 462.667 -1.50179 -2.59011 0
M  V30 4907 H 460.213 -0.723547 -1.24502 0
M  V30 4908 H 462.166 0.326488 -4.20133 0
M  V30 4909 H 460.89 0.948164 -3.12534 0
M  V30 4910 H 459.549 -1.15475 -3.47938 0
M  V30 4911 H 459.197 0.828941 -4.96123 0
M  V30 4912 H 458.897 -0.694359 -5.83483 0
M  V30 4913 H 460.421 0.198743 -6.10276 0
M  V30 4914 H 461.835 -1.95746 -5.38847 0
M  V30 4915 H 460.232 -2.74686 -5.33542 0
M  V30 4916 H 461.302 -2.84674 -3.92541 0
M  V30 4917 N 462.645 1.35699 -0.801477 0
M  V30 4918 C 463.893 1.9852 -0.37871 0
M  V30 4919 C 464.214 1.63907 1.05638 0
M  V30 4920 O 463.484 0.919013 1.73006 0
M  V30 4921 H 462.064 0.734322 -0.137042 0
M  V30 4922 H 464.726 1.65697 -1.02619 0
M  V30 4923 H 463.822 3.08382 -0.480284 0
M  V30 4924 N 464.123 0.554532 1.47522 0
M  V30 4925 C 465.056 -0.242442 2.26908 0
M  V30 4926 C 466.034 -0.922722 1.33883 0
M  V30 4927 O 467.218 -0.942244 1.63261 0
M  V30 4928 C 464.345 -1.34525 3.10839 0
M  V30 4929 C 463.391 -0.773805 4.19422 0
M  V30 4930 S 464.224 0.377525 5.34168 0
M  V30 4931 C 465.38 -0.727164 6.21662 0
M  V30 4932 H 465.613 0.431218 2.94156 0
M  V30 4933 H 463.146 0.3408 1.50592 0
M  V30 4934 H 465.104 -1.97683 3.59766 0
M  V30 4935 H 463.765 -1.99073 2.42958 0
M  V30 4936 H 462.958 -1.60187 4.77866 0
M  V30 4937 H 462.56 -0.218448 3.73361 0
M  V30 4938 H 464.852 -1.61992 6.57849 0
M  V30 4939 H 465.795 -0.180135 7.07871 0
M  V30 4940 H 466.203 -1.01863 5.55233 0
M  V30 4941 N 465.601 -1.54893 0.290851 0
M  V30 4942 C 466.831 -2.04047 -0.323818 0
M  V30 4943 C 467.239 -1.16809 -1.48837 0
M  V30 4944 O 466.582 -0.184145 -1.82775 0
M  V30 4945 C 466.644 -3.49248 -0.852395 0
M  V30 4946 C 466.308 -4.56623 0.185557 0
M  V30 4947 C 467.305 -5.09985 1.01053 0
M  V30 4948 C 464.99 -5.01252 0.324332 0
M  V30 4949 C 466.984 -6.06507 1.96031 0
M  V30 4950 C 464.671 -5.97596 1.27757 0
M  V30 4951 C 465.669 -6.50107 2.09405 0
M  V30 4952 O 465.357 -7.44565 3.03114 0
M  V30 4953 H 465.089 -0.671735 -0.0758129 0
M  V30 4954 H 467.643 -2.00947 0.425393 0
M  V30 4955 H 465.873 -3.49639 -1.65195 0
M  V30 4956 H 467.562 -3.81654 -1.38185 0
M  V30 4957 H 468.328 -4.76307 0.914129 0
M  V30 4958 H 464.207 -4.60015 -0.301213 0
M  V30 4959 H 467.751 -6.47418 2.598 0
M  V30 4960 H 463.648 -6.30691 1.37473 0
M  V30 4961 H 464.416 -7.62334 2.97976 0
M  V30 4962 N 467.08 -0.0183926 -1.57589 0
M  V30 4963 C 468.013 1.00148 -2.0505 0
M  V30 4964 C 468.991 1.32387 -0.944058 0
M  V30 4965 O 470.175 1.44237 -1.21358 0
M  V30 4966 C 467.302 2.32435 -2.46357 0
M  V30 4967 C 466.348 2.15731 -3.67916 0
M  V30 4968 S 467.181 1.46613 -5.15039 0
M  V30 4969 C 468.337 2.80293 -5.59631 0
M  V30 4970 H 468.57 0.597429 -2.91235 0
M  V30 4971 H 466.103 0.193002 -1.53189 0
M  V30 4972 H 468.061 3.0849 -2.70822 0
M  V30 4973 H 466.722 2.69975 -1.60537 0
M  V30 4974 H 465.915 3.13502 -3.9463 0
M  V30 4975 H 465.517 1.4782 -3.43548 0
M  V30 4976 H 467.809 3.76557 -5.63215 0
M  V30 4977 H 468.752 2.58256 -6.59325 0
M  V30 4978 H 469.16 2.85047 -4.87246 0
M  V30 4979 N 468.558 1.5553 0.254621 0
M  V30 4980 C 469.804 1.77262 0.985193 0
M  V30 4981 C 470.137 0.582286 1.85265 0
M  V30 4982 O 469.412 -0.419666 1.89919 0
M  V30 4983 C 469.695 3.0881 1.85225 0
M  V30 4984 C 469.548 4.38233 1.0135 0
M  V30 4985 C 470.867 3.3653 2.83612 0
M  V30 4986 H 467.986 0.644906 0.356742 0
M  V30 4987 H 470.628 1.88264 0.256236 0
M  V30 4988 H 468.778 2.99562 2.47376 0
M  V30 4989 H 470.45 4.59463 0.411269 0
M  V30 4990 H 468.693 4.32636 0.317574 0
M  V30 4991 H 469.364 5.26644 1.65379 0
M  V30 4992 H 471.84 3.45691 2.31596 0
M  V30 4993 H 470.716 4.29805 3.41407 0
M  V30 4994 H 470.977 2.57064 3.59681 0
M  V30 4995 N 470.036 -0.519951 1.48776 0
M  V30 4996 C 471.264 -1.29971 1.60982 0
M  V30 4997 C 471.679 -1.86803 0.273885 0
M  V30 4998 O 471.036 -1.66904 -0.738193 0
M  V30 4999 C 471.087 -2.44346 2.66415 0
M  V30 5000 O 470.808 -1.89855 3.94825 0
M  V30 5001 C 472.309 -3.36014 2.89153 0
M  V30 5002 H 469.529 -0.394891 0.542496 0
M  V30 5003 H 472.073 -0.626214 1.94676 0
M  V30 5004 H 470.228 -3.07562 2.35552 0
M  V30 5005 H 470.642 -2.64798 4.5275 0
M  V30 5006 H 472.116 -4.12593 3.66703 0
M  V30 5007 H 472.593 -3.91859 1.98351 0
M  V30 5008 H 473.199 -2.78582 3.21359 0
M  V30 5009 N 471.514 -1.37532 -0.769588 0
M  V30 5010 C 472.76 -1.33057 -1.53048 0
M  V30 5011 C 473.093 0.0841865 -1.94017 0
M  V30 5012 O 472.368 1.04198 -1.64235 0
M  V30 5013 C 472.651 -2.27166 -2.79406 0
M  V30 5014 C 472.504 -3.77429 -2.44677 0
M  V30 5015 C 473.823 -2.19683 -3.81349 0
M  V30 5016 H 470.942 -0.484655 -0.555228 0
M  V30 5017 H 473.584 -1.68251 -0.882702 0
M  V30 5018 H 471.734 -1.97283 -3.34682 0
M  V30 5019 H 473.406 -4.17918 -1.953 0
M  V30 5020 H 471.649 -3.95892 -1.77346 0
M  V30 5021 H 472.32 -4.38716 -3.35011 0
M  V30 5022 H 474.796 -2.46029 -3.35573 0
M  V30 5023 H 473.672 -2.87668 -4.67481 0
M  V30 5024 H 473.933 -1.19045 -4.25771 0
M  V30 5025 N 472.992 0.995999 -1.22138 0
M  V30 5026 C 474.241 1.72928 -1.03821 0
M  V30 5027 C 474.554 1.90872 0.427444 0
M  V30 5028 O 475.76 2.61496 0.730212 0
M  V30 5029 C 474.216 3.11124 -1.80913 0
M  V30 5030 C 473.824 3.01122 -3.31707 0
M  V30 5031 C 475.568 3.8852 -1.71035 0
M  V30 5032 C 473.475 4.34453 -4.01253 0
M  V30 5033 H 472.405 0.648376 -0.384869 0
M  V30 5034 H 475.056 1.11213 -1.45959 0
M  V30 5035 H 473.438 3.73503 -1.31573 0
M  V30 5036 H 474.612 2.47926 -3.88419 0
M  V30 5037 H 472.927 2.3721 -3.42228 0
M  V30 5038 H 475.524 4.872 -2.20318 0
M  V30 5039 H 475.867 4.1087 -0.670196 0
M  V30 5040 H 476.4 3.32812 -2.17902 0
M  V30 5041 H 473.139 4.17303 -5.05508 0
M  V30 5042 H 472.659 4.87574 -3.49331 0
M  V30 5043 H 474.338 5.03215 -4.06674 0
M  V30 5044 N 474.47 1.03057 1.19235 0
M  V30 5045 C 475.719 0.72326 1.88287 0
M  V30 5046 C 476.032 -0.751333 1.80594 0
M  V30 5047 O 477.238 -1.17176 2.44912 0
M  V30 5048 C 475.694 1.24338 3.3774 0
M  V30 5049 C 475.302 2.74587 3.53986 0
M  V30 5050 C 477.046 1.01213 4.12257 0
M  V30 5051 C 474.953 3.20009 4.97341 0
M  V30 5052 H 473.883 0.266848 0.705201 0
M  V30 5053 H 476.534 1.24509 1.34795 0
M  V30 5054 H 474.916 0.649457 3.90638 0
M  V30 5055 H 476.09 3.39649 3.11408 0
M  V30 5056 H 474.405 2.9601 2.9286 0
M  V30 5057 H 477.002 1.32675 5.17978 0
M  V30 5058 H 477.345 -0.051001 4.16269 0
M  V30 5059 H 477.878 1.57014 3.65501 0
M  V30 5060 H 474.617 4.25659 4.98493 0
M  V30 5061 H 474.137 2.59676 5.40674 0
M  V30 5062 H 475.816 3.13447 5.66003 0
M  V30 5063 N 475.948 -1.35272 0.808662 0
M  V30 5064 C 477.196 -1.98316 0.389233 0
M  V30 5065 C 477.517 -1.64465 -1.04767 0
M  V30 5066 O 476.787 -0.928175 -1.72516 0
M  V30 5067 H 475.367 -0.733585 0.140935 0
M  V30 5068 H 478.029 -1.6515 1.03496 0
M  V30 5069 H 477.125 -3.08123 0.496631 0
M  V30 5070 N 477.426 -0.562348 -1.47226 0
M  V30 5071 C 478.356 0.170627 -2.32876 0
M  V30 5072 C 479.337 0.903748 -1.44106 0
M  V30 5073 O 480.522 0.883206 -1.72954 0
M  V30 5074 C 477.652 1.19786 -3.25989 0
M  V30 5075 C 476.606 0.580875 -4.2404 0
M  V30 5076 C 475.932 1.71311 -5.06514 0
M  V30 5077 C 477.232 -0.468714 -5.20193 0
M  V30 5078 H 478.926 -0.544441 -2.94408 0
M  V30 5079 H 476.472 -0.263271 -1.41573 0
M  V30 5080 H 478.425 1.71884 -3.84752 0
M  V30 5081 H 477.149 1.94294 -2.62521 0
M  V30 5082 H 475.808 0.0811538 -3.6651 0
M  V30 5083 H 475.456 2.44736 -4.39447 0
M  V30 5084 H 475.156 1.30604 -5.72902 0
M  V30 5085 H 476.68 2.23725 -5.68137 0
M  V30 5086 H 478.094 -0.0336028 -5.7329 0
M  V30 5087 H 476.491 -0.794957 -5.94811 0
M  V30 5088 H 477.561 -1.36269 -4.65359 0
M  V30 5089 N 478.904 1.54736 -0.299062 0
M  V30 5090 C 480.153 1.99279 0.311549 0
M  V30 5091 C 480.466 1.19107 1.55154 0
M  V30 5092 O 481.672 1.53908 2.23662 0
M  V30 5093 C 480.128 3.54768 0.605632 0
M  V30 5094 C 479.736 4.43746 -0.615914 0
M  V30 5095 C 481.48 4.07841 1.17754 0
M  V30 5096 C 479.387 5.90663 -0.29509 0
M  V30 5097 H 478.317 0.744359 0.120187 0
M  V30 5098 H 480.968 1.78919 -0.407464 0
M  V30 5099 H 479.35 3.71021 1.38419 0
M  V30 5100 H 480.524 4.39267 -1.39218 0
M  V30 5101 H 478.839 4.01434 -1.10633 0
M  V30 5102 H 481.436 5.15174 1.43179 0
M  V30 5103 H 481.779 3.58324 2.11918 0
M  V30 5104 H 482.312 3.95123 0.460739 0
M  V30 5105 H 479.051 6.44325 -1.20524 0
M  V30 5106 H 478.571 5.98155 0.44394 0
M  V30 5107 H 480.25 6.46916 0.104048 0
M  V30 5108 N 480.382 0.0267497 1.57577 0
M  V30 5109 C 481.631 -0.651736 1.9088 0
M  V30 5110 C 481.944 -1.73427 0.904576 0
M  V30 5111 O 483.15 -2.46923 1.12877 0
M  V30 5112 C 481.606 -1.21048 3.38933 0
M  V30 5113 C 481.214 -0.161362 4.47709 0
M  V30 5114 C 482.958 -1.86562 3.81307 0
M  V30 5115 C 480.865 -0.731611 5.86857 0
M  V30 5116 H 479.795 -0.247198 0.712326 0
M  V30 5117 H 482.446 0.0916641 1.83271 0
M  V30 5118 H 480.828 -2.00542 3.41466 0
M  V30 5119 H 482.002 0.61094 4.56732 0
M  V30 5120 H 480.317 0.394877 4.14523 0
M  V30 5121 H 482.914 -2.30178 4.8262 0
M  V30 5122 H 483.257 -2.70735 3.16241 0
M  V30 5123 H 483.79 -1.13762 3.81186 0
M  V30 5124 H 480.529 0.0719329 6.55461 0
M  V30 5125 H 480.049 -1.47245 5.81445 0
M  V30 5126 H 481.728 -1.22208 6.35354 0
M  V30 5127 N 481.861 -1.55662 -0.24637 0
M  V30 5128 C 482.811 -1.86753 -1.30795 0
M  V30 5129 C 483.795 -0.728445 -1.43466 0
M  V30 5130 O 484.987 -0.99038 -1.46699 0
M  V30 5131 C 482.116 -2.16618 -2.66329 0
M  V30 5132 C 481.202 -3.36855 -2.57661 0
M  V30 5133 N 481.593 -4.56111 -2.18624 0
M  V30 5134 C 479.891 -3.39976 -2.88673 0
M  V30 5135 C 480.592 -5.38247 -2.20601 0
M  V30 5136 N 479.568 -4.77322 -2.60124 0
M  V30 5137 H 483.37 -2.76486 -0.996642 0
M  V30 5138 H 480.884 -1.55896 -0.454994 0
M  V30 5139 H 482.881 -2.37057 -3.42942 0
M  V30 5140 H 481.541 -1.28185 -2.98327 0
M  V30 5141 H 482.552 -4.81726 -1.9016 0
M  V30 5142 H 479.229 -2.61815 -3.25206 0
M  V30 5143 H 480.619 -6.43657 -1.92756 0
M  V30 5144 N 483.339 0.512053 -1.4905 0
M  V30 5145 C 484.587 1.26436 -1.57665 0
M  V30 5146 C 484.908 1.93255 -0.260293 0
M  V30 5147 O 484.178 1.82206 0.719564 0
M  V30 5148 H 482.758 0.469658 -0.580888 0
M  V30 5149 H 485.42 0.594398 -1.85615 0
M  V30 5150 H 484.516 2.03417 -2.36702 0
M  V30 5151 N 484.817 1.37938 0.762283 0
M  V30 5152 C 486.065 1.33404 1.51815 0
M  V30 5153 C 486.386 -0.0780975 1.94844 0
M  V30 5154 O 485.656 -1.02405 1.67003 0
M  V30 5155 H 484.236 0.490839 0.563104 0
M  V30 5156 H 486.898 1.72527 0.906669 0
M  V30 5157 H 485.994 1.97926 2.41313 0
M  V30 5158 N 486.295 -0.989507 1.22664 0
M  V30 5159 C 487.544 -1.72375 1.04737 0
M  V30 5160 C 487.857 -1.91096 -0.417316 0
M  V30 5161 O 489.063 -2.6188 -0.716334 0
M  V30 5162 C 487.519 -3.10161 1.82561 0
M  V30 5163 C 487.127 -2.99358 3.333 0
M  V30 5164 C 488.871 -3.87607 1.73093 0
M  V30 5165 C 486.778 -4.32319 4.03552 0
M  V30 5166 H 485.708 -0.646326 0.388302 0
M  V30 5167 H 488.359 -1.10437 1.46546 0
M  V30 5168 H 486.741 -3.728 1.33552 0
M  V30 5169 H 487.915 -2.45863 3.89728 0
M  V30 5170 H 486.23 -2.35392 3.43481 0
M  V30 5171 H 488.827 -4.86025 2.22899 0
M  V30 5172 H 489.17 -4.10509 0.691976 0
M  V30 5173 H 489.703 -3.31652 2.19663 0
M  V30 5174 H 486.442 -4.14616 5.07714 0
M  V30 5175 H 485.962 -4.85714 3.51911 0
M  V30 5176 H 487.641 -5.01051 4.09337 0
M  V30 5177 N 487.773 -1.03688 -1.18687 0
M  V30 5178 C 489.02 -0.73803 -1.88572 0
M  V30 5179 C 489.348 0.733973 -1.8012 0
M  V30 5180 O 488.603 1.55098 -1.19344 0
M  V30 5181 C 488.902 -1.14477 -3.3857 0
M  V30 5182 C 488.568 -2.61641 -3.67226 0
M  V30 5183 C 487.23 -3.01846 -3.74757 0
M  V30 5184 C 489.582 -3.56812 -3.79914 0
M  V30 5185 C 486.91 -4.36118 -3.92451 0
M  V30 5186 C 489.262 -4.90799 -3.99123 0
M  V30 5187 C 487.926 -5.3068 -4.04888 0
M  V30 5188 H 487.196 -0.270064 -0.690034 0
M  V30 5189 H 489.843 -1.3012 -1.40503 0
M  V30 5190 H 488.148 -0.500337 -3.88592 0
M  V30 5191 H 489.845 -0.89095 -3.90977 0
M  V30 5192 H 486.435 -2.29498 -3.61979 0
M  V30 5193 H 490.619 -3.26899 -3.73431 0
M  V30 5194 H 485.875 -4.66542 -3.95157 0
M  V30 5195 H 490.049 -5.64451 -4.07882 0
M  V30 5196 H 487.676 -6.34733 -4.18351 0
M  V30 5197 N 489.251 1.34841 -0.815825 0
M  V30 5198 C 490.181 2.32187 -0.247298 0
M  V30 5199 C 491.162 1.5791 0.632344 0
M  V30 5200 O 492.347 1.8593 0.560698 0
M  V30 5201 C 489.477 3.42122 0.597466 0
M  V30 5202 C 488.431 4.27602 -0.184446 0
M  V30 5203 C 487.757 5.28942 0.782609 0
M  V30 5204 C 489.057 5.03502 -1.38865 0
M  V30 5205 H 490.751 2.79985 -1.06061 0
M  V30 5206 H 488.297 1.34611 -0.511461 0
M  V30 5207 H 490.25 4.09232 1.00533 0
M  V30 5208 H 488.974 2.92956 1.44376 0
M  V30 5209 H 487.633 3.62085 -0.573592 0
M  V30 5210 H 487.281 4.7604 1.62466 0
M  V30 5211 H 486.981 5.87008 0.263695 0
M  V30 5212 H 488.505 5.98922 1.18848 0
M  V30 5213 H 489.919 5.63506 -1.05518 0
M  V30 5214 H 488.316 5.71108 -1.8427 0
M  V30 5215 H 489.386 4.33608 -2.17054 0
M  V30 5216 N 490.729 0.570148 1.46925 0
M  V30 5217 C 492.14 0.1402 1.86173 0
M  V30 5218 C 492.491 -1.29347 1.47526 0
M  V30 5219 O 491.616 -1.97508 0.884292 0
M  V30 5220 C 492.211 0.247661 3.37894 0
M  V30 5221 C 490.77 -0.127332 3.76185 0
M  V30 5222 C 489.917 0.589349 2.70965 0
M  V30 5223 H 492.868 0.779117 1.38259 0
M  V30 5224 H 492.889 -0.530341 3.76786 0
M  V30 5225 H 492.401 1.29121 3.65991 0
M  V30 5226 H 490.502 -1.17149 3.53704 0
M  V30 5227 H 490.615 0.240238 4.78497 0
M  V30 5228 H 488.979 0.0309824 2.54681 0
M  V30 5229 H 489.762 1.6343 3.01903 0
M  V30 5230 N 492.207 -1.54576 0.307264 0
M  V30 5231 C 493.137 -2.26708 -0.55907 0
M  V30 5232 C 494.118 -1.26893 -1.1328 0
M  V30 5233 O 495.303 -1.55677 -1.16097 0
M  V30 5234 C 492.433 -3.01259 -1.72801 0
M  V30 5235 C 491.387 -4.08275 -1.28435 0
M  V30 5236 C 490.713 -4.70575 -2.53895 0
M  V30 5237 C 492.013 -5.2068 -0.411038 0
M  V30 5238 H 493.707 -2.9937 0.042576 0
M  V30 5239 H 491.253 -1.43983 0.0219173 0
M  V30 5240 H 493.206 -3.50444 -2.34023 0
M  V30 5241 H 491.93 -2.26187 -2.356 0
M  V30 5242 H 490.589 -3.59949 -0.695161 0
M  V30 5243 H 490.237 -3.92136 -3.15021 0
M  V30 5244 H 489.937 -5.42854 -2.24908 0
M  V30 5245 H 491.461 -5.22527 -3.15908 0
M  V30 5246 H 492.875 -5.65721 -0.929097 0
M  V30 5247 H 491.272 -5.99716 -0.214664 0
M  V30 5248 H 492.342 -4.81629 0.562287 0
M  V30 5249 N 493.685 -0.035106 -1.57561 0
M  V30 5250 C 494.934 0.641604 -1.91223 0
M  V30 5251 C 495.247 1.72944 -0.913761 0
M  V30 5252 O 496.453 2.46321 -1.14185 0
M  V30 5253 C 494.909 1.19249 -3.3957 0
M  V30 5254 C 494.517 0.137616 -4.47789 0
M  V30 5255 C 496.261 1.84537 -3.82291 0
M  V30 5256 C 494.168 0.700478 -5.87237 0
M  V30 5257 H 493.098 0.243417 -0.713627 0
M  V30 5258 H 495.749 -0.101382 -1.8322 0
M  V30 5259 H 494.131 1.98728 -3.42525 0
M  V30 5260 H 495.305 -0.635153 -4.56402 0
M  V30 5261 H 493.62 -0.416855 -4.14308 0
M  V30 5262 H 496.217 2.27616 -4.83834 0
M  V30 5263 H 496.56 2.69054 -3.17672 0
M  V30 5264 H 497.093 1.11739 -3.81784 0
M  V30 5265 H 493.832 -0.106693 -6.55413 0
M  V30 5266 H 493.352 1.4416 -5.82218 0
M  V30 5267 H 495.031 1.18837 -6.35993 0
M  V30 5268 N 495.163 1.55791 0.238111 0
M  V30 5269 C 496.393 1.81834 0.980809 0
M  V30 5270 C 496.801 0.609741 1.79106 0
M  V30 5271 O 496.144 -0.431073 1.78571 0
M  V30 5272 C 496.206 3.01363 1.96011 0
M  V30 5273 C 495.87 4.37037 1.33597 0
M  V30 5274 C 496.867 5.14692 0.734063 0
M  V30 5275 C 494.552 4.83743 1.3527 0
M  V30 5276 C 496.546 6.37206 0.157208 0
M  V30 5277 C 494.233 6.06204 0.77199 0
M  V30 5278 C 495.231 6.82775 0.175282 0
M  V30 5279 O 494.919 8.02922 -0.396432 0
M  V30 5280 H 494.651 0.6088 0.293834 0
M  V30 5281 H 497.205 2.03702 0.263552 0
M  V30 5282 H 495.435 2.75273 2.71591 0
M  V30 5283 H 497.124 3.14422 2.56697 0
M  V30 5284 H 497.89 4.79722 0.713582 0
M  V30 5285 H 493.769 4.24129 1.80653 0
M  V30 5286 H 497.313 6.96915 -0.30917 0
M  V30 5287 H 493.21 6.4065 0.789828 0
M  V30 5288 H 493.978 8.17989 -0.289145 0
M  V30 5289 N 496.642 -0.504142 1.49319 0
M  V30 5290 C 497.889 -1.25846 1.58647 0
M  V30 5291 C 498.217 -1.92592 0.27177 0
M  V30 5292 O 497.472 -1.81167 -0.74007 0
M  V30 5293 C 497.771 -2.35021 2.69258 0
M  V30 5294 C 497.437 -1.85755 4.1086 0
M  V30 5295 C 496.099 -1.72038 4.49395 0
M  V30 5296 C 498.451 -1.48844 4.99495 0
M  V30 5297 C 495.779 -1.19783 5.74342 0
M  V30 5298 C 498.131 -0.980422 6.24956 0
M  V30 5299 C 496.795 -0.829622 6.62324 0
M  V30 5300 H 496.065 -0.460505 0.580531 0
M  V30 5301 H 498.712 -0.559716 1.83138 0
M  V30 5302 H 497.017 -3.10672 2.38726 0
M  V30 5303 H 498.714 -2.93083 2.73685 0
M  V30 5304 H 495.304 -1.9739 3.80441 0
M  V30 5305 H 499.488 -1.5829 4.70381 0
M  V30 5306 H 494.744 -1.06817 6.01997 0
M  V30 5307 H 498.918 -0.685608 6.93017 0
M  V30 5308 H 496.545 -0.42253 7.59025 0
M  V30 5309 N 498.12 -1.38341 -0.754957 0
M  V30 5310 C 499.366 -1.34672 -1.51628 0
M  V30 5311 C 499.699 0.0636036 -1.94096 0
M  V30 5312 O 498.974 1.0245 -1.6533 0
M  V30 5313 C 499.257 -2.30116 -2.76981 0
M  V30 5314 C 499.11 -3.80003 -2.4066 0
M  V30 5315 C 500.429 -2.23715 -3.78998 0
M  V30 5316 H 497.548 -0.490517 -0.550056 0
M  V30 5317 H 500.19 -1.69178 -0.864807 0
M  V30 5318 H 498.34 -2.00821 -3.3257 0
M  V30 5319 H 500.012 -4.19966 -1.90856 0
M  V30 5320 H 498.255 -3.97751 -1.73137 0
M  V30 5321 H 498.926 -4.42244 -3.30339 0
M  V30 5322 H 501.402 -2.49574 -3.32945 0
M  V30 5323 H 500.278 -2.9261 -4.64403 0
M  V30 5324 H 500.539 -1.23554 -4.24484 0
M  V30 5325 N 499.598 0.982988 -1.23187 0
M  V30 5326 C 500.844 1.72648 -1.06398 0
M  V30 5327 C 501.177 1.90066 0.398561 0
M  V30 5328 O 500.452 1.45105 1.29518 0
M  V30 5329 C 500.735 3.12627 -1.78707 0
M  V30 5330 C 500.588 3.02795 -3.32618 0
M  V30 5331 C 501.907 4.11997 -1.54747 0
M  V30 5332 H 499.026 0.626649 -0.387918 0
M  V30 5333 H 501.668 1.14455 -1.51658 0
M  V30 5334 H 499.818 3.62308 -1.40234 0
M  V30 5335 H 501.49 2.60659 -3.80598 0
M  V30 5336 H 499.733 2.39362 -3.61785 0
M  V30 5337 H 500.404 4.01893 -3.78399 0
M  V30 5338 H 502.88 3.71114 -1.88186 0
M  V30 5339 H 501.756 5.08037 -2.07821 0
M  V30 5340 H 502.017 4.39462 -0.482249 0
M  V30 5341 N 501.076 1.04316 1.18135 0
M  V30 5342 C 502.304 0.768117 1.92113 0
M  V30 5343 C 502.719 -0.675057 1.76319 0
M  V30 5344 O 502.076 -1.46038 1.09449 0
M  V30 5345 C 502.127 1.12808 3.43448 0
M  V30 5346 O 501.848 2.5146 3.58747 0
M  V30 5347 C 503.349 0.8779 4.3452 0
M  V30 5348 H 500.569 0.279937 0.609817 0
M  V30 5349 H 503.113 1.39149 1.49859 0
M  V30 5350 H 501.268 0.549623 3.83481 0
M  V30 5351 H 501.682 2.65313 4.52448 0
M  V30 5352 H 503.156 1.17959 5.39249 0
M  V30 5353 H 503.633 -0.187239 4.38801 0
M  V30 5354 H 504.239 1.43977 4.00188 0
M  V30 5355 N 502.554 -1.34406 0.822964 0
M  V30 5356 C 503.97 -1.51275 0.508727 0
M  V30 5357 C 504.17 -1.76776 -0.967083 0
M  V30 5358 O 503.226 -1.81871 -1.75155 0
M  V30 5359 C 504.539 -2.67765 1.36829 0
M  V30 5360 C 506.087 -2.81647 1.36542 0
M  V30 5361 C 506.562 -4.01181 2.20947 0
M  V30 5362 N 508.053 -4.08388 2.18571 0
M  V30 5363 C 508.788 -5.00036 2.80627 0
M  V30 5364 N 508.284 -5.96906 3.51674 0
M  V30 5365 N 510.077 -4.92908 2.70181 0
M  V30 5366 H 502.228 -1.16113 1.77852 0
M  V30 5367 H 504.491 -0.56947 0.757897 0
M  V30 5368 H 504.197 -2.55551 2.41633 0
M  V30 5369 H 504.071 -3.62779 1.03303 0
M  V30 5370 H 506.458 -2.93303 0.325163 0
M  V30 5371 H 506.539 -1.87443 1.74066 0
M  V30 5372 H 506.183 -3.90286 3.25022 0
M  V30 5373 H 506.113 -4.94599 1.80774 0
M  V30 5374 H 508.604 -3.39051 1.66891 0
M  V30 5375 H 508.917 -6.63468 3.96271 0
M  V30 5376 H 507.262 -5.9703 3.5578 0
M  V30 5377 H 510.453 -4.1619 2.14251 0
M  V30 5378 H 510.626 -5.64137 3.18831 0
M  V30 5379 N 504.032 -0.577932 -1.46621 0
M  V30 5380 C 504.979 0.158048 -2.30258 0
M  V30 5381 C 505.949 0.888669 -1.40328 0
M  V30 5382 O 507.134 0.880283 -1.6928 0
M  V30 5383 C 504.274 1.16884 -3.24703 0
M  V30 5384 C 503.387 0.442163 -4.29731 0
M  V30 5385 C 502.522 1.44007 -5.11308 0
M  V30 5386 C 501.561 0.69952 -6.0809 0
M  V30 5387 N 500.698 1.64525 -6.82551 0
M  V30 5388 H 505.538 -0.561242 -2.92667 0
M  V30 5389 H 503.075 -0.288591 -1.44241 0
M  V30 5390 H 505.033 1.7677 -3.779 0
M  V30 5391 H 503.663 1.85591 -2.64113 0
M  V30 5392 H 502.715 -0.271632 -3.79429 0
M  V30 5393 H 504.027 -0.136992 -4.98612 0
M  V30 5394 H 503.181 2.11186 -5.68758 0
M  V30 5395 H 501.92 2.05315 -4.42377 0
M  V30 5396 H 500.925 0.0139217 -5.49798 0
M  V30 5397 H 502.15 0.091894 -6.79038 0
M  V30 5398 H 500.096 2.24653 -6.16334 0
M  V30 5399 H 500.013 1.11878 -7.47676 0
M  V30 5400 H 501.281 2.30754 -7.44562 0
M  V30 5401 N 505.51 1.54411 -0.315457 0
M  V30 5402 C 506.458 2.25514 0.569771 0
M  V30 5403 C 507.452 1.2663 1.12522 0
M  V30 5404 O 508.658 1.44434 1.07419 0
M  V30 5405 H 505.033 0.724257 0.202376 0
M  V30 5406 H 507.004 2.98354 -0.0522895 0
M  V30 5407 C 505.753 3.02004 1.72305 0
M  V30 5408 H 505.076 3.77906 1.30488 0
M  V30 5409 H 506.516 3.55014 2.31821 0
M  V30 5410 C 504.975 2.09822 2.63583 0
M  V30 5411 O 505.505 1.67574 3.65078 0
M  V30 5412 N 503.711 1.75478 2.31637 0
M  V30 5413 H 503.258 2.10032 1.49145 0
M  V30 5414 H 503.216 1.14079 2.92973 0
M  V30 5415 N 506.988 0.0434614 1.5754 0
M  V30 5416 C 508.399 -0.493343 1.80064 0
M  V30 5417 C 508.75 -1.71388 0.955023 0
M  V30 5418 O 507.875 -2.15736 0.169434 0
M  V30 5419 C 508.47 -0.90179 3.26578 0
M  V30 5420 C 507.029 -1.38362 3.50047 0
M  V30 5421 C 506.176 -0.355129 2.75017 0
M  V30 5422 H 509.127 0.2694 1.56397 0
M  V30 5423 H 509.148 -1.76523 3.37075 0
M  V30 5424 H 508.66 -0.013271 3.88098 0
M  V30 5425 H 506.761 -2.29159 2.93798 0
M  V30 5426 H 506.874 -1.3811 4.58762 0
M  V30 5427 H 505.238 -0.826348 2.40922 0
M  V30 5428 H 506.021 0.525172 3.39259 0
M  V30 5429 N 508.466 -1.55915 -0.229846 0
M  V30 5430 C 509.713 -1.78542 -0.955452 0
M  V30 5431 C 510.041 -0.610785 -1.84661 0
M  V30 5432 O 509.296 0.405213 -1.91459 0
M  V30 5433 C 509.595 -3.06845 -1.8325 0
M  V30 5434 C 509.261 -4.37395 -1.09528 0
M  V30 5435 C 507.923 -4.72868 -0.891598 0
M  V30 5436 C 510.275 -5.18029 -0.574046 0
M  V30 5437 C 507.603 -5.86496 -0.154655 0
M  V30 5438 C 509.955 -6.32423 0.149513 0
M  V30 5439 C 508.619 -6.66504 0.364519 0
M  V30 5440 H 507.889 -0.653333 -0.349625 0
M  V30 5441 H 510.536 -1.90183 -0.224235 0
M  V30 5442 H 508.841 -2.90291 -2.63132 0
M  V30 5443 H 510.538 -3.21553 -2.39592 0
M  V30 5444 H 507.128 -4.09538 -1.26399 0
M  V30 5445 H 511.312 -4.91066 -0.718899 0
M  V30 5446 H 506.568 -6.11396 0.0222356 0
M  V30 5447 H 510.742 -6.94137 0.560947 0
M  V30 5448 H 508.369 -7.54397 0.937495 0
M  V30 5449 N 509.944 0.496216 -1.49584 0
M  V30 5450 C 511.169 1.27865 -1.63295 0
M  V30 5451 C 511.594 1.85592 -0.306156 0
M  V30 5452 O 510.952 1.66092 0.726851 0
M  V30 5453 C 511 2.38128 -2.7079 0
M  V30 5454 O 510.104 3.42108 -2.30296 0
M  V30 5455 H 509.445 0.377279 -0.546403 0
M  V30 5456 H 511.975 0.593497 -1.95803 0
M  V30 5457 H 511.985 2.8382 -2.93104 0
M  V30 5458 H 510.66 1.95479 -3.67098 0
M  V30 5459 H 509.237 3.02301 -2.18331 0
M  V30 5460 N 511.423 1.38739 0.74761 0
M  V30 5461 C 512.67 1.35274 1.50689 0
M  V30 5462 C 512.998 -0.0553359 1.94421 0
M  V30 5463 O 512.253 -1.03365 1.66175 0
M  V30 5464 C 512.552 2.25992 2.7688 0
M  V30 5465 C 512.218 3.73854 2.5208 0
M  V30 5466 C 510.88 4.14145 2.45025 0
M  V30 5467 C 513.232 4.67427 2.30568 0
M  V30 5468 C 510.56 5.4609 2.14483 0
M  V30 5469 C 512.912 5.99635 2.01545 0
M  V30 5470 C 511.576 6.39004 1.92951 0
M  V30 5471 H 510.846 0.495003 0.55141 0
M  V30 5472 H 513.493 1.71145 0.859158 0
M  V30 5473 H 511.798 1.83196 3.46333 0
M  V30 5474 H 513.495 2.20611 3.34861 0
M  V30 5475 H 510.085 3.41913 2.58444 0
M  V30 5476 H 514.269 4.3714 2.34994 0
M  V30 5477 H 509.525 5.75528 2.06342 0
M  V30 5478 H 513.699 6.71678 1.83906 0
M  V30 5479 H 511.326 7.41165 1.6905 0
M  V30 5480 N 512.901 -0.976442 1.23707 0
M  V30 5481 C 514.148 -1.71827 1.07153 0
M  V30 5482 C 514.476 -1.9053 -0.390982 0
M  V30 5483 O 513.731 -1.45779 -1.30564 0
M  V30 5484 C 514.03 -3.11814 1.74662 0
M  V30 5485 C 513.696 -3.12978 3.24585 0
M  V30 5486 C 512.358 -3.13003 3.6549 0
M  V30 5487 C 514.71 -3.07986 4.20469 0
M  V30 5488 C 512.038 -3.05757 5.00729 0
M  V30 5489 C 514.39 -3.02282 5.55705 0
M  V30 5490 C 513.054 -3.00631 5.95968 0
M  V30 5491 H 512.324 -0.628758 0.392102 0
M  V30 5492 H 514.971 -1.14239 1.53693 0
M  V30 5493 H 513.276 -3.72812 1.20492 0
M  V30 5494 H 514.973 -3.67989 1.59328 0
M  V30 5495 H 511.563 -3.13718 2.92026 0
M  V30 5496 H 515.747 -3.07103 3.89874 0
M  V30 5497 H 511.003 -3.02834 5.31132 0
M  V30 5498 H 515.177 -2.97376 6.29714 0
M  V30 5499 H 512.804 -2.94771 7.00724 0
M  V30 5500 N 514.379 -1.04941 -1.1758 0
M  V30 5501 C 515.342 -0.652456 -2.19717 0
M  V30 5502 C 516.342 0.294745 -1.58076 0
M  V30 5503 O 517.532 0.0789579 -1.74021 0
M  V30 5504 C 514.664 0.0420712 -3.40874 0
M  V30 5505 H 515.857 -1.55642 -2.5635 0
M  V30 5506 H 513.41 -0.842995 -1.31618 0
M  V30 5507 H 514.145 0.95943 -3.09783 0
M  V30 5508 H 513.93 -0.638844 -3.86861 0
M  V30 5509 H 515.42 0.306 -4.16477 0
M  V30 5510 N 515.857 1.33968 -0.830081 0
M  V30 5511 C 517.105 1.97672 -0.420734 0
M  V30 5512 C 517.426 1.66111 1.02138 0
M  V30 5513 O 516.696 0.955503 1.71017 0
M  V30 5514 H 515.276 0.73125 -0.152587 0
M  V30 5515 H 517.938 1.63483 -1.0611 0
M  V30 5516 H 517.034 3.07294 -0.545588 0
M  V30 5517 N 517.335 0.585699 1.46312 0
M  V30 5518 C 518.584 0.0701192 2.01578 0
M  V30 5519 C 518.897 -1.29889 1.46247 0
M  V30 5520 O 520.103 -1.90598 1.93351 0
M  V30 5521 C 518.559 0.0747499 3.59822 0
M  V30 5522 C 518.167 1.44226 4.24149 0
M  V30 5523 C 519.911 -0.38673 4.22735 0
M  V30 5524 C 517.818 1.40446 5.74481 0
M  V30 5525 H 516.748 0.0224441 0.753666 0
M  V30 5526 H 519.399 0.737789 1.68015 0
M  V30 5527 H 517.781 -0.659144 3.90476 0
M  V30 5528 H 518.955 2.19612 4.05101 0
M  V30 5529 H 517.27 1.84401 3.73343 0
M  V30 5530 H 519.867 -0.433853 5.32937 0
M  V30 5531 H 520.21 -1.40489 3.91878 0
M  V30 5532 H 520.743 0.293195 3.96718 0
M  V30 5533 H 517.482 2.39952 6.10003 0
M  V30 5534 H 517.002 0.692845 5.95785 0
M  V30 5535 H 518.681 1.11865 6.37256 0
M  V30 5536 N 518.813 -1.54241 0.323641 0
M  V30 5537 C 520.06 -2.0057 -0.27891 0
M  V30 5538 C 520.388 -1.21181 -1.52136 0
M  V30 5539 O 519.643 -0.282043 -1.93657 0
M  V30 5540 C 519.942 -3.5129 -0.658031 0
M  V30 5541 C 519.608 -4.48281 0.485252 0
M  V30 5542 C 518.27 -4.74519 0.799055 0
M  V30 5543 C 520.622 -5.05909 1.25322 0
M  V30 5544 C 517.95 -5.55643 1.88354 0
M  V30 5545 C 520.302 -5.88215 2.32779 0
M  V30 5546 C 518.966 -6.12755 2.64741 0
M  V30 5547 H 518.236 -0.733938 -0.10206 0
M  V30 5548 H 520.883 -1.862 0.447435 0
M  V30 5549 H 519.188 -3.63388 -1.4648 0
M  V30 5550 H 520.885 -3.84578 -1.1358 0
M  V30 5551 H 517.475 -4.27979 0.230593 0
M  V30 5552 H 521.659 -4.8562 1.02404 0
M  V30 5553 H 516.915 -5.72888 2.13564 0
M  V30 5554 H 521.089 -6.31888 2.92729 0
M  V30 5555 H 518.716 -6.75404 3.48904 0
M  V30 5556 N 520.291 -0.0518155 -1.57515 0
M  V30 5557 C 521.223 0.951542 -2.08515 0
M  V30 5558 C 522.236 1.27436 -1.01311 0
M  V30 5559 O 523.425 1.23504 -1.28876 0
M  V30 5560 C 520.525 2.27291 -2.5138 0
M  V30 5561 C 519.698 2.13191 -3.81927 0
M  V30 5562 C 518.757 3.28458 -4.11098 0
M  V30 5563 O 517.783 3.04334 -4.81009 0
M  V30 5564 N 518.985 4.52954 -3.63061 0
M  V30 5565 H 521.75 0.516242 -2.9522 0
M  V30 5566 H 519.311 0.13441 -1.61341 0
M  V30 5567 H 521.303 3.03272 -2.67971 0
M  V30 5568 H 519.873 2.62386 -1.69919 0
M  V30 5569 H 519.093 1.21798 -3.74912 0
M  V30 5570 H 520.381 2.00999 -4.67415 0
M  V30 5571 H 519.779 4.75444 -3.06545 0
M  V30 5572 H 518.336 5.26026 -3.84889 0
M  V30 5573 N 521.769 1.56035 0.221574 0
M  V30 5574 C 522.732 1.91584 1.2581 0
M  V30 5575 C 523.732 0.794425 1.39805 0
M  V30 5576 O 524.922 1.06217 1.38071 0
M  V30 5577 C 522.054 2.16663 2.63192 0
M  V30 5578 H 523.247 2.8429 0.954935 0
M  V30 5579 H 520.8 1.49316 0.461988 0
M  V30 5580 H 521.535 1.26508 2.98607 0
M  V30 5581 H 521.32 2.98358 2.5441 0
M  V30 5582 H 522.81 2.45262 3.37988 0
M  V30 5583 N 523.247 -0.488276 1.49845 0
M  V30 5584 C 524.493 -1.24065 1.61182 0
M  V30 5585 C 524.848 -1.9004 0.300435 0
M  V30 5586 O 524.141 -1.78341 -0.700365 0
M  V30 5587 C 524.335 -2.32152 2.71735 0
M  V30 5588 C 524.164 -1.76778 4.13497 0
M  V30 5589 C 522.934 -1.57513 4.80123 0
M  V30 5590 C 525.132 -1.27242 4.98311 0
M  V30 5591 N 523.114 -0.972015 6.06156 0
M  V30 5592 C 524.485 -0.791457 6.14928 0
M  V30 5593 C 526.54 -1.15934 4.84214 0
M  V30 5594 C 525.243 -0.208593 7.18997 0
M  V30 5595 C 527.269 -0.590436 5.88445 0
M  V30 5596 C 526.631 -0.119767 7.04298 0
M  V30 5597 H 522.73 -0.443487 0.644083 0
M  V30 5598 H 525.314 -0.545551 1.86901 0
M  V30 5599 H 523.485 -2.99108 2.47768 0
M  V30 5600 H 525.217 -2.99187 2.72523 0
M  V30 5601 H 521.972 -1.82247 4.37131 0
M  V30 5602 H 522.396 -0.689367 6.73481 0
M  V30 5603 H 527.038 -1.5092 3.94947 0
M  V30 5604 H 524.756 0.153501 8.07954 0
M  V30 5605 H 528.342 -0.505548 5.79599 0
M  V30 5606 H 527.222 0.313568 7.83573 0
M  V30 5607 N 524.725 -1.39134 -0.740242 0
M  V30 5608 C 525.974 -1.35384 -1.49512 0
M  V30 5609 C 526.287 0.04919 -1.95538 0
M  V30 5610 O 527.493 0.209257 -2.70692 0
M  V30 5611 C 525.949 -2.37812 -2.70136 0
M  V30 5612 C 525.557 -3.83804 -2.31081 0
M  V30 5613 C 527.301 -2.4313 -3.47977 0
M  V30 5614 C 525.208 -4.77886 -3.48395 0
M  V30 5615 H 524.138 -0.503297 -0.561434 0
M  V30 5616 H 526.789 -1.64754 -0.807974 0
M  V30 5617 H 525.171 -2.01505 -3.40899 0
M  V30 5618 H 526.345 -4.29123 -1.67898 0
M  V30 5619 H 524.66 -3.81732 -1.66343 0
M  V30 5620 H 527.257 -3.10614 -4.35228 0
M  V30 5621 H 527.6 -1.45423 -3.90074 0
M  V30 5622 H 528.133 -2.78304 -2.84239 0
M  V30 5623 H 524.872 -5.76836 -3.11353 0
M  V30 5624 H 524.392 -4.3725 -4.10576 0
M  V30 5625 H 526.071 -4.96538 -4.148 0
M  V30 5626 N 526.204 0.969867 -1.24223 0
M  V30 5627 C 527.432 1.74756 -1.10761 0
M  V30 5628 C 527.847 1.85713 0.340041 0
M  V30 5629 O 527.204 1.34389 1.23474 0
M  V30 5630 C 527.255 3.16915 -1.73917 0
M  V30 5631 O 526.976 3.06511 -3.13021 0
M  V30 5632 C 528.477 4.11032 -1.66036 0
M  V30 5633 H 525.697 0.548092 -0.387087 0
M  V30 5634 H 528.241 1.2178 -1.64286 0
M  V30 5635 H 526.396 3.66884 -1.244 0
M  V30 5636 H 526.81 3.96079 -3.43834 0
M  V30 5637 H 528.284 5.08446 -2.14911 0
M  V30 5638 H 528.761 4.34785 -0.621159 0
M  V30 5639 H 529.367 3.66972 -2.14969 0
M  V30 5640 N 527.682 1.05563 1.17022 0
M  V30 5641 C 528.645 0.664098 2.19368 0
M  V30 5642 C 529.645 -0.286358 1.5823 0
M  V30 5643 O 530.835 -0.069728 1.7406 0
M  V30 5644 C 527.967 -0.0239932 3.40892 0
M  V30 5645 H 529.16 1.57 2.55521 0
M  V30 5646 H 526.713 0.849964 1.31169 0
M  V30 5647 H 527.448 -0.942988 3.10287 0
M  V30 5648 H 527.233 0.659351 3.86516 0
M  V30 5649 H 528.723 -0.283909 4.16634 0
M  V30 5650 N 529.16 -1.33526 0.837174 0
M  V30 5651 C 530.09 -2.31764 0.284206 0
M  V30 5652 C 531.071 -1.58896 -0.607142 0
M  V30 5653 O 532.256 -1.86798 -0.531047 0
M  V30 5654 C 529.386 -3.43029 -0.542962 0
M  V30 5655 C 528.34 -4.27255 0.252451 0
M  V30 5656 C 527.666 -5.3012 -0.69836 0
M  V30 5657 C 528.966 -5.01229 1.46858 0
M  V30 5658 H 530.66 -2.78262 1.10502 0
M  V30 5659 H 528.206 -1.3378 0.532812 0
M  V30 5660 H 530.159 -4.1078 -0.940096 0
M  V30 5661 H 528.883 -2.95216 -1.39697 0
M  V30 5662 H 527.542 -3.61127 0.631124 0
M  V30 5663 H 527.19 -4.78564 -1.54872 0
M  V30 5664 H 526.89 -5.87353 -0.170274 0
M  V30 5665 H 528.414 -6.00737 -1.09305 0
M  V30 5666 H 529.828 -5.61756 1.14469 0
M  V30 5667 H 528.225 -5.68104 1.93333 0
M  V30 5668 H 529.295 -4.301 2.23924 0
M  V30 5669 N 530.638 -0.59345 -1.46 0
M  V30 5670 C 531.886 -0.082988 -2.0193 0
M  V30 5671 C 532.207 1.28569 -1.46612 0
M  V30 5672 O 531.477 1.84629 -0.654909 0
M  V30 5673 H 530.057 -0.0276882 -0.746487 0
M  V30 5674 H 532.719 -0.771657 -1.78973 0
M  V30 5675 H 531.815 -0.022079 -3.12092 0
M  V30 5676 N 532.116 1.54067 -0.331816 0
M  V30 5677 C 533.344 2.05131 0.269996 0
M  V30 5678 C 533.759 1.20749 1.45138 0
M  V30 5679 O 533.116 0.240069 1.80914 0
M  V30 5680 C 533.167 3.54728 0.696456 0
M  V30 5681 O 532.888 4.35906 -0.43794 0
M  V30 5682 C 534.389 4.21916 1.36021 0
M  V30 5683 H 531.609 0.668807 0.0542042 0
M  V30 5684 H 534.153 1.98777 -0.4804 0
M  V30 5685 H 532.308 3.61342 1.39681 0
M  V30 5686 H 532.722 5.24404 -0.100334 0
M  V30 5687 H 534.196 5.28015 1.60947 0
M  V30 5688 H 534.673 3.73538 2.31011 0
M  V30 5689 H 535.279 4.19463 0.702212 0
M  V30 5690 N 533.594 0.0601682 1.57485 0
M  V30 5691 C 534.557 -0.896373 2.10945 0
M  V30 5692 C 535.557 -1.23402 1.03095 0
M  V30 5693 O 536.747 -1.16921 1.29132 0
M  V30 5694 C 533.879 -2.20346 2.60116 0
M  V30 5695 H 535.072 -0.432778 2.96761 0
M  V30 5696 H 532.625 -0.188372 1.55161 0
M  V30 5697 H 533.36 -2.71268 1.7772 0
M  V30 5698 H 533.145 -1.9714 3.38937 0
M  V30 5699 H 534.635 -2.88846 3.01592 0
M  V30 5700 N 535.072 -1.5615 -0.213296 0
M  V30 5701 C 536.297 -1.83986 -0.957282 0
M  V30 5702 C 536.722 -0.641526 -1.76822 0
M  V30 5703 O 536.08 0.409722 -1.7661 0
M  V30 5704 C 536.128 -3.09889 -1.84393 0
M  V30 5705 O 535.232 -2.89163 -2.94038 0
M  V30 5706 H 534.573 -0.606357 -0.270605 0
M  V30 5707 H 537.103 -2.03369 -0.224111 0
M  V30 5708 H 537.113 -3.40209 -2.25215 0
M  V30 5709 H 535.788 -3.96735 -1.24795 0
M  V30 5710 H 534.365 -2.70097 -2.57103 0
M  V30 5711 N 536.55 0.480323 -1.50102 0
M  V30 5712 C 537.775 1.26126 -1.64642 0
M  V30 5713 C 538.2 1.85257 -0.325823 0
M  V30 5714 O 537.558 1.66854 0.709194 0
M  V30 5715 C 537.606 2.35243 -2.73301 0
M  V30 5716 O 536.71 3.39646 -2.33911 0
M  V30 5717 H 536.051 0.371463 -0.550374 0
M  V30 5718 H 538.581 0.572696 -1.96421 0
M  V30 5719 H 538.591 2.80695 -2.96098 0
M  V30 5720 H 537.266 1.91574 -3.6915 0
M  V30 5721 H 535.843 2.99969 -2.21525 0
M  V30 5722 N 538.028 1.39524 0.732853 0
M  V30 5723 C 538.991 1.38189 1.82857 0
M  V30 5724 C 539.991 0.278624 1.58368 0
M  V30 5725 O 541.181 0.536639 1.65728 0
M  V30 5726 C 538.313 1.15661 3.2068 0
M  V30 5727 H 539.506 2.35692 1.85444 0
M  V30 5728 H 537.059 1.2512 0.936728 0
M  V30 5729 H 537.794 0.188482 3.23752 0
M  V30 5730 H 537.579 1.95559 3.39852 0
M  V30 5731 H 539.069 1.17472 4.00737 0
M  V30 5732 N 539.506 -0.963266 1.24736 0
M  V30 5733 C 540.754 -1.70343 1.08755 0
M  V30 5734 C 541.075 -1.91387 -0.373619 0
M  V30 5735 O 540.345 -1.4948 -1.2662 0
M  V30 5736 H 538.925 -0.631224 0.399456 0
M  V30 5737 H 541.587 -1.15859 1.56725 0
M  V30 5738 H 540.683 -2.68616 1.58909 0
M  V30 5739 N 540.985 -1.06182 -1.16461 0
M  V30 5740 C 542.213 -0.798583 -1.90867 0
M  V30 5741 C 542.628 0.646921 -1.77371 0
M  V30 5742 O 541.985 1.44279 -1.11758 0
M  V30 5743 C 542.036 -1.18258 -3.4161 0
M  V30 5744 O 541.757 -2.57135 -3.54701 0
M  V30 5745 C 543.258 -0.946917 -4.33069 0
M  V30 5746 H 540.478 -0.289603 -0.605286 0
M  V30 5747 H 543.022 -1.41515 -1.47627 0
M  V30 5748 H 541.177 -0.610562 -3.82558 0
M  V30 5749 H 541.591 -2.72477 -4.4817 0
M  V30 5750 H 543.065 -1.26523 -5.37304 0
M  V30 5751 H 543.542 0.117406 -4.39043 0
M  V30 5752 H 544.148 -1.50326 -3.97847 0
M  V30 5753 N 542.463 1.3308 -0.844243 0
M  V30 5754 C 543.393 2.3161 -0.296493 0
M  V30 5755 C 544.374 1.59215 0.598707 0
M  V30 5756 O 545.559 1.87077 0.521134 0
M  V30 5757 C 542.689 3.43313 0.524762 0
M  V30 5758 C 541.643 4.27115 -0.275106 0
M  V30 5759 C 540.969 5.30483 0.670236 0
M  V30 5760 C 542.269 5.00443 -1.49514 0
M  V30 5761 H 543.963 2.77672 -1.11976 0
M  V30 5762 H 541.509 1.33496 -0.539899 0
M  V30 5763 H 543.462 4.11273 0.918298 0
M  V30 5764 H 542.186 2.95952 1.3813 0
M  V30 5765 H 540.845 3.60787 -0.650267 0
M  V30 5766 H 540.493 4.79379 1.52332 0
M  V30 5767 H 540.193 5.87435 0.139123 0
M  V30 5768 H 541.717 6.01308 1.06117 0
M  V30 5769 H 543.131 5.61141 -1.17447 0
M  V30 5770 H 541.528 5.67071 -1.96343 0
M  V30 5771 H 542.598 4.28906 -2.26202 0
M  V30 5772 N 543.941 0.601185 1.45683 0
M  V30 5773 C 545.352 0.179659 1.85834 0
M  V30 5774 C 545.703 -1.26189 1.50236 0
M  V30 5775 O 544.828 -1.95587 0.925987 0
M  V30 5776 C 545.423 0.319277 3.37292 0
M  V30 5777 C 543.982 -0.0475092 3.7637 0
M  V30 5778 C 543.129 0.646692 2.69654 0
M  V30 5779 H 546.08 0.808268 1.36575 0
M  V30 5780 H 546.101 -0.4503 3.77826 0
M  V30 5781 H 545.613 1.36855 3.6317 0
M  V30 5782 H 543.714 -1.0962 3.5611 0
M  V30 5783 H 543.827 0.34168 4.7788 0
M  V30 5784 H 542.191 0.0849971 2.54558 0
M  V30 5785 H 542.974 1.69797 2.98369 0
M  V30 5786 N 545.419 -1.53889 0.339982 0
M  V30 5787 C 546.665 -2.01152 -0.258003 0
M  V30 5788 C 546.998 -1.22749 -1.50487 0
M  V30 5789 O 546.273 -0.314156 -1.91946 0
M  V30 5790 C 546.556 -3.55468 -0.575717 0
M  V30 5791 C 546.409 -4.44584 0.682996 0
M  V30 5792 C 547.728 -4.1768 -1.38677 0
M  V30 5793 H 544.847 -0.731198 -0.0922992 0
M  V30 5794 H 547.489 -1.84352 0.459814 0
M  V30 5795 H 545.639 -3.69914 -1.18725 0
M  V30 5796 H 547.311 -4.41981 1.32102 0
M  V30 5797 H 545.554 -4.13592 1.3086 0
M  V30 5798 H 546.225 -5.5043 0.416001 0
M  V30 5799 H 548.701 -4.0691 -0.869705 0
M  V30 5800 H 547.577 -5.25734 -1.57783 0
M  V30 5801 H 547.838 -3.72069 -2.38782 0
M  V30 5802 N 546.897 -0.0685191 -1.57451 0
M  V30 5803 C 548.125 0.610462 -1.97689 0
M  V30 5804 C 548.54 1.63346 -0.946758 0
M  V30 5805 O 547.897 1.82377 0.0669868 0
M  V30 5806 C 547.948 1.28196 -3.38006 0
M  V30 5807 O 547.669 0.299906 -4.37072 0
M  V30 5808 C 549.17 2.04907 -3.931 0
M  V30 5809 H 546.39 0.165689 -0.650222 0
M  V30 5810 H 548.934 -0.139953 -2.04021 0
M  V30 5811 H 547.089 1.98348 -3.32771 0
M  V30 5812 H 547.503 0.78126 -5.18649 0
M  V30 5813 H 548.977 2.47287 -4.93511 0
M  V30 5814 H 549.454 2.9043 -3.29465 0
M  V30 5815 H 550.06 1.39629 -4.01726 0
M  V30 5816 N 548.375 1.56261 0.205012 0
M  V30 5817 C 549.622 1.8004 0.926927 0
M  V30 5818 C 549.95 0.640086 1.83666 0
M  V30 5819 O 549.205 -0.374702 1.92079 0
M  V30 5820 C 549.504 3.09722 1.78345 0
M  V30 5821 C 549.17 4.39082 1.02555 0
M  V30 5822 C 547.832 4.74226 0.816256 0
M  V30 5823 C 550.184 5.18877 0.491559 0
M  V30 5824 C 547.512 5.86668 0.0613287 0
M  V30 5825 C 549.864 6.32105 -0.250107 0
M  V30 5826 C 548.528 6.6584 -0.470508 0
M  V30 5827 H 547.798 0.658812 0.339187 0
M  V30 5828 H 550.445 1.90515 0.19395 0
M  V30 5829 H 548.75 2.9444 2.5848 0
M  V30 5830 H 550.447 3.25324 2.34446 0
M  V30 5831 H 547.037 4.11497 1.19868 0
M  V30 5832 H 551.221 4.92147 0.640684 0
M  V30 5833 H 546.477 6.11283 -0.119501 0
M  V30 5834 H 550.651 6.93157 -0.671307 0
M  V30 5835 H 548.278 7.5281 -1.05739 0
M  V30 5836 N 549.853 -0.472356 1.50355 0
M  V30 5837 C 551.269 -0.806001 1.37753 0
M  V30 5838 C 551.469 -1.968 0.432649 0
M  V30 5839 O 550.525 -2.52189 -0.12519 0
M  V30 5840 C 551.838 -1.11926 2.79093 0
M  V30 5841 C 553.386 -1.22579 2.87999 0
M  V30 5842 C 553.861 -1.57218 4.3017 0
M  V30 5843 N 555.352 -1.64212 4.33115 0
M  V30 5844 C 556.087 -1.92517 5.40116 0
M  V30 5845 N 555.583 -2.1885 6.57325 0
M  V30 5846 N 557.376 -1.94008 5.27558 0
M  V30 5847 H 549.527 0.293451 2.10363 0
M  V30 5848 H 551.79 0.0687672 0.945503 0
M  V30 5849 H 551.496 -0.338504 3.50067 0
M  V30 5850 H 551.37 -2.05577 3.16256 0
M  V30 5851 H 553.757 -1.99722 2.17245 0
M  V30 5852 H 553.838 -0.269107 2.54381 0
M  V30 5853 H 553.482 -0.806154 5.01461 0
M  V30 5854 H 553.412 -2.54034 4.61275 0
M  V30 5855 H 555.903 -1.45906 3.48597 0
M  V30 5856 H 556.216 -2.39718 7.3468 0
M  V30 5857 H 554.561 -2.16245 6.60502 0
M  V30 5858 H 557.752 -1.72931 4.34986 0
M  V30 5859 H 557.925 -2.15731 6.11035 0
M  V30 5860 N 551.331 -1.39911 -0.725443 0
M  V30 5861 C 552.571 -1.39096 -1.49772 0
M  V30 5862 C 552.935 0.0106452 -1.91997 0
M  V30 5863 O 554.136 0.143859 -2.68415 0
M  V30 5864 C 552.407 -2.34441 -2.69764 0
M  V30 5865 S 553.966 -2.51898 -3.59295 0
M  V30 5866 H 550.784 -0.49314 -0.512186 0
M  V30 5867 H 553.386 -1.76093 -0.849197 0
M  V30 5868 H 552.09 -3.35123 -2.36898 0
M  V30 5869 H 551.621 -1.98692 -3.39537 0
M  V30 5870 H 553.636 -1.76402 -4.63785 0
M  V30 5871 N 552.809 0.956637 -1.25245 0
M  V30 5872 C 553.739 2.07058 -1.07931 0
M  V30 5873 C 554.72 1.70096 0.0110361 0
M  V30 5874 O 555.905 1.93555 -0.158121 0
M  V30 5875 C 553.035 3.40272 -0.695124 0
M  V30 5876 C 551.989 3.91235 -1.73549 0
M  V30 5877 C 551.315 5.20921 -1.20604 0
M  V30 5878 C 552.615 4.17837 -3.13385 0
M  V30 5879 H 554.309 2.218 -2.01109 0
M  V30 5880 H 551.855 1.06581 -0.968326 0
M  V30 5881 H 553.808 4.1765 -0.560949 0
M  V30 5882 H 552.532 3.25462 0.272355 0
M  V30 5883 H 551.191 3.16025 -1.85807 0
M  V30 5884 H 550.839 5.02479 -0.228846 0
M  V30 5885 H 550.539 5.55987 -1.90136 0
M  V30 5886 H 552.063 6.00897 -1.08421 0
M  V30 5887 H 553.477 4.8588 -3.04292 0
M  V30 5888 H 551.874 4.64154 -3.80369 0
M  V30 5889 H 552.944 3.2419 -3.60595 0
M  V30 5890 N 554.287 1.06798 1.15896 0
M  V30 5891 C 555.197 0.694564 2.24083 0
M  V30 5892 C 556.213 -0.291687 1.71538 0
M  V30 5893 O 557.389 -0.139723 2.00915 0
M  V30 5894 C 554.454 0.0921014 3.46578 0
M  V30 5895 C 553.515 1.13087 4.14137 0
M  V30 5896 C 552.748 0.557064 5.30785 0
M  V30 5897 O 552.971 -0.628623 5.66925 0
M  V30 5898 O 551.905 1.29924 5.8771 0
M  V30 5899 H 555.731 1.59663 2.58344 0
M  V30 5900 H 553.316 0.840575 1.2351 0
M  V30 5901 H 555.198 -0.241884 4.20705 0
M  V30 5902 H 553.873 -0.78337 3.14078 0
M  V30 5903 H 552.78 1.51712 3.41957 0
M  V30 5904 H 554.113 1.97805 4.50704 0
M  V30 5905 N 555.766 -1.3263 0.851289 0
M  V30 5906 C 556.676 -2.32722 0.296268 0
M  V30 5907 C 557.692 -1.63901 -0.584162 0
M  V30 5908 O 558.868 -1.95465 -0.485334 0
M  V30 5909 C 555.933 -3.42942 -0.509103 0
M  V30 5910 C 554.994 -4.2746 0.397069 0
M  V30 5911 C 554.227 -5.32416 -0.36996 0
M  V30 5912 O 554.45 -5.47491 -1.6003 0
M  V30 5913 O 553.384 -6.01327 0.262493 0
M  V30 5914 H 557.21 -2.82078 1.12543 0
M  V30 5915 H 554.795 -1.36194 0.614135 0
M  V30 5916 H 556.677 -4.1017 -0.96634 0
M  V30 5917 H 555.352 -2.95781 -1.31512 0
M  V30 5918 H 554.259 -3.63053 0.902411 0
M  V30 5919 H 555.592 -4.78136 1.16818 0
M  V30 5920 N 557.244 -0.608902 -1.45362 0
M  V30 5921 C 558.192 0.121639 -2.32282 0
M  V30 5922 C 559.186 0.858301 -1.46046 0
M  V30 5923 O 560.392 0.773718 -1.62523 0
M  V30 5924 H 556.767 0.058086 -0.749753 0
M  V30 5925 H 558.738 -0.629866 -2.91677 0
M  V30 5926 C 557.487 1.1047 -3.29684 0
M  V30 5927 H 556.81 0.547278 -3.96036 0
M  V30 5928 H 558.25 1.58576 -3.9323 0
M  V30 5929 C 556.709 2.17891 -2.56954 0
M  V30 5930 O 557.239 3.25652 -2.35189 0
M  V30 5931 N 555.445 1.93211 -2.17066 0
M  V30 5932 H 554.992 1.05584 -2.34967 0
M  V30 5933 H 554.95 2.6529 -1.68727 0
M  V30 5934 N 558.722 1.53707 -0.348139 0
M  V30 5935 C 559.652 2.28111 0.498766 0
M  V30 5936 C 560.633 1.29851 1.09876 0
M  V30 5937 O 561.818 1.587 1.11928 0
M  V30 5938 C 558.948 3.05735 1.64753 0
M  V30 5939 C 557.902 4.11537 1.17565 0
M  V30 5940 C 557.228 4.77142 2.4133 0
M  V30 5941 C 558.528 5.21587 0.272844 0
M  V30 5942 H 560.222 2.99152 -0.121934 0
M  V30 5943 H 557.768 1.43875 -0.0600842 0
M  V30 5944 H 559.721 3.56526 2.24649 0
M  V30 5945 H 558.445 2.32354 2.2952 0
M  V30 5946 H 557.104 3.61665 0.599483 0
M  V30 5947 H 556.752 4.0035 3.04514 0
M  V30 5948 H 556.452 5.48626 2.10436 0
M  V30 5949 H 557.976 5.30719 3.01943 0
M  V30 5950 H 559.39 5.67986 0.778779 0
M  V30 5951 H 557.787 6.00074 0.0555849 0
M  V30 5952 H 558.857 4.79969 -0.689785 0
M  V30 5953 N 560.2 0.0768682 1.57412 0
M  V30 5954 C 561.448 -0.589918 1.93299 0
M  V30 5955 C 561.769 -1.69842 0.958049 0
M  V30 5956 O 561.039 -1.95899 0.00703261 0
M  V30 5957 H 559.619 -0.220901 0.713591 0
M  V30 5958 H 562.281 0.135917 1.94425 0
M  V30 5959 H 561.377 -1.01195 2.95239 0
M  V30 5960 N 561.678 -1.56367 -0.196722 0
M  V30 5961 C 562.927 -1.79724 -0.915539 0
M  V30 5962 C 563.24 -0.649804 -1.84491 0
M  V30 5963 O 564.446 -0.767631 -2.60422 0
M  V30 5964 C 562.902 -3.18369 -1.67836 0
M  V30 5965 C 562.51 -4.4091 -0.793897 0
M  V30 5966 C 564.254 -3.51037 -2.38691 0
M  V30 5967 C 562.161 -5.70577 -1.55549 0
M  V30 5968 H 561.091 -0.67013 -0.345604 0
M  V30 5969 H 563.742 -1.82721 -0.168856 0
M  V30 5970 H 562.124 -3.09617 -2.46887 0
M  V30 5971 H 563.298 -4.60781 -0.042163 0
M  V30 5972 H 561.613 -4.15937 -0.19626 0
M  V30 5973 H 564.21 -4.4515 -2.96219 0
M  V30 5974 H 564.553 -2.74704 -3.12799 0
M  V30 5975 H 565.086 -3.61229 -1.66608 0
M  V30 5976 H 561.825 -6.49871 -0.857226 0
M  V30 5977 H 561.345 -5.54726 -2.2812 0
M  V30 5978 H 563.024 -6.11637 -2.10971 0
M  V30 5979 N 563.156 0.464375 -1.50603 0
M  V30 5980 C 564.433 1.22549 -1.5245 0
M  V30 5981 C 564.813 2.09327 -0.273035 0
M  V30 5982 O 564.161 2.16074 0.743242 0
M  V30 5983 C 564.371 2.05074 -2.82393 0
M  V30 5984 C 565.719 2.63036 -3.33313 0
M  V30 5985 O 566.743 2.1531 -2.8376 0
M  V30 5986 O 565.602 3.5001 -4.19709 0
M  V30 5987 H 562.696 0.556471 -0.611775 0
M  V30 5988 H 565.242 0.475648 -1.62898 0
M  V30 5989 H 564.014 1.41169 -3.64948 0
M  V30 5990 H 563.637 2.87179 -2.7498 0
M  V30 5991 N 564.634 1.40294 0.718013 0
M  V30 5992 C 565.581 1.40367 1.8321 0
M  V30 5993 C 566.551 0.260952 1.64037 0
M  V30 5994 O 567.736 0.458648 1.85205 0
M  V30 5995 C 564.876 1.26965 3.20895 0
M  V30 5996 C 563.989 2.50922 3.51656 0
M  V30 5997 C 563.124 2.29981 4.78834 0
M  V30 5998 C 562.163 3.49527 5.02491 0
M  V30 5999 N 561.3 3.27796 6.20882 0
M  V30 6000 H 566.14 2.35593 1.82482 0
M  V30 6001 H 563.677 1.17012 0.891444 0
M  V30 6002 H 565.635 1.17202 4.00399 0
M  V30 6003 H 564.265 0.353591 3.20858 0
M  V30 6004 H 563.317 2.71223 2.66725 0
M  V30 6005 H 564.629 3.39913 3.65048 0
M  V30 6006 H 563.783 2.17558 5.66351 0
M  V30 6007 H 562.522 1.38411 4.67647 0
M  V30 6008 H 561.527 3.6243 4.1343 0
M  V30 6009 H 562.752 4.42021 5.15553 0
M  V30 6010 H 560.698 2.38906 6.1095 0
M  V30 6011 H 560.615 4.10351 6.34939 0
M  V30 6012 H 561.883 3.19101 7.11193 0
M  V30 6013 N 566.112 -0.949982 1.2575 0
M  V30 6014 C 567.528 -1.22191 1.02672 0
M  V30 6015 C 567.728 -1.99898 -0.253588 0
M  V30 6016 O 566.784 -2.33329 -0.965076 0
M  V30 6017 C 568.097 -1.99175 2.25277 0
M  V30 6018 C 569.645 -2.12201 2.30087 0
M  V30 6019 C 570.12 -2.92586 3.5236 0
M  V30 6020 N 571.611 -3.00163 3.52784 0
M  V30 6021 C 572.346 -3.62766 4.44059 0
M  V30 6022 N 571.842 -4.26943 5.45611 0
M  V30 6023 N 573.635 -3.59953 4.3173 0
M  V30 6024 H 565.786 -0.430258 2.07996 0
M  V30 6025 H 568.049 -0.252844 0.91366 0
M  V30 6026 H 567.755 -1.49479 3.18354 0
M  V30 6027 H 567.629 -2.99868 2.28821 0
M  V30 6028 H 570.016 -2.61093 1.3753 0
M  V30 6029 H 570.097 -1.10799 2.30559 0
M  V30 6030 H 569.741 -2.44383 4.45241 0
M  V30 6031 H 569.671 -3.94224 3.49134 0
M  V30 6032 H 572.162 -2.54529 2.79327 0
M  V30 6033 H 572.475 -4.72583 6.11461 0
M  V30 6034 H 570.82 -4.25557 5.49478 0
M  V30 6035 H 574.011 -3.09003 3.51617 0
M  V30 6036 H 574.184 -4.08455 5.03059 0
M  V30 6037 N 567.59 -1.07411 -1.15328 0
M  V30 6038 C 568.836 -0.798831 -1.86404 0
M  V30 6039 C 569.169 0.673433 -1.8215 0
M  V30 6040 O 568.444 1.49428 -1.24505 0
M  V30 6041 C 568.727 -1.30846 -3.35487 0
M  V30 6042 C 568.58 -2.84532 -3.4837 0
M  V30 6043 C 569.899 -0.925486 -4.30259 0
M  V30 6044 H 567.018 -0.291659 -0.676834 0
M  V30 6045 H 569.66 -1.332 -1.35491 0
M  V30 6046 H 567.81 -0.854916 -3.78977 0
M  V30 6047 H 569.482 -3.3818 -3.13739 0
M  V30 6048 H 567.725 -3.22699 -2.8991 0
M  V30 6049 H 568.396 -3.15259 -4.53118 0
M  V30 6050 H 570.872 -1.3163 -3.94731 0
M  V30 6051 H 569.748 -1.3094 -5.33053 0
M  V30 6052 H 570.009 0.168525 -4.41779 0
M  V30 6053 N 569.068 1.32177 -0.85831 0
M  V30 6054 C 570.296 2.01313 -0.477582 0
M  V30 6055 C 570.711 1.6449 0.926736 0
M  V30 6056 O 570.068 0.868096 1.60531 0
M  V30 6057 C 570.119 3.56293 -0.611337 0
M  V30 6058 O 569.84 3.91794 -1.96034 0
M  V30 6059 C 571.341 4.42702 -0.230093 0
M  V30 6060 H 568.561 0.644323 -0.187322 0
M  V30 6061 H 571.105 1.68674 -1.15626 0
M  V30 6062 H 569.26 3.87395 0.0196494 0
M  V30 6063 H 569.674 4.86513 -1.95973 0
M  V30 6064 H 571.148 5.50727 -0.374674 0
M  V30 6065 H 571.625 4.3129 0.829779 0
M  V30 6066 H 572.231 4.16997 -0.836302 0
M  V30 6067 N 570.547 0.616602 1.45037 0
M  V30 6068 C 571.963 0.280994 1.57107 0
M  V30 6069 C 572.163 -1.21627 1.60653 0
M  V30 6070 O 571.219 -1.9997 1.54169 0
M  V30 6071 C 572.532 0.960116 2.8496 0
M  V30 6072 C 574.08 0.936884 2.98649 0
M  V30 6073 C 574.555 1.59619 4.29285 0
M  V30 6074 N 576.046 1.5621 4.36065 0
M  V30 6075 C 576.781 2.04131 5.35834 0
M  V30 6076 N 576.277 2.60177 6.4209 0
M  V30 6077 N 578.07 1.94845 5.27249 0
M  V30 6078 H 570.221 1.58867 1.40979 0
M  V30 6079 H 572.484 0.666024 0.674623 0
M  V30 6080 H 572.19 2.01473 2.88273 0
M  V30 6081 H 572.064 0.488921 3.74018 0
M  V30 6082 H 574.451 -0.109209 2.94898 0
M  V30 6083 H 574.532 1.44643 2.10979 0
M  V30 6084 H 574.176 2.64166 4.33796 0
M  V30 6085 H 574.106 1.06159 5.15789 0
M  V30 6086 H 576.597 1.15276 3.59889 0
M  V30 6087 H 576.91 2.94513 7.1448 0
M  V30 6088 H 575.255 2.64221 6.42816 0
M  V30 6089 H 578.446 1.50792 4.43147 0
M  V30 6090 H 578.619 2.32504 6.04852 0
M  V30 6091 N 572.025 -1.5352 0.356285 0
M  V30 6092 C 573.272 -2.01117 -0.236303 0
M  V30 6093 C 573.6 -1.24381 -1.49531 0
M  V30 6094 O 572.855 -0.323057 -1.93015 0
M  V30 6095 C 573.154 -3.52607 -0.583369 0
M  V30 6096 C 572.82 -4.47151 0.58023 0
M  V30 6097 C 571.482 -4.72718 0.899528 0
M  V30 6098 C 573.834 -5.03137 1.36024 0
M  V30 6099 C 571.162 -5.51523 2.00098 0
M  V30 6100 C 573.514 -5.83145 2.45204 0
M  V30 6101 C 572.178 -6.07001 2.77679 0
M  V30 6102 H 571.448 -0.735938 -0.0864695 0
M  V30 6103 H 574.095 -1.85209 0.48683 0
M  V30 6104 H 572.4 -3.66413 -1.38739 0
M  V30 6105 H 574.097 -3.86901 -1.05397 0
M  V30 6106 H 570.687 -4.27394 0.321322 0
M  V30 6107 H 574.871 -4.83339 1.12682 0
M  V30 6108 H 570.127 -5.68229 2.25668 0
M  V30 6109 H 574.301 -6.25537 3.06067 0
M  V30 6110 H 571.928 -6.67851 3.63151 0
M  V30 6111 N 573.503 -0.0852151 -1.57369 0
M  V30 6112 C 574.749 0.581666 -1.94279 0
M  V30 6113 C 575.082 1.68444 -0.966446 0
M  V30 6114 O 574.357 1.945 0.00215277 0
M  V30 6115 C 574.64 1.14609 -3.41375 0
M  V30 6116 C 574.493 0.0490414 -4.49773 0
M  V30 6117 C 575.812 2.04751 -3.8957 0
M  V30 6118 H 572.931 0.209972 -0.706456 0
M  V30 6119 H 575.573 -0.153915 -1.89376 0
M  V30 6120 H 573.723 1.77297 -3.45685 0
M  V30 6121 H 575.395 -0.584721 -4.57579 0
M  V30 6122 H 573.638 -0.618638 -4.29366 0
M  V30 6123 H 574.309 0.484601 -5.49869 0
M  V30 6124 H 576.785 1.51981 -3.87351 0
M  V30 6125 H 575.661 2.41173 -4.93079 0
M  V30 6126 H 575.922 2.96107 -3.28288 0
M  V30 6127 N 574.981 1.5647 0.188427 0
M  V30 6128 C 575.911 1.98101 1.23606 0
M  V30 6129 C 576.892 0.853961 1.47111 0
M  V30 6130 O 578.077 1.11879 1.58735 0
M  V30 6131 C 575.207 2.32624 2.57882 0
M  V30 6132 C 574.161 3.48129 2.48978 0
M  V30 6133 C 573.487 3.68347 3.87588 0
M  V30 6134 C 574.787 4.82112 2.00911 0
M  V30 6135 H 576.481 2.85864 0.890068 0
M  V30 6136 H 574.027 1.37532 0.426714 0
M  V30 6137 H 575.98 2.60343 3.3136 0
M  V30 6138 H 574.704 1.41751 2.94235 0
M  V30 6139 H 573.363 3.20511 1.77956 0
M  V30 6140 H 573.011 2.74793 4.21305 0
M  V30 6141 H 572.711 4.46055 3.82503 0
M  V30 6142 H 574.235 3.98449 4.62678 0
M  V30 6143 H 575.649 5.08819 2.64151 0
M  V30 6144 H 574.046 5.63337 2.06814 0
M  V30 6145 H 575.116 4.75249 0.96262 0
M  V30 6146 N 576.459 -0.456382 1.50847 0
M  V30 6147 C 577.87 -1.03685 1.55262 0
M  V30 6148 C 578.221 -1.92779 0.364771 0
M  V30 6149 O 577.346 -2.10043 -0.52068 0
M  V30 6150 C 577.941 -1.88718 2.81374 0
M  V30 6151 C 576.5 -2.41847 2.88422 0
M  V30 6152 C 575.647 -1.20564 2.49719 0
M  V30 6153 H 578.598 -0.238399 1.56899 0
M  V30 6154 H 578.619 -2.73957 2.6406 0
M  V30 6155 H 578.131 -1.23847 3.67809 0
M  V30 6156 H 576.232 -3.10228 2.06372 0
M  V30 6157 H 576.345 -2.75947 3.9165 0
M  V30 6158 H 574.709 -1.54504 2.02486 0
M  V30 6159 H 575.492 -0.573326 3.38479 0
M  V30 6160 N 577.937 -1.40673 -0.710563 0
M  V30 6161 C 579.183 -1.39428 -1.47267 0
M  V30 6162 C 579.516 0.00182129 -1.942 0
M  V30 6163 O 578.791 0.971387 -1.68506 0
M  V30 6164 C 579.074 -2.38812 -2.6952 0
M  V30 6165 C 578.927 -3.87467 -2.28449 0
M  V30 6166 C 580.246 -2.3566 -3.71689 0
M  V30 6167 H 577.365 -0.507768 -0.534173 0
M  V30 6168 H 580.007 -1.71843 -0.810547 0
M  V30 6169 H 578.157 -2.113 -3.26013 0
M  V30 6170 H 579.829 -4.25825 -1.77399 0
M  V30 6171 H 578.072 -4.03058 -1.60395 0
M  V30 6172 H 578.743 -4.5253 -3.16103 0
M  V30 6173 H 581.219 -2.6004 -3.24836 0
M  V30 6174 H 580.095 -3.07237 -4.54859 0
M  V30 6175 H 580.356 -1.36996 -4.20339 0
M  V30 6176 N 579.415 0.9433 -1.26252 0
M  V30 6177 C 580.663 1.68592 -1.11451 0
M  V30 6178 C 580.984 1.91957 0.343123 0
M  V30 6179 O 580.254 1.51475 1.24226 0
M  V30 6180 H 578.834 0.624789 -0.409448 0
M  V30 6181 H 581.496 1.13351 -1.58548 0
M  V30 6182 H 580.592 2.66054 -1.63162 0
M  V30 6183 N 580.893 1.08022 1.14757 0
M  V30 6184 C 581.856 0.71048 2.1791 0
M  V30 6185 C 582.856 -0.252731 1.58801 0
M  V30 6186 O 584.046 -0.0327915 1.74169 0
M  V30 6187 C 581.178 0.0483203 3.40866 0
M  V30 6188 H 582.371 1.62384 2.52134 0
M  V30 6189 H 579.924 0.877595 1.29337 0
M  V30 6190 H 580.659 -0.876959 3.12218 0
M  V30 6191 H 580.444 0.741189 3.85031 0
M  V30 6192 H 581.934 -0.195471 4.17142 0
M  V30 6193 N 582.371 -1.3172 0.865308 0
M  V30 6194 C 583.599 -2.01057 0.488251 0
M  V30 6195 C 584.014 -1.64979 -0.918 0
M  V30 6196 O 583.371 -0.876597 -1.60069 0
M  V30 6197 C 583.422 -3.55964 0.630224 0
M  V30 6198 O 583.143 -3.90749 1.98109 0
M  V30 6199 C 584.644 -4.42574 0.253567 0
M  V30 6200 H 581.864 -0.64332 0.190736 0
M  V30 6201 H 584.408 -1.68058 1.16519 0
M  V30 6202 H 582.563 -3.874 0.000895422 0
M  V30 6203 H 582.977 -4.85467 1.9855 0
M  V30 6204 H 584.451 -5.50521 0.403875 0
M  V30 6205 H 584.928 -4.31724 -0.806895 0
M  V30 6206 H 585.534 -4.16547 0.858404 0
M  V30 6207 N 583.85 -0.624285 -1.44708 0
M  V30 6208 C 585.099 -0.123539 -2.01321 0
M  V30 6209 C 585.412 1.25966 -1.49639 0
M  V30 6210 O 586.618 1.85405 -1.98336 0
M  V30 6211 C 585.074 -0.170124 -3.59498 0
M  V30 6212 C 584.682 -1.55421 -4.20176 0
M  V30 6213 C 586.426 0.274513 -4.23611 0
M  V30 6214 C 584.332 -1.55628 -5.70556 0
M  V30 6215 H 583.263 -0.0424183 -0.752806 0
M  V30 6216 H 585.913 -0.782076 -1.65999 0
M  V30 6217 H 584.296 0.555385 -3.92086 0
M  V30 6218 H 585.47 -2.30276 -3.99136 0
M  V30 6219 H 583.784 -1.94235 -3.68323 0
M  V30 6220 H 586.382 0.292402 -5.339 0
M  V30 6221 H 586.725 1.3005 -3.95465 0
M  V30 6222 H 587.258 -0.398275 -3.95801 0
M  V30 6223 H 583.997 -2.56041 -6.03426 0
M  V30 6224 H 583.517 -0.850563 -5.93739 0
M  V30 6225 H 585.196 -1.28721 -6.34066 0
M  V30 6226 N 585.328 1.53329 -0.364422 0
M  V30 6227 C 586.276 2.27212 0.497737 0
M  V30 6228 C 587.27 1.30146 1.08437 0
M  V30 6229 O 588.476 1.47778 1.0277 0
M  V30 6230 H 584.851 0.730329 0.179232 0
M  V30 6231 H 586.822 2.98037 -0.147182 0
M  V30 6232 C 585.571 3.07333 1.6261 0
M  V30 6233 H 584.894 3.81866 1.184 0
M  V30 6234 H 586.334 3.62209 2.20409 0
M  V30 6235 C 584.793 2.18102 2.56775 0
M  V30 6236 O 585.323 1.79104 3.59562 0
M  V30 6237 N 583.529 1.82759 2.25937 0
M  V30 6238 H 583.076 2.14671 1.42387 0
M  V30 6239 H 583.034 1.23342 2.89196 0
M  V30 6240 N 586.806 0.0935595 1.57322 0
M  V30 6241 C 587.739 -0.902505 2.09595 0
M  V30 6242 C 588.717 -1.27732 1.00615 0
M  V30 6243 O 589.901 -1.38283 1.28102 0
M  V30 6244 C 587.028 -2.20416 2.57166 0
M  V30 6245 C 586.074 -1.97932 3.7779 0
M  V30 6246 S 586.907 -1.21873 5.21447 0
M  V30 6247 C 588.063 -2.53273 5.72367 0
M  V30 6248 H 588.296 -0.457797 2.93754 0
M  V30 6249 H 585.829 -0.119694 1.53935 0
M  V30 6250 H 587.787 -2.95217 2.85232 0
M  V30 6251 H 586.448 -2.62008 1.73235 0
M  V30 6252 H 585.641 -2.94316 4.09138 0
M  V30 6253 H 585.243 -1.3126 3.5021 0
M  V30 6254 H 587.535 -3.49256 5.8054 0
M  V30 6255 H 588.478 -2.26505 6.70896 0
M  V30 6256 H 588.886 -2.61475 5.00291 0
M  V30 6257 N 588.284 -1.56567 -0.180126 0
M  V30 6258 C 589.561 -1.7235 -0.924931 0
M  V30 6259 C 589.941 -0.652523 -2.00762 0
M  V30 6260 O 589.289 0.334115 -2.26044 0
M  V30 6261 C 589.499 -3.1523 -1.49771 0
M  V30 6262 C 590.847 -3.75921 -1.97405 0
M  V30 6263 O 591.871 -3.18452 -1.59583 0
M  V30 6264 O 590.73 -4.7681 -2.67048 0
M  V30 6265 H 587.824 -0.703502 -0.434758 0
M  V30 6266 H 590.37 -1.6886 -0.168647 0
M  V30 6267 H 589.142 -3.84656 -0.718027 0
M  V30 6268 H 588.765 -3.23009 -2.31842 0
M  V30 6269 N 589.762 0.448376 -1.51087 0
M  V30 6270 C 591.01 1.19635 -1.62886 0
M  V30 6271 C 591.331 1.91977 -0.342024 0
M  V30 6272 O 590.601 1.85094 0.641636 0
M  V30 6273 H 589.181 0.444598 -0.600285 0
M  V30 6274 H 591.843 0.515138 -1.87969 0
M  V30 6275 H 590.939 1.93194 -2.45117 0
M  V30 6276 N 591.24 1.41047 0.703093 0
M  V30 6277 C 592.468 1.4334 1.49202 0
M  V30 6278 C 592.883 0.0365596 1.88765 0
M  V30 6279 O 592.24 -0.942419 1.56284 0
M  V30 6280 C 592.291 2.33538 2.75939 0
M  V30 6281 O 592.012 3.67786 2.38045 0
M  V30 6282 C 593.513 2.44555 3.6974 0
M  V30 6283 H 590.733 0.488472 0.460039 0
M  V30 6284 H 593.277 1.85245 0.86629 0
M  V30 6285 H 591.432 1.94962 3.34766 0
M  V30 6286 H 591.846 4.15816 3.19683 0
M  V30 6287 H 593.32 3.11849 4.55471 0
M  V30 6288 H 593.797 1.47447 4.1371 0
M  V30 6289 H 594.403 2.83735 3.16819 0
M  V30 6290 N 592.718 -0.936591 1.26751 0
M  V30 6291 C 593.681 -2.01752 1.08761 0
M  V30 6292 C 594.681 -1.60763 0.0344435 0
M  V30 6293 O 595.871 -1.71963 0.278258 0
M  V30 6294 C 593.003 -3.34543 0.655271 0
M  V30 6295 H 594.196 -2.19143 2.04735 0
M  V30 6296 H 591.749 -1.11618 1.09413 0
M  V30 6297 H 592.484 -3.22851 -0.30626 0
M  V30 6298 H 592.269 -3.65647 1.41578 0
M  V30 6299 H 593.759 -4.13944 0.551378 0
M  V30 6300 N 594.196 -1.08629 -1.14182 0
M  V30 6301 C 595.126 -0.740003 -2.21464 0
M  V30 6302 C 596.107 0.278591 -1.67803 0
M  V30 6303 O 597.292 0.148461 -1.93632 0
M  V30 6304 C 594.422 -0.150952 -3.46972 0
M  V30 6305 C 593.376 -1.09815 -4.13672 0
M  V30 6306 C 592.702 -0.3712 -5.3341 0
M  V30 6307 C 594.002 -2.43722 -4.61949 0
M  V30 6308 H 595.696 -1.63697 -2.50686 0
M  V30 6309 H 593.242 -0.788526 -1.20492 0
M  V30 6310 H 595.195 0.103325 -4.21273 0
M  V30 6311 H 593.919 0.781164 -3.1712 0
M  V30 6312 H 592.578 -1.33756 -3.41328 0
M  V30 6313 H 592.226 0.564792 -4.99819 0
M  V30 6314 H 591.926 -1.00267 -5.78982 0
M  V30 6315 H 593.45 -0.12503 -6.10472 0
M  V30 6316 H 594.864 -2.24034 -5.27714 0
M  V30 6317 H 593.261 -3.02582 -5.18232 0
M  V30 6318 H 594.331 -3.05082 -3.76899 0
M  V30 6319 N 595.674 1.31259 -0.872281 0
M  V30 6320 C 596.904 2.00504 -0.498183 0
M  V30 6321 C 597.312 1.65632 0.914479 0
M  V30 6322 O 596.655 0.882849 1.61095 0
M  V30 6323 C 596.717 3.5482 -0.578194 0
M  V30 6324 C 596.381 4.13172 -1.95289 0
M  V30 6325 C 597.378 4.30107 -2.92069 0
M  V30 6326 C 595.063 4.48846 -2.25483 0
M  V30 6327 C 597.057 4.81908 -4.17185 0
M  V30 6328 C 594.744 5.00349 -3.50847 0
M  V30 6329 C 595.742 5.16831 -4.46514 0
M  V30 6330 O 595.43 5.67228 -5.69656 0
M  V30 6331 H 595.162 0.648055 -0.192354 0
M  V30 6332 H 597.716 1.6841 -1.17589 0
M  V30 6333 H 595.946 3.86383 0.156438 0
M  V30 6334 H 597.635 4.05318 -0.217192 0
M  V30 6335 H 598.401 4.02862 -2.7005 0
M  V30 6336 H 594.28 4.35292 -1.51795 0
M  V30 6337 H 597.824 4.94688 -4.91863 0
M  V30 6338 H 593.721 5.27028 -3.72708 0
M  V30 6339 H 594.489 5.85592 -5.7186 0
M  V30 6340 N 597.152 0.631951 1.44375 0
M  V30 6341 C 598.062 -0.073674 2.34484 0
M  V30 6342 C 599.078 -0.834825 1.52665 0
M  V30 6343 O 600.254 -0.786902 1.85391 0
M  V30 6344 C 597.319 -1.04247 3.30656 0
M  V30 6345 C 596.38 -0.280602 4.28382 0
M  V30 6346 C 595.613 -1.20325 5.19959 0
M  V30 6347 O 595.836 -2.44199 5.15484 0
M  V30 6348 O 594.77 -0.687128 5.97965 0
M  V30 6349 H 598.596 0.667477 2.96274 0
M  V30 6350 H 596.181 0.392144 1.44162 0
M  V30 6351 H 598.063 -1.59981 3.89851 0
M  V30 6352 H 596.738 -1.76422 2.71398 0
M  V30 6353 H 595.645 0.319804 3.72731 0
M  V30 6354 H 596.978 0.401144 4.90563 0
M  V30 6355 N 598.631 -1.53133 0.372548 0
M  V30 6356 C 599.594 -2.24569 -0.458389 0
M  V30 6357 C 600.594 -1.25603 -1.00402 0
M  V30 6358 O 601.784 -1.49827 -0.888672 0
M  V30 6359 C 598.916 -2.98783 -1.6414 0
M  V30 6360 H 600.109 -2.99436 0.166799 0
M  V30 6361 H 597.662 -1.55805 0.124357 0
M  V30 6362 H 598.397 -2.28176 -2.30448 0
M  V30 6363 H 598.182 -3.71404 -1.25704 0
M  V30 6364 H 599.672 -3.53068 -2.23008 0
M  V30 6365 N 600.109 -0.101901 -1.5727 0
M  V30 6366 C 601.355 0.561027 -1.94885 0
M  V30 6367 C 601.688 1.6741 -0.984258 0
M  V30 6368 O 600.963 1.94491 -0.0184767 0
M  V30 6369 C 601.246 1.10982 -3.42571 0
M  V30 6370 C 601.099 0.00133418 -4.498 0
M  V30 6371 C 602.418 2.00608 -3.9172 0
M  V30 6372 H 599.537 0.202467 -0.708644 0
M  V30 6373 H 602.179 -0.173992 -1.89202 0
M  V30 6374 H 600.329 1.73621 -3.47546 0
M  V30 6375 H 602.001 -0.63322 -4.56933 0
M  V30 6376 H 600.244 -0.664143 -4.28686 0
M  V30 6377 H 600.915 0.426253 -5.50352 0
M  V30 6378 H 603.391 1.47864 -3.88941 0
M  V30 6379 H 602.267 2.3593 -4.95609 0
M  V30 6380 H 602.528 2.92608 -3.3141 0
M  V30 6381 N 601.587 1.56661 0.17182 0
M  V30 6382 C 602.55 1.9549 1.19651 0
M  V30 6383 C 603.55 0.838501 1.37207 0
M  V30 6384 O 604.74 1.10556 1.34622 0
M  V30 6385 C 601.872 2.24927 2.56166 0
M  V30 6386 H 603.065 2.87184 0.864007 0
M  V30 6387 H 600.618 1.50711 0.41425 0
M  V30 6388 H 601.353 1.35944 2.94431 0
M  V30 6389 H 601.138 3.06301 2.4479 0
M  V30 6390 H 602.628 2.55891 3.30014 0
M  V30 6391 N 603.065 -0.440357 1.51323 0
M  V30 6392 C 604.028 -1.51679 1.71832 0
M  V30 6393 C 605.028 -1.49648 0.588386 0
M  V30 6394 O 606.218 -1.51724 0.855891 0
M  V30 6395 C 603.35 -2.91228 1.77199 0
M  V30 6396 H 604.543 -1.34799 2.67898 0
M  V30 6397 H 602.096 -0.66883 1.41267 0
M  V30 6398 H 602.831 -3.13516 0.829363 0
M  V30 6399 H 602.616 -2.94107 2.59314 0
M  V30 6400 H 604.106 -3.69321 1.94915 0
M  V30 6401 N 604.543 -1.41418 -0.695603 0
M  V30 6402 C 605.792 -1.40073 -1.4513 0
M  V30 6403 C 606.105 -0.0130439 -1.95596 0
M  V30 6404 O 607.311 0.123032 -2.71221 0
M  V30 6405 C 605.767 -2.46286 -2.62433 0
M  V30 6406 C 605.375 -3.90962 -2.18753 0
M  V30 6407 C 607.119 -2.54077 -3.40066 0
M  V30 6408 C 605.026 -4.88728 -3.33015 0
M  V30 6409 H 603.956 -0.520903 -0.545138 0
M  V30 6410 H 606.607 -1.67242 -0.75515 0
M  V30 6411 H 604.989 -2.12248 -3.34315 0
M  V30 6412 H 606.163 -4.34248 -1.54161 0
M  V30 6413 H 604.478 -3.86831 -1.54114 0
M  V30 6414 H 607.075 -3.24303 -4.25125 0
M  V30 6415 H 607.418 -1.5776 -3.8525 0
M  V30 6416 H 607.951 -2.87206 -2.75241 0
M  V30 6417 H 604.69 -5.86449 -2.92844 0
M  V30 6418 H 604.21 -4.50091 -3.96457 0
M  V30 6419 H 605.889 -5.09483 -3.98793 0
M  V30 6420 N 606.021 0.929856 -1.27246 0
M  V30 6421 C 607.268 1.67731 -1.13457 0
M  V30 6422 C 607.596 1.9185 0.319998 0
M  V30 6423 O 606.851 1.50524 1.25064 0
M  V30 6424 C 607.15 3.05116 -1.86115 0
M  V30 6425 C 606.816 3.00715 -3.35978 0
M  V30 6426 C 605.478 2.99222 -3.76855 0
M  V30 6427 C 607.83 2.92168 -4.3161 0
M  V30 6428 C 605.158 2.86962 -5.11732 0
M  V30 6429 C 607.51 2.81449 -5.66542 0
M  V30 6430 C 606.174 2.78305 -6.06715 0
M  V30 6431 H 605.444 0.613772 -0.415168 0
M  V30 6432 H 608.091 1.08456 -1.57827 0
M  V30 6433 H 606.396 3.68083 -1.34246 0
M  V30 6434 H 608.093 3.61822 -1.72876 0
M  V30 6435 H 604.683 3.02664 -3.03468 0
M  V30 6436 H 608.867 2.92421 -4.01003 0
M  V30 6437 H 604.123 2.82913 -5.42006 0
M  V30 6438 H 608.297 2.738 -6.40317 0
M  V30 6439 H 605.924 2.68561 -7.11181 0
M  V30 6440 N 607.499 1.09233 1.13605 0
M  V30 6441 C 608.748 0.82205 1.84188 0
M  V30 6442 C 609.061 -0.654548 1.84323 0
M  V30 6443 O 610.267 -1.04029 2.50779 0
M  V30 6444 C 608.723 1.42066 3.30674 0
M  V30 6445 C 608.331 2.92965 3.38933 0
M  V30 6446 C 610.075 1.22924 4.06313 0
M  V30 6447 C 607.982 3.45922 4.79679 0
M  V30 6448 H 606.912 0.303854 0.690064 0
M  V30 6449 H 609.563 1.31479 1.28006 0
M  V30 6450 H 607.945 0.855613 3.86646 0
M  V30 6451 H 609.119 3.55679 2.92966 0
M  V30 6452 H 607.434 3.11118 2.76757 0
M  V30 6453 H 610.031 1.59945 5.10217 0
M  V30 6454 H 610.374 0.169726 4.15954 0
M  V30 6455 H 610.907 1.76168 3.56665 0
M  V30 6456 H 607.646 4.51484 4.75229 0
M  V30 6457 H 607.166 2.87971 5.26149 0
M  V30 6458 H 608.845 3.43009 5.48592 0
M  V30 6459 N 608.977 -1.30795 0.87923 0
M  V30 6460 C 609.94 -2.26563 0.346676 0
M  V30 6461 C 610.94 -1.52578 -0.507597 0
M  V30 6462 O 612.13 -1.71318 -0.315575 0
M  V30 6463 C 609.262 -3.37115 -0.506611 0
M  V30 6464 H 610.455 -2.75183 1.19223 0
M  V30 6465 H 608.008 -1.41886 0.655598 0
M  V30 6466 H 608.743 -2.93802 -1.37299 0
M  V30 6467 H 608.528 -3.91959 0.105218 0
M  V30 6468 H 610.018 -4.08412 -0.871192 0
M  V30 6469 N 610.455 -0.639598 -1.44038 0
M  V30 6470 C 611.387 0.0987684 -2.28987 0
M  V30 6471 C 612.4 0.80058 -1.41755 0
M  V30 6472 O 613.589 0.660611 -1.65826 0
M  V30 6473 C 610.689 1.16242 -3.18341 0
M  V30 6474 C 609.862 0.541447 -4.34036 0
M  V30 6475 C 608.921 1.50017 -5.04362 0
M  V30 6476 O 607.947 1.01403 -5.60095 0
M  V30 6477 N 609.149 2.83441 -5.06598 0
M  V30 6478 H 611.914 -0.630305 -2.92997 0
M  V30 6479 H 609.475 -0.481376 -1.54578 0
M  V30 6480 H 611.467 1.80429 -3.62253 0
M  V30 6481 H 610.037 1.79362 -2.56024 0
M  V30 6482 H 609.257 -0.27923 -3.9321 0
M  V30 6483 H 610.545 0.107379 -5.08687 0
M  V30 6484 H 609.943 3.2551 -4.62666 0
M  V30 6485 H 608.5 3.42966 -5.54272 0
M  V30 6486 N 611.933 1.52934 -0.380664 0
M  V30 6487 C 612.866 2.22597 0.502564 0
M  V30 6488 C 613.844 1.22345 1.071 0
M  V30 6489 O 615.028 1.51302 1.12428 0
M  V30 6490 C 612.155 2.93246 1.69482 0
M  V30 6491 C 611.201 4.07696 1.25244 0
M  V30 6492 S 612.034 5.34957 0.241159 0
M  V30 6493 C 613.19 6.09124 1.4394 0
M  V30 6494 H 613.423 2.97167 -0.089029 0
M  V30 6495 H 610.956 1.53518 -0.164817 0
M  V30 6496 H 612.914 3.34562 2.37863 0
M  V30 6497 H 611.575 2.18373 2.2577 0
M  V30 6498 H 610.768 4.56199 2.1424 0
M  V30 6499 H 610.37 3.68349 0.647664 0
M  V30 6500 H 612.662 6.34771 2.36794 0
M  V30 6501 H 613.605 7.01068 0.995464 0
M  V30 6502 H 614.013 5.39777 1.65229 0
M  V30 6503 N 613.412 0.11024 1.57214 0
M  V30 6504 C 614.36 -0.860586 2.16094 0
M  V30 6505 C 615.354 -1.28156 1.1078 0
M  V30 6506 O 616.56 -1.25433 1.29099 0
M  V30 6507 H 612.935 -0.295606 0.691463 0
M  V30 6508 H 614.906 -0.33942 2.96463 0
M  V30 6509 C 613.655 -2.10421 2.768 0
M  V30 6510 H 612.978 -1.7892 3.5753 0
M  V30 6511 H 614.418 -2.76375 3.21547 0
M  V30 6512 C 612.877 -2.88823 1.73444 0
M  V30 6513 O 613.407 -3.839 1.18251 0
M  V30 6514 N 611.613 -2.52649 1.43586 0
M  V30 6515 H 611.16 -1.754 1.8866 0
M  V30 6516 H 611.118 -3.05403 0.746735 0
M  V30 6517 N 614.89 -1.56749 -0.16351 0
M  V30 6518 C 616.138 -1.82074 -0.87713 0
M  V30 6519 C 616.459 -0.688503 -1.82441 0
M  V30 6520 O 615.729 0.291085 -1.93725 0
M  V30 6521 H 614.309 -0.671677 -0.326893 0
M  V30 6522 H 616.971 -1.9423 -0.161459 0
M  V30 6523 H 616.067 -2.76407 -1.44934 0
M  V30 6524 N 616.368 0.432326 -1.51554 0
M  V30 6525 C 617.614 1.18309 -1.64714 0
M  V30 6526 C 617.947 1.90745 -0.364696 0
M  V30 6527 O 617.222 1.8381 0.635936 0
M  V30 6528 C 617.505 2.1961 -2.85383 0
M  V30 6529 C 617.358 1.51223 -4.23617 0
M  V30 6530 C 618.677 3.20538 -3.01569 0
M  V30 6531 H 615.796 0.428751 -0.599451 0
M  V30 6532 H 618.438 0.471689 -1.84052 0
M  V30 6533 H 616.588 2.8028 -2.69027 0
M  V30 6534 H 618.26 0.938516 -4.51652 0
M  V30 6535 H 616.503 0.814501 -4.26085 0
M  V30 6536 H 617.174 2.25024 -5.04052 0
M  V30 6537 H 619.65 2.69926 -3.16669 0
M  V30 6538 H 618.526 3.88706 -3.87555 0
M  V30 6539 H 618.787 3.86933 -2.13859 0
M  V30 6540 N 617.846 1.41785 0.688094 0
M  V30 6541 C 619.092 1.41753 1.4503 0
M  V30 6542 C 619.425 0.0290745 1.94178 0
M  V30 6543 O 618.7 -0.944456 1.7003 0
M  V30 6544 C 618.983 2.43069 2.65686 0
M  V30 6545 C 618.836 3.91053 2.22256 0
M  V30 6546 C 620.155 2.41543 3.67893 0
M  V30 6547 H 617.274 0.516202 0.526027 0
M  V30 6548 H 619.916 1.73111 0.783105 0
M  V30 6549 H 618.066 2.1646 3.2261 0
M  V30 6550 H 619.738 4.28594 1.70602 0
M  V30 6551 H 617.981 4.05559 1.53963 0
M  V30 6552 H 618.652 4.57501 3.08863 0
M  V30 6553 H 621.128 2.65175 3.20658 0
M  V30 6554 H 620.004 3.14434 4.49914 0
M  V30 6555 H 620.265 1.43666 4.18106 0
M  V30 6556 N 619.324 -0.923095 1.27737 0
M  V30 6557 C 620.254 -2.04124 1.13383 0
M  V30 6558 C 621.235 -1.70066 0.0340658 0
M  V30 6559 O 622.42 -1.93068 0.209383 0
M  V30 6560 C 619.55 -3.3831 0.785097 0
M  V30 6561 C 618.504 -3.86496 1.8386 0
M  V30 6562 C 617.83 -5.1754 1.34373 0
M  V30 6563 C 619.13 -4.09381 3.24353 0
M  V30 6564 H 620.824 -2.1639 2.06919 0
M  V30 6565 H 618.37 -1.03976 0.996243 0
M  V30 6566 H 620.323 -4.16016 0.671485 0
M  V30 6567 H 619.047 -3.2607 -0.185969 0
M  V30 6568 H 617.706 -3.10987 1.9412 0
M  V30 6569 H 617.354 -5.01696 0.361989 0
M  V30 6570 H 617.054 -5.50751 2.04811 0
M  V30 6571 H 618.578 -5.97811 1.24315 0
M  V30 6572 H 619.992 -4.77641 3.17067 0
M  V30 6573 H 618.389 -4.53906 3.92542 0
M  V30 6574 H 619.459 -3.14515 3.69064 0
M  V30 6575 N 620.802 -1.09834 -1.13024 0
M  V30 6576 C 622.079 -0.749225 -1.80682 0
M  V30 6577 C 622.459 0.765171 -1.96744 0
M  V30 6578 O 621.807 1.68912 -1.53886 0
M  V30 6579 C 622.017 -1.49311 -3.15448 0
M  V30 6580 C 623.365 -1.66162 -3.90737 0
M  V30 6581 O 624.389 -1.45597 -3.25085 0
M  V30 6582 O 623.248 -2.00211 -5.08505 0
M  V30 6583 H 620.342 -0.269614 -0.781817 0
M  V30 6584 H 622.888 -1.20078 -1.19914 0
M  V30 6585 H 621.66 -2.52407 -2.99009 0
M  V30 6586 H 621.283 -1.034 -3.8392 0
M  V30 6587 N 622.28 1.30327 -0.886154 0
M  V30 6588 C 623.528 1.9571 -0.504195 0
M  V30 6589 C 623.849 1.70294 0.950003 0
M  V30 6590 O 623.119 1.02718 1.66811 0
M  V30 6591 H 621.699 0.72412 -0.183465 0
M  V30 6592 H 624.361 1.58835 -1.12949 0
M  V30 6593 H 623.457 3.04704 -0.675431 0
M  V30 6594 N 623.758 0.647228 1.43697 0
M  V30 6595 C 625.006 0.157876 2.01482 0
M  V30 6596 C 625.327 -1.23039 1.51282 0
M  V30 6597 O 624.597 -1.82071 0.722982 0
M  V30 6598 H 623.177 0.0553745 0.744945 0
M  V30 6599 H 625.839 0.83755 1.75986 0
M  V30 6600 H 624.935 0.137895 3.11795 0
M  V30 6601 N 625.236 -1.5273 0.388769 0
M  V30 6602 C 626.168 -2.24081 -0.481704 0
M  V30 6603 C 627.181 -1.26307 -1.02715 0
M  V30 6604 O 628.37 -1.52386 -0.929565 0
M  V30 6605 C 625.47 -2.94315 -1.68024 0
M  V30 6606 C 624.643 -4.18791 -1.26226 0
M  V30 6607 C 623.702 -4.72028 -2.32542 0
M  V30 6608 O 622.728 -5.35129 -1.93972 0
M  V30 6609 N 623.93 -4.51838 -3.64448 0
M  V30 6610 H 626.695 -2.9942 0.129591 0
M  V30 6611 H 624.256 -1.60465 0.2151 0
M  V30 6612 H 626.248 -3.26831 -2.38671 0
M  V30 6613 H 624.818 -2.22287 -2.19789 0
M  V30 6614 H 624.038 -3.92318 -0.384703 0
M  V30 6615 H 625.326 -4.99668 -0.959647 0
M  V30 6616 H 624.724 -4.01468 -3.98547 0
M  V30 6617 H 623.281 -4.88845 -4.31131 0
M  V30 6618 N 626.714 -0.118576 -1.57153 0
M  V30 6619 C 627.963 0.539339 -1.94355 0
M  V30 6620 C 628.276 1.67858 -1.00415 0
M  V30 6621 O 629.482 2.39922 -1.27081 0
M  V30 6622 C 627.938 1.01082 -3.45414 0
M  V30 6623 C 627.546 -0.0999402 -4.47889 0
M  V30 6624 C 629.29 1.64013 -3.91535 0
M  V30 6625 C 627.197 0.388212 -5.90124 0
M  V30 6626 H 626.127 0.205247 -0.725527 0
M  V30 6627 H 628.778 -0.19836 -1.82425 0
M  V30 6628 H 627.16 1.80292 -3.52577 0
M  V30 6629 H 628.334 -0.876189 -4.52393 0
M  V30 6630 H 626.649 -0.635885 -4.11516 0
M  V30 6631 H 629.246 2.01649 -4.95219 0
M  V30 6632 H 629.589 2.51836 -3.31488 0
M  V30 6633 H 630.122 0.913439 -3.87171 0
M  V30 6634 H 626.861 -0.453963 -6.53926 0
M  V30 6635 H 626.381 1.13095 -5.89041 0
M  V30 6636 H 628.06 0.849574 -6.41398 0
M  V30 6637 N 628.193 1.56834 0.155195 0
M  V30 6638 C 629.439 1.83169 0.870467 0
M  V30 6639 C 629.772 0.698929 1.81187 0
M  V30 6640 O 629.047 -0.298035 1.92203 0
M  V30 6641 C 629.33 3.19965 1.65211 0
M  V30 6642 C 629.183 4.43792 0.732744 0
M  V30 6643 C 630.502 3.53885 2.61636 0
M  V30 6644 H 627.621 0.666288 0.315006 0
M  V30 6645 H 630.263 1.89513 0.135988 0
M  V30 6646 H 628.413 3.14687 2.27825 0
M  V30 6647 H 630.085 4.61148 0.118236 0
M  V30 6648 H 628.328 4.3378 0.0417906 0
M  V30 6649 H 628.999 5.36095 1.31552 0
M  V30 6650 H 631.475 3.5972 2.09143 0
M  V30 6651 H 630.351 4.50648 3.13381 0
M  V30 6652 H 630.612 2.79418 3.42605 0
M  V30 6653 N 629.671 -0.424282 1.51781 0
M  V30 6654 C 630.899 -1.1947 1.68921 0
M  V30 6655 C 631.314 -1.84683 0.39213 0
M  V30 6656 O 630.671 -1.71261 -0.630554 0
M  V30 6657 C 630.722 -2.26909 2.81416 0
M  V30 6658 O 630.443 -1.64361 4.061 0
M  V30 6659 C 631.944 -3.16945 3.09937 0
M  V30 6660 H 629.164 -0.359591 0.566511 0
M  V30 6661 H 631.708 -0.501139 1.98265 0
M  V30 6662 H 629.863 -2.91959 2.54635 0
M  V30 6663 H 630.277 -2.35468 4.68674 0
M  V30 6664 H 631.751 -3.88437 3.922 0
M  V30 6665 H 632.228 -3.78451 2.22871 0
M  V30 6666 H 632.834 -2.57581 3.38426 0
M  V30 6667 N 631.149 -1.42148 -0.680565 0
M  V30 6668 C 632.395 -1.42521 -1.44277 0
M  V30 6669 C 632.728 -0.0393718 -1.9416 0
M  V30 6670 O 632.003 0.935425 -1.70529 0
M  V30 6671 C 632.286 -2.44475 -2.64394 0
M  V30 6672 C 632.139 -3.92226 -2.20179 0
M  V30 6673 C 633.458 -2.43491 -3.66606 0
M  V30 6674 H 630.577 -0.518985 -0.523282 0
M  V30 6675 H 633.219 -1.73524 -0.773914 0
M  V30 6676 H 631.369 -2.18168 -3.21458 0
M  V30 6677 H 633.041 -4.29493 -1.68327 0
M  V30 6678 H 631.284 -4.0637 -1.5181 0
M  V30 6679 H 631.955 -4.59133 -3.06433 0
M  V30 6680 H 634.431 -2.66872 -3.19247 0
M  V30 6681 H 633.307 -3.16816 -4.4824 0
M  V30 6682 H 633.568 -1.45881 -4.17338 0
M  V30 6683 N 632.627 0.916307 -1.28225 0
M  V30 6684 C 633.852 1.7043 -1.18188 0
M  V30 6685 C 634.277 1.86346 0.256274 0
M  V30 6686 O 633.635 1.37175 1.18544 0
M  V30 6687 C 633.683 3.07546 -1.88275 0
M  V30 6688 O 632.787 3.94904 -1.18848 0
M  V30 6689 H 632.128 0.521967 -0.410423 0
M  V30 6690 H 634.658 1.14589 -1.69501 0
M  V30 6691 H 634.668 3.57793 -1.96082 0
M  V30 6692 H 633.343 2.95279 -2.92887 0
M  V30 6693 H 631.92 3.53339 -1.19187 0
M  V30 6694 N 634.105 1.10431 1.1244 0
M  V30 6695 C 635.035 0.775143 2.20258 0
M  V30 6696 C 636.016 -0.25186 1.68225 0
M  V30 6697 O 637.201 -0.117637 1.93843 0
M  V30 6698 C 634.331 0.206133 3.46688 0
M  V30 6699 C 633.285 1.16382 4.11873 0
M  V30 6700 C 632.611 0.456014 5.32752 0
M  V30 6701 C 633.911 2.5104 4.58013 0
M  V30 6702 H 635.605 1.67665 2.4805 0
M  V30 6703 H 633.151 0.807595 1.19222 0
M  V30 6704 H 635.104 -0.036291 4.21384 0
M  V30 6705 H 633.828 -0.730614 3.18323 0
M  V30 6706 H 632.487 1.39169 3.39157 0
M  V30 6707 H 632.135 -0.485203 5.00654 0
M  V30 6708 H 631.835 1.09466 5.77314 0
M  V30 6709 H 633.359 0.222135 6.10196 0
M  V30 6710 H 634.773 2.32401 5.24083 0
M  V30 6711 H 633.17 3.10789 5.13352 0
M  V30 6712 H 634.24 3.11039 3.71998 0
M  V30 6713 N 635.583 -1.29855 0.893053 0
M  V30 6714 C 636.811 -1.99976 0.530788 0
M  V30 6715 C 637.226 -1.66889 -0.882799 0
M  V30 6716 O 636.583 -0.910352 -1.58173 0
M  V30 6717 C 636.634 -3.54547 0.705587 0
M  V30 6718 O 636.355 -3.86458 2.06353 0
M  V30 6719 C 637.856 -4.41937 0.347387 0
M  V30 6720 H 635.076 -0.639129 0.204339 0
M  V30 6721 H 637.62 -1.65549 1.20057 0
M  V30 6722 H 635.775 -3.87311 0.0830685 0
M  V30 6723 H 636.189 -4.81146 2.08803 0
M  V30 6724 H 637.663 -5.4954 0.520557 0
M  V30 6725 H 638.14 -4.33339 -0.715139 0
M  V30 6726 H 638.746 -4.14633 0.946567 0
M  V30 6727 N 637.061 -0.65484 -1.43351 0
M  V30 6728 C 638.024 0.0263562 -2.29185 0
M  V30 6729 C 639.024 0.748951 -1.42293 0
M  V30 6730 O 640.214 0.589957 -1.63906 0
M  V30 6731 C 637.346 1.04806 -3.2439 0
M  V30 6732 H 638.539 -0.728883 -2.90908 0
M  V30 6733 H 636.092 -0.416149 -1.50658 0
M  V30 6734 H 636.827 1.83247 -2.67565 0
M  V30 6735 H 636.612 0.533554 -3.88453 0
M  V30 6736 H 638.102 1.52372 -3.88809 0
M  V30 6737 N 638.539 1.52521 -0.396863 0
M  V30 6738 C 639.767 2.06091 0.18275 0
M  V30 6739 C 640.182 1.26796 1.39886 0
M  V30 6740 O 639.539 0.316585 1.79733 0
M  V30 6741 C 639.59 3.57362 0.545377 0
M  V30 6742 O 639.311 4.33656 -0.622428 0
M  V30 6743 C 640.812 4.27305 1.18004 0
M  V30 6744 H 638.032 0.670504 0.025789 0
M  V30 6745 H 640.576 1.96561 -0.564276 0
M  V30 6746 H 638.731 3.66941 1.2423 0
M  V30 6747 H 639.145 5.23507 -0.322662 0
M  V30 6748 H 640.619 5.34366 1.38408 0
M  V30 6749 H 641.096 3.83 2.1496 0
M  V30 6750 H 641.702 4.22064 0.523671 0
M  V30 6751 N 640.017 0.126909 1.57088 0
M  V30 6752 C 640.947 -0.816847 2.18746 0
M  V30 6753 C 641.928 -1.27161 1.12979 0
M  V30 6754 O 643.113 -1.33279 1.41246 0
M  V30 6755 C 640.243 -2.06398 2.79315 0
M  V30 6756 C 639.197 -1.74673 3.90735 0
M  V30 6757 C 638.523 -3.06482 4.38147 0
M  V30 6758 C 639.823 -1.0089 5.12463 0
M  V30 6759 H 641.517 -0.303032 2.97863 0
M  V30 6760 H 639.063 -0.144314 1.43275 0
M  V30 6761 H 641.016 -2.72885 3.2111 0
M  V30 6762 H 639.74 -2.60118 1.975 0
M  V30 6763 H 638.399 -1.10572 3.49527 0
M  V30 6764 H 638.047 -3.58152 3.5318 0
M  V30 6765 H 637.747 -2.86025 5.13287 0
M  V30 6766 H 639.271 -3.74073 4.82599 0
M  V30 6767 H 640.685 -1.57546 5.51228 0
M  V30 6768 H 639.082 -0.905006 5.93237 0
M  V30 6769 H 640.152 0.00297335 4.849 0
M  V30 6770 N 641.495 -1.56914 -0.146875 0
M  V30 6771 C 642.458 -1.97368 -1.16526 0
M  V30 6772 C 643.458 -0.860223 -1.35856 0
M  V30 6773 O 644.648 -1.12684 -1.32846 0
M  V30 6774 C 641.78 -2.28974 -2.52555 0
M  V30 6775 H 642.973 -2.88523 -0.818209 0
M  V30 6776 H 640.526 -1.5135 -0.390221 0
M  V30 6777 H 641.261 -1.40611 -2.92231 0
M  V30 6778 H 641.046 -3.10157 -2.39886 0
M  V30 6779 H 642.536 -2.61109 -3.25902 0
M  V30 6780 N 642.974 0.416227 -1.52004 0
M  V30 6781 C 644.199 1.19029 -1.69843 0
M  V30 6782 C 644.624 1.83708 -0.404103 0
M  V30 6783 O 643.982 1.69711 0.637787 0
M  V30 6784 C 644.03 2.23439 -2.83032 0
M  V30 6785 O 643.134 3.29419 -2.48106 0
M  V30 6786 H 642.475 0.347785 -0.565634 0
M  V30 6787 H 645.005 0.488871 -1.98674 0
M  V30 6788 H 645.015 2.67884 -3.07737 0
M  V30 6789 H 643.69 1.75745 -3.76944 0
M  V30 6790 H 642.267 2.90303 -2.34048 0
M  V30 6791 N 644.452 1.42507 0.673017 0
M  V30 6792 C 645.698 1.43284 1.43519 0
M  V30 6793 C 646.031 0.049668 1.94136 0
M  V30 6794 O 645.306 -0.926369 1.71022 0
M  V30 6795 C 645.589 2.45874 2.63093 0
M  V30 6796 C 645.442 3.93388 2.18096 0
M  V30 6797 C 646.761 2.45431 3.6531 0
M  V30 6798 H 643.88 0.521752 0.520522 0
M  V30 6799 H 646.522 1.73932 0.764701 0
M  V30 6800 H 644.672 2.19869 3.20296 0
M  V30 6801 H 646.344 4.30379 1.66046 0
M  V30 6802 H 644.587 4.07169 1.49652 0
M  V30 6803 H 645.258 4.60752 3.03993 0
M  V30 6804 H 647.734 2.68561 3.17827 0
M  V30 6805 H 646.61 3.19189 4.46553 0
M  V30 6806 H 646.871 1.48092 4.16559 0
M  V30 6807 N 645.93 -0.909495 1.28709 0
M  V30 6808 C 647.178 -1.65577 1.15882 0
M  V30 6809 C 647.499 -1.928 -0.292108 0
M  V30 6810 O 646.769 -1.54716 -1.20166 0
M  V30 6811 H 645.349 -0.613714 0.425869 0
M  V30 6812 H 648.011 -1.09108 1.61498 0
M  V30 6813 H 647.107 -2.61634 1.70159 0
M  V30 6814 N 647.408 -1.11026 -1.11852 0
M  V30 6815 C 648.371 -0.768006 -2.1595 0
M  V30 6816 C 649.371 0.210538 -1.59416 0
M  V30 6817 O 650.561 -0.0133978 -1.74195 0
M  V30 6818 C 647.693 -0.138678 -3.40618 0
M  V30 6819 H 648.886 -1.69012 -2.4774 0
M  V30 6820 H 646.439 -0.911578 -1.26964 0
M  V30 6821 H 647.174 0.793872 -3.14433 0
M  V30 6822 H 646.959 -0.843012 -3.8293 0
M  V30 6823 H 648.449 0.0848039 -4.17514 0
M  V30 6824 N 648.886 1.2938 -0.899927 0
M  V30 6825 C 649.849 2.25983 -0.382677 0
M  V30 6826 C 650.849 1.53366 0.483259 0
M  V30 6827 O 652.039 1.71798 0.28828 0
M  V30 6828 C 649.171 3.37878 0.452915 0
M  V30 6829 H 650.364 2.73252 -1.23586 0
M  V30 6830 H 647.917 1.40825 -0.678088 0
M  V30 6831 H 648.652 2.95949 1.32608 0
M  V30 6832 H 648.437 3.91742 -0.167562 0
M  V30 6833 H 649.927 4.09746 0.806107 0
M  V30 6834 N 650.364 0.662433 1.43002 0
M  V30 6835 C 651.589 0.186003 2.06564 0
M  V30 6836 C 652.014 -1.14314 1.49379 0
M  V30 6837 O 651.372 -1.70824 0.607346 0
M  V30 6838 C 651.42 0.118269 3.60406 0
M  V30 6839 O 650.524 -0.916859 4.02079 0
M  V30 6840 H 649.865 0.0990981 0.656563 0
M  V30 6841 H 652.395 0.907958 1.8335 0
M  V30 6842 H 652.405 -0.0619981 4.07953 0
M  V30 6843 H 651.08 1.08849 4.01403 0
M  V30 6844 H 649.657 -0.708635 3.66105 0
M  V30 6845 N 651.842 -1.52309 0.404946 0
M  V30 6846 C 653.091 -2.00952 -0.173529 0
M  V30 6847 C 653.404 -1.29512 -1.46581 0
M  V30 6848 O 654.61 -1.6895 -2.12528 0
M  V30 6849 C 653.066 -3.58097 -0.359801 0
M  V30 6850 C 652.674 -4.38449 0.920138 0
M  V30 6851 C 654.418 -4.14984 -0.893794 0
M  V30 6852 C 652.325 -5.87227 0.701285 0
M  V30 6853 H 651.255 -0.750871 -0.0686244 0
M  V30 6854 H 653.906 -1.75687 0.529749 0
M  V30 6855 H 652.288 -3.79675 -1.12531 0
M  V30 6856 H 653.462 -4.28633 1.69147 0
M  V30 6857 H 651.777 -3.92859 1.38024 0
M  V30 6858 H 654.374 -5.23813 -1.0735 0
M  V30 6859 H 654.717 -3.72072 -1.8673 0
M  V30 6860 H 655.25 -3.97358 -0.187453 0
M  V30 6861 H 651.989 -6.34491 1.64624 0
M  V30 6862 H 651.509 -5.99792 -0.0308288 0
M  V30 6863 H 653.188 -6.46096 0.341846 0
M  V30 6864 N 653.32 -0.135238 -1.57019 0
M  V30 6865 C 654.731 0.387521 -1.82634 0
M  V30 6866 C 655.082 1.65528 -1.05332 0
M  V30 6867 O 654.207 2.14381 -0.294926 0
M  V30 6868 C 654.802 0.709852 -3.3128 0
M  V30 6869 C 653.361 1.17718 -3.57518 0
M  V30 6870 C 652.508 0.194183 -2.76619 0
M  V30 6871 H 655.459 -0.360126 -1.5456 0
M  V30 6872 H 655.48 1.5657 -3.46794 0
M  V30 6873 H 654.992 -0.213024 -3.87515 0
M  V30 6874 H 653.093 2.1164 -3.06658 0
M  V30 6875 H 653.206 1.11128 -4.66034 0
M  V30 6876 H 651.57 0.684478 -2.4533 0
M  V30 6877 H 652.353 -0.722076 -3.3562 0
M  V30 6878 N 654.798 1.5699 0.138552 0
M  V30 6879 C 656.023 1.88344 0.86841 0
M  V30 6880 C 656.448 0.725159 1.7356 0
M  V30 6881 O 655.806 -0.324992 1.78363 0
M  V30 6882 C 655.854 3.18334 1.69398 0
M  V30 6883 O 654.958 3.02863 2.79907 0
M  V30 6884 H 654.299 0.618577 0.241367 0
M  V30 6885 H 656.829 2.04207 0.126826 0
M  V30 6886 H 656.839 3.50567 2.08726 0
M  V30 6887 H 655.514 4.02238 1.05725 0
M  V30 6888 H 654.091 2.82056 2.43924 0
M  V30 6889 N 656.276 -0.40816 1.52223 0
M  V30 6890 C 657.239 -1.48 1.7501 0
M  V30 6891 C 658.239 -1.48367 0.619996 0
M  V30 6892 O 659.429 -1.49874 0.887881 0
M  V30 6893 C 656.561 -2.87403 1.83336 0
M  V30 6894 H 657.754 -1.29086 2.70697 0
M  V30 6895 H 655.307 -0.638715 1.42654 0
M  V30 6896 H 656.042 -3.11686 0.895677 0
M  V30 6897 H 655.827 -2.8854 2.65494 0
M  V30 6898 H 657.317 -3.65103 2.02705 0
M  V30 6899 N 657.755 -1.42862 -0.66545 0
M  V30 6900 C 659.003 -1.43546 -1.42264 0
M  V30 6901 C 659.324 -0.0563116 -1.94919 0
M  V30 6902 O 658.594 0.906568 -1.73661 0
M  V30 6903 H 657.174 -0.528464 -0.527953 0
M  V30 6904 H 659.836 -1.78363 -0.785665 0
M  V30 6905 H 658.932 -2.14079 -2.27105 0
M  V30 6906 N 659.233 0.902656 -1.29189 0
M  V30 6907 C 660.163 2.02294 -1.16616 0
M  V30 6908 C 661.144 1.6999 -0.0611175 0
M  V30 6909 O 662.329 1.9271 -0.240072 0
M  V30 6910 C 659.459 3.37018 -0.83882 0
M  V30 6911 C 658.413 3.83522 -1.89986 0
M  V30 6912 C 657.739 5.15337 -1.42589 0
M  V30 6913 C 659.039 4.04169 -3.30824 0
M  V30 6914 H 660.733 2.13071 -2.10336 0
M  V30 6915 H 658.279 1.02378 -1.01266 0
M  V30 6916 H 660.232 4.14895 -0.737584 0
M  V30 6917 H 658.956 3.26325 0.134071 0
M  V30 6918 H 657.615 3.07859 -1.99043 0
M  V30 6919 H 657.263 5.01056 -0.441759 0
M  V30 6920 H 656.963 5.47423 -2.13547 0
M  V30 6921 H 658.487 5.95758 -1.3381 0
M  V30 6922 H 659.901 4.72537 -3.24626 0
M  V30 6923 H 658.298 4.47604 -3.99713 0
M  V30 6924 H 659.368 3.08604 -3.74021 0
M  V30 6925 N 660.711 1.11618 1.11262 0
M  V30 6926 C 661.957 0.867463 1.83311 0
M  V30 6927 C 662.29 -0.605366 1.84524 0
M  V30 6928 O 661.565 -1.44704 1.29965 0
M  V30 6929 C 661.848 1.43207 3.30399 0
M  V30 6930 C 661.701 2.97265 3.3757 0
M  V30 6931 C 663.02 1.08454 4.26528 0
M  V30 6932 H 660.139 0.316578 0.665543 0
M  V30 6933 H 662.781 1.38137 1.30454 0
M  V30 6934 H 660.931 0.994982 3.75543 0
M  V30 6935 H 662.603 3.49591 3.00971 0
M  V30 6936 H 660.846 3.33237 2.77733 0
M  V30 6937 H 661.517 3.31859 4.41105 0
M  V30 6938 H 663.993 1.4619 3.89574 0
M  V30 6939 H 662.869 1.50633 5.27826 0
M  V30 6940 H 663.13 -0.00444568 4.421 0
M  V30 6941 N 662.189 -1.289 0.906776 0
M  V30 6942 C 663.417 -1.99401 0.551969 0
M  V30 6943 C 663.832 -1.67816 -0.865048 0
M  V30 6944 O 663.189 -0.927078 -1.57199 0
M  V30 6945 C 663.24 -3.53779 0.743152 0
M  V30 6946 O 662.961 -3.84248 2.1044 0
M  V30 6947 C 664.462 -4.41543 0.39424 0
M  V30 6948 H 661.682 -0.636926 0.211106 0
M  V30 6949 H 664.226 -1.64266 1.21807 0
M  V30 6950 H 662.381 -3.87201 0.124143 0
M  V30 6951 H 662.795 -4.78904 2.13895 0
M  V30 6952 H 664.269 -5.48957 0.578814 0
M  V30 6953 H 664.746 -4.34073 -0.669137 0
M  V30 6954 H 665.352 -4.13605 0.990491 0
M  V30 6955 N 663.667 -0.670007 -1.42649 0
M  V30 6956 C 664.6 0.0613623 -2.28117 0
M  V30 6957 C 665.578 0.813414 -1.40792 0
M  V30 6958 O 666.762 0.809529 -1.70232 0
M  V30 6959 C 663.889 1.09399 -3.20546 0
M  V30 6960 C 662.935 0.438064 -4.24244 0
M  V30 6961 S 663.768 -0.800808 -5.29478 0
M  V30 6962 C 664.924 0.23086 -6.25474 0
M  V30 6963 H 665.157 -0.663606 -2.89799 0
M  V30 6964 H 662.69 -0.45939 -1.47407 0
M  V30 6965 H 664.648 1.68469 -3.74337 0
M  V30 6966 H 663.309 1.79137 -2.58009 0
M  V30 6967 H 662.502 1.21707 -4.89084 0
M  V30 6968 H 662.104 -0.0789346 -3.73917 0
M  V30 6969 H 664.396 1.09204 -6.68641 0
M  V30 6970 H 665.339 -0.382945 -7.07064 0
M  V30 6971 H 665.747 0.574191 -5.61572 0
M  V30 6972 N 665.145 1.52092 -0.413018 0
M  V30 6973 C 666.075 2.30021 0.401567 0
M  V30 6974 C 667.056 1.34395 1.04269 0
M  V30 6975 O 668.241 1.63304 1.05097 0
M  V30 6976 C 665.371 3.12447 1.51638 0
M  V30 6977 C 664.325 4.16153 1.00005 0
M  V30 6978 C 663.651 4.86948 2.20875 0
M  V30 6979 C 664.951 5.22275 0.0513757 0
M  V30 6980 H 666.645 2.98365 -0.248704 0
M  V30 6981 H 664.191 1.4349 -0.121052 0
M  V30 6982 H 666.144 3.65733 2.09326 0
M  V30 6983 H 664.868 2.41879 2.19458 0
M  V30 6984 H 663.527 3.63882 0.445549 0
M  V30 6985 H 663.175 4.12905 2.8726 0
M  V30 6986 H 662.875 5.57057 1.86978 0
M  V30 6987 H 664.399 5.43048 2.79162 0
M  V30 6988 H 665.813 5.70778 0.537176 0
M  V30 6989 H 664.21 5.9977 -0.198977 0
M  V30 6990 H 665.28 4.76611 -0.892736 0
M  V30 6991 N 666.623 0.143563 1.56945 0
M  V30 6992 C 667.553 -0.7936 2.196 0
M  V30 6993 C 668.534 -1.25955 1.14321 0
M  V30 6994 O 669.719 -1.31773 1.42651 0
M  V30 6995 C 666.849 -2.03424 2.81489 0
M  V30 6996 C 665.803 -1.70519 3.92565 0
M  V30 6997 C 665.129 -3.01817 4.41373 0
M  V30 6998 C 666.429 -0.95449 5.13504 0
M  V30 6999 H 668.123 -0.271423 2.98167 0
M  V30 7000 H 665.669 -0.12911 1.4342 0
M  V30 7001 H 667.622 -2.69463 3.23987 0
M  V30 7002 H 666.346 -2.58008 2.00248 0
M  V30 7003 H 665.005 -1.06859 3.5068 0
M  V30 7004 H 664.653 -3.54386 3.56959 0
M  V30 7005 H 664.353 -2.80565 5.16292 0
M  V30 7006 H 665.877 -3.68934 4.86539 0
M  V30 7007 H 667.291 -1.5169 5.52868 0
M  V30 7008 H 665.688 -0.842035 5.94163 0
M  V30 7009 H 666.758 0.0544033 4.84869 0
M  V30 7010 N 668.101 -1.57061 -0.130224 0
M  V30 7011 C 669.35 -1.83446 -0.838488 0
M  V30 7012 C 669.663 -0.727468 -1.81569 0
M  V30 7013 O 670.869 -0.877394 -2.56932 0
M  V30 7014 C 669.325 -3.25201 -1.54182 0
M  V30 7015 C 668.933 -4.4388 -0.606178 0
M  V30 7016 C 670.677 -3.60844 -2.23588 0
M  V30 7017 C 668.584 -5.76661 -1.31209 0
M  V30 7018 H 667.514 -0.684185 -0.316871 0
M  V30 7019 H 670.165 -1.83273 -0.0912059 0
M  V30 7020 H 668.547 -3.1981 -2.33533 0
M  V30 7021 H 669.721 -4.60545 0.153308 0
M  V30 7022 H 668.036 -4.16395 -0.0196705 0
M  V30 7023 H 670.633 -4.57313 -2.77072 0
M  V30 7024 H 670.976 -2.87724 -3.00867 0
M  V30 7025 H 671.509 -3.67971 -1.51137 0
M  V30 7026 H 668.248 -6.52922 -0.580823 0
M  V30 7027 H 667.768 -5.63902 -2.04387 0
M  V30 7028 H 669.447 -6.20035 -1.8484 0
M  V30 7029 N 669.579 0.400081 -1.52437 0
M  V30 7030 C 670.509 1.4947 -1.7939 0
M  V30 7031 C 671.49 1.57383 -0.645329 0
M  V30 7032 O 672.675 1.72511 -0.891826 0
M  V30 7033 C 669.805 2.87201 -1.95276 0
M  V30 7034 C 668.759 2.94134 -3.10917 0
M  V30 7035 C 668.085 4.34207 -3.1204 0
M  V30 7036 C 669.385 2.64791 -4.50203 0
M  V30 7037 H 671.079 1.27165 -2.71052 0
M  V30 7038 H 668.625 0.610312 -1.30427 0
M  V30 7039 H 670.578 3.63772 -2.12715 0
M  V30 7040 H 669.302 3.10819 -1.00294 0
M  V30 7041 H 667.961 2.20009 -2.93243 0
M  V30 7042 H 667.609 4.54848 -2.14761 0
M  V30 7043 H 667.309 4.39768 -3.89715 0
M  V30 7044 H 668.833 5.127 -3.31619 0
M  V30 7045 H 670.247 3.31083 -4.68035 0
M  V30 7046 H 668.644 2.81717 -5.29864 0
M  V30 7047 H 669.714 1.60184 -4.57678 0
M  V30 7048 N 671.057 1.43213 0.657864 0
M  V30 7049 C 672.285 1.48015 1.44566 0
M  V30 7050 C 672.7 0.0965951 1.88553 0
M  V30 7051 O 672.057 -0.892221 1.59203 0
M  V30 7052 C 672.108 2.42199 2.68369 0
M  V30 7053 O 671.829 3.75173 2.26223 0
M  V30 7054 C 673.33 2.56195 3.61772 0
M  V30 7055 H 670.55 0.502861 0.444266 0
M  V30 7056 H 673.094 1.87907 0.806917 0
M  V30 7057 H 671.249 2.05514 3.28394 0
M  V30 7058 H 671.663 4.25776 3.06293 0
M  V30 7059 H 673.137 3.26182 4.4532 0
M  V30 7060 H 673.614 1.60534 4.0881 0
M  V30 7061 H 674.22 2.93671 3.07632 0
M  V30 7062 N 672.536 -0.895792 1.29666 0
M  V30 7063 C 673.499 -1.98189 1.15124 0
M  V30 7064 C 674.499 -1.60572 0.0855717 0
M  V30 7065 O 675.689 -1.70991 0.332826 0
M  V30 7066 C 672.821 -3.32289 0.761372 0
M  V30 7067 H 674.014 -2.12518 2.11603 0
M  V30 7068 H 671.567 -1.0808 1.12908 0
M  V30 7069 H 672.302 -3.23662 -0.203393 0
M  V30 7070 H 672.087 -3.60958 1.53139 0
M  V30 7071 H 673.577 -4.1198 0.682792 0
M  V30 7072 N 674.014 -1.12206 -1.10668 0
M  V30 7073 C 675.26 -0.877172 -1.82848 0
M  V30 7074 C 675.593 0.595571 -1.84842 0
M  V30 7075 O 674.868 1.44013 -1.30731 0
M  V30 7076 C 675.151 -1.44957 -3.29635 0
M  V30 7077 C 675.004 -2.99051 -3.35989 0
M  V30 7078 C 676.323 -1.10714 -4.25946 0
M  V30 7079 H 673.442 -0.320103 -0.663854 0
M  V30 7080 H 676.084 -1.38827 -1.2972 0
M  V30 7081 H 674.234 -1.01488 -3.7501 0
M  V30 7082 H 675.906 -3.51182 -2.99113 0
M  V30 7083 H 674.149 -3.34705 -2.75962 0
M  V30 7084 H 674.82 -3.34194 -4.39339 0
M  V30 7085 H 677.296 -1.48254 -3.88793 0
M  V30 7086 H 676.172 -1.5343 -5.2702 0
M  V30 7087 H 676.433 -0.019 -4.42096 0
M  V30 7088 N 675.492 1.28418 -0.913599 0
M  V30 7089 C 676.74 1.94596 -0.545594 0
M  V30 7090 C 677.061 1.7227 0.913668 0
M  V30 7091 O 676.331 1.06233 1.64595 0
M  V30 7092 H 674.911 0.720065 -0.198783 0
M  V30 7093 H 677.573 1.56404 -1.16292 0
M  V30 7094 H 676.669 3.03202 -0.739911 0
M  V30 7095 N 676.97 0.677563 1.42291 0
M  V30 7096 C 677.9 0.014968 2.33495 0
M  V30 7097 C 678.881 -0.786376 1.50831 0
M  V30 7098 O 680.066 -0.742975 1.79426 0
M  V30 7099 C 677.196 -0.935023 3.34477 0
M  V30 7100 C 676.15 -0.242074 4.27315 0
M  V30 7101 C 675.476 -1.30519 5.18526 0
M  V30 7102 C 676.776 0.880604 5.14823 0
M  V30 7103 H 678.47 0.776671 2.89151 0
M  V30 7104 H 676.016 0.37494 1.39033 0
M  V30 7105 H 677.969 -1.40766 3.97194 0
M  V30 7106 H 676.693 -1.72818 2.77131 0
M  V30 7107 H 675.352 0.210351 3.65996 0
M  V30 7108 H 675 -2.09041 4.57505 0
M  V30 7109 H 674.7 -0.846652 5.81468 0
M  V30 7110 H 676.224 -1.7787 5.84119 0
M  V30 7111 H 677.638 0.489062 5.7121 0
M  V30 7112 H 676.035 1.26511 5.86613 0
M  V30 7113 H 677.105 1.72818 4.53059 0
M  V30 7114 N 678.448 -1.51871 0.421078 0
M  V30 7115 C 679.859 -1.86644 -0.0457991 0
M  V30 7116 C 680.21 -1.33919 -1.43388 0
M  V30 7117 O 679.335 -0.683316 -2.05328 0
M  V30 7118 C 679.93 -3.38681 -0.0898844 0
M  V30 7119 C 678.489 -3.73049 -0.501127 0
M  V30 7120 C 677.636 -2.75485 0.316723 0
M  V30 7121 H 680.587 -1.45327 0.637635 0
M  V30 7122 H 680.608 -3.69636 -0.902734 0
M  V30 7123 H 680.12 -3.77025 0.920513 0
M  V30 7124 H 678.221 -3.40288 -1.51773 0
M  V30 7125 H 678.334 -4.78512 -0.237217 0
M  V30 7126 H 676.698 -2.53725 -0.222663 0
M  V30 7127 H 677.481 -3.16671 1.32569 0
M  V30 7128 N 679.926 -0.151884 -1.56866 0
M  V30 7129 C 681.154 0.504813 -2.00647 0
M  V30 7130 C 681.569 1.58098 -1.03201 0
M  V30 7131 O 680.926 1.82476 -0.0297814 0
M  V30 7132 C 680.977 1.10099 -3.44326 0
M  V30 7133 O 680.698 0.0678021 -4.38048 0
M  V30 7134 C 682.199 1.83782 -4.03409 0
M  V30 7135 H 679.419 0.130989 -0.65809 0
M  V30 7136 H 681.963 -0.247903 -2.02992 0
M  V30 7137 H 680.118 1.8043 -3.42817 0
M  V30 7138 H 680.532 0.505237 -5.22061 0
M  V30 7139 H 682.006 2.2078 -5.05925 0
M  V30 7140 H 682.483 2.72557 -3.44397 0
M  V30 7141 H 683.089 1.18138 -4.08563 0
M  V30 7142 N 681.404 1.57128 0.121893 0
M  V30 7143 C 682.314 2.03425 1.16857 0
M  V30 7144 C 683.33 0.954108 1.45509 0
M  V30 7145 O 684.506 1.26541 1.56682 0
M  V30 7146 C 681.571 2.42685 2.47599 0
M  V30 7147 C 680.632 3.64767 2.2637 0
M  V30 7148 C 679.865 4.02145 3.50878 0
M  V30 7149 O 680.088 3.39897 4.58068 0
M  V30 7150 O 679.022 4.95262 3.42051 0
M  V30 7151 H 682.848 2.92825 0.80544 0
M  V30 7152 H 680.433 1.45654 0.332477 0
M  V30 7153 H 682.315 2.68684 3.24634 0
M  V30 7154 H 680.99 1.56432 2.83392 0
M  V30 7155 H 679.897 3.43922 1.47203 0
M  V30 7156 H 681.23 4.51716 1.95482 0
M  V30 7157 N 682.882 -0.391992 1.52647 0
M  V30 7158 C 684.159 -1.15136 1.58123 0
M  V30 7159 C 684.539 -2.07786 0.372597 0
M  V30 7160 O 683.887 -2.19374 -0.639304 0
M  V30 7161 C 684.097 -1.91367 2.91856 0
M  V30 7162 C 685.445 -2.46833 3.45483 0
M  V30 7163 O 686.469 -2.01527 2.9371 0
M  V30 7164 O 685.328 -3.29587 4.3593 0
M  V30 7165 H 682.422 -0.526649 0.637629 0
M  V30 7166 H 684.968 -0.397386 1.64982 0
M  V30 7167 H 683.74 -1.23597 3.71268 0
M  V30 7168 H 683.363 -2.73732 2.88369 0
M  V30 7169 N 684.36 -1.4356 -0.65026 0
M  V30 7170 C 685.609 -1.44619 -1.406 0
M  V30 7171 C 685.922 -0.0752645 -1.95455 0
M  V30 7172 O 687.128 0.0366832 -2.71475 0
M  V30 7173 C 685.584 -2.54511 -2.54465 0
M  V30 7174 C 685.192 -3.97723 -2.06204 0
M  V30 7175 C 686.936 -2.64768 -3.31811 0
M  V30 7176 C 684.843 -4.99075 -3.17298 0
M  V30 7177 H 683.773 -0.537983 -0.52829 0
M  V30 7178 H 686.424 -1.69559 -0.701561 0
M  V30 7179 H 684.806 -2.22777 -3.27393 0
M  V30 7180 H 685.98 -4.38932 -1.40267 0
M  V30 7181 H 684.295 -3.91538 -1.41729 0
M  V30 7182 H 686.892 -3.37664 -4.14593 0
M  V30 7183 H 687.235 -1.69936 -3.80036 0
M  V30 7184 H 687.768 -2.95817 -2.65964 0
M  V30 7185 H 684.507 -5.95469 -2.74038 0
M  V30 7186 H 684.027 -4.62476 -3.81937 0
M  V30 7187 H 685.706 -5.21913 -3.82382 0
M  V30 7188 N 685.838 0.888903 -1.30139 0
M  V30 7189 C 687.063 1.67884 -1.21777 0
M  V30 7190 C 687.488 1.86848 0.216689 0
M  V30 7191 O 686.846 1.39659 1.15608 0
M  V30 7192 C 686.894 3.03483 -1.94757 0
M  V30 7193 O 685.998 3.92294 -1.27198 0
M  V30 7194 H 685.339 0.513144 -0.421402 0
M  V30 7195 H 687.869 1.10968 -1.71893 0
M  V30 7196 H 687.879 3.53553 -2.03627 0
M  V30 7197 H 686.554 2.89 -2.99085 0
M  V30 7198 H 685.131 3.50732 -1.26655 0
M  V30 7199 N 687.317 1.12792 1.10072 0
M  V30 7200 C 688.247 0.821688 2.18565 0
M  V30 7201 C 689.228 -0.21612 1.68721 0
M  V30 7202 O 690.413 -0.0764932 1.94049 0
M  V30 7203 C 687.543 0.279624 3.46172 0
M  V30 7204 C 686.497 1.25092 4.09312 0
M  V30 7205 C 685.823 0.568916 5.31665 0
M  V30 7206 C 687.123 2.60699 4.52585 0
M  V30 7207 H 688.817 1.72888 2.44438 0
M  V30 7208 H 686.363 0.832702 1.17482 0
M  V30 7209 H 688.316 0.053099 4.21367 0
M  V30 7210 H 687.04 -0.662929 3.19801 0
M  V30 7211 H 685.699 1.46332 3.36129 0
M  V30 7212 H 685.347 -0.378898 5.01571 0
M  V30 7213 H 685.047 1.21687 5.74862 0
M  V30 7214 H 686.571 0.351517 6.09587 0
M  V30 7215 H 687.985 2.43465 5.19035 0
M  V30 7216 H 686.382 3.21608 5.06644 0
M  V30 7217 H 687.452 3.1886 3.65317 0
M  V30 7218 N 688.795 -1.27931 0.920396 0
M  V30 7219 C 689.725 -2.29487 0.431024 0
M  V30 7220 C 690.706 -1.62435 -0.504861 0
M  V30 7221 O 691.891 -1.89797 -0.411176 0
M  V30 7222 C 689.021 -3.45788 -0.323709 0
M  V30 7223 C 687.975 -4.24784 0.523658 0
M  V30 7224 C 687.301 -5.33488 -0.359809 0
M  V30 7225 C 688.601 -4.90874 1.78437 0
M  V30 7226 H 690.295 -2.70671 1.27975 0
M  V30 7227 H 687.841 -1.30121 0.616813 0
M  V30 7228 H 689.794 -4.15927 -0.676952 0
M  V30 7229 H 688.518 -3.03502 -1.2064 0
M  V30 7230 H 687.177 -3.56382 0.85951 0
M  V30 7231 H 686.825 -4.87445 -1.24124 0
M  V30 7232 H 686.525 -5.87247 0.203605 0
M  V30 7233 H 688.049 -6.06472 -0.708787 0
M  V30 7234 H 689.463 -5.53339 1.49963 0
M  V30 7235 H 687.86 -5.54659 2.29071 0
M  V30 7236 H 688.93 -4.14988 2.50824 0
M  V30 7237 N 690.273 -0.685099 -1.4193 0
M  V30 7238 C 691.519 -0.211971 -2.01689 0
M  V30 7239 C 691.852 1.18189 -1.54094 0
M  V30 7240 O 691.127 1.79559 -0.747572 0
M  V30 7241 C 691.41 -0.258019 -3.59174 0
M  V30 7242 C 691.263 -1.68807 -4.16922 0
M  V30 7243 C 692.582 0.388044 -4.38386 0
M  V30 7244 H 689.701 -0.0784987 -0.732808 0
M  V30 7245 H 692.343 -0.871837 -1.68816 0
M  V30 7246 H 690.493 0.303832 -3.8731 0
M  V30 7247 H 692.165 -2.30296 -3.99702 0
M  V30 7248 H 690.408 -2.22553 -3.72361 0
M  V30 7249 H 691.079 -1.6719 -5.26072 0
M  V30 7250 H 693.555 -0.0903432 -4.16002 0
M  V30 7251 H 692.431 0.325232 -5.47936 0
M  V30 7252 H 692.692 1.4672 -4.17044 0
M  V30 7253 N 691.751 1.51645 -0.429126 0
M  V30 7254 C 692.714 2.26116 0.374726 0
M  V30 7255 C 693.714 1.29242 0.956714 0
M  V30 7256 O 694.904 1.53022 0.832452 0
M  V30 7257 C 692.036 3.04669 1.52937 0
M  V30 7258 H 693.229 2.9861 -0.277818 0
M  V30 7259 H 690.782 1.55236 -0.182097 0
M  V30 7260 H 691.517 2.36571 2.21821 0
M  V30 7261 H 691.302 3.75814 1.11833 0
M  V30 7262 H 692.792 3.61102 2.09751 0
M  V30 7263 N 693.229 0.160201 1.56784 0
M  V30 7264 C 694.475 -0.48831 1.96833 0
M  V30 7265 C 694.808 -1.63641 1.04571 0
M  V30 7266 O 694.083 -1.94289 0.0906481 0
M  V30 7267 C 694.366 -0.981908 3.46454 0
M  V30 7268 C 694.219 0.165607 4.49495 0
M  V30 7269 C 695.538 -1.85931 3.98896 0
M  V30 7270 H 692.657 -0.176027 0.71567 0
M  V30 7271 H 695.299 0.244093 1.88426 0
M  V30 7272 H 693.449 -1.60602 3.5375 0
M  V30 7273 H 695.121 0.802372 4.54268 0
M  V30 7274 H 693.364 0.822789 4.25926 0
M  V30 7275 H 694.035 -0.221699 5.51555 0
M  V30 7276 H 696.511 -1.33327 3.94161 0
M  V30 7277 H 695.387 -2.17373 5.04024 0
M  V30 7278 H 695.648 -2.80106 3.42042 0
M  V30 7279 N 694.707 -1.5719 -0.113559 0
M  V30 7280 C 695.984 -1.76117 -0.850999 0
M  V30 7281 C 696.364 -0.737085 -1.97814 0
M  V30 7282 O 695.712 0.237942 -2.27258 0
M  V30 7283 C 695.922 -3.21298 -1.36266 0
M  V30 7284 C 697.27 -3.83955 -1.81283 0
M  V30 7285 O 698.294 -3.24934 -1.45933 0
M  V30 7286 O 697.153 -4.87707 -2.46585 0
M  V30 7287 H 694.247 -0.721308 -0.404529 0
M  V30 7288 H 696.793 -1.69423 -0.0968756 0
M  V30 7289 H 695.565 -3.87355 -0.554235 0
M  V30 7290 H 695.188 -3.32552 -2.17933 0
M  V30 7291 N 696.185 0.383891 -1.52853 0
M  V30 7292 C 697.431 1.12667 -1.69345 0
M  V30 7293 C 697.786 1.87519 -0.430635 0
M  V30 7294 O 697.079 1.82742 0.575846 0
M  V30 7295 C 697.273 2.12881 -2.87082 0
M  V30 7296 C 697.102 1.47873 -4.24692 0
M  V30 7297 C 695.872 1.24064 -4.89833 0
M  V30 7298 C 698.07 0.926118 -5.05893 0
M  V30 7299 N 696.052 0.552138 -6.11412 0
M  V30 7300 C 697.423 0.365966 -6.18919 0
M  V30 7301 C 699.478 0.823023 -4.91051 0
M  V30 7302 C 698.181 -0.287204 -7.18726 0
M  V30 7303 C 700.207 0.183666 -5.91115 0
M  V30 7304 C 699.569 -0.365693 -7.0345 0
M  V30 7305 H 695.668 0.398064 -0.673104 0
M  V30 7306 H 698.252 0.415504 -1.90215 0
M  V30 7307 H 696.423 2.81329 -2.67784 0
M  V30 7308 H 698.155 2.79703 -2.92486 0
M  V30 7309 H 694.91 1.51701 -4.48647 0
M  V30 7310 H 695.334 0.223783 -6.7663 0
M  V30 7311 H 699.976 1.23354 -4.04405 0
M  V30 7312 H 697.694 -0.709719 -8.04977 0
M  V30 7313 H 701.28 0.105074 -5.81705 0
M  V30 7314 H 700.16 -0.85261 -7.79551 0
M  V30 7315 N 697.663 1.43903 0.642637 0
M  V30 7316 C 698.593 1.52697 1.76652 0
M  V30 7317 C 699.574 0.380816 1.65782 0
M  V30 7318 O 700.759 0.599432 1.84717 0
M  V30 7319 C 697.889 1.45975 3.15133 0
M  V30 7320 C 696.843 2.58949 3.40778 0
M  V30 7321 C 696.169 2.37279 4.79169 0
M  V30 7322 C 697.469 4.01153 3.34475 0
M  V30 7323 H 699.163 2.46766 1.69549 0
M  V30 7324 H 696.709 1.18767 0.814279 0
M  V30 7325 H 698.662 1.5073 3.93521 0
M  V30 7326 H 697.386 0.484162 3.22991 0
M  V30 7327 H 696.045 2.53564 2.64765 0
M  V30 7328 H 695.693 1.37939 4.83717 0
M  V30 7329 H 695.393 3.13016 4.97287 0
M  V30 7330 H 696.917 2.43834 5.59801 0
M  V30 7331 H 698.331 4.07968 4.02784 0
M  V30 7332 H 696.728 4.77001 3.64129 0
M  V30 7333 H 697.798 4.25539 2.32475 0
M  V30 7334 N 699.141 -0.881989 1.30609 0
M  V30 7335 C 700.071 -2.00413 1.1982 0
M  V30 7336 C 701.052 -1.69871 0.0881538 0
M  V30 7337 O 702.237 -1.92304 0.2707 0
M  V30 7338 C 699.367 -3.35641 0.89233 0
M  V30 7339 C 698.321 -3.80451 1.96064 0
M  V30 7340 C 697.647 -5.13003 1.5077 0
M  V30 7341 C 698.947 -3.98855 3.37213 0
M  V30 7342 H 700.641 -2.09698 2.13699 0
M  V30 7343 H 698.187 -1.00754 1.02882 0
M  V30 7344 H 700.14 -4.13669 0.803497 0
M  V30 7345 H 698.864 -3.26497 -0.0821381 0
M  V30 7346 H 697.523 -3.04654 2.03916 0
M  V30 7347 H 697.171 -5.0029 0.521417 0
M  V30 7348 H 696.871 -5.43956 2.22229 0
M  V30 7349 H 698.395 -5.93554 1.43271 0
M  V30 7350 H 699.809 -4.67312 3.32103 0
M  V30 7351 H 698.206 -4.41188 4.06784 0
M  V30 7352 H 699.276 -3.02614 3.78883 0
M  V30 7353 N 700.619 -1.13374 -1.09472 0
M  V30 7354 C 701.896 -0.806329 -1.78207 0
M  V30 7355 C 702.276 0.702191 -1.99079 0
M  V30 7356 O 701.624 1.63931 -1.59182 0
M  V30 7357 C 701.834 -1.59271 -3.10538 0
M  V30 7358 C 703.182 -1.78509 -3.85253 0
M  V30 7359 O 704.206 -1.55866 -3.20288 0
M  V30 7360 O 703.065 -2.16287 -5.01879 0
M  V30 7361 H 700.159 -0.29435 -0.772843 0
M  V30 7362 H 702.705 -1.23833 -1.16033 0
M  V30 7363 H 701.477 -2.61792 -2.90828 0
M  V30 7364 H 701.1 -1.15562 -3.80436 0
M  V30 7365 N 702.098 1.27442 -0.927168 0
M  V30 7366 C 703.514 1.46754 -0.627329 0
M  V30 7367 C 703.714 1.83902 0.823549 0
M  V30 7368 O 702.77 1.95215 1.60148 0
M  V30 7369 C 704.083 2.56045 -1.57674 0
M  V30 7370 C 705.631 2.69906 -1.58491 0
M  V30 7371 C 706.106 3.82355 -2.52128 0
M  V30 7372 N 707.597 3.89728 -2.50332 0
M  V30 7373 C 708.332 4.76155 -3.19475 0
M  V30 7374 N 707.828 5.67073 -3.97995 0
M  V30 7375 N 709.621 4.6988 -3.08496 0
M  V30 7376 H 701.772 1.01613 -1.86517 0
M  V30 7377 H 704.035 0.507443 -0.800753 0
M  V30 7378 H 703.741 2.35542 -2.61176 0
M  V30 7379 H 703.615 3.53423 -1.31804 0
M  V30 7380 H 706.002 2.89792 -0.557208 0
M  V30 7381 H 706.083 1.73018 -1.8841 0
M  V30 7382 H 705.727 3.63224 -3.55008 0
M  V30 7383 H 705.657 4.7867 -2.19505 0
M  V30 7384 H 708.148 3.24717 -1.93306 0
M  V30 7385 H 708.461 6.2988 -4.4774 0
M  V30 7386 H 706.806 5.6687 -4.02098 0
M  V30 7387 H 709.997 3.97848 -2.46646 0
M  V30 7388 H 710.17 5.37017 -3.62652 0
M  V30 7389 N 703.576 0.692616 1.41565 0
M  V30 7390 C 704.509 -0.025063 2.28186 0
M  V30 7391 C 705.487 -0.790912 1.42068 0
M  V30 7392 O 706.671 -0.782344 1.71498 0
M  V30 7393 C 703.798 -1.04285 3.22246 0
M  V30 7394 C 702.844 -0.370515 4.24888 0
M  V30 7395 S 703.677 0.884942 5.28137 0
M  V30 7396 C 704.833 -0.131324 6.25762 0
M  V30 7397 H 705.066 0.709626 2.88707 0
M  V30 7398 H 702.599 0.482783 1.46658 0
M  V30 7399 H 704.557 -1.62493 3.7697 0
M  V30 7400 H 703.218 -1.7501 2.60827 0
M  V30 7401 H 702.411 -1.13911 4.90959 0
M  V30 7402 H 702.013 0.138411 3.73744 0
M  V30 7403 H 704.305 -0.985527 6.70294 0
M  V30 7404 H 705.248 0.495384 7.06365 0
M  V30 7405 H 705.656 -0.484777 5.62415 0
M  V30 7406 N 705.054 -1.51416 0.437162 0
M  V30 7407 C 706.47 -1.59349 0.0894459 0
M  V30 7408 C 706.67 -1.44809 -1.40116 0
M  V30 7409 O 705.726 -1.28924 -2.17106 0
M  V30 7410 C 707.039 -2.9446 0.609398 0
M  V30 7411 C 708.587 -3.07769 0.569824 0
M  V30 7412 C 709.062 -4.45404 1.06675 0
M  V30 7413 N 710.553 -4.51723 1.02473 0
M  V30 7414 C 711.288 -5.56544 1.3801 0
M  V30 7415 N 710.784 -6.68784 1.80831 0
M  V30 7416 N 712.577 -5.46901 1.29828 0
M  V30 7417 H 704.728 -1.59112 1.40703 0
M  V30 7418 H 706.991 -0.750031 0.579791 0
M  V30 7419 H 706.697 -3.1047 1.65231 0
M  V30 7420 H 706.571 -3.77184 0.0342236 0
M  V30 7421 H 708.958 -2.91428 -0.464107 0
M  V30 7422 H 709.039 -2.26885 1.1814 0
M  V30 7423 H 708.683 -4.62492 2.09914 0
M  V30 7424 H 708.613 -5.24827 0.431712 0
M  V30 7425 H 711.104 -3.71165 0.710258 0
M  V30 7426 H 711.417 -7.44787 2.06185 0
M  V30 7427 H 709.762 -6.69992 1.84757 0
M  V30 7428 H 712.953 -4.581 0.962397 0
M  V30 7429 H 713.126 -6.2848 1.57851 0
M  V30 7430 N 706.532 -0.168513 -1.56696 0
M  V30 7431 C 707.76 0.483503 -2.01171 0
M  V30 7432 C 708.175 1.56994 -1.04872 0
M  V30 7433 O 707.532 1.82434 -0.0491337 0
M  V30 7434 C 707.583 1.0644 -3.45475 0
M  V30 7435 O 707.304 0.0213375 -4.38095 0
M  V30 7436 C 708.805 1.79493 -4.05336 0
M  V30 7437 H 706.025 0.124002 -0.659443 0
M  V30 7438 H 708.569 -0.269419 -2.02717 0
M  V30 7439 H 706.724 1.76784 -3.44712 0
M  V30 7440 H 707.138 0.449837 -5.22567 0
M  V30 7441 H 708.612 2.15401 -5.08238 0
M  V30 7442 H 709.089 2.68889 -3.47269 0
M  V30 7443 H 709.695 1.13798 -4.09793 0
M  V30 7444 N 708.01 1.57248 0.105221 0
M  V30 7445 C 709.235 1.90143 0.828264 0
M  V30 7446 C 709.66 0.761811 1.71983 0
M  V30 7447 O 709.018 -0.287086 1.79013 0
M  V30 7448 C 709.066 3.21856 1.62608 0
M  V30 7449 O 708.17 3.08732 2.7342 0
M  V30 7450 H 707.511 0.623558 0.228192 0
M  V30 7451 H 710.041 2.0443 0.0834826 0
M  V30 7452 H 710.051 3.54916 2.01243 0
M  V30 7453 H 708.726 4.0439 0.971687 0
M  V30 7454 H 707.303 2.87167 2.37886 0
M  V30 7455 N 709.488 -0.375779 1.53054 0
M  V30 7456 C 710.734 -1.12114 1.68992 0
M  V30 7457 C 711.067 -1.8926 0.435238 0
M  V30 7458 O 710.342 -1.86044 -0.567278 0
M  V30 7459 C 710.625 -2.08867 2.93337 0
M  V30 7460 C 710.478 -1.35397 4.28938 0
M  V30 7461 C 711.797 -3.09124 3.13257 0
M  V30 7462 H 708.916 -0.406207 0.614951 0
M  V30 7463 H 711.558 -0.403054 1.85676 0
M  V30 7464 H 709.708 -2.70102 2.79244 0
M  V30 7465 H 711.38 -0.770242 4.54824 0
M  V30 7466 H 709.623 -0.655801 4.28814 0
M  V30 7467 H 710.294 -2.06161 5.12056 0
M  V30 7468 H 712.77 -2.57987 3.26469 0
M  V30 7469 H 711.646 -3.74054 4.01715 0
M  V30 7470 H 711.907 -3.78729 2.28072 0
M  V30 7471 N 710.966 -1.44241 -0.634997 0
M  V30 7472 C 711.914 -1.51103 -1.76835 0
M  V30 7473 C 712.908 -0.383051 -1.65012 0
M  V30 7474 O 714.114 -0.557832 -1.71138 0
M  V30 7475 H 710.489 -0.474076 -0.583743 0
M  V30 7476 H 712.46 -2.46499 -1.68169 0
M  V30 7477 C 711.209 -1.4687 -3.15158 0
M  V30 7478 H 710.532 -2.32979 -3.24901 0
M  V30 7479 H 711.972 -1.55731 -3.94365 0
M  V30 7480 C 710.431 -0.188884 -3.3637 0
M  V30 7481 O 710.961 0.742487 -3.94778 0
M  V30 7482 N 709.167 -0.0932516 -2.9045 0
M  V30 7483 H 708.714 -0.852004 -2.43102 0
M  V30 7484 H 708.672 0.762308 -3.05018 0
M  V30 7485 N 712.444 0.87505 -1.31075 0
M  V30 7486 C 713.69 1.63009 -1.20647 0
M  V30 7487 C 714.023 1.9276 0.236045 0
M  V30 7488 O 713.298 1.55559 1.16754 0
M  V30 7489 C 713.581 2.96357 -2.0456 0
M  V30 7490 C 713.434 2.73516 -3.57084 0
M  V30 7491 C 714.753 3.974 -1.89107 0
M  V30 7492 H 711.872 0.591518 -0.439631 0
M  V30 7493 H 714.514 1.0119 -1.60812 0
M  V30 7494 H 712.664 3.49119 -1.70435 0
M  V30 7495 H 714.336 2.27465 -4.01319 0
M  V30 7496 H 712.579 2.0784 -3.80769 0
M  V30 7497 H 713.25 3.68377 -4.11099 0
M  V30 7498 H 715.726 3.5383 -2.18961 0
M  V30 7499 H 714.602 4.88596 -2.5013 0
M  V30 7500 H 714.863 4.33794 -0.85296 0
M  V30 7501 N 713.922 1.13953 1.08869 0
M  V30 7502 C 715.168 0.906151 1.8143 0
M  V30 7503 C 715.501 -0.566089 1.85766 0
M  V30 7504 O 714.776 -1.41915 1.33006 0
M  V30 7505 C 715.059 1.50183 3.27287 0
M  V30 7506 C 714.912 3.04359 3.31189 0
M  V30 7507 C 716.231 1.17477 4.24131 0
M  V30 7508 H 713.35 0.330624 0.658678 0
M  V30 7509 H 715.992 1.40873 1.27495 0
M  V30 7510 H 714.142 1.07442 3.73348 0
M  V30 7511 H 715.814 3.55896 2.93488 0
M  V30 7512 H 714.057 3.39053 2.70602 0
M  V30 7513 H 714.728 3.41141 4.33966 0
M  V30 7514 H 717.204 1.5442 3.86385 0
M  V30 7515 H 716.08 1.61795 5.24513 0
M  V30 7516 H 716.341 0.0893312 4.4201 0
M  V30 7517 N 715.4 -1.26948 0.933913 0
M  V30 7518 C 716.648 -1.93704 0.576484 0
M  V30 7519 C 716.969 -1.73702 -0.886145 0
M  V30 7520 O 716.239 -1.08838 -1.62884 0
M  V30 7521 H 714.819 -0.716812 0.210214 0
M  V30 7522 H 717.481 -1.54534 1.18766 0
M  V30 7523 H 716.577 -3.01987 0.788055 0
M  V30 7524 N 716.879 -0.700114 -1.41195 0
M  V30 7525 C 718.156 -0.160836 -1.94938 0
M  V30 7526 C 718.536 1.33014 -1.63922 0
M  V30 7527 O 717.884 2.07878 -0.948636 0
M  V30 7528 C 718.094 -0.456991 -3.45995 0
M  V30 7529 C 719.442 -0.387207 -4.22831 0
M  V30 7530 O 720.466 -0.392164 -3.54035 0
M  V30 7531 O 719.325 -0.351267 -5.4537 0
M  V30 7532 H 716.419 -0.0176304 -0.826812 0
M  V30 7533 H 718.965 -0.776586 -1.50888 0
M  V30 7534 H 717.737 -1.48884 -3.61869 0
M  V30 7535 H 717.36 0.189503 -3.97148 0
M  V30 7536 N 718.357 1.51182 -0.445186 0
M  V30 7537 C 719.582 2.07056 0.119445 0
M  V30 7538 C 720.007 1.30966 1.35016 0
M  V30 7539 O 719.365 0.349827 1.77893 0
M  V30 7540 C 719.413 3.58234 0.412428 0
M  V30 7541 O 718.517 3.84249 1.49754 0
M  V30 7542 H 717.858 0.663998 -0.00157797 0
M  V30 7543 H 720.388 1.94699 -0.628779 0
M  V30 7544 H 720.398 4.02617 0.660583 0
M  V30 7545 H 719.073 4.13038 -0.487049 0
M  V30 7546 H 717.65 3.51724 1.23873 0
M  V30 7547 N 719.835 0.176821 1.56605 0
M  V30 7548 C 721.082 -0.466715 1.97048 0
M  V30 7549 C 721.41 -1.6288 1.06302 0
M  V30 7550 O 720.665 -1.95453 0.0982571 0
M  V30 7551 C 720.964 -0.986208 3.43524 0
M  V30 7552 C 720.63 0.0605667 4.50859 0
M  V30 7553 C 719.292 0.348242 4.79938 0
M  V30 7554 C 721.644 0.770794 5.15469 0
M  V30 7555 C 718.972 1.35144 5.70923 0
M  V30 7556 C 721.324 1.76301 6.07537 0
M  V30 7557 C 719.988 2.05808 6.3498 0
M  V30 7558 H 719.258 -0.170783 0.721051 0
M  V30 7559 H 721.905 0.269942 1.89588 0
M  V30 7560 H 720.21 -1.80079 3.47964 0
M  V30 7561 H 721.907 -1.49323 3.72161 0
M  V30 7562 H 718.497 -0.173823 4.28247 0
M  V30 7563 H 722.681 0.56176 4.9311 0
M  V30 7564 H 717.937 1.58616 5.90467 0
M  V30 7565 H 722.111 2.31868 6.56666 0
M  V30 7566 H 719.738 2.8369 7.05283 0
M  V30 7567 N 721.313 -1.57302 -0.09688 0
M  V30 7568 C 722.561 -1.8563 -0.799117 0
M  V30 7569 C 722.882 -0.765263 -1.79356 0
M  V30 7570 O 722.152 0.208657 -1.94786 0
M  V30 7571 H 720.732 -0.684937 -0.298111 0
M  V30 7572 H 723.394 -1.9474 -0.0789341 0
M  V30 7573 H 722.49 -2.82305 -1.3308 0
M  V30 7574 N 722.791 0.367657 -1.53252 0
M  V30 7575 C 723.754 1.43308 -1.78873 0
M  V30 7576 C 724.754 1.46671 -0.659115 0
M  V30 7577 O 725.944 1.47468 -0.927306 0
M  V30 7578 C 723.076 2.82442 -1.90892 0
M  V30 7579 H 724.269 1.21864 -2.74024 0
M  V30 7580 H 721.822 0.600668 -1.44297 0
M  V30 7581 H 722.557 3.09202 -0.978 0
M  V30 7582 H 722.342 2.81399 -2.73051 0
M  V30 7583 H 723.832 3.59601 -2.12314 0
M  V30 7584 N 724.269 1.44576 0.627338 0
M  V30 7585 C 725.517 1.47267 1.38408 0
M  V30 7586 C 725.838 0.107971 1.94701 0
M  V30 7587 O 725.108 -0.860206 1.76004 0
M  V30 7588 H 723.688 0.542276 0.513756 0
M  V30 7589 H 726.35 1.80383 0.738099 0
M  V30 7590 H 725.446 2.20025 2.21349 0
M  V30 7591 N 725.747 -0.868086 1.31537 0
M  V30 7592 C 726.996 -1.61607 1.20689 0
M  V30 7593 C 727.309 -1.94204 -0.233275 0
M  V30 7594 O 728.515 -2.67515 -0.463465 0
M  V30 7595 C 726.971 -2.91348 2.11292 0
M  V30 7596 C 726.579 -2.66227 3.60315 0
M  V30 7597 C 728.323 -3.69344 2.09249 0
M  V30 7598 C 726.23 -3.91887 4.42921 0
M  V30 7599 H 725.16 -0.606373 0.448138 0
M  V30 7600 H 727.811 -0.959666 1.56405 0
M  V30 7601 H 726.193 -3.58374 1.68477 0
M  V30 7602 H 727.367 -2.07597 4.11388 0
M  V30 7603 H 725.682 -2.01582 3.64354 0
M  V30 7604 H 728.279 -4.62567 2.68209 0
M  V30 7605 H 728.622 -4.02044 1.0801 0
M  V30 7606 H 729.155 -3.09205 2.50274 0
M  V30 7607 H 725.894 -3.64336 5.44922 0
M  V30 7608 H 725.414 -4.49961 3.96605 0
M  V30 7609 H 727.093 -4.59754 4.55231 0
M  V30 7610 N 727.225 -1.14528 -1.08264 0
M  V30 7611 C 728.471 -0.91576 -1.80947 0
M  V30 7612 C 728.804 0.55623 -1.86064 0
M  V30 7613 O 728.079 1.41207 -1.33756 0
M  V30 7614 C 728.362 -1.51917 -3.26486 0
M  V30 7615 C 728.215 -3.06111 -3.2957 0
M  V30 7616 C 729.534 -1.19724 -4.23502 0
M  V30 7617 H 726.653 -0.334113 -0.656915 0
M  V30 7618 H 729.295 -1.41547 -1.26746 0
M  V30 7619 H 727.445 -1.0942 -3.72773 0
M  V30 7620 H 729.117 -3.57448 -2.91597 0
M  V30 7621 H 727.36 -3.40483 -2.688 0
M  V30 7622 H 728.031 -3.43438 -4.32151 0
M  V30 7623 H 730.507 -1.56467 -3.85561 0
M  V30 7624 H 729.383 -1.64575 -5.23647 0
M  V30 7625 H 729.644 -0.112771 -4.41956 0
M  V30 7626 N 728.703 1.26451 -0.940633 0
M  V30 7627 C 729.933 1.97581 -0.603766 0
M  V30 7628 C 730.341 1.70246 0.825395 0
M  V30 7629 O 729.684 0.967001 1.56188 0
M  V30 7630 C 729.746 3.51256 -0.765463 0
M  V30 7631 C 729.41 4.0224 -2.16915 0
M  V30 7632 C 730.407 4.1402 -3.14457 0
M  V30 7633 C 728.092 4.36263 -2.48958 0
M  V30 7634 C 730.086 4.59117 -4.42143 0
M  V30 7635 C 727.773 4.81048 -3.76877 0
M  V30 7636 C 728.771 4.92436 -4.73282 0
M  V30 7637 O 728.459 5.36234 -5.98923 0
M  V30 7638 H 728.191 0.636948 -0.226436 0
M  V30 7639 H 730.745 1.61941 -1.2635 0
M  V30 7640 H 728.975 3.86669 -0.0485956 0
M  V30 7641 H 730.664 4.03597 -0.431738 0
M  V30 7642 H 731.43 3.87981 -2.91026 0
M  V30 7643 H 727.309 4.26634 -1.74656 0
M  V30 7644 H 730.853 4.6792 -5.17394 0
M  V30 7645 H 726.75 5.06531 -4.00121 0
M  V30 7646 H 727.518 5.54456 -6.02097 0
M  V30 7647 N 730.181 0.707592 1.40822 0
M  V30 7648 C 731.131 0.0265008 2.27985 0
M  V30 7649 C 732.115 -0.740685 1.42838 0
M  V30 7650 O 733.307 -0.6142 1.66002 0
M  V30 7651 C 730.436 -0.900382 3.31282 0
M  V30 7652 C 729.522 -0.128807 4.23904 0
M  V30 7653 N 729.913 0.883744 4.9802 0
M  V30 7654 C 728.211 -0.362539 4.44524 0
M  V30 7655 C 728.912 1.34666 5.65898 0
M  V30 7656 N 727.888 0.670306 5.39451 0
M  V30 7657 H 731.69 0.802667 2.82727 0
M  V30 7658 H 729.204 0.539475 1.53178 0
M  V30 7659 H 731.201 -1.40357 3.92563 0
M  V30 7660 H 729.861 -1.67601 2.781 0
M  V30 7661 H 730.872 1.26435 5.0223 0
M  V30 7662 H 727.549 -1.11512 4.02332 0
M  V30 7663 H 728.939 2.18756 6.35292 0
M  V30 7664 N 731.66 -1.50943 0.453197 0
M  V30 7665 C 732.59 -2.31005 -0.34044 0
M  V30 7666 C 733.571 -1.37112 -1.00669 0
M  V30 7667 O 734.756 -1.66033 -1.0073 0
M  V30 7668 C 731.886 -3.16358 -1.433 0
M  V30 7669 C 730.84 -4.18658 -0.889363 0
M  V30 7670 C 730.166 -4.92633 -2.07887 0
M  V30 7671 C 731.466 -5.22227 0.0871142 0
M  V30 7672 H 733.16 -2.97601 0.327723 0
M  V30 7673 H 730.706 -1.43119 0.159054 0
M  V30 7674 H 732.659 -3.71155 -1.99555 0
M  V30 7675 H 731.383 -2.47613 -2.12968 0
M  V30 7676 H 730.042 -3.64936 -0.348915 0
M  V30 7677 H 729.69 -4.20376 -2.76211 0
M  V30 7678 H 729.39 -5.61819 -1.72143 0
M  V30 7679 H 730.914 -5.50258 -2.64666 0
M  V30 7680 H 732.328 -5.72001 -0.385656 0
M  V30 7681 H 730.725 -5.99032 0.357926 0
M  V30 7682 H 731.795 -4.74077 1.01879 0
M  V30 7683 N 733.138 -0.185124 -1.56509 0
M  V30 7684 C 734.363 0.465278 -2.02114 0
M  V30 7685 C 734.788 1.55083 -1.06447 0
M  V30 7686 O 734.146 1.81241 -0.0462852 0
M  V30 7687 C 734.194 1.00784 -3.46229 0
M  V30 7688 O 733.298 2.12123 -3.53663 0
M  V30 7689 H 732.639 0.109891 -0.654843 0
M  V30 7690 H 735.169 -0.293072 -2.0249 0
M  V30 7691 H 735.179 1.32697 -3.85818 0
M  V30 7692 H 733.854 0.213113 -4.15354 0
M  V30 7693 H 732.431 1.8115 -3.25943 0
M  V30 7694 N 734.616 1.57351 0.0885366 0
M  V30 7695 C 735.563 2.02523 1.10693 0
M  V30 7696 C 736.533 0.902736 1.39427 0
M  V30 7697 O 737.718 1.16921 1.50779 0
M  V30 7698 C 734.858 2.46013 2.42016 0
M  V30 7699 C 733.971 3.7181 2.19957 0
M  V30 7700 C 733.106 4.04152 3.44724 0
M  V30 7701 C 732.145 5.2304 3.17956 0
M  V30 7702 N 731.282 5.51102 4.35007 0
M  V30 7703 H 736.122 2.89302 0.714742 0
M  V30 7704 H 733.659 1.43084 0.341378 0
M  V30 7705 H 735.617 2.69274 3.18665 0
M  V30 7706 H 734.247 1.62235 2.79069 0
M  V30 7707 H 733.299 3.55987 1.34079 0
M  V30 7708 H 734.611 4.58604 1.96173 0
M  V30 7709 H 733.765 4.28225 4.29777 0
M  V30 7710 H 732.504 3.15893 3.71568 0
M  V30 7711 H 731.509 4.98781 2.31296 0
M  V30 7712 H 732.734 6.12902 2.92451 0
M  V30 7713 H 730.68 4.65802 4.61914 0
M  V30 7714 H 730.597 6.3228 4.14437 0
M  V30 7715 H 731.865 5.79714 5.21106 0
M  V30 7716 N 736.094 -0.359525 1.53444 0
M  V30 7717 C 737.319 -1.12644 1.74144 0
M  V30 7718 C 737.744 -1.82082 0.472007 0
M  V30 7719 O 737.102 -1.71962 -0.57436 0
M  V30 7720 C 737.15 -2.12781 2.9113 0
M  V30 7721 O 736.254 -3.19984 2.60162 0
M  V30 7722 H 735.595 -0.326553 0.578152 0
M  V30 7723 H 738.125 -0.414798 2.00351 0
M  V30 7724 H 738.135 -2.56278 3.17467 0
M  V30 7725 H 736.81 -1.61634 3.83207 0
M  V30 7726 H 735.387 -2.81417 2.44661 0
M  V30 7727 N 737.572 -1.44907 -0.619662 0
M  V30 7728 C 738.482 -1.55168 -1.75955 0
M  V30 7729 C 739.498 -0.43672 -1.6843 0
M  V30 7730 O 740.674 -0.695704 -1.89002 0
M  V30 7731 C 737.739 -1.50397 -3.12381 0
M  V30 7732 C 736.8 -2.72835 -3.31451 0
M  V30 7733 C 736.033 -2.68283 -4.61368 0
M  V30 7734 O 736.256 -1.74929 -5.42914 0
M  V30 7735 O 735.19 -3.59308 -4.82889 0
M  V30 7736 H 739.016 -2.51493 -1.7025 0
M  V30 7737 H 736.601 -1.27282 -0.782289 0
M  V30 7738 H 738.483 -1.50301 -3.93685 0
M  V30 7739 H 737.158 -0.572197 -3.18603 0
M  V30 7740 H 736.065 -2.78496 -2.49781 0
M  V30 7741 H 737.398 -3.65098 -3.30098 0
M  V30 7742 N 739.05 0.861098 -1.31996 0
M  V30 7743 C 739.98 1.98482 -1.22993 0
M  V30 7744 C 740.961 1.6971 -0.115168 0
M  V30 7745 O 742.146 1.91849 -0.30126 0
M  V30 7746 C 739.276 3.34179 -0.945615 0
M  V30 7747 C 738.23 3.77284 -2.02091 0
M  V30 7748 C 737.556 5.1054 -1.58912 0
M  V30 7749 C 738.856 3.93439 -3.43515 0
M  V30 7750 H 740.55 2.06271 -2.17008 0
M  V30 7751 H 738.096 0.991043 -1.04472 0
M  V30 7752 H 740.049 4.12338 -0.869206 0
M  V30 7753 H 738.773 3.26586 0.0301849 0
M  V30 7754 H 737.432 3.01371 -2.08737 0
M  V30 7755 H 737.08 4.99397 -0.600942 0
M  V30 7756 H 736.78 5.40352 -2.30854 0
M  V30 7757 H 738.304 5.91199 -1.52696 0
M  V30 7758 H 739.718 4.6197 -3.39495 0
M  V30 7759 H 738.115 4.34661 -4.13751 0
M  V30 7760 H 739.185 2.96548 -3.8365 0
M  V30 7761 N 740.528 1.15101 1.07655 0
M  V30 7762 C 741.805 0.834578 1.76902 0
M  V30 7763 C 742.185 -0.670431 2.00171 0
M  V30 7764 O 741.533 -1.61378 1.6177 0
M  V30 7765 C 741.743 1.64191 3.07965 0
M  V30 7766 C 743.091 1.84615 3.82364 0
M  V30 7767 O 744.115 1.60941 3.17768 0
M  V30 7768 O 742.974 2.24244 4.98374 0
M  V30 7769 H 740.068 0.306608 0.768063 0
M  V30 7770 H 742.614 1.25663 1.14048 0
M  V30 7771 H 741.386 2.66386 2.86626 0
M  V30 7772 H 741.009 1.216 3.78549 0
M  V30 7773 N 742.006 -1.2595 0.947325 0
M  V30 7774 C 743.234 -1.97544 0.615127 0
M  V30 7775 C 743.649 -1.70484 -0.811221 0
M  V30 7776 O 743.006 -0.97662 -1.5417 0
M  V30 7777 C 743.057 -3.51236 0.855328 0
M  V30 7778 O 742.778 -3.77359 2.22558 0
M  V30 7779 C 744.279 -4.40066 0.534515 0
M  V30 7780 H 741.499 -0.629888 0.231263 0
M  V30 7781 H 744.043 -1.60308 1.26971 0
M  V30 7782 H 742.198 -3.8661 0.247266 0
M  V30 7783 H 742.612 -4.71857 2.29022 0
M  V30 7784 H 744.086 -5.46838 0.753168 0
M  V30 7785 H 744.563 -4.35982 -0.530701 0
M  V30 7786 H 745.169 -4.10245 1.12158 0
M  V30 7787 N 743.484 -0.715051 -1.40445 0
M  V30 7788 C 744.733 -0.251322 -2.00128 0
M  V30 7789 C 745.046 1.16194 -1.57347 0
M  V30 7790 O 746.252 1.72416 -2.09726 0
M  V30 7791 C 744.708 -0.398407 -3.57688 0
M  V30 7792 C 744.316 -1.81828 -4.09442 0
M  V30 7793 C 746.06 0.00455625 -4.245 0
M  V30 7794 C 743.967 -1.91598 -5.59503 0
M  V30 7795 H 742.897 -0.0902081 -0.748584 0
M  V30 7796 H 745.548 -0.886062 -1.6069 0
M  V30 7797 H 743.93 0.304908 -3.94824 0
M  V30 7798 H 745.104 -2.55193 -3.83684 0
M  V30 7799 H 743.419 -2.17266 -3.55225 0
M  V30 7800 H 746.016 -0.0477303 -5.34679 0
M  V30 7801 H 746.359 1.04636 -4.02935 0
M  V30 7802 H 746.892 -0.649184 -3.92467 0
M  V30 7803 H 743.631 -2.93898 -5.85922 0
M  V30 7804 H 743.151 -1.22644 -5.87127 0
M  V30 7805 H 744.83 -1.68785 -6.24596 0
M  V30 7806 N 744.962 1.50701 -0.461195 0
M  V30 7807 C 746.239 1.94958 0.158296 0
M  V30 7808 C 746.619 1.40111 1.57899 0
M  V30 7809 O 745.967 0.597976 2.20537 0
M  V30 7810 C 746.177 3.48821 0.11172 0
M  V30 7811 C 747.525 4.23499 0.30552 0
M  V30 7812 O 748.549 3.557 0.188758 0
M  V30 7813 O 747.408 5.43823 0.540244 0
M  V30 7814 H 744.502 0.818674 0.117054 0
M  V30 7815 H 747.048 1.61508 -0.520888 0
M  V30 7816 H 745.82 3.81263 -0.880577 0
M  V30 7817 H 745.443 3.88781 0.832791 0
M  V30 7818 N 746.441 0.193421 1.56409 0
M  V30 7819 C 747.666 -0.454552 2.02358 0
M  V30 7820 C 748.091 -1.54516 1.07268 0
M  V30 7821 O 747.449 -1.81214 0.0558962 0
M  V30 7822 C 747.497 -0.989469 3.46759 0
M  V30 7823 O 746.601 -2.10244 3.54783 0
M  V30 7824 H 745.942 -0.106417 0.655417 0
M  V30 7825 H 748.472 0.303807 2.02332 0
M  V30 7826 H 748.482 -1.30649 3.86516 0
M  V30 7827 H 747.157 -0.191083 4.15461 0
M  V30 7828 H 745.734 -1.79419 3.26899 0
M  V30 7829 N 747.919 -1.57396 -0.0801906 0
M  V30 7830 C 748.851 -1.9982 -1.12271 0
M  V30 7831 C 749.864 -0.902902 -1.35468 0
M  V30 7832 O 751.053 -1.18088 -1.33856 0
M  V30 7833 C 748.153 -2.31476 -2.47532 0
M  V30 7834 C 747.326 -3.62745 -2.44407 0
M  V30 7835 C 746.385 -3.82168 -3.6171 0
M  V30 7836 O 745.411 -4.53852 -3.43522 0
M  V30 7837 N 746.613 -3.2388 -4.81749 0
M  V30 7838 H 749.378 -2.89864 -0.761501 0
M  V30 7839 H 746.939 -1.5965 -0.268965 0
M  V30 7840 H 748.931 -2.4165 -3.24634 0
M  V30 7841 H 747.501 -1.47364 -2.75686 0
M  V30 7842 H 746.721 -3.63403 -1.52747 0
M  V30 7843 H 748.009 -4.48954 -2.39412 0
M  V30 7844 H 747.407 -2.6568 -4.9943 0
M  V30 7845 H 745.964 -3.39515 -5.56392 0
M  V30 7846 N 749.397 0.351382 -1.53633 0
M  V30 7847 C 750.347 1.4316 -1.77452 0
M  V30 7848 C 751.331 1.48076 -0.62946 0
M  V30 7849 O 752.523 1.53078 -0.888599 0
M  V30 7850 C 749.652 2.80409 -1.98055 0
M  V30 7851 C 748.738 2.79915 -3.18604 0
M  V30 7852 N 749.129 2.49057 -4.40232 0
M  V30 7853 C 747.427 3.11067 -3.19614 0
M  V30 7854 C 748.128 2.566 -5.22045 0
M  V30 7855 N 747.104 2.919 -4.5858 0
M  V30 7856 H 750.906 1.18188 -2.69089 0
M  V30 7857 H 748.42 0.559684 -1.52451 0
M  V30 7858 H 750.417 3.58231 -2.13251 0
M  V30 7859 H 749.077 3.06334 -1.07655 0
M  V30 7860 H 750.088 2.22395 -4.67719 0
M  V30 7861 H 746.765 3.42215 -2.39154 0
M  V30 7862 H 748.155 2.35968 -6.29101 0
M  V30 7863 N 750.875 1.45233 0.611969 0
M  V30 7864 C 752.291 1.29542 0.932251 0
M  V30 7865 C 752.491 0.24523 2.00002 0
M  V30 7866 O 751.547 -0.362333 2.49887 0
M  V30 7867 C 752.86 2.67301 1.37733 0
M  V30 7868 C 754.408 2.75163 1.49178 0
M  V30 7869 C 754.883 4.13437 1.97064 0
M  V30 7870 N 756.374 4.15709 2.04304 0
M  V30 7871 C 757.109 5.19566 2.42568 0
M  V30 7872 N 756.605 6.33771 2.79832 0
M  V30 7873 N 758.398 5.06923 2.42869 0
M  V30 7874 H 750.549 2.12192 -0.0938679 0
M  V30 7875 H 752.812 0.947775 0.0206569 0
M  V30 7876 H 752.518 3.45318 0.666951 0
M  V30 7877 H 752.392 2.95472 2.3447 0
M  V30 7878 H 754.779 1.97453 2.19309 0
M  V30 7879 H 754.86 2.50712 0.507674 0
M  V30 7880 H 754.504 4.91631 1.27521 0
M  V30 7881 H 754.434 4.35277 2.9638 0
M  V30 7882 H 756.925 3.33293 1.78113 0
M  V30 7883 H 757.238 7.08815 3.07898 0
M  V30 7884 H 755.583 6.37179 2.77538 0
M  V30 7885 H 758.774 4.1675 2.1316 0
M  V30 7886 H 758.947 5.87981 2.72364 0
M  V30 7887 N 752.353 -0.854086 1.3245 0
M  V30 7888 C 753.599 -1.61069 1.23225 0
M  V30 7889 C 753.932 -1.93111 -0.205349 0
M  V30 7890 O 753.207 -1.57397 -1.14265 0
M  V30 7891 C 753.49 -2.93065 2.09249 0
M  V30 7892 C 753.343 -2.67801 3.6139 0
M  V30 7893 C 754.662 -3.94341 1.95406 0
M  V30 7894 H 751.781 -0.584449 0.448986 0
M  V30 7895 H 754.423 -0.986189 1.62402 0
M  V30 7896 H 752.573 -3.46364 1.75967 0
M  V30 7897 H 754.245 -2.21052 4.04887 0
M  V30 7898 H 752.488 -2.01756 3.84027 0
M  V30 7899 H 753.159 -3.6179 4.16907 0
M  V30 7900 H 755.635 -3.50301 2.24562 0
M  V30 7901 H 754.511 -4.84555 2.57872 0
M  V30 7902 H 754.772 -4.32382 0.921865 0
M  V30 7903 N 753.831 -1.1567 -1.07043 0
M  V30 7904 C 754.781 -0.824733 -2.12561 0
M  V30 7905 C 755.765 0.19243 -1.59745 0
M  V30 7906 O 756.957 -0.00728759 -1.76998 0
M  V30 7907 C 754.086 -0.31921 -3.41813 0
M  V30 7908 C 753.172 -1.36671 -4.01475 0
M  V30 7909 N 753.563 -2.57493 -4.35351 0
M  V30 7910 C 751.861 -1.22018 -4.28984 0
M  V30 7911 C 752.562 -3.24658 -4.82672 0
M  V30 7912 N 751.538 -2.52043 -4.81638 0
M  V30 7913 H 755.34 -1.74363 -2.3659 0
M  V30 7914 H 752.854 -1.04262 -1.24511 0
M  V30 7915 H 754.851 -0.0630216 -4.16852 0
M  V30 7916 H 753.511 0.593708 -3.19226 0
M  V30 7917 H 754.522 -2.94612 -4.25939 0
M  V30 7918 H 751.199 -0.367414 -4.1588 0
M  V30 7919 H 752.589 -4.2775 -5.1815 0
M  V30 7920 N 755.309 1.25446 -0.953992 0
M  V30 7921 C 756.219 2.29632 -0.480264 0
M  V30 7922 C 757.235 1.68025 0.452071 0
M  V30 7923 O 758.411 1.98703 0.328472 0
M  V30 7924 C 755.476 3.45903 0.234974 0
M  V30 7925 C 754.537 4.22953 -0.735495 0
M  V30 7926 C 753.77 5.33672 -0.0542957 0
M  V30 7927 O 753.993 5.58477 1.16018 0
M  V30 7928 O 752.927 5.9734 -0.739509 0
M  V30 7929 H 756.753 2.72242 -1.34602 0
M  V30 7930 H 754.338 1.30883 -0.720419 0
M  V30 7931 H 756.22 4.16552 0.637341 0
M  V30 7932 H 754.895 3.05296 1.07592 0
M  V30 7933 H 753.802 3.54734 -1.18806 0
M  V30 7934 H 755.135 4.67341 -1.54444 0
M  V30 7935 N 756.787 0.722489 1.40064 0
M  V30 7936 C 758.064 0.191829 1.94657 0
M  V30 7937 C 758.444 -1.30389 1.66018 0
M  V30 7938 O 757.792 -2.06342 0.981588 0
M  V30 7939 C 758.002 0.511978 3.45224 0
M  V30 7940 C 759.35 0.454426 4.22161 0
M  V30 7941 O 760.374 0.448438 3.53366 0
M  V30 7942 O 759.233 0.437986 5.44742 0
M  V30 7943 H 756.327 0.0307821 0.826427 0
M  V30 7944 H 758.873 0.800493 1.49634 0
M  V30 7945 H 757.645 1.54622 3.59455 0
M  V30 7946 H 757.268 -0.126296 3.97399 0
M  V30 7947 N 758.265 -1.50454 0.469181 0
M  V30 7948 C 759.514 -2.01507 -0.0881425 0
M  V30 7949 C 759.827 -1.35613 -1.40956 0
M  V30 7950 O 761.033 -1.77812 -2.05171 0
M  V30 7951 C 759.489 -3.59301 -0.207596 0
M  V30 7952 C 759.097 -4.34152 1.10527 0
M  V30 7953 C 760.841 -4.18401 -0.716981 0
M  V30 7954 C 758.748 -5.83725 0.949717 0
M  V30 7955 H 757.678 -0.753106 -0.0367156 0
M  V30 7956 H 760.329 -1.73282 0.603788 0
M  V30 7957 H 758.711 -3.84106 -0.963265 0
M  V30 7958 H 759.885 -4.21073 1.87175 0
M  V30 7959 H 758.2 -3.86652 1.54562 0
M  V30 7960 H 760.797 -5.27895 -0.850363 0
M  V30 7961 H 761.14 -3.79657 -1.70782 0
M  V30 7962 H 761.673 -3.97796 -0.0187511 0
M  V30 7963 H 758.412 -6.26938 1.91387 0
M  V30 7964 H 757.932 -5.99383 0.223591 0
M  V30 7965 H 759.611 -6.44065 0.61557 0
M  V30 7966 N 759.743 -0.201713 -1.56304 0
M  V30 7967 C 760.653 0.728296 -2.23009 0
M  V30 7968 C 761.669 1.22945 -1.23128 0
M  V30 7969 O 762.845 1.27523 -1.55884 0
M  V30 7970 C 759.91 1.92792 -2.88153 0
M  V30 7971 C 758.971 1.47068 -4.03323 0
M  V30 7972 C 758.204 2.61312 -4.65351 0
M  V30 7973 O 758.427 3.7896 -4.26317 0
M  V30 7974 O 757.361 2.33646 -5.54701 0
M  V30 7975 H 761.187 0.190166 -3.03104 0
M  V30 7976 H 758.772 0.0278725 -1.49374 0
M  V30 7977 H 760.654 2.6289 -3.29343 0
M  V30 7978 H 759.329 2.45452 -2.11033 0
M  V30 7979 H 758.236 0.738299 -3.66742 0
M  V30 7980 H 759.569 0.990666 -4.82127 0
M  V30 7981 N 761.222 1.57436 0.0718424 0
M  V30 7982 C 762.155 1.98982 1.11721 0
M  V30 7983 C 763.133 0.866731 1.37574 0
M  V30 7984 O 764.317 1.12903 1.50948 0
M  V30 7985 C 761.444 2.32648 2.46155 0
M  V30 7986 C 760.49 3.54964 2.36437 0
M  V30 7987 S 761.323 5.05802 1.75854 0
M  V30 7988 C 762.479 5.42669 3.11867 0
M  V30 7989 H 762.712 2.87338 0.763154 0
M  V30 7990 H 760.245 1.51833 0.280372 0
M  V30 7991 H 762.203 2.52719 3.23486 0
M  V30 7992 H 760.864 1.44821 2.78722 0
M  V30 7993 H 760.057 3.76038 3.35577 0
M  V30 7994 H 759.659 3.34524 1.67242 0
M  V30 7995 H 761.951 5.40737 4.08178 0
M  V30 7996 H 762.894 6.43461 2.95573 0
M  V30 7997 H 763.302 4.70131 3.1247 0
M  V30 7998 N 762.7 -0.34323 1.53817 0
M  V30 7999 C 763.928 -1.10348 1.75017 0
M  V30 8000 C 764.343 -1.82345 0.489475 0
M  V30 8001 O 763.7 -1.74362 -0.538886 0
M  V30 8002 C 763.751 -2.11672 2.93048 0
M  V30 8003 O 763.472 -1.42603 4.14241 0
M  V30 8004 C 764.973 -3.0007 3.26301 0
M  V30 8005 H 762.193 -0.329056 0.584776 0
M  V30 8006 H 764.737 -0.395339 2.00642 0
M  V30 8007 H 762.892 -2.78051 2.69753 0
M  V30 8008 H 763.306 -2.10294 4.80496 0
M  V30 8009 H 764.78 -3.67101 4.12239 0
M  V30 8010 H 765.257 -3.66105 2.42618 0
M  V30 8011 H 765.863 -2.3928 3.51604 0
M  V30 8012 N 764.178 -1.45556 -0.604258 0
M  V30 8013 C 765.125 -1.54482 -1.71476 0
M  V30 8014 C 766.095 -0.390479 -1.61445 0
M  V30 8015 O 767.28 -0.604371 -1.80975 0
M  V30 8016 C 764.42 -1.52064 -3.09791 0
M  V30 8017 C 763.533 -2.78073 -3.30604 0
M  V30 8018 C 762.668 -2.67304 -4.59044 0
M  V30 8019 C 761.707 -3.88352 -4.73127 0
M  V30 8020 N 760.844 -3.76098 -5.9287 0
M  V30 8021 H 765.684 -2.49349 -1.63184 0
M  V30 8022 H 763.221 -1.23725 -0.795641 0
M  V30 8023 H 765.179 -1.48649 -3.89819 0
M  V30 8024 H 763.809 -0.607442 -3.17033 0
M  V30 8025 H 762.861 -2.91561 -2.44329 0
M  V30 8026 H 764.173 -3.67847 -3.36883 0
M  V30 8027 H 763.327 -2.61875 -5.47272 0
M  V30 8028 H 762.066 -1.75135 -4.55169 0
M  V30 8029 H 761.071 -3.94137 -3.83322 0
M  V30 8030 H 762.296 -4.81591 -4.78797 0
M  V30 8031 H 760.242 -2.867 -5.90033 0
M  V30 8032 H 760.159 -4.59509 -6.00323 0
M  V30 8033 H 761.427 -3.74607 -6.83586 0
M  V30 8034 N 765.656 0.84705 -1.32902 0
M  V30 8035 C 766.884 1.63403 -1.26913 0
M  V30 8036 C 767.299 1.88108 0.161483 0
M  V30 8037 O 766.656 1.45546 1.10103 0
M  V30 8038 C 766.707 2.98896 -2.03331 0
M  V30 8039 O 766.428 2.75281 -3.40811 0
M  V30 8040 C 767.929 3.93335 -2.04457 0
M  V30 8041 H 765.149 0.508701 -0.437566 0
M  V30 8042 H 767.693 1.05567 -1.75145 0
M  V30 8043 H 765.848 3.53356 -1.58802 0
M  V30 8044 H 766.262 3.61504 -3.8002 0
M  V30 8045 H 767.736 4.85647 -2.62394 0
M  V30 8046 H 768.213 4.26885 -1.03274 0
M  V30 8047 H 768.819 3.44812 -2.48967 0
M  V30 8048 N 767.134 1.16236 1.06428 0
M  V30 8049 C 768.066 0.825446 2.1382 0
M  V30 8050 C 769.079 -0.166707 1.61944 0
M  V30 8051 O 770.268 0.0578606 1.78406 0
M  V30 8052 C 767.368 0.208023 3.38261 0
M  V30 8053 C 766.541 1.23994 4.19457 0
M  V30 8054 C 765.6 0.642569 5.22262 0
M  V30 8055 O 764.626 1.31106 5.53895 0
M  V30 8056 N 765.828 -0.571327 5.77682 0
M  V30 8057 H 768.593 1.7497 2.43322 0
M  V30 8058 H 766.154 1.05951 1.22417 0
M  V30 8059 H 768.146 -0.204608 4.04182 0
M  V30 8060 H 766.716 -0.619752 3.06395 0
M  V30 8061 H 765.936 1.82879 3.49212 0
M  V30 8062 H 767.224 1.93638 4.70512 0
M  V30 8063 H 766.622 -1.13263 5.54245 0
M  V30 8064 H 765.179 -0.926187 6.45186 0
M  V30 8065 N 768.612 -1.24939 0.960631 0
M  V30 8066 C 769.837 -1.9742 0.635608 0
M  V30 8067 C 770.262 -1.70857 -0.786737 0
M  V30 8068 O 769.62 -0.968063 -1.53291 0
M  V30 8069 C 769.668 -3.48987 0.907771 0
M  V30 8070 O 768.772 -4.12399 -0.0104053 0
M  V30 8071 H 768.113 -0.61871 0.241027 0
M  V30 8072 H 770.643 -1.58901 1.28886 0
M  V30 8073 H 770.653 -3.99334 0.836453 0
M  V30 8074 H 769.328 -3.6765 1.94439 0
M  V30 8075 H 767.905 -3.72727 0.113631 0
M  V30 8076 N 770.09 -0.729906 -1.39679 0
M  V30 8077 C 771.339 -0.272534 -1.9985 0
M  V30 8078 C 771.652 1.14519 -1.58571 0
M  V30 8079 O 772.858 1.70182 -2.11543 0
M  V30 8080 C 771.314 -0.436322 -3.57245 0
M  V30 8081 C 770.922 -1.86161 -4.0749 0
M  V30 8082 C 772.666 -0.0404679 -4.24481 0
M  V30 8083 C 770.573 -1.97522 -5.5744 0
M  V30 8084 H 769.503 -0.0981428 -0.747585 0
M  V30 8085 H 772.154 -0.903056 -1.59741 0
M  V30 8086 H 770.536 0.263015 -3.95126 0
M  V30 8087 H 771.71 -2.59248 -3.80955 0
M  V30 8088 H 770.025 -2.21021 -3.529 0
M  V30 8089 H 772.622 -0.104437 -5.34598 0
M  V30 8090 H 772.965 1.00357 -4.04023 0
M  V30 8091 H 773.498 -0.690774 -3.91757 0
M  V30 8092 H 770.237 -3.00096 -5.82771 0
M  V30 8093 H 769.757 -1.28864 -5.85794 0
M  V30 8094 H 771.436 -1.754 -6.22771 0
M  V30 8095 N 771.568 1.50203 -0.477153 0
M  V30 8096 C 772.798 2.0647 0.0731427 0
M  V30 8097 C 773.206 1.3405 1.33518 0
M  V30 8098 O 772.549 0.405164 1.79176 0
M  V30 8099 C 772.611 3.57025 0.421121 0
M  V30 8100 C 772.275 4.50973 -0.739765 0
M  V30 8101 C 773.272 4.939 -1.62353 0
M  V30 8102 C 770.957 4.93581 -0.93181 0
M  V30 8103 C 772.951 5.78149 -2.6837 0
M  V30 8104 C 770.638 5.77612 -1.99519 0
M  V30 8105 C 771.636 6.19798 -2.86949 0
M  V30 8106 O 771.324 7.02152 -3.91456 0
M  V30 8107 H 771.056 0.675969 -0.00648243 0
M  V30 8108 H 773.61 1.94278 -0.66673 0
M  V30 8109 H 771.84 3.67141 1.21426 0
M  V30 8110 H 773.529 3.95632 0.907213 0
M  V30 8111 H 774.295 4.61646 -1.48687 0
M  V30 8112 H 770.174 4.60262 -0.260739 0
M  V30 8113 H 773.718 6.10997 -3.36643 0
M  V30 8114 H 769.615 6.09279 -2.13189 0
M  V30 8115 H 770.383 7.20414 -3.88518 0
M  V30 8116 N 773.046 0.209999 1.56195 0
M  V30 8117 C 774.323 -0.473214 1.89789 0
M  V30 8118 C 774.703 -1.78581 1.1257 0
M  V30 8119 O 774.051 -2.27325 0.231398 0
M  V30 8120 C 774.261 -0.677458 3.42362 0
M  V30 8121 C 775.609 -0.990114 4.12895 0
M  V30 8122 O 776.633 -0.764655 3.47896 0
M  V30 8123 O 775.492 -1.41737 5.278 0
M  V30 8124 H 772.586 -0.248622 0.788743 0
M  V30 8125 H 775.132 0.251324 1.67829 0
M  V30 8126 H 773.904 0.248878 3.90508 0
M  V30 8127 H 773.527 -1.45391 3.70064 0
M  V30 8128 N 774.524 -1.57472 -0.0634922 0
M  V30 8129 C 775.801 -1.78736 -0.794538 0
M  V30 8130 C 776.181 -0.799645 -1.95369 0
M  V30 8131 O 775.529 0.165521 -2.279 0
M  V30 8132 C 775.739 -3.25471 -1.25975 0
M  V30 8133 C 777.087 -3.89528 -1.68976 0
M  V30 8134 O 778.111 -3.29412 -1.35521 0
M  V30 8135 O 776.97 -4.95305 -2.30944 0
M  V30 8136 H 774.064 -0.733813 -0.381376 0
M  V30 8137 H 776.61 -1.69646 -0.0429258 0
M  V30 8138 H 775.382 -3.88922 -0.430721 0
M  V30 8139 H 775.005 -3.39317 -2.07243 0
M  V30 8140 N 776.003 0.335068 -1.53997 0
M  V30 8141 C 776.936 1.43533 -1.77407 0
M  V30 8142 C 777.914 1.5017 -0.623529 0
M  V30 8143 O 779.098 1.67756 -0.85966 0
M  V30 8144 C 776.225 2.81712 -1.88033 0
M  V30 8145 C 775.271 2.92661 -3.10245 0
M  V30 8146 S 776.104 2.58254 -4.69111 0
M  V30 8147 C 777.26 3.98525 -4.82627 0
M  V30 8148 H 777.493 1.2346 -2.70453 0
M  V30 8149 H 775.026 0.531234 -1.44973 0
M  V30 8150 H 776.984 3.61314 -1.9484 0
M  V30 8151 H 775.645 2.99075 -0.959849 0
M  V30 8152 H 774.838 3.93931 -3.14379 0
M  V30 8153 H 774.44 2.21017 -3.01708 0
M  V30 8154 H 776.732 4.93146 -4.64557 0
M  V30 8155 H 777.675 3.9938 -5.84723 0
M  V30 8156 H 778.083 3.86945 -4.11016 0
M  V30 8157 N 777.481 1.45874 0.596531 0
M  V30 8158 C 778.428 1.55389 1.70655 0
M  V30 8159 C 779.398 0.399036 1.61236 0
M  V30 8160 O 780.583 0.61396 1.80652 0
M  V30 8161 C 777.723 1.53705 3.0898 0
M  V30 8162 C 776.836 2.79823 3.29125 0
M  V30 8163 C 775.971 2.69735 4.5762 0
M  V30 8164 C 775.01 3.90856 4.71061 0
M  V30 8165 N 774.147 3.79237 5.90867 0
M  V30 8166 H 778.987 2.50211 1.61859 0
M  V30 8167 H 776.524 1.24146 0.789069 0
M  V30 8168 H 778.482 1.50715 3.89026 0
M  V30 8169 H 777.112 0.624247 3.16706 0
M  V30 8170 H 776.164 2.92852 2.42779 0
M  V30 8171 H 777.476 3.69628 3.34927 0
M  V30 8172 H 776.63 2.64773 5.45875 0
M  V30 8173 H 775.369 1.77547 4.54234 0
M  V30 8174 H 774.374 3.96164 3.81227 0
M  V30 8175 H 775.599 4.84124 4.76236 0
M  V30 8176 H 773.545 2.89825 5.88504 0
M  V30 8177 H 773.462 4.62686 5.97877 0
M  V30 8178 H 774.73 3.78227 6.8159 0
M  V30 8179 N 778.959 -0.83999 1.33349 0
M  V30 8180 C 779.907 -1.97113 1.23488 0
M  V30 8181 C 780.901 -1.68849 0.136503 0
M  V30 8182 O 782.107 -1.77476 0.300389 0
M  V30 8183 H 778.482 -0.647049 0.383185 0
M  V30 8184 H 780.453 -2.02554 2.19122 0
M  V30 8185 C 779.202 -3.33314 0.989815 0
M  V30 8186 H 778.525 -3.556 1.82726 0
M  V30 8187 H 779.965 -4.12963 0.961123 0
M  V30 8188 C 778.424 -3.35496 -0.307272 0
M  V30 8189 O 778.954 -3.79589 -1.31434 0
M  V30 8190 N 777.16 -2.88669 -0.334414 0
M  V30 8191 H 776.707 -2.5298 0.485659 0
M  V30 8192 H 776.665 -2.90512 -1.20209 0
M  V30 8193 N 780.437 -1.16799 -1.0581 0
M  V30 8194 C 781.387 -0.847231 -2.11674 0
M  V30 8195 C 782.371 0.175476 -1.5994 0
M  V30 8196 O 783.563 -0.0260602 -1.76981 0
M  V30 8197 C 780.692 -0.355446 -3.41455 0
M  V30 8198 C 779.778 -1.40922 -4.00002 0
M  V30 8199 N 780.169 -2.62096 -4.32596 0
M  V30 8200 C 778.467 -1.26562 -4.27666 0
M  V30 8201 C 779.168 -3.29759 -4.79201 0
M  V30 8202 N 778.144 -2.57138 -4.78938 0
M  V30 8203 H 781.946 -1.76862 -2.34727 0
M  V30 8204 H 779.46 -1.05577 -1.23399 0
M  V30 8205 H 781.457 -0.107231 -4.16762 0
M  V30 8206 H 780.117 0.559817 -3.19838 0
M  V30 8207 H 781.128 -2.99113 -4.22791 0
M  V30 8208 H 777.805 -0.411503 -4.15467 0
M  V30 8209 H 779.195 -4.33222 -5.13584 0
M  V30 8210 N 781.915 1.24427 -0.967243 0
M  V30 8211 C 783.331 1.44684 -0.6737 0
M  V30 8212 C 783.531 1.86429 0.764625 0
M  V30 8213 O 782.587 2.00211 1.53857 0
M  V30 8214 C 783.9 2.509 -1.6574 0
M  V30 8215 C 785.448 2.64728 -1.66998 0
M  V30 8216 C 785.923 3.7414 -2.64165 0
M  V30 8217 N 787.414 3.81567 -2.62604 0
M  V30 8218 C 788.149 4.6575 -3.34462 0
M  V30 8219 N 787.645 5.54124 -4.15835 0
M  V30 8220 N 789.438 4.59827 -3.23288 0
M  V30 8221 H 781.589 0.956276 -1.89655 0
M  V30 8222 H 783.852 0.48171 -0.816492 0
M  V30 8223 H 783.558 2.27113 -2.68538 0
M  V30 8224 H 783.432 3.4905 -1.42981 0
M  V30 8225 H 785.819 2.87872 -0.649121 0
M  V30 8226 H 785.9 1.66936 -1.93819 0
M  V30 8227 H 785.544 3.51745 -3.66384 0
M  V30 8228 H 785.474 4.71444 -2.34623 0
M  V30 8229 H 787.965 3.18403 -2.03539 0
M  V30 8230 H 788.278 6.15316 -4.67553 0
M  V30 8231 H 786.623 5.53791 -4.19929 0
M  V30 8232 H 789.814 3.898 -2.59179 0
M  V30 8233 H 789.987 5.25208 -3.79553 0
M  V30 8234 N 783.393 0.737304 1.3929 0
M  V30 8235 C 784.303 0.100464 2.34385 0
M  V30 8236 C 785.319 -0.719282 1.58437 0
M  V30 8237 O 786.495 -0.647216 1.90717 0
M  V30 8238 C 783.56 -0.794325 3.37478 0
M  V30 8239 C 782.621 0.0379345 4.29283 0
M  V30 8240 C 781.854 -0.814241 5.27452 0
M  V30 8241 O 782.077 -2.05288 5.32177 0
M  V30 8242 O 781.011 -0.241679 6.01415 0
M  V30 8243 H 784.837 0.885407 2.90507 0
M  V30 8244 H 782.422 0.497999 1.40856 0
M  V30 8245 H 784.304 -1.30622 4.00644 0
M  V30 8246 H 782.979 -1.55804 2.83737 0
M  V30 8247 H 781.886 0.595405 3.69331 0
M  V30 8248 H 783.219 0.763926 4.86236 0
M  V30 8249 N 784.871 -1.49948 0.485112 0
M  V30 8250 C 786.096 -2.073 -0.0645059 0
M  V30 8251 C 786.521 -1.345 -1.31497 0
M  V30 8252 O 785.879 -0.39687 -1.76903 0
M  V30 8253 C 785.927 -3.59201 -0.317304 0
M  V30 8254 O 785.031 -3.88085 -1.39514 0
M  V30 8255 H 784.372 -0.663723 0.0191822 0
M  V30 8256 H 786.902 -1.92963 0.680179 0
M  V30 8257 H 786.912 -4.04227 -0.553604 0
M  V30 8258 H 785.587 -4.11602 0.596387 0
M  V30 8259 H 784.164 -3.54885 -1.14504 0
M  V30 8260 N 786.349 -0.21828 -1.56081 0
M  V30 8261 C 787.297 0.709679 -2.21509 0
M  V30 8262 C 788.291 1.20221 -1.19346 0
M  V30 8263 O 789.497 1.16241 -1.37433 0
M  V30 8264 H 785.872 0.247271 -0.710184 0
M  V30 8265 H 787.843 0.134386 -2.98097 0
M  V30 8266 C 786.592 1.90853 -2.90638 0
M  V30 8267 H 785.915 1.53865 -3.69006 0
M  V30 8268 H 787.355 2.53568 -3.39822 0
M  V30 8269 C 785.814 2.76189 -1.92929 0
M  V30 8270 O 786.344 3.74842 -1.44416 0
M  V30 8271 N 784.55 2.42157 -1.6065 0
M  V30 8272 H 784.097 1.61987 -2.00294 0
M  V30 8273 H 784.055 2.99534 -0.955347 0
M  V30 8274 N 787.827 1.57504 0.0551401 0
M  V30 8275 C 789.052 1.92682 0.767352 0
M  V30 8276 C 789.477 0.81614 1.69472 0
M  V30 8277 O 788.835 -0.229989 1.79835 0
M  V30 8278 C 788.883 3.26866 1.52286 0
M  V30 8279 O 787.987 3.17274 2.63459 0
M  V30 8280 H 787.328 0.630502 0.208238 0
M  V30 8281 H 789.858 2.04592 0.0184026 0
M  V30 8282 H 789.868 3.61138 1.8985 0
M  V30 8283 H 788.543 4.07276 0.842541 0
M  V30 8284 H 787.12 2.94589 2.2863 0
M  V30 8285 N 789.305 -0.326896 1.54172 0
M  V30 8286 C 790.253 -1.42232 1.84046 0
M  V30 8287 C 791.247 -1.53705 0.712115 0
M  V30 8288 O 792.453 -1.56131 0.895724 0
M  V30 8289 H 788.828 -0.474568 0.583343 0
M  V30 8290 H 790.799 -1.14259 2.75658 0
M  V30 8291 C 789.548 -2.78502 2.08163 0
M  V30 8292 H 788.871 -2.70447 2.94446 0
M  V30 8293 H 790.311 -3.54228 2.33021 0
M  V30 8294 C 788.77 -3.25415 0.872152 0
M  V30 8295 O 789.3 -4.01621 0.0797648 0
M  V30 8296 N 787.506 -2.82418 0.684716 0
M  V30 8297 H 787.053 -2.20566 1.33072 0
M  V30 8298 H 787.011 -3.14159 -0.123031 0
M  V30 8299 N 790.784 -1.46188 -0.588786 0
M  V30 8300 C 791.716 -1.52319 -1.71265 0
M  V30 8301 C 792.729 -0.412096 -1.57498 0
M  V30 8302 O 793.918 -0.680146 -1.65034 0
M  V30 8303 C 791.018 -1.38164 -3.09458 0
M  V30 8304 C 790.191 -2.63284 -3.49286 0
M  V30 8305 C 789.25 -2.43415 -4.66514 0
M  V30 8306 O 788.276 -3.17113 -4.72682 0
M  V30 8307 N 789.478 -1.49187 -5.61002 0
M  V30 8308 H 792.243 -2.49219 -1.66463 0
M  V30 8309 H 789.804 -1.42167 -0.774601 0
M  V30 8310 H 791.796 -1.22653 -3.85666 0
M  V30 8311 H 790.366 -0.494678 -3.08661 0
M  V30 8312 H 789.586 -2.93779 -2.62845 0
M  V30 8313 H 790.874 -3.46413 -3.7266 0
M  V30 8314 H 790.272 -0.884027 -5.5875 0
M  V30 8315 H 788.829 -1.39642 -6.36666 0
M  V30 8316 N 792.262 0.832906 -1.33792 0
M  V30 8317 C 793.502 1.60217 -1.26925 0
M  V30 8318 C 793.866 1.91323 0.161146 0
M  V30 8319 O 795.067 2.66461 0.353864 0
M  V30 8320 C 793.338 2.87314 -2.12568 0
M  V30 8321 S 794.897 3.77939 -2.22952 0
M  V30 8322 H 791.715 0.549273 -0.451464 0
M  V30 8323 H 794.317 0.984648 -1.68893 0
M  V30 8324 H 793.021 2.62444 -3.15518 0
M  V30 8325 H 792.552 3.5407 -1.71459 0
M  V30 8326 H 794.567 4.76188 -1.39496 0
M  V30 8327 N 793.74 1.17359 1.05189 0
M  V30 8328 C 794.986 0.963413 1.78455 0
M  V30 8329 C 795.319 -0.506703 1.87473 0
M  V30 8330 O 794.594 -1.37611 1.37453 0
M  V30 8331 C 794.877 1.60519 3.22344 0
M  V30 8332 C 794.73 3.14741 3.21338 0
M  V30 8333 C 796.049 1.3091 4.20179 0
M  V30 8334 H 793.168 0.351412 0.647826 0
M  V30 8335 H 795.81 1.44858 1.22948 0
M  V30 8336 H 793.96 1.19265 3.69741 0
M  V30 8337 H 795.632 3.65053 2.82017 0
M  V30 8338 H 793.875 3.4749 2.59679 0
M  V30 8339 H 794.546 3.54775 4.22894 0
M  V30 8340 H 797.022 1.66635 3.81277 0
M  V30 8341 H 795.898 1.784 5.191 0
M  V30 8342 H 796.159 0.229908 4.41502 0
M  V30 8343 N 795.218 -1.23913 0.973828 0
M  V30 8344 C 796.448 -1.95911 0.655938 0
M  V30 8345 C 796.856 -1.72375 -0.779967 0
M  V30 8346 O 796.199 -1.00807 -1.5357 0
M  V30 8347 C 796.261 -3.49103 0.858324 0
M  V30 8348 C 795.925 -3.96347 2.27504 0
M  V30 8349 C 796.922 -4.05537 3.25324 0
M  V30 8350 C 794.607 -4.29509 2.60437 0
M  V30 8351 C 796.601 -4.47233 4.5416 0
M  V30 8352 C 794.288 -4.70887 3.89498 0
M  V30 8353 C 795.286 -4.79714 4.86172 0
M  V30 8354 O 794.974 -5.20166 6.1293 0
M  V30 8355 H 794.706 -0.630721 0.243244 0
M  V30 8356 H 797.26 -1.58534 1.30599 0
M  V30 8357 H 795.49 -3.86405 0.151097 0
M  V30 8358 H 797.179 -4.02311 0.538592 0
M  V30 8359 H 797.945 -3.80128 3.0121 0
M  V30 8360 H 793.824 -4.21853 1.85906 0
M  V30 8361 H 797.368 -4.54038 5.29618 0
M  V30 8362 H 793.265 -4.95744 4.1341 0
M  V30 8363 H 794.033 -5.38298 6.16586 0
M  V30 8364 N 796.696 -0.74468 -1.38897 0
M  V30 8365 C 797.659 -0.11945 -2.28889 0
M  V30 8366 C 798.659 0.656942 -1.46768 0
M  V30 8367 O 799.849 0.484525 -1.67326 0
M  V30 8368 C 796.981 0.839635 -3.30398 0
M  V30 8369 H 798.174 -0.912414 -2.85683 0
M  V30 8370 H 795.727 -0.511119 -1.47707 0
M  V30 8371 H 796.462 1.6586 -2.78677 0
M  V30 8372 H 796.247 0.285432 -3.9106 0
M  V30 8373 H 797.737 1.27337 -3.97712 0
M  V30 8374 N 798.174 1.49689 -0.493057 0
M  V30 8375 C 799.137 2.27502 0.278485 0
M  V30 8376 C 800.137 1.33184 0.901037 0
M  V30 8377 O 801.327 1.56415 0.766801 0
M  V30 8378 C 798.459 3.10881 1.39878 0
M  V30 8379 H 799.652 2.97163 -0.404219 0
M  V30 8380 H 797.205 1.54324 -0.247774 0
M  V30 8381 H 797.94 2.45767 2.11587 0
M  V30 8382 H 797.725 3.80219 0.957924 0
M  V30 8383 H 799.215 3.69673 1.94247 0
M  V30 8384 N 799.652 0.226554 1.55963 0
M  V30 8385 C 800.602 -0.694986 2.1715 0
M  V30 8386 C 801.586 -1.15394 1.12129 0
M  V30 8387 O 802.778 -1.1071 1.38102 0
M  V30 8388 C 799.907 -1.9007 2.85882 0
M  V30 8389 C 798.993 -1.46119 3.98133 0
M  V30 8390 N 799.384 -0.734584 5.00437 0
M  V30 8391 C 797.682 -1.74809 4.10314 0
M  V30 8392 C 798.383 -0.509773 5.79462 0
M  V30 8393 N 797.359 -1.06796 5.33006 0
M  V30 8394 H 801.161 -0.131469 2.93606 0
M  V30 8395 H 798.675 0.0280165 1.62376 0
M  V30 8396 H 800.672 -2.57169 3.28131 0
M  V30 8397 H 799.332 -2.46864 2.10923 0
M  V30 8398 H 800.343 -0.386757 5.16454 0
M  V30 8399 H 797.02 -2.32887 3.46511 0
M  V30 8400 H 798.41 0.0688847 6.71865 0
M  V30 8401 N 801.13 -1.57531 -0.0467866 0
M  V30 8402 C 802.078 -2.06455 -1.0714 0
M  V30 8403 C 803.072 -0.974744 -1.38546 0
M  V30 8404 O 804.278 -1.15974 -1.37659 0
M  V30 8405 H 800.653 -0.658607 -0.362962 0
M  V30 8406 H 802.624 -2.91613 -0.632813 0
M  V30 8407 C 801.373 -2.54481 -2.36927 0
M  V30 8408 H 800.696 -3.37946 -2.13617 0
M  V30 8409 H 802.136 -2.92442 -3.07007 0
M  V30 8410 C 800.595 -1.43836 -3.04652 0
M  V30 8411 O 801.125 -0.794531 -3.93764 0
M  V30 8412 N 799.331 -1.17727 -2.65686 0
M  V30 8413 H 798.878 -1.70265 -1.93307 0
M  V30 8414 H 798.836 -0.439051 -3.11319 0
M  V30 8415 N 802.608 0.318715 -1.54344 0
M  V30 8416 C 803.833 1.07987 -1.77069 0
M  V30 8417 C 804.258 1.80766 -0.520117 0
M  V30 8418 O 803.616 1.73424 0.528566 0
M  V30 8419 C 803.664 2.04987 -2.96669 0
M  V30 8420 O 802.768 3.12974 -2.68554 0
M  V30 8421 H 802.109 0.311109 -0.586606 0
M  V30 8422 H 804.639 0.361533 -2.0138 0
M  V30 8423 H 804.649 2.47771 -3.2415 0
M  V30 8424 H 803.324 1.51417 -3.87357 0
M  V30 8425 H 801.901 2.74831 -2.52037 0
M  V30 8426 N 804.086 1.46499 0.581025 0
M  V30 8427 C 805.332 1.52121 1.34116 0
M  V30 8428 C 805.665 0.173031 1.93428 0
M  V30 8429 O 804.94 -0.815729 1.76568 0
M  V30 8430 C 805.223 2.62108 2.46924 0
M  V30 8431 C 805.076 4.06462 1.92636 0
M  V30 8432 C 806.395 2.68167 3.48962 0
M  V30 8433 H 803.514 0.5538 0.486287 0
M  V30 8434 H 806.156 1.78443 0.652538 0
M  V30 8435 H 804.306 2.39794 3.05665 0
M  V30 8436 H 805.978 4.40068 1.3834 0
M  V30 8437 H 804.221 4.15862 1.23455 0
M  V30 8438 H 804.892 4.79152 2.74076 0
M  V30 8439 H 807.368 2.8823 3.00104 0
M  V30 8440 H 806.244 3.46942 4.2535 0
M  V30 8441 H 806.505 1.74284 4.06297 0
M  V30 8442 N 805.565 -0.825799 1.34232 0
M  V30 8443 C 806.814 -1.57686 1.2577 0
M  V30 8444 C 807.127 -1.94848 -0.171372 0
M  V30 8445 O 808.333 -2.68854 -0.378123 0
M  V30 8446 C 806.789 -2.84478 2.20454 0
M  V30 8447 C 806.397 -2.54629 3.68603 0
M  V30 8448 C 808.141 -3.625 2.20893 0
M  V30 8449 C 806.048 -3.77597 4.55164 0
M  V30 8450 H 804.978 -0.591809 0.467203 0
M  V30 8451 H 807.629 -0.909421 1.59379 0
M  V30 8452 H 806.011 -3.52832 1.79793 0
M  V30 8453 H 807.185 -1.94404 4.17784 0
M  V30 8454 H 805.5 -1.89888 3.70582 0
M  V30 8455 H 808.097 -4.538 2.82789 0
M  V30 8456 H 808.44 -3.98404 1.20746 0
M  V30 8457 H 808.973 -3.01086 2.59985 0
M  V30 8458 H 805.712 -3.46815 5.56237 0
M  V30 8459 H 805.232 -4.37116 4.10719 0
M  V30 8460 H 806.911 -4.45039 4.69627 0
M  V30 8461 N 807.043 -1.17915 -1.04565 0
M  V30 8462 C 808.289 -0.972863 -1.77942 0
M  V30 8463 C 808.622 0.496753 -1.87739 0
M  V30 8464 O 807.897 1.3688 -1.38181 0
M  V30 8465 C 808.18 -1.62227 -3.21488 0
M  V30 8466 C 808.033 -3.16441 -3.19664 0
M  V30 8467 C 809.352 -1.33137 -4.19479 0
M  V30 8468 H 806.471 -0.354843 -0.645953 0
M  V30 8469 H 809.113 -1.45508 -1.22178 0
M  V30 8470 H 807.263 -1.21224 -3.69103 0
M  V30 8471 H 808.935 -3.66544 -2.80077 0
M  V30 8472 H 807.178 -3.48863 -2.57832 0
M  V30 8473 H 807.849 -3.57012 -4.21006 0
M  V30 8474 H 810.325 -1.68654 -3.80388 0
M  V30 8475 H 809.201 -1.81151 -5.18146 0
M  V30 8476 H 809.462 -0.253319 -4.41374 0
M  V30 8477 N 808.521 1.23394 -0.980386 0
M  V30 8478 C 809.798 1.87242 -0.565667 0
M  V30 8479 C 810.178 1.88151 0.957197 0
M  V30 8480 O 809.526 1.36309 1.8339 0
M  V30 8481 C 809.736 3.28743 -1.17172 0
M  V30 8482 C 811.084 4.05335 -1.26446 0
M  V30 8483 O 812.108 3.37962 -1.12517 0
M  V30 8484 O 810.967 5.25908 -1.48604 0
M  V30 8485 H 808.061 0.80477 -0.190459 0
M  V30 8486 H 810.607 1.3127 -1.07547 0
M  V30 8487 H 809.379 3.22647 -2.21392 0
M  V30 8488 H 809.002 3.92305 -0.646739 0
M  V30 8489 N 809.999 0.752036 1.385 0
M  V30 8490 C 810.909 0.125318 2.34265 0
M  V30 8491 C 811.925 -0.702437 1.59191 0
M  V30 8492 O 813.101 -0.626951 1.91393 0
M  V30 8493 C 810.166 -0.758486 3.38301 0
M  V30 8494 C 809.227 0.0834636 4.29219 0
M  V30 8495 C 808.46 -0.758252 5.28286 0
M  V30 8496 O 808.683 -1.99632 5.34325 0
M  V30 8497 O 807.617 -0.177878 6.01637 0
M  V30 8498 H 811.443 0.91617 2.89551 0
M  V30 8499 H 809.028 0.512911 1.4032 0
M  V30 8500 H 810.91 -1.26365 4.02007 0
M  V30 8501 H 809.585 -1.52786 2.85374 0
M  V30 8502 H 808.492 0.634545 3.68679 0
M  V30 8503 H 809.825 0.815455 4.85398 0
M  V30 8504 N 811.477 -1.49425 0.500989 0
M  V30 8505 C 812.717 -2.04357 -0.0419004 0
M  V30 8506 C 813.081 -1.37236 -1.34277 0
M  V30 8507 O 814.282 -1.82889 -1.9699 0
M  V30 8508 C 812.553 -3.56889 -0.19112 0
M  V30 8509 S 814.112 -4.33369 -0.688259 0
M  V30 8510 H 810.93 -0.710998 -0.00177796 0
M  V30 8511 H 813.532 -1.83479 0.674953 0
M  V30 8512 H 812.236 -4.03283 0.760964 0
M  V30 8513 H 811.767 -3.82171 -0.933214 0
M  V30 8514 H 813.782 -4.55961 -1.9574 0
M  V30 8515 N 812.955 -0.234822 -1.55841 0
M  V30 8516 C 813.902 0.6698 -2.20867 0
M  V30 8517 C 814.872 1.18042 -1.16856 0
M  V30 8518 O 816.057 1.23709 -1.45261 0
M  V30 8519 C 813.197 1.86646 -2.90271 0
M  V30 8520 C 812.31 1.39351 -4.08908 0
M  V30 8521 C 811.445 2.54878 -4.66059 0
M  V30 8522 C 810.484 2.04384 -5.76969 0
M  V30 8523 N 809.621 3.13233 -6.28355 0
M  V30 8524 H 814.461 0.10858 -2.97802 0
M  V30 8525 H 811.998 0.041836 -1.4704 0
M  V30 8526 H 813.956 2.56926 -3.28702 0
M  V30 8527 H 812.586 2.40035 -2.15831 0
M  V30 8528 H 811.638 0.585173 -3.75872 0
M  V30 8529 H 812.95 0.983356 -4.89011 0
M  V30 8530 H 812.104 3.33219 -5.07001 0
M  V30 8531 H 810.843 2.99188 -3.85146 0
M  V30 8532 H 809.848 1.24509 -5.35516 0
M  V30 8533 H 811.073 1.61057 -6.59725 0
M  V30 8534 H 809.019 3.57 -5.50352 0
M  V30 8535 H 808.936 2.76511 -7.03618 0
M  V30 8536 H 810.204 3.91669 -6.73955 0
M  V30 8537 N 814.433 1.57553 0.0384317 0
M  V30 8538 C 815.679 1.89121 0.732199 0
M  V30 8539 C 816.012 0.831404 1.75503 0
M  V30 8540 O 815.287 -0.154642 1.93884 0
M  V30 8541 C 815.57 3.31338 1.41021 0
M  V30 8542 C 815.423 4.48004 0.401532 0
M  V30 8543 C 816.742 3.72318 2.34665 0
M  V30 8544 H 813.861 0.687819 0.264715 0
M  V30 8545 H 816.503 1.89999 -0.00496279 0
M  V30 8546 H 814.653 3.3072 2.03854 0
M  V30 8547 H 816.325 4.60755 -0.224159 0
M  V30 8548 H 814.568 4.32895 -0.280092 0
M  V30 8549 H 815.239 5.44377 0.91423 0
M  V30 8550 H 817.715 3.74243 1.81883 0
M  V30 8551 H 816.591 4.72652 2.7909 0
M  V30 8552 H 816.852 3.04062 3.20934 0
M  V30 8553 N 815.911 -0.310526 1.54511 0
M  V30 8554 C 817.139 -1.06611 1.77318 0
M  V30 8555 C 817.554 -1.81265 0.528043 0
M  V30 8556 O 816.911 -1.75466 -0.50178 0
M  V30 8557 C 816.962 -2.05409 2.97472 0
M  V30 8558 O 816.683 -1.33785 4.17173 0
M  V30 8559 C 818.184 -2.93082 3.32593 0
M  V30 8560 H 815.404 -0.316578 0.591624 0
M  V30 8561 H 817.948 -0.352691 2.01436 0
M  V30 8562 H 816.103 -2.72266 2.7559 0
M  V30 8563 H 816.517 -2.00055 4.84849 0
M  V30 8564 H 817.991 -3.58274 4.19933 0
M  V30 8565 H 818.468 -3.60877 2.50329 0
M  V30 8566 H 819.074 -2.31768 3.566 0
M  V30 8567 N 817.389 -1.46805 -0.573248 0
M  V30 8568 C 818.319 -1.60951 -1.69165 0
M  V30 8569 C 819.3 -0.45948 -1.63777 0
M  V30 8570 O 820.485 -0.68688 -1.81647 0
M  V30 8571 C 817.615 -1.60844 -3.07809 0
M  V30 8572 C 816.569 -2.74913 -3.28035 0
M  V30 8573 C 815.895 -2.59871 -4.67302 0
M  V30 8574 C 817.195 -4.16654 -3.14955 0
M  V30 8575 H 818.889 -2.54574 -1.57582 0
M  V30 8576 H 816.435 -1.22516 -0.756686 0
M  V30 8577 H 818.388 -1.69334 -3.85881 0
M  V30 8578 H 817.112 -0.637714 -3.20314 0
M  V30 8579 H 815.771 -2.65908 -2.52366 0
M  V30 8580 H 815.419 -1.60861 -4.76585 0
M  V30 8581 H 815.119 -3.36386 -4.81786 0
M  V30 8582 H 816.643 -2.70265 -5.4753 0
M  V30 8583 H 818.057 -4.26721 -3.82861 0
M  V30 8584 H 816.454 -4.93831 -3.40956 0
M  V30 8585 H 817.524 -4.36146 -2.11908 0
M  V30 8586 N 818.867 0.818669 -1.34668 0
M  V30 8587 C 819.83 1.9114 -1.26483 0
M  V30 8588 C 820.83 1.598 -0.179044 0
M  V30 8589 O 822.02 1.6876 -0.431952 0
M  V30 8590 C 819.152 3.27285 -0.95381 0
M  V30 8591 H 820.345 1.9982 -2.23634 0
M  V30 8592 H 817.898 1.01314 -1.19018 0
M  V30 8593 H 818.633 3.24297 0.0143428 0
M  V30 8594 H 818.418 3.51416 -1.73924 0
M  V30 8595 H 819.908 4.07299 -0.921827 0
M  V30 8596 N 820.346 1.18468 1.03938 0
M  V30 8597 C 821.309 0.914944 2.10146 0
M  V30 8598 C 822.309 -0.10022 1.60487 0
M  V30 8599 O 823.499 0.133365 1.73689 0
M  V30 8600 C 820.631 0.372993 3.38853 0
M  V30 8601 H 821.824 1.85677 2.35508 0
M  V30 8602 H 819.377 0.996876 1.20383 0
M  V30 8603 H 820.112 -0.57538 3.19155 0
M  V30 8604 H 819.897 1.1048 3.76213 0
M  V30 8605 H 821.387 0.203014 4.17106 0
M  V30 8606 N 821.824 -1.22873 0.986916 0
M  V30 8607 C 822.772 -2.26597 0.525043 0
M  V30 8608 C 823.766 -1.64079 -0.421252 0
M  V30 8609 O 824.972 -1.77576 -0.294429 0
M  V30 8610 H 821.347 -0.736606 0.151381 0
M  V30 8611 H 823.318 -2.62909 1.41142 0
M  V30 8612 C 822.067 -3.47374 -0.150542 0
M  V30 8613 H 821.39 -3.95737 0.568541 0
M  V30 8614 H 822.83 -4.21739 -0.437256 0
M  V30 8615 C 821.289 -3.07163 -1.38392 0
M  V30 8616 O 821.819 -3.16028 -2.47971 0
M  V30 8617 N 820.025 -2.62009 -1.25697 0
M  V30 8618 H 819.572 -2.54996 -0.365355 0
M  V30 8619 H 819.53 -2.35472 -2.08327 0
M  V30 8620 N 823.302 -0.75937 -1.38099 0
M  V30 8621 C 824.55 -0.317485 -1.99591 0
M  V30 8622 C 824.871 1.10628 -1.60581 0
M  V30 8623 O 824.141 1.7575 -0.865378 0
M  V30 8624 H 822.721 -0.114397 -0.738189 0
M  V30 8625 H 825.383 -0.974749 -1.68774 0
M  V30 8626 H 824.479 -0.385227 -3.09713 0
M  V30 8627 N 824.78 1.49157 -0.508906 0
M  V30 8628 C 825.727 2.2927 0.265288 0
M  V30 8629 C 826.697 1.3603 0.953162 0
M  V30 8630 O 827.882 1.64989 0.958291 0
M  V30 8631 C 825.022 3.18897 1.31904 0
M  V30 8632 C 824.135 4.27201 0.642144 0
M  V30 8633 C 823.27 5.04033 1.67701 0
M  V30 8634 C 822.309 6.04165 0.982422 0
M  V30 8635 N 821.446 6.74133 1.96186 0
M  V30 8636 H 826.286 2.94967 -0.424107 0
M  V30 8637 H 823.823 1.45431 -0.220991 0
M  V30 8638 H 825.781 3.69242 1.94206 0
M  V30 8639 H 824.411 2.55168 1.97709 0
M  V30 8640 H 823.463 3.80283 -0.0943395 0
M  V30 8641 H 824.775 4.98708 0.0957507 0
M  V30 8642 H 823.929 5.58287 2.37487 0
M  V30 8643 H 822.668 4.32317 2.25728 0
M  V30 8644 H 821.673 5.49135 0.270378 0
M  V30 8645 H 822.898 6.7787 0.408554 0
M  V30 8646 H 820.844 6.05183 2.53159 0
M  V30 8647 H 820.761 7.41643 1.46634 0
M  V30 8648 H 822.029 7.32987 2.65236 0
M  V30 8649 N 826.258 0.243083 1.55714 0
M  V30 8650 C 827.483 -0.389944 2.03701 0
M  V30 8651 C 827.908 -1.51025 1.12129 0
M  V30 8652 O 827.266 -1.80944 0.11352 0
M  V30 8653 C 827.314 -0.878649 3.49731 0
M  V30 8654 O 826.418 -1.98851 3.61292 0
M  V30 8655 H 825.759 -0.0855115 0.658471 0
M  V30 8656 H 828.289 0.368023 2.01263 0
M  V30 8657 H 828.299 -1.18287 3.90477 0
M  V30 8658 H 826.974 -0.0588107 4.15858 0
M  V30 8659 H 825.551 -1.68928 3.32442 0
M  V30 8660 N 827.736 -1.57571 -0.0300757 0
M  V30 8661 C 828.699 -2.05468 -1.01565 0
M  V30 8662 C 829.699 -0.958628 -1.29101 0
M  V30 8663 O 830.889 -1.22228 -1.24121 0
M  V30 8664 C 828.021 -2.47077 -2.34874 0
M  V30 8665 H 829.214 -2.93797 -0.601936 0
M  V30 8666 H 826.767 -1.53828 -0.276878 0
M  V30 8667 H 827.502 -1.61901 -2.80996 0
M  V30 8668 H 827.287 -3.27097 -2.16218 0
M  V30 8669 H 828.777 -2.84564 -3.05635 0
M  V30 8670 N 829.214 0.302327 -1.54673 0
M  V30 8671 C 830.491 1.05721 -1.64567 0
M  V30 8672 C 830.871 2.0526 -0.493108 0
M  V30 8673 O 830.219 2.22729 0.510315 0
M  V30 8674 C 830.429 1.74025 -3.02517 0
M  V30 8675 C 831.777 2.26271 -3.59286 0
M  V30 8676 O 832.801 1.8406 -3.0496 0
M  V30 8677 O 831.66 3.0361 -4.54404 0
M  V30 8678 H 828.754 0.488577 -0.667249 0
M  V30 8679 H 831.3 0.300521 -1.67018 0
M  V30 8680 H 830.072 1.0174 -3.77842 0
M  V30 8681 H 829.695 2.56454 -3.03838 0
M  V30 8682 N 830.692 1.47107 0.565454 0
M  V30 8683 C 831.932 1.5488 1.33385 0
M  V30 8684 C 832.296 0.202804 1.90926 0
M  V30 8685 O 833.497 0.155345 2.68351 0
M  V30 8686 C 831.768 2.62969 2.42037 0
M  V30 8687 S 833.327 2.90269 3.29074 0
M  V30 8688 H 830.145 0.547008 0.454206 0
M  V30 8689 H 832.747 1.8444 0.648228 0
M  V30 8690 H 831.451 3.59376 1.98185 0
M  V30 8691 H 830.982 2.35197 3.15351 0
M  V30 8692 H 832.997 2.26854 4.41307 0
M  V30 8693 N 832.17 -0.811516 1.35101 0
M  V30 8694 C 833.395 -1.60499 1.31358 0
M  V30 8695 C 833.82 -1.87793 -0.107383 0
M  V30 8696 O 833.178 -1.46161 -1.07268 0
M  V30 8697 C 833.226 -2.91612 2.12119 0
M  V30 8698 O 832.33 -3.84211 1.49853 0
M  V30 8699 H 831.671 -0.487702 0.450603 0
M  V30 8700 H 834.201 -1.00758 1.7807 0
M  V30 8701 H 834.211 -3.4108 2.23894 0
M  V30 8702 H 832.886 -2.71071 3.15426 0
M  V30 8703 H 831.463 -3.42751 1.46889 0
M  V30 8704 N 833.648 -1.19017 -1.03309 0
M  V30 8705 C 834.894 -0.991681 -1.769 0
M  V30 8706 C 835.227 0.476813 -1.88255 0
M  V30 8707 O 834.502 1.35407 -1.39625 0
M  V30 8708 C 834.785 -1.65627 -3.19749 0
M  V30 8709 C 834.638 -3.19813 -3.1629 0
M  V30 8710 C 835.957 -1.37579 -4.18043 0
M  V30 8711 H 833.076 -0.361674 -0.642153 0
M  V30 8712 H 835.718 -1.46795 -1.20628 0
M  V30 8713 H 833.868 -1.25132 -3.67796 0
M  V30 8714 H 835.54 -3.69494 -2.76174 0
M  V30 8715 H 833.783 -3.51578 -2.54117 0
M  V30 8716 H 834.454 -3.61457 -4.17196 0
M  V30 8717 H 836.93 -1.72679 -3.78578 0
M  V30 8718 H 835.806 -1.86636 -5.16196 0
M  V30 8719 H 836.067 -0.300118 -4.4108 0
M  V30 8720 N 835.127 1.22348 -0.993418 0
M  V30 8721 C 836.037 2.27987 -0.553076 0
M  V30 8722 C 837.053 1.69378 0.398386 0
M  V30 8723 O 838.229 1.99648 0.26509 0
M  V30 8724 C 835.294 3.46475 0.124809 0
M  V30 8725 C 834.355 4.20399 -0.869682 0
M  V30 8726 C 833.588 5.33229 -0.224052 0
M  V30 8727 O 833.811 5.61885 0.981915 0
M  V30 8728 O 832.745 5.94685 -0.929174 0
M  V30 8729 H 836.571 2.67822 -1.43195 0
M  V30 8730 H 834.156 1.28525 -0.761694 0
M  V30 8731 H 836.038 4.18369 0.504496 0
M  V30 8732 H 834.713 3.08565 0.978243 0
M  V30 8733 H 833.62 3.50774 -1.30031 0
M  V30 8734 H 834.953 4.62191 -1.69233 0
M  V30 8735 N 836.605 0.766683 1.37694 0
M  V30 8736 C 837.515 0.150158 2.34119 0
M  V30 8737 C 838.531 -0.685513 1.59927 0
M  V30 8738 O 839.707 -0.606616 1.92047 0
M  V30 8739 C 836.772 -0.722562 3.39087 0
M  V30 8740 C 835.833 0.128983 4.29106 0
M  V30 8741 C 835.066 -0.702178 5.29061 0
M  V30 8742 O 835.289 -1.93954 5.36412 0
M  V30 8743 O 834.223 -0.114056 6.01792 0
M  V30 8744 H 838.049 0.946829 2.88563 0
M  V30 8745 H 835.634 0.527765 1.39768 0
M  V30 8746 H 837.516 -1.22095 4.03325 0
M  V30 8747 H 836.191 -1.49751 2.86978 0
M  V30 8748 H 835.098 0.673612 3.67985 0
M  V30 8749 H 836.431 0.866892 4.84506 0
M  V30 8750 N 838.083 -1.48885 0.516809 0
M  V30 8751 C 838.993 -2.33185 -0.257293 0
M  V30 8752 C 840.009 -1.4565 -0.951952 0
M  V30 8753 O 841.185 -1.78651 -0.929834 0
M  V30 8754 C 838.25 -3.21465 -1.29851 0
M  V30 8755 C 837.311 -4.24863 -0.615608 0
M  V30 8756 C 836.544 -5.08925 -1.60722 0
M  V30 8757 O 836.767 -4.9475 -2.83863 0
M  V30 8758 O 835.701 -5.90737 -1.15384 0
M  V30 8759 H 839.527 -3.00596 0.433131 0
M  V30 8760 H 837.112 -1.46792 0.277908 0
M  V30 8761 H 838.994 -3.76108 -1.90055 0
M  V30 8762 H 837.669 -2.5673 -1.97158 0
M  V30 8763 H 836.576 -3.74091 0.0265829 0
M  V30 8764 H 837.909 -4.92198 0.0152871 0
M  V30 8765 N 839.561 -0.251338 -1.55583 0
M  V30 8766 C 840.972 0.25098 -1.85005 0
M  V30 8767 C 841.323 1.57259 -1.17321 0
M  V30 8768 O 840.448 2.11603 -0.453136 0
M  V30 8769 C 841.043 0.462161 -3.35633 0
M  V30 8770 C 839.602 0.908737 -3.65266 0
M  V30 8771 C 838.749 -0.0115418 -2.77298 0
M  V30 8772 H 841.7 -0.473782 -1.51463 0
M  V30 8773 H 841.721 1.30415 -3.57452 0
M  V30 8774 H 841.233 -0.499886 -3.84867 0
M  V30 8775 H 839.334 1.8831 -3.21512 0
M  V30 8776 H 839.447 0.762526 -4.72993 0
M  V30 8777 H 837.811 0.500612 -2.49732 0
M  V30 8778 H 838.594 -0.969042 -3.29339 0
M  V30 8779 N 841.039 1.57585 0.0217189 0
M  V30 8780 C 842.285 1.90733 0.706582 0
M  V30 8781 C 842.64 0.850732 1.7257 0
M  V30 8782 O 841.933 -0.139715 1.9109 0
M  V30 8783 C 842.127 3.28377 1.41079 0
M  V30 8784 C 841.956 4.47327 0.461395 0
M  V30 8785 C 840.726 5.05237 0.0797404 0
M  V30 8786 C 842.924 5.13626 -0.263302 0
M  V30 8787 N 840.906 6.07702 -0.870139 0
M  V30 8788 C 842.277 6.10722 -1.06859 0
M  V30 8789 C 844.332 4.96809 -0.329461 0
M  V30 8790 C 843.035 6.92813 -1.93397 0
M  V30 8791 C 845.061 5.79468 -1.18199 0
M  V30 8792 C 844.423 6.7614 -1.97519 0
M  V30 8793 H 840.522 0.74666 0.232427 0
M  V30 8794 H 843.106 1.94671 -0.0335228 0
M  V30 8795 H 841.277 3.25354 2.12131 0
M  V30 8796 H 843.009 3.49018 2.04862 0
M  V30 8797 H 839.764 4.71519 0.443498 0
M  V30 8798 H 840.188 6.6361 -1.33981 0
M  V30 8799 H 844.83 4.2194 0.269485 0
M  V30 8800 H 842.548 7.67022 -2.54369 0
M  V30 8801 H 846.134 5.68502 -1.23681 0
M  V30 8802 H 845.014 7.38989 -2.62421 0
M  V30 8803 N 842.517 -0.29412 1.54831 0
M  V30 8804 C 843.464 -1.36296 1.86258 0
M  V30 8805 C 844.434 -1.50061 0.712097 0
M  V30 8806 O 845.619 -1.64809 0.961381 0
M  V30 8807 C 842.759 -2.72187 2.12151 0
M  V30 8808 C 841.872 -2.66816 3.39755 0
M  V30 8809 C 841.007 -3.94747 3.55455 0
M  V30 8810 C 840.046 -3.838 4.76827 0
M  V30 8811 N 839.183 -5.03521 4.89296 0
M  V30 8812 H 844.023 -1.08796 2.7743 0
M  V30 8813 H 841.56 -0.526069 1.37371 0
M  V30 8814 H 843.518 -3.51225 2.25159 0
M  V30 8815 H 842.148 -2.97934 1.24237 0
M  V30 8816 H 841.2 -1.79605 3.3533 0
M  V30 8817 H 842.512 -2.5462 4.28917 0
M  V30 8818 H 841.666 -4.82223 3.68166 0
M  V30 8819 H 840.405 -4.09785 2.64438 0
M  V30 8820 H 839.41 -2.94708 4.64141 0
M  V30 8821 H 840.635 -3.70301 5.69258 0
M  V30 8822 H 838.581 -5.1901 4.01204 0
M  V30 8823 H 838.498 -4.93775 5.72471 0
M  V30 8824 H 839.766 -5.92629 5.06371 0
M  V30 8825 N 843.995 -1.47404 -0.557645 0
M  V30 8826 C 845.411 -1.32913 -0.88353 0
M  V30 8827 C 845.611 -0.31929 -1.98954 0
M  V30 8828 O 844.667 0.26934 -2.51059 0
M  V30 8829 C 845.98 -2.72229 -1.27718 0
M  V30 8830 C 847.528 -2.8051 -1.38863 0
M  V30 8831 C 848.003 -4.20466 -1.81583 0
M  V30 8832 N 849.494 -4.23005 -1.88735 0
M  V30 8833 C 850.229 -5.2821 -2.23118 0
M  V30 8834 N 849.725 -6.4372 -2.56117 0
M  V30 8835 N 851.518 -5.15588 -2.23888 0
M  V30 8836 H 843.669 -2.11698 0.172557 0
M  V30 8837 H 845.932 -0.947889 0.0145334 0
M  V30 8838 H 845.638 -3.47556 -0.538329 0
M  V30 8839 H 845.512 -3.03971 -2.23342 0
M  V30 8840 H 847.899 -2.05457 -2.11829 0
M  V30 8841 H 847.98 -2.52423 -0.414274 0
M  V30 8842 H 847.624 -4.96025 -1.09187 0
M  V30 8843 H 847.554 -4.45977 -2.80021 0
M  V30 8844 H 850.045 -3.39674 -1.65621 0
M  V30 8845 H 850.358 -7.19754 -2.81378 0
M  V30 8846 H 848.703 -6.47041 -2.53698 0
M  V30 8847 H 851.894 -4.24374 -1.97546 0
M  V30 8848 H 852.067 -5.97685 -2.50353 0
M  V30 8849 N 845.473 0.80434 -1.35529 0
M  V30 8850 C 846.383 1.94784 -1.30753 0
M  V30 8851 C 847.399 1.72703 -0.212071 0
M  V30 8852 O 848.575 1.96494 -0.441841 0
M  V30 8853 C 845.64 3.29406 -1.08133 0
M  V30 8854 C 844.701 3.64367 -2.27013 0
M  V30 8855 C 843.934 4.92566 -2.05463 0
M  V30 8856 O 844.157 5.61166 -1.02222 0
M  V30 8857 O 843.091 5.25838 -2.92879 0
M  V30 8858 H 846.917 2.01761 -2.26994 0
M  V30 8859 H 844.502 0.942448 -1.15924 0
M  V30 8860 H 846.384 4.09995 -0.973756 0
M  V30 8861 H 845.059 3.23355 -0.149444 0
M  V30 8862 H 843.966 2.84146 -2.43335 0
M  V30 8863 H 845.299 3.75125 -3.18656 0
M  V30 8864 N 846.951 1.19563 1.02676 0
M  V30 8865 C 847.898 0.935291 2.11 0
M  V30 8866 C 848.868 -0.130685 1.65585 0
M  V30 8867 O 850.053 0.0119062 1.90796 0
M  V30 8868 C 847.193 0.482384 3.41712 0
M  V30 8869 C 846.306 1.61537 4.00662 0
M  V30 8870 C 845.441 1.11378 5.19392 0
M  V30 8871 C 844.48 2.22052 5.70403 0
M  V30 8872 N 843.617 1.73185 6.80405 0
M  V30 8873 H 848.457 1.86275 2.32606 0
M  V30 8874 H 845.994 0.928656 1.14081 0
M  V30 8875 H 847.952 0.20118 4.16715 0
M  V30 8876 H 846.582 -0.408086 3.2021 0
M  V30 8877 H 845.634 2.01173 3.22852 0
M  V30 8878 H 846.946 2.44912 4.34534 0
M  V30 8879 H 846.1 0.787935 6.01562 0
M  V30 8880 H 844.839 0.249789 4.8706 0
M  V30 8881 H 843.844 2.55465 4.86845 0
M  V30 8882 H 845.069 3.08911 6.04774 0
M  V30 8883 H 843.015 0.890973 6.49921 0
M  V30 8884 H 842.932 2.50148 7.13416 0
M  V30 8885 H 844.2 1.4357 7.66164 0
M  V30 8886 O 848.468 -1.15601 1.12777 0
M  V30 8887 H 849.159 -1.74498 0.840847 0
M  V30 END ATOM
M  V30 BEGIN BOND
M  V30 END BOND
M  V30 END CTAB
M  END
$$$$
